# Generated by pormake.
# Topology vbw, (6)-cn, num edge types: 1
# Building blocks:
#     Node 0, Type 0, BuildingBlock: IZENUY_clean_sbu_0, # of connection points: 6
#     Node 1, Type 0, BuildingBlock: IZENUY_clean_sbu_0, # of connection points: 6
#     Node 2, Type 0, BuildingBlock: IZENUY_clean_sbu_0, # of connection points: 6
#     Node 3, Type 0, BuildingBlock: IZENUY_clean_sbu_0, # of connection points: 6
#     Node 4, Type 0, BuildingBlock: IZENUY_clean_sbu_0, # of connection points: 6
#     Node 5, Type 0, BuildingBlock: IZENUY_clean_sbu_0, # of connection points: 6
#     Node 6, Type 0, BuildingBlock: IZENUY_clean_sbu_0, # of connection points: 6
#     Node 7, Type 0, BuildingBlock: IZENUY_clean_sbu_0, # of connection points: 6
#     Node 8, Type 0, BuildingBlock: IZENUY_clean_sbu_0, # of connection points: 6
#     Node 9, Type 0, BuildingBlock: IZENUY_clean_sbu_0, # of connection points: 6
#     Node 10, Type 0, BuildingBlock: IZENUY_clean_sbu_0, # of connection points: 6
#     Node 11, Type 0, BuildingBlock: IZENUY_clean_sbu_0, # of connection points: 6
#     Node 12, Type 0, BuildingBlock: IZENUY_clean_sbu_0, # of connection points: 6
#     Node 13, Type 0, BuildingBlock: IZENUY_clean_sbu_0, # of connection points: 6
#     Node 14, Type 0, BuildingBlock: IZENUY_clean_sbu_0, # of connection points: 6
#     Node 15, Type 0, BuildingBlock: IZENUY_clean_sbu_0, # of connection points: 6
#     Edge 16, Type (0, 0), BuildingBlock: XIVTED_clean_linker_0, # of connection points: 2
#     Edge 17, Type (0, 0), BuildingBlock: XIVTED_clean_linker_0, # of connection points: 2
#     Edge 18, Type (0, 0), BuildingBlock: XIVTED_clean_linker_0, # of connection points: 2
#     Edge 19, Type (0, 0), BuildingBlock: XIVTED_clean_linker_0, # of connection points: 2
#     Edge 20, Type (0, 0), BuildingBlock: XIVTED_clean_linker_0, # of connection points: 2
#     Edge 21, Type (0, 0), BuildingBlock: XIVTED_clean_linker_0, # of connection points: 2
#     Edge 22, Type (0, 0), BuildingBlock: XIVTED_clean_linker_0, # of connection points: 2
#     Edge 23, Type (0, 0), BuildingBlock: XIVTED_clean_linker_0, # of connection points: 2
#     Edge 24, Type (0, 0), BuildingBlock: XIVTED_clean_linker_0, # of connection points: 2
#     Edge 25, Type (0, 0), BuildingBlock: XIVTED_clean_linker_0, # of connection points: 2
#     Edge 26, Type (0, 0), BuildingBlock: XIVTED_clean_linker_0, # of connection points: 2
#     Edge 27, Type (0, 0), BuildingBlock: XIVTED_clean_linker_0, # of connection points: 2
#     Edge 28, Type (0, 0), BuildingBlock: XIVTED_clean_linker_0, # of connection points: 2
#     Edge 29, Type (0, 0), BuildingBlock: XIVTED_clean_linker_0, # of connection points: 2
#     Edge 30, Type (0, 0), BuildingBlock: XIVTED_clean_linker_0, # of connection points: 2
#     Edge 31, Type (0, 0), BuildingBlock: XIVTED_clean_linker_0, # of connection points: 2
#     Edge 32, Type (0, 0), BuildingBlock: XIVTED_clean_linker_0, # of connection points: 2
#     Edge 33, Type (0, 0), BuildingBlock: XIVTED_clean_linker_0, # of connection points: 2
#     Edge 34, Type (0, 0), BuildingBlock: XIVTED_clean_linker_0, # of connection points: 2
#     Edge 35, Type (0, 0), BuildingBlock: XIVTED_clean_linker_0, # of connection points: 2
#     Edge 36, Type (0, 0), BuildingBlock: XIVTED_clean_linker_0, # of connection points: 2
#     Edge 37, Type (0, 0), BuildingBlock: XIVTED_clean_linker_0, # of connection points: 2
#     Edge 38, Type (0, 0), BuildingBlock: XIVTED_clean_linker_0, # of connection points: 2
#     Edge 39, Type (0, 0), BuildingBlock: XIVTED_clean_linker_0, # of connection points: 2
#     Edge 40, Type (0, 0), BuildingBlock: XIVTED_clean_linker_0, # of connection points: 2
#     Edge 41, Type (0, 0), BuildingBlock: XIVTED_clean_linker_0, # of connection points: 2
#     Edge 42, Type (0, 0), BuildingBlock: XIVTED_clean_linker_0, # of connection points: 2
#     Edge 43, Type (0, 0), BuildingBlock: XIVTED_clean_linker_0, # of connection points: 2
#     Edge 44, Type (0, 0), BuildingBlock: XIVTED_clean_linker_0, # of connection points: 2
#     Edge 45, Type (0, 0), BuildingBlock: XIVTED_clean_linker_0, # of connection points: 2
#     Edge 46, Type (0, 0), BuildingBlock: XIVTED_clean_linker_0, # of connection points: 2
#     Edge 47, Type (0, 0), BuildingBlock: XIVTED_clean_linker_0, # of connection points: 2
#     Edge 48, Type (0, 0), BuildingBlock: XIVTED_clean_linker_0, # of connection points: 2
#     Edge 49, Type (0, 0), BuildingBlock: XIVTED_clean_linker_0, # of connection points: 2
#     Edge 50, Type (0, 0), BuildingBlock: XIVTED_clean_linker_0, # of connection points: 2
#     Edge 51, Type (0, 0), BuildingBlock: XIVTED_clean_linker_0, # of connection points: 2
#     Edge 52, Type (0, 0), BuildingBlock: XIVTED_clean_linker_0, # of connection points: 2
#     Edge 53, Type (0, 0), BuildingBlock: XIVTED_clean_linker_0, # of connection points: 2
#     Edge 54, Type (0, 0), BuildingBlock: XIVTED_clean_linker_0, # of connection points: 2
#     Edge 55, Type (0, 0), BuildingBlock: XIVTED_clean_linker_0, # of connection points: 2
#     Edge 56, Type (0, 0), BuildingBlock: XIVTED_clean_linker_0, # of connection points: 2
#     Edge 57, Type (0, 0), BuildingBlock: XIVTED_clean_linker_0, # of connection points: 2
#     Edge 58, Type (0, 0), BuildingBlock: XIVTED_clean_linker_0, # of connection points: 2
#     Edge 59, Type (0, 0), BuildingBlock: XIVTED_clean_linker_0, # of connection points: 2
#     Edge 60, Type (0, 0), BuildingBlock: XIVTED_clean_linker_0, # of connection points: 2
#     Edge 61, Type (0, 0), BuildingBlock: XIVTED_clean_linker_0, # of connection points: 2
#     Edge 62, Type (0, 0), BuildingBlock: XIVTED_clean_linker_0, # of connection points: 2
#     Edge 63, Type (0, 0), BuildingBlock: XIVTED_clean_linker_0, # of connection points: 2
# Relax obj value: 0.219
# Max RMSD: 0.233
# Mean RMSD: 0.232
data_MOF--net-vbw--node1-IZENUY_clean_sbu_0--edge1-XIVTED_clean_linker_0
_symmetry_space_group_name_H-M    P1
_symmetry_Int_Tables_number       1
_symmetry_cell_setting            triclinic
loop_
_symmetry_equiv_pos_as_xyz
'x, y, z'
_cell_length_a     56.526219
_cell_length_b     45.64256
_cell_length_c     27.567662
_cell_angle_alpha  89.837081
_cell_angle_beta   89.968181
_cell_angle_gamma 89.991071
loop_
_atom_site_label
_atom_site_type_symbol
_atom_site_fract_x
_atom_site_fract_y
_atom_site_fract_z
_atom_type_partial_charge
Fe0 Fe 0.12439 0.21547 0.10879 0.0
Fe1 Fe 0.12189 0.15701 0.16372 0.0
O2 O 0.13388 0.1789 0.11665 0.0
Fe3 Fe 0.15563 0.16418 0.07782 0.0
O4 O 0.17679 0.1912 0.09672 0.0
O5 O 0.15329 0.22904 0.08719 0.0
O6 O 0.13382 0.22512 0.1692 0.0
C7 C 0.12626 0.2132 0.20738 0.0
C8 C 0.1282 0.20046 1.01414 0.0
O9 O 0.11684 0.18794 0.20596 0.0
C10 C 0.12616 0.11745 0.08448 0.0
O11 O 0.09381 0.20815 0.12855 0.0
O12 O 0.09255 0.16028 0.13844 0.0
O13 O 0.14688 0.18618 0.02412 0.0
O14 O 0.11447 0.2084 0.04761 0.0
C15 C 0.16878 0.14317 0.17025 0.0
O16 O 0.1247 0.12208 0.12988 0.0
O17 O 0.13557 0.13618 0.05696 0.0
C18 C 0.08226 0.1843 0.13017 0.0
O19 O 0.15068 0.15287 0.19159 0.0
O20 O 0.1688 0.14008 0.12449 0.0
C21 C 0.17389 0.2183 0.09124 0.0
Fe22 Fe 0.36477 0.87496 0.66265 0.0
Fe23 Fe 0.33179 0.86912 0.57531 0.0
O24 O 0.35307 0.85368 0.61467 0.0
Fe25 Fe 0.36231 0.81704 0.60648 0.0
O26 O 0.35248 0.80688 0.66659 0.0
O27 O 0.36924 0.84362 0.70454 0.0
O28 O 0.3357 0.87913 0.68941 0.0
C29 C 0.31794 0.88936 0.66754 0.0
C30 C 0.40462 0.8476 0.6303 0.0
O31 O 0.31843 0.89296 0.62188 0.0
C32 C 0.35921 0.83281 0.51194 0.0
O33 O 0.36252 0.91027 0.62935 0.0
O34 O 0.35232 0.89707 0.55572 0.0
O35 O 0.39292 0.82391 0.62692 0.0
O36 O 0.39438 0.87163 0.63872 0.0
C37 C 0.31279 0.81511 0.58719 0.0
O38 O 0.34073 0.84751 0.5216 0.0
O39 O 0.37265 0.82443 0.54562 0.0
C40 C 0.36144 0.9155 0.58404 0.0
O41 O 0.31016 0.84223 0.59282 0.0
O42 O 0.33333 0.80399 0.58406 0.0
C43 C 0.35978 0.81838 0.70521 0.0
Fe44 Fe 0.12429 0.8178 0.92143 0.0
Fe45 Fe 0.12174 0.87636 0.86675 0.0
O46 O 0.13367 0.85444 0.91385 0.0
Fe47 Fe 0.15524 0.86924 0.95295 0.0
O48 O 0.17658 0.84235 0.93427 0.0
O49 O 0.15318 0.80434 0.943 0.0
O50 O 0.13381 0.80831 0.86094 0.0
C51 C 0.1262 0.82024 0.82281 0.0
C52 C 0.12788 0.83268 0.01627 0.0
O53 O 0.11679 0.8455 0.82435 0.0
C54 C 0.12569 0.91587 0.94611 0.0
O55 O 0.09372 0.82508 0.90167 0.0
O56 O 0.09234 0.87297 0.89183 0.0
O57 O 0.14645 0.84718 1.00645 0.0
O58 O 0.11428 0.82459 0.98271 0.0
C59 C 0.16862 0.89033 0.86077 0.0
O60 O 0.12441 0.91128 0.90069 0.0
O61 O 0.13499 0.89709 0.97369 0.0
C62 C 0.08213 0.84889 0.90013 0.0
O63 O 0.15063 0.88059 0.83913 0.0
O64 O 0.16842 0.89346 0.9065 0.0
C65 C 0.17376 0.81522 0.93955 0.0
Fe66 Fe 0.36582 0.15799 0.36633 0.0
Fe67 Fe 0.33256 0.16466 0.45313 0.0
O68 O 0.35414 0.17961 0.41391 0.0
Fe69 Fe 0.36373 0.21614 0.42188 0.0
O70 O 0.35414 0.22626 0.36161 0.0
O71 O 0.37066 0.18911 0.3242 0.0
O72 O 0.33685 0.15409 0.33922 0.0
C73 C 0.31889 0.14419 0.36085 0.0
C74 C 0.40584 0.18491 0.3985 0.0
O75 O 0.31907 0.14089 0.40658 0.0
C76 C 0.36022 0.20069 0.51648 0.0
O77 O 0.36316 0.12285 0.39995 0.0
O78 O 0.35268 0.13639 0.47327 0.0
O79 O 0.39434 0.20878 0.40167 0.0
O80 O 0.39537 0.161 0.39055 0.0
C81 C 0.31418 0.21893 0.44063 0.0
O82 O 0.34158 0.18632 0.50677 0.0
O83 O 0.37385 0.2087 0.48285 0.0
C84 C 0.3618 0.11777 0.44527 0.0
O85 O 0.3113 0.19186 0.43503 0.0
O86 O 0.33482 0.22972 0.44402 0.0
C87 C 0.36139 0.21446 0.32317 0.0
Fe88 Fe 0.86535 0.87345 0.86987 0.0
Fe89 Fe 0.86319 0.8158 0.92703 0.0
O90 O 0.85288 0.85179 0.9166 0.0
Fe91 Fe 0.82975 0.86603 0.95252 0.0
O92 O 0.81705 0.88916 0.9037 0.0
O93 O 0.83717 0.87614 0.83924 0.0
O94 O 0.87195 0.84204 0.82921 0.0
C95 C 0.86337 0.81627 0.82842 0.0
C96 C 0.8582 0.91385 0.94743 0.0
O97 O 0.85543 0.80472 0.86653 0.0
C98 C 0.85629 0.83111 0.02026 0.0
O99 O 0.89422 0.87168 0.89768 0.0
O100 O 0.89397 0.824 0.90972 0.0
O101 O 0.84846 0.89514 0.97458 0.0
O102 O 0.861 0.90869 0.90238 0.0
C103 C 0.8135 0.81103 0.93887 0.0
O104 O 0.8714 0.82442 0.98861 0.0
O105 O 0.83762 0.84478 1.00793 0.0
C106 C 0.90498 0.84819 0.90738 0.0
O107 O 0.83421 0.80136 0.94626 0.0
O108 O 0.80998 0.83789 0.93194 0.0
C109 C 0.81836 0.88557 0.8581 0.0
Fe110 Fe 0.65413 0.16616 0.46572 0.0
Fe111 Fe 0.62489 0.15718 0.37162 0.0
O112 O 0.63451 0.1799 0.42045 0.0
Fe113 Fe 0.62493 0.21706 0.42414 0.0
O114 O 0.65517 0.23065 0.41883 0.0
O115 O 0.66928 0.20077 0.47446 0.0
O116 O 0.67644 0.15788 0.4206 0.0
C117 C 0.67402 0.1449 0.38053 0.0
C118 C 0.6253 0.19954 0.52272 0.0
O119 O 0.65369 0.13898 0.36368 0.0
C120 C 0.58357 0.1885 0.40153 0.0
O121 O 0.64294 0.12882 0.46534 0.0
O122 O 0.61401 0.12839 0.41216 0.0
O123 O 0.62599 0.21887 0.48998 0.0
O124 O 0.63338 0.17413 0.51495 0.0
C125 C 0.62997 0.21007 0.32312 0.0
O126 O 0.59461 0.17211 0.37192 0.0
O127 O 0.59438 0.20577 0.4296 0.0
C128 C 0.62479 0.117 0.4476 0.0
O129 O 0.6348 0.18314 0.32522 0.0
O130 O 0.62165 0.22317 0.35933 0.0
C131 C 0.67172 0.22238 0.44639 0.0
Fe132 Fe 0.86515 0.15808 0.15975 0.0
Fe133 Fe 0.86324 0.21558 0.10218 0.0
O134 O 0.85307 0.17951 0.11233 0.0
Fe135 Fe 0.83048 0.16496 0.07539 0.0
O136 O 0.81737 0.14182 0.12372 0.0
O137 O 0.83663 0.15516 0.18908 0.0
O138 O 0.87109 0.18966 0.20052 0.0
C139 C 0.8623 0.21533 0.20074 0.0
C140 C 0.85909 0.11739 0.08217 0.0
O141 O 0.85469 0.22667 0.16221 0.0
C142 C 0.85755 0.20003 1.00876 0.0
O143 O 0.89432 0.16007 0.13324 0.0
O144 O 0.89387 0.20773 0.12094 0.0
O145 O 0.84965 0.13602 0.05443 0.0
O146 O 0.86138 0.12269 0.12729 0.0
C147 C 0.81367 0.21982 0.08774 0.0
O148 O 0.87224 0.20693 0.04105 0.0
O149 O 0.83885 0.18617 0.02029 0.0
C150 C 0.90501 0.18365 0.1238 0.0
O151 O 0.83441 0.2297 0.08152 0.0
O152 O 0.81024 0.19295 0.09474 0.0
C153 C 0.81813 0.14545 0.16937 0.0
Fe154 Fe 0.62263 0.8152 0.60343 0.0
Fe155 Fe 0.65384 0.86454 0.5628 0.0
O156 O 0.63351 0.85175 0.60737 0.0
Fe157 Fe 0.62437 0.87466 0.65615 0.0
O158 O 0.63385 0.848 0.70212 0.0
O159 O 0.61775 0.80973 0.66816 0.0
O160 O 0.65235 0.8001 0.61074 0.0
C161 C 0.66956 0.80762 0.58409 0.0
C162 C 0.58227 0.8457 0.62449 0.0
O163 O 0.66816 0.82924 0.55562 0.0
C164 C 0.62533 0.91471 0.57998 0.0
O165 O 0.62477 0.81278 0.53776 0.0
O166 O 0.63343 0.85708 0.51274 0.0
O167 O 0.59372 0.86077 0.6554 0.0
O168 O 0.5927 0.82837 0.59583 0.0
C169 C 0.67367 0.88552 0.64833 0.0
O170 O 0.6433 0.90224 0.5624 0.0
O171 O 0.61426 0.90383 0.61556 0.0
C172 C 0.62495 0.83192 0.50472 0.0
O173 O 0.67605 0.87229 0.60849 0.0
O174 O 0.65338 0.89207 0.66457 0.0
C175 C 0.62678 0.82185 0.70459 0.0
Fe176 Fe 0.62345 0.71556 0.09986 0.0
Fe177 Fe 0.6204 0.65837 0.15836 0.0
O178 O 0.63351 0.67964 0.1119 0.0
Fe179 Fe 0.65716 0.66509 0.07776 0.0
O180 O 0.67667 0.69324 0.09944 0.0
O181 O 0.65276 0.72965 0.08212 0.0
O182 O 0.6303 0.72726 0.1606 0.0
C183 C 0.62216 0.71587 0.1987 0.0
C184 C 0.63176 0.69916 1.00752 0.0
O185 O 0.61364 0.69006 0.19816 0.0
C186 C 0.62827 0.61761 0.08152 0.0
O187 O 0.59244 0.70775 0.1156 0.0
O188 O 0.59176 0.66025 0.1294 0.0
O189 O 0.65038 0.68618 0.02181 0.0
O190 O 0.61609 0.70631 0.03777 0.0
C191 C 0.6672 0.64576 0.17266 0.0
O192 O 0.62485 0.62295 0.12636 0.0
O193 O 0.63862 0.63606 0.05479 0.0
C194 C 0.58122 0.68375 0.11869 0.0
O195 O 0.64826 0.65554 0.19048 0.0
O196 O 0.66892 0.64191 0.12725 0.0
C197 C 0.67336 0.72002 0.09113 0.0
Fe198 Fe 0.86171 0.37452 0.65634 0.0
Fe199 Fe 0.83248 0.36507 0.56244 0.0
O200 O 0.85234 0.35165 0.60751 0.0
Fe201 Fe 0.86242 0.31471 0.60375 0.0
O202 O 0.86568 0.30871 0.66858 0.0
O203 O 0.85185 0.34844 0.70265 0.0
O204 O 0.83286 0.39257 0.66399 0.0
C205 C 0.81254 0.38618 0.64766 0.0
C206 C 0.90339 0.34394 0.62676 0.0
O207 O 0.81013 0.37294 0.60782 0.0
C208 C 0.86162 0.33221 0.50514 0.0
O209 O 0.87249 0.40327 0.6156 0.0
O210 O 0.84335 0.40259 0.56286 0.0
O211 O 0.89285 0.32662 0.59835 0.0
O212 O 0.89206 0.3599 0.65652 0.0
C213 C 0.81567 0.30843 0.58158 0.0
O214 O 0.85317 0.35744 0.51294 0.0
O215 O 0.86141 0.31291 0.53794 0.0
C216 C 0.86156 0.41454 0.58022 0.0
O217 O 0.81769 0.33022 0.55376 0.0
O218 O 0.83238 0.30046 0.60897 0.0
C219 C 0.85692 0.32157 0.70461 0.0
Fe220 Fe 0.62345 0.31609 0.92536 0.0
Fe221 Fe 0.62062 0.37378 0.86847 0.0
O222 O 0.63334 0.35228 0.91514 0.0
Fe223 Fe 0.65627 0.3669 0.95114 0.0
O224 O 0.67642 0.33904 0.93088 0.0
O225 O 0.65252 0.30211 0.94465 0.0
O226 O 0.6314 0.30527 0.86478 0.0
C227 C 0.62324 0.31672 0.82681 0.0
C228 C 0.62998 0.33155 0.01871 0.0
O229 O 0.61435 0.34232 0.82781 0.0
C230 C 0.62741 0.41434 0.94589 0.0
O231 O 0.59261 0.32377 0.90805 0.0
O232 O 0.59175 0.37148 0.89636 0.0
O233 O 0.64848 0.34562 1.00652 0.0
O234 O 0.61506 0.3244 0.98699 0.0
C235 C 0.66754 0.38653 0.85667 0.0
O236 O 0.62463 0.4091 0.90089 0.0
O237 O 0.63724 0.39574 0.97307 0.0
C238 C 0.58128 0.34775 0.90592 0.0
O239 O 0.64879 0.37693 0.8378 0.0
O240 O 0.6688 0.39013 0.90228 0.0
C241 C 0.67317 0.31213 0.93786 0.0
Fe242 Fe 0.86088 0.71685 0.42644 0.0
Fe243 Fe 0.86071 0.65718 0.37319 0.0
O244 O 0.85128 0.67972 0.42246 0.0
Fe245 Fe 0.83183 0.66571 0.46788 0.0
O246 O 0.81673 0.70021 0.47761 0.0
O247 O 0.83059 0.73055 0.4224 0.0
O248 O 0.86362 0.72328 0.36159 0.0
C249 C 0.85516 0.71026 0.32543 0.0
C250 C 0.86097 0.69875 0.52481 0.0
O251 O 0.85048 0.68328 0.32725 0.0
C252 C 0.86126 0.61678 0.44876 0.0
O253 O 0.89154 0.70556 0.43074 0.0
O254 O 0.89091 0.6722 0.37266 0.0
O255 O 0.85276 0.67341 0.51688 0.0
O256 O 0.86029 0.71823 0.49231 0.0
C257 C 0.81166 0.64481 0.3828 0.0
O258 O 0.87193 0.62838 0.41333 0.0
O259 O 0.84303 0.62837 0.46664 0.0
C260 C 0.90216 0.68836 0.4022 0.0
O261 O 0.83197 0.63881 0.3659 0.0
O262 O 0.80932 0.65774 0.42295 0.0
C263 C 0.81417 0.72208 0.45019 0.0
Fe264 Fe 0.36428 0.37605 0.86552 0.0
Fe265 Fe 0.36212 0.31782 0.92125 0.0
O266 O 0.35245 0.35428 0.91291 0.0
Fe267 Fe 0.33067 0.36901 0.95162 0.0
O268 O 0.3174 0.39293 0.90484 0.0
O269 O 0.33543 0.37993 0.83777 0.0
O270 O 0.36938 0.34495 0.82352 0.0
C271 C 0.36005 0.31962 0.82258 0.0
C272 C 0.35998 0.41584 0.94449 0.0
O273 O 0.3527 0.30782 0.86102 0.0
C274 C 0.35821 0.33315 0.01569 0.0
O275 O 0.39363 0.3731 0.89065 0.0
O276 O 0.39269 0.32529 0.90136 0.0
O277 O 0.35065 0.39713 0.97218 0.0
O278 O 0.36139 0.41111 0.89909 0.0
C279 C 0.31262 0.31475 0.93877 0.0
O280 O 0.37201 0.3252 0.98236 0.0
O281 O 0.33948 0.34725 1.00549 0.0
C282 C 0.40408 0.34924 0.89932 0.0
O283 O 0.33327 0.30415 0.943 0.0
O284 O 0.30961 0.3418 0.93297 0.0
C285 C 0.31738 0.38972 0.85912 0.0
Fe286 Fe 0.15314 0.66403 0.45399 0.0
Fe287 Fe 0.1198 0.65792 0.3673 0.0
O288 O 0.13168 0.67935 0.41492 0.0
Fe289 Fe 0.12246 0.71602 0.42298 0.0
O290 O 0.15152 0.72915 0.44478 0.0
O291 O 0.17468 0.69091 0.43592 0.0
O292 O 0.16634 0.6401 0.40736 0.0
C293 C 0.16671 0.64372 0.36171 0.0
C294 C 0.12598 0.70046 0.51761 0.0
O295 O 0.14879 0.65373 0.34005 0.0
C296 C 0.08001 0.68542 0.39993 0.0
O297 O 0.13275 0.63608 0.47415 0.0
O298 O 0.12219 0.62271 0.40082 0.0
O299 O 0.1124 0.70881 0.48413 0.0
O300 O 0.14441 0.68573 0.5077 0.0
C301 C 0.12457 0.71435 0.32419 0.0
O302 O 0.09022 0.66134 0.39164 0.0
O303 O 0.09177 0.70909 0.40312 0.0
C304 C 0.12349 0.61758 0.44614 0.0
O305 O 0.11515 0.6891 0.32528 0.0
O306 O 0.13201 0.72603 0.36257 0.0
C307 C 0.17205 0.71803 0.44144 0.0
Fe308 Fe 0.36244 0.71512 0.10834 0.0
Fe309 Fe 0.33053 0.6646 0.07688 0.0
O310 O 0.35235 0.67877 0.11605 0.0
Fe311 Fe 0.36377 0.65654 0.16328 0.0
O312 O 0.36913 0.68729 0.20575 0.0
O313 O 0.35305 0.72496 0.1687 0.0
O314 O 0.33379 0.7294 0.08669 0.0
C315 C 0.31302 0.7191 0.0904 0.0
C316 C 0.40399 0.68283 0.13006 0.0
O317 O 0.30971 0.69206 0.09569 0.0
C318 C 0.35936 0.61727 0.08369 0.0
O319 O 0.37236 0.70796 0.04712 0.0
O320 O 0.33969 0.6865 0.02343 0.0
O321 O 0.39329 0.6591 0.13855 0.0
O322 O 0.39286 0.70697 0.12824 0.0
C323 C 0.31662 0.64379 0.16889 0.0
O324 O 0.35029 0.63624 0.05613 0.0
O325 O 0.3606 0.62174 0.12918 0.0
C326 C 0.35854 0.70042 1.01357 0.0
O327 O 0.31688 0.64065 0.12316 0.0
O328 O 0.33473 0.65308 0.19066 0.0
C329 C 0.3602 0.71282 0.207 0.0
Fe330 Fe 0.12372 0.31684 0.60667 0.0
Fe331 Fe 0.15403 0.36926 0.57623 0.0
O332 O 0.1327 0.35354 0.61521 0.0
Fe333 Fe 0.12064 0.37459 0.66311 0.0
O334 O 0.1163 0.34307 0.70474 0.0
O335 O 0.13352 0.30664 0.66675 0.0
O336 O 0.15282 0.30413 0.58425 0.0
C337 C 0.1733 0.31539 0.58764 0.0
C338 C 0.0811 0.34682 0.63034 0.0
O339 O 0.17576 0.34249 0.59377 0.0
C340 C 0.12404 0.41537 0.58484 0.0
O341 O 0.11345 0.32438 0.54584 0.0
O342 O 0.14533 0.34775 0.52225 0.0
O343 O 0.09114 0.37096 0.63875 0.0
O344 O 0.09301 0.32328 0.62702 0.0
C345 C 0.16734 0.38946 0.66885 0.0
O346 O 0.13344 0.39711 0.55658 0.0
O347 O 0.12274 0.41001 0.63009 0.0
C348 C 0.12692 0.333 0.51233 0.0
O349 O 0.16712 0.39306 0.62318 0.0
O350 O 0.14952 0.37905 0.69033 0.0
C351 C 0.12605 0.31799 0.70538 0.0
H352 H 0.17329 0.13958 0.26915 0.0
H353 H 0.31429 0.14017 0.26209 0.0
H354 H 0.21369 0.13231 0.13682 0.0
H355 H 0.27402 0.13328 0.39471 0.0
H356 H 0.27777 0.13472 0.21573 0.0
H357 H 0.20982 0.13467 0.31574 0.0
C358 C 0.1898 0.13658 0.24983 0.0
C359 C 0.19037 0.13643 0.19887 0.0
C360 C 0.27692 0.13405 0.25496 0.0
C361 C 0.23243 0.13117 0.25223 0.0
C362 C 0.29781 0.13716 0.28153 0.0
C363 C 0.29728 0.13726 0.33249 0.0
C364 C 0.25521 0.13136 0.27938 0.0
C365 C 0.27534 0.13326 0.35553 0.0
C366 C 0.21069 0.13379 0.27654 0.0
C367 C 0.21235 0.13248 0.17599 0.0
N368 N 0.25518 0.13079 0.32884 0.0
N369 N 0.2325 0.13032 0.20279 0.0
H370 H 0.21308 0.90217 0.89548 0.0
H371 H 0.27356 0.90134 0.63235 0.0
H372 H 0.17399 0.89304 0.76188 0.0
H373 H 0.31246 0.8924 0.76628 0.0
H374 H 0.23703 0.90676 0.67916 0.0
H375 H 0.24957 0.90709 0.84847 0.0
C376 C 0.21208 0.90166 0.85626 0.0
C377 C 0.19038 0.89708 0.83267 0.0
C378 C 0.2536 0.90391 0.69829 0.0
C379 C 0.23222 0.9025 0.77858 0.0
C380 C 0.2745 0.90098 0.67159 0.0
C381 C 0.29616 0.89631 0.69536 0.0
C382 C 0.25431 0.90232 0.74919 0.0
C383 C 0.2962 0.89583 0.74634 0.0
C384 C 0.23297 0.90431 0.82943 0.0
C385 C 0.19029 0.89642 0.78169 0.0
N386 N 0.27561 0.89865 0.77149 0.0
N387 N 0.21087 0.89895 0.75642 0.0
H388 H 0.67596 0.90454 0.74291 0.0
H389 H 0.81659 0.88425 0.75893 0.0
H390 H 0.72032 0.88025 0.62202 0.0
H391 H 0.77269 0.9001 0.88432 0.0
H392 H 0.78187 0.88877 0.7072 0.0
H393 H 0.71135 0.90901 0.79361 0.0
C394 C 0.69313 0.90055 0.72676 0.0
C395 C 0.69506 0.8919 0.67799 0.0
C396 C 0.77979 0.89151 0.74597 0.0
C397 C 0.73571 0.89678 0.73616 0.0
C398 C 0.79968 0.889 0.77567 0.0
C399 C 0.79765 0.8917 0.82628 0.0
C400 C 0.75749 0.89667 0.76674 0.0
C401 C 0.77516 0.89788 0.84557 0.0
C402 C 0.71333 0.90297 0.75588 0.0
C403 C 0.71784 0.88685 0.65936 0.0
N404 N 0.75595 0.89996 0.81583 0.0
N405 N 0.73718 0.88922 0.68845 0.0
H406 H 0.72037 0.14786 0.40913 0.0
H407 H 0.77292 0.13045 0.14092 0.0
H408 H 0.67691 0.12769 0.28494 0.0
H409 H 0.81524 0.14637 0.26845 0.0
H410 H 0.73791 0.12541 0.19295 0.0
H411 H 0.7555 0.14334 0.35846 0.0
C412 C 0.71818 0.14212 0.3713 0.0
C413 C 0.69553 0.13825 0.35138 0.0
C414 C 0.75492 0.1297 0.20952 0.0
C415 C 0.73597 0.13336 0.29259 0.0
C416 C 0.77495 0.13249 0.17983 0.0
C417 C 0.79713 0.13895 0.20019 0.0
C418 C 0.75704 0.13346 0.25996 0.0
C419 C 0.79857 0.14151 0.25092 0.0
C420 C 0.73832 0.13959 0.34226 0.0
C421 C 0.69396 0.13081 0.30199 0.0
N422 N 0.77885 0.13895 0.27885 0.0
N423 N 0.71386 0.12889 0.27422 0.0
H424 H 0.80908 0.62548 0.28843 0.0
H425 H 0.66881 0.64909 0.27187 0.0
H426 H 0.76508 0.64995 0.40976 0.0
H427 H 0.71246 0.62909 0.14777 0.0
H428 H 0.70339 0.64412 0.32412 0.0
H429 H 0.77359 0.6212 0.2381 0.0
C430 C 0.79197 0.62955 0.30477 0.0
C431 C 0.79018 0.63826 0.35352 0.0
C432 C 0.70542 0.64056 0.28553 0.0
C433 C 0.74938 0.63365 0.29572 0.0
C434 C 0.68561 0.64333 0.25556 0.0
C435 C 0.68764 0.63958 0.20514 0.0
C436 C 0.7276 0.6341 0.26516 0.0
C437 C 0.70998 0.63216 0.18636 0.0
C438 C 0.77169 0.62723 0.27586 0.0
C439 C 0.76744 0.64337 0.37239 0.0
N440 N 0.72909 0.62987 0.21629 0.0
N441 N 0.74803 0.64117 0.34346 0.0
H442 H 0.66945 0.38516 0.7575 0.0
H443 H 0.81009 0.40565 0.74203 0.0
H444 H 0.71311 0.40137 0.88301 0.0
H445 H 0.76594 0.38092 0.62116 0.0
H446 H 0.7746 0.41032 0.7925 0.0
H447 H 0.70424 0.38975 0.7059 0.0
C448 C 0.68631 0.39001 0.77429 0.0
C449 C 0.68826 0.39278 0.8249 0.0
C450 C 0.77268 0.40415 0.75481 0.0
C451 C 0.72851 0.39782 0.76551 0.0
C452 C 0.79295 0.40162 0.72582 0.0
C453 C 0.7911 0.39277 0.67714 0.0
C454 C 0.75034 0.39788 0.73505 0.0
C455 C 0.76835 0.38768 0.65844 0.0
C456 C 0.70625 0.39255 0.74467 0.0
C457 C 0.7107 0.39909 0.84425 0.0
N458 N 0.74896 0.39016 0.68741 0.0
N459 N 0.72995 0.40119 0.8146 0.0
H460 H 0.31283 0.39336 0.76024 0.0
H461 H 0.17192 0.39317 0.76762 0.0
H462 H 0.27256 0.40086 0.8927 0.0
H463 H 0.2121 0.40088 0.635 0.0
H464 H 0.20846 0.39853 0.81397 0.0
H465 H 0.27629 0.39863 0.71376 0.0
C466 C 0.29635 0.39648 0.7796 0.0
C467 C 0.29581 0.39659 0.83055 0.0
C468 C 0.20928 0.39942 0.77475 0.0
C469 C 0.25375 0.40227 0.77736 0.0
C470 C 0.18839 0.39636 0.7482 0.0
C471 C 0.1889 0.39649 0.69725 0.0
C472 C 0.23097 0.40226 0.75029 0.0
C473 C 0.21081 0.40072 0.67418 0.0
C474 C 0.27546 0.39949 0.75298 0.0
C475 C 0.27387 0.40071 0.85353 0.0
N476 N 0.23097 0.4031 0.70085 0.0
N477 N 0.25372 0.40307 0.8268 0.0
H478 H 0.27206 0.63277 0.13383 0.0
H479 H 0.21118 0.63196 0.39672 0.0
H480 H 0.31097 0.64107 0.26777 0.0
H481 H 0.17234 0.64158 0.26284 0.0
H482 H 0.24779 0.62727 0.34996 0.0
H483 H 0.23545 0.628 0.18056 0.0
C484 C 0.27299 0.63316 0.17307 0.0
C485 C 0.2947 0.6374 0.19683 0.0
C486 C 0.23122 0.63013 0.33081 0.0
C487 C 0.25271 0.63212 0.25062 0.0
C488 C 0.21026 0.63263 0.35748 0.0
C489 C 0.18858 0.63724 0.33375 0.0
C490 C 0.23056 0.63207 0.27994 0.0
C491 C 0.18861 0.63815 0.28277 0.0
C492 C 0.25203 0.63059 0.19973 0.0
C493 C 0.29469 0.63793 0.24782 0.0
N494 N 0.20925 0.63572 0.25765 0.0
N495 N 0.27405 0.63545 0.27294 0.0
H496 H 0.09395 0.23906 0.98416 0.0
H497 H 0.15145 0.26808 0.72317 0.0
H498 H 0.15631 0.19392 0.93326 0.0
H499 H 0.10131 0.32671 0.79021 0.0
H500 H 0.15064 0.2374 0.79593 0.0
H501 H 0.09302 0.2671 0.9087 0.0
C502 C 0.10729 0.23469 0.95691 0.0
C503 C 0.12534 0.21409 0.96541 0.0
C504 C 0.13984 0.25699 0.79477 0.0
C505 C 0.12441 0.24651 0.87874 0.0
C506 C 0.14027 0.27456 0.75322 0.0
C507 C 0.12642 0.3001 0.75048 0.0
C508 C 0.12526 0.26474 0.8339 0.0
C509 C 0.11235 0.30734 0.79071 0.0
C510 C 0.10682 0.25094 0.91391 0.0
C511 C 0.14209 0.20954 0.92849 0.0
N512 N 0.11206 0.28969 0.83063 0.0
N513 N 0.14127 0.2257 0.88691 0.0
H514 H 0.3324 0.84193 0.43006 0.0
H515 H 0.38427 0.70183 0.29205 0.0
H516 H 0.39145 0.79126 0.48357 0.0
H517 H 0.33687 0.7641 0.2251 0.0
H518 H 0.38572 0.73295 0.36436 0.0
H519 H 0.33311 0.81316 0.35534 0.0
C520 C 0.34574 0.82508 0.42589 0.0
C521 C 0.36183 0.81904 0.46341 0.0
C522 C 0.37504 0.73979 0.33377 0.0
C523 C 0.36241 0.78553 0.37818 0.0
C524 C 0.37408 0.72192 0.29261 0.0
C525 C 0.36046 0.73033 0.25233 0.0
C526 C 0.3621 0.76612 0.3349 0.0
C527 C 0.3477 0.75674 0.25513 0.0
C528 C 0.34606 0.80854 0.38326 0.0
C529 C 0.37865 0.79678 0.4558 0.0
N530 N 0.34879 0.7736 0.29563 0.0
N531 N 0.37834 0.78068 0.41437 0.0
H532 H 0.10087 0.7035 0.23895 0.0
H533 H 0.15461 0.84184 0.09819 0.0
H534 H 0.14815 0.76563 0.30595 0.0
H535 H 0.09528 0.79165 0.04529 0.0
H536 H 0.15331 0.8137 0.17386 0.0
H537 H 0.10007 0.73424 0.16601 0.0
C538 C 0.11116 0.72351 0.2383 0.0
C539 C 0.12458 0.73195 0.27876 0.0
C540 C 0.14044 0.80906 0.14584 0.0
C541 C 0.1237 0.76733 0.19531 0.0
C542 C 0.1411 0.82522 0.10266 0.0
C543 C 0.12509 0.81913 0.06506 0.0
C544 C 0.12381 0.78639 0.1514 0.0
C545 C 0.10803 0.79719 0.07309 0.0
C546 C 0.11058 0.74116 0.19673 0.0
C547 C 0.13748 0.75825 0.27577 0.0
N548 N 0.108 0.78147 0.11506 0.0
N549 N 0.13678 0.7749 0.2348 0.0
H550 H 0.3349 0.26976 0.80457 0.0
H551 H 0.39402 0.24006 0.54563 0.0
H552 H 0.38532 0.3285 0.73816 0.0
H553 H 0.33219 0.19401 0.59743 0.0
H554 H 0.3944 0.26871 0.62027 0.0
H555 H 0.33641 0.23886 0.73258 0.0
C556 C 0.34629 0.27623 0.77478 0.0
C557 C 0.36003 0.30185 0.77753 0.0
C558 C 0.38085 0.25221 0.61544 0.0
C559 C 0.36198 0.26619 0.69487 0.0
C560 C 0.3807 0.23561 0.57294 0.0
C561 C 0.36294 0.21457 0.56491 0.0
C562 C 0.36323 0.24769 0.65056 0.0
C563 C 0.3462 0.20995 0.60183 0.0
C564 C 0.34712 0.25852 0.73365 0.0
C565 C 0.37435 0.30907 0.73761 0.0
N566 N 0.3467 0.22645 0.64288 0.0
N567 N 0.37504 0.29126 0.69804 0.0
H568 H 0.88446 0.78469 0.04517 0.0
H569 H 0.84137 0.767 0.3166 0.0
H570 H 0.82964 0.84056 0.10283 0.0
H571 H 0.86344 0.69283 0.23131 0.0
H572 H 0.84112 0.79731 0.24304 0.0
H573 H 0.8822 0.75451 0.11817 0.0
C574 C 0.87218 0.79099 0.07346 0.0
C575 C 0.85725 0.81543 0.06769 0.0
C576 C 0.8458 0.77436 0.24036 0.0
C577 C 0.85461 0.78056 0.15162 0.0
C578 C 0.84597 0.75704 0.28222 0.0
C579 C 0.85241 0.72734 0.27997 0.0
C580 C 0.85276 0.76213 0.19602 0.0
C581 C 0.85821 0.71555 0.23456 0.0
C582 C 0.87074 0.77344 0.11491 0.0
C583 C 0.84155 0.82206 0.10567 0.0
N584 N 0.8586 0.7331 0.19444 0.0
N585 N 0.84072 0.80482 0.14615 0.0
H586 H 0.64427 0.18158 0.61013 0.0
H587 H 0.59944 0.32783 0.74152 0.0
H588 H 0.59459 0.24247 0.54713 0.0
H589 H 0.64341 0.26304 0.81176 0.0
H590 H 0.59632 0.29562 0.67097 0.0
H591 H 0.6419 0.20871 0.68687 0.0
C592 C 0.63236 0.2001 0.61288 0.0
C593 C 0.61973 0.20992 0.5722 0.0
C594 C 0.60659 0.28841 0.70192 0.0
C595 C 0.61741 0.24149 0.65905 0.0
C596 C 0.60849 0.30692 0.74209 0.0
C597 C 0.62173 0.29824 0.78267 0.0
C598 C 0.61813 0.26106 0.7021 0.0
C599 C 0.63298 0.27072 0.78136 0.0
C600 C 0.63121 0.21582 0.65645 0.0
C601 C 0.6048 0.23432 0.57755 0.0
N602 N 0.63099 0.25321 0.74178 0.0
N603 N 0.60429 0.24944 0.61984 0.0
H604 H 0.84338 0.2648 0.71296 0.0
H605 H 0.88564 0.24673 0.9849 0.0
H606 H 0.86502 0.33888 0.79887 0.0
H607 H 0.83165 0.19039 0.92542 0.0
H608 H 0.88358 0.27713 0.91211 0.0
H609 H 0.84318 0.23429 0.78624 0.0
C610 C 0.8479 0.27469 0.74743 0.0
C611 C 0.85421 0.30442 0.74995 0.0
C612 C 0.87227 0.25804 0.91493 0.0
C613 C 0.8546 0.26941 0.83358 0.0
C614 C 0.8736 0.24038 0.95625 0.0
C615 C 0.85882 0.21575 0.96144 0.0
C616 C 0.8564 0.25085 0.87781 0.0
C617 C 0.84342 0.20904 0.92303 0.0
C618 C 0.84776 0.25726 0.78913 0.0
C619 C 0.85989 0.31613 0.79545 0.0
N620 N 0.84269 0.22641 0.88272 0.0
N621 N 0.8603 0.29847 0.83544 0.0
H622 H 0.59889 0.70442 0.28451 0.0
H623 H 0.64449 0.84973 0.41752 0.0
H624 H 0.64192 0.76988 0.21346 0.0
H625 H 0.59428 0.78912 0.47955 0.0
H626 H 0.642 0.82297 0.34037 0.0
H627 H 0.59624 0.73623 0.35562 0.0
C628 C 0.60781 0.72541 0.28384 0.0
C629 C 0.62067 0.73437 0.24288 0.0
C630 C 0.63125 0.81584 0.3707 0.0
C631 C 0.61765 0.77109 0.3242 0.0
C632 C 0.63248 0.83133 0.41452 0.0
C633 C 0.6197 0.82151 0.45505 0.0
C634 C 0.61722 0.79038 0.36767 0.0
C635 C 0.60463 0.79728 0.44931 0.0
C636 C 0.60619 0.74369 0.32437 0.0
C637 C 0.63177 0.76198 0.24414 0.0
N638 N 0.60403 0.78239 0.4068 0.0
N639 N 0.63009 0.77926 0.28411 0.0
H640 H 0.66959 0.71877 0.95454 0.0
H641 H 0.59369 0.7833 0.7363 0.0
H642 H 0.59335 0.71481 0.95273 0.0
H643 H 0.66031 0.82191 0.77744 0.0
H644 H 0.59504 0.75231 0.80867 0.0
H645 H 0.66852 0.74998 0.8819 0.0
C646 C 0.65265 0.7239 0.93824 0.0
C647 C 0.6315 0.71389 0.95946 0.0
C648 C 0.60931 0.76765 0.80208 0.0
C649 C 0.63022 0.7498 0.87668 0.0
C650 C 0.60858 0.78536 0.7608 0.0
C651 C 0.62689 0.8053 0.75095 0.0
C652 C 0.62879 0.76927 0.83341 0.0
C653 C 0.64574 0.80702 0.78396 0.0
C654 C 0.65207 0.74205 0.89723 0.0
C655 C 0.61006 0.72186 0.9374 0.0
N656 N 0.64636 0.78896 0.82352 0.0
N657 N 0.60997 0.73918 0.89712 0.0
H658 H 0.89411 0.29148 0.48019 0.0
H659 H 0.84057 0.26809 0.21485 0.0
H660 H 0.84072 0.34778 0.41841 0.0
H661 H 0.88654 0.20598 0.28629 0.0
H662 H 0.84371 0.30041 0.28479 0.0
H663 H 0.89598 0.26431 0.40424 0.0
C664 C 0.88317 0.29857 0.45008 0.0
C665 C 0.86717 0.32187 0.45565 0.0
C666 C 0.85314 0.27975 0.28521 0.0
C667 C 0.86878 0.29029 0.36878 0.0
C668 C 0.85134 0.26117 0.24529 0.0
C669 C 0.8633 0.23413 0.24459 0.0
C670 C 0.8671 0.27145 0.32493 0.0
C671 C 0.87691 0.22647 0.28524 0.0
C672 C 0.88408 0.28284 0.40688 0.0
C673 C 0.85342 0.33011 0.41554 0.0
N674 N 0.87846 0.24505 0.3237 0.0
N675 N 0.85431 0.31405 0.37393 0.0
H676 H 0.65475 0.34375 0.10249 0.0
H677 H 0.62414 0.19097 0.22914 0.0
H678 H 0.60412 0.28299 0.04257 0.0
H679 H 0.64091 0.26775 0.31323 0.0
H680 H 0.62414 0.22151 0.15534 0.0
H681 H 0.65631 0.31364 0.17663 0.0
C682 C 0.64379 0.32435 0.10507 0.0
C683 C 0.62913 0.31613 0.0663 0.0
C684 C 0.62795 0.23155 0.19001 0.0
C685 C 0.63151 0.28112 0.15007 0.0
C686 C 0.62815 0.21411 0.23195 0.0
C687 C 0.63239 0.22689 0.27731 0.0
C688 C 0.63258 0.26177 0.19344 0.0
C689 C 0.63735 0.25708 0.27897 0.0
C690 C 0.64478 0.30713 0.14722 0.0
C691 C 0.6155 0.29048 0.07157 0.0
N692 N 0.63739 0.27347 0.23769 0.0
N693 N 0.61722 0.27378 0.11232 0.0
H694 H 0.84182 0.68105 0.61223 0.0
H695 H 0.88713 0.82725 0.7429 0.0
H696 H 0.89217 0.7411 0.54924 0.0
H697 H 0.84321 0.76259 0.81368 0.0
H698 H 0.8902 0.79487 0.67248 0.0
H699 H 0.84429 0.70828 0.68885 0.0
C700 C 0.85391 0.69938 0.61497 0.0
C701 C 0.8667 0.70894 0.57432 0.0
C702 C 0.87996 0.78773 0.70353 0.0
C703 C 0.86911 0.74068 0.66102 0.0
C704 C 0.87808 0.80634 0.74362 0.0
C705 C 0.86487 0.79774 0.78431 0.0
C706 C 0.86842 0.76037 0.70393 0.0
C707 C 0.85363 0.77021 0.7832 0.0
C708 C 0.85511 0.71517 0.65847 0.0
C709 C 0.88185 0.73314 0.57966 0.0
N710 N 0.8556 0.75262 0.74371 0.0
N711 N 0.8824 0.74836 0.62185 0.0
H712 H 0.38523 0.20379 0.23795 0.0
H713 H 0.33097 0.34174 0.09716 0.0
H714 H 0.3376 0.26556 0.30496 0.0
H715 H 0.39115 0.2927 0.04519 0.0
H716 H 0.3322 0.31347 0.1727 0.0
H717 H 0.38603 0.23465 0.16511 0.0
C718 C 0.37486 0.22373 0.23731 0.0
C719 C 0.36136 0.23206 0.27775 0.0
C720 C 0.34527 0.30911 0.14492 0.0
C721 C 0.36222 0.26756 0.19446 0.0
C722 C 0.34465 0.32535 0.10182 0.0
C723 C 0.36093 0.31962 0.06451 0.0
C724 C 0.36212 0.28671 0.15067 0.0
C725 C 0.3782 0.29796 0.07276 0.0
C726 C 0.37544 0.24146 0.19582 0.0
C727 C 0.34834 0.25827 0.27479 0.0
N728 N 0.37818 0.28214 0.11463 0.0
N729 N 0.34904 0.27499 0.23391 0.0
H730 H 0.10162 0.83106 0.73839 0.0
H731 H 0.15304 0.69118 0.59907 0.0
H732 H 0.14968 0.76909 0.80412 0.0
H733 H 0.09391 0.74207 0.54658 0.0
H734 H 0.15265 0.71985 0.6739 0.0
H735 H 0.09988 0.79997 0.66612 0.0
C736 C 0.1119 0.81104 0.73757 0.0
C737 C 0.1258 0.80271 0.7775 0.0
C738 C 0.13961 0.72454 0.64618 0.0
C739 C 0.12381 0.76694 0.69493 0.0
C740 C 0.13975 0.70806 0.60348 0.0
C741 C 0.12355 0.71419 0.56621 0.0
C742 C 0.12331 0.74758 0.65159 0.0
C743 C 0.10679 0.73648 0.57414 0.0
C744 C 0.11078 0.79319 0.69642 0.0
C745 C 0.13865 0.7764 0.77435 0.0
N746 N 0.10727 0.75252 0.61564 0.0
N747 N 0.13739 0.75954 0.73385 0.0
H748 H 0.3923 0.73998 0.98438 0.0
H749 H 0.33505 0.76796 0.72289 0.0
H750 H 0.33097 0.69332 0.93223 0.0
H751 H 0.38428 0.82759 0.79017 0.0
H752 H 0.33621 0.73725 0.79555 0.0
H753 H 0.39306 0.7682 0.90903 0.0
C754 C 0.37917 0.73531 0.95687 0.0
C755 C 0.36145 0.71422 0.96498 0.0
C756 C 0.34673 0.75706 0.79448 0.0
C757 C 0.36217 0.74683 0.87848 0.0
C758 C 0.3461 0.77466 0.75298 0.0
C759 C 0.35959 0.80048 0.75032 0.0
C760 C 0.36115 0.76509 0.83368 0.0
C761 C 0.37351 0.80799 0.79061 0.0
C762 C 0.37953 0.75165 0.91394 0.0
C763 C 0.34494 0.70932 0.92777 0.0
N764 N 0.37401 0.79032 0.8305 0.0
N765 N 0.34565 0.72557 0.8863 0.0
H766 H 0.15429 0.34179 0.43107 0.0
H767 H 0.10152 0.20279 0.29179 0.0
H768 H 0.0943 0.29221 0.48301 0.0
H769 H 0.15018 0.264 0.22592 0.0
H770 H 0.10001 0.23398 0.36397 0.0
H771 H 0.15368 0.31313 0.35623 0.0
C772 C 0.14077 0.32522 0.42653 0.0
C773 C 0.12439 0.31942 0.46366 0.0
C774 C 0.11099 0.24057 0.33365 0.0
C775 C 0.12391 0.28605 0.37832 0.0
C776 C 0.11198 0.22266 0.29257 0.0
C777 C 0.12597 0.23076 0.25264 0.0
C778 C 0.12426 0.26663 0.33506 0.0
C779 C 0.13906 0.25689 0.2557 0.0
C780 C 0.14051 0.30873 0.38384 0.0
C781 C 0.10733 0.29751 0.45558 0.0
N782 N 0.13793 0.2738 0.29614 0.0
N783 N 0.1077 0.28146 0.4141 0.0
H784 H 0.05319 0.2319 0.11756 0.0
H785 H 0.93463 0.13633 0.12843 0.0
H786 H 0.05183 0.13776 0.13393 0.0
H787 H 0.93498 0.23054 0.11308 0.0
H788 H 0.97771 0.13654 0.12731 0.0
H789 H 0.01 0.23194 0.11292 0.0
C790 C 0.04384 0.21125 0.12016 0.0
C791 C 0.05617 0.18481 0.12647 0.0
C792 C 0.96839 0.15718 0.12409 0.0
C793 C 0.00678 0.18472 0.12107 0.0
C794 C 0.94375 0.15709 0.12474 0.0
C795 C 0.93113 0.18349 0.12118 0.0
C796 C 0.98059 0.18386 0.11991 0.0
C797 C 0.94396 0.20967 0.11614 0.0
C798 C 0.01918 0.21129 0.11746 0.0
C799 C 0.04311 0.1587 0.12934 0.0
N800 N 0.968 0.20921 0.11584 0.0
N801 N 0.01914 0.15935 0.12674 0.0
H802 H 0.43339 0.80261 0.60071 0.0
H803 H 0.55335 0.88517 0.67005 0.0
H804 H 0.43557 0.89105 0.65577 0.0
H805 H 0.55144 0.80812 0.57959 0.0
H806 H 0.51011 0.88567 0.671 0.0
H807 H 0.4767 0.80217 0.59851 0.0
C808 C 0.44295 0.8219 0.61242 0.0
C809 C 0.4308 0.84688 0.62852 0.0
C810 C 0.51917 0.8687 0.65087 0.0
C811 C 0.48032 0.84647 0.62624 0.0
C812 C 0.54386 0.86834 0.65042 0.0
C813 C 0.55608 0.84655 0.62477 0.0
C814 C 0.50656 0.84693 0.62591 0.0
C815 C 0.5428 0.82538 0.5998 0.0
C816 C 0.46766 0.82167 0.61098 0.0
C817 C 0.44414 0.87131 0.64301 0.0
N818 N 0.51876 0.82602 0.6012 0.0
N819 N 0.46815 0.87043 0.64174 0.0
H820 H 0.93429 0.89582 0.90395 0.0
H821 H 0.05332 0.80113 0.91307 0.0
H822 H 0.93519 0.80154 0.91807 0.0
H823 H 0.05149 0.89527 0.89682 0.0
H824 H 0.01017 0.8008 0.91842 0.0
H825 H 0.97736 0.89599 0.90513 0.0
C826 C 0.94353 0.87513 0.90742 0.0
C827 C 0.93107 0.84859 0.91054 0.0
C828 C 0.01923 0.82152 0.91375 0.0
C829 C 0.98051 0.84865 0.91186 0.0
C830 C 0.04387 0.82173 0.91064 0.0
C831 C 0.05606 0.84826 0.90414 0.0
C832 C 0.00669 0.84801 0.91038 0.0
C833 C 0.04287 0.87428 0.90151 0.0
C834 C 0.96816 0.87525 0.9081 0.0
C835 C 0.94405 0.8225 0.91534 0.0
N836 N 0.01892 0.87347 0.90452 0.0
N837 N 0.96808 0.82318 0.91563 0.0
H838 H 0.43619 0.14061 0.374 0.0
H839 H 0.55361 0.22762 0.44544 0.0
H840 H 0.43532 0.22988 0.42549 0.0
H841 H 0.55368 0.14922 0.3581 0.0
H842 H 0.51036 0.22697 0.44523 0.0
H843 H 0.47932 0.14156 0.37498 0.0
C844 C 0.44504 0.16043 0.3856 0.0
C845 C 0.43205 0.18527 0.39955 0.0
C846 C 0.51986 0.20997 0.42603 0.0
C847 C 0.48158 0.18638 0.40089 0.0
C848 C 0.54456 0.21025 0.42622 0.0
C849 C 0.55735 0.18846 0.40161 0.0
C850 C 0.50781 0.18756 0.40156 0.0
C851 C 0.54461 0.16654 0.37734 0.0
C852 C 0.4697 0.16096 0.38598 0.0
C853 C 0.44459 0.21029 0.4142 0.0
N854 N 0.52056 0.1666 0.37809 0.0
N855 N 0.46866 0.21018 0.41463 0.0
H856 H 0.55172 0.73067 0.10402 0.0
H857 H 0.4337 0.63551 0.13407 0.0
H858 H 0.55109 0.63695 0.12625 0.0
H859 H 0.43379 0.72953 0.11565 0.0
H860 H 0.47669 0.63552 0.12755 0.0
H861 H 0.50851 0.73049 0.10388 0.0
C862 C 0.54253 0.71003 0.10865 0.0
C863 C 0.5551 0.6838 0.11552 0.0
C864 C 0.46732 0.65616 0.12489 0.0
C865 C 0.50561 0.6835 0.11551 0.0
C866 C 0.44274 0.65619 0.12869 0.0
C867 C 0.43008 0.6826 0.12575 0.0
C868 C 0.47942 0.68272 0.11806 0.0
C869 C 0.4428 0.70866 0.1184 0.0
C870 C 0.51784 0.70997 0.10863 0.0
C871 C 0.54219 0.65773 0.12114 0.0
N872 N 0.46678 0.70807 0.11494 0.0
N873 N 0.51818 0.65827 0.1212 0.0
H874 H 0.93242 0.38362 0.6713 0.0
H875 H 0.05257 0.30127 0.60196 0.0
H876 H 0.93416 0.30558 0.58317 0.0
H877 H 0.04988 0.39009 0.65524 0.0
H878 H 0.00923 0.30032 0.60056 0.0
H879 H 0.97561 0.38417 0.67175 0.0
C880 C 0.94186 0.36655 0.65212 0.0
C881 C 0.92959 0.3445 0.62721 0.0
C882 C 0.01817 0.32 0.61246 0.0
C883 C 0.97913 0.34498 0.62771 0.0
C884 C 0.0429 0.32054 0.61342 0.0
C885 C 0.05492 0.34577 0.62882 0.0
C886 C 0.00538 0.34477 0.62749 0.0
C887 C 0.04143 0.37015 0.64303 0.0
C888 C 0.96654 0.36695 0.65226 0.0
C889 C 0.94284 0.32304 0.60279 0.0
N890 N 0.01743 0.36898 0.64223 0.0
N891 N 0.96689 0.32375 0.60383 0.0
H892 H 0.55192 0.30045 0.91828 0.0
H893 H 0.43392 0.39633 0.89661 0.0
H894 H 0.55108 0.39454 0.90096 0.0
H895 H 0.43373 0.30208 0.9113 0.0
H896 H 0.4769 0.39598 0.90167 0.0
H897 H 0.50869 0.30056 0.91963 0.0
C898 C 0.54268 0.32114 0.91493 0.0
C899 C 0.55518 0.34751 0.90914 0.0
C900 C 0.46749 0.37535 0.90384 0.0
C901 C 0.50572 0.34775 0.91062 0.0
C902 C 0.4429 0.37552 0.90088 0.0
C903 C 0.43016 0.34915 0.90318 0.0
C904 C 0.47953 0.34864 0.90912 0.0
C905 C 0.44282 0.32291 0.90911 0.0
C906 C 0.51799 0.32117 0.91567 0.0
C907 C 0.54223 0.37365 0.90518 0.0
N908 N 0.46683 0.32331 0.91173 0.0
N909 N 0.51823 0.37308 0.90583 0.0
H910 H 0.05135 0.73086 0.42824 0.0
H911 H 0.93131 0.64871 0.35775 0.0
H912 H 0.04885 0.64203 0.37501 0.0
H913 H 0.93289 0.72681 0.44575 0.0
H914 H 0.97451 0.64805 0.35774 0.0
H915 H 0.00803 0.73182 0.42925 0.0
C916 C 0.04172 0.71157 0.41672 0.0
C917 C 0.0538 0.68634 0.40143 0.0
C918 C 0.96541 0.66532 0.37709 0.0
C919 C 0.00423 0.68738 0.4023 0.0
C920 C 0.94072 0.66579 0.37697 0.0
C921 C 0.92839 0.68788 0.40173 0.0
C922 C 0.97796 0.68725 0.40176 0.0
C923 C 0.94161 0.70932 0.42622 0.0
C924 C 0.01699 0.71212 0.41745 0.0
C925 C 0.04035 0.66196 0.38714 0.0
N926 N 0.96567 0.70854 0.42544 0.0
N927 N 0.01633 0.66315 0.38771 0.0
H928 H 0.1219 0.10255 0.98891 0.0
H929 H 0.12116 0.93077 0.04164 0.0
H930 H 0.1178 0.06561 0.13298 0.0
H931 H 0.11777 0.96778 0.89756 0.0
H932 H 0.11679 0.97976 0.0756 0.0
H933 H 0.11727 0.05361 0.95493 0.0
C934 C 0.11982 0.08416 1.01348 0.0
C935 C 0.12051 0.08823 0.06399 0.0
C936 C 0.11676 0.97719 0.03657 0.0
C937 C 0.11533 0.03188 0.02506 0.0
C938 C 0.11929 0.94918 0.01707 0.0
C939 C 0.12011 0.94512 0.96657 0.0
C940 C 0.11523 1.00152 1.00546 0.0
C941 C 0.11734 0.96983 0.93666 0.0
C942 C 0.11715 0.05618 0.99397 0.0
C943 C 0.11748 0.06356 0.09388 0.0
N944 N 0.11531 0.99699 0.95656 0.0
N945 N 0.1153 0.03642 0.07397 0.0
H946 H 0.36995 0.96638 0.6346 0.0
H947 H 0.37099 0.0669 0.39521 0.0
H948 H 0.36535 0.93232 0.48899 0.0
H949 H 0.36462 0.10099 0.54054 0.0
H950 H 0.37527 0.01753 0.42916 0.0
H951 H 0.37436 1.01581 0.60089 0.0
C952 C 0.37016 0.96921 0.59558 0.0
C953 C 0.367 0.94513 0.56466 0.0
C954 C 0.37313 0.03586 0.45361 0.0
C955 C 0.37197 1.00171 0.52579 0.0
C956 C 0.37077 0.06409 0.43424 0.0
C957 C 0.36717 0.08816 0.46498 0.0
C958 C 0.372 0.03163 0.50413 0.0
C959 C 0.36708 0.0831 0.51534 0.0
C960 C 0.37258 0.99746 0.57634 0.0
C961 C 0.36746 0.95022 0.51432 0.0
N962 N 0.36929 0.05545 0.53326 0.0
N963 N 0.36972 0.97789 0.49652 0.0
H964 H 0.86273 0.10136 0.98697 0.0
H965 H 0.86005 0.92982 0.04294 0.0
H966 H 0.86612 0.06557 0.13186 0.0
H967 H 0.86715 0.96548 0.8985 0.0
H968 H 0.86409 0.97908 0.07612 0.0
H969 H 0.86624 0.05196 0.95413 0.0
C970 C 0.8644 0.08312 1.01197 0.0
C971 C 0.86392 0.0877 0.06239 0.0
C972 C 0.86497 0.97616 0.0372 0.0
C973 C 0.86778 0.03077 0.02473 0.0
C974 C 0.86262 0.94799 0.01812 0.0
C975 C 0.86304 0.94343 0.96769 0.0
C976 C 0.86755 1.00019 1.00575 0.0
C977 C 0.86665 0.96788 0.93754 0.0
C978 C 0.86644 0.05486 0.9931 0.0
C979 C 0.86636 0.06315 0.09282 0.0
N980 N 0.86851 0.9952 0.95699 0.0
N981 N 0.86792 0.03575 0.07353 0.0
H982 H 0.62484 0.1001 0.54211 0.0
H983 H 0.62796 0.93204 0.48569 0.0
H984 H 0.60947 0.06801 0.39866 0.0
H985 H 0.60798 0.9633 0.62732 0.0
H986 H 0.62203 0.98138 0.45284 0.0
H987 H 0.61935 0.05055 0.57449 0.0
C988 C 0.61993 0.08264 0.51754 0.0
C989 C 0.61761 0.08814 0.46761 0.0
C990 C 0.61857 0.97739 0.49094 0.0
C991 C 0.6119 0.03119 0.50432 0.0
C992 C 0.62203 0.94927 0.50978 0.0
C993 C 0.61853 0.94359 0.55938 0.0
C994 C 0.61218 1.00032 0.52209 0.0
C995 C 0.61079 0.96671 0.58887 0.0
C996 C 0.61676 0.05439 0.53607 0.0
C997 C 0.61127 0.06474 0.4374 0.0
N998 N 0.60831 0.9942 0.56997 0.0
N999 N 0.60909 0.03714 0.45608 0.0
H1000 H 0.62662 0.60172 0.98602 0.0
H1001 H 0.62453 0.43021 0.04129 0.0
H1002 H 0.61904 0.56602 0.13031 0.0
H1003 H 0.61969 0.46615 0.89668 0.0
H1004 H 0.62096 0.47955 0.07443 0.0
H1005 H 0.62258 0.55249 0.95271 0.0
C1006 C 0.62394 0.58354 1.01077 0.0
C1007 C 0.62338 0.58808 0.06119 0.0
C1008 C 0.62045 0.47668 0.03547 0.0
C1009 C 0.61889 0.53135 0.02302 0.0
C1010 C 0.62253 0.44847 0.01643 0.0
C1011 C 0.62262 0.44396 0.96599 0.0
C1012 C 0.61869 0.5008 1.00397 0.0
C1013 C 0.61976 0.46852 0.93573 0.0
C1014 C 0.62158 0.55539 0.99163 0.0
C1015 C 0.61964 0.56363 0.09128 0.0
N1016 N 0.61819 0.49588 0.95516 0.0
N1017 N 0.6178 0.53631 0.07177 0.0
H1018 H 0.86122 0.59971 0.54316 0.0
H1019 H 0.85985 0.43176 0.48588 0.0
H1020 H 0.87718 0.56809 0.39967 0.0
H1021 H 0.87857 0.4631 0.62811 0.0
H1022 H 0.86572 0.48116 0.45326 0.0
H1023 H 0.86716 0.55022 0.57538 0.0
C1024 C 0.86635 0.58237 0.51854 0.0
C1025 C 0.86869 0.58798 0.46864 0.0
C1026 C 0.86894 0.47719 0.49144 0.0
C1027 C 0.87494 0.53107 0.50518 0.0
C1028 C 0.86553 0.44902 0.51013 0.0
C1029 C 0.86867 0.44334 0.55983 0.0
C1030 C 0.8749 0.50017 0.52283 0.0
C1031 C 0.87606 0.4665 0.58958 0.0
C1032 C 0.86978 0.55415 0.53699 0.0
C1033 C 0.87534 0.56472 0.43838 0.0
N1034 N 0.87848 0.49404 0.5708 0.0
N1035 N 0.87778 0.53714 0.45697 0.0
H1036 H 0.36482 0.43064 0.03991 0.0
H1037 H 0.36359 0.60255 0.98802 0.0
H1038 H 0.36748 0.46788 0.89592 0.0
H1039 H 0.36752 0.56527 0.13186 0.0
H1040 H 0.36821 0.55369 0.95373 0.0
H1041 H 0.36907 0.47959 0.074 0.0
C1042 C 0.3665 0.4491 0.01537 0.0
C1043 C 0.36551 0.44511 0.96487 0.0
C1044 C 0.36829 0.55617 0.99278 0.0
C1045 C 0.37025 0.50148 1.00394 0.0
C1046 C 0.36562 0.58411 1.01248 0.0
C1047 C 0.36489 0.58806 0.06302 0.0
C1048 C 0.37008 0.5318 0.02372 0.0
C1049 C 0.36787 0.56331 0.09275 0.0
C1050 C 0.36896 0.4771 0.03495 0.0
C1051 C 0.36805 0.46988 0.93502 0.0
N1052 N 0.37007 0.53622 0.07266 0.0
N1053 N 0.37002 0.49703 0.95501 0.0
H1054 H 0.11433 0.56672 0.39603 0.0
H1055 H 0.1152 0.46618 0.63542 0.0
H1056 H 0.12039 0.60082 0.54139 0.0
H1057 H 0.12017 0.43219 0.48982 0.0
H1058 H 0.11065 0.5156 0.60171 0.0
H1059 H 0.11002 0.51735 0.42997 0.0
C1060 C 0.11447 0.56392 0.43506 0.0
C1061 C 0.11801 0.58799 0.46581 0.0
C1062 C 0.11253 0.49727 0.57716 0.0
C1063 C 0.11315 0.53146 0.50496 0.0
C1064 C 0.11503 0.46902 0.5964 0.0
C1065 C 0.11835 0.44497 0.56548 0.0
C1066 C 0.11322 0.50153 0.52661 0.0
C1067 C 0.11795 0.45006 0.51514 0.0
C1068 C 0.11209 0.53569 0.45443 0.0
C1069 C 0.11798 0.58293 0.51617 0.0
N1070 N 0.11561 0.47772 0.49735 0.0
N1071 N 0.11577 0.55528 0.5341 0.0
H1072 H 0.22023 0.20554 0.10783 0.0
H1073 H 0.26626 0.32712 0.92179 0.0
H1074 H 0.17475 0.26913 0.03853 0.0
H1075 H 0.31192 0.26414 0.99212 0.0
H1076 H 0.2323 0.30502 0.96223 0.0
H1077 H 0.25424 0.2276 0.06746 0.0
C1078 C 0.21747 0.22449 0.08473 0.0
C1079 C 0.19465 0.23542 0.07618 0.0
C1080 C 0.24971 0.29586 0.96853 0.0
C1081 C 0.23336 0.26033 0.02915 0.0
C1082 C 0.26907 0.30829 0.94514 0.0
C1083 C 0.29193 0.29754 0.95395 0.0
C1084 C 0.25326 0.2726 1.00106 0.0
C1085 C 0.29458 0.27305 0.98425 0.0
C1086 C 0.23686 0.2369 0.06139 0.0
C1087 C 0.19206 0.26006 0.04619 0.0
N1088 N 0.27546 0.26157 1.00718 0.0
N1089 N 0.2112 0.27152 0.02329 0.0
H1090 H 0.26653 0.82888 0.60279 0.0
H1091 H 0.21831 0.70423 0.42569 0.0
H1092 H 0.31126 0.76387 0.53566 0.0
H1093 H 0.17365 0.76941 0.49257 0.0
H1094 H 0.2527 0.72659 0.46395 0.0
H1095 H 0.23218 0.80657 0.56435 0.0
C1096 C 0.26907 0.80961 0.58051 0.0
C1097 C 0.29181 0.79828 0.5722 0.0
C1098 C 0.23542 0.73616 0.46998 0.0
C1099 C 0.25259 0.77299 0.52736 0.0
C1100 C 0.21579 0.72355 0.44786 0.0
C1101 C 0.19306 0.73491 0.45617 0.0
C1102 C 0.23232 0.76025 0.50081 0.0
C1103 C 0.19084 0.76001 0.48503 0.0
C1104 C 0.24946 0.79703 0.55828 0.0
C1105 C 0.29406 0.77324 0.5432 0.0
N1106 N 0.21023 0.77169 0.50671 0.0
N1107 N 0.27468 0.76158 0.52143 0.0
H1108 H 0.17429 0.76273 0.98763 0.0
H1109 H 0.31313 0.77109 0.04068 0.0
H1110 H 0.22026 0.82943 0.92831 0.0
H1111 H 0.26642 0.70652 0.10388 0.0
H1112 H 0.27917 0.79365 1.00062 0.0
H1113 H 0.20832 0.74056 0.02785 0.0
C1114 C 0.19161 0.77235 0.98224 0.0
C1115 C 0.19445 0.79807 0.95496 0.0
C1116 C 0.27634 0.7747 0.02362 0.0
C1117 C 0.23328 0.77332 1.00173 0.0
C1118 C 0.29567 0.76206 0.04698 0.0
C1119 C 0.29258 0.73677 0.07525 0.0
C1120 C 0.25386 0.76192 0.02869 0.0
C1121 C 0.2696 0.72584 0.08194 0.0
C1122 C 0.21099 0.75992 1.00572 0.0
C1123 C 0.21728 0.80973 0.94945 0.0
N1124 N 0.25113 0.73833 0.05841 0.0
N1125 N 0.23581 0.79739 0.97301 0.0
H1126 H 0.26791 0.20617 0.42335 0.0
H1127 H 0.21954 0.32953 0.60293 0.0
H1128 H 0.31283 0.26974 0.49345 0.0
H1129 H 0.17509 0.26438 0.53552 0.0
H1130 H 0.25399 0.3076 0.56406 0.0
H1131 H 0.23354 0.22852 0.46172 0.0
C1132 C 0.27049 0.22516 0.44626 0.0
C1133 C 0.29328 0.23604 0.45543 0.0
C1134 C 0.23674 0.29794 0.55804 0.0
C1135 C 0.25402 0.26138 0.50023 0.0
C1136 C 0.21708 0.31031 0.5805 0.0
C1137 C 0.19439 0.29882 0.57227 0.0
C1138 C 0.23372 0.27397 0.52693 0.0
C1139 C 0.19225 0.27387 0.54303 0.0
C1140 C 0.25087 0.23776 0.46845 0.0
C1141 C 0.29559 0.26073 0.48522 0.0
N1142 N 0.21167 0.26243 0.52105 0.0
N1143 N 0.27619 0.27242 0.50696 0.0
H1144 H 0.76766 0.81998 0.91326 0.0
H1145 H 0.71928 0.71021 0.11582 0.0
H1146 H 0.81257 0.76331 0.99871 0.0
H1147 H 0.67464 0.76768 0.0312 0.0
H1148 H 0.75388 0.73038 0.07485 0.0
H1149 H 0.73312 0.79931 0.95366 0.0
C1150 C 0.77018 0.80272 0.93984 0.0
C1151 C 0.79294 0.79347 0.95306 0.0
C1152 C 0.73654 0.73878 0.06558 0.0
C1153 C 0.75368 0.77036 1.00019 0.0
C1154 C 0.71683 0.72752 0.08931 0.0
C1155 C 0.69411 0.73716 0.07653 0.0
C1156 C 0.73342 0.75971 0.02879 0.0
C1157 C 0.69186 0.75968 0.04218 0.0
C1158 C 0.7505 0.79117 0.96324 0.0
C1159 C 0.79529 0.771 0.98744 0.0
N1160 N 0.71132 0.76997 0.01901 0.0
N1161 N 0.77585 0.76043 1.01036 0.0
H1162 H 0.77137 0.3228 0.60685 0.0
H1163 H 0.71597 0.20679 0.42265 0.0
H1164 H 0.8124 0.25637 0.53489 0.0
H1165 H 0.67546 0.2748 0.4918 0.0
H1166 H 0.75182 0.22551 0.46123 0.0
H1167 H 0.73559 0.30384 0.56836 0.0
C1168 C 0.77258 0.30339 0.58443 0.0
C1169 C 0.79458 0.29059 0.57472 0.0
C1170 C 0.73522 0.23678 0.46725 0.0
C1171 C 0.75419 0.26986 0.52841 0.0
C1172 C 0.71491 0.22647 0.44447 0.0
C1173 C 0.69303 0.23981 0.45335 0.0
C1174 C 0.73347 0.26028 0.49977 0.0
C1175 C 0.69221 0.26452 0.48316 0.0
C1176 C 0.7523 0.29296 0.56169 0.0
C1177 C 0.79557 0.26622 0.54416 0.0
N1178 N 0.71217 0.27382 0.50584 0.0
N1179 N 0.77563 0.25678 0.52157 0.0
H1180 H 0.67378 0.26166 0.99133 0.0
H1181 H 0.81345 0.26967 0.03261 0.0
H1182 H 0.7195 0.32394 0.91931 0.0
H1183 H 0.76731 0.20879 0.10675 0.0
H1184 H 0.77906 0.29088 0.99224 0.0
H1185 H 0.70826 0.24045 0.03121 0.0
C1186 C 0.69113 0.27043 0.98304 0.0
C1187 C 0.69382 0.29476 0.95241 0.0
C1188 C 0.77645 0.27307 0.01771 0.0
C1189 C 0.73314 0.2712 0.99877 0.0
C1190 C 0.79603 0.26124 0.04126 0.0
C1191 C 0.79318 0.2373 0.07266 0.0
C1192 C 0.75399 0.26082 0.02577 0.0
C1193 C 0.77025 0.22707 0.08233 0.0
C1194 C 0.71077 0.25859 1.00633 0.0
C1195 C 0.71667 0.30536 0.94314 0.0
N1196 N 0.75152 0.23871 0.05855 0.0
N1197 N 0.73547 0.29368 0.96667 0.0
H1198 H 0.8106 0.77625 0.49034 0.0
H1199 H 0.67246 0.75332 0.54434 0.0
H1200 H 0.76965 0.70465 0.43339 0.0
H1201 H 0.71409 0.82312 0.60526 0.0
H1202 H 0.70825 0.73362 0.50605 0.0
H1203 H 0.77491 0.7952 0.53008 0.0
C1204 C 0.79383 0.76531 0.48456 0.0
C1205 C 0.79276 0.7393 0.45797 0.0
C1206 C 0.70968 0.75288 0.52871 0.0
C1207 C 0.75237 0.75962 0.50508 0.0
C1208 C 0.68937 0.76364 0.55142 0.0
C1209 C 0.69061 0.78943 0.57855 0.0
C1210 C 0.73113 0.76833 0.53296 0.0
C1211 C 0.71266 0.80284 0.58516 0.0
C1212 C 0.7736 0.77565 0.50808 0.0
C1213 C 0.77093 0.7251 0.45303 0.0
N1214 N 0.73205 0.79233 0.56204 0.0
N1215 N 0.7516 0.73529 0.47674 0.0
loop_
_geom_bond_atom_site_label_1
_geom_bond_atom_site_label_2
_geom_bond_distance
_geom_bond_site_symmetry_2
_ccdc_geom_bond_type
Fe0 O2 1.918 . S
Fe0 O5 1.997 . S
Fe0 O6 2.002 . S
Fe0 O11 1.976 . S
Fe0 O14 1.996 1_554 S
Fe1 O2 1.918 . S
Fe1 O9 1.997 . S
Fe1 O12 1.996 . S
Fe1 O16 1.976 . S
Fe1 O19 2.002 . S
O2 Fe0 1.918 . S
O2 Fe1 1.918 . S
O2 Fe3 1.918 . S
Fe3 O2 1.918 . S
Fe3 O4 2.002 . S
Fe3 O13 1.976 1_554 S
Fe3 O17 1.996 . S
Fe3 O20 1.997 . S
O4 Fe3 2.002 . S
O4 C21 1.295 . S
O5 Fe0 1.997 . S
O5 C21 1.235 . S
O6 Fe0 2.002 . S
O6 C7 1.295 . S
C7 O6 1.295 . S
C7 O9 1.235 . S
C8 O13 1.287 . S
C8 O14 1.255 . S
O9 Fe1 1.997 . S
O9 C7 1.235 . S
C10 O16 1.287 . S
C10 O17 1.255 . S
O11 Fe0 1.976 . S
O11 C18 1.287 . S
O12 Fe1 1.996 . S
O12 C18 1.255 . S
O13 Fe3 1.976 1_556 S
O13 C8 1.287 . S
O14 Fe0 1.996 1_556 S
O14 C8 1.255 . S
C15 O19 1.295 . S
C15 O20 1.235 . S
O16 Fe1 1.976 . S
O16 C10 1.287 . S
O17 Fe3 1.996 . S
O17 C10 1.255 . S
C18 O11 1.287 . S
C18 O12 1.255 . S
O19 Fe1 2.002 . S
O19 C15 1.295 . S
O20 Fe3 1.997 . S
O20 C15 1.235 . S
C21 O4 1.295 . S
C21 O5 1.235 . S
Fe22 O24 1.918 . S
Fe22 O27 1.997 . S
Fe22 O28 2.002 . S
Fe22 O33 1.976 . S
Fe22 O36 1.996 . S
Fe23 O24 1.918 . S
Fe23 O31 1.997 . S
Fe23 O34 1.996 . S
Fe23 O38 1.976 . S
Fe23 O41 2.002 . S
O24 Fe22 1.918 . S
O24 Fe23 1.918 . S
O24 Fe25 1.918 . S
Fe25 O24 1.918 . S
Fe25 O26 2.002 . S
Fe25 O35 1.976 . S
Fe25 O39 1.996 . S
Fe25 O42 1.997 . S
O26 Fe25 2.002 . S
O26 C43 1.295 . S
O27 Fe22 1.997 . S
O27 C43 1.235 . S
O28 Fe22 2.002 . S
O28 C29 1.295 . S
C29 O28 1.295 . S
C29 O31 1.235 . S
C30 O35 1.287 . S
C30 O36 1.255 . S
O31 Fe23 1.997 . S
O31 C29 1.235 . S
C32 O38 1.287 . S
C32 O39 1.255 . S
O33 Fe22 1.976 . S
O33 C40 1.287 . S
O34 Fe23 1.996 . S
O34 C40 1.255 . S
O35 Fe25 1.976 . S
O35 C30 1.287 . S
O36 Fe22 1.996 . S
O36 C30 1.255 . S
C37 O41 1.295 . S
C37 O42 1.235 . S
O38 Fe23 1.976 . S
O38 C32 1.287 . S
O39 Fe25 1.996 . S
O39 C32 1.255 . S
C40 O33 1.287 . S
C40 O34 1.255 . S
O41 Fe23 2.002 . S
O41 C37 1.295 . S
O42 Fe25 1.997 . S
O42 C37 1.235 . S
C43 O26 1.295 . S
C43 O27 1.235 . S
Fe44 O46 1.918 . S
Fe44 O49 1.997 . S
Fe44 O50 2.002 . S
Fe44 O55 1.976 . S
Fe44 O58 1.996 1_556 S
Fe45 O46 1.918 . S
Fe45 O53 1.997 . S
Fe45 O56 1.996 . S
Fe45 O60 1.976 . S
Fe45 O63 2.002 . S
O46 Fe44 1.918 . S
O46 Fe45 1.918 . S
O46 Fe47 1.918 . S
Fe47 O46 1.918 . S
Fe47 O48 2.002 . S
Fe47 O57 1.976 1_556 S
Fe47 O61 1.996 . S
Fe47 O64 1.997 . S
O48 Fe47 2.002 . S
O48 C65 1.295 . S
O49 Fe44 1.997 . S
O49 C65 1.235 . S
O50 Fe44 2.002 . S
O50 C51 1.295 . S
C51 O50 1.295 . S
C51 O53 1.235 . S
C52 O57 1.287 . S
C52 O58 1.255 . S
O53 Fe45 1.997 . S
O53 C51 1.235 . S
C54 O60 1.287 . S
C54 O61 1.255 . S
O55 Fe44 1.976 . S
O55 C62 1.287 . S
O56 Fe45 1.996 . S
O56 C62 1.255 . S
O57 Fe47 1.976 1_554 S
O57 C52 1.287 . S
O58 Fe44 1.996 1_554 S
O58 C52 1.255 . S
C59 O63 1.295 . S
C59 O64 1.235 . S
O60 Fe45 1.976 . S
O60 C54 1.287 . S
O61 Fe47 1.996 . S
O61 C54 1.255 . S
C62 O55 1.287 . S
C62 O56 1.255 . S
O63 Fe45 2.002 . S
O63 C59 1.295 . S
O64 Fe47 1.997 . S
O64 C59 1.235 . S
C65 O48 1.295 . S
C65 O49 1.235 . S
Fe66 O68 1.918 . S
Fe66 O71 1.997 . S
Fe66 O72 2.002 . S
Fe66 O77 1.976 . S
Fe66 O80 1.996 . S
Fe67 O68 1.918 . S
Fe67 O75 1.997 . S
Fe67 O78 1.996 . S
Fe67 O82 1.976 . S
Fe67 O85 2.002 . S
O68 Fe66 1.918 . S
O68 Fe67 1.918 . S
O68 Fe69 1.918 . S
Fe69 O68 1.918 . S
Fe69 O70 2.002 . S
Fe69 O79 1.976 . S
Fe69 O83 1.996 . S
Fe69 O86 1.997 . S
O70 Fe69 2.002 . S
O70 C87 1.295 . S
O71 Fe66 1.997 . S
O71 C87 1.235 . S
O72 Fe66 2.002 . S
O72 C73 1.295 . S
C73 O72 1.295 . S
C73 O75 1.235 . S
C74 O79 1.287 . S
C74 O80 1.255 . S
O75 Fe67 1.997 . S
O75 C73 1.235 . S
C76 O82 1.287 . S
C76 O83 1.255 . S
O77 Fe66 1.976 . S
O77 C84 1.287 . S
O78 Fe67 1.996 . S
O78 C84 1.255 . S
O79 Fe69 1.976 . S
O79 C74 1.287 . S
O80 Fe66 1.996 . S
O80 C74 1.255 . S
C81 O85 1.295 . S
C81 O86 1.235 . S
O82 Fe67 1.976 . S
O82 C76 1.287 . S
O83 Fe69 1.996 . S
O83 C76 1.255 . S
C84 O77 1.287 . S
C84 O78 1.255 . S
O85 Fe67 2.002 . S
O85 C81 1.295 . S
O86 Fe69 1.997 . S
O86 C81 1.235 . S
C87 O70 1.295 . S
C87 O71 1.235 . S
Fe88 O90 1.918 . S
Fe88 O93 1.997 . S
Fe88 O94 2.002 . S
Fe88 O99 1.976 . S
Fe88 O102 1.996 . S
Fe89 O90 1.918 . S
Fe89 O97 1.997 . S
Fe89 O100 1.996 . S
Fe89 O104 1.976 1_556 S
Fe89 O107 2.002 . S
O90 Fe88 1.918 . S
O90 Fe89 1.918 . S
O90 Fe91 1.918 . S
Fe91 O90 1.918 . S
Fe91 O92 2.002 . S
Fe91 O101 1.976 . S
Fe91 O105 1.996 1_556 S
Fe91 O108 1.997 . S
O92 Fe91 2.002 . S
O92 C109 1.295 . S
O93 Fe88 1.997 . S
O93 C109 1.235 . S
O94 Fe88 2.002 . S
O94 C95 1.295 . S
C95 O94 1.295 . S
C95 O97 1.235 . S
C96 O101 1.287 . S
C96 O102 1.255 . S
O97 Fe89 1.997 . S
O97 C95 1.235 . S
C98 O104 1.287 . S
C98 O105 1.255 . S
O99 Fe88 1.976 . S
O99 C106 1.287 . S
O100 Fe89 1.996 . S
O100 C106 1.255 . S
O101 Fe91 1.976 . S
O101 C96 1.287 . S
O102 Fe88 1.996 . S
O102 C96 1.255 . S
C103 O107 1.295 . S
C103 O108 1.235 . S
O104 Fe89 1.976 1_554 S
O104 C98 1.287 . S
O105 Fe91 1.996 1_554 S
O105 C98 1.255 . S
C106 O99 1.287 . S
C106 O100 1.255 . S
O107 Fe89 2.002 . S
O107 C103 1.295 . S
O108 Fe91 1.997 . S
O108 C103 1.235 . S
C109 O92 1.295 . S
C109 O93 1.235 . S
Fe110 O112 1.918 . S
Fe110 O115 1.997 . S
Fe110 O116 2.002 . S
Fe110 O121 1.976 . S
Fe110 O124 1.996 . S
Fe111 O112 1.918 . S
Fe111 O119 1.997 . S
Fe111 O122 1.996 . S
Fe111 O126 1.976 . S
Fe111 O129 2.002 . S
O112 Fe110 1.918 . S
O112 Fe111 1.918 . S
O112 Fe113 1.918 . S
Fe113 O112 1.918 . S
Fe113 O114 2.002 . S
Fe113 O123 1.976 . S
Fe113 O127 1.996 . S
Fe113 O130 1.997 . S
O114 Fe113 2.002 . S
O114 C131 1.295 . S
O115 Fe110 1.997 . S
O115 C131 1.235 . S
O116 Fe110 2.002 . S
O116 C117 1.295 . S
C117 O116 1.295 . S
C117 O119 1.235 . S
C118 O123 1.287 . S
C118 O124 1.255 . S
O119 Fe111 1.997 . S
O119 C117 1.235 . S
C120 O126 1.287 . S
C120 O127 1.255 . S
O121 Fe110 1.976 . S
O121 C128 1.287 . S
O122 Fe111 1.996 . S
O122 C128 1.255 . S
O123 Fe113 1.976 . S
O123 C118 1.287 . S
O124 Fe110 1.996 . S
O124 C118 1.255 . S
C125 O129 1.295 . S
C125 O130 1.235 . S
O126 Fe111 1.976 . S
O126 C120 1.287 . S
O127 Fe113 1.996 . S
O127 C120 1.255 . S
C128 O121 1.287 . S
C128 O122 1.255 . S
O129 Fe111 2.002 . S
O129 C125 1.295 . S
O130 Fe113 1.997 . S
O130 C125 1.235 . S
C131 O114 1.295 . S
C131 O115 1.235 . S
Fe132 O134 1.918 . S
Fe132 O137 1.997 . S
Fe132 O138 2.002 . S
Fe132 O143 1.976 . S
Fe132 O146 1.996 . S
Fe133 O134 1.918 . S
Fe133 O141 1.997 . S
Fe133 O144 1.996 . S
Fe133 O148 1.976 1_554 S
Fe133 O151 2.002 . S
O134 Fe132 1.918 . S
O134 Fe133 1.918 . S
O134 Fe135 1.918 . S
Fe135 O134 1.918 . S
Fe135 O136 2.002 . S
Fe135 O145 1.976 . S
Fe135 O149 1.996 1_554 S
Fe135 O152 1.997 . S
O136 Fe135 2.002 . S
O136 C153 1.295 . S
O137 Fe132 1.997 . S
O137 C153 1.235 . S
O138 Fe132 2.002 . S
O138 C139 1.295 . S
C139 O138 1.295 . S
C139 O141 1.235 . S
C140 O145 1.287 . S
C140 O146 1.255 . S
O141 Fe133 1.997 . S
O141 C139 1.235 . S
C142 O148 1.287 . S
C142 O149 1.255 . S
O143 Fe132 1.976 . S
O143 C150 1.287 . S
O144 Fe133 1.996 . S
O144 C150 1.255 . S
O145 Fe135 1.976 . S
O145 C140 1.287 . S
O146 Fe132 1.996 . S
O146 C140 1.255 . S
C147 O151 1.295 . S
C147 O152 1.235 . S
O148 Fe133 1.976 1_556 S
O148 C142 1.287 . S
O149 Fe135 1.996 1_556 S
O149 C142 1.255 . S
C150 O143 1.287 . S
C150 O144 1.255 . S
O151 Fe133 2.002 . S
O151 C147 1.295 . S
O152 Fe135 1.997 . S
O152 C147 1.235 . S
C153 O136 1.295 . S
C153 O137 1.235 . S
Fe154 O156 1.918 . S
Fe154 O159 1.997 . S
Fe154 O160 2.002 . S
Fe154 O165 1.976 . S
Fe154 O168 1.996 . S
Fe155 O156 1.918 . S
Fe155 O163 1.997 . S
Fe155 O166 1.996 . S
Fe155 O170 1.976 . S
Fe155 O173 2.002 . S
O156 Fe154 1.918 . S
O156 Fe155 1.918 . S
O156 Fe157 1.918 . S
Fe157 O156 1.918 . S
Fe157 O158 2.002 . S
Fe157 O167 1.976 . S
Fe157 O171 1.996 . S
Fe157 O174 1.997 . S
O158 Fe157 2.002 . S
O158 C175 1.295 . S
O159 Fe154 1.997 . S
O159 C175 1.235 . S
O160 Fe154 2.002 . S
O160 C161 1.295 . S
C161 O160 1.295 . S
C161 O163 1.235 . S
C162 O167 1.287 . S
C162 O168 1.255 . S
O163 Fe155 1.997 . S
O163 C161 1.235 . S
C164 O170 1.287 . S
C164 O171 1.255 . S
O165 Fe154 1.976 . S
O165 C172 1.287 . S
O166 Fe155 1.996 . S
O166 C172 1.255 . S
O167 Fe157 1.976 . S
O167 C162 1.287 . S
O168 Fe154 1.996 . S
O168 C162 1.255 . S
C169 O173 1.295 . S
C169 O174 1.235 . S
O170 Fe155 1.976 . S
O170 C164 1.287 . S
O171 Fe157 1.996 . S
O171 C164 1.255 . S
C172 O165 1.287 . S
C172 O166 1.255 . S
O173 Fe155 2.002 . S
O173 C169 1.295 . S
O174 Fe157 1.997 . S
O174 C169 1.235 . S
C175 O158 1.295 . S
C175 O159 1.235 . S
Fe176 O178 1.918 . S
Fe176 O181 1.997 . S
Fe176 O182 2.002 . S
Fe176 O187 1.976 . S
Fe176 O190 1.996 1_554 S
Fe177 O178 1.918 . S
Fe177 O185 1.997 . S
Fe177 O188 1.996 . S
Fe177 O192 1.976 . S
Fe177 O195 2.002 . S
O178 Fe176 1.918 . S
O178 Fe177 1.918 . S
O178 Fe179 1.918 . S
Fe179 O178 1.918 . S
Fe179 O180 2.002 . S
Fe179 O189 1.976 1_554 S
Fe179 O193 1.996 . S
Fe179 O196 1.997 . S
O180 Fe179 2.002 . S
O180 C197 1.295 . S
O181 Fe176 1.997 . S
O181 C197 1.235 . S
O182 Fe176 2.002 . S
O182 C183 1.295 . S
C183 O182 1.295 . S
C183 O185 1.235 . S
C184 O189 1.287 . S
C184 O190 1.255 . S
O185 Fe177 1.997 . S
O185 C183 1.235 . S
C186 O192 1.287 . S
C186 O193 1.255 . S
O187 Fe176 1.976 . S
O187 C194 1.287 . S
O188 Fe177 1.996 . S
O188 C194 1.255 . S
O189 Fe179 1.976 1_556 S
O189 C184 1.287 . S
O190 Fe176 1.996 1_556 S
O190 C184 1.255 . S
C191 O195 1.295 . S
C191 O196 1.235 . S
O192 Fe177 1.976 . S
O192 C186 1.287 . S
O193 Fe179 1.996 . S
O193 C186 1.255 . S
C194 O187 1.287 . S
C194 O188 1.255 . S
O195 Fe177 2.002 . S
O195 C191 1.295 . S
O196 Fe179 1.997 . S
O196 C191 1.235 . S
C197 O180 1.295 . S
C197 O181 1.235 . S
Fe198 O200 1.918 . S
Fe198 O203 1.997 . S
Fe198 O204 2.002 . S
Fe198 O209 1.976 . S
Fe198 O212 1.996 . S
Fe199 O200 1.918 . S
Fe199 O207 1.997 . S
Fe199 O210 1.996 . S
Fe199 O214 1.976 . S
Fe199 O217 2.002 . S
O200 Fe198 1.918 . S
O200 Fe199 1.918 . S
O200 Fe201 1.918 . S
Fe201 O200 1.918 . S
Fe201 O202 2.002 . S
Fe201 O211 1.976 . S
Fe201 O215 1.996 . S
Fe201 O218 1.997 . S
O202 Fe201 2.002 . S
O202 C219 1.295 . S
O203 Fe198 1.997 . S
O203 C219 1.235 . S
O204 Fe198 2.002 . S
O204 C205 1.295 . S
C205 O204 1.295 . S
C205 O207 1.235 . S
C206 O211 1.287 . S
C206 O212 1.255 . S
O207 Fe199 1.997 . S
O207 C205 1.235 . S
C208 O214 1.287 . S
C208 O215 1.255 . S
O209 Fe198 1.976 . S
O209 C216 1.287 . S
O210 Fe199 1.996 . S
O210 C216 1.255 . S
O211 Fe201 1.976 . S
O211 C206 1.287 . S
O212 Fe198 1.996 . S
O212 C206 1.255 . S
C213 O217 1.295 . S
C213 O218 1.235 . S
O214 Fe199 1.976 . S
O214 C208 1.287 . S
O215 Fe201 1.996 . S
O215 C208 1.255 . S
C216 O209 1.287 . S
C216 O210 1.255 . S
O217 Fe199 2.002 . S
O217 C213 1.295 . S
O218 Fe201 1.997 . S
O218 C213 1.235 . S
C219 O202 1.295 . S
C219 O203 1.235 . S
Fe220 O222 1.918 . S
Fe220 O225 1.997 . S
Fe220 O226 2.002 . S
Fe220 O231 1.976 . S
Fe220 O234 1.996 1_556 S
Fe221 O222 1.918 . S
Fe221 O229 1.997 . S
Fe221 O232 1.996 . S
Fe221 O236 1.976 . S
Fe221 O239 2.002 . S
O222 Fe220 1.918 . S
O222 Fe221 1.918 . S
O222 Fe223 1.918 . S
Fe223 O222 1.918 . S
Fe223 O224 2.002 . S
Fe223 O233 1.976 1_556 S
Fe223 O237 1.996 . S
Fe223 O240 1.997 . S
O224 Fe223 2.002 . S
O224 C241 1.295 . S
O225 Fe220 1.997 . S
O225 C241 1.235 . S
O226 Fe220 2.002 . S
O226 C227 1.295 . S
C227 O226 1.295 . S
C227 O229 1.235 . S
C228 O233 1.287 . S
C228 O234 1.255 . S
O229 Fe221 1.997 . S
O229 C227 1.235 . S
C230 O236 1.287 . S
C230 O237 1.255 . S
O231 Fe220 1.976 . S
O231 C238 1.287 . S
O232 Fe221 1.996 . S
O232 C238 1.255 . S
O233 Fe223 1.976 1_554 S
O233 C228 1.287 . S
O234 Fe220 1.996 1_554 S
O234 C228 1.255 . S
C235 O239 1.295 . S
C235 O240 1.235 . S
O236 Fe221 1.976 . S
O236 C230 1.287 . S
O237 Fe223 1.996 . S
O237 C230 1.255 . S
C238 O231 1.287 . S
C238 O232 1.255 . S
O239 Fe221 2.002 . S
O239 C235 1.295 . S
O240 Fe223 1.997 . S
O240 C235 1.235 . S
C241 O224 1.295 . S
C241 O225 1.235 . S
Fe242 O244 1.918 . S
Fe242 O247 1.997 . S
Fe242 O248 2.002 . S
Fe242 O253 1.976 . S
Fe242 O256 1.996 . S
Fe243 O244 1.918 . S
Fe243 O251 1.997 . S
Fe243 O254 1.996 . S
Fe243 O258 1.976 . S
Fe243 O261 2.002 . S
O244 Fe242 1.918 . S
O244 Fe243 1.918 . S
O244 Fe245 1.918 . S
Fe245 O244 1.918 . S
Fe245 O246 2.002 . S
Fe245 O255 1.976 . S
Fe245 O259 1.996 . S
Fe245 O262 1.997 . S
O246 Fe245 2.002 . S
O246 C263 1.295 . S
O247 Fe242 1.997 . S
O247 C263 1.235 . S
O248 Fe242 2.002 . S
O248 C249 1.295 . S
C249 O248 1.295 . S
C249 O251 1.235 . S
C250 O255 1.287 . S
C250 O256 1.255 . S
O251 Fe243 1.997 . S
O251 C249 1.235 . S
C252 O258 1.287 . S
C252 O259 1.255 . S
O253 Fe242 1.976 . S
O253 C260 1.287 . S
O254 Fe243 1.996 . S
O254 C260 1.255 . S
O255 Fe245 1.976 . S
O255 C250 1.287 . S
O256 Fe242 1.996 . S
O256 C250 1.255 . S
C257 O261 1.295 . S
C257 O262 1.235 . S
O258 Fe243 1.976 . S
O258 C252 1.287 . S
O259 Fe245 1.996 . S
O259 C252 1.255 . S
C260 O253 1.287 . S
C260 O254 1.255 . S
O261 Fe243 2.002 . S
O261 C257 1.295 . S
O262 Fe245 1.997 . S
O262 C257 1.235 . S
C263 O246 1.295 . S
C263 O247 1.235 . S
Fe264 O266 1.918 . S
Fe264 O269 1.997 . S
Fe264 O270 2.002 . S
Fe264 O275 1.976 . S
Fe264 O278 1.996 . S
Fe265 O266 1.918 . S
Fe265 O273 1.997 . S
Fe265 O276 1.996 . S
Fe265 O280 1.976 1_556 S
Fe265 O283 2.002 . S
O266 Fe264 1.918 . S
O266 Fe265 1.918 . S
O266 Fe267 1.918 . S
Fe267 O266 1.918 . S
Fe267 O268 2.002 . S
Fe267 O277 1.976 . S
Fe267 O281 1.996 1_556 S
Fe267 O284 1.997 . S
O268 Fe267 2.002 . S
O268 C285 1.295 . S
O269 Fe264 1.997 . S
O269 C285 1.235 . S
O270 Fe264 2.002 . S
O270 C271 1.295 . S
C271 O270 1.295 . S
C271 O273 1.235 . S
C272 O277 1.287 . S
C272 O278 1.255 . S
O273 Fe265 1.997 . S
O273 C271 1.235 . S
C274 O280 1.287 . S
C274 O281 1.255 . S
O275 Fe264 1.976 . S
O275 C282 1.287 . S
O276 Fe265 1.996 . S
O276 C282 1.255 . S
O277 Fe267 1.976 . S
O277 C272 1.287 . S
O278 Fe264 1.996 . S
O278 C272 1.255 . S
C279 O283 1.295 . S
C279 O284 1.235 . S
O280 Fe265 1.976 1_554 S
O280 C274 1.287 . S
O281 Fe267 1.996 1_554 S
O281 C274 1.255 . S
C282 O275 1.287 . S
C282 O276 1.255 . S
O283 Fe265 2.002 . S
O283 C279 1.295 . S
O284 Fe267 1.997 . S
O284 C279 1.235 . S
C285 O268 1.295 . S
C285 O269 1.235 . S
Fe286 O288 1.918 . S
Fe286 O291 1.997 . S
Fe286 O292 2.002 . S
Fe286 O297 1.976 . S
Fe286 O300 1.996 . S
Fe287 O288 1.918 . S
Fe287 O295 1.997 . S
Fe287 O298 1.996 . S
Fe287 O302 1.976 . S
Fe287 O305 2.002 . S
O288 Fe286 1.918 . S
O288 Fe287 1.918 . S
O288 Fe289 1.918 . S
Fe289 O288 1.918 . S
Fe289 O290 2.002 . S
Fe289 O299 1.976 . S
Fe289 O303 1.996 . S
Fe289 O306 1.997 . S
O290 Fe289 2.002 . S
O290 C307 1.295 . S
O291 Fe286 1.997 . S
O291 C307 1.235 . S
O292 Fe286 2.002 . S
O292 C293 1.295 . S
C293 O292 1.295 . S
C293 O295 1.235 . S
C294 O299 1.287 . S
C294 O300 1.255 . S
O295 Fe287 1.997 . S
O295 C293 1.235 . S
C296 O302 1.287 . S
C296 O303 1.255 . S
O297 Fe286 1.976 . S
O297 C304 1.287 . S
O298 Fe287 1.996 . S
O298 C304 1.255 . S
O299 Fe289 1.976 . S
O299 C294 1.287 . S
O300 Fe286 1.996 . S
O300 C294 1.255 . S
C301 O305 1.295 . S
C301 O306 1.235 . S
O302 Fe287 1.976 . S
O302 C296 1.287 . S
O303 Fe289 1.996 . S
O303 C296 1.255 . S
C304 O297 1.287 . S
C304 O298 1.255 . S
O305 Fe287 2.002 . S
O305 C301 1.295 . S
O306 Fe289 1.997 . S
O306 C301 1.235 . S
C307 O290 1.295 . S
C307 O291 1.235 . S
Fe308 O310 1.918 . S
Fe308 O313 1.997 . S
Fe308 O314 2.002 . S
Fe308 O319 1.976 1_554 S
Fe308 O322 1.996 . S
Fe309 O310 1.918 . S
Fe309 O317 1.997 . S
Fe309 O320 1.996 1_554 S
Fe309 O324 1.976 . S
Fe309 O327 2.002 . S
O310 Fe308 1.918 . S
O310 Fe309 1.918 . S
O310 Fe311 1.918 . S
Fe311 O310 1.918 . S
Fe311 O312 2.002 . S
Fe311 O321 1.976 . S
Fe311 O325 1.996 . S
Fe311 O328 1.997 . S
O312 Fe311 2.002 . S
O312 C329 1.295 . S
O313 Fe308 1.997 . S
O313 C329 1.235 . S
O314 Fe308 2.002 . S
O314 C315 1.295 . S
C315 O314 1.295 . S
C315 O317 1.235 . S
C316 O321 1.287 . S
C316 O322 1.255 . S
O317 Fe309 1.997 . S
O317 C315 1.235 . S
C318 O324 1.287 . S
C318 O325 1.255 . S
O319 Fe308 1.976 1_556 S
O319 C326 1.287 . S
O320 Fe309 1.996 1_556 S
O320 C326 1.255 . S
O321 Fe311 1.976 . S
O321 C316 1.287 . S
O322 Fe308 1.996 . S
O322 C316 1.255 . S
C323 O327 1.295 . S
C323 O328 1.235 . S
O324 Fe309 1.976 . S
O324 C318 1.287 . S
O325 Fe311 1.996 . S
O325 C318 1.255 . S
C326 O319 1.287 . S
C326 O320 1.255 . S
O327 Fe309 2.002 . S
O327 C323 1.295 . S
O328 Fe311 1.997 . S
O328 C323 1.235 . S
C329 O312 1.295 . S
C329 O313 1.235 . S
Fe330 O332 1.918 . S
Fe330 O335 1.997 . S
Fe330 O336 2.002 . S
Fe330 O341 1.976 . S
Fe330 O344 1.996 . S
Fe331 O332 1.918 . S
Fe331 O339 1.997 . S
Fe331 O342 1.996 . S
Fe331 O346 1.976 . S
Fe331 O349 2.002 . S
O332 Fe330 1.918 . S
O332 Fe331 1.918 . S
O332 Fe333 1.918 . S
Fe333 O332 1.918 . S
Fe333 O334 2.002 . S
Fe333 O343 1.976 . S
Fe333 O347 1.996 . S
Fe333 O350 1.997 . S
O334 Fe333 2.002 . S
O334 C351 1.295 . S
O335 Fe330 1.997 . S
O335 C351 1.235 . S
O336 Fe330 2.002 . S
O336 C337 1.295 . S
C337 O336 1.295 . S
C337 O339 1.235 . S
C338 O343 1.287 . S
C338 O344 1.255 . S
O339 Fe331 1.997 . S
O339 C337 1.235 . S
C340 O346 1.287 . S
C340 O347 1.255 . S
O341 Fe330 1.976 . S
O341 C348 1.287 . S
O342 Fe331 1.996 . S
O342 C348 1.255 . S
O343 Fe333 1.976 . S
O343 C338 1.287 . S
O344 Fe330 1.996 . S
O344 C338 1.255 . S
C345 O349 1.295 . S
C345 O350 1.235 . S
O346 Fe331 1.976 . S
O346 C340 1.287 . S
O347 Fe333 1.996 . S
O347 C340 1.255 . S
C348 O341 1.287 . S
C348 O342 1.255 . S
O349 Fe331 2.002 . S
O349 C345 1.295 . S
O350 Fe333 1.997 . S
O350 C345 1.235 . S
C351 O334 1.295 . S
C351 O335 1.235 . S
H352 C358 0.930 . S
H353 C362 0.930 . S
H354 C367 0.929 . S
H355 C365 0.929 . S
H356 C360 0.929 . S
H357 C366 0.929 . S
C358 H352 0.930 . S
C358 C359 1.367 . S
C358 C366 1.378 . S
C359 C358 1.367 . S
C359 C367 1.433 . S
C360 H356 0.929 . S
C360 C362 1.378 . S
C360 C364 1.350 . S
C361 C364 1.463 . S
C361 C366 1.350 . S
C361 N369 1.427 . S
C362 H353 0.930 . S
C362 C360 1.378 . S
C362 C363 1.367 . S
C363 C362 1.367 . S
C363 C365 1.433 . S
C364 C360 1.350 . S
C364 C361 1.463 . S
C364 N368 1.427 . S
C365 H355 0.929 . S
C365 C363 1.433 . S
C365 N368 1.384 . S
C366 H357 0.929 . S
C366 C358 1.378 . S
C366 C361 1.350 . S
C367 H354 0.929 . S
C367 C359 1.433 . S
C367 N369 1.384 . S
N368 C364 1.427 . S
N368 C365 1.384 . S
N369 C361 1.427 . S
N369 C367 1.384 . S
H370 C376 0.930 . S
H371 C380 0.930 . S
H372 C385 0.929 . S
H373 C383 0.929 . S
H374 C378 0.929 . S
H375 C384 0.929 . S
C376 H370 0.930 . S
C376 C377 1.367 . S
C376 C384 1.378 . S
C377 C376 1.367 . S
C377 C385 1.433 . S
C378 H374 0.929 . S
C378 C380 1.378 . S
C378 C382 1.350 . S
C379 C382 1.463 . S
C379 C384 1.350 . S
C379 N387 1.427 . S
C380 H371 0.930 . S
C380 C378 1.378 . S
C380 C381 1.367 . S
C381 C380 1.367 . S
C381 C383 1.433 . S
C382 C378 1.350 . S
C382 C379 1.463 . S
C382 N386 1.427 . S
C383 H373 0.929 . S
C383 C381 1.433 . S
C383 N386 1.384 . S
C384 H375 0.929 . S
C384 C376 1.378 . S
C384 C379 1.350 . S
C385 H372 0.929 . S
C385 C377 1.433 . S
C385 N387 1.384 . S
N386 C382 1.427 . S
N386 C383 1.384 . S
N387 C379 1.427 . S
N387 C385 1.384 . S
H388 C394 0.930 . S
H389 C398 0.930 . S
H390 C403 0.929 . S
H391 C401 0.929 . S
H392 C396 0.929 . S
H393 C402 0.929 . S
C394 H388 0.930 . S
C394 C395 1.367 . S
C394 C402 1.378 . S
C395 C394 1.367 . S
C395 C403 1.433 . S
C396 H392 0.929 . S
C396 C398 1.378 . S
C396 C400 1.350 . S
C397 C400 1.463 . S
C397 C402 1.350 . S
C397 N405 1.427 . S
C398 H389 0.930 . S
C398 C396 1.378 . S
C398 C399 1.367 . S
C399 C398 1.367 . S
C399 C401 1.433 . S
C400 C396 1.350 . S
C400 C397 1.463 . S
C400 N404 1.427 . S
C401 H391 0.929 . S
C401 C399 1.433 . S
C401 N404 1.384 . S
C402 H393 0.929 . S
C402 C394 1.378 . S
C402 C397 1.350 . S
C403 H390 0.929 . S
C403 C395 1.433 . S
C403 N405 1.384 . S
N404 C400 1.427 . S
N404 C401 1.384 . S
N405 C397 1.427 . S
N405 C403 1.384 . S
H406 C412 0.930 . S
H407 C416 0.930 . S
H408 C421 0.929 . S
H409 C419 0.929 . S
H410 C414 0.929 . S
H411 C420 0.929 . S
C412 H406 0.930 . S
C412 C413 1.367 . S
C412 C420 1.378 . S
C413 C412 1.367 . S
C413 C421 1.433 . S
C414 H410 0.929 . S
C414 C416 1.378 . S
C414 C418 1.350 . S
C415 C418 1.463 . S
C415 C420 1.350 . S
C415 N423 1.427 . S
C416 H407 0.930 . S
C416 C414 1.378 . S
C416 C417 1.367 . S
C417 C416 1.367 . S
C417 C419 1.433 . S
C418 C414 1.350 . S
C418 C415 1.463 . S
C418 N422 1.427 . S
C419 H409 0.929 . S
C419 C417 1.433 . S
C419 N422 1.384 . S
C420 H411 0.929 . S
C420 C412 1.378 . S
C420 C415 1.350 . S
C421 H408 0.929 . S
C421 C413 1.433 . S
C421 N423 1.384 . S
N422 C418 1.427 . S
N422 C419 1.384 . S
N423 C415 1.427 . S
N423 C421 1.384 . S
H424 C430 0.930 . S
H425 C434 0.930 . S
H426 C439 0.929 . S
H427 C437 0.929 . S
H428 C432 0.929 . S
H429 C438 0.929 . S
C430 H424 0.930 . S
C430 C431 1.367 . S
C430 C438 1.378 . S
C431 C430 1.367 . S
C431 C439 1.433 . S
C432 H428 0.929 . S
C432 C434 1.378 . S
C432 C436 1.350 . S
C433 C436 1.463 . S
C433 C438 1.350 . S
C433 N441 1.427 . S
C434 H425 0.930 . S
C434 C432 1.378 . S
C434 C435 1.367 . S
C435 C434 1.367 . S
C435 C437 1.433 . S
C436 C432 1.350 . S
C436 C433 1.463 . S
C436 N440 1.427 . S
C437 H427 0.929 . S
C437 C435 1.433 . S
C437 N440 1.384 . S
C438 H429 0.929 . S
C438 C430 1.378 . S
C438 C433 1.350 . S
C439 H426 0.929 . S
C439 C431 1.433 . S
C439 N441 1.384 . S
N440 C436 1.427 . S
N440 C437 1.384 . S
N441 C433 1.427 . S
N441 C439 1.384 . S
H442 C448 0.930 . S
H443 C452 0.930 . S
H444 C457 0.929 . S
H445 C455 0.929 . S
H446 C450 0.929 . S
H447 C456 0.929 . S
C448 H442 0.930 . S
C448 C449 1.367 . S
C448 C456 1.378 . S
C449 C448 1.367 . S
C449 C457 1.433 . S
C450 H446 0.929 . S
C450 C452 1.378 . S
C450 C454 1.350 . S
C451 C454 1.463 . S
C451 C456 1.350 . S
C451 N459 1.427 . S
C452 H443 0.930 . S
C452 C450 1.378 . S
C452 C453 1.367 . S
C453 C452 1.367 . S
C453 C455 1.433 . S
C454 C450 1.350 . S
C454 C451 1.463 . S
C454 N458 1.427 . S
C455 H445 0.929 . S
C455 C453 1.433 . S
C455 N458 1.384 . S
C456 H447 0.929 . S
C456 C448 1.378 . S
C456 C451 1.350 . S
C457 H444 0.929 . S
C457 C449 1.433 . S
C457 N459 1.384 . S
N458 C454 1.427 . S
N458 C455 1.384 . S
N459 C451 1.427 . S
N459 C457 1.384 . S
H460 C466 0.930 . S
H461 C470 0.930 . S
H462 C475 0.929 . S
H463 C473 0.929 . S
H464 C468 0.929 . S
H465 C474 0.929 . S
C466 H460 0.930 . S
C466 C467 1.367 . S
C466 C474 1.378 . S
C467 C466 1.367 . S
C467 C475 1.433 . S
C468 H464 0.929 . S
C468 C470 1.378 . S
C468 C472 1.350 . S
C469 C472 1.463 . S
C469 C474 1.350 . S
C469 N477 1.427 . S
C470 H461 0.930 . S
C470 C468 1.378 . S
C470 C471 1.367 . S
C471 C470 1.367 . S
C471 C473 1.433 . S
C472 C468 1.350 . S
C472 C469 1.463 . S
C472 N476 1.427 . S
C473 H463 0.929 . S
C473 C471 1.433 . S
C473 N476 1.384 . S
C474 H465 0.929 . S
C474 C466 1.378 . S
C474 C469 1.350 . S
C475 H462 0.929 . S
C475 C467 1.433 . S
C475 N477 1.384 . S
N476 C472 1.427 . S
N476 C473 1.384 . S
N477 C469 1.427 . S
N477 C475 1.384 . S
H478 C484 0.930 . S
H479 C488 0.930 . S
H480 C493 0.929 . S
H481 C491 0.929 . S
H482 C486 0.929 . S
H483 C492 0.929 . S
C484 H478 0.930 . S
C484 C485 1.367 . S
C484 C492 1.378 . S
C485 C484 1.367 . S
C485 C493 1.433 . S
C486 H482 0.929 . S
C486 C488 1.378 . S
C486 C490 1.350 . S
C487 C490 1.463 . S
C487 C492 1.350 . S
C487 N495 1.427 . S
C488 H479 0.930 . S
C488 C486 1.378 . S
C488 C489 1.367 . S
C489 C488 1.367 . S
C489 C491 1.433 . S
C490 C486 1.350 . S
C490 C487 1.463 . S
C490 N494 1.427 . S
C491 H481 0.929 . S
C491 C489 1.433 . S
C491 N494 1.384 . S
C492 H483 0.929 . S
C492 C484 1.378 . S
C492 C487 1.350 . S
C493 H480 0.929 . S
C493 C485 1.433 . S
C493 N495 1.384 . S
N494 C490 1.427 . S
N494 C491 1.384 . S
N495 C487 1.427 . S
N495 C493 1.384 . S
H496 C502 0.930 . S
H497 C506 0.930 . S
H498 C511 0.929 . S
H499 C509 0.929 . S
H500 C504 0.929 . S
H501 C510 0.929 . S
C502 H496 0.930 . S
C502 C503 1.367 . S
C502 C510 1.378 . S
C503 C502 1.367 . S
C503 C511 1.433 . S
C504 H500 0.929 . S
C504 C506 1.378 . S
C504 C508 1.350 . S
C505 C508 1.463 . S
C505 C510 1.350 . S
C505 N513 1.427 . S
C506 H497 0.930 . S
C506 C504 1.378 . S
C506 C507 1.367 . S
C507 C506 1.367 . S
C507 C509 1.433 . S
C508 C504 1.350 . S
C508 C505 1.463 . S
C508 N512 1.427 . S
C509 H499 0.929 . S
C509 C507 1.433 . S
C509 N512 1.384 . S
C510 H501 0.929 . S
C510 C502 1.378 . S
C510 C505 1.350 . S
C511 H498 0.929 . S
C511 C503 1.433 . S
C511 N513 1.384 . S
N512 C508 1.427 . S
N512 C509 1.384 . S
N513 C505 1.427 . S
N513 C511 1.384 . S
H514 C520 0.930 . S
H515 C524 0.930 . S
H516 C529 0.929 . S
H517 C527 0.929 . S
H518 C522 0.929 . S
H519 C528 0.929 . S
C520 H514 0.930 . S
C520 C521 1.367 . S
C520 C528 1.378 . S
C521 C520 1.367 . S
C521 C529 1.433 . S
C522 H518 0.929 . S
C522 C524 1.378 . S
C522 C526 1.350 . S
C523 C526 1.463 . S
C523 C528 1.350 . S
C523 N531 1.427 . S
C524 H515 0.930 . S
C524 C522 1.378 . S
C524 C525 1.367 . S
C525 C524 1.367 . S
C525 C527 1.433 . S
C526 C522 1.350 . S
C526 C523 1.463 . S
C526 N530 1.427 . S
C527 H517 0.929 . S
C527 C525 1.433 . S
C527 N530 1.384 . S
C528 H519 0.929 . S
C528 C520 1.378 . S
C528 C523 1.350 . S
C529 H516 0.929 . S
C529 C521 1.433 . S
C529 N531 1.384 . S
N530 C526 1.427 . S
N530 C527 1.384 . S
N531 C523 1.427 . S
N531 C529 1.384 . S
H532 C538 0.930 . S
H533 C542 0.930 . S
H534 C547 0.929 . S
H535 C545 0.929 . S
H536 C540 0.929 . S
H537 C546 0.929 . S
C538 H532 0.930 . S
C538 C539 1.367 . S
C538 C546 1.378 . S
C539 C538 1.367 . S
C539 C547 1.433 . S
C540 H536 0.929 . S
C540 C542 1.378 . S
C540 C544 1.350 . S
C541 C544 1.463 . S
C541 C546 1.350 . S
C541 N549 1.427 . S
C542 H533 0.930 . S
C542 C540 1.378 . S
C542 C543 1.367 . S
C543 C542 1.367 . S
C543 C545 1.433 . S
C544 C540 1.350 . S
C544 C541 1.463 . S
C544 N548 1.427 . S
C545 H535 0.929 . S
C545 C543 1.433 . S
C545 N548 1.384 . S
C546 H537 0.929 . S
C546 C538 1.378 . S
C546 C541 1.350 . S
C547 H534 0.929 . S
C547 C539 1.433 . S
C547 N549 1.384 . S
N548 C544 1.427 . S
N548 C545 1.384 . S
N549 C541 1.427 . S
N549 C547 1.384 . S
H550 C556 0.930 . S
H551 C560 0.930 . S
H552 C565 0.929 . S
H553 C563 0.929 . S
H554 C558 0.929 . S
H555 C564 0.929 . S
C556 H550 0.930 . S
C556 C557 1.367 . S
C556 C564 1.378 . S
C557 C556 1.367 . S
C557 C565 1.433 . S
C558 H554 0.929 . S
C558 C560 1.378 . S
C558 C562 1.350 . S
C559 C562 1.463 . S
C559 C564 1.350 . S
C559 N567 1.427 . S
C560 H551 0.930 . S
C560 C558 1.378 . S
C560 C561 1.367 . S
C561 C560 1.367 . S
C561 C563 1.433 . S
C562 C558 1.350 . S
C562 C559 1.463 . S
C562 N566 1.427 . S
C563 H553 0.929 . S
C563 C561 1.433 . S
C563 N566 1.384 . S
C564 H555 0.929 . S
C564 C556 1.378 . S
C564 C559 1.350 . S
C565 H552 0.929 . S
C565 C557 1.433 . S
C565 N567 1.384 . S
N566 C562 1.427 . S
N566 C563 1.384 . S
N567 C559 1.427 . S
N567 C565 1.384 . S
H568 C574 0.930 . S
H569 C578 0.930 . S
H570 C583 0.929 . S
H571 C581 0.929 . S
H572 C576 0.929 . S
H573 C582 0.929 . S
C574 H568 0.930 . S
C574 C575 1.367 . S
C574 C582 1.378 . S
C575 C574 1.367 . S
C575 C583 1.433 . S
C576 H572 0.929 . S
C576 C578 1.378 . S
C576 C580 1.350 . S
C577 C580 1.463 . S
C577 C582 1.350 . S
C577 N585 1.427 . S
C578 H569 0.930 . S
C578 C576 1.378 . S
C578 C579 1.367 . S
C579 C578 1.367 . S
C579 C581 1.433 . S
C580 C576 1.350 . S
C580 C577 1.463 . S
C580 N584 1.427 . S
C581 H571 0.929 . S
C581 C579 1.433 . S
C581 N584 1.384 . S
C582 H573 0.929 . S
C582 C574 1.378 . S
C582 C577 1.350 . S
C583 H570 0.929 . S
C583 C575 1.433 . S
C583 N585 1.384 . S
N584 C580 1.427 . S
N584 C581 1.384 . S
N585 C577 1.427 . S
N585 C583 1.384 . S
H586 C592 0.930 . S
H587 C596 0.930 . S
H588 C601 0.929 . S
H589 C599 0.929 . S
H590 C594 0.929 . S
H591 C600 0.929 . S
C592 H586 0.930 . S
C592 C593 1.367 . S
C592 C600 1.378 . S
C593 C592 1.367 . S
C593 C601 1.433 . S
C594 H590 0.929 . S
C594 C596 1.378 . S
C594 C598 1.350 . S
C595 C598 1.463 . S
C595 C600 1.350 . S
C595 N603 1.427 . S
C596 H587 0.930 . S
C596 C594 1.378 . S
C596 C597 1.367 . S
C597 C596 1.367 . S
C597 C599 1.433 . S
C598 C594 1.350 . S
C598 C595 1.463 . S
C598 N602 1.427 . S
C599 H589 0.929 . S
C599 C597 1.433 . S
C599 N602 1.384 . S
C600 H591 0.929 . S
C600 C592 1.378 . S
C600 C595 1.350 . S
C601 H588 0.929 . S
C601 C593 1.433 . S
C601 N603 1.384 . S
N602 C598 1.427 . S
N602 C599 1.384 . S
N603 C595 1.427 . S
N603 C601 1.384 . S
H604 C610 0.930 . S
H605 C614 0.930 . S
H606 C619 0.929 . S
H607 C617 0.929 . S
H608 C612 0.929 . S
H609 C618 0.929 . S
C610 H604 0.930 . S
C610 C611 1.367 . S
C610 C618 1.378 . S
C611 C610 1.367 . S
C611 C619 1.433 . S
C612 H608 0.929 . S
C612 C614 1.378 . S
C612 C616 1.350 . S
C613 C616 1.463 . S
C613 C618 1.350 . S
C613 N621 1.427 . S
C614 H605 0.930 . S
C614 C612 1.378 . S
C614 C615 1.367 . S
C615 C614 1.367 . S
C615 C617 1.433 . S
C616 C612 1.350 . S
C616 C613 1.463 . S
C616 N620 1.427 . S
C617 H607 0.929 . S
C617 C615 1.433 . S
C617 N620 1.384 . S
C618 H609 0.929 . S
C618 C610 1.378 . S
C618 C613 1.350 . S
C619 H606 0.929 . S
C619 C611 1.433 . S
C619 N621 1.384 . S
N620 C616 1.427 . S
N620 C617 1.384 . S
N621 C613 1.427 . S
N621 C619 1.384 . S
H622 C628 0.930 . S
H623 C632 0.930 . S
H624 C637 0.929 . S
H625 C635 0.929 . S
H626 C630 0.929 . S
H627 C636 0.929 . S
C628 H622 0.930 . S
C628 C629 1.367 . S
C628 C636 1.378 . S
C629 C628 1.367 . S
C629 C637 1.433 . S
C630 H626 0.929 . S
C630 C632 1.378 . S
C630 C634 1.350 . S
C631 C634 1.463 . S
C631 C636 1.350 . S
C631 N639 1.427 . S
C632 H623 0.930 . S
C632 C630 1.378 . S
C632 C633 1.367 . S
C633 C632 1.367 . S
C633 C635 1.433 . S
C634 C630 1.350 . S
C634 C631 1.463 . S
C634 N638 1.427 . S
C635 H625 0.929 . S
C635 C633 1.433 . S
C635 N638 1.384 . S
C636 H627 0.929 . S
C636 C628 1.378 . S
C636 C631 1.350 . S
C637 H624 0.929 . S
C637 C629 1.433 . S
C637 N639 1.384 . S
N638 C634 1.427 . S
N638 C635 1.384 . S
N639 C631 1.427 . S
N639 C637 1.384 . S
H640 C646 0.930 . S
H641 C650 0.930 . S
H642 C655 0.929 . S
H643 C653 0.929 . S
H644 C648 0.929 . S
H645 C654 0.929 . S
C646 H640 0.930 . S
C646 C647 1.367 . S
C646 C654 1.378 . S
C647 C646 1.367 . S
C647 C655 1.433 . S
C648 H644 0.929 . S
C648 C650 1.378 . S
C648 C652 1.350 . S
C649 C652 1.463 . S
C649 C654 1.350 . S
C649 N657 1.427 . S
C650 H641 0.930 . S
C650 C648 1.378 . S
C650 C651 1.367 . S
C651 C650 1.367 . S
C651 C653 1.433 . S
C652 C648 1.350 . S
C652 C649 1.463 . S
C652 N656 1.427 . S
C653 H643 0.929 . S
C653 C651 1.433 . S
C653 N656 1.384 . S
C654 H645 0.929 . S
C654 C646 1.378 . S
C654 C649 1.350 . S
C655 H642 0.929 . S
C655 C647 1.433 . S
C655 N657 1.384 . S
N656 C652 1.427 . S
N656 C653 1.384 . S
N657 C649 1.427 . S
N657 C655 1.384 . S
H658 C664 0.930 . S
H659 C668 0.930 . S
H660 C673 0.929 . S
H661 C671 0.929 . S
H662 C666 0.929 . S
H663 C672 0.929 . S
C664 H658 0.930 . S
C664 C665 1.367 . S
C664 C672 1.378 . S
C665 C664 1.367 . S
C665 C673 1.433 . S
C666 H662 0.929 . S
C666 C668 1.378 . S
C666 C670 1.350 . S
C667 C670 1.463 . S
C667 C672 1.350 . S
C667 N675 1.427 . S
C668 H659 0.930 . S
C668 C666 1.378 . S
C668 C669 1.367 . S
C669 C668 1.367 . S
C669 C671 1.433 . S
C670 C666 1.350 . S
C670 C667 1.463 . S
C670 N674 1.427 . S
C671 H661 0.929 . S
C671 C669 1.433 . S
C671 N674 1.384 . S
C672 H663 0.929 . S
C672 C664 1.378 . S
C672 C667 1.350 . S
C673 H660 0.929 . S
C673 C665 1.433 . S
C673 N675 1.384 . S
N674 C670 1.427 . S
N674 C671 1.384 . S
N675 C667 1.427 . S
N675 C673 1.384 . S
H676 C682 0.930 . S
H677 C686 0.930 . S
H678 C691 0.929 . S
H679 C689 0.929 . S
H680 C684 0.929 . S
H681 C690 0.929 . S
C682 H676 0.930 . S
C682 C683 1.367 . S
C682 C690 1.378 . S
C683 C682 1.367 . S
C683 C691 1.433 . S
C684 H680 0.929 . S
C684 C686 1.378 . S
C684 C688 1.350 . S
C685 C688 1.463 . S
C685 C690 1.350 . S
C685 N693 1.427 . S
C686 H677 0.930 . S
C686 C684 1.378 . S
C686 C687 1.367 . S
C687 C686 1.367 . S
C687 C689 1.433 . S
C688 C684 1.350 . S
C688 C685 1.463 . S
C688 N692 1.427 . S
C689 H679 0.929 . S
C689 C687 1.433 . S
C689 N692 1.384 . S
C690 H681 0.929 . S
C690 C682 1.378 . S
C690 C685 1.350 . S
C691 H678 0.929 . S
C691 C683 1.433 . S
C691 N693 1.384 . S
N692 C688 1.427 . S
N692 C689 1.384 . S
N693 C685 1.427 . S
N693 C691 1.384 . S
H694 C700 0.930 . S
H695 C704 0.930 . S
H696 C709 0.929 . S
H697 C707 0.929 . S
H698 C702 0.929 . S
H699 C708 0.929 . S
C700 H694 0.930 . S
C700 C701 1.367 . S
C700 C708 1.378 . S
C701 C700 1.367 . S
C701 C709 1.433 . S
C702 H698 0.929 . S
C702 C704 1.378 . S
C702 C706 1.350 . S
C703 C706 1.463 . S
C703 C708 1.350 . S
C703 N711 1.427 . S
C704 H695 0.930 . S
C704 C702 1.378 . S
C704 C705 1.367 . S
C705 C704 1.367 . S
C705 C707 1.433 . S
C706 C702 1.350 . S
C706 C703 1.463 . S
C706 N710 1.427 . S
C707 H697 0.929 . S
C707 C705 1.433 . S
C707 N710 1.384 . S
C708 H699 0.929 . S
C708 C700 1.378 . S
C708 C703 1.350 . S
C709 H696 0.929 . S
C709 C701 1.433 . S
C709 N711 1.384 . S
N710 C706 1.427 . S
N710 C707 1.384 . S
N711 C703 1.427 . S
N711 C709 1.384 . S
H712 C718 0.930 . S
H713 C722 0.930 . S
H714 C727 0.929 . S
H715 C725 0.929 . S
H716 C720 0.929 . S
H717 C726 0.929 . S
C718 H712 0.930 . S
C718 C719 1.367 . S
C718 C726 1.378 . S
C719 C718 1.367 . S
C719 C727 1.433 . S
C720 H716 0.929 . S
C720 C722 1.378 . S
C720 C724 1.350 . S
C721 C724 1.463 . S
C721 C726 1.350 . S
C721 N729 1.427 . S
C722 H713 0.930 . S
C722 C720 1.378 . S
C722 C723 1.367 . S
C723 C722 1.367 . S
C723 C725 1.433 . S
C724 C720 1.350 . S
C724 C721 1.463 . S
C724 N728 1.427 . S
C725 H715 0.929 . S
C725 C723 1.433 . S
C725 N728 1.384 . S
C726 H717 0.929 . S
C726 C718 1.378 . S
C726 C721 1.350 . S
C727 H714 0.929 . S
C727 C719 1.433 . S
C727 N729 1.384 . S
N728 C724 1.427 . S
N728 C725 1.384 . S
N729 C721 1.427 . S
N729 C727 1.384 . S
H730 C736 0.930 . S
H731 C740 0.930 . S
H732 C745 0.929 . S
H733 C743 0.929 . S
H734 C738 0.929 . S
H735 C744 0.929 . S
C736 H730 0.930 . S
C736 C737 1.367 . S
C736 C744 1.378 . S
C737 C736 1.367 . S
C737 C745 1.433 . S
C738 H734 0.929 . S
C738 C740 1.378 . S
C738 C742 1.350 . S
C739 C742 1.463 . S
C739 C744 1.350 . S
C739 N747 1.427 . S
C740 H731 0.930 . S
C740 C738 1.378 . S
C740 C741 1.367 . S
C741 C740 1.367 . S
C741 C743 1.433 . S
C742 C738 1.350 . S
C742 C739 1.463 . S
C742 N746 1.427 . S
C743 H733 0.929 . S
C743 C741 1.433 . S
C743 N746 1.384 . S
C744 H735 0.929 . S
C744 C736 1.378 . S
C744 C739 1.350 . S
C745 H732 0.929 . S
C745 C737 1.433 . S
C745 N747 1.384 . S
N746 C742 1.427 . S
N746 C743 1.384 . S
N747 C739 1.427 . S
N747 C745 1.384 . S
H748 C754 0.930 . S
H749 C758 0.930 . S
H750 C763 0.929 . S
H751 C761 0.929 . S
H752 C756 0.929 . S
H753 C762 0.929 . S
C754 H748 0.930 . S
C754 C755 1.367 . S
C754 C762 1.378 . S
C755 C754 1.367 . S
C755 C763 1.433 . S
C756 H752 0.929 . S
C756 C758 1.378 . S
C756 C760 1.350 . S
C757 C760 1.463 . S
C757 C762 1.350 . S
C757 N765 1.427 . S
C758 H749 0.930 . S
C758 C756 1.378 . S
C758 C759 1.367 . S
C759 C758 1.367 . S
C759 C761 1.433 . S
C760 C756 1.350 . S
C760 C757 1.463 . S
C760 N764 1.427 . S
C761 H751 0.929 . S
C761 C759 1.433 . S
C761 N764 1.384 . S
C762 H753 0.929 . S
C762 C754 1.378 . S
C762 C757 1.350 . S
C763 H750 0.929 . S
C763 C755 1.433 . S
C763 N765 1.384 . S
N764 C760 1.427 . S
N764 C761 1.384 . S
N765 C757 1.427 . S
N765 C763 1.384 . S
H766 C772 0.930 . S
H767 C776 0.930 . S
H768 C781 0.929 . S
H769 C779 0.929 . S
H770 C774 0.929 . S
H771 C780 0.929 . S
C772 H766 0.930 . S
C772 C773 1.367 . S
C772 C780 1.378 . S
C773 C772 1.367 . S
C773 C781 1.433 . S
C774 H770 0.929 . S
C774 C776 1.378 . S
C774 C778 1.350 . S
C775 C778 1.463 . S
C775 C780 1.350 . S
C775 N783 1.427 . S
C776 H767 0.930 . S
C776 C774 1.378 . S
C776 C777 1.367 . S
C777 C776 1.367 . S
C777 C779 1.433 . S
C778 C774 1.350 . S
C778 C775 1.463 . S
C778 N782 1.427 . S
C779 H769 0.929 . S
C779 C777 1.433 . S
C779 N782 1.384 . S
C780 H771 0.929 . S
C780 C772 1.378 . S
C780 C775 1.350 . S
C781 H768 0.929 . S
C781 C773 1.433 . S
C781 N783 1.384 . S
N782 C778 1.427 . S
N782 C779 1.384 . S
N783 C775 1.427 . S
N783 C781 1.384 . S
H784 C790 0.930 . S
H785 C794 0.930 . S
H786 C799 0.929 . S
H787 C797 0.929 . S
H788 C792 0.929 . S
H789 C798 0.929 . S
C790 H784 0.930 . S
C790 C791 1.367 . S
C790 C798 1.378 . S
C791 C790 1.367 . S
C791 C799 1.433 . S
C792 H788 0.929 . S
C792 C794 1.378 . S
C792 C796 1.350 . S
C793 C796 1.463 1_455 S
C793 C798 1.350 . S
C793 N801 1.427 . S
C794 H785 0.930 . S
C794 C792 1.378 . S
C794 C795 1.367 . S
C795 C794 1.367 . S
C795 C797 1.433 . S
C796 C792 1.350 . S
C796 C793 1.463 1_655 S
C796 N800 1.427 . S
C797 H787 0.929 . S
C797 C795 1.433 . S
C797 N800 1.384 . S
C798 H789 0.929 . S
C798 C790 1.378 . S
C798 C793 1.350 . S
C799 H786 0.929 . S
C799 C791 1.433 . S
C799 N801 1.384 . S
N800 C796 1.427 . S
N800 C797 1.384 . S
N801 C793 1.427 . S
N801 C799 1.384 . S
H802 C808 0.930 . S
H803 C812 0.930 . S
H804 C817 0.929 . S
H805 C815 0.929 . S
H806 C810 0.929 . S
H807 C816 0.929 . S
C808 H802 0.930 . S
C808 C809 1.367 . S
C808 C816 1.378 . S
C809 C808 1.367 . S
C809 C817 1.433 . S
C810 H806 0.929 . S
C810 C812 1.378 . S
C810 C814 1.350 . S
C811 C814 1.463 . S
C811 C816 1.350 . S
C811 N819 1.427 . S
C812 H803 0.930 . S
C812 C810 1.378 . S
C812 C813 1.367 . S
C813 C812 1.367 . S
C813 C815 1.433 . S
C814 C810 1.350 . S
C814 C811 1.463 . S
C814 N818 1.427 . S
C815 H805 0.929 . S
C815 C813 1.433 . S
C815 N818 1.384 . S
C816 H807 0.929 . S
C816 C808 1.378 . S
C816 C811 1.350 . S
C817 H804 0.929 . S
C817 C809 1.433 . S
C817 N819 1.384 . S
N818 C814 1.427 . S
N818 C815 1.384 . S
N819 C811 1.427 . S
N819 C817 1.384 . S
H820 C826 0.930 . S
H821 C830 0.930 . S
H822 C835 0.929 . S
H823 C833 0.929 . S
H824 C828 0.929 . S
H825 C834 0.929 . S
C826 H820 0.930 . S
C826 C827 1.367 . S
C826 C834 1.378 . S
C827 C826 1.367 . S
C827 C835 1.433 . S
C828 H824 0.929 . S
C828 C830 1.378 . S
C828 C832 1.350 . S
C829 C832 1.463 1_655 S
C829 C834 1.350 . S
C829 N837 1.427 . S
C830 H821 0.930 . S
C830 C828 1.378 . S
C830 C831 1.367 . S
C831 C830 1.367 . S
C831 C833 1.433 . S
C832 C828 1.350 . S
C832 C829 1.463 1_455 S
C832 N836 1.427 . S
C833 H823 0.929 . S
C833 C831 1.433 . S
C833 N836 1.384 . S
C834 H825 0.929 . S
C834 C826 1.378 . S
C834 C829 1.350 . S
C835 H822 0.929 . S
C835 C827 1.433 . S
C835 N837 1.384 . S
N836 C832 1.427 . S
N836 C833 1.384 . S
N837 C829 1.427 . S
N837 C835 1.384 . S
H838 C844 0.930 . S
H839 C848 0.930 . S
H840 C853 0.929 . S
H841 C851 0.929 . S
H842 C846 0.929 . S
H843 C852 0.929 . S
C844 H838 0.930 . S
C844 C845 1.367 . S
C844 C852 1.378 . S
C845 C844 1.367 . S
C845 C853 1.433 . S
C846 H842 0.929 . S
C846 C848 1.378 . S
C846 C850 1.350 . S
C847 C850 1.463 . S
C847 C852 1.350 . S
C847 N855 1.427 . S
C848 H839 0.930 . S
C848 C846 1.378 . S
C848 C849 1.367 . S
C849 C848 1.367 . S
C849 C851 1.433 . S
C850 C846 1.350 . S
C850 C847 1.463 . S
C850 N854 1.427 . S
C851 H841 0.929 . S
C851 C849 1.433 . S
C851 N854 1.384 . S
C852 H843 0.929 . S
C852 C844 1.378 . S
C852 C847 1.350 . S
C853 H840 0.929 . S
C853 C845 1.433 . S
C853 N855 1.384 . S
N854 C850 1.427 . S
N854 C851 1.384 . S
N855 C847 1.427 . S
N855 C853 1.384 . S
H856 C862 0.930 . S
H857 C866 0.930 . S
H858 C871 0.929 . S
H859 C869 0.929 . S
H860 C864 0.929 . S
H861 C870 0.929 . S
C862 H856 0.930 . S
C862 C863 1.367 . S
C862 C870 1.378 . S
C863 C862 1.367 . S
C863 C871 1.433 . S
C864 H860 0.929 . S
C864 C866 1.378 . S
C864 C868 1.350 . S
C865 C868 1.463 . S
C865 C870 1.350 . S
C865 N873 1.427 . S
C866 H857 0.930 . S
C866 C864 1.378 . S
C866 C867 1.367 . S
C867 C866 1.367 . S
C867 C869 1.433 . S
C868 C864 1.350 . S
C868 C865 1.463 . S
C868 N872 1.427 . S
C869 H859 0.929 . S
C869 C867 1.433 . S
C869 N872 1.384 . S
C870 H861 0.929 . S
C870 C862 1.378 . S
C870 C865 1.350 . S
C871 H858 0.929 . S
C871 C863 1.433 . S
C871 N873 1.384 . S
N872 C868 1.427 . S
N872 C869 1.384 . S
N873 C865 1.427 . S
N873 C871 1.384 . S
H874 C880 0.930 . S
H875 C884 0.930 . S
H876 C889 0.929 . S
H877 C887 0.929 . S
H878 C882 0.929 . S
H879 C888 0.929 . S
C880 H874 0.930 . S
C880 C881 1.367 . S
C880 C888 1.378 . S
C881 C880 1.367 . S
C881 C889 1.433 . S
C882 H878 0.929 . S
C882 C884 1.378 . S
C882 C886 1.350 . S
C883 C886 1.463 1_655 S
C883 C888 1.350 . S
C883 N891 1.427 . S
C884 H875 0.930 . S
C884 C882 1.378 . S
C884 C885 1.367 . S
C885 C884 1.367 . S
C885 C887 1.433 . S
C886 C882 1.350 . S
C886 C883 1.463 1_455 S
C886 N890 1.427 . S
C887 H877 0.929 . S
C887 C885 1.433 . S
C887 N890 1.384 . S
C888 H879 0.929 . S
C888 C880 1.378 . S
C888 C883 1.350 . S
C889 H876 0.929 . S
C889 C881 1.433 . S
C889 N891 1.384 . S
N890 C886 1.427 . S
N890 C887 1.384 . S
N891 C883 1.427 . S
N891 C889 1.384 . S
H892 C898 0.930 . S
H893 C902 0.930 . S
H894 C907 0.929 . S
H895 C905 0.929 . S
H896 C900 0.929 . S
H897 C906 0.929 . S
C898 H892 0.930 . S
C898 C899 1.367 . S
C898 C906 1.378 . S
C899 C898 1.367 . S
C899 C907 1.433 . S
C900 H896 0.929 . S
C900 C902 1.378 . S
C900 C904 1.350 . S
C901 C904 1.463 . S
C901 C906 1.350 . S
C901 N909 1.427 . S
C902 H893 0.930 . S
C902 C900 1.378 . S
C902 C903 1.367 . S
C903 C902 1.367 . S
C903 C905 1.433 . S
C904 C900 1.350 . S
C904 C901 1.463 . S
C904 N908 1.427 . S
C905 H895 0.929 . S
C905 C903 1.433 . S
C905 N908 1.384 . S
C906 H897 0.929 . S
C906 C898 1.378 . S
C906 C901 1.350 . S
C907 H894 0.929 . S
C907 C899 1.433 . S
C907 N909 1.384 . S
N908 C904 1.427 . S
N908 C905 1.384 . S
N909 C901 1.427 . S
N909 C907 1.384 . S
H910 C916 0.930 . S
H911 C920 0.930 . S
H912 C925 0.929 . S
H913 C923 0.929 . S
H914 C918 0.929 . S
H915 C924 0.929 . S
C916 H910 0.930 . S
C916 C917 1.367 . S
C916 C924 1.378 . S
C917 C916 1.367 . S
C917 C925 1.433 . S
C918 H914 0.929 . S
C918 C920 1.378 . S
C918 C922 1.350 . S
C919 C922 1.463 1_455 S
C919 C924 1.350 . S
C919 N927 1.427 . S
C920 H911 0.930 . S
C920 C918 1.378 . S
C920 C921 1.367 . S
C921 C920 1.367 . S
C921 C923 1.433 . S
C922 C918 1.350 . S
C922 C919 1.463 1_655 S
C922 N926 1.427 . S
C923 H913 0.929 . S
C923 C921 1.433 . S
C923 N926 1.384 . S
C924 H915 0.929 . S
C924 C916 1.378 . S
C924 C919 1.350 . S
C925 H912 0.929 . S
C925 C917 1.433 . S
C925 N927 1.384 . S
N926 C922 1.427 . S
N926 C923 1.384 . S
N927 C919 1.427 . S
N927 C925 1.384 . S
H928 C934 0.930 . S
H929 C938 0.930 . S
H930 C943 0.929 . S
H931 C941 0.929 . S
H932 C936 0.929 . S
H933 C942 0.929 . S
C934 H928 0.930 . S
C934 C935 1.367 1_556 S
C934 C942 1.378 . S
C935 C934 1.367 1_554 S
C935 C943 1.433 . S
C936 H932 0.929 . S
C936 C938 1.378 . S
C936 C940 1.350 1_554 S
C937 C940 1.463 1_544 S
C937 C942 1.350 1_554 S
C937 N945 1.427 . S
C938 H929 0.930 . S
C938 C936 1.378 . S
C938 C939 1.367 1_554 S
C939 C938 1.367 1_556 S
C939 C941 1.433 . S
C940 C936 1.350 1_556 S
C940 C937 1.463 1_566 S
C940 N944 1.427 . S
C941 H931 0.929 . S
C941 C939 1.433 . S
C941 N944 1.384 . S
C942 H933 0.929 . S
C942 C934 1.378 . S
C942 C937 1.350 1_556 S
C943 H930 0.929 . S
C943 C935 1.433 . S
C943 N945 1.384 . S
N944 C940 1.427 . S
N944 C941 1.384 . S
N945 C937 1.427 . S
N945 C943 1.384 . S
H946 C952 0.930 . S
H947 C956 0.930 . S
H948 C961 0.929 . S
H949 C959 0.929 . S
H950 C954 0.929 . S
H951 C960 0.929 . S
C952 H946 0.930 . S
C952 C953 1.367 . S
C952 C960 1.378 . S
C953 C952 1.367 . S
C953 C961 1.433 . S
C954 H950 0.929 . S
C954 C956 1.378 . S
C954 C958 1.350 . S
C955 C958 1.463 1_565 S
C955 C960 1.350 . S
C955 N963 1.427 . S
C956 H947 0.930 . S
C956 C954 1.378 . S
C956 C957 1.367 . S
C957 C956 1.367 . S
C957 C959 1.433 . S
C958 C954 1.350 . S
C958 C955 1.463 1_545 S
C958 N962 1.427 . S
C959 H949 0.929 . S
C959 C957 1.433 . S
C959 N962 1.384 . S
C960 H951 0.929 . S
C960 C952 1.378 . S
C960 C955 1.350 . S
C961 H948 0.929 . S
C961 C953 1.433 . S
C961 N963 1.384 . S
N962 C958 1.427 . S
N962 C959 1.384 . S
N963 C955 1.427 . S
N963 C961 1.384 . S
H964 C970 0.930 . S
H965 C974 0.930 . S
H966 C979 0.929 . S
H967 C977 0.929 . S
H968 C972 0.929 . S
H969 C978 0.929 . S
C970 H964 0.930 . S
C970 C971 1.367 1_556 S
C970 C978 1.378 . S
C971 C970 1.367 1_554 S
C971 C979 1.433 . S
C972 H968 0.929 . S
C972 C974 1.378 . S
C972 C976 1.350 1_554 S
C973 C976 1.463 1_544 S
C973 C978 1.350 1_554 S
C973 N981 1.427 . S
C974 H965 0.930 . S
C974 C972 1.378 . S
C974 C975 1.367 1_554 S
C975 C974 1.367 1_556 S
C975 C977 1.433 . S
C976 C972 1.350 1_556 S
C976 C973 1.463 1_566 S
C976 N980 1.427 . S
C977 H967 0.929 . S
C977 C975 1.433 . S
C977 N980 1.384 . S
C978 H969 0.929 . S
C978 C970 1.378 . S
C978 C973 1.350 1_556 S
C979 H966 0.929 . S
C979 C971 1.433 . S
C979 N981 1.384 . S
N980 C976 1.427 . S
N980 C977 1.384 . S
N981 C973 1.427 . S
N981 C979 1.384 . S
H982 C988 0.930 . S
H983 C992 0.930 . S
H984 C997 0.929 . S
H985 C995 0.929 . S
H986 C990 0.929 . S
H987 C996 0.929 . S
C988 H982 0.930 . S
C988 C989 1.367 . S
C988 C996 1.378 . S
C989 C988 1.367 . S
C989 C997 1.433 . S
C990 H986 0.929 . S
C990 C992 1.378 . S
C990 C994 1.350 . S
C991 C994 1.463 1_545 S
C991 C996 1.350 . S
C991 N999 1.427 . S
C992 H983 0.930 . S
C992 C990 1.378 . S
C992 C993 1.367 . S
C993 C992 1.367 . S
C993 C995 1.433 . S
C994 C990 1.350 . S
C994 C991 1.463 1_565 S
C994 N998 1.427 . S
C995 H985 0.929 . S
C995 C993 1.433 . S
C995 N998 1.384 . S
C996 H987 0.929 . S
C996 C988 1.378 . S
C996 C991 1.350 . S
C997 H984 0.929 . S
C997 C989 1.433 . S
C997 N999 1.384 . S
N998 C994 1.427 . S
N998 C995 1.384 . S
N999 C991 1.427 . S
N999 C997 1.384 . S
H1000 C1006 0.930 . S
H1001 C1010 0.930 . S
H1002 C1015 0.929 . S
H1003 C1013 0.929 . S
H1004 C1008 0.929 . S
H1005 C1014 0.929 . S
C1006 H1000 0.930 . S
C1006 C1007 1.367 1_556 S
C1006 C1014 1.378 . S
C1007 C1006 1.367 1_554 S
C1007 C1015 1.433 . S
C1008 H1004 0.929 . S
C1008 C1010 1.378 . S
C1008 C1012 1.350 1_554 S
C1009 C1012 1.463 1_554 S
C1009 C1014 1.350 1_554 S
C1009 N1017 1.427 . S
C1010 H1001 0.930 . S
C1010 C1008 1.378 . S
C1010 C1011 1.367 1_554 S
C1011 C1010 1.367 1_556 S
C1011 C1013 1.433 . S
C1012 C1008 1.350 1_556 S
C1012 C1009 1.463 1_556 S
C1012 N1016 1.427 . S
C1013 H1003 0.929 . S
C1013 C1011 1.433 . S
C1013 N1016 1.384 . S
C1014 H1005 0.929 . S
C1014 C1006 1.378 . S
C1014 C1009 1.350 1_556 S
C1015 H1002 0.929 . S
C1015 C1007 1.433 . S
C1015 N1017 1.384 . S
N1016 C1012 1.427 . S
N1016 C1013 1.384 . S
N1017 C1009 1.427 . S
N1017 C1015 1.384 . S
H1018 C1024 0.930 . S
H1019 C1028 0.930 . S
H1020 C1033 0.929 . S
H1021 C1031 0.929 . S
H1022 C1026 0.929 . S
H1023 C1032 0.929 . S
C1024 H1018 0.930 . S
C1024 C1025 1.367 . S
C1024 C1032 1.378 . S
C1025 C1024 1.367 . S
C1025 C1033 1.433 . S
C1026 H1022 0.929 . S
C1026 C1028 1.378 . S
C1026 C1030 1.350 . S
C1027 C1030 1.463 . S
C1027 C1032 1.350 . S
C1027 N1035 1.427 . S
C1028 H1019 0.930 . S
C1028 C1026 1.378 . S
C1028 C1029 1.367 . S
C1029 C1028 1.367 . S
C1029 C1031 1.433 . S
C1030 C1026 1.350 . S
C1030 C1027 1.463 . S
C1030 N1034 1.427 . S
C1031 H1021 0.929 . S
C1031 C1029 1.433 . S
C1031 N1034 1.384 . S
C1032 H1023 0.929 . S
C1032 C1024 1.378 . S
C1032 C1027 1.350 . S
C1033 H1020 0.929 . S
C1033 C1025 1.433 . S
C1033 N1035 1.384 . S
N1034 C1030 1.427 . S
N1034 C1031 1.384 . S
N1035 C1027 1.427 . S
N1035 C1033 1.384 . S
H1036 C1042 0.930 . S
H1037 C1046 0.930 . S
H1038 C1051 0.929 . S
H1039 C1049 0.929 . S
H1040 C1044 0.929 . S
H1041 C1050 0.929 . S
C1042 H1036 0.930 . S
C1042 C1043 1.367 1_554 S
C1042 C1050 1.378 . S
C1043 C1042 1.367 1_556 S
C1043 C1051 1.433 . S
C1044 H1040 0.929 . S
C1044 C1046 1.378 . S
C1044 C1048 1.350 1_556 S
C1045 C1048 1.463 1_556 S
C1045 C1050 1.350 1_556 S
C1045 N1053 1.427 . S
C1046 H1037 0.930 . S
C1046 C1044 1.378 . S
C1046 C1047 1.367 1_556 S
C1047 C1046 1.367 1_554 S
C1047 C1049 1.433 . S
C1048 C1044 1.350 1_554 S
C1048 C1045 1.463 1_554 S
C1048 N1052 1.427 . S
C1049 H1039 0.929 . S
C1049 C1047 1.433 . S
C1049 N1052 1.384 . S
C1050 H1041 0.929 . S
C1050 C1042 1.378 . S
C1050 C1045 1.350 1_554 S
C1051 H1038 0.929 . S
C1051 C1043 1.433 . S
C1051 N1053 1.384 . S
N1052 C1048 1.427 . S
N1052 C1049 1.384 . S
N1053 C1045 1.427 . S
N1053 C1051 1.384 . S
H1054 C1060 0.930 . S
H1055 C1064 0.930 . S
H1056 C1069 0.929 . S
H1057 C1067 0.929 . S
H1058 C1062 0.929 . S
H1059 C1068 0.929 . S
C1060 H1054 0.930 . S
C1060 C1061 1.367 . S
C1060 C1068 1.378 . S
C1061 C1060 1.367 . S
C1061 C1069 1.433 . S
C1062 H1058 0.929 . S
C1062 C1064 1.378 . S
C1062 C1066 1.350 . S
C1063 C1066 1.463 . S
C1063 C1068 1.350 . S
C1063 N1071 1.427 . S
C1064 H1055 0.930 . S
C1064 C1062 1.378 . S
C1064 C1065 1.367 . S
C1065 C1064 1.367 . S
C1065 C1067 1.433 . S
C1066 C1062 1.350 . S
C1066 C1063 1.463 . S
C1066 N1070 1.427 . S
C1067 H1057 0.929 . S
C1067 C1065 1.433 . S
C1067 N1070 1.384 . S
C1068 H1059 0.929 . S
C1068 C1060 1.378 . S
C1068 C1063 1.350 . S
C1069 H1056 0.929 . S
C1069 C1061 1.433 . S
C1069 N1071 1.384 . S
N1070 C1066 1.427 . S
N1070 C1067 1.384 . S
N1071 C1063 1.427 . S
N1071 C1069 1.384 . S
H1072 C1078 0.930 . S
H1073 C1082 0.930 . S
H1074 C1087 0.924 1_556 S
H1075 C1085 0.919 1_554 S
H1076 C1080 0.929 . S
H1077 C1086 0.929 . S
C1078 H1072 0.930 . S
C1078 C1079 1.367 . S
C1078 C1086 1.378 . S
C1079 C1078 1.367 . S
C1079 C1087 1.442 . S
C1080 H1076 0.929 . S
C1080 C1082 1.378 . S
C1080 C1084 1.350 . S
C1081 C1084 1.463 1_554 S
C1081 C1086 1.350 . S
C1081 N1089 1.427 1_554 S
C1082 H1073 0.930 . S
C1082 C1080 1.378 . S
C1082 C1083 1.367 . S
C1083 C1082 1.367 . S
C1083 C1085 1.452 . S
C1084 C1080 1.350 . S
C1084 C1081 1.463 1_556 S
C1084 N1088 1.427 1_556 S
C1085 H1075 0.919 1_556 S
C1085 C1083 1.452 . S
C1085 N1088 1.376 1_556 S
C1086 H1077 0.929 . S
C1086 C1078 1.378 . S
C1086 C1081 1.350 . S
C1087 H1074 0.924 1_554 S
C1087 C1079 1.442 . S
C1087 N1089 1.380 1_554 S
N1088 C1084 1.427 1_554 S
N1088 C1085 1.376 1_554 S
N1089 C1081 1.427 1_556 S
N1089 C1087 1.380 1_556 S
H1090 C1096 0.930 . S
H1091 C1100 0.930 . S
H1092 C1105 0.929 . S
H1093 C1103 0.929 . S
H1094 C1098 0.929 . S
H1095 C1104 0.929 . S
C1096 H1090 0.930 . S
C1096 C1097 1.367 . S
C1096 C1104 1.378 . S
C1097 C1096 1.367 . S
C1097 C1105 1.433 . S
C1098 H1094 0.929 . S
C1098 C1100 1.378 . S
C1098 C1102 1.350 . S
C1099 C1102 1.463 . S
C1099 C1104 1.350 . S
C1099 N1107 1.427 . S
C1100 H1091 0.930 . S
C1100 C1098 1.378 . S
C1100 C1101 1.367 . S
C1101 C1100 1.367 . S
C1101 C1103 1.433 . S
C1102 C1098 1.350 . S
C1102 C1099 1.463 . S
C1102 N1106 1.427 . S
C1103 H1093 0.929 . S
C1103 C1101 1.433 . S
C1103 N1106 1.384 . S
C1104 H1095 0.929 . S
C1104 C1096 1.378 . S
C1104 C1099 1.350 . S
C1105 H1092 0.929 . S
C1105 C1097 1.433 . S
C1105 N1107 1.384 . S
N1106 C1102 1.427 . S
N1106 C1103 1.384 . S
N1107 C1099 1.427 . S
N1107 C1105 1.384 . S
H1108 C1114 0.930 . S
H1109 C1118 0.933 . S
H1110 C1123 0.929 . S
H1111 C1121 0.929 . S
H1112 C1116 0.929 . S
H1113 C1122 0.929 . S
C1114 H1108 0.930 . S
C1114 C1115 1.367 . S
C1114 C1122 1.378 1_556 S
C1115 C1114 1.367 . S
C1115 C1123 1.433 . S
C1116 H1112 0.929 . S
C1116 C1118 1.378 1_556 S
C1116 C1120 1.350 1_556 S
C1117 C1120 1.463 1_556 S
C1117 C1122 1.350 1_556 S
C1117 N1125 1.427 . S
C1118 H1109 0.933 . S
C1118 C1116 1.378 1_554 S
C1118 C1119 1.367 . S
C1119 C1118 1.367 . S
C1119 C1121 1.433 . S
C1120 C1116 1.350 1_554 S
C1120 C1117 1.463 1_554 S
C1120 N1124 1.427 . S
C1121 H1111 0.929 . S
C1121 C1119 1.433 . S
C1121 N1124 1.384 . S
C1122 H1113 0.929 . S
C1122 C1114 1.378 1_554 S
C1122 C1117 1.350 1_554 S
C1123 H1110 0.929 . S
C1123 C1115 1.433 . S
C1123 N1125 1.384 . S
N1124 C1120 1.427 . S
N1124 C1121 1.384 . S
N1125 C1117 1.427 . S
N1125 C1123 1.384 . S
H1126 C1132 0.930 . S
H1127 C1136 0.930 . S
H1128 C1141 0.929 . S
H1129 C1139 0.929 . S
H1130 C1134 0.929 . S
H1131 C1140 0.929 . S
C1132 H1126 0.930 . S
C1132 C1133 1.367 . S
C1132 C1140 1.378 . S
C1133 C1132 1.367 . S
C1133 C1141 1.433 . S
C1134 H1130 0.929 . S
C1134 C1136 1.378 . S
C1134 C1138 1.350 . S
C1135 C1138 1.463 . S
C1135 C1140 1.350 . S
C1135 N1143 1.427 . S
C1136 H1127 0.930 . S
C1136 C1134 1.378 . S
C1136 C1137 1.367 . S
C1137 C1136 1.367 . S
C1137 C1139 1.433 . S
C1138 C1134 1.350 . S
C1138 C1135 1.463 . S
C1138 N1142 1.427 . S
C1139 H1129 0.929 . S
C1139 C1137 1.433 . S
C1139 N1142 1.384 . S
C1140 H1131 0.929 . S
C1140 C1132 1.378 . S
C1140 C1135 1.350 . S
C1141 H1128 0.929 . S
C1141 C1133 1.433 . S
C1141 N1143 1.384 . S
N1142 C1138 1.427 . S
N1142 C1139 1.384 . S
N1143 C1135 1.427 . S
N1143 C1141 1.384 . S
H1144 C1150 0.930 . S
H1145 C1154 0.930 . S
H1146 C1159 0.929 . S
H1147 C1157 0.929 . S
H1148 C1152 0.929 1_556 S
H1149 C1158 0.929 1_554 S
C1150 H1144 0.930 . S
C1150 C1151 1.367 . S
C1150 C1158 1.378 . S
C1151 C1150 1.367 . S
C1151 C1159 1.433 . S
C1152 H1148 0.929 1_554 S
C1152 C1154 1.378 . S
C1152 C1156 1.350 . S
C1153 C1156 1.463 1_556 S
C1153 C1158 1.350 . S
C1153 N1161 1.427 . S
C1154 H1145 0.930 . S
C1154 C1152 1.378 . S
C1154 C1155 1.367 . S
C1155 C1154 1.367 . S
C1155 C1157 1.433 . S
C1156 C1152 1.350 . S
C1156 C1153 1.463 1_554 S
C1156 N1160 1.427 . S
C1157 H1147 0.929 . S
C1157 C1155 1.433 . S
C1157 N1160 1.384 . S
C1158 H1149 0.929 1_556 S
C1158 C1150 1.378 . S
C1158 C1153 1.350 . S
C1159 H1146 0.929 . S
C1159 C1151 1.433 . S
C1159 N1161 1.384 . S
N1160 C1156 1.427 . S
N1160 C1157 1.384 . S
N1161 C1153 1.427 . S
N1161 C1159 1.384 . S
H1162 C1168 0.930 . S
H1163 C1172 0.930 . S
H1164 C1177 0.929 . S
H1165 C1175 0.929 . S
H1166 C1170 0.929 . S
H1167 C1176 0.929 . S
C1168 H1162 0.930 . S
C1168 C1169 1.367 . S
C1168 C1176 1.378 . S
C1169 C1168 1.367 . S
C1169 C1177 1.433 . S
C1170 H1166 0.929 . S
C1170 C1172 1.378 . S
C1170 C1174 1.350 . S
C1171 C1174 1.463 . S
C1171 C1176 1.350 . S
C1171 N1179 1.427 . S
C1172 H1163 0.930 . S
C1172 C1170 1.378 . S
C1172 C1173 1.367 . S
C1173 C1172 1.367 . S
C1173 C1175 1.433 . S
C1174 C1170 1.350 . S
C1174 C1171 1.463 . S
C1174 N1178 1.427 . S
C1175 H1165 0.929 . S
C1175 C1173 1.433 . S
C1175 N1178 1.384 . S
C1176 H1167 0.929 . S
C1176 C1168 1.378 . S
C1176 C1171 1.350 . S
C1177 H1164 0.929 . S
C1177 C1169 1.433 . S
C1177 N1179 1.384 . S
N1178 C1174 1.427 . S
N1178 C1175 1.384 . S
N1179 C1171 1.427 . S
N1179 C1177 1.384 . S
H1180 C1186 0.930 . S
H1181 C1190 0.943 . S
H1182 C1195 0.929 . S
H1183 C1193 0.929 . S
H1184 C1188 0.929 . S
H1185 C1194 0.929 . S
C1186 H1180 0.930 . S
C1186 C1187 1.367 1_554 S
C1186 C1194 1.378 . S
C1187 C1186 1.367 1_556 S
C1187 C1195 1.433 . S
C1188 H1184 0.929 . S
C1188 C1190 1.386 . S
C1188 C1192 1.350 1_556 S
C1189 C1192 1.463 1_556 S
C1189 C1194 1.350 1_556 S
C1189 N1197 1.427 . S
C1190 H1181 0.943 . S
C1190 C1188 1.386 . S
C1190 C1191 1.345 1_556 S
C1191 C1190 1.345 1_554 S
C1191 C1193 1.433 . S
C1192 C1188 1.350 1_554 S
C1192 C1189 1.463 1_554 S
C1192 N1196 1.427 . S
C1193 H1183 0.929 . S
C1193 C1191 1.433 . S
C1193 N1196 1.384 . S
C1194 H1185 0.929 . S
C1194 C1186 1.378 . S
C1194 C1189 1.350 1_554 S
C1195 H1182 0.929 . S
C1195 C1187 1.433 . S
C1195 N1197 1.384 . S
N1196 C1192 1.427 . S
N1196 C1193 1.384 . S
N1197 C1189 1.427 . S
N1197 C1195 1.384 . S
H1198 C1204 0.930 . S
H1199 C1208 0.930 . S
H1200 C1213 0.929 . S
H1201 C1211 0.929 . S
H1202 C1206 0.929 . S
H1203 C1212 0.929 . S
C1204 H1198 0.930 . S
C1204 C1205 1.367 . S
C1204 C1212 1.378 . S
C1205 C1204 1.367 . S
C1205 C1213 1.433 . S
C1206 H1202 0.929 . S
C1206 C1208 1.378 . S
C1206 C1210 1.350 . S
C1207 C1210 1.463 . S
C1207 C1212 1.350 . S
C1207 N1215 1.427 . S
C1208 H1199 0.930 . S
C1208 C1206 1.378 . S
C1208 C1209 1.367 . S
C1209 C1208 1.367 . S
C1209 C1211 1.433 . S
C1210 C1206 1.350 . S
C1210 C1207 1.463 . S
C1210 N1214 1.427 . S
C1211 H1201 0.929 . S
C1211 C1209 1.433 . S
C1211 N1214 1.384 . S
C1212 H1203 0.929 . S
C1212 C1204 1.378 . S
C1212 C1207 1.350 . S
C1213 H1200 0.929 . S
C1213 C1205 1.433 . S
C1213 N1215 1.384 . S
N1214 C1210 1.427 . S
N1214 C1211 1.384 . S
N1215 C1207 1.427 . S
N1215 C1213 1.384 . S
C359 C15 1.388 . S
C363 C73 1.390 . S
C377 C59 1.391 . S
C381 C29 1.394 . S
C395 C169 1.405 . S
C399 C109 1.399 . S
C413 C117 1.403 . S
C417 C153 1.403 . S
C431 C257 1.394 . S
C435 C191 1.388 . S
C449 C235 1.387 . S
C453 C205 1.393 . S
C467 C285 1.405 . S
C471 C345 1.399 . S
C485 C323 1.400 . S
C489 C293 1.405 . S
C503 C8 1.523 . S
C507 C351 1.583 . S
C521 C32 1.536 . S
C525 C329 1.583 . S
C539 C301 1.583 . S
C543 C52 1.535 . S
C557 C271 1.583 . S
C561 C76 1.523 . S
C575 C98 1.539 . S
C579 C249 1.587 . S
C593 C118 1.543 . S
C597 C227 1.588 . S
C611 C219 1.587 . S
C615 C142 1.535 . S
C629 C183 1.588 . S
C633 C172 1.542 . S
C647 C184 1.523 . S
C651 C175 1.583 . S
C665 C208 1.530 . S
C669 C139 1.583 . S
C683 C228 1.536 . S
C687 C125 1.583 . S
C701 C250 1.535 . S
C705 C95 1.583 . S
C719 C87 1.587 . S
C723 C274 1.536 . S
C737 C51 1.589 . S
C741 C294 1.548 . S
C755 C326 1.535 . S
C759 C43 1.587 . S
C773 C348 1.543 . S
C777 C7 1.588 . S
C791 C18 1.439 . S
C795 C150 1.439 . S
C809 C30 1.439 . S
C813 C162 1.439 . S
C827 C106 1.439 . S
C831 C62 1.439 . S
C845 C74 1.440 . S
C849 C120 1.437 . S
C863 C194 1.438 . S
C867 C316 1.439 . S
C881 C206 1.438 . S
C885 C338 1.438 . S
C899 C238 1.438 . S
C903 C282 1.439 . S
C917 C296 1.438 . S
C921 C260 1.439 . S
C935 C10 1.538 . S
C939 C54 1.537 . S
C953 C40 1.539 . S
C957 C84 1.538 . S
C971 C140 1.534 . S
C975 C96 1.536 . S
C989 C128 1.536 . S
C993 C164 1.534 . S
C1007 C186 1.537 . S
C1011 C230 1.538 . S
C1025 C252 1.536 . S
C1029 C216 1.539 . S
C1043 C272 1.536 . S
C1047 C318 1.534 . S
C1061 C304 1.534 . S
C1065 C340 1.535 . S
C1079 C21 0.899 . S
C1083 C279 0.904 . S
C1097 C37 0.905 . S
C1101 C307 0.909 . S
C1115 C65 0.881 . S
C1119 C315 0.886 . S
C1133 C81 0.909 . S
C1137 C337 0.912 . S
C1151 C103 0.887 . S
C1155 C197 0.882 . S
C1169 C213 0.890 . S
C1173 C131 0.895 . S
C1187 C241 0.884 . S
C1191 C147 0.888 . S
C1205 C263 0.906 . S
C1209 C161 0.909 . S
