# Generated by pormake.
# Topology reo, (8)-cn, num edge types: 1
# Building blocks:
#     Node 0, Type 0, BuildingBlock: TAGTUT_clean_sbu_1, # of connection points: 8
#     Node 1, Type 0, BuildingBlock: TAGTUT_clean_sbu_1, # of connection points: 8
#     Node 2, Type 0, BuildingBlock: TAGTUT_clean_sbu_1, # of connection points: 8
#     Edge 3, Type (0, 0), BuildingBlock: UVAHIK_clean_linker_0, # of connection points: 2
#     Edge 4, Type (0, 0), BuildingBlock: UVAHIK_clean_linker_0, # of connection points: 2
#     Edge 5, Type (0, 0), BuildingBlock: UVAHIK_clean_linker_0, # of connection points: 2
#     Edge 6, Type (0, 0), BuildingBlock: UVAHIK_clean_linker_0, # of connection points: 2
#     Edge 7, Type (0, 0), BuildingBlock: UVAHIK_clean_linker_0, # of connection points: 2
#     Edge 8, Type (0, 0), BuildingBlock: UVAHIK_clean_linker_0, # of connection points: 2
#     Edge 9, Type (0, 0), BuildingBlock: UVAHIK_clean_linker_0, # of connection points: 2
#     Edge 10, Type (0, 0), BuildingBlock: UVAHIK_clean_linker_0, # of connection points: 2
#     Edge 11, Type (0, 0), BuildingBlock: UVAHIK_clean_linker_0, # of connection points: 2
#     Edge 12, Type (0, 0), BuildingBlock: UVAHIK_clean_linker_0, # of connection points: 2
#     Edge 13, Type (0, 0), BuildingBlock: UVAHIK_clean_linker_0, # of connection points: 2
#     Edge 14, Type (0, 0), BuildingBlock: UVAHIK_clean_linker_0, # of connection points: 2
# Relax obj value: 0.185
# Max RMSD: 0.227
# Mean RMSD: 0.181
data_MOF--net-reo--node1-TAGTUT_clean_sbu_1--edge1-UVAHIK_clean_linker_0
_symmetry_space_group_name_H-M    P1
_symmetry_Int_Tables_number       1
_symmetry_cell_setting            triclinic
loop_
_symmetry_equiv_pos_as_xyz
'x, y, z'
_cell_length_a     26.655918
_cell_length_b     29.362494
_cell_length_c     32.524912
_cell_angle_alpha  90.584138
_cell_angle_beta   89.056657
_cell_angle_gamma 93.155777
loop_
_atom_site_label
_atom_site_type_symbol
_atom_site_fract_x
_atom_site_fract_y
_atom_site_fract_z
_atom_type_partial_charge
C0 C 0.05037 0.83443 0.53876 0.0
C1 C 0.95578 0.86302 0.43501 0.0
C2 C 0.07947 0.00779 0.41045 0.0
Mg3 Mg 0.96183 0.89617 0.52358 0.0
O4 O 0.01658 0.93623 0.51066 0.0
Mg5 Mg 0.065 0.91655 0.46702 0.0
Mg6 Mg 1.00181 0.99666 0.48871 0.0
O7 O 0.98744 0.05728 0.46691 0.0
Mg8 Mg 0.04315 0.09727 0.45582 0.0
Mg9 Mg 0.93849 0.0767 0.51024 0.0
C10 C 0.92502 0.98582 0.56789 0.0
C11 C 0.88625 0.99307 0.45728 0.0
O12 O 0.07708 0.85506 0.51055 0.0
O13 O 0.00551 0.84472 0.54812 0.0
O14 O 0.00265 0.87478 0.4315 0.0
O15 O 0.93049 0.87144 0.46751 0.0
O16 O 0.92173 0.94219 0.56351 0.0
O17 O 0.95515 0.01125 0.54575 0.0
C18 C 0.11741 0.00034 0.51999 0.0
O19 O 0.07611 0.02081 0.5189 0.0
O20 O 0.12213 0.96138 0.50262 0.0
O21 O 0.92729 0.13834 0.46667 0.0
O22 O 1.00016 0.149 0.43083 0.0
O23 O 0.99966 0.11812 0.54619 0.0
C24 C 0.95498 0.15921 0.43919 0.0
O25 O 0.07341 0.12229 0.51263 0.0
O26 O 0.08356 0.05129 0.41587 0.0
C27 C 0.04646 0.13026 0.54434 0.0
O28 O 0.04844 0.9822 0.43167 0.0
O29 O 0.92741 0.97239 0.45844 0.0
O30 O 0.88178 0.03212 0.47449 0.0
C31 C 0.53662 0.96356 0.14574 0.0
C32 C 0.39391 0.98501 0.08822 0.0
C33 C 0.45995 0.89832 0.96008 0.0
Mg34 Mg 0.49777 0.03543 0.086 0.0
O35 O 0.52034 0.99258 0.04751 0.0
Mg36 Mg 0.4926 0.92797 0.05348 0.0
Mg37 Mg 0.50217 0.0009 0.9889 0.0
O38 O 0.48361 0.00956 0.93051 0.0
Mg39 Mg 0.50514 0.96662 0.8917 0.0
Mg40 Mg 0.51166 0.07424 0.92453 0.0
C41 C 0.54436 0.10341 0.01765 0.0
C42 C 0.41456 0.07583 0.98571 0.0
O43 O 0.5249 0.93204 0.11933 0.0
O44 O 0.53009 0.00585 0.13922 0.0
O45 O 0.41628 0.94918 0.07793 0.0
O46 O 0.41741 0.02399 0.09063 0.0
O47 O 0.5301 0.09694 0.05527 0.0
O48 O 0.54132 0.07118 -0.00941 0.0
C49 C 0.59183 0.92818 -0.00551 0.0
O50 O 0.57537 0.96171 0.97428 0.0
O51 O 0.56772 0.91092 0.02553 0.0
O52 O 0.47757 0.07052 0.85899 0.0
O53 O 0.47224 0.99663 0.83916 0.0
O54 O 0.587 0.0525 0.89861 0.0
C55 C 0.46558 0.03889 0.8327 0.0
O56 O 0.58527 0.97777 0.88567 0.0
O57 O 0.47326 0.90486 0.92226 0.0
C58 C 0.60896 0.01667 0.88776 0.0
O59 O 0.46383 0.93053 0.98708 0.0
O60 O 0.42918 0.04019 0.00391 0.0
O61 O 0.43873 0.09338 0.95483 0.0
C62 C 0.08341 0.46757 0.84357 0.0
C63 C 0.04637 0.59734 0.89124 0.0
C64 C 0.1066 0.54119 0.0354 0.0
Mg65 Mg 0.99044 0.50406 0.89045 0.0
O66 O 0.02795 0.48452 0.93449 0.0
Mg67 Mg 0.09925 0.51013 0.93898 0.0
Mg68 Mg 0.00368 0.50059 -0.00942 0.0
O69 O 0.97965 0.5166 0.04679 0.0
Mg70 Mg 0.01676 0.49894 0.09175 0.0
Mg71 Mg 0.9083 0.49176 0.04245 0.0
C72 C 0.90055 0.46084 0.94583 0.0
C73 C 0.92412 0.58204 0.98574 0.0
O74 O 0.11171 0.47782 0.87432 0.0
O75 O 0.03628 0.47438 0.84352 0.0
O76 O 0.08247 0.57766 0.90779 0.0
O77 O 0.00368 0.57652 0.88574 0.0
O78 O 0.91669 0.47386 0.91007 0.0
O79 O 0.92851 0.46439 0.97763 0.0
C80 C 0.08543 0.42111 -0.00226 0.0
O81 O 0.04219 0.43393 0.01011 0.0
O82 O 0.11236 0.44411 0.97144 0.0
O83 O 0.89604 0.524 0.10678 0.0
O84 O 0.97113 0.53086 0.13781 0.0
O85 O 0.92474 0.42385 0.07301 0.0
C86 C 0.92376 0.53657 0.13725 0.0
O87 O 0.00277 0.4265 0.09717 0.0
O88 O 0.09052 0.52862 0.07131 0.0
C89 C 0.96077 0.40488 0.09041 0.0
O90 O 0.07858 0.53724 0.00365 0.0
O91 O 0.96567 0.56749 0.97135 0.0
O92 O 0.89705 0.55934 0.01209 0.0
C93 C 0.8998 0.34411 0.117 0.0
C94 C 0.94994 0.36061 0.11088 0.0
C95 C 0.88772 0.31153 0.14707 0.0
C96 C 0.87682 0.28706 0.23738 0.0
H97 H 0.9626 0.19304 0.27271 0.0
C98 C 0.96369 0.22559 0.39311 0.0
C99 C 0.93272 0.19042 0.41048 0.0
C100 C 0.95171 0.24405 0.35551 0.0
C101 C 0.93784 0.21875 0.26286 0.0
H102 H 0.02722 0.35104 0.1271 0.0
H103 H 0.00627 0.29429 0.17929 0.0
H104 H 0.96962 0.22046 0.20202 0.0
H105 H 0.86244 0.15027 0.40462 0.0
H106 H 0.84126 0.18326 0.3384 0.0
H107 H 0.84699 0.28657 0.29921 0.0
C108 C 0.97612 0.30683 0.16139 0.0
C109 C 0.94193 0.23449 0.22259 0.0
C110 C 0.98819 0.33959 0.13153 0.0
C111 C 0.88659 0.17778 0.39207 0.0
C112 C 0.87467 0.19624 0.35412 0.0
C113 C 0.87268 0.27115 0.27775 0.0
C114 C 0.92559 0.29447 0.17108 0.0
C115 C 0.91291 0.27009 0.20989 0.0
C116 C 0.90858 0.22771 0.33484 0.0
C117 C 0.90447 0.23809 0.29097 0.0
H118 H 0.86937 0.35912 0.1012 0.0
H119 H 0.84855 0.30188 0.15332 0.0
H120 H 0.85433 0.31492 0.22869 0.0
H121 H 0.99946 0.23581 0.40671 0.0
H122 H 0.97815 0.26851 0.34101 0.0
C123 C 0.79668 0.99296 0.43575 0.0
C124 C 0.84342 0.97309 0.43352 0.0
C125 C 0.7578 0.97789 0.40998 0.0
C126 C 0.67416 0.93483 0.35959 0.0
H127 H 0.71683 0.91476 0.24663 0.0
C128 C 0.58701 0.91055 0.18597 0.0
C129 C 0.56141 0.95108 0.184 0.0
C130 C 0.61551 0.90146 0.22032 0.0
C131 C 0.70424 0.91937 0.27817 0.0
H132 H 0.88525 0.9209 0.4033 0.0
H133 H 0.81665 0.89278 0.35974 0.0
H134 H 0.77903 0.91954 0.30048 0.0
H135 H 0.54302 0.0124 0.21745 0.0
H136 H 0.59223 0.99615 0.27761 0.0
H137 H 0.59965 0.93794 0.33628 0.0
C138 C 0.81035 0.92075 0.38083 0.0
C139 C 0.73988 0.92196 0.30917 0.0
C140 C 0.84954 0.93634 0.40628 0.0
C141 C 0.56261 0.98105 0.21796 0.0
C142 C 0.59042 0.97158 0.25253 0.0
C143 C 0.63863 0.93292 0.32844 0.0
C144 C 0.76441 0.94221 0.38155 0.0
C145 C 0.72553 0.93118 0.35012 0.0
C146 C 0.61813 0.93231 0.25357 0.0
C147 C 0.65362 0.92645 0.28733 0.0
H148 H 0.79056 0.02135 0.45642 0.0
H149 H 0.72343 0.9959 0.41106 0.0
H150 H 0.66155 0.94082 0.3909 0.0
H151 H 0.58685 0.8868 0.16026 0.0
H152 H 0.63651 0.87091 0.2205 0.0
C153 C 0.88393 0.8133 0.40865 0.0
C154 C 0.9308 0.83656 0.40155 0.0
C155 C 0.86327 0.78352 0.37897 0.0
C156 C 0.87242 0.74648 0.27062 0.0
H157 H 0.85585 0.62387 0.31409 0.0
C158 C 0.92445 0.56514 0.20964 0.0
C159 C 0.90156 0.56288 0.17108 0.0
C160 C 0.90907 0.59606 0.23945 0.0
C161 C 0.85934 0.658 0.30162 0.0
H162 H 0.99065 0.84982 0.35652 0.0
H163 H 0.95445 0.79786 0.30469 0.0
H164 H 0.86377 0.68898 0.36132 0.0
H165 H 0.84269 0.58914 0.13419 0.0
H166 H 0.81668 0.64421 0.18622 0.0
H167 H 0.87095 0.71525 0.2109 0.0
C168 C 0.93384 0.80256 0.33327 0.0
C169 C 0.86361 0.69524 0.32856 0.0
C170 C 0.95482 0.83194 0.3631 0.0
C171 C 0.86092 0.59011 0.16374 0.0
C172 C 0.84612 0.62168 0.19335 0.0
C173 C 0.86752 0.70927 0.24367 0.0
C174 C 0.88873 0.77701 0.34148 0.0
C175 C 0.87237 0.73959 0.31325 0.0
C176 C 0.87105 0.62574 0.23098 0.0
C177 C 0.86314 0.66464 0.259 0.0
H178 H 0.86419 0.81647 0.43782 0.0
H179 H 0.82829 0.76437 0.38585 0.0
H180 H 0.87887 0.78042 0.25816 0.0
H181 H 0.95565 0.54435 0.21616 0.0
H182 H 0.92924 0.59883 0.26809 0.0
C183 C 0.31681 0.01697 0.11927 0.0
C184 C 0.3409 0.97978 0.10213 0.0
C185 C 0.27164 0.00992 0.1411 0.0
C186 C 0.21633 0.92166 0.20695 0.0
H187 H 0.12259 0.01518 0.23026 0.0
C188 C 0.14407 0.01587 0.35491 0.0
C189 C 0.10618 0.98872 0.37474 0.0
C190 C 0.16145 0.00396 0.316 0.0
C191 C 0.14772 0.9882 0.22354 0.0
H192 H 0.33312 0.9069 0.08949 0.0
H193 H 0.25423 0.89481 0.12757 0.0
H194 H 0.16832 0.01551 0.16456 0.0
H195 H 0.05977 0.92571 0.37076 0.0
H196 H 0.09192 0.90415 0.30239 0.0
H197 H 0.19765 0.89622 0.26722 0.0
C198 C 0.27089 0.92918 0.12502 0.0
C199 C 0.17403 0.98851 0.18615 0.0
C200 C 0.3161 0.93621 0.1032 0.0
C201 C 0.08905 0.94727 0.35624 0.0
C202 C 0.10696 0.9351 0.31713 0.0
C203 C 0.18964 0.92118 0.24426 0.0
C204 C 0.24963 0.96557 0.14601 0.0
C205 C 0.2108 0.95689 0.17853 0.0
C206 C 0.14178 0.96444 0.29631 0.0
C207 C 0.15731 0.95592 0.25353 0.0
H208 H 0.33449 0.05107 0.1184 0.0
H209 H 0.25637 0.03879 0.15697 0.0
H210 H 0.24461 0.89694 0.2022 0.0
H211 H 0.15853 0.04768 0.3685 0.0
H212 H 0.18921 0.02646 0.30062 0.0
C213 C 0.04378 0.7681 0.58499 0.0
C214 C 0.07375 0.80371 0.56725 0.0
C215 C 0.05658 0.75022 0.62263 0.0
C216 C 0.07164 0.77917 0.71502 0.0
H217 H 0.15213 0.68131 0.75033 0.0
C218 C 0.10806 0.65669 0.86322 0.0
C219 C 0.05773 0.64104 0.86991 0.0
C220 C 0.12046 0.68826 0.83236 0.0
C221 C 0.13051 0.70962 0.74127 0.0
H222 H 0.14308 0.84537 0.57253 0.0
H223 H 0.16557 0.81359 0.6389 0.0
H224 H 0.15934 0.70777 0.67917 0.0
H225 H 0.98056 0.65123 0.8537 0.0
H226 H 1.00209 0.70637 0.80025 0.0
H227 H 0.04062 0.77963 0.77613 0.0
C228 C 0.13242 0.79969 0.62337 0.0
C229 C 0.13458 0.72446 0.70057 0.0
C230 C 0.11976 0.81746 0.58535 0.0
C231 C 0.01971 0.66205 0.84894 0.0
C232 C 0.03211 0.69386 0.81832 0.0
C233 C 0.06753 0.7644 0.7556 0.0
C234 C 0.09947 0.76768 0.643 0.0
C235 C 0.1039 0.75823 0.68701 0.0
C236 C 0.08272 0.70521 0.80815 0.0
C237 C 0.09551 0.72829 0.76874 0.0
H238 H 0.00807 0.75712 0.57167 0.0
H239 H 0.03082 0.72543 0.63746 0.0
H240 H 0.04766 0.80535 0.70488 0.0
H241 H 0.13833 0.6417 0.87922 0.0
H242 H 0.15971 0.69714 0.82569 0.0
C243 C 0.41401 0.0908 0.79217 0.0
C244 C 0.44084 0.05101 0.79432 0.0
C245 C 0.38549 0.09909 0.75759 0.0
C246 C 0.29772 0.07897 0.69926 0.0
H247 H 0.34117 0.05556 0.58703 0.0
C248 C 0.20679 0.00086 0.54243 0.0
C249 C 0.15995 0.02059 0.54396 0.0
C250 C 0.24537 0.01661 0.56828 0.0
C251 C 0.32837 0.0621 0.61819 0.0
H252 H 0.46159 0.99034 0.76096 0.0
H253 H 0.4124 0.00512 0.70055 0.0
H254 H 0.40298 0.06124 0.6417 0.0
H255 H 0.11759 0.07308 0.57323 0.0
H256 H 0.18552 0.10227 0.6168 0.0
H257 H 0.22292 0.07671 0.67675 0.0
C258 C 0.41318 0.02976 0.72559 0.0
C259 C 0.36383 0.06562 0.64938 0.0
C260 C 0.44098 0.02111 0.76033 0.0
C261 C 0.15337 0.05772 0.57069 0.0
C262 C 0.1922 0.07396 0.59619 0.0
C263 C 0.26218 0.07487 0.66821 0.0
C264 C 0.38414 0.06817 0.72432 0.0
C265 C 0.3486 0.0728 0.69035 0.0
C266 C 0.23828 0.0528 0.59609 0.0
C267 C 0.27687 0.06495 0.62747 0.0
H268 H 0.41319 0.11446 0.81791 0.0
H269 H 0.36347 0.12901 0.75725 0.0
H270 H 0.28489 0.08403 0.73067 0.0
H271 H 0.21325 0.97215 0.52221 0.0
H272 H 0.27992 0.99886 0.56772 0.0
C273 C 0.084 0.44906 0.76906 0.0
C274 C 0.10405 0.44304 0.80808 0.0
C275 C 0.09326 0.41829 0.73738 0.0
C276 C 0.16015 0.31602 0.70511 0.0
H277 H 0.02799 0.27752 0.66525 0.0
C278 C 0.0422 0.15932 0.61642 0.0
C279 C 0.0685 0.15718 0.57877 0.0
C280 C 0.05741 0.19114 0.64632 0.0
C281 C 0.06513 0.28759 0.67632 0.0
H282 H 0.15351 0.40327 0.84375 0.0
H283 H 0.16842 0.34822 0.78848 0.0
H284 H 0.03755 0.34417 0.70927 0.0
H285 H 0.13445 0.18319 0.54463 0.0
H286 H 0.16042 0.23977 0.5969 0.0
H287 H 0.18711 0.2582 0.672 0.0
C288 C 0.14622 0.3771 0.7822 0.0
C289 C 0.07079 0.3263 0.70097 0.0
C290 C 0.13759 0.40849 0.81384 0.0
C291 C 0.11307 0.1845 0.57318 0.0
C292 C 0.12815 0.21669 0.60314 0.0
C293 C 0.15448 0.27709 0.67992 0.0
C294 C 0.1218 0.38038 0.74446 0.0
C295 C 0.11823 0.34099 0.71574 0.0
C296 C 0.09895 0.22167 0.63905 0.0
C297 C 0.10668 0.26231 0.66582 0.0
H298 H 0.0587 0.47597 0.76375 0.0
H299 H 0.07501 0.42225 0.7082 0.0
H300 H 0.1971 0.32658 0.71625 0.0
H301 H 0.0084 0.13795 0.62206 0.0
H302 H 0.03494 0.19364 0.67424 0.0
C303 C 0.68542 0.98442 0.85591 0.0
C304 C 0.66174 0.02173 0.87327 0.0
C305 C 0.73086 0.99115 0.83445 0.0
C306 C 0.78793 0.07797 0.76879 0.0
H307 H 0.88211 0.98397 0.7488 0.0
C308 C 0.91448 0.04809 0.62027 0.0
C309 C 0.8984 0.00552 0.60334 0.0
C310 C 0.8967 0.06147 0.65907 0.0
C311 C 0.85688 0.01112 0.75459 0.0
H312 H 0.67006 0.09458 0.88598 0.0
H313 H 0.74926 0.10616 0.84813 0.0
H314 H 0.83536 0.98546 0.81397 0.0
H315 H 0.848 0.94559 0.61203 0.0
H316 H 0.8175 0.96891 0.67935 0.0
H317 H 0.80729 0.10153 0.70803 0.0
C318 C 0.73225 0.07191 0.85063 0.0
C319 C 0.83005 0.01187 0.79168 0.0
C320 C 0.68686 0.06517 0.87225 0.0
C321 C 0.86167 0.97827 0.62441 0.0
C322 C 0.84442 0.99139 0.66302 0.0
C323 C 0.81509 0.07735 0.73172 0.0
C324 C 0.75346 0.03531 0.82993 0.0
C325 C 0.79306 0.04354 0.79804 0.0
C326 C 0.86308 0.0322 0.68117 0.0
C327 C 0.84749 0.04232 0.72363 0.0
H328 H 0.66736 0.95048 0.85644 0.0
H329 H 0.74602 0.9622 0.81861 0.0
H330 H 0.75951 0.10271 0.77267 0.0
H331 H 0.94283 0.06974 0.60475 0.0
H332 H 0.91091 0.0934 0.67257 0.0
C333 C 0.07851 0.33889 0.02136 0.0
C334 C 0.10726 0.37977 0.01432 0.0
C335 C 0.10232 0.29864 0.03077 0.0
C336 C 0.22417 0.25726 0.06605 0.0
H337 H 0.19902 0.15432 -0.0078 0.0
C338 C 0.3782 0.14948 0.00326 0.0
C339 C 0.37249 0.10163 0.00265 0.0
C340 C 0.33876 0.17587 0.01572 0.0
C341 C 0.2057 0.18223 0.01381 0.0
H342 H 0.18275 0.41119 0.01416 0.0
H343 H 0.22359 0.34231 0.03111 0.0
H344 H 0.14053 0.21607 -0.00513 0.0
H345 H 0.32106 0.04372 0.01567 0.0
H346 H 0.25034 0.09062 0.0364 0.0
H347 H 0.29111 0.22525 0.08277 0.0
C348 C 0.18299 0.34064 0.02922 0.0
C349 C 0.17221 0.21762 0.01536 0.0
C350 C 0.15954 0.38021 0.01919 0.0
C351 C 0.32641 0.08055 0.01584 0.0
C352 C 0.28606 0.10731 0.0275 0.0
C353 C 0.25757 0.22219 0.06434 0.0
C354 C 0.15502 0.29905 0.03431 0.0
C355 C 0.1824 0.25656 0.04012 0.0
C356 C 0.29198 0.15532 0.02736 0.0
C357 C 0.2499 0.18526 0.03693 0.0
H358 H 0.03814 0.33755 0.01768 0.0
H359 H 0.07971 0.26714 0.03462 0.0
H360 H 0.23268 0.28632 0.08601 0.0
H361 H 0.41337 0.16672 -0.00639 0.0
H362 H 0.34442 0.21268 0.01493 0.0
C363 C 0.17694 0.5767 -0.00765 0.0
C364 C 0.15776 0.56313 0.03113 0.0
C365 C 0.22194 0.60303 0.98894 0.0
C366 C 0.32808 0.64879 -0.00887 0.0
H367 H 0.31671 0.76039 0.05444 0.0
C368 C 0.428 0.8427 0.01387 0.0
C369 C 0.43894 0.85261 0.97241 0.0
C370 C 0.4047 0.80087 0.02504 0.0
C371 C 0.32163 0.72915 0.03725 0.0
H372 H 0.17262 0.56459 0.09663 0.0
H373 H 0.25069 0.61168 0.09053 0.0
H374 H 0.25813 0.69594 0.0675 0.0
H375 H 0.43472 0.82547 0.91015 0.0
H376 H 0.39169 0.75367 0.9293 0.0
H377 H 0.39134 0.68211 0.96051 0.0
C378 C 0.23079 0.60148 0.06286 0.0
C379 C 0.28781 0.69219 0.04475 0.0
C380 C 0.18609 0.57454 0.06625 0.0
C381 C 0.42705 0.81907 0.94244 0.0
C382 C 0.40273 0.77754 0.95352 0.0
C383 C 0.36258 0.68558 0.98405 0.0
C384 C 0.24836 0.61688 0.02426 0.0
C385 C 0.28984 0.65219 0.021 0.0
C386 C 0.3904 0.76824 -0.00507 0.0
C387 C 0.35882 0.72674 0.00619 0.0
H388 H 0.1563 0.56891 0.96467 0.0
H389 H 0.23439 0.61494 0.95884 0.0
H390 H 0.33047 0.61811 0.97258 0.0
H391 H 0.43618 0.86742 0.03788 0.0
H392 H 0.39684 0.79465 0.05733 0.0
C393 C 0.57789 0.1589 0.96432 0.0
C394 C 0.56585 0.14906 0.00562 0.0
C395 C 0.60196 0.20054 0.95353 0.0
C396 C 0.68613 0.27157 0.94274 0.0
H397 H 0.67652 0.38289 0.0069 0.0
C398 C 0.82991 0.42512 0.98846 0.0
C399 C 0.84956 0.43844 0.94976 0.0
C400 C 0.78515 0.39836 -0.00838 0.0
C401 C 0.67918 0.35211 0.98853 0.0
H402 H 0.56876 0.17614 0.06794 0.0
H403 H 0.61301 0.2476 0.04948 0.0
H404 H 0.615 0.31921 0.01823 0.0
H405 H 0.8358 0.43606 0.8841 0.0
H406 H 0.75815 0.38834 0.88976 0.0
H407 H 0.75048 0.3044 0.91335 0.0
C408 C 0.60234 0.22384 0.02509 0.0
C409 C 0.64429 0.31551 -0.00483 0.0
C410 C 0.57729 0.18251 0.03577 0.0
C411 C 0.82194 0.42633 0.91442 0.0
C412 C 0.7775 0.399 0.91757 0.0
C413 C 0.72036 0.30835 0.93567 0.0
C414 C 0.61588 0.23304 0.98388 0.0
C415 C 0.6482 0.27429 0.97315 0.0
C416 C 0.75945 0.38387 0.95613 0.0
C417 C 0.71802 0.34847 0.95922 0.0
H418 H 0.56998 0.13423 0.94019 0.0
H419 H 0.61072 0.20672 0.92138 0.0
H420 H 0.69119 0.24026 0.92569 0.0
H421 H 0.84999 0.43355 0.01632 0.0
H422 H 0.77231 0.38672 0.0217 0.0
C423 C 0.90069 0.64193 0.9352 0.0
C424 C 0.90798 0.62801 0.97578 0.0
C425 C 0.87715 0.68277 0.92764 0.0
C426 C 0.84229 0.79153 0.9775 0.0
H427 H 0.72124 0.77984 0.91294 0.0
C428 C 0.67093 0.89368 0.01417 0.0
C429 C 0.63978 0.90777 0.98287 0.0
C430 C 0.71222 0.86791 0.00506 0.0
C431 C 0.7555 0.78421 0.93031 0.0
H432 H 0.89874 0.64644 0.03996 0.0
H433 H 0.85943 0.71749 0.027 0.0
H434 H 0.78019 0.71875 0.91113 0.0
H435 H 0.62786 0.90626 0.91725 0.0
H436 H 0.70069 0.86097 0.90096 0.0
H437 H 0.81689 0.85591 -0.0019 0.0
C438 C 0.87139 0.69734 0.0009 0.0
C439 C 0.78932 0.74914 0.92926 0.0
C440 C 0.89377 0.65649 0.00837 0.0
C441 C 0.65185 0.89673 0.94187 0.0
C442 C 0.69313 0.87027 0.93267 0.0
C443 C 0.80871 0.8265 0.97847 0.0
C444 C 0.8617 0.71065 0.96056 0.0
C445 C 0.83207 0.75161 0.95416 0.0
C446 C 0.72336 0.85493 0.96432 0.0
C447 C 0.76381 0.8225 0.95624 0.0
H448 H 0.91079 0.62025 0.90957 0.0
H449 H 0.8702 0.69214 0.8962 0.0
H450 H 0.8753 0.79484 -0.00347 0.0
H451 H 0.66239 0.90143 0.04609 0.0
H452 H 0.73396 0.85624 0.03034 0.0
loop_
_geom_bond_atom_site_label_1
_geom_bond_atom_site_label_2
_geom_bond_distance
_geom_bond_site_symmetry_2
_ccdc_geom_bond_type
C0 O12 1.241 . S
C0 O13 1.280 1_455 S
C1 O14 1.277 1_655 S
C1 O15 1.245 . S
C2 O26 1.247 . S
C2 O28 1.289 1_545 S
Mg3 O4 1.926 . S
Mg3 O13 1.984 . S
Mg3 O15 1.988 . S
Mg3 O16 2.061 . S
O4 Mg3 1.926 . S
O4 Mg5 1.986 1_655 S
O4 Mg6 1.917 1_665 S
Mg5 O4 1.986 1_455 S
Mg5 O12 2.042 . S
Mg5 O14 2.041 . S
Mg5 O20 2.038 . S
Mg5 O28 2.238 . S
Mg6 O4 1.917 1_445 S
Mg6 O7 1.917 . S
Mg6 O17 2.106 1_455 S
Mg6 O19 2.079 . S
Mg6 O28 2.106 1_545 S
Mg6 O29 2.079 1_445 S
O7 Mg6 1.917 . S
O7 Mg8 1.926 . S
O7 Mg9 1.986 1_455 S
Mg8 O7 1.926 . S
Mg8 O22 1.984 . S
Mg8 O25 1.988 . S
Mg8 O26 2.061 . S
Mg9 O7 1.986 1_655 S
Mg9 O17 2.238 . S
Mg9 O21 2.042 . S
Mg9 O23 2.041 . S
Mg9 O30 2.038 . S
C10 O16 1.247 . S
C10 O17 1.289 1_565 S
C11 O29 1.245 1_545 S
C11 O30 1.274 . S
O12 C0 1.241 . S
O12 Mg5 2.042 . S
O13 C0 1.280 1_655 S
O13 Mg3 1.984 . S
O14 C1 1.277 1_455 S
O14 Mg5 2.041 . S
O15 C1 1.245 . S
O15 Mg3 1.988 . S
O16 Mg3 2.061 . S
O16 C10 1.247 . S
O17 Mg6 2.106 1_655 S
O17 Mg9 2.238 . S
O17 C10 1.289 1_545 S
C18 O19 1.245 1_565 S
C18 O20 1.274 . S
O19 Mg6 2.079 . S
O19 C18 1.245 1_545 S
O20 Mg5 2.038 . S
O20 C18 1.274 . S
O21 Mg9 2.042 . S
O21 C24 1.241 . S
O22 Mg8 1.984 . S
O22 C24 1.280 1_455 S
O23 Mg9 2.041 . S
O23 C27 1.277 1_655 S
C24 O21 1.241 . S
C24 O22 1.280 1_655 S
O25 Mg8 1.988 . S
O25 C27 1.245 . S
O26 C2 1.247 . S
O26 Mg8 2.061 . S
C27 O23 1.277 1_455 S
C27 O25 1.245 . S
O28 C2 1.289 1_565 S
O28 Mg5 2.238 . S
O28 Mg6 2.106 1_565 S
O29 Mg6 2.079 1_665 S
O29 C11 1.245 1_565 S
O30 Mg9 2.038 . S
O30 C11 1.274 . S
C31 O43 1.241 . S
C31 O44 1.280 1_565 S
C32 O45 1.277 1_545 S
C32 O46 1.245 . S
C33 O57 1.247 . S
C33 O59 1.289 1_556 S
Mg34 O35 1.926 . S
Mg34 O44 1.984 . S
Mg34 O46 1.988 . S
Mg34 O47 2.061 . S
O35 Mg34 1.926 . S
O35 Mg36 1.986 1_545 S
O35 Mg37 1.917 . S
Mg36 O35 1.986 1_565 S
Mg36 O43 2.042 . S
Mg36 O45 2.041 . S
Mg36 O51 2.038 . S
Mg36 O59 2.238 . S
Mg37 O35 1.917 . S
Mg37 O38 1.917 1_544 S
Mg37 O48 2.106 1_554 S
Mg37 O50 2.079 1_544 S
Mg37 O59 2.106 1_545 S
Mg37 O60 2.079 . S
O38 Mg37 1.917 1_566 S
O38 Mg39 1.926 . S
O38 Mg40 1.986 1_565 S
Mg39 O38 1.926 . S
Mg39 O53 1.984 . S
Mg39 O56 1.988 . S
Mg39 O57 2.061 . S
Mg40 O38 1.986 1_545 S
Mg40 O48 2.238 . S
Mg40 O52 2.042 . S
Mg40 O54 2.041 . S
Mg40 O61 2.038 . S
C41 O47 1.247 . S
C41 O48 1.289 1_554 S
C42 O60 1.245 1_556 S
C42 O61 1.274 . S
O43 C31 1.241 . S
O43 Mg36 2.042 . S
O44 C31 1.280 1_545 S
O44 Mg34 1.984 . S
O45 C32 1.277 1_565 S
O45 Mg36 2.041 . S
O46 C32 1.245 . S
O46 Mg34 1.988 . S
O47 Mg34 2.061 . S
O47 C41 1.247 . S
O48 Mg37 2.106 1_556 S
O48 Mg40 2.238 . S
O48 C41 1.289 1_556 S
C49 O50 1.245 1_554 S
C49 O51 1.274 . S
O50 Mg37 2.079 1_566 S
O50 C49 1.245 1_556 S
O51 Mg36 2.038 . S
O51 C49 1.274 . S
O52 Mg40 2.042 . S
O52 C55 1.241 . S
O53 Mg39 1.984 . S
O53 C55 1.280 1_565 S
O54 Mg40 2.041 . S
O54 C58 1.277 1_545 S
C55 O52 1.241 . S
C55 O53 1.280 1_545 S
O56 Mg39 1.988 . S
O56 C58 1.245 . S
O57 C33 1.247 . S
O57 Mg39 2.061 . S
C58 O54 1.277 1_565 S
C58 O56 1.245 . S
O59 C33 1.289 1_554 S
O59 Mg36 2.238 . S
O59 Mg37 2.106 1_565 S
O60 Mg37 2.079 . S
O60 C42 1.245 1_554 S
O61 Mg40 2.038 . S
O61 C42 1.274 . S
C62 O74 1.241 . S
C62 O75 1.280 1_455 S
C63 O76 1.277 1_655 S
C63 O77 1.245 . S
C64 O88 1.247 . S
C64 O90 1.289 1_554 S
Mg65 O66 1.926 . S
Mg65 O75 1.984 . S
Mg65 O77 1.988 . S
Mg65 O78 2.061 . S
O66 Mg65 1.926 . S
O66 Mg67 1.986 1_655 S
O66 Mg68 1.917 1_656 S
Mg67 O66 1.986 1_455 S
Mg67 O74 2.042 . S
Mg67 O76 2.041 . S
Mg67 O82 2.038 . S
Mg67 O90 2.238 . S
Mg68 O66 1.917 1_454 S
Mg68 O69 1.917 . S
Mg68 O79 2.106 1_455 S
Mg68 O81 2.079 . S
Mg68 O90 2.106 1_554 S
Mg68 O91 2.079 1_454 S
O69 Mg68 1.917 . S
O69 Mg70 1.926 . S
O69 Mg71 1.986 1_455 S
Mg70 O69 1.926 . S
Mg70 O84 1.984 . S
Mg70 O87 1.988 . S
Mg70 O88 2.061 . S
Mg71 O69 1.986 1_655 S
Mg71 O79 2.238 . S
Mg71 O83 2.042 . S
Mg71 O85 2.041 . S
Mg71 O92 2.038 . S
C72 O78 1.247 . S
C72 O79 1.289 1_556 S
C73 O91 1.245 1_554 S
C73 O92 1.274 . S
O74 C62 1.241 . S
O74 Mg67 2.042 . S
O75 C62 1.280 1_655 S
O75 Mg65 1.984 . S
O76 C63 1.277 1_455 S
O76 Mg67 2.041 . S
O77 C63 1.245 . S
O77 Mg65 1.988 . S
O78 Mg65 2.061 . S
O78 C72 1.247 . S
O79 Mg68 2.106 1_655 S
O79 Mg71 2.238 . S
O79 C72 1.289 1_554 S
C80 O81 1.245 1_556 S
C80 O82 1.274 . S
O81 Mg68 2.079 . S
O81 C80 1.245 1_554 S
O82 Mg67 2.038 . S
O82 C80 1.274 . S
O83 Mg71 2.042 . S
O83 C86 1.241 . S
O84 Mg70 1.984 . S
O84 C86 1.280 1_455 S
O85 Mg71 2.041 . S
O85 C89 1.277 1_655 S
C86 O83 1.241 . S
C86 O84 1.280 1_655 S
O87 Mg70 1.988 . S
O87 C89 1.245 . S
O88 C64 1.247 . S
O88 Mg70 2.061 . S
C89 O85 1.277 1_455 S
C89 O87 1.245 . S
O90 C64 1.289 1_556 S
O90 Mg67 2.238 . S
O90 Mg68 2.106 1_556 S
O91 Mg68 2.079 1_656 S
O91 C73 1.245 1_556 S
O92 Mg71 2.038 . S
O92 C73 1.274 . S
C93 C94 1.349 . S
C93 C95 1.327 . S
C93 H118 0.950 . S
C94 C93 1.349 . S
C94 C110 1.349 1_455 S
C95 C93 1.327 . S
C95 C114 1.428 . S
C95 H119 0.950 . S
C96 C113 1.574 . S
C96 C115 1.368 . S
C96 H120 0.949 . S
H97 C101 0.949 . S
C98 C99 1.349 . S
C98 C100 1.327 . S
C98 H121 0.950 . S
C99 C98 1.349 . S
C99 C111 1.349 1_655 S
C100 C98 1.327 . S
C100 C116 1.429 . S
C100 H122 0.950 . S
C101 H97 0.949 . S
C101 C109 1.574 . S
C101 C117 1.368 1_455 S
H102 C110 0.950 . S
H103 C108 0.950 . S
H104 C109 0.949 . S
H105 C111 0.950 . S
H106 C112 0.950 . S
H107 C113 0.949 . S
C108 H103 0.950 . S
C108 C110 1.327 . S
C108 C114 1.429 1_655 S
C109 C101 1.574 . S
C109 H104 0.949 . S
C109 C115 1.368 1_455 S
C110 C94 1.349 1_655 S
C110 H102 0.950 . S
C110 C108 1.327 . S
C111 C99 1.349 1_455 S
C111 H105 0.950 . S
C111 C112 1.327 . S
C112 H106 0.950 . S
C112 C111 1.327 . S
C112 C116 1.429 1_455 S
C113 C96 1.574 . S
C113 H107 0.949 . S
C113 C117 1.368 . S
C114 C95 1.428 . S
C114 C108 1.429 1_455 S
C114 C115 1.523 1_455 S
C115 C96 1.368 . S
C115 C109 1.368 1_655 S
C115 C114 1.523 1_655 S
C116 C100 1.429 . S
C116 C112 1.429 1_655 S
C116 C117 1.523 . S
C117 C101 1.368 1_655 S
C117 C113 1.368 . S
C117 C116 1.523 . S
H118 C93 0.950 . S
H119 C95 0.950 . S
H120 C96 0.949 . S
H121 C98 0.950 . S
H122 C100 0.950 . S
C123 C124 1.339 1_545 S
C123 C125 1.327 . S
C123 H148 0.950 . S
C124 C123 1.339 1_565 S
C124 C140 1.359 . S
C125 C123 1.327 . S
C125 C144 1.429 1_545 S
C125 H149 0.950 . S
C126 C143 1.574 . S
C126 C145 1.368 . S
C126 H150 0.949 . S
H127 C131 0.949 . S
C128 C129 1.349 . S
C128 C130 1.327 . S
C128 H151 0.950 . S
C129 C128 1.349 . S
C129 C141 1.349 1_565 S
C130 C128 1.327 . S
C130 C146 1.429 . S
C130 H152 0.950 . S
C131 H127 0.949 . S
C131 C139 1.574 . S
C131 C147 1.368 1_545 S
H132 C140 0.950 . S
H133 C138 0.950 . S
H134 C139 0.949 . S
H135 C141 0.950 . S
H136 C142 0.950 . S
H137 C143 0.949 . S
C138 H133 0.950 . S
C138 C140 1.327 . S
C138 C144 1.429 . S
C139 C131 1.574 . S
C139 H134 0.949 . S
C139 C145 1.368 1_545 S
C140 C124 1.359 . S
C140 H132 0.950 . S
C140 C138 1.327 . S
C141 C129 1.349 1_545 S
C141 H135 0.950 . S
C141 C142 1.327 . S
C142 H136 0.950 . S
C142 C141 1.327 . S
C142 C146 1.429 1_545 S
C143 C126 1.574 . S
C143 H137 0.949 . S
C143 C147 1.368 . S
C144 C125 1.429 1_565 S
C144 C138 1.429 . S
C144 C145 1.523 . S
C145 C126 1.368 . S
C145 C139 1.368 1_565 S
C145 C144 1.523 . S
C146 C130 1.429 . S
C146 C142 1.429 1_565 S
C146 C147 1.523 . S
C147 C131 1.368 1_565 S
C147 C143 1.368 . S
C147 C146 1.523 . S
H148 C123 0.950 . S
H149 C125 0.950 . S
H150 C126 0.949 . S
H151 C128 0.950 . S
H152 C130 0.950 . S
C153 C154 1.349 . S
C153 C155 1.327 . S
C153 H178 0.950 . S
C154 C153 1.349 . S
C154 C170 1.349 1_655 S
C155 C153 1.327 . S
C155 C174 1.429 . S
C155 H179 0.950 . S
C156 C173 1.574 . S
C156 C175 1.368 1_455 S
C156 H180 0.949 . S
H157 C161 0.949 . S
C158 C159 1.349 1_455 S
C158 C160 1.327 . S
C158 H181 0.950 . S
C159 C158 1.349 1_655 S
C159 C171 1.349 . S
C160 C158 1.327 . S
C160 C176 1.429 1_455 S
C160 H182 0.950 . S
C161 H157 0.949 . S
C161 C169 1.574 . S
C161 C177 1.368 . S
H162 C170 0.950 . S
H163 C168 0.950 . S
H164 C169 0.949 . S
H165 C171 0.950 . S
H166 C172 0.950 . S
H167 C173 0.949 . S
C168 H163 0.950 . S
C168 C170 1.327 . S
C168 C174 1.429 1_455 S
C169 C161 1.574 . S
C169 H164 0.949 . S
C169 C175 1.368 . S
C170 C154 1.349 1_455 S
C170 H162 0.950 . S
C170 C168 1.327 . S
C171 C159 1.349 . S
C171 H165 0.950 . S
C171 C172 1.327 . S
C172 H166 0.950 . S
C172 C171 1.327 . S
C172 C176 1.429 . S
C173 C156 1.574 . S
C173 H167 0.949 . S
C173 C177 1.368 1_455 S
C174 C155 1.429 . S
C174 C168 1.429 1_655 S
C174 C175 1.523 . S
C175 C156 1.368 1_655 S
C175 C169 1.368 . S
C175 C174 1.523 . S
C176 C160 1.429 1_655 S
C176 C172 1.429 . S
C176 C177 1.523 . S
C177 C161 1.368 . S
C177 C173 1.368 1_655 S
C177 C176 1.523 . S
H178 C153 0.950 . S
H179 C155 0.950 . S
H180 C156 0.949 . S
H181 C158 0.950 . S
H182 C160 0.950 . S
C183 C184 1.349 . S
C183 C185 1.327 . S
C183 H208 0.950 . S
C184 C183 1.349 . S
C184 C200 1.349 1_545 S
C185 C183 1.327 . S
C185 C204 1.429 . S
C185 H209 0.950 . S
C186 C203 1.574 . S
C186 C205 1.368 1_565 S
C186 H210 0.949 . S
H187 C191 0.949 . S
C188 C189 1.341 1_565 S
C188 C190 1.327 . S
C188 H211 0.950 . S
C189 C188 1.341 1_545 S
C189 C201 1.356 . S
C190 C188 1.327 . S
C190 C206 1.429 1_565 S
C190 H212 0.950 . S
C191 H187 0.949 . S
C191 C199 1.574 . S
C191 C207 1.368 . S
H192 C200 0.950 . S
H193 C198 0.950 . S
H194 C199 0.949 . S
H195 C201 0.950 . S
H196 C202 0.950 . S
H197 C203 0.949 . S
C198 H193 0.950 . S
C198 C200 1.327 . S
C198 C204 1.429 1_565 S
C199 C191 1.574 . S
C199 H194 0.949 . S
C199 C205 1.368 . S
C200 C184 1.349 1_565 S
C200 H192 0.950 . S
C200 C198 1.327 . S
C201 C189 1.356 . S
C201 H195 0.950 . S
C201 C202 1.327 . S
C202 H196 0.950 . S
C202 C201 1.327 . S
C202 C206 1.429 . S
C203 C186 1.574 . S
C203 H197 0.949 . S
C203 C207 1.368 1_565 S
C204 C185 1.429 . S
C204 C198 1.429 1_545 S
C204 C205 1.523 . S
C205 C186 1.368 1_545 S
C205 C199 1.368 . S
C205 C204 1.523 . S
C206 C190 1.429 1_545 S
C206 C202 1.429 . S
C206 C207 1.523 . S
C207 C191 1.368 . S
C207 C203 1.368 1_545 S
C207 C206 1.523 . S
H208 C183 0.950 . S
H209 C185 0.950 . S
H210 C186 0.949 . S
H211 C188 0.950 . S
H212 C190 0.950 . S
C213 C214 1.349 . S
C213 C215 1.327 . S
C213 H238 0.950 . S
C214 C213 1.349 . S
C214 C230 1.349 1_455 S
C215 C213 1.327 . S
C215 C234 1.429 . S
C215 H239 0.950 . S
C216 C233 1.574 . S
C216 C235 1.368 1_655 S
C216 H240 0.949 . S
H217 C221 0.949 . S
C218 C219 1.349 . S
C218 C220 1.327 . S
C218 H241 0.950 . S
C219 C218 1.349 . S
C219 C231 1.349 1_655 S
C220 C218 1.327 . S
C220 C236 1.428 1_655 S
C220 H242 0.950 . S
C221 H217 0.949 . S
C221 C229 1.574 . S
C221 C237 1.368 . S
H222 C230 0.950 . S
H223 C228 0.950 . S
H224 C229 0.949 . S
H225 C231 0.950 . S
H226 C232 0.950 . S
H227 C233 0.949 . S
C228 H223 0.950 . S
C228 C230 1.327 . S
C228 C234 1.429 1_655 S
C229 C221 1.574 . S
C229 H224 0.949 . S
C229 C235 1.368 . S
C230 C214 1.349 1_655 S
C230 H222 0.950 . S
C230 C228 1.327 . S
C231 C219 1.349 1_455 S
C231 H225 0.950 . S
C231 C232 1.327 . S
C232 H226 0.950 . S
C232 C231 1.327 . S
C232 C236 1.429 . S
C233 C216 1.574 . S
C233 H227 0.949 . S
C233 C237 1.368 1_655 S
C234 C215 1.429 . S
C234 C228 1.429 1_455 S
C234 C235 1.523 . S
C235 C216 1.368 1_455 S
C235 C229 1.368 . S
C235 C234 1.523 . S
C236 C220 1.428 1_455 S
C236 C232 1.429 . S
C236 C237 1.523 . S
C237 C221 1.368 . S
C237 C233 1.368 1_455 S
C237 C236 1.523 . S
H238 C213 0.950 . S
H239 C215 0.950 . S
H240 C216 0.949 . S
H241 C218 0.950 . S
H242 C220 0.950 . S
C243 C244 1.349 . S
C243 C245 1.327 . S
C243 H268 0.950 . S
C244 C243 1.349 . S
C244 C260 1.349 1_545 S
C245 C243 1.327 . S
C245 C264 1.429 . S
C245 H269 0.950 . S
C246 C263 1.574 . S
C246 C265 1.368 1_565 S
C246 H270 0.949 . S
H247 C251 0.949 . S
C248 C249 1.335 1_565 S
C248 C250 1.327 . S
C248 H271 0.950 . S
C249 C248 1.335 1_545 S
C249 C261 1.362 . S
C250 C248 1.327 . S
C250 C266 1.429 1_565 S
C250 H272 0.950 . S
C251 H247 0.949 . S
C251 C259 1.574 . S
C251 C267 1.368 . S
H252 C260 0.950 . S
H253 C258 0.950 . S
H254 C259 0.949 . S
H255 C261 0.950 . S
H256 C262 0.950 . S
H257 C263 0.949 . S
C258 H253 0.950 . S
C258 C260 1.327 . S
C258 C264 1.429 1_565 S
C259 C251 1.574 . S
C259 H254 0.949 . S
C259 C265 1.368 . S
C260 C244 1.349 1_565 S
C260 H252 0.950 . S
C260 C258 1.327 . S
C261 C249 1.362 . S
C261 H255 0.950 . S
C261 C262 1.327 . S
C262 H256 0.950 . S
C262 C261 1.327 . S
C262 C266 1.429 . S
C263 C246 1.574 . S
C263 H257 0.949 . S
C263 C267 1.368 1_565 S
C264 C245 1.429 . S
C264 C258 1.429 1_545 S
C264 C265 1.523 . S
C265 C246 1.368 1_545 S
C265 C259 1.368 . S
C265 C264 1.523 . S
C266 C250 1.429 1_545 S
C266 C262 1.429 . S
C266 C267 1.523 . S
C267 C251 1.368 . S
C267 C263 1.368 1_545 S
C267 C266 1.523 . S
H268 C243 0.950 . S
H269 C245 0.950 . S
H270 C246 0.949 . S
H271 C248 0.950 . S
H272 C250 0.950 . S
C273 C274 1.349 . S
C273 C275 1.327 . S
C273 H298 0.950 . S
C274 C273 1.349 . S
C274 C290 1.349 . S
C275 C273 1.327 . S
C275 C294 1.429 . S
C275 H299 0.950 . S
C276 C293 1.574 . S
C276 C295 1.368 . S
C276 H300 0.949 . S
H277 C281 0.949 . S
C278 C279 1.349 . S
C278 C280 1.327 . S
C278 H301 0.950 . S
C279 C278 1.349 . S
C279 C291 1.349 . S
C280 C278 1.327 . S
C280 C296 1.429 . S
C280 H302 0.950 . S
C281 H277 0.949 . S
C281 C289 1.574 . S
C281 C297 1.368 . S
H282 C290 0.950 . S
H283 C288 0.950 . S
H284 C289 0.949 . S
H285 C291 0.950 . S
H286 C292 0.950 . S
H287 C293 0.949 . S
C288 H283 0.950 . S
C288 C290 1.327 . S
C288 C294 1.429 . S
C289 C281 1.574 . S
C289 H284 0.949 . S
C289 C295 1.368 . S
C290 C274 1.349 . S
C290 H282 0.950 . S
C290 C288 1.327 . S
C291 C279 1.349 . S
C291 H285 0.950 . S
C291 C292 1.327 . S
C292 H286 0.950 . S
C292 C291 1.327 . S
C292 C296 1.429 . S
C293 C276 1.574 . S
C293 H287 0.949 . S
C293 C297 1.368 . S
C294 C275 1.429 . S
C294 C288 1.429 . S
C294 C295 1.523 . S
C295 C276 1.368 . S
C295 C289 1.368 . S
C295 C294 1.523 . S
C296 C280 1.429 . S
C296 C292 1.429 . S
C296 C297 1.523 . S
C297 C281 1.368 . S
C297 C293 1.368 . S
C297 C296 1.523 . S
H298 C273 0.950 . S
H299 C275 0.950 . S
H300 C276 0.949 . S
H301 C278 0.950 . S
H302 C280 0.950 . S
C303 C304 1.349 . S
C303 C305 1.327 . S
C303 H328 0.950 . S
C304 C303 1.349 . S
C304 C320 1.349 1_565 S
C305 C303 1.327 . S
C305 C324 1.429 . S
C305 H329 0.950 . S
C306 C323 1.574 . S
C306 C325 1.368 1_545 S
C306 H330 0.949 . S
H307 C311 0.949 . S
C308 C309 1.346 1_545 S
C308 C310 1.327 . S
C308 H331 0.950 . S
C309 C308 1.346 1_565 S
C309 C321 1.351 . S
C310 C308 1.327 . S
C310 C326 1.429 1_545 S
C310 H332 0.950 . S
C311 H307 0.949 . S
C311 C319 1.574 . S
C311 C327 1.368 . S
H312 C320 0.950 . S
H313 C318 0.950 . S
H314 C319 0.949 . S
H315 C321 0.950 . S
H316 C322 0.950 . S
H317 C323 0.949 . S
C318 H313 0.950 . S
C318 C320 1.327 . S
C318 C324 1.429 1_545 S
C319 C311 1.574 . S
C319 H314 0.949 . S
C319 C325 1.368 . S
C320 C304 1.349 1_545 S
C320 H312 0.950 . S
C320 C318 1.327 . S
C321 C309 1.351 . S
C321 H315 0.950 . S
C321 C322 1.327 . S
C322 H316 0.950 . S
C322 C321 1.327 . S
C322 C326 1.429 . S
C323 C306 1.574 . S
C323 H317 0.949 . S
C323 C327 1.368 1_545 S
C324 C305 1.429 . S
C324 C318 1.429 1_565 S
C324 C325 1.523 . S
C325 C306 1.368 1_565 S
C325 C319 1.368 . S
C325 C324 1.523 . S
C326 C310 1.429 1_565 S
C326 C322 1.429 . S
C326 C327 1.523 . S
C327 C311 1.368 . S
C327 C323 1.368 1_565 S
C327 C326 1.523 . S
H328 C303 0.950 . S
H329 C305 0.950 . S
H330 C306 0.949 . S
H331 C308 0.950 . S
H332 C310 0.950 . S
C333 C334 1.349 1_554 S
C333 C335 1.327 . S
C333 H358 0.950 . S
C334 C333 1.349 1_556 S
C334 C350 1.349 . S
C335 C333 1.327 . S
C335 C354 1.429 1_554 S
C335 H359 0.950 . S
C336 C353 1.574 . S
C336 C355 1.368 . S
C336 H360 0.949 . S
H337 C341 0.949 . S
C338 C339 1.349 . S
C338 C340 1.327 . S
C338 H361 0.950 . S
C339 C338 1.349 . S
C339 C351 1.349 1_556 S
C340 C338 1.327 . S
C340 C356 1.429 . S
C340 H362 0.950 . S
C341 H337 0.949 . S
C341 C349 1.574 . S
C341 C357 1.368 1_554 S
H342 C350 0.950 . S
H343 C348 0.950 . S
H344 C349 0.949 . S
H345 C351 0.950 . S
H346 C352 0.950 . S
H347 C353 0.949 . S
C348 H343 0.950 . S
C348 C350 1.327 . S
C348 C354 1.429 . S
C349 C341 1.574 . S
C349 H344 0.949 . S
C349 C355 1.368 1_554 S
C350 C334 1.349 . S
C350 H342 0.950 . S
C350 C348 1.327 . S
C351 C339 1.349 1_554 S
C351 H345 0.950 . S
C351 C352 1.327 . S
C352 H346 0.950 . S
C352 C351 1.327 . S
C352 C356 1.429 1_554 S
C353 C336 1.574 . S
C353 H347 0.949 . S
C353 C357 1.368 . S
C354 C335 1.429 1_556 S
C354 C348 1.429 . S
C354 C355 1.523 . S
C355 C336 1.368 . S
C355 C349 1.368 1_556 S
C355 C354 1.523 . S
C356 C340 1.429 . S
C356 C352 1.429 1_556 S
C356 C357 1.523 . S
C357 C341 1.368 1_556 S
C357 C353 1.368 . S
C357 C356 1.523 . S
H358 C333 0.950 . S
H359 C335 0.950 . S
H360 C336 0.949 . S
H361 C338 0.950 . S
H362 C340 0.950 . S
C363 C364 1.349 . S
C363 C365 1.327 . S
C363 H388 0.950 . S
C364 C363 1.349 . S
C364 C380 1.349 1_556 S
C365 C363 1.327 . S
C365 C384 1.429 . S
C365 H389 0.950 . S
C366 C383 1.574 . S
C366 C385 1.368 1_554 S
C366 H390 0.949 . S
H367 C371 0.949 . S
C368 C369 1.349 . S
C368 C370 1.327 . S
C368 H391 0.950 . S
C369 C368 1.349 . S
C369 C381 1.349 1_554 S
C370 C368 1.327 . S
C370 C386 1.429 . S
C370 H392 0.950 . S
C371 H367 0.949 . S
C371 C379 1.574 . S
C371 C387 1.356 1_556 S
H372 C380 0.950 . S
H373 C378 0.950 . S
H374 C379 0.949 . S
H375 C381 0.950 . S
H376 C382 0.950 . S
H377 C383 0.949 . S
C378 H373 0.950 . S
C378 C380 1.327 . S
C378 C384 1.429 1_554 S
C379 C371 1.574 . S
C379 H374 0.949 . S
C379 C385 1.368 . S
C380 C364 1.349 1_554 S
C380 H372 0.950 . S
C380 C378 1.327 . S
C381 C369 1.349 1_556 S
C381 H375 0.950 . S
C381 C382 1.327 . S
C382 H376 0.950 . S
C382 C381 1.327 . S
C382 C386 1.429 1_556 S
C383 C366 1.574 . S
C383 H377 0.949 . S
C383 C387 1.381 . S
C384 C365 1.429 . S
C384 C378 1.429 1_556 S
C384 C385 1.523 . S
C385 C366 1.368 1_556 S
C385 C379 1.368 . S
C385 C384 1.523 . S
C386 C370 1.429 . S
C386 C382 1.429 1_554 S
C386 C387 1.524 . S
C387 C371 1.356 1_554 S
C387 C383 1.381 . S
C387 C386 1.524 . S
H388 C363 0.950 . S
H389 C365 0.950 . S
H390 C366 0.949 . S
H391 C368 0.950 . S
H392 C370 0.950 . S
C393 C394 1.349 . S
C393 C395 1.327 . S
C393 H418 0.950 . S
C394 C393 1.349 . S
C394 C410 1.349 1_556 S
C395 C393 1.327 . S
C395 C414 1.429 . S
C395 H419 0.950 . S
C396 C413 1.574 . S
C396 C415 1.360 1_554 S
C396 H420 0.949 . S
H397 C401 0.949 . S
C398 C399 1.349 . S
C398 C400 1.327 . S
C398 H421 0.950 . S
C399 C398 1.349 . S
C399 C411 1.349 1_554 S
C400 C398 1.327 . S
C400 C416 1.429 . S
C400 H422 0.950 . S
C401 H397 0.949 . S
C401 C409 1.574 . S
C401 C417 1.368 1_556 S
H402 C410 0.950 . S
H403 C408 0.950 . S
H404 C409 0.949 . S
H405 C411 0.950 . S
H406 C412 0.950 . S
H407 C413 0.949 . S
C408 H403 0.950 . S
C408 C410 1.327 . S
C408 C414 1.429 1_554 S
C409 C401 1.574 . S
C409 H404 0.949 . S
C409 C415 1.377 . S
C410 C394 1.349 1_554 S
C410 H402 0.950 . S
C410 C408 1.327 . S
C411 C399 1.349 1_556 S
C411 H405 0.950 . S
C411 C412 1.327 . S
C412 H406 0.950 . S
C412 C411 1.327 . S
C412 C416 1.429 1_556 S
C413 C396 1.574 . S
C413 H407 0.949 . S
C413 C417 1.368 . S
C414 C395 1.429 . S
C414 C408 1.429 1_556 S
C414 C415 1.523 . S
C415 C396 1.360 1_556 S
C415 C409 1.377 . S
C415 C414 1.523 . S
C416 C400 1.429 . S
C416 C412 1.429 1_554 S
C416 C417 1.523 . S
C417 C401 1.368 1_554 S
C417 C413 1.368 . S
C417 C416 1.523 . S
H418 C393 0.950 . S
H419 C395 0.950 . S
H420 C396 0.949 . S
H421 C398 0.950 . S
H422 C400 0.950 . S
C423 C424 1.349 1_556 S
C423 C425 1.327 . S
C423 H448 0.950 . S
C424 C423 1.349 1_554 S
C424 C440 1.349 . S
C425 C423 1.327 . S
C425 C444 1.429 1_556 S
C425 H449 0.950 . S
C426 C443 1.574 . S
C426 C445 1.368 . S
C426 H450 0.949 . S
H427 C431 0.949 . S
C428 C429 1.349 . S
C428 C430 1.327 . S
C428 H451 0.950 . S
C429 C428 1.349 . S
C429 C441 1.349 1_554 S
C430 C428 1.327 . S
C430 C446 1.429 . S
C430 H452 0.950 . S
C431 H427 0.949 . S
C431 C439 1.574 . S
C431 C447 1.368 1_556 S
H432 C440 0.950 . S
H433 C438 0.950 . S
H434 C439 0.949 . S
H435 C441 0.950 . S
H436 C442 0.950 . S
H437 C443 0.949 . S
C438 H433 0.950 . S
C438 C440 1.327 . S
C438 C444 1.429 . S
C439 C431 1.574 . S
C439 H434 0.949 . S
C439 C445 1.368 1_556 S
C440 C424 1.349 . S
C440 H432 0.950 . S
C440 C438 1.327 . S
C441 C429 1.349 1_556 S
C441 H435 0.950 . S
C441 C442 1.327 . S
C442 H436 0.950 . S
C442 C441 1.327 . S
C442 C446 1.429 1_556 S
C443 C426 1.574 . S
C443 H437 0.949 . S
C443 C447 1.368 . S
C444 C425 1.429 1_554 S
C444 C438 1.429 . S
C444 C445 1.523 . S
C445 C426 1.368 . S
C445 C439 1.368 1_554 S
C445 C444 1.523 . S
C446 C430 1.429 . S
C446 C442 1.429 1_554 S
C446 C447 1.523 . S
C447 C431 1.368 1_554 S
C447 C443 1.368 . S
C447 C446 1.523 . S
H448 C423 0.950 . S
H449 C425 0.950 . S
H450 C426 0.949 . S
H451 C428 0.950 . S
H452 C430 0.950 . S
C94 C89 1.049 . S
C99 C24 1.049 . S
C124 C11 1.172 1_565 S
C129 C31 1.185 . S
C154 C1 0.865 . S
C159 C86 0.859 . S
C184 C32 1.134 . S
C189 C2 1.124 . S
C214 C0 1.053 . S
C219 C63 1.053 . S
C244 C55 1.184 . S
C249 C18 1.173 1_545 S
C274 C62 0.858 . S
C279 C27 0.866 . S
C304 C58 1.134 . S
C309 C10 1.130 . S
C334 C80 1.844 . S
C339 C42 1.811 . S
C364 C64 0.999 1_556 S
C369 C33 0.989 1_554 S
C394 C41 0.990 1_556 S
C399 C72 0.998 1_554 S
C424 C73 1.844 . S
C429 C49 1.819 . S
