# Generated by pormake.
# Topology svb, (7)-cn, num edge types: 1
# Building blocks:
#     Node 0, Type 0, BuildingBlock: HICVOG_clean_sbu_0, # of connection points: 7
#     Node 1, Type 0, BuildingBlock: HICVOG_clean_sbu_0, # of connection points: 7
#     Node 2, Type 0, BuildingBlock: HICVOG_clean_sbu_0, # of connection points: 7
#     Node 3, Type 0, BuildingBlock: HICVOG_clean_sbu_0, # of connection points: 7
#     Node 4, Type 0, BuildingBlock: HICVOG_clean_sbu_0, # of connection points: 7
#     Node 5, Type 0, BuildingBlock: HICVOG_clean_sbu_0, # of connection points: 7
#     Node 6, Type 0, BuildingBlock: HICVOG_clean_sbu_0, # of connection points: 7
#     Node 7, Type 0, BuildingBlock: HICVOG_clean_sbu_0, # of connection points: 7
#     Node 8, Type 0, BuildingBlock: HICVOG_clean_sbu_0, # of connection points: 7
#     Node 9, Type 0, BuildingBlock: HICVOG_clean_sbu_0, # of connection points: 7
#     Node 10, Type 0, BuildingBlock: HICVOG_clean_sbu_0, # of connection points: 7
#     Node 11, Type 0, BuildingBlock: HICVOG_clean_sbu_0, # of connection points: 7
#     Node 12, Type 0, BuildingBlock: HICVOG_clean_sbu_0, # of connection points: 7
#     Node 13, Type 0, BuildingBlock: HICVOG_clean_sbu_0, # of connection points: 7
#     Node 14, Type 0, BuildingBlock: HICVOG_clean_sbu_0, # of connection points: 7
#     Node 15, Type 0, BuildingBlock: HICVOG_clean_sbu_0, # of connection points: 7
#     Edge 16, Type (0, 0), None
#     Edge 17, Type (0, 0), None
#     Edge 18, Type (0, 0), None
#     Edge 19, Type (0, 0), None
#     Edge 20, Type (0, 0), None
#     Edge 21, Type (0, 0), None
#     Edge 22, Type (0, 0), None
#     Edge 23, Type (0, 0), None
#     Edge 24, Type (0, 0), None
#     Edge 25, Type (0, 0), None
#     Edge 26, Type (0, 0), None
#     Edge 27, Type (0, 0), None
#     Edge 28, Type (0, 0), None
#     Edge 29, Type (0, 0), None
#     Edge 30, Type (0, 0), None
#     Edge 31, Type (0, 0), None
#     Edge 32, Type (0, 0), None
#     Edge 33, Type (0, 0), None
#     Edge 34, Type (0, 0), None
#     Edge 35, Type (0, 0), None
#     Edge 36, Type (0, 0), None
#     Edge 37, Type (0, 0), None
#     Edge 38, Type (0, 0), None
#     Edge 39, Type (0, 0), None
#     Edge 40, Type (0, 0), None
#     Edge 41, Type (0, 0), None
#     Edge 42, Type (0, 0), None
#     Edge 43, Type (0, 0), None
#     Edge 44, Type (0, 0), None
#     Edge 45, Type (0, 0), None
#     Edge 46, Type (0, 0), None
#     Edge 47, Type (0, 0), None
#     Edge 48, Type (0, 0), None
#     Edge 49, Type (0, 0), None
#     Edge 50, Type (0, 0), None
#     Edge 51, Type (0, 0), None
#     Edge 52, Type (0, 0), None
#     Edge 53, Type (0, 0), None
#     Edge 54, Type (0, 0), None
#     Edge 55, Type (0, 0), None
#     Edge 56, Type (0, 0), None
#     Edge 57, Type (0, 0), None
#     Edge 58, Type (0, 0), None
#     Edge 59, Type (0, 0), None
#     Edge 60, Type (0, 0), None
#     Edge 61, Type (0, 0), None
#     Edge 62, Type (0, 0), None
#     Edge 63, Type (0, 0), None
#     Edge 64, Type (0, 0), None
#     Edge 65, Type (0, 0), None
#     Edge 66, Type (0, 0), None
#     Edge 67, Type (0, 0), None
#     Edge 68, Type (0, 0), None
#     Edge 69, Type (0, 0), None
#     Edge 70, Type (0, 0), None
#     Edge 71, Type (0, 0), None
# Relax obj value: 0.398
# Max RMSD: 0.276
# Mean RMSD: 0.253
data_MOF--net-svb--node1-HICVOG_clean_sbu_0--edge1-none
_symmetry_space_group_name_H-M    P1
_symmetry_Int_Tables_number       1
_symmetry_cell_setting            triclinic
loop_
_symmetry_equiv_pos_as_xyz
'x, y, z'
_cell_length_a     23.680964
_cell_length_b     25.606888
_cell_length_c     13.523399
_cell_angle_alpha  97.745726
_cell_angle_beta   97.320282
_cell_angle_gamma 92.252978
loop_
_atom_site_label
_atom_site_type_symbol
_atom_site_fract_x
_atom_site_fract_y
_atom_site_fract_z
_atom_type_partial_charge
Zn0 Zn 0.17389 0.3542 0.35803 0.0
C1 C 0.14809 0.50646 0.32565 0.0
N2 N 0.11814 0.50632 0.40445 0.0
C3 C 0.12128 0.4559 0.42307 0.0
N4 N 0.15267 0.42764 0.36105 0.0
N5 N 0.16493 0.45798 0.29434 0.0
C6 C 0.26014 0.4606 0.09075 0.0
O7 O 0.28028 0.45892 0.18525 0.0
O8 O 0.11027 0.30267 0.28905 0.0
Zn9 Zn 0.15499 0.42719 0.15378 0.0
N10 N 0.2074 0.33782 0.49136 0.0
C11 C 0.25825 0.37091 0.65289 0.0
C12 C 0.23577 0.37858 0.55576 0.0
C13 C 0.20293 0.28868 0.51963 0.0
N14 N 0.2522 0.32257 0.68215 0.0
C15 C 0.22576 0.28074 0.61811 0.0
O16 O 0.1733 0.35207 0.13153 0.0
C17 C 0.20884 0.32372 0.17386 0.0
O18 O 0.23101 0.33716 0.26456 0.0
H19 H 0.23991 0.41713 0.53224 0.0
H20 H 0.18002 0.25674 0.46755 0.0
C21 C 0.05293 0.42982 1.00838 0.0
C22 C 0.99463 0.41781 0.97424 0.0
C23 C 0.98171 0.39276 0.13221 0.0
C24 C 1.0394 0.40485 0.166 0.0
N25 N 0.0741 0.42272 0.10358 0.0
N26 N 0.9605 0.40005 0.03745 0.0
H27 H 0.0811 0.44432 0.9598 0.0
C28 C 0.05748 0.29877 0.29522 0.0
O29 O 1.03563 0.33009 0.36334 0.0
O30 O 0.20636 0.45748 0.06469 0.0
H31 H 0.0567 0.39907 0.24093 0.0
H32 H 0.27993 0.40333 0.705 0.0
H33 H 0.9539 0.37812 0.18116 0.0
Zn34 Zn 0.90184 0.9241 0.43292 0.0
C35 C 0.9331 0.9612 0.17063 0.0
N36 N 0.90494 1.00472 0.19675 0.0
C37 C 0.87856 0.99256 0.27397 0.0
N38 N 0.89034 0.94379 0.29571 0.0
N39 N 0.92191 0.92331 0.22772 0.0
C40 C 1.05035 0.80842 0.2701 0.0
O41 O 0.10218 0.81829 0.31795 0.0
O42 O 0.85028 0.96057 0.52815 0.0
Zn43 Zn 0.93548 0.85002 0.20578 0.0
N44 N 0.98186 0.94063 0.48437 0.0
C45 C 0.07319 0.96625 0.44522 0.0
C46 C 1.0145 0.96121 0.42149 0.0
C47 C 1.00602 0.92699 0.57383 0.0
N48 N 0.09709 0.95303 0.53374 0.0
C49 C 0.06547 0.93437 0.60015 0.0
O50 O 0.89591 0.80262 0.29042 0.0
C51 C 0.88642 0.80364 0.38133 0.0
O52 O 0.88971 0.84651 0.44157 0.0
H53 H 0.99576 0.97438 0.35361 0.0
H54 H 0.97953 0.91027 0.62255 0.0
C55 C 0.91421 0.7789 1.01452 0.0
C56 C 0.88602 0.76225 0.91659 0.0
C57 C 0.84473 0.84462 0.91763 0.0
C58 C 0.86984 0.85957 1.01663 0.0
N59 N 0.90538 0.82713 0.06331 0.0
N60 N 0.85266 0.796 0.86985 0.0
H61 H 0.94223 0.75339 0.05152 0.0
C62 C 0.79731 0.94661 0.51313 0.0
O63 O 0.77758 0.91184 0.43455 0.0
O64 O 1.02002 0.84697 0.25344 0.0
H65 H 0.85942 0.89656 0.05573 0.0
H66 H 0.09956 0.98182 0.39505 0.0
H67 H 0.81834 0.87141 0.88015 0.0
Zn68 Zn 0.50978 0.65299 0.63272 0.0
C69 C 0.33858 0.60719 0.54628 0.0
N70 N 0.34041 0.63776 0.47342 0.0
C71 C 0.39341 0.66239 0.49419 0.0
N72 N 0.42426 0.64445 0.57452 0.0
N73 N 0.38789 0.61332 0.61063 0.0
C74 C 0.33082 0.52249 0.8084 0.0
O75 O 0.28764 0.49692 0.83524 0.0
O76 O 0.53927 0.72872 0.65929 0.0
Zn77 Zn 0.38548 0.61853 0.7568 0.0
N78 N 0.56425 0.60655 0.55905 0.0
C79 C 0.6175 0.53195 0.59267 0.0
C80 C 0.57512 0.56602 0.6132 0.0
C81 C 0.59463 0.61252 0.47991 0.0
N82 N 0.64616 0.53708 0.51414 0.0
C83 C 0.63638 0.57552 0.45498 0.0
O84 O 0.45336 0.59897 0.83169 0.0
C85 C 0.50606 0.61086 0.843 0.0
O86 O 0.52923 0.63398 0.77937 0.0
H87 H 0.55048 0.5592 0.67222 0.0
H88 H 0.5869 0.64511 0.43838 0.0
C89 C 0.38978 0.71241 0.91667 0.0
C90 C 0.38823 0.76753 0.94606 0.0
C91 C 0.36576 0.77853 0.77387 0.0
C92 C 0.3633 0.72425 0.74614 0.0
N93 N 0.37704 0.69211 0.81635 0.0
N94 N 0.37694 0.79854 0.8725 0.0
H95 H 0.40081 0.68636 0.97198 0.0
C96 C 0.52379 0.75305 0.73895 0.0
O97 O 0.48552 0.73034 0.78306 0.0
O98 O 0.3254 0.57054 0.79535 0.0
H99 H 0.35148 0.70772 0.66881 0.0
H100 H 0.62623 0.50022 0.63678 0.0
H101 H 0.35659 0.80458 0.71793 0.0
Zn102 Zn 0.68281 0.12386 0.95286 0.0
C103 C 0.63426 0.10006 0.65802 0.0
N104 N 0.63232 0.04889 0.67203 0.0
C105 C 0.65254 0.05175 0.76974 0.0
N106 N 0.66676 0.10204 0.81246 0.0
N107 N 0.65472 0.1334 0.74296 0.0
C108 C 0.52785 0.25373 0.74067 0.0
O109 O 0.47283 0.24273 0.72163 0.0
O110 O 0.73731 0.07431 0.02014 0.0
Zn111 Zn 0.64642 0.21308 0.76546 0.0
N112 N 0.60471 0.12721 0.99248 0.0
C113 C 0.51907 0.16786 0.94052 0.0
C114 C 0.57689 0.162 0.93937 0.0
C115 C 0.57525 0.09632 0.04648 0.0
N116 N 0.49038 0.13844 0.99537 0.0
C117 C 0.51594 0.10253 0.04813 0.0
O118 O 0.67228 0.25293 0.91529 0.0
C119 C 0.70617 0.23819 0.98635 0.0
O120 O 0.72683 0.19334 0.9737 0.0
H121 H 0.59932 0.18375 0.89316 0.0
H122 H 0.59726 0.06803 0.0877 0.0
C123 C 0.67386 0.29708 0.63539 0.0
C124 C 0.70551 0.31528 0.56375 0.0
C125 C 0.75317 0.23493 0.55374 0.0
C126 C 0.72347 0.21808 0.62676 0.0
N127 N 0.68361 0.24844 0.66554 0.0
N128 N 0.74424 0.28304 0.5258 0.0
H129 H 0.6437 0.32221 0.66756 0.0
C130 C 0.78994 0.06921 0.05301 0.0
O131 O 0.80228 0.02536 0.08854 0.0
O132 O 0.56083 0.21593 0.73463 0.0
H133 H 0.73188 0.18053 0.65199 0.0
H134 H 0.49696 0.19566 0.89847 0.0
H135 H 0.78438 0.21062 0.52149 0.0
Zn136 Zn 0.1828 0.62388 0.45289 0.0
C137 C 0.13423 0.60007 0.15807 0.0
N138 N 0.13227 0.5489 0.17209 0.0
C139 C 0.15248 0.55178 0.2698 0.0
N140 N 0.16675 0.60207 0.3125 0.0
N141 N 0.15472 0.63342 0.24299 0.0
C142 C 1.02787 0.75376 0.24067 0.0
O143 O 0.97285 0.74276 0.22163 0.0
O144 O 0.23728 0.57432 0.52016 0.0
Zn145 Zn 0.14644 0.71311 0.26548 0.0
N146 N 0.10469 0.62724 0.49248 0.0
C147 C 1.01907 0.6679 0.44049 0.0
C148 C 0.07688 0.66204 0.43937 0.0
C149 C 0.07522 0.59634 0.54644 0.0
N150 N 0.99035 0.63847 0.49529 0.0
C151 C 1.01591 0.60256 0.54805 0.0
O152 O 0.1723 0.75296 0.41531 0.0
C153 C 0.20618 0.73821 0.48638 0.0
O154 O 0.22683 0.69335 0.47374 0.0
H155 H 0.09933 0.68379 0.3932 0.0
H156 H 0.09721 0.56805 0.58766 0.0
C157 C 0.17389 0.79709 0.1354 0.0
C158 C 0.20555 0.8153 0.06378 0.0
C159 C 0.25321 0.73496 0.0538 0.0
C160 C 0.22351 0.71811 0.1268 0.0
N161 N 0.18363 0.74846 0.16556 0.0
N162 N 0.24428 0.78307 0.02584 0.0
H163 H 0.14372 0.82223 0.16755 0.0
C164 C 0.28991 0.56921 0.553 0.0
O165 O 0.30225 0.52537 0.58857 0.0
O166 O 0.06085 0.71596 0.23464 0.0
H167 H 0.23191 0.68055 0.15204 0.0
H168 H 0.99697 0.69572 0.39845 0.0
H169 H 0.28443 0.71064 0.02156 0.0
Zn170 Zn 0.65505 0.92717 0.65376 0.0
C171 C 0.62135 0.9559 0.92315 0.0
N172 N 0.61821 1.00632 0.90448 0.0
C173 C 0.64808 1.00644 0.82557 0.0
N174 N 0.66487 0.95794 0.79431 0.0
N175 N 0.65272 0.92761 0.8611 0.0
C176 C 0.5575 0.79874 0.79527 0.0
O177 O 0.53566 0.83005 0.86341 0.0
O178 O 0.70644 0.9575 0.56475 0.0
Zn179 Zn 0.67391 0.85417 0.85805 0.0
N180 N 0.57417 0.92268 0.60349 0.0
C181 C 0.48181 0.89262 0.63211 0.0
C182 C 0.5395 0.90475 0.66589 0.0
C183 C 0.55298 0.92979 0.50831 0.0
N184 N 0.46058 0.89994 0.53738 0.0
C185 C 0.49469 0.91775 0.47418 0.0
O186 O 0.73103 0.83711 0.7646 0.0
C187 C 0.70888 0.82368 0.67388 0.0
O188 O 0.67338 0.85206 0.63152 0.0
H189 H 0.55681 0.89896 0.74081 0.0
H190 H 0.58113 0.94433 0.45974 0.0
C191 C 0.70294 0.78864 0.01966 0.0
C192 C 0.72578 0.7807 0.11813 0.0
C193 C 0.75829 0.87087 0.1529 0.0
C194 C 0.73581 0.87854 0.05577 0.0
N195 N 0.70741 0.83779 0.99138 0.0
N196 N 0.75224 0.82252 0.18216 0.0
H197 H 0.68001 0.75671 0.96759 0.0
C198 C 0.76022 0.96065 0.59085 0.0
O199 O 0.78038 0.95896 0.68534 0.0
O200 O 0.61029 0.80265 0.78906 0.0
H201 H 0.73997 0.91708 0.03224 0.0
H202 H 0.45402 0.87794 0.68105 0.0
H203 H 0.78 0.90328 0.20499 0.0
Zn204 Zn 0.40179 0.42407 0.93291 0.0
C205 C 0.43307 0.46118 0.67063 0.0
N206 N 0.40489 0.50468 0.69671 0.0
C207 C 0.37848 0.4925 0.77387 0.0
N208 N 0.3903 0.44375 0.79569 0.0
N209 N 0.42189 0.42329 0.72773 0.0
C210 C 0.55033 0.30839 0.77011 0.0
O211 O 0.60216 0.31826 0.81795 0.0
O212 O 0.35021 0.46053 0.02812 0.0
Zn213 Zn 0.43547 0.35 0.7058 0.0
N214 N 0.48181 0.44062 0.98438 0.0
C215 C 0.57313 0.46625 0.94523 0.0
C216 C 0.51444 0.46121 0.92151 0.0
C217 C 0.50597 0.42697 0.07384 0.0
N218 N 0.59703 0.45303 0.03374 0.0
C219 C 0.56542 0.43435 0.10015 0.0
O220 O 0.3959 0.30259 0.79043 0.0
C221 C 0.38641 0.3036 0.88133 0.0
O222 O 0.38968 0.34647 0.94157 0.0
H223 H 0.4957 0.47439 0.85364 0.0
H224 H 0.47948 0.41024 0.12254 0.0
C225 C 0.41422 0.2789 0.51452 0.0
C226 C 0.38602 0.26224 0.41659 0.0
C227 C 0.3447 0.3446 0.41767 0.0
C228 C 0.36981 0.35955 0.51666 0.0
N229 N 0.40537 0.32711 0.56333 0.0
N230 N 0.35265 0.29598 0.36987 0.0
H231 H 0.44225 0.25339 0.55152 0.0
C232 C 0.29725 0.44656 1.01306 0.0
O233 O 0.27752 0.4118 0.93446 0.0
O234 O 0.52001 0.34694 0.75345 0.0
H235 H 0.35937 0.39653 0.55577 0.0
H236 H 0.5995 0.48183 0.89506 0.0
H237 H 0.31829 0.37138 0.3802 0.0
Zn238 Zn 1.00979 0.153 0.13272 0.0
C239 C 0.8386 0.10719 0.04628 0.0
N240 N 0.84042 0.13777 0.97343 0.0
C241 C 0.89342 0.16241 0.99421 0.0
N242 N 0.92427 0.14447 0.07454 0.0
N243 N 0.8879 0.11334 0.11065 0.0
C244 C 0.83083 0.02249 0.30835 0.0
O245 O 0.78767 0.99689 0.33515 0.0
O246 O 1.03927 0.22873 0.15927 0.0
Zn247 Zn 0.88549 0.11855 0.25682 0.0
N248 N 0.06427 0.10657 0.05904 0.0
C249 C 0.11752 0.03198 0.09267 0.0
C250 C 0.07513 0.06604 0.11319 0.0
C251 C 0.09465 0.11255 0.97991 0.0
N252 N 0.14618 0.03711 1.01414 0.0
C253 C 0.1364 0.07555 0.95498 0.0
O254 O 0.95336 0.099 0.33172 0.0
C255 C 1.00606 0.11088 0.34301 0.0
O256 O 1.02924 0.13399 0.27937 0.0
H257 H 1.05049 0.05922 0.17221 0.0
H258 H 0.08692 0.14514 0.93838 0.0
C259 C 0.88976 0.21241 0.4167 0.0
C260 C 0.8882 0.26754 0.44611 0.0
C261 C 0.86575 0.27855 0.27392 0.0
C262 C 0.86329 0.22427 0.24618 0.0
N263 N 0.87703 0.19212 0.31637 0.0
N264 N 0.87692 0.29856 0.37256 0.0
H265 H 0.90079 0.18636 0.472 0.0
C266 C 1.02379 0.25306 0.23892 0.0
O267 O 0.98551 0.23036 0.28305 0.0
O268 O 0.8254 0.07055 0.29531 0.0
H269 H 0.85149 0.20775 0.16884 0.0
H270 H 0.12625 1.00025 0.13677 0.0
H271 H 0.85658 0.30461 0.21799 0.0
Zn272 Zn 0.94797 0.60634 0.88401 0.0
C273 C 0.9817 0.57764 0.6147 0.0
N274 N 0.98478 0.52721 0.63328 0.0
C275 C 0.95486 0.52707 0.71211 0.0
N276 N 0.93812 0.57558 0.74344 0.0
N277 N 0.95031 0.60593 0.6767 0.0
C278 C 1.04551 0.7348 0.7425 0.0
O279 O 0.06733 0.70349 0.67433 0.0
O280 O 0.89659 0.57601 0.97303 0.0
Zn281 Zn 0.92911 0.67937 0.67974 0.0
N282 N 1.02886 0.61084 0.93427 0.0
C283 C 0.12121 0.64093 0.90565 0.0
C284 C 0.06352 0.62879 0.87188 0.0
C285 C 1.05007 0.6037 0.02943 0.0
N286 N 0.14245 0.63361 1.00037 0.0
C287 C 0.10836 0.61576 0.06356 0.0
O288 O 0.87198 0.69641 0.77318 0.0
C289 C 0.89412 0.70982 0.86391 0.0
O290 O 0.92963 0.68145 0.90627 0.0
H291 H 1.0462 0.6346 0.79697 0.0
H292 H 1.02192 0.58914 0.07801 0.0
C293 C 0.90009 0.74489 0.51812 0.0
C294 C 0.87726 0.75282 0.41965 0.0
C295 C 0.84475 0.66266 0.38489 0.0
C296 C 0.86723 0.65499 0.48202 0.0
N297 N 0.89562 0.69574 0.54641 0.0
N298 N 0.8508 0.711 0.35562 0.0
H299 H 0.92301 0.77683 0.57019 0.0
C300 C 0.84281 0.57289 0.94695 0.0
O301 O 0.82268 0.57457 0.85244 0.0
O302 O 0.99273 0.73089 0.74874 0.0
H303 H 0.86307 0.61644 0.50555 0.0
H304 H 0.14899 0.65564 0.85672 0.0
H305 H 0.82304 0.63024 0.33279 0.0
Zn306 Zn 0.2012 0.10946 0.60483 0.0
C307 C 0.16996 0.07236 0.86715 0.0
N308 N 0.1981 0.02884 0.84102 0.0
C309 C 0.22448 0.041 0.76379 0.0
N310 N 0.21269 0.08977 0.74205 0.0
N311 N 0.18113 0.11024 0.81004 0.0
C312 C 0.05266 0.22511 0.7676 0.0
O313 O 1.00084 0.21524 0.71973 0.0
O314 O 0.25278 0.07299 0.50964 0.0
Zn315 Zn 0.16754 0.18353 0.83195 0.0
N316 N 0.12118 0.09291 0.55337 0.0
C317 C 1.02985 0.06728 0.59252 0.0
C318 C 0.08855 0.07233 0.61625 0.0
C319 C 0.09701 0.10655 0.46391 0.0
N320 N 1.00595 0.0805 0.504 0.0
C321 C 1.03757 0.09917 0.43759 0.0
O322 O 0.2071 0.23094 0.74733 0.0
C323 C 0.21661 0.22992 0.65642 0.0
O324 O 0.21333 0.18705 0.59618 0.0
H325 H 0.10729 0.05916 0.68413 0.0
H326 H 0.12351 0.12328 0.4152 0.0
C327 C 0.18876 0.25464 0.02324 0.0
C328 C 0.21696 0.2713 0.12117 0.0
C329 C 0.2583 0.18895 0.12009 0.0
C330 C 0.23319 0.174 0.0211 0.0
N331 N 0.19763 0.20643 0.97443 0.0
N332 N 0.25034 0.23756 0.16789 0.0
H333 H 0.16073 0.28015 0.98625 0.0
C334 C 0.30574 0.08696 0.52469 0.0
O335 O 0.32546 0.12174 0.60327 0.0
O336 O 0.08299 0.18657 0.78427 0.0
H337 H 0.24364 0.13702 0.98199 0.0
H338 H 1.00348 0.05171 0.64269 0.0
H339 H 0.28472 0.16217 0.15755 0.0
Zn340 Zn 0.59321 0.38052 0.40502 0.0
C341 C 0.76443 0.42632 0.49143 0.0
N342 N 0.76263 0.39573 0.56427 0.0
C343 C 0.70963 0.3711 0.54344 0.0
N344 N 0.67873 0.38906 0.46319 0.0
N345 N 0.7151 0.4202 0.4271 0.0
C346 C 0.77216 0.51101 0.22933 0.0
O347 O 0.81534 0.53658 0.2025 0.0
O348 O 0.56373 0.30479 0.37849 0.0
Zn349 Zn 0.7175 0.41497 0.28092 0.0
N350 N 0.53873 0.42695 0.47868 0.0
C351 C 0.48545 0.50153 0.44504 0.0
C352 C 0.52784 0.46747 0.42451 0.0
C353 C 0.50837 0.42098 0.55784 0.0
N354 N 0.45681 0.49641 0.52359 0.0
C355 C 0.46661 0.45797 0.58277 0.0
O356 O 0.64962 0.43453 0.20604 0.0
C357 C 0.59693 0.42264 0.19474 0.0
O358 O 0.57375 0.39951 0.25836 0.0
H359 H 0.55247 0.47429 0.36548 0.0
H360 H 0.51611 0.3884 0.59939 0.0
C361 C 0.7132 0.3211 0.12103 0.0
C362 C 0.71477 0.26598 0.09162 0.0
C363 C 0.73727 0.25497 0.26381 0.0
C364 C 0.73971 0.30925 0.29155 0.0
N365 N 0.72595 0.34139 0.22135 0.0
N366 N 0.72608 0.23496 0.16517 0.0
H367 H 0.70216 0.34715 0.06574 0.0
C368 C 0.57921 0.28046 0.29885 0.0
O369 O 0.6175 0.30317 0.25474 0.0
O370 O 0.77758 0.46295 0.24237 0.0
H371 H 0.75154 0.32577 0.36888 0.0
H372 H 0.47671 0.53325 0.40092 0.0
H373 H 0.74645 0.22892 0.31974 0.0
Zn374 Zn 0.45658 0.82042 0.27224 0.0
C375 C 0.45041 0.98176 0.26804 0.0
N376 N 0.47071 0.98462 0.36571 0.0
C377 C 0.46883 0.93344 0.37967 0.0
N378 N 0.44836 0.90011 0.29473 0.0
N379 N 0.43616 0.93147 0.2253 0.0
C380 C 0.31311 0.96433 0.98471 0.0
O381 O 0.30076 1.00818 0.9492 0.0
O382 O 0.54217 0.81755 0.30309 0.0
Zn383 Zn 0.42022 0.90968 0.08489 0.0
N384 N 0.41939 0.78508 0.37216 0.0
C385 C 0.34982 0.79855 0.48396 0.0
C386 C 0.37952 0.81542 0.41096 0.0
C387 C 0.42914 0.73644 0.40228 0.0
N388 N 0.35875 0.75044 0.51187 0.0
C389 C 0.39748 0.71822 0.47389 0.0
O390 O 0.3762 0.8402 0.06389 0.0
C391 C 0.39682 0.79533 0.05133 0.0
O392 O 0.43072 0.78059 0.1224 0.0
H393 H 0.37111 0.85299 0.38575 0.0
H394 H 0.45931 0.71131 0.37012 0.0
C395 C 0.52782 0.93722 0.99141 0.0
C396 C 0.58713 0.93098 0.98975 0.0
C397 C 0.58395 0.86562 0.09728 0.0
C398 C 0.52615 0.87151 0.09845 0.0
N399 N 0.49836 0.90636 0.04544 0.0
N400 N 0.61267 0.89505 0.04248 0.0
H401 H 0.50584 0.96552 0.95019 0.0
C402 C 0.57515 0.77975 0.29706 0.0
O403 O 0.63017 0.79074 0.31614 0.0
O404 O 0.36574 0.95924 1.01758 0.0
H405 H 0.50369 0.84975 0.1446 0.0
H406 H 0.31861 0.82286 0.51623 0.0
H407 H 0.60604 0.83778 0.13927 0.0
Zn408 Zn 0.95656 0.32044 0.77228 0.0
C409 C 0.95046 0.48177 0.76799 0.0
N410 N 0.97071 0.48465 0.86569 0.0
C411 C 0.96881 0.43348 0.87969 0.0
N412 N 0.94835 0.40013 0.79476 0.0
N413 N 0.93616 0.43148 0.72529 0.0
C414 C 0.81308 0.46431 0.4847 0.0
O415 O 0.80073 0.50815 0.44915 0.0
O416 O 1.04216 0.31757 0.8031 0.0
Zn417 Zn 0.92018 0.40967 0.5849 0.0
N418 N 0.91938 0.28511 0.87221 0.0
C419 C 0.84982 0.29857 0.98401 0.0
C420 C 0.87951 0.31545 0.91102 0.0
C421 C 0.92914 0.23646 0.90232 0.0
N422 N 0.85875 0.25045 1.01191 0.0
C423 C 0.89748 0.21824 0.97392 0.0
O424 O 0.87615 0.34019 0.56397 0.0
C425 C 0.89678 0.29532 0.55138 0.0
O426 O 0.93069 0.28059 0.62245 0.0
H427 H 0.87111 0.35301 0.88582 0.0
H428 H 0.95931 0.21134 0.87014 0.0
C429 C 1.02776 0.4372 0.49135 0.0
C430 C 0.08706 0.43095 0.48966 0.0
C431 C 0.08391 0.3656 0.59719 0.0
C432 C 1.02611 0.37148 0.5984 0.0
N433 N 0.99831 0.40634 0.5454 0.0
N434 N 0.11261 0.39502 0.54237 0.0
H435 H 1.00576 0.4655 0.45016 0.0
C436 C 0.07514 0.27977 0.79705 0.0
O437 O 0.13016 0.29077 0.81612 0.0
O438 O 0.86571 0.45922 0.51758 0.0
H439 H 1.00367 0.34973 0.64458 0.0
H440 H 0.81861 0.32288 1.01628 0.0
H441 H 0.106 0.33775 0.63917 0.0
Zn442 Zn 0.42911 0.17933 0.17974 0.0
C443 C 0.45489 0.02708 0.21221 0.0
N444 N 0.48484 0.0272 0.1334 0.0
C445 C 0.48175 0.07762 0.1148 0.0
N446 N 0.45033 0.1059 0.17675 0.0
N447 N 0.43804 0.07556 0.24347 0.0
C448 C 0.34286 0.07292 0.44701 0.0
O449 O 0.32269 0.07458 0.35252 0.0
O450 O 0.49273 0.23085 0.24873 0.0
Zn451 Zn 0.448 0.10636 0.38403 0.0
N452 N 0.39562 0.1957 0.04639 0.0
C453 C 0.34476 0.16262 0.88487 0.0
C454 C 0.36724 0.15495 0.982 0.0
C455 C 0.40009 0.24485 1.01812 0.0
N456 N 0.3508 0.21096 0.85561 0.0
C457 C 0.37725 0.25279 0.91965 0.0
O458 O 0.42969 0.18147 0.40625 0.0
C459 C 0.39414 0.20982 0.36391 0.0
O460 O 0.37199 0.19639 0.27319 0.0
H461 H 0.36309 0.1164 1.00553 0.0
H462 H 0.423 0.27679 0.0702 0.0
C463 C 0.5501 0.10372 0.5294 0.0
C464 C 0.6084 0.11574 0.5635 0.0
C465 C 0.62128 0.1408 0.40552 0.0
C466 C 0.56358 0.1287 0.37177 0.0
N467 N 0.5289 0.11083 0.43421 0.0
N468 N 0.64251 0.1335 0.50027 0.0
H469 H 0.52194 0.08922 0.57801 0.0
C470 C 0.54552 0.23476 0.24253 0.0
O471 O 0.56736 0.20346 0.17437 0.0
O472 O 0.39663 0.07608 0.47311 0.0
H473 H 0.54627 0.13449 0.29685 0.0
H474 H 0.32306 0.1302 0.83277 0.0
H475 H 0.64907 0.15544 0.35655 0.0
Zn476 Zn 0.70118 0.60943 0.10484 0.0
C477 C 0.66994 0.57232 0.36715 0.0
N478 N 0.6981 0.52881 0.34103 0.0
C479 C 0.7245 0.541 0.26386 0.0
N480 N 0.71268 0.58975 0.24206 0.0
N481 N 0.68111 0.61021 0.31004 0.0
C482 C 0.55267 0.72509 0.2676 0.0
O483 O 0.50085 0.71522 0.21972 0.0
O484 O 0.75275 0.57296 1.00961 0.0
Zn485 Zn 0.66753 0.6835 0.33197 0.0
N486 N 0.62117 0.5929 0.05338 0.0
C487 C 0.52983 0.56728 0.09254 0.0
C488 C 0.58853 0.57232 0.11627 0.0
C489 C 0.597 0.60653 0.96391 0.0
N490 N 0.50594 0.5805 1.00402 0.0
C491 C 0.53756 0.59916 0.9376 0.0
O492 O 0.70711 0.7309 0.24734 0.0
C493 C 0.71661 0.72988 0.15644 0.0
O494 O 0.71332 0.68702 0.09619 0.0
H495 H 0.60727 0.55915 0.18415 0.0
H496 H 0.6235 0.62325 0.9152 0.0
C497 C 0.68878 0.75461 0.52326 0.0
C498 C 0.71698 0.77126 0.62119 0.0
C499 C 0.75829 0.6889 0.62011 0.0
C500 C 0.73318 0.67395 0.52112 0.0
N501 N 0.69763 0.70639 0.47445 0.0
N502 N 0.75035 0.73751 0.66791 0.0
H503 H 0.66076 0.78012 0.48627 0.0
C504 C 0.80572 0.58693 0.02465 0.0
O505 O 0.82545 0.62169 0.10325 0.0
O506 O 0.58299 0.68654 0.28428 0.0
H507 H 0.74362 0.63697 0.482 0.0
H508 H 0.50346 0.55172 0.14271 0.0
H509 H 0.7847 0.66211 0.65757 0.0
Zn510 Zn 0.09324 0.88054 0.90503 0.0
C511 C 0.26445 0.92636 0.99147 0.0
N512 N 0.26266 0.89575 0.06429 0.0
C513 C 0.20966 0.87112 0.04345 0.0
N514 N 0.17876 0.88908 0.96321 0.0
N515 N 0.21513 0.92022 0.92712 0.0
C516 C 0.2722 1.01105 0.7294 0.0
O517 O 0.31536 0.03665 0.70259 0.0
O518 O 0.06375 0.80481 0.87848 0.0
Zn519 Zn 0.21754 0.915 0.78095 0.0
N520 N 1.03875 0.92698 0.97868 0.0
C521 C 0.98547 1.00155 0.94503 0.0
C522 C 1.02786 0.96749 0.9245 0.0
C523 C 1.00839 0.92101 0.05783 0.0
N524 N 0.95682 0.99643 0.02358 0.0
C525 C 0.96663 0.958 0.08276 0.0
O526 O 0.14967 0.93456 0.70606 0.0
C527 C 0.09697 0.92267 0.69475 0.0
O528 O 0.0738 0.89954 0.75837 0.0
H529 H 0.05249 0.97431 0.86547 0.0
H530 H 1.01614 0.88843 0.09939 0.0
C531 C 0.21324 0.82113 0.62106 0.0
C532 C 0.2148 0.76601 0.59165 0.0
C533 C 0.23729 0.755 0.76384 0.0
C534 C 0.23974 0.80928 0.79158 0.0
N535 N 0.22599 0.84142 0.72138 0.0
N536 N 0.2261 0.73499 0.6652 0.0
H537 H 0.20219 0.84718 0.56576 0.0
C538 C 0.07923 0.78049 0.79883 0.0
O539 O 0.11752 0.80318 0.75471 0.0
O540 O 0.27763 0.963 0.74244 0.0
H541 H 0.25157 0.8258 0.86891 0.0
H542 H 0.97672 0.03326 0.90091 0.0
H543 H 0.24647 0.72894 0.81977 0.0
loop_
_geom_bond_atom_site_label_1
_geom_bond_atom_site_label_2
_geom_bond_distance
_geom_bond_site_symmetry_2
_ccdc_geom_bond_type
Zn0 N4 2.020 . S
Zn0 O8 2.019 . S
Zn0 N10 2.119 . S
Zn0 O18 1.975 . S
C1 N2 1.334 . S
C1 N5 1.336 . S
N2 C1 1.334 . S
N2 C3 1.334 . S
C3 N2 1.334 . S
C3 N4 1.336 . S
N4 Zn0 2.020 . S
N4 C3 1.336 . S
N4 N5 1.354 . S
N5 C1 1.336 . S
N5 N4 1.354 . S
N5 Zn9 2.020 . S
C6 O7 1.244 . S
C6 O30 1.257 . S
O7 C6 1.244 . S
O8 Zn0 2.019 . S
O8 C28 1.257 1_455 S
Zn9 N5 2.020 . S
Zn9 O16 1.975 . S
Zn9 N25 2.119 1_554 S
Zn9 O30 2.019 . S
N10 Zn0 2.119 . S
N10 C12 1.334 . S
N10 C13 1.328 . S
C11 C12 1.391 . S
C11 N14 1.329 . S
C11 H32 0.930 . S
C12 N10 1.334 . S
C12 C11 1.391 . S
C12 H19 0.930 . S
C13 N10 1.328 . S
C13 C15 1.392 . S
C13 H20 0.930 . S
N14 C11 1.329 . S
N14 C15 1.331 . S
C15 C13 1.392 . S
C15 N14 1.331 . S
O16 Zn9 1.975 . S
O16 C17 1.252 . S
C17 O16 1.252 . S
C17 O18 1.252 . S
O18 Zn0 1.975 . S
O18 C17 1.252 . S
H19 C12 0.930 . S
H20 C13 0.930 . S
C21 C22 1.392 . S
C21 N25 1.328 . S
C21 H27 0.930 . S
C22 C21 1.392 . S
C22 N26 1.331 1_455 S
C23 C24 1.391 1_655 S
C23 N26 1.329 . S
C23 H33 0.930 . S
C24 C23 1.391 1_455 S
C24 N25 1.334 . S
C24 H31 0.930 1_556 S
N25 Zn9 2.119 1_556 S
N25 C21 1.328 . S
N25 C24 1.334 . S
N26 C22 1.331 1_655 S
N26 C23 1.329 . S
H27 C21 0.930 . S
C28 O8 1.257 1_655 S
C28 O29 1.244 . S
O29 C28 1.244 . S
O30 C6 1.257 . S
O30 Zn9 2.019 . S
H31 C24 0.930 1_554 S
H32 C11 0.930 . S
H33 C23 0.930 . S
Zn34 N38 2.020 . S
Zn34 O42 2.019 . S
Zn34 N44 2.119 . S
Zn34 O52 1.975 . S
C35 N36 1.334 . S
C35 N39 1.336 . S
N36 C35 1.334 . S
N36 C37 1.334 . S
C37 N36 1.334 . S
C37 N38 1.336 . S
N38 Zn34 2.020 . S
N38 C37 1.336 . S
N38 N39 1.354 . S
N39 C35 1.336 . S
N39 N38 1.354 . S
N39 Zn43 2.020 . S
C40 O41 1.244 . S
C40 O64 1.257 . S
O41 C40 1.244 . S
O42 Zn34 2.019 . S
O42 C62 1.257 . S
Zn43 N39 2.020 . S
Zn43 O50 1.975 . S
Zn43 N59 2.119 . S
Zn43 O64 2.019 . S
N44 Zn34 2.119 . S
N44 C46 1.334 . S
N44 C47 1.328 . S
C45 C46 1.391 . S
C45 N48 1.329 . S
C45 H66 0.930 1_655 S
C46 N44 1.334 . S
C46 C45 1.391 . S
C46 H53 0.930 . S
C47 N44 1.328 . S
C47 C49 1.392 . S
C47 H54 0.930 . S
N48 C45 1.329 . S
N48 C49 1.331 . S
C49 C47 1.392 . S
C49 N48 1.331 . S
O50 Zn43 1.975 . S
O50 C51 1.252 . S
C51 O50 1.252 . S
C51 O52 1.252 . S
O52 Zn34 1.975 . S
O52 C51 1.252 . S
H53 C46 0.930 . S
H54 C47 0.930 . S
C55 C56 1.392 . S
C55 N59 1.328 . S
C55 H61 0.930 . S
C56 C55 1.392 . S
C56 N60 1.331 . S
C57 C58 1.391 . S
C57 N60 1.329 . S
C57 H67 0.930 . S
C58 C57 1.391 . S
C58 N59 1.334 . S
C58 H65 0.930 . S
N59 Zn43 2.119 . S
N59 C55 1.328 . S
N59 C58 1.334 . S
N60 C56 1.331 . S
N60 C57 1.329 . S
H61 C55 0.930 . S
C62 O42 1.257 . S
C62 O63 1.244 . S
O63 C62 1.244 . S
O64 C40 1.257 . S
O64 Zn43 2.019 . S
H65 C58 0.930 . S
H66 C45 0.930 1_455 S
H67 C57 0.930 . S
Zn68 N72 2.020 . S
Zn68 O76 2.019 . S
Zn68 N78 2.119 . S
Zn68 O86 1.975 . S
C69 N70 1.334 . S
C69 N73 1.336 . S
N70 C69 1.334 . S
N70 C71 1.334 . S
C71 N70 1.334 . S
C71 N72 1.336 . S
N72 Zn68 2.020 . S
N72 C71 1.336 . S
N72 N73 1.354 . S
N73 C69 1.336 . S
N73 N72 1.354 . S
N73 Zn77 2.020 . S
C74 O75 1.244 . S
C74 O98 1.257 . S
O75 C74 1.244 . S
O76 Zn68 2.019 . S
O76 C96 1.257 . S
Zn77 N73 2.020 . S
Zn77 O84 1.975 . S
Zn77 N93 2.119 . S
Zn77 O98 2.019 . S
N78 Zn68 2.119 . S
N78 C80 1.334 . S
N78 C81 1.328 . S
C79 C80 1.391 . S
C79 N82 1.329 . S
C79 H100 0.930 . S
C80 N78 1.334 . S
C80 C79 1.391 . S
C80 H87 0.930 . S
C81 N78 1.328 . S
C81 C83 1.392 . S
C81 H88 0.930 . S
N82 C79 1.329 . S
N82 C83 1.331 . S
C83 C81 1.392 . S
C83 N82 1.331 . S
O84 Zn77 1.975 . S
O84 C85 1.252 . S
C85 O84 1.252 . S
C85 O86 1.252 . S
O86 Zn68 1.975 . S
O86 C85 1.252 . S
H87 C80 0.930 . S
H88 C81 0.930 . S
C89 C90 1.392 . S
C89 N93 1.328 . S
C89 H95 0.930 . S
C90 C89 1.392 . S
C90 N94 1.331 . S
C91 C92 1.391 . S
C91 N94 1.329 . S
C91 H101 0.930 . S
C92 C91 1.391 . S
C92 N93 1.334 . S
C92 H99 0.930 . S
N93 Zn77 2.119 . S
N93 C89 1.328 . S
N93 C92 1.334 . S
N94 C90 1.331 . S
N94 C91 1.329 . S
H95 C89 0.930 . S
C96 O76 1.257 . S
C96 O97 1.244 . S
O97 C96 1.244 . S
O98 C74 1.257 . S
O98 Zn77 2.019 . S
H99 C92 0.930 . S
H100 C79 0.930 . S
H101 C91 0.930 . S
Zn102 N106 2.020 . S
Zn102 O110 2.019 1_556 S
Zn102 N112 2.119 1_556 S
Zn102 O120 1.975 . S
C103 N104 1.334 . S
C103 N107 1.336 . S
N104 C103 1.334 . S
N104 C105 1.334 . S
C105 N104 1.334 . S
C105 N106 1.336 . S
N106 Zn102 2.020 . S
N106 C105 1.336 . S
N106 N107 1.354 . S
N107 C103 1.336 . S
N107 N106 1.354 . S
N107 Zn111 2.020 . S
C108 O109 1.244 . S
C108 O132 1.257 . S
O109 C108 1.244 . S
O110 Zn102 2.019 1_554 S
O110 C130 1.257 1_554 S
Zn111 N107 2.020 . S
Zn111 O118 1.975 . S
Zn111 N127 2.119 . S
Zn111 O132 2.019 . S
N112 Zn102 2.119 1_554 S
N112 C114 1.334 . S
N112 C115 1.328 . S
C113 C114 1.391 . S
C113 N116 1.329 . S
C113 H134 0.930 . S
C114 N112 1.334 . S
C114 C113 1.391 . S
C114 H121 0.930 1_554 S
C115 N112 1.328 . S
C115 C117 1.392 . S
C115 H122 0.930 . S
N116 C113 1.329 . S
N116 C117 1.331 . S
C117 C115 1.392 . S
C117 N116 1.331 . S
O118 Zn111 1.975 . S
O118 C119 1.252 . S
C119 O118 1.252 . S
C119 O120 1.252 . S
O120 Zn102 1.975 . S
O120 C119 1.252 . S
H121 C114 0.930 1_556 S
H122 C115 0.930 . S
C123 C124 1.392 . S
C123 N127 1.328 . S
C123 H129 0.930 . S
C124 C123 1.392 . S
C124 N128 1.331 . S
C125 C126 1.391 . S
C125 N128 1.329 . S
C125 H135 0.930 . S
C126 C125 1.391 . S
C126 N127 1.334 . S
C126 H133 0.930 . S
N127 Zn111 2.119 . S
N127 C123 1.328 . S
N127 C126 1.334 . S
N128 C124 1.331 . S
N128 C125 1.329 . S
H129 C123 0.930 . S
C130 O110 1.257 1_556 S
C130 O131 1.244 . S
O131 C130 1.244 . S
O132 C108 1.257 . S
O132 Zn111 2.019 . S
H133 C126 0.930 . S
H134 C113 0.930 . S
H135 C125 0.930 . S
Zn136 N140 2.020 . S
Zn136 O144 2.019 . S
Zn136 N146 2.119 . S
Zn136 O154 1.975 . S
C137 N138 1.334 . S
C137 N141 1.336 . S
N138 C137 1.334 . S
N138 C139 1.334 . S
C139 N138 1.334 . S
C139 N140 1.336 . S
N140 Zn136 2.020 . S
N140 C139 1.336 . S
N140 N141 1.354 . S
N141 C137 1.336 . S
N141 N140 1.354 . S
N141 Zn145 2.020 . S
C142 O143 1.244 . S
C142 O166 1.257 1_655 S
O143 C142 1.244 . S
O144 Zn136 2.019 . S
O144 C164 1.257 . S
Zn145 N141 2.020 . S
Zn145 O152 1.975 . S
Zn145 N161 2.119 . S
Zn145 O166 2.019 . S
N146 Zn136 2.119 . S
N146 C148 1.334 . S
N146 C149 1.328 . S
C147 C148 1.391 . S
C147 N150 1.329 . S
C147 H168 0.930 1_455 S
C148 N146 1.334 . S
C148 C147 1.391 . S
C148 H155 0.930 . S
C149 N146 1.328 . S
C149 C151 1.392 . S
C149 H156 0.930 . S
N150 C147 1.329 . S
N150 C151 1.331 . S
C151 C149 1.392 . S
C151 N150 1.331 . S
O152 Zn145 1.975 . S
O152 C153 1.252 . S
C153 O152 1.252 . S
C153 O154 1.252 . S
O154 Zn136 1.975 . S
O154 C153 1.252 . S
H155 C148 0.930 . S
H156 C149 0.930 . S
C157 C158 1.392 . S
C157 N161 1.328 . S
C157 H163 0.930 . S
C158 C157 1.392 . S
C158 N162 1.331 . S
C159 C160 1.391 . S
C159 N162 1.329 . S
C159 H169 0.930 . S
C160 C159 1.391 . S
C160 N161 1.334 . S
C160 H167 0.930 . S
N161 Zn145 2.119 . S
N161 C157 1.328 . S
N161 C160 1.334 . S
N162 C158 1.331 . S
N162 C159 1.329 . S
H163 C157 0.930 . S
C164 O144 1.257 . S
C164 O165 1.244 . S
O165 C164 1.244 . S
O166 C142 1.257 1_455 S
O166 Zn145 2.019 . S
H167 C160 0.930 . S
H168 C147 0.930 1_655 S
H169 C159 0.930 . S
Zn170 N174 2.020 . S
Zn170 O178 2.019 . S
Zn170 N180 2.119 . S
Zn170 O188 1.975 . S
C171 N172 1.334 . S
C171 N175 1.336 . S
N172 C171 1.334 . S
N172 C173 1.334 . S
C173 N172 1.334 . S
C173 N174 1.336 . S
N174 Zn170 2.020 . S
N174 C173 1.336 . S
N174 N175 1.354 . S
N175 C171 1.336 . S
N175 N174 1.354 . S
N175 Zn179 2.020 . S
C176 O177 1.244 . S
C176 O200 1.257 . S
O177 C176 1.244 . S
O178 Zn170 2.019 . S
O178 C198 1.257 . S
Zn179 N175 2.020 . S
Zn179 O186 1.975 . S
Zn179 N195 2.119 . S
Zn179 O200 2.019 . S
N180 Zn170 2.119 . S
N180 C182 1.334 . S
N180 C183 1.328 . S
C181 C182 1.391 . S
C181 N184 1.329 . S
C181 H202 0.930 . S
C182 N180 1.334 . S
C182 C181 1.391 . S
C182 H189 0.930 . S
C183 N180 1.328 . S
C183 C185 1.392 . S
C183 H190 0.930 . S
N184 C181 1.329 . S
N184 C185 1.331 . S
C185 C183 1.392 . S
C185 N184 1.331 . S
O186 Zn179 1.975 . S
O186 C187 1.252 . S
C187 O186 1.252 . S
C187 O188 1.252 . S
O188 Zn170 1.975 . S
O188 C187 1.252 . S
H189 C182 0.930 . S
H190 C183 0.930 . S
C191 C192 1.392 . S
C191 N195 1.328 . S
C191 H197 0.930 . S
C192 C191 1.392 . S
C192 N196 1.331 . S
C193 C194 1.391 . S
C193 N196 1.329 . S
C193 H203 0.930 . S
C194 C193 1.391 . S
C194 N195 1.334 . S
C194 H201 0.930 . S
N195 Zn179 2.119 . S
N195 C191 1.328 . S
N195 C194 1.334 . S
N196 C192 1.331 . S
N196 C193 1.329 . S
H197 C191 0.930 . S
C198 O178 1.257 . S
C198 O199 1.244 . S
O199 C198 1.244 . S
O200 C176 1.257 . S
O200 Zn179 2.019 . S
H201 C194 0.930 . S
H202 C181 0.930 . S
H203 C193 0.930 . S
Zn204 N208 2.020 . S
Zn204 O212 2.019 . S
Zn204 N214 2.119 1_556 S
Zn204 O222 1.975 . S
C205 N206 1.334 . S
C205 N209 1.336 . S
N206 C205 1.334 . S
N206 C207 1.334 . S
C207 N206 1.334 . S
C207 N208 1.336 . S
N208 Zn204 2.020 . S
N208 C207 1.336 . S
N208 N209 1.354 . S
N209 C205 1.336 . S
N209 N208 1.354 . S
N209 Zn213 2.020 . S
C210 O211 1.244 . S
C210 O234 1.257 . S
O211 C210 1.244 . S
O212 Zn204 2.019 . S
O212 C232 1.257 . S
Zn213 N209 2.020 . S
Zn213 O220 1.975 . S
Zn213 N229 2.119 . S
Zn213 O234 2.019 . S
N214 Zn204 2.119 1_554 S
N214 C216 1.334 . S
N214 C217 1.328 . S
C215 C216 1.391 . S
C215 N218 1.329 . S
C215 H236 0.930 . S
C216 N214 1.334 . S
C216 C215 1.391 . S
C216 H223 0.930 1_554 S
C217 N214 1.328 . S
C217 C219 1.392 . S
C217 H224 0.930 . S
N218 C215 1.329 . S
N218 C219 1.331 . S
C219 C217 1.392 . S
C219 N218 1.331 . S
O220 Zn213 1.975 . S
O220 C221 1.252 . S
C221 O220 1.252 . S
C221 O222 1.252 . S
O222 Zn204 1.975 . S
O222 C221 1.252 . S
H223 C216 0.930 1_556 S
H224 C217 0.930 . S
C225 C226 1.392 . S
C225 N229 1.328 . S
C225 H231 0.930 . S
C226 C225 1.392 . S
C226 N230 1.331 . S
C227 C228 1.391 . S
C227 N230 1.329 . S
C227 H237 0.930 . S
C228 C227 1.391 . S
C228 N229 1.334 . S
C228 H235 0.930 . S
N229 Zn213 2.119 . S
N229 C225 1.328 . S
N229 C228 1.334 . S
N230 C226 1.331 . S
N230 C227 1.329 . S
H231 C225 0.930 . S
C232 O212 1.257 . S
C232 O233 1.244 . S
O233 C232 1.244 . S
O234 C210 1.257 . S
O234 Zn213 2.019 . S
H235 C228 0.930 . S
H236 C215 0.930 . S
H237 C227 0.930 . S
Zn238 N242 2.020 . S
Zn238 O246 2.019 1_655 S
Zn238 N248 2.119 1_655 S
Zn238 O256 1.975 . S
C239 N240 1.334 1_554 S
C239 N243 1.336 . S
N240 C239 1.334 1_556 S
N240 C241 1.334 . S
C241 N240 1.334 . S
C241 N242 1.336 1_556 S
N242 Zn238 2.020 . S
N242 C241 1.336 1_554 S
N242 N243 1.354 . S
N243 C239 1.336 . S
N243 N242 1.354 . S
N243 Zn247 2.020 . S
C244 O245 1.243 . S
C244 O268 1.257 1_565 S
O245 C244 1.243 . S
O246 Zn238 2.019 1_455 S
O246 C266 1.257 . S
Zn247 N243 2.020 . S
Zn247 O254 1.975 . S
Zn247 N263 2.119 . S
Zn247 O268 2.019 . S
N248 Zn238 2.119 1_455 S
N248 C250 1.334 1_455 S
N248 C251 1.328 1_554 S
C249 C250 1.391 1_456 S
C249 N252 1.329 . S
C249 H270 0.930 1_545 S
C250 N248 1.334 1_655 S
C250 C249 1.391 1_654 S
C250 H257 0.930 . S
C251 N248 1.328 1_556 S
C251 C253 1.392 . S
C251 H258 0.930 . S
N252 C249 1.329 . S
N252 C253 1.331 . S
C253 C251 1.392 . S
C253 N252 1.331 . S
O254 Zn247 1.975 . S
O254 C255 1.252 . S
C255 O254 1.252 . S
C255 O256 1.252 . S
O256 Zn238 1.975 . S
O256 C255 1.252 . S
H257 C250 0.930 . S
H258 C251 0.930 . S
C259 C260 1.392 . S
C259 N263 1.328 . S
C259 H265 0.930 . S
C260 C259 1.392 . S
C260 N264 1.331 . S
C261 C262 1.391 . S
C261 N264 1.329 . S
C261 H271 0.930 . S
C262 C261 1.391 . S
C262 N263 1.334 . S
C262 H269 0.930 . S
N263 Zn247 2.119 . S
N263 C259 1.328 . S
N263 C262 1.334 . S
N264 C260 1.331 . S
N264 C261 1.329 . S
H265 C259 0.930 . S
C266 O246 1.257 . S
C266 O267 1.244 1_455 S
O267 C266 1.244 1_655 S
O268 C244 1.257 1_545 S
O268 Zn247 2.019 . S
H269 C262 0.930 . S
H270 C249 0.930 1_565 S
H271 C261 0.930 . S
Zn272 N276 2.020 . S
Zn272 O280 2.019 . S
Zn272 N282 2.119 1_556 S
Zn272 O290 1.975 . S
C273 N274 1.334 . S
C273 N277 1.336 . S
N274 C273 1.334 . S
N274 C275 1.334 . S
C275 N274 1.334 . S
C275 N276 1.336 . S
N276 Zn272 2.020 . S
N276 C275 1.336 . S
N276 N277 1.354 . S
N277 C273 1.336 . S
N277 N276 1.354 . S
N277 Zn281 2.020 . S
C278 O279 1.244 . S
C278 O302 1.257 1_455 S
O279 C278 1.244 . S
O280 Zn272 2.019 . S
O280 C300 1.257 . S
Zn281 N277 2.020 . S
Zn281 O288 1.975 . S
Zn281 N297 2.119 . S
Zn281 O302 2.019 . S
N282 Zn272 2.119 1_554 S
N282 C284 1.334 . S
N282 C285 1.328 . S
C283 C284 1.391 1_455 S
C283 N286 1.329 . S
C283 H304 0.930 . S
C284 N282 1.334 . S
C284 C283 1.391 1_655 S
C284 H291 0.930 1_554 S
C285 N282 1.328 . S
C285 C287 1.392 . S
C285 H292 0.930 . S
N286 C283 1.329 . S
N286 C287 1.331 1_455 S
C287 C285 1.392 . S
C287 N286 1.331 1_655 S
O288 Zn281 1.975 . S
O288 C289 1.252 . S
C289 O288 1.252 . S
C289 O290 1.252 . S
O290 Zn272 1.975 . S
O290 C289 1.252 . S
H291 C284 0.930 1_556 S
H292 C285 0.930 . S
C293 C294 1.392 . S
C293 N297 1.328 . S
C293 H299 0.930 . S
C294 C293 1.392 . S
C294 N298 1.331 . S
C295 C296 1.391 . S
C295 N298 1.329 . S
C295 H305 0.930 . S
C296 C295 1.391 . S
C296 N297 1.334 . S
C296 H303 0.930 . S
N297 Zn281 2.119 . S
N297 C293 1.328 . S
N297 C296 1.334 . S
N298 C294 1.331 . S
N298 C295 1.329 . S
H299 C293 0.930 . S
C300 O280 1.257 . S
C300 O301 1.244 . S
O301 C300 1.244 . S
O302 C278 1.257 1_655 S
O302 Zn281 2.019 . S
H303 C296 0.930 . S
H304 C283 0.930 . S
H305 C295 0.930 . S
Zn306 N310 2.020 . S
Zn306 O314 2.019 . S
Zn306 N316 2.119 . S
Zn306 O324 1.975 . S
C307 N308 1.334 . S
C307 N311 1.336 . S
N308 C307 1.334 . S
N308 C309 1.334 . S
C309 N308 1.334 . S
C309 N310 1.336 . S
N310 Zn306 2.020 . S
N310 C309 1.336 . S
N310 N311 1.354 . S
N311 C307 1.336 . S
N311 N310 1.354 . S
N311 Zn315 2.020 . S
C312 O313 1.244 . S
C312 O336 1.257 . S
O313 C312 1.244 . S
O314 Zn306 2.019 . S
O314 C334 1.257 . S
Zn315 N311 2.020 . S
Zn315 O322 1.975 . S
Zn315 N331 2.119 . S
Zn315 O336 2.019 . S
N316 Zn306 2.119 . S
N316 C318 1.334 . S
N316 C319 1.328 . S
C317 C318 1.391 . S
C317 N320 1.329 . S
C317 H338 0.930 1_455 S
C318 N316 1.334 . S
C318 C317 1.391 . S
C318 H325 0.930 . S
C319 N316 1.328 . S
C319 C321 1.392 . S
C319 H326 0.930 . S
N320 C317 1.329 . S
N320 C321 1.331 . S
C321 C319 1.392 . S
C321 N320 1.331 . S
O322 Zn315 1.975 . S
O322 C323 1.252 . S
C323 O322 1.252 . S
C323 O324 1.252 . S
O324 Zn306 1.975 . S
O324 C323 1.252 . S
H325 C318 0.930 . S
H326 C319 0.930 . S
C327 C328 1.392 . S
C327 N331 1.328 . S
C327 H333 0.930 . S
C328 C327 1.392 . S
C328 N332 1.331 . S
C329 C330 1.391 . S
C329 N332 1.329 . S
C329 H339 0.930 . S
C330 C329 1.391 . S
C330 N331 1.334 . S
C330 H337 0.930 . S
N331 Zn315 2.119 . S
N331 C327 1.328 . S
N331 C330 1.334 . S
N332 C328 1.331 . S
N332 C329 1.329 . S
H333 C327 0.930 . S
C334 O314 1.257 . S
C334 O335 1.244 . S
O335 C334 1.244 . S
O336 C312 1.257 . S
O336 Zn315 2.019 . S
H337 C330 0.930 . S
H338 C317 0.930 1_655 S
H339 C329 0.930 . S
Zn340 N344 2.020 . S
Zn340 O348 2.019 . S
Zn340 N350 2.119 . S
Zn340 O358 1.975 . S
C341 N342 1.334 . S
C341 N345 1.336 . S
N342 C341 1.334 . S
N342 C343 1.334 . S
C343 N342 1.334 . S
C343 N344 1.336 . S
N344 Zn340 2.020 . S
N344 C343 1.336 . S
N344 N345 1.354 . S
N345 C341 1.336 . S
N345 N344 1.354 . S
N345 Zn349 2.020 . S
C346 O347 1.244 . S
C346 O370 1.257 . S
O347 C346 1.244 . S
O348 Zn340 2.019 . S
O348 C368 1.257 . S
Zn349 N345 2.020 . S
Zn349 O356 1.975 . S
Zn349 N365 2.119 . S
Zn349 O370 2.019 . S
N350 Zn340 2.119 . S
N350 C352 1.334 . S
N350 C353 1.328 . S
C351 C352 1.391 . S
C351 N354 1.329 . S
C351 H372 0.930 . S
C352 N350 1.334 . S
C352 C351 1.391 . S
C352 H359 0.930 . S
C353 N350 1.328 . S
C353 C355 1.392 . S
C353 H360 0.930 . S
N354 C351 1.329 . S
N354 C355 1.331 . S
C355 C353 1.392 . S
C355 N354 1.331 . S
O356 Zn349 1.975 . S
O356 C357 1.252 . S
C357 O356 1.252 . S
C357 O358 1.252 . S
O358 Zn340 1.975 . S
O358 C357 1.252 . S
H359 C352 0.930 . S
H360 C353 0.930 . S
C361 C362 1.392 . S
C361 N365 1.328 . S
C361 H367 0.930 . S
C362 C361 1.392 . S
C362 N366 1.331 . S
C363 C364 1.391 . S
C363 N366 1.329 . S
C363 H373 0.930 . S
C364 C363 1.391 . S
C364 N365 1.334 . S
C364 H371 0.930 . S
N365 Zn349 2.119 . S
N365 C361 1.328 . S
N365 C364 1.334 . S
N366 C362 1.331 . S
N366 C363 1.329 . S
H367 C361 0.930 . S
C368 O348 1.257 . S
C368 O369 1.244 . S
O369 C368 1.244 . S
O370 C346 1.257 . S
O370 Zn349 2.019 . S
H371 C364 0.930 . S
H372 C351 0.930 . S
H373 C363 0.930 . S
Zn374 N378 2.020 . S
Zn374 O382 2.019 . S
Zn374 N384 2.119 . S
Zn374 O392 1.975 . S
C375 N376 1.334 . S
C375 N379 1.336 . S
N376 C375 1.334 . S
N376 C377 1.334 . S
C377 N376 1.334 . S
C377 N378 1.336 . S
N378 Zn374 2.020 . S
N378 C377 1.336 . S
N378 N379 1.354 . S
N379 C375 1.336 . S
N379 N378 1.354 . S
N379 Zn383 2.020 . S
C380 O381 1.244 . S
C380 O404 1.257 1_554 S
O381 C380 1.244 . S
O382 Zn374 2.019 . S
O382 C402 1.257 . S
Zn383 N379 2.020 . S
Zn383 O390 1.975 . S
Zn383 N399 2.119 1_554 S
Zn383 O404 2.019 1_554 S
N384 Zn374 2.119 . S
N384 C386 1.334 . S
N384 C387 1.328 . S
C385 C386 1.391 . S
C385 N388 1.329 . S
C385 H406 0.930 . S
C386 N384 1.334 . S
C386 C385 1.391 . S
C386 H393 0.930 . S
C387 N384 1.328 . S
C387 C389 1.392 . S
C387 H394 0.930 . S
N388 C385 1.329 . S
N388 C389 1.331 . S
C389 C387 1.392 . S
C389 N388 1.331 . S
O390 Zn383 1.975 . S
O390 C391 1.252 . S
C391 O390 1.252 . S
C391 O392 1.252 . S
O392 Zn374 1.975 . S
O392 C391 1.252 . S
H393 C386 0.930 . S
H394 C387 0.930 . S
C395 C396 1.392 . S
C395 N399 1.328 . S
C395 H401 0.930 . S
C396 C395 1.392 . S
C396 N400 1.331 . S
C397 C398 1.391 . S
C397 N400 1.329 . S
C397 H407 0.930 . S
C398 C397 1.391 . S
C398 N399 1.334 . S
C398 H405 0.930 1_556 S
N399 Zn383 2.119 1_556 S
N399 C395 1.328 . S
N399 C398 1.334 . S
N400 C396 1.331 . S
N400 C397 1.329 . S
H401 C395 0.930 . S
C402 O382 1.257 . S
C402 O403 1.244 . S
O403 C402 1.244 . S
O404 C380 1.257 1_556 S
O404 Zn383 2.019 1_556 S
H405 C398 0.930 1_554 S
H406 C385 0.930 . S
H407 C397 0.930 . S
Zn408 N412 2.020 . S
Zn408 O416 2.019 . S
Zn408 N418 2.119 . S
Zn408 O426 1.975 . S
C409 N410 1.334 . S
C409 N413 1.336 . S
N410 C409 1.334 . S
N410 C411 1.334 . S
C411 N410 1.334 . S
C411 N412 1.336 . S
N412 Zn408 2.020 . S
N412 C411 1.336 . S
N412 N413 1.354 . S
N413 C409 1.336 . S
N413 N412 1.354 . S
N413 Zn417 2.020 . S
C414 O415 1.244 . S
C414 O438 1.257 . S
O415 C414 1.244 . S
O416 Zn408 2.019 . S
O416 C436 1.257 1_655 S
Zn417 N413 2.020 . S
Zn417 O424 1.975 . S
Zn417 N433 2.119 . S
Zn417 O438 2.019 . S
N418 Zn408 2.119 . S
N418 C420 1.334 . S
N418 C421 1.328 . S
C419 C420 1.391 . S
C419 N422 1.329 . S
C419 H440 0.930 . S
C420 N418 1.334 . S
C420 C419 1.391 . S
C420 H427 0.930 . S
C421 N418 1.328 . S
C421 C423 1.392 . S
C421 H428 0.930 . S
N422 C419 1.329 . S
N422 C423 1.331 . S
C423 C421 1.392 . S
C423 N422 1.331 . S
O424 Zn417 1.975 . S
O424 C425 1.252 . S
C425 O424 1.252 . S
C425 O426 1.252 . S
O426 Zn408 1.975 . S
O426 C425 1.252 . S
H427 C420 0.930 . S
H428 C421 0.930 . S
C429 C430 1.392 . S
C429 N433 1.328 . S
C429 H435 0.930 . S
C430 C429 1.392 . S
C430 N434 1.331 . S
C431 C432 1.391 . S
C431 N434 1.329 . S
C431 H441 0.930 1_655 S
C432 C431 1.391 . S
C432 N433 1.334 . S
C432 H439 0.930 . S
N433 Zn417 2.119 . S
N433 C429 1.328 . S
N433 C432 1.334 . S
N434 C430 1.331 . S
N434 C431 1.329 . S
H435 C429 0.930 . S
C436 O416 1.257 1_455 S
C436 O437 1.244 . S
O437 C436 1.244 . S
O438 C414 1.257 . S
O438 Zn417 2.019 . S
H439 C432 0.930 . S
H440 C419 0.930 . S
H441 C431 0.930 1_455 S
Zn442 N446 2.020 . S
Zn442 O450 2.019 . S
Zn442 N452 2.119 . S
Zn442 O460 1.975 . S
C443 N444 1.334 . S
C443 N447 1.336 . S
N444 C443 1.334 . S
N444 C445 1.334 . S
C445 N444 1.334 . S
C445 N446 1.336 . S
N446 Zn442 2.020 . S
N446 C445 1.336 . S
N446 N447 1.354 . S
N447 C443 1.336 . S
N447 N446 1.354 . S
N447 Zn451 2.020 . S
C448 O449 1.244 . S
C448 O472 1.257 . S
O449 C448 1.244 . S
O450 Zn442 2.019 . S
O450 C470 1.257 . S
Zn451 N447 2.020 . S
Zn451 O458 1.975 . S
Zn451 N467 2.119 . S
Zn451 O472 2.019 . S
N452 Zn442 2.119 . S
N452 C454 1.334 . S
N452 C455 1.328 . S
C453 C454 1.391 . S
C453 N456 1.329 . S
C453 H474 0.930 . S
C454 N452 1.334 . S
C454 C453 1.391 . S
C454 H461 0.930 . S
C455 N452 1.328 . S
C455 C457 1.392 . S
C455 H462 0.930 . S
N456 C453 1.329 . S
N456 C457 1.331 . S
C457 C455 1.392 . S
C457 N456 1.331 . S
O458 Zn451 1.975 . S
O458 C459 1.252 . S
C459 O458 1.252 . S
C459 O460 1.252 . S
O460 Zn442 1.975 . S
O460 C459 1.252 . S
H461 C454 0.930 . S
H462 C455 0.930 . S
C463 C464 1.392 . S
C463 N467 1.328 . S
C463 H469 0.930 . S
C464 C463 1.392 . S
C464 N468 1.331 . S
C465 C466 1.391 . S
C465 N468 1.329 . S
C465 H475 0.930 . S
C466 C465 1.391 . S
C466 N467 1.334 . S
C466 H473 0.930 . S
N467 Zn451 2.119 . S
N467 C463 1.328 . S
N467 C466 1.334 . S
N468 C464 1.331 . S
N468 C465 1.329 . S
H469 C463 0.930 . S
C470 O450 1.257 . S
C470 O471 1.244 . S
O471 C470 1.244 . S
O472 C448 1.257 . S
O472 Zn451 2.019 . S
H473 C466 0.930 . S
H474 C453 0.930 . S
H475 C465 0.930 . S
Zn476 N480 2.020 . S
Zn476 O484 2.019 . S
Zn476 N486 2.119 1_554 S
Zn476 O494 1.975 . S
C477 N478 1.334 . S
C477 N481 1.336 . S
N478 C477 1.334 . S
N478 C479 1.334 . S
C479 N478 1.334 . S
C479 N480 1.336 . S
N480 Zn476 2.020 . S
N480 C479 1.336 . S
N480 N481 1.354 . S
N481 C477 1.336 . S
N481 N480 1.354 . S
N481 Zn485 2.020 . S
C482 O483 1.244 . S
C482 O506 1.257 . S
O483 C482 1.244 . S
O484 Zn476 2.019 . S
O484 C504 1.257 . S
Zn485 N481 2.020 . S
Zn485 O492 1.975 . S
Zn485 N501 2.119 . S
Zn485 O506 2.019 . S
N486 Zn476 2.119 1_556 S
N486 C488 1.334 . S
N486 C489 1.328 . S
C487 C488 1.391 . S
C487 N490 1.329 . S
C487 H508 0.930 . S
C488 N486 1.334 . S
C488 C487 1.391 . S
C488 H495 0.930 1_556 S
C489 N486 1.328 . S
C489 C491 1.392 . S
C489 H496 0.930 . S
N490 C487 1.329 . S
N490 C491 1.331 . S
C491 C489 1.392 . S
C491 N490 1.331 . S
O492 Zn485 1.975 . S
O492 C493 1.252 . S
C493 O492 1.252 . S
C493 O494 1.252 . S
O494 Zn476 1.975 . S
O494 C493 1.252 . S
H495 C488 0.930 1_554 S
H496 C489 0.930 . S
C497 C498 1.392 . S
C497 N501 1.328 . S
C497 H503 0.930 . S
C498 C497 1.392 . S
C498 N502 1.331 . S
C499 C500 1.391 . S
C499 N502 1.329 . S
C499 H509 0.930 . S
C500 C499 1.391 . S
C500 N501 1.334 . S
C500 H507 0.930 . S
N501 Zn485 2.119 . S
N501 C497 1.328 . S
N501 C500 1.334 . S
N502 C498 1.331 . S
N502 C499 1.329 . S
H503 C497 0.930 . S
C504 O484 1.257 . S
C504 O505 1.244 . S
O505 C504 1.244 . S
O506 C482 1.257 . S
O506 Zn485 2.019 . S
H507 C500 0.930 . S
H508 C487 0.930 . S
H509 C499 0.930 . S
Zn510 N514 2.020 . S
Zn510 O518 2.019 1_455 S
Zn510 N520 2.119 1_455 S
Zn510 O528 1.975 . S
C511 N512 1.334 1_556 S
C511 N515 1.336 . S
N512 C511 1.334 1_554 S
N512 C513 1.334 . S
C513 N512 1.334 . S
C513 N514 1.336 1_554 S
N514 Zn510 2.020 . S
N514 C513 1.336 1_556 S
N514 N515 1.354 . S
N515 C511 1.336 . S
N515 N514 1.354 . S
N515 Zn519 2.020 . S
C516 O517 1.243 . S
C516 O540 1.257 1_545 S
O517 C516 1.243 . S
O518 Zn510 2.019 1_655 S
O518 C538 1.257 . S
Zn519 N515 2.020 . S
Zn519 O526 1.975 . S
Zn519 N535 2.119 . S
Zn519 O540 2.019 . S
N520 Zn510 2.119 1_655 S
N520 C522 1.334 1_655 S
N520 C523 1.328 1_556 S
C521 C522 1.391 1_654 S
C521 N524 1.329 . S
C521 H542 0.930 1_565 S
C522 N520 1.334 1_455 S
C522 C521 1.391 1_456 S
C522 H529 0.930 . S
C523 N520 1.328 1_554 S
C523 C525 1.392 . S
C523 H530 0.930 . S
N524 C521 1.329 . S
N524 C525 1.331 . S
C525 C523 1.392 . S
C525 N524 1.331 . S
O526 Zn519 1.975 . S
O526 C527 1.252 . S
C527 O526 1.252 . S
C527 O528 1.252 . S
O528 Zn510 1.975 . S
O528 C527 1.252 . S
H529 C522 0.930 . S
H530 C523 0.930 . S
C531 C532 1.392 . S
C531 N535 1.328 . S
C531 H537 0.930 . S
C532 C531 1.392 . S
C532 N536 1.331 . S
C533 C534 1.391 . S
C533 N536 1.329 . S
C533 H543 0.930 . S
C534 C533 1.391 . S
C534 N535 1.334 . S
C534 H541 0.930 . S
N535 Zn519 2.119 . S
N535 C531 1.328 . S
N535 C534 1.334 . S
N536 C532 1.331 . S
N536 C533 1.329 . S
H537 C531 0.930 . S
C538 O518 1.257 . S
C538 O539 1.244 1_655 S
O539 C538 1.244 1_455 S
O540 C516 1.257 1_565 S
O540 Zn519 2.019 . S
H541 C534 0.930 . S
H542 C521 0.930 1_545 S
H543 C533 0.930 . S
C266 C28 2.006 1_455 S
C142 C40 0.456 . S
C176 C96 2.006 . S
C210 C108 0.456 . S
C278 C538 2.006 1_455 S
C312 C436 0.456 . S
C470 C368 2.006 . S
C482 C402 0.456 . S
C232 C6 2.445 1_556 S
C37 C244 1.305 . S
C164 C69 2.230 . S
C173 C105 1.679 1_565 S
C300 C504 2.445 1_556 S
C516 C309 1.305 . S
C341 C414 2.230 . S
C375 C443 1.679 1_565 S
C62 C198 2.445 . S
C207 C74 1.305 . S
C130 C239 2.230 1_556 S
C139 C1 1.679 . S
C448 C334 2.445 . S
C346 C479 1.305 . S
C511 C380 2.230 1_556 S
C275 C409 1.679 . S
C328 C17 2.773 1_556 S
C525 C35 1.921 . S
C71 C389 2.059 . S
C464 C103 2.599 . S
C532 C153 3.168 . S
C396 C171 3.129 . S
C221 C457 2.753 1_556 S
C255 C321 2.841 1_655 S
C56 C289 2.773 1_554 S
C307 C253 1.921 . S
C124 C343 2.059 . S
C377 C185 2.599 . S
C260 C425 3.168 . S
C117 C445 3.129 . S
C493 C192 2.753 1_554 S
C49 C527 2.841 1_655 S
C498 C187 2.773 . S
C355 C205 1.921 . S
C241 C423 2.059 . S
C137 C287 2.599 1_455 S
C362 C119 3.168 1_554 S
C430 C3 3.129 1_655 S
C294 C51 2.753 . S
C491 C85 2.841 . S
C226 C459 2.773 . S
C83 C477 1.921 . S
C158 C513 2.059 . S
C22 C411 2.599 1_455 S
C90 C391 3.168 1_556 S
C273 C151 3.129 1_655 S
C15 C323 2.753 . S
C219 C357 2.841 . S
