# Generated by pormake.
# Topology wkc, (5)-cn, num edge types: 1
# Building blocks:
#     Node 0, Type 0, BuildingBlock: XOMCOT_clean_sbu_0, # of connection points: 5
#     Node 1, Type 0, BuildingBlock: XOMCOT_clean_sbu_0, # of connection points: 5
#     Node 2, Type 0, BuildingBlock: XOMCOT_clean_sbu_0, # of connection points: 5
#     Node 3, Type 0, BuildingBlock: XOMCOT_clean_sbu_0, # of connection points: 5
#     Node 4, Type 0, BuildingBlock: XOMCOT_clean_sbu_0, # of connection points: 5
#     Node 5, Type 0, BuildingBlock: XOMCOT_clean_sbu_0, # of connection points: 5
#     Node 6, Type 0, BuildingBlock: XOMCOT_clean_sbu_0, # of connection points: 5
#     Node 7, Type 0, BuildingBlock: XOMCOT_clean_sbu_0, # of connection points: 5
#     Node 8, Type 0, BuildingBlock: XOMCOT_clean_sbu_0, # of connection points: 5
#     Node 9, Type 0, BuildingBlock: XOMCOT_clean_sbu_0, # of connection points: 5
#     Node 10, Type 0, BuildingBlock: XOMCOT_clean_sbu_0, # of connection points: 5
#     Node 11, Type 0, BuildingBlock: XOMCOT_clean_sbu_0, # of connection points: 5
#     Edge 12, Type (0, 0), BuildingBlock: UVAHIK_clean_linker_0, # of connection points: 2
#     Edge 13, Type (0, 0), BuildingBlock: UVAHIK_clean_linker_0, # of connection points: 2
#     Edge 14, Type (0, 0), BuildingBlock: UVAHIK_clean_linker_0, # of connection points: 2
#     Edge 15, Type (0, 0), BuildingBlock: UVAHIK_clean_linker_0, # of connection points: 2
#     Edge 16, Type (0, 0), BuildingBlock: UVAHIK_clean_linker_0, # of connection points: 2
#     Edge 17, Type (0, 0), BuildingBlock: UVAHIK_clean_linker_0, # of connection points: 2
#     Edge 18, Type (0, 0), BuildingBlock: UVAHIK_clean_linker_0, # of connection points: 2
#     Edge 19, Type (0, 0), BuildingBlock: UVAHIK_clean_linker_0, # of connection points: 2
#     Edge 20, Type (0, 0), BuildingBlock: UVAHIK_clean_linker_0, # of connection points: 2
#     Edge 21, Type (0, 0), BuildingBlock: UVAHIK_clean_linker_0, # of connection points: 2
#     Edge 22, Type (0, 0), BuildingBlock: UVAHIK_clean_linker_0, # of connection points: 2
#     Edge 23, Type (0, 0), BuildingBlock: UVAHIK_clean_linker_0, # of connection points: 2
#     Edge 24, Type (0, 0), BuildingBlock: UVAHIK_clean_linker_0, # of connection points: 2
#     Edge 25, Type (0, 0), BuildingBlock: UVAHIK_clean_linker_0, # of connection points: 2
#     Edge 26, Type (0, 0), BuildingBlock: UVAHIK_clean_linker_0, # of connection points: 2
#     Edge 27, Type (0, 0), BuildingBlock: UVAHIK_clean_linker_0, # of connection points: 2
#     Edge 28, Type (0, 0), BuildingBlock: UVAHIK_clean_linker_0, # of connection points: 2
#     Edge 29, Type (0, 0), BuildingBlock: UVAHIK_clean_linker_0, # of connection points: 2
#     Edge 30, Type (0, 0), BuildingBlock: UVAHIK_clean_linker_0, # of connection points: 2
#     Edge 31, Type (0, 0), BuildingBlock: UVAHIK_clean_linker_0, # of connection points: 2
#     Edge 32, Type (0, 0), BuildingBlock: UVAHIK_clean_linker_0, # of connection points: 2
#     Edge 33, Type (0, 0), BuildingBlock: UVAHIK_clean_linker_0, # of connection points: 2
#     Edge 34, Type (0, 0), BuildingBlock: UVAHIK_clean_linker_0, # of connection points: 2
#     Edge 35, Type (0, 0), BuildingBlock: UVAHIK_clean_linker_0, # of connection points: 2
#     Edge 36, Type (0, 0), BuildingBlock: UVAHIK_clean_linker_0, # of connection points: 2
#     Edge 37, Type (0, 0), BuildingBlock: UVAHIK_clean_linker_0, # of connection points: 2
#     Edge 38, Type (0, 0), BuildingBlock: UVAHIK_clean_linker_0, # of connection points: 2
#     Edge 39, Type (0, 0), BuildingBlock: UVAHIK_clean_linker_0, # of connection points: 2
#     Edge 40, Type (0, 0), BuildingBlock: UVAHIK_clean_linker_0, # of connection points: 2
#     Edge 41, Type (0, 0), BuildingBlock: UVAHIK_clean_linker_0, # of connection points: 2
# Relax obj value: 0.255
# Max RMSD: 0.223
# Mean RMSD: 0.223
data_MOF--net-wkc--node1-XOMCOT_clean_sbu_0--edge1-UVAHIK_clean_linker_0
_symmetry_space_group_name_H-M    P1
_symmetry_Int_Tables_number       1
_symmetry_cell_setting            triclinic
loop_
_symmetry_equiv_pos_as_xyz
'x, y, z'
_cell_length_a     49.151437
_cell_length_b     49.161068
_cell_length_c     57.751935
_cell_angle_alpha  90.032494
_cell_angle_beta   90.003352
_cell_angle_gamma 119.94877
loop_
_atom_site_label
_atom_site_type_symbol
_atom_site_fract_x
_atom_site_fract_y
_atom_site_fract_z
_atom_type_partial_charge
Co0 Co 0.25929 0.42551 0.00118 0.0
C1 C 0.26331 0.37765 0.97377 0.0
C2 C 0.22156 0.37914 0.96526 0.0
C3 C 0.22339 0.35751 0.95101 0.0
N4 N 0.24663 0.3916 0.97946 0.0
N5 N 0.24966 0.35665 0.95649 0.0
H6 H 0.28565 0.3837 0.98156 0.0
H7 H 0.20369 0.38585 0.96492 0.0
C8 C 0.20462 0.40853 0.03183 0.0
O9 O 0.22493 0.42019 0.04891 0.0
N10 N 0.27234 0.46057 0.02251 0.0
C11 C 0.29486 0.47189 0.039 0.0
C12 C 0.29517 0.49705 0.04968 0.0
C13 C 0.26002 0.47975 0.02301 0.0
N14 N 0.27324 0.50188 0.03963 0.0
C15 C 0.29664 0.40873 0.02937 0.0
C16 C 0.24785 0.35672 0.05025 0.0
C17 C 0.2786 0.36753 0.05804 0.0
C18 C 0.30323 0.39305 0.04658 0.0
C19 C 0.24237 0.37307 0.03274 0.0
N20 N 0.26643 0.4004 0.02401 0.0
H21 H 0.31606 0.42832 0.02084 0.0
H22 H 0.2187 0.3637 0.02645 0.0
H23 H 0.31045 0.46323 0.04324 0.0
H24 H 0.24114 0.47697 0.01181 0.0
O25 O 0.30027 0.44651 0.98725 0.0
O26 O 0.26049 0.45281 0.97641 0.0
O27 O 0.21405 0.40786 0.01128 0.0
C28 C 0.28971 0.46022 0.97371 0.0
H29 H 0.2068 0.34364 0.93763 0.0
H30 H 0.3107 0.51104 0.06355 0.0
H31 H 0.22811 0.33637 0.05797 0.0
H32 H 0.32749 0.40117 0.05107 0.0
Co33 Co 0.82596 0.24988 0.16692 0.0
C34 C 0.88073 0.26151 0.13738 0.0
C35 C 0.83668 0.22902 0.12199 0.0
C36 C 0.86021 0.23504 0.10637 0.0
N37 N 0.84955 0.24538 0.14159 0.0
N38 N 0.88796 0.25566 0.11605 0.0
H39 H 0.89788 0.27786 0.14923 0.0
H40 H 0.81172 0.21456 0.11897 0.0
C41 C 0.80646 0.18187 0.16675 0.0
O42 O 0.83557 0.19017 0.16144 0.0
N43 N 0.80191 0.25459 0.19134 0.0
C44 C 0.81304 0.27363 0.20992 0.0
C45 C 0.78801 0.27108 0.22239 0.0
C46 C 0.77042 0.24107 0.19249 0.0
N47 N 0.76129 0.25072 0.21135 0.0
C48 C 0.88364 0.27628 0.19287 0.0
C49 C 0.86283 0.22981 0.22613 0.0
C50 C 0.89303 0.25581 0.22816 0.0
C51 C 0.90348 0.27917 0.21117 0.0
C52 C 0.84392 0.22766 0.20741 0.0
N53 N 0.85469 0.25016 0.19049 0.0
H54 H 0.89103 0.29602 0.1814 0.0
H55 H 0.8199 0.20883 0.20759 0.0
H56 H 0.83762 0.28889 0.21386 0.0
H57 H 0.75461 0.22491 0.17961 0.0
O58 O 0.84607 0.29428 0.16077 0.0
O59 O 0.80189 0.25818 0.14432 0.0
O60 O 0.79843 0.20279 0.16916 0.0
C61 C 0.82326 0.28765 0.14636 0.0
H62 H 0.85691 0.22598 0.08889 0.0
H63 H 0.78941 0.2842 0.23784 0.0
H64 H 0.8535 0.21172 0.23931 0.0
H65 H 0.92611 0.30037 0.21271 0.0
Co66 Co 0.57345 0.83483 0.33599 0.0
C67 C 0.61912 0.88334 0.30541 0.0
C68 C 0.62234 0.84152 0.30278 0.0
C69 C 0.64367 0.86371 0.28769 0.0
N70 N 0.6071 0.85405 0.31382 0.0
N71 N 0.64155 0.89006 0.2893 0.0
H72 H 0.6108 0.89899 0.31071 0.0
H73 H 0.61802 0.81789 0.30525 0.0
C74 C 0.58777 0.79465 0.3665 0.0
O75 O 0.57694 0.80367 0.3839 0.0
N76 N 0.53883 0.81538 0.35783 0.0
C77 C 0.52732 0.82912 0.37198 0.0
C78 C 0.50019 0.80626 0.38208 0.0
C79 C 0.51803 0.7843 0.35927 0.0
N80 N 0.49439 0.77814 0.37407 0.0
C81 C 0.59473 0.89073 0.36332 0.0
C82 C 0.64453 0.88938 0.38431 0.0
C83 C 0.63652 0.91163 0.39163 0.0
C84 C 0.61205 0.91295 0.38027 0.0
C85 C 0.62678 0.86786 0.36706 0.0
N86 N 0.60048 0.86693 0.35827 0.0
H87 H 0.57619 0.89237 0.35461 0.0
H88 H 0.63444 0.85209 0.36088 0.0
H89 H 0.53671 0.8539 0.37436 0.0
H90 H 0.51964 0.76669 0.34905 0.0
O91 O 0.55365 0.85611 0.32188 0.0
O92 O 0.54495 0.8089 0.31182 0.0
O93 O 0.58887 0.80543 0.34614 0.0
C94 C 0.53873 0.83147 0.30879 0.0
H95 H 0.65933 0.8604 0.27638 0.0
H96 H 0.48554 0.81011 0.39409 0.0
H97 H 0.66436 0.88866 0.39181 0.0
H98 H 0.60563 0.93036 0.38492 0.0
Co99 Co 0.7461 0.57516 0.50169 0.0
C100 C 0.73336 0.61723 0.47195 0.0
C101 C 0.76856 0.60869 0.45766 0.0
C102 C 0.76215 0.62573 0.44187 0.0
N103 N 0.75079 0.60368 0.47669 0.0
N104 N 0.73983 0.63098 0.45085 0.0
H105 H 0.71549 0.61621 0.48317 0.0
H106 H 0.78421 0.59944 0.45506 0.0
C107 C 0.81401 0.62402 0.50263 0.0
O108 O 0.80552 0.64496 0.49827 0.0
N109 N 0.74126 0.54604 0.52581 0.0
C110 C 0.72204 0.53769 0.5443 0.0
C111 C 0.72453 0.51495 0.55644 0.0
C112 C 0.75483 0.52809 0.5267 0.0
N113 N 0.74503 0.50888 0.54529 0.0
C114 C 0.71822 0.60504 0.5276 0.0
C115 C 0.76449 0.63191 0.56095 0.0
C116 C 0.73789 0.63524 0.56292 0.0
C117 C 0.71458 0.62154 0.54588 0.0
C118 C 0.76711 0.6151 0.54245 0.0
N119 N 0.74478 0.60291 0.52542 0.0
H120 H 0.69869 0.59242 0.51599 0.0
H121 H 0.78634 0.61048 0.54279 0.0
H122 H 0.70667 0.54686 0.54837 0.0
H123 H 0.77113 0.52875 0.5138 0.0
O124 O 0.70185 0.55052 0.49487 0.0
O125 O 0.73884 0.54349 0.47875 0.0
O126 O 0.79319 0.59499 0.5044 0.0
C127 C 0.70922 0.53495 0.48042 0.0
H128 H 0.77208 0.63232 0.42469 0.0
H129 H 0.71127 0.50286 0.57174 0.0
H130 H 0.7828 0.64144 0.57396 0.0
H131 H 0.6929 0.62212 0.54725 0.0
Co132 Co 0.1701 0.74903 0.66656 0.0
C133 C 0.11846 0.73851 0.63403 0.0
C134 C 0.16265 0.77783 0.6243 0.0
C135 C 0.14089 0.77346 0.60757 0.0
N136 N 0.14842 0.7565 0.64131 0.0
N137 N 0.11315 0.74862 0.6137 0.0
H138 H 0.10111 0.71763 0.64265 0.0
H139 H 0.18749 0.79473 0.62367 0.0
C140 C 0.19121 0.81694 0.67016 0.0
O141 O 0.16168 0.80885 0.66672 0.0
N142 N 0.19214 0.74112 0.69087 0.0
C143 C 0.17896 0.7196 0.7078 0.0
C144 C 0.20243 0.7192 0.72043 0.0
C145 C 0.22339 0.75333 0.6932 0.0
N146 N 0.23038 0.74024 0.71117 0.0
C147 C 0.11114 0.725 0.69095 0.0
C148 C 0.13504 0.76676 0.7275 0.0
C149 C 0.10381 0.74247 0.72846 0.0
C150 C 0.09171 0.72166 0.70972 0.0
C151 C 0.15357 0.76923 0.7085 0.0
N152 N 0.14151 0.74906 0.69011 0.0
H153 H 0.10235 0.70666 0.67817 0.0
H154 H 0.17829 0.78618 0.70951 0.0
H155 H 0.15399 0.70475 0.71048 0.0
H156 H 0.24044 0.77041 0.68139 0.0
O157 O 0.14832 0.70495 0.65902 0.0
O158 O 0.19377 0.74054 0.64378 0.0
O159 O 0.19922 0.79583 0.67039 0.0
C160 C 0.17141 0.71135 0.64495 0.0
H161 H 0.1455 0.78656 0.5916 0.0
H162 H 0.19904 0.70424 0.73516 0.0
H163 H 0.14556 0.78301 0.74179 0.0
H164 H 0.0681 0.70172 0.71023 0.0
Co165 Co 0.42562 0.16301 0.8393 0.0
C166 C 0.38243 0.11521 0.80704 0.0
C167 C 0.38175 0.1582 0.80243 0.0
C168 C 0.36259 0.13687 0.78592 0.0
N169 N 0.39404 0.14441 0.81559 0.0
N170 N 0.3633 0.10996 0.78878 0.0
H171 H 0.38842 0.09838 0.81388 0.0
H172 H 0.38717 0.18229 0.80419 0.0
C173 C 0.4076 0.20016 0.86953 0.0
O174 O 0.41679 0.18926 0.88678 0.0
N175 N 0.45847 0.18232 0.86262 0.0
C176 C 0.46704 0.16952 0.87983 0.0
C177 C 0.49247 0.19306 0.89127 0.0
C178 C 0.47936 0.21338 0.86361 0.0
N179 N 0.50016 0.22055 0.88101 0.0
C180 C 0.40282 0.10712 0.86697 0.0
C181 C 0.3496 0.10646 0.88313 0.0
C182 C 0.35786 0.08532 0.89248 0.0
C183 C 0.38407 0.08483 0.88345 0.0
C184 C 0.36887 0.12806 0.86649 0.0
N185 N 0.39674 0.1302 0.86033 0.0
H186 H 0.42295 0.10646 0.86018 0.0
H187 H 0.3614 0.14326 0.85883 0.0
H188 H 0.45647 0.14502 0.88398 0.0
H189 H 0.47908 0.23043 0.85192 0.0
O190 O 0.4465 0.14207 0.82656 0.0
O191 O 0.4561 0.1895 0.81628 0.0
O192 O 0.40901 0.19184 0.84873 0.0
C193 C 0.46246 0.16691 0.81388 0.0
H194 H 0.35018 0.14131 0.7723 0.0
H195 H 0.5049 0.19008 0.90563 0.0
H196 H 0.32856 0.10644 0.88875 0.0
H197 H 0.39078 0.06824 0.8897 0.0
Co198 Co 0.57591 0.74559 0.82109 0.0
C199 C 0.61688 0.73303 0.85238 0.0
C200 C 0.60775 0.7683 0.86572 0.0
C201 C 0.62438 0.76219 0.88209 0.0
N202 N 0.60338 0.75031 0.84691 0.0
N203 N 0.63001 0.73985 0.87371 0.0
H204 H 0.61637 0.71511 0.84149 0.0
H205 H 0.5984 0.78395 0.86774 0.0
C206 C 0.62476 0.81346 0.82057 0.0
O207 O 0.64563 0.80505 0.82546 0.0
N208 N 0.54784 0.74078 0.79616 0.0
C209 C 0.53869 0.72005 0.7786 0.0
C210 C 0.51644 0.72255 0.76578 0.0
C211 C 0.53101 0.75543 0.79399 0.0
N212 N 0.51153 0.74473 0.77552 0.0
C213 C 0.60689 0.71775 0.79669 0.0
C214 C 0.63475 0.76358 0.76317 0.0
C215 C 0.63839 0.73711 0.76197 0.0
C216 C 0.62416 0.71402 0.77907 0.0
C217 C 0.61725 0.76636 0.78111 0.0
N218 N 0.60457 0.74425 0.79824 0.0
H219 H 0.5939 0.69833 0.80829 0.0
H220 H 0.61258 0.78555 0.78029 0.0
H221 H 0.54683 0.70355 0.77575 0.0
H222 H 0.53257 0.77303 0.80603 0.0
O223 O 0.55104 0.70138 0.82768 0.0
O224 O 0.5432 0.73821 0.84313 0.0
O225 O 0.59582 0.79261 0.81835 0.0
C226 C 0.53472 0.7086 0.84149 0.0
H227 H 0.63049 0.7724 0.89923 0.0
H228 H 0.50379 0.70806 0.75108 0.0
H229 H 0.64462 0.78166 0.75001 0.0
H230 H 0.62495 0.69241 0.77821 0.0
Co231 Co 0.83672 0.57515 0.98622 0.0
C232 C 0.88438 0.6178 0.01885 0.0
C233 C 0.84138 0.61844 0.0235 0.0
C234 C 0.86265 0.6375 0.04008 0.0
N235 N 0.8552 0.60625 0.01027 0.0
N236 N 0.88959 0.63683 0.03718 0.0
H237 H 0.90127 0.61193 0.01196 0.0
H238 H 0.8173 0.61309 0.02172 0.0
C239 C 0.79739 0.59237 0.9573 0.0
O240 O 0.80709 0.58338 0.93921 0.0
N241 N 0.81772 0.54295 0.96244 0.0
C242 C 0.83087 0.53635 0.94431 0.0
C243 C 0.80776 0.51126 0.93233 0.0
C244 C 0.7869 0.52121 0.96142 0.0
N245 N 0.7802 0.50182 0.94313 0.0
C246 C 0.89348 0.5989 0.95978 0.0
C247 C 0.89324 0.65082 0.94177 0.0
C248 C 0.91569 0.6434 0.93388 0.0
C249 C 0.91641 0.61778 0.94377 0.0
C250 C 0.87098 0.63148 0.9581 0.0
N251 N 0.86962 0.60435 0.96536 0.0
H252 H 0.89414 0.57893 0.96687 0.0
H253 H 0.85492 0.63852 0.96474 0.0
H254 H 0.85531 0.54833 0.93974 0.0
H255 H 0.7696 0.52006 0.97359 0.0
O256 O 0.85753 0.55391 0.99865 0.0
O257 O 0.81009 0.54423 0.00894 0.0
O258 O 0.80768 0.59171 0.97755 0.0
C259 C 0.83261 0.53776 0.01121 0.0
H260 H 0.85818 0.64985 0.05373 0.0
H261 H 0.81105 0.50042 0.91708 0.0
H262 H 0.89285 0.67132 0.93535 0.0
H263 H 0.93374 0.61154 0.9385 0.0
Co264 Co 0.25145 0.82964 0.15655 0.0
C265 C 0.2631 0.88068 0.19017 0.0
C266 C 0.22486 0.83601 0.20035 0.0
C267 C 0.22951 0.85752 0.21737 0.0
N268 N 0.24532 0.85068 0.18291 0.0
N269 N 0.25366 0.88556 0.21094 0.0
H270 H 0.28324 0.89849 0.18111 0.0
H271 H 0.20822 0.81111 0.20095 0.0
C272 C 0.18334 0.80878 0.15512 0.0
O273 O 0.19148 0.83812 0.1595 0.0
N274 N 0.25788 0.80811 0.13106 0.0
C275 C 0.27738 0.82137 0.11294 0.0
C276 C 0.27607 0.79793 0.09915 0.0
C277 C 0.24543 0.77689 0.12838 0.0
N278 N 0.2561 0.77006 0.10893 0.0
C279 C 0.27514 0.88932 0.13342 0.0
C280 C 0.23148 0.86722 0.09801 0.0
C281 C 0.25606 0.89831 0.09724 0.0
C282 C 0.27785 0.9095 0.1154 0.0
C283 C 0.22956 0.84795 0.11634 0.0
N284 N 0.25071 0.85913 0.1342 0.0
H285 H 0.29418 0.89737 0.14558 0.0
H286 H 0.21227 0.82337 0.11509 0.0
H287 H 0.292 0.84635 0.11016 0.0
H288 H 0.22926 0.75963 0.14053 0.0
O289 O 0.29585 0.85082 0.16299 0.0
O290 O 0.26059 0.80505 0.17798 0.0
O291 O 0.20448 0.80089 0.15365 0.0
C292 C 0.28982 0.8272 0.17638 0.0
H293 H 0.21696 0.85264 0.23362 0.0
H294 H 0.2897 0.80114 0.08363 0.0
H295 H 0.21459 0.85742 0.08403 0.0
H296 H 0.29802 0.93298 0.11489 0.0
Co297 Co 0.42112 0.2527 0.32544 0.0
C298 C 0.38422 0.26741 0.35883 0.0
C299 C 0.38034 0.22302 0.36628 0.0
C300 C 0.36388 0.22906 0.3829 0.0
N301 N 0.3921 0.24653 0.35058 0.0
N302 N 0.3666 0.25711 0.37816 0.0
H303 H 0.39227 0.29038 0.35167 0.0
H304 H 0.38425 0.20324 0.36616 0.0
C305 C 0.3725 0.18518 0.32024 0.0
O306 O 0.35121 0.19363 0.32306 0.0
N307 N 0.45076 0.2593 0.3012 0.0
C308 C 0.45965 0.2804 0.28389 0.0
C309 C 0.48166 0.27817 0.27059 0.0
C310 C 0.4678 0.24493 0.29855 0.0
N311 N 0.48679 0.25596 0.27987 0.0
C312 C 0.38808 0.27944 0.30217 0.0
C313 C 0.36914 0.23958 0.26442 0.0
C314 C 0.36323 0.26464 0.26453 0.0
C315 C 0.37249 0.28441 0.28392 0.0
C316 C 0.38473 0.2354 0.28308 0.0
N317 N 0.39346 0.25475 0.30201 0.0
H318 H 0.39786 0.297 0.31546 0.0
H319 H 0.39163 0.21781 0.28145 0.0
H320 H 0.45099 0.29653 0.28128 0.0
H321 H 0.46644 0.22695 0.31009 0.0
O322 O 0.44521 0.2966 0.33325 0.0
O323 O 0.45262 0.25927 0.34832 0.0
O324 O 0.4017 0.20581 0.32111 0.0
C325 C 0.46087 0.28888 0.34734 0.0
H326 H 0.35196 0.21462 0.39778 0.0
H327 H 0.49372 0.29247 0.25568 0.0
H328 H 0.36363 0.22451 0.2494 0.0
H329 H 0.36896 0.30445 0.28458 0.0
Co330 Co 0.16104 0.42526 0.48482 0.0
C331 C 0.11408 0.38052 0.51661 0.0
C332 C 0.15685 0.37915 0.51978 0.0
C333 C 0.13512 0.35802 0.53524 0.0
N334 N 0.14341 0.39309 0.50818 0.0
N335 N 0.10816 0.35896 0.53326 0.0
H336 H 0.09775 0.38771 0.51076 0.0
H337 H 0.18071 0.3841 0.51733 0.0
C338 C 0.19972 0.40921 0.4543 0.0
O339 O 0.18793 0.41711 0.43685 0.0
N340 N 0.17885 0.45844 0.46174 0.0
C341 C 0.16411 0.46956 0.4483 0.0
C342 C 0.18619 0.49584 0.43687 0.0
C343 C 0.20981 0.47874 0.45863 0.0
N344 N 0.21489 0.50161 0.44339 0.0
C345 C 0.10443 0.40101 0.45775 0.0
C346 C 0.10598 0.34964 0.43997 0.0
C347 C 0.08365 0.35686 0.43148 0.0
C348 C 0.08214 0.38211 0.44132 0.0
C349 C 0.12754 0.36899 0.45666 0.0
N350 N 0.12851 0.39605 0.46366 0.0
H351 H 0.10243 0.41987 0.46553 0.0
H352 H 0.14354 0.36216 0.46375 0.0
H353 H 0.13924 0.46061 0.44737 0.0
H354 H 0.22819 0.4774 0.468 0.0
O355 O 0.13907 0.44476 0.49824 0.0
O356 O 0.18719 0.45583 0.50789 0.0
O357 O 0.19117 0.41053 0.47502 0.0
C358 C 0.16402 0.46122 0.51074 0.0
H359 H 0.13912 0.34324 0.54698 0.0
H360 H 0.18142 0.50995 0.42496 0.0
H361 H 0.10682 0.3293 0.43372 0.0
H362 H 0.06454 0.38788 0.43585 0.0
Co363 Co 0.74831 0.1697 0.65794 0.0
C364 C 0.73777 0.11827 0.69073 0.0
C365 C 0.77557 0.16307 0.70121 0.0
C366 C 0.77127 0.14146 0.71802 0.0
N367 N 0.75512 0.14842 0.68375 0.0
N368 N 0.74738 0.11334 0.71142 0.0
H369 H 0.71782 0.10037 0.68154 0.0
H370 H 0.79192 0.18805 0.70197 0.0
C371 C 0.81631 0.18992 0.65535 0.0
O372 O 0.80841 0.1608 0.66029 0.0
N373 N 0.74135 0.19158 0.63304 0.0
C374 C 0.72081 0.17879 0.61541 0.0
C375 C 0.7225 0.20263 0.6019 0.0
C376 C 0.75487 0.22288 0.63031 0.0
N377 N 0.74382 0.23027 0.61135 0.0
C378 C 0.7222 0.11015 0.63431 0.0
C379 C 0.76483 0.13128 0.59826 0.0
C380 C 0.73919 0.10074 0.59732 0.0
C381 C 0.71798 0.09 0.61584 0.0
C382 C 0.76819 0.15057 0.617 0.0
N383 N 0.74747 0.13987 0.63512 0.0
H384 H 0.70364 0.10254 0.64686 0.0
H385 H 0.7862 0.17488 0.61582 0.0
H386 H 0.70532 0.1539 0.61278 0.0
H387 H 0.7722 0.23983 0.64207 0.0
O388 O 0.70426 0.14911 0.66544 0.0
O389 O 0.74058 0.19467 0.68006 0.0
O390 O 0.79517 0.19783 0.65401 0.0
C391 C 0.71119 0.17274 0.67909 0.0
H392 H 0.78379 0.14633 0.7343 0.0
H393 H 0.70835 0.19988 0.58677 0.0
H394 H 0.78142 0.14076 0.58409 0.0
H395 H 0.6971 0.06701 0.61532 0.0
C396 C 0.39312 0.22907 0.89776 0.0
C397 C 0.39173 0.21826 0.87502 0.0
C398 C 0.37566 0.24307 0.9042 0.0
C399 C 0.33416 0.28286 0.88325 0.0
H400 H 0.29145 0.25517 0.94234 0.0
C401 C 0.25605 0.32986 0.92226 0.0
C402 C 0.26172 0.33832 0.94578 0.0
C403 C 0.2692 0.31337 0.91178 0.0
C404 C 0.30332 0.26327 0.92586 0.0
H405 H 0.37189 0.21494 0.8409 0.0
H406 H 0.34119 0.23977 0.85226 0.0
H407 H 0.32029 0.23087 0.92694 0.0
H408 H 0.28482 0.33531 0.97684 0.0
H409 H 0.30786 0.30694 0.95864 0.0
H410 H 0.31753 0.31577 0.88251 0.0
C411 C 0.35588 0.23722 0.86504 0.0
C412 C 0.31986 0.24935 0.91703 0.0
C413 C 0.37345 0.22304 0.85855 0.0
C414 C 0.28029 0.32946 0.95865 0.0
C415 C 0.29321 0.31288 0.94826 0.0
C416 C 0.31756 0.29689 0.89214 0.0
C417 C 0.35628 0.24667 0.8881 0.0
C418 C 0.33612 0.2595 0.89593 0.0
C419 C 0.28796 0.30473 0.92469 0.0
C420 C 0.30261 0.28773 0.91383 0.0
H421 H 0.40728 0.22618 0.91083 0.0
H422 H 0.37709 0.25083 0.92195 0.0
H423 H 0.3465 0.29117 0.86696 0.0
H424 H 0.24205 0.33658 0.91186 0.0
H425 H 0.2646 0.30727 0.89361 0.0
C426 C 0.16132 0.40166 0.05784 0.0
C427 C 0.1708 0.39358 0.03727 0.0
C428 C 0.12987 0.38596 0.06447 0.0
C429 C 0.04844 0.33319 0.04398 0.0
H430 H 0.03338 0.31668 0.10978 0.0
C431 C 0.92471 0.25634 0.08615 0.0
C432 C 0.91875 0.27009 0.10548 0.0
C433 C 0.95474 0.27018 0.07628 0.0
C434 C 0.03722 0.32122 0.09137 0.0
H435 H 0.15464 0.36334 0.0071 0.0
H436 H 0.09941 0.3352 0.01898 0.0
H437 H 0.08691 0.34295 0.0952 0.0
H438 H 0.93998 0.31022 0.12878 0.0
H439 H 0.99201 0.33346 0.11208 0.0
H440 H 0.99831 0.31083 0.04038 0.0
C441 C 0.11634 0.35404 0.02983 0.0
C442 C 0.06791 0.33644 0.08299 0.0
C443 C 0.14795 0.37009 0.02303 0.0
C444 C 0.94353 0.29827 0.1144 0.0
C445 C 0.97348 0.31181 0.10473 0.0
C446 C 0.01757 0.3176 0.0524 0.0
C447 C 0.10704 0.36141 0.05089 0.0
C448 C 0.07402 0.34326 0.05926 0.0
C449 C 0.97948 0.29784 0.0857 0.0
C450 C 0.01176 0.31204 0.07624 0.0
H451 H 0.17831 0.42 0.069 0.0
H452 H 0.12351 0.39297 0.08043 0.0
H453 H 0.05227 0.33816 0.02563 0.0
H454 H 0.90639 0.23459 0.07886 0.0
H455 H 0.9588 0.25886 0.06165 0.0
C456 C 0.7599 0.14309 0.18963 0.0
C457 C 0.78517 0.14948 0.17489 0.0
C458 C 0.74288 0.11381 0.20033 0.0
C459 C 0.72259 0.03129 0.1985 0.0
H460 H 0.71805 0.03553 0.26533 0.0
C461 C 0.67617 0.92055 0.25643 0.0
C462 C 0.65838 0.91883 0.27607 0.0
C463 C 0.69166 0.94821 0.2434 0.0
C464 C 0.71856 0.03376 0.24666 0.0
H465 H 0.81113 0.12959 0.1587 0.0
H466 H 0.78082 0.07812 0.17705 0.0
H467 H 0.74245 0.08371 0.24278 0.0
H468 H 0.64388 0.94591 0.29737 0.0
H469 H 0.66924 0.99284 0.27428 0.0
H470 H 0.69803 0.9813 0.20225 0.0
C471 C 0.77448 0.09592 0.18046 0.0
C472 C 0.73266 0.06145 0.23377 0.0
C473 C 0.79185 0.12539 0.17003 0.0
C474 C 0.65679 0.9457 0.28231 0.0
C475 C 0.67189 0.9731 0.26915 0.0
C476 C 0.70799 0.00346 0.21139 0.0
C477 C 0.75044 0.09018 0.19622 0.0
C478 C 0.73477 0.06051 0.20958 0.0
C479 C 0.6896 0.97483 0.24953 0.0
C480 C 0.70572 0.00433 0.23567 0.0
H481 H 0.75419 0.16115 0.1938 0.0
H482 H 0.72423 0.10984 0.21225 0.0
H483 H 0.72389 0.02996 0.17984 0.0
H484 H 0.67803 0.90056 0.25086 0.0
H485 H 0.70544 0.94873 0.2286 0.0
C486 C 0.69495 0.64049 0.44747 0.0
C487 C 0.72435 0.6459 0.43963 0.0
C488 C 0.68002 0.65497 0.43678 0.0
C489 C 0.69515 0.7219 0.3988 0.0
H490 H 0.60418 0.67795 0.39566 0.0
C491 C 0.62468 0.77501 0.35658 0.0
C492 C 0.60157 0.77453 0.37119 0.0
C493 C 0.63932 0.75769 0.36225 0.0
C494 C 0.6296 0.69047 0.39641 0.0
H495 H 0.76089 0.67103 0.4141 0.0
H496 H 0.73432 0.69537 0.39496 0.0
H497 H 0.63072 0.65073 0.4102 0.0
H498 H 0.57485 0.75476 0.40266 0.0
H499 H 0.5999 0.7241 0.41227 0.0
H500 H 0.69376 0.7616 0.38481 0.0
C501 C 0.72309 0.68032 0.40972 0.0
C502 C 0.64485 0.67499 0.40487 0.0
C503 C 0.73821 0.66603 0.42058 0.0
C504 C 0.59267 0.75568 0.39112 0.0
C505 C 0.60687 0.73799 0.39656 0.0
C506 C 0.67986 0.73726 0.39004 0.0
C507 C 0.6938 0.67502 0.41772 0.0
C508 C 0.67781 0.6907 0.40669 0.0
C509 C 0.63062 0.73913 0.38236 0.0
C510 C 0.64692 0.72188 0.38922 0.0
H511 H 0.68308 0.62487 0.46179 0.0
H512 H 0.65778 0.6507 0.44374 0.0
H513 H 0.7205 0.7349 0.40016 0.0
H514 H 0.6321 0.78946 0.34115 0.0
H515 H 0.65749 0.75885 0.35098 0.0
C516 C 0.07713 0.75334 0.58627 0.0
C517 C 0.08434 0.7347 0.60058 0.0
C518 C 0.04894 0.74001 0.57386 0.0
C519 C 0.96917 0.67028 0.5732 0.0
H520 H 0.96567 0.69979 0.51161 0.0
C521 C 0.8548 0.61359 0.5198 0.0
C522 C 0.8468 0.63467 0.50967 0.0
C523 C 0.88484 0.62438 0.52892 0.0
C524 C 0.96627 0.69141 0.52883 0.0
H525 H 0.06803 0.68718 0.61244 0.0
H526 H 0.01904 0.66385 0.59069 0.0
H527 H 0.01607 0.72132 0.53153 0.0
H528 H 0.86455 0.68337 0.50024 0.0
H529 H 0.91689 0.70213 0.51611 0.0
H530 H 0.91939 0.64049 0.57054 0.0
C531 C 0.03482 0.68894 0.58945 0.0
C532 C 0.99513 0.7038 0.54029 0.0
C533 C 0.06292 0.70231 0.60194 0.0
C534 C 0.86991 0.66652 0.50797 0.0
C535 C 0.89998 0.67727 0.51697 0.0
C536 C 0.94038 0.6578 0.5617 0.0
C537 C 0.02736 0.70764 0.57536 0.0
C538 C 0.9969 0.69359 0.56271 0.0
C539 C 0.90759 0.65643 0.52796 0.0
C540 C 0.93855 0.6684 0.53947 0.0
H541 H 0.093 0.7784 0.58506 0.0
H542 H 0.04378 0.75523 0.56349 0.0
H543 H 0.96953 0.66222 0.59058 0.0
H544 H 0.83759 0.58888 0.52137 0.0
H545 H 0.89013 0.60769 0.53701 0.0
C546 C 0.24315 0.85735 0.68673 0.0
C547 C 0.21365 0.84947 0.67749 0.0
C548 C 0.26253 0.88715 0.69622 0.0
C549 C 0.27449 0.96802 0.69963 0.0
H550 H 0.31127 0.96955 0.75934 0.0
C551 C 0.321 0.07408 0.76213 0.0
C552 C 0.34865 0.08216 0.7745 0.0
C553 C 0.30661 0.04677 0.74865 0.0
C554 C 0.30154 0.96965 0.74253 0.0
H555 H 0.18205 0.8672 0.67001 0.0
H556 H 0.21558 0.9188 0.68667 0.0
H557 H 0.28364 0.92043 0.73795 0.0
H558 H 0.38351 0.06843 0.78157 0.0
H559 H 0.35841 0.02094 0.75824 0.0
H560 H 0.29197 0.01722 0.70447 0.0
C561 C 0.22394 0.90217 0.68647 0.0
C562 C 0.28576 0.94147 0.73023 0.0
C563 C 0.20459 0.87244 0.67704 0.0
C564 C 0.36184 0.06258 0.77275 0.0
C565 C 0.34748 0.03535 0.75931 0.0
C566 C 0.29025 0.99623 0.71196 0.0
C567 C 0.25286 0.9097 0.6966 0.0
C568 C 0.27178 0.94023 0.70873 0.0
C569 C 0.31958 0.02697 0.74723 0.0
C570 C 0.30373 0.99731 0.73365 0.0
H571 H 0.25086 0.84021 0.68732 0.0
H572 H 0.28489 0.89237 0.70359 0.0
H573 H 0.26434 0.96797 0.68297 0.0
H574 H 0.31012 0.08849 0.76325 0.0
H575 H 0.28491 0.04079 0.73978 0.0
C576 C 0.77696 0.6282 0.96874 0.0
C577 C 0.77663 0.60565 0.95359 0.0
C578 C 0.75903 0.64246 0.96378 0.0
C579 C 0.69059 0.63206 0.93087 0.0
H580 H 0.73424 0.72282 0.92608 0.0
C581 C 0.63959 0.69518 0.87838 0.0
C582 C 0.64488 0.72478 0.88558 0.0
C583 C 0.65416 0.68072 0.88961 0.0
C584 C 0.72144 0.69751 0.92776 0.0
H585 H 0.7565 0.57945 0.92195 0.0
H586 H 0.72476 0.6037 0.91366 0.0
H587 H 0.76166 0.69682 0.94149 0.0
H588 H 0.6698 0.76215 0.91059 0.0
H589 H 0.69436 0.73641 0.93068 0.0
H590 H 0.65038 0.63245 0.91723 0.0
C591 C 0.739 0.61059 0.92921 0.0
C592 C 0.73722 0.68265 0.93656 0.0
C593 C 0.7573 0.59685 0.93389 0.0
C594 C 0.66491 0.73929 0.9046 0.0
C595 C 0.67932 0.72466 0.916 0.0
C596 C 0.6747 0.64687 0.92236 0.0
C597 C 0.73999 0.63382 0.9439 0.0
C598 C 0.72216 0.64975 0.93765 0.0
C599 C 0.67419 0.69519 0.9086 0.0
C600 C 0.69015 0.67976 0.92008 0.0
H601 H 0.79178 0.63552 0.98399 0.0
H602 H 0.76013 0.66028 0.9754 0.0
H603 H 0.67832 0.60666 0.93181 0.0
H604 H 0.62403 0.68285 0.86411 0.0
H605 H 0.65001 0.65831 0.8831 0.0
C606 C 0.12782 0.79578 0.14862 0.0
C607 C 0.15067 0.78656 0.14792 0.0
C608 C 0.09801 0.77663 0.13922 0.0
C609 C 0.0584 0.71512 0.09522 0.0
H610 H 0.9827 0.70873 0.12128 0.0
C611 C 0.93716 0.63858 0.05308 0.0
C612 C 0.91743 0.65159 0.05141 0.0
C613 C 0.96446 0.65308 0.06645 0.0
C614 C 0.00368 0.7105 0.1137 0.0
H615 H 0.15959 0.74924 0.13774 0.0
H616 H 0.10734 0.71558 0.12158 0.0
H617 H 0.03206 0.73644 0.14264 0.0
H618 H 0.91089 0.68997 0.06275 0.0
H619 H 0.95869 0.71542 0.08609 0.0
H620 H 0.0302 0.68958 0.06616 0.0
C621 C 0.1127 0.73791 0.12907 0.0
C622 C 0.03195 0.72632 0.12595 0.0
C623 C 0.14257 0.75709 0.13851 0.0
C624 C 0.92542 0.67921 0.0638 0.0
C625 C 0.95279 0.69375 0.07721 0.0
C626 C 0.03016 0.69929 0.08299 0.0
C627 C 0.09029 0.74776 0.12889 0.0
C628 C 0.05971 0.72904 0.11676 0.0
C629 C 0.97275 0.68097 0.07854 0.0
C630 C 0.00251 0.69699 0.09199 0.0
H631 H 0.13323 0.8183 0.15578 0.0
H632 H 0.08146 0.7851 0.1392 0.0
H633 H 0.07942 0.71727 0.08741 0.0
H634 H 0.9314 0.61695 0.04424 0.0
H635 H 0.97899 0.64229 0.06745 0.0
C636 C 0.38434 0.14518 0.30339 0.0
C637 C 0.36259 0.15266 0.31298 0.0
C638 C 0.3743 0.11524 0.29435 0.0
C639 C 0.30876 0.03327 0.29465 0.0
H640 H 0.3382 0.02979 0.23304 0.0
C641 C 0.24851 0.92117 0.23852 0.0
C642 C 0.26728 0.91445 0.22395 0.0
C643 C 0.26149 0.94953 0.25069 0.0
C644 C 0.33011 0.0302 0.2504 0.0
H645 H 0.31346 0.1342 0.32144 0.0
H646 H 0.29604 0.08196 0.30583 0.0
H647 H 0.35897 0.08017 0.25264 0.0
H648 H 0.31465 0.93176 0.21136 0.0
H649 H 0.33745 0.981 0.23279 0.0
H650 H 0.27988 0.98333 0.29248 0.0
C651 C 0.32083 0.09922 0.30529 0.0
C652 C 0.34202 0.05914 0.26162 0.0
C653 C 0.33081 0.12922 0.31413 0.0
C654 C 0.29945 0.93649 0.2221 0.0
C655 C 0.3125 0.96475 0.2344 0.0
C656 C 0.297 0.00428 0.28351 0.0
C657 C 0.34238 0.09206 0.29493 0.0
C658 C 0.33124 0.06104 0.28377 0.0
C659 C 0.29365 0.97176 0.24872 0.0
C660 C 0.30726 0.0024 0.26112 0.0
H661 H 0.409 0.16272 0.3022 0.0
H662 H 0.39149 0.11029 0.28668 0.0
H663 H 0.30027 0.03396 0.31183 0.0
H664 H 0.2236 0.9048 0.24008 0.0
H665 H 0.24611 0.95429 0.26121 0.0
C666 C 0.22787 0.39293 0.42651 0.0
C667 C 0.22036 0.39592 0.4495 0.0
C668 C 0.2463 0.37942 0.42155 0.0
C669 C 0.27267 0.32687 0.44559 0.0
H670 H 0.33091 0.35955 0.39412 0.0
C671 C 0.32369 0.25658 0.40077 0.0
C672 C 0.35377 0.27325 0.39095 0.0
C673 C 0.30986 0.27259 0.41094 0.0
C674 C 0.31517 0.35031 0.40879 0.0
H675 H 0.22668 0.38728 0.48538 0.0
H676 H 0.25942 0.36401 0.4767 0.0
H677 H 0.30337 0.38654 0.40628 0.0
H678 H 0.39393 0.31954 0.38557 0.0
H679 H 0.37032 0.34751 0.40377 0.0
H680 H 0.28492 0.29082 0.44825 0.0
C681 C 0.25062 0.3718 0.4625 0.0
C682 C 0.29898 0.36559 0.41556 0.0
C683 C 0.23203 0.38532 0.46748 0.0
C684 C 0.37042 0.30614 0.39256 0.0
C685 C 0.35682 0.32213 0.40294 0.0
C686 C 0.28905 0.31161 0.43889 0.0
C687 C 0.25793 0.36865 0.43944 0.0
C688 C 0.27709 0.35378 0.43375 0.0
C689 C 0.32603 0.30564 0.41172 0.0
C690 C 0.3102 0.32291 0.42017 0.0
H691 H 0.2192 0.40069 0.41219 0.0
H692 H 0.25091 0.37686 0.40358 0.0
H693 H 0.25586 0.31701 0.4596 0.0
H694 H 0.31031 0.23122 0.39963 0.0
H695 H 0.28601 0.25908 0.41728 0.0
C696 C 0.87298 0.20556 0.65194 0.0
C697 C 0.84845 0.21153 0.64697 0.0
C698 C 0.90238 0.22333 0.6415 0.0
C699 C 0.93652 0.26496 0.58815 0.0
H700 H 0.01655 0.30152 0.62005 0.0
C701 C 0.05211 0.34241 0.53997 0.0
C702 C 0.07938 0.34168 0.54643 0.0
C703 C 0.02466 0.32686 0.55303 0.0
C704 C 0.99443 0.29102 0.61081 0.0
H705 H 0.83578 0.24153 0.62779 0.0
H706 H 0.88703 0.27222 0.60927 0.0
H707 H 0.96775 0.27504 0.64227 0.0
H708 H 0.09827 0.32302 0.57193 0.0
H709 H 0.05001 0.29482 0.59404 0.0
H710 H 0.96265 0.27964 0.55668 0.0
C711 C 0.88347 0.25384 0.62132 0.0
C712 C 0.96652 0.27608 0.62359 0.0
C713 C 0.85424 0.23643 0.63204 0.0
C714 C 0.07799 0.32426 0.5662 0.0
C715 C 0.05027 0.3083 0.57914 0.0
C716 C 0.9643 0.2794 0.57537 0.0
C717 C 0.9076 0.24706 0.62561 0.0
C718 C 0.93734 0.2632 0.61236 0.0
C719 C 0.02326 0.30951 0.57276 0.0
C720 C 0.99369 0.29295 0.58651 0.0
H721 H 0.86921 0.18657 0.66342 0.0
H722 H 0.92056 0.21757 0.64504 0.0
H723 H 0.91429 0.25463 0.57904 0.0
H724 H 0.05158 0.35498 0.52482 0.0
H725 H 0.00461 0.32887 0.54771 0.0
C726 C 0.66719 0.86949 0.81574 0.0
C727 C 0.63542 0.84627 0.81366 0.0
C728 C 0.67792 0.89964 0.80693 0.0
C729 C 0.65896 0.94001 0.76197 0.0
H730 H 0.72054 0.01584 0.79318 0.0
C731 C 0.70168 0.06237 0.72244 0.0
C732 C 0.73382 0.08445 0.72436 0.0
C733 C 0.68864 0.03417 0.73476 0.0
C734 C 0.70358 0.99486 0.78413 0.0
H735 H 0.58974 0.83691 0.80149 0.0
H736 H 0.60851 0.88953 0.78616 0.0
H737 H 0.69942 0.96526 0.81274 0.0
H738 H 0.77747 0.09427 0.74067 0.0
H739 H 0.75491 0.04483 0.76188 0.0
H740 H 0.66356 0.96927 0.73317 0.0
C741 C 0.62516 0.88429 0.79441 0.0
C742 C 0.69143 0.96591 0.79538 0.0
C743 C 0.61439 0.8542 0.80334 0.0
C744 C 0.75258 0.07784 0.73903 0.0
C745 C 0.73959 0.04954 0.75124 0.0
C746 C 0.67123 0.96888 0.75068 0.0
C747 C 0.65713 0.90716 0.79574 0.0
C748 C 0.66906 0.93816 0.78438 0.0
C749 C 0.70747 0.02727 0.74917 0.0
C750 C 0.6938 0.99668 0.76156 0.0
H751 H 0.68399 0.86419 0.82363 0.0
H752 H 0.70272 0.91669 0.80808 0.0
H753 H 0.64217 0.91898 0.75287 0.0
H754 H 0.68647 0.06704 0.71165 0.0
H755 H 0.6637 0.01788 0.73309 0.0
C756 C 0.24716 0.71694 0.1171 0.0
C757 C 0.25011 0.73977 0.10114 0.0
C758 C 0.24466 0.6888 0.10943 0.0
C759 C 0.26274 0.65539 0.05798 0.0
H760 H 0.21772 0.57769 0.09251 0.0
C761 C 0.25678 0.54004 0.0285 0.0
C762 C 0.26554 0.52563 0.04565 0.0
C763 C 0.25089 0.56425 0.03432 0.0
C764 C 0.23036 0.59926 0.08271 0.0
H765 H 0.2509 0.75047 0.06474 0.0
H766 H 0.24543 0.70098 0.0512 0.0
H767 H 0.21364 0.62326 0.1042 0.0
H768 H 0.27373 0.52424 0.08236 0.0
H769 H 0.26317 0.56633 0.09259 0.0
H770 H 0.27929 0.63119 0.03646 0.0
C771 C 0.24616 0.7051 0.06967 0.0
C772 C 0.22819 0.62543 0.08945 0.0
C773 C 0.24913 0.73339 0.07737 0.0
C774 C 0.26737 0.53521 0.06879 0.0
C775 C 0.26103 0.55905 0.07466 0.0
C776 C 0.26456 0.62911 0.05108 0.0
C777 C 0.24463 0.68271 0.08558 0.0
C778 C 0.24477 0.65402 0.0774 0.0
C779 C 0.25313 0.57408 0.05745 0.0
C780 C 0.24881 0.60095 0.06359 0.0
H781 H 0.24821 0.72145 0.13553 0.0
H782 H 0.24401 0.67242 0.12224 0.0
H783 H 0.27634 0.67707 0.04851 0.0
H784 H 0.25536 0.53318 0.01053 0.0
H785 H 0.24472 0.5754 0.02074 0.0
C786 C 0.70789 0.23858 0.20009 0.0
C787 C 0.72997 0.24351 0.21741 0.0
C788 C 0.67852 0.2346 0.20596 0.0
C789 C 0.62195 0.21485 0.25371 0.0
H790 H 0.59914 0.26989 0.22172 0.0
C791 C 0.52699 0.24118 0.28818 0.0
C792 C 0.50957 0.24772 0.27215 0.0
C793 C 0.55131 0.23632 0.28069 0.0
C794 C 0.60467 0.25383 0.23055 0.0
H795 H 0.7381 0.24651 0.25441 0.0
H796 H 0.68669 0.23937 0.26471 0.0
H797 H 0.64576 0.2683 0.20988 0.0
H798 H 0.50245 0.25241 0.23573 0.0
H799 H 0.54407 0.2429 0.22248 0.0
H800 H 0.58082 0.20029 0.27439 0.0
C801 C 0.69213 0.23871 0.24661 0.0
C802 C 0.63152 0.25302 0.22377 0.0
C803 C 0.72162 0.24307 0.24073 0.0
C804 C 0.51593 0.24792 0.24844 0.0
C805 C 0.53987 0.24262 0.24091 0.0
C806 C 0.59483 0.21536 0.26035 0.0
C807 C 0.67052 0.23505 0.22926 0.0
C808 C 0.64065 0.23383 0.23544 0.0
C809 C 0.55841 0.2375 0.25695 0.0
C810 C 0.58604 0.23517 0.24903 0.0
H811 H 0.71376 0.23904 0.18198 0.0
H812 H 0.66221 0.23162 0.19225 0.0
H813 H 0.62833 0.19963 0.26288 0.0
H814 H 0.52273 0.2412 0.30657 0.0
H815 H 0.56527 0.23286 0.29359 0.0
C816 C 0.43827 0.74596 0.38364 0.0
C817 C 0.46738 0.74815 0.37918 0.0
C818 C 0.41205 0.71712 0.38897 0.0
C819 C 0.38782 0.64011 0.41348 0.0
H820 H 0.30806 0.61806 0.38482 0.0
C821 C 0.27145 0.52485 0.43448 0.0
C822 C 0.2445 0.52776 0.4363 0.0
C823 C 0.29977 0.55 0.42647 0.0
C824 C 0.33009 0.62397 0.39314 0.0
H825 H 0.49198 0.72197 0.37688 0.0
H826 H 0.44583 0.67116 0.38646 0.0
H827 H 0.35553 0.66503 0.37227 0.0
H828 H 0.22648 0.55971 0.4323 0.0
H829 H 0.27562 0.6035 0.41872 0.0
H830 H 0.36214 0.59948 0.43487 0.0
C831 C 0.44347 0.6919 0.38573 0.0
C832 C 0.35728 0.6508 0.38587 0.0
C833 C 0.46973 0.72082 0.38009 0.0
C834 C 0.24662 0.5565 0.43056 0.0
C835 C 0.27482 0.58159 0.42272 0.0
C836 C 0.36049 0.61326 0.4209 0.0
C837 C 0.41436 0.68981 0.39014 0.0
C838 C 0.38631 0.65951 0.39627 0.0
C839 C 0.30163 0.57856 0.42024 0.0
C840 C 0.3312 0.6053 0.41114 0.0
H841 H 0.43569 0.76654 0.38281 0.0
H842 H 0.39 0.71627 0.39252 0.0
H843 H 0.40991 0.6464 0.42187 0.0
H844 H 0.27039 0.50287 0.43866 0.0
H845 H 0.31996 0.54686 0.42466 0.0
C846 C 0.7574 0.46799 0.53337 0.0
C847 C 0.75229 0.4847 0.55096 0.0
C848 C 0.76162 0.44265 0.53885 0.0
C849 C 0.7821 0.40561 0.58596 0.0
H850 H 0.72762 0.328 0.55351 0.0
C851 C 0.75713 0.28478 0.61977 0.0
C852 C 0.75109 0.26101 0.60367 0.0
C853 C 0.76147 0.31375 0.61236 0.0
C854 C 0.74352 0.34954 0.56246 0.0
H855 H 0.74909 0.48901 0.58804 0.0
H856 H 0.75666 0.44482 0.59767 0.0
H857 H 0.72856 0.37607 0.54213 0.0
H858 H 0.74657 0.24937 0.56721 0.0
H859 H 0.75507 0.30018 0.55413 0.0
H860 H 0.79715 0.37917 0.6063 0.0
C861 C 0.7573 0.45126 0.57966 0.0
C862 C 0.74396 0.3771 0.55595 0.0
C863 C 0.75269 0.47634 0.57416 0.0
C864 C 0.75069 0.26716 0.57999 0.0
C865 C 0.75544 0.29624 0.57254 0.0
C866 C 0.78195 0.37809 0.59233 0.0
C867 C 0.76123 0.4338 0.56204 0.0
C868 C 0.76291 0.4053 0.56783 0.0
C869 C 0.76025 0.31971 0.58865 0.0
C870 C 0.76231 0.34958 0.58088 0.0
H871 H 0.75696 0.47376 0.51534 0.0
H872 H 0.76479 0.4297 0.52494 0.0
H873 H 0.79716 0.42713 0.59526 0.0
H874 H 0.75722 0.28052 0.63815 0.0
H875 H 0.76463 0.33101 0.62533 0.0
C876 C 0.26375 0.72234 0.73013 0.0
C877 C 0.26091 0.74568 0.71813 0.0
C878 C 0.29311 0.72733 0.73694 0.0
C879 C 0.37718 0.77348 0.7237 0.0
H880 H 0.38514 0.74246 0.78359 0.0
C881 C 0.47484 0.76372 0.78546 0.0
C882 C 0.48794 0.75256 0.76895 0.0
C883 C 0.44994 0.76846 0.77953 0.0
C884 C 0.38355 0.75171 0.76695 0.0
H885 H 0.28699 0.79273 0.70396 0.0
H886 H 0.33852 0.80135 0.71576 0.0
H887 H 0.33617 0.74039 0.77325 0.0
H888 H 0.48626 0.73942 0.73291 0.0
H889 H 0.44242 0.74695 0.72271 0.0
H890 H 0.42462 0.78464 0.71739 0.0
C891 C 0.31784 0.77911 0.71976 0.0
C892 C 0.35531 0.75016 0.76091 0.0
C893 C 0.28833 0.77414 0.71297 0.0
C894 C 0.4764 0.74753 0.74614 0.0
C895 C 0.45151 0.75225 0.74022 0.0
C896 C 0.40548 0.775 0.72974 0.0
C897 C 0.32049 0.75576 0.73191 0.0
C898 C 0.35158 0.76043 0.73905 0.0
C899 C 0.43755 0.76216 0.75696 0.0
C900 C 0.4088 0.76363 0.75129 0.0
H901 H 0.24335 0.69987 0.73395 0.0
H902 H 0.29438 0.70858 0.7458 0.0
H903 H 0.37499 0.78148 0.7067 0.0
H904 H 0.48296 0.76771 0.80321 0.0
H905 H 0.43999 0.77651 0.79277 0.0
C906 C 0.74261 0.4688 0.91306 0.0
C907 C 0.75008 0.47611 0.93653 0.0
C908 C 0.71391 0.44308 0.90656 0.0
C909 C 0.63454 0.38541 0.92896 0.0
H910 H 0.63531 0.33555 0.87716 0.0
C911 C 0.53573 0.25845 0.91004 0.0
C912 C 0.52596 0.25099 0.88691 0.0
C913 C 0.56154 0.28754 0.91571 0.0
C914 C 0.63466 0.34945 0.89148 0.0
H915 H 0.73346 0.46249 0.97164 0.0
H916 H 0.68363 0.41691 0.96044 0.0
H917 H 0.68335 0.38315 0.88793 0.0
H918 H 0.53536 0.26809 0.8516 0.0
H919 H 0.58078 0.31895 0.86149 0.0
H920 H 0.58593 0.35079 0.93289 0.0
C921 C 0.69953 0.43147 0.94695 0.0
C922 C 0.66217 0.37682 0.89764 0.0
C923 C 0.7281 0.4575 0.95342 0.0
C924 C 0.54226 0.27334 0.86958 0.0
C925 C 0.56833 0.30229 0.87521 0.0
C926 C 0.6071 0.35779 0.92294 0.0
C927 C 0.69218 0.42376 0.92343 0.0
C928 C 0.66252 0.39513 0.91651 0.0
C929 C 0.57833 0.30958 0.89832 0.0
C930 C 0.60695 0.33952 0.90419 0.0
H931 H 0.75895 0.48313 0.8997 0.0
H932 H 0.70881 0.43835 0.88829 0.0
H933 H 0.63377 0.39917 0.94332 0.0
H934 H 0.52338 0.24174 0.92374 0.0
H935 H 0.56888 0.29248 0.93365 0.0
C936 C 0.36462 0.30354 0.23595 0.0
C937 C 0.35096 0.27227 0.2435 0.0
C938 C 0.35499 0.31084 0.21533 0.0
C939 C 0.29118 0.28215 0.17253 0.0
H940 H 0.35718 0.34389 0.1333 0.0
C941 C 0.26874 0.32077 0.08233 0.0
C942 C 0.28521 0.35338 0.07846 0.0
C943 C 0.27549 0.30805 0.10173 0.0
C944 C 0.33846 0.32672 0.14411 0.0
H945 H 0.31586 0.22418 0.23553 0.0
H946 H 0.29913 0.23702 0.19918 0.0
H947 H 0.37092 0.32688 0.16878 0.0
H948 H 0.32068 0.39821 0.09247 0.0
H949 H 0.33256 0.37611 0.12591 0.0
H950 H 0.25872 0.28241 0.1478 0.0
C951 C 0.31723 0.25584 0.2094 0.0
C952 C 0.34633 0.31702 0.16445 0.0
C953 C 0.32695 0.24848 0.2301 0.0
C954 C 0.30815 0.37294 0.09455 0.0
C955 C 0.31494 0.36028 0.11377 0.0
C956 C 0.28328 0.29189 0.15208 0.0
C957 C 0.33153 0.28707 0.20164 0.0
C958 C 0.3228 0.29516 0.17915 0.0
C959 C 0.29889 0.32772 0.11751 0.0
C960 C 0.30687 0.3148 0.13794 0.0
H961 H 0.38349 0.32241 0.24563 0.0
H962 H 0.36613 0.33519 0.21 0.0
H963 H 0.27254 0.26532 0.18356 0.0
H964 H 0.25104 0.30506 0.07021 0.0
H965 H 0.26284 0.28284 0.10416 0.0
C966 C 0.03103 0.32996 0.41188 0.0
C967 C 0.06309 0.33921 0.41177 0.0
C968 C 0.01252 0.31611 0.39228 0.0
C969 C 0.01912 0.31625 0.32968 0.0
H970 H 0.93518 0.24394 0.33166 0.0
C971 C 0.94439 0.26984 0.2469 0.0
C972 C 0.91237 0.26011 0.24898 0.0
C973 C 0.96295 0.27569 0.26666 0.0
C974 C 0.95846 0.26435 0.33082 0.0
H975 H 0.10077 0.34068 0.39129 0.0
H976 H 0.06843 0.31668 0.35697 0.0
H977 H 0.96697 0.26096 0.36685 0.0
H978 H 0.87459 0.24893 0.27324 0.0
H979 H 0.90698 0.25993 0.30766 0.0
H980 H 0.01042 0.32071 0.29406 0.0
C981 C 0.05766 0.32007 0.37224 0.0
C982 C 0.97667 0.27397 0.35097 0.0
C983 C 0.07606 0.33354 0.39192 0.0
C984 C 0.89914 0.25594 0.27115 0.0
C985 C 0.91774 0.26216 0.29088 0.0
C986 C 0.00081 0.30691 0.30962 0.0
C987 C 0.02583 0.31165 0.37212 0.0
C988 C 0.00708 0.30013 0.3506 0.0
C989 C 0.94997 0.27239 0.28892 0.0
C990 C 0.97012 0.281 0.30996 0.0
H991 H 0.02041 0.33389 0.42701 0.0
H992 H 0.98807 0.30999 0.39259 0.0
H993 H 0.04235 0.33679 0.32899 0.0
H994 H 0.95508 0.27297 0.22999 0.0
H995 H 0.98753 0.28295 0.26445 0.0
C996 C 0.65729 0.92009 0.43211 0.0
C997 C 0.65269 0.93253 0.41155 0.0
C998 C 0.66959 0.93896 0.45175 0.0
C999 C 0.67855 0.01197 0.47729 0.0
H1000 H 0.73232 0.0015 0.52122 0.0
C1001 C 0.73529 0.09563 0.55422 0.0
C1002 C 0.73264 0.08169 0.57596 0.0
C1003 C 0.72749 0.07768 0.53404 0.0
C1004 C 0.71715 0.00449 0.50915 0.0
H1005 H 0.65886 0.97478 0.39501 0.0
H1006 H 0.68109 0.008 0.42909 0.0
H1007 H 0.71643 0.97051 0.48558 0.0
H1008 H 0.72029 0.03814 0.59361 0.0
H1009 H 0.70667 0.0066 0.55812 0.0
H1010 H 0.67952 0.04612 0.50074 0.0
C1011 C 0.67434 0.98344 0.4303 0.0
C1012 C 0.708 0.98675 0.48876 0.0
C1013 C 0.66175 0.96449 0.41074 0.0
C1014 C 0.72248 0.04945 0.57707 0.0
C1015 C 0.71491 0.0315 0.5568 0.0
C1016 C 0.68791 0.02985 0.49752 0.0
C1017 C 0.67781 0.97076 0.45121 0.0
C1018 C 0.68853 0.99024 0.47259 0.0
C1019 C 0.71699 0.04541 0.53512 0.0
C1020 C 0.70726 0.02629 0.51367 0.0
H1021 H 0.65017 0.89543 0.43329 0.0
H1022 H 0.67153 0.92827 0.46759 0.0
H1023 H 0.66295 0.01478 0.46554 0.0
H1024 H 0.74261 0.12032 0.55281 0.0
H1025 H 0.72955 0.08907 0.51756 0.0
C1026 C 0.74154 0.64541 0.60573 0.0
C1027 C 0.73315 0.65051 0.58354 0.0
C1028 C 0.73529 0.65805 0.62531 0.0
C1029 C 0.7146 0.71744 0.64462 0.0
H1030 H 0.68018 0.66243 0.69777 0.0
C1031 C 0.64979 0.73945 0.7194 0.0
C1032 C 0.65455 0.73215 0.74205 0.0
C1033 C 0.6629 0.73242 0.70047 0.0
C1034 C 0.69022 0.67829 0.68322 0.0
H1035 H 0.71247 0.67374 0.56454 0.0
H1036 H 0.70085 0.69518 0.59878 0.0
H1037 H 0.69647 0.64473 0.66391 0.0
H1038 H 0.67797 0.71301 0.7626 0.0
H1039 H 0.7008 0.70066 0.72952 0.0
H1040 H 0.70765 0.75075 0.66389 0.0
C1041 C 0.71262 0.68171 0.601 0.0
C1042 C 0.69958 0.66814 0.66379 0.0
C1043 C 0.71896 0.66912 0.58139 0.0
C1044 C 0.67347 0.71849 0.74536 0.0
C1045 C 0.68653 0.71141 0.72642 0.0
C1046 C 0.70514 0.72757 0.66407 0.0
C1047 C 0.72037 0.67599 0.62322 0.0
C1048 C 0.71171 0.68751 0.6442 0.0
C1049 C 0.68101 0.71788 0.70375 0.0
C1050 C 0.69267 0.70801 0.68353 0.0
H1051 H 0.75213 0.63088 0.6081 0.0
H1052 H 0.74192 0.65353 0.64214 0.0
H1053 H 0.72425 0.7331 0.62993 0.0
H1054 H 0.63493 0.7495 0.71619 0.0
H1055 H 0.65785 0.73731 0.68321 0.0
C1056 C 0.09918 0.7387 0.77159 0.0
C1057 C 0.08524 0.73686 0.74996 0.0
C1058 C 0.08166 0.73197 0.7919 0.0
C1059 C 0.01035 0.72577 0.81741 0.0
H1060 H 0.01807 0.66976 0.86074 0.0
C1061 C 0.92522 0.66688 0.89425 0.0
C1062 C 0.93713 0.661 0.91457 0.0
C1063 C 0.94438 0.67961 0.8748 0.0
C1064 C 0.01602 0.6859 0.84909 0.0
H1065 H 0.04213 0.72704 0.73269 0.0
H1066 H 0.0113 0.71516 0.76841 0.0
H1067 H 0.04899 0.68502 0.82539 0.0
H1068 H 0.97884 0.66566 0.93105 0.0
H1069 H 0.01259 0.68866 0.89734 0.0
H1070 H 0.97741 0.72671 0.8412 0.0
C1071 C 0.0359 0.72201 0.76953 0.0
C1072 C 0.03366 0.69452 0.82876 0.0
C1073 C 0.05344 0.72855 0.74912 0.0
C1074 C 0.96896 0.66955 0.91548 0.0
C1075 C 0.9882 0.68256 0.89613 0.0
C1076 C 0.99282 0.71732 0.8379 0.0
C1077 C 0.04979 0.7233 0.7911 0.0
C1078 C 0.031 0.71449 0.81269 0.0
C1079 C 0.97594 0.68694 0.87534 0.0
C1080 C 0.99541 0.69721 0.85397 0.0
H1081 H 0.12351 0.74459 0.77282 0.0
H1082 H 0.09305 0.7334 0.80828 0.0
H1083 H 0.00807 0.74143 0.8054 0.0
H1084 H 0.90066 0.6602 0.89301 0.0
H1085 H 0.93403 0.68234 0.85905 0.0
C1086 C 0.25902 0.90482 0.05428 0.0
C1087 C 0.26095 0.91768 0.07635 0.0
C1088 C 0.26521 0.92321 0.03448 0.0
C1089 C 0.30638 0.00597 0.01548 0.0
H1090 H 0.26332 0.96939 0.95766 0.0
C1091 C 0.33338 0.07825 0.93154 0.0
C1092 C 0.34037 0.06517 0.91238 0.0
C1093 C 0.31982 0.06036 0.95139 0.0
C1094 C 0.27551 0.97986 0.9737 0.0
H1095 H 0.27023 0.95965 0.09504 0.0
H1096 H 0.28038 0.99181 0.06033 0.0
H1097 H 0.24617 0.93835 0.99314 0.0
H1098 H 0.33745 0.0228 0.89856 0.0
H1099 H 0.31341 0.99135 0.93328 0.0
H1100 H 0.33563 0.04751 0.99593 0.0
C1101 C 0.27466 0.96762 0.05834 0.0
C1102 C 0.26582 0.9621 0.99401 0.0
C1103 C 0.26876 0.94924 0.07822 0.0
C1104 C 0.33247 0.0335 0.91313 0.0
C1105 C 0.31853 0.01548 0.93291 0.0
C1106 C 0.31581 0.02383 0.99522 0.0
C1107 C 0.27325 0.95489 0.03623 0.0
C1108 C 0.28153 0.97472 0.01508 0.0
C1109 C 0.31264 0.02894 0.95237 0.0
C1110 C 0.30081 0.01077 0.97408 0.0
H1111 H 0.25366 0.88072 0.05233 0.0
H1112 H 0.2646 0.91275 0.01784 0.0
H1113 H 0.31937 0.01634 0.03126 0.0
H1114 H 0.33949 0.1027 0.93151 0.0
H1115 H 0.31533 0.07122 0.96611 0.0
C1116 C 0.33781 0.48394 0.94948 0.0
C1117 C 0.3109 0.48426 0.95714 0.0
C1118 C 0.36016 0.50843 0.93602 0.0
C1119 C 0.4137 0.57125 0.92285 0.0
H1120 H 0.39432 0.61533 0.87586 0.0
C1121 C 0.50483 0.65426 0.85719 0.0
C1122 C 0.50804 0.68413 0.85471 0.0
C1123 C 0.47988 0.63093 0.86978 0.0
C1124 C 0.39998 0.60334 0.8891 0.0
H1125 H 0.28561 0.50983 0.95626 0.0
H1126 H 0.32529 0.55342 0.93319 0.0
H1127 H 0.35154 0.57148 0.89675 0.0
H1128 H 0.4874 0.71294 0.86306 0.0
H1129 H 0.44316 0.67165 0.88486 0.0
H1130 H 0.46202 0.60245 0.91471 0.0
C1131 C 0.32885 0.53391 0.9372 0.0
C1132 C 0.37554 0.57829 0.9011 0.0
C1133 C 0.30613 0.509 0.95041 0.0
C1134 C 0.48554 0.69013 0.86482 0.0
C1135 C 0.4602 0.66654 0.87714 0.0
C1136 C 0.43797 0.5959 0.91069 0.0
C1137 C 0.3565 0.53423 0.93028 0.0
C1138 C 0.38212 0.56166 0.91793 0.0
C1139 C 0.45734 0.63683 0.87988 0.0
C1140 C 0.43137 0.61196 0.89355 0.0
H1141 H 0.34185 0.46492 0.9542 0.0
H1142 H 0.3806 0.50731 0.93041 0.0
H1143 H 0.41979 0.55972 0.93618 0.0
H1144 H 0.52181 0.64896 0.84961 0.0
H1145 H 0.47806 0.60813 0.8715 0.0
C1146 C 0.85708 0.51238 0.03372 0.0
C1147 C 0.82992 0.51262 0.02661 0.0
C1148 C 0.85487 0.48775 0.04712 0.0
C1149 C 0.84508 0.4252 0.06244 0.0
H1150 H 0.7807 0.3832 0.10915 0.0
C1151 C 0.84942 0.34198 0.13038 0.0
C1152 C 0.82222 0.3125 0.13274 0.0
C1153 C 0.84893 0.36552 0.11722 0.0
C1154 C 0.79862 0.39461 0.09601 0.0
H1155 H 0.77911 0.48756 0.02806 0.0
H1156 H 0.77505 0.44381 0.05085 0.0
H1157 H 0.78287 0.42678 0.08723 0.0
H1158 H 0.77301 0.28465 0.12356 0.0
H1159 H 0.772 0.32632 0.10084 0.0
H1160 H 0.8614 0.39366 0.07184 0.0
C1161 C 0.79817 0.46302 0.04659 0.0
C1162 C 0.79985 0.4195 0.08338 0.0
C1163 C 0.80044 0.48801 0.03346 0.0
C1164 C 0.79434 0.30714 0.12195 0.0
C1165 C 0.79371 0.33095 0.10908 0.0
C1166 C 0.84413 0.40071 0.07528 0.0
C1167 C 0.82538 0.46239 0.05339 0.0
C1168 C 0.82328 0.43531 0.06654 0.0
C1169 C 0.8211 0.36025 0.10645 0.0
C1170 C 0.82104 0.38532 0.09228 0.0
H1171 H 0.88015 0.53126 0.0289 0.0
H1172 H 0.87639 0.48864 0.05254 0.0
H1173 H 0.86292 0.43611 0.0492 0.0
H1174 H 0.87126 0.34676 0.13847 0.0
H1175 H 0.87029 0.38799 0.11559 0.0
C1176 C 0.51466 0.85602 0.28474 0.0
C1177 C 0.5148 0.8289 0.29214 0.0
C1178 C 0.49092 0.85371 0.27019 0.0
C1179 C 0.4091 0.8022 0.25586 0.0
H1180 H 0.42739 0.85508 0.20169 0.0
C1181 C 0.31029 0.79713 0.1982 0.0
C1182 C 0.31517 0.8256 0.18888 0.0
C1183 C 0.33471 0.79566 0.20948 0.0
C1184 C 0.4218 0.84042 0.21693 0.0
H1185 H 0.49049 0.77811 0.29004 0.0
H1186 H 0.4484 0.77404 0.26488 0.0
H1187 H 0.47034 0.85604 0.22348 0.0
H1188 H 0.34912 0.87494 0.18442 0.0
H1189 H 0.39126 0.87276 0.2048 0.0
H1190 H 0.36074 0.78752 0.25006 0.0
C1191 C 0.46688 0.79705 0.27023 0.0
C1192 C 0.44644 0.84085 0.22929 0.0
C1193 C 0.491 0.7994 0.28448 0.0
C1194 C 0.34476 0.85261 0.19127 0.0
C1195 C 0.36901 0.85125 0.2028 0.0
C1196 C 0.38444 0.80209 0.24371 0.0
C1197 C 0.46656 0.8242 0.26307 0.0
C1198 C 0.44034 0.82196 0.24898 0.0
C1199 C 0.36443 0.82273 0.21194 0.0
C1200 C 0.39048 0.82148 0.22421 0.0
H1201 H 0.53276 0.87906 0.29037 0.0
H1202 H 0.49108 0.87499 0.26505 0.0
H1203 H 0.40381 0.78765 0.27115 0.0
H1204 H 0.28775 0.77588 0.19644 0.0
H1205 H 0.33037 0.77318 0.21598 0.0
C1206 C 0.51042 0.30765 0.37019 0.0
C1207 C 0.4868 0.31289 0.36141 0.0
C1208 C 0.53565 0.33121 0.38263 0.0
C1209 C 0.5758 0.41749 0.39419 0.0
H1210 H 0.6135 0.39677 0.44521 0.0
C1211 C 0.65588 0.50721 0.46265 0.0
C1212 C 0.685 0.5091 0.4664 0.0
C1213 C 0.63289 0.48302 0.44922 0.0
C1214 C 0.60329 0.4028 0.43087 0.0
H1215 H 0.47029 0.34626 0.35941 0.0
H1216 H 0.51323 0.38667 0.38191 0.0
H1217 H 0.57041 0.35467 0.42344 0.0
H1218 H 0.71285 0.48702 0.45941 0.0
H1219 H 0.67207 0.444 0.43636 0.0
H1220 H 0.60793 0.46566 0.40239 0.0
C1221 C 0.51324 0.36502 0.3785 0.0
C1222 C 0.5787 0.37873 0.4183 0.0
C1223 C 0.48842 0.34174 0.36574 0.0
C1224 C 0.69062 0.48614 0.4567 0.0
C1225 C 0.66732 0.46152 0.44364 0.0
C1226 C 0.59994 0.44147 0.40701 0.0
C1227 C 0.53748 0.36031 0.38688 0.0
C1228 C 0.56443 0.38575 0.39988 0.0
C1229 C 0.63836 0.45992 0.43967 0.0
C1230 C 0.61377 0.43435 0.42553 0.0
H1231 H 0.5098 0.28563 0.36696 0.0
H1232 H 0.55399 0.32677 0.38851 0.0
H1233 H 0.56612 0.42394 0.37976 0.0
H1234 H 0.65096 0.52465 0.46987 0.0
H1235 H 0.61066 0.48216 0.44651 0.0
C1236 C 0.1954 0.51065 0.53357 0.0
C1237 C 0.16615 0.48584 0.52649 0.0
C1238 C 0.19716 0.53538 0.54678 0.0
C1239 C 0.14937 0.57237 0.56195 0.0
H1240 H 0.21319 0.6152 0.60894 0.0
C1241 C 0.14454 0.65733 0.62828 0.0
C1242 C 0.17207 0.68644 0.63111 0.0
C1243 C 0.14492 0.63353 0.61533 0.0
C1244 C 0.19542 0.60356 0.59572 0.0
H1245 H 0.1158 0.46651 0.52856 0.0
H1246 H 0.1187 0.5087 0.55232 0.0
H1247 H 0.21148 0.57145 0.58753 0.0
H1248 H 0.22166 0.71344 0.62288 0.0
H1249 H 0.2224 0.67141 0.60049 0.0
H1250 H 0.13283 0.60395 0.57066 0.0
C1251 C 0.14041 0.50993 0.54702 0.0
C1252 C 0.19445 0.57856 0.5834 0.0
C1253 C 0.1387 0.48555 0.53355 0.0
C1254 C 0.20007 0.69125 0.62089 0.0
C1255 C 0.20055 0.6672 0.60822 0.0
C1256 C 0.1501 0.59701 0.57446 0.0
C1257 C 0.16966 0.53553 0.55342 0.0
C1258 C 0.17126 0.5625 0.56643 0.0
C1259 C 0.17292 0.63819 0.60524 0.0
C1260 C 0.17301 0.61275 0.59153 0.0
H1261 H 0.21695 0.51153 0.52822 0.0
H1262 H 0.22011 0.55478 0.55117 0.0
H1263 H 0.1317 0.56122 0.54861 0.0
H1264 H 0.12261 0.65297 0.63594 0.0
H1265 H 0.12334 0.61129 0.61344 0.0
C1266 C 0.69207 0.20257 0.70284 0.0
C1267 C 0.68669 0.17421 0.6929 0.0
C1268 C 0.66849 0.20367 0.71571 0.0
C1269 C 0.5993 0.15442 0.75066 0.0
H1270 H 0.57295 0.21511 0.73724 0.0
C1271 C 0.48755 0.14216 0.79136 0.0
C1272 C 0.48737 0.16943 0.79829 0.0
C1273 C 0.51213 0.14417 0.77802 0.0
C1274 C 0.58031 0.1983 0.74147 0.0
H1275 H 0.65265 0.12478 0.68871 0.0
H1276 H 0.61183 0.12659 0.71155 0.0
H1277 H 0.6164 0.2166 0.71552 0.0
H1278 H 0.51245 0.22021 0.79646 0.0
H1279 H 0.55611 0.2239 0.77367 0.0
H1280 H 0.56402 0.13642 0.77687 0.0
C1281 C 0.63414 0.14797 0.70929 0.0
C1282 C 0.60514 0.19914 0.72898 0.0
C1283 C 0.65746 0.14698 0.69614 0.0
C1284 C 0.51195 0.1988 0.79121 0.0
C1285 C 0.5369 0.20087 0.7781 0.0
C1286 C 0.57484 0.15383 0.76334 0.0
C1287 C 0.6394 0.17629 0.71918 0.0
C1288 C 0.61451 0.17689 0.73325 0.0
C1289 C 0.5375 0.17355 0.77161 0.0
C1290 C 0.56462 0.1754 0.75867 0.0
H1291 H 0.71437 0.22394 0.70052 0.0
H1292 H 0.67313 0.22576 0.72325 0.0
H1293 H 0.60642 0.13731 0.75454 0.0
H1294 H 0.46868 0.11917 0.79634 0.0
H1295 H 0.51125 0.12258 0.77281 0.0
loop_
_geom_bond_atom_site_label_1
_geom_bond_atom_site_label_2
_geom_bond_distance
_geom_bond_site_symmetry_2
_ccdc_geom_bond_type
Co0 N4 2.170 . S
Co0 N10 2.103 1_556 S
Co0 N20 2.159 1_556 S
Co0 O25 2.368 . S
Co0 O26 2.195 . S
Co0 O27 2.104 . S
C1 N4 1.301 . S
C1 N5 1.328 . S
C1 H6 0.930 . S
C2 C3 1.333 . S
C2 N4 1.317 . S
C2 H7 0.930 . S
C3 C2 1.333 . S
C3 N5 1.350 . S
C3 H29 0.931 . S
N4 Co0 2.170 . S
N4 C1 1.301 . S
N4 C2 1.317 . S
N5 C1 1.328 . S
N5 C3 1.350 . S
H6 C1 0.930 . S
H7 C2 0.930 . S
C8 O9 1.224 . S
C8 O27 1.247 1_554 S
O9 C8 1.224 . S
N10 Co0 2.103 1_554 S
N10 C11 1.355 . S
N10 C13 1.311 . S
C11 N10 1.355 . S
C11 C12 1.363 . S
C11 H23 0.929 . S
C12 C11 1.363 . S
C12 N14 1.375 . S
C12 H30 0.931 . S
C13 N10 1.311 . S
C13 N14 1.347 . S
C13 H24 0.929 . S
N14 C12 1.375 . S
N14 C13 1.347 . S
C15 C18 1.365 . S
C15 N20 1.328 . S
C15 H21 0.929 . S
C16 C17 1.362 . S
C16 C19 1.378 . S
C16 H31 0.929 . S
C17 C16 1.362 . S
C17 C18 1.366 . S
C18 C15 1.365 . S
C18 C17 1.366 . S
C18 H32 0.930 . S
C19 C16 1.378 . S
C19 N20 1.315 . S
C19 H22 0.930 . S
N20 Co0 2.159 1_554 S
N20 C15 1.328 . S
N20 C19 1.315 . S
H21 C15 0.929 . S
H22 C19 0.930 . S
H23 C11 0.929 . S
H24 C13 0.929 . S
O25 Co0 2.368 . S
O25 C28 1.244 . S
O26 Co0 2.195 . S
O26 C28 1.240 . S
O27 Co0 2.104 . S
O27 C8 1.247 1_556 S
C28 O25 1.244 . S
C28 O26 1.240 . S
H29 C3 0.931 . S
H30 C12 0.931 . S
H31 C16 0.929 . S
H32 C18 0.930 . S
Co33 N37 2.148 . S
Co33 N43 2.128 . S
Co33 N53 2.194 . S
Co33 O58 2.351 . S
Co33 O59 2.155 . S
Co33 O60 2.096 . S
C34 N37 1.301 . S
C34 N38 1.328 . S
C34 H39 0.930 . S
C35 C36 1.333 . S
C35 N37 1.317 . S
C35 H40 0.930 . S
C36 C35 1.333 . S
C36 N38 1.350 . S
C36 H62 0.931 . S
N37 Co33 2.148 . S
N37 C34 1.301 . S
N37 C35 1.317 . S
N38 C34 1.328 . S
N38 C36 1.350 . S
H39 C34 0.930 . S
H40 C35 0.930 . S
C41 O42 1.224 . S
C41 O60 1.247 . S
O42 C41 1.224 . S
N43 Co33 2.128 . S
N43 C44 1.355 . S
N43 C46 1.311 . S
C44 N43 1.355 . S
C44 C45 1.363 . S
C44 H56 0.929 . S
C45 C44 1.363 . S
C45 N47 1.375 . S
C45 H63 0.931 . S
C46 N43 1.311 . S
C46 N47 1.347 . S
C46 H57 0.929 . S
N47 C45 1.375 . S
N47 C46 1.347 . S
C48 C51 1.365 . S
C48 N53 1.328 . S
C48 H54 0.929 . S
C49 C50 1.362 . S
C49 C52 1.378 . S
C49 H64 0.929 . S
C50 C49 1.362 . S
C50 C51 1.366 . S
C51 C48 1.365 . S
C51 C50 1.366 . S
C51 H65 0.930 . S
C52 C49 1.378 . S
C52 N53 1.315 . S
C52 H55 0.930 . S
N53 Co33 2.194 . S
N53 C48 1.328 . S
N53 C52 1.315 . S
H54 C48 0.929 . S
H55 C52 0.930 . S
H56 C44 0.929 . S
H57 C46 0.929 . S
O58 Co33 2.351 . S
O58 C61 1.244 . S
O59 Co33 2.155 . S
O59 C61 1.240 . S
O60 Co33 2.096 . S
O60 C41 1.247 . S
C61 O58 1.244 . S
C61 O59 1.240 . S
H62 C36 0.931 . S
H63 C45 0.931 . S
H64 C49 0.929 . S
H65 C51 0.930 . S
Co66 N70 2.148 . S
Co66 N76 2.128 . S
Co66 N86 2.194 . S
Co66 O91 2.351 . S
Co66 O92 2.155 . S
Co66 O93 2.096 . S
C67 N70 1.301 . S
C67 N71 1.328 . S
C67 H72 0.930 . S
C68 C69 1.333 . S
C68 N70 1.317 . S
C68 H73 0.930 . S
C69 C68 1.333 . S
C69 N71 1.350 . S
C69 H95 0.931 . S
N70 Co66 2.148 . S
N70 C67 1.301 . S
N70 C68 1.317 . S
N71 C67 1.328 . S
N71 C69 1.350 . S
H72 C67 0.930 . S
H73 C68 0.930 . S
C74 O75 1.224 . S
C74 O93 1.247 . S
O75 C74 1.224 . S
N76 Co66 2.128 . S
N76 C77 1.355 . S
N76 C79 1.311 . S
C77 N76 1.355 . S
C77 C78 1.363 . S
C77 H89 0.929 . S
C78 C77 1.363 . S
C78 N80 1.375 . S
C78 H96 0.931 . S
C79 N76 1.311 . S
C79 N80 1.347 . S
C79 H90 0.929 . S
N80 C78 1.375 . S
N80 C79 1.347 . S
C81 C84 1.365 . S
C81 N86 1.328 . S
C81 H87 0.929 . S
C82 C83 1.362 . S
C82 C85 1.378 . S
C82 H97 0.929 . S
C83 C82 1.362 . S
C83 C84 1.366 . S
C84 C81 1.365 . S
C84 C83 1.366 . S
C84 H98 0.930 . S
C85 C82 1.378 . S
C85 N86 1.315 . S
C85 H88 0.930 . S
N86 Co66 2.194 . S
N86 C81 1.328 . S
N86 C85 1.315 . S
H87 C81 0.929 . S
H88 C85 0.930 . S
H89 C77 0.929 . S
H90 C79 0.929 . S
O91 Co66 2.351 . S
O91 C94 1.244 . S
O92 Co66 2.155 . S
O92 C94 1.240 . S
O93 Co66 2.096 . S
O93 C74 1.247 . S
C94 O91 1.244 . S
C94 O92 1.240 . S
H95 C69 0.931 . S
H96 C78 0.931 . S
H97 C82 0.929 . S
H98 C84 0.930 . S
Co99 N103 2.148 . S
Co99 N109 2.128 . S
Co99 N119 2.194 . S
Co99 O124 2.351 . S
Co99 O125 2.155 . S
Co99 O126 2.096 . S
C100 N103 1.301 . S
C100 N104 1.328 . S
C100 H105 0.930 . S
C101 C102 1.333 . S
C101 N103 1.317 . S
C101 H106 0.930 . S
C102 C101 1.333 . S
C102 N104 1.350 . S
C102 H128 0.931 . S
N103 Co99 2.148 . S
N103 C100 1.301 . S
N103 C101 1.317 . S
N104 C100 1.328 . S
N104 C102 1.350 . S
H105 C100 0.930 . S
H106 C101 0.930 . S
C107 O108 1.224 . S
C107 O126 1.247 . S
O108 C107 1.224 . S
N109 Co99 2.128 . S
N109 C110 1.355 . S
N109 C112 1.311 . S
C110 N109 1.355 . S
C110 C111 1.363 . S
C110 H122 0.929 . S
C111 C110 1.363 . S
C111 N113 1.375 . S
C111 H129 0.931 . S
C112 N109 1.311 . S
C112 N113 1.347 . S
C112 H123 0.929 . S
N113 C111 1.375 . S
N113 C112 1.347 . S
C114 C117 1.365 . S
C114 N119 1.328 . S
C114 H120 0.929 . S
C115 C116 1.362 . S
C115 C118 1.378 . S
C115 H130 0.929 . S
C116 C115 1.362 . S
C116 C117 1.366 . S
C117 C114 1.365 . S
C117 C116 1.366 . S
C117 H131 0.930 . S
C118 C115 1.378 . S
C118 N119 1.315 . S
C118 H121 0.930 . S
N119 Co99 2.194 . S
N119 C114 1.328 . S
N119 C118 1.315 . S
H120 C114 0.929 . S
H121 C118 0.930 . S
H122 C110 0.929 . S
H123 C112 0.929 . S
O124 Co99 2.351 . S
O124 C127 1.244 . S
O125 Co99 2.155 . S
O125 C127 1.240 . S
O126 Co99 2.096 . S
O126 C107 1.247 . S
C127 O124 1.244 . S
C127 O125 1.240 . S
H128 C102 0.931 . S
H129 C111 0.931 . S
H130 C115 0.929 . S
H131 C117 0.930 . S
Co132 N136 2.148 . S
Co132 N142 2.128 . S
Co132 N152 2.194 . S
Co132 O157 2.351 . S
Co132 O158 2.155 . S
Co132 O159 2.096 . S
C133 N136 1.301 . S
C133 N137 1.328 . S
C133 H138 0.930 . S
C134 C135 1.333 . S
C134 N136 1.317 . S
C134 H139 0.930 . S
C135 C134 1.333 . S
C135 N137 1.350 . S
C135 H161 0.931 . S
N136 Co132 2.148 . S
N136 C133 1.301 . S
N136 C134 1.317 . S
N137 C133 1.328 . S
N137 C135 1.350 . S
H138 C133 0.930 . S
H139 C134 0.930 . S
C140 O141 1.224 . S
C140 O159 1.247 . S
O141 C140 1.224 . S
N142 Co132 2.128 . S
N142 C143 1.355 . S
N142 C145 1.311 . S
C143 N142 1.355 . S
C143 C144 1.363 . S
C143 H155 0.929 . S
C144 C143 1.363 . S
C144 N146 1.375 . S
C144 H162 0.931 . S
C145 N142 1.311 . S
C145 N146 1.347 . S
C145 H156 0.929 . S
N146 C144 1.375 . S
N146 C145 1.347 . S
C147 C150 1.365 . S
C147 N152 1.328 . S
C147 H153 0.929 . S
C148 C149 1.362 . S
C148 C151 1.378 . S
C148 H163 0.929 . S
C149 C148 1.362 . S
C149 C150 1.366 . S
C150 C147 1.365 . S
C150 C149 1.366 . S
C150 H164 0.930 . S
C151 C148 1.378 . S
C151 N152 1.315 . S
C151 H154 0.930 . S
N152 Co132 2.194 . S
N152 C147 1.328 . S
N152 C151 1.315 . S
H153 C147 0.929 . S
H154 C151 0.930 . S
H155 C143 0.929 . S
H156 C145 0.929 . S
O157 Co132 2.351 . S
O157 C160 1.244 . S
O158 Co132 2.155 . S
O158 C160 1.240 . S
O159 Co132 2.096 . S
O159 C140 1.247 . S
C160 O157 1.244 . S
C160 O158 1.240 . S
H161 C135 0.931 . S
H162 C144 0.931 . S
H163 C148 0.929 . S
H164 C150 0.930 . S
Co165 N169 2.148 . S
Co165 N175 2.128 . S
Co165 N185 2.194 . S
Co165 O190 2.351 . S
Co165 O191 2.155 . S
Co165 O192 2.096 . S
C166 N169 1.301 . S
C166 N170 1.328 . S
C166 H171 0.930 . S
C167 C168 1.333 . S
C167 N169 1.317 . S
C167 H172 0.930 . S
C168 C167 1.333 . S
C168 N170 1.350 . S
C168 H194 0.931 . S
N169 Co165 2.148 . S
N169 C166 1.301 . S
N169 C167 1.317 . S
N170 C166 1.328 . S
N170 C168 1.350 . S
H171 C166 0.930 . S
H172 C167 0.930 . S
C173 O174 1.224 . S
C173 O192 1.247 . S
O174 C173 1.224 . S
N175 Co165 2.128 . S
N175 C176 1.355 . S
N175 C178 1.311 . S
C176 N175 1.355 . S
C176 C177 1.363 . S
C176 H188 0.929 . S
C177 C176 1.363 . S
C177 N179 1.375 . S
C177 H195 0.931 . S
C178 N175 1.311 . S
C178 N179 1.347 . S
C178 H189 0.929 . S
N179 C177 1.375 . S
N179 C178 1.347 . S
C180 C183 1.365 . S
C180 N185 1.328 . S
C180 H186 0.929 . S
C181 C182 1.362 . S
C181 C184 1.378 . S
C181 H196 0.929 . S
C182 C181 1.362 . S
C182 C183 1.366 . S
C183 C180 1.365 . S
C183 C182 1.366 . S
C183 H197 0.930 . S
C184 C181 1.378 . S
C184 N185 1.315 . S
C184 H187 0.930 . S
N185 Co165 2.194 . S
N185 C180 1.328 . S
N185 C184 1.315 . S
H186 C180 0.929 . S
H187 C184 0.930 . S
H188 C176 0.929 . S
H189 C178 0.929 . S
O190 Co165 2.351 . S
O190 C193 1.244 . S
O191 Co165 2.155 . S
O191 C193 1.240 . S
O192 Co165 2.096 . S
O192 C173 1.247 . S
C193 O190 1.244 . S
C193 O191 1.240 . S
H194 C168 0.931 . S
H195 C177 0.931 . S
H196 C181 0.929 . S
H197 C183 0.930 . S
Co198 N202 2.148 . S
Co198 N208 2.128 . S
Co198 N218 2.194 . S
Co198 O223 2.351 . S
Co198 O224 2.155 . S
Co198 O225 2.096 . S
C199 N202 1.301 . S
C199 N203 1.328 . S
C199 H204 0.930 . S
C200 C201 1.333 . S
C200 N202 1.317 . S
C200 H205 0.930 . S
C201 C200 1.333 . S
C201 N203 1.350 . S
C201 H227 0.931 . S
N202 Co198 2.148 . S
N202 C199 1.301 . S
N202 C200 1.317 . S
N203 C199 1.328 . S
N203 C201 1.350 . S
H204 C199 0.930 . S
H205 C200 0.930 . S
C206 O207 1.224 . S
C206 O225 1.247 . S
O207 C206 1.224 . S
N208 Co198 2.128 . S
N208 C209 1.355 . S
N208 C211 1.311 . S
C209 N208 1.355 . S
C209 C210 1.363 . S
C209 H221 0.929 . S
C210 C209 1.363 . S
C210 N212 1.375 . S
C210 H228 0.931 . S
C211 N208 1.311 . S
C211 N212 1.347 . S
C211 H222 0.929 . S
N212 C210 1.375 . S
N212 C211 1.347 . S
C213 C216 1.365 . S
C213 N218 1.328 . S
C213 H219 0.929 . S
C214 C215 1.362 . S
C214 C217 1.378 . S
C214 H229 0.929 . S
C215 C214 1.362 . S
C215 C216 1.366 . S
C216 C213 1.365 . S
C216 C215 1.366 . S
C216 H230 0.930 . S
C217 C214 1.378 . S
C217 N218 1.315 . S
C217 H220 0.930 . S
N218 Co198 2.194 . S
N218 C213 1.328 . S
N218 C217 1.315 . S
H219 C213 0.929 . S
H220 C217 0.930 . S
H221 C209 0.929 . S
H222 C211 0.929 . S
O223 Co198 2.351 . S
O223 C226 1.244 . S
O224 Co198 2.155 . S
O224 C226 1.240 . S
O225 Co198 2.096 . S
O225 C206 1.247 . S
C226 O223 1.244 . S
C226 O224 1.240 . S
H227 C201 0.931 . S
H228 C210 0.931 . S
H229 C214 0.929 . S
H230 C216 0.930 . S
Co231 N235 2.148 1_556 S
Co231 N241 2.128 . S
Co231 N251 2.194 . S
Co231 O256 2.351 1_556 S
Co231 O257 2.155 1_556 S
Co231 O258 2.096 . S
C232 N235 1.301 . S
C232 N236 1.328 . S
C232 H237 0.930 . S
C233 C234 1.333 . S
C233 N235 1.317 . S
C233 H238 0.930 . S
C234 C233 1.333 . S
C234 N236 1.350 . S
C234 H260 0.931 . S
N235 Co231 2.148 1_554 S
N235 C232 1.301 . S
N235 C233 1.317 . S
N236 C232 1.328 . S
N236 C234 1.350 . S
H237 C232 0.930 . S
H238 C233 0.930 . S
C239 O240 1.224 . S
C239 O258 1.247 . S
O240 C239 1.224 . S
N241 Co231 2.128 . S
N241 C242 1.355 . S
N241 C244 1.311 . S
C242 N241 1.355 . S
C242 C243 1.363 . S
C242 H254 0.929 . S
C243 C242 1.363 . S
C243 N245 1.375 . S
C243 H261 0.931 . S
C244 N241 1.311 . S
C244 N245 1.347 . S
C244 H255 0.929 . S
N245 C243 1.375 . S
N245 C244 1.347 . S
C246 C249 1.365 . S
C246 N251 1.328 . S
C246 H252 0.929 . S
C247 C248 1.362 . S
C247 C250 1.378 . S
C247 H262 0.929 . S
C248 C247 1.362 . S
C248 C249 1.366 . S
C249 C246 1.365 . S
C249 C248 1.366 . S
C249 H263 0.930 . S
C250 C247 1.378 . S
C250 N251 1.315 . S
C250 H253 0.930 . S
N251 Co231 2.194 . S
N251 C246 1.328 . S
N251 C250 1.315 . S
H252 C246 0.929 . S
H253 C250 0.930 . S
H254 C242 0.929 . S
H255 C244 0.929 . S
O256 Co231 2.351 1_554 S
O256 C259 1.244 . S
O257 Co231 2.155 1_554 S
O257 C259 1.240 . S
O258 Co231 2.096 . S
O258 C239 1.247 . S
C259 O256 1.244 . S
C259 O257 1.240 . S
H260 C234 0.931 . S
H261 C243 0.931 . S
H262 C247 0.929 . S
H263 C249 0.930 . S
Co264 N268 2.148 . S
Co264 N274 2.128 . S
Co264 N284 2.194 . S
Co264 O289 2.351 . S
Co264 O290 2.155 . S
Co264 O291 2.096 . S
C265 N268 1.301 . S
C265 N269 1.328 . S
C265 H270 0.930 . S
C266 C267 1.333 . S
C266 N268 1.317 . S
C266 H271 0.930 . S
C267 C266 1.333 . S
C267 N269 1.350 . S
C267 H293 0.931 . S
N268 Co264 2.148 . S
N268 C265 1.301 . S
N268 C266 1.317 . S
N269 C265 1.328 . S
N269 C267 1.350 . S
H270 C265 0.930 . S
H271 C266 0.930 . S
C272 O273 1.224 . S
C272 O291 1.247 . S
O273 C272 1.224 . S
N274 Co264 2.128 . S
N274 C275 1.355 . S
N274 C277 1.311 . S
C275 N274 1.355 . S
C275 C276 1.363 . S
C275 H287 0.929 . S
C276 C275 1.363 . S
C276 N278 1.375 . S
C276 H294 0.931 . S
C277 N274 1.311 . S
C277 N278 1.347 . S
C277 H288 0.929 . S
N278 C276 1.375 . S
N278 C277 1.347 . S
C279 C282 1.365 . S
C279 N284 1.328 . S
C279 H285 0.929 . S
C280 C281 1.362 . S
C280 C283 1.378 . S
C280 H295 0.929 . S
C281 C280 1.362 . S
C281 C282 1.366 . S
C282 C279 1.365 . S
C282 C281 1.366 . S
C282 H296 0.930 . S
C283 C280 1.378 . S
C283 N284 1.315 . S
C283 H286 0.930 . S
N284 Co264 2.194 . S
N284 C279 1.328 . S
N284 C283 1.315 . S
H285 C279 0.929 . S
H286 C283 0.930 . S
H287 C275 0.929 . S
H288 C277 0.929 . S
O289 Co264 2.351 . S
O289 C292 1.244 . S
O290 Co264 2.155 . S
O290 C292 1.240 . S
O291 Co264 2.096 . S
O291 C272 1.247 . S
C292 O289 1.244 . S
C292 O290 1.240 . S
H293 C267 0.931 . S
H294 C276 0.931 . S
H295 C280 0.929 . S
H296 C282 0.930 . S
Co297 N301 2.148 . S
Co297 N307 2.128 . S
Co297 N317 2.194 . S
Co297 O322 2.351 . S
Co297 O323 2.155 . S
Co297 O324 2.096 . S
C298 N301 1.301 . S
C298 N302 1.328 . S
C298 H303 0.930 . S
C299 C300 1.333 . S
C299 N301 1.317 . S
C299 H304 0.930 . S
C300 C299 1.333 . S
C300 N302 1.350 . S
C300 H326 0.931 . S
N301 Co297 2.148 . S
N301 C298 1.301 . S
N301 C299 1.317 . S
N302 C298 1.328 . S
N302 C300 1.350 . S
H303 C298 0.930 . S
H304 C299 0.930 . S
C305 O306 1.224 . S
C305 O324 1.247 . S
O306 C305 1.224 . S
N307 Co297 2.128 . S
N307 C308 1.355 . S
N307 C310 1.311 . S
C308 N307 1.355 . S
C308 C309 1.363 . S
C308 H320 0.929 . S
C309 C308 1.363 . S
C309 N311 1.375 . S
C309 H327 0.931 . S
C310 N307 1.311 . S
C310 N311 1.347 . S
C310 H321 0.929 . S
N311 C309 1.375 . S
N311 C310 1.347 . S
C312 C315 1.365 . S
C312 N317 1.328 . S
C312 H318 0.929 . S
C313 C314 1.362 . S
C313 C316 1.378 . S
C313 H328 0.929 . S
C314 C313 1.362 . S
C314 C315 1.366 . S
C315 C312 1.365 . S
C315 C314 1.366 . S
C315 H329 0.930 . S
C316 C313 1.378 . S
C316 N317 1.315 . S
C316 H319 0.930 . S
N317 Co297 2.194 . S
N317 C312 1.328 . S
N317 C316 1.315 . S
H318 C312 0.929 . S
H319 C316 0.930 . S
H320 C308 0.929 . S
H321 C310 0.929 . S
O322 Co297 2.351 . S
O322 C325 1.244 . S
O323 Co297 2.155 . S
O323 C325 1.240 . S
O324 Co297 2.096 . S
O324 C305 1.247 . S
C325 O322 1.244 . S
C325 O323 1.240 . S
H326 C300 0.931 . S
H327 C309 0.931 . S
H328 C313 0.929 . S
H329 C315 0.930 . S
Co330 N334 2.148 . S
Co330 N340 2.128 . S
Co330 N350 2.194 . S
Co330 O355 2.351 . S
Co330 O356 2.155 . S
Co330 O357 2.096 . S
C331 N334 1.301 . S
C331 N335 1.328 . S
C331 H336 0.930 . S
C332 C333 1.333 . S
C332 N334 1.317 . S
C332 H337 0.930 . S
C333 C332 1.333 . S
C333 N335 1.350 . S
C333 H359 0.931 . S
N334 Co330 2.148 . S
N334 C331 1.301 . S
N334 C332 1.317 . S
N335 C331 1.328 . S
N335 C333 1.350 . S
H336 C331 0.930 . S
H337 C332 0.930 . S
C338 O339 1.224 . S
C338 O357 1.247 . S
O339 C338 1.224 . S
N340 Co330 2.128 . S
N340 C341 1.355 . S
N340 C343 1.311 . S
C341 N340 1.355 . S
C341 C342 1.363 . S
C341 H353 0.929 . S
C342 C341 1.363 . S
C342 N344 1.375 . S
C342 H360 0.931 . S
C343 N340 1.311 . S
C343 N344 1.347 . S
C343 H354 0.929 . S
N344 C342 1.375 . S
N344 C343 1.347 . S
C345 C348 1.365 . S
C345 N350 1.328 . S
C345 H351 0.929 . S
C346 C347 1.362 . S
C346 C349 1.378 . S
C346 H361 0.929 . S
C347 C346 1.362 . S
C347 C348 1.366 . S
C348 C345 1.365 . S
C348 C347 1.366 . S
C348 H362 0.930 . S
C349 C346 1.378 . S
C349 N350 1.315 . S
C349 H352 0.930 . S
N350 Co330 2.194 . S
N350 C345 1.328 . S
N350 C349 1.315 . S
H351 C345 0.929 . S
H352 C349 0.930 . S
H353 C341 0.929 . S
H354 C343 0.929 . S
O355 Co330 2.351 . S
O355 C358 1.244 . S
O356 Co330 2.155 . S
O356 C358 1.240 . S
O357 Co330 2.096 . S
O357 C338 1.247 . S
C358 O355 1.244 . S
C358 O356 1.240 . S
H359 C333 0.931 . S
H360 C342 0.931 . S
H361 C346 0.929 . S
H362 C348 0.930 . S
Co363 N367 2.148 . S
Co363 N373 2.128 . S
Co363 N383 2.194 . S
Co363 O388 2.351 . S
Co363 O389 2.155 . S
Co363 O390 2.096 . S
C364 N367 1.301 . S
C364 N368 1.328 . S
C364 H369 0.930 . S
C365 C366 1.333 . S
C365 N367 1.317 . S
C365 H370 0.930 . S
C366 C365 1.333 . S
C366 N368 1.350 . S
C366 H392 0.931 . S
N367 Co363 2.148 . S
N367 C364 1.301 . S
N367 C365 1.317 . S
N368 C364 1.328 . S
N368 C366 1.350 . S
H369 C364 0.930 . S
H370 C365 0.930 . S
C371 O372 1.224 . S
C371 O390 1.247 . S
O372 C371 1.224 . S
N373 Co363 2.128 . S
N373 C374 1.355 . S
N373 C376 1.311 . S
C374 N373 1.355 . S
C374 C375 1.363 . S
C374 H386 0.929 . S
C375 C374 1.363 . S
C375 N377 1.375 . S
C375 H393 0.931 . S
C376 N373 1.311 . S
C376 N377 1.347 . S
C376 H387 0.929 . S
N377 C375 1.375 . S
N377 C376 1.347 . S
C378 C381 1.365 . S
C378 N383 1.328 . S
C378 H384 0.929 . S
C379 C380 1.362 . S
C379 C382 1.378 . S
C379 H394 0.929 . S
C380 C379 1.362 . S
C380 C381 1.366 . S
C381 C378 1.365 . S
C381 C380 1.366 . S
C381 H395 0.930 . S
C382 C379 1.378 . S
C382 N383 1.315 . S
C382 H385 0.930 . S
N383 Co363 2.194 . S
N383 C378 1.328 . S
N383 C382 1.315 . S
H384 C378 0.929 . S
H385 C382 0.930 . S
H386 C374 0.929 . S
H387 C376 0.929 . S
O388 Co363 2.351 . S
O388 C391 1.244 . S
O389 Co363 2.155 . S
O389 C391 1.240 . S
O390 Co363 2.096 . S
O390 C371 1.247 . S
C391 O388 1.244 . S
C391 O389 1.240 . S
H392 C366 0.931 . S
H393 C375 0.931 . S
H394 C379 0.929 . S
H395 C381 0.930 . S
C396 C397 1.349 . S
C396 C398 1.327 . S
C396 H421 0.950 . S
C397 C396 1.349 . S
C397 C413 1.349 . S
C398 C396 1.327 . S
C398 C417 1.429 . S
C398 H422 0.950 . S
C399 C416 1.574 . S
C399 C418 1.368 . S
C399 H423 0.949 . S
H400 C404 0.949 . S
C401 C402 1.349 . S
C401 C403 1.327 . S
C401 H424 0.950 . S
C402 C401 1.349 . S
C402 C414 1.349 . S
C403 C401 1.327 . S
C403 C419 1.429 . S
C403 H425 0.950 . S
C404 H400 0.949 . S
C404 C412 1.574 . S
C404 C420 1.368 . S
H405 C413 0.950 . S
H406 C411 0.950 . S
H407 C412 0.949 . S
H408 C414 0.950 . S
H409 C415 0.950 . S
H410 C416 0.949 . S
C411 H406 0.950 . S
C411 C413 1.327 . S
C411 C417 1.429 . S
C412 C404 1.574 . S
C412 H407 0.949 . S
C412 C418 1.368 . S
C413 C397 1.349 . S
C413 H405 0.950 . S
C413 C411 1.327 . S
C414 C402 1.349 . S
C414 H408 0.950 . S
C414 C415 1.327 . S
C415 H409 0.950 . S
C415 C414 1.327 . S
C415 C419 1.429 . S
C416 C399 1.574 . S
C416 H410 0.949 . S
C416 C420 1.368 . S
C417 C398 1.429 . S
C417 C411 1.429 . S
C417 C418 1.523 . S
C418 C399 1.368 . S
C418 C412 1.368 . S
C418 C417 1.523 . S
C419 C403 1.429 . S
C419 C415 1.429 . S
C419 C420 1.523 . S
C420 C404 1.368 . S
C420 C416 1.368 . S
C420 C419 1.523 . S
H421 C396 0.950 . S
H422 C398 0.950 . S
H423 C399 0.949 . S
H424 C401 0.950 . S
H425 C403 0.950 . S
C426 C427 1.349 . S
C426 C428 1.327 . S
C426 H451 0.950 . S
C427 C426 1.349 . S
C427 C443 1.349 . S
C428 C426 1.327 . S
C428 C447 1.429 . S
C428 H452 0.950 . S
C429 C446 1.574 . S
C429 C448 1.368 . S
C429 H453 0.949 . S
H430 C434 0.949 . S
C431 C432 1.349 . S
C431 C433 1.327 . S
C431 H454 0.950 . S
C432 C431 1.349 . S
C432 C444 1.349 . S
C433 C431 1.327 . S
C433 C449 1.429 1_655 S
C433 H455 0.950 . S
C434 H430 0.949 . S
C434 C442 1.574 . S
C434 C450 1.368 . S
H435 C443 0.950 . S
H436 C441 0.950 . S
H437 C442 0.949 . S
H438 C444 0.950 . S
H439 C445 0.950 1_455 S
H440 C446 0.949 . S
C441 H436 0.950 . S
C441 C443 1.327 . S
C441 C447 1.429 . S
C442 C434 1.574 . S
C442 H437 0.949 . S
C442 C448 1.368 . S
C443 C427 1.349 . S
C443 H435 0.950 . S
C443 C441 1.327 . S
C444 C432 1.349 . S
C444 H438 0.950 . S
C444 C445 1.327 . S
C445 H439 0.950 1_655 S
C445 C444 1.327 . S
C445 C449 1.429 1_655 S
C446 C429 1.574 . S
C446 H440 0.949 . S
C446 C450 1.368 . S
C447 C428 1.429 . S
C447 C441 1.429 . S
C447 C448 1.523 . S
C448 C429 1.368 . S
C448 C442 1.368 . S
C448 C447 1.523 . S
C449 C433 1.429 1_455 S
C449 C445 1.429 1_455 S
C449 C450 1.523 . S
C450 C434 1.368 . S
C450 C446 1.368 . S
C450 C449 1.523 . S
H451 C426 0.950 . S
H452 C428 0.950 . S
H453 C429 0.949 . S
H454 C431 0.950 . S
H455 C433 0.950 . S
C456 C457 1.349 . S
C456 C458 1.327 . S
C456 H481 0.950 . S
C457 C456 1.349 . S
C457 C473 1.349 . S
C458 C456 1.327 . S
C458 C477 1.429 . S
C458 H482 0.950 . S
C459 C476 1.574 . S
C459 C478 1.368 . S
C459 H483 0.949 . S
H460 C464 0.949 . S
C461 C462 1.349 . S
C461 C463 1.327 . S
C461 H484 0.950 . S
C462 C461 1.349 . S
C462 C474 1.349 . S
C463 C461 1.327 . S
C463 C479 1.429 1_565 S
C463 H485 0.950 . S
C464 H460 0.949 . S
C464 C472 1.574 . S
C464 C480 1.368 . S
H465 C473 0.950 . S
H466 C471 0.950 . S
H467 C472 0.949 . S
H468 C474 0.950 . S
H469 C475 0.950 . S
H470 C476 0.949 . S
C471 H466 0.950 . S
C471 C473 1.327 . S
C471 C477 1.429 . S
C472 C464 1.574 . S
C472 H467 0.949 . S
C472 C478 1.368 . S
C473 C457 1.349 . S
C473 H465 0.950 . S
C473 C471 1.327 . S
C474 C462 1.349 . S
C474 H468 0.950 . S
C474 C475 1.327 1_565 S
C475 H469 0.950 . S
C475 C474 1.327 1_545 S
C475 C479 1.429 . S
C476 C459 1.574 . S
C476 H470 0.949 . S
C476 C480 1.368 . S
C477 C458 1.429 . S
C477 C471 1.429 . S
C477 C478 1.523 . S
C478 C459 1.368 . S
C478 C472 1.368 . S
C478 C477 1.523 . S
C479 C463 1.429 1_545 S
C479 C475 1.429 . S
C479 C480 1.523 . S
C480 C464 1.368 . S
C480 C476 1.368 . S
C480 C479 1.523 . S
H481 C456 0.950 . S
H482 C458 0.950 . S
H483 C459 0.949 . S
H484 C461 0.950 . S
H485 C463 0.950 . S
C486 C487 1.349 . S
C486 C488 1.327 . S
C486 H511 0.950 . S
C487 C486 1.349 . S
C487 C503 1.349 . S
C488 C486 1.327 . S
C488 C507 1.429 . S
C488 H512 0.950 . S
C489 C506 1.574 . S
C489 C508 1.368 . S
C489 H513 0.949 . S
H490 C494 0.949 . S
C491 C492 1.349 . S
C491 C493 1.327 . S
C491 H514 0.950 . S
C492 C491 1.349 . S
C492 C504 1.349 . S
C493 C491 1.327 . S
C493 C509 1.429 . S
C493 H515 0.950 . S
C494 H490 0.949 . S
C494 C502 1.574 . S
C494 C510 1.368 . S
H495 C503 0.950 . S
H496 C501 0.950 . S
H497 C502 0.949 . S
H498 C504 0.950 . S
H499 C505 0.950 . S
H500 C506 0.949 . S
C501 H496 0.950 . S
C501 C503 1.327 . S
C501 C507 1.429 . S
C502 C494 1.574 . S
C502 H497 0.949 . S
C502 C508 1.368 . S
C503 C487 1.349 . S
C503 H495 0.950 . S
C503 C501 1.327 . S
C504 C492 1.349 . S
C504 H498 0.950 . S
C504 C505 1.327 . S
C505 H499 0.950 . S
C505 C504 1.327 . S
C505 C509 1.429 . S
C506 C489 1.574 . S
C506 H500 0.949 . S
C506 C510 1.368 . S
C507 C488 1.429 . S
C507 C501 1.429 . S
C507 C508 1.523 . S
C508 C489 1.368 . S
C508 C502 1.368 . S
C508 C507 1.523 . S
C509 C493 1.429 . S
C509 C505 1.429 . S
C509 C510 1.523 . S
C510 C494 1.368 . S
C510 C506 1.368 . S
C510 C509 1.523 . S
H511 C486 0.950 . S
H512 C488 0.950 . S
H513 C489 0.949 . S
H514 C491 0.950 . S
H515 C493 0.950 . S
C516 C517 1.349 . S
C516 C518 1.327 . S
C516 H541 0.950 . S
C517 C516 1.349 . S
C517 C533 1.349 . S
C518 C516 1.327 . S
C518 C537 1.429 1_455 S
C518 H542 0.950 . S
C519 C536 1.574 . S
C519 C538 1.368 . S
C519 H543 0.949 . S
H520 C524 0.949 . S
C521 C522 1.349 . S
C521 C523 1.327 . S
C521 H544 0.950 . S
C522 C521 1.349 . S
C522 C534 1.349 . S
C523 C521 1.327 . S
C523 C539 1.429 . S
C523 H545 0.950 . S
C524 H520 0.949 . S
C524 C532 1.574 . S
C524 C540 1.368 . S
H525 C533 0.950 . S
H526 C531 0.950 . S
H527 C532 0.949 . S
H528 C534 0.950 . S
H529 C535 0.950 . S
H530 C536 0.949 . S
C531 H526 0.950 . S
C531 C533 1.327 1_655 S
C531 C537 1.429 . S
C532 C524 1.574 . S
C532 H527 0.949 . S
C532 C538 1.368 . S
C533 C517 1.349 . S
C533 H525 0.950 . S
C533 C531 1.327 1_455 S
C534 C522 1.349 . S
C534 H528 0.950 . S
C534 C535 1.327 . S
C535 H529 0.950 . S
C535 C534 1.327 . S
C535 C539 1.429 . S
C536 C519 1.574 . S
C536 H530 0.949 . S
C536 C540 1.368 . S
C537 C518 1.429 1_655 S
C537 C531 1.429 . S
C537 C538 1.523 . S
C538 C519 1.368 . S
C538 C532 1.368 . S
C538 C537 1.523 . S
C539 C523 1.429 . S
C539 C535 1.429 . S
C539 C540 1.523 . S
C540 C524 1.368 . S
C540 C536 1.368 . S
C540 C539 1.523 . S
H541 C516 0.950 . S
H542 C518 0.950 . S
H543 C519 0.949 . S
H544 C521 0.950 . S
H545 C523 0.950 . S
C546 C547 1.349 . S
C546 C548 1.327 . S
C546 H571 0.950 . S
C547 C546 1.349 . S
C547 C563 1.349 . S
C548 C546 1.327 . S
C548 C567 1.429 . S
C548 H572 0.950 . S
C549 C566 1.574 . S
C549 C568 1.368 . S
C549 H573 0.949 . S
H550 C554 0.949 . S
C551 C552 1.349 . S
C551 C553 1.327 . S
C551 H574 0.950 . S
C552 C551 1.349 . S
C552 C564 1.349 . S
C553 C551 1.327 . S
C553 C569 1.429 1_545 S
C553 H575 0.950 . S
C554 H550 0.949 . S
C554 C562 1.574 . S
C554 C570 1.368 . S
H555 C563 0.950 . S
H556 C561 0.950 . S
H557 C562 0.949 . S
H558 C564 0.950 . S
H559 C565 0.950 . S
H560 C566 0.949 . S
C561 H556 0.950 . S
C561 C563 1.327 . S
C561 C567 1.429 . S
C562 C554 1.574 . S
C562 H557 0.949 . S
C562 C568 1.368 . S
C563 C547 1.349 . S
C563 H555 0.950 . S
C563 C561 1.327 . S
C564 C552 1.349 . S
C564 H558 0.950 . S
C564 C565 1.327 1_545 S
C565 H559 0.950 . S
C565 C564 1.327 1_565 S
C565 C569 1.429 . S
C566 C549 1.574 . S
C566 H560 0.949 . S
C566 C570 1.368 . S
C567 C548 1.429 . S
C567 C561 1.429 . S
C567 C568 1.523 . S
C568 C549 1.368 . S
C568 C562 1.368 . S
C568 C567 1.523 . S
C569 C553 1.429 1_565 S
C569 C565 1.429 . S
C569 C570 1.523 . S
C570 C554 1.368 . S
C570 C566 1.368 . S
C570 C569 1.523 . S
H571 C546 0.950 . S
H572 C548 0.950 . S
H573 C549 0.949 . S
H574 C551 0.950 . S
H575 C553 0.950 . S
C576 C577 1.349 . S
C576 C578 1.327 . S
C576 H601 0.950 . S
C577 C576 1.349 . S
C577 C593 1.349 . S
C578 C576 1.327 . S
C578 C597 1.429 . S
C578 H602 0.950 . S
C579 C596 1.574 . S
C579 C598 1.368 . S
C579 H603 0.949 . S
H580 C584 0.949 . S
C581 C582 1.349 . S
C581 C583 1.327 . S
C581 H604 0.950 . S
C582 C581 1.349 . S
C582 C594 1.349 . S
C583 C581 1.327 . S
C583 C599 1.429 . S
C583 H605 0.950 . S
C584 H580 0.949 . S
C584 C592 1.574 . S
C584 C600 1.368 . S
H585 C593 0.950 . S
H586 C591 0.950 . S
H587 C592 0.949 . S
H588 C594 0.950 . S
H589 C595 0.950 . S
H590 C596 0.949 . S
C591 H586 0.950 . S
C591 C593 1.327 . S
C591 C597 1.429 . S
C592 C584 1.574 . S
C592 H587 0.949 . S
C592 C598 1.368 . S
C593 C577 1.349 . S
C593 H585 0.950 . S
C593 C591 1.327 . S
C594 C582 1.349 . S
C594 H588 0.950 . S
C594 C595 1.327 . S
C595 H589 0.950 . S
C595 C594 1.327 . S
C595 C599 1.429 . S
C596 C579 1.574 . S
C596 H590 0.949 . S
C596 C600 1.368 . S
C597 C578 1.429 . S
C597 C591 1.429 . S
C597 C598 1.523 . S
C598 C579 1.368 . S
C598 C592 1.368 . S
C598 C597 1.523 . S
C599 C583 1.429 . S
C599 C595 1.429 . S
C599 C600 1.523 . S
C600 C584 1.368 . S
C600 C596 1.368 . S
C600 C599 1.523 . S
H601 C576 0.950 . S
H602 C578 0.950 . S
H603 C579 0.949 . S
H604 C581 0.950 . S
H605 C583 0.950 . S
C606 C607 1.349 . S
C606 C608 1.327 . S
C606 H631 0.950 . S
C607 C606 1.349 . S
C607 C623 1.349 . S
C608 C606 1.327 . S
C608 C627 1.429 . S
C608 H632 0.950 . S
C609 C626 1.574 . S
C609 C628 1.368 . S
C609 H633 0.949 . S
H610 C614 0.949 . S
C611 C612 1.349 . S
C611 C613 1.327 1_655 S
C611 H634 0.950 . S
C612 C611 1.349 . S
C612 C624 1.349 . S
C613 C611 1.327 1_455 S
C613 C629 1.429 . S
C613 H635 0.950 . S
C614 H610 0.949 . S
C614 C622 1.574 . S
C614 C630 1.368 . S
H615 C623 0.950 . S
H616 C621 0.950 . S
H617 C622 0.949 . S
H618 C624 0.950 . S
H619 C625 0.950 . S
H620 C626 0.949 . S
C621 H616 0.950 . S
C621 C623 1.327 . S
C621 C627 1.429 . S
C622 C614 1.574 . S
C622 H617 0.949 . S
C622 C628 1.368 . S
C623 C607 1.349 . S
C623 H615 0.950 . S
C623 C621 1.327 . S
C624 C612 1.349 . S
C624 H618 0.950 . S
C624 C625 1.327 . S
C625 H619 0.950 . S
C625 C624 1.327 . S
C625 C629 1.429 1_655 S
C626 C609 1.574 . S
C626 H620 0.949 . S
C626 C630 1.368 . S
C627 C608 1.429 . S
C627 C621 1.429 . S
C627 C628 1.523 . S
C628 C609 1.368 . S
C628 C622 1.368 . S
C628 C627 1.523 . S
C629 C613 1.429 . S
C629 C625 1.429 1_455 S
C629 C630 1.523 . S
C630 C614 1.368 . S
C630 C626 1.368 . S
C630 C629 1.523 . S
H631 C606 0.950 . S
H632 C608 0.950 . S
H633 C609 0.949 . S
H634 C611 0.950 . S
H635 C613 0.950 . S
C636 C637 1.349 . S
C636 C638 1.327 . S
C636 H661 0.950 . S
C637 C636 1.349 . S
C637 C653 1.349 . S
C638 C636 1.327 . S
C638 C657 1.429 . S
C638 H662 0.950 . S
C639 C656 1.574 . S
C639 C658 1.368 . S
C639 H663 0.949 . S
H640 C644 0.949 . S
C641 C642 1.349 . S
C641 C643 1.327 . S
C641 H664 0.950 . S
C642 C641 1.349 . S
C642 C654 1.349 . S
C643 C641 1.327 . S
C643 C659 1.429 1_565 S
C643 H665 0.950 . S
C644 H640 0.949 . S
C644 C652 1.574 . S
C644 C660 1.368 . S
H645 C653 0.950 . S
H646 C651 0.950 . S
H647 C652 0.949 . S
H648 C654 0.950 . S
H649 C655 0.950 . S
H650 C656 0.949 . S
C651 H646 0.950 . S
C651 C653 1.327 . S
C651 C657 1.429 . S
C652 C644 1.574 . S
C652 H647 0.949 . S
C652 C658 1.368 . S
C653 C637 1.349 . S
C653 H645 0.950 . S
C653 C651 1.327 . S
C654 C642 1.349 . S
C654 H648 0.950 . S
C654 C655 1.327 1_565 S
C655 H649 0.950 . S
C655 C654 1.327 1_545 S
C655 C659 1.429 . S
C656 C639 1.574 . S
C656 H650 0.949 . S
C656 C660 1.368 . S
C657 C638 1.429 . S
C657 C651 1.429 . S
C657 C658 1.523 . S
C658 C639 1.368 . S
C658 C652 1.368 . S
C658 C657 1.523 . S
C659 C643 1.429 1_545 S
C659 C655 1.429 . S
C659 C660 1.523 . S
C660 C644 1.368 . S
C660 C656 1.368 . S
C660 C659 1.523 . S
H661 C636 0.950 . S
H662 C638 0.950 . S
H663 C639 0.949 . S
H664 C641 0.950 . S
H665 C643 0.950 . S
C666 C667 1.349 . S
C666 C668 1.327 . S
C666 H691 0.950 . S
C667 C666 1.349 . S
C667 C683 1.349 . S
C668 C666 1.327 . S
C668 C687 1.429 . S
C668 H692 0.950 . S
C669 C686 1.574 . S
C669 C688 1.368 . S
C669 H693 0.949 . S
H670 C674 0.949 . S
C671 C672 1.349 . S
C671 C673 1.327 . S
C671 H694 0.950 . S
C672 C671 1.349 . S
C672 C684 1.349 . S
C673 C671 1.327 . S
C673 C689 1.429 . S
C673 H695 0.950 . S
C674 H670 0.949 . S
C674 C682 1.574 . S
C674 C690 1.368 . S
H675 C683 0.950 . S
H676 C681 0.950 . S
H677 C682 0.949 . S
H678 C684 0.950 . S
H679 C685 0.950 . S
H680 C686 0.949 . S
C681 H676 0.950 . S
C681 C683 1.327 . S
C681 C687 1.429 . S
C682 C674 1.574 . S
C682 H677 0.949 . S
C682 C688 1.368 . S
C683 C667 1.349 . S
C683 H675 0.950 . S
C683 C681 1.327 . S
C684 C672 1.349 . S
C684 H678 0.950 . S
C684 C685 1.327 . S
C685 H679 0.950 . S
C685 C684 1.327 . S
C685 C689 1.429 . S
C686 C669 1.574 . S
C686 H680 0.949 . S
C686 C690 1.368 . S
C687 C668 1.429 . S
C687 C681 1.429 . S
C687 C688 1.523 . S
C688 C669 1.368 . S
C688 C682 1.368 . S
C688 C687 1.523 . S
C689 C673 1.429 . S
C689 C685 1.429 . S
C689 C690 1.523 . S
C690 C674 1.368 . S
C690 C686 1.368 . S
C690 C689 1.523 . S
H691 C666 0.950 . S
H692 C668 0.950 . S
H693 C669 0.949 . S
H694 C671 0.950 . S
H695 C673 0.950 . S
C696 C697 1.349 . S
C696 C698 1.327 . S
C696 H721 0.950 . S
C697 C696 1.349 . S
C697 C713 1.349 . S
C698 C696 1.327 . S
C698 C717 1.429 . S
C698 H722 0.950 . S
C699 C716 1.574 . S
C699 C718 1.368 . S
C699 H723 0.949 . S
H700 C704 0.949 . S
C701 C702 1.349 . S
C701 C703 1.327 1_455 S
C701 H724 0.950 . S
C702 C701 1.349 . S
C702 C714 1.349 . S
C703 C701 1.327 1_655 S
C703 C719 1.429 . S
C703 H725 0.950 . S
C704 H700 0.949 . S
C704 C712 1.574 . S
C704 C720 1.368 . S
H705 C713 0.950 . S
H706 C711 0.950 . S
H707 C712 0.949 . S
H708 C714 0.950 . S
H709 C715 0.950 . S
H710 C716 0.949 . S
C711 H706 0.950 . S
C711 C713 1.327 . S
C711 C717 1.429 . S
C712 C704 1.574 . S
C712 H707 0.949 . S
C712 C718 1.368 . S
C713 C697 1.349 . S
C713 H705 0.950 . S
C713 C711 1.327 . S
C714 C702 1.349 . S
C714 H708 0.950 . S
C714 C715 1.327 . S
C715 H709 0.950 . S
C715 C714 1.327 . S
C715 C719 1.429 1_455 S
C716 C699 1.574 . S
C716 H710 0.949 . S
C716 C720 1.368 . S
C717 C698 1.429 . S
C717 C711 1.429 . S
C717 C718 1.523 . S
C718 C699 1.368 . S
C718 C712 1.368 . S
C718 C717 1.523 . S
C719 C703 1.429 . S
C719 C715 1.429 1_655 S
C719 C720 1.523 . S
C720 C704 1.368 . S
C720 C716 1.368 . S
C720 C719 1.523 . S
H721 C696 0.950 . S
H722 C698 0.950 . S
H723 C699 0.949 . S
H724 C701 0.950 . S
H725 C703 0.950 . S
C726 C727 1.349 . S
C726 C728 1.327 . S
C726 H751 0.950 . S
C727 C726 1.349 . S
C727 C743 1.349 . S
C728 C726 1.327 . S
C728 C747 1.429 . S
C728 H752 0.950 . S
C729 C746 1.574 . S
C729 C748 1.368 . S
C729 H753 0.949 . S
H730 C734 0.949 . S
C731 C732 1.349 . S
C731 C733 1.327 1_545 S
C731 H754 0.950 . S
C732 C731 1.349 . S
C732 C744 1.349 . S
C733 C731 1.327 1_565 S
C733 C749 1.429 . S
C733 H755 0.950 . S
C734 H730 0.949 . S
C734 C742 1.574 . S
C734 C750 1.368 . S
H735 C743 0.950 . S
H736 C741 0.950 . S
H737 C742 0.949 . S
H738 C744 0.950 . S
H739 C745 0.950 . S
H740 C746 0.949 . S
C741 H736 0.950 . S
C741 C743 1.327 . S
C741 C747 1.429 . S
C742 C734 1.574 . S
C742 H737 0.949 . S
C742 C748 1.368 . S
C743 C727 1.349 . S
C743 H735 0.950 . S
C743 C741 1.327 . S
C744 C732 1.349 . S
C744 H738 0.950 . S
C744 C745 1.327 . S
C745 H739 0.950 . S
C745 C744 1.327 . S
C745 C749 1.429 1_545 S
C746 C729 1.574 . S
C746 H740 0.949 . S
C746 C750 1.368 . S
C747 C728 1.429 . S
C747 C741 1.429 . S
C747 C748 1.523 . S
C748 C729 1.368 . S
C748 C742 1.368 . S
C748 C747 1.523 . S
C749 C733 1.429 . S
C749 C745 1.429 1_565 S
C749 C750 1.523 . S
C750 C734 1.368 . S
C750 C746 1.368 . S
C750 C749 1.523 . S
H751 C726 0.950 . S
H752 C728 0.950 . S
H753 C729 0.949 . S
H754 C731 0.950 . S
H755 C733 0.950 . S
C756 C757 1.349 . S
C756 C758 1.327 . S
C756 H781 0.950 . S
C757 C756 1.349 . S
C757 C773 1.349 . S
C758 C756 1.327 . S
C758 C777 1.429 . S
C758 H782 0.950 . S
C759 C776 1.574 . S
C759 C778 1.368 . S
C759 H783 0.949 . S
H760 C764 0.949 . S
C761 C762 1.349 . S
C761 C763 1.327 . S
C761 H784 0.950 . S
C762 C761 1.349 . S
C762 C774 1.349 . S
C763 C761 1.327 . S
C763 C779 1.429 . S
C763 H785 0.950 . S
C764 H760 0.949 . S
C764 C772 1.574 . S
C764 C780 1.368 . S
H765 C773 0.950 . S
H766 C771 0.950 . S
H767 C772 0.949 . S
H768 C774 0.950 . S
H769 C775 0.950 . S
H770 C776 0.949 . S
C771 H766 0.950 . S
C771 C773 1.327 . S
C771 C777 1.429 . S
C772 C764 1.574 . S
C772 H767 0.949 . S
C772 C778 1.368 . S
C773 C757 1.349 . S
C773 H765 0.950 . S
C773 C771 1.327 . S
C774 C762 1.349 . S
C774 H768 0.950 . S
C774 C775 1.327 . S
C775 H769 0.950 . S
C775 C774 1.327 . S
C775 C779 1.429 . S
C776 C759 1.574 . S
C776 H770 0.949 . S
C776 C780 1.368 . S
C777 C758 1.429 . S
C777 C771 1.429 . S
C777 C778 1.523 . S
C778 C759 1.368 . S
C778 C772 1.368 . S
C778 C777 1.523 . S
C779 C763 1.429 . S
C779 C775 1.429 . S
C779 C780 1.523 . S
C780 C764 1.368 . S
C780 C776 1.368 . S
C780 C779 1.523 . S
H781 C756 0.950 . S
H782 C758 0.950 . S
H783 C759 0.949 . S
H784 C761 0.950 . S
H785 C763 0.950 . S
C786 C787 1.349 . S
C786 C788 1.327 . S
C786 H811 0.950 . S
C787 C786 1.349 . S
C787 C803 1.349 . S
C788 C786 1.327 . S
C788 C807 1.429 . S
C788 H812 0.950 . S
C789 C806 1.574 . S
C789 C808 1.368 . S
C789 H813 0.949 . S
H790 C794 0.949 . S
C791 C792 1.349 . S
C791 C793 1.327 . S
C791 H814 0.950 . S
C792 C791 1.349 . S
C792 C804 1.349 . S
C793 C791 1.327 . S
C793 C809 1.429 . S
C793 H815 0.950 . S
C794 H790 0.949 . S
C794 C802 1.574 . S
C794 C810 1.368 . S
H795 C803 0.950 . S
H796 C801 0.950 . S
H797 C802 0.949 . S
H798 C804 0.950 . S
H799 C805 0.950 . S
H800 C806 0.949 . S
C801 H796 0.950 . S
C801 C803 1.327 . S
C801 C807 1.429 . S
C802 C794 1.574 . S
C802 H797 0.949 . S
C802 C808 1.368 . S
C803 C787 1.349 . S
C803 H795 0.950 . S
C803 C801 1.327 . S
C804 C792 1.349 . S
C804 H798 0.950 . S
C804 C805 1.327 . S
C805 H799 0.950 . S
C805 C804 1.327 . S
C805 C809 1.429 . S
C806 C789 1.574 . S
C806 H800 0.949 . S
C806 C810 1.368 . S
C807 C788 1.429 . S
C807 C801 1.429 . S
C807 C808 1.523 . S
C808 C789 1.368 . S
C808 C802 1.368 . S
C808 C807 1.523 . S
C809 C793 1.429 . S
C809 C805 1.429 . S
C809 C810 1.523 . S
C810 C794 1.368 . S
C810 C806 1.368 . S
C810 C809 1.523 . S
H811 C786 0.950 . S
H812 C788 0.950 . S
H813 C789 0.949 . S
H814 C791 0.950 . S
H815 C793 0.950 . S
C816 C817 1.349 . S
C816 C818 1.327 . S
C816 H841 0.950 . S
C817 C816 1.349 . S
C817 C833 1.349 . S
C818 C816 1.327 . S
C818 C837 1.429 . S
C818 H842 0.950 . S
C819 C836 1.574 . S
C819 C838 1.368 . S
C819 H843 0.949 . S
H820 C824 0.949 . S
C821 C822 1.349 . S
C821 C823 1.327 . S
C821 H844 0.950 . S
C822 C821 1.349 . S
C822 C834 1.349 . S
C823 C821 1.327 . S
C823 C839 1.429 . S
C823 H845 0.950 . S
C824 H820 0.949 . S
C824 C832 1.574 . S
C824 C840 1.368 . S
H825 C833 0.950 . S
H826 C831 0.950 . S
H827 C832 0.949 . S
H828 C834 0.950 . S
H829 C835 0.950 . S
H830 C836 0.949 . S
C831 H826 0.950 . S
C831 C833 1.327 . S
C831 C837 1.429 . S
C832 C824 1.574 . S
C832 H827 0.949 . S
C832 C838 1.368 . S
C833 C817 1.349 . S
C833 H825 0.950 . S
C833 C831 1.327 . S
C834 C822 1.349 . S
C834 H828 0.950 . S
C834 C835 1.327 . S
C835 H829 0.950 . S
C835 C834 1.327 . S
C835 C839 1.429 . S
C836 C819 1.574 . S
C836 H830 0.949 . S
C836 C840 1.368 . S
C837 C818 1.429 . S
C837 C831 1.429 . S
C837 C838 1.523 . S
C838 C819 1.368 . S
C838 C832 1.368 . S
C838 C837 1.523 . S
C839 C823 1.429 . S
C839 C835 1.429 . S
C839 C840 1.523 . S
C840 C824 1.368 . S
C840 C836 1.368 . S
C840 C839 1.523 . S
H841 C816 0.950 . S
H842 C818 0.950 . S
H843 C819 0.949 . S
H844 C821 0.950 . S
H845 C823 0.950 . S
C846 C847 1.349 . S
C846 C848 1.327 . S
C846 H871 0.950 . S
C847 C846 1.349 . S
C847 C863 1.349 . S
C848 C846 1.327 . S
C848 C867 1.429 . S
C848 H872 0.950 . S
C849 C866 1.574 . S
C849 C868 1.368 . S
C849 H873 0.949 . S
H850 C854 0.949 . S
C851 C852 1.349 . S
C851 C853 1.327 . S
C851 H874 0.950 . S
C852 C851 1.349 . S
C852 C864 1.349 . S
C853 C851 1.327 . S
C853 C869 1.429 . S
C853 H875 0.950 . S
C854 H850 0.949 . S
C854 C862 1.574 . S
C854 C870 1.368 . S
H855 C863 0.950 . S
H856 C861 0.950 . S
H857 C862 0.949 . S
H858 C864 0.950 . S
H859 C865 0.950 . S
H860 C866 0.949 . S
C861 H856 0.950 . S
C861 C863 1.327 . S
C861 C867 1.429 . S
C862 C854 1.574 . S
C862 H857 0.949 . S
C862 C868 1.368 . S
C863 C847 1.349 . S
C863 H855 0.950 . S
C863 C861 1.327 . S
C864 C852 1.349 . S
C864 H858 0.950 . S
C864 C865 1.327 . S
C865 H859 0.950 . S
C865 C864 1.327 . S
C865 C869 1.429 . S
C866 C849 1.574 . S
C866 H860 0.949 . S
C866 C870 1.368 . S
C867 C848 1.429 . S
C867 C861 1.429 . S
C867 C868 1.523 . S
C868 C849 1.368 . S
C868 C862 1.368 . S
C868 C867 1.523 . S
C869 C853 1.429 . S
C869 C865 1.429 . S
C869 C870 1.523 . S
C870 C854 1.368 . S
C870 C866 1.368 . S
C870 C869 1.523 . S
H871 C846 0.950 . S
H872 C848 0.950 . S
H873 C849 0.949 . S
H874 C851 0.950 . S
H875 C853 0.950 . S
C876 C877 1.349 . S
C876 C878 1.327 . S
C876 H901 0.950 . S
C877 C876 1.349 . S
C877 C893 1.349 . S
C878 C876 1.327 . S
C878 C897 1.429 . S
C878 H902 0.950 . S
C879 C896 1.574 . S
C879 C898 1.368 . S
C879 H903 0.949 . S
H880 C884 0.949 . S
C881 C882 1.349 . S
C881 C883 1.327 . S
C881 H904 0.950 . S
C882 C881 1.349 . S
C882 C894 1.349 . S
C883 C881 1.327 . S
C883 C899 1.429 . S
C883 H905 0.950 . S
C884 H880 0.949 . S
C884 C892 1.574 . S
C884 C900 1.368 . S
H885 C893 0.950 . S
H886 C891 0.950 . S
H887 C892 0.949 . S
H888 C894 0.950 . S
H889 C895 0.950 . S
H890 C896 0.949 . S
C891 H886 0.950 . S
C891 C893 1.327 . S
C891 C897 1.429 . S
C892 C884 1.574 . S
C892 H887 0.949 . S
C892 C898 1.368 . S
C893 C877 1.349 . S
C893 H885 0.950 . S
C893 C891 1.327 . S
C894 C882 1.349 . S
C894 H888 0.950 . S
C894 C895 1.327 . S
C895 H889 0.950 . S
C895 C894 1.327 . S
C895 C899 1.429 . S
C896 C879 1.574 . S
C896 H890 0.949 . S
C896 C900 1.368 . S
C897 C878 1.429 . S
C897 C891 1.429 . S
C897 C898 1.523 . S
C898 C879 1.368 . S
C898 C892 1.368 . S
C898 C897 1.523 . S
C899 C883 1.429 . S
C899 C895 1.429 . S
C899 C900 1.523 . S
C900 C884 1.368 . S
C900 C896 1.368 . S
C900 C899 1.523 . S
H901 C876 0.950 . S
H902 C878 0.950 . S
H903 C879 0.949 . S
H904 C881 0.950 . S
H905 C883 0.950 . S
C906 C907 1.349 . S
C906 C908 1.327 . S
C906 H931 0.950 . S
C907 C906 1.349 . S
C907 C923 1.349 . S
C908 C906 1.327 . S
C908 C927 1.429 . S
C908 H932 0.950 . S
C909 C926 1.574 . S
C909 C928 1.368 . S
C909 H933 0.949 . S
H910 C914 0.949 . S
C911 C912 1.349 . S
C911 C913 1.327 . S
C911 H934 0.950 . S
C912 C911 1.349 . S
C912 C924 1.349 . S
C913 C911 1.327 . S
C913 C929 1.429 . S
C913 H935 0.950 . S
C914 H910 0.949 . S
C914 C922 1.574 . S
C914 C930 1.368 . S
H915 C923 0.950 . S
H916 C921 0.950 . S
H917 C922 0.949 . S
H918 C924 0.950 . S
H919 C925 0.950 . S
H920 C926 0.949 . S
C921 H916 0.950 . S
C921 C923 1.327 . S
C921 C927 1.429 . S
C922 C914 1.574 . S
C922 H917 0.949 . S
C922 C928 1.368 . S
C923 C907 1.349 . S
C923 H915 0.950 . S
C923 C921 1.327 . S
C924 C912 1.349 . S
C924 H918 0.950 . S
C924 C925 1.327 . S
C925 H919 0.950 . S
C925 C924 1.327 . S
C925 C929 1.429 . S
C926 C909 1.574 . S
C926 H920 0.949 . S
C926 C930 1.368 . S
C927 C908 1.429 . S
C927 C921 1.429 . S
C927 C928 1.523 . S
C928 C909 1.368 . S
C928 C922 1.368 . S
C928 C927 1.523 . S
C929 C913 1.429 . S
C929 C925 1.429 . S
C929 C930 1.523 . S
C930 C914 1.368 . S
C930 C926 1.368 . S
C930 C929 1.523 . S
H931 C906 0.950 . S
H932 C908 0.950 . S
H933 C909 0.949 . S
H934 C911 0.950 . S
H935 C913 0.950 . S
C936 C937 1.349 . S
C936 C938 1.327 . S
C936 H961 0.950 . S
C937 C936 1.349 . S
C937 C953 1.349 . S
C938 C936 1.327 . S
C938 C957 1.429 . S
C938 H962 0.950 . S
C939 C956 1.574 . S
C939 C958 1.368 . S
C939 H963 0.949 . S
H940 C944 0.949 . S
C941 C942 1.349 . S
C941 C943 1.327 . S
C941 H964 0.950 . S
C942 C941 1.349 . S
C942 C954 1.349 . S
C943 C941 1.327 . S
C943 C959 1.429 . S
C943 H965 0.950 . S
C944 H940 0.949 . S
C944 C952 1.574 . S
C944 C960 1.368 . S
H945 C953 0.950 . S
H946 C951 0.950 . S
H947 C952 0.949 . S
H948 C954 0.950 . S
H949 C955 0.950 . S
H950 C956 0.949 . S
C951 H946 0.950 . S
C951 C953 1.327 . S
C951 C957 1.429 . S
C952 C944 1.574 . S
C952 H947 0.949 . S
C952 C958 1.368 . S
C953 C937 1.349 . S
C953 H945 0.950 . S
C953 C951 1.327 . S
C954 C942 1.349 . S
C954 H948 0.950 . S
C954 C955 1.327 . S
C955 H949 0.950 . S
C955 C954 1.327 . S
C955 C959 1.429 . S
C956 C939 1.574 . S
C956 H950 0.949 . S
C956 C960 1.368 . S
C957 C938 1.429 . S
C957 C951 1.429 . S
C957 C958 1.523 . S
C958 C939 1.368 . S
C958 C952 1.368 . S
C958 C957 1.523 . S
C959 C943 1.429 . S
C959 C955 1.429 . S
C959 C960 1.523 . S
C960 C944 1.368 . S
C960 C956 1.368 . S
C960 C959 1.523 . S
H961 C936 0.950 . S
H962 C938 0.950 . S
H963 C939 0.949 . S
H964 C941 0.950 . S
H965 C943 0.950 . S
C966 C967 1.349 . S
C966 C968 1.327 . S
C966 H991 0.950 . S
C967 C966 1.349 . S
C967 C983 1.349 . S
C968 C966 1.327 . S
C968 C987 1.429 . S
C968 H992 0.950 . S
C969 C986 1.574 . S
C969 C988 1.368 . S
C969 H993 0.949 . S
H970 C974 0.949 . S
C971 C972 1.349 . S
C971 C973 1.327 . S
C971 H994 0.950 . S
C972 C971 1.349 . S
C972 C984 1.349 . S
C973 C971 1.327 . S
C973 C989 1.429 . S
C973 H995 0.950 . S
C974 H970 0.949 . S
C974 C982 1.574 . S
C974 C990 1.368 . S
H975 C983 0.950 . S
H976 C981 0.950 . S
H977 C982 0.949 . S
H978 C984 0.950 . S
H979 C985 0.950 . S
H980 C986 0.949 . S
C981 H976 0.950 . S
C981 C983 1.327 . S
C981 C987 1.429 . S
C982 C974 1.574 . S
C982 H977 0.949 . S
C982 C988 1.368 1_655 S
C983 C967 1.349 . S
C983 H975 0.950 . S
C983 C981 1.327 . S
C984 C972 1.349 . S
C984 H978 0.950 . S
C984 C985 1.327 . S
C985 H979 0.950 . S
C985 C984 1.327 . S
C985 C989 1.429 . S
C986 C969 1.574 . S
C986 H980 0.949 . S
C986 C990 1.368 1_455 S
C987 C968 1.429 . S
C987 C981 1.429 . S
C987 C988 1.523 . S
C988 C969 1.368 . S
C988 C982 1.368 1_455 S
C988 C987 1.523 . S
C989 C973 1.429 . S
C989 C985 1.429 . S
C989 C990 1.523 . S
C990 C974 1.368 . S
C990 C986 1.368 1_655 S
C990 C989 1.523 . S
H991 C966 0.950 . S
H992 C968 0.950 . S
H993 C969 0.949 . S
H994 C971 0.950 . S
H995 C973 0.950 . S
C996 C997 1.349 . S
C996 C998 1.327 . S
C996 H1021 0.950 . S
C997 C996 1.349 . S
C997 C1013 1.349 . S
C998 C996 1.327 . S
C998 C1017 1.429 . S
C998 H1022 0.950 . S
C999 C1016 1.574 . S
C999 C1018 1.368 1_545 S
C999 H1023 0.949 . S
H1000 C1004 0.949 . S
C1001 C1002 1.349 . S
C1001 C1003 1.327 . S
C1001 H1024 0.950 . S
C1002 C1001 1.349 . S
C1002 C1014 1.349 . S
C1003 C1001 1.327 . S
C1003 C1019 1.429 . S
C1003 H1025 0.950 . S
C1004 H1000 0.949 . S
C1004 C1012 1.574 . S
C1004 C1020 1.368 1_565 S
H1005 C1013 0.950 . S
H1006 C1011 0.950 . S
H1007 C1012 0.949 . S
H1008 C1014 0.950 . S
H1009 C1015 0.950 . S
H1010 C1016 0.949 . S
C1011 H1006 0.950 . S
C1011 C1013 1.327 . S
C1011 C1017 1.429 . S
C1012 C1004 1.574 . S
C1012 H1007 0.949 . S
C1012 C1018 1.368 . S
C1013 C997 1.349 . S
C1013 H1005 0.950 . S
C1013 C1011 1.327 . S
C1014 C1002 1.349 . S
C1014 H1008 0.950 . S
C1014 C1015 1.327 . S
C1015 H1009 0.950 . S
C1015 C1014 1.327 . S
C1015 C1019 1.429 . S
C1016 C999 1.574 . S
C1016 H1010 0.949 . S
C1016 C1020 1.368 . S
C1017 C998 1.429 . S
C1017 C1011 1.429 . S
C1017 C1018 1.523 . S
C1018 C999 1.368 1_565 S
C1018 C1012 1.368 . S
C1018 C1017 1.523 . S
C1019 C1003 1.429 . S
C1019 C1015 1.429 . S
C1019 C1020 1.523 . S
C1020 C1004 1.368 1_545 S
C1020 C1016 1.368 . S
C1020 C1019 1.523 . S
H1021 C996 0.950 . S
H1022 C998 0.950 . S
H1023 C999 0.949 . S
H1024 C1001 0.950 . S
H1025 C1003 0.950 . S
C1026 C1027 1.349 . S
C1026 C1028 1.327 . S
C1026 H1051 0.950 . S
C1027 C1026 1.349 . S
C1027 C1043 1.349 . S
C1028 C1026 1.327 . S
C1028 C1047 1.429 . S
C1028 H1052 0.950 . S
C1029 C1046 1.574 . S
C1029 C1048 1.368 . S
C1029 H1053 0.949 . S
H1030 C1034 0.949 . S
C1031 C1032 1.349 . S
C1031 C1033 1.327 . S
C1031 H1054 0.950 . S
C1032 C1031 1.349 . S
C1032 C1044 1.349 . S
C1033 C1031 1.327 . S
C1033 C1049 1.429 . S
C1033 H1055 0.950 . S
C1034 H1030 0.949 . S
C1034 C1042 1.574 . S
C1034 C1050 1.368 . S
H1035 C1043 0.950 . S
H1036 C1041 0.950 . S
H1037 C1042 0.949 . S
H1038 C1044 0.950 . S
H1039 C1045 0.950 . S
H1040 C1046 0.949 . S
C1041 H1036 0.950 . S
C1041 C1043 1.327 . S
C1041 C1047 1.429 . S
C1042 C1034 1.574 . S
C1042 H1037 0.949 . S
C1042 C1048 1.368 . S
C1043 C1027 1.349 . S
C1043 H1035 0.950 . S
C1043 C1041 1.327 . S
C1044 C1032 1.349 . S
C1044 H1038 0.950 . S
C1044 C1045 1.327 . S
C1045 H1039 0.950 . S
C1045 C1044 1.327 . S
C1045 C1049 1.429 . S
C1046 C1029 1.574 . S
C1046 H1040 0.949 . S
C1046 C1050 1.368 . S
C1047 C1028 1.429 . S
C1047 C1041 1.429 . S
C1047 C1048 1.523 . S
C1048 C1029 1.368 . S
C1048 C1042 1.368 . S
C1048 C1047 1.523 . S
C1049 C1033 1.429 . S
C1049 C1045 1.429 . S
C1049 C1050 1.523 . S
C1050 C1034 1.368 . S
C1050 C1046 1.368 . S
C1050 C1049 1.523 . S
H1051 C1026 0.950 . S
H1052 C1028 0.950 . S
H1053 C1029 0.949 . S
H1054 C1031 0.950 . S
H1055 C1033 0.950 . S
C1056 C1057 1.349 . S
C1056 C1058 1.327 . S
C1056 H1081 0.950 . S
C1057 C1056 1.349 . S
C1057 C1073 1.349 . S
C1058 C1056 1.327 . S
C1058 C1077 1.429 . S
C1058 H1082 0.950 . S
C1059 C1076 1.574 . S
C1059 C1078 1.368 1_655 S
C1059 H1083 0.949 . S
H1060 C1064 0.949 . S
C1061 C1062 1.349 . S
C1061 C1063 1.327 . S
C1061 H1084 0.950 . S
C1062 C1061 1.349 . S
C1062 C1074 1.349 . S
C1063 C1061 1.327 . S
C1063 C1079 1.429 . S
C1063 H1085 0.950 . S
C1064 H1060 0.949 . S
C1064 C1072 1.574 . S
C1064 C1080 1.368 1_455 S
H1065 C1073 0.950 . S
H1066 C1071 0.950 . S
H1067 C1072 0.949 . S
H1068 C1074 0.950 . S
H1069 C1075 0.950 . S
H1070 C1076 0.949 . S
C1071 H1066 0.950 . S
C1071 C1073 1.327 . S
C1071 C1077 1.429 . S
C1072 C1064 1.574 . S
C1072 H1067 0.949 . S
C1072 C1078 1.368 . S
C1073 C1057 1.349 . S
C1073 H1065 0.950 . S
C1073 C1071 1.327 . S
C1074 C1062 1.349 . S
C1074 H1068 0.950 . S
C1074 C1075 1.327 . S
C1075 H1069 0.950 . S
C1075 C1074 1.327 . S
C1075 C1079 1.429 . S
C1076 C1059 1.574 . S
C1076 H1070 0.949 . S
C1076 C1080 1.368 . S
C1077 C1058 1.429 . S
C1077 C1071 1.429 . S
C1077 C1078 1.523 . S
C1078 C1059 1.368 1_455 S
C1078 C1072 1.368 . S
C1078 C1077 1.523 . S
C1079 C1063 1.429 . S
C1079 C1075 1.429 . S
C1079 C1080 1.523 . S
C1080 C1064 1.368 1_655 S
C1080 C1076 1.368 . S
C1080 C1079 1.523 . S
H1081 C1056 0.950 . S
H1082 C1058 0.950 . S
H1083 C1059 0.949 . S
H1084 C1061 0.950 . S
H1085 C1063 0.950 . S
C1086 C1087 1.349 . S
C1086 C1088 1.327 . S
C1086 H1111 0.950 . S
C1087 C1086 1.349 . S
C1087 C1103 1.349 . S
C1088 C1086 1.327 . S
C1088 C1107 1.429 . S
C1088 H1112 0.950 . S
C1089 C1106 1.574 1_554 S
C1089 C1108 1.368 1_545 S
C1089 H1113 0.949 . S
H1090 C1094 0.949 . S
C1091 C1092 1.349 . S
C1091 C1093 1.327 . S
C1091 H1114 0.950 . S
C1092 C1091 1.349 . S
C1092 C1104 1.349 . S
C1093 C1091 1.327 . S
C1093 C1109 1.429 . S
C1093 H1115 0.950 . S
C1094 H1090 0.949 . S
C1094 C1102 1.574 . S
C1094 C1110 1.368 1_565 S
H1095 C1103 0.950 . S
H1096 C1101 0.950 . S
H1097 C1102 0.944 1_554 S
H1098 C1104 0.950 . S
H1099 C1105 0.950 . S
H1100 C1106 0.949 . S
C1101 H1096 0.950 . S
C1101 C1103 1.327 . S
C1101 C1107 1.429 . S
C1102 C1094 1.574 . S
C1102 H1097 0.944 1_556 S
C1102 C1108 1.368 1_556 S
C1103 C1087 1.349 . S
C1103 H1095 0.950 . S
C1103 C1101 1.327 . S
C1104 C1092 1.349 . S
C1104 H1098 0.950 . S
C1104 C1105 1.327 . S
C1105 H1099 0.950 . S
C1105 C1104 1.327 . S
C1105 C1109 1.429 . S
C1106 C1089 1.574 1_556 S
C1106 H1100 0.949 . S
C1106 C1110 1.368 . S
C1107 C1088 1.429 . S
C1107 C1101 1.429 . S
C1107 C1108 1.523 . S
C1108 C1089 1.368 1_565 S
C1108 C1102 1.368 1_554 S
C1108 C1107 1.523 . S
C1109 C1093 1.429 . S
C1109 C1105 1.429 . S
C1109 C1110 1.523 . S
C1110 C1094 1.368 1_545 S
C1110 C1106 1.368 . S
C1110 C1109 1.523 . S
H1111 C1086 0.950 . S
H1112 C1088 0.950 . S
H1113 C1089 0.949 . S
H1114 C1091 0.950 . S
H1115 C1093 0.950 . S
C1116 C1117 1.349 . S
C1116 C1118 1.327 . S
C1116 H1141 0.950 . S
C1117 C1116 1.349 . S
C1117 C1133 1.349 . S
C1118 C1116 1.327 . S
C1118 C1137 1.429 . S
C1118 H1142 0.950 . S
C1119 C1136 1.574 . S
C1119 C1138 1.368 . S
C1119 H1143 0.949 . S
H1120 C1124 0.949 . S
C1121 C1122 1.349 . S
C1121 C1123 1.327 . S
C1121 H1144 0.950 . S
C1122 C1121 1.349 . S
C1122 C1134 1.349 . S
C1123 C1121 1.327 . S
C1123 C1139 1.429 . S
C1123 H1145 0.950 . S
C1124 H1120 0.949 . S
C1124 C1132 1.574 . S
C1124 C1140 1.368 . S
H1125 C1133 0.950 . S
H1126 C1131 0.950 . S
H1127 C1132 0.949 . S
H1128 C1134 0.950 . S
H1129 C1135 0.950 . S
H1130 C1136 0.949 . S
C1131 H1126 0.950 . S
C1131 C1133 1.327 . S
C1131 C1137 1.429 . S
C1132 C1124 1.574 . S
C1132 H1127 0.949 . S
C1132 C1138 1.368 . S
C1133 C1117 1.349 . S
C1133 H1125 0.950 . S
C1133 C1131 1.327 . S
C1134 C1122 1.349 . S
C1134 H1128 0.950 . S
C1134 C1135 1.327 . S
C1135 H1129 0.950 . S
C1135 C1134 1.327 . S
C1135 C1139 1.429 . S
C1136 C1119 1.574 . S
C1136 H1130 0.949 . S
C1136 C1140 1.368 . S
C1137 C1118 1.429 . S
C1137 C1131 1.429 . S
C1137 C1138 1.523 . S
C1138 C1119 1.368 . S
C1138 C1132 1.368 . S
C1138 C1137 1.523 . S
C1139 C1123 1.429 . S
C1139 C1135 1.429 . S
C1139 C1140 1.523 . S
C1140 C1124 1.368 . S
C1140 C1136 1.368 . S
C1140 C1139 1.523 . S
H1141 C1116 0.950 . S
H1142 C1118 0.950 . S
H1143 C1119 0.949 . S
H1144 C1121 0.950 . S
H1145 C1123 0.950 . S
C1146 C1147 1.349 . S
C1146 C1148 1.327 . S
C1146 H1171 0.950 . S
C1147 C1146 1.349 . S
C1147 C1163 1.349 . S
C1148 C1146 1.327 . S
C1148 C1167 1.429 . S
C1148 H1172 0.950 . S
C1149 C1166 1.574 . S
C1149 C1168 1.368 . S
C1149 H1173 0.949 . S
H1150 C1154 0.949 . S
C1151 C1152 1.349 . S
C1151 C1153 1.327 . S
C1151 H1174 0.950 . S
C1152 C1151 1.349 . S
C1152 C1164 1.349 . S
C1153 C1151 1.327 . S
C1153 C1169 1.429 . S
C1153 H1175 0.950 . S
C1154 H1150 0.949 . S
C1154 C1162 1.574 . S
C1154 C1170 1.368 . S
H1155 C1163 0.950 . S
H1156 C1161 0.950 . S
H1157 C1162 0.949 . S
H1158 C1164 0.950 . S
H1159 C1165 0.950 . S
H1160 C1166 0.949 . S
C1161 H1156 0.950 . S
C1161 C1163 1.327 . S
C1161 C1167 1.429 . S
C1162 C1154 1.574 . S
C1162 H1157 0.949 . S
C1162 C1168 1.368 . S
C1163 C1147 1.349 . S
C1163 H1155 0.950 . S
C1163 C1161 1.327 . S
C1164 C1152 1.349 . S
C1164 H1158 0.950 . S
C1164 C1165 1.327 . S
C1165 H1159 0.950 . S
C1165 C1164 1.327 . S
C1165 C1169 1.429 . S
C1166 C1149 1.574 . S
C1166 H1160 0.949 . S
C1166 C1170 1.368 . S
C1167 C1148 1.429 . S
C1167 C1161 1.429 . S
C1167 C1168 1.523 . S
C1168 C1149 1.368 . S
C1168 C1162 1.368 . S
C1168 C1167 1.523 . S
C1169 C1153 1.429 . S
C1169 C1165 1.429 . S
C1169 C1170 1.523 . S
C1170 C1154 1.368 . S
C1170 C1166 1.368 . S
C1170 C1169 1.523 . S
H1171 C1146 0.950 . S
H1172 C1148 0.950 . S
H1173 C1149 0.949 . S
H1174 C1151 0.950 . S
H1175 C1153 0.950 . S
C1176 C1177 1.349 . S
C1176 C1178 1.327 . S
C1176 H1201 0.950 . S
C1177 C1176 1.349 . S
C1177 C1193 1.349 . S
C1178 C1176 1.327 . S
C1178 C1197 1.429 . S
C1178 H1202 0.950 . S
C1179 C1196 1.574 . S
C1179 C1198 1.368 . S
C1179 H1203 0.949 . S
H1180 C1184 0.949 . S
C1181 C1182 1.349 . S
C1181 C1183 1.327 . S
C1181 H1204 0.950 . S
C1182 C1181 1.349 . S
C1182 C1194 1.349 . S
C1183 C1181 1.327 . S
C1183 C1199 1.429 . S
C1183 H1205 0.950 . S
C1184 H1180 0.949 . S
C1184 C1192 1.574 . S
C1184 C1200 1.368 . S
H1185 C1193 0.950 . S
H1186 C1191 0.950 . S
H1187 C1192 0.949 . S
H1188 C1194 0.950 . S
H1189 C1195 0.950 . S
H1190 C1196 0.949 . S
C1191 H1186 0.950 . S
C1191 C1193 1.327 . S
C1191 C1197 1.429 . S
C1192 C1184 1.574 . S
C1192 H1187 0.949 . S
C1192 C1198 1.368 . S
C1193 C1177 1.349 . S
C1193 H1185 0.950 . S
C1193 C1191 1.327 . S
C1194 C1182 1.349 . S
C1194 H1188 0.950 . S
C1194 C1195 1.327 . S
C1195 H1189 0.950 . S
C1195 C1194 1.327 . S
C1195 C1199 1.429 . S
C1196 C1179 1.574 . S
C1196 H1190 0.949 . S
C1196 C1200 1.368 . S
C1197 C1178 1.429 . S
C1197 C1191 1.429 . S
C1197 C1198 1.523 . S
C1198 C1179 1.368 . S
C1198 C1192 1.368 . S
C1198 C1197 1.523 . S
C1199 C1183 1.429 . S
C1199 C1195 1.429 . S
C1199 C1200 1.523 . S
C1200 C1184 1.368 . S
C1200 C1196 1.368 . S
C1200 C1199 1.523 . S
H1201 C1176 0.950 . S
H1202 C1178 0.950 . S
H1203 C1179 0.949 . S
H1204 C1181 0.950 . S
H1205 C1183 0.950 . S
C1206 C1207 1.349 . S
C1206 C1208 1.327 . S
C1206 H1231 0.950 . S
C1207 C1206 1.349 . S
C1207 C1223 1.349 . S
C1208 C1206 1.327 . S
C1208 C1227 1.429 . S
C1208 H1232 0.950 . S
C1209 C1226 1.574 . S
C1209 C1228 1.368 . S
C1209 H1233 0.949 . S
H1210 C1214 0.949 . S
C1211 C1212 1.349 . S
C1211 C1213 1.327 . S
C1211 H1234 0.950 . S
C1212 C1211 1.349 . S
C1212 C1224 1.349 . S
C1213 C1211 1.327 . S
C1213 C1229 1.429 . S
C1213 H1235 0.950 . S
C1214 H1210 0.949 . S
C1214 C1222 1.574 . S
C1214 C1230 1.368 . S
H1215 C1223 0.950 . S
H1216 C1221 0.950 . S
H1217 C1222 0.949 . S
H1218 C1224 0.950 . S
H1219 C1225 0.950 . S
H1220 C1226 0.949 . S
C1221 H1216 0.950 . S
C1221 C1223 1.327 . S
C1221 C1227 1.429 . S
C1222 C1214 1.574 . S
C1222 H1217 0.949 . S
C1222 C1228 1.368 . S
C1223 C1207 1.349 . S
C1223 H1215 0.950 . S
C1223 C1221 1.327 . S
C1224 C1212 1.349 . S
C1224 H1218 0.950 . S
C1224 C1225 1.327 . S
C1225 H1219 0.950 . S
C1225 C1224 1.327 . S
C1225 C1229 1.429 . S
C1226 C1209 1.574 . S
C1226 H1220 0.949 . S
C1226 C1230 1.368 . S
C1227 C1208 1.429 . S
C1227 C1221 1.429 . S
C1227 C1228 1.523 . S
C1228 C1209 1.368 . S
C1228 C1222 1.368 . S
C1228 C1227 1.523 . S
C1229 C1213 1.429 . S
C1229 C1225 1.429 . S
C1229 C1230 1.523 . S
C1230 C1214 1.368 . S
C1230 C1226 1.368 . S
C1230 C1229 1.523 . S
H1231 C1206 0.950 . S
H1232 C1208 0.950 . S
H1233 C1209 0.949 . S
H1234 C1211 0.950 . S
H1235 C1213 0.950 . S
C1236 C1237 1.349 . S
C1236 C1238 1.327 . S
C1236 H1261 0.950 . S
C1237 C1236 1.349 . S
C1237 C1253 1.349 . S
C1238 C1236 1.327 . S
C1238 C1257 1.429 . S
C1238 H1262 0.950 . S
C1239 C1256 1.574 . S
C1239 C1258 1.368 . S
C1239 H1263 0.949 . S
H1240 C1244 0.949 . S
C1241 C1242 1.349 . S
C1241 C1243 1.327 . S
C1241 H1264 0.950 . S
C1242 C1241 1.349 . S
C1242 C1254 1.349 . S
C1243 C1241 1.327 . S
C1243 C1259 1.429 . S
C1243 H1265 0.950 . S
C1244 H1240 0.949 . S
C1244 C1252 1.574 . S
C1244 C1260 1.368 . S
H1245 C1253 0.950 . S
H1246 C1251 0.950 . S
H1247 C1252 0.949 . S
H1248 C1254 0.950 . S
H1249 C1255 0.950 . S
H1250 C1256 0.949 . S
C1251 H1246 0.950 . S
C1251 C1253 1.327 . S
C1251 C1257 1.429 . S
C1252 C1244 1.574 . S
C1252 H1247 0.949 . S
C1252 C1258 1.368 . S
C1253 C1237 1.349 . S
C1253 H1245 0.950 . S
C1253 C1251 1.327 . S
C1254 C1242 1.349 . S
C1254 H1248 0.950 . S
C1254 C1255 1.327 . S
C1255 H1249 0.950 . S
C1255 C1254 1.327 . S
C1255 C1259 1.429 . S
C1256 C1239 1.574 . S
C1256 H1250 0.949 . S
C1256 C1260 1.368 . S
C1257 C1238 1.429 . S
C1257 C1251 1.429 . S
C1257 C1258 1.523 . S
C1258 C1239 1.368 . S
C1258 C1252 1.368 . S
C1258 C1257 1.523 . S
C1259 C1243 1.429 . S
C1259 C1255 1.429 . S
C1259 C1260 1.523 . S
C1260 C1244 1.368 . S
C1260 C1256 1.368 . S
C1260 C1259 1.523 . S
H1261 C1236 0.950 . S
H1262 C1238 0.950 . S
H1263 C1239 0.949 . S
H1264 C1241 0.950 . S
H1265 C1243 0.950 . S
C1266 C1267 1.349 . S
C1266 C1268 1.327 . S
C1266 H1291 0.950 . S
C1267 C1266 1.349 . S
C1267 C1283 1.349 . S
C1268 C1266 1.327 . S
C1268 C1287 1.429 . S
C1268 H1292 0.950 . S
C1269 C1286 1.574 . S
C1269 C1288 1.368 . S
C1269 H1293 0.949 . S
H1270 C1274 0.949 . S
C1271 C1272 1.349 . S
C1271 C1273 1.327 . S
C1271 H1294 0.950 . S
C1272 C1271 1.349 . S
C1272 C1284 1.349 . S
C1273 C1271 1.327 . S
C1273 C1289 1.429 . S
C1273 H1295 0.950 . S
C1274 H1270 0.949 . S
C1274 C1282 1.574 . S
C1274 C1290 1.368 . S
H1275 C1283 0.950 . S
H1276 C1281 0.950 . S
H1277 C1282 0.949 . S
H1278 C1284 0.950 . S
H1279 C1285 0.950 . S
H1280 C1286 0.949 . S
C1281 H1276 0.950 . S
C1281 C1283 1.327 . S
C1281 C1287 1.429 . S
C1282 C1274 1.574 . S
C1282 H1277 0.949 . S
C1282 C1288 1.368 . S
C1283 C1267 1.349 . S
C1283 H1275 0.950 . S
C1283 C1281 1.327 . S
C1284 C1272 1.349 . S
C1284 H1278 0.950 . S
C1284 C1285 1.327 . S
C1285 H1279 0.950 . S
C1285 C1284 1.327 . S
C1285 C1289 1.429 . S
C1286 C1269 1.574 . S
C1286 H1280 0.949 . S
C1286 C1290 1.368 . S
C1287 C1268 1.429 . S
C1287 C1281 1.429 . S
C1287 C1288 1.523 . S
C1288 C1269 1.368 . S
C1288 C1282 1.368 . S
C1288 C1287 1.523 . S
C1289 C1273 1.429 . S
C1289 C1285 1.429 . S
C1289 C1290 1.523 . S
C1290 C1274 1.368 . S
C1290 C1286 1.368 . S
C1290 C1289 1.523 . S
H1291 C1266 0.950 . S
H1292 C1268 0.950 . S
H1293 C1269 0.949 . S
H1294 C1271 0.950 . S
H1295 C1273 0.950 . S
C397 C173 1.561 . S
C402 N5 1.628 . S
C427 C8 1.561 . S
C432 N38 1.628 . S
C457 C41 1.561 . S
C462 N71 1.628 . S
C487 N104 1.628 . S
C492 C74 1.561 . S
C517 N137 1.628 . S
C522 C107 1.561 . S
C547 C140 1.561 . S
C552 N170 1.628 . S
C577 C239 1.561 . S
C582 N203 1.628 . S
C607 C272 1.561 . S
C612 N236 1.628 . S
C637 C305 1.561 . S
C642 N269 1.628 . S
C667 C338 1.561 . S
C672 N302 1.628 . S
C697 C371 1.561 . S
C702 N335 1.628 . S
C727 C206 1.561 . S
C732 N368 1.628 . S
C757 N278 1.284 . S
C762 N14 1.284 . S
C787 N47 1.284 . S
C792 N311 1.284 . S
C817 N80 1.284 . S
C822 N344 1.284 . S
C847 N113 1.284 . S
C852 N377 1.284 . S
C877 N146 1.284 . S
C882 N212 1.284 . S
C907 N245 1.284 . S
C912 N179 1.284 . S
C937 C314 1.000 . S
C942 C17 1.000 . S
C967 C347 1.000 . S
C972 C50 1.000 . S
C997 C83 1.000 . S
C1002 C380 1.000 . S
C1027 C116 1.000 . S
C1032 C215 1.000 . S
C1057 C149 1.000 . S
C1062 C248 1.000 . S
C1087 C281 1.000 . S
C1092 C182 1.000 . S
C1117 C28 0.627 . S
C1122 C226 0.627 . S
C1147 C259 0.627 . S
C1152 C61 0.627 . S
C1177 C94 0.627 . S
C1182 C292 0.627 . S
C1207 C325 0.627 . S
C1212 C127 0.627 . S
C1237 C358 0.627 . S
C1242 C160 0.627 . S
C1267 C391 0.627 . S
C1272 C193 0.627 . S
