# Generated by pormake.
# Topology bsn, (6)-cn, num edge types: 1
# Building blocks:
#     Node 0, Type 0, BuildingBlock: JUFBIX_clean_sbu_0, # of connection points: 6
#     Node 1, Type 0, BuildingBlock: JUFBIX_clean_sbu_0, # of connection points: 6
#     Node 2, Type 0, BuildingBlock: JUFBIX_clean_sbu_0, # of connection points: 6
#     Node 3, Type 0, BuildingBlock: JUFBIX_clean_sbu_0, # of connection points: 6
#     Edge 4, Type (0, 0), BuildingBlock: XUDNAN_clean_linker_2, # of connection points: 2
#     Edge 5, Type (0, 0), BuildingBlock: XUDNAN_clean_linker_2, # of connection points: 2
#     Edge 6, Type (0, 0), BuildingBlock: XUDNAN_clean_linker_2, # of connection points: 2
#     Edge 7, Type (0, 0), BuildingBlock: XUDNAN_clean_linker_2, # of connection points: 2
#     Edge 8, Type (0, 0), BuildingBlock: XUDNAN_clean_linker_2, # of connection points: 2
#     Edge 9, Type (0, 0), BuildingBlock: XUDNAN_clean_linker_2, # of connection points: 2
#     Edge 10, Type (0, 0), BuildingBlock: XUDNAN_clean_linker_2, # of connection points: 2
#     Edge 11, Type (0, 0), BuildingBlock: XUDNAN_clean_linker_2, # of connection points: 2
#     Edge 12, Type (0, 0), BuildingBlock: XUDNAN_clean_linker_2, # of connection points: 2
#     Edge 13, Type (0, 0), BuildingBlock: XUDNAN_clean_linker_2, # of connection points: 2
#     Edge 14, Type (0, 0), BuildingBlock: XUDNAN_clean_linker_2, # of connection points: 2
#     Edge 15, Type (0, 0), BuildingBlock: XUDNAN_clean_linker_2, # of connection points: 2
# Relax obj value: 0.098
# Max RMSD: 0.162
# Mean RMSD: 0.162
data_MOF--net-bsn--node1-JUFBIX_clean_sbu_0--edge1-XUDNAN_clean_linker_2
_symmetry_space_group_name_H-M    P1
_symmetry_Int_Tables_number       1
_symmetry_cell_setting            triclinic
loop_
_symmetry_equiv_pos_as_xyz
'x, y, z'
_cell_length_a     28.422905
_cell_length_b     38.68075
_cell_length_c     14.717627
_cell_angle_alpha  87.611552
_cell_angle_beta   91.956074
_cell_angle_gamma 98.06902
loop_
_atom_site_label
_atom_site_type_symbol
_atom_site_fract_x
_atom_site_fract_y
_atom_site_fract_z
_atom_type_partial_charge
Co0 Co 1.02468 0.26483 0.33118 0.0
C1 C 0.04247 0.29179 0.49837 0.0
Co2 Co 0.0428 0.32283 0.3247 0.0
C3 C 1.02334 0.1914 0.39146 0.0
C4 C 0.98008 0.19771 0.27165 0.0
N5 N 1.00883 0.21604 0.33287 0.0
N6 N 1.00517 0.15862 0.36822 0.0
C7 C 0.9781 0.16256 0.29272 0.0
H8 H 0.04746 0.1973 0.44898 0.0
H9 H 0.96171 0.20914 0.21491 0.0
C10 C 1.02834 0.29432 0.15716 0.0
N11 N 0.05789 0.37153 0.3243 0.0
C12 C 0.0437 0.39325 0.38433 0.0
C13 C 0.08533 0.39274 0.26628 0.0
N14 N 0.06127 0.42717 0.36664 0.0
C15 C 0.08739 0.42687 0.29194 0.0
C16 C 0.1207 0.28774 0.31051 0.0
O17 O 1.02011 0.2665 0.20587 0.0
O18 O 0.03709 0.32368 0.19467 0.0
O19 O 0.10744 0.31773 0.31451 0.0
O20 O 0.09057 0.26039 0.32226 0.0
O21 O 0.04918 0.32093 0.45429 0.0
H22 H 0.10312 0.38392 0.20953 0.0
H23 H 1.02058 0.38422 0.43987 0.0
O24 O 1.03043 0.26382 0.45653 0.0
O25 O 0.95879 0.27012 0.33647 0.0
O26 O 0.97798 0.32716 0.33175 0.0
C27 C 0.94628 0.30052 0.33398 0.0
H28 H 0.95785 0.14147 0.256 0.0
H29 H 0.10753 0.44956 0.25929 0.0
Co30 Co 0.03173 0.75742 0.6023 0.0
C31 C 1.02892 0.79187 0.76401 0.0
Co32 Co 0.04593 0.81556 0.58921 0.0
C33 C 0.03524 0.6822 0.58372 0.0
C34 C 0.98136 0.69318 0.67219 0.0
N35 N 1.0163 0.70891 0.61878 0.0
N36 N 1.0137 0.65057 0.61439 0.0
C37 C 0.97981 0.65759 0.66994 0.0
H38 H 0.06468 0.68589 0.53791 0.0
H39 H 0.95829 0.70677 0.71042 0.0
C40 C 0.04543 0.77994 0.42691 0.0
N41 N 0.06182 0.86399 0.56918 0.0
C42 C 0.03837 0.8914 0.58396 0.0
C43 C 0.09986 0.87806 0.52095 0.0
N44 N 0.0603 0.92161 0.54561 0.0
C45 C 0.09889 0.91319 0.50616 0.0
C46 C 0.12603 0.78289 0.62976 0.0
O47 O 0.03711 0.75266 0.4779 0.0
O48 O 0.05196 0.80979 0.46187 0.0
O49 O 0.11001 0.81149 0.61193 0.0
O50 O 0.09819 0.75417 0.62417 0.0
O51 O 0.0389 0.82035 0.71739 0.0
H52 H 0.12564 0.86337 0.49425 0.0
H53 H 1.00469 0.88897 0.61751 0.0
O54 O 1.02568 0.76281 0.72575 0.0
O55 O 0.96538 0.7618 0.58438 0.0
O56 O 0.98147 0.81896 0.56964 0.0
C57 C 0.95113 0.79155 0.57371 0.0
H58 H 0.95518 0.63829 0.70581 0.0
H59 H 0.12396 0.93112 0.46724 0.0
Co60 Co 0.54216 0.7621 0.8286 0.0
C61 C 0.55531 0.79083 -0.00456 0.0
Co62 Co 0.54675 0.82009 0.82207 0.0
C63 C 0.55526 0.69044 0.89008 0.0
C64 C 0.50329 0.69291 0.782 0.0
N65 N 0.53551 0.71322 0.83303 0.0
N66 N 0.53589 0.65692 0.87703 0.0
C67 C 0.50338 0.65853 0.80885 0.0
H68 H 0.58148 0.69833 0.94301 0.0
H69 H 0.47977 0.7026 0.73067 0.0
C70 C 0.53694 0.79003 0.65474 0.0
N71 N 0.55219 0.86884 0.81867 0.0
C72 C 0.53352 0.88921 0.87646 0.0
C73 C 0.57764 0.89153 0.76103 0.0
N74 N 0.54657 0.9238 0.85797 0.0
C75 C 0.57431 0.92517 0.78488 0.0
C76 C 0.63345 0.79573 0.80507 0.0
O77 O 0.53507 0.76232 0.70407 0.0
O78 O 0.54009 0.81949 0.69172 0.0
O79 O 0.61267 0.82256 0.81099 0.0
O80 O 0.60961 0.76539 0.81515 0.0
O81 O 0.5542 0.8197 0.95141 0.0
H82 H 0.59822 0.88408 0.70639 0.0
H83 H 0.51105 0.87857 0.93158 0.0
O84 O 0.55016 0.76251 0.95364 0.0
O85 O 0.47462 0.75973 0.83884 0.0
O86 O 0.4808 0.81701 0.83175 0.0
C87 C 0.45518 0.78742 0.83771 0.0
H88 H 0.48052 0.63636 0.7816 0.0
H89 H 0.59233 0.94868 0.75226 0.0
Co90 Co 0.5242 0.25205 0.12242 0.0
C91 C 0.51599 0.28691 0.2843 0.0
Co92 Co 0.52181 0.3095 0.10887 0.0
C93 C 0.51912 0.1768 0.09196 0.0
C94 C 0.55286 0.19234 0.219 0.0
N95 N 0.53188 0.20505 0.14356 0.0
N96 N 0.53078 0.14713 0.13338 0.0
C97 C 0.55187 0.15691 0.21326 0.0
H98 H 0.501 0.17784 0.02621 0.0
H99 H 0.56815 0.20787 0.2749 0.0
C100 C 0.53295 0.27668 0.9471 0.0
N101 N 0.51327 0.35635 0.08273 0.0
C102 C 0.53574 0.38796 0.10851 0.0
C103 C 0.47971 0.36427 0.02117 0.0
N104 N 0.51642 0.4148 0.06634 0.0
C105 C 0.48136 0.39964 0.0115 0.0
C106 C 0.61234 0.29652 0.13773 0.0
O107 O 0.53043 0.24804 -0.00637 0.0
O108 O 0.52912 0.30466 -0.01405 0.0
O109 O 0.58785 0.32148 0.12413 0.0
O110 O 0.59175 0.26503 0.13632 0.0
O111 O 0.51557 0.31411 0.23291 0.0
H112 H 0.45611 0.34544 -0.01709 0.0
H113 H 0.56566 0.39122 0.15638 0.0
O114 O 0.51831 0.25755 0.24994 0.0
O115 O 0.45662 0.23982 0.11115 0.0
O116 O 0.45552 0.29638 0.09591 0.0
C117 C 0.43341 0.26555 0.09982 0.0
H118 H 0.56608 0.13963 0.26358 0.0
H119 H 0.45944 0.41327 0.96473 0.0
H120 H 0.06743 0.49572 0.30687 0.0
H121 H 0.04099 0.42694 0.54588 0.0
H122 H 1.02934 0.47729 0.63523 0.0
H123 H 0.13222 0.56947 0.4258 0.0
H124 H 0.10699 0.60183 0.35537 0.0
H125 H 0.1143 0.5605 0.30949 0.0
H126 H 1.0247 0.54991 0.26456 0.0
H127 H 1.01715 0.59122 0.31004 0.0
H128 H 0.9813 0.55173 0.35013 0.0
H129 H 1.01869 0.5344 0.69861 0.0
H130 H 1.00804 0.59471 0.73156 0.0
H131 H 0.04223 0.62799 0.45373 0.0
C132 C 0.05967 0.49125 0.37819 0.0
C133 C 0.05496 0.45706 0.41889 0.0
C134 C 0.04409 0.45254 0.51233 0.0
C135 C 0.03778 0.48112 0.56405 0.0
C136 C 0.04252 0.51429 0.52182 0.0
C137 C 0.0532 0.5196 0.43105 0.0
C138 C 0.05512 0.558 0.40214 0.0
C139 C 0.10514 0.57335 0.37139 0.0
C140 C 1.01731 0.563 0.32729 0.0
C141 C 0.04351 0.57335 0.49075 0.0
C142 C 0.03655 0.54756 0.55878 0.0
C143 C 1.02415 0.55481 0.64594 0.0
C144 C 1.01798 0.58916 0.66391 0.0
C145 C 1.02417 0.61611 0.59533 0.0
C146 C 0.03783 0.60808 0.50782 0.0
H147 H 0.69464 0.74633 0.78957 0.0
H148 H 0.68243 0.85633 0.73902 0.0
H149 H 0.75777 0.86451 0.65987 0.0
H150 H 0.82282 0.76083 0.83479 0.0
H151 H 0.83294 0.72134 0.78233 0.0
H152 H 0.77689 0.7236 0.83367 0.0
H153 H 0.73327 0.70609 0.68141 0.0
H154 H 0.78933 0.70457 0.6291 0.0
H155 H 0.7483 0.73199 0.57913 0.0
H156 H 0.83183 0.86144 0.58174 0.0
H157 H 0.90983 0.84977 0.53342 0.0
H158 H 0.8789 0.74271 0.63925 0.0
C159 C 0.70815 0.77217 0.76268 0.0
C160 C 0.68232 0.8006 0.77041 0.0
C161 C 0.70135 0.83406 0.73447 0.0
C162 C 0.74402 0.839 0.68839 0.0
C163 C 0.76784 0.81039 0.6796 0.0
C164 C 0.75149 0.77783 0.71753 0.0
C165 C 0.78613 0.75222 0.70239 0.0
C166 C 0.80587 0.73871 0.79372 0.0
C167 C 0.76285 0.72192 0.64456 0.0
C168 C 0.82427 0.77566 0.65028 0.0
C169 C 0.8123 0.8089 0.63664 0.0
C170 C 0.84183 0.83556 0.59215 0.0
C171 C 0.88599 0.82859 0.56454 0.0
C172 C 0.9005 0.79535 0.58243 0.0
C173 C 0.86854 0.76822 0.62335 0.0
H174 H 0.45768 0.46365 0.05347 0.0
H175 H 0.60619 0.45051 0.08307 0.0
H176 H 0.6287 0.51458 0.05701 0.0
H177 H 0.46992 0.52018 0.86941 0.0
H178 H 0.42528 0.54606 0.90006 0.0
H179 H 0.42146 0.50121 0.93953 0.0
H180 H 0.41957 0.51975 0.10646 0.0
H181 H 0.42291 0.5648 0.06741 0.0
H182 H 0.46607 0.5519 0.14995 0.0
H183 H 0.63378 0.58018 0.00619 0.0
H184 H 0.62082 0.63783 0.93551 0.0
H185 H 0.46891 0.60496 0.93328 0.0
C186 C 0.49496 0.47433 0.05668 0.0
C187 C 0.5302 0.45213 0.07038 0.0
C188 C 0.57861 0.4671 0.07402 0.0
C189 C 0.59161 0.50345 0.05879 0.0
C190 C 0.55572 0.52438 0.04092 0.0
C191 C 0.50829 0.51014 0.04085 0.0
C192 C 0.47625 0.53679 0.0107 0.0
C193 C 0.44652 0.52537 0.92485 0.0
C194 C 0.44433 0.54372 0.08827 0.0
C195 C 0.51288 0.56814 -0.00959 0.0
C196 C 0.55858 0.56099 0.0098 0.0
C197 C 0.59806 0.586 -0.00803 0.0
C198 C 0.59048 0.61867 0.95207 0.0
C199 C 0.54391 0.62567 0.9288 0.0
C200 C 0.50489 0.60022 0.95009 0.0
H201 H 0.86954 0.25108 0.2944 0.0
H202 H 0.90916 0.36159 0.3416 0.0
H203 H 0.82815 0.37231 0.29615 0.0
H204 H 0.79885 0.26115 0.09791 0.0
H205 H 0.75393 0.22462 0.12338 0.0
H206 H 0.81381 0.22452 0.16732 0.0
H207 H 0.78336 0.21532 0.3317 0.0
H208 H 0.72325 0.21474 0.28812 0.0
H209 H 0.74644 0.24505 0.37381 0.0
H210 H 0.74562 0.3722 0.23308 0.0
H211 H 0.66334 0.36018 0.17212 0.0
H212 H 0.67618 0.24966 0.16741 0.0
C213 C 0.86084 0.27737 0.29736 0.0
C214 C 0.89574 0.30548 0.32174 0.0
C215 C 0.88308 0.33962 0.3233 0.0
C216 C 0.83716 0.34602 0.29732 0.0
C217 C 0.80414 0.31801 0.27046 0.0
C218 C 0.81503 0.28427 0.27167 0.0
C219 C 0.77315 0.25907 0.23717 0.0
C220 C 0.78571 0.24131 0.15135 0.0
C221 C 0.7555 0.23195 0.31218 0.0
C222 C 0.73738 0.28404 0.21526 0.0
C223 C 0.7561 0.31791 0.23473 0.0
C224 C 0.73035 0.34573 0.21833 0.0
C225 C 0.68373 0.33865 0.18305 0.0
C226 C 0.66324 0.30399 0.16487 0.0
C227 C 0.69078 0.27645 0.18046 0.0
H228 H 0.37267 0.22693 0.21901 0.0
H229 H 0.37808 0.29848 -0.01619 0.0
H230 H 0.29562 0.30783 0.00767 0.0
H231 H 0.23998 0.19116 0.19019 0.0
H232 H 0.23262 0.18888 0.31155 0.0
H233 H 0.28842 0.18199 0.26551 0.0
H234 H 0.33176 0.23081 0.36531 0.0
H235 H 0.27617 0.23861 0.40977 0.0
H236 H 0.31448 0.27394 0.35518 0.0
H237 H 0.22212 0.3195 0.07317 0.0
H238 H 0.15238 0.32525 0.16258 0.0
H239 H 0.18873 0.24402 0.35386 0.0
C240 C 0.35537 0.24297 0.16992 0.0
C241 C 0.38118 0.26155 0.09853 0.0
C242 C 0.35847 0.28367 0.03788 0.0
C243 C 0.31176 0.28926 0.0512 0.0
C244 C 0.28808 0.27231 0.1252 0.0
C245 C 0.30833 0.24885 0.18238 0.0
C246 C 0.27602 0.23662 0.26119 0.0
C247 C 0.25819 0.19732 0.25682 0.0
C248 C 0.30113 0.24554 0.35328 0.0
C249 C 0.23581 0.25816 0.24136 0.0
C250 C 0.24387 0.27852 0.16248 0.0
C251 C 0.21472 0.30311 0.1338 0.0
C252 C 0.17561 0.30653 0.18584 0.0
C253 C 0.16548 0.28524 0.26526 0.0
C254 C 0.19574 0.26049 0.29318 0.0
H255 H 0.38816 0.73886 0.75816 0.0
H256 H 0.40585 0.83416 0.90861 0.0
H257 H 0.32097 0.83894 0.88299 0.0
H258 H 0.31575 0.76731 0.5876 0.0
H259 H 0.27689 0.72677 0.57315 0.0
H260 H 0.33672 0.72626 0.61673 0.0
H261 H 0.30529 0.69052 0.76009 0.0
H262 H 0.24523 0.69038 0.71631 0.0
H263 H 0.26182 0.70653 0.82768 0.0
H264 H 0.24055 0.83926 0.82346 0.0
H265 H 0.1639 0.83325 0.74082 0.0
H266 H 0.19367 0.73709 0.62654 0.0
C267 C 0.37352 0.7599 0.78853 0.0
C268 C 0.40318 0.78598 0.83627 0.0
C269 C 0.38351 0.81387 0.87243 0.0
C270 C 0.33538 0.81676 0.85834 0.0
C271 C 0.30742 0.79152 0.80792 0.0
C272 C 0.3253 0.76336 0.77425 0.0
C273 C 0.28811 0.74202 0.71482 0.0
C274 C 0.30542 0.74052 0.61731 0.0
C275 C 0.27429 0.70517 0.75728 0.0
C276 C 0.24738 0.76348 0.71763 0.0
C277 C 0.2596 0.79169 0.7726 0.0
C278 C 0.23015 0.817 0.78147 0.0
C279 C 0.18686 0.8135 0.7332 0.0
C280 C 0.17298 0.78481 0.67668 0.0
C281 C 0.20335 0.75912 0.66968 0.0
H282 H 0.55721 0.99332 0.80399 0.0
H283 H 0.51235 0.92153 0.02979 0.0
H284 H 0.49718 0.97096 0.11837 0.0
H285 H 0.6199 0.05945 0.93988 0.0
H286 H 0.60351 0.09535 0.86945 0.0
H287 H 0.60729 0.05407 0.82002 0.0
H288 H 0.52056 0.05161 0.75805 0.0
H289 H 0.51646 0.09288 0.80762 0.0
H290 H 0.4738 0.0552 0.83543 0.0
H291 H 0.49239 1.02808 0.18789 0.0
H292 H 0.49857 0.08939 0.23315 0.0
H293 H 0.54626 0.12513 0.96458 0.0
C294 C 0.54407 0.98775 0.87184 0.0
C295 C 0.53585 0.95299 0.90888 0.0
C296 C 0.51836 0.94744 -0.00172 0.0
C297 C 0.50974 0.97553 0.04973 0.0
C298 C 0.51863 1.00925 0.01135 0.0
C299 C 0.53536 1.01555 0.92445 0.0
C300 C 0.54411 0.05456 0.9011 0.0
C301 C 0.59683 0.06655 0.88148 0.0
C302 C 0.51179 0.06412 0.82078 0.0
C303 C 0.53018 0.06917 -0.01104 0.0
C304 C 0.51548 0.04246 0.05144 0.0
C305 C 0.50335 0.04918 0.13924 0.0
C306 C 0.50704 0.08403 0.16443 0.0
C307 C 0.52244 0.11188 0.10219 0.0
C308 C 0.53341 0.10432 0.01275 0.0
H309 H 0.05113 0.96049 0.39164 0.0
H310 H 0.03598 0.95953 0.68316 0.0
H311 H 1.02029 1.02133 0.67124 0.0
H312 H 0.11002 0.04628 0.36209 0.0
H313 H 0.07969 0.0556 0.25623 0.0
H314 H 0.08766 1.01132 0.28817 0.0
H315 H 0.99679 0.99196 0.27245 0.0
H316 H 0.98858 1.03611 0.23923 0.0
H317 H 0.95696 1.01417 0.33408 0.0
H318 H 1.01416 0.08574 0.6258 0.0
H319 H 1.00661 0.14342 0.54997 0.0
H320 H 1.02054 0.09981 0.28772 0.0
C321 C 0.0438 0.97324 0.45267 0.0
C322 C 0.0447 0.9555 0.53838 0.0
C323 C 0.03495 0.97277 0.61699 0.0
C324 C 1.0264 1.00784 0.6107 0.0
C325 C 1.0269 1.02493 0.52501 0.0
C326 C 0.03433 1.00782 0.44723 0.0
C327 C 0.03261 1.03156 0.36306 0.0
C328 C 0.08034 1.03647 0.31457 0.0
C329 C 0.99127 1.01762 0.29841 0.0
C330 C 1.02379 0.06499 0.40532 0.0
C331 C 1.02114 0.06092 0.4989 0.0
C332 C 1.0155 0.08895 0.5525 0.0
C333 C 1.0116 0.12165 0.50913 0.0
C334 C 1.01259 0.12588 0.41317 0.0
C335 C 1.01897 0.09712 0.36111 0.0
H336 H 1.023 0.34291 0.01428 0.0
H337 H 0.05195 0.23726 0.08213 0.0
H338 H 0.06698 0.2288 0.92302 0.0
H339 H 0.9594 0.32166 0.80819 0.0
H340 H 0.98198 0.36129 0.74583 0.0
H341 H 0.97807 0.36131 0.86764 0.0
H342 H 0.06781 0.38515 0.88113 0.0
H343 H 0.07197 0.38502 0.75916 0.0
H344 H 0.11047 0.36177 0.83127 0.0
H345 H 0.07337 0.22868 0.76137 0.0
H346 H 0.06724 0.23633 0.59547 0.0
H347 H 0.03385 0.34159 0.62285 0.0
C348 C 0.03283 0.31821 -0.00483 0.0
C349 C 0.03591 0.2907 0.06023 0.0
C350 C 0.04863 0.25858 0.03325 0.0
C351 C 0.05784 0.25355 0.94313 0.0
C352 C 0.05411 0.28083 0.88047 0.0
C353 C 0.04168 0.31247 0.90427 0.0
C354 C 0.03674 0.33609 0.82056 0.0
C355 C 0.98603 0.34563 0.80995 0.0
C356 C 0.07398 0.36896 0.82321 0.0
C357 C 0.047 0.31215 0.74676 0.0
C358 C 0.05763 0.28069 0.78383 0.0
C359 C 0.06562 0.25329 0.73101 0.0
C360 C 0.06176 0.25783 0.637 0.0
C361 C 0.05001 0.28949 0.59703 0.0
C362 C 0.04347 0.31732 0.65226 0.0
H363 H 0.07022 0.83575 0.89786 0.0
H364 H 0.9662 0.74441 0.84942 0.0
H365 H 0.95927 0.73272 0.01358 0.0
H366 H 0.13016 0.80052 0.08103 0.0
H367 H 0.13921 0.8388 0.14871 0.0
H368 H 0.13312 0.84341 0.02679 0.0
H369 H 0.0631 0.87885 0.04184 0.0
H370 H 0.06964 0.87502 0.16397 0.0
H371 H 1.01302 0.86075 0.10895 0.0
H372 H 0.97217 0.72478 0.17614 0.0
H373 H 0.99221 0.72749 0.33943 0.0
H374 H 0.08339 0.82611 0.29166 0.0
C375 C 0.04496 0.81405 0.92236 0.0
C376 C 1.01909 0.79074 0.86141 0.0
C377 C 0.9868 0.76227 0.89527 0.0
C378 C 0.98253 0.75539 -0.01167 0.0
C379 C 1.01024 0.77756 0.04683 0.0
C380 C 0.03984 0.80688 0.01613 0.0
C381 C 0.06631 0.82555 0.09542 0.0
C382 C 0.1204 0.82715 0.08746 0.0
C383 C 0.05216 0.86222 0.10299 0.0
C384 C 0.04786 0.80141 0.17425 0.0
C385 C 1.01593 0.7738 0.14381 0.0
C386 C 0.9963 0.74663 0.20156 0.0
C387 C 1.00837 0.74822 0.29401 0.0
C388 C 0.03918 0.77705 0.32793 0.0
C389 C 0.05948 0.80391 0.26724 0.0
H390 H 0.53634 0.83806 0.11988 0.0
H391 H 0.5908 0.73954 0.09301 0.0
H392 H 0.59609 0.73184 0.25882 0.0
H393 H 0.60806 0.86423 0.33088 0.0
H394 H 0.56015 0.88274 0.37897 0.0
H395 H 0.56588 0.88334 0.25726 0.0
H396 H 0.47961 0.85184 0.24069 0.0
H397 H 0.47374 0.85068 0.36223 0.0
H398 H 0.463 0.81071 0.3014 0.0
H399 H 0.58657 0.73004 0.41963 0.0
H400 H 0.56926 0.73633 0.57855 0.0
H401 H 0.52248 0.83698 0.51162 0.0
C402 C 0.55042 0.81538 0.14942 0.0
C403 C 0.56301 0.7893 0.0942 0.0
C404 C 0.58062 0.75965 0.13439 0.0
C405 C 0.584 0.7551 0.2284 0.0
C406 C 0.56986 0.78052 0.2811 0.0
C407 C 0.55394 0.81031 0.244 0.0
C408 C 0.53831 0.83216 0.31783 0.0
C409 C 0.57001 0.86773 0.32144 0.0
C410 C 0.48553 0.83659 0.30472 0.0
C411 C 0.54654 0.8092 0.40135 0.0
C412 C 0.56492 0.77972 0.37749 0.0
C413 C 0.57292 0.75322 0.43986 0.0
C414 C 0.56238 0.75697 0.52995 0.0
C415 C 0.54428 0.78714 0.55734 0.0
C416 C 0.53646 0.81378 0.49233 0.0
H417 H 0.49068 0.23703 0.4195 0.0
H418 H 0.55474 0.3447 0.37096 0.0
H419 H 0.57307 0.35011 0.53446 0.0
H420 H 0.43486 0.25355 0.62757 0.0
H421 H 0.44361 0.21233 0.68256 0.0
H422 H 0.43758 0.21598 0.56046 0.0
H423 H 0.51808 0.19264 0.54688 0.0
H424 H 0.52471 0.18949 0.66908 0.0
H425 H 0.57055 0.21472 0.60289 0.0
H426 H 0.58645 0.34446 0.69721 0.0
H427 H 0.58178 0.332 0.86128 0.0
H428 H 0.50467 0.22891 0.81314 0.0
C429 C 0.50835 0.26171 0.44381 0.0
C430 C 0.52139 0.29047 0.38303 0.0
C431 C 0.54411 0.32249 0.41663 0.0
C432 C 0.55519 0.32569 0.50913 0.0
C433 C 0.54274 0.29679 0.56707 0.0
C434 C 0.51885 0.26566 0.53674 0.0
C435 C 0.50661 0.23976 0.61568 0.0
C436 C 0.45245 0.22983 0.62194 0.0
C437 C 0.53148 0.20722 0.60815 0.0
C438 C 0.52715 0.26148 0.69489 0.0
C439 C 0.54867 0.29396 0.6641 0.0
C440 C 0.56956 0.31925 0.72252 0.0
C441 C 0.56665 0.31186 0.81554 0.0
C442 C 0.54248 0.27962 0.84951 0.0
C443 C 0.52369 0.25358 0.78864 0.0
loop_
_geom_bond_atom_site_label_1
_geom_bond_atom_site_label_2
_geom_bond_distance
_geom_bond_site_symmetry_2
_ccdc_geom_bond_type
Co0 N5 2.057 . S
Co0 O17 2.021 . S
Co0 O20 2.062 1_655 S
Co0 O24 2.117 1_655 S
Co0 O25 2.020 . S
C1 O21 1.259 . S
C1 O24 1.258 . S
Co2 N11 2.057 . S
Co2 O18 2.117 . S
Co2 O19 2.020 . S
Co2 O21 2.021 . S
Co2 O26 2.062 1_455 S
C3 N5 1.322 . S
C3 N6 1.342 1_655 S
C3 H8 0.929 1_655 S
C4 N5 1.375 . S
C4 C7 1.350 . S
C4 H9 0.930 . S
N5 Co0 2.057 . S
N5 C3 1.322 . S
N5 C4 1.375 . S
N6 C3 1.342 1_455 S
N6 C7 1.371 1_455 S
C7 C4 1.350 . S
C7 N6 1.371 1_655 S
C7 H28 0.931 . S
H8 C3 0.929 1_455 S
H9 C4 0.930 . S
C10 O17 1.259 1_455 S
C10 O18 1.258 . S
N11 Co2 2.057 . S
N11 C12 1.316 . S
N11 C13 1.375 . S
C12 N11 1.316 . S
C12 N14 1.347 . S
C12 H23 0.931 . S
C13 N11 1.375 . S
C13 C15 1.350 . S
C13 H22 0.930 . S
N14 C12 1.347 . S
N14 C15 1.373 . S
C15 C13 1.350 . S
C15 N14 1.373 . S
C15 H29 0.931 . S
C16 O19 1.256 . S
C16 O20 1.255 . S
O17 Co0 2.021 . S
O17 C10 1.259 1_655 S
O18 Co2 2.117 . S
O18 C10 1.258 . S
O19 Co2 2.020 . S
O19 C16 1.256 . S
O20 Co0 2.062 1_455 S
O20 C16 1.255 . S
O21 C1 1.259 . S
O21 Co2 2.021 . S
H22 C13 0.930 . S
H23 C12 0.931 . S
O24 Co0 2.117 1_455 S
O24 C1 1.258 . S
O25 Co0 2.020 . S
O25 C27 1.256 . S
O26 Co2 2.062 1_655 S
O26 C27 1.255 . S
C27 O25 1.256 . S
C27 O26 1.255 . S
H28 C7 0.931 . S
H29 C15 0.931 . S
Co30 N35 2.057 . S
Co30 O47 2.021 . S
Co30 O50 2.062 1_655 S
Co30 O54 2.117 1_655 S
Co30 O55 2.020 . S
C31 O51 1.259 . S
C31 O54 1.258 . S
Co32 N41 2.057 . S
Co32 O48 2.117 . S
Co32 O49 2.020 . S
Co32 O51 2.021 . S
Co32 O56 2.062 1_455 S
C33 N35 1.316 . S
C33 N36 1.347 . S
C33 H38 0.932 . S
C34 N35 1.375 . S
C34 C37 1.350 . S
C34 H39 0.930 . S
N35 Co30 2.057 . S
N35 C33 1.316 . S
N35 C34 1.375 . S
N36 C33 1.347 . S
N36 C37 1.373 . S
C37 C34 1.350 . S
C37 N36 1.373 . S
C37 H58 0.931 . S
H38 C33 0.932 . S
H39 C34 0.930 . S
C40 O47 1.259 1_455 S
C40 O48 1.258 . S
N41 Co32 2.057 . S
N41 C42 1.316 . S
N41 C43 1.375 . S
C42 N41 1.316 . S
C42 N44 1.347 . S
C42 H53 0.931 . S
C43 N41 1.375 . S
C43 C45 1.350 . S
C43 H52 0.930 . S
N44 C42 1.347 . S
N44 C45 1.373 . S
C45 C43 1.350 . S
C45 N44 1.373 . S
C45 H59 0.931 . S
C46 O49 1.256 . S
C46 O50 1.255 . S
O47 Co30 2.021 . S
O47 C40 1.259 1_655 S
O48 Co32 2.117 . S
O48 C40 1.258 . S
O49 Co32 2.020 . S
O49 C46 1.256 . S
O50 Co30 2.062 1_455 S
O50 C46 1.255 . S
O51 C31 1.259 . S
O51 Co32 2.021 . S
H52 C43 0.930 . S
H53 C42 0.931 . S
O54 Co30 2.117 1_455 S
O54 C31 1.258 . S
O55 Co30 2.020 . S
O55 C57 1.256 . S
O56 Co32 2.062 1_655 S
O56 C57 1.255 . S
C57 O55 1.256 . S
C57 O56 1.255 . S
H58 C37 0.931 . S
H59 C45 0.931 . S
Co60 N65 2.057 . S
Co60 O77 2.021 . S
Co60 O80 2.062 . S
Co60 O84 2.117 1_556 S
Co60 O85 2.020 . S
C61 O81 1.259 . S
C61 O84 1.258 . S
Co62 N71 2.057 . S
Co62 O78 2.117 . S
Co62 O79 2.020 . S
Co62 O81 2.021 1_556 S
Co62 O86 2.062 . S
C63 N65 1.316 . S
C63 N66 1.347 . S
C63 H68 0.931 . S
C64 N65 1.375 . S
C64 C67 1.350 . S
C64 H69 0.930 1_556 S
N65 Co60 2.057 . S
N65 C63 1.316 . S
N65 C64 1.375 . S
N66 C63 1.347 . S
N66 C67 1.373 . S
C67 C64 1.350 . S
C67 N66 1.373 . S
C67 H88 0.931 1_556 S
H68 C63 0.931 . S
H69 C64 0.930 1_554 S
C70 O77 1.259 . S
C70 O78 1.258 . S
N71 Co62 2.057 . S
N71 C72 1.316 . S
N71 C73 1.375 . S
C72 N71 1.316 . S
C72 N74 1.347 . S
C72 H83 0.931 . S
C73 N71 1.375 . S
C73 C75 1.350 . S
C73 H82 0.930 . S
N74 C72 1.347 . S
N74 C75 1.373 . S
C75 C73 1.350 . S
C75 N74 1.373 . S
C75 H89 0.931 . S
C76 O79 1.256 . S
C76 O80 1.255 . S
O77 Co60 2.021 . S
O77 C70 1.259 . S
O78 Co62 2.117 . S
O78 C70 1.258 . S
O79 Co62 2.020 . S
O79 C76 1.256 . S
O80 Co60 2.062 . S
O80 C76 1.255 . S
O81 C61 1.259 . S
O81 Co62 2.021 1_554 S
H82 C73 0.930 . S
H83 C72 0.931 . S
O84 Co60 2.117 1_554 S
O84 C61 1.258 . S
O85 Co60 2.020 . S
O85 C87 1.256 . S
O86 Co62 2.062 . S
O86 C87 1.255 . S
C87 O85 1.256 . S
C87 O86 1.255 . S
H88 C67 0.931 1_554 S
H89 C75 0.931 . S
Co90 N95 2.057 . S
Co90 O107 2.021 1_554 S
Co90 O110 2.062 . S
Co90 O114 2.117 . S
Co90 O115 2.020 . S
C91 O111 1.259 . S
C91 O114 1.258 . S
Co92 N101 2.057 . S
Co92 O108 2.117 1_554 S
Co92 O109 2.020 . S
Co92 O111 2.021 . S
Co92 O116 2.062 . S
C93 N95 1.316 . S
C93 N96 1.347 . S
C93 H98 0.931 . S
C94 N95 1.375 . S
C94 C97 1.350 . S
C94 H99 0.930 . S
N95 Co90 2.057 . S
N95 C93 1.316 . S
N95 C94 1.375 . S
N96 C93 1.347 . S
N96 C97 1.373 . S
C97 C94 1.350 . S
C97 N96 1.373 . S
C97 H118 0.931 . S
H98 C93 0.931 . S
H99 C94 0.930 . S
C100 O107 1.259 . S
C100 O108 1.258 . S
N101 Co92 2.057 . S
N101 C102 1.316 . S
N101 C103 1.375 . S
C102 N101 1.316 . S
C102 N104 1.347 . S
C102 H113 0.931 . S
C103 N101 1.375 . S
C103 C105 1.350 . S
C103 H112 0.930 1_554 S
N104 C102 1.347 . S
N104 C105 1.373 . S
C105 C103 1.350 . S
C105 N104 1.373 . S
C105 H119 0.931 1_554 S
C106 O109 1.256 . S
C106 O110 1.255 . S
O107 Co90 2.021 1_556 S
O107 C100 1.259 . S
O108 Co92 2.117 1_556 S
O108 C100 1.258 . S
O109 Co92 2.020 . S
O109 C106 1.256 . S
O110 Co90 2.062 . S
O110 C106 1.255 . S
O111 C91 1.259 . S
O111 Co92 2.021 . S
H112 C103 0.930 1_556 S
H113 C102 0.931 . S
O114 Co90 2.117 . S
O114 C91 1.258 . S
O115 Co90 2.020 . S
O115 C117 1.256 . S
O116 Co92 2.062 . S
O116 C117 1.255 . S
C117 O115 1.256 . S
C117 O116 1.255 . S
H118 C97 0.931 . S
H119 C105 0.931 1_556 S
H120 C132 0.930 . S
H121 C134 0.930 . S
H122 C135 0.930 . S
H123 C139 0.959 . S
H124 C139 0.959 1_655 S
H125 C139 0.961 1_655 S
H126 C140 0.960 . S
H127 C140 0.961 . S
H128 C140 0.959 . S
H129 C143 0.929 . S
H130 C144 0.931 . S
H131 C146 0.930 . S
C132 H120 0.930 . S
C132 C133 1.399 1_655 S
C132 C137 1.399 . S
C133 C132 1.399 1_455 S
C133 C134 1.376 . S
C134 H121 0.930 . S
C134 C133 1.376 . S
C134 C135 1.388 . S
C135 H122 0.930 . S
C135 C134 1.388 . S
C135 C136 1.390 . S
C136 C135 1.390 . S
C136 C137 1.394 1_455 S
C136 C142 1.465 . S
C137 C132 1.399 . S
C137 C136 1.394 1_655 S
C137 C138 1.516 . S
C138 C137 1.516 . S
C138 C139 1.502 1_655 S
C138 C140 1.561 . S
C138 C141 1.526 . S
C139 H123 0.959 . S
C139 H124 0.959 1_455 S
C139 H125 0.961 1_455 S
C139 C138 1.502 1_455 S
C140 H126 0.960 . S
C140 H127 0.961 . S
C140 H128 0.959 . S
C140 C138 1.561 . S
C141 C138 1.526 . S
C141 C142 1.396 1_655 S
C141 C146 1.390 . S
C142 C136 1.465 . S
C142 C141 1.396 1_455 S
C142 C143 1.399 . S
C143 H129 0.929 . S
C143 C142 1.399 . S
C143 C144 1.385 . S
C144 H130 0.931 . S
C144 C143 1.385 . S
C144 C145 1.389 . S
C145 C144 1.389 . S
C145 C146 1.387 1_455 S
C146 H131 0.930 . S
C146 C141 1.390 . S
C146 C145 1.387 1_655 S
H147 C159 0.930 . S
H148 C161 0.930 . S
H149 C162 0.930 . S
H150 C166 0.959 . S
H151 C166 0.959 . S
H152 C166 0.961 . S
H153 C167 0.960 . S
H154 C167 0.961 . S
H155 C167 0.959 . S
H156 C170 0.929 . S
H157 C171 0.931 . S
H158 C173 0.930 . S
C159 H147 0.930 . S
C159 C160 1.399 . S
C159 C164 1.399 . S
C160 C159 1.399 . S
C160 C161 1.376 . S
C161 H148 0.930 . S
C161 C160 1.376 . S
C161 C162 1.388 . S
C162 H149 0.930 . S
C162 C161 1.388 . S
C162 C163 1.390 . S
C163 C162 1.390 . S
C163 C164 1.394 . S
C163 C169 1.465 . S
C164 C159 1.399 . S
C164 C163 1.394 . S
C164 C165 1.516 . S
C165 C164 1.516 . S
C165 C166 1.502 . S
C165 C167 1.561 . S
C165 C168 1.526 . S
C166 H150 0.959 . S
C166 H151 0.959 . S
C166 H152 0.961 . S
C166 C165 1.502 . S
C167 H153 0.960 . S
C167 H154 0.961 . S
C167 H155 0.959 . S
C167 C165 1.561 . S
C168 C165 1.526 . S
C168 C169 1.396 . S
C168 C173 1.390 . S
C169 C163 1.465 . S
C169 C168 1.396 . S
C169 C170 1.399 . S
C170 H156 0.929 . S
C170 C169 1.399 . S
C170 C171 1.385 . S
C171 H157 0.931 . S
C171 C170 1.385 . S
C171 C172 1.389 . S
C172 C171 1.389 . S
C172 C173 1.387 . S
C173 H158 0.930 . S
C173 C168 1.390 . S
C173 C172 1.387 . S
H174 C186 0.930 . S
H175 C188 0.930 . S
H176 C189 0.930 . S
H177 C193 0.959 . S
H178 C193 0.959 . S
H179 C193 0.961 . S
H180 C194 0.960 . S
H181 C194 0.961 . S
H182 C194 0.959 . S
H183 C197 0.929 . S
H184 C198 0.931 . S
H185 C200 0.926 1_554 S
C186 H174 0.930 . S
C186 C187 1.399 . S
C186 C191 1.399 . S
C187 C186 1.399 . S
C187 C188 1.376 . S
C188 H175 0.930 . S
C188 C187 1.376 . S
C188 C189 1.388 1_554 S
C189 H176 0.930 . S
C189 C188 1.388 1_556 S
C189 C190 1.390 . S
C190 C189 1.390 . S
C190 C191 1.394 1_556 S
C190 C196 1.465 . S
C191 C186 1.399 . S
C191 C190 1.394 1_554 S
C191 C192 1.516 . S
C192 C191 1.516 . S
C192 C193 1.502 . S
C192 C194 1.561 . S
C192 C195 1.526 1_554 S
C193 H177 0.959 . S
C193 H178 0.959 . S
C193 H179 0.961 . S
C193 C192 1.502 . S
C194 H180 0.960 . S
C194 H181 0.961 . S
C194 H182 0.959 . S
C194 C192 1.561 . S
C195 C192 1.526 1_556 S
C195 C196 1.396 . S
C195 C200 1.389 . S
C196 C190 1.465 . S
C196 C195 1.396 . S
C196 C197 1.399 . S
C197 H183 0.929 . S
C197 C196 1.399 . S
C197 C198 1.385 . S
C198 H184 0.931 . S
C198 C197 1.385 . S
C198 C199 1.389 . S
C199 C198 1.389 . S
C199 C200 1.387 . S
C200 H185 0.926 1_556 S
C200 C195 1.389 . S
C200 C199 1.387 . S
H201 C213 0.930 . S
H202 C215 0.930 . S
H203 C216 0.930 . S
H204 C220 0.959 . S
H205 C220 0.959 . S
H206 C220 0.961 . S
H207 C221 0.960 . S
H208 C221 0.961 . S
H209 C221 0.959 . S
H210 C224 0.929 . S
H211 C225 0.931 . S
H212 C227 0.930 . S
C213 H201 0.930 . S
C213 C214 1.399 . S
C213 C218 1.399 . S
C214 C213 1.399 . S
C214 C215 1.376 . S
C215 H202 0.930 . S
C215 C214 1.376 . S
C215 C216 1.388 . S
C216 H203 0.930 . S
C216 C215 1.388 . S
C216 C217 1.390 . S
C217 C216 1.390 . S
C217 C218 1.394 . S
C217 C223 1.465 . S
C218 C213 1.399 . S
C218 C217 1.394 . S
C218 C219 1.516 . S
C219 C218 1.516 . S
C219 C220 1.502 . S
C219 C221 1.561 . S
C219 C222 1.526 . S
C220 H204 0.959 . S
C220 H205 0.959 . S
C220 H206 0.961 . S
C220 C219 1.502 . S
C221 H207 0.960 . S
C221 H208 0.961 . S
C221 H209 0.959 . S
C221 C219 1.561 . S
C222 C219 1.526 . S
C222 C223 1.396 . S
C222 C227 1.390 . S
C223 C217 1.465 . S
C223 C222 1.396 . S
C223 C224 1.399 . S
C224 H210 0.929 . S
C224 C223 1.399 . S
C224 C225 1.385 . S
C225 H211 0.931 . S
C225 C224 1.385 . S
C225 C226 1.389 . S
C226 C225 1.389 . S
C226 C227 1.387 . S
C227 H212 0.930 . S
C227 C222 1.390 . S
C227 C226 1.387 . S
H228 C240 0.930 . S
H229 C242 0.930 . S
H230 C243 0.930 . S
H231 C247 0.959 . S
H232 C247 0.959 . S
H233 C247 0.961 . S
H234 C248 0.960 . S
H235 C248 0.961 . S
H236 C248 0.959 . S
H237 C251 0.929 . S
H238 C252 0.931 . S
H239 C254 0.930 . S
C240 H228 0.930 . S
C240 C241 1.399 . S
C240 C245 1.399 . S
C241 C240 1.399 . S
C241 C242 1.376 . S
C242 H229 0.930 . S
C242 C241 1.376 . S
C242 C243 1.388 . S
C243 H230 0.930 . S
C243 C242 1.388 . S
C243 C244 1.390 . S
C244 C243 1.390 . S
C244 C245 1.394 . S
C244 C250 1.465 . S
C245 C240 1.399 . S
C245 C244 1.394 . S
C245 C246 1.516 . S
C246 C245 1.516 . S
C246 C247 1.502 . S
C246 C248 1.561 . S
C246 C249 1.526 . S
C247 H231 0.959 . S
C247 H232 0.959 . S
C247 H233 0.961 . S
C247 C246 1.502 . S
C248 H234 0.960 . S
C248 H235 0.961 . S
C248 H236 0.959 . S
C248 C246 1.561 . S
C249 C246 1.526 . S
C249 C250 1.396 . S
C249 C254 1.390 . S
C250 C244 1.465 . S
C250 C249 1.396 . S
C250 C251 1.399 . S
C251 H237 0.929 . S
C251 C250 1.399 . S
C251 C252 1.385 . S
C252 H238 0.931 . S
C252 C251 1.385 . S
C252 C253 1.389 . S
C253 C252 1.389 . S
C253 C254 1.387 . S
C254 H239 0.930 . S
C254 C249 1.390 . S
C254 C253 1.387 . S
H255 C267 0.930 . S
H256 C269 0.930 . S
H257 C270 0.930 . S
H258 C274 0.959 . S
H259 C274 0.959 . S
H260 C274 0.961 . S
H261 C275 0.960 . S
H262 C275 0.961 . S
H263 C275 0.959 . S
H264 C278 0.929 . S
H265 C279 0.931 . S
H266 C281 0.930 . S
C267 H255 0.930 . S
C267 C268 1.399 . S
C267 C272 1.399 . S
C268 C267 1.399 . S
C268 C269 1.376 . S
C269 H256 0.930 . S
C269 C268 1.376 . S
C269 C270 1.388 . S
C270 H257 0.930 . S
C270 C269 1.388 . S
C270 C271 1.390 . S
C271 C270 1.390 . S
C271 C272 1.394 . S
C271 C277 1.465 . S
C272 C267 1.399 . S
C272 C271 1.394 . S
C272 C273 1.516 . S
C273 C272 1.516 . S
C273 C274 1.502 . S
C273 C275 1.561 . S
C273 C276 1.526 . S
C274 H258 0.959 . S
C274 H259 0.959 . S
C274 H260 0.961 . S
C274 C273 1.502 . S
C275 H261 0.960 . S
C275 H262 0.961 . S
C275 H263 0.959 . S
C275 C273 1.561 . S
C276 C273 1.526 . S
C276 C277 1.396 . S
C276 C281 1.390 . S
C277 C271 1.465 . S
C277 C276 1.396 . S
C277 C278 1.399 . S
C278 H264 0.929 . S
C278 C277 1.399 . S
C278 C279 1.385 . S
C279 H265 0.931 . S
C279 C278 1.385 . S
C279 C280 1.389 . S
C280 C279 1.389 . S
C280 C281 1.387 . S
C281 H266 0.930 . S
C281 C276 1.390 . S
C281 C280 1.387 . S
H282 C294 0.930 . S
H283 C296 0.930 1_554 S
H284 C297 0.930 . S
H285 C301 0.959 . S
H286 C301 0.959 . S
H287 C301 0.961 . S
H288 C302 0.960 . S
H289 C302 0.961 . S
H290 C302 0.959 . S
H291 C305 0.929 . S
H292 C306 0.931 . S
H293 C308 0.930 1_556 S
C294 H282 0.930 . S
C294 C295 1.399 . S
C294 C299 1.399 . S
C295 C294 1.399 . S
C295 C296 1.376 . S
C296 H283 0.930 1_556 S
C296 C295 1.376 . S
C296 C297 1.388 1_556 S
C297 H284 0.930 . S
C297 C296 1.388 1_554 S
C297 C298 1.390 . S
C298 C297 1.390 . S
C298 C299 1.394 1_554 S
C298 C304 1.465 1_565 S
C299 C294 1.399 . S
C299 C298 1.394 1_556 S
C299 C300 1.516 1_565 S
C300 C299 1.516 1_545 S
C300 C301 1.502 . S
C300 C302 1.561 . S
C300 C303 1.526 . S
C301 H285 0.959 . S
C301 H286 0.959 . S
C301 H287 0.961 . S
C301 C300 1.502 . S
C302 H288 0.960 . S
C302 H289 0.961 . S
C302 H290 0.959 . S
C302 C300 1.561 . S
C303 C300 1.526 . S
C303 C304 1.396 1_556 S
C303 C308 1.390 1_556 S
C304 C298 1.465 1_545 S
C304 C303 1.396 1_554 S
C304 C305 1.399 . S
C305 H291 0.929 . S
C305 C304 1.399 . S
C305 C306 1.385 . S
C306 H292 0.931 . S
C306 C305 1.385 . S
C306 C307 1.389 . S
C307 C306 1.389 . S
C307 C308 1.387 . S
C308 H293 0.930 1_554 S
C308 C303 1.390 1_554 S
C308 C307 1.387 . S
H309 C321 0.930 . S
H310 C323 0.930 . S
H311 C324 0.930 . S
H312 C328 0.959 . S
H313 C328 0.959 . S
H314 C328 0.961 . S
H315 C329 0.960 . S
H316 C329 0.961 . S
H317 C329 0.959 . S
H318 C332 0.929 . S
H319 C333 0.927 1_655 S
H320 C335 0.930 . S
C321 H309 0.930 . S
C321 C322 1.399 . S
C321 C326 1.399 . S
C322 C321 1.399 . S
C322 C323 1.376 1_455 S
C323 H310 0.930 . S
C323 C322 1.376 1_655 S
C323 C324 1.388 . S
C324 H311 0.930 . S
C324 C323 1.388 . S
C324 C325 1.390 . S
C325 C324 1.390 . S
C325 C326 1.394 1_655 S
C325 C331 1.463 1_565 S
C326 C321 1.399 . S
C326 C325 1.394 1_455 S
C326 C327 1.516 . S
C327 C326 1.516 . S
C327 C328 1.502 . S
C327 C329 1.561 1_455 S
C327 C330 1.526 1_565 S
C328 H312 0.959 . S
C328 H313 0.959 . S
C328 H314 0.961 . S
C328 C327 1.502 . S
C329 H315 0.960 . S
C329 H316 0.961 . S
C329 H317 0.959 . S
C329 C327 1.561 1_655 S
C330 C327 1.526 1_545 S
C330 C331 1.393 1_455 S
C330 C335 1.390 . S
C331 C325 1.463 1_545 S
C331 C330 1.393 1_655 S
C331 C332 1.403 . S
C332 H318 0.929 . S
C332 C331 1.403 . S
C332 C333 1.385 1_655 S
C333 H319 0.927 1_455 S
C333 C332 1.385 1_455 S
C333 C334 1.390 . S
C334 C333 1.390 . S
C334 C335 1.387 . S
C335 H320 0.930 . S
C335 C330 1.390 . S
C335 C334 1.387 . S
H336 C348 0.930 . S
H337 C350 0.930 . S
H338 C351 0.927 1_556 S
H339 C355 0.959 . S
H340 C355 0.959 . S
H341 C355 0.961 . S
H342 C356 0.960 . S
H343 C356 0.961 . S
H344 C356 0.959 . S
H345 C359 0.929 . S
H346 C360 0.931 . S
H347 C362 0.930 . S
C348 H336 0.930 . S
C348 C349 1.399 1_655 S
C348 C353 1.399 1_654 S
C349 C348 1.399 1_455 S
C349 C350 1.376 . S
C350 H337 0.930 . S
C350 C349 1.376 . S
C350 C351 1.398 . S
C351 H338 0.927 1_554 S
C351 C350 1.398 . S
C351 C352 1.383 1_554 S
C352 C351 1.383 1_556 S
C352 C353 1.394 . S
C352 C358 1.465 . S
C353 C348 1.399 1_456 S
C353 C352 1.394 . S
C353 C354 1.516 1_455 S
C354 C353 1.516 1_655 S
C354 C355 1.502 . S
C354 C356 1.561 1_655 S
C354 C357 1.526 1_655 S
C355 H339 0.959 . S
C355 H340 0.959 . S
C355 H341 0.961 . S
C355 C354 1.502 . S
C356 H342 0.960 . S
C356 H343 0.961 . S
C356 H344 0.959 . S
C356 C354 1.561 1_455 S
C357 C354 1.526 1_455 S
C357 C358 1.396 . S
C357 C362 1.390 1_455 S
C358 C352 1.465 . S
C358 C357 1.396 . S
C358 C359 1.399 . S
C359 H345 0.929 . S
C359 C358 1.399 . S
C359 C360 1.385 . S
C360 H346 0.931 . S
C360 C359 1.385 . S
C360 C361 1.389 . S
C361 C360 1.389 . S
C361 C362 1.387 1_455 S
C362 H347 0.930 . S
C362 C357 1.390 1_655 S
C362 C361 1.387 1_655 S
H363 C375 0.930 . S
H364 C377 0.930 . S
H365 C378 0.930 . S
H366 C382 0.959 . S
H367 C382 0.959 . S
H368 C382 0.961 . S
H369 C383 0.960 . S
H370 C383 0.961 . S
H371 C383 0.959 1_655 S
H372 C386 0.929 . S
H373 C387 0.931 . S
H374 C389 0.930 . S
C375 H363 0.930 . S
C375 C376 1.393 1_455 S
C375 C380 1.399 1_556 S
C376 C375 1.393 1_655 S
C376 C377 1.386 . S
C377 H364 0.930 . S
C377 C376 1.386 . S
C377 C378 1.388 1_556 S
C378 H365 0.930 . S
C378 C377 1.388 1_554 S
C378 C379 1.390 . S
C379 C378 1.390 . S
C379 C380 1.394 1_655 S
C379 C385 1.465 . S
C380 C375 1.399 1_554 S
C380 C379 1.394 1_455 S
C380 C381 1.516 . S
C381 C380 1.516 . S
C381 C382 1.502 . S
C381 C383 1.561 . S
C381 C384 1.526 . S
C382 H366 0.959 . S
C382 H367 0.959 . S
C382 H368 0.961 . S
C382 C381 1.502 . S
C383 H369 0.960 . S
C383 H370 0.961 . S
C383 H371 0.959 1_455 S
C383 C381 1.561 . S
C384 C381 1.526 . S
C384 C385 1.396 1_455 S
C384 C389 1.390 . S
C385 C379 1.465 . S
C385 C384 1.396 1_655 S
C385 C386 1.399 . S
C386 H372 0.929 . S
C386 C385 1.399 . S
C386 C387 1.385 . S
C387 H373 0.931 . S
C387 C386 1.385 . S
C387 C388 1.380 1_655 S
C388 C387 1.380 1_455 S
C388 C389 1.395 . S
C389 H374 0.930 . S
C389 C384 1.390 . S
C389 C388 1.395 . S
H390 C402 0.930 . S
H391 C404 0.930 . S
H392 C405 0.930 . S
H393 C409 0.959 . S
H394 C409 0.959 . S
H395 C409 0.961 . S
H396 C410 0.960 . S
H397 C410 0.961 . S
H398 C410 0.959 . S
H399 C413 0.929 . S
H400 C414 0.931 . S
H401 C416 0.930 . S
C402 H390 0.930 . S
C402 C403 1.399 . S
C402 C407 1.399 . S
C403 C402 1.399 . S
C403 C404 1.376 . S
C404 H391 0.930 . S
C404 C403 1.376 . S
C404 C405 1.388 . S
C405 H392 0.930 . S
C405 C404 1.388 . S
C405 C406 1.390 . S
C406 C405 1.390 . S
C406 C407 1.394 . S
C406 C412 1.465 . S
C407 C402 1.399 . S
C407 C406 1.394 . S
C407 C408 1.516 . S
C408 C407 1.516 . S
C408 C409 1.502 . S
C408 C410 1.561 . S
C408 C411 1.526 . S
C409 H393 0.959 . S
C409 H394 0.959 . S
C409 H395 0.961 . S
C409 C408 1.502 . S
C410 H396 0.960 . S
C410 H397 0.961 . S
C410 H398 0.959 . S
C410 C408 1.561 . S
C411 C408 1.526 . S
C411 C412 1.396 . S
C411 C416 1.390 . S
C412 C406 1.465 . S
C412 C411 1.396 . S
C412 C413 1.399 . S
C413 H399 0.929 . S
C413 C412 1.399 . S
C413 C414 1.385 . S
C414 H400 0.931 . S
C414 C413 1.385 . S
C414 C415 1.389 . S
C415 C414 1.389 . S
C415 C416 1.387 . S
C416 H401 0.930 . S
C416 C411 1.390 . S
C416 C415 1.387 . S
H417 C429 0.930 . S
H418 C431 0.930 . S
H419 C432 0.930 . S
H420 C436 0.959 . S
H421 C436 0.959 . S
H422 C436 0.961 . S
H423 C437 0.960 . S
H424 C437 0.961 . S
H425 C437 0.959 . S
H426 C440 0.929 . S
H427 C441 0.931 . S
H428 C443 0.930 . S
C429 H417 0.930 . S
C429 C430 1.399 . S
C429 C434 1.399 . S
C430 C429 1.399 . S
C430 C431 1.376 . S
C431 H418 0.930 . S
C431 C430 1.376 . S
C431 C432 1.388 . S
C432 H419 0.930 . S
C432 C431 1.388 . S
C432 C433 1.390 . S
C433 C432 1.390 . S
C433 C434 1.394 . S
C433 C439 1.465 . S
C434 C429 1.399 . S
C434 C433 1.394 . S
C434 C435 1.516 . S
C435 C434 1.516 . S
C435 C436 1.502 . S
C435 C437 1.561 . S
C435 C438 1.526 . S
C436 H420 0.959 . S
C436 H421 0.959 . S
C436 H422 0.961 . S
C436 C435 1.502 . S
C437 H423 0.960 . S
C437 H424 0.961 . S
C437 H425 0.959 . S
C437 C435 1.561 . S
C438 C435 1.526 . S
C438 C439 1.396 . S
C438 C443 1.390 . S
C439 C433 1.465 . S
C439 C438 1.396 . S
C439 C440 1.399 . S
C440 H426 0.929 . S
C440 C439 1.399 . S
C440 C441 1.385 . S
C441 H427 0.931 . S
C441 C440 1.385 . S
C441 C442 1.389 . S
C442 C441 1.389 . S
C442 C443 1.387 . S
C443 H428 0.930 . S
C443 C438 1.390 . S
C443 C442 1.387 . S
C133 N14 1.831 . S
C145 N36 1.833 1_455 S
C160 C76 1.765 . S
C172 C57 1.805 . S
C187 N104 1.580 . S
C199 N66 1.648 . S
C214 C27 1.715 . S
C226 C106 1.677 . S
C241 C117 1.766 . S
C253 C16 1.803 . S
C268 C87 1.714 . S
C280 C46 1.679 . S
C295 N74 1.839 . S
C307 N96 1.824 . S
C322 N44 1.656 . S
C334 N6 1.564 . S
C349 C10 0.897 . S
C361 C1 0.911 . S
C376 C31 0.913 1_655 S
C388 C40 0.885 . S
C403 C61 0.916 . S
C415 C70 0.891 . S
C430 C91 0.884 . S
C442 C100 0.919 . S
