# Generated by pormake.
# Topology umy, (4)-cn, num edge types: 1
# Building blocks:
#     Node 0, Type 0, BuildingBlock: GALJAG_clean_sbu_0, # of connection points: 4
#     Node 1, Type 0, BuildingBlock: GALJAG_clean_sbu_0, # of connection points: 4
#     Node 2, Type 0, BuildingBlock: GALJAG_clean_sbu_0, # of connection points: 4
#     Node 3, Type 0, BuildingBlock: GALJAG_clean_sbu_0, # of connection points: 4
#     Node 4, Type 0, BuildingBlock: GALJAG_clean_sbu_0, # of connection points: 4
#     Node 5, Type 0, BuildingBlock: GALJAG_clean_sbu_0, # of connection points: 4
#     Node 6, Type 0, BuildingBlock: GALJAG_clean_sbu_0, # of connection points: 4
#     Node 7, Type 0, BuildingBlock: GALJAG_clean_sbu_0, # of connection points: 4
#     Node 8, Type 0, BuildingBlock: GALJAG_clean_sbu_0, # of connection points: 4
#     Node 9, Type 0, BuildingBlock: GALJAG_clean_sbu_0, # of connection points: 4
#     Node 10, Type 0, BuildingBlock: GALJAG_clean_sbu_0, # of connection points: 4
#     Node 11, Type 0, BuildingBlock: GALJAG_clean_sbu_0, # of connection points: 4
#     Edge 12, Type (0, 0), BuildingBlock: ZUJKAS_clean_linker_0, # of connection points: 2
#     Edge 13, Type (0, 0), BuildingBlock: ZUJKAS_clean_linker_0, # of connection points: 2
#     Edge 14, Type (0, 0), BuildingBlock: ZUJKAS_clean_linker_0, # of connection points: 2
#     Edge 15, Type (0, 0), BuildingBlock: ZUJKAS_clean_linker_0, # of connection points: 2
#     Edge 16, Type (0, 0), BuildingBlock: ZUJKAS_clean_linker_0, # of connection points: 2
#     Edge 17, Type (0, 0), BuildingBlock: ZUJKAS_clean_linker_0, # of connection points: 2
#     Edge 18, Type (0, 0), BuildingBlock: ZUJKAS_clean_linker_0, # of connection points: 2
#     Edge 19, Type (0, 0), BuildingBlock: ZUJKAS_clean_linker_0, # of connection points: 2
#     Edge 20, Type (0, 0), BuildingBlock: ZUJKAS_clean_linker_0, # of connection points: 2
#     Edge 21, Type (0, 0), BuildingBlock: ZUJKAS_clean_linker_0, # of connection points: 2
#     Edge 22, Type (0, 0), BuildingBlock: ZUJKAS_clean_linker_0, # of connection points: 2
#     Edge 23, Type (0, 0), BuildingBlock: ZUJKAS_clean_linker_0, # of connection points: 2
#     Edge 24, Type (0, 0), BuildingBlock: ZUJKAS_clean_linker_0, # of connection points: 2
#     Edge 25, Type (0, 0), BuildingBlock: ZUJKAS_clean_linker_0, # of connection points: 2
#     Edge 26, Type (0, 0), BuildingBlock: ZUJKAS_clean_linker_0, # of connection points: 2
#     Edge 27, Type (0, 0), BuildingBlock: ZUJKAS_clean_linker_0, # of connection points: 2
#     Edge 28, Type (0, 0), BuildingBlock: ZUJKAS_clean_linker_0, # of connection points: 2
#     Edge 29, Type (0, 0), BuildingBlock: ZUJKAS_clean_linker_0, # of connection points: 2
#     Edge 30, Type (0, 0), BuildingBlock: ZUJKAS_clean_linker_0, # of connection points: 2
#     Edge 31, Type (0, 0), BuildingBlock: ZUJKAS_clean_linker_0, # of connection points: 2
#     Edge 32, Type (0, 0), BuildingBlock: ZUJKAS_clean_linker_0, # of connection points: 2
#     Edge 33, Type (0, 0), BuildingBlock: ZUJKAS_clean_linker_0, # of connection points: 2
#     Edge 34, Type (0, 0), BuildingBlock: ZUJKAS_clean_linker_0, # of connection points: 2
#     Edge 35, Type (0, 0), BuildingBlock: ZUJKAS_clean_linker_0, # of connection points: 2
# Relax obj value: 0.077
# Max RMSD: 0.075
# Mean RMSD: 0.075
data_MOF--net-umy--node1-GALJAG_clean_sbu_0--edge1-ZUJKAS_clean_linker_0
_symmetry_space_group_name_H-M    P1
_symmetry_Int_Tables_number       1
_symmetry_cell_setting            triclinic
loop_
_symmetry_equiv_pos_as_xyz
'x, y, z'
_cell_length_a     45.633054
_cell_length_b     45.635025
_cell_length_c     78.088757
_cell_angle_alpha  89.990455
_cell_angle_beta   90.025345
_cell_angle_gamma 119.96178
loop_
_atom_site_label
_atom_site_type_symbol
_atom_site_fract_x
_atom_site_fract_y
_atom_site_fract_z
_atom_type_partial_charge
In0 In 0.06028 0.33488 0.14068 0.0
O1 O 0.05226 0.30705 0.11516 0.0
O2 O 0.10163 0.33215 0.12589 0.0
C3 C 0.00159 0.29009 0.15573 0.0
C4 C 0.05839 0.38738 0.12599 0.0
C5 C 0.09937 0.34766 0.16874 0.0
O6 O 0.01804 0.28092 0.14631 0.0
O7 O 0.01428 0.32166 0.1571 0.0
O8 O 0.09031 0.36804 0.16339 0.0
O9 O 0.08918 0.32134 0.15979 0.0
C10 C 0.08283 0.31475 0.11373 0.0
O11 O 0.08524 0.38987 0.13196 0.0
O12 O 0.0325 0.35853 0.12756 0.0
In13 In 0.71178 0.05847 0.30759 0.0
O14 O 0.67035 0.07185 0.30388 0.0
O15 O 0.66875 0.0328 0.28834 0.0
C16 C 0.73947 0.09676 0.33578 0.0
C17 C 0.7552 0.08998 0.28163 0.0
C18 C 0.69762 -0.00143 0.32135 0.0
O19 O 0.70966 0.08746 0.33101 0.0
O20 O 0.75534 0.0872 0.3262 0.0
O21 O 0.72392 0.01632 0.31261 0.0
O22 O 0.67813 0.01058 0.32268 0.0
C23 C 0.6555 0.0505 0.29211 0.0
O24 O 0.7434 0.05894 0.28478 0.0
O25 O 0.74533 0.10496 0.29165 0.0
In26 In 0.65818 0.71643 0.47353 0.0
O27 O 0.60487 0.67149 0.47094 0.0
O28 O 0.64298 0.67327 0.45458 0.0
C29 C 0.64371 0.74107 0.50175 0.0
C30 C 0.66455 0.75664 0.44688 0.0
C31 C 0.71039 0.71107 0.48621 0.0
O32 O 0.63025 0.70979 0.49883 0.0
O33 O 0.66399 0.75976 0.49035 0.0
O34 O 0.71453 0.7375 0.47887 0.0
O35 O 0.68017 0.68725 0.48671 0.0
C36 C 0.61229 0.65768 0.45901 0.0
O37 O 0.68681 0.74883 0.45042 0.0
O38 O 0.6394 0.74433 0.45683 0.0
In39 In 0.93897 0.66263 0.64033 0.0
O40 O 0.92362 0.60779 0.63509 0.0
O41 O 0.96969 0.64584 0.62419 0.0
C42 C 0.89786 0.64919 0.66765 0.0
C43 C 0.91186 0.67639 0.61291 0.0
C44 C 0.99674 0.70922 0.65547 0.0
O45 O 0.90889 0.62999 0.66307 0.0
O46 O 0.90718 0.67491 0.65832 0.0
O47 O 0.97937 0.71719 0.64602 0.0
O48 O 0.9853 0.67784 0.65698 0.0
C49 C 0.94904 0.61467 0.62595 0.0
O50 O 0.94245 0.69482 0.61713 0.0
O51 O 0.89503 0.65141 0.62261 0.0
In52 In 0.28003 0.9401 0.80849 0.0
O53 O 0.25139 0.94189 0.78481 0.0
O54 O 0.24583 0.89453 0.79208 0.0
C55 C 0.29184 -0.00134 0.82291 0.0
C56 C 0.33763 0.94923 0.79402 0.0
C57 C 0.25214 0.90062 0.83626 0.0
O58 O 0.26703 0.98171 0.81308 0.0
O59 O 0.31097 0.98642 0.82512 0.0
O60 O 0.28206 0.91036 0.83153 0.0
O61 O 0.23623 0.91047 0.82687 0.0
C62 C 0.2382 0.91072 0.78164 0.0
O63 O 0.31945 0.92442 0.80359 0.0
O64 O 0.32702 0.96976 0.79192 0.0
In65 In 0.33806 0.28146 0.97466 0.0
O66 O 0.39287 0.32266 0.97081 0.0
O67 O 0.35469 0.32944 0.95901 0.0
C68 C 0.35216 0.25706 0.00311 0.0
C69 C 0.32996 0.24283 0.94697 0.0
C70 C 0.28444 0.28416 0.9873 0.0
O71 O 0.36603 0.2883 -2e-05 0.0
O72 O 0.33164 0.23826 0.9918 0.0
O73 O 0.28152 0.25849 0.97966 0.0
O74 O 0.31429 0.30869 0.98823 0.0
C75 C 0.38588 0.34091 0.96148 0.0
O76 O 0.31049 0.25432 0.95016 0.0
O77 O 0.35323 0.25064 0.95779 0.0
In78 In 0.65644 0.93806 0.68769 0.0
O79 O 0.68836 0.93922 0.71059 0.0
O80 O 0.64205 0.89394 0.7056 0.0
C81 C 0.70589 0.9953 0.67334 0.0
C82 C 0.60869 0.94821 0.70217 0.0
C83 C 0.64169 0.89709 0.66019 0.0
O84 O 0.71184 0.97428 0.68079 0.0
O85 O 0.67533 0.98787 0.67361 0.0
O86 O 0.62852 0.91537 0.66251 0.0
O87 O 0.66184 0.8992 0.6718 0.0
C88 C 0.66789 0.9091 0.71498 0.0
O89 O 0.60171 0.92441 0.69178 0.0
O90 O 0.63985 0.96721 0.70507 0.0
In91 In 0.71609 0.65661 0.85506 0.0
O92 O 0.74715 0.68683 0.87825 0.0
O93 O 0.74801 0.64218 0.87144 0.0
C94 C 0.70618 0.70486 0.8409 0.0
C95 C 0.65807 0.61013 0.86999 0.0
C96 C 0.7421 0.64369 0.8269 0.0
O97 O 0.73192 0.71188 0.84984 0.0
O98 O 0.68521 0.6737 0.83955 0.0
O99 O 0.71174 0.62502 0.83144 0.0
O100 O 0.75933 0.66839 0.8367 0.0
C101 C 0.75806 0.66689 0.88155 0.0
O102 O 0.67442 0.60231 0.85972 0.0
O103 O 0.67079 0.64146 0.87257 0.0
In104 In 0.05849 0.71605 0.02275 0.0
O105 O 0.05223 0.73943 0.04747 0.0
O106 O 0.10198 0.75408 0.0391 0.0
C107 C -5e-05 0.70417 0.00824 0.0
C108 C 0.05501 0.66049 0.03686 0.0
C109 C 0.09724 0.74304 0.99466 0.0
O110 O 0.01833 0.73054 0.01683 0.0
O111 O 0.01062 0.68348 0.00746 0.0
O112 O 0.08541 0.71248 -0.00114 0.0
O113 O 0.08992 0.76 0.00476 0.0
C114 C 0.08361 0.7569 0.05026 0.0
O115 O 0.08075 0.68242 0.02893 0.0
O116 O 0.03073 0.66629 0.03746 0.0
In117 In 0.33049 0.05623 0.18877 0.0
O118 O 0.38582 0.07962 0.19675 0.0
O119 O 0.35405 0.02658 0.19984 0.0
C120 C 0.34356 0.09592 0.16093 0.0
C121 C 0.31354 0.08017 0.21642 0.0
C122 C 0.28256 0.99744 0.17506 0.0
O123 O 0.36499 0.08901 0.16707 0.0
O124 O 0.31584 0.08304 0.16889 0.0
O125 O 0.27562 0.01395 0.18566 0.0
O126 O 0.31359 0.01032 0.17165 0.0
C127 C 0.38313 0.05203 0.20165 0.0
O128 O 0.30884 0.05053 0.2158 0.0
O129 O 0.32632 0.09743 0.20308 0.0
In130 In 0.28222 0.33611 0.35571 0.0
O131 O 0.25116 0.31027 0.37958 0.0
O132 O 0.2525 0.35509 0.37095 0.0
C133 C 0.28959 0.28471 0.34365 0.0
C134 C 0.34221 0.38208 0.36915 0.0
C135 C 0.25474 0.34758 0.32767 0.0
O136 O 0.26467 0.27996 0.35265 0.0
O137 O 0.31115 0.31534 0.3411 0.0
O138 O 0.28403 0.36849 0.33294 0.0
O139 O 0.23928 0.3212 0.33665 0.0
C140 C 0.24168 0.33163 0.38188 0.0
O141 O 0.33016 0.38768 0.35581 0.0
O142 O 0.32425 0.35307 0.37557 0.0
In143 In 0.93856 0.28335 0.52156 0.0
O144 O 0.92483 0.32424 0.52614 0.0
O145 O 0.96753 0.32846 0.53936 0.0
C146 C 0.89833 0.25408 0.49412 0.0
C147 C 0.90902 0.24064 0.54806 0.0
C148 C -0.00257 0.29827 0.50639 0.0
O149 O 0.90642 0.28347 0.49911 0.0
O150 O 0.91006 0.23937 0.50313 0.0
O151 O 0.98187 0.27311 0.51619 0.0
O152 O 0.98373 0.3162 0.50467 0.0
C153 C 0.94859 0.34076 0.53659 0.0
O154 O 0.93945 0.25133 0.54393 0.0
O155 O 0.89373 0.25133 0.53879 0.0
H156 H 0.10693 0.64777 0.04086 0.0
H157 H 0.10589 0.60035 0.05612 0.0
H158 H 5e-05 0.55962 0.0673 0.0
H159 H 0.00086 0.60715 0.05219 0.0
H160 H 0.07969 0.58125 0.09353 0.0
H161 H 0.01401 0.48132 0.04404 0.0
H162 H 0.03816 0.52569 0.0386 0.0
H163 H -0.00228 0.50918 0.04873 0.0
C164 C 0.08338 0.62861 0.04647 0.0
C165 C 0.05395 0.6311 0.04534 0.0
C166 C 0.08287 0.60164 0.05519 0.0
C167 C 0.05288 0.57659 0.06271 0.0
C168 C 0.02335 0.57871 0.06145 0.0
H169 H 0.00272 0.38976 0.11533 0.0
H170 H 0.00116 0.43645 0.10077 0.0
C171 C 0.02389 0.60584 0.05285 0.0
C172 C 0.05278 0.54874 0.07234 0.0
H173 H 0.02747 0.46479 0.0701 0.0
C174 C 0.06831 0.55574 0.08847 0.0
C175 C 0.03765 0.51562 0.06566 0.0
C176 C 0.02101 0.50725 0.04827 0.0
C177 C 0.06893 0.53024 0.09823 0.0
C178 C 0.05441 0.49715 0.0914 0.0
C179 C 0.03864 0.49018 0.07529 0.0
C180 C 0.0555 0.4694 0.10069 0.0
C181 C 0.08448 0.53888 0.11587 0.0
C182 C 0.08658 0.47236 0.10537 0.0
C183 C 0.08751 0.44587 0.11384 0.0
C184 C 0.0574 0.41576 0.11751 0.0
C185 C 0.02633 0.41271 0.11268 0.0
C186 C 0.0254 0.43932 0.10435 0.0
H187 H 0.08499 0.56177 0.1211 0.0
H188 H 0.07042 0.5176 0.12493 0.0
H189 H 0.11097 0.54419 0.11514 0.0
H190 H 0.11015 0.49499 0.10228 0.0
H191 H 0.11183 0.44878 0.11726 0.0
H192 H 0.62194 0.08478 0.29853 0.0
H193 H 0.57424 0.08151 0.28257 0.0
H194 H 0.57436 0.00639 0.24912 0.0
H195 H 0.62224 0.00962 0.26497 0.0
H196 H 0.57285 0.0606 0.23201 0.0
H197 H 0.47479 0.00382 0.28268 0.0
H198 H 0.51324 0.04069 0.28931 0.0
H199 H 0.51388 0.00291 0.2835 0.0
C200 C 0.61163 0.06736 0.28787 0.0
C201 C 0.62572 0.04738 0.28302 0.0
C202 C 0.58432 0.06543 0.27881 0.0
C203 C 0.5706 0.04343 0.26481 0.0
C204 C 0.58455 0.02339 0.25995 0.0
H205 H 0.38253 0.99557 0.21356 0.0
H206 H 0.42856 0.99231 0.22786 0.0
C207 C 0.6118 0.02522 0.26903 0.0
C208 C 0.54252 0.04233 0.25484 0.0
H209 H 0.46096 0.02534 0.25812 0.0
C210 C 0.5483 0.05269 0.23765 0.0
C211 C 0.51048 0.03165 0.26222 0.0
C212 C 0.50249 0.01883 0.2804 0.0
C213 C 0.52304 0.05348 0.22775 0.0
C214 C 0.49141 0.04403 0.23534 0.0
C215 C 0.48536 0.03283 0.25239 0.0
C216 C 0.46429 0.04591 0.22589 0.0
C217 C 0.53033 0.06421 0.20925 0.0
C218 C 0.46919 0.07715 0.22009 0.0
C219 C 0.44298 0.07909 0.2119 0.0
C220 C 0.41138 0.04982 0.20949 0.0
C221 C 0.40663 0.01853 0.21521 0.0
C222 C 0.43285 0.01663 0.22339 0.0
H223 H 0.55193 0.062 0.20424 0.0
H224 H 0.50782 0.04877 0.2011 0.0
H225 H 0.53694 0.09107 0.20812 0.0
H226 H 0.49308 0.10013 0.22219 0.0
H227 H 0.4473 0.10356 0.20772 0.0
H228 H 0.62101 0.62749 0.43084 0.0
H229 H 0.57741 0.57893 0.41499 0.0
H230 H 0.5025 0.56915 0.45175 0.0
H231 H 0.54578 0.61809 0.46745 0.0
H232 H 0.53338 0.51228 0.42424 0.0
H233 H 0.46351 0.57828 0.40635 0.0
H234 H 0.50555 0.60017 0.41534 0.0
H235 H 0.46939 0.57714 0.42902 0.0
C236 C 0.59527 0.61487 0.43559 0.0
C237 C 0.58668 0.62675 0.45028 0.0
C238 C 0.57044 0.58714 0.42654 0.0
C239 C 0.53667 0.5709 0.43203 0.0
C240 C 0.5283 0.58185 0.44709 0.0
H241 H 0.36843 0.37887 0.40004 0.0
H242 H 0.41786 0.42419 0.41449 0.0
C243 C 0.55306 0.60967 0.45609 0.0
C244 C 0.51003 0.54306 0.42178 0.0
H245 H 0.43635 0.51944 0.4004 0.0
C246 C 0.51221 0.51383 0.41894 0.0
C247 C 0.48284 0.54548 0.41463 0.0
C248 C 0.48026 0.57708 0.41632 0.0
C249 C 0.48738 0.48654 0.40947 0.0
C250 C 0.45941 0.48841 0.40297 0.0
C251 C 0.45769 0.51796 0.40551 0.0
C252 C 0.43129 0.45999 0.39367 0.0
C253 C 0.49156 0.45622 0.40634 0.0
C254 C 0.42221 0.46518 0.37725 0.0
C255 C 0.39372 0.43949 0.36906 0.0
C256 C 0.37384 0.40816 0.37717 0.0
C257 C 0.38343 0.4027 0.39343 0.0
C258 C 0.4118 0.4285 0.40167 0.0
H259 H 0.51842 0.46277 0.40757 0.0
H260 H 0.47667 0.43646 0.41599 0.0
H261 H 0.48232 0.44539 0.39341 0.0
H262 H 0.43683 0.48935 0.37089 0.0
H263 H 0.38693 0.4444 0.35653 0.0
H264 H 0.00253 0.62299 0.60656 0.0
H265 H 0.00845 0.57902 0.5916 0.0
H266 H 0.91137 0.50309 0.61104 0.0
H267 H 0.90559 0.5467 0.62628 0.0
H268 H 0.95994 0.4841 0.61332 0.0
H269 H 0.95685 0.53144 0.54812 0.0
H270 H 0.98925 0.56177 0.56197 0.0
H271 H 0.94551 0.54622 0.56705 0.0
C272 C 0.98253 0.59689 0.60768 0.0
C273 C 0.95351 0.58826 0.61749 0.0
C274 C 0.98586 0.57186 0.59906 0.0
C275 C 0.96009 0.5379 0.59999 0.0
C276 C 0.93149 0.52918 0.61011 0.0
H277 H 0.90792 0.36848 0.53449 0.0
H278 H 0.91377 0.41765 0.54999 0.0
C279 C 0.92821 0.55412 0.61878 0.0
C280 C 0.96246 0.51127 0.59032 0.0
H281 H 0.96483 0.48427 0.54985 0.0
C282 C 0.96119 0.48417 0.59945 0.0
C283 C 0.96374 0.51136 0.57222 0.0
C284 C 0.96362 0.53907 0.56171 0.0
C285 C 0.96071 0.45685 0.59095 0.0
C286 C 0.96221 0.45705 0.57285 0.0
C287 C 0.96394 0.48437 0.56373 0.0
C288 C 0.95982 0.42813 0.56308 0.0
C289 C 0.95731 0.42747 0.60139 0.0
C290 C 0.98412 0.41811 0.56509 0.0
C291 C 0.98071 0.38986 0.55633 0.0
C292 C 0.95314 0.37145 0.54529 0.0
C293 C 0.92939 0.38213 0.54294 0.0
C294 C 0.93272 0.41023 0.55176 0.0
H295 H 0.94857 0.4277 0.61464 0.0
H296 H 0.93925 0.403 0.59529 0.0
H297 H 0.9823 0.42898 0.60222 0.0
H298 H 0.0056 0.43202 0.5735 0.0
H299 H -0.00047 0.38233 0.55828 0.0
H300 H 0.61757 -0.00127 0.72402 0.0
H301 H 0.57375 0.00388 0.73958 0.0
H302 H 0.49683 0.91216 0.7158 0.0
H303 H 0.54037 0.90723 0.69996 0.0
H304 H 0.48022 0.96247 0.71642 0.0
H305 H 0.5223 0.94544 0.78058 0.0
H306 H 0.55438 0.97969 0.76827 0.0
H307 H 0.53756 0.93689 0.76097 0.0
C308 C 0.5913 0.97977 0.72206 0.0
C309 C 0.58236 0.95246 0.71087 0.0
C310 C 0.56634 0.98264 0.73102 0.0
C311 C 0.53213 0.95807 0.72907 0.0
C312 C 0.52312 0.9313 0.71755 0.0
H313 H 0.36154 0.90521 0.79436 0.0
H314 H 0.40992 0.9098 0.77858 0.0
C315 C 0.54801 0.9285 0.70852 0.0
C316 C 0.50558 0.95984 0.73913 0.0
H317 H 0.4775 0.95735 0.7799 0.0
C318 C 0.47964 0.96148 0.73031 0.0
C319 C 0.50476 0.95812 0.75723 0.0
C320 C 0.53103 0.95463 0.76736 0.0
C321 C 0.45271 0.96123 0.7391 0.0
C322 C 0.45216 0.96001 0.7572 0.0
C323 C 0.47821 0.95859 0.76603 0.0
C324 C 0.42379 0.95828 0.76721 0.0
C325 C 0.42455 0.96111 0.72889 0.0
C326 C 0.41598 0.98434 0.76629 0.0
C327 C 0.3882 0.98167 0.77522 0.0
C328 C 0.36806 0.95306 0.78534 0.0
C329 C 0.37658 0.92752 0.78664 0.0
C330 C 0.4042 0.93012 0.77765 0.0
H331 H 0.42468 0.95382 0.71533 0.0
H332 H 0.39949 0.94339 0.73455 0.0
H333 H 0.42778 0.98687 0.72901 0.0
H334 H 0.43123 0.00663 0.7586 0.0
H335 H 0.38235 0.00186 0.77408 0.0
H336 H 0.4542 0.3677 0.96315 0.0
H337 H 0.49761 0.41744 0.94809 0.0
H338 H 0.42063 0.43488 0.92647 0.0
H339 H 0.37692 0.38465 0.94126 0.0
H340 H 0.46469 0.43692 0.90241 0.0
H341 H 0.53557 0.5173 0.95761 0.0
H342 H 0.53093 0.47593 0.95878 0.0
H343 H 0.49403 0.48055 0.95978 0.0
C344 C 0.44654 0.38235 0.95535 0.0
C345 C 0.41219 0.37234 0.95339 0.0
C346 C 0.47139 0.41089 0.94684 0.0
C347 C 0.46238 0.43016 0.93638 0.0
C348 C 0.42811 0.42046 0.93457 0.0
H349 H 0.61756 0.62098 0.89171 0.0
H350 H 0.56753 0.57839 0.90709 0.0
C351 C 0.40321 0.39182 0.94303 0.0
C352 C 0.4886 0.45907 0.92648 0.0
H353 H 0.56401 0.53246 0.93047 0.0
C354 C 0.48622 0.45803 0.90855 0.0
C355 C 0.51639 0.48683 0.93451 0.0
C356 C 0.51926 0.49047 0.95374 0.0
C357 C 0.51157 0.48334 0.89839 0.0
C358 C 0.54037 0.50999 0.9064 0.0
C359 C 0.54209 0.51177 0.92435 0.0
C360 C 0.56954 0.53565 0.89643 0.0
C361 C 0.50725 0.48126 0.87919 0.0
C362 C 0.58729 0.52572 0.88541 0.0
C363 C 0.61571 0.54994 0.87656 0.0
C364 C 0.62711 0.58455 0.87873 0.0
C365 C 0.6093 0.59447 0.88976 0.0
C366 C 0.58077 0.5702 0.89855 0.0
H367 H 0.48016 0.46612 0.87551 0.0
H368 H 0.51806 0.50681 0.8734 0.0
H369 H 0.52056 0.46868 0.8737 0.0
H370 H 0.57957 0.49924 0.8839 0.0
H371 H 0.62909 0.54155 0.86825 0.0
H372 H 0.05054 0.28644 0.08351 0.0
H373 H 0.07437 0.27336 0.05836 0.0
H374 H 0.16867 0.30873 0.08527 0.0
H375 H 0.14529 0.32194 0.11028 0.0
H376 H 0.13572 0.32195 0.04011 0.0
H377 H 0.14393 0.21347 0.06643 0.0
H378 H 0.11621 0.22726 0.07525 0.0
H379 H 0.16048 0.24934 0.08053 0.0
C380 C 0.07624 0.2911 0.08408 0.0
C381 C 0.09607 0.30514 0.09884 0.0
C382 C 0.08978 0.28369 0.06973 0.0
C383 C 0.12308 0.28973 0.0701 0.0
C384 C 0.14273 0.30341 0.08487 0.0
H385 H 0.28481 0.33682 0.00391 0.0
H386 H 0.23942 0.33532 0.02112 0.0
C387 C 0.12938 0.31108 0.0991 0.0
C388 C 0.13836 0.28347 0.05487 0.0
H389 H 0.1795 0.24199 0.04234 0.0
C390 C 0.14474 0.30402 0.0404 0.0
C391 C 0.14964 0.25974 0.05523 0.0
C392 C 0.14196 0.23593 0.07013 0.0
C393 C 0.16417 0.303 0.02673 0.0
C394 C 0.17772 0.28114 0.02771 0.0
C395 C 0.16933 0.25897 0.04166 0.0
C396 C 0.20321 0.28303 0.01538 0.0
C397 C 0.17074 0.32592 0.01155 0.0
C398 C 0.19792 0.25411 0.00645 0.0
C399 C 0.22392 0.25487 0.99664 0.0
C400 C 0.25571 0.28447 0.99579 0.0
C401 C 0.26056 0.31368 0.00429 0.0
C402 C 0.23455 0.31294 0.01403 0.0
H403 H 0.15045 0.33245 0.01009 0.0
H404 H 0.19498 0.34982 0.01353 0.0
H405 H 0.17265 0.31402 -0.00048 0.0
H406 H 0.174 0.23072 0.00746 0.0
H407 H 0.21949 0.23194 0.99025 0.0
H408 H 0.78257 0.15608 0.27261 0.0
H409 H 0.82179 0.18568 0.24916 0.0
H410 H 0.82044 0.09365 0.23504 0.0
H411 H 0.78075 0.06363 0.25843 0.0
H412 H 0.88615 0.19249 0.24507 0.0
H413 H 0.8026 0.12767 0.18932 0.0
H414 H 0.78625 0.1256 0.21062 0.0
H415 H 0.80532 0.10064 0.20523 0.0
C416 C 0.79046 0.14207 0.26446 0.0
C417 C 0.77862 0.10755 0.26733 0.0
C418 C 0.81283 0.15901 0.25108 0.0
C419 C 0.82365 0.14174 0.24027 0.0
C420 C 0.81187 0.10725 0.24306 0.0
H421 H 0.97405 0.22149 0.15827 0.0
H422 H 0.92945 0.18337 0.17807 0.0
C423 C 0.78942 0.09022 0.25648 0.0
C424 C 0.84859 0.16054 0.22666 0.0
H425 H 0.85955 0.16829 0.18328 0.0
C426 C 0.88036 0.18718 0.23157 0.0
C427 C 0.84096 0.15332 0.20907 0.0
C428 C 0.80687 0.12543 0.20315 0.0
C429 C 0.90469 0.20706 0.21935 0.0
C430 C 0.89678 0.20046 0.20176 0.0
C431 C 0.86535 0.1733 0.1968 0.0
C432 C 0.92075 0.22231 0.18845 0.0
C433 C 0.93875 0.23495 0.22537 0.0
C434 C 0.92961 0.25642 0.18737 0.0
C435 C 0.95497 0.27817 0.17616 0.0
C436 C 0.97177 0.26609 0.16576 0.0
C437 C 0.96157 0.23149 0.16617 0.0
C438 C 0.93616 0.20971 0.17745 0.0
H439 H 0.94376 0.23127 0.2389 0.0
H440 H 0.95939 0.2364 0.21723 0.0
H441 H 0.93938 0.25953 0.22447 0.0
H442 H 0.91756 0.26643 0.19559 0.0
H443 H 0.96213 0.30465 0.17603 0.0
H444 H 0.71676 0.78759 0.42406 0.0
H445 H 0.72226 0.82596 0.40067 0.0
H446 H 0.62469 0.81332 0.41349 0.0
H447 H 0.61913 0.77536 0.4369 0.0
H448 H 0.67834 0.8154 0.37181 0.0
H449 H 0.6899 0.91656 0.41556 0.0
H450 H 0.69524 0.88191 0.42275 0.0
H451 H 0.65355 0.87579 0.4195 0.0
C452 C 0.69649 0.79298 0.42186 0.0
C453 C 0.66766 0.77876 0.43239 0.0
C454 C 0.69963 0.81478 0.40849 0.0
C455 C 0.67408 0.82276 0.40555 0.0
C456 C 0.64491 0.80787 0.41576 0.0
H457 H 0.64281 0.95688 0.3407 0.0
H458 H 0.63649 0.91135 0.35957 0.0
C459 C 0.64176 0.78615 0.4291 0.0
C460 C 0.67804 0.84723 0.39208 0.0
H461 H 0.68249 0.92336 0.38607 0.0
C462 C 0.67946 0.83912 0.37487 0.0
C463 C 0.67962 0.87815 0.39619 0.0
C464 C 0.67982 0.88887 0.4145 0.0
C465 C 0.68138 0.86079 0.36159 0.0
C466 C 0.68232 0.89141 0.36573 0.0
C467 C 0.68144 0.89968 0.38295 0.0
C468 C 0.6843 0.91556 0.35252 0.0
C469 C 0.68152 0.85043 0.34326 0.0
C470 C 0.71301 0.93255 0.34207 0.0
C471 C 0.71666 0.95856 0.33123 0.0
C472 C 0.69175 0.9681 0.3308 0.0
C473 C 0.66243 0.95011 0.34077 0.0
C474 C 0.65879 0.92412 0.35156 0.0
H475 H 0.67275 0.823 0.34215 0.0
H476 H 0.66516 0.85638 0.33516 0.0
H477 H 0.70767 0.86471 0.33816 0.0
H478 H 0.73325 0.92672 0.34285 0.0
H479 H 0.73959 0.9721 0.32375 0.0
H480 H 0.7764 0.76099 0.48969 0.0
H481 H 0.82014 0.75915 0.50715 0.0
H482 H 0.74991 0.65535 0.52036 0.0
H483 H 0.70646 0.65684 0.50282 0.0
H484 H 0.81517 0.74805 0.54164 0.0
H485 H 0.83447 0.6511 0.50952 0.0
H486 H 0.81381 0.67127 0.49911 0.0
H487 H 0.79051 0.63616 0.51342 0.0
C488 C 0.77057 0.73758 0.49603 0.0
C489 C 0.73804 0.70905 0.49491 0.0
C490 C 0.79554 0.73659 0.506 0.0
C491 C 0.78843 0.70698 0.51485 0.0
C492 C 0.75624 0.67821 0.51331 0.0
H493 H 0.84835 0.63706 0.60026 0.0
H494 H 0.82313 0.64791 0.57517 0.0
C495 C 0.73133 0.67917 0.50338 0.0
C496 C 0.81312 0.7069 0.52714 0.0
H497 H 0.84988 0.66098 0.53949 0.0
C498 C 0.82343 0.72953 0.54099 0.0
C499 C 0.82386 0.68275 0.52624 0.0
C500 C 0.81536 0.65919 0.51116 0.0
C501 C 0.84244 0.72723 0.55451 0.0
C502 C 0.85152 0.70184 0.55404 0.0
C503 C 0.84263 0.68027 0.53982 0.0
C504 C 0.86769 0.69543 0.56885 0.0
C505 C 0.85114 0.75071 0.56964 0.0
C506 C 0.90117 0.71854 0.57347 0.0
C507 C 0.9157 0.71239 0.58781 0.0
C508 C 0.89687 0.68309 0.59772 0.0
C509 C 0.86343 0.65993 0.59293 0.0
C510 C 0.84903 0.666 0.57858 0.0
H511 H 0.83863 0.76623 0.56896 0.0
H512 H 0.84358 0.73602 0.58176 0.0
H513 H 0.87891 0.76803 0.57008 0.0
H514 H 0.916 0.74128 0.566 0.0
H515 H 0.94157 0.73061 0.59118 0.0
H516 H 0.02407 0.77788 0.65577 0.0
H517 H 0.07071 0.81889 0.67369 0.0
H518 H 0.08275 0.73826 0.69494 0.0
H519 H 0.03664 0.69734 0.67697 0.0
H520 H 0.07105 0.81839 0.70897 0.0
H521 H 0.17987 0.80951 0.68408 0.0
H522 H 0.14076 0.79382 0.67232 0.0
H523 H 0.14442 0.76886 0.68914 0.0
C524 C 0.03707 0.76902 0.66406 0.0
C525 C 0.02676 0.73443 0.66498 0.0
C526 C 0.06365 0.79244 0.67428 0.0
C527 C 0.08048 0.78167 0.68545 0.0
C528 C 0.07065 0.74724 0.68611 0.0
H529 H 0.20822 0.84443 0.77252 0.0
H530 H 0.1714 0.81694 0.74796 0.0
C531 C 0.04413 0.72384 0.67591 0.0
C532 C 0.10624 0.8057 0.69756 0.0
H533 H 0.18611 0.83285 0.71237 0.0
C534 C 0.09644 0.82209 0.70954 0.0
C535 C 0.13931 0.81046 0.69823 0.0
C536 C 0.15185 0.79499 0.68514 0.0
C537 C 0.11823 0.84165 0.72279 0.0
C538 C 0.15076 0.84518 0.72389 0.0
C539 C 0.16105 0.82991 0.71151 0.0
C540 C 0.17355 0.86253 0.73849 0.0
C541 C 0.10572 0.85699 0.73599 0.0
C542 C 0.1871 0.89734 0.7412 0.0
C543 C 0.20812 0.91314 0.75528 0.0
C544 C 0.21594 0.89433 0.76679 0.0
C545 C 0.20255 0.85956 0.76391 0.0
C546 C 0.18162 0.84384 0.74987 0.0
H547 H 0.07802 0.8469 0.73501 0.0
H548 H 0.11166 0.85214 0.74912 0.0
H549 H 0.11868 0.88479 0.7341 0.0
H550 H 0.1815 0.91225 0.73241 0.0
H551 H 0.21826 0.94002 0.75714 0.0
H552 H 0.34226 0.03746 0.84528 0.0
H553 H 0.34719 0.08392 0.86294 0.0
H554 H 0.25775 0.07502 0.83917 0.0
H555 H 0.25234 0.02807 0.82157 0.0
H556 H 0.35222 0.14677 0.85439 0.0
H557 H 0.23459 0.06227 0.89061 0.0
H558 H 0.25524 0.04607 0.87703 0.0
H559 H 0.2304 0.06252 0.86773 0.0
C560 C 0.3238 0.04557 0.84369 0.0
C561 C 0.29674 0.02896 0.83217 0.0
C562 C 0.32669 0.07214 0.85376 0.0
C563 C 0.30254 0.0825 0.85253 0.0
C564 C 0.2763 0.06696 0.84051 0.0
H565 H 0.28056 0.22066 0.9225 0.0
H566 H 0.27352 0.18462 0.89774 0.0
C567 C 0.27336 0.04031 0.83042 0.0
C568 C 0.30426 0.10851 0.86443 0.0
H569 H 0.26466 0.11936 0.89889 0.0
C570 C 0.33296 0.14092 0.86403 0.0
C571 C 0.27901 0.10074 0.87695 0.0
C572 C 0.24815 0.06598 0.87828 0.0
C573 C 0.3374 0.16564 0.87606 0.0
C574 C 0.31275 0.15746 0.88895 0.0
C575 C 0.28348 0.12548 0.88897 0.0
C576 C 0.31794 0.18077 0.90328 0.0
C577 C 0.36855 0.2002 0.87495 0.0
C578 C 0.34502 0.19018 0.91464 0.0
C579 C 0.34903 0.21058 0.92876 0.0
C580 C 0.3259 0.22179 0.93183 0.0
C581 C 0.2988 0.21242 0.92042 0.0
C582 C 0.29477 0.19191 0.90629 0.0
H583 H 0.37929 0.2056 0.86181 0.0
H584 H 0.36286 0.22029 0.87874 0.0
H585 H 0.38814 0.20128 0.88377 0.0
H586 H 0.36273 0.18119 0.91276 0.0
H587 H 0.37009 0.21729 0.93736 0.0
H588 H 0.75132 0.77268 0.83845 0.0
H589 H 0.74772 0.81335 0.81928 0.0
H590 H 0.64916 0.73568 0.80242 0.0
H591 H 0.65264 0.69493 0.82137 0.0
H592 H 0.69836 0.76898 0.77599 0.0
H593 H 0.68906 0.86008 0.81996 0.0
H594 H 0.72183 0.85008 0.8243 0.0
H595 H 0.67832 0.81795 0.82663 0.0
C596 C 0.72861 0.76449 0.83091 0.0
C597 C 0.70232 0.73062 0.83133 0.0
C598 C 0.72656 0.78777 0.82003 0.0
C599 C 0.6981 0.77749 0.80953 0.0
C600 C 0.67129 0.74405 0.81047 0.0
H601 H 0.626 0.84551 0.7267 0.0
H602 H 0.63607 0.81632 0.75017 0.0
C603 C 0.67332 0.72083 0.8213 0.0
C604 C 0.69741 0.80035 0.79633 0.0
H605 H 0.69153 0.87135 0.79029 0.0
C606 C 0.69697 0.79143 0.77911 0.0
C607 C 0.69607 0.8298 0.80049 0.0
C608 C 0.69613 0.84012 0.81884 0.0
C609 C 0.69454 0.81081 0.76589 0.0
C610 C 0.69185 0.83953 0.77003 0.0
C611 C 0.69345 0.84919 0.78722 0.0
C612 C 0.68531 0.85841 0.75663 0.0
C613 C 0.69469 0.8003 0.74758 0.0
C614 C 0.70928 0.89211 0.75286 0.0
C615 C 0.70355 0.90898 0.73943 0.0
C616 C 0.6737 0.89233 0.72969 0.0
C617 C 0.64937 0.85891 0.73388 0.0
C618 C 0.65509 0.84217 0.74725 0.0
H619 H 0.70608 0.78381 0.74644 0.0
H620 H 0.66827 0.78585 0.74283 0.0
H621 H 0.70889 0.82271 0.73919 0.0
H622 H 0.73268 0.90506 0.76005 0.0
H623 H 0.72265 0.93478 0.73652 0.0
H624 H 0.78307 0.62629 0.89099 0.0
H625 H 0.82135 0.63451 0.9147 0.0
H626 H 0.82323 0.72694 0.92852 0.0
H627 H 0.78443 0.71866 0.90485 0.0
H628 H 0.88643 0.69027 0.91895 0.0
H629 H 0.8034 0.67535 0.97434 0.0
H630 H 0.78701 0.66141 0.95301 0.0
H631 H 0.80756 0.70555 0.95835 0.0
C632 C 0.79144 0.64827 0.89913 0.0
C633 C 0.78078 0.67185 0.89608 0.0
C634 C 0.81328 0.65291 0.91267 0.0
C635 C 0.82477 0.6811 0.92346 0.0
C636 C 0.81412 0.70469 0.92051 0.0
H637 H 0.97575 0.748 0.00511 0.0
H638 H 0.93168 0.74312 0.98537 0.0
C639 C 0.79218 0.70004 0.90694 0.0
C640 C 0.84929 0.68641 0.93719 0.0
H641 H 0.85974 0.68954 0.98061 0.0
C642 C 0.88061 0.69015 0.93242 0.0
C643 C 0.84164 0.68647 0.95474 0.0
C644 C 0.80801 0.68174 0.96051 0.0
C645 C 0.90444 0.69363 0.94475 0.0
C646 C 0.89649 0.69282 0.9623 0.0
C647 C 0.86555 0.68995 0.96711 0.0
C648 C 0.91991 0.69402 0.9757 0.0
C649 C 0.938 0.69821 0.93891 0.0
C650 C 0.92688 0.66749 0.97716 0.0
C651 C 0.95193 0.67017 0.98837 0.0
C652 C 0.97034 0.69942 -0.00166 0.0
C653 C 0.96201 0.72519 0.99755 0.0
C654 C 0.93689 0.72247 0.9863 0.0
H655 H 0.94327 0.70626 0.92529 0.0
H656 H 0.95899 0.71726 0.94693 0.0
H657 H 0.93766 0.67382 0.94018 0.0
H658 H 0.91366 0.64514 0.96922 0.0
H659 H 0.95764 0.64982 0.98877 0.0
H660 H 0.21381 0.96759 0.17814 0.0
H661 H 0.17085 0.91945 0.16166 0.0
H662 H 0.2496 0.91075 0.1357 0.0
H663 H 0.2924 0.9583 0.15218 0.0
H664 H 0.16472 0.91773 0.12656 0.0
H665 H 0.18362 0.81307 0.14819 0.0
H666 H 0.19965 0.85216 0.16 0.0
H667 H 0.2228 0.84936 0.142 0.0
C668 C 0.22187 0.95498 0.16912 0.0
C669 C 0.25643 0.96665 0.16643 0.0
C670 C 0.19734 0.92755 0.15973 0.0
C671 C 0.20703 0.91122 0.14766 0.0
C672 C 0.24151 0.92243 0.14525 0.0
H673 H 0.14997 0.79411 0.0589 0.0
H674 H 0.17436 0.82891 0.08438 0.0
C675 C 0.26597 0.94979 0.15459 0.0
C676 C 0.1817 0.88461 0.13634 0.0
H677 H 0.15836 0.80656 0.12013 0.0
C678 C 0.16263 0.89308 0.1254 0.0
C679 C 0.17894 0.85243 0.13495 0.0
C680 C 0.1971 0.84108 0.14705 0.0
C681 C 0.14282 0.87116 0.11224 0.0
C682 C 0.14194 0.83998 0.11015 0.0
C683 C 0.15935 0.83065 0.12173 0.0
C684 C 0.12629 0.81846 0.09495 0.0
C685 C 0.12466 0.88231 0.10003 0.0
C686 C 0.09112 0.80105 0.09252 0.0
C687 C 0.07704 0.78108 0.07791 0.0
C688 C 0.09801 0.77833 0.06558 0.0
C689 C 0.13318 0.7958 0.06814 0.0
C690 C 0.14715 0.81559 0.08271 0.0
H691 H 0.13107 0.90891 0.10228 0.0
H692 H 0.13107 0.87984 0.08659 0.0
H693 H 0.09694 0.86577 0.1016 0.0
H694 H 0.07464 0.80276 0.10195 0.0
H695 H 0.04983 0.76775 0.07629 0.0
H696 H 0.29626 0.05228 0.24841 0.0
H697 H 0.28665 0.07749 0.27407 0.0
H698 H 0.30436 0.16464 0.24449 0.0
H699 H 0.31414 0.13986 0.21892 0.0
H700 H 0.33521 0.14372 0.28832 0.0
H701 H 0.213 0.13356 0.27013 0.0
H702 H 0.22839 0.10778 0.26052 0.0
H703 H 0.24451 0.15069 0.25357 0.0
C704 C 0.29776 0.07666 0.24738 0.0
C705 C 0.30588 0.09413 0.23169 0.0
C706 C 0.29234 0.091 0.26201 0.0
C707 C 0.29445 0.12268 0.26107 0.0
C708 C 0.30215 0.13992 0.24538 0.0
H709 H 0.34069 0.28931 0.32373 0.0
H710 H 0.34068 0.24448 0.30668 0.0
C711 C 0.30786 0.1258 0.23082 0.0
C712 C 0.29033 0.1389 0.27653 0.0
H713 H 0.2448 0.1737 0.29207 0.0
C714 C 0.31512 0.14978 0.28936 0.0
C715 C 0.26384 0.14628 0.27791 0.0
C716 C 0.2357 0.13371 0.26489 0.0
C717 C 0.31527 0.16982 0.30303 0.0
C718 C 0.2902 0.17936 0.3037 0.0
C719 C 0.26418 0.16658 0.29146 0.0
C720 C 0.29211 0.20504 0.31591 0.0
C721 C 0.3427 0.18124 0.31639 0.0
C722 C 0.26482 0.19774 0.32677 0.0
C723 C 0.26469 0.22339 0.33649 0.0
C724 C 0.29172 0.25681 0.33533 0.0
C725 C 0.31956 0.26379 0.32493 0.0
C726 C 0.3197 0.23813 0.31526 0.0
H727 H 0.35267 0.16351 0.3173 0.0
H728 H 0.364 0.20645 0.31277 0.0
H729 H 0.33332 0.1834 0.32918 0.0
H730 H 0.24318 0.17239 0.32734 0.0
H731 H 0.24286 0.21731 0.34438 0.0
H732 H 0.21781 0.37438 0.38895 0.0
H733 H 0.17996 0.36992 0.41223 0.0
H734 H 0.17719 0.27919 0.4302 0.0
H735 H 0.21535 0.28364 0.40701 0.0
H736 H 0.11452 0.31476 0.41766 0.0
H737 H 0.1978 0.33706 0.47392 0.0
H738 H 0.214 0.34817 0.45237 0.0
H739 H 0.194 0.30491 0.45931 0.0
C740 C 0.20935 0.35362 0.39793 0.0
C741 C 0.21951 0.32935 0.39618 0.0
C742 C 0.18777 0.35114 0.41122 0.0
C743 C 0.17618 0.3245 0.42304 0.0
C744 C 0.18641 0.30031 0.42139 0.0
H745 H 0.02707 0.259 0.50469 0.0
H746 H 0.07217 0.26604 0.48512 0.0
C747 C 0.20799 0.30275 0.40808 0.0
C748 C 0.15176 0.32103 0.43644 0.0
H749 H 0.14058 0.32066 0.4797 0.0
C750 C 0.12024 0.31618 0.43122 0.0
C751 C 0.15931 0.32265 0.4541 0.0
C752 C 0.1932 0.32875 0.46033 0.0
C753 C 0.09588 0.31269 0.44321 0.0
C754 C 0.10355 0.31477 0.46087 0.0
C755 C 0.13492 0.31924 0.46613 0.0
C756 C 0.07913 0.31249 0.47397 0.0
C757 C 0.0619 0.30626 0.43687 0.0
C758 C 0.06909 0.33692 0.47454 0.0
C759 C 0.04338 0.33295 0.48562 0.0
C760 C 0.02746 0.30457 0.49641 0.0
C761 C 0.03884 0.28107 0.49648 0.0
C762 C 0.06455 0.28504 0.48534 0.0
H763 H 0.0571 0.29702 0.42343 0.0
H764 H 0.04114 0.28741 0.44506 0.0
H765 H 0.06121 0.33021 0.43734 0.0
H766 H 0.08051 0.3586 0.46607 0.0
H767 H 0.03532 0.3516 0.48538 0.0
H768 H 0.84517 0.21774 0.55977 0.0
H769 H 0.81646 0.17809 0.58315 0.0
H770 H 0.90566 0.17043 0.59219 0.0
H771 H 0.93489 0.2107 0.56887 0.0
H772 H 0.80402 0.11189 0.58472 0.0
H773 H 0.88074 0.18749 0.64038 0.0
H774 H 0.8822 0.20633 0.61982 0.0
H775 H 0.90387 0.18298 0.62292 0.0
C776 C 0.8588 0.20783 0.5668 0.0
C777 C 0.89226 0.21729 0.5625 0.0
C778 C 0.84237 0.1852 0.58016 0.0
C779 C 0.85905 0.17163 0.5895 0.0
C780 C 0.89256 0.18112 0.58533 0.0
H781 H 0.77196 0.013 0.66783 0.0
H782 H 0.81205 0.05685 0.64826 0.0
C783 C 0.90912 0.20392 0.57195 0.0
C784 C 0.8404 0.14618 0.60296 0.0
H785 H 0.83654 0.13186 0.64607 0.0
C786 C 0.81121 0.11621 0.59812 0.0
C787 C 0.85002 0.15185 0.62041 0.0
C788 C 0.88077 0.18398 0.6263 0.0
C789 C 0.79099 0.09197 0.6103 0.0
C790 C 0.8 0.09806 0.62778 0.0
C791 C 0.82974 0.12748 0.63263 0.0
C792 C 0.77776 0.07458 0.64114 0.0
C793 C 0.75997 0.06005 0.60439 0.0
C794 C 0.74578 0.07097 0.64396 0.0
C795 C 0.72294 0.04609 0.65506 0.0
C796 C 0.73176 0.02446 0.66356 0.0
C797 C 0.76449 0.02929 0.66141 0.0
C798 C 0.78738 0.05428 0.65027 0.0
H799 H 0.76087 0.05565 0.59045 0.0
H800 H 0.75716 0.03771 0.6115 0.0
H801 H 0.73719 0.06221 0.6069 0.0
H802 H 0.73812 0.08673 0.63714 0.0
H803 H 0.69799 0.0431 0.65653 0.0
H804 H 0.19342 0.30467 0.31348 0.0
H805 H 0.1704 0.31167 0.28651 0.0
H806 H 0.25947 0.40932 0.27932 0.0
H807 H 0.28298 0.40226 0.30622 0.0
H808 H 0.15609 0.36167 0.27584 0.0
H809 H 0.25437 0.3585 0.23505 0.0
H810 H 0.2485 0.34598 0.25727 0.0
H811 H 0.27001 0.39002 0.25163 0.0
C812 C 0.20808 0.32769 0.30619 0.0
C813 C 0.2401 0.35282 0.31189 0.0
C814 C 0.19486 0.33168 0.29081 0.0
C815 C 0.21344 0.36079 0.28082 0.0
C816 C 0.24502 0.38639 0.2867 0.0
H817 H 0.12214 0.40093 0.19104 0.0
H818 H 0.15205 0.40799 0.21819 0.0
C819 C 0.25832 0.38239 0.30209 0.0
C820 C 0.19977 0.36377 0.26411 0.0
H821 H 0.21296 0.36612 0.22098 0.0
C822 C 0.1686 0.36292 0.26383 0.0
C823 C 0.21609 0.36507 0.2485 0.0
C824 C 0.24895 0.36467 0.24801 0.0
C825 C 0.15299 0.36277 0.24831 0.0
C826 C 0.16929 0.36402 0.2327 0.0
C827 C 0.20072 0.36545 0.23299 0.0
C828 C 0.1529 0.36115 0.21594 0.0
C829 C 0.11858 0.3599 0.24874 0.0
C830 C 0.14443 0.33303 0.20549 0.0
C831 C 0.12759 0.32904 0.18999 0.0
C832 C 0.11902 0.3532 0.18463 0.0
C833 C 0.12831 0.38184 0.19489 0.0
C834 C 0.14521 0.38582 0.21042 0.0
H835 H 0.10664 0.35235 0.26158 0.0
H836 H 0.1212 0.38476 0.24546 0.0
H837 H 0.10143 0.34113 0.23918 0.0
H838 H 0.15024 0.31376 0.2095 0.0
H839 H 0.12083 0.30675 0.18235 0.0
H840 H 0.88063 0.19251 0.48046 0.0
H841 H 0.85056 0.16843 0.45362 0.0
H842 H 0.84002 0.25627 0.44574 0.0
H843 H 0.87063 0.28084 0.4725 0.0
H844 H 0.78597 0.15267 0.4429 0.0
H845 H 0.88592 0.25106 0.4016 0.0
H846 H 0.8929 0.24592 0.42387 0.0
H847 H 0.86981 0.26679 0.41802 0.0
C848 C 0.8718 0.20666 0.47306 0.0
C849 C 0.87817 0.23866 0.47851 0.0
C850 C 0.85459 0.19285 0.45774 0.0
C851 C 0.84352 0.2108 0.44759 0.0
C852 C 0.84893 0.24231 0.45324 0.0
H853 H 0.70981 0.11867 0.35903 0.0
H854 H 0.73377 0.14809 0.38614 0.0
C855 C 0.86624 0.25621 0.46856 0.0
C856 C 0.82687 0.19656 0.43095 0.0
H857 H 0.83663 0.2094 0.38776 0.0
C858 C 0.79689 0.16513 0.43083 0.0
C859 C 0.84146 0.21276 0.41525 0.0
C860 C 0.87444 0.24585 0.41458 0.0
C861 C 0.78121 0.14926 0.4154 0.0
C862 C 0.79568 0.16558 0.39971 0.0
C863 C 0.82548 0.19715 0.39983 0.0
C864 C 0.78148 0.1493 0.383 0.0
C865 C 0.75 0.11466 0.416 0.0
C866 C 0.80076 0.14119 0.37206 0.0
C867 C 0.78727 0.12464 0.35656 0.0
C868 C 0.75426 0.116 0.35171 0.0
C869 C 0.73526 0.12489 0.36248 0.0
C870 C 0.74882 0.1415 0.378 0.0
H871 H 0.74642 0.10263 0.42879 0.0
H872 H 0.72742 0.117 0.4132 0.0
H873 H 0.75136 0.09772 0.40622 0.0
H874 H 0.82607 0.14711 0.37567 0.0
H875 H 0.80254 0.11818 0.34851 0.0
H876 H 0.60804 0.89635 0.63109 0.0
H877 H 0.60287 0.86569 0.6045 0.0
H878 H 0.65616 0.82009 0.62783 0.0
H879 H 0.66217 0.85129 0.65426 0.0
H880 H 0.68282 0.84801 0.59748 0.0
H881 H 0.54381 0.76761 0.59081 0.0
H882 H 0.55744 0.81166 0.59341 0.0
H883 H 0.5637 0.78896 0.61053 0.0
C884 C 0.61822 0.8794 0.63061 0.0
C885 C 0.63558 0.87625 0.64471 0.0
C886 C 0.61504 0.86173 0.61545 0.0
C887 C 0.62874 0.84026 0.61425 0.0
C888 C 0.6453 0.83643 0.6285 0.0
H889 H 0.60786 0.7061 0.52997 0.0
H890 H 0.6028 0.72971 0.55728 0.0
C891 C 0.64871 0.85427 0.64358 0.0
C892 C 0.62845 0.82402 0.59776 0.0
H893 H 0.5769 0.77188 0.56621 0.0
C894 C 0.65962 0.8312 0.5907 0.0
C895 C 0.59817 0.80184 0.58902 0.0
C896 C 0.56386 0.79175 0.5964 0.0
C897 C 0.66143 0.81725 0.57503 0.0
C898 C 0.63126 0.79618 0.56594 0.0
C899 C 0.6 0.78841 0.57312 0.0
C900 C 0.63189 0.78184 0.54903 0.0
C901 C 0.69565 0.82483 0.56849 0.0
C902 C 0.64908 0.80331 0.53524 0.0
C903 C 0.6522 0.78995 0.51972 0.0
C904 C 0.63783 0.75484 0.51765 0.0
C905 C 0.61928 0.73327 0.53122 0.0
C906 C 0.61634 0.74669 0.5468 0.0
H907 H 0.71472 0.83344 0.57893 0.0
H908 H 0.69423 0.80224 0.56231 0.0
H909 H 0.70465 0.84534 0.55881 0.0
H910 H 0.66063 0.83048 0.53659 0.0
H911 H 0.66636 0.80718 0.50943 0.0
H912 H 0.87284 0.59451 0.68898 0.0
H913 H 0.84082 0.58573 0.71549 0.0
H914 H 0.84497 0.68141 0.7081 0.0
H915 H 0.87627 0.68999 0.68145 0.0
H916 H 0.86144 0.62424 0.74406 0.0
H917 H 0.74595 0.61993 0.71898 0.0
H918 H 0.77576 0.61617 0.70527 0.0
H919 H 0.78371 0.65717 0.71215 0.0
C920 C 0.86652 0.61345 0.6929 0.0
C921 C 0.87694 0.64288 0.68313 0.0
C922 C 0.84827 0.60841 0.70805 0.0
C923 C 0.84004 0.63265 0.71364 0.0
C924 C 0.85026 0.66196 0.70382 0.0
H925 H 0.8059 0.68207 0.81435 0.0
H926 H 0.82819 0.67523 0.78716 0.0
C927 C 0.86836 0.66694 0.68865 0.0
C928 C 0.82281 0.62851 0.73029 0.0
H929 H 0.75637 0.63055 0.74914 0.0
C930 C 0.83822 0.62518 0.74516 0.0
C931 C 0.79223 0.62918 0.7317 0.0
C932 C 0.77326 0.63044 0.71615 0.0
C933 C 0.82471 0.62402 0.76144 0.0
C934 C 0.79539 0.62696 0.7629 0.0
C935 C 0.7791 0.62873 0.74801 0.0
C936 C 0.78214 0.62991 0.77975 0.0
C937 C 0.84205 0.61978 0.77692 0.0
C938 C 0.74863 0.60706 0.78448 0.0
C939 C 0.73571 0.61107 0.8 0.0
C940 C 0.75607 0.63814 0.81096 0.0
C941 C 0.78967 0.66083 0.80623 0.0
C942 C 0.80252 0.65683 0.79074 0.0
H943 H 0.85688 0.60735 0.77351 0.0
H944 H 0.85986 0.64507 0.7823 0.0
H945 H 0.82348 0.60459 0.78701 0.0
H946 H 0.73241 0.58625 0.77611 0.0
H947 H 0.70968 0.59327 0.80328 0.0
H948 H 0.28079 0.87516 0.85803 0.0
H949 H 0.2567 0.84354 0.88458 0.0
H950 H 0.16645 0.84979 0.87654 0.0
H951 H 0.19003 0.88076 0.84989 0.0
H952 H 0.23824 0.86471 0.91308 0.0
H953 H 0.12751 0.75012 0.88697 0.0
H954 H 0.16187 0.77981 0.87361 0.0
H955 H 0.12897 0.78832 0.88005 0.0
C956 C 0.25566 0.86944 0.86184 0.0
C957 C 0.23722 0.8803 0.85187 0.0
C958 C 0.24196 0.85142 0.877 0.0
C959 C 0.20958 0.84385 0.88239 0.0
C960 C 0.19113 0.85461 0.87241 0.0
H961 H 0.12251 0.80719 0.98258 0.0
H962 H 0.15232 0.83043 0.95562 0.0
C963 C 0.20473 0.87251 0.85724 0.0
C964 C 0.1958 0.82646 0.89893 0.0
H965 H 0.12654 0.75987 0.9171 0.0
C966 C 0.214 0.84156 0.91396 0.0
C967 C 0.16444 0.79599 0.90003 0.0
C968 C 0.14473 0.77741 0.88428 0.0
C969 C 0.20102 0.82776 0.93012 0.0
C970 C 0.16871 0.79847 0.93126 0.0
C971 C 0.15115 0.78256 0.91621 0.0
C972 C 0.15202 0.7847 0.94794 0.0
C973 C 0.22202 0.84473 0.94581 0.0
C974 C 0.14137 0.75106 0.95242 0.0
C975 C 0.12405 0.73761 0.96778 0.0
C976 C 0.11696 0.75756 0.97885 0.0
C977 C 0.12783 0.79128 0.97437 0.0
C978 C 0.14505 0.80467 0.95902 0.0
H979 H 0.24937 0.85975 0.94265 0.0
H980 H 0.21423 0.86231 0.9512 0.0
H981 H 0.21839 0.82591 0.95581 0.0
H982 H 0.14629 0.73517 0.94399 0.0
H983 H 0.11587 0.7115 0.97088 0.0
H984 H 0.40222 0.12943 0.1425 0.0
H985 H 0.41188 0.16292 0.11639 0.0
H986 H 0.30864 0.14182 0.118 0.0
H987 H 0.29907 0.1091 0.1442 0.0
H988 H 0.38111 0.14266 0.08555 0.0
H989 H 0.35947 0.2431 0.11135 0.0
H990 H 0.3656 0.21469 0.12501 0.0
H991 H 0.32467 0.20175 0.11587 0.0
C992 C 0.38171 0.13224 0.13736 0.0
C993 C 0.34995 0.11681 0.14543 0.0
C994 C 0.38726 0.15134 0.12245 0.0
C995 C 0.36117 0.15539 0.11542 0.0
C996 C 0.32941 0.13983 0.12344 0.0
H997 H 0.32217 0.19114 0.01306 0.0
H998 H 0.32924 0.1688 0.0402 0.0
C999 C 0.32391 0.12092 0.13836 0.0
C1000 C 0.36637 0.17429 0.09921 0.0
H1001 H 0.3556 0.23605 0.08074 0.0
C1002 C 0.376 0.1634 0.08454 0.0
C1003 C 0.36034 0.20176 0.09795 0.0
C1004 C 0.35231 0.21625 0.11343 0.0
C1005 C 0.37808 0.17813 0.06848 0.0
C1006 C 0.36959 0.20391 0.06702 0.0
C1007 C 0.36166 0.21596 0.08183 0.0
C1008 C 0.36699 0.21748 0.05019 0.0
C1009 C 0.38917 0.16579 0.05323 0.0
C1010 C 0.38536 0.25238 0.0469 0.0
C1011 C 0.38109 0.26529 0.03144 0.0
C1012 C 0.35824 0.24349 0.01905 0.0
C1013 C 0.34014 0.20855 0.02231 0.0
C1014 C 0.34434 0.1957 0.03777 0.0
H1015 H 0.4051 0.15487 0.05721 0.0
H1016 H 0.36651 0.1456 0.04664 0.0
H1017 H 0.40364 0.18654 0.04396 0.0
H1018 H 0.40278 0.26966 0.05637 0.0
H1019 H 0.3953 0.29234 0.02929 0.0
loop_
_geom_bond_atom_site_label_1
_geom_bond_atom_site_label_2
_geom_bond_distance
_geom_bond_site_symmetry_2
_ccdc_geom_bond_type
In0 O1 2.294 . S
In0 O2 2.326 . S
In0 O6 2.266 . S
In0 O7 2.326 . S
In0 O8 2.266 . S
In0 O9 2.326 . S
In0 O11 2.294 . S
In0 O12 2.326 . S
O1 In0 2.294 . S
O1 C10 1.240 . S
O2 In0 2.326 . S
O2 C10 1.252 . S
C3 O6 1.252 . S
C3 O7 1.260 . S
C4 O11 1.240 . S
C4 O12 1.252 . S
C5 O8 1.252 . S
C5 O9 1.260 . S
O6 In0 2.266 . S
O6 C3 1.252 . S
O7 In0 2.326 . S
O7 C3 1.260 . S
O8 In0 2.266 . S
O8 C5 1.252 . S
O9 In0 2.326 . S
O9 C5 1.260 . S
C10 O1 1.240 . S
C10 O2 1.252 . S
O11 In0 2.294 . S
O11 C4 1.240 . S
O12 In0 2.326 . S
O12 C4 1.252 . S
In13 O14 2.294 . S
In13 O15 2.326 . S
In13 O19 2.266 . S
In13 O20 2.326 . S
In13 O21 2.266 . S
In13 O22 2.326 . S
In13 O24 2.294 . S
In13 O25 2.326 . S
O14 In13 2.294 . S
O14 C23 1.240 . S
O15 In13 2.326 . S
O15 C23 1.252 . S
C16 O19 1.252 . S
C16 O20 1.260 . S
C17 O24 1.240 . S
C17 O25 1.252 . S
C18 O21 1.252 . S
C18 O22 1.260 . S
O19 In13 2.266 . S
O19 C16 1.252 . S
O20 In13 2.326 . S
O20 C16 1.260 . S
O21 In13 2.266 . S
O21 C18 1.252 . S
O22 In13 2.326 . S
O22 C18 1.260 . S
C23 O14 1.240 . S
C23 O15 1.252 . S
O24 In13 2.294 . S
O24 C17 1.240 . S
O25 In13 2.326 . S
O25 C17 1.252 . S
In26 O27 2.294 . S
In26 O28 2.326 . S
In26 O32 2.266 . S
In26 O33 2.326 . S
In26 O34 2.266 . S
In26 O35 2.326 . S
In26 O37 2.294 . S
In26 O38 2.326 . S
O27 In26 2.294 . S
O27 C36 1.240 . S
O28 In26 2.326 . S
O28 C36 1.252 . S
C29 O32 1.252 . S
C29 O33 1.260 . S
C30 O37 1.240 . S
C30 O38 1.252 . S
C31 O34 1.252 . S
C31 O35 1.260 . S
O32 In26 2.266 . S
O32 C29 1.252 . S
O33 In26 2.326 . S
O33 C29 1.260 . S
O34 In26 2.266 . S
O34 C31 1.252 . S
O35 In26 2.326 . S
O35 C31 1.260 . S
C36 O27 1.240 . S
C36 O28 1.252 . S
O37 In26 2.294 . S
O37 C30 1.240 . S
O38 In26 2.326 . S
O38 C30 1.252 . S
In39 O40 2.294 . S
In39 O41 2.326 . S
In39 O45 2.266 . S
In39 O46 2.326 . S
In39 O47 2.266 . S
In39 O48 2.326 . S
In39 O50 2.294 . S
In39 O51 2.326 . S
O40 In39 2.294 . S
O40 C49 1.240 . S
O41 In39 2.326 . S
O41 C49 1.252 . S
C42 O45 1.252 . S
C42 O46 1.260 . S
C43 O50 1.240 . S
C43 O51 1.252 . S
C44 O47 1.252 . S
C44 O48 1.260 . S
O45 In39 2.266 . S
O45 C42 1.252 . S
O46 In39 2.326 . S
O46 C42 1.260 . S
O47 In39 2.266 . S
O47 C44 1.252 . S
O48 In39 2.326 . S
O48 C44 1.260 . S
C49 O40 1.240 . S
C49 O41 1.252 . S
O50 In39 2.294 . S
O50 C43 1.240 . S
O51 In39 2.326 . S
O51 C43 1.252 . S
In52 O53 2.294 . S
In52 O54 2.326 . S
In52 O58 2.266 . S
In52 O59 2.326 . S
In52 O60 2.266 . S
In52 O61 2.326 . S
In52 O63 2.294 . S
In52 O64 2.326 . S
O53 In52 2.294 . S
O53 C62 1.240 . S
O54 In52 2.326 . S
O54 C62 1.252 . S
C55 O58 1.252 . S
C55 O59 1.260 . S
C56 O63 1.240 . S
C56 O64 1.252 . S
C57 O60 1.252 . S
C57 O61 1.260 . S
O58 In52 2.266 . S
O58 C55 1.252 . S
O59 In52 2.326 . S
O59 C55 1.260 . S
O60 In52 2.266 . S
O60 C57 1.252 . S
O61 In52 2.326 . S
O61 C57 1.260 . S
C62 O53 1.240 . S
C62 O54 1.252 . S
O63 In52 2.294 . S
O63 C56 1.240 . S
O64 In52 2.326 . S
O64 C56 1.252 . S
In65 O66 2.294 . S
In65 O67 2.326 . S
In65 O71 2.266 1_556 S
In65 O72 2.326 . S
In65 O73 2.266 . S
In65 O74 2.352 . S
In65 O76 2.294 . S
In65 O77 2.326 . S
O66 In65 2.294 . S
O66 C75 1.240 . S
O67 In65 2.326 . S
O67 C75 1.252 . S
C68 O71 1.252 . S
C68 O72 1.260 1_554 S
C69 O76 1.240 . S
C69 O77 1.252 . S
C70 O73 1.252 . S
C70 O74 1.269 . S
O71 In65 2.266 1_554 S
O71 C68 1.252 . S
O72 In65 2.326 . S
O72 C68 1.260 1_556 S
O73 In65 2.266 . S
O73 C70 1.252 . S
O74 In65 2.352 . S
O74 C70 1.269 . S
C75 O66 1.240 . S
C75 O67 1.252 . S
O76 In65 2.294 . S
O76 C69 1.240 . S
O77 In65 2.326 . S
O77 C69 1.252 . S
In78 O79 2.294 . S
In78 O80 2.326 . S
In78 O84 2.266 . S
In78 O85 2.326 . S
In78 O86 2.266 . S
In78 O87 2.326 . S
In78 O89 2.294 . S
In78 O90 2.326 . S
O79 In78 2.294 . S
O79 C88 1.240 . S
O80 In78 2.326 . S
O80 C88 1.252 . S
C81 O84 1.252 . S
C81 O85 1.260 . S
C82 O89 1.240 . S
C82 O90 1.252 . S
C83 O86 1.252 . S
C83 O87 1.260 . S
O84 In78 2.266 . S
O84 C81 1.252 . S
O85 In78 2.326 . S
O85 C81 1.260 . S
O86 In78 2.266 . S
O86 C83 1.252 . S
O87 In78 2.326 . S
O87 C83 1.260 . S
C88 O79 1.240 . S
C88 O80 1.252 . S
O89 In78 2.294 . S
O89 C82 1.240 . S
O90 In78 2.326 . S
O90 C82 1.252 . S
In91 O92 2.294 . S
In91 O93 2.326 . S
In91 O97 2.266 . S
In91 O98 2.326 . S
In91 O99 2.266 . S
In91 O100 2.326 . S
In91 O102 2.294 . S
In91 O103 2.326 . S
O92 In91 2.294 . S
O92 C101 1.240 . S
O93 In91 2.326 . S
O93 C101 1.252 . S
C94 O97 1.252 . S
C94 O98 1.260 . S
C95 O102 1.240 . S
C95 O103 1.252 . S
C96 O99 1.252 . S
C96 O100 1.260 . S
O97 In91 2.266 . S
O97 C94 1.252 . S
O98 In91 2.326 . S
O98 C94 1.260 . S
O99 In91 2.266 . S
O99 C96 1.252 . S
O100 In91 2.326 . S
O100 C96 1.260 . S
C101 O92 1.240 . S
C101 O93 1.252 . S
O102 In91 2.294 . S
O102 C95 1.240 . S
O103 In91 2.326 . S
O103 C95 1.252 . S
In104 O105 2.294 . S
In104 O106 2.326 . S
In104 O110 2.266 . S
In104 O111 2.352 . S
In104 O112 2.266 1_554 S
In104 O113 2.326 . S
In104 O115 2.294 . S
In104 O116 2.326 . S
O105 In104 2.294 . S
O105 C114 1.240 . S
O106 In104 2.326 . S
O106 C114 1.252 . S
C107 O110 1.252 . S
C107 O111 1.269 . S
C108 O115 1.240 . S
C108 O116 1.252 . S
C109 O112 1.252 . S
C109 O113 1.260 1_556 S
O110 In104 2.266 . S
O110 C107 1.252 . S
O111 In104 2.352 . S
O111 C107 1.269 . S
O112 In104 2.266 1_556 S
O112 C109 1.252 . S
O113 In104 2.326 . S
O113 C109 1.260 1_554 S
C114 O105 1.240 . S
C114 O106 1.252 . S
O115 In104 2.294 . S
O115 C108 1.240 . S
O116 In104 2.326 . S
O116 C108 1.252 . S
In117 O118 2.294 . S
In117 O119 2.326 . S
In117 O123 2.266 . S
In117 O124 2.326 . S
In117 O125 2.266 . S
In117 O126 2.326 . S
In117 O128 2.294 . S
In117 O129 2.326 . S
O118 In117 2.294 . S
O118 C127 1.240 . S
O119 In117 2.326 . S
O119 C127 1.252 . S
C120 O123 1.252 . S
C120 O124 1.260 . S
C121 O128 1.240 . S
C121 O129 1.252 . S
C122 O125 1.252 . S
C122 O126 1.260 . S
O123 In117 2.266 . S
O123 C120 1.252 . S
O124 In117 2.326 . S
O124 C120 1.260 . S
O125 In117 2.266 . S
O125 C122 1.252 . S
O126 In117 2.326 . S
O126 C122 1.260 . S
C127 O118 1.240 . S
C127 O119 1.252 . S
O128 In117 2.294 . S
O128 C121 1.240 . S
O129 In117 2.326 . S
O129 C121 1.252 . S
In130 O131 2.294 . S
In130 O132 2.326 . S
In130 O136 2.266 . S
In130 O137 2.326 . S
In130 O138 2.266 . S
In130 O139 2.326 . S
In130 O141 2.294 . S
In130 O142 2.326 . S
O131 In130 2.294 . S
O131 C140 1.240 . S
O132 In130 2.326 . S
O132 C140 1.252 . S
C133 O136 1.252 . S
C133 O137 1.260 . S
C134 O141 1.240 . S
C134 O142 1.252 . S
C135 O138 1.252 . S
C135 O139 1.260 . S
O136 In130 2.266 . S
O136 C133 1.252 . S
O137 In130 2.326 . S
O137 C133 1.260 . S
O138 In130 2.266 . S
O138 C135 1.252 . S
O139 In130 2.326 . S
O139 C135 1.260 . S
C140 O131 1.240 . S
C140 O132 1.252 . S
O141 In130 2.294 . S
O141 C134 1.240 . S
O142 In130 2.326 . S
O142 C134 1.252 . S
In143 O144 2.294 . S
In143 O145 2.326 . S
In143 O149 2.266 . S
In143 O150 2.326 . S
In143 O151 2.266 . S
In143 O152 2.326 . S
In143 O154 2.294 . S
In143 O155 2.326 . S
O144 In143 2.294 . S
O144 C153 1.240 . S
O145 In143 2.326 . S
O145 C153 1.252 . S
C146 O149 1.252 . S
C146 O150 1.260 . S
C147 O154 1.240 . S
C147 O155 1.252 . S
C148 O151 1.252 . S
C148 O152 1.260 . S
O149 In143 2.266 . S
O149 C146 1.252 . S
O150 In143 2.326 . S
O150 C146 1.260 . S
O151 In143 2.266 . S
O151 C148 1.252 . S
O152 In143 2.326 . S
O152 C148 1.260 . S
C153 O144 1.240 . S
C153 O145 1.252 . S
O154 In143 2.294 . S
O154 C147 1.240 . S
O155 In143 2.326 . S
O155 C147 1.252 . S
H156 C164 0.929 . S
H157 C166 0.930 . S
H158 C168 0.930 . S
H159 C171 0.929 . S
H160 C174 0.930 . S
H161 C176 0.960 1_655 S
H162 C176 0.960 . S
H163 C176 0.960 1_655 S
C164 H156 0.929 . S
C164 C165 1.377 . S
C164 C166 1.384 . S
C165 C164 1.377 . S
C165 C171 1.390 . S
C166 H157 0.930 . S
C166 C164 1.384 . S
C166 C167 1.372 . S
C167 C166 1.372 . S
C167 C168 1.400 . S
C167 C172 1.490 . S
C168 H158 0.930 . S
C168 C167 1.400 . S
C168 C171 1.386 . S
H169 C185 0.930 . S
H170 C186 0.931 . S
C171 H159 0.929 . S
C171 C165 1.390 . S
C171 C168 1.386 . S
C172 C167 1.490 . S
C172 C174 1.395 . S
C172 C175 1.403 . S
H173 C179 0.930 . S
C174 H160 0.930 . S
C174 C172 1.395 . S
C174 C177 1.403 . S
C175 C172 1.403 . S
C175 C176 1.524 . S
C175 C179 1.400 . S
C176 H161 0.960 1_455 S
C176 H162 0.960 . S
C176 H163 0.960 1_455 S
C176 C175 1.524 . S
C177 C174 1.403 . S
C177 C178 1.392 . S
C177 C181 1.495 . S
C178 C177 1.392 . S
C178 C179 1.385 . S
C178 C180 1.478 . S
C179 H173 0.930 . S
C179 C175 1.400 . S
C179 C178 1.385 . S
C180 C178 1.478 . S
C180 C182 1.381 . S
C180 C186 1.383 . S
C181 C177 1.495 . S
C181 H187 0.959 . S
C181 H188 0.961 . S
C181 H189 0.960 . S
C182 C180 1.381 . S
C182 C183 1.394 . S
C182 H190 0.930 . S
C183 C182 1.394 . S
C183 C184 1.383 . S
C183 H191 0.929 . S
C184 C183 1.383 . S
C184 C185 1.377 . S
C185 H169 0.930 . S
C185 C184 1.377 . S
C185 C186 1.379 . S
C186 H170 0.931 . S
C186 C180 1.383 . S
C186 C185 1.379 . S
H187 C181 0.959 . S
H188 C181 0.961 . S
H189 C181 0.960 . S
H190 C182 0.930 . S
H191 C183 0.929 . S
H192 C200 0.929 . S
H193 C202 0.930 . S
H194 C204 0.930 . S
H195 C207 0.929 . S
H196 C210 0.930 . S
H197 C212 0.960 1_565 S
H198 C212 0.960 . S
H199 C212 0.960 1_565 S
C200 H192 0.929 . S
C200 C201 1.377 . S
C200 C202 1.384 . S
C201 C200 1.377 . S
C201 C207 1.390 . S
C202 H193 0.930 . S
C202 C200 1.384 . S
C202 C203 1.372 . S
C203 C202 1.372 . S
C203 C204 1.400 . S
C203 C208 1.490 . S
C204 H194 0.930 . S
C204 C203 1.400 . S
C204 C207 1.386 . S
H205 C221 0.930 . S
H206 C222 0.931 . S
C207 H195 0.929 . S
C207 C201 1.390 . S
C207 C204 1.386 . S
C208 C203 1.490 . S
C208 C210 1.395 . S
C208 C211 1.403 . S
H209 C215 0.930 . S
C210 H196 0.930 . S
C210 C208 1.395 . S
C210 C213 1.403 . S
C211 C208 1.403 . S
C211 C212 1.524 . S
C211 C215 1.400 . S
C212 H197 0.960 1_545 S
C212 H198 0.960 . S
C212 H199 0.960 1_545 S
C212 C211 1.524 . S
C213 C210 1.403 . S
C213 C214 1.392 . S
C213 C217 1.495 . S
C214 C213 1.392 . S
C214 C215 1.385 . S
C214 C216 1.478 . S
C215 H209 0.930 . S
C215 C211 1.400 . S
C215 C214 1.385 . S
C216 C214 1.478 . S
C216 C218 1.381 . S
C216 C222 1.383 . S
C217 C213 1.495 . S
C217 H223 0.959 . S
C217 H224 0.961 . S
C217 H225 0.960 . S
C218 C216 1.381 . S
C218 C219 1.394 . S
C218 H226 0.930 . S
C219 C218 1.394 . S
C219 C220 1.383 . S
C219 H227 0.929 . S
C220 C219 1.383 . S
C220 C221 1.377 . S
C221 H205 0.930 . S
C221 C220 1.377 . S
C221 C222 1.379 . S
C222 H206 0.931 . S
C222 C216 1.383 . S
C222 C221 1.379 . S
H223 C217 0.959 . S
H224 C217 0.961 . S
H225 C217 0.960 . S
H226 C218 0.930 . S
H227 C219 0.929 . S
H228 C236 0.929 . S
H229 C238 0.930 . S
H230 C240 0.930 . S
H231 C243 0.929 . S
H232 C246 0.930 . S
H233 C248 0.960 . S
H234 C248 0.960 . S
H235 C248 0.960 . S
C236 H228 0.929 . S
C236 C237 1.377 . S
C236 C238 1.384 . S
C237 C236 1.377 . S
C237 C243 1.390 . S
C238 H229 0.930 . S
C238 C236 1.384 . S
C238 C239 1.372 . S
C239 C238 1.372 . S
C239 C240 1.400 . S
C239 C244 1.490 . S
C240 H230 0.930 . S
C240 C239 1.400 . S
C240 C243 1.386 . S
H241 C257 0.930 . S
H242 C258 0.931 . S
C243 H231 0.929 . S
C243 C237 1.390 . S
C243 C240 1.386 . S
C244 C239 1.490 . S
C244 C246 1.395 . S
C244 C247 1.403 . S
H245 C251 0.930 . S
C246 H232 0.930 . S
C246 C244 1.395 . S
C246 C249 1.403 . S
C247 C244 1.403 . S
C247 C248 1.524 . S
C247 C251 1.400 . S
C248 H233 0.960 . S
C248 H234 0.960 . S
C248 H235 0.960 . S
C248 C247 1.524 . S
C249 C246 1.403 . S
C249 C250 1.392 . S
C249 C253 1.495 . S
C250 C249 1.392 . S
C250 C251 1.385 . S
C250 C252 1.478 . S
C251 H245 0.930 . S
C251 C247 1.400 . S
C251 C250 1.385 . S
C252 C250 1.478 . S
C252 C254 1.381 . S
C252 C258 1.383 . S
C253 C249 1.495 . S
C253 H259 0.959 . S
C253 H260 0.961 . S
C253 H261 0.960 . S
C254 C252 1.381 . S
C254 C255 1.394 . S
C254 H262 0.930 . S
C255 C254 1.394 . S
C255 C256 1.383 . S
C255 H263 0.929 . S
C256 C255 1.383 . S
C256 C257 1.377 . S
C257 H241 0.930 . S
C257 C256 1.377 . S
C257 C258 1.379 . S
C258 H242 0.931 . S
C258 C252 1.383 . S
C258 C257 1.379 . S
H259 C253 0.959 . S
H260 C253 0.961 . S
H261 C253 0.960 . S
H262 C254 0.930 . S
H263 C255 0.929 . S
H264 C272 0.929 . S
H265 C274 0.930 . S
H266 C276 0.930 . S
H267 C279 0.929 . S
H268 C282 0.930 . S
H269 C284 0.960 . S
H270 C284 0.960 . S
H271 C284 0.960 . S
C272 H264 0.929 . S
C272 C273 1.377 . S
C272 C274 1.384 . S
C273 C272 1.377 . S
C273 C279 1.390 . S
C274 H265 0.930 . S
C274 C272 1.384 . S
C274 C275 1.372 . S
C275 C274 1.372 . S
C275 C276 1.400 . S
C275 C280 1.490 . S
C276 H266 0.930 . S
C276 C275 1.400 . S
C276 C279 1.386 . S
H277 C293 0.930 . S
H278 C294 0.931 . S
C279 H267 0.929 . S
C279 C273 1.390 . S
C279 C276 1.386 . S
C280 C275 1.490 . S
C280 C282 1.395 . S
C280 C283 1.403 . S
H281 C287 0.930 . S
C282 H268 0.930 . S
C282 C280 1.395 . S
C282 C285 1.403 . S
C283 C280 1.403 . S
C283 C284 1.524 . S
C283 C287 1.400 . S
C284 H269 0.960 . S
C284 H270 0.960 . S
C284 H271 0.960 . S
C284 C283 1.524 . S
C285 C282 1.403 . S
C285 C286 1.392 . S
C285 C289 1.495 . S
C286 C285 1.392 . S
C286 C287 1.385 . S
C286 C288 1.478 . S
C287 H281 0.930 . S
C287 C283 1.400 . S
C287 C286 1.385 . S
C288 C286 1.478 . S
C288 C290 1.381 . S
C288 C294 1.383 . S
C289 C285 1.495 . S
C289 H295 0.959 1_655 S
C289 H296 0.961 . S
C289 H297 0.960 1_655 S
C290 C288 1.381 . S
C290 C291 1.394 . S
C290 H298 0.930 . S
C291 C290 1.394 . S
C291 C292 1.383 . S
C291 H299 0.929 . S
C292 C291 1.383 . S
C292 C293 1.377 . S
C293 H277 0.930 . S
C293 C292 1.377 . S
C293 C294 1.379 . S
C294 H278 0.931 . S
C294 C288 1.383 . S
C294 C293 1.379 . S
H295 C289 0.959 1_455 S
H296 C289 0.961 . S
H297 C289 0.960 1_455 S
H298 C290 0.930 . S
H299 C291 0.929 . S
H300 C308 0.929 . S
H301 C310 0.930 . S
H302 C312 0.930 . S
H303 C315 0.929 . S
H304 C318 0.930 . S
H305 C320 0.960 . S
H306 C320 0.960 . S
H307 C320 0.960 . S
C308 H300 0.929 . S
C308 C309 1.377 . S
C308 C310 1.384 . S
C309 C308 1.377 . S
C309 C315 1.390 . S
C310 H301 0.930 . S
C310 C308 1.384 . S
C310 C311 1.372 . S
C311 C310 1.372 . S
C311 C312 1.400 . S
C311 C316 1.490 . S
C312 H302 0.930 . S
C312 C311 1.400 . S
C312 C315 1.386 . S
H313 C329 0.930 . S
H314 C330 0.931 . S
C315 H303 0.929 . S
C315 C309 1.390 . S
C315 C312 1.386 . S
C316 C311 1.490 . S
C316 C318 1.395 . S
C316 C319 1.403 . S
H317 C323 0.930 . S
C318 H304 0.930 . S
C318 C316 1.395 . S
C318 C321 1.403 . S
C319 C316 1.403 . S
C319 C320 1.524 . S
C319 C323 1.400 . S
C320 H305 0.960 . S
C320 H306 0.960 . S
C320 H307 0.960 . S
C320 C319 1.524 . S
C321 C318 1.403 . S
C321 C322 1.392 . S
C321 C325 1.495 1_565 S
C322 C321 1.392 . S
C322 C323 1.385 . S
C322 C324 1.478 . S
C323 H317 0.930 . S
C323 C319 1.400 . S
C323 C322 1.385 . S
C324 C322 1.478 . S
C324 C326 1.381 . S
C324 C330 1.383 . S
C325 C321 1.495 1_545 S
C325 H331 0.959 . S
C325 H332 0.961 1_545 S
C325 H333 0.960 . S
C326 C324 1.381 . S
C326 C327 1.394 . S
C326 H334 0.930 . S
C327 C326 1.394 . S
C327 C328 1.383 . S
C327 H335 0.929 . S
C328 C327 1.383 . S
C328 C329 1.377 . S
C329 H313 0.930 . S
C329 C328 1.377 . S
C329 C330 1.379 . S
C330 H314 0.931 . S
C330 C324 1.383 . S
C330 C329 1.379 . S
H331 C325 0.959 . S
H332 C325 0.961 1_565 S
H333 C325 0.960 . S
H334 C326 0.930 . S
H335 C327 0.929 . S
H336 C344 0.929 . S
H337 C346 0.930 . S
H338 C348 0.930 . S
H339 C351 0.929 . S
H340 C354 0.930 . S
H341 C356 0.960 . S
H342 C356 0.960 . S
H343 C356 0.960 . S
C344 H336 0.929 . S
C344 C345 1.377 . S
C344 C346 1.384 . S
C345 C344 1.377 . S
C345 C351 1.390 . S
C346 H337 0.930 . S
C346 C344 1.384 . S
C346 C347 1.372 . S
C347 C346 1.372 . S
C347 C348 1.400 . S
C347 C352 1.490 . S
C348 H338 0.930 . S
C348 C347 1.400 . S
C348 C351 1.386 . S
H349 C365 0.930 . S
H350 C366 0.931 . S
C351 H339 0.929 . S
C351 C345 1.390 . S
C351 C348 1.386 . S
C352 C347 1.490 . S
C352 C354 1.395 . S
C352 C355 1.403 . S
H353 C359 0.930 . S
C354 H340 0.930 . S
C354 C352 1.395 . S
C354 C357 1.403 . S
C355 C352 1.403 . S
C355 C356 1.524 . S
C355 C359 1.400 . S
C356 H341 0.960 . S
C356 H342 0.960 . S
C356 H343 0.960 . S
C356 C355 1.524 . S
C357 C354 1.403 . S
C357 C358 1.392 . S
C357 C361 1.495 . S
C358 C357 1.392 . S
C358 C359 1.385 . S
C358 C360 1.478 . S
C359 H353 0.930 . S
C359 C355 1.400 . S
C359 C358 1.385 . S
C360 C358 1.478 . S
C360 C362 1.381 . S
C360 C366 1.383 . S
C361 C357 1.495 . S
C361 H367 0.959 . S
C361 H368 0.961 . S
C361 H369 0.960 . S
C362 C360 1.381 . S
C362 C363 1.394 . S
C362 H370 0.930 . S
C363 C362 1.394 . S
C363 C364 1.383 . S
C363 H371 0.929 . S
C364 C363 1.383 . S
C364 C365 1.377 . S
C365 H349 0.930 . S
C365 C364 1.377 . S
C365 C366 1.379 . S
C366 H350 0.931 . S
C366 C360 1.383 . S
C366 C365 1.379 . S
H367 C361 0.959 . S
H368 C361 0.961 . S
H369 C361 0.960 . S
H370 C362 0.930 . S
H371 C363 0.929 . S
H372 C380 0.929 . S
H373 C382 0.930 . S
H374 C384 0.930 . S
H375 C387 0.929 . S
H376 C390 0.930 . S
H377 C392 0.960 . S
H378 C392 0.960 . S
H379 C392 0.960 . S
C380 H372 0.929 . S
C380 C381 1.377 . S
C380 C382 1.384 . S
C381 C380 1.377 . S
C381 C387 1.390 . S
C382 H373 0.930 . S
C382 C380 1.384 . S
C382 C383 1.372 . S
C383 C382 1.372 . S
C383 C384 1.400 . S
C383 C388 1.490 . S
C384 H374 0.930 . S
C384 C383 1.400 . S
C384 C387 1.386 . S
H385 C401 0.930 . S
H386 C402 0.931 . S
C387 H375 0.929 . S
C387 C381 1.390 . S
C387 C384 1.386 . S
C388 C383 1.490 . S
C388 C390 1.395 . S
C388 C391 1.403 . S
H389 C395 0.930 . S
C390 H376 0.930 . S
C390 C388 1.395 . S
C390 C393 1.403 . S
C391 C388 1.403 . S
C391 C392 1.524 . S
C391 C395 1.400 . S
C392 H377 0.960 . S
C392 H378 0.960 . S
C392 H379 0.960 . S
C392 C391 1.524 . S
C393 C390 1.403 . S
C393 C394 1.392 . S
C393 C397 1.495 . S
C394 C393 1.392 . S
C394 C395 1.385 . S
C394 C396 1.478 . S
C395 H389 0.930 . S
C395 C391 1.400 . S
C395 C394 1.385 . S
C396 C394 1.478 . S
C396 C398 1.381 . S
C396 C402 1.383 . S
C397 C393 1.495 . S
C397 H403 0.959 . S
C397 H404 0.961 . S
C397 H405 0.960 . S
C398 C396 1.381 . S
C398 C399 1.394 . S
C398 H406 0.930 . S
C399 C398 1.394 . S
C399 C400 1.383 . S
C399 H407 0.929 1_554 S
C400 C399 1.383 . S
C400 C401 1.377 . S
C401 H385 0.930 . S
C401 C400 1.377 . S
C401 C402 1.379 . S
C402 H386 0.931 . S
C402 C396 1.383 . S
C402 C401 1.379 . S
H403 C397 0.959 . S
H404 C397 0.961 . S
H405 C397 0.960 . S
H406 C398 0.930 . S
H407 C399 0.929 1_556 S
H408 C416 0.929 . S
H409 C418 0.930 . S
H410 C420 0.930 . S
H411 C423 0.929 . S
H412 C426 0.930 . S
H413 C428 0.960 . S
H414 C428 0.960 . S
H415 C428 0.960 . S
C416 H408 0.929 . S
C416 C417 1.377 . S
C416 C418 1.384 . S
C417 C416 1.377 . S
C417 C423 1.390 . S
C418 H409 0.930 . S
C418 C416 1.384 . S
C418 C419 1.372 . S
C419 C418 1.372 . S
C419 C420 1.400 . S
C419 C424 1.490 . S
C420 H410 0.930 . S
C420 C419 1.400 . S
C420 C423 1.386 . S
H421 C437 0.930 1_455 S
H422 C438 0.931 . S
C423 H411 0.929 . S
C423 C417 1.390 . S
C423 C420 1.386 . S
C424 C419 1.490 . S
C424 C426 1.395 . S
C424 C427 1.403 . S
H425 C431 0.930 . S
C426 H412 0.930 . S
C426 C424 1.395 . S
C426 C429 1.403 . S
C427 C424 1.403 . S
C427 C428 1.524 . S
C427 C431 1.400 . S
C428 H413 0.960 . S
C428 H414 0.960 . S
C428 H415 0.960 . S
C428 C427 1.524 . S
C429 C426 1.403 . S
C429 C430 1.392 . S
C429 C433 1.495 . S
C430 C429 1.392 . S
C430 C431 1.385 . S
C430 C432 1.478 . S
C431 H425 0.930 . S
C431 C427 1.400 . S
C431 C430 1.385 . S
C432 C430 1.478 . S
C432 C434 1.381 . S
C432 C438 1.383 . S
C433 C429 1.495 . S
C433 H439 0.959 . S
C433 H440 0.961 . S
C433 H441 0.960 . S
C434 C432 1.381 . S
C434 C435 1.394 . S
C434 H442 0.930 . S
C435 C434 1.394 . S
C435 C436 1.383 . S
C435 H443 0.929 . S
C436 C435 1.383 . S
C436 C437 1.377 . S
C437 H421 0.930 1_655 S
C437 C436 1.377 . S
C437 C438 1.379 . S
C438 H422 0.931 . S
C438 C432 1.383 . S
C438 C437 1.379 . S
H439 C433 0.959 . S
H440 C433 0.961 . S
H441 C433 0.960 . S
H442 C434 0.930 . S
H443 C435 0.929 . S
H444 C452 0.929 . S
H445 C454 0.930 . S
H446 C456 0.930 . S
H447 C459 0.929 . S
H448 C462 0.930 . S
H449 C464 0.960 . S
H450 C464 0.960 . S
H451 C464 0.960 . S
C452 H444 0.929 . S
C452 C453 1.377 . S
C452 C454 1.384 . S
C453 C452 1.377 . S
C453 C459 1.390 . S
C454 H445 0.930 . S
C454 C452 1.384 . S
C454 C455 1.372 . S
C455 C454 1.372 . S
C455 C456 1.400 . S
C455 C460 1.490 . S
C456 H446 0.930 . S
C456 C455 1.400 . S
C456 C459 1.386 . S
H457 C473 0.930 . S
H458 C474 0.931 . S
C459 H447 0.929 . S
C459 C453 1.390 . S
C459 C456 1.386 . S
C460 C455 1.490 . S
C460 C462 1.395 . S
C460 C463 1.403 . S
H461 C467 0.930 . S
C462 H448 0.930 . S
C462 C460 1.395 . S
C462 C465 1.403 . S
C463 C460 1.403 . S
C463 C464 1.524 . S
C463 C467 1.400 . S
C464 H449 0.960 . S
C464 H450 0.960 . S
C464 H451 0.960 . S
C464 C463 1.524 . S
C465 C462 1.403 . S
C465 C466 1.392 . S
C465 C469 1.495 . S
C466 C465 1.392 . S
C466 C467 1.385 . S
C466 C468 1.478 . S
C467 H461 0.930 . S
C467 C463 1.400 . S
C467 C466 1.385 . S
C468 C466 1.478 . S
C468 C470 1.381 . S
C468 C474 1.383 . S
C469 C465 1.495 . S
C469 H475 0.959 . S
C469 H476 0.961 . S
C469 H477 0.960 . S
C470 C468 1.381 . S
C470 C471 1.394 . S
C470 H478 0.930 . S
C471 C470 1.394 . S
C471 C472 1.383 . S
C471 H479 0.929 . S
C472 C471 1.383 . S
C472 C473 1.377 . S
C473 H457 0.930 . S
C473 C472 1.377 . S
C473 C474 1.379 . S
C474 H458 0.931 . S
C474 C468 1.383 . S
C474 C473 1.379 . S
H475 C469 0.959 . S
H476 C469 0.961 . S
H477 C469 0.960 . S
H478 C470 0.930 . S
H479 C471 0.929 . S
H480 C488 0.929 . S
H481 C490 0.930 . S
H482 C492 0.930 . S
H483 C495 0.929 . S
H484 C498 0.930 . S
H485 C500 0.960 . S
H486 C500 0.960 . S
H487 C500 0.960 . S
C488 H480 0.929 . S
C488 C489 1.377 . S
C488 C490 1.384 . S
C489 C488 1.377 . S
C489 C495 1.390 . S
C490 H481 0.930 . S
C490 C488 1.384 . S
C490 C491 1.372 . S
C491 C490 1.372 . S
C491 C492 1.400 . S
C491 C496 1.490 . S
C492 H482 0.930 . S
C492 C491 1.400 . S
C492 C495 1.386 . S
H493 C509 0.930 . S
H494 C510 0.931 . S
C495 H483 0.929 . S
C495 C489 1.390 . S
C495 C492 1.386 . S
C496 C491 1.490 . S
C496 C498 1.395 . S
C496 C499 1.403 . S
H497 C503 0.930 . S
C498 H484 0.930 . S
C498 C496 1.395 . S
C498 C501 1.403 . S
C499 C496 1.403 . S
C499 C500 1.524 . S
C499 C503 1.400 . S
C500 H485 0.960 . S
C500 H486 0.960 . S
C500 H487 0.960 . S
C500 C499 1.524 . S
C501 C498 1.403 . S
C501 C502 1.392 . S
C501 C505 1.495 . S
C502 C501 1.392 . S
C502 C503 1.385 . S
C502 C504 1.478 . S
C503 H497 0.930 . S
C503 C499 1.400 . S
C503 C502 1.385 . S
C504 C502 1.478 . S
C504 C506 1.381 . S
C504 C510 1.383 . S
C505 C501 1.495 . S
C505 H511 0.959 . S
C505 H512 0.961 . S
C505 H513 0.960 . S
C506 C504 1.381 . S
C506 C507 1.394 . S
C506 H514 0.930 . S
C507 C506 1.394 . S
C507 C508 1.383 . S
C507 H515 0.929 . S
C508 C507 1.383 . S
C508 C509 1.377 . S
C509 H493 0.930 . S
C509 C508 1.377 . S
C509 C510 1.379 . S
C510 H494 0.931 . S
C510 C504 1.383 . S
C510 C509 1.379 . S
H511 C505 0.959 . S
H512 C505 0.961 . S
H513 C505 0.960 . S
H514 C506 0.930 . S
H515 C507 0.929 . S
H516 C524 0.929 . S
H517 C526 0.930 . S
H518 C528 0.930 . S
H519 C531 0.929 . S
H520 C534 0.930 . S
H521 C536 0.960 . S
H522 C536 0.960 . S
H523 C536 0.960 . S
C524 H516 0.929 . S
C524 C525 1.377 . S
C524 C526 1.384 . S
C525 C524 1.377 . S
C525 C531 1.390 . S
C526 H517 0.930 . S
C526 C524 1.384 . S
C526 C527 1.372 . S
C527 C526 1.372 . S
C527 C528 1.400 . S
C527 C532 1.490 . S
C528 H518 0.930 . S
C528 C527 1.400 . S
C528 C531 1.386 . S
H529 C545 0.930 . S
H530 C546 0.931 . S
C531 H519 0.929 . S
C531 C525 1.390 . S
C531 C528 1.386 . S
C532 C527 1.490 . S
C532 C534 1.395 . S
C532 C535 1.403 . S
H533 C539 0.930 . S
C534 H520 0.930 . S
C534 C532 1.395 . S
C534 C537 1.403 . S
C535 C532 1.403 . S
C535 C536 1.524 . S
C535 C539 1.400 . S
C536 H521 0.960 . S
C536 H522 0.960 . S
C536 H523 0.960 . S
C536 C535 1.524 . S
C537 C534 1.403 . S
C537 C538 1.392 . S
C537 C541 1.495 . S
C538 C537 1.392 . S
C538 C539 1.385 . S
C538 C540 1.478 . S
C539 H533 0.930 . S
C539 C535 1.400 . S
C539 C538 1.385 . S
C540 C538 1.478 . S
C540 C542 1.381 . S
C540 C546 1.383 . S
C541 C537 1.495 . S
C541 H547 0.959 . S
C541 H548 0.961 . S
C541 H549 0.960 . S
C542 C540 1.381 . S
C542 C543 1.394 . S
C542 H550 0.930 . S
C543 C542 1.394 . S
C543 C544 1.383 . S
C543 H551 0.929 . S
C544 C543 1.383 . S
C544 C545 1.377 . S
C545 H529 0.930 . S
C545 C544 1.377 . S
C545 C546 1.379 . S
C546 H530 0.931 . S
C546 C540 1.383 . S
C546 C545 1.379 . S
H547 C541 0.959 . S
H548 C541 0.961 . S
H549 C541 0.960 . S
H550 C542 0.930 . S
H551 C543 0.929 . S
H552 C560 0.929 . S
H553 C562 0.930 . S
H554 C564 0.930 . S
H555 C567 0.929 . S
H556 C570 0.930 . S
H557 C572 0.960 . S
H558 C572 0.960 . S
H559 C572 0.960 . S
C560 H552 0.929 . S
C560 C561 1.377 . S
C560 C562 1.384 . S
C561 C560 1.377 . S
C561 C567 1.390 . S
C562 H553 0.930 . S
C562 C560 1.384 . S
C562 C563 1.372 . S
C563 C562 1.372 . S
C563 C564 1.400 . S
C563 C568 1.490 . S
C564 H554 0.930 . S
C564 C563 1.400 . S
C564 C567 1.386 . S
H565 C581 0.930 . S
H566 C582 0.931 . S
C567 H555 0.929 . S
C567 C561 1.390 . S
C567 C564 1.386 . S
C568 C563 1.490 . S
C568 C570 1.395 . S
C568 C571 1.403 . S
H569 C575 0.930 . S
C570 H556 0.930 . S
C570 C568 1.395 . S
C570 C573 1.403 . S
C571 C568 1.403 . S
C571 C572 1.524 . S
C571 C575 1.400 . S
C572 H557 0.960 . S
C572 H558 0.960 . S
C572 H559 0.960 . S
C572 C571 1.524 . S
C573 C570 1.403 . S
C573 C574 1.392 . S
C573 C577 1.495 . S
C574 C573 1.392 . S
C574 C575 1.385 . S
C574 C576 1.478 . S
C575 H569 0.930 . S
C575 C571 1.400 . S
C575 C574 1.385 . S
C576 C574 1.478 . S
C576 C578 1.381 . S
C576 C582 1.383 . S
C577 C573 1.495 . S
C577 H583 0.959 . S
C577 H584 0.961 . S
C577 H585 0.960 . S
C578 C576 1.381 . S
C578 C579 1.394 . S
C578 H586 0.930 . S
C579 C578 1.394 . S
C579 C580 1.383 . S
C579 H587 0.929 . S
C580 C579 1.383 . S
C580 C581 1.377 . S
C581 H565 0.930 . S
C581 C580 1.377 . S
C581 C582 1.379 . S
C582 H566 0.931 . S
C582 C576 1.383 . S
C582 C581 1.379 . S
H583 C577 0.959 . S
H584 C577 0.961 . S
H585 C577 0.960 . S
H586 C578 0.930 . S
H587 C579 0.929 . S
H588 C596 0.929 . S
H589 C598 0.930 . S
H590 C600 0.930 . S
H591 C603 0.929 . S
H592 C606 0.930 . S
H593 C608 0.960 . S
H594 C608 0.960 . S
H595 C608 0.960 . S
C596 H588 0.929 . S
C596 C597 1.377 . S
C596 C598 1.384 . S
C597 C596 1.377 . S
C597 C603 1.390 . S
C598 H589 0.930 . S
C598 C596 1.384 . S
C598 C599 1.372 . S
C599 C598 1.372 . S
C599 C600 1.400 . S
C599 C604 1.490 . S
C600 H590 0.930 . S
C600 C599 1.400 . S
C600 C603 1.386 . S
H601 C617 0.930 . S
H602 C618 0.931 . S
C603 H591 0.929 . S
C603 C597 1.390 . S
C603 C600 1.386 . S
C604 C599 1.490 . S
C604 C606 1.395 . S
C604 C607 1.403 . S
H605 C611 0.930 . S
C606 H592 0.930 . S
C606 C604 1.395 . S
C606 C609 1.403 . S
C607 C604 1.403 . S
C607 C608 1.524 . S
C607 C611 1.400 . S
C608 H593 0.960 . S
C608 H594 0.960 . S
C608 H595 0.960 . S
C608 C607 1.524 . S
C609 C606 1.403 . S
C609 C610 1.392 . S
C609 C613 1.495 . S
C610 C609 1.392 . S
C610 C611 1.385 . S
C610 C612 1.478 . S
C611 H605 0.930 . S
C611 C607 1.400 . S
C611 C610 1.385 . S
C612 C610 1.478 . S
C612 C614 1.381 . S
C612 C618 1.383 . S
C613 C609 1.495 . S
C613 H619 0.959 . S
C613 H620 0.961 . S
C613 H621 0.960 . S
C614 C612 1.381 . S
C614 C615 1.394 . S
C614 H622 0.930 . S
C615 C614 1.394 . S
C615 C616 1.383 . S
C615 H623 0.929 . S
C616 C615 1.383 . S
C616 C617 1.377 . S
C617 H601 0.930 . S
C617 C616 1.377 . S
C617 C618 1.379 . S
C618 H602 0.931 . S
C618 C612 1.383 . S
C618 C617 1.379 . S
H619 C613 0.959 . S
H620 C613 0.961 . S
H621 C613 0.960 . S
H622 C614 0.930 . S
H623 C615 0.929 . S
H624 C632 0.929 . S
H625 C634 0.930 . S
H626 C636 0.930 . S
H627 C639 0.929 . S
H628 C642 0.930 . S
H629 C644 0.960 . S
H630 C644 0.960 . S
H631 C644 0.960 . S
C632 H624 0.929 . S
C632 C633 1.377 . S
C632 C634 1.384 . S
C633 C632 1.377 . S
C633 C639 1.390 . S
C634 H625 0.930 . S
C634 C632 1.384 . S
C634 C635 1.372 . S
C635 C634 1.372 . S
C635 C636 1.400 . S
C635 C640 1.490 . S
C636 H626 0.930 . S
C636 C635 1.400 . S
C636 C639 1.386 . S
H637 C653 0.930 . S
H638 C654 0.931 . S
C639 H627 0.929 . S
C639 C633 1.390 . S
C639 C636 1.386 . S
C640 C635 1.490 . S
C640 C642 1.395 . S
C640 C643 1.403 . S
H641 C647 0.930 . S
C642 H628 0.930 . S
C642 C640 1.395 . S
C642 C645 1.403 . S
C643 C640 1.403 . S
C643 C644 1.524 . S
C643 C647 1.400 . S
C644 H629 0.960 . S
C644 H630 0.960 . S
C644 H631 0.960 . S
C644 C643 1.524 . S
C645 C642 1.403 . S
C645 C646 1.392 . S
C645 C649 1.495 . S
C646 C645 1.392 . S
C646 C647 1.385 . S
C646 C648 1.478 . S
C647 H641 0.930 . S
C647 C643 1.400 . S
C647 C646 1.385 . S
C648 C646 1.478 . S
C648 C650 1.381 . S
C648 C654 1.383 . S
C649 C645 1.495 . S
C649 H655 0.959 . S
C649 H656 0.961 . S
C649 H657 0.960 . S
C650 C648 1.381 . S
C650 C651 1.394 . S
C650 H658 0.930 . S
C651 C650 1.394 . S
C651 C652 1.383 . S
C651 H659 0.929 . S
C652 C651 1.383 . S
C652 C653 1.377 . S
C653 H637 0.930 . S
C653 C652 1.377 . S
C653 C654 1.379 . S
C654 H638 0.931 . S
C654 C648 1.383 . S
C654 C653 1.379 . S
H655 C649 0.959 . S
H656 C649 0.961 . S
H657 C649 0.960 . S
H658 C650 0.930 . S
H659 C651 0.929 . S
H660 C668 0.929 . S
H661 C670 0.930 . S
H662 C672 0.930 . S
H663 C675 0.929 1_545 S
H664 C678 0.930 . S
H665 C680 0.960 . S
H666 C680 0.960 . S
H667 C680 0.960 . S
C668 H660 0.929 . S
C668 C669 1.377 . S
C668 C670 1.384 . S
C669 C668 1.377 . S
C669 C675 1.390 . S
C670 H661 0.930 . S
C670 C668 1.384 . S
C670 C671 1.372 . S
C671 C670 1.372 . S
C671 C672 1.400 . S
C671 C676 1.490 . S
C672 H662 0.930 . S
C672 C671 1.400 . S
C672 C675 1.386 . S
H673 C689 0.930 . S
H674 C690 0.931 . S
C675 H663 0.929 1_565 S
C675 C669 1.390 . S
C675 C672 1.386 . S
C676 C671 1.490 . S
C676 C678 1.395 . S
C676 C679 1.403 . S
H677 C683 0.930 . S
C678 H664 0.930 . S
C678 C676 1.395 . S
C678 C681 1.403 . S
C679 C676 1.403 . S
C679 C680 1.524 . S
C679 C683 1.400 . S
C680 H665 0.960 . S
C680 H666 0.960 . S
C680 H667 0.960 . S
C680 C679 1.524 . S
C681 C678 1.403 . S
C681 C682 1.392 . S
C681 C685 1.495 . S
C682 C681 1.392 . S
C682 C683 1.385 . S
C682 C684 1.478 . S
C683 H677 0.930 . S
C683 C679 1.400 . S
C683 C682 1.385 . S
C684 C682 1.478 . S
C684 C686 1.381 . S
C684 C690 1.383 . S
C685 C681 1.495 . S
C685 H691 0.959 . S
C685 H692 0.961 . S
C685 H693 0.960 . S
C686 C684 1.381 . S
C686 C687 1.394 . S
C686 H694 0.930 . S
C687 C686 1.394 . S
C687 C688 1.383 . S
C687 H695 0.929 . S
C688 C687 1.383 . S
C688 C689 1.377 . S
C689 H673 0.930 . S
C689 C688 1.377 . S
C689 C690 1.379 . S
C690 H674 0.931 . S
C690 C684 1.383 . S
C690 C689 1.379 . S
H691 C685 0.959 . S
H692 C685 0.961 . S
H693 C685 0.960 . S
H694 C686 0.930 . S
H695 C687 0.929 . S
H696 C704 0.929 . S
H697 C706 0.930 . S
H698 C708 0.930 . S
H699 C711 0.929 . S
H700 C714 0.930 . S
H701 C716 0.960 . S
H702 C716 0.960 . S
H703 C716 0.960 . S
C704 H696 0.929 . S
C704 C705 1.377 . S
C704 C706 1.384 . S
C705 C704 1.377 . S
C705 C711 1.390 . S
C706 H697 0.930 . S
C706 C704 1.384 . S
C706 C707 1.372 . S
C707 C706 1.372 . S
C707 C708 1.400 . S
C707 C712 1.490 . S
C708 H698 0.930 . S
C708 C707 1.400 . S
C708 C711 1.386 . S
H709 C725 0.930 . S
H710 C726 0.931 . S
C711 H699 0.929 . S
C711 C705 1.390 . S
C711 C708 1.386 . S
C712 C707 1.490 . S
C712 C714 1.395 . S
C712 C715 1.403 . S
H713 C719 0.930 . S
C714 H700 0.930 . S
C714 C712 1.395 . S
C714 C717 1.403 . S
C715 C712 1.403 . S
C715 C716 1.524 . S
C715 C719 1.400 . S
C716 H701 0.960 . S
C716 H702 0.960 . S
C716 H703 0.960 . S
C716 C715 1.524 . S
C717 C714 1.403 . S
C717 C718 1.392 . S
C717 C721 1.495 . S
C718 C717 1.392 . S
C718 C719 1.385 . S
C718 C720 1.478 . S
C719 H713 0.930 . S
C719 C715 1.400 . S
C719 C718 1.385 . S
C720 C718 1.478 . S
C720 C722 1.381 . S
C720 C726 1.383 . S
C721 C717 1.495 . S
C721 H727 0.959 . S
C721 H728 0.961 . S
C721 H729 0.960 . S
C722 C720 1.381 . S
C722 C723 1.394 . S
C722 H730 0.930 . S
C723 C722 1.394 . S
C723 C724 1.383 . S
C723 H731 0.929 . S
C724 C723 1.383 . S
C724 C725 1.377 . S
C725 H709 0.930 . S
C725 C724 1.377 . S
C725 C726 1.379 . S
C726 H710 0.931 . S
C726 C720 1.383 . S
C726 C725 1.379 . S
H727 C721 0.959 . S
H728 C721 0.961 . S
H729 C721 0.960 . S
H730 C722 0.930 . S
H731 C723 0.929 . S
H732 C740 0.929 . S
H733 C742 0.930 . S
H734 C744 0.930 . S
H735 C747 0.929 . S
H736 C750 0.930 . S
H737 C752 0.960 . S
H738 C752 0.960 . S
H739 C752 0.960 . S
C740 H732 0.929 . S
C740 C741 1.377 . S
C740 C742 1.384 . S
C741 C740 1.377 . S
C741 C747 1.390 . S
C742 H733 0.930 . S
C742 C740 1.384 . S
C742 C743 1.372 . S
C743 C742 1.372 . S
C743 C744 1.400 . S
C743 C748 1.490 . S
C744 H734 0.930 . S
C744 C743 1.400 . S
C744 C747 1.386 . S
H745 C761 0.930 . S
H746 C762 0.931 . S
C747 H735 0.929 . S
C747 C741 1.390 . S
C747 C744 1.386 . S
C748 C743 1.490 . S
C748 C750 1.395 . S
C748 C751 1.403 . S
H749 C755 0.930 . S
C750 H736 0.930 . S
C750 C748 1.395 . S
C750 C753 1.403 . S
C751 C748 1.403 . S
C751 C752 1.524 . S
C751 C755 1.400 . S
C752 H737 0.960 . S
C752 H738 0.960 . S
C752 H739 0.960 . S
C752 C751 1.524 . S
C753 C750 1.403 . S
C753 C754 1.392 . S
C753 C757 1.495 . S
C754 C753 1.392 . S
C754 C755 1.385 . S
C754 C756 1.478 . S
C755 H749 0.930 . S
C755 C751 1.400 . S
C755 C754 1.385 . S
C756 C754 1.478 . S
C756 C758 1.381 . S
C756 C762 1.383 . S
C757 C753 1.495 . S
C757 H763 0.959 . S
C757 H764 0.961 . S
C757 H765 0.960 . S
C758 C756 1.381 . S
C758 C759 1.394 . S
C758 H766 0.930 . S
C759 C758 1.394 . S
C759 C760 1.383 . S
C759 H767 0.929 . S
C760 C759 1.383 . S
C760 C761 1.377 . S
C761 H745 0.930 . S
C761 C760 1.377 . S
C761 C762 1.379 . S
C762 H746 0.931 . S
C762 C756 1.383 . S
C762 C761 1.379 . S
H763 C757 0.959 . S
H764 C757 0.961 . S
H765 C757 0.960 . S
H766 C758 0.930 . S
H767 C759 0.929 . S
H768 C776 0.929 . S
H769 C778 0.930 . S
H770 C780 0.930 . S
H771 C783 0.929 . S
H772 C786 0.930 . S
H773 C788 0.960 . S
H774 C788 0.960 . S
H775 C788 0.960 . S
C776 H768 0.929 . S
C776 C777 1.377 . S
C776 C778 1.384 . S
C777 C776 1.377 . S
C777 C783 1.390 . S
C778 H769 0.930 . S
C778 C776 1.384 . S
C778 C779 1.372 . S
C779 C778 1.372 . S
C779 C780 1.400 . S
C779 C784 1.490 . S
C780 H770 0.930 . S
C780 C779 1.400 . S
C780 C783 1.386 . S
H781 C797 0.930 1_565 S
H782 C798 0.931 . S
C783 H771 0.929 . S
C783 C777 1.390 . S
C783 C780 1.386 . S
C784 C779 1.490 . S
C784 C786 1.395 . S
C784 C787 1.403 . S
H785 C791 0.930 . S
C786 H772 0.930 . S
C786 C784 1.395 . S
C786 C789 1.403 . S
C787 C784 1.403 . S
C787 C788 1.524 . S
C787 C791 1.400 . S
C788 H773 0.960 . S
C788 H774 0.960 . S
C788 H775 0.960 . S
C788 C787 1.524 . S
C789 C786 1.403 . S
C789 C790 1.392 . S
C789 C793 1.495 . S
C790 C789 1.392 . S
C790 C791 1.385 . S
C790 C792 1.478 . S
C791 H785 0.930 . S
C791 C787 1.400 . S
C791 C790 1.385 . S
C792 C790 1.478 . S
C792 C794 1.381 . S
C792 C798 1.383 . S
C793 C789 1.495 . S
C793 H799 0.959 . S
C793 H800 0.961 . S
C793 H801 0.960 . S
C794 C792 1.381 . S
C794 C795 1.394 . S
C794 H802 0.930 . S
C795 C794 1.394 . S
C795 C796 1.383 . S
C795 H803 0.929 . S
C796 C795 1.383 . S
C796 C797 1.377 . S
C797 H781 0.930 1_545 S
C797 C796 1.377 . S
C797 C798 1.379 . S
C798 H782 0.931 . S
C798 C792 1.383 . S
C798 C797 1.379 . S
H799 C793 0.959 . S
H800 C793 0.961 . S
H801 C793 0.960 . S
H802 C794 0.930 . S
H803 C795 0.929 . S
H804 C812 0.929 . S
H805 C814 0.930 . S
H806 C816 0.930 . S
H807 C819 0.929 . S
H808 C822 0.930 . S
H809 C824 0.960 . S
H810 C824 0.960 . S
H811 C824 0.960 . S
C812 H804 0.929 . S
C812 C813 1.377 . S
C812 C814 1.384 . S
C813 C812 1.377 . S
C813 C819 1.390 . S
C814 H805 0.930 . S
C814 C812 1.384 . S
C814 C815 1.372 . S
C815 C814 1.372 . S
C815 C816 1.400 . S
C815 C820 1.490 . S
C816 H806 0.930 . S
C816 C815 1.400 . S
C816 C819 1.386 . S
H817 C833 0.930 . S
H818 C834 0.931 . S
C819 H807 0.929 . S
C819 C813 1.390 . S
C819 C816 1.386 . S
C820 C815 1.490 . S
C820 C822 1.395 . S
C820 C823 1.403 . S
H821 C827 0.930 . S
C822 H808 0.930 . S
C822 C820 1.395 . S
C822 C825 1.403 . S
C823 C820 1.403 . S
C823 C824 1.524 . S
C823 C827 1.400 . S
C824 H809 0.960 . S
C824 H810 0.960 . S
C824 H811 0.960 . S
C824 C823 1.524 . S
C825 C822 1.403 . S
C825 C826 1.392 . S
C825 C829 1.495 . S
C826 C825 1.392 . S
C826 C827 1.385 . S
C826 C828 1.478 . S
C827 H821 0.930 . S
C827 C823 1.400 . S
C827 C826 1.385 . S
C828 C826 1.478 . S
C828 C830 1.381 . S
C828 C834 1.383 . S
C829 C825 1.495 . S
C829 H835 0.959 . S
C829 H836 0.961 . S
C829 H837 0.960 . S
C830 C828 1.381 . S
C830 C831 1.394 . S
C830 H838 0.930 . S
C831 C830 1.394 . S
C831 C832 1.383 . S
C831 H839 0.929 . S
C832 C831 1.383 . S
C832 C833 1.377 . S
C833 H817 0.930 . S
C833 C832 1.377 . S
C833 C834 1.379 . S
C834 H818 0.931 . S
C834 C828 1.383 . S
C834 C833 1.379 . S
H835 C829 0.959 . S
H836 C829 0.961 . S
H837 C829 0.960 . S
H838 C830 0.930 . S
H839 C831 0.929 . S
H840 C848 0.929 . S
H841 C850 0.930 . S
H842 C852 0.930 . S
H843 C855 0.929 . S
H844 C858 0.930 . S
H845 C860 0.960 . S
H846 C860 0.960 . S
H847 C860 0.960 . S
C848 H840 0.929 . S
C848 C849 1.377 . S
C848 C850 1.384 . S
C849 C848 1.377 . S
C849 C855 1.390 . S
C850 H841 0.930 . S
C850 C848 1.384 . S
C850 C851 1.372 . S
C851 C850 1.372 . S
C851 C852 1.400 . S
C851 C856 1.490 . S
C852 H842 0.930 . S
C852 C851 1.400 . S
C852 C855 1.386 . S
H853 C869 0.930 . S
H854 C870 0.931 . S
C855 H843 0.929 . S
C855 C849 1.390 . S
C855 C852 1.386 . S
C856 C851 1.490 . S
C856 C858 1.395 . S
C856 C859 1.403 . S
H857 C863 0.930 . S
C858 H844 0.930 . S
C858 C856 1.395 . S
C858 C861 1.403 . S
C859 C856 1.403 . S
C859 C860 1.524 . S
C859 C863 1.400 . S
C860 H845 0.960 . S
C860 H846 0.960 . S
C860 H847 0.960 . S
C860 C859 1.524 . S
C861 C858 1.403 . S
C861 C862 1.392 . S
C861 C865 1.495 . S
C862 C861 1.392 . S
C862 C863 1.385 . S
C862 C864 1.478 . S
C863 H857 0.930 . S
C863 C859 1.400 . S
C863 C862 1.385 . S
C864 C862 1.478 . S
C864 C866 1.381 . S
C864 C870 1.383 . S
C865 C861 1.495 . S
C865 H871 0.959 . S
C865 H872 0.961 . S
C865 H873 0.960 . S
C866 C864 1.381 . S
C866 C867 1.394 . S
C866 H874 0.930 . S
C867 C866 1.394 . S
C867 C868 1.383 . S
C867 H875 0.929 . S
C868 C867 1.383 . S
C868 C869 1.377 . S
C869 H853 0.930 . S
C869 C868 1.377 . S
C869 C870 1.379 . S
C870 H854 0.931 . S
C870 C864 1.383 . S
C870 C869 1.379 . S
H871 C865 0.959 . S
H872 C865 0.961 . S
H873 C865 0.960 . S
H874 C866 0.930 . S
H875 C867 0.929 . S
H876 C884 0.929 . S
H877 C886 0.930 . S
H878 C888 0.930 . S
H879 C891 0.929 . S
H880 C894 0.930 . S
H881 C896 0.960 . S
H882 C896 0.960 . S
H883 C896 0.960 . S
C884 H876 0.929 . S
C884 C885 1.377 . S
C884 C886 1.384 . S
C885 C884 1.377 . S
C885 C891 1.390 . S
C886 H877 0.930 . S
C886 C884 1.384 . S
C886 C887 1.372 . S
C887 C886 1.372 . S
C887 C888 1.400 . S
C887 C892 1.490 . S
C888 H878 0.930 . S
C888 C887 1.400 . S
C888 C891 1.386 . S
H889 C905 0.930 . S
H890 C906 0.931 . S
C891 H879 0.929 . S
C891 C885 1.390 . S
C891 C888 1.386 . S
C892 C887 1.490 . S
C892 C894 1.395 . S
C892 C895 1.403 . S
H893 C899 0.930 . S
C894 H880 0.930 . S
C894 C892 1.395 . S
C894 C897 1.403 . S
C895 C892 1.403 . S
C895 C896 1.524 . S
C895 C899 1.400 . S
C896 H881 0.960 . S
C896 H882 0.960 . S
C896 H883 0.960 . S
C896 C895 1.524 . S
C897 C894 1.403 . S
C897 C898 1.392 . S
C897 C901 1.495 . S
C898 C897 1.392 . S
C898 C899 1.385 . S
C898 C900 1.478 . S
C899 H893 0.930 . S
C899 C895 1.400 . S
C899 C898 1.385 . S
C900 C898 1.478 . S
C900 C902 1.381 . S
C900 C906 1.383 . S
C901 C897 1.495 . S
C901 H907 0.959 . S
C901 H908 0.961 . S
C901 H909 0.960 . S
C902 C900 1.381 . S
C902 C903 1.394 . S
C902 H910 0.930 . S
C903 C902 1.394 . S
C903 C904 1.383 . S
C903 H911 0.929 . S
C904 C903 1.383 . S
C904 C905 1.377 . S
C905 H889 0.930 . S
C905 C904 1.377 . S
C905 C906 1.379 . S
C906 H890 0.931 . S
C906 C900 1.383 . S
C906 C905 1.379 . S
H907 C901 0.959 . S
H908 C901 0.961 . S
H909 C901 0.960 . S
H910 C902 0.930 . S
H911 C903 0.929 . S
H912 C920 0.929 . S
H913 C922 0.930 . S
H914 C924 0.930 . S
H915 C927 0.929 . S
H916 C930 0.930 . S
H917 C932 0.960 . S
H918 C932 0.960 . S
H919 C932 0.960 . S
C920 H912 0.929 . S
C920 C921 1.377 . S
C920 C922 1.384 . S
C921 C920 1.377 . S
C921 C927 1.390 . S
C922 H913 0.930 . S
C922 C920 1.384 . S
C922 C923 1.372 . S
C923 C922 1.372 . S
C923 C924 1.400 . S
C923 C928 1.490 . S
C924 H914 0.930 . S
C924 C923 1.400 . S
C924 C927 1.386 . S
H925 C941 0.930 . S
H926 C942 0.931 . S
C927 H915 0.929 . S
C927 C921 1.390 . S
C927 C924 1.386 . S
C928 C923 1.490 . S
C928 C930 1.395 . S
C928 C931 1.403 . S
H929 C935 0.930 . S
C930 H916 0.930 . S
C930 C928 1.395 . S
C930 C933 1.403 . S
C931 C928 1.403 . S
C931 C932 1.524 . S
C931 C935 1.400 . S
C932 H917 0.960 . S
C932 H918 0.960 . S
C932 H919 0.960 . S
C932 C931 1.524 . S
C933 C930 1.403 . S
C933 C934 1.392 . S
C933 C937 1.495 . S
C934 C933 1.392 . S
C934 C935 1.385 . S
C934 C936 1.478 . S
C935 H929 0.930 . S
C935 C931 1.400 . S
C935 C934 1.385 . S
C936 C934 1.478 . S
C936 C938 1.381 . S
C936 C942 1.383 . S
C937 C933 1.495 . S
C937 H943 0.959 . S
C937 H944 0.961 . S
C937 H945 0.960 . S
C938 C936 1.381 . S
C938 C939 1.394 . S
C938 H946 0.930 . S
C939 C938 1.394 . S
C939 C940 1.383 . S
C939 H947 0.929 . S
C940 C939 1.383 . S
C940 C941 1.377 . S
C941 H925 0.930 . S
C941 C940 1.377 . S
C941 C942 1.379 . S
C942 H926 0.931 . S
C942 C936 1.383 . S
C942 C941 1.379 . S
H943 C937 0.959 . S
H944 C937 0.961 . S
H945 C937 0.960 . S
H946 C938 0.930 . S
H947 C939 0.929 . S
H948 C956 0.929 . S
H949 C958 0.930 . S
H950 C960 0.930 . S
H951 C963 0.929 . S
H952 C966 0.930 . S
H953 C968 0.960 . S
H954 C968 0.960 . S
H955 C968 0.960 . S
C956 H948 0.929 . S
C956 C957 1.377 . S
C956 C958 1.384 . S
C957 C956 1.377 . S
C957 C963 1.390 . S
C958 H949 0.930 . S
C958 C956 1.384 . S
C958 C959 1.372 . S
C959 C958 1.372 . S
C959 C960 1.400 . S
C959 C964 1.490 . S
C960 H950 0.930 . S
C960 C959 1.400 . S
C960 C963 1.386 . S
H961 C977 0.930 . S
H962 C978 0.931 . S
C963 H951 0.929 . S
C963 C957 1.390 . S
C963 C960 1.386 . S
C964 C959 1.490 . S
C964 C966 1.395 . S
C964 C967 1.403 . S
H965 C971 0.930 . S
C966 H952 0.930 . S
C966 C964 1.395 . S
C966 C969 1.403 . S
C967 C964 1.403 . S
C967 C968 1.524 . S
C967 C971 1.400 . S
C968 H953 0.960 . S
C968 H954 0.960 . S
C968 H955 0.960 . S
C968 C967 1.524 . S
C969 C966 1.403 . S
C969 C970 1.392 . S
C969 C973 1.495 . S
C970 C969 1.392 . S
C970 C971 1.385 . S
C970 C972 1.478 . S
C971 H965 0.930 . S
C971 C967 1.400 . S
C971 C970 1.385 . S
C972 C970 1.478 . S
C972 C974 1.381 . S
C972 C978 1.383 . S
C973 C969 1.495 . S
C973 H979 0.959 . S
C973 H980 0.961 . S
C973 H981 0.960 . S
C974 C972 1.381 . S
C974 C975 1.394 . S
C974 H982 0.930 . S
C975 C974 1.394 . S
C975 C976 1.383 . S
C975 H983 0.929 . S
C976 C975 1.383 . S
C976 C977 1.377 . S
C977 H961 0.930 . S
C977 C976 1.377 . S
C977 C978 1.379 . S
C978 H962 0.931 . S
C978 C972 1.383 . S
C978 C977 1.379 . S
H979 C973 0.959 . S
H980 C973 0.961 . S
H981 C973 0.960 . S
H982 C974 0.930 . S
H983 C975 0.929 . S
H984 C992 0.929 . S
H985 C994 0.930 . S
H986 C996 0.930 . S
H987 C999 0.929 . S
H988 C1002 0.930 . S
H989 C1004 0.960 . S
H990 C1004 0.960 . S
H991 C1004 0.960 . S
C992 H984 0.929 . S
C992 C993 1.377 . S
C992 C994 1.384 . S
C993 C992 1.377 . S
C993 C999 1.390 . S
C994 H985 0.930 . S
C994 C992 1.384 . S
C994 C995 1.372 . S
C995 C994 1.372 . S
C995 C996 1.400 . S
C995 C1000 1.490 . S
C996 H986 0.930 . S
C996 C995 1.400 . S
C996 C999 1.386 . S
H997 C1013 0.930 . S
H998 C1014 0.931 . S
C999 H987 0.929 . S
C999 C993 1.390 . S
C999 C996 1.386 . S
C1000 C995 1.490 . S
C1000 C1002 1.395 . S
C1000 C1003 1.403 . S
H1001 C1007 0.930 . S
C1002 H988 0.930 . S
C1002 C1000 1.395 . S
C1002 C1005 1.403 . S
C1003 C1000 1.403 . S
C1003 C1004 1.524 . S
C1003 C1007 1.400 . S
C1004 H989 0.960 . S
C1004 H990 0.960 . S
C1004 H991 0.960 . S
C1004 C1003 1.524 . S
C1005 C1002 1.403 . S
C1005 C1006 1.392 . S
C1005 C1009 1.495 . S
C1006 C1005 1.392 . S
C1006 C1007 1.385 . S
C1006 C1008 1.478 . S
C1007 H1001 0.930 . S
C1007 C1003 1.400 . S
C1007 C1006 1.385 . S
C1008 C1006 1.478 . S
C1008 C1010 1.381 . S
C1008 C1014 1.383 . S
C1009 C1005 1.495 . S
C1009 H1015 0.959 . S
C1009 H1016 0.961 . S
C1009 H1017 0.960 . S
C1010 C1008 1.381 . S
C1010 C1011 1.394 . S
C1010 H1018 0.930 . S
C1011 C1010 1.394 . S
C1011 C1012 1.383 . S
C1011 H1019 0.929 . S
C1012 C1011 1.383 . S
C1012 C1013 1.377 . S
C1013 H997 0.930 . S
C1013 C1012 1.377 . S
C1013 C1014 1.379 . S
C1014 H998 0.931 . S
C1014 C1008 1.383 . S
C1014 C1013 1.379 . S
H1015 C1009 0.959 . S
H1016 C1009 0.961 . S
H1017 C1009 0.960 . S
H1018 C1010 0.930 . S
H1019 C1011 0.929 . S
C165 C108 1.278 . S
C184 C4 1.269 . S
C201 C23 1.278 . S
C220 C127 1.268 . S
C237 C36 1.278 . S
C256 C134 1.282 . S
C273 C49 1.280 . S
C292 C153 1.284 . S
C309 C82 1.280 . S
C328 C56 1.285 . S
C345 C75 1.278 . S
C364 C95 1.271 . S
C381 C10 1.531 . S
C400 C70 1.527 1_554 S
C417 C17 1.531 . S
C436 C3 1.509 1_655 S
C453 C30 1.531 . S
C472 C18 1.527 1_565 S
C489 C31 1.515 . S
C508 C43 1.522 . S
C525 C44 1.518 1_455 S
C544 C62 1.527 . S
C561 C55 1.513 1_545 S
C580 C69 1.526 . S
C597 C94 1.515 . S
C616 C88 1.521 . S
C633 C101 1.530 . S
C652 C107 1.500 1_656 S
C669 C122 1.519 1_565 S
C688 C114 1.533 . S
C705 C121 1.531 . S
C724 C133 1.522 . S
C741 C140 1.530 . S
C760 C148 1.501 1_455 S
C777 C147 1.531 . S
C796 C81 1.515 1_545 S
C813 C135 1.237 . S
C832 C5 1.233 . S
C849 C146 1.238 . S
C868 C16 1.231 . S
C885 C83 1.239 . S
C904 C29 1.232 . S
C921 C42 1.239 . S
C940 C96 1.241 . S
C957 C57 1.239 . S
C976 C109 1.241 . S
C993 C120 1.239 . S
C1012 C68 1.241 . S
