# Generated by pormake.
# Topology dei, (4)-cn, num edge types: 1
# Building blocks:
#     Node 0, Type 0, BuildingBlock: TATPOV_clean_sbu_0, # of connection points: 4
#     Node 1, Type 0, BuildingBlock: TATPOV_clean_sbu_0, # of connection points: 4
#     Node 2, Type 0, BuildingBlock: TATPOV_clean_sbu_0, # of connection points: 4
#     Node 3, Type 0, BuildingBlock: TATPOV_clean_sbu_0, # of connection points: 4
#     Node 4, Type 0, BuildingBlock: TATPOV_clean_sbu_0, # of connection points: 4
#     Node 5, Type 0, BuildingBlock: TATPOV_clean_sbu_0, # of connection points: 4
#     Node 6, Type 0, BuildingBlock: TATPOV_clean_sbu_0, # of connection points: 4
#     Node 7, Type 0, BuildingBlock: TATPOV_clean_sbu_0, # of connection points: 4
#     Node 8, Type 0, BuildingBlock: TATPOV_clean_sbu_0, # of connection points: 4
#     Node 9, Type 0, BuildingBlock: TATPOV_clean_sbu_0, # of connection points: 4
#     Node 10, Type 0, BuildingBlock: TATPOV_clean_sbu_0, # of connection points: 4
#     Node 11, Type 0, BuildingBlock: TATPOV_clean_sbu_0, # of connection points: 4
#     Node 12, Type 0, BuildingBlock: TATPOV_clean_sbu_0, # of connection points: 4
#     Node 13, Type 0, BuildingBlock: TATPOV_clean_sbu_0, # of connection points: 4
#     Node 14, Type 0, BuildingBlock: TATPOV_clean_sbu_0, # of connection points: 4
#     Node 15, Type 0, BuildingBlock: TATPOV_clean_sbu_0, # of connection points: 4
#     Node 16, Type 0, BuildingBlock: TATPOV_clean_sbu_0, # of connection points: 4
#     Node 17, Type 0, BuildingBlock: TATPOV_clean_sbu_0, # of connection points: 4
#     Node 18, Type 0, BuildingBlock: TATPOV_clean_sbu_0, # of connection points: 4
#     Node 19, Type 0, BuildingBlock: TATPOV_clean_sbu_0, # of connection points: 4
#     Node 20, Type 0, BuildingBlock: TATPOV_clean_sbu_0, # of connection points: 4
#     Node 21, Type 0, BuildingBlock: TATPOV_clean_sbu_0, # of connection points: 4
#     Node 22, Type 0, BuildingBlock: TATPOV_clean_sbu_0, # of connection points: 4
#     Node 23, Type 0, BuildingBlock: TATPOV_clean_sbu_0, # of connection points: 4
#     Node 24, Type 0, BuildingBlock: TATPOV_clean_sbu_0, # of connection points: 4
#     Node 25, Type 0, BuildingBlock: TATPOV_clean_sbu_0, # of connection points: 4
#     Node 26, Type 0, BuildingBlock: TATPOV_clean_sbu_0, # of connection points: 4
#     Node 27, Type 0, BuildingBlock: TATPOV_clean_sbu_0, # of connection points: 4
#     Node 28, Type 0, BuildingBlock: TATPOV_clean_sbu_0, # of connection points: 4
#     Node 29, Type 0, BuildingBlock: TATPOV_clean_sbu_0, # of connection points: 4
#     Node 30, Type 0, BuildingBlock: TATPOV_clean_sbu_0, # of connection points: 4
#     Node 31, Type 0, BuildingBlock: TATPOV_clean_sbu_0, # of connection points: 4
#     Edge 32, Type (0, 0), BuildingBlock: AJUNOK_clean_linker_0, # of connection points: 2
#     Edge 33, Type (0, 0), BuildingBlock: AJUNOK_clean_linker_0, # of connection points: 2
#     Edge 34, Type (0, 0), BuildingBlock: AJUNOK_clean_linker_0, # of connection points: 2
#     Edge 35, Type (0, 0), BuildingBlock: AJUNOK_clean_linker_0, # of connection points: 2
#     Edge 36, Type (0, 0), BuildingBlock: AJUNOK_clean_linker_0, # of connection points: 2
#     Edge 37, Type (0, 0), BuildingBlock: AJUNOK_clean_linker_0, # of connection points: 2
#     Edge 38, Type (0, 0), BuildingBlock: AJUNOK_clean_linker_0, # of connection points: 2
#     Edge 39, Type (0, 0), BuildingBlock: AJUNOK_clean_linker_0, # of connection points: 2
#     Edge 40, Type (0, 0), BuildingBlock: AJUNOK_clean_linker_0, # of connection points: 2
#     Edge 41, Type (0, 0), BuildingBlock: AJUNOK_clean_linker_0, # of connection points: 2
#     Edge 42, Type (0, 0), BuildingBlock: AJUNOK_clean_linker_0, # of connection points: 2
#     Edge 43, Type (0, 0), BuildingBlock: AJUNOK_clean_linker_0, # of connection points: 2
#     Edge 44, Type (0, 0), BuildingBlock: AJUNOK_clean_linker_0, # of connection points: 2
#     Edge 45, Type (0, 0), BuildingBlock: AJUNOK_clean_linker_0, # of connection points: 2
#     Edge 46, Type (0, 0), BuildingBlock: AJUNOK_clean_linker_0, # of connection points: 2
#     Edge 47, Type (0, 0), BuildingBlock: AJUNOK_clean_linker_0, # of connection points: 2
#     Edge 48, Type (0, 0), BuildingBlock: AJUNOK_clean_linker_0, # of connection points: 2
#     Edge 49, Type (0, 0), BuildingBlock: AJUNOK_clean_linker_0, # of connection points: 2
#     Edge 50, Type (0, 0), BuildingBlock: AJUNOK_clean_linker_0, # of connection points: 2
#     Edge 51, Type (0, 0), BuildingBlock: AJUNOK_clean_linker_0, # of connection points: 2
#     Edge 52, Type (0, 0), BuildingBlock: AJUNOK_clean_linker_0, # of connection points: 2
#     Edge 53, Type (0, 0), BuildingBlock: AJUNOK_clean_linker_0, # of connection points: 2
#     Edge 54, Type (0, 0), BuildingBlock: AJUNOK_clean_linker_0, # of connection points: 2
#     Edge 55, Type (0, 0), BuildingBlock: AJUNOK_clean_linker_0, # of connection points: 2
#     Edge 56, Type (0, 0), BuildingBlock: AJUNOK_clean_linker_0, # of connection points: 2
#     Edge 57, Type (0, 0), BuildingBlock: AJUNOK_clean_linker_0, # of connection points: 2
#     Edge 58, Type (0, 0), BuildingBlock: AJUNOK_clean_linker_0, # of connection points: 2
#     Edge 59, Type (0, 0), BuildingBlock: AJUNOK_clean_linker_0, # of connection points: 2
#     Edge 60, Type (0, 0), BuildingBlock: AJUNOK_clean_linker_0, # of connection points: 2
#     Edge 61, Type (0, 0), BuildingBlock: AJUNOK_clean_linker_0, # of connection points: 2
#     Edge 62, Type (0, 0), BuildingBlock: AJUNOK_clean_linker_0, # of connection points: 2
#     Edge 63, Type (0, 0), BuildingBlock: AJUNOK_clean_linker_0, # of connection points: 2
#     Edge 64, Type (0, 0), BuildingBlock: AJUNOK_clean_linker_0, # of connection points: 2
#     Edge 65, Type (0, 0), BuildingBlock: AJUNOK_clean_linker_0, # of connection points: 2
#     Edge 66, Type (0, 0), BuildingBlock: AJUNOK_clean_linker_0, # of connection points: 2
#     Edge 67, Type (0, 0), BuildingBlock: AJUNOK_clean_linker_0, # of connection points: 2
#     Edge 68, Type (0, 0), BuildingBlock: AJUNOK_clean_linker_0, # of connection points: 2
#     Edge 69, Type (0, 0), BuildingBlock: AJUNOK_clean_linker_0, # of connection points: 2
#     Edge 70, Type (0, 0), BuildingBlock: AJUNOK_clean_linker_0, # of connection points: 2
#     Edge 71, Type (0, 0), BuildingBlock: AJUNOK_clean_linker_0, # of connection points: 2
#     Edge 72, Type (0, 0), BuildingBlock: AJUNOK_clean_linker_0, # of connection points: 2
#     Edge 73, Type (0, 0), BuildingBlock: AJUNOK_clean_linker_0, # of connection points: 2
#     Edge 74, Type (0, 0), BuildingBlock: AJUNOK_clean_linker_0, # of connection points: 2
#     Edge 75, Type (0, 0), BuildingBlock: AJUNOK_clean_linker_0, # of connection points: 2
#     Edge 76, Type (0, 0), BuildingBlock: AJUNOK_clean_linker_0, # of connection points: 2
#     Edge 77, Type (0, 0), BuildingBlock: AJUNOK_clean_linker_0, # of connection points: 2
#     Edge 78, Type (0, 0), BuildingBlock: AJUNOK_clean_linker_0, # of connection points: 2
#     Edge 79, Type (0, 0), BuildingBlock: AJUNOK_clean_linker_0, # of connection points: 2
#     Edge 80, Type (0, 0), BuildingBlock: AJUNOK_clean_linker_0, # of connection points: 2
#     Edge 81, Type (0, 0), BuildingBlock: AJUNOK_clean_linker_0, # of connection points: 2
#     Edge 82, Type (0, 0), BuildingBlock: AJUNOK_clean_linker_0, # of connection points: 2
#     Edge 83, Type (0, 0), BuildingBlock: AJUNOK_clean_linker_0, # of connection points: 2
#     Edge 84, Type (0, 0), BuildingBlock: AJUNOK_clean_linker_0, # of connection points: 2
#     Edge 85, Type (0, 0), BuildingBlock: AJUNOK_clean_linker_0, # of connection points: 2
#     Edge 86, Type (0, 0), BuildingBlock: AJUNOK_clean_linker_0, # of connection points: 2
#     Edge 87, Type (0, 0), BuildingBlock: AJUNOK_clean_linker_0, # of connection points: 2
#     Edge 88, Type (0, 0), BuildingBlock: AJUNOK_clean_linker_0, # of connection points: 2
#     Edge 89, Type (0, 0), BuildingBlock: AJUNOK_clean_linker_0, # of connection points: 2
#     Edge 90, Type (0, 0), BuildingBlock: AJUNOK_clean_linker_0, # of connection points: 2
#     Edge 91, Type (0, 0), BuildingBlock: AJUNOK_clean_linker_0, # of connection points: 2
#     Edge 92, Type (0, 0), BuildingBlock: AJUNOK_clean_linker_0, # of connection points: 2
#     Edge 93, Type (0, 0), BuildingBlock: AJUNOK_clean_linker_0, # of connection points: 2
#     Edge 94, Type (0, 0), BuildingBlock: AJUNOK_clean_linker_0, # of connection points: 2
#     Edge 95, Type (0, 0), BuildingBlock: AJUNOK_clean_linker_0, # of connection points: 2
# Relax obj value: 0.256
# Max RMSD: 0.094
# Mean RMSD: 0.094
data_MOF--net-dei--node1-TATPOV_clean_sbu_0--edge1-AJUNOK_clean_linker_0
_symmetry_space_group_name_H-M    P1
_symmetry_Int_Tables_number       1
_symmetry_cell_setting            triclinic
loop_
_symmetry_equiv_pos_as_xyz
'x, y, z'
_cell_length_a     38.305782
_cell_length_b     38.372422
_cell_length_c     70.913579
_cell_angle_alpha  89.915007
_cell_angle_beta   90.015218
_cell_angle_gamma 89.921065
loop_
_atom_site_label
_atom_site_type_symbol
_atom_site_fract_x
_atom_site_fract_y
_atom_site_fract_z
_atom_type_partial_charge
Zn0 Zn 0.12546 0.62433 0.01356 0.0
Zn1 Zn 0.12831 0.60092 0.0488 0.0
O2 O 0.14827 0.55987 0.03334 0.0
O3 O 0.14468 0.57962 0.00422 0.0
O4 O 0.13067 0.58749 0.07625 0.0
O5 O 0.15878 0.6624 0.01945 0.0
O6 O 0.15784 0.64551 0.04907 0.0
C7 C 0.15296 0.5557 0.01564 0.0
C8 C 0.0578 0.6208 0.03099 0.0
O9 O 0.07551 0.60843 0.04467 0.0
O10 O 0.07328 0.63064 0.01612 0.0
C11 C 0.15895 0.58053 0.08488 0.0
O12 O 0.18822 0.57873 0.07529 0.0
C13 C 0.1685 0.66633 0.03635 0.0
Zn14 Zn 0.60647 0.8623 0.2675 0.0
Zn15 Zn 0.62967 0.8655 0.30289 0.0
O16 O 0.67188 0.88287 0.28752 0.0
O17 O 0.65258 0.87871 0.25834 0.0
O18 O 0.64268 0.86784 0.33036 0.0
O19 O 0.56998 0.89791 0.27288 0.0
O20 O 0.5864 0.89714 0.30258 0.0
C21 C 0.67666 0.88633 0.26979 0.0
C22 C 0.60753 0.79531 0.28568 0.0
O23 O 0.62049 0.81307 0.29914 0.0
O24 O 0.59794 0.81057 0.27069 0.0
C25 C 0.6476 0.89618 0.33923 0.0
O26 O 0.64824 0.92568 0.32981 0.0
C27 C 0.56647 0.90859 0.28962 0.0
Zn28 Zn 0.37 0.34544 0.52315 0.0
Zn29 Zn 0.36667 0.37518 0.55714 0.0
O30 O 0.3467 0.41221 0.53893 0.0
O31 O 0.35166 0.38826 0.51086 0.0
O32 O 0.36304 0.3951 0.58338 0.0
O33 O 0.33583 0.30942 0.53151 0.0
O34 O 0.33735 0.33084 0.56025 0.0
C35 C 0.3429 0.4138 0.52104 0.0
C36 C 0.43745 0.3527 0.54081 0.0
O37 O 0.41954 0.36747 0.55367 0.0
O38 O 0.42215 0.33979 0.5266 0.0
C39 C 0.33376 0.40374 0.59043 0.0
O40 O 0.30574 0.40245 0.57976 0.0
C41 C 0.32624 0.30837 0.54856 0.0
Zn42 Zn 0.84958 0.10726 0.76063 0.0
Zn43 Zn 0.84411 0.09475 0.79571 0.0
O44 O 0.80881 0.06159 0.78275 0.0
O45 O 0.82402 0.06482 0.75299 0.0
O46 O 0.84292 0.08355 0.82354 0.0
O47 O 0.90094 0.10519 0.76043 0.0
O48 O 0.89591 0.08634 0.78957 0.0
C49 C 0.80531 0.05135 0.7657 0.0
C50 C 0.82043 0.16501 0.78019 0.0
O51 O 0.82918 0.14662 0.79442 0.0
O52 O 0.8244 0.15297 0.76372 0.0
C53 C 0.81562 0.08191 0.83367 0.0
O54 O 0.78502 0.08681 0.82571 0.0
C55 C 0.91465 0.09267 0.77514 0.0
Zn56 Zn 0.12693 0.35177 0.98209 0.0
Zn57 Zn 0.13559 0.37613 0.9476 0.0
O58 O 0.15272 0.41632 0.96468 0.0
O59 O 0.14376 0.3958 0.99328 0.0
O60 O 0.14536 0.39066 0.92071 0.0
O61 O 0.16144 0.31399 0.97804 0.0
O62 O 0.16468 0.33097 0.94849 0.0
C63 C 0.15395 0.42009 0.98257 0.0
C64 C 0.0623 0.35643 0.9615 0.0
O65 O 0.08198 0.36936 0.94879 0.0
O66 O 0.07558 0.34559 0.97679 0.0
C67 C 0.12375 0.40551 0.90971 0.0
O68 O 0.09339 0.41545 0.9164 0.0
C69 C 0.17364 0.31019 0.96163 0.0
Zn70 Zn 0.88448 0.86062 0.2384 0.0
Zn71 Zn 0.8604 0.86753 0.20355 0.0
O72 O 0.81878 0.88311 0.21997 0.0
O73 O 0.83835 0.87412 0.24877 0.0
O74 O 0.84546 0.87305 0.17637 0.0
O75 O 0.91919 0.89829 0.23425 0.0
O76 O 0.90322 0.89989 0.20449 0.0
C77 C 0.81413 0.88365 0.2378 0.0
C78 C 0.88504 0.79599 0.21826 0.0
O79 O 0.87034 0.81462 0.20563 0.0
O80 O 0.89529 0.80995 0.23345 0.0
C81 C 0.84597 0.90244 0.16805 0.0
O82 O 0.85351 0.93043 0.17789 0.0
C83 C 0.92258 0.91069 0.21783 0.0
Zn84 Zn 0.36376 0.61995 0.4966 0.0
Zn85 Zn 0.36041 0.60417 0.46042 0.0
O86 O 0.34262 0.55867 0.47269 0.0
O87 O 0.34552 0.57309 0.50271 0.0
O88 O 0.35606 0.60019 0.43217 0.0
O89 O 0.32958 0.65862 0.49458 0.0
O90 O 0.32885 0.64701 0.46426 0.0
C91 C 0.33833 0.55102 0.49007 0.0
C92 C 0.43122 0.62061 0.47883 0.0
O93 O 0.41346 0.61131 0.46448 0.0
O94 O 0.41572 0.62714 0.49419 0.0
C95 C 0.34218 0.57706 0.4218 0.0
O96 O 0.32935 0.54868 0.4295 0.0
C97 C 0.31815 0.66489 0.47821 0.0
Zn98 Zn 0.62851 0.12395 0.75302 0.0
Zn99 Zn 0.63253 0.11328 0.71592 0.0
O100 O 0.66801 0.07744 0.72634 0.0
O101 O 0.66094 0.08426 0.75692 0.0
O102 O 0.63145 0.10893 0.68753 0.0
O103 O 0.57793 0.11329 0.7529 0.0
O104 O 0.58221 0.10144 0.72266 0.0
C105 C 0.67475 0.06819 0.74327 0.0
C106 C 0.64883 0.18547 0.73347 0.0
O107 O 0.64454 0.16546 0.71932 0.0
O108 O 0.64506 0.17344 0.74997 0.0
C109 C 0.64791 0.08853 0.67656 0.0
O110 O 0.67003 0.0659 0.6837 0.0
C111 C 0.56419 0.103 0.7377 0.0
Zn112 Zn 0.84282 0.35724 0.97878 0.0
Zn113 Zn 0.83857 0.38112 0.94426 0.0
O114 O 0.81768 0.41995 0.96127 0.0
O115 O 0.82313 0.39989 0.99019 0.0
O116 O 0.82919 0.39677 0.9175 0.0
O117 O 0.81111 0.31764 0.97341 0.0
O118 O 0.81411 0.33346 0.94371 0.0
C119 C 0.81356 0.42374 0.97905 0.0
C120 C 0.91011 0.36266 0.96008 0.0
O121 O 0.89212 0.37576 0.94669 0.0
O122 O 0.89494 0.35227 0.97495 0.0
C123 C 0.8518 0.40815 0.90593 0.0
O124 O 0.88402 0.41279 0.91171 0.0
C125 C 0.80402 0.31204 0.95627 0.0
Zn126 Zn 0.35015 0.11336 0.75595 0.0
Zn127 Zn 0.34484 0.10288 0.71884 0.0
O128 O 0.31023 0.06672 0.7296 0.0
O129 O 0.31914 0.07257 0.76009 0.0
O130 O 0.34656 0.09726 0.69062 0.0
O131 O 0.40128 0.10487 0.75531 0.0
O132 O 0.39565 0.09324 0.72514 0.0
C133 C 0.30441 0.05699 0.74655 0.0
C134 C 0.32696 0.17436 0.7362 0.0
O135 O 0.33162 0.15473 0.72192 0.0
O136 O 0.33155 0.16233 0.75265 0.0
C137 C 0.32714 0.08108 0.67907 0.0
O138 O 0.29943 0.06455 0.6853 0.0
C139 C 0.41457 0.09556 0.7398 0.0
Zn140 Zn 0.65416 0.6218 0.49188 0.0
Zn141 Zn 0.65283 0.60412 0.45643 0.0
O142 O 0.67574 0.56166 0.46995 0.0
O143 O 0.67671 0.57787 0.49968 0.0
O144 O 0.65826 0.59645 0.42843 0.0
O145 O 0.6834 0.66377 0.4881 0.0
O146 O 0.67661 0.65201 0.45809 0.0
C147 C 0.68323 0.55534 0.4872 0.0
C148 C 0.58391 0.61743 0.47618 0.0
O149 O 0.59975 0.60768 0.46125 0.0
O150 O 0.60146 0.62523 0.49072 0.0
C151 C 0.65277 0.56993 0.41817 0.0
O152 O 0.64111 0.54111 0.42594 0.0
C153 C 0.68791 0.67198 0.47102 0.0
Zn154 Zn 0.105 0.89896 0.2428 0.0
Zn155 Zn 0.12913 0.90525 0.20809 0.0
O156 O 0.16905 0.92307 0.22523 0.0
O157 O 0.14893 0.91676 0.25408 0.0
O158 O 0.14406 0.91521 0.1813 0.0
O159 O 0.06548 0.9316 0.23786 0.0
O160 O 0.08199 0.93046 0.20828 0.0
C161 C 0.17326 0.92562 0.24305 0.0
C162 C 0.10938 0.83315 0.2225 0.0
O163 O 0.12257 0.85205 0.20954 0.0
O164 O 0.0993 0.84712 0.23776 0.0
C165 C 0.15927 0.89328 0.1707 0.0
O166 O 0.16857 0.86301 0.17777 0.0
C167 C 0.06015 0.93971 0.22081 0.0
Zn168 Zn 0.83957 0.62772 0.00864 0.0
Zn169 Zn 0.83266 0.60658 0.04388 0.0
O170 O 0.81307 0.56567 0.02807 0.0
O171 O 0.8193 0.58391 0.99884 0.0
O172 O 0.82268 0.5955 0.07116 0.0
O173 O 0.8087 0.6688 0.01231 0.0
O174 O 0.80823 0.65407 0.04222 0.0
C175 C 0.80985 0.56059 0.01035 0.0
C176 C 0.90546 0.62155 0.02876 0.0
O177 O 0.88617 0.61058 0.04216 0.0
O178 O 0.89166 0.63109 0.01334 0.0
C179 C 0.8412 0.57684 0.08208 0.0
O180 O 0.86843 0.56041 0.07515 0.0
C181 C 0.79967 0.67505 0.02911 0.0
Zn182 Zn 0.1313 0.10019 0.76317 0.0
Zn183 Zn 0.13383 0.08582 0.7983 0.0
O184 O 0.16886 0.0518 0.78562 0.0
O185 O 0.15764 0.05828 0.75549 0.0
O186 O 0.1333 0.07271 0.82584 0.0
O187 O 0.07997 0.09834 0.76194 0.0
O188 O 0.08214 0.07985 0.79125 0.0
C189 C 0.17398 0.04278 0.76849 0.0
C190 C 0.15873 0.15689 0.7844 0.0
O191 O 0.14973 0.13746 0.79817 0.0
O192 O 0.15573 0.14579 0.76768 0.0
C193 C 0.1597 0.07429 0.83664 0.0
O194 O 0.18981 0.08423 0.82959 0.0
C195 C 0.06473 0.08672 0.77641 0.0
Zn196 Zn 0.65621 0.35049 0.51877 0.0
Zn197 Zn 0.66173 0.37682 0.55308 0.0
O198 O 0.68196 0.41466 0.53523 0.0
O199 O 0.67587 0.39287 0.50675 0.0
O200 O 0.66944 0.39395 0.5797 0.0
O201 O 0.68764 0.31085 0.52531 0.0
O202 O 0.68613 0.32932 0.55456 0.0
C203 C 0.68539 0.4175 0.51736 0.0
C204 C 0.58968 0.35779 0.53792 0.0
O205 O 0.60846 0.37122 0.55083 0.0
O206 O 0.60397 0.34643 0.52302 0.0
C207 C 0.64696 0.41138 0.5889 0.0
O208 O 0.61852 0.42192 0.58025 0.0
C209 C 0.69529 0.30658 0.54251 0.0
Zn210 Zn 0.37829 0.89032 0.2709 0.0
Zn211 Zn 0.35874 0.89525 0.30626 0.0
O212 O 0.31719 0.91591 0.29106 0.0
O213 O 0.33394 0.91043 0.26153 0.0
O214 O 0.34809 0.90455 0.33364 0.0
O215 O 0.41903 0.92162 0.27435 0.0
O216 O 0.40633 0.91967 0.30449 0.0
C217 C 0.3114 0.92 0.27344 0.0
C218 C 0.37462 0.82348 0.29028 0.0
O219 O 0.36332 0.84177 0.30399 0.0
O220 O 0.38329 0.83826 0.27498 0.0
C221 C 0.32834 0.88695 0.34441 0.0
O222 O 0.31095 0.86048 0.33739 0.0
C223 C 0.42642 0.92934 0.2912 0.0
Zn224 Zn 0.62601 0.12878 0.52159 0.0
Zn225 Zn 0.62993 0.10321 0.55627 0.0
O226 O 0.64757 0.06324 0.53926 0.0
O227 O 0.64263 0.08446 0.51053 0.0
O228 O 0.63554 0.08628 0.58313 0.0
O229 O 0.66121 0.16511 0.5275 0.0
O230 O 0.66065 0.14722 0.55696 0.0
C231 C 0.65074 0.05968 0.52143 0.0
C232 C 0.55898 0.12543 0.54002 0.0
O233 O 0.57682 0.11158 0.55326 0.0
O234 O 0.57428 0.13623 0.5253 0.0
C235 C 0.62353 0.10633 0.59584 0.0
O236 O 0.60697 0.13478 0.59063 0.0
C237 C 0.67172 0.168 0.54432 0.0
Zn238 Zn 0.13263 0.35607 0.75574 0.0
Zn239 Zn 0.13042 0.3766 0.79047 0.0
O240 O 0.16267 0.41268 0.77752 0.0
O241 O 0.15664 0.39921 0.74761 0.0
O242 O 0.12597 0.3925 0.81747 0.0
O243 O 0.08115 0.35444 0.75351 0.0
O244 O 0.07966 0.37829 0.78162 0.0
C245 C 0.16855 0.41928 0.76015 0.0
C246 C 0.16048 0.30472 0.78029 0.0
O247 O 0.14929 0.32605 0.79268 0.0
O248 O 0.15906 0.31289 0.76301 0.0
C249 C 0.15096 0.39195 0.82925 0.0
O250 O 0.18189 0.38143 0.82358 0.0
C251 C 0.06393 0.36754 0.76692 0.0
Zn252 Zn 0.85849 0.86256 0.01202 0.0
Zn253 Zn 0.85604 0.87905 0.04807 0.0
O254 O 0.83657 0.92344 0.03512 0.0
O255 O 0.83842 0.90823 0.00518 0.0
O256 O 0.85175 0.88546 0.07622 0.0
O257 O 0.8259 0.82296 0.01486 0.0
O258 O 0.82623 0.83473 0.04517 0.0
C259 C 0.83099 0.93034 0.01774 0.0
C260 C 0.92661 0.8636 0.02929 0.0
O261 O 0.90919 0.87269 0.04381 0.0
O262 O 0.91069 0.85684 0.01408 0.0
C263 C 0.84607 0.91263 0.08596 0.0
O264 O 0.84352 0.94301 0.07751 0.0
C265 C 0.81565 0.8163 0.0314 0.0
Zn266 Zn 0.38086 0.60755 0.26758 0.0
Zn267 Zn 0.35746 0.59835 0.30245 0.0
O268 O 0.31595 0.58357 0.28565 0.0
O269 O 0.33556 0.59277 0.25688 0.0
O270 O 0.34357 0.58687 0.32936 0.0
O271 O 0.41757 0.57148 0.27076 0.0
O272 O 0.40156 0.56781 0.30046 0.0
C273 C 0.31141 0.58306 0.2678 0.0
C274 C 0.37891 0.67152 0.28894 0.0
O275 O 0.36583 0.65185 0.30162 0.0
O276 O 0.38891 0.65839 0.27346 0.0
C277 C 0.33513 0.60949 0.3416 0.0
O278 O 0.33212 0.6422 0.33641 0.0
C279 C 0.42137 0.55841 0.28699 0.0
Zn280 Zn 0.61695 0.85355 0.49381 0.0
Zn281 Zn 0.61948 0.8752 0.45814 0.0
O282 O 0.63925 0.91752 0.47245 0.0
O283 O 0.63558 0.89935 0.50187 0.0
O284 O 0.62131 0.8854 0.43031 0.0
O285 O 0.65123 0.81577 0.4887 0.0
O286 O 0.65029 0.83148 0.45887 0.0
C287 C 0.6437 0.92272 0.49007 0.0
C288 C 0.54921 0.85608 0.47662 0.0
O289 O 0.56681 0.86788 0.46276 0.0
O290 O 0.56484 0.8466 0.49152 0.0
C291 C 0.6449 0.90171 0.42133 0.0
O292 O 0.66987 0.91759 0.43065 0.0
C293 C 0.66159 0.81171 0.47193 0.0
Zn294 Zn 0.35204 0.39032 0.74719 0.0
Zn295 Zn 0.34287 0.39358 0.71042 0.0
O296 O 0.30461 0.42596 0.72131 0.0
O297 O 0.31779 0.42829 0.75144 0.0
O298 O 0.33981 0.39634 0.68197 0.0
O299 O 0.40189 0.40316 0.74515 0.0
O300 O 0.39341 0.40927 0.71467 0.0
C301 C 0.29889 0.43807 0.7378 0.0
C302 C 0.33105 0.32462 0.73145 0.0
O303 O 0.33389 0.34141 0.71598 0.0
O304 O 0.33653 0.33995 0.74697 0.0
C305 C 0.32071 0.41631 0.67201 0.0
O306 O 0.29905 0.43787 0.68036 0.0
C307 C 0.41324 0.41132 0.72902 0.0
Zn308 Zn 0.86431 0.13402 0.9842 0.0
Zn309 Zn 0.86044 0.10492 0.9501 0.0
O310 O 0.83993 0.06797 0.96816 0.0
O311 O 0.84557 0.09138 0.99636 0.0
O312 O 0.85621 0.0855 0.92372 0.0
O313 O 0.83061 0.17081 0.9763 0.0
O314 O 0.83208 0.1501 0.94743 0.0
C315 C 0.83622 0.06623 0.98605 0.0
C316 C 0.93158 0.12616 0.96637 0.0
O317 O 0.91352 0.11166 0.95349 0.0
O318 O 0.91643 0.13909 0.98063 0.0
C319 C 0.82662 0.08445 0.9156 0.0
O320 O 0.79869 0.09295 0.92533 0.0
C321 C 0.82121 0.17252 0.95923 0.0
Zn322 Zn 0.10404 0.61429 0.23756 0.0
Zn323 Zn 0.12794 0.61105 0.20232 0.0
O324 O 0.16982 0.59333 0.21783 0.0
O325 O 0.15013 0.59793 0.2469 0.0
O326 O 0.14103 0.6086 0.17484 0.0
O327 O 0.06813 0.5783 0.23196 0.0
O328 O 0.08544 0.57862 0.20241 0.0
C329 C 0.17435 0.58998 0.23558 0.0
C330 C 0.1051 0.68126 0.2196 0.0
O331 O 0.11843 0.66354 0.20621 0.0
O332 O 0.09511 0.66593 0.23448 0.0
C333 C 0.1588 0.58468 0.16698 0.0
O334 O 0.17279 0.55998 0.17738 0.0
C335 C 0.06532 0.56717 0.21525 0.0
Zn336 Zn 0.33082 0.85399 0.49943 0.0
Zn337 Zn 0.3243 0.87278 0.46378 0.0
O338 O 0.30435 0.91471 0.47867 0.0
O339 O 0.30996 0.8983 0.50825 0.0
O340 O 0.3158 0.88266 0.43621 0.0
O341 O 0.30058 0.81238 0.49629 0.0
O342 O 0.30029 0.82525 0.46614 0.0
C343 C 0.30073 0.9209 0.49626 0.0
C344 C 0.39693 0.85868 0.47958 0.0
O345 O 0.37769 0.86868 0.46594 0.0
O346 O 0.38309 0.85038 0.49519 0.0
C347 C 0.33487 0.90229 0.42611 0.0
O348 O 0.36044 0.91952 0.43416 0.0
C349 C 0.29202 0.80487 0.47958 0.0
Zn350 Zn 0.88163 0.57725 0.23618 0.0
Zn351 Zn 0.85961 0.57436 0.20131 0.0
O352 O 0.81844 0.55466 0.21713 0.0
O353 O 0.83685 0.55973 0.24638 0.0
O354 O 0.8474 0.56666 0.17396 0.0
O355 O 0.92055 0.54386 0.23191 0.0
O356 O 0.90686 0.54918 0.20206 0.0
C357 C 0.81334 0.55101 0.23484 0.0
C358 C 0.87991 0.64467 0.21736 0.0
O359 O 0.8659 0.62749 0.20398 0.0
O360 O 0.88951 0.62907 0.23226 0.0
C361 C 0.8293 0.58711 0.16379 0.0
O362 O 0.81491 0.61461 0.1716 0.0
C363 C 0.92742 0.53794 0.21478 0.0
Zn364 Zn 0.15002 0.12767 0.98883 0.0
Zn365 Zn 0.15608 0.10114 0.95451 0.0
O366 O 0.17592 0.06317 0.97234 0.0
O367 O 0.16933 0.08505 1.0008 0.0
O368 O 0.16435 0.08432 0.92791 0.0
O369 O 0.18205 0.16682 0.9825 0.0
O370 O 0.18147 0.14805 0.95329 0.0
C371 C 0.17909 0.06042 0.99023 0.0
C372 C 0.08382 0.12084 0.96926 0.0
O373 O 0.10273 0.10723 0.95645 0.0
O374 O 0.09794 0.13213 0.98422 0.0
C375 C 0.14215 0.06766 0.91812 0.0
O376 O 0.113 0.05746 0.92613 0.0
C377 C 0.19065 0.17064 0.96541 0.0
Zn378 Zn 0.62464 0.40178 0.74602 0.0
Zn379 Zn 0.63266 0.40598 0.70927 0.0
O380 O 0.67057 0.43828 0.72034 0.0
O381 O 0.65901 0.43944 0.75066 0.0
O382 O 0.6348 0.41252 0.6811 0.0
O383 O 0.57451 0.41406 0.74476 0.0
O384 O 0.5815 0.41872 0.71412 0.0
C385 C 0.67717 0.44973 0.73686 0.0
C386 C 0.64539 0.33635 0.72884 0.0
O387 O 0.64295 0.35378 0.71357 0.0
O388 O 0.63989 0.35125 0.74451 0.0
C389 C 0.66179 0.41202 0.6707 0.0
O390 O 0.69249 0.40663 0.67845 0.0
C391 C 0.56207 0.42054 0.72863 0.0
Zn392 Zn 0.33686 0.12534 0.52505 0.0
Zn393 Zn 0.33763 0.10016 0.5595 0.0
O394 O 0.31389 0.06239 0.54302 0.0
O395 O 0.31546 0.08298 0.51409 0.0
O396 O 0.33379 0.08252 0.58628 0.0
O397 O 0.30626 0.16485 0.53263 0.0
O398 O 0.31383 0.14792 0.5619 0.0
C399 C 0.30733 0.05896 0.52545 0.0
C400 C 0.40662 0.11923 0.54085 0.0
O401 O 0.39052 0.10533 0.55468 0.0
O402 O 0.38948 0.13019 0.52675 0.0
C403 C 0.35216 0.09801 0.59861 0.0
O404 O 0.37312 0.12315 0.59316 0.0
C405 C 0.30211 0.16999 0.55009 0.0
Zn406 Zn 0.60659 0.57734 0.26393 0.0
Zn407 Zn 0.62855 0.57127 0.29913 0.0
O408 O 0.66968 0.55279 0.28294 0.0
O409 O 0.65109 0.55886 0.25375 0.0
O410 O 0.64164 0.56284 0.32639 0.0
O411 O 0.56681 0.54501 0.26824 0.0
O412 O 0.5817 0.54549 0.29811 0.0
C413 C 0.67478 0.54992 0.26519 0.0
C414 C 0.61013 0.64333 0.28374 0.0
O415 O 0.62218 0.62447 0.29705 0.0
O416 O 0.60092 0.62924 0.26837 0.0
C417 C 0.65901 0.58426 0.3363 0.0
O418 O 0.67172 0.61225 0.32814 0.0
C419 C 0.56081 0.53622 0.28511 0.0
Zn420 Zn 0.14948 0.85738 0.01589 0.0
Zn421 Zn 0.14842 0.87542 0.05157 0.0
O422 O 0.1718 0.91759 0.03826 0.0
O423 O 0.17283 0.90122 0.00853 0.0
O424 O 0.15218 0.88322 0.07958 0.0
O425 O 0.17841 0.81523 0.02028 0.0
O426 O 0.17305 0.82792 0.05027 0.0
C427 C 0.17966 0.92358 0.02104 0.0
C428 C 0.07939 0.86316 0.03139 0.0
O429 O 0.09548 0.87229 0.04634 0.0
O430 O 0.0967 0.855 0.01682 0.0
C431 C 0.15587 0.91097 0.08912 0.0
O432 O 0.15681 0.94119 0.08042 0.0
C433 C 0.1839 0.80764 0.03736 0.0
Zn434 Zn 0.84425 0.36496 0.75166 0.0
Zn435 Zn 0.84562 0.3836 0.78719 0.0
O436 O 0.81434 0.42077 0.77446 0.0
O437 O 0.82015 0.40878 0.74435 0.0
O438 O 0.84913 0.39777 0.81447 0.0
O439 O 0.89601 0.36317 0.75042 0.0
O440 O 0.8967 0.38412 0.77922 0.0
C441 C 0.80839 0.42828 0.75721 0.0
C442 C 0.81548 0.3127 0.77563 0.0
O443 O 0.82622 0.33342 0.78841 0.0
O444 O 0.81777 0.32141 0.75844 0.0
C445 C 0.82309 0.40095 0.82543 0.0
O446 O 0.79158 0.39593 0.81865 0.0
C447 C 0.91287 0.37412 0.76451 0.0
C448 C 0.13322 0.59872 0.13553 0.0
C449 C 0.15997 0.58284 0.14611 0.0
C450 C 0.13273 0.59691 0.11583 0.0
C451 C 0.1593 0.57967 0.1058 0.0
H452 H 0.11215 0.61243 0.14252 0.0
H453 H 0.11162 0.60982 0.10841 0.0
S454 S 0.23529 0.53366 0.12675 0.0
N455 N 0.21353 0.54882 0.1451 0.0
N456 N 0.21306 0.5461 0.10794 0.0
C457 C 0.18627 0.56365 0.11615 0.0
C458 C 0.18646 0.56501 0.13632 0.0
C459 C 0.66148 0.92647 0.3898 0.0
C460 C 0.64587 0.89977 0.40046 0.0
C461 C 0.66229 0.92499 0.37 0.0
C462 C 0.64829 0.89636 0.36017 0.0
H463 H 0.6726 0.94897 0.39677 0.0
H464 H 0.67399 0.94646 0.36234 0.0
S465 S 0.60604 0.81875 0.38164 0.0
N466 N 0.61696 0.84336 0.39976 0.0
N467 N 0.61903 0.84026 0.36275 0.0
C468 C 0.63333 0.86911 0.37073 0.0
C469 C 0.63195 0.87091 0.39082 0.0
C470 C 0.35379 0.40077 0.64282 0.0
C471 C 0.32381 0.41541 0.65114 0.0
C472 C 0.35727 0.39839 0.6232 0.0
C473 C 0.33069 0.41009 0.61102 0.0
H474 H 0.37483 0.39086 0.65153 0.0
H475 H 0.38064 0.38631 0.6176 0.0
S476 S 0.2475 0.45196 0.62554 0.0
N477 N 0.26756 0.4431 0.64561 0.0
N478 N 0.27387 0.43818 0.6087 0.0
C479 C 0.30084 0.42546 0.6191 0.0
C480 C 0.29748 0.42827 0.63914 0.0
C481 C 0.7917 0.08362 0.8857 0.0
C482 C 0.82403 0.07901 0.89486 0.0
C483 C 0.78905 0.08318 0.86598 0.0
C484 C 0.81861 0.07816 0.85451 0.0
H485 H 0.76827 0.08878 0.89378 0.0
H486 H 0.76371 0.088 0.8597 0.0
S487 S 0.90881 0.06056 0.87143 0.0
N488 N 0.88583 0.06609 0.89088 0.0
N489 N 0.88088 0.06527 0.85388 0.0
C490 C 0.85083 0.07166 0.86348 0.0
C491 C 0.85353 0.07207 0.8836 0.0
C492 C 0.16385 0.39541 0.88234 0.0
C493 C 0.13119 0.40677 0.88911 0.0
C494 C 0.17037 0.392 0.86298 0.0
C495 C 0.14449 0.39965 0.84951 0.0
H496 H 0.1844 0.38807 0.89207 0.0
H497 H 0.19563 0.38216 0.85863 0.0
S498 S 0.05563 0.43384 0.85965 0.0
N499 N 0.07347 0.4283 0.88063 0.0
N500 N 0.08568 0.42186 0.84429 0.0
C501 C 0.11223 0.41266 0.85602 0.0
C502 C 0.10562 0.41625 0.87578 0.0
C503 C 0.84709 0.9395 0.11822 0.0
C504 C 0.84327 0.90977 0.10682 0.0
C505 C 0.84681 0.937 0.13797 0.0
C506 C 0.84248 0.9047 0.14717 0.0
H507 H 0.85128 0.96484 0.11186 0.0
H508 H 0.85084 0.96058 0.14605 0.0
S509 S 0.82766 0.8194 0.12377 0.0
N510 N 0.83237 0.84728 0.10621 0.0
N511 N 0.83171 0.84262 0.14321 0.0
C512 C 0.83715 0.87496 0.13592 0.0
C513 C 0.83761 0.87747 0.11581 0.0
C514 C 0.33973 0.61864 0.39475 0.0
C515 C 0.33854 0.584 0.40129 0.0
C516 C 0.33723 0.62653 0.37553 0.0
C517 C 0.33395 0.60011 0.36192 0.0
H518 H 0.34269 0.64004 0.40457 0.0
H519 H 0.33889 0.65363 0.37132 0.0
S520 S 0.32817 0.50513 0.37163 0.0
N521 N 0.33248 0.52301 0.39267 0.0
N522 N 0.32836 0.53775 0.35641 0.0
C523 C 0.33203 0.56531 0.36825 0.0
C524 C 0.33414 0.5573 0.38794 0.0
C525 C 0.61596 0.11392 0.649 0.0
C526 C 0.64177 0.09097 0.65586 0.0
C527 C 0.60997 0.11802 0.62966 0.0
C528 C 0.62935 0.09929 0.61622 0.0
H529 H 0.60027 0.12922 0.65863 0.0
H530 H 0.59 0.13631 0.62524 0.0
S531 S 0.69986 0.03553 0.62653 0.0
N532 N 0.68679 0.04889 0.6475 0.0
N533 N 0.67536 0.05656 0.61109 0.0
C534 C 0.65488 0.07577 0.62279 0.0
C535 C 0.66114 0.07165 0.64259 0.0
C536 C 0.8632 0.41104 0.85279 0.0
C537 C 0.82892 0.40692 0.84593 0.0
C538 C 0.87013 0.41307 0.87216 0.0
C539 C 0.84311 0.41092 0.88555 0.0
H540 H 0.88514 0.41173 0.84317 0.0
H541 H 0.89709 0.41502 0.87664 0.0
S542 S 0.74833 0.40432 0.87503 0.0
N543 N 0.76729 0.40391 0.85413 0.0
N544 N 0.78033 0.40763 0.89051 0.0
C545 C 0.80853 0.40862 0.87889 0.0
C546 C 0.80144 0.40666 0.85911 0.0
C547 C 0.31019 0.07209 0.64516 0.0
C548 C 0.33519 0.08256 0.65856 0.0
C549 C 0.31634 0.07591 0.62573 0.0
C550 C 0.34767 0.09047 0.61898 0.0
H551 H 0.28525 0.06176 0.64968 0.0
H552 H 0.29588 0.06852 0.61599 0.0
S553 S 0.4235 0.11768 0.648 0.0
N554 N 0.39401 0.10494 0.66349 0.0
N555 N 0.40525 0.11232 0.62713 0.0
C556 C 0.37349 0.09955 0.63217 0.0
C557 C 0.36735 0.09553 0.6519 0.0
C558 C 0.64367 0.54692 0.38539 0.0
C559 C 0.65755 0.5726 0.39737 0.0
C560 C 0.64531 0.55037 0.3657 0.0
C561 C 0.66104 0.57957 0.35713 0.0
H562 H 0.63052 0.52438 0.39123 0.0
H563 H 0.63335 0.53027 0.35717 0.0
S564 S 0.70443 0.65265 0.38216 0.0
N565 N 0.68985 0.62714 0.39917 0.0
N566 N 0.69292 0.63355 0.36229 0.0
C567 C 0.67635 0.60474 0.36895 0.0
C568 C 0.67459 0.60129 0.389 0.0
C569 C 0.16778 0.87152 0.13784 0.0
C570 C 0.16168 0.89968 0.15007 0.0
C571 C 0.16636 0.87572 0.11824 0.0
C572 C 0.15914 0.90835 0.10996 0.0
H573 H 0.17263 0.84565 0.14339 0.0
H574 H 0.1706 0.85294 0.10952 0.0
S575 S 0.14385 -0.00886 0.13569 0.0
N576 N 0.14995 0.9619 0.15248 0.0
N577 N 0.1476 0.96981 0.11558 0.0
C578 C 0.15432 0.93708 0.12199 0.0
C579 C 0.15548 0.93275 0.14203 0.0
C580 C 0.85521 0.55639 0.1148 0.0
C581 C 0.83462 0.57712 0.10277 0.0
C582 C 0.85224 0.5588 0.13446 0.0
C583 C 0.82872 0.58226 0.14298 0.0
H584 H 0.87449 0.53869 0.10904 0.0
H585 H 0.86948 0.54292 0.14302 0.0
S586 S 0.76639 0.64021 0.1179 0.0
N587 N 0.78791 0.62021 0.10091 0.0
N588 N 0.78263 0.62484 0.13781 0.0
C589 C 0.8069 0.60211 0.13115 0.0
C590 C 0.80975 0.5995 0.11109 0.0
C591 C 0.18311 0.07726 0.86959 0.0
C592 C 0.15575 0.06835 0.85727 0.0
C593 C 0.17891 0.07551 0.88921 0.0
C594 C 0.14723 0.06461 0.89739 0.0
H595 H 0.2077 0.0868 0.86411 0.0
H596 H 0.20048 0.08375 0.89801 0.0
S597 S 0.06854 0.03489 0.87136 0.0
N598 N 0.09663 0.04558 0.8547 0.0
N599 N 0.08879 0.04225 0.89151 0.0
C600 C 0.12021 0.05391 0.88523 0.0
C601 C 0.12444 0.05582 0.86522 0.0
C602 C 0.6829 0.40694 0.61837 0.0
C603 C 0.65097 0.41553 0.60964 0.0
C604 C 0.68646 0.40695 0.63806 0.0
C605 C 0.65816 0.41525 0.64988 0.0
H606 H 0.70526 0.39942 0.60995 0.0
H607 H 0.71139 0.3994 0.64402 0.0
S608 S 0.56943 0.44189 0.63418 0.0
N609 N 0.59093 0.4344 0.61443 0.0
N610 N 0.59753 0.43428 0.65134 0.0
C611 C 0.62638 0.42507 0.64134 0.0
C612 C 0.62283 0.42529 0.62127 0.0
C613 C 0.30717 0.87344 0.37707 0.0
C614 C 0.32781 0.89409 0.36505 0.0
C615 C 0.30863 0.87727 0.39671 0.0
C616 C 0.33095 0.90181 0.40524 0.0
H617 H 0.29029 0.85346 0.37133 0.0
H618 H 0.29287 0.85998 0.40527 0.0
S619 S 0.38805 0.96472 0.38012 0.0
N620 N 0.36949 0.94191 0.36315 0.0
N621 N 0.37232 0.94887 0.40001 0.0
C622 C 0.35065 0.92368 0.39338 0.0
C623 C 0.34906 0.91989 0.37334 0.0
C624 C 0.0006 0.63669 0.01641 0.0
C625 C 0.01899 0.62246 0.03179 0.0
C626 C 0.96414 0.63675 0.01585 0.0
C627 C 0.94414 0.62263 0.03065 0.0
H628 H 0.01441 0.64752 0.00443 0.0
H629 H 0.95161 0.64769 0.00348 0.0
S630 S 0.97924 0.58373 0.07477 0.0
N631 N 0.01429 0.595 0.06267 0.0
N632 N 0.94554 0.59518 0.06161 0.0
C633 C 0.96205 0.60913 0.04642 0.0
C634 C -0.00056 0.60903 0.04699 0.0
C635 C 0.59303 0.70151 0.27082 0.0
C636 C 0.60757 0.68188 0.28566 0.0
C637 C 0.59215 0.73792 0.27134 0.0
C638 C 0.60581 0.75659 0.28673 0.0
H639 H 0.58266 0.68875 0.25841 0.0
H640 H 0.58126 0.75148 0.25929 0.0
S641 S 0.64451 0.71777 0.33001 0.0
N642 N 0.63421 0.6839 0.31682 0.0
N643 N 0.63265 0.75249 0.3178 0.0
C644 C 0.61933 0.73737 0.30205 0.0
C645 C 0.62019 0.70005 0.30152 0.0
C646 C 0.49505 0.33775 0.5264 0.0
C647 C 0.4763 0.35242 0.54151 0.0
C648 C 0.53148 0.33929 0.52561 0.0
C649 C 0.55106 0.35551 0.53991 0.0
H650 H 0.48153 0.3254 0.51478 0.0
H651 H 0.54428 0.32793 0.51347 0.0
S652 S 0.51502 0.39615 0.58329 0.0
N653 N 0.4803 0.38247 0.57166 0.0
N654 N 0.54894 0.3852 0.57022 0.0
C655 C 0.53283 0.36944 0.55544 0.0
C656 C 0.49549 0.36794 0.55623 0.0
C657 C 0.82391 0.25923 0.79529 0.0
C658 C 0.80692 0.27602 0.78017 0.0
C659 C 0.82542 0.22269 0.79634 0.0
C660 C 0.81002 0.20194 0.78229 0.0
H661 H 0.83878 0.27423 0.80543 0.0
H662 H 0.84128 0.21083 0.80726 0.0
S663 S 0.75447 0.23318 0.74286 0.0
N664 N 0.76849 0.26913 0.75314 0.0
N665 N 0.77142 0.20062 0.75507 0.0
C666 C 0.78944 0.21841 0.76847 0.0
C667 C 0.78784 0.25546 0.76743 0.0
C668 C 0.96691 0.34254 0.97348 0.0
C669 C 0.94881 0.35965 0.95887 0.0
C670 C 0.00332 0.34071 0.97372 0.0
C671 C 0.02362 0.35594 0.95938 0.0
H672 H 0.95292 0.33076 0.98513 0.0
H673 H 0.01559 0.32774 0.98558 0.0
S674 S 0.98929 0.40162 0.91701 0.0
N675 N 0.95404 0.39051 0.92899 0.0
N676 N 0.02274 0.38709 0.92945 0.0
C677 C 0.00598 0.37205 0.94425 0.0
C678 C 0.9686 0.37392 0.94399 0.0
C679 C 0.86431 0.73964 0.20414 0.0
C680 C 0.88746 0.75755 0.21614 0.0
C681 C 0.86282 0.70303 0.20405 0.0
C682 C 0.88437 0.68303 0.21598 0.0
H683 H 0.84615 0.75397 0.19534 0.0
H684 H 0.84369 0.69041 0.19512 0.0
S685 S 0.95367 0.71713 0.2476 0.0
N686 N 0.93536 0.75229 0.2385 0.0
N687 N 0.93255 0.68382 0.23835 0.0
C688 C 0.9091 0.7006 0.22715 0.0
C689 C 0.91065 0.73775 0.22722 0.0
C690 C 0.48808 0.6121 0.46152 0.0
C691 C 0.47011 0.62187 0.47803 0.0
C692 C 0.52477 0.61099 0.46093 0.0
C693 C 0.54504 0.61958 0.47684 0.0
H694 H 0.47375 0.60476 0.44897 0.0
H695 H 0.53727 0.603 0.44794 0.0
S696 S 0.51087 0.64798 0.52348 0.0
N697 N 0.4757 0.64121 0.5106 0.0
N698 N 0.54411 0.63904 0.50953 0.0
C699 C 0.52736 0.62995 0.49336 0.0
C700 C 0.49012 0.63113 0.49394 0.0
C701 C 0.65974 0.24452 0.74695 0.0
C702 C 0.65417 0.22361 0.73095 0.0
C703 C 0.65872 0.28089 0.74584 0.0
C704 C 0.65206 0.29814 0.72868 0.0
H705 H 0.66364 0.23278 0.7607 0.0
H706 H 0.66195 0.29553 0.75878 0.0
S707 S 0.64063 0.25575 0.68204 0.0
N708 N 0.64548 0.22298 0.69693 0.0
N709 N 0.64353 0.29152 0.69486 0.0
C710 C 0.64898 0.27771 0.71227 0.0
C711 C 0.65003 0.24044 0.7134 0.0
C712 C 0.33393 0.26579 0.71613 0.0
C713 C 0.32378 0.28665 0.73149 0.0
C714 C 0.3326 0.22925 0.71722 0.0
C715 C 0.32101 0.21231 0.73371 0.0
H716 H 0.34482 0.27764 0.70357 0.0
H717 H 0.34268 0.21425 0.70549 0.0
S718 S 0.28445 0.25523 0.77624 0.0
N719 N 0.2967 0.28779 0.76251 0.0
N720 N 0.29414 0.21933 0.76455 0.0
C721 C 0.308 0.23296 0.74851 0.0
C722 C 0.30942 0.27006 0.74741 0.0
C723 C 0.08924 0.73859 0.23394 0.0
C724 C 0.10362 0.72001 0.21869 0.0
C725 C 0.0906 0.77498 0.23472 0.0
C726 C 0.10637 0.79467 0.22029 0.0
H727 H 0.07743 0.72495 0.24569 0.0
H728 H 0.07967 0.78765 0.24702 0.0
S729 S 0.14532 0.7591 0.17635 0.0
N730 N 0.13229 0.72433 0.18813 0.0
N731 N 0.13472 0.79285 0.18958 0.0
C732 C 0.11961 0.77662 0.20453 0.0
C733 C 0.11826 0.73934 0.20374 0.0
C734 C 0.18632 0.21134 0.77265 0.0
C735 C 0.16833 0.19395 0.78716 0.0
C736 C 0.18696 0.24772 0.7717 0.0
C737 C 0.16954 0.2682 0.7852 0.0
H738 H 0.19793 0.19677 0.76117 0.0
H739 H 0.19898 0.25976 0.7595 0.0
S740 S 0.12546 0.23547 0.82832 0.0
N741 N 0.13795 0.19987 0.81711 0.0
N742 N 0.13907 0.26851 0.81531 0.0
C743 C 0.15521 0.25127 0.80104 0.0
C744 C 0.1546 0.21401 0.80202 0.0
C745 C 0.39652 0.73022 0.27711 0.0
C746 C 0.38031 0.71011 0.29122 0.0
C747 C 0.39513 0.76661 0.2773 0.0
C748 C 0.37755 0.78486 0.29166 0.0
H749 H 0.40985 0.71781 0.26543 0.0
H750 H 0.4076 0.78048 0.26582 0.0
S751 S 0.33299 0.74503 0.33287 0.0
N752 N 0.3477 0.71145 0.32067 0.0
N753 N 0.34524 0.78008 0.32108 0.0
C754 C 0.36244 0.76531 0.30636 0.0
C755 C 0.36379 0.72796 0.30614 0.0
C756 C 0.46543 0.10607 0.5551 0.0
C757 C 0.44535 0.12276 0.5411 0.0
C758 C 0.50208 0.10795 0.55506 0.0
C759 C 0.52016 0.12666 0.54102 0.0
H760 H 0.45283 0.09082 0.56602 0.0
H761 H 0.51632 0.09389 0.56586 0.0
S762 S 0.47976 0.17801 0.5022 0.0
N763 N 0.44642 0.16071 0.51354 0.0
N764 N 0.51485 0.16433 0.51349 0.0
C765 C 0.5003 0.14456 0.52734 0.0
C766 C 0.46308 0.14258 0.52736 0.0
C767 C 0.98388 0.86935 0.04654 0.0
C768 C 0.96551 0.86221 0.02976 0.0
C769 C 0.02059 0.86943 0.04702 0.0
C770 C 0.04048 0.86237 0.03075 0.0
H771 H 0.96986 0.87517 0.05942 0.0
H772 H 0.03342 0.87522 0.06026 0.0
S773 S 0.00517 0.84207 0.98314 0.0
N774 N 0.97032 0.84776 0.99642 0.0
N775 N 0.03876 0.84798 0.99731 0.0
C776 C 0.0224 0.85498 0.0139 0.0
C777 C 0.98513 0.85487 0.01342 0.0
C778 C 0.45556 0.843 0.4925 0.0
C779 C 0.43557 0.85689 0.47762 0.0
C780 C 0.49201 0.8421 0.49173 0.0
C781 C 0.51037 0.8551 0.47603 0.0
H782 H 0.44304 0.83296 0.50508 0.0
H783 H 0.50585 0.83153 0.50377 0.0
S784 S 0.47054 0.89289 0.43279 0.0
N785 N 0.4369 0.88289 0.44629 0.0
N786 N 0.50559 0.88129 0.44483 0.0
C787 C 0.49078 0.86833 0.46078 0.0
C788 C 0.45342 0.86921 0.46156 0.0
C789 C 0.02564 0.13998 0.98131 0.0
C790 C 0.04521 0.12326 0.96717 0.0
C791 C 0.98922 0.14152 0.98054 0.0
C792 C 0.97043 0.12633 0.96561 0.0
H793 H 0.03845 0.15176 0.99334 0.0
H794 H 0.97573 0.15429 0.99205 0.0
S795 S 0.00908 0.08118 0.92424 0.0
N796 N 0.04305 0.09256 0.93717 0.0
N797 N 0.97438 0.09529 0.93575 0.0
C798 C 0.9896 0.11034 0.95101 0.0
C799 C 0.02695 0.10884 0.95179 0.0
C800 C 0.15861 0.45834 0.01082 0.0
C801 C 0.16279 0.45404 0.99119 0.0
C802 C 0.15863 0.4914 0.01903 0.0
C803 C 0.16291 0.52137 0.00793 0.0
H804 H 0.15297 0.43625 0.01984 0.0
H805 H 0.15267 0.49349 0.03393 0.0
S806 S 0.1842 0.52372 0.95682 0.0
N807 N 0.17801 0.48205 0.96152 0.0
N808 N 0.17849 0.54435 0.977 0.0
C809 C 0.1713 0.5172 0.9887 0.0
C810 C 0.17112 0.48346 0.98031 0.0
C811 C 0.77454 0.88772 0.2656 0.0
C812 C 0.77962 0.89194 0.24602 0.0
C813 C 0.74118 0.88883 0.27352 0.0
C814 C 0.71165 0.89422 0.26218 0.0
H815 H 0.79622 0.88156 0.27483 0.0
H816 H 0.73846 0.88311 0.28842 0.0
S817 S 0.71144 0.91484 0.21096 0.0
N818 N 0.75286 0.90753 0.21605 0.0
N819 N 0.69001 0.90991 0.23098 0.0
C820 C 0.71663 0.90204 0.24293 0.0
C821 C 0.75067 0.90081 0.23485 0.0
C822 C 0.32443 0.47587 0.52322 0.0
C823 C 0.33266 0.44702 0.51193 0.0
C824 C 0.32286 0.50932 0.51553 0.0
C825 C 0.32974 0.51527 0.49626 0.0
H826 H 0.3213 0.47304 0.53833 0.0
H827 H 0.31855 0.53093 0.52507 0.0
S828 S 0.3441 0.44759 0.45983 0.0
N829 N 0.34119 0.42572 0.47983 0.0
N830 N 0.3388 0.48896 0.46549 0.0
C831 C 0.33393 0.4863 0.48442 0.0
C832 C 0.33532 0.45204 0.49224 0.0
C833 C 0.76483 0.03383 0.74022 0.0
C834 C 0.77302 0.03347 0.75964 0.0
C835 C 0.73054 0.03977 0.73422 0.0
C836 C 0.70382 0.04415 0.74754 0.0
H837 H 0.78534 0.03543 0.72973 0.0
H838 H 0.72608 0.04574 0.71948 0.0
S839 S 0.70957 0.02451 0.79869 0.0
N840 N 0.75036 0.02316 0.79117 0.0
N841 N 0.68549 0.03273 0.77987 0.0
C842 C 0.71054 0.03415 0.76633 0.0
C843 C 0.74551 0.02885 0.77243 0.0
C844 C 0.80093 0.52075 0.98307 0.0
C845 C 0.80059 0.52587 1.00276 0.0
C846 C 0.80201 0.48731 0.97532 0.0
C847 C 0.80261 0.45771 0.98697 0.0
H848 H 0.8029 0.54269 0.9735 0.0
H849 H 0.80494 0.48487 0.96019 0.0
S850 S 0.79224 0.45676 0.0391 0.0
N851 N 0.79391 0.49849 0.03351 0.0
N852 N 0.7954 0.43546 0.01896 0.0
C853 C 0.79778 0.46236 0.00654 0.0
C854 C 0.79686 0.49652 0.01443 0.0
C855 C 0.2333 0.02207 0.77632 0.0
C856 C 0.20591 0.02345 0.76319 0.0
C857 C 0.26773 0.02691 0.77035 0.0
C858 C 0.27525 0.03324 0.75117 0.0
H859 H 0.22797 0.02305 0.79132 0.0
H860 H 0.28751 0.03073 0.78107 0.0
S861 S 0.21486 0.01873 0.71118 0.0
N862 N 0.19009 0.01568 0.73018 0.0
N863 N 0.25488 0.02588 0.71893 0.0
C864 C 0.24939 0.02533 0.73786 0.0
C865 C 0.21442 0.01983 0.74395 0.0
C866 C 0.69986 0.48055 0.52043 0.0
C867 C 0.69504 0.45141 0.50878 0.0
C868 C 0.69954 0.51425 0.51295 0.0
C869 C 0.6941 0.52015 0.49353 0.0
H870 H 0.70143 0.47762 0.53561 0.0
H871 H 0.70102 0.53584 0.52274 0.0
S872 S 0.68976 0.45236 0.4564 0.0
N873 N 0.69212 0.43032 0.47637 0.0
N874 N 0.69088 0.49388 0.4624 0.0
C875 C 0.69365 0.49119 0.48146 0.0
C876 C 0.69424 0.45673 0.48907 0.0
C877 C 0.2136 0.92853 0.27065 0.0
C878 C 0.208 0.93357 0.25117 0.0
C879 C 0.24733 0.92724 0.27818 0.0
C880 C 0.27668 0.93103 0.26653 0.0
H881 H 0.19197 0.92311 0.28003 0.0
H882 H 0.25034 0.92066 0.29296 0.0
S883 S 0.27599 0.95395 0.2156 0.0
N884 N 0.23443 0.94895 0.2211 0.0
N885 N 0.2979 0.94686 0.23529 0.0
C886 C 0.27135 0.94015 0.24747 0.0
C887 C 0.23697 0.94135 0.23978 0.0
C888 C 0.65794 -0.00445 0.52482 0.0
C889 C 0.65848 0.02516 0.51319 0.0
C890 C 0.65598 0.9622 0.51707 0.0
C891 C 0.65435 0.95717 0.4974 0.0
H892 H 0.6566 -0.00192 0.54001 0.0
H893 H 0.65352 0.94042 0.52671 0.0
S894 S 0.66414 0.02566 0.46084 0.0
N895 N 0.66426 0.04704 0.48103 0.0
N896 N 0.66006 0.98413 0.46649 0.0
C897 C 0.6589 0.98624 0.48561 0.0
C898 C 0.6611 0.02031 0.49351 0.0
C899 C 0.22194 0.45294 0.76765 0.0
C900 C 0.19591 0.44429 0.75454 0.0
C901 C 0.25621 0.45857 0.7616 0.0
C902 C 0.2651 0.45476 0.74239 0.0
H903 H 0.2172 0.45033 0.78265 0.0
H904 H 0.27636 0.4603 0.77228 0.0
S905 S 0.20274 0.45178 0.70252 0.0
N906 N 0.17832 0.44716 0.72155 0.0
N907 N 0.24315 0.45654 0.71021 0.0
C908 C 0.23789 0.45515 0.72915 0.0
C909 C 0.20292 0.45003 0.73528 0.0
C910 C 0.8318 -0.00548 0.02239 0.0
C911 C 0.82163 0.96579 0.0115 0.0
C912 C 0.8337 0.02778 0.01437 0.0
C913 C 0.82559 0.0333 0.99519 0.0
H914 H 0.84122 0.99093 0.03668 0.0
H915 H 0.84415 0.04866 0.02293 0.0
S916 S 0.78828 0.9682 0.96234 0.0
N917 N 0.79631 0.94611 0.98187 0.0
N918 N 0.80029 0.00868 0.96673 0.0
C919 C 0.81138 0.00558 0.98487 0.0
C920 C 0.80923 0.97177 0.99307 0.0
C921 C 0.24692 0.57904 0.27114 0.0
C922 C 0.27662 0.57609 0.25969 0.0
C923 C 0.21363 0.58113 0.26319 0.0
C924 C 0.2088 0.58039 0.24347 0.0
H925 H 0.24942 0.58211 0.28627 0.0
H926 H 0.19178 0.58536 0.27261 0.0
S927 S 0.27757 0.56464 0.20766 0.0
N928 N 0.29875 0.56626 0.22792 0.0
N929 N 0.23602 0.5705 0.21295 0.0
C930 C 0.23795 0.57386 0.232 0.0
C931 C 0.27192 0.57163 0.24012 0.0
C932 C 0.29319 -0.00387 0.52997 0.0
C933 C 0.29531 0.02506 0.51789 0.0
C934 C 0.29126 0.96235 0.52275 0.0
C935 C 0.29163 0.95617 0.50315 0.0
H936 H 0.29556 -0.00073 0.5451 0.0
H937 H 0.29214 0.94089 0.53268 0.0
S938 S 0.28689 0.0235 0.46565 0.0
N939 N 0.28998 0.04579 0.48547 0.0
N940 N 0.28695 0.98206 0.47192 0.0
C941 C 0.28921 0.98499 0.49099 0.0
C942 C 0.29095 0.01953 0.49835 0.0
C943 C 0.71544 0.54357 0.23793 0.0
C944 C 0.7097 0.54116 0.25755 0.0
C945 C 0.74919 0.54379 0.23043 0.0
C946 C 0.7785 0.54148 0.24224 0.0
H947 H 0.69386 0.54762 0.2283 0.0
H948 H 0.75222 0.54823 0.21543 0.0
S949 S 0.77751 0.52576 0.29398 0.0
N950 N 0.73599 0.53004 0.2882 0.0
N951 N 0.79953 0.53001 0.2741 0.0
C952 C 0.77306 0.53505 0.26162 0.0
C953 C 0.73862 0.53498 0.26927 0.0
C954 C 0.18247 0.9877 0.02604 0.0
C955 C 0.19051 0.95869 0.01481 0.0
C956 C 0.18183 0.02122 0.01827 0.0
C957 C 0.18909 0.02684 0.999 0.0
H958 H 0.17371 0.98432 0.04045 0.0
H959 H 0.17294 0.04237 0.02716 0.0
S960 S 0.22141 0.9607 0.96517 0.0
N961 N 0.21334 0.93856 0.98466 0.0
N962 N 0.21165 0.00163 0.97002 0.0
C963 C 0.20141 -0.00134 0.9883 0.0
C964 C 0.2023 0.96453 0.99624 0.0
C965 C 0.75578 0.46263 0.76564 0.0
C966 C 0.78098 0.45374 0.75209 0.0
C967 C 0.7213 0.46907 0.76014 0.0
C968 C 0.71136 0.46589 0.74106 0.0
H969 H 0.76125 0.45967 0.78055 0.0
H970 H 0.70173 0.47093 0.77113 0.0
S971 S 0.77152 0.46237 0.70024 0.0
N972 N 0.79685 0.45686 0.71887 0.0
N973 N 0.73164 0.46787 0.70857 0.0
C974 C 0.73788 0.46601 0.72742 0.0
C975 C 0.77307 0.45998 0.73299 0.0
C976 C 0.21018 0.75181 0.02737 0.0
C977 C 0.19522 0.77183 0.04186 0.0
C978 C 0.20592 0.71572 0.02703 0.0
C979 C 0.18685 0.69872 0.04123 0.0
H980 H 0.2214 0.76435 0.01509 0.0
H981 H 0.21403 0.70171 0.01451 0.0
S982 S 0.15433 0.73795 0.0856 0.0
N983 N 0.16958 0.77118 0.0733 0.0
N984 N 0.16166 0.70299 0.07263 0.0
C985 C 0.17791 0.71752 0.05751 0.0
C986 C 0.18217 0.75442 0.05785 0.0
C987 C 0.51567 0.91976 0.31038 0.0
C988 C 0.53504 0.92882 0.29428 0.0
C989 C 0.47959 0.92564 0.31092 0.0
C990 C 0.46234 0.94053 0.29533 0.0
H991 H 0.52734 0.90405 0.32142 0.0
H992 H 0.46481 0.91409 0.32235 0.0
S993 S 0.50404 0.98095 0.2536 0.0
N994 N 0.53653 0.96245 0.26523 0.0
N995 N 0.46863 0.97358 0.26627 0.0
C996 C 0.48259 0.95573 0.28103 0.0
C997 C 0.51916 0.94971 0.28046 0.0
C998 C 0.2756 0.22704 0.5429 0.0
C999 C 0.29265 0.20554 0.55608 0.0
C1000 C 0.28271 0.26267 0.54217 0.0
C1001 C 0.30642 0.27776 0.55485 0.0
H1002 H 0.2607 0.21564 0.53147 0.0
H1003 H 0.27291 0.27757 0.53029 0.0
S1004 S 0.34713 0.23502 0.59622 0.0
N1005 N 0.32614 0.2034 0.58526 0.0
N1006 N 0.33915 0.27081 0.58397 0.0
C1007 C 0.31786 0.25797 0.57032 0.0
C1008 C 0.31083 0.22151 0.57099 0.0
C1009 C 0.97082 0.08689 0.79272 0.0
C1010 C 0.95252 0.08649 0.77553 0.0
C1011 C 0.00734 0.08527 0.79303 0.0
C1012 C 0.02652 0.08317 0.77617 0.0
H1013 H 0.95699 0.08999 0.80594 0.0
H1014 H 0.0206 0.08726 0.80648 0.0
S1015 S 0.99048 0.07497 0.72778 0.0
N1016 N 0.95594 0.07932 0.74148 0.0
N1017 N 0.02445 0.07624 0.74207 0.0
C1018 C 0.00836 0.08037 0.75902 0.0
C1019 C 0.97135 0.08205 0.7587 0.0
C1020 C 0.21766 0.2271 0.97322 0.0
C1021 C 0.20301 0.20528 0.95943 0.0
C1022 C 0.21268 0.26309 0.97239 0.0
C1023 C 0.19332 0.27814 0.95764 0.0
H1024 H 0.22877 0.21608 0.98597 0.0
H1025 H 0.22023 0.2786 0.98448 0.0
S1026 S 0.16158 0.23355 0.91467 0.0
N1027 N 0.17751 0.202 0.92802 0.0
N1028 N 0.1683 0.27003 0.92646 0.0
C1029 C 0.18493 0.25747 0.94198 0.0
C1030 C 0.1899 0.22067 0.94285 0.0
C1031 C 0.96643 0.95277 0.22926 0.0
C1032 C 0.95274 0.93342 0.21417 0.0
C1033 C 0.0018 0.96136 0.2298 0.0
C1034 C 0.02442 0.95021 0.21541 0.0
H1035 H 0.95077 0.95761 0.24172 0.0
H1036 H 0.0122 0.97224 0.24273 0.0
S1037 S -0.00186 0.91163 0.16962 0.0
N1038 N 0.96176 0.91308 0.18209 0.0
N1039 N 0.02863 0.92906 0.1831 0.0
C1040 C 0.00956 0.93759 0.19858 0.0
C1041 C 0.97338 0.92897 0.19801 0.0
C1042 C 0.30321 0.71701 0.45907 0.0
C1043 C 0.29725 0.69657 0.47521 0.0
C1044 C 0.2956 0.7527 0.45921 0.0
C1045 C 0.28209 0.76859 0.47554 0.0
H1046 H 0.31764 0.70652 0.44722 0.0
H1047 H 0.30475 0.76839 0.4475 0.0
S1048 S 0.24938 0.72341 0.5182 0.0
N1049 N 0.26777 0.69238 0.50548 0.0
N1050 N 0.25344 0.75958 0.50573 0.0
C1051 C 0.26994 0.74712 0.49017 0.0
C1052 C 0.27774 0.71092 0.49005 0.0
C1053 C 0.47239 0.09089 0.75525 0.0
C1054 C 0.45265 0.09084 0.73855 0.0
C1055 C 0.50864 0.09292 0.75472 0.0
C1056 C 0.52662 0.09496 0.73748 0.0
H1057 H 0.45976 0.09085 0.76892 0.0
H1058 H 0.52251 0.09425 0.76802 0.0
S1059 S 0.48744 0.09011 0.68967 0.0
N1060 N 0.45382 0.08874 0.7042 0.0
N1061 N 0.52237 0.09257 0.70323 0.0
C1062 C 0.50747 0.09208 0.72062 0.0
C1063 C 0.47034 0.09001 0.72116 0.0
C1064 C 0.77562 0.25685 0.96514 0.0
C1065 C 0.79237 0.27673 0.95117 0.0
C1066 C 0.7808 0.2209 0.96614 0.0
C1067 C 0.80243 0.20394 0.95305 0.0
H1068 H 0.76255 0.26959 0.97681 0.0
H1069 H 0.77136 0.20711 0.97848 0.0
S1070 S 0.84092 0.24252 0.90992 0.0
N1071 N 0.82287 0.27576 0.92106 0.0
N1072 N 0.83235 0.20777 0.92289 0.0
C1073 C 0.81327 0.22238 0.93698 0.0
C1074 C 0.80813 0.25914 0.936 0.0
C1075 C 0.67288 0.76039 0.45165 0.0
C1076 C 0.68204 0.78043 0.46745 0.0
C1077 C 0.68033 0.72466 0.45122 0.0
C1078 C 0.69689 0.70841 0.46664 0.0
H1079 H 0.65619 0.77119 0.44076 0.0
H1080 H 0.6689 0.70924 0.44002 0.0
S1081 S 0.73774 0.75266 0.50743 0.0
N1082 N 0.71706 0.78397 0.49594 0.0
N1083 N 0.73128 0.71676 0.49509 0.0
C1084 C 0.71191 0.72956 0.48058 0.0
C1085 C 0.70422 0.76576 0.48106 0.0
C1086 C 0.80126 0.72673 0.04992 0.0
C1087 C 0.78781 0.71051 0.03368 0.0
C1088 C 0.80586 0.76291 0.05041 0.0
C1089 C 0.79695 0.78344 0.0347 0.0
H1090 H 0.81256 0.71131 0.06119 0.0
H1091 H 0.82038 0.77403 0.06204 0.0
S1092 S 0.74843 0.75456 0.99233 0.0
N1093 N 0.75645 0.71834 0.00419 0.0
N1094 N 0.76498 0.78647 0.00512 0.0
C1095 C 0.77755 0.76818 0.02009 0.0
C1096 C 0.77291 0.73149 0.0196 0.0
C1097 C 0.72073 0.24925 0.53496 0.0
C1098 C 0.70581 0.27133 0.54855 0.0
C1099 C 0.71384 0.21354 0.5352 0.0
C1100 C 0.6923 0.19902 0.54918 0.0
H1101 H 0.7336 0.26012 0.52268 0.0
H1102 H 0.72185 0.19808 0.52317 0.0
S1103 S 0.65842 0.24372 0.59165 0.0
N1104 N 0.67729 0.27484 0.57919 0.0
N1105 N 0.66452 0.20736 0.57965 0.0
C1106 C 0.68336 0.21956 0.56481 0.0
C1107 C 0.69027 0.25606 0.56453 0.0
C1108 C 0.97008 0.38724 0.77966 0.0
C1109 C 0.95138 0.3737 0.76427 0.0
C1110 C 0.00648 0.38544 0.78031 0.0
C1111 C 0.02557 0.36999 0.76559 0.0
H1112 H 0.95656 0.39906 0.79146 0.0
H1113 H 0.01964 0.39601 0.79255 0.0
S1114 S 0.98906 0.33113 0.72184 0.0
N1115 N 0.95471 0.34478 0.73374 0.0
N1116 N 0.02309 0.34136 0.73495 0.0
C1117 C 0.00724 0.35677 0.74994 0.0
C1118 C 0.97016 0.35865 0.74928 0.0
C1119 C 0.47332 0.5448 0.30645 0.0
C1120 C 0.45272 0.53736 0.29058 0.0
C1121 C 0.50933 0.53837 0.30612 0.0
C1122 C 0.52526 0.52461 0.28985 0.0
H1123 H 0.46266 0.55977 0.31805 0.0
H1124 H 0.52506 0.54881 0.31748 0.0
S1125 S 0.48001 0.48825 0.24816 0.0
N1126 N 0.44867 0.50624 0.26085 0.0
N1127 N 0.5164 0.49402 0.26025 0.0
C1128 C 0.50377 0.5108 0.27569 0.0
C1129 C 0.46729 0.51741 0.276 0.0
C1130 C 0.46864 0.43137 0.74326 0.0
C1131 C 0.45026 0.42094 0.72708 0.0
C1132 C 0.50488 0.43395 0.74313 0.0
C1133 C 0.52417 0.42612 0.72683 0.0
H1134 H 0.4551 0.43596 0.75644 0.0
H1135 H 0.51794 0.4403 0.75623 0.0
S1136 S 0.48803 0.40348 0.67984 0.0
N1137 N 0.45346 0.40727 0.69361 0.0
N1138 N 0.52206 0.41207 0.69335 0.0
C1139 C 0.50599 0.41891 0.71003 0.0
C1140 C 0.46884 0.4163 0.71016 0.0
C1141 C 0.98514 0.51588 0.22467 0.0
C1142 C 0.96356 0.5279 0.20998 0.0
C1143 C 0.02045 0.52471 0.22511 0.0
C1144 C 0.03519 0.54502 0.21067 0.0
H1145 H 0.97384 0.50407 0.23715 0.0
H1146 H 0.03519 0.51908 0.23781 0.0
S1147 S -0.00687 0.56942 0.1655 0.0
N1148 N 0.96173 0.55104 0.17797 0.0
N1149 N 0.02852 0.56734 0.17876 0.0
C1150 C 0.01576 0.55046 0.19414 0.0
C1151 C 0.97963 0.54166 0.19374 0.0
loop_
_geom_bond_atom_site_label_1
_geom_bond_atom_site_label_2
_geom_bond_distance
_geom_bond_site_symmetry_2
_ccdc_geom_bond_type
Zn0 O3 2.031 . S
Zn0 O5 2.049 . S
Zn0 O10 2.067 . S
Zn1 O2 1.962 . S
Zn1 O4 1.986 . S
Zn1 O6 1.996 . S
Zn1 O9 1.943 . S
O2 Zn1 1.962 . S
O2 C7 1.254 . S
O3 Zn0 2.031 . S
O3 C7 1.269 . S
O4 Zn1 1.986 . S
O4 C11 1.262 . S
O5 Zn0 2.049 . S
O5 C13 1.260 . S
O6 Zn1 1.996 . S
O6 C13 1.257 . S
C7 O2 1.254 . S
C7 O3 1.269 . S
C8 O9 1.249 . S
C8 O10 1.270 . S
O9 Zn1 1.943 . S
O9 C8 1.249 . S
O10 Zn0 2.067 . S
O10 C8 1.270 . S
C11 O4 1.262 . S
C11 O12 1.232 . S
O12 C11 1.232 . S
C13 O5 1.260 . S
C13 O6 1.257 . S
Zn14 O17 2.031 . S
Zn14 O19 2.049 . S
Zn14 O24 2.067 . S
Zn15 O16 1.962 . S
Zn15 O18 1.986 . S
Zn15 O20 1.996 . S
Zn15 O23 1.943 . S
O16 Zn15 1.962 . S
O16 C21 1.254 . S
O17 Zn14 2.031 . S
O17 C21 1.269 . S
O18 Zn15 1.986 . S
O18 C25 1.262 . S
O19 Zn14 2.049 . S
O19 C27 1.260 . S
O20 Zn15 1.996 . S
O20 C27 1.257 . S
C21 O16 1.254 . S
C21 O17 1.269 . S
C22 O23 1.249 . S
C22 O24 1.270 . S
O23 Zn15 1.943 . S
O23 C22 1.249 . S
O24 Zn14 2.067 . S
O24 C22 1.270 . S
C25 O18 1.262 . S
C25 O26 1.232 . S
O26 C25 1.232 . S
C27 O19 1.260 . S
C27 O20 1.257 . S
Zn28 O31 2.031 . S
Zn28 O33 2.049 . S
Zn28 O38 2.067 . S
Zn29 O30 1.962 . S
Zn29 O32 1.986 . S
Zn29 O34 1.996 . S
Zn29 O37 1.943 . S
O30 Zn29 1.962 . S
O30 C35 1.254 . S
O31 Zn28 2.031 . S
O31 C35 1.269 . S
O32 Zn29 1.986 . S
O32 C39 1.262 . S
O33 Zn28 2.049 . S
O33 C41 1.260 . S
O34 Zn29 1.996 . S
O34 C41 1.257 . S
C35 O30 1.254 . S
C35 O31 1.269 . S
C36 O37 1.249 . S
C36 O38 1.270 . S
O37 Zn29 1.943 . S
O37 C36 1.249 . S
O38 Zn28 2.067 . S
O38 C36 1.270 . S
C39 O32 1.262 . S
C39 O40 1.232 . S
O40 C39 1.232 . S
C41 O33 1.260 . S
C41 O34 1.257 . S
Zn42 O45 2.031 . S
Zn42 O47 2.049 . S
Zn42 O52 2.067 . S
Zn43 O44 1.962 . S
Zn43 O46 1.986 . S
Zn43 O48 1.996 . S
Zn43 O51 1.943 . S
O44 Zn43 1.962 . S
O44 C49 1.254 . S
O45 Zn42 2.031 . S
O45 C49 1.269 . S
O46 Zn43 1.986 . S
O46 C53 1.262 . S
O47 Zn42 2.049 . S
O47 C55 1.260 . S
O48 Zn43 1.996 . S
O48 C55 1.257 . S
C49 O44 1.254 . S
C49 O45 1.269 . S
C50 O51 1.249 . S
C50 O52 1.270 . S
O51 Zn43 1.943 . S
O51 C50 1.249 . S
O52 Zn42 2.067 . S
O52 C50 1.270 . S
C53 O46 1.262 . S
C53 O54 1.232 . S
O54 C53 1.232 . S
C55 O47 1.260 . S
C55 O48 1.257 . S
Zn56 O59 2.031 . S
Zn56 O61 2.049 . S
Zn56 O66 2.067 . S
Zn57 O58 1.962 . S
Zn57 O60 1.986 . S
Zn57 O62 1.996 . S
Zn57 O65 1.943 . S
O58 Zn57 1.962 . S
O58 C63 1.254 . S
O59 Zn56 2.031 . S
O59 C63 1.269 . S
O60 Zn57 1.986 . S
O60 C67 1.262 . S
O61 Zn56 2.049 . S
O61 C69 1.260 . S
O62 Zn57 1.996 . S
O62 C69 1.257 . S
C63 O58 1.254 . S
C63 O59 1.269 . S
C64 O65 1.249 . S
C64 O66 1.270 . S
O65 Zn57 1.943 . S
O65 C64 1.249 . S
O66 Zn56 2.067 . S
O66 C64 1.270 . S
C67 O60 1.262 . S
C67 O68 1.232 . S
O68 C67 1.232 . S
C69 O61 1.260 . S
C69 O62 1.257 . S
Zn70 O73 2.031 . S
Zn70 O75 2.049 . S
Zn70 O80 2.067 . S
Zn71 O72 1.962 . S
Zn71 O74 1.986 . S
Zn71 O76 1.996 . S
Zn71 O79 1.943 . S
O72 Zn71 1.962 . S
O72 C77 1.254 . S
O73 Zn70 2.031 . S
O73 C77 1.269 . S
O74 Zn71 1.986 . S
O74 C81 1.262 . S
O75 Zn70 2.049 . S
O75 C83 1.260 . S
O76 Zn71 1.996 . S
O76 C83 1.257 . S
C77 O72 1.254 . S
C77 O73 1.269 . S
C78 O79 1.249 . S
C78 O80 1.270 . S
O79 Zn71 1.943 . S
O79 C78 1.249 . S
O80 Zn70 2.067 . S
O80 C78 1.270 . S
C81 O74 1.262 . S
C81 O82 1.232 . S
O82 C81 1.232 . S
C83 O75 1.260 . S
C83 O76 1.257 . S
Zn84 O87 2.031 . S
Zn84 O89 2.049 . S
Zn84 O94 2.067 . S
Zn85 O86 1.962 . S
Zn85 O88 1.986 . S
Zn85 O90 1.996 . S
Zn85 O93 1.943 . S
O86 Zn85 1.962 . S
O86 C91 1.254 . S
O87 Zn84 2.031 . S
O87 C91 1.269 . S
O88 Zn85 1.986 . S
O88 C95 1.262 . S
O89 Zn84 2.049 . S
O89 C97 1.260 . S
O90 Zn85 1.996 . S
O90 C97 1.257 . S
C91 O86 1.254 . S
C91 O87 1.269 . S
C92 O93 1.249 . S
C92 O94 1.270 . S
O93 Zn85 1.943 . S
O93 C92 1.249 . S
O94 Zn84 2.067 . S
O94 C92 1.270 . S
C95 O88 1.262 . S
C95 O96 1.232 . S
O96 C95 1.232 . S
C97 O89 1.260 . S
C97 O90 1.257 . S
Zn98 O101 2.031 . S
Zn98 O103 2.049 . S
Zn98 O108 2.067 . S
Zn99 O100 1.962 . S
Zn99 O102 1.986 . S
Zn99 O104 1.996 . S
Zn99 O107 1.943 . S
O100 Zn99 1.962 . S
O100 C105 1.254 . S
O101 Zn98 2.031 . S
O101 C105 1.269 . S
O102 Zn99 1.986 . S
O102 C109 1.262 . S
O103 Zn98 2.049 . S
O103 C111 1.260 . S
O104 Zn99 1.996 . S
O104 C111 1.257 . S
C105 O100 1.254 . S
C105 O101 1.269 . S
C106 O107 1.249 . S
C106 O108 1.270 . S
O107 Zn99 1.943 . S
O107 C106 1.249 . S
O108 Zn98 2.067 . S
O108 C106 1.270 . S
C109 O102 1.262 . S
C109 O110 1.232 . S
O110 C109 1.232 . S
C111 O103 1.260 . S
C111 O104 1.257 . S
Zn112 O115 2.031 . S
Zn112 O117 2.049 . S
Zn112 O122 2.067 . S
Zn113 O114 1.962 . S
Zn113 O116 1.986 . S
Zn113 O118 1.996 . S
Zn113 O121 1.943 . S
O114 Zn113 1.962 . S
O114 C119 1.254 . S
O115 Zn112 2.031 . S
O115 C119 1.269 . S
O116 Zn113 1.986 . S
O116 C123 1.262 . S
O117 Zn112 2.049 . S
O117 C125 1.260 . S
O118 Zn113 1.996 . S
O118 C125 1.257 . S
C119 O114 1.254 . S
C119 O115 1.269 . S
C120 O121 1.249 . S
C120 O122 1.270 . S
O121 Zn113 1.943 . S
O121 C120 1.249 . S
O122 Zn112 2.067 . S
O122 C120 1.270 . S
C123 O116 1.262 . S
C123 O124 1.232 . S
O124 C123 1.232 . S
C125 O117 1.260 . S
C125 O118 1.257 . S
Zn126 O129 2.031 . S
Zn126 O131 2.049 . S
Zn126 O136 2.067 . S
Zn127 O128 1.962 . S
Zn127 O130 1.986 . S
Zn127 O132 1.996 . S
Zn127 O135 1.943 . S
O128 Zn127 1.962 . S
O128 C133 1.254 . S
O129 Zn126 2.031 . S
O129 C133 1.269 . S
O130 Zn127 1.986 . S
O130 C137 1.262 . S
O131 Zn126 2.049 . S
O131 C139 1.260 . S
O132 Zn127 1.996 . S
O132 C139 1.257 . S
C133 O128 1.254 . S
C133 O129 1.269 . S
C134 O135 1.249 . S
C134 O136 1.270 . S
O135 Zn127 1.943 . S
O135 C134 1.249 . S
O136 Zn126 2.067 . S
O136 C134 1.270 . S
C137 O130 1.262 . S
C137 O138 1.232 . S
O138 C137 1.232 . S
C139 O131 1.260 . S
C139 O132 1.257 . S
Zn140 O143 2.031 . S
Zn140 O145 2.049 . S
Zn140 O150 2.067 . S
Zn141 O142 1.962 . S
Zn141 O144 1.986 . S
Zn141 O146 1.996 . S
Zn141 O149 1.943 . S
O142 Zn141 1.962 . S
O142 C147 1.254 . S
O143 Zn140 2.031 . S
O143 C147 1.269 . S
O144 Zn141 1.986 . S
O144 C151 1.262 . S
O145 Zn140 2.049 . S
O145 C153 1.260 . S
O146 Zn141 1.996 . S
O146 C153 1.257 . S
C147 O142 1.254 . S
C147 O143 1.269 . S
C148 O149 1.249 . S
C148 O150 1.270 . S
O149 Zn141 1.943 . S
O149 C148 1.249 . S
O150 Zn140 2.067 . S
O150 C148 1.270 . S
C151 O144 1.262 . S
C151 O152 1.232 . S
O152 C151 1.232 . S
C153 O145 1.260 . S
C153 O146 1.257 . S
Zn154 O157 2.031 . S
Zn154 O159 2.049 . S
Zn154 O164 2.067 . S
Zn155 O156 1.962 . S
Zn155 O158 1.986 . S
Zn155 O160 1.996 . S
Zn155 O163 1.943 . S
O156 Zn155 1.962 . S
O156 C161 1.254 . S
O157 Zn154 2.031 . S
O157 C161 1.269 . S
O158 Zn155 1.986 . S
O158 C165 1.262 . S
O159 Zn154 2.049 . S
O159 C167 1.260 . S
O160 Zn155 1.996 . S
O160 C167 1.257 . S
C161 O156 1.254 . S
C161 O157 1.269 . S
C162 O163 1.249 . S
C162 O164 1.270 . S
O163 Zn155 1.943 . S
O163 C162 1.249 . S
O164 Zn154 2.067 . S
O164 C162 1.270 . S
C165 O158 1.262 . S
C165 O166 1.232 . S
O166 C165 1.232 . S
C167 O159 1.260 . S
C167 O160 1.257 . S
Zn168 O171 2.031 . S
Zn168 O173 2.049 . S
Zn168 O178 2.067 . S
Zn169 O170 1.962 . S
Zn169 O172 1.986 . S
Zn169 O174 1.996 . S
Zn169 O177 1.943 . S
O170 Zn169 1.962 . S
O170 C175 1.254 . S
O171 Zn168 2.031 . S
O171 C175 1.269 . S
O172 Zn169 1.986 . S
O172 C179 1.262 . S
O173 Zn168 2.049 . S
O173 C181 1.260 . S
O174 Zn169 1.996 . S
O174 C181 1.257 . S
C175 O170 1.254 . S
C175 O171 1.269 . S
C176 O177 1.249 . S
C176 O178 1.270 . S
O177 Zn169 1.943 . S
O177 C176 1.249 . S
O178 Zn168 2.067 . S
O178 C176 1.270 . S
C179 O172 1.262 . S
C179 O180 1.232 . S
O180 C179 1.232 . S
C181 O173 1.260 . S
C181 O174 1.257 . S
Zn182 O185 2.031 . S
Zn182 O187 2.049 . S
Zn182 O192 2.067 . S
Zn183 O184 1.962 . S
Zn183 O186 1.986 . S
Zn183 O188 1.996 . S
Zn183 O191 1.943 . S
O184 Zn183 1.962 . S
O184 C189 1.254 . S
O185 Zn182 2.031 . S
O185 C189 1.269 . S
O186 Zn183 1.986 . S
O186 C193 1.262 . S
O187 Zn182 2.049 . S
O187 C195 1.260 . S
O188 Zn183 1.996 . S
O188 C195 1.257 . S
C189 O184 1.254 . S
C189 O185 1.269 . S
C190 O191 1.249 . S
C190 O192 1.270 . S
O191 Zn183 1.943 . S
O191 C190 1.249 . S
O192 Zn182 2.067 . S
O192 C190 1.270 . S
C193 O186 1.262 . S
C193 O194 1.232 . S
O194 C193 1.232 . S
C195 O187 1.260 . S
C195 O188 1.257 . S
Zn196 O199 2.031 . S
Zn196 O201 2.049 . S
Zn196 O206 2.067 . S
Zn197 O198 1.962 . S
Zn197 O200 1.986 . S
Zn197 O202 1.996 . S
Zn197 O205 1.943 . S
O198 Zn197 1.962 . S
O198 C203 1.254 . S
O199 Zn196 2.031 . S
O199 C203 1.269 . S
O200 Zn197 1.986 . S
O200 C207 1.262 . S
O201 Zn196 2.049 . S
O201 C209 1.260 . S
O202 Zn197 1.996 . S
O202 C209 1.257 . S
C203 O198 1.254 . S
C203 O199 1.269 . S
C204 O205 1.249 . S
C204 O206 1.270 . S
O205 Zn197 1.943 . S
O205 C204 1.249 . S
O206 Zn196 2.067 . S
O206 C204 1.270 . S
C207 O200 1.262 . S
C207 O208 1.232 . S
O208 C207 1.232 . S
C209 O201 1.260 . S
C209 O202 1.257 . S
Zn210 O213 2.031 . S
Zn210 O215 2.049 . S
Zn210 O220 2.067 . S
Zn211 O212 1.962 . S
Zn211 O214 1.986 . S
Zn211 O216 1.996 . S
Zn211 O219 1.943 . S
O212 Zn211 1.962 . S
O212 C217 1.254 . S
O213 Zn210 2.031 . S
O213 C217 1.269 . S
O214 Zn211 1.986 . S
O214 C221 1.262 . S
O215 Zn210 2.049 . S
O215 C223 1.260 . S
O216 Zn211 1.996 . S
O216 C223 1.257 . S
C217 O212 1.254 . S
C217 O213 1.269 . S
C218 O219 1.249 . S
C218 O220 1.270 . S
O219 Zn211 1.943 . S
O219 C218 1.249 . S
O220 Zn210 2.067 . S
O220 C218 1.270 . S
C221 O214 1.262 . S
C221 O222 1.232 . S
O222 C221 1.232 . S
C223 O215 1.260 . S
C223 O216 1.257 . S
Zn224 O227 2.031 . S
Zn224 O229 2.049 . S
Zn224 O234 2.067 . S
Zn225 O226 1.962 . S
Zn225 O228 1.986 . S
Zn225 O230 1.996 . S
Zn225 O233 1.943 . S
O226 Zn225 1.962 . S
O226 C231 1.254 . S
O227 Zn224 2.031 . S
O227 C231 1.269 . S
O228 Zn225 1.986 . S
O228 C235 1.262 . S
O229 Zn224 2.049 . S
O229 C237 1.260 . S
O230 Zn225 1.996 . S
O230 C237 1.257 . S
C231 O226 1.254 . S
C231 O227 1.269 . S
C232 O233 1.249 . S
C232 O234 1.270 . S
O233 Zn225 1.943 . S
O233 C232 1.249 . S
O234 Zn224 2.067 . S
O234 C232 1.270 . S
C235 O228 1.262 . S
C235 O236 1.232 . S
O236 C235 1.232 . S
C237 O229 1.260 . S
C237 O230 1.257 . S
Zn238 O241 2.031 . S
Zn238 O243 2.049 . S
Zn238 O248 2.067 . S
Zn239 O240 1.962 . S
Zn239 O242 1.986 . S
Zn239 O244 1.996 . S
Zn239 O247 1.943 . S
O240 Zn239 1.962 . S
O240 C245 1.254 . S
O241 Zn238 2.031 . S
O241 C245 1.269 . S
O242 Zn239 1.986 . S
O242 C249 1.262 . S
O243 Zn238 2.049 . S
O243 C251 1.260 . S
O244 Zn239 1.996 . S
O244 C251 1.257 . S
C245 O240 1.254 . S
C245 O241 1.269 . S
C246 O247 1.249 . S
C246 O248 1.270 . S
O247 Zn239 1.943 . S
O247 C246 1.249 . S
O248 Zn238 2.067 . S
O248 C246 1.270 . S
C249 O242 1.262 . S
C249 O250 1.232 . S
O250 C249 1.232 . S
C251 O243 1.260 . S
C251 O244 1.257 . S
Zn252 O255 2.031 . S
Zn252 O257 2.049 . S
Zn252 O262 2.067 . S
Zn253 O254 1.962 . S
Zn253 O256 1.986 . S
Zn253 O258 1.996 . S
Zn253 O261 1.943 . S
O254 Zn253 1.962 . S
O254 C259 1.254 . S
O255 Zn252 2.031 . S
O255 C259 1.269 . S
O256 Zn253 1.986 . S
O256 C263 1.262 . S
O257 Zn252 2.049 . S
O257 C265 1.260 . S
O258 Zn253 1.996 . S
O258 C265 1.257 . S
C259 O254 1.254 . S
C259 O255 1.269 . S
C260 O261 1.249 . S
C260 O262 1.270 . S
O261 Zn253 1.943 . S
O261 C260 1.249 . S
O262 Zn252 2.067 . S
O262 C260 1.270 . S
C263 O256 1.262 . S
C263 O264 1.232 . S
O264 C263 1.232 . S
C265 O257 1.260 . S
C265 O258 1.257 . S
Zn266 O269 2.031 . S
Zn266 O271 2.049 . S
Zn266 O276 2.067 . S
Zn267 O268 1.962 . S
Zn267 O270 1.986 . S
Zn267 O272 1.996 . S
Zn267 O275 1.943 . S
O268 Zn267 1.962 . S
O268 C273 1.254 . S
O269 Zn266 2.031 . S
O269 C273 1.269 . S
O270 Zn267 1.986 . S
O270 C277 1.262 . S
O271 Zn266 2.049 . S
O271 C279 1.260 . S
O272 Zn267 1.996 . S
O272 C279 1.257 . S
C273 O268 1.254 . S
C273 O269 1.269 . S
C274 O275 1.249 . S
C274 O276 1.270 . S
O275 Zn267 1.943 . S
O275 C274 1.249 . S
O276 Zn266 2.067 . S
O276 C274 1.270 . S
C277 O270 1.262 . S
C277 O278 1.232 . S
O278 C277 1.232 . S
C279 O271 1.260 . S
C279 O272 1.257 . S
Zn280 O283 2.031 . S
Zn280 O285 2.049 . S
Zn280 O290 2.067 . S
Zn281 O282 1.962 . S
Zn281 O284 1.986 . S
Zn281 O286 1.996 . S
Zn281 O289 1.943 . S
O282 Zn281 1.962 . S
O282 C287 1.254 . S
O283 Zn280 2.031 . S
O283 C287 1.269 . S
O284 Zn281 1.986 . S
O284 C291 1.262 . S
O285 Zn280 2.049 . S
O285 C293 1.260 . S
O286 Zn281 1.996 . S
O286 C293 1.257 . S
C287 O282 1.254 . S
C287 O283 1.269 . S
C288 O289 1.249 . S
C288 O290 1.270 . S
O289 Zn281 1.943 . S
O289 C288 1.249 . S
O290 Zn280 2.067 . S
O290 C288 1.270 . S
C291 O284 1.262 . S
C291 O292 1.232 . S
O292 C291 1.232 . S
C293 O285 1.260 . S
C293 O286 1.257 . S
Zn294 O297 2.031 . S
Zn294 O299 2.049 . S
Zn294 O304 2.067 . S
Zn295 O296 1.962 . S
Zn295 O298 1.986 . S
Zn295 O300 1.996 . S
Zn295 O303 1.943 . S
O296 Zn295 1.962 . S
O296 C301 1.254 . S
O297 Zn294 2.031 . S
O297 C301 1.269 . S
O298 Zn295 1.986 . S
O298 C305 1.262 . S
O299 Zn294 2.049 . S
O299 C307 1.260 . S
O300 Zn295 1.996 . S
O300 C307 1.257 . S
C301 O296 1.254 . S
C301 O297 1.269 . S
C302 O303 1.249 . S
C302 O304 1.270 . S
O303 Zn295 1.943 . S
O303 C302 1.249 . S
O304 Zn294 2.067 . S
O304 C302 1.270 . S
C305 O298 1.262 . S
C305 O306 1.232 . S
O306 C305 1.232 . S
C307 O299 1.260 . S
C307 O300 1.257 . S
Zn308 O311 2.031 . S
Zn308 O313 2.049 . S
Zn308 O318 2.067 . S
Zn309 O310 1.962 . S
Zn309 O312 1.986 . S
Zn309 O314 1.996 . S
Zn309 O317 1.943 . S
O310 Zn309 1.962 . S
O310 C315 1.254 . S
O311 Zn308 2.031 . S
O311 C315 1.269 . S
O312 Zn309 1.986 . S
O312 C319 1.262 . S
O313 Zn308 2.049 . S
O313 C321 1.260 . S
O314 Zn309 1.996 . S
O314 C321 1.257 . S
C315 O310 1.254 . S
C315 O311 1.269 . S
C316 O317 1.249 . S
C316 O318 1.270 . S
O317 Zn309 1.943 . S
O317 C316 1.249 . S
O318 Zn308 2.067 . S
O318 C316 1.270 . S
C319 O312 1.262 . S
C319 O320 1.232 . S
O320 C319 1.232 . S
C321 O313 1.260 . S
C321 O314 1.257 . S
Zn322 O325 2.031 . S
Zn322 O327 2.049 . S
Zn322 O332 2.067 . S
Zn323 O324 1.962 . S
Zn323 O326 1.986 . S
Zn323 O328 1.996 . S
Zn323 O331 1.943 . S
O324 Zn323 1.962 . S
O324 C329 1.254 . S
O325 Zn322 2.031 . S
O325 C329 1.269 . S
O326 Zn323 1.986 . S
O326 C333 1.262 . S
O327 Zn322 2.049 . S
O327 C335 1.260 . S
O328 Zn323 1.996 . S
O328 C335 1.257 . S
C329 O324 1.254 . S
C329 O325 1.269 . S
C330 O331 1.249 . S
C330 O332 1.270 . S
O331 Zn323 1.943 . S
O331 C330 1.249 . S
O332 Zn322 2.067 . S
O332 C330 1.270 . S
C333 O326 1.262 . S
C333 O334 1.232 . S
O334 C333 1.232 . S
C335 O327 1.260 . S
C335 O328 1.257 . S
Zn336 O339 2.031 . S
Zn336 O341 2.049 . S
Zn336 O346 2.067 . S
Zn337 O338 1.962 . S
Zn337 O340 1.986 . S
Zn337 O342 1.996 . S
Zn337 O345 1.943 . S
O338 Zn337 1.962 . S
O338 C343 1.254 . S
O339 Zn336 2.031 . S
O339 C343 1.269 . S
O340 Zn337 1.986 . S
O340 C347 1.262 . S
O341 Zn336 2.049 . S
O341 C349 1.260 . S
O342 Zn337 1.996 . S
O342 C349 1.257 . S
C343 O338 1.254 . S
C343 O339 1.269 . S
C344 O345 1.249 . S
C344 O346 1.270 . S
O345 Zn337 1.943 . S
O345 C344 1.249 . S
O346 Zn336 2.067 . S
O346 C344 1.270 . S
C347 O340 1.262 . S
C347 O348 1.232 . S
O348 C347 1.232 . S
C349 O341 1.260 . S
C349 O342 1.257 . S
Zn350 O353 2.031 . S
Zn350 O355 2.049 . S
Zn350 O360 2.067 . S
Zn351 O352 1.962 . S
Zn351 O354 1.986 . S
Zn351 O356 1.996 . S
Zn351 O359 1.943 . S
O352 Zn351 1.962 . S
O352 C357 1.254 . S
O353 Zn350 2.031 . S
O353 C357 1.269 . S
O354 Zn351 1.986 . S
O354 C361 1.262 . S
O355 Zn350 2.049 . S
O355 C363 1.260 . S
O356 Zn351 1.996 . S
O356 C363 1.257 . S
C357 O352 1.254 . S
C357 O353 1.269 . S
C358 O359 1.249 . S
C358 O360 1.270 . S
O359 Zn351 1.943 . S
O359 C358 1.249 . S
O360 Zn350 2.067 . S
O360 C358 1.270 . S
C361 O354 1.262 . S
C361 O362 1.232 . S
O362 C361 1.232 . S
C363 O355 1.260 . S
C363 O356 1.257 . S
Zn364 O367 2.031 . S
Zn364 O369 2.049 . S
Zn364 O374 2.067 . S
Zn365 O366 1.962 . S
Zn365 O368 1.986 . S
Zn365 O370 1.996 . S
Zn365 O373 1.943 . S
O366 Zn365 1.962 . S
O366 C371 1.254 . S
O367 Zn364 2.031 . S
O367 C371 1.269 . S
O368 Zn365 1.986 . S
O368 C375 1.262 . S
O369 Zn364 2.049 . S
O369 C377 1.260 . S
O370 Zn365 1.996 . S
O370 C377 1.257 . S
C371 O366 1.254 . S
C371 O367 1.269 . S
C372 O373 1.249 . S
C372 O374 1.270 . S
O373 Zn365 1.943 . S
O373 C372 1.249 . S
O374 Zn364 2.067 . S
O374 C372 1.270 . S
C375 O368 1.262 . S
C375 O376 1.232 . S
O376 C375 1.232 . S
C377 O369 1.260 . S
C377 O370 1.257 . S
Zn378 O381 2.031 . S
Zn378 O383 2.049 . S
Zn378 O388 2.067 . S
Zn379 O380 1.962 . S
Zn379 O382 1.986 . S
Zn379 O384 1.996 . S
Zn379 O387 1.943 . S
O380 Zn379 1.962 . S
O380 C385 1.254 . S
O381 Zn378 2.031 . S
O381 C385 1.269 . S
O382 Zn379 1.986 . S
O382 C389 1.262 . S
O383 Zn378 2.049 . S
O383 C391 1.260 . S
O384 Zn379 1.996 . S
O384 C391 1.257 . S
C385 O380 1.254 . S
C385 O381 1.269 . S
C386 O387 1.249 . S
C386 O388 1.270 . S
O387 Zn379 1.943 . S
O387 C386 1.249 . S
O388 Zn378 2.067 . S
O388 C386 1.270 . S
C389 O382 1.262 . S
C389 O390 1.232 . S
O390 C389 1.232 . S
C391 O383 1.260 . S
C391 O384 1.257 . S
Zn392 O395 2.031 . S
Zn392 O397 2.049 . S
Zn392 O402 2.067 . S
Zn393 O394 1.962 . S
Zn393 O396 1.986 . S
Zn393 O398 1.996 . S
Zn393 O401 1.943 . S
O394 Zn393 1.962 . S
O394 C399 1.254 . S
O395 Zn392 2.031 . S
O395 C399 1.269 . S
O396 Zn393 1.986 . S
O396 C403 1.262 . S
O397 Zn392 2.049 . S
O397 C405 1.260 . S
O398 Zn393 1.996 . S
O398 C405 1.257 . S
C399 O394 1.254 . S
C399 O395 1.269 . S
C400 O401 1.249 . S
C400 O402 1.270 . S
O401 Zn393 1.943 . S
O401 C400 1.249 . S
O402 Zn392 2.067 . S
O402 C400 1.270 . S
C403 O396 1.262 . S
C403 O404 1.232 . S
O404 C403 1.232 . S
C405 O397 1.260 . S
C405 O398 1.257 . S
Zn406 O409 2.031 . S
Zn406 O411 2.049 . S
Zn406 O416 2.067 . S
Zn407 O408 1.962 . S
Zn407 O410 1.986 . S
Zn407 O412 1.996 . S
Zn407 O415 1.943 . S
O408 Zn407 1.962 . S
O408 C413 1.254 . S
O409 Zn406 2.031 . S
O409 C413 1.269 . S
O410 Zn407 1.986 . S
O410 C417 1.262 . S
O411 Zn406 2.049 . S
O411 C419 1.260 . S
O412 Zn407 1.996 . S
O412 C419 1.257 . S
C413 O408 1.254 . S
C413 O409 1.269 . S
C414 O415 1.249 . S
C414 O416 1.270 . S
O415 Zn407 1.943 . S
O415 C414 1.249 . S
O416 Zn406 2.067 . S
O416 C414 1.270 . S
C417 O410 1.262 . S
C417 O418 1.232 . S
O418 C417 1.232 . S
C419 O411 1.260 . S
C419 O412 1.257 . S
Zn420 O423 2.031 . S
Zn420 O425 2.049 . S
Zn420 O430 2.067 . S
Zn421 O422 1.962 . S
Zn421 O424 1.986 . S
Zn421 O426 1.996 . S
Zn421 O429 1.943 . S
O422 Zn421 1.962 . S
O422 C427 1.254 . S
O423 Zn420 2.031 . S
O423 C427 1.269 . S
O424 Zn421 1.986 . S
O424 C431 1.262 . S
O425 Zn420 2.049 . S
O425 C433 1.260 . S
O426 Zn421 1.996 . S
O426 C433 1.257 . S
C427 O422 1.254 . S
C427 O423 1.269 . S
C428 O429 1.249 . S
C428 O430 1.270 . S
O429 Zn421 1.943 . S
O429 C428 1.249 . S
O430 Zn420 2.067 . S
O430 C428 1.270 . S
C431 O424 1.262 . S
C431 O432 1.232 . S
O432 C431 1.232 . S
C433 O425 1.260 . S
C433 O426 1.257 . S
Zn434 O437 2.031 . S
Zn434 O439 2.049 . S
Zn434 O444 2.067 . S
Zn435 O436 1.962 . S
Zn435 O438 1.986 . S
Zn435 O440 1.996 . S
Zn435 O443 1.943 . S
O436 Zn435 1.962 . S
O436 C441 1.254 . S
O437 Zn434 2.031 . S
O437 C441 1.269 . S
O438 Zn435 1.986 . S
O438 C445 1.262 . S
O439 Zn434 2.049 . S
O439 C447 1.260 . S
O440 Zn435 1.996 . S
O440 C447 1.257 . S
C441 O436 1.254 . S
C441 O437 1.269 . S
C442 O443 1.249 . S
C442 O444 1.270 . S
O443 Zn435 1.943 . S
O443 C442 1.249 . S
O444 Zn434 2.067 . S
O444 C442 1.270 . S
C445 O438 1.262 . S
C445 O446 1.232 . S
O446 C445 1.232 . S
C447 O439 1.260 . S
C447 O440 1.257 . S
C448 C449 1.369 . S
C448 C450 1.419 . S
C448 H452 0.930 . S
C449 C448 1.369 . S
C449 C458 1.429 . S
C450 C448 1.419 . S
C450 C451 1.363 . S
C450 H453 0.929 . S
C451 C450 1.363 . S
C451 C457 1.428 . S
H452 C448 0.930 . S
H453 C450 0.929 . S
S454 N455 1.613 . S
S454 N456 1.610 . S
N455 S454 1.613 . S
N455 C458 1.350 . S
N456 S454 1.610 . S
N456 C457 1.351 . S
C457 C451 1.428 . S
C457 N456 1.351 . S
C457 C458 1.434 . S
C458 C449 1.429 . S
C458 N455 1.350 . S
C458 C457 1.434 . S
C459 C460 1.369 . S
C459 C461 1.419 . S
C459 H463 0.930 . S
C460 C459 1.369 . S
C460 C469 1.429 . S
C461 C459 1.419 . S
C461 C462 1.363 . S
C461 H464 0.929 . S
C462 C461 1.363 . S
C462 C468 1.428 . S
H463 C459 0.930 . S
H464 C461 0.929 . S
S465 N466 1.613 . S
S465 N467 1.610 . S
N466 S465 1.613 . S
N466 C469 1.350 . S
N467 S465 1.610 . S
N467 C468 1.351 . S
C468 C462 1.428 . S
C468 N467 1.351 . S
C468 C469 1.434 . S
C469 C460 1.429 . S
C469 N466 1.350 . S
C469 C468 1.434 . S
C470 C471 1.369 . S
C470 C472 1.419 . S
C470 H474 0.930 . S
C471 C470 1.369 . S
C471 C480 1.429 . S
C472 C470 1.419 . S
C472 C473 1.363 . S
C472 H475 0.929 . S
C473 C472 1.363 . S
C473 C479 1.428 . S
H474 C470 0.930 . S
H475 C472 0.929 . S
S476 N477 1.613 . S
S476 N478 1.610 . S
N477 S476 1.613 . S
N477 C480 1.350 . S
N478 S476 1.610 . S
N478 C479 1.351 . S
C479 C473 1.428 . S
C479 N478 1.351 . S
C479 C480 1.434 . S
C480 C471 1.429 . S
C480 N477 1.350 . S
C480 C479 1.434 . S
C481 C482 1.369 . S
C481 C483 1.419 . S
C481 H485 0.930 . S
C482 C481 1.369 . S
C482 C491 1.429 . S
C483 C481 1.419 . S
C483 C484 1.363 . S
C483 H486 0.929 . S
C484 C483 1.363 . S
C484 C490 1.428 . S
H485 C481 0.930 . S
H486 C483 0.929 . S
S487 N488 1.613 . S
S487 N489 1.610 . S
N488 S487 1.613 . S
N488 C491 1.350 . S
N489 S487 1.610 . S
N489 C490 1.351 . S
C490 C484 1.428 . S
C490 N489 1.351 . S
C490 C491 1.434 . S
C491 C482 1.429 . S
C491 N488 1.350 . S
C491 C490 1.434 . S
C492 C493 1.369 . S
C492 C494 1.419 . S
C492 H496 0.930 . S
C493 C492 1.369 . S
C493 C502 1.429 . S
C494 C492 1.419 . S
C494 C495 1.363 . S
C494 H497 0.929 . S
C495 C494 1.363 . S
C495 C501 1.428 . S
H496 C492 0.930 . S
H497 C494 0.929 . S
S498 N499 1.613 . S
S498 N500 1.610 . S
N499 S498 1.613 . S
N499 C502 1.350 . S
N500 S498 1.610 . S
N500 C501 1.351 . S
C501 C495 1.428 . S
C501 N500 1.351 . S
C501 C502 1.434 . S
C502 C493 1.429 . S
C502 N499 1.350 . S
C502 C501 1.434 . S
C503 C504 1.369 . S
C503 C505 1.419 . S
C503 H507 0.930 . S
C504 C503 1.369 . S
C504 C513 1.429 . S
C505 C503 1.419 . S
C505 C506 1.363 . S
C505 H508 0.929 . S
C506 C505 1.363 . S
C506 C512 1.428 . S
H507 C503 0.930 . S
H508 C505 0.929 . S
S509 N510 1.613 . S
S509 N511 1.610 . S
N510 S509 1.613 . S
N510 C513 1.350 . S
N511 S509 1.610 . S
N511 C512 1.351 . S
C512 C506 1.428 . S
C512 N511 1.351 . S
C512 C513 1.434 . S
C513 C504 1.429 . S
C513 N510 1.350 . S
C513 C512 1.434 . S
C514 C515 1.369 . S
C514 C516 1.419 . S
C514 H518 0.930 . S
C515 C514 1.369 . S
C515 C524 1.429 . S
C516 C514 1.419 . S
C516 C517 1.363 . S
C516 H519 0.929 . S
C517 C516 1.363 . S
C517 C523 1.428 . S
H518 C514 0.930 . S
H519 C516 0.929 . S
S520 N521 1.613 . S
S520 N522 1.610 . S
N521 S520 1.613 . S
N521 C524 1.350 . S
N522 S520 1.610 . S
N522 C523 1.351 . S
C523 C517 1.428 . S
C523 N522 1.351 . S
C523 C524 1.434 . S
C524 C515 1.429 . S
C524 N521 1.350 . S
C524 C523 1.434 . S
C525 C526 1.369 . S
C525 C527 1.419 . S
C525 H529 0.930 . S
C526 C525 1.369 . S
C526 C535 1.429 . S
C527 C525 1.419 . S
C527 C528 1.363 . S
C527 H530 0.929 . S
C528 C527 1.363 . S
C528 C534 1.428 . S
H529 C525 0.930 . S
H530 C527 0.929 . S
S531 N532 1.613 . S
S531 N533 1.610 . S
N532 S531 1.613 . S
N532 C535 1.350 . S
N533 S531 1.610 . S
N533 C534 1.351 . S
C534 C528 1.428 . S
C534 N533 1.351 . S
C534 C535 1.434 . S
C535 C526 1.429 . S
C535 N532 1.350 . S
C535 C534 1.434 . S
C536 C537 1.369 . S
C536 C538 1.419 . S
C536 H540 0.930 . S
C537 C536 1.369 . S
C537 C546 1.429 . S
C538 C536 1.419 . S
C538 C539 1.363 . S
C538 H541 0.929 . S
C539 C538 1.363 . S
C539 C545 1.428 . S
H540 C536 0.930 . S
H541 C538 0.929 . S
S542 N543 1.613 . S
S542 N544 1.610 . S
N543 S542 1.613 . S
N543 C546 1.350 . S
N544 S542 1.610 . S
N544 C545 1.351 . S
C545 C539 1.428 . S
C545 N544 1.351 . S
C545 C546 1.434 . S
C546 C537 1.429 . S
C546 N543 1.350 . S
C546 C545 1.434 . S
C547 C548 1.369 . S
C547 C549 1.419 . S
C547 H551 0.930 . S
C548 C547 1.369 . S
C548 C557 1.429 . S
C549 C547 1.419 . S
C549 C550 1.363 . S
C549 H552 0.929 . S
C550 C549 1.363 . S
C550 C556 1.428 . S
H551 C547 0.930 . S
H552 C549 0.929 . S
S553 N554 1.613 . S
S553 N555 1.610 . S
N554 S553 1.613 . S
N554 C557 1.350 . S
N555 S553 1.610 . S
N555 C556 1.351 . S
C556 C550 1.428 . S
C556 N555 1.351 . S
C556 C557 1.434 . S
C557 C548 1.429 . S
C557 N554 1.350 . S
C557 C556 1.434 . S
C558 C559 1.369 . S
C558 C560 1.419 . S
C558 H562 0.930 . S
C559 C558 1.369 . S
C559 C568 1.429 . S
C560 C558 1.419 . S
C560 C561 1.363 . S
C560 H563 0.929 . S
C561 C560 1.363 . S
C561 C567 1.428 . S
H562 C558 0.930 . S
H563 C560 0.929 . S
S564 N565 1.613 . S
S564 N566 1.610 . S
N565 S564 1.613 . S
N565 C568 1.350 . S
N566 S564 1.610 . S
N566 C567 1.351 . S
C567 C561 1.428 . S
C567 N566 1.351 . S
C567 C568 1.434 . S
C568 C559 1.429 . S
C568 N565 1.350 . S
C568 C567 1.434 . S
C569 C570 1.369 . S
C569 C571 1.419 . S
C569 H573 0.930 . S
C570 C569 1.369 . S
C570 C579 1.429 . S
C571 C569 1.419 . S
C571 C572 1.363 . S
C571 H574 0.929 . S
C572 C571 1.363 . S
C572 C578 1.428 . S
H573 C569 0.930 . S
H574 C571 0.929 . S
S575 N576 1.613 1_545 S
S575 N577 1.610 1_545 S
N576 S575 1.613 1_565 S
N576 C579 1.350 . S
N577 S575 1.610 1_565 S
N577 C578 1.351 . S
C578 C572 1.428 . S
C578 N577 1.351 . S
C578 C579 1.434 . S
C579 C570 1.429 . S
C579 N576 1.350 . S
C579 C578 1.434 . S
C580 C581 1.369 . S
C580 C582 1.419 . S
C580 H584 0.930 . S
C581 C580 1.369 . S
C581 C590 1.429 . S
C582 C580 1.419 . S
C582 C583 1.363 . S
C582 H585 0.929 . S
C583 C582 1.363 . S
C583 C589 1.428 . S
H584 C580 0.930 . S
H585 C582 0.929 . S
S586 N587 1.613 . S
S586 N588 1.610 . S
N587 S586 1.613 . S
N587 C590 1.350 . S
N588 S586 1.610 . S
N588 C589 1.351 . S
C589 C583 1.428 . S
C589 N588 1.351 . S
C589 C590 1.434 . S
C590 C581 1.429 . S
C590 N587 1.350 . S
C590 C589 1.434 . S
C591 C592 1.369 . S
C591 C593 1.419 . S
C591 H595 0.930 . S
C592 C591 1.369 . S
C592 C601 1.429 . S
C593 C591 1.419 . S
C593 C594 1.363 . S
C593 H596 0.929 . S
C594 C593 1.363 . S
C594 C600 1.428 . S
H595 C591 0.930 . S
H596 C593 0.929 . S
S597 N598 1.613 . S
S597 N599 1.610 . S
N598 S597 1.613 . S
N598 C601 1.350 . S
N599 S597 1.610 . S
N599 C600 1.351 . S
C600 C594 1.428 . S
C600 N599 1.351 . S
C600 C601 1.434 . S
C601 C592 1.429 . S
C601 N598 1.350 . S
C601 C600 1.434 . S
C602 C603 1.369 . S
C602 C604 1.419 . S
C602 H606 0.930 . S
C603 C602 1.369 . S
C603 C612 1.429 . S
C604 C602 1.419 . S
C604 C605 1.363 . S
C604 H607 0.929 . S
C605 C604 1.363 . S
C605 C611 1.428 . S
H606 C602 0.930 . S
H607 C604 0.929 . S
S608 N609 1.613 . S
S608 N610 1.610 . S
N609 S608 1.613 . S
N609 C612 1.350 . S
N610 S608 1.610 . S
N610 C611 1.351 . S
C611 C605 1.428 . S
C611 N610 1.351 . S
C611 C612 1.434 . S
C612 C603 1.429 . S
C612 N609 1.350 . S
C612 C611 1.434 . S
C613 C614 1.369 . S
C613 C615 1.419 . S
C613 H617 0.930 . S
C614 C613 1.369 . S
C614 C623 1.429 . S
C615 C613 1.419 . S
C615 C616 1.363 . S
C615 H618 0.929 . S
C616 C615 1.363 . S
C616 C622 1.428 . S
H617 C613 0.930 . S
H618 C615 0.929 . S
S619 N620 1.613 . S
S619 N621 1.610 . S
N620 S619 1.613 . S
N620 C623 1.350 . S
N621 S619 1.610 . S
N621 C622 1.351 . S
C622 C616 1.428 . S
C622 N621 1.351 . S
C622 C623 1.434 . S
C623 C614 1.429 . S
C623 N620 1.350 . S
C623 C622 1.434 . S
C624 C625 1.369 . S
C624 C626 1.419 1_455 S
C624 H628 0.930 . S
C625 C624 1.369 . S
C625 C634 1.429 . S
C626 C624 1.419 1_655 S
C626 C627 1.363 . S
C626 H629 0.929 . S
C627 C626 1.363 . S
C627 C633 1.428 . S
H628 C624 0.930 . S
H629 C626 0.929 . S
S630 N631 1.615 1_655 S
S630 N632 1.608 . S
N631 S630 1.615 1_455 S
N631 C634 1.350 . S
N632 S630 1.608 . S
N632 C633 1.351 . S
C633 C627 1.428 . S
C633 N632 1.351 . S
C633 C634 1.434 1_655 S
C634 C625 1.429 . S
C634 N631 1.350 . S
C634 C633 1.434 1_455 S
C635 C636 1.369 . S
C635 C637 1.419 . S
C635 H639 0.930 . S
C636 C635 1.369 . S
C636 C645 1.429 . S
C637 C635 1.419 . S
C637 C638 1.363 . S
C637 H640 0.929 . S
C638 C637 1.363 . S
C638 C644 1.428 . S
H639 C635 0.930 . S
H640 C637 0.929 . S
S641 N642 1.613 . S
S641 N643 1.610 . S
N642 S641 1.613 . S
N642 C645 1.350 . S
N643 S641 1.610 . S
N643 C644 1.351 . S
C644 C638 1.428 . S
C644 N643 1.351 . S
C644 C645 1.434 . S
C645 C636 1.429 . S
C645 N642 1.350 . S
C645 C644 1.434 . S
C646 C647 1.369 . S
C646 C648 1.419 . S
C646 H650 0.930 . S
C647 C646 1.369 . S
C647 C656 1.429 . S
C648 C646 1.419 . S
C648 C649 1.363 . S
C648 H651 0.929 . S
C649 C648 1.363 . S
C649 C655 1.428 . S
H650 C646 0.930 . S
H651 C648 0.929 . S
S652 N653 1.613 . S
S652 N654 1.610 . S
N653 S652 1.613 . S
N653 C656 1.350 . S
N654 S652 1.610 . S
N654 C655 1.351 . S
C655 C649 1.428 . S
C655 N654 1.351 . S
C655 C656 1.434 . S
C656 C647 1.429 . S
C656 N653 1.350 . S
C656 C655 1.434 . S
C657 C658 1.369 . S
C657 C659 1.419 . S
C657 H661 0.930 . S
C658 C657 1.369 . S
C658 C667 1.429 . S
C659 C657 1.419 . S
C659 C660 1.363 . S
C659 H662 0.929 . S
C660 C659 1.363 . S
C660 C666 1.428 . S
H661 C657 0.930 . S
H662 C659 0.929 . S
S663 N664 1.613 . S
S663 N665 1.610 . S
N664 S663 1.613 . S
N664 C667 1.350 . S
N665 S663 1.610 . S
N665 C666 1.351 . S
C666 C660 1.428 . S
C666 N665 1.351 . S
C666 C667 1.434 . S
C667 C658 1.429 . S
C667 N664 1.350 . S
C667 C666 1.434 . S
C668 C669 1.369 . S
C668 C670 1.419 1_655 S
C668 H672 0.930 . S
C669 C668 1.369 . S
C669 C678 1.429 . S
C670 C668 1.419 1_455 S
C670 C671 1.363 . S
C670 H673 0.929 . S
C671 C670 1.363 . S
C671 C677 1.428 . S
H672 C668 0.930 . S
H673 C670 0.929 . S
S674 N675 1.615 1_455 S
S674 N676 1.608 . S
N675 S674 1.615 1_655 S
N675 C678 1.350 . S
N676 S674 1.608 . S
N676 C677 1.351 . S
C677 C671 1.428 . S
C677 N676 1.351 . S
C677 C678 1.434 1_455 S
C678 C669 1.429 . S
C678 N675 1.350 . S
C678 C677 1.434 1_655 S
C679 C680 1.369 . S
C679 C681 1.419 . S
C679 H683 0.930 . S
C680 C679 1.369 . S
C680 C689 1.429 . S
C681 C679 1.419 . S
C681 C682 1.363 . S
C681 H684 0.929 . S
C682 C681 1.363 . S
C682 C688 1.428 . S
H683 C679 0.930 . S
H684 C681 0.929 . S
S685 N686 1.613 . S
S685 N687 1.610 . S
N686 S685 1.613 . S
N686 C689 1.350 . S
N687 S685 1.610 . S
N687 C688 1.351 . S
C688 C682 1.428 . S
C688 N687 1.351 . S
C688 C689 1.434 . S
C689 C680 1.429 . S
C689 N686 1.350 . S
C689 C688 1.434 . S
C690 C691 1.369 . S
C690 C692 1.419 . S
C690 H694 0.930 . S
C691 C690 1.369 . S
C691 C700 1.429 . S
C692 C690 1.419 . S
C692 C693 1.363 . S
C692 H695 0.929 . S
C693 C692 1.363 . S
C693 C699 1.428 . S
H694 C690 0.930 . S
H695 C692 0.929 . S
S696 N697 1.613 . S
S696 N698 1.610 . S
N697 S696 1.613 . S
N697 C700 1.350 . S
N698 S696 1.610 . S
N698 C699 1.351 . S
C699 C693 1.428 . S
C699 N698 1.351 . S
C699 C700 1.434 . S
C700 C691 1.429 . S
C700 N697 1.350 . S
C700 C699 1.434 . S
C701 C702 1.369 . S
C701 C703 1.419 . S
C701 H705 0.930 . S
C702 C701 1.369 . S
C702 C711 1.429 . S
C703 C701 1.419 . S
C703 C704 1.363 . S
C703 H706 0.929 . S
C704 C703 1.363 . S
C704 C710 1.428 . S
H705 C701 0.930 . S
H706 C703 0.929 . S
S707 N708 1.613 . S
S707 N709 1.610 . S
N708 S707 1.613 . S
N708 C711 1.350 . S
N709 S707 1.610 . S
N709 C710 1.351 . S
C710 C704 1.428 . S
C710 N709 1.351 . S
C710 C711 1.434 . S
C711 C702 1.429 . S
C711 N708 1.350 . S
C711 C710 1.434 . S
C712 C713 1.369 . S
C712 C714 1.419 . S
C712 H716 0.930 . S
C713 C712 1.369 . S
C713 C722 1.429 . S
C714 C712 1.419 . S
C714 C715 1.363 . S
C714 H717 0.929 . S
C715 C714 1.363 . S
C715 C721 1.428 . S
H716 C712 0.930 . S
H717 C714 0.929 . S
S718 N719 1.613 . S
S718 N720 1.610 . S
N719 S718 1.613 . S
N719 C722 1.350 . S
N720 S718 1.610 . S
N720 C721 1.351 . S
C721 C715 1.428 . S
C721 N720 1.351 . S
C721 C722 1.434 . S
C722 C713 1.429 . S
C722 N719 1.350 . S
C722 C721 1.434 . S
C723 C724 1.369 . S
C723 C725 1.419 . S
C723 H727 0.930 . S
C724 C723 1.369 . S
C724 C733 1.429 . S
C725 C723 1.419 . S
C725 C726 1.363 . S
C725 H728 0.929 . S
C726 C725 1.363 . S
C726 C732 1.428 . S
H727 C723 0.930 . S
H728 C725 0.929 . S
S729 N730 1.613 . S
S729 N731 1.610 . S
N730 S729 1.613 . S
N730 C733 1.350 . S
N731 S729 1.610 . S
N731 C732 1.351 . S
C732 C726 1.428 . S
C732 N731 1.351 . S
C732 C733 1.434 . S
C733 C724 1.429 . S
C733 N730 1.350 . S
C733 C732 1.434 . S
C734 C735 1.369 . S
C734 C736 1.419 . S
C734 H738 0.930 . S
C735 C734 1.369 . S
C735 C744 1.429 . S
C736 C734 1.419 . S
C736 C737 1.363 . S
C736 H739 0.929 . S
C737 C736 1.363 . S
C737 C743 1.428 . S
H738 C734 0.930 . S
H739 C736 0.929 . S
S740 N741 1.613 . S
S740 N742 1.610 . S
N741 S740 1.613 . S
N741 C744 1.350 . S
N742 S740 1.610 . S
N742 C743 1.351 . S
C743 C737 1.428 . S
C743 N742 1.351 . S
C743 C744 1.434 . S
C744 C735 1.429 . S
C744 N741 1.350 . S
C744 C743 1.434 . S
C745 C746 1.369 . S
C745 C747 1.419 . S
C745 H749 0.930 . S
C746 C745 1.369 . S
C746 C755 1.429 . S
C747 C745 1.419 . S
C747 C748 1.363 . S
C747 H750 0.929 . S
C748 C747 1.363 . S
C748 C754 1.428 . S
H749 C745 0.930 . S
H750 C747 0.929 . S
S751 N752 1.613 . S
S751 N753 1.610 . S
N752 S751 1.613 . S
N752 C755 1.350 . S
N753 S751 1.610 . S
N753 C754 1.351 . S
C754 C748 1.428 . S
C754 N753 1.351 . S
C754 C755 1.434 . S
C755 C746 1.429 . S
C755 N752 1.350 . S
C755 C754 1.434 . S
C756 C757 1.369 . S
C756 C758 1.419 . S
C756 H760 0.930 . S
C757 C756 1.369 . S
C757 C766 1.429 . S
C758 C756 1.419 . S
C758 C759 1.363 . S
C758 H761 0.929 . S
C759 C758 1.363 . S
C759 C765 1.428 . S
H760 C756 0.930 . S
H761 C758 0.929 . S
S762 N763 1.613 . S
S762 N764 1.610 . S
N763 S762 1.613 . S
N763 C766 1.350 . S
N764 S762 1.610 . S
N764 C765 1.351 . S
C765 C759 1.428 . S
C765 N764 1.351 . S
C765 C766 1.434 . S
C766 C757 1.429 . S
C766 N763 1.350 . S
C766 C765 1.434 . S
C767 C768 1.369 . S
C767 C769 1.419 1_655 S
C767 H771 0.930 . S
C768 C767 1.369 . S
C768 C777 1.429 . S
C769 C767 1.419 1_455 S
C769 C770 1.363 . S
C769 H772 0.929 . S
C770 C769 1.363 . S
C770 C776 1.428 . S
H771 C767 0.930 . S
H772 C769 0.929 . S
S773 N774 1.615 1_455 S
S773 N775 1.608 . S
N774 S773 1.615 1_655 S
N774 C777 1.350 . S
N775 S773 1.608 . S
N775 C776 1.351 . S
C776 C770 1.428 . S
C776 N775 1.351 . S
C776 C777 1.434 1_455 S
C777 C768 1.429 . S
C777 N774 1.350 . S
C777 C776 1.434 1_655 S
C778 C779 1.369 . S
C778 C780 1.419 . S
C778 H782 0.930 . S
C779 C778 1.369 . S
C779 C788 1.429 . S
C780 C778 1.419 . S
C780 C781 1.363 . S
C780 H783 0.929 . S
C781 C780 1.363 . S
C781 C787 1.428 . S
H782 C778 0.930 . S
H783 C780 0.929 . S
S784 N785 1.613 . S
S784 N786 1.610 . S
N785 S784 1.613 . S
N785 C788 1.350 . S
N786 S784 1.610 . S
N786 C787 1.351 . S
C787 C781 1.428 . S
C787 N786 1.351 . S
C787 C788 1.434 . S
C788 C779 1.429 . S
C788 N785 1.350 . S
C788 C787 1.434 . S
C789 C790 1.369 . S
C789 C791 1.419 1_455 S
C789 H793 0.930 . S
C790 C789 1.369 . S
C790 C799 1.429 . S
C791 C789 1.419 1_655 S
C791 C792 1.363 . S
C791 H794 0.929 . S
C792 C791 1.363 . S
C792 C798 1.428 . S
H793 C789 0.930 . S
H794 C791 0.929 . S
S795 N796 1.615 1_655 S
S795 N797 1.608 . S
N796 S795 1.615 1_455 S
N796 C799 1.350 . S
N797 S795 1.608 . S
N797 C798 1.351 . S
C798 C792 1.428 . S
C798 N797 1.351 . S
C798 C799 1.434 1_655 S
C799 C790 1.429 . S
C799 N796 1.350 . S
C799 C798 1.434 1_455 S
C800 C801 1.369 1_554 S
C800 C802 1.419 . S
C800 H804 0.930 . S
C801 C800 1.369 1_556 S
C801 C810 1.429 . S
C802 C800 1.419 . S
C802 C803 1.363 . S
C802 H805 0.929 . S
C803 C802 1.363 . S
C803 C809 1.428 1_554 S
H804 C800 0.930 . S
H805 C802 0.929 . S
S806 N807 1.613 . S
S806 N808 1.610 . S
N807 S806 1.613 . S
N807 C810 1.350 . S
N808 S806 1.610 . S
N808 C809 1.351 . S
C809 C803 1.428 1_556 S
C809 N808 1.351 . S
C809 C810 1.434 . S
C810 C801 1.429 . S
C810 N807 1.350 . S
C810 C809 1.434 . S
C811 C812 1.369 . S
C811 C813 1.419 . S
C811 H815 0.930 . S
C812 C811 1.369 . S
C812 C821 1.429 . S
C813 C811 1.419 . S
C813 C814 1.363 . S
C813 H816 0.929 . S
C814 C813 1.363 . S
C814 C820 1.428 . S
H815 C811 0.930 . S
H816 C813 0.929 . S
S817 N818 1.613 1_545 S
S817 N819 1.610 1_545 S
N818 S817 1.613 1_565 S
N818 C821 1.350 . S
N819 S817 1.610 1_565 S
N819 C820 1.351 . S
C820 C814 1.428 . S
C820 N819 1.351 . S
C820 C821 1.434 . S
C821 C812 1.429 . S
C821 N818 1.350 . S
C821 C820 1.434 . S
C822 C823 1.369 . S
C822 C824 1.419 . S
C822 H826 0.930 . S
C823 C822 1.369 . S
C823 C832 1.429 . S
C824 C822 1.419 . S
C824 C825 1.363 . S
C824 H827 0.929 . S
C825 C824 1.363 . S
C825 C831 1.428 . S
H826 C822 0.930 . S
H827 C824 0.929 . S
S828 N829 1.613 . S
S828 N830 1.610 . S
N829 S828 1.613 . S
N829 C832 1.350 . S
N830 S828 1.610 . S
N830 C831 1.351 . S
C831 C825 1.428 . S
C831 N830 1.351 . S
C831 C832 1.434 . S
C832 C823 1.429 . S
C832 N829 1.350 . S
C832 C831 1.434 . S
C833 C834 1.369 . S
C833 C835 1.419 . S
C833 H837 0.930 . S
C834 C833 1.369 . S
C834 C843 1.429 . S
C835 C833 1.419 . S
C835 C836 1.363 . S
C835 H838 0.929 . S
C836 C835 1.363 . S
C836 C842 1.428 . S
H837 C833 0.930 . S
H838 C835 0.929 . S
S839 N840 1.613 . S
S839 N841 1.610 . S
N840 S839 1.613 . S
N840 C843 1.350 . S
N841 S839 1.610 . S
N841 C842 1.351 . S
C842 C836 1.428 . S
C842 N841 1.351 . S
C842 C843 1.434 . S
C843 C834 1.429 . S
C843 N840 1.350 . S
C843 C842 1.434 . S
C844 C845 1.369 1_556 S
C844 C846 1.419 . S
C844 H848 0.930 . S
C845 C844 1.369 1_554 S
C845 C854 1.429 . S
C846 C844 1.419 . S
C846 C847 1.363 . S
C846 H849 0.929 . S
C847 C846 1.363 . S
C847 C853 1.428 1_556 S
H848 C844 0.930 . S
H849 C846 0.929 . S
S850 N851 1.613 . S
S850 N852 1.610 . S
N851 S850 1.613 . S
N851 C854 1.350 . S
N852 S850 1.610 . S
N852 C853 1.351 . S
C853 C847 1.428 1_554 S
C853 N852 1.351 . S
C853 C854 1.434 . S
C854 C845 1.429 . S
C854 N851 1.350 . S
C854 C853 1.434 . S
C855 C856 1.369 . S
C855 C857 1.419 . S
C855 H859 0.930 . S
C856 C855 1.369 . S
C856 C865 1.429 . S
C857 C855 1.419 . S
C857 C858 1.363 . S
C857 H860 0.929 . S
C858 C857 1.363 . S
C858 C864 1.428 . S
H859 C855 0.930 . S
H860 C857 0.929 . S
S861 N862 1.613 . S
S861 N863 1.610 . S
N862 S861 1.613 . S
N862 C865 1.350 . S
N863 S861 1.610 . S
N863 C864 1.351 . S
C864 C858 1.428 . S
C864 N863 1.351 . S
C864 C865 1.434 . S
C865 C856 1.429 . S
C865 N862 1.350 . S
C865 C864 1.434 . S
C866 C867 1.369 . S
C866 C868 1.419 . S
C866 H870 0.930 . S
C867 C866 1.369 . S
C867 C876 1.429 . S
C868 C866 1.419 . S
C868 C869 1.363 . S
C868 H871 0.929 . S
C869 C868 1.363 . S
C869 C875 1.428 . S
H870 C866 0.930 . S
H871 C868 0.929 . S
S872 N873 1.613 . S
S872 N874 1.610 . S
N873 S872 1.613 . S
N873 C876 1.350 . S
N874 S872 1.610 . S
N874 C875 1.351 . S
C875 C869 1.428 . S
C875 N874 1.351 . S
C875 C876 1.434 . S
C876 C867 1.429 . S
C876 N873 1.350 . S
C876 C875 1.434 . S
C877 C878 1.369 . S
C877 C879 1.419 . S
C877 H881 0.930 . S
C878 C877 1.369 . S
C878 C887 1.429 . S
C879 C877 1.419 . S
C879 C880 1.363 . S
C879 H882 0.929 . S
C880 C879 1.363 . S
C880 C886 1.428 . S
H881 C877 0.930 . S
H882 C879 0.929 . S
S883 N884 1.613 . S
S883 N885 1.610 . S
N884 S883 1.613 . S
N884 C887 1.350 . S
N885 S883 1.610 . S
N885 C886 1.351 . S
C886 C880 1.428 . S
C886 N885 1.351 . S
C886 C887 1.434 . S
C887 C878 1.429 . S
C887 N884 1.350 . S
C887 C886 1.434 . S
C888 C889 1.369 . S
C888 C890 1.419 1_545 S
C888 H892 0.931 . S
C889 C888 1.369 . S
C889 C898 1.429 . S
C890 C888 1.419 1_565 S
C890 C891 1.363 . S
C890 H893 0.929 . S
C891 C890 1.363 . S
C891 C897 1.428 . S
H892 C888 0.931 . S
H893 C890 0.929 . S
S894 N895 1.613 . S
S894 N896 1.610 . S
N895 S894 1.613 . S
N895 C898 1.350 . S
N896 S894 1.610 . S
N896 C897 1.351 1_545 S
C897 C891 1.428 . S
C897 N896 1.351 1_565 S
C897 C898 1.434 1_565 S
C898 C889 1.429 . S
C898 N895 1.350 . S
C898 C897 1.434 1_545 S
C899 C900 1.369 . S
C899 C901 1.419 . S
C899 H903 0.930 . S
C900 C899 1.369 . S
C900 C909 1.429 . S
C901 C899 1.419 . S
C901 C902 1.363 . S
C901 H904 0.929 . S
C902 C901 1.363 . S
C902 C908 1.428 . S
H903 C899 0.930 . S
H904 C901 0.929 . S
S905 N906 1.613 . S
S905 N907 1.610 . S
N906 S905 1.613 . S
N906 C909 1.350 . S
N907 S905 1.610 . S
N907 C908 1.351 . S
C908 C902 1.428 . S
C908 N907 1.351 . S
C908 C909 1.434 . S
C909 C900 1.429 . S
C909 N906 1.350 . S
C909 C908 1.434 . S
C910 C911 1.369 . S
C910 C912 1.419 1_565 S
C910 H914 0.930 . S
C911 C910 1.369 . S
C911 C920 1.429 1_554 S
C912 C910 1.419 1_545 S
C912 C913 1.363 1_554 S
C912 H915 0.929 . S
C913 C912 1.363 1_556 S
C913 C919 1.428 . S
H914 C910 0.930 . S
H915 C912 0.929 . S
S916 N917 1.613 . S
S916 N918 1.610 1_565 S
N917 S916 1.613 . S
N917 C920 1.350 . S
N918 S916 1.610 1_545 S
N918 C919 1.351 . S
C919 C913 1.428 . S
C919 N918 1.351 . S
C919 C920 1.434 1_545 S
C920 C911 1.429 1_556 S
C920 N917 1.350 . S
C920 C919 1.434 1_565 S
C921 C922 1.369 . S
C921 C923 1.419 . S
C921 H925 0.930 . S
C922 C921 1.369 . S
C922 C931 1.429 . S
C923 C921 1.419 . S
C923 C924 1.363 . S
C923 H926 0.929 . S
C924 C923 1.363 . S
C924 C930 1.428 . S
H925 C921 0.930 . S
H926 C923 0.929 . S
S927 N928 1.613 . S
S927 N929 1.610 . S
N928 S927 1.613 . S
N928 C931 1.350 . S
N929 S927 1.610 . S
N929 C930 1.351 . S
C930 C924 1.428 . S
C930 N929 1.351 . S
C930 C931 1.434 . S
C931 C922 1.429 . S
C931 N928 1.350 . S
C931 C930 1.434 . S
C932 C933 1.369 . S
C932 C934 1.419 1_545 S
C932 H936 0.930 1_545 S
C933 C932 1.369 . S
C933 C942 1.429 . S
C934 C932 1.419 1_565 S
C934 C935 1.363 . S
C934 H937 0.929 . S
C935 C934 1.363 . S
C935 C941 1.428 1_565 S
H936 C932 0.930 1_565 S
H937 C934 0.929 . S
S938 N939 1.613 . S
S938 N940 1.610 . S
N939 S938 1.613 . S
N939 C942 1.350 . S
N940 S938 1.610 . S
N940 C941 1.351 . S
C941 C935 1.428 1_545 S
C941 N940 1.351 . S
C941 C942 1.434 . S
C942 C933 1.429 . S
C942 N939 1.350 . S
C942 C941 1.434 . S
C943 C944 1.369 . S
C943 C945 1.419 . S
C943 H947 0.930 . S
C944 C943 1.369 . S
C944 C953 1.429 . S
C945 C943 1.419 . S
C945 C946 1.363 . S
C945 H948 0.929 . S
C946 C945 1.363 . S
C946 C952 1.428 . S
H947 C943 0.930 . S
H948 C945 0.929 . S
S949 N950 1.613 . S
S949 N951 1.610 . S
N950 S949 1.613 . S
N950 C953 1.350 . S
N951 S949 1.610 . S
N951 C952 1.351 . S
C952 C946 1.428 . S
C952 N951 1.351 . S
C952 C953 1.434 . S
C953 C944 1.429 . S
C953 N950 1.350 . S
C953 C952 1.434 . S
C954 C955 1.369 . S
C954 C956 1.419 1_565 S
C954 H958 0.930 . S
C955 C954 1.369 . S
C955 C964 1.429 1_554 S
C956 C954 1.419 1_545 S
C956 C957 1.363 1_554 S
C956 H959 0.929 . S
C957 C956 1.363 1_556 S
C957 C963 1.428 . S
H958 C954 0.930 . S
H959 C956 0.929 . S
S960 N961 1.613 . S
S960 N962 1.610 1_565 S
N961 S960 1.613 . S
N961 C964 1.350 . S
N962 S960 1.610 1_545 S
N962 C963 1.351 . S
C963 C957 1.428 . S
C963 N962 1.351 . S
C963 C964 1.434 1_545 S
C964 C955 1.429 1_556 S
C964 N961 1.350 . S
C964 C963 1.434 1_565 S
C965 C966 1.369 . S
C965 C967 1.419 . S
C965 H969 0.930 . S
C966 C965 1.369 . S
C966 C975 1.429 . S
C967 C965 1.419 . S
C967 C968 1.363 . S
C967 H970 0.929 . S
C968 C967 1.363 . S
C968 C974 1.428 . S
H969 C965 0.930 . S
H970 C967 0.929 . S
S971 N972 1.613 . S
S971 N973 1.610 . S
N972 S971 1.613 . S
N972 C975 1.350 . S
N973 S971 1.610 . S
N973 C974 1.351 . S
C974 C968 1.428 . S
C974 N973 1.351 . S
C974 C975 1.434 . S
C975 C966 1.429 . S
C975 N972 1.350 . S
C975 C974 1.434 . S
C976 C977 1.369 . S
C976 C978 1.419 . S
C976 H980 0.930 . S
C977 C976 1.369 . S
C977 C986 1.429 . S
C978 C976 1.419 . S
C978 C979 1.363 . S
C978 H981 0.929 . S
C979 C978 1.363 . S
C979 C985 1.428 . S
H980 C976 0.930 . S
H981 C978 0.929 . S
S982 N983 1.613 . S
S982 N984 1.610 . S
N983 S982 1.613 . S
N983 C986 1.350 . S
N984 S982 1.610 . S
N984 C985 1.351 . S
C985 C979 1.428 . S
C985 N984 1.351 . S
C985 C986 1.434 . S
C986 C977 1.429 . S
C986 N983 1.350 . S
C986 C985 1.434 . S
C987 C988 1.369 . S
C987 C989 1.419 . S
C987 H991 0.930 . S
C988 C987 1.369 . S
C988 C997 1.429 . S
C989 C987 1.419 . S
C989 C990 1.363 . S
C989 H992 0.929 . S
C990 C989 1.363 . S
C990 C996 1.428 . S
H991 C987 0.930 . S
H992 C989 0.929 . S
S993 N994 1.613 . S
S993 N995 1.610 . S
N994 S993 1.613 . S
N994 C997 1.350 . S
N995 S993 1.610 . S
N995 C996 1.351 . S
C996 C990 1.428 . S
C996 N995 1.351 . S
C996 C997 1.434 . S
C997 C988 1.429 . S
C997 N994 1.350 . S
C997 C996 1.434 . S
C998 C999 1.369 . S
C998 C1000 1.419 . S
C998 H1002 0.930 . S
C999 C998 1.369 . S
C999 C1008 1.429 . S
C1000 C998 1.419 . S
C1000 C1001 1.363 . S
C1000 H1003 0.929 . S
C1001 C1000 1.363 . S
C1001 C1007 1.428 . S
H1002 C998 0.930 . S
H1003 C1000 0.929 . S
S1004 N1005 1.613 . S
S1004 N1006 1.610 . S
N1005 S1004 1.613 . S
N1005 C1008 1.350 . S
N1006 S1004 1.610 . S
N1006 C1007 1.351 . S
C1007 C1001 1.428 . S
C1007 N1006 1.351 . S
C1007 C1008 1.434 . S
C1008 C999 1.429 . S
C1008 N1005 1.350 . S
C1008 C1007 1.434 . S
C1009 C1010 1.369 . S
C1009 C1011 1.419 1_655 S
C1009 H1013 0.930 . S
C1010 C1009 1.369 . S
C1010 C1019 1.429 . S
C1011 C1009 1.419 1_455 S
C1011 C1012 1.363 . S
C1011 H1014 0.929 . S
C1012 C1011 1.363 . S
C1012 C1018 1.428 . S
H1013 C1009 0.930 . S
H1014 C1011 0.929 . S
S1015 N1016 1.615 1_455 S
S1015 N1017 1.608 . S
N1016 S1015 1.615 1_655 S
N1016 C1019 1.350 . S
N1017 S1015 1.608 . S
N1017 C1018 1.351 . S
C1018 C1012 1.428 . S
C1018 N1017 1.351 . S
C1018 C1019 1.434 1_455 S
C1019 C1010 1.429 . S
C1019 N1016 1.350 . S
C1019 C1018 1.434 1_655 S
C1020 C1021 1.369 . S
C1020 C1022 1.419 . S
C1020 H1024 0.930 . S
C1021 C1020 1.369 . S
C1021 C1030 1.429 . S
C1022 C1020 1.419 . S
C1022 C1023 1.363 . S
C1022 H1025 0.929 . S
C1023 C1022 1.363 . S
C1023 C1029 1.428 . S
H1024 C1020 0.930 . S
H1025 C1022 0.929 . S
S1026 N1027 1.613 . S
S1026 N1028 1.610 . S
N1027 S1026 1.613 . S
N1027 C1030 1.350 . S
N1028 S1026 1.610 . S
N1028 C1029 1.351 . S
C1029 C1023 1.428 . S
C1029 N1028 1.351 . S
C1029 C1030 1.434 . S
C1030 C1021 1.429 . S
C1030 N1027 1.350 . S
C1030 C1029 1.434 . S
C1031 C1032 1.369 . S
C1031 C1033 1.419 1_655 S
C1031 H1035 0.930 . S
C1032 C1031 1.369 . S
C1032 C1041 1.429 . S
C1033 C1031 1.419 1_455 S
C1033 C1034 1.363 . S
C1033 H1036 0.929 . S
C1034 C1033 1.363 . S
C1034 C1040 1.428 . S
H1035 C1031 0.930 . S
H1036 C1033 0.929 . S
S1037 N1038 1.615 1_455 S
S1037 N1039 1.608 . S
N1038 S1037 1.615 1_655 S
N1038 C1041 1.350 . S
N1039 S1037 1.608 . S
N1039 C1040 1.351 . S
C1040 C1034 1.428 . S
C1040 N1039 1.351 . S
C1040 C1041 1.434 1_455 S
C1041 C1032 1.429 . S
C1041 N1038 1.350 . S
C1041 C1040 1.434 1_655 S
C1042 C1043 1.369 . S
C1042 C1044 1.419 . S
C1042 H1046 0.930 . S
C1043 C1042 1.369 . S
C1043 C1052 1.429 . S
C1044 C1042 1.419 . S
C1044 C1045 1.363 . S
C1044 H1047 0.929 . S
C1045 C1044 1.363 . S
C1045 C1051 1.428 . S
H1046 C1042 0.930 . S
H1047 C1044 0.929 . S
S1048 N1049 1.613 . S
S1048 N1050 1.610 . S
N1049 S1048 1.613 . S
N1049 C1052 1.350 . S
N1050 S1048 1.610 . S
N1050 C1051 1.351 . S
C1051 C1045 1.428 . S
C1051 N1050 1.351 . S
C1051 C1052 1.434 . S
C1052 C1043 1.429 . S
C1052 N1049 1.350 . S
C1052 C1051 1.434 . S
C1053 C1054 1.369 . S
C1053 C1055 1.419 . S
C1053 H1057 0.930 . S
C1054 C1053 1.369 . S
C1054 C1063 1.429 . S
C1055 C1053 1.419 . S
C1055 C1056 1.363 . S
C1055 H1058 0.929 . S
C1056 C1055 1.363 . S
C1056 C1062 1.428 . S
H1057 C1053 0.930 . S
H1058 C1055 0.929 . S
S1059 N1060 1.613 . S
S1059 N1061 1.610 . S
N1060 S1059 1.613 . S
N1060 C1063 1.350 . S
N1061 S1059 1.610 . S
N1061 C1062 1.351 . S
C1062 C1056 1.428 . S
C1062 N1061 1.351 . S
C1062 C1063 1.434 . S
C1063 C1054 1.429 . S
C1063 N1060 1.350 . S
C1063 C1062 1.434 . S
C1064 C1065 1.369 . S
C1064 C1066 1.419 . S
C1064 H1068 0.930 . S
C1065 C1064 1.369 . S
C1065 C1074 1.429 . S
C1066 C1064 1.419 . S
C1066 C1067 1.363 . S
C1066 H1069 0.929 . S
C1067 C1066 1.363 . S
C1067 C1073 1.428 . S
H1068 C1064 0.930 . S
H1069 C1066 0.929 . S
S1070 N1071 1.613 . S
S1070 N1072 1.610 . S
N1071 S1070 1.613 . S
N1071 C1074 1.350 . S
N1072 S1070 1.610 . S
N1072 C1073 1.351 . S
C1073 C1067 1.428 . S
C1073 N1072 1.351 . S
C1073 C1074 1.434 . S
C1074 C1065 1.429 . S
C1074 N1071 1.350 . S
C1074 C1073 1.434 . S
C1075 C1076 1.369 . S
C1075 C1077 1.419 . S
C1075 H1079 0.930 . S
C1076 C1075 1.369 . S
C1076 C1085 1.429 . S
C1077 C1075 1.419 . S
C1077 C1078 1.363 . S
C1077 H1080 0.929 . S
C1078 C1077 1.363 . S
C1078 C1084 1.428 . S
H1079 C1075 0.930 . S
H1080 C1077 0.929 . S
S1081 N1082 1.613 . S
S1081 N1083 1.610 . S
N1082 S1081 1.613 . S
N1082 C1085 1.350 . S
N1083 S1081 1.610 . S
N1083 C1084 1.351 . S
C1084 C1078 1.428 . S
C1084 N1083 1.351 . S
C1084 C1085 1.434 . S
C1085 C1076 1.429 . S
C1085 N1082 1.350 . S
C1085 C1084 1.434 . S
C1086 C1087 1.369 . S
C1086 C1088 1.419 . S
C1086 H1090 0.930 . S
C1087 C1086 1.369 . S
C1087 C1096 1.429 . S
C1088 C1086 1.419 . S
C1088 C1089 1.363 . S
C1088 H1091 0.929 . S
C1089 C1088 1.363 . S
C1089 C1095 1.428 . S
H1090 C1086 0.930 . S
H1091 C1088 0.929 . S
S1092 N1093 1.613 1_556 S
S1092 N1094 1.610 1_556 S
N1093 S1092 1.613 1_554 S
N1093 C1096 1.350 . S
N1094 S1092 1.610 1_554 S
N1094 C1095 1.351 . S
C1095 C1089 1.428 . S
C1095 N1094 1.351 . S
C1095 C1096 1.434 . S
C1096 C1087 1.429 . S
C1096 N1093 1.350 . S
C1096 C1095 1.434 . S
C1097 C1098 1.369 . S
C1097 C1099 1.419 . S
C1097 H1101 0.930 . S
C1098 C1097 1.369 . S
C1098 C1107 1.429 . S
C1099 C1097 1.419 . S
C1099 C1100 1.363 . S
C1099 H1102 0.929 . S
C1100 C1099 1.363 . S
C1100 C1106 1.428 . S
H1101 C1097 0.930 . S
H1102 C1099 0.929 . S
S1103 N1104 1.613 . S
S1103 N1105 1.610 . S
N1104 S1103 1.613 . S
N1104 C1107 1.350 . S
N1105 S1103 1.610 . S
N1105 C1106 1.351 . S
C1106 C1100 1.428 . S
C1106 N1105 1.351 . S
C1106 C1107 1.434 . S
C1107 C1098 1.429 . S
C1107 N1104 1.350 . S
C1107 C1106 1.434 . S
C1108 C1109 1.369 . S
C1108 C1110 1.419 1_655 S
C1108 H1112 0.930 . S
C1109 C1108 1.369 . S
C1109 C1118 1.429 . S
C1110 C1108 1.419 1_455 S
C1110 C1111 1.363 . S
C1110 H1113 0.929 . S
C1111 C1110 1.363 . S
C1111 C1117 1.428 . S
H1112 C1108 0.930 . S
H1113 C1110 0.929 . S
S1114 N1115 1.615 1_455 S
S1114 N1116 1.608 . S
N1115 S1114 1.615 1_655 S
N1115 C1118 1.350 . S
N1116 S1114 1.608 . S
N1116 C1117 1.351 . S
C1117 C1111 1.428 . S
C1117 N1116 1.351 . S
C1117 C1118 1.434 1_455 S
C1118 C1109 1.429 . S
C1118 N1115 1.350 . S
C1118 C1117 1.434 1_655 S
C1119 C1120 1.369 . S
C1119 C1121 1.419 . S
C1119 H1123 0.930 . S
C1120 C1119 1.369 . S
C1120 C1129 1.429 . S
C1121 C1119 1.419 . S
C1121 C1122 1.363 . S
C1121 H1124 0.929 . S
C1122 C1121 1.363 . S
C1122 C1128 1.428 . S
H1123 C1119 0.930 . S
H1124 C1121 0.929 . S
S1125 N1126 1.613 . S
S1125 N1127 1.610 . S
N1126 S1125 1.613 . S
N1126 C1129 1.350 . S
N1127 S1125 1.610 . S
N1127 C1128 1.351 . S
C1128 C1122 1.428 . S
C1128 N1127 1.351 . S
C1128 C1129 1.434 . S
C1129 C1120 1.429 . S
C1129 N1126 1.350 . S
C1129 C1128 1.434 . S
C1130 C1131 1.369 . S
C1130 C1132 1.419 . S
C1130 H1134 0.930 . S
C1131 C1130 1.369 . S
C1131 C1140 1.429 . S
C1132 C1130 1.419 . S
C1132 C1133 1.363 . S
C1132 H1135 0.929 . S
C1133 C1132 1.363 . S
C1133 C1139 1.428 . S
H1134 C1130 0.930 . S
H1135 C1132 0.929 . S
S1136 N1137 1.613 . S
S1136 N1138 1.610 . S
N1137 S1136 1.613 . S
N1137 C1140 1.350 . S
N1138 S1136 1.610 . S
N1138 C1139 1.351 . S
C1139 C1133 1.428 . S
C1139 N1138 1.351 . S
C1139 C1140 1.434 . S
C1140 C1131 1.429 . S
C1140 N1137 1.350 . S
C1140 C1139 1.434 . S
C1141 C1142 1.369 . S
C1141 C1143 1.419 1_655 S
C1141 H1145 0.930 . S
C1142 C1141 1.369 . S
C1142 C1151 1.429 . S
C1143 C1141 1.419 1_455 S
C1143 C1144 1.363 . S
C1143 H1146 0.929 . S
C1144 C1143 1.363 . S
C1144 C1150 1.428 . S
H1145 C1141 0.930 . S
H1146 C1143 0.929 . S
S1147 N1148 1.616 1_455 S
S1147 N1149 1.608 . S
N1148 S1147 1.616 1_655 S
N1148 C1151 1.350 . S
N1149 S1147 1.608 . S
N1149 C1150 1.351 . S
C1150 C1144 1.428 . S
C1150 N1149 1.351 . S
C1150 C1151 1.434 1_455 S
C1151 C1142 1.429 . S
C1151 N1148 1.350 . S
C1151 C1150 1.434 1_655 S
C449 C333 1.578 . S
C451 C11 1.580 . S
C460 C291 1.578 . S
C462 C25 1.577 . S
C471 C305 1.579 . S
C473 C39 1.579 . S
C482 C319 1.578 . S
C484 C53 1.577 . S
C493 C67 1.577 . S
C495 C249 1.580 . S
C504 C263 1.577 . S
C506 C81 1.577 . S
C515 C95 1.577 . S
C517 C277 1.580 . S
C526 C109 1.576 . S
C528 C235 1.579 . S
C537 C445 1.576 . S
C539 C123 1.580 . S
C548 C137 1.580 . S
C550 C403 1.577 . S
C559 C151 1.580 . S
C561 C417 1.576 . S
C570 C165 1.581 . S
C572 C431 1.578 . S
C581 C179 1.579 . S
C583 C361 1.576 . S
C592 C193 1.580 . S
C594 C375 1.577 . S
C603 C207 1.577 . S
C605 C389 1.580 . S
C614 C221 1.578 . S
C616 C347 1.577 . S
C625 C8 1.568 . S
C627 C176 1.567 . S
C636 C414 1.566 . S
C638 C22 1.566 . S
C647 C36 1.568 . S
C649 C204 1.567 . S
C658 C442 1.568 . S
C660 C50 1.567 . S
C669 C120 1.561 . S
C671 C64 1.562 . S
C680 C78 1.561 . S
C682 C358 1.562 . S
C691 C92 1.567 . S
C693 C148 1.567 . S
C702 C106 1.563 . S
C704 C386 1.563 . S
C713 C302 1.561 . S
C715 C134 1.562 . S
C724 C330 1.566 . S
C726 C162 1.565 . S
C735 C190 1.562 . S
C737 C246 1.563 . S
C746 C274 1.567 . S
C748 C218 1.566 . S
C757 C400 1.565 . S
C759 C232 1.565 . S
C768 C260 1.566 . S
C770 C428 1.566 . S
C779 C344 1.567 . S
C781 C288 1.567 . S
C790 C372 1.566 . S
C792 C316 1.566 . S
C801 C63 1.172 . S
C803 C7 1.170 . S
C812 C77 1.174 . S
C814 C21 1.173 . S
C823 C35 1.168 . S
C825 C91 1.170 . S
C834 C49 1.173 . S
C836 C105 1.171 . S
C845 C175 1.170 . S
C847 C119 1.169 . S
C856 C189 1.172 . S
C858 C133 1.172 . S
C867 C203 1.169 . S
C869 C147 1.171 . S
C878 C161 1.169 . S
C880 C217 1.168 . S
C889 C231 1.170 . S
C891 C287 1.171 . S
C900 C245 1.168 . S
C902 C301 1.170 . S
C911 C259 1.172 . S
C913 C315 1.173 . S
C922 C273 1.168 . S
C924 C329 1.170 . S
C933 C399 1.170 . S
C935 C343 1.171 . S
C944 C413 1.168 . S
C946 C357 1.168 . S
C955 C427 1.168 . S
C957 C371 1.170 . S
C966 C441 1.173 . S
C968 C385 1.173 . S
C977 C433 1.370 . S
C979 C13 1.369 . S
C988 C27 1.362 . S
C990 C223 1.362 . S
C999 C405 1.368 . S
C1001 C41 1.367 . S
C1010 C55 1.360 . S
C1012 C195 1.361 . S
C1021 C377 1.370 . S
C1023 C69 1.369 . S
C1032 C83 1.367 . S
C1034 C167 1.367 . S
C1043 C97 1.360 . S
C1045 C349 1.361 . S
C1054 C139 1.369 . S
C1056 C111 1.368 . S
C1065 C125 1.363 . S
C1067 C321 1.363 . S
C1076 C293 1.363 . S
C1078 C153 1.363 . S
C1087 C181 1.360 . S
C1089 C265 1.361 . S
C1098 C209 1.370 . S
C1100 C237 1.369 . S
C1109 C447 1.362 . S
C1111 C251 1.363 . S
C1120 C279 1.363 . S
C1122 C419 1.363 . S
C1131 C307 1.370 . S
C1133 C391 1.369 . S
C1142 C363 1.370 . S
C1144 C335 1.369 . S
