# Generated by pormake.
# Topology umc, (4)-cn, num edge types: 1
# Building blocks:
#     Node 0, Type 0, BuildingBlock: ICAMEG_clean_sbu_1, # of connection points: 4
#     Node 1, Type 0, BuildingBlock: ICAMEG_clean_sbu_1, # of connection points: 4
#     Node 2, Type 0, BuildingBlock: ICAMEG_clean_sbu_1, # of connection points: 4
#     Node 3, Type 0, BuildingBlock: ICAMEG_clean_sbu_1, # of connection points: 4
#     Node 4, Type 0, BuildingBlock: ICAMEG_clean_sbu_1, # of connection points: 4
#     Node 5, Type 0, BuildingBlock: ICAMEG_clean_sbu_1, # of connection points: 4
#     Node 6, Type 0, BuildingBlock: ICAMEG_clean_sbu_1, # of connection points: 4
#     Node 7, Type 0, BuildingBlock: ICAMEG_clean_sbu_1, # of connection points: 4
#     Node 8, Type 0, BuildingBlock: ICAMEG_clean_sbu_1, # of connection points: 4
#     Node 9, Type 0, BuildingBlock: ICAMEG_clean_sbu_1, # of connection points: 4
#     Node 10, Type 0, BuildingBlock: ICAMEG_clean_sbu_1, # of connection points: 4
#     Node 11, Type 0, BuildingBlock: ICAMEG_clean_sbu_1, # of connection points: 4
#     Node 12, Type 0, BuildingBlock: ICAMEG_clean_sbu_1, # of connection points: 4
#     Node 13, Type 0, BuildingBlock: ICAMEG_clean_sbu_1, # of connection points: 4
#     Node 14, Type 0, BuildingBlock: ICAMEG_clean_sbu_1, # of connection points: 4
#     Node 15, Type 0, BuildingBlock: ICAMEG_clean_sbu_1, # of connection points: 4
#     Edge 16, Type (0, 0), BuildingBlock: TEMPAE_clean_linker_10, # of connection points: 2
#     Edge 17, Type (0, 0), BuildingBlock: TEMPAE_clean_linker_10, # of connection points: 2
#     Edge 18, Type (0, 0), BuildingBlock: TEMPAE_clean_linker_10, # of connection points: 2
#     Edge 19, Type (0, 0), BuildingBlock: TEMPAE_clean_linker_10, # of connection points: 2
#     Edge 20, Type (0, 0), BuildingBlock: TEMPAE_clean_linker_10, # of connection points: 2
#     Edge 21, Type (0, 0), BuildingBlock: TEMPAE_clean_linker_10, # of connection points: 2
#     Edge 22, Type (0, 0), BuildingBlock: TEMPAE_clean_linker_10, # of connection points: 2
#     Edge 23, Type (0, 0), BuildingBlock: TEMPAE_clean_linker_10, # of connection points: 2
#     Edge 24, Type (0, 0), BuildingBlock: TEMPAE_clean_linker_10, # of connection points: 2
#     Edge 25, Type (0, 0), BuildingBlock: TEMPAE_clean_linker_10, # of connection points: 2
#     Edge 26, Type (0, 0), BuildingBlock: TEMPAE_clean_linker_10, # of connection points: 2
#     Edge 27, Type (0, 0), BuildingBlock: TEMPAE_clean_linker_10, # of connection points: 2
#     Edge 28, Type (0, 0), BuildingBlock: TEMPAE_clean_linker_10, # of connection points: 2
#     Edge 29, Type (0, 0), BuildingBlock: TEMPAE_clean_linker_10, # of connection points: 2
#     Edge 30, Type (0, 0), BuildingBlock: TEMPAE_clean_linker_10, # of connection points: 2
#     Edge 31, Type (0, 0), BuildingBlock: TEMPAE_clean_linker_10, # of connection points: 2
#     Edge 32, Type (0, 0), BuildingBlock: TEMPAE_clean_linker_10, # of connection points: 2
#     Edge 33, Type (0, 0), BuildingBlock: TEMPAE_clean_linker_10, # of connection points: 2
#     Edge 34, Type (0, 0), BuildingBlock: TEMPAE_clean_linker_10, # of connection points: 2
#     Edge 35, Type (0, 0), BuildingBlock: TEMPAE_clean_linker_10, # of connection points: 2
#     Edge 36, Type (0, 0), BuildingBlock: TEMPAE_clean_linker_10, # of connection points: 2
#     Edge 37, Type (0, 0), BuildingBlock: TEMPAE_clean_linker_10, # of connection points: 2
#     Edge 38, Type (0, 0), BuildingBlock: TEMPAE_clean_linker_10, # of connection points: 2
#     Edge 39, Type (0, 0), BuildingBlock: TEMPAE_clean_linker_10, # of connection points: 2
#     Edge 40, Type (0, 0), BuildingBlock: TEMPAE_clean_linker_10, # of connection points: 2
#     Edge 41, Type (0, 0), BuildingBlock: TEMPAE_clean_linker_10, # of connection points: 2
#     Edge 42, Type (0, 0), BuildingBlock: TEMPAE_clean_linker_10, # of connection points: 2
#     Edge 43, Type (0, 0), BuildingBlock: TEMPAE_clean_linker_10, # of connection points: 2
#     Edge 44, Type (0, 0), BuildingBlock: TEMPAE_clean_linker_10, # of connection points: 2
#     Edge 45, Type (0, 0), BuildingBlock: TEMPAE_clean_linker_10, # of connection points: 2
#     Edge 46, Type (0, 0), BuildingBlock: TEMPAE_clean_linker_10, # of connection points: 2
#     Edge 47, Type (0, 0), BuildingBlock: TEMPAE_clean_linker_10, # of connection points: 2
# Relax obj value: 0.053
# Max RMSD: 0.129
# Mean RMSD: 0.129
data_MOF--net-umc--node1-ICAMEG_clean_sbu_1--edge1-TEMPAE_clean_linker_10
_symmetry_space_group_name_H-M    P1
_symmetry_Int_Tables_number       1
_symmetry_cell_setting            triclinic
loop_
_symmetry_equiv_pos_as_xyz
'x, y, z'
_cell_length_a     50.74276
_cell_length_b     34.279558
_cell_length_c     61.576152
_cell_angle_alpha  90.002468
_cell_angle_beta   90.000283
_cell_angle_gamma 90.063517
loop_
_atom_site_label
_atom_site_type_symbol
_atom_site_fract_x
_atom_site_fract_y
_atom_site_fract_z
_atom_type_partial_charge
Co0 Co 0.34243 0.02053 0.37799 0.0
Co1 Co 0.3606 0.10716 0.35338 0.0
O2 O 0.34113 0.07734 0.37516 0.0
C3 C 0.35794 0.05135 0.4206 0.0
O4 O 0.37265 0.07624 0.40987 0.0
C5 C 0.30531 0.1302 0.34794 0.0
O6 O 0.29901 0.09331 0.35024 0.0
O7 O 0.34775 0.07248 0.32995 0.0
O8 O 0.34122 0.01382 0.34561 0.0
H9 H 0.42022 0.12393 0.28892 0.0
H10 H 0.30238 0.06495 0.40279 0.0
O11 O 0.34417 0.02615 0.41043 0.0
H12 H 0.25186 0.97592 0.35559 0.0
H13 H 0.31889 0.89225 0.41274 0.0
H14 H 0.37077 0.95682 0.35531 0.0
H15 H 0.30047 0.97538 0.35516 0.0
H16 H 0.31708 0.9637 0.40808 0.0
O17 O 0.32924 0.14119 0.34878 0.0
H18 H 0.39601 0.08676 0.31684 0.0
H19 H 0.36531 0.19189 0.34308 0.0
H20 H 0.37301 0.88529 0.35928 0.0
H21 H 0.2538 0.06626 0.40386 0.0
H22 H 0.34693 0.85255 0.38817 0.0
H23 H 0.22821 0.0216 0.38008 0.0
O24 O 0.38145 0.02082 0.37698 0.0
H25 H 0.35008 0.19123 0.41964 0.0
H26 H 0.41326 0.13814 0.36646 0.0
H27 H 0.42942 0.17985 0.39628 0.0
H28 H 0.39772 0.2067 0.42313 0.0
H29 H 0.3348 0.14911 0.38969 0.0
H30 H 0.389 0.23021 0.31532 0.0
H31 H 0.41679 0.1962 0.28805 0.0
O32 O 0.39239 0.07364 0.35733 0.0
C33 C 0.3423 0.03627 0.32908 0.0
C34 C 0.40826 0.1391 0.30077 0.0
C35 C 0.39072 0.19875 0.31558 0.0
N36 N 0.37952 0.13717 0.3317 0.0
C37 C 0.39459 0.11822 0.31666 0.0
C38 C 0.37732 0.1769 0.33123 0.0
C39 C 0.40631 0.17965 0.30028 0.0
C40 C 0.29138 0.04512 0.39259 0.0
N41 N 0.30424 0.01999 0.37901 0.0
C42 C 0.26388 0.04612 0.39319 0.0
C43 C 0.24953 0.02111 0.3798 0.0
C44 C 0.26279 0.99549 0.36604 0.0
C45 C 0.29032 0.99537 0.36584 0.0
C46 C 0.33028 0.90616 0.40005 0.0
C47 C 0.35922 0.94274 0.36781 0.0
C48 C 0.32936 0.9466 0.39736 0.0
N49 N 0.34361 0.96432 0.3813 0.0
C50 C 0.36063 0.90225 0.37003 0.0
C51 C 0.34602 0.88391 0.38626 0.0
C52 C 0.3983 0.04229 0.36736 0.0
C53 C 0.36407 0.17982 0.408 0.0
C54 C 0.39935 0.14967 0.3781 0.0
C55 C 0.40861 0.17334 0.39492 0.0
C56 C 0.39081 0.18842 0.40997 0.0
N57 N 0.37309 0.14133 0.37629 0.0
C58 C 0.35551 0.15612 0.39094 0.0
Co59 Co 0.64385 0.97139 0.37222 0.0
Co60 Co 0.62214 0.8827 0.35265 0.0
O61 O 0.64386 0.91444 0.37187 0.0
C62 C 0.63134 0.94747 0.41664 0.0
O63 O 0.61487 0.92265 0.40776 0.0
C64 C 0.67583 0.85449 0.34404 0.0
O65 O 0.68252 0.89075 0.33992 0.0
O66 O 0.63437 0.91274 0.32698 0.0
O67 O 0.64237 0.9733 0.33974 0.0
H68 H 0.55809 0.85888 0.29184 0.0
H69 H 0.68513 0.9279 0.39615 0.0
O70 O 0.64493 0.97036 0.40478 0.0
H71 H 0.73295 0.00826 0.34265 0.0
H72 H 0.67293 0.10289 0.39961 0.0
H73 H 0.61488 0.03312 0.34841 0.0
H74 H 0.68448 0.01141 0.34521 0.0
H75 H 0.67287 0.03095 0.39813 0.0
O76 O 0.65225 0.8459 0.34919 0.0
H77 H 0.58508 0.89907 0.31656 0.0
H78 H 0.61454 0.79702 0.34717 0.0
H79 H 0.61446 0.10507 0.34922 0.0
H80 H 0.73362 0.92403 0.39424 0.0
H81 H 0.64364 0.14042 0.37497 0.0
H82 H 0.75784 0.96435 0.3673 0.0
O83 O 0.60483 0.97297 0.37343 0.0
H84 H 0.6341 0.80895 0.4225 0.0
H85 H 0.56946 0.85788 0.36927 0.0
H86 H 0.55388 0.82226 0.40162 0.0
H87 H 0.58631 0.79749 0.4285 0.0
H88 H 0.64881 0.84515 0.39008 0.0
H89 H 0.58805 0.75569 0.32266 0.0
H90 H 0.55948 0.78664 0.29481 0.0
O91 O 0.59161 0.91891 0.3559 0.0
C92 C 0.64001 0.94867 0.32431 0.0
C93 C 0.57038 0.84505 0.30396 0.0
C94 C 0.58723 0.78714 0.32124 0.0
N95 N 0.60114 0.85041 0.33343 0.0
C96 C 0.58564 0.86766 0.31805 0.0
C97 C 0.60221 0.81068 0.33505 0.0
C98 C 0.57119 0.80452 0.30562 0.0
C99 C 0.69556 0.9458 0.38453 0.0
N100 N 0.68202 0.97004 0.37091 0.0
C101 C 0.723 0.94337 0.38346 0.0
C102 C 0.73658 0.96596 0.36832 0.0
C103 C 0.72262 0.9906 0.35448 0.0
C104 C 0.69518 0.99222 0.35598 0.0
C105 C 0.66018 0.08782 0.38828 0.0
C106 C 0.62778 0.04832 0.35954 0.0
C107 C 0.66003 0.04711 0.38739 0.0
N108 N 0.64408 0.02792 0.37305 0.0
C109 C 0.62739 0.08905 0.35998 0.0
C110 C 0.64374 0.10886 0.37445 0.0
C111 C 0.58698 0.95155 0.36506 0.0
C112 C 0.61979 0.81947 0.41086 0.0
C113 C 0.5837 0.8473 0.38092 0.0
C114 C 0.57476 0.82706 0.39918 0.0
C115 C 0.59297 0.81312 0.41424 0.0
N116 N 0.61004 0.85346 0.37774 0.0
C117 C 0.62801 0.83981 0.39241 0.0
Co118 Co 0.34911 0.96967 0.12625 0.0
Co119 Co 0.37471 0.8851 0.14807 0.0
O120 O 0.35333 0.91315 0.12693 0.0
C121 C 0.36922 0.95064 0.0827 0.0
O122 O 0.38891 0.93319 0.09251 0.0
C123 C 0.32203 0.85105 0.15132 0.0
O124 O 0.31308 0.88692 0.15092 0.0
O125 O 0.35809 0.91374 0.17243 0.0
O126 O 0.34712 0.9725 0.15877 0.0
H127 H 0.43367 0.87258 0.21322 0.0
H128 H 0.31375 0.92007 0.09953 0.0
O129 O 0.35123 0.96742 0.09372 0.0
H130 H 0.25508 0.9923 0.14907 0.0
H131 H 0.31355 0.09508 0.09556 0.0
H132 H 0.37086 0.03624 0.15131 0.0
H133 H 0.30317 0.00283 0.15012 0.0
H134 H 0.31875 0.02362 0.09779 0.0
O135 O 0.34667 0.84438 0.15042 0.0
H136 H 0.40697 0.90791 0.18614 0.0
H137 H 0.38696 0.80109 0.15531 0.0
H138 H 0.36607 0.10779 0.14978 0.0
H139 H 0.26578 0.90898 0.09777 0.0
H140 H 0.33724 0.13765 0.12175 0.0
H141 H 0.2361 0.94512 0.12273 0.0
O142 O 0.38782 0.97754 0.12791 0.0
H143 H 0.37436 0.80983 0.07807 0.0
H144 H 0.43013 0.86683 0.13551 0.0
H145 H 0.45103 0.83326 0.10457 0.0
H146 H 0.42308 0.80445 0.07557 0.0
H147 H 0.35429 0.84388 0.10924 0.0
H148 H 0.41325 0.76453 0.18217 0.0
H149 H 0.43692 0.80035 0.21133 0.0
O150 O 0.40303 0.9254 0.14619 0.0
C151 C 0.34971 0.94853 0.17451 0.0
C152 C 0.42353 0.85665 0.20055 0.0
C153 C 0.41204 0.796 0.18314 0.0
N154 N 0.39566 0.8566 0.16906 0.0
C155 C 0.40846 0.87651 0.18513 0.0
C156 C 0.39715 0.81684 0.168 0.0
C157 C 0.42532 0.81612 0.19949 0.0
C158 C 0.30095 0.93628 0.11026 0.0
N159 N 0.31124 0.96221 0.12484 0.0
C160 C 0.2738 0.92973 0.10926 0.0
C161 C 0.25717 0.94995 0.1233 0.0
C162 C 0.26781 0.9764 0.1381 0.0
C163 C 0.29506 0.98217 0.13866 0.0
C164 C 0.32611 0.08241 0.10789 0.0
C165 C 0.35813 0.04901 0.13917 0.0
C166 C 0.32916 0.04199 0.1092 0.0
N167 N 0.34488 0.0258 0.1248 0.0
C168 C 0.35556 0.08955 0.13834 0.0
C169 C 0.33941 0.10628 0.12259 0.0
C170 C 0.40625 0.95868 0.13728 0.0
C171 C 0.38675 0.82214 0.09064 0.0
C172 C 0.41783 0.85436 0.12296 0.0
C173 C 0.42978 0.83535 0.10549 0.0
C174 C 0.41409 0.81918 0.08923 0.0
N175 N 0.391 0.85708 0.12424 0.0
C176 C 0.37549 0.84131 0.10837 0.0
Co177 Co 0.64936 0.02968 0.12258 0.0
Co178 Co 0.63242 0.11754 0.14619 0.0
O179 O 0.6518 0.08656 0.12483 0.0
C180 C 0.63667 0.05878 0.07898 0.0
O181 O 0.6221 0.08519 0.08864 0.0
C182 C 0.68778 0.14117 0.15145 0.0
O183 O 0.69435 0.10435 0.14942 0.0
O184 O 0.64505 0.08367 0.17008 0.0
O185 O 0.64879 0.02411 0.15496 0.0
H186 H 0.57274 0.13737 0.21033 0.0
H187 H 0.69162 0.071 0.09856 0.0
O188 O 0.64938 0.03383 0.09014 0.0
H189 H 0.73766 0.98163 0.1485 0.0
H190 H 0.67173 0.89892 0.0903 0.0
H191 H 0.61823 0.96829 0.14485 0.0
H192 H 0.68909 0.9836 0.1474 0.0
H193 H 0.675 0.9704 0.09418 0.0
O194 O 0.6638 0.1517 0.15043 0.0
H195 H 0.59685 0.09889 0.18293 0.0
H196 H 0.62797 0.20274 0.15534 0.0
H197 H 0.61449 0.89677 0.14164 0.0
H198 H 0.74022 0.06974 0.09899 0.0
H199 H 0.64136 0.86162 0.1142 0.0
H200 H 0.76356 0.02489 0.12415 0.0
O201 O 0.61036 0.03189 0.12228 0.0
H202 H 0.64354 0.19884 0.07893 0.0
H203 H 0.57992 0.14835 0.1326 0.0
H204 H 0.56407 0.18901 0.10226 0.0
H205 H 0.59599 0.21457 0.07516 0.0
H206 H 0.65851 0.15777 0.10941 0.0
H207 H 0.60439 0.24233 0.18256 0.0
H208 H 0.57644 0.20964 0.21025 0.0
O209 O 0.60044 0.08416 0.14264 0.0
C210 C 0.64866 0.04699 0.1713 0.0
C211 C 0.58477 0.15197 0.1983 0.0
C212 C 0.60256 0.21088 0.18273 0.0
N213 N 0.61357 0.14858 0.16743 0.0
C214 C 0.5984 0.13034 0.1827 0.0
C215 C 0.6159 0.1883 0.16738 0.0
C216 C 0.58688 0.19251 0.19825 0.0
C217 C 0.70164 0.0511 0.10938 0.0
N218 N 0.68755 0.0273 0.12287 0.0
C219 C 0.72916 0.05065 0.10962 0.0
C220 C 0.74224 0.02553 0.12377 0.0
C221 C 0.72772 0.00128 0.13746 0.0
C222 C 0.70022 0.00259 0.13681 0.0
C223 C 0.65997 0.91389 0.10236 0.0
C224 C 0.63015 0.95316 0.13299 0.0
C225 C 0.66173 0.95435 0.10462 0.0
N226 N 0.64704 0.97342 0.11989 0.0
C227 C 0.62787 0.91268 0.1312 0.0
C228 C 0.64294 0.89298 0.11578 0.0
C229 C 0.59391 0.0535 0.13223 0.0
C230 C 0.62945 0.18799 0.09067 0.0
C231 C 0.59393 0.15929 0.12085 0.0
C232 C 0.58484 0.18238 0.10373 0.0
C233 C 0.60276 0.19674 0.08855 0.0
N234 N 0.62014 0.15081 0.12281 0.0
C235 C 0.63783 0.16488 0.10802 0.0
Co236 Co 0.65128 0.96418 0.62386 0.0
Co237 Co 0.62706 0.87604 0.64231 0.0
O238 O 0.64935 0.90754 0.62351 0.0
C239 C 0.6334 0.94611 0.57964 0.0
O240 O 0.61478 0.92517 0.58873 0.0
C241 C 0.68069 0.84956 0.65227 0.0
O242 O 0.68667 0.88625 0.65582 0.0
O243 O 0.63748 0.90667 0.6684 0.0
O244 O 0.65216 0.96478 0.65632 0.0
H245 H 0.56016 0.8519 0.70098 0.0
H246 H 0.68921 0.91812 0.5977 0.0
O247 O 0.6503 0.96402 0.59127 0.0
H248 H 0.74352 0.99372 0.64912 0.0
H249 H 0.68292 0.0944 0.59648 0.0
H250 H 0.6265 0.02703 0.64987 0.0
H251 H 0.69515 0.00066 0.6489 0.0
H252 H 0.68032 0.02251 0.59711 0.0
O253 O 0.65736 0.83981 0.64691 0.0
H254 H 0.58792 0.89224 0.67694 0.0
H255 H 0.61995 0.79037 0.64795 0.0
H256 H 0.62868 0.09894 0.64994 0.0
H257 H 0.73754 0.91051 0.59724 0.0
H258 H 0.65705 0.13308 0.62309 0.0
H259 H 0.76503 0.94839 0.62313 0.0
O260 O 0.61211 0.96886 0.6247 0.0
H261 H 0.64265 0.80312 0.57268 0.0
H262 H 0.57544 0.85004 0.62428 0.0
H263 H 0.56152 0.81424 0.59146 0.0
H264 H 0.59525 0.79047 0.56541 0.0
H265 H 0.65569 0.83928 0.6056 0.0
H266 H 0.59268 0.74887 0.67179 0.0
H267 H 0.56244 0.77964 0.69849 0.0
O268 O 0.5968 0.91194 0.63792 0.0
C269 C 0.6463 0.94109 0.67158 0.0
C270 C 0.57318 0.83813 0.68936 0.0
C271 C 0.59147 0.78031 0.673 0.0
N272 N 0.60534 0.84368 0.66094 0.0
C273 C 0.58888 0.86083 0.67567 0.0
C274 C 0.60689 0.80395 0.65958 0.0
C275 C 0.5745 0.7976 0.68797 0.0
C276 C 0.70106 0.93495 0.6089 0.0
N277 N 0.68939 0.9599 0.62327 0.0
C278 C 0.72841 0.93041 0.60861 0.0
C279 C 0.74382 0.95164 0.62316 0.0
C280 C 0.73176 0.97706 0.63776 0.0
C281 C 0.70436 0.9808 0.6376 0.0
C282 C 0.67052 0.07986 0.60828 0.0
C283 C 0.63902 0.04169 0.63824 0.0
C284 C 0.66893 0.03918 0.60869 0.0
N285 N 0.65344 0.02064 0.62363 0.0
C286 C 0.64011 0.0824 0.63831 0.0
C287 C 0.65601 0.10154 0.62323 0.0
C288 C 0.5934 0.94662 0.631 0.0
C289 C 0.62777 0.81321 0.58395 0.0
C290 C 0.59023 0.8398 0.61301 0.0
C291 C 0.58223 0.81951 0.59447 0.0
C292 C 0.60117 0.80617 0.57987 0.0
N293 N 0.61636 0.8465 0.61693 0.0
C294 C 0.63504 0.83356 0.60266 0.0
Co295 Co 0.35084 0.04297 0.62836 0.0
Co296 Co 0.37906 0.12761 0.64802 0.0
O297 O 0.3551 0.09935 0.629 0.0
C298 C 0.36767 0.06167 0.58378 0.0
O299 O 0.38769 0.08017 0.5925 0.0
C300 C 0.32705 0.15883 0.65936 0.0
O301 O 0.31966 0.12263 0.66269 0.0
O302 O 0.36773 0.09671 0.67376 0.0
O303 O 0.35107 0.0404 0.66082 0.0
H304 H 0.44775 0.14205 0.70627 0.0
H305 H 0.31398 0.09408 0.60416 0.0
O306 O 0.35056 0.04497 0.59576 0.0
H307 H 0.25849 0.02008 0.65544 0.0
H308 H 0.31293 0.91752 0.59949 0.0
H309 H 0.37395 0.97648 0.65253 0.0
H310 H 0.30644 0.00874 0.65376 0.0
H311 H 0.31848 0.98897 0.60136 0.0
O312 O 0.35057 0.16655 0.65357 0.0
H313 H 0.41782 0.10581 0.68198 0.0
H314 H 0.39023 0.21206 0.65483 0.0
H315 H 0.36884 0.90492 0.65135 0.0
H316 H 0.26608 0.10616 0.60517 0.0
H317 H 0.33815 0.87501 0.62468 0.0
H318 H 0.23801 0.0691 0.63101 0.0
O319 O 0.38978 0.03484 0.62806 0.0
H320 H 0.36565 0.20559 0.5798 0.0
H321 H 0.43144 0.14934 0.62971 0.0
H322 H 0.4464 0.18542 0.59731 0.0
H323 H 0.41339 0.21389 0.57211 0.0
H324 H 0.35156 0.16903 0.61228 0.0
H325 H 0.41972 0.24953 0.67896 0.0
H326 H 0.44882 0.21446 0.70485 0.0
O327 O 0.40752 0.08906 0.64267 0.0
C328 C 0.3579 0.06276 0.67644 0.0
C329 C 0.43524 0.15767 0.695 0.0
C330 C 0.41948 0.21798 0.67969 0.0
N331 N 0.40251 0.15679 0.66687 0.0
C332 C 0.41832 0.13729 0.68116 0.0
C333 C 0.4028 0.19663 0.6661 0.0
C334 C 0.43581 0.19829 0.69421 0.0
C335 C 0.30186 0.07762 0.61532 0.0
N336 N 0.31298 0.05067 0.62886 0.0
C337 C 0.27477 0.08467 0.61587 0.0
C338 C 0.25903 0.06391 0.63039 0.0
C339 C 0.27051 0.03642 0.64411 0.0
C340 C 0.29768 0.03019 0.64314 0.0
C341 C 0.32633 0.93021 0.61121 0.0
C342 C 0.36043 0.96367 0.64098 0.0
C343 C 0.32959 0.97063 0.61231 0.0
N344 N 0.34636 0.98684 0.62716 0.0
C345 C 0.35768 0.92314 0.64034 0.0
C346 C 0.34047 0.90638 0.62535 0.0
C347 C 0.40942 0.05482 0.63476 0.0
C348 C 0.38023 0.19344 0.5907 0.0
C349 C 0.41696 0.16162 0.61881 0.0
C350 C 0.42554 0.18206 0.60051 0.0
C351 C 0.40701 0.19804 0.58638 0.0
N352 N 0.39065 0.15734 0.62297 0.0
C353 C 0.37237 0.17285 0.60917 0.0
Co354 Co 0.65004 0.02848 0.87201 0.0
Co355 Co 0.62281 0.11307 0.8516 0.0
O356 O 0.64612 0.08479 0.87103 0.0
C357 C 0.63206 0.04919 0.91583 0.0
O358 O 0.61263 0.06768 0.90629 0.0
C359 C 0.67549 0.14306 0.84125 0.0
O360 O 0.68249 0.10666 0.83811 0.0
O361 O 0.63444 0.08164 0.82622 0.0
O362 O 0.65059 0.02532 0.83955 0.0
H363 H 0.55546 0.12788 0.79234 0.0
H364 H 0.68657 0.07959 0.89666 0.0
O365 O 0.64936 0.03134 0.90458 0.0
H366 H 0.74291 0.00458 0.84656 0.0
H367 H 0.68653 0.9034 0.90236 0.0
H368 H 0.62732 0.96166 0.84778 0.0
H369 H 0.69486 0.99364 0.84748 0.0
H370 H 0.68132 0.97485 0.89996 0.0
O371 O 0.65185 0.15145 0.84641 0.0
H372 H 0.5845 0.09145 0.81722 0.0
H373 H 0.61265 0.19758 0.84423 0.0
H374 H 0.63209 0.8901 0.84948 0.0
H375 H 0.73453 0.09128 0.8964 0.0
H376 H 0.66188 0.86054 0.87693 0.0
H377 H 0.76304 0.05371 0.87116 0.0
O378 O 0.6111 0.02065 0.87163 0.0
H379 H 0.63525 0.1915 0.91982 0.0
H380 H 0.57021 0.13582 0.86897 0.0
H381 H 0.55478 0.1724 0.90104 0.0
H382 H 0.58742 0.20056 0.92671 0.0
H383 H 0.64981 0.15447 0.88766 0.0
H384 H 0.58405 0.23523 0.81953 0.0
H385 H 0.55511 0.20032 0.7934 0.0
O386 O 0.59387 0.07488 0.85665 0.0
C387 C 0.64411 0.04755 0.82378 0.0
C388 C 0.5679 0.14343 0.80371 0.0
C389 C 0.58398 0.20368 0.81894 0.0
N390 N 0.60005 0.14237 0.83229 0.0
C391 C 0.58432 0.12295 0.81788 0.0
C392 C 0.60016 0.18222 0.83286 0.0
C393 C 0.56774 0.18407 0.80429 0.0
C394 C 0.69887 0.06288 0.88577 0.0
N395 N 0.68794 0.03586 0.87215 0.0
C396 C 0.72601 0.06973 0.88564 0.0
C397 C 0.74198 0.04867 0.87145 0.0
C398 C 0.7307 0.02112 0.85764 0.0
C399 C 0.70348 0.01511 0.85819 0.0
C400 C 0.67353 0.91594 0.89031 0.0
C401 C 0.64044 0.949 0.85967 0.0
C402 C 0.67046 0.95635 0.8889 0.0
N403 N 0.6542 0.97236 0.87363 0.0
C404 C 0.64301 0.90847 0.8606 0.0
C405 C 0.6597 0.89191 0.87602 0.0
C406 C 0.59168 0.04066 0.86459 0.0
C407 C 0.62084 0.17949 0.90871 0.0
C408 C 0.58453 0.148 0.88007 0.0
C409 C 0.57568 0.16872 0.89818 0.0
C410 C 0.594 0.18452 0.91258 0.0
N411 N 0.61089 0.14329 0.87635 0.0
C412 C 0.62897 0.15865 0.89041 0.0
Co413 Co 0.34867 0.96692 0.87583 0.0
Co414 Co 0.36765 0.87822 0.85385 0.0
O415 O 0.34681 0.91009 0.8738 0.0
C416 C 0.36252 0.93811 0.91942 0.0
O417 O 0.37604 0.91061 0.90968 0.0
C418 C 0.31228 0.86126 0.84353 0.0
O419 O 0.30762 0.89867 0.84574 0.0
O420 O 0.36053 0.91421 0.82926 0.0
O421 O 0.34772 0.97164 0.84346 0.0
H422 H 0.43565 0.85417 0.79608 0.0
H423 H 0.30796 0.92378 0.90064 0.0
O424 O 0.34996 0.96337 0.90833 0.0
H425 H 0.25875 0.01225 0.85228 0.0
H426 H 0.32603 0.09761 0.90807 0.0
H427 H 0.37774 0.02874 0.85217 0.0
H428 H 0.30736 0.01226 0.85238 0.0
H429 H 0.32359 0.02596 0.90474 0.0
O430 O 0.33542 0.84771 0.84606 0.0
H431 H 0.40952 0.8942 0.82143 0.0
H432 H 0.36919 0.79322 0.8437 0.0
H433 H 0.3806 0.10044 0.8548 0.0
H434 H 0.25934 0.92298 0.90119 0.0
H435 H 0.35461 0.13533 0.88292 0.0
H436 H 0.23442 0.96736 0.87682 0.0
O437 O 0.38786 0.96599 0.87524 0.0
H438 H 0.3432 0.79643 0.91851 0.0
H439 H 0.41619 0.84152 0.87192 0.0
H440 H 0.42569 0.79846 0.90304 0.0
H441 H 0.38903 0.77565 0.92659 0.0
H442 H 0.3346 0.83972 0.88732 0.0
H443 H 0.39474 0.7521 0.81846 0.0
H444 H 0.42832 0.78256 0.79448 0.0
O445 O 0.40003 0.9083 0.86107 0.0
C446 C 0.35312 0.94957 0.82736 0.0
C447 C 0.42114 0.84053 0.80649 0.0
C448 C 0.39815 0.78325 0.81904 0.0
N449 N 0.38802 0.84602 0.83415 0.0
C450 C 0.40634 0.86303 0.82093 0.0
C451 C 0.38371 0.80669 0.83326 0.0
C452 C 0.417 0.80036 0.80559 0.0
C453 C 0.29724 0.94345 0.89015 0.0
N454 N 0.31047 0.96812 0.87654 0.0
C455 C 0.26972 0.94277 0.89047 0.0
C456 C 0.25575 0.96762 0.87676 0.0
C457 C 0.26939 0.99279 0.86298 0.0
C458 C 0.29691 0.9926 0.86307 0.0
C459 C 0.33739 0.08275 0.89572 0.0
C460 C 0.36623 0.04376 0.86434 0.0
C461 C 0.33613 0.04219 0.89378 0.0
N462 N 0.35033 0.02327 0.87815 0.0
C463 C 0.368 0.08434 0.8658 0.0
C464 C 0.35343 0.10389 0.8816 0.0
C465 C 0.40534 0.94168 0.86907 0.0
C466 C 0.35932 0.80607 0.90832 0.0
C467 C 0.40013 0.8317 0.88209 0.0
C468 C 0.40563 0.80728 0.89967 0.0
C469 C 0.38505 0.79447 0.91287 0.0
N470 N 0.37484 0.84293 0.87774 0.0
C471 C 0.35456 0.83043 0.89058 0.0
Co472 Co 0.85298 0.53262 0.37415 0.0
Co473 Co 0.87017 0.62412 0.35559 0.0
O474 O 0.85011 0.58941 0.37445 0.0
C475 C 0.86443 0.556 0.41888 0.0
O476 O 0.8796 0.58292 0.41032 0.0
C477 C 0.81524 0.64695 0.34711 0.0
O478 O 0.81021 0.6103 0.3425 0.0
O479 O 0.85942 0.59377 0.32957 0.0
O480 O 0.85448 0.53207 0.34165 0.0
H481 H 0.93271 0.65703 0.29503 0.0
H482 H 0.80968 0.57049 0.3986 0.0
O483 O 0.85193 0.53229 0.40671 0.0
H484 H 0.76593 0.48698 0.34422 0.0
H485 H 0.83072 0.39728 0.40003 0.0
H486 H 0.88497 0.47519 0.34964 0.0
H487 H 0.81443 0.48922 0.34669 0.0
H488 H 0.8271 0.46906 0.39935 0.0
O489 O 0.83833 0.65765 0.35253 0.0
H490 H 0.90786 0.61314 0.31931 0.0
H491 H 0.87349 0.71057 0.35109 0.0
H492 H 0.88907 0.40348 0.34965 0.0
H493 H 0.76112 0.56893 0.3968 0.0
H494 H 0.86181 0.36404 0.37499 0.0
H495 H 0.73894 0.52701 0.36943 0.0
O496 O 0.89198 0.53531 0.37532 0.0
H497 H 0.85473 0.69357 0.42633 0.0
H498 H 0.9215 0.65405 0.37247 0.0
H499 H 0.93534 0.68997 0.40525 0.0
H500 H 0.90183 0.71001 0.43245 0.0
H501 H 0.84178 0.6572 0.39346 0.0
H502 H 0.89779 0.75554 0.32702 0.0
H503 H 0.92774 0.7288 0.29881 0.0
O504 O 0.90243 0.59127 0.3584 0.0
C505 C 0.85558 0.55742 0.32649 0.0
C506 C 0.9198 0.66905 0.30731 0.0
C507 C 0.90017 0.72433 0.32525 0.0
N508 N 0.88947 0.6593 0.33673 0.0
C509 C 0.90574 0.64434 0.32115 0.0
C510 C 0.88643 0.69873 0.3388 0.0
C511 C 0.91698 0.70931 0.30943 0.0
C512 C 0.80015 0.55191 0.38678 0.0
N513 N 0.81485 0.52979 0.37287 0.0
C514 C 0.77266 0.55126 0.38578 0.0
C515 C 0.76023 0.52777 0.3704 0.0
C516 C 0.77536 0.50532 0.35624 0.0
C517 C 0.80281 0.50675 0.3577 0.0
C518 C 0.84265 0.41414 0.38888 0.0
C519 C 0.8729 0.45819 0.36059 0.0
C520 C 0.84071 0.45478 0.38844 0.0
N521 N 0.85562 0.47622 0.37432 0.0
C522 C 0.87537 0.41762 0.36058 0.0
C523 C 0.86009 0.39551 0.37482 0.0
C524 C 0.9087 0.5589 0.36719 0.0
C525 C 0.8695 0.68513 0.41456 0.0
C526 C 0.9068 0.66257 0.38425 0.0
C527 C 0.91475 0.68299 0.40276 0.0
C528 C 0.89594 0.69427 0.418 0.0
N529 N 0.88083 0.65366 0.381 0.0
C530 C 0.86227 0.6647 0.39586 0.0
Co531 Co 0.15312 0.47234 0.37311 0.0
Co532 Co 0.12619 0.3892 0.35059 0.0
O533 O 0.14801 0.41596 0.37198 0.0
C534 C 0.13283 0.45308 0.41655 0.0
O535 O 0.11292 0.43629 0.40664 0.0
C536 C 0.1782 0.35314 0.34714 0.0
O537 O 0.18789 0.38861 0.3478 0.0
O538 O 0.14341 0.41779 0.32648 0.0
O539 O 0.15493 0.47598 0.34061 0.0
H540 H 0.06739 0.38046 0.28513 0.0
H541 H 0.18782 0.42104 0.39933 0.0
O542 O 0.15111 0.46941 0.40562 0.0
H543 H 0.24735 0.49249 0.35004 0.0
H544 H 0.19087 0.59578 0.40463 0.0
H545 H 0.13224 0.54023 0.3487 0.0
H546 H 0.19944 0.50459 0.34928 0.0
H547 H 0.18452 0.52457 0.40184 0.0
O548 O 0.15344 0.34748 0.34799 0.0
H549 H 0.09459 0.41412 0.31257 0.0
H550 H 0.11235 0.30586 0.34271 0.0
H551 H 0.13817 0.61157 0.35079 0.0
H552 H 0.23561 0.40834 0.40078 0.0
H553 H 0.16767 0.63977 0.37891 0.0
H554 H 0.26572 0.44408 0.37595 0.0
O555 O 0.11453 0.48144 0.37165 0.0
H556 H 0.12486 0.31211 0.41996 0.0
H557 H 0.0704 0.37275 0.36288 0.0
H558 H 0.04876 0.33915 0.39349 0.0
H559 H 0.07605 0.3085 0.4223 0.0
H560 H 0.14569 0.34626 0.38913 0.0
H561 H 0.08553 0.27096 0.31548 0.0
H562 H 0.06273 0.30835 0.28649 0.0
O563 O 0.09863 0.4305 0.35269 0.0
C564 C 0.15209 0.45249 0.32468 0.0
C565 C 0.07714 0.36386 0.29774 0.0
C566 C 0.08735 0.30239 0.31476 0.0
N567 N 0.1048 0.362 0.32933 0.0
C568 C 0.09249 0.38276 0.31335 0.0
C569 C 0.10254 0.32229 0.3301 0.0
C570 C 0.07456 0.32339 0.2985 0.0
C571 C 0.20082 0.43707 0.38866 0.0
N572 N 0.19086 0.46366 0.37431 0.0
C573 C 0.22786 0.42961 0.38948 0.0
C574 C 0.24473 0.44962 0.37551 0.0
C575 C 0.23443 0.47675 0.36095 0.0
C576 C 0.20728 0.48341 0.36056 0.0
C577 C 0.17802 0.58384 0.39226 0.0
C578 C 0.14527 0.55228 0.36087 0.0
C579 C 0.17433 0.54356 0.39063 0.0
N580 N 0.15824 0.52828 0.37498 0.0
C581 C 0.14847 0.5927 0.36203 0.0
C582 C 0.16501 0.6085 0.37783 0.0
C583 C 0.09588 0.46351 0.36198 0.0
C584 C 0.11276 0.32524 0.40747 0.0
C585 C 0.08241 0.3595 0.37536 0.0
C586 C 0.07004 0.34047 0.39264 0.0
C587 C 0.08537 0.32327 0.40879 0.0
N588 N 0.10929 0.36124 0.37416 0.0
C589 C 0.12444 0.34446 0.38994 0.0
Co590 Co 0.85031 0.47654 0.1243 0.0
Co591 Co 0.87116 0.39113 0.14851 0.0
O592 O 0.85059 0.41963 0.12688 0.0
C593 C 0.86465 0.44761 0.08107 0.0
O594 O 0.88056 0.42341 0.09107 0.0
C595 C 0.81701 0.36219 0.15341 0.0
O596 O 0.80909 0.39848 0.15169 0.0
O597 O 0.85665 0.42396 0.17213 0.0
O598 O 0.85038 0.48279 0.15668 0.0
H599 H 0.93091 0.37851 0.21317 0.0
H600 H 0.81031 0.4303 0.10041 0.0
O601 O 0.8507 0.4716 0.09188 0.0
H602 H 0.75973 0.51554 0.1496 0.0
H603 H 0.8219 0.60388 0.09106 0.0
H604 H 0.87817 0.54153 0.14634 0.0
H605 H 0.80828 0.51881 0.14865 0.0
H606 H 0.82212 0.53232 0.09537 0.0
O607 O 0.84139 0.3538 0.15258 0.0
H608 H 0.90533 0.41397 0.18543 0.0
H609 H 0.87952 0.30676 0.15812 0.0
H610 H 0.87841 0.61319 0.14271 0.0
H611 H 0.76177 0.4263 0.1007 0.0
H612 H 0.85012 0.64482 0.11491 0.0
H613 H 0.73616 0.46904 0.12549 0.0
O614 O 0.88933 0.47842 0.1242 0.0
H615 H 0.86486 0.30785 0.08156 0.0
H616 H 0.92518 0.36578 0.13549 0.0
H617 H 0.94335 0.32649 0.10548 0.0
H618 H 0.9131 0.29719 0.07826 0.0
H619 H 0.84754 0.34767 0.11171 0.0
H620 H 0.90464 0.27011 0.18568 0.0
H621 H 0.93067 0.30604 0.2134 0.0
O622 O 0.90149 0.42779 0.14504 0.0
C623 C 0.85138 0.46022 0.17314 0.0
C624 C 0.91973 0.36252 0.20113 0.0
C625 C 0.90496 0.30168 0.18571 0.0
N626 N 0.89118 0.36245 0.17005 0.0
C627 C 0.90528 0.38244 0.18534 0.0
C628 C 0.89075 0.32258 0.17017 0.0
C629 C 0.91956 0.32186 0.20126 0.0
C630 C 0.79929 0.44931 0.11106 0.0
N631 N 0.8121 0.47487 0.12443 0.0
C632 C 0.77181 0.44678 0.11123 0.0
C633 C 0.75746 0.47072 0.12517 0.0
C634 C 0.77067 0.49678 0.13872 0.0
C635 C 0.79817 0.49844 0.13815 0.0
C636 C 0.83425 0.59045 0.10328 0.0
C637 C 0.86565 0.55511 0.13433 0.0
C638 C 0.83448 0.54995 0.10578 0.0
N639 N 0.84993 0.53283 0.12125 0.0
C640 C 0.86594 0.59568 0.13229 0.0
C641 C 0.85009 0.6134 0.11667 0.0
C642 C 0.90665 0.45882 0.13443 0.0
C643 C 0.87823 0.32034 0.09337 0.0
C644 C 0.91189 0.35321 0.12368 0.0
C645 C 0.92229 0.3309 0.10676 0.0
C646 C 0.90531 0.31444 0.0915 0.0
N647 N 0.88531 0.3589 0.12539 0.0
C648 C 0.86853 0.34275 0.11053 0.0
Co649 Co 0.15163 0.52436 0.12154 0.0
Co650 Co 0.1345 0.61189 0.14567 0.0
O651 O 0.15334 0.58121 0.12391 0.0
C652 C 0.13517 0.55435 0.07902 0.0
O653 O 0.12092 0.57969 0.08982 0.0
C654 C 0.19011 0.63371 0.15042 0.0
O655 O 0.19588 0.59663 0.14826 0.0
O656 O 0.14726 0.57745 0.16923 0.0
O657 O 0.15375 0.51849 0.15391 0.0
H658 H 0.07574 0.63139 0.21041 0.0
H659 H 0.19122 0.56781 0.09567 0.0
O660 O 0.14901 0.5292 0.08913 0.0
H661 H 0.24255 0.47943 0.14256 0.0
H662 H 0.17342 0.39498 0.08737 0.0
H663 H 0.12358 0.46153 0.14527 0.0
H664 H 0.19396 0.47934 0.14389 0.0
H665 H 0.17577 0.46652 0.09142 0.0
O666 O 0.16632 0.64531 0.14977 0.0
H667 H 0.09921 0.59306 0.18257 0.0
H668 H 0.13095 0.69691 0.15547 0.0
H669 H 0.1208 0.38993 0.14191 0.0
H670 H 0.23977 0.56866 0.09368 0.0
H671 H 0.14585 0.3562 0.11279 0.0
H672 H 0.26577 0.52433 0.11731 0.0
O673 O 0.11266 0.52505 0.12329 0.0
H674 H 0.14511 0.6942 0.07872 0.0
H675 H 0.08203 0.64378 0.13284 0.0
H676 H 0.06597 0.68515 0.10287 0.0
H677 H 0.09762 0.71066 0.07555 0.0
H678 H 0.1603 0.65245 0.10884 0.0
H679 H 0.10801 0.73635 0.18313 0.0
H680 H 0.08007 0.70358 0.2108 0.0
O681 O 0.10228 0.57897 0.14218 0.0
C682 C 0.15285 0.54131 0.17028 0.0
C683 C 0.08777 0.64602 0.19839 0.0
C684 C 0.10591 0.70493 0.1831 0.0
N685 N 0.1162 0.64277 0.16729 0.0
C686 C 0.10103 0.62449 0.18255 0.0
C687 C 0.11888 0.68245 0.1675 0.0
C688 C 0.09023 0.68652 0.19861 0.0
C689 C 0.20239 0.54812 0.10581 0.0
N690 N 0.18978 0.52342 0.1198 0.0
C691 C 0.22988 0.54886 0.10469 0.0
C692 C 0.24445 0.52403 0.11798 0.0
C693 C 0.23144 0.49886 0.13217 0.0
C694 C 0.20392 0.49899 0.13289 0.0
C695 C 0.16247 0.40933 0.10016 0.0
C696 C 0.13469 0.44701 0.13266 0.0
C697 C 0.1637 0.44982 0.10251 0.0
N698 N 0.15003 0.46809 0.1187 0.0
C699 C 0.13297 0.40649 0.13079 0.0
C700 C 0.147 0.38759 0.11443 0.0
C701 C 0.09605 0.54721 0.13268 0.0
C702 C 0.13115 0.68338 0.09057 0.0
C703 C 0.09592 0.65473 0.121 0.0
C704 C 0.08672 0.67821 0.10409 0.0
C705 C 0.10449 0.69254 0.08878 0.0
N706 N 0.12211 0.64584 0.12263 0.0
C707 C 0.13966 0.65988 0.10772 0.0
Co708 Co 0.14812 0.46903 0.624 0.0
Co709 Co 0.12892 0.37902 0.6439 0.0
O710 O 0.15006 0.41224 0.62498 0.0
C711 C 0.1353 0.4427 0.57986 0.0
O712 O 0.12074 0.41581 0.58911 0.0
C713 C 0.18357 0.35943 0.6556 0.0
O714 O 0.18772 0.39674 0.65894 0.0
O715 O 0.13662 0.41256 0.66952 0.0
O716 O 0.14796 0.47166 0.65646 0.0
H717 H 0.06157 0.35017 0.70154 0.0
H718 H 0.18979 0.42704 0.59972 0.0
O719 O 0.14799 0.46719 0.59142 0.0
H720 H 0.23704 0.51397 0.65032 0.0
H721 H 0.17148 0.60163 0.59459 0.0
H722 H 0.11828 0.52927 0.6482 0.0
H723 H 0.18845 0.51371 0.64896 0.0
H724 H 0.17393 0.52984 0.59669 0.0
O725 O 0.16094 0.3471 0.64991 0.0
H726 H 0.08776 0.39233 0.67728 0.0
H727 H 0.12658 0.29313 0.65121 0.0
H728 H 0.1154 0.60107 0.64681 0.0
H729 H 0.2384 0.42654 0.6004 0.0
H730 H 0.14212 0.63772 0.61985 0.0
H731 H 0.26234 0.47015 0.62589 0.0
O732 O 0.1089 0.46789 0.62368 0.0
H733 H 0.15148 0.30354 0.57643 0.0
H734 H 0.07972 0.34517 0.6252 0.0
H735 H 0.06928 0.30553 0.59289 0.0
H736 H 0.10531 0.28446 0.56824 0.0
H737 H 0.16103 0.34349 0.60879 0.0
H738 H 0.10094 0.24987 0.6753 0.0
H739 H 0.06809 0.27837 0.70064 0.0
O740 O 0.09675 0.41032 0.63803 0.0
C741 C 0.14324 0.44821 0.67212 0.0
C742 C 0.07576 0.33739 0.69052 0.0
C743 C 0.09788 0.2811 0.67581 0.0
N744 N 0.10849 0.34518 0.66272 0.0
C745 C 0.09059 0.3611 0.6767 0.0
C746 C 0.11237 0.30574 0.66224 0.0
C747 C 0.07945 0.29711 0.69002 0.0
C748 C 0.20008 0.4463 0.61074 0.0
N749 N 0.18632 0.47043 0.62426 0.0
C750 C 0.2276 0.44581 0.6111 0.0
C751 C 0.24102 0.47025 0.62542 0.0
C752 C 0.22684 0.49482 0.63914 0.0
C753 C 0.19933 0.49448 0.63835 0.0
C754 C 0.15978 0.586 0.60644 0.0
C755 C 0.13011 0.54506 0.63654 0.0
C756 C 0.16105 0.54536 0.60767 0.0
N757 N 0.14643 0.52546 0.62268 0.0
C758 C 0.12833 0.58569 0.63577 0.0
C759 C 0.14331 0.60623 0.62062 0.0
C760 C 0.09143 0.44367 0.63004 0.0
C761 C 0.13563 0.31242 0.58709 0.0
C762 C 0.09551 0.33612 0.61455 0.0
C763 C 0.08948 0.31363 0.5963 0.0
C764 C 0.10971 0.30178 0.58248 0.0
N765 N 0.12098 0.34644 0.61896 0.0
C766 C 0.14093 0.33488 0.60551 0.0
Co767 Co 0.84623 0.527 0.6259 0.0
Co768 Co 0.87336 0.61254 0.64534 0.0
O769 O 0.85016 0.5834 0.62614 0.0
C770 C 0.8647 0.54547 0.58189 0.0
O771 O 0.88403 0.56451 0.59127 0.0
C772 C 0.82071 0.64302 0.65514 0.0
O773 O 0.81351 0.60676 0.65853 0.0
O774 O 0.86151 0.58215 0.67108 0.0
O775 O 0.84533 0.52534 0.65837 0.0
H776 H 0.94033 0.62977 0.70471 0.0
H777 H 0.81 0.57689 0.60029 0.0
O778 O 0.84722 0.5283 0.59331 0.0
H779 H 0.75308 0.504 0.65099 0.0
H780 H 0.80997 0.40047 0.59711 0.0
H781 H 0.86868 0.46138 0.65122 0.0
H782 H 0.80112 0.49316 0.65059 0.0
H783 H 0.81518 0.47201 0.59852 0.0
O784 O 0.84439 0.6511 0.64997 0.0
H785 H 0.91138 0.59234 0.68018 0.0
H786 H 0.88362 0.69735 0.65168 0.0
H787 H 0.86388 0.38976 0.65052 0.0
H788 H 0.76203 0.58843 0.60001 0.0
H789 H 0.83435 0.35887 0.62331 0.0
H790 H 0.73323 0.55193 0.62555 0.0
O791 O 0.88518 0.51927 0.62664 0.0
H792 H 0.86141 0.68825 0.57614 0.0
H793 H 0.9261 0.63464 0.6279 0.0
H794 H 0.94175 0.66995 0.59545 0.0
H795 H 0.90929 0.69707 0.56932 0.0
H796 H 0.84662 0.65249 0.6087 0.0
H797 H 0.91213 0.73599 0.67603 0.0
H798 H 0.94082 0.70215 0.70272 0.0
O799 O 0.90226 0.57427 0.6409 0.0
C800 C 0.85171 0.54821 0.67389 0.0
C801 C 0.928 0.64485 0.69309 0.0
C802 C 0.91214 0.70447 0.67702 0.0
N803 N 0.89603 0.64263 0.66439 0.0
C804 C 0.91163 0.6238 0.67911 0.0
C805 C 0.89601 0.68245 0.6633 0.0
C806 C 0.92824 0.68546 0.69198 0.0
C807 C 0.79757 0.56065 0.61132 0.0
N808 N 0.80833 0.53429 0.62539 0.0
C809 C 0.77043 0.56741 0.61114 0.0
C810 C 0.75429 0.54696 0.62549 0.0
C811 C 0.76542 0.52008 0.63978 0.0
C812 C 0.79264 0.51412 0.63952 0.0
C813 C 0.82286 0.41359 0.60907 0.0
C814 C 0.85567 0.44815 0.63943 0.0
C815 C 0.82593 0.45406 0.60991 0.0
N816 N 0.84206 0.47082 0.62505 0.0
C817 C 0.85309 0.40758 0.63906 0.0
C818 C 0.83654 0.39027 0.62378 0.0
C819 C 0.90454 0.53972 0.63347 0.0
C820 C 0.87574 0.67669 0.58745 0.0
C821 C 0.91185 0.64636 0.6166 0.0
C822 C 0.92083 0.66636 0.59827 0.0
C823 C 0.90261 0.68158 0.58362 0.0
N824 N 0.88547 0.64177 0.62027 0.0
C825 C 0.86748 0.65656 0.60596 0.0
Co826 Co 0.14569 0.54173 0.87177 0.0
Co827 Co 0.11958 0.62686 0.85064 0.0
O828 O 0.14242 0.59833 0.87058 0.0
C829 C 0.12751 0.56238 0.91576 0.0
O830 O 0.10824 0.58165 0.90646 0.0
C831 C 0.17313 0.65436 0.84171 0.0
O832 O 0.18032 0.61767 0.84262 0.0
O833 O 0.13057 0.59406 0.82563 0.0
O834 O 0.14683 0.53819 0.83934 0.0
H835 H 0.05159 0.64097 0.79184 0.0
H836 H 0.18246 0.59137 0.89709 0.0
O837 O 0.14459 0.54454 0.90431 0.0
H838 H 0.23874 0.51475 0.84772 0.0
H839 H 0.17998 0.41567 0.90268 0.0
H840 H 0.12231 0.47548 0.8475 0.0
H841 H 0.19051 0.50569 0.84773 0.0
H842 H 0.1759 0.48724 0.90009 0.0
O843 O 0.14909 0.66389 0.84427 0.0
H844 H 0.08031 0.60485 0.81711 0.0
H845 H 0.11087 0.71133 0.84183 0.0
H846 H 0.12597 0.4038 0.8494 0.0
H847 H 0.23062 0.60102 0.89781 0.0
H848 H 0.15498 0.37346 0.87715 0.0
H849 H 0.2591 0.56269 0.87292 0.0
O850 O 0.10665 0.53505 0.87098 0.0
H851 H 0.13422 0.70841 0.91738 0.0
H852 H 0.06759 0.65258 0.86801 0.0
H853 H 0.05321 0.69152 0.89954 0.0
H854 H 0.08666 0.71978 0.92447 0.0
H855 H 0.14772 0.66907 0.88574 0.0
H856 H 0.08264 0.74866 0.8167 0.0
H857 H 0.05265 0.71343 0.79153 0.0
O858 O 0.09008 0.59015 0.85655 0.0
C859 C 0.14032 0.56002 0.82342 0.0
C860 C 0.06451 0.65667 0.80277 0.0
C861 C 0.08197 0.7171 0.8167 0.0
N862 N 0.0971 0.65597 0.83102 0.0
C863 C 0.08076 0.63637 0.81715 0.0
C864 C 0.09795 0.69582 0.83086 0.0
C865 C 0.06514 0.69731 0.80259 0.0
C866 C 0.19474 0.57426 0.88638 0.0
N867 N 0.18369 0.54791 0.87242 0.0
C868 C 0.22199 0.57996 0.88681 0.0
C869 C 0.23795 0.5585 0.8728 0.0
C870 C 0.22654 0.53163 0.85864 0.0
C871 C 0.19922 0.52671 0.85867 0.0
C872 C 0.16732 0.42855 0.89049 0.0
C873 C 0.13511 0.46248 0.85952 0.0
C874 C 0.16489 0.46904 0.88897 0.0
N875 N 0.14906 0.48549 0.87354 0.0
C876 C 0.13704 0.42189 0.86056 0.0
C877 C 0.1533 0.40488 0.87615 0.0
C878 C 0.08743 0.55589 0.86431 0.0
C879 C 0.11947 0.69637 0.90659 0.0
C880 C 0.08225 0.66477 0.87879 0.0
C881 C 0.074 0.68683 0.8966 0.0
C882 C 0.09277 0.70269 0.91058 0.0
N883 N 0.10847 0.65881 0.87496 0.0
C884 C 0.127 0.6742 0.88861 0.0
Co885 Co 0.8455 0.46196 0.87397 0.0
Co886 Co 0.87042 0.37533 0.85413 0.0
O887 O 0.84806 0.40542 0.87353 0.0
C888 C 0.86391 0.44228 0.91783 0.0
O889 O 0.88269 0.42229 0.90835 0.0
C890 C 0.81692 0.34807 0.84428 0.0
O891 O 0.81072 0.3848 0.84121 0.0
O892 O 0.85935 0.40673 0.82856 0.0
O893 O 0.84442 0.46405 0.8415 0.0
H894 H 0.93661 0.35523 0.79447 0.0
H895 H 0.80825 0.41377 0.89965 0.0
O896 O 0.84674 0.4603 0.90654 0.0
H897 H 0.7528 0.48998 0.84943 0.0
H898 H 0.81261 0.58997 0.90333 0.0
H899 H 0.86941 0.52666 0.84875 0.0
H900 H 0.80109 0.49827 0.84958 0.0
H901 H 0.81603 0.51822 0.90166 0.0
O902 O 0.84037 0.33849 0.84936 0.0
H903 H 0.90881 0.39388 0.81927 0.0
H904 H 0.87837 0.29011 0.8474 0.0
H905 H 0.86641 0.59848 0.84971 0.0
H906 H 0.76002 0.40476 0.90018 0.0
H907 H 0.83784 0.63057 0.87715 0.0
H908 H 0.73196 0.44294 0.87489 0.0
O909 O 0.88459 0.46769 0.87302 0.0
H910 H 0.85662 0.29915 0.92295 0.0
H911 H 0.92257 0.35011 0.87137 0.0
H912 H 0.93735 0.31341 0.9036 0.0
H913 H 0.90426 0.28761 0.92964 0.0
H914 H 0.84272 0.33625 0.89062 0.0
H915 H 0.9057 0.25025 0.82279 0.0
H916 H 0.93516 0.28284 0.79615 0.0
O917 O 0.90038 0.41195 0.85867 0.0
C918 C 0.85031 0.44113 0.82589 0.0
C919 C 0.92394 0.34068 0.80607 0.0
C920 C 0.90655 0.28177 0.82194 0.0
N921 N 0.8922 0.34428 0.8349 0.0
C922 C 0.90822 0.36242 0.8202 0.0
C923 C 0.8911 0.30447 0.83581 0.0
C924 C 0.92309 0.30007 0.807 0.0
C925 C 0.79615 0.43073 0.88873 0.0
N926 N 0.80746 0.45661 0.87465 0.0
C927 C 0.76886 0.42541 0.88905 0.0
C928 C 0.75313 0.4468 0.87483 0.0
C929 C 0.76481 0.47318 0.86054 0.0
C930 C 0.79217 0.47769 0.86065 0.0
C931 C 0.82508 0.57632 0.89127 0.0
C932 C 0.85681 0.54043 0.86064 0.0
C933 C 0.82714 0.53573 0.89028 0.0
N934 N 0.84273 0.51832 0.87501 0.0
C935 C 0.85525 0.5811 0.86115 0.0
C936 C 0.83924 0.59909 0.87657 0.0
C937 C 0.90345 0.44637 0.86613 0.0
C938 C 0.87123 0.31012 0.91168 0.0
C939 C 0.90805 0.33898 0.88264 0.0
C940 C 0.91654 0.31818 0.90084 0.0
C941 C 0.89796 0.30371 0.91544 0.0
N942 N 0.8818 0.34507 0.87904 0.0
C943 C 0.86346 0.33101 0.8933 0.0
C944 C 0.35466 0.01819 0.45657 0.0
C945 C 0.35756 0.05258 0.44452 0.0
C946 C 0.35576 0.01886 0.47935 0.0
C947 C 0.35891 0.05496 0.49026 0.0
C948 C 0.36093 0.08991 0.47811 0.0
C949 C 0.3607 0.08821 0.45535 0.0
C950 C 0.35434 0.98087 0.49171 0.0
C951 C 0.36348 0.12909 0.48913 0.0
C952 C 0.34043 0.05936 0.55006 0.0
C953 C 0.36528 0.05963 0.55996 0.0
C954 C 0.33802 0.05832 0.52734 0.0
C955 C 0.36101 0.05611 0.51435 0.0
C956 C 0.38613 0.0555 0.52436 0.0
C957 C 0.38797 0.05798 0.54705 0.0
C958 C 0.31094 0.0603 0.51725 0.0
C959 C 0.41108 0.05197 0.51112 0.0
H960 H 0.35241 0.99061 0.44814 0.0
H961 H 0.36268 0.11486 0.446 0.0
H962 H 0.37264 0.97685 0.50132 0.0
H963 H 0.33767 0.98147 0.50335 0.0
H964 H 0.35184 0.95534 0.48078 0.0
H965 H 0.36294 0.15366 0.47737 0.0
H966 H 0.34731 0.13302 0.50107 0.0
H967 H 0.38232 0.13054 0.49823 0.0
H968 H 0.32289 0.06093 0.56008 0.0
H969 H 0.4072 0.05782 0.55475 0.0
H970 H 0.30724 0.03387 0.50731 0.0
H971 H 0.30974 0.08581 0.50619 0.0
H972 H 0.29509 0.06277 0.52962 0.0
H973 H 0.41002 0.02578 0.50056 0.0
H974 H 0.42894 0.04979 0.52147 0.0
H975 H 0.41323 0.07769 0.50034 0.0
C976 C 0.6588 0.94925 0.54504 0.0
C977 C 0.63452 0.94894 0.55584 0.0
C978 C 0.65991 0.9497 0.52225 0.0
C979 C 0.63618 0.95133 0.51016 0.0
C980 C 0.61166 0.95245 0.52112 0.0
C981 C 0.61112 0.95048 0.54385 0.0
C982 C 0.68636 0.94716 0.51113 0.0
C983 C 0.58596 0.95542 0.50884 0.0
C984 C 0.6382 0.98391 0.45122 0.0
C985 C 0.63411 0.94849 0.4404 0.0
C986 C 0.63909 0.98534 0.47399 0.0
C987 C 0.63678 0.9503 0.48605 0.0
C988 C 0.63372 0.91428 0.47507 0.0
C989 C 0.63193 0.91392 0.45236 0.0
C990 C 0.6415 0.0244 0.48515 0.0
C991 C 0.63202 0.87617 0.48731 0.0
H992 H 0.67688 0.94777 0.5544 0.0
H993 H 0.59236 0.95062 0.55229 0.0
H994 H 0.68719 0.92035 0.50105 0.0
H995 H 0.68913 0.97233 0.50005 0.0
H996 H 0.70296 0.94656 0.52289 0.0
H997 H 0.56881 0.95918 0.51985 0.0
H998 H 0.58663 0.98045 0.49742 0.0
H999 H 0.58283 0.92868 0.49904 0.0
H1000 H 0.63971 0.01065 0.44189 0.0
H1001 H 0.62904 0.88649 0.44392 0.0
H1002 H 0.65869 0.02452 0.49627 0.0
H1003 H 0.62371 0.02977 0.49519 0.0
H1004 H 0.64372 0.04879 0.47341 0.0
H1005 H 0.64887 0.87346 0.49869 0.0
H1006 H 0.63199 0.85054 0.47626 0.0
H1007 H 0.61372 0.87544 0.49715 0.0
C1008 C 0.3431 0.94955 0.04838 0.0
C1009 C 0.36764 0.94996 0.0588 0.0
C1010 C 0.34138 0.9473 0.02566 0.0
C1011 C 0.36477 0.94675 0.01312 0.0
C1012 C 0.3896 0.94808 0.0236 0.0
C1013 C 0.39073 0.94899 0.04635 0.0
C1014 C 0.31457 0.94478 0.01511 0.0
C1015 C 0.41497 0.9487 0.01077 0.0
C1016 C 0.3647 0.90617 0.95573 0.0
C1017 C 0.3623 0.94022 0.94333 0.0
C1018 C 0.3648 0.90778 0.9785 0.0
C1019 C 0.36334 0.94446 0.98903 0.0
C1020 C 0.36108 0.97897 0.97653 0.0
C1021 C 0.36015 0.97637 0.95379 0.0
C1022 C 0.36646 0.87027 0.99128 0.0
C1023 C 0.36025 0.01867 0.98713 0.0
H1024 H 0.32523 0.94994 0.05804 0.0
H1025 H 0.40972 0.94959 0.05443 0.0
H1026 H 0.31167 0.96976 0.00392 0.0
H1027 H 0.3132 0.91776 0.00524 0.0
H1028 H 0.29833 0.94473 0.02721 0.0
H1029 H 0.43258 0.95171 0.02137 0.0
H1030 H 0.4169 0.92142 0.00122 0.0
H1031 H 0.41475 0.9733 0.99906 0.0
H1032 H 0.36613 0.87817 0.94761 0.0
H1033 H 0.3585 0.00275 0.94417 0.0
H1034 H 0.34985 0.86849 0.00297 0.0
H1035 H 0.38496 0.86967 0.00086 0.0
H1036 H 0.36594 0.84409 0.98065 0.0
H1037 H 0.34322 0.02055 0.99836 0.0
H1038 H 0.35871 0.04266 0.97506 0.0
H1039 H 0.37833 0.0232 0.99695 0.0
C1040 C 0.61069 0.04964 0.95213 0.0
C1041 C 0.63378 0.04938 0.93968 0.0
C1042 C 0.61182 0.05021 0.97487 0.0
C1043 C 0.63664 0.05196 0.98533 0.0
C1044 C 0.66004 0.05211 0.97279 0.0
C1045 C 0.65833 0.05012 0.95005 0.0
C1046 C 0.58645 0.04877 0.98768 0.0
C1047 C 0.68682 0.05515 0.98335 0.0
C1048 C 0.63527 0.09149 0.04289 0.0
C1049 C 0.63773 0.05725 0.05511 0.0
C1050 C 0.63583 0.09033 0.02012 0.0
C1051 C 0.63798 0.0539 0.00941 0.0
C1052 C 0.64042 0.01922 0.02173 0.0
C1053 C 0.6407 0.02139 0.04448 0.0
C1054 C 0.63398 0.12804 0.00753 0.0
C1055 C 0.64193 0.97974 0.01092 0.0
H1056 H 0.59171 0.04875 0.94405 0.0
H1057 H 0.67617 0.05028 0.94036 0.0
H1058 H 0.58697 0.02407 0.99932 0.0
H1059 H 0.58418 0.0759 0.99731 0.0
H1060 H 0.56889 0.0454 0.97707 0.0
H1061 H 0.70306 0.05568 0.97125 0.0
H1062 H 0.68789 0.08211 0.99329 0.0
H1063 H 0.68998 0.03015 0.99448 0.0
H1064 H 0.63321 0.11926 0.05116 0.0
H1065 H 0.64241 0.99487 0.05397 0.0
H1066 H 0.61546 0.12857 0.99797 0.0
H1067 H 0.65056 0.13023 0.99584 0.0
H1068 H 0.63434 0.15403 0.01831 0.0
H1069 H 0.62391 0.97472 0.00108 0.0
H1070 H 0.64387 0.95561 0.02285 0.0
H1071 H 0.65897 0.97868 -0.00034 0.0
C1072 C 0.83887 0.54458 0.54743 0.0
C1073 C 0.86328 0.5443 0.55804 0.0
C1074 C 0.83746 0.54581 0.52467 0.0
C1075 C 0.86104 0.54541 0.51235 0.0
C1076 C 0.88571 0.54376 0.52305 0.0
C1077 C 0.88653 0.54393 0.5458 0.0
C1078 C 0.81085 0.54876 0.51383 0.0
C1079 C 0.91126 0.54215 0.51049 0.0
C1080 C 0.85852 0.51702 0.45274 0.0
C1081 C 0.86207 0.55327 0.44266 0.0
C1082 C 0.85795 0.51397 0.47547 0.0
C1083 C 0.86011 0.54816 0.48828 0.0
C1084 C 0.86266 0.58499 0.47807 0.0
C1085 C 0.86406 0.58701 0.45537 0.0
C1086 C 0.856 0.4741 0.48578 0.0
C1087 C 0.86425 0.62221 0.49113 0.0
H1088 H 0.8209 0.54518 0.55696 0.0
H1089 H 0.90541 0.54335 0.55406 0.0
H1090 H 0.80972 0.57626 0.50437 0.0
H1091 H 0.80811 0.52436 0.50223 0.0
H1092 H 0.7944 0.54826 0.52574 0.0
H1093 H 0.9286 0.53798 0.52126 0.0
H1094 H 0.91065 0.51791 0.49856 0.0
H1095 H 0.91401 0.5696 0.50123 0.0
H1096 H 0.85713 0.49091 0.44286 0.0
H1097 H 0.86653 0.6151 0.44752 0.0
H1098 H 0.83895 0.47289 0.49702 0.0
H1099 H 0.87396 0.46836 0.49555 0.0
H1100 H 0.85384 0.45052 0.47353 0.0
H1101 H 0.84751 0.62386 0.50269 0.0
H1102 H 0.86399 0.64861 0.48067 0.0
H1103 H 0.88265 0.6225 0.50085 0.0
C1104 C 0.13417 0.41059 0.54362 0.0
C1105 C 0.13668 0.44468 0.55599 0.0
C1106 C 0.13487 0.41197 0.52086 0.0
C1107 C 0.13726 0.44848 0.51028 0.0
C1108 C 0.13979 0.48302 0.52274 0.0
C1109 C 0.13991 0.48063 0.5455 0.0
C1110 C 0.13291 0.37439 0.50817 0.0
C1111 C 0.14162 0.52257 0.51204 0.0
C1112 C 0.15847 0.45175 0.45111 0.0
C1113 C 0.13409 0.45272 0.44045 0.0
C1114 C 0.15984 0.45001 0.47386 0.0
C1115 C 0.13626 0.45056 0.48617 0.0
C1116 C 0.11161 0.45248 0.47544 0.0
C1117 C 0.11082 0.45287 0.45268 0.0
C1118 C 0.18644 0.44679 0.4847 0.0
C1119 C 0.08607 0.45423 0.488 0.0
H1120 H 0.13192 0.38274 0.55177 0.0
H1121 H 0.14167 0.50702 0.5551 0.0
H1122 H 0.11452 0.37416 0.49844 0.0
H1123 H 0.14964 0.37208 0.49663 0.0
H1124 H 0.13295 0.3483 0.51888 0.0
H1125 H 0.14356 0.54658 0.52406 0.0
H1126 H 0.15879 0.52358 0.50091 0.0
H1127 H 0.12374 0.52782 0.50209 0.0
H1128 H 0.17647 0.45132 0.44162 0.0
H1129 H 0.09196 0.45394 0.44442 0.0
H1130 H 0.18724 0.4198 0.49463 0.0
H1131 H 0.18954 0.47174 0.49587 0.0
H1132 H 0.20286 0.44617 0.47277 0.0
H1133 H 0.08348 0.42713 0.49761 0.0
H1134 H 0.06869 0.4578 0.47722 0.0
H1135 H 0.08659 0.47893 0.49965 0.0
C1136 C 0.88654 0.44598 0.95352 0.0
C1137 C 0.86303 0.4442 0.94168 0.0
C1138 C 0.88621 0.44774 0.97626 0.0
C1139 C 0.8618 0.44618 0.98737 0.0
C1140 C 0.83798 0.44394 0.97544 0.0
C1141 C 0.83886 0.44372 0.95264 0.0
C1142 C 0.91198 0.45145 0.98838 0.0
C1143 C 0.81164 0.44093 0.98673 0.0
C1144 C 0.86588 0.41198 0.04588 0.0
C1145 C 0.86303 0.44713 0.05721 0.0
C1146 C 0.86458 0.41108 0.02313 0.0
C1147 C 0.86133 0.4464 0.0115 0.0
C1148 C 0.85858 0.48202 0.02292 0.0
C1149 C 0.85898 0.48185 0.04571 0.0
C1150 C 0.86675 0.37237 0.01156 0.0
C1151 C 0.85596 0.52041 0.01109 0.0
H1152 H 0.90521 0.4467 0.94496 0.0
H1153 H 0.82071 0.44202 0.94339 0.0
H1154 H 0.91136 0.47713 0.99935 0.0
H1155 H 0.91516 0.42533 0.99867 0.0
H1156 H 0.92908 0.45464 0.97725 0.0
H1157 H 0.79501 0.43865 0.97506 0.0
H1158 H 0.8114 0.41491 0.99745 0.0
H1159 H 0.80842 0.46681 0.99719 0.0
H1160 H 0.86875 0.38509 0.05485 0.0
H1161 H 0.85696 0.50907 0.05453 0.0
H1162 H 0.88494 0.37174 0.00158 0.0
H1163 H 0.84982 0.36845 0.00036 0.0
H1164 H 0.86726 0.34738 0.02304 0.0
H1165 H 0.87351 0.52519 0.00066 0.0
H1166 H 0.85403 0.5455 0.0224 0.0
H1167 H 0.8385 0.51983 0.00027 0.0
C1168 C 0.1326 0.59088 0.04418 0.0
C1169 C 0.13521 0.55528 0.05512 0.0
C1170 C 0.13241 0.59236 0.02142 0.0
C1171 C 0.13392 0.55722 0.00939 0.0
C1172 C 0.13638 0.52113 0.02041 0.0
C1173 C 0.13748 0.52067 0.04319 0.0
C1174 C 0.13063 0.6315 0.01027 0.0
C1175 C 0.13722 0.48298 0.00817 0.0
C1176 C 0.1062 0.56047 0.95215 0.0
C1177 C 0.12922 0.56099 0.93962 0.0
C1178 C 0.10746 0.55837 0.97488 0.0
C1179 C 0.13236 0.55822 0.98528 0.0
C1180 C 0.15568 0.5594 0.97266 0.0
C1181 C 0.15383 0.56006 0.94992 0.0
C1182 C 0.08217 0.55592 0.98774 0.0
C1183 C 0.18255 0.56057 0.98318 0.0
H1184 H 0.1311 0.61769 0.05346 0.0
H1185 H 0.13932 0.49311 0.05171 0.0
H1186 H 0.14715 0.63491 0.99861 0.0
H1187 H 0.11206 0.63336 0.00083 0.0
H1188 H 0.1312 0.65616 0.02197 0.0
H1189 H 0.13881 0.45744 0.0192 0.0
H1190 H 0.11912 0.47975 0.99822 0.0
H1191 H 0.15422 0.48267 0.99687 0.0
H1192 H 0.08717 0.56083 0.94413 0.0
H1193 H 0.17163 0.56075 0.94018 0.0
H1194 H 0.08029 0.58176 0.99846 0.0
H1195 H 0.08247 0.52974 0.99834 0.0
H1196 H 0.0645 0.55441 0.97712 0.0
H1197 H 0.18389 0.58603 0.99426 0.0
H1198 H 0.19871 0.56256 0.97105 0.0
H1199 H 0.18562 0.53403 0.99315 0.0
C1200 C 0.53998 0.94704 0.35324 0.0
C1201 C 0.55938 0.96524 0.36594 0.0
C1202 C 0.51381 0.96 0.35362 0.0
C1203 C 0.50683 0.9916 0.36722 0.0
C1204 C 0.52622 0.00991 0.38022 0.0
C1205 C 0.55232 0.99666 0.37934 0.0
C1206 C 0.49368 0.94003 0.33935 0.0
C1207 C 0.51936 0.04342 0.3951 0.0
C1208 C 0.44454 0.04737 0.35364 0.0
C1209 C 0.42623 0.03008 0.36775 0.0
C1210 C 0.4709 0.03525 0.35338 0.0
C1211 C 0.47919 0.0055 0.36776 0.0
C1212 C 0.46095 0.9884 0.3823 0.0
C1213 C 0.43463 0.00074 0.38204 0.0
C1214 C 0.48979 0.05383 0.33747 0.0
C1215 C 0.4692 0.95689 0.39804 0.0
H1216 H 0.54524 0.92286 0.34277 0.0
H1217 H 0.56716 0.01078 0.38928 0.0
H1218 H 0.47761 0.92773 0.34947 0.0
H1219 H 0.48462 0.96156 0.32816 0.0
H1220 H 0.50241 0.91611 0.32954 0.0
H1221 H 0.53669 0.05412 0.40439 0.0
H1222 H 0.51121 0.068 0.38552 0.0
H1223 H 0.50389 0.03424 0.40678 0.0
H1224 H 0.43822 0.06998 0.3425 0.0
H1225 H 0.42066 0.9874 0.39311 0.0
H1226 H 0.49785 0.03127 0.3264 0.0
H1227 H 0.5067 0.06689 0.34628 0.0
H1228 H 0.48025 0.0769 0.32754 0.0
H1229 H 0.4764 0.93105 0.38896 0.0
H1230 H 0.45279 0.94756 0.4088 0.0
H1231 H 0.48572 0.96741 0.40829 0.0
C1232 C 0.4528 0.95957 0.15042 0.0
C1233 C 0.43314 0.97526 0.137 0.0
C1234 C 0.47868 0.97372 0.14968 0.0
C1235 C 0.48511 0.00401 0.135 0.0
C1236 C 0.46536 0.02031 0.12157 0.0
C1237 C 0.43954 0.00588 0.12281 0.0
C1238 C 0.4992 0.95593 0.16443 0.0
C1239 C 0.47162 0.05245 0.1056 0.0
C1240 C 0.54777 0.06096 0.14585 0.0
C1241 C 0.56581 0.04201 0.13216 0.0
C1242 C 0.52133 0.04922 0.14673 0.0
C1243 C 0.51269 0.01805 0.13347 0.0
C1244 C 0.5306 0.99937 0.11926 0.0
C1245 C 0.55699 0.01145 0.11885 0.0
C1246 C 0.50281 0.06958 0.16222 0.0
C1247 C 0.52196 0.96623 0.10473 0.0
H1248 H 0.44801 0.93607 0.16152 0.0
H1249 H 0.4245 0.01803 0.1123 0.0
H1250 H 0.51496 0.9422 0.15457 0.0
H1251 H 0.5086 0.97898 0.17444 0.0
H1252 H 0.49075 0.93349 0.17543 0.0
H1253 H 0.45388 0.06252 0.09665 0.0
H1254 H 0.48044 0.07774 0.11419 0.0
H1255 H 0.48639 0.04201 0.09366 0.0
H1256 H 0.55436 0.08457 0.15622 0.0
H1257 H 0.57073 0.99677 0.10814 0.0
H1258 H 0.49524 0.0484 0.17435 0.0
H1259 H 0.48554 0.08119 0.15327 0.0
H1260 H 0.51249 0.09402 0.17099 0.0
H1261 H 0.51517 0.9413 0.11478 0.0
H1262 H 0.53806 0.95597 0.09393 0.0
H1263 H 0.50507 0.9755 0.09453 0.0
C1264 C 0.55966 0.99311 0.61663 0.0
C1265 C 0.5661 0.96137 0.62997 0.0
C1266 C 0.53379 0.00742 0.61581 0.0
C1267 C 0.51413 0.99002 0.62894 0.0
C1268 C 0.52047 0.95774 0.64225 0.0
C1269 C 0.54633 0.94359 0.64245 0.0
C1270 C 0.52758 0.04152 0.60115 0.0
C1271 C 0.50013 0.93887 0.65678 0.0
C1272 C 0.45643 0.05242 0.64621 0.0
C1273 C 0.43609 0.03799 0.63304 0.0
C1274 C 0.48191 0.03708 0.64497 0.0
C1275 C 0.48732 0.00703 0.62989 0.0
C1276 C 0.46702 0.99263 0.61629 0.0
C1277 C 0.4415 0.00805 0.61818 0.0
C1278 C 0.50295 0.0527 0.66002 0.0
C1279 C 0.47226 0.96102 0.59979 0.0
H1280 H 0.5748 0.00667 0.60675 0.0
H1281 H 0.55115 0.91908 0.65281 0.0
H1282 H 0.51058 0.03438 0.59053 0.0
H1283 H 0.52188 0.06714 0.6111 0.0
H1284 H 0.5446 0.04981 0.59078 0.0
H1285 H 0.5081 0.91323 0.66564 0.0
H1286 H 0.49293 0.96041 0.66885 0.0
H1287 H 0.48288 0.92933 0.64707 0.0
H1288 H 0.45238 0.07544 0.65779 0.0
H1289 H 0.4259 0.99707 0.60781 0.0
H1290 H 0.51966 0.06452 0.65045 0.0
H1291 H 0.51081 0.02871 0.67024 0.0
H1292 H 0.49544 0.0761 0.67085 0.0
H1293 H 0.48845 0.9701 0.58877 0.0
H1294 H 0.45457 0.95414 0.58986 0.0
H1295 H 0.47878 0.93401 0.60812 0.0
C1296 C 0.55904 0.99562 0.88188 0.0
C1297 C 0.56495 0.02397 0.86619 0.0
C1298 C 0.5334 0.98067 0.8839 0.0
C1299 C 0.51346 0.99386 0.8696 0.0
C1300 C 0.51944 0.02205 0.85355 0.0
C1301 C 0.54505 0.03704 0.85219 0.0
C1302 C 0.52755 0.95116 0.90145 0.0
C1303 C 0.49881 0.03632 0.83775 0.0
C1304 C 0.45269 0.93252 0.85917 0.0
C1305 C 0.43336 0.95323 0.87069 0.0
C1306 C 0.47902 0.94483 0.85914 0.0
C1307 C 0.48627 0.97826 0.87122 0.0
C1308 C 0.46712 0.99834 0.88362 0.0
C1309 C 0.44082 0.98576 0.88308 0.0
C1310 C 0.49885 0.92299 0.84548 0.0
C1311 C 0.47425 0.03378 0.89696 0.0
H1312 H 0.57433 0.98572 0.89287 0.0
H1313 H 0.54954 0.05878 0.83996 0.0
H1314 H 0.51186 0.96241 0.91232 0.0
H1315 H 0.52009 0.92375 0.89411 0.0
H1316 H 0.54521 0.94428 0.91141 0.0
H1317 H 0.50688 0.05768 0.82591 0.0
H1318 H 0.49041 0.01129 0.82863 0.0
H1319 H 0.48238 0.05031 0.8467 0.0
H1320 H 0.44715 0.90731 0.84957 0.0
H1321 H 0.42607 0.00169 0.8922 0.0
H1322 H 0.51603 0.91433 0.85551 0.0
H1323 H 0.5063 0.94232 0.83239 0.0
H1324 H 0.4903 0.89641 0.83793 0.0
H1325 H 0.49127 0.02722 0.90767 0.0
H1326 H 0.45757 0.04397 0.90717 0.0
H1327 H 0.48027 0.05795 0.88605 0.0
C1328 C 0.95527 0.56869 0.35506 0.0
C1329 C 0.93685 0.5478 0.3675 0.0
C1330 C 0.98174 0.55722 0.35424 0.0
C1331 C 0.99002 0.52436 0.36633 0.0
C1332 C 0.97174 0.5038 0.37938 0.0
C1333 C 0.94532 0.51564 0.37972 0.0
C1334 C 0.00068 0.57959 0.33998 0.0
C1335 C 0.97997 0.46883 0.39267 0.0
C1336 C 0.04983 0.46734 0.34798 0.0
C1337 C 0.06925 0.48084 0.36235 0.0
C1338 C 0.02409 0.48192 0.34883 0.0
C1339 C 0.01756 0.51034 0.36458 0.0
C1340 C 0.03712 0.52453 0.37894 0.0
C1341 C 0.06282 0.50976 0.37757 0.0
C1342 C 0.0038 0.46647 0.33305 0.0
C1343 C 0.03073 0.55457 0.39609 0.0
H1344 H 0.94893 0.59356 0.34555 0.0
H1345 H 0.93128 0.49949 0.38949 0.0
H1346 H 0.01785 0.58965 0.34964 0.0
H1347 H 0.00834 0.56019 0.32702 0.0
H1348 H 0.9913 0.60535 0.33224 0.0
H1349 H 0.96365 0.45738 0.40287 0.0
H1350 H 0.98679 0.44517 0.38174 0.0
H1351 H 0.99675 0.47662 0.40338 0.0
H1352 H 0.05468 0.44518 0.33608 0.0
H1353 H 0.0777 0.52016 0.3888 0.0
H1354 H 0.99469 0.49095 0.32397 0.0
H1355 H 0.98779 0.45148 0.34207 0.0
H1356 H 0.01238 0.4456 0.3212 0.0
H1357 H 0.0221 0.58093 0.38845 0.0
H1358 H 0.04837 0.56338 0.40558 0.0
H1359 H 0.01577 0.54267 0.40744 0.0
C1360 C 0.04965 0.55462 0.14579 0.0
C1361 C 0.068 0.53543 0.13251 0.0
C1362 C 0.02314 0.54311 0.14613 0.0
C1363 C 0.01476 0.51197 0.13272 0.0
C1364 C 0.03306 0.49284 0.11906 0.0
C1365 C 0.05949 0.50467 0.11919 0.0
C1366 C 0.00417 0.56393 0.16106 0.0
C1367 C 0.02473 0.45971 0.10439 0.0
C1368 C 0.95306 0.45604 0.14793 0.0
C1369 C 0.93425 0.47269 0.13403 0.0
C1370 C 0.97927 0.46885 0.14782 0.0
C1371 C 0.98693 0.49877 0.1333 0.0
C1372 C 0.96813 0.51572 0.11922 0.0
C1373 C 0.94196 0.50261 0.11982 0.0
C1374 C -0.00123 0.45035 0.16322 0.0
C1375 C 0.97571 0.54747 0.10339 0.0
H1376 H 0.05603 0.57835 0.15617 0.0
H1377 H 0.07348 0.48981 0.10878 0.0
H1378 H 0.98762 0.57633 0.15155 0.0
H1379 H 0.99559 0.54288 0.17279 0.0
H1380 H 0.0138 0.58787 0.17029 0.0
H1381 H 0.04126 0.44867 0.09429 0.0
H1382 H 0.01693 0.43523 0.11427 0.0
H1383 H 0.00862 0.46942 0.09348 0.0
H1384 H 0.9473 0.43305 0.15905 0.0
H1385 H 0.9276 0.51559 0.10898 0.0
H1386 H 0.00786 0.47305 0.17367 0.0
H1387 H 0.01491 0.43637 0.1539 0.0
H1388 H 0.98948 0.42799 0.17381 0.0
H1389 H 0.98409 0.57276 0.11227 0.0
H1390 H 0.95869 0.55768 0.09358 0.0
H1391 H 0.99121 0.53664 0.0922 0.0
C1392 C 0.95125 0.53779 0.64571 0.0
C1393 C 0.93134 0.52329 0.63214 0.0
C1394 C 0.97698 0.52336 0.64449 0.0
C1395 C 0.98307 0.49421 0.62903 0.0
C1396 C 0.96312 0.47952 0.61517 0.0
C1397 C 0.93736 0.494 0.61704 0.0
C1398 C 0.99763 0.53925 0.65981 0.0
C1399 C 0.96908 0.4489 0.59826 0.0
C1400 C 0.0557 0.48655 0.61546 0.0
C1401 C 0.06341 0.45502 0.6285 0.0
C1402 C 0.02931 0.4986 0.61473 0.0
C1403 C 0.01036 0.47905 0.62764 0.0
C1404 C 0.0179 0.4467 0.64045 0.0
C1405 C 0.0443 0.43486 0.64057 0.0
C1406 C 0.02184 0.53285 0.60061 0.0
C1407 C 0.99831 0.42553 0.65469 0.0
H1408 H 0.94669 0.56028 0.65749 0.0
H1409 H 0.92206 0.48299 0.60637 0.0
H1410 H 0.00632 0.51512 0.66945 0.0
H1411 H 0.01387 0.55291 0.65044 0.0
H1412 H 0.98949 0.56132 0.67119 0.0
H1413 H 0.95141 0.44093 0.58856 0.0
H1414 H 0.9846 0.45968 0.58707 0.0
H1415 H 0.97682 0.42219 0.60617 0.0
H1416 H 0.0703 0.50201 0.6059 0.0
H1417 H 0.05006 0.41044 0.65068 0.0
H1418 H 0.01566 0.55769 0.61097 0.0
H1419 H 0.00483 0.52514 0.59012 0.0
H1420 H 0.0384 0.54261 0.59012 0.0
H1421 H 0.99076 0.44569 0.66733 0.0
H1422 H 0.0071 0.39973 0.66284 0.0
H1423 H 0.98115 0.41574 0.64494 0.0
C1424 C 0.03967 0.55795 0.8547 0.0
C1425 C 0.06042 0.5399 0.86591 0.0
C1426 C 0.01404 0.54288 0.85557 0.0
C1427 C 0.00895 0.50925 0.86819 0.0
C1428 C 0.02963 0.49129 0.87991 0.0
C1429 C 0.05521 0.50667 0.87851 0.0
C1430 C 0.99253 0.56252 0.84261 0.0
C1431 C 0.02478 0.45565 0.89377 0.0
C1432 C 0.93732 0.49047 0.88245 0.0
C1433 C 0.9305 0.46201 0.8671 0.0
C1434 C 0.96305 0.50537 0.88343 0.0
C1435 C 0.98212 0.49208 0.86837 0.0
C1436 C 0.97532 0.46334 0.85286 0.0
C1437 C 0.94965 0.44833 0.85258 0.0
C1438 C 0.96981 0.53544 0.90047 0.0
C1439 C 0.99498 0.44903 0.83625 0.0
H1440 H 0.04347 0.58361 0.84491 0.0
H1441 H 0.07109 0.49274 0.88736 0.0
H1442 H 0.98426 0.54172 0.83059 0.0
H1443 H 0.97618 0.57139 0.85349 0.0
H1444 H -0.00027 0.58875 0.83381 0.0
H1445 H 0.04271 0.44638 0.90274 0.0
H1446 H 0.00886 0.46159 0.90566 0.0
H1447 H 0.0181 0.43107 0.88342 0.0
H1448 H 0.92261 0.50077 0.89386 0.0
H1449 H 0.94444 0.42645 0.84063 0.0
H1450 H 0.97537 0.56331 0.89253 0.0
H1451 H 0.98705 0.52562 0.91009 0.0
H1452 H 0.95312 0.54106 0.91172 0.0
H1453 H 0.00179 0.47381 0.82609 0.0
H1454 H 0.98656 0.42628 0.82542 0.0
H1455 H 0.01256 0.43683 0.84451 0.0
C1456 C 0.18939 0.28675 0.33392 0.0
C1457 C 0.19602 0.31955 0.34631 0.0
C1458 C 0.20632 0.2545 0.33295 0.0
C1459 C 0.22978 0.2547 0.34538 0.0
C1460 C 0.23623 0.28758 0.35827 0.0
C1461 C 0.21947 0.32001 0.35824 0.0
C1462 C 0.19933 0.22057 0.3184 0.0
C1463 C 0.26067 0.28835 0.37227 0.0
C1464 C 0.26242 0.15841 0.35918 0.0
C1465 C 0.28469 0.15979 0.34582 0.0
C1466 C 0.24414 0.18906 0.3591 0.0
C1467 C 0.24788 0.22084 0.34471 0.0
C1468 C 0.26972 0.22122 0.33041 0.0
C1469 C 0.28821 0.191 0.33148 0.0
C1470 C 0.22158 0.18831 0.37508 0.0
C1471 C 0.27385 0.25391 0.31432 0.0
H1472 H 0.17124 0.2867 0.32462 0.0
H1473 H 0.22434 0.34536 0.36799 0.0
H1474 H 0.21541 0.21557 0.30651 0.0
H1475 H 0.1973 0.19354 0.32815 0.0
H1476 H 0.18066 0.22548 0.30938 0.0
H1477 H 0.26201 0.31528 0.38226 0.0
H1478 H 0.26084 0.26269 0.38327 0.0
H1479 H 0.27852 0.28646 0.36193 0.0
H1480 H 0.26001 0.13432 0.37043 0.0
H1481 H 0.30549 0.19175 0.32111 0.0
H1482 H 0.20251 0.19142 0.36646 0.0
H1483 H 0.22335 0.2134 0.38638 0.0
H1484 H 0.22111 0.16096 0.38476 0.0
H1485 H 0.25559 0.25887 0.30479 0.0
H1486 H 0.29027 0.24774 0.30289 0.0
H1487 H 0.27834 0.28138 0.32308 0.0
C1488 C 0.71829 0.82707 0.33058 0.0
C1489 C 0.6958 0.82343 0.34359 0.0
C1490 C 0.73733 0.79746 0.3301 0.0
C1491 C 0.73404 0.76414 0.34343 0.0
C1492 C 0.71138 0.76046 0.35666 0.0
C1493 C 0.69234 0.78997 0.35636 0.0
C1494 C 0.761 0.80189 0.31544 0.0
C1495 C 0.70756 0.72584 0.37151 0.0
C1496 C 0.77279 0.67175 0.33213 0.0
C1497 C 0.79415 0.67627 0.34629 0.0
C1498 C 0.75322 0.70052 0.33072 0.0
C1499 C 0.75481 0.73384 0.34425 0.0
C1500 C 0.77612 0.73809 0.35888 0.0
C1501 C 0.79574 0.70946 0.35951 0.0
C1502 C 0.73104 0.69553 0.3146 0.0
C1503 C 0.7781 0.7727 0.37399 0.0
H1504 H 0.72083 0.85283 0.32058 0.0
H1505 H 0.67501 0.78727 0.36656 0.0
H1506 H 0.77922 0.80365 0.32534 0.0
H1507 H 0.76288 0.77595 0.30477 0.0
H1508 H 0.75977 0.82839 0.30511 0.0
H1509 H 0.68874 0.72739 0.3807 0.0
H1510 H 0.70776 0.6984 0.36198 0.0
H1511 H 0.72408 0.72425 0.38329 0.0
H1512 H 0.77172 0.64619 0.32179 0.0
H1513 H 0.81219 0.71279 0.3706 0.0
H1514 H 0.73046 0.7209 0.30341 0.0
H1515 H 0.71186 0.6946 0.32323 0.0
H1516 H 0.73311 0.66847 0.30483 0.0
H1517 H 0.77932 0.80008 0.36445 0.0
H1518 H 0.79558 0.771 0.38481 0.0
H1519 H 0.76013 0.77457 0.38421 0.0
C1520 C 0.23341 0.66032 0.1389 0.0
C1521 C 0.21119 0.66274 0.15227 0.0
C1522 C 0.25232 0.69018 0.1389 0.0
C1523 C 0.24926 0.7222 0.15322 0.0
C1524 C 0.22741 0.72368 0.16749 0.0
C1525 C 0.20829 0.69425 0.1665 0.0
C1526 C 0.27488 0.68831 0.12295 0.0
C1527 C 0.22398 0.75664 0.18351 0.0
C1528 C 0.30928 0.78508 0.16429 0.0
C1529 C 0.3035 0.81825 0.15193 0.0
C1530 C 0.29158 0.75369 0.16513 0.0
C1531 C 0.26821 0.7551 0.15261 0.0
C1532 C 0.26264 0.7883 0.13972 0.0
C1533 C 0.28017 0.81989 0.13988 0.0
C1534 C 0.29765 0.71939 0.17968 0.0
C1535 C 0.23833 0.79032 0.12561 0.0
H1536 H 0.23534 0.636 0.12775 0.0
H1537 H 0.19105 0.69579 0.17688 0.0
H1538 H 0.2738 0.71355 0.11169 0.0
H1539 H 0.29399 0.69032 0.13161 0.0
H1540 H 0.27466 0.66102 0.11322 0.0
H1541 H 0.20731 0.75143 0.19484 0.0
H1542 H 0.24227 0.76064 0.19315 0.0
H1543 H 0.2203 0.7843 0.17469 0.0
H1544 H 0.32735 0.78413 0.17368 0.0
H1545 H 0.27597 0.84551 0.13015 0.0
H1546 H 0.29902 0.69228 0.16993 0.0
H1547 H 0.28141 0.71524 0.19154 0.0
H1548 H 0.3164 0.72331 0.18875 0.0
H1549 H 0.23759 0.76467 0.11463 0.0
H1550 H 0.23775 0.81728 0.1156 0.0
H1551 H 0.22039 0.7894 0.13587 0.0
C1552 C 0.70386 0.20265 0.16792 0.0
C1553 C 0.70811 0.17127 0.15381 0.0
C1554 C 0.72207 0.23327 0.16929 0.0
C1555 C 0.74442 0.2331 0.15555 0.0
C1556 C 0.74885 0.20124 0.14135 0.0
C1557 C 0.7308 0.17022 0.14095 0.0
C1558 C 0.7172 0.26599 0.18521 0.0
C1559 C 0.77204 0.20066 0.12599 0.0
C1560 C 0.77462 0.3316 0.14257 0.0
C1561 C 0.79774 0.33039 0.15491 0.0
C1562 C 0.75721 0.29982 0.14242 0.0
C1563 C 0.76269 0.26688 0.15556 0.0
C1564 C 0.78564 0.26619 0.16861 0.0
C1565 C 0.8032 0.29772 0.16779 0.0
C1566 C 0.73333 0.30107 0.12779 0.0
C1567 C 0.79162 0.23222 0.18342 0.0
H1568 H 0.68625 0.20317 0.17791 0.0
H1569 H 0.73379 0.14602 0.12987 0.0
H1570 H 0.73494 0.27075 0.19543 0.0
H1571 H 0.71339 0.29352 0.1763 0.0
H1572 H 0.70012 0.25999 0.19599 0.0
H1573 H 0.77269 0.17363 0.11605 0.0
H1574 H 0.77098 0.22615 0.11491 0.0
H1575 H 0.79075 0.20314 0.13519 0.0
H1576 H 0.77068 0.35678 0.13242 0.0
H1577 H 0.82113 0.29704 0.17738 0.0
H1578 H 0.71507 0.29863 0.13759 0.0
H1579 H 0.73367 0.27587 0.11648 0.0
H1580 H 0.73237 0.32839 0.11811 0.0
H1581 H 0.7747 0.22687 0.19446 0.0
H1582 H 0.80955 0.23726 0.19339 0.0
H1583 H 0.79453 0.20534 0.1737 0.0
C1584 C 0.69952 0.78591 0.6408 0.0
C1585 C 0.7013 0.81955 0.65363 0.0
C1586 C 0.71935 0.75755 0.64137 0.0
C1587 C 0.741 0.76253 0.6556 0.0
C1588 C 0.74262 0.79612 0.66891 0.0
C1589 C 0.72289 0.82461 0.66751 0.0
C1590 C 0.71734 0.72261 0.62651 0.0
C1591 C 0.76509 0.80184 0.68467 0.0
C1592 C 0.77872 0.67046 0.66935 0.0
C1593 C 0.80095 0.67431 0.65605 0.0
C1594 C 0.75941 0.69964 0.6699 0.0
C1595 C 0.7621 0.73271 0.65631 0.0
C1596 C 0.78455 0.73668 0.64284 0.0
C1597 C 0.80394 0.70763 0.64312 0.0
C1598 C 0.73606 0.69498 0.68488 0.0
C1599 C 0.78772 0.77104 0.62769 0.0
H1600 H 0.68291 0.78221 0.62991 0.0
H1601 H 0.72413 0.85056 0.67753 0.0
H1602 H 0.73503 0.72104 0.61595 0.0
H1603 H 0.71674 0.69537 0.63622 0.0
H1604 H 0.69952 0.72365 0.61604 0.0
H1605 H 0.76284 0.82882 0.69449 0.0
H1606 H 0.76634 0.77649 0.69584 0.0
H1607 H 0.78403 0.80345 0.67574 0.0
H1608 H 0.77655 0.64476 0.67946 0.0
H1609 H 0.82105 0.71041 0.63268 0.0
H1610 H 0.71769 0.69239 0.67523 0.0
H1611 H 0.73402 0.72117 0.69534 0.0
H1612 H 0.73782 0.66883 0.69544 0.0
H1613 H 0.77098 0.77194 0.61611 0.0
H1614 H 0.80639 0.76972 0.6183 0.0
H1615 H 0.78737 0.79869 0.63703 0.0
C1616 C 0.2266 0.3385 0.67136 0.0
C1617 C 0.20544 0.33149 0.65729 0.0
C1618 C 0.24723 0.31148 0.67321 0.0
C1619 C 0.24694 0.27746 0.66017 0.0
C1620 C 0.2258 0.27068 0.64566 0.0
C1621 C 0.2051 0.29754 0.64463 0.0
C1622 C 0.26915 0.31905 0.68926 0.0
C1623 C 0.22515 0.23524 0.63107 0.0
C1624 C 0.31055 0.22408 0.64815 0.0
C1625 C 0.3076 0.19046 0.66086 0.0
C1626 C 0.29115 0.25312 0.64808 0.0
C1627 C 0.26871 0.24879 0.66151 0.0
C1628 C 0.26621 0.21566 0.67508 0.0
C1629 C 0.28554 0.18653 0.67434 0.0
C1630 C 0.29412 0.28752 0.63295 0.0
C1631 C 0.24284 0.21058 0.69 0.0
H1632 H 0.22673 0.36469 0.68124 0.0
H1633 H 0.18884 0.2923 0.63358 0.0
H1634 H 0.27056 0.29439 0.70087 0.0
H1635 H 0.2883 0.32096 0.68065 0.0
H1636 H 0.2661 0.34645 0.69856 0.0
H1637 H 0.20774 0.23511 0.62013 0.0
H1638 H 0.24326 0.2342 0.62098 0.0
H1639 H 0.22473 0.20828 0.64102 0.0
H1640 H 0.32755 0.22698 0.6376 0.0
H1641 H 0.2834 0.16064 0.68431 0.0
H1642 H 0.2925 0.31525 0.64212 0.0
H1643 H 0.27797 0.28721 0.6208 0.0
H1644 H 0.31326 0.28726 0.62419 0.0
H1645 H 0.23995 0.23721 0.69996 0.0
H1646 H 0.24518 0.18517 0.70104 0.0
H1647 H 0.22469 0.20628 0.68025 0.0
C1648 C 0.71766 0.16985 0.82694 0.0
C1649 C 0.69551 0.17406 0.84029 0.0
C1650 C 0.73731 0.19861 0.82643 0.0
C1651 C 0.73506 0.2316 0.84013 0.0
C1652 C 0.71271 0.23591 0.85368 0.0
C1653 C 0.69296 0.20731 0.85334 0.0
C1654 C 0.76053 0.19361 0.81135 0.0
C1655 C 0.70999 0.27017 0.86894 0.0
C1656 C 0.79814 0.28409 0.85541 0.0
C1657 C 0.79639 0.3179 0.84274 0.0
C1658 C 0.77817 0.25585 0.85484 0.0
C1659 C 0.75641 0.26113 0.84075 0.0
C1660 C 0.75488 0.29484 0.82754 0.0
C1661 C 0.77473 0.3232 0.82896 0.0
C1662 C 0.78009 0.22078 0.86961 0.0
C1663 C 0.73233 0.30088 0.8119 0.0
H1664 H 0.71951 0.14419 0.81676 0.0
H1665 H 0.67592 0.21035 0.86383 0.0
H1666 H 0.76273 0.2198 0.8009 0.0
H1667 H 0.77893 0.1907 0.82092 0.0
H1668 H 0.75847 0.16753 0.80077 0.0
H1669 H 0.69143 0.26902 0.8785 0.0
H1670 H 0.72689 0.27076 0.88038 0.0
H1671 H 0.71042 0.2979 0.85968 0.0
H1672 H 0.8148 0.28021 0.86623 0.0
H1673 H 0.77351 0.34929 0.81906 0.0
H1674 H 0.7803 0.19359 0.85985 0.0
H1675 H 0.76255 0.21943 0.88035 0.0
H1676 H 0.79807 0.22147 0.8799 0.0
H1677 H 0.73071 0.27551 0.80078 0.0
H1678 H 0.73476 0.32777 0.80203 0.0
H1679 H 0.71349 0.30291 0.82096 0.0
C1680 C 0.1887 0.718 0.82712 0.0
C1681 C 0.19323 0.68496 0.83992 0.0
C1682 C 0.2076 0.7478 0.82579 0.0
C1683 C 0.23091 0.74503 0.83834 0.0
C1684 C 0.23535 0.71178 0.8515 0.0
C1685 C 0.21664 0.68172 0.85176 0.0
C1686 C 0.20272 0.78208 0.81094 0.0
C1687 C 0.25951 0.70836 0.8657 0.0
C1688 C 0.29287 0.80264 0.82611 0.0
C1689 C 0.29034 0.83397 0.84051 0.0
C1690 C 0.2729 0.77454 0.82435 0.0
C1691 C 0.25058 0.77706 0.83807 0.0
C1692 C 0.24788 0.809 0.85251 0.0
C1693 C 0.26764 0.83759 0.85323 0.0
C1694 C 0.27598 0.74173 0.80819 0.0
C1695 C 0.22486 0.81194 0.86795 0.0
H1696 H 0.17054 0.72021 0.81792 0.0
H1697 H 0.21988 0.65625 0.86185 0.0
H1698 H 0.2012 0.80929 0.82059 0.0
H1699 H 0.21956 0.78571 0.79962 0.0
H1700 H 0.18437 0.77859 0.80129 0.0
H1701 H 0.25946 0.68121 0.87556 0.0
H1702 H 0.27756 0.70868 0.85555 0.0
H1703 H 0.26068 0.73376 0.87684 0.0
H1704 H 0.31051 0.80014 0.81626 0.0
H1705 H 0.26599 0.86171 0.86455 0.0
H1706 H 0.25776 0.73853 0.79837 0.0
H1707 H 0.2791 0.71382 0.81691 0.0
H1708 H 0.29289 0.74654 0.79705 0.0
H1709 H 0.206 0.81105 0.85887 0.0
H1710 H 0.22542 0.83912 0.87778 0.0
H1711 H 0.22496 0.78657 0.87915 0.0
C1712 C 0.32009 0.03471 0.29317 0.0
C1713 C 0.33885 0.01928 0.30742 0.0
C1714 C 0.31874 0.02196 0.27154 0.0
C1715 C 0.3374 0.9945 0.26388 0.0
C1716 C 0.35613 0.97843 0.27842 0.0
C1717 C 0.35631 0.99056 0.30019 0.0
C1718 C 0.29787 0.03865 0.25677 0.0
C1719 C 0.37688 0.95003 0.27075 0.0
C1720 C 0.32932 0.93918 0.21087 0.0
C1721 C 0.34416 0.96225 0.19664 0.0
C1722 C 0.32583 0.95032 0.23262 0.0
C1723 C 0.33849 0.98439 0.24042 0.0
C1724 C 0.35331 0.00795 0.22596 0.0
C1725 C 0.35554 0.99694 0.20409 0.0
C1726 C 0.30903 0.9253 0.24731 0.0
C1727 C 0.36778 0.04383 0.23377 0.0
H1728 H 0.30668 0.05705 0.29893 0.0
H1729 H 0.37104 0.97922 0.31127 0.0
H1730 H 0.30717 0.05791 0.24449 0.0
H1731 H 0.28766 0.01488 0.24786 0.0
H1732 H 0.28298 0.05589 0.26585 0.0
H1733 H 0.38967 0.93973 0.28422 0.0
H1734 H 0.36749 0.92434 0.26301 0.0
H1735 H 0.38946 0.96421 0.25829 0.0
H1736 H 0.32048 0.91237 0.20497 0.0
H1737 H 0.36729 0.01441 0.19305 0.0
H1738 H 0.29444 0.94363 0.25602 0.0
H1739 H 0.32158 0.91114 0.25976 0.0
H1740 H 0.29835 0.9022 0.2382 0.0
H1741 H 0.35379 0.06467 0.24126 0.0
H1742 H 0.37842 0.05895 0.22043 0.0
H1743 H 0.38226 0.03552 0.24647 0.0
C1744 C 0.63456 0.9983 0.19868 0.0
C1745 C 0.65075 0.02977 0.19305 0.0
C1746 C 0.63392 0.98428 0.22006 0.0
C1747 C 0.65064 0.00129 0.23587 0.0
C1748 C 0.66799 0.03188 0.22993 0.0
C1749 C 0.66741 0.04637 0.20862 0.0
C1750 C 0.6145 0.95256 0.22592 0.0
C1751 C 0.68677 0.04974 0.24614 0.0
C1752 C 0.62999 0.99592 0.29498 0.0
C1753 C 0.64356 0.96276 0.30201 0.0
C1754 C 0.632 0.00864 0.27341 0.0
C1755 C 0.64884 0.98853 0.25887 0.0
C1756 C 0.66329 0.95573 0.26617 0.0
C1757 C 0.66003 0.9427 0.28761 0.0
C1758 C 0.61559 0.04291 0.26606 0.0
C1759 C 0.68216 0.93448 0.25138 0.0
H1760 H 0.62145 0.98592 0.18659 0.0
H1761 H 0.67996 0.07069 0.20411 0.0
H1762 H 0.6249 0.92739 0.23328 0.0
H1763 H 0.6004 0.96371 0.23822 0.0
H1764 H 0.60318 0.94209 0.21162 0.0
H1765 H 0.70088 0.07023 0.23835 0.0
H1766 H 0.67554 0.06589 0.25869 0.0
H1767 H 0.69808 0.02655 0.25457 0.0
H1768 H 0.61711 0.0111 0.3062 0.0
H1769 H 0.67064 0.91719 0.29324 0.0
H1770 H 0.60272 0.034 0.25234 0.0
H1771 H 0.62854 0.06666 0.26007 0.0
H1772 H 0.603 0.05467 0.27928 0.0
H1773 H 0.6712 0.92091 0.23775 0.0
H1774 H 0.69328 0.91131 0.26003 0.0
H1775 H 0.69643 0.95541 0.24421 0.0
C1776 C 0.63204 0.04823 0.7845 0.0
C1777 C 0.64731 0.03267 0.80138 0.0
C1778 C 0.6334 0.03287 0.76344 0.0
C1779 C 0.65092 0.00176 0.75903 0.0
C1780 C 0.66703 0.98673 0.77582 0.0
C1781 C 0.66479 0.00204 0.79688 0.0
C1782 C 0.61551 0.04921 0.74607 0.0
C1783 C 0.68637 0.95417 0.77158 0.0
C1784 C 0.634 0.93771 0.71079 0.0
C1785 C 0.64916 0.95469 0.69426 0.0
C1786 C 0.63473 0.95234 0.73205 0.0
C1787 C 0.65152 0.98413 0.73699 0.0
C1788 C 0.66769 0.00038 0.72058 0.0
C1789 C 0.66608 0.98577 0.69933 0.0
C1790 C 0.61679 0.93472 0.749 0.0
C1791 C 0.68627 0.03372 0.72537 0.0
H1792 H 0.61837 0.07174 0.78785 0.0
H1793 H 0.67677 0.99004 0.80982 0.0
H1794 H 0.62735 0.05993 0.73216 0.0
H1795 H 0.60237 0.02585 0.73984 0.0
H1796 H 0.60311 0.07356 0.75215 0.0
H1797 H 0.69873 0.94762 0.78602 0.0
H1798 H 0.6756 0.92729 0.76689 0.0
H1799 H 0.69948 0.96199 0.75783 0.0
H1800 H 0.62078 0.91382 0.70699 0.0
H1801 H 0.67801 0.99883 0.68668 0.0
H1802 H 0.60266 0.95709 0.75481 0.0
H1803 H 0.62843 0.925 0.76325 0.0
H1804 H 0.60545 0.90943 0.74265 0.0
H1805 H 0.67482 0.06017 0.72964 0.0
H1806 H 0.69916 0.04071 0.71131 0.0
H1807 H 0.69888 0.02654 0.73954 0.0
C1808 C 0.36693 0.95031 0.78847 0.0
C1809 C 0.35157 0.96618 0.80522 0.0
C1810 C 0.36687 0.96675 0.76763 0.0
C1811 C 0.35059 0.99931 0.76327 0.0
C1812 C 0.33452 0.0149 0.77994 0.0
C1813 C 0.33545 0.99844 0.80082 0.0
C1814 C 0.38471 0.94977 0.75042 0.0
C1815 C 0.31645 0.04904 0.77575 0.0
C1816 C 0.37021 0.06355 0.71574 0.0
C1817 C 0.35469 0.04822 0.69893 0.0
C1818 C 0.3688 0.04827 0.73684 0.0
C1819 C 0.35098 0.01751 0.74135 0.0
C1820 C 0.33457 0.00285 0.72464 0.0
C1821 C 0.33685 0.01805 0.70356 0.0
C1822 C 0.38702 0.06415 0.75411 0.0
C1823 C 0.31494 0.97063 0.72894 0.0
H1824 H 0.37959 0.92558 0.79178 0.0
H1825 H 0.32341 0.01067 0.81365 0.0
H1826 H 0.3729 0.94012 0.73624 0.0
H1827 H 0.39863 0.97244 0.74457 0.0
H1828 H 0.39627 0.92452 0.75649 0.0
H1829 H 0.30422 0.05639 0.79014 0.0
H1830 H 0.32822 0.07508 0.77122 0.0
H1831 H 0.3032 0.04244 0.76189 0.0
H1832 H 0.38414 0.08672 0.71228 0.0
H1833 H 0.32465 0.00624 0.6907 0.0
H1834 H 0.40029 0.04064 0.75991 0.0
H1835 H 0.37548 0.07438 0.7683 0.0
H1836 H 0.39929 0.08873 0.74808 0.0
H1837 H 0.32551 0.9434 0.73324 0.0
H1838 H 0.30218 0.9647 0.71465 0.0
H1839 H 0.30223 0.97837 0.74296 0.0
C1840 C 0.86296 0.51055 0.20043 0.0
C1841 C 0.84831 0.47746 0.19481 0.0
C1842 C 0.86297 0.5246 0.22182 0.0
C1843 C 0.84716 0.50586 0.23766 0.0
C1844 C 0.83124 0.47361 0.23171 0.0
C1845 C 0.83246 0.45922 0.2104 0.0
C1846 C 0.8809 0.55818 0.22767 0.0
C1847 C 0.8134 0.45379 0.24794 0.0
C1848 C 0.86784 0.51223 0.29674 0.0
C1849 C 0.85275 0.54373 0.30404 0.0
C1850 C 0.86636 0.49985 0.27508 0.0
C1851 C 0.84857 0.51849 0.2607 0.0
C1852 C 0.83268 0.5496 0.26826 0.0
C1853 C 0.83538 0.56242 0.2898 0.0
C1854 C 0.88428 0.46745 0.26746 0.0
C1855 C 0.81279 0.56917 0.25365 0.0
H1856 H 0.87547 0.52422 0.18834 0.0
H1857 H 0.8211 0.43365 0.20591 0.0
H1858 H 0.86945 0.58206 0.2353 0.0
H1859 H 0.89569 0.54831 0.23976 0.0
H1860 H 0.89147 0.57007 0.21332 0.0
H1861 H 0.80012 0.43215 0.24013 0.0
H1862 H 0.82543 0.43851 0.26034 0.0
H1863 H 0.80121 0.47574 0.25657 0.0
H1864 H 0.88141 0.4981 0.30783 0.0
H1865 H 0.8236 0.58663 0.29564 0.0
H1866 H 0.89652 0.4778 0.25367 0.0
H1867 H 0.87242 0.44247 0.26151 0.0
H1868 H 0.89757 0.45691 0.28054 0.0
H1869 H 0.823 0.58381 0.23997 0.0
H1870 H 0.8008 0.5912 0.26244 0.0
H1871 H 0.79936 0.54701 0.24654 0.0
C1872 C 0.14534 0.50163 0.29569 0.0
C1873 C 0.15714 0.46695 0.30263 0.0
C1874 C 0.14666 0.51308 0.27385 0.0
C1875 C 0.16097 0.48995 0.25887 0.0
C1876 C 0.17416 0.45598 0.26614 0.0
C1877 C 0.17158 0.44438 0.28789 0.0
C1878 C 0.13163 0.54881 0.26663 0.0
C1879 C 0.19045 0.43144 0.25085 0.0
C1880 C 0.14019 0.4959 0.19977 0.0
C1881 C 0.15711 0.52488 0.19197 0.0
C1882 C 0.14148 0.48382 0.22151 0.0
C1883 C 0.1608 0.50022 0.23542 0.0
C1884 C 0.17887 0.52804 0.22717 0.0
C1885 C 0.17641 0.54072 0.2056 0.0
C1886 C 0.12132 0.45503 0.22984 0.0
C1887 C 0.20034 0.54508 0.24125 0.0
H1888 H 0.13387 0.51868 0.30712 0.0
H1889 H 0.1807 0.41755 0.2934 0.0
H1890 H 0.14509 0.56984 0.25862 0.0
H1891 H 0.11648 0.54034 0.25451 0.0
H1892 H 0.12169 0.56378 0.28038 0.0
H1893 H 0.20186 0.40866 0.25957 0.0
H1894 H 0.1774 0.41689 0.23888 0.0
H1895 H 0.20436 0.45015 0.24161 0.0
H1896 H 0.12506 0.4842 0.18915 0.0
H1897 H 0.18944 0.56321 0.19939 0.0
H1898 H 0.10939 0.46882 0.24285 0.0
H1899 H 0.13127 0.42936 0.23708 0.0
H1900 H 0.10782 0.44472 0.21684 0.0
H1901 H 0.19151 0.56396 0.25393 0.0
H1902 H 0.21458 0.56279 0.23171 0.0
H1903 H 0.21123 0.52145 0.24969 0.0
C1904 C 0.12712 0.55875 0.78438 0.0
C1905 C 0.14318 0.54446 0.80112 0.0
C1906 C 0.12819 0.54273 0.76346 0.0
C1907 C 0.14623 0.51232 0.75899 0.0
C1908 C 0.16306 0.49851 0.77564 0.0
C1909 C 0.1611 0.5144 0.7966 0.0
C1910 C 0.1095 0.55771 0.74628 0.0
C1911 C 0.18299 0.46676 0.77134 0.0
C1912 C 0.13051 0.44609 0.7113 0.0
C1913 C 0.14522 0.46334 0.69457 0.0
C1914 C 0.13089 0.46149 0.73241 0.0
C1915 C 0.14686 0.49435 0.73701 0.0
C1916 C 0.16244 0.51109 0.72037 0.0
C1917 C 0.16117 0.49569 0.69927 0.0
C1918 C 0.11355 0.44333 0.7496 0.0
C1919 C 0.18017 0.5456 0.72477 0.0
H1920 H 0.11309 0.58175 0.78777 0.0
H1921 H 0.17367 0.50338 0.80943 0.0
H1922 H 0.12075 0.56884 0.73213 0.0
H1923 H 0.09684 0.53351 0.74037 0.0
H1924 H 0.09662 0.58146 0.75242 0.0
H1925 H 0.19567 0.46092 0.78569 0.0
H1926 H 0.17271 0.43936 0.76684 0.0
H1927 H 0.19575 0.475 0.75744 0.0
H1928 H 0.11802 0.42123 0.70776 0.0
H1929 H 0.17276 0.50895 0.68647 0.0
H1930 H 0.09907 0.46515 0.75549 0.0
H1931 H 0.12559 0.43429 0.76375 0.0
H1932 H 0.10262 0.41748 0.74346 0.0
H1933 H 0.16811 0.57134 0.72923 0.0
H1934 H 0.19249 0.55332 0.71048 0.0
H1935 H 0.19334 0.53927 0.73872 0.0
C1936 C 0.83062 0.50385 0.70116 0.0
C1937 C 0.84827 0.5342 0.69643 0.0
C1938 C 0.82837 0.48897 0.72232 0.0
C1939 C 0.84464 0.50415 0.73897 0.0
C1940 C 0.86221 0.53517 0.73436 0.0
C1941 C 0.86357 0.55012 0.71321 0.0
C1942 C 0.80897 0.45651 0.72675 0.0
C1943 C 0.88028 0.55164 0.75159 0.0
C1944 C 0.83039 0.4869 0.79875 0.0
C1945 C 0.84727 0.45561 0.8034 0.0
C1946 C 0.82856 0.50211 0.77764 0.0
C1947 C 0.84447 0.48628 0.76095 0.0
C1948 C 0.86128 0.45438 0.76549 0.0
C1949 C 0.86223 0.43915 0.78659 0.0
C1950 C 0.80994 0.53554 0.77327 0.0
C1951 C 0.87896 0.43717 0.74823 0.0
H1952 H 0.81858 0.49161 0.68832 0.0
H1953 H 0.87735 0.57345 0.70968 0.0
H1954 H 0.81974 0.42946 0.73107 0.0
H1955 H 0.79628 0.46415 0.7408 0.0
H1956 H 0.79618 0.45031 0.71251 0.0
H1957 H 0.89239 0.57631 0.74545 0.0
H1958 H 0.86863 0.56194 0.7657 0.0
H1959 H 0.8937 0.52844 0.75754 0.0
H1960 H 0.81863 0.49959 0.81162 0.0
H1961 H 0.87542 0.4151 0.79005 0.0
H1962 H 0.79701 0.52853 0.75927 0.0
H1963 H 0.82135 0.56203 0.76891 0.0
H1964 H 0.79739 0.54238 0.78756 0.0
H1965 H 0.86706 0.42734 0.73415 0.0
H1966 H 0.89059 0.41202 0.75435 0.0
H1967 H 0.89283 0.4598 0.74224 0.0
loop_
_geom_bond_atom_site_label_1
_geom_bond_atom_site_label_2
_geom_bond_distance
_geom_bond_site_symmetry_2
_ccdc_geom_bond_type
Co0 O2 2.143 . S
Co0 O8 2.074 . S
Co0 O11 2.093 . S
Co0 O24 2.097 . S
Co0 N41 2.151 1_545 S
Co0 N49 2.214 1_545 S
Co1 O2 2.160 . S
Co1 O7 2.058 . S
Co1 O17 2.057 . S
Co1 O32 2.037 . S
Co1 N36 2.145 . S
Co1 N57 2.257 . S
O2 Co0 2.143 . S
O2 Co1 2.160 . S
C3 O4 1.278 . S
C3 O11 1.224 . S
O4 C3 1.278 . S
C5 O6 1.245 . S
C5 O17 1.232 . S
O6 C5 1.245 . S
O7 Co1 2.058 . S
O7 C33 1.269 . S
O8 Co0 2.074 . S
O8 C33 1.256 . S
H9 C34 0.930 . S
H10 C40 0.930 1_545 S
O11 Co0 2.093 . S
O11 C3 1.224 . S
H12 C44 0.929 . S
H13 C46 0.930 . S
H14 C47 0.930 . S
H15 C45 0.929 . S
H16 C48 0.928 . S
O17 Co1 2.057 . S
O17 C5 1.232 . S
H18 C37 0.929 . S
H19 C38 0.929 . S
H20 C50 0.931 . S
H21 C42 0.929 . S
H22 C51 0.930 . S
H23 C43 0.931 . S
O24 Co0 2.097 . S
O24 C52 1.214 . S
H25 C53 0.929 . S
H26 C54 0.929 . S
H27 C55 0.930 . S
H28 C56 0.929 . S
H29 C58 0.930 . S
H30 C35 0.930 . S
H31 C39 0.930 . S
O32 Co1 2.037 . S
O32 C52 1.234 . S
C33 O7 1.269 . S
C33 O8 1.256 . S
C34 H9 0.930 . S
C34 C37 1.388 . S
C34 C39 1.418 . S
C35 H30 0.930 . S
C35 C38 1.404 . S
C35 C39 1.353 . S
N36 Co1 2.145 . S
N36 C37 1.397 . S
N36 C38 1.334 . S
C37 H18 0.929 . S
C37 C34 1.388 . S
C37 N36 1.397 . S
C38 H19 0.929 . S
C38 C35 1.404 . S
C38 N36 1.334 . S
C39 H31 0.930 . S
C39 C34 1.418 . S
C39 C35 1.353 . S
C40 H10 0.930 1_565 S
C40 N41 1.330 . S
C40 C42 1.446 . S
N41 Co0 2.151 1_565 S
N41 C40 1.330 . S
N41 C45 1.418 . S
C42 H21 0.929 . S
C42 C40 1.446 . S
C42 C43 1.332 . S
C43 H23 0.931 . S
C43 C42 1.332 . S
C43 C44 1.267 . S
C44 H12 0.929 . S
C44 C43 1.267 . S
C44 C45 1.251 . S
C45 H15 0.929 . S
C45 N41 1.418 . S
C45 C44 1.251 . S
C46 H13 0.930 . S
C46 C48 1.406 . S
C46 C51 1.261 . S
C47 H14 0.930 . S
C47 N49 1.325 . S
C47 C50 1.357 . S
C48 H16 0.928 . S
C48 C46 1.406 . S
C48 N49 1.261 . S
N49 Co0 2.214 1_565 S
N49 C47 1.325 . S
N49 C48 1.261 . S
C50 H20 0.931 . S
C50 C47 1.357 . S
C50 C51 1.312 . S
C51 H22 0.930 . S
C51 C46 1.261 . S
C51 C50 1.312 . S
C52 O24 1.214 . S
C52 O32 1.234 . S
C53 H25 0.929 . S
C53 C56 1.391 . S
C53 C58 1.391 . S
C54 H26 0.929 . S
C54 C55 1.390 . S
C54 N57 1.391 . S
C55 H27 0.930 . S
C55 C54 1.390 . S
C55 C56 1.392 . S
C56 H28 0.929 . S
C56 C53 1.391 . S
C56 C55 1.392 . S
N57 Co1 2.257 . S
N57 C54 1.391 . S
N57 C58 1.388 . S
C58 H29 0.930 . S
C58 C53 1.391 . S
C58 N57 1.388 . S
Co59 O61 2.143 . S
Co59 O67 2.074 . S
Co59 O70 2.093 . S
Co59 O83 2.097 . S
Co59 N100 2.151 1_565 S
Co59 N108 2.214 1_565 S
Co60 O61 2.160 . S
Co60 O66 2.058 . S
Co60 O76 2.057 . S
Co60 O91 2.037 . S
Co60 N95 2.145 . S
Co60 N116 2.257 . S
O61 Co59 2.143 . S
O61 Co60 2.160 . S
C62 O63 1.278 . S
C62 O70 1.224 . S
O63 C62 1.278 . S
C64 O65 1.245 . S
C64 O76 1.232 . S
O65 C64 1.245 . S
O66 Co60 2.058 . S
O66 C92 1.269 . S
O67 Co59 2.074 . S
O67 C92 1.256 . S
H68 C93 0.930 . S
H69 C99 0.930 1_565 S
O70 Co59 2.093 . S
O70 C62 1.224 . S
H71 C103 0.929 . S
H72 C105 0.930 . S
H73 C106 0.930 . S
H74 C104 0.929 . S
H75 C107 0.928 . S
O76 Co60 2.057 . S
O76 C64 1.232 . S
H77 C96 0.929 . S
H78 C97 0.929 . S
H79 C109 0.931 . S
H80 C101 0.929 . S
H81 C110 0.930 . S
H82 C102 0.931 . S
O83 Co59 2.097 . S
O83 C111 1.214 . S
H84 C112 0.929 . S
H85 C113 0.929 . S
H86 C114 0.930 . S
H87 C115 0.929 . S
H88 C117 0.930 . S
H89 C94 0.930 . S
H90 C98 0.930 . S
O91 Co60 2.037 . S
O91 C111 1.234 . S
C92 O66 1.269 . S
C92 O67 1.256 . S
C93 H68 0.930 . S
C93 C96 1.388 . S
C93 C98 1.418 . S
C94 H89 0.930 . S
C94 C97 1.404 . S
C94 C98 1.353 . S
N95 Co60 2.145 . S
N95 C96 1.397 . S
N95 C97 1.334 . S
C96 H77 0.929 . S
C96 C93 1.388 . S
C96 N95 1.397 . S
C97 H78 0.929 . S
C97 C94 1.404 . S
C97 N95 1.334 . S
C98 H90 0.930 . S
C98 C93 1.418 . S
C98 C94 1.353 . S
C99 H69 0.930 1_545 S
C99 N100 1.330 . S
C99 C101 1.446 . S
N100 Co59 2.151 1_545 S
N100 C99 1.330 . S
N100 C104 1.418 . S
C101 H80 0.929 . S
C101 C99 1.446 . S
C101 C102 1.332 . S
C102 H82 0.931 . S
C102 C101 1.332 . S
C102 C103 1.267 . S
C103 H71 0.929 . S
C103 C102 1.267 . S
C103 C104 1.251 . S
C104 H74 0.929 . S
C104 N100 1.418 . S
C104 C103 1.251 . S
C105 H72 0.930 . S
C105 C107 1.406 . S
C105 C110 1.261 . S
C106 H73 0.930 . S
C106 N108 1.325 . S
C106 C109 1.357 . S
C107 H75 0.928 . S
C107 C105 1.406 . S
C107 N108 1.261 . S
N108 Co59 2.214 1_545 S
N108 C106 1.325 . S
N108 C107 1.261 . S
C109 H79 0.931 . S
C109 C106 1.357 . S
C109 C110 1.312 . S
C110 H81 0.930 . S
C110 C105 1.261 . S
C110 C109 1.312 . S
C111 O83 1.214 . S
C111 O91 1.234 . S
C112 H84 0.929 . S
C112 C115 1.391 . S
C112 C117 1.391 . S
C113 H85 0.929 . S
C113 C114 1.390 . S
C113 N116 1.391 . S
C114 H86 0.930 . S
C114 C113 1.390 . S
C114 C115 1.392 . S
C115 H87 0.929 . S
C115 C112 1.391 . S
C115 C114 1.392 . S
N116 Co60 2.257 . S
N116 C113 1.391 . S
N116 C117 1.388 . S
C117 H88 0.930 . S
C117 C112 1.391 . S
C117 N116 1.388 . S
Co118 O120 2.143 . S
Co118 O126 2.074 . S
Co118 O129 2.093 . S
Co118 O142 2.097 . S
Co118 N159 2.151 1_565 S
Co118 N167 2.214 1_565 S
Co119 O120 2.160 . S
Co119 O125 2.058 . S
Co119 O135 2.057 . S
Co119 O150 2.037 . S
Co119 N154 2.145 . S
Co119 N175 2.257 . S
O120 Co118 2.143 . S
O120 Co119 2.160 . S
C121 O122 1.278 . S
C121 O129 1.224 . S
O122 C121 1.278 . S
C123 O124 1.245 . S
C123 O135 1.232 . S
O124 C123 1.245 . S
O125 Co119 2.058 . S
O125 C151 1.269 . S
O126 Co118 2.074 . S
O126 C151 1.256 . S
H127 C152 0.930 . S
H128 C158 0.930 1_565 S
O129 Co118 2.093 . S
O129 C121 1.224 . S
H130 C162 0.929 . S
H131 C164 0.930 . S
H132 C165 0.930 . S
H133 C163 0.929 . S
H134 C166 0.928 . S
O135 Co119 2.057 . S
O135 C123 1.232 . S
H136 C155 0.929 . S
H137 C156 0.929 . S
H138 C168 0.931 . S
H139 C160 0.929 . S
H140 C169 0.930 . S
H141 C161 0.931 . S
O142 Co118 2.097 . S
O142 C170 1.214 . S
H143 C171 0.929 . S
H144 C172 0.929 . S
H145 C173 0.930 . S
H146 C174 0.929 . S
H147 C176 0.930 . S
H148 C153 0.930 . S
H149 C157 0.930 . S
O150 Co119 2.037 . S
O150 C170 1.234 . S
C151 O125 1.269 . S
C151 O126 1.256 . S
C152 H127 0.930 . S
C152 C155 1.388 . S
C152 C157 1.418 . S
C153 H148 0.930 . S
C153 C156 1.404 . S
C153 C157 1.353 . S
N154 Co119 2.145 . S
N154 C155 1.397 . S
N154 C156 1.334 . S
C155 H136 0.929 . S
C155 C152 1.388 . S
C155 N154 1.397 . S
C156 H137 0.929 . S
C156 C153 1.404 . S
C156 N154 1.334 . S
C157 H149 0.930 . S
C157 C152 1.418 . S
C157 C153 1.353 . S
C158 H128 0.930 1_545 S
C158 N159 1.330 . S
C158 C160 1.446 . S
N159 Co118 2.151 1_545 S
N159 C158 1.330 . S
N159 C163 1.418 . S
C160 H139 0.929 . S
C160 C158 1.446 . S
C160 C161 1.332 . S
C161 H141 0.931 . S
C161 C160 1.332 . S
C161 C162 1.267 . S
C162 H130 0.929 . S
C162 C161 1.267 . S
C162 C163 1.251 . S
C163 H133 0.929 . S
C163 N159 1.418 . S
C163 C162 1.251 . S
C164 H131 0.930 . S
C164 C166 1.406 . S
C164 C169 1.261 . S
C165 H132 0.930 . S
C165 N167 1.325 . S
C165 C168 1.357 . S
C166 H134 0.928 . S
C166 C164 1.406 . S
C166 N167 1.261 . S
N167 Co118 2.214 1_545 S
N167 C165 1.325 . S
N167 C166 1.261 . S
C168 H138 0.931 . S
C168 C165 1.357 . S
C168 C169 1.312 . S
C169 H140 0.930 . S
C169 C164 1.261 . S
C169 C168 1.312 . S
C170 O142 1.214 . S
C170 O150 1.234 . S
C171 H143 0.929 . S
C171 C174 1.391 . S
C171 C176 1.391 . S
C172 H144 0.929 . S
C172 C173 1.390 . S
C172 N175 1.391 . S
C173 H145 0.930 . S
C173 C172 1.390 . S
C173 C174 1.392 . S
C174 H146 0.929 . S
C174 C171 1.391 . S
C174 C173 1.392 . S
N175 Co119 2.257 . S
N175 C172 1.391 . S
N175 C176 1.388 . S
C176 H147 0.930 . S
C176 C171 1.391 . S
C176 N175 1.388 . S
Co177 O179 2.143 . S
Co177 O185 2.074 . S
Co177 O188 2.093 . S
Co177 O201 2.097 . S
Co177 N218 2.151 1_545 S
Co177 N226 2.214 1_545 S
Co178 O179 2.160 . S
Co178 O184 2.058 . S
Co178 O194 2.057 . S
Co178 O209 2.037 . S
Co178 N213 2.145 . S
Co178 N234 2.257 . S
O179 Co177 2.143 . S
O179 Co178 2.160 . S
C180 O181 1.278 . S
C180 O188 1.224 . S
O181 C180 1.278 . S
C182 O183 1.245 . S
C182 O194 1.232 . S
O183 C182 1.245 . S
O184 Co178 2.058 . S
O184 C210 1.269 . S
O185 Co177 2.074 . S
O185 C210 1.256 . S
H186 C211 0.930 . S
H187 C217 0.930 1_545 S
O188 Co177 2.093 . S
O188 C180 1.224 . S
H189 C221 0.929 . S
H190 C223 0.930 . S
H191 C224 0.930 . S
H192 C222 0.929 . S
H193 C225 0.928 . S
O194 Co178 2.057 . S
O194 C182 1.232 . S
H195 C214 0.929 . S
H196 C215 0.929 . S
H197 C227 0.931 . S
H198 C219 0.929 . S
H199 C228 0.930 . S
H200 C220 0.931 . S
O201 Co177 2.097 . S
O201 C229 1.214 . S
H202 C230 0.929 . S
H203 C231 0.929 . S
H204 C232 0.930 . S
H205 C233 0.929 . S
H206 C235 0.930 . S
H207 C212 0.930 . S
H208 C216 0.930 . S
O209 Co178 2.037 . S
O209 C229 1.234 . S
C210 O184 1.269 . S
C210 O185 1.256 . S
C211 H186 0.930 . S
C211 C214 1.388 . S
C211 C216 1.418 . S
C212 H207 0.930 . S
C212 C215 1.404 . S
C212 C216 1.353 . S
N213 Co178 2.145 . S
N213 C214 1.397 . S
N213 C215 1.334 . S
C214 H195 0.929 . S
C214 C211 1.388 . S
C214 N213 1.397 . S
C215 H196 0.929 . S
C215 C212 1.404 . S
C215 N213 1.334 . S
C216 H208 0.930 . S
C216 C211 1.418 . S
C216 C212 1.353 . S
C217 H187 0.930 1_565 S
C217 N218 1.330 . S
C217 C219 1.446 . S
N218 Co177 2.151 1_565 S
N218 C217 1.330 . S
N218 C222 1.418 . S
C219 H198 0.929 . S
C219 C217 1.446 . S
C219 C220 1.332 . S
C220 H200 0.931 . S
C220 C219 1.332 . S
C220 C221 1.267 . S
C221 H189 0.929 . S
C221 C220 1.267 . S
C221 C222 1.251 . S
C222 H192 0.929 . S
C222 N218 1.418 . S
C222 C221 1.251 . S
C223 H190 0.930 . S
C223 C225 1.406 . S
C223 C228 1.261 . S
C224 H191 0.930 . S
C224 N226 1.325 . S
C224 C227 1.357 . S
C225 H193 0.928 . S
C225 C223 1.406 . S
C225 N226 1.261 . S
N226 Co177 2.214 1_565 S
N226 C224 1.325 . S
N226 C225 1.261 . S
C227 H197 0.931 . S
C227 C224 1.357 . S
C227 C228 1.312 . S
C228 H199 0.930 . S
C228 C223 1.261 . S
C228 C227 1.312 . S
C229 O201 1.214 . S
C229 O209 1.234 . S
C230 H202 0.929 . S
C230 C233 1.391 . S
C230 C235 1.391 . S
C231 H203 0.929 . S
C231 C232 1.390 . S
C231 N234 1.391 . S
C232 H204 0.930 . S
C232 C231 1.390 . S
C232 C233 1.392 . S
C233 H205 0.929 . S
C233 C230 1.391 . S
C233 C232 1.392 . S
N234 Co178 2.257 . S
N234 C231 1.391 . S
N234 C235 1.388 . S
C235 H206 0.930 . S
C235 C230 1.391 . S
C235 N234 1.388 . S
Co236 O238 2.143 . S
Co236 O244 2.074 . S
Co236 O247 2.093 . S
Co236 O260 2.097 . S
Co236 N277 2.151 1_565 S
Co236 N285 2.214 1_565 S
Co237 O238 2.160 . S
Co237 O243 2.058 . S
Co237 O253 2.057 . S
Co237 O268 2.037 . S
Co237 N272 2.145 . S
Co237 N293 2.257 . S
O238 Co236 2.143 . S
O238 Co237 2.160 . S
C239 O240 1.278 . S
C239 O247 1.224 . S
O240 C239 1.278 . S
C241 O242 1.245 . S
C241 O253 1.232 . S
O242 C241 1.245 . S
O243 Co237 2.058 . S
O243 C269 1.269 . S
O244 Co236 2.074 . S
O244 C269 1.256 . S
H245 C270 0.930 . S
H246 C276 0.930 1_565 S
O247 Co236 2.093 . S
O247 C239 1.224 . S
H248 C280 0.929 . S
H249 C282 0.930 . S
H250 C283 0.930 . S
H251 C281 0.929 . S
H252 C284 0.928 . S
O253 Co237 2.057 . S
O253 C241 1.232 . S
H254 C273 0.929 . S
H255 C274 0.929 . S
H256 C286 0.931 . S
H257 C278 0.929 . S
H258 C287 0.930 . S
H259 C279 0.931 . S
O260 Co236 2.097 . S
O260 C288 1.214 . S
H261 C289 0.929 . S
H262 C290 0.929 . S
H263 C291 0.930 . S
H264 C292 0.929 . S
H265 C294 0.930 . S
H266 C271 0.930 . S
H267 C275 0.930 . S
O268 Co237 2.037 . S
O268 C288 1.234 . S
C269 O243 1.269 . S
C269 O244 1.256 . S
C270 H245 0.930 . S
C270 C273 1.388 . S
C270 C275 1.418 . S
C271 H266 0.930 . S
C271 C274 1.404 . S
C271 C275 1.353 . S
N272 Co237 2.145 . S
N272 C273 1.397 . S
N272 C274 1.334 . S
C273 H254 0.929 . S
C273 C270 1.388 . S
C273 N272 1.397 . S
C274 H255 0.929 . S
C274 C271 1.404 . S
C274 N272 1.334 . S
C275 H267 0.930 . S
C275 C270 1.418 . S
C275 C271 1.353 . S
C276 H246 0.930 1_545 S
C276 N277 1.330 . S
C276 C278 1.446 . S
N277 Co236 2.151 1_545 S
N277 C276 1.330 . S
N277 C281 1.418 . S
C278 H257 0.929 . S
C278 C276 1.446 . S
C278 C279 1.332 . S
C279 H259 0.931 . S
C279 C278 1.332 . S
C279 C280 1.267 . S
C280 H248 0.929 . S
C280 C279 1.267 . S
C280 C281 1.251 . S
C281 H251 0.929 . S
C281 N277 1.418 . S
C281 C280 1.251 . S
C282 H249 0.930 . S
C282 C284 1.406 . S
C282 C287 1.261 . S
C283 H250 0.930 . S
C283 N285 1.325 . S
C283 C286 1.357 . S
C284 H252 0.928 . S
C284 C282 1.406 . S
C284 N285 1.261 . S
N285 Co236 2.214 1_545 S
N285 C283 1.325 . S
N285 C284 1.261 . S
C286 H256 0.931 . S
C286 C283 1.357 . S
C286 C287 1.312 . S
C287 H258 0.930 . S
C287 C282 1.261 . S
C287 C286 1.312 . S
C288 O260 1.214 . S
C288 O268 1.234 . S
C289 H261 0.929 . S
C289 C292 1.391 . S
C289 C294 1.391 . S
C290 H262 0.929 . S
C290 C291 1.390 . S
C290 N293 1.391 . S
C291 H263 0.930 . S
C291 C290 1.390 . S
C291 C292 1.392 . S
C292 H264 0.929 . S
C292 C289 1.391 . S
C292 C291 1.392 . S
N293 Co237 2.257 . S
N293 C290 1.391 . S
N293 C294 1.388 . S
C294 H265 0.930 . S
C294 C289 1.391 . S
C294 N293 1.388 . S
Co295 O297 2.143 . S
Co295 O303 2.074 . S
Co295 O306 2.093 . S
Co295 O319 2.097 . S
Co295 N336 2.151 1_545 S
Co295 N344 2.214 1_545 S
Co296 O297 2.160 . S
Co296 O302 2.058 . S
Co296 O312 2.057 . S
Co296 O327 2.037 . S
Co296 N331 2.145 . S
Co296 N352 2.257 . S
O297 Co295 2.143 . S
O297 Co296 2.160 . S
C298 O299 1.278 . S
C298 O306 1.224 . S
O299 C298 1.278 . S
C300 O301 1.245 . S
C300 O312 1.232 . S
O301 C300 1.245 . S
O302 Co296 2.058 . S
O302 C328 1.269 . S
O303 Co295 2.074 . S
O303 C328 1.256 . S
H304 C329 0.930 . S
H305 C335 0.930 1_545 S
O306 Co295 2.093 . S
O306 C298 1.224 . S
H307 C339 0.929 . S
H308 C341 0.930 . S
H309 C342 0.930 . S
H310 C340 0.929 . S
H311 C343 0.928 . S
O312 Co296 2.057 . S
O312 C300 1.232 . S
H313 C332 0.929 . S
H314 C333 0.929 . S
H315 C345 0.931 . S
H316 C337 0.929 . S
H317 C346 0.930 . S
H318 C338 0.931 . S
O319 Co295 2.097 . S
O319 C347 1.214 . S
H320 C348 0.929 . S
H321 C349 0.929 . S
H322 C350 0.930 . S
H323 C351 0.929 . S
H324 C353 0.930 . S
H325 C330 0.930 . S
H326 C334 0.930 . S
O327 Co296 2.037 . S
O327 C347 1.234 . S
C328 O302 1.269 . S
C328 O303 1.256 . S
C329 H304 0.930 . S
C329 C332 1.388 . S
C329 C334 1.418 . S
C330 H325 0.930 . S
C330 C333 1.404 . S
C330 C334 1.353 . S
N331 Co296 2.145 . S
N331 C332 1.397 . S
N331 C333 1.334 . S
C332 H313 0.929 . S
C332 C329 1.388 . S
C332 N331 1.397 . S
C333 H314 0.929 . S
C333 C330 1.404 . S
C333 N331 1.334 . S
C334 H326 0.930 . S
C334 C329 1.418 . S
C334 C330 1.353 . S
C335 H305 0.930 1_565 S
C335 N336 1.330 . S
C335 C337 1.446 . S
N336 Co295 2.151 1_565 S
N336 C335 1.330 . S
N336 C340 1.418 . S
C337 H316 0.929 . S
C337 C335 1.446 . S
C337 C338 1.332 . S
C338 H318 0.931 . S
C338 C337 1.332 . S
C338 C339 1.267 . S
C339 H307 0.929 . S
C339 C338 1.267 . S
C339 C340 1.251 . S
C340 H310 0.929 . S
C340 N336 1.418 . S
C340 C339 1.251 . S
C341 H308 0.930 . S
C341 C343 1.406 . S
C341 C346 1.261 . S
C342 H309 0.930 . S
C342 N344 1.325 . S
C342 C345 1.357 . S
C343 H311 0.928 . S
C343 C341 1.406 . S
C343 N344 1.261 . S
N344 Co295 2.214 1_565 S
N344 C342 1.325 . S
N344 C343 1.261 . S
C345 H315 0.931 . S
C345 C342 1.357 . S
C345 C346 1.312 . S
C346 H317 0.930 . S
C346 C341 1.261 . S
C346 C345 1.312 . S
C347 O319 1.214 . S
C347 O327 1.234 . S
C348 H320 0.929 . S
C348 C351 1.391 . S
C348 C353 1.391 . S
C349 H321 0.929 . S
C349 C350 1.390 . S
C349 N352 1.391 . S
C350 H322 0.930 . S
C350 C349 1.390 . S
C350 C351 1.392 . S
C351 H323 0.929 . S
C351 C348 1.391 . S
C351 C350 1.392 . S
N352 Co296 2.257 . S
N352 C349 1.391 . S
N352 C353 1.388 . S
C353 H324 0.930 . S
C353 C348 1.391 . S
C353 N352 1.388 . S
Co354 O356 2.143 . S
Co354 O362 2.074 . S
Co354 O365 2.093 . S
Co354 O378 2.097 . S
Co354 N395 2.151 1_545 S
Co354 N403 2.214 1_545 S
Co355 O356 2.160 . S
Co355 O361 2.058 . S
Co355 O371 2.057 . S
Co355 O386 2.037 . S
Co355 N390 2.145 . S
Co355 N411 2.257 . S
O356 Co354 2.143 . S
O356 Co355 2.160 . S
C357 O358 1.278 . S
C357 O365 1.224 . S
O358 C357 1.278 . S
C359 O360 1.245 . S
C359 O371 1.232 . S
O360 C359 1.245 . S
O361 Co355 2.058 . S
O361 C387 1.269 . S
O362 Co354 2.074 . S
O362 C387 1.256 . S
H363 C388 0.930 . S
H364 C394 0.930 1_545 S
O365 Co354 2.093 . S
O365 C357 1.224 . S
H366 C398 0.929 . S
H367 C400 0.930 . S
H368 C401 0.930 . S
H369 C399 0.929 . S
H370 C402 0.928 . S
O371 Co355 2.057 . S
O371 C359 1.232 . S
H372 C391 0.929 . S
H373 C392 0.929 . S
H374 C404 0.931 . S
H375 C396 0.929 . S
H376 C405 0.930 . S
H377 C397 0.931 . S
O378 Co354 2.097 . S
O378 C406 1.214 . S
H379 C407 0.929 . S
H380 C408 0.929 . S
H381 C409 0.930 . S
H382 C410 0.929 . S
H383 C412 0.930 . S
H384 C389 0.930 . S
H385 C393 0.930 . S
O386 Co355 2.037 . S
O386 C406 1.234 . S
C387 O361 1.269 . S
C387 O362 1.256 . S
C388 H363 0.930 . S
C388 C391 1.388 . S
C388 C393 1.418 . S
C389 H384 0.930 . S
C389 C392 1.404 . S
C389 C393 1.353 . S
N390 Co355 2.145 . S
N390 C391 1.397 . S
N390 C392 1.334 . S
C391 H372 0.929 . S
C391 C388 1.388 . S
C391 N390 1.397 . S
C392 H373 0.929 . S
C392 C389 1.404 . S
C392 N390 1.334 . S
C393 H385 0.930 . S
C393 C388 1.418 . S
C393 C389 1.353 . S
C394 H364 0.930 1_565 S
C394 N395 1.330 . S
C394 C396 1.446 . S
N395 Co354 2.151 1_565 S
N395 C394 1.330 . S
N395 C399 1.418 . S
C396 H375 0.929 . S
C396 C394 1.446 . S
C396 C397 1.332 . S
C397 H377 0.931 . S
C397 C396 1.332 . S
C397 C398 1.267 . S
C398 H366 0.929 . S
C398 C397 1.267 . S
C398 C399 1.251 . S
C399 H369 0.929 . S
C399 N395 1.418 . S
C399 C398 1.251 . S
C400 H367 0.930 . S
C400 C402 1.406 . S
C400 C405 1.261 . S
C401 H368 0.930 . S
C401 N403 1.325 . S
C401 C404 1.357 . S
C402 H370 0.928 . S
C402 C400 1.406 . S
C402 N403 1.261 . S
N403 Co354 2.214 1_565 S
N403 C401 1.325 . S
N403 C402 1.261 . S
C404 H374 0.931 . S
C404 C401 1.357 . S
C404 C405 1.312 . S
C405 H376 0.930 . S
C405 C400 1.261 . S
C405 C404 1.312 . S
C406 O378 1.214 . S
C406 O386 1.234 . S
C407 H379 0.929 . S
C407 C410 1.391 . S
C407 C412 1.391 . S
C408 H380 0.929 . S
C408 C409 1.390 . S
C408 N411 1.391 . S
C409 H381 0.930 . S
C409 C408 1.390 . S
C409 C410 1.392 . S
C410 H382 0.929 . S
C410 C407 1.391 . S
C410 C409 1.392 . S
N411 Co355 2.257 . S
N411 C408 1.391 . S
N411 C412 1.388 . S
C412 H383 0.930 . S
C412 C407 1.391 . S
C412 N411 1.388 . S
Co413 O415 2.143 . S
Co413 O421 2.074 . S
Co413 O424 2.093 . S
Co413 O437 2.097 . S
Co413 N454 2.151 1_565 S
Co413 N462 2.214 1_565 S
Co414 O415 2.160 . S
Co414 O420 2.058 . S
Co414 O430 2.057 . S
Co414 O445 2.037 . S
Co414 N449 2.145 . S
Co414 N470 2.257 . S
O415 Co413 2.143 . S
O415 Co414 2.160 . S
C416 O417 1.278 . S
C416 O424 1.224 . S
O417 C416 1.278 . S
C418 O419 1.245 . S
C418 O430 1.232 . S
O419 C418 1.245 . S
O420 Co414 2.058 . S
O420 C446 1.269 . S
O421 Co413 2.074 . S
O421 C446 1.256 . S
H422 C447 0.930 . S
H423 C453 0.930 1_565 S
O424 Co413 2.093 . S
O424 C416 1.224 . S
H425 C457 0.929 . S
H426 C459 0.930 . S
H427 C460 0.930 . S
H428 C458 0.929 . S
H429 C461 0.928 . S
O430 Co414 2.057 . S
O430 C418 1.232 . S
H431 C450 0.929 . S
H432 C451 0.929 . S
H433 C463 0.931 . S
H434 C455 0.929 . S
H435 C464 0.930 . S
H436 C456 0.931 . S
O437 Co413 2.097 . S
O437 C465 1.214 . S
H438 C466 0.929 . S
H439 C467 0.929 . S
H440 C468 0.930 . S
H441 C469 0.929 . S
H442 C471 0.930 . S
H443 C448 0.930 . S
H444 C452 0.930 . S
O445 Co414 2.037 . S
O445 C465 1.234 . S
C446 O420 1.269 . S
C446 O421 1.256 . S
C447 H422 0.930 . S
C447 C450 1.388 . S
C447 C452 1.418 . S
C448 H443 0.930 . S
C448 C451 1.404 . S
C448 C452 1.353 . S
N449 Co414 2.145 . S
N449 C450 1.397 . S
N449 C451 1.334 . S
C450 H431 0.929 . S
C450 C447 1.388 . S
C450 N449 1.397 . S
C451 H432 0.929 . S
C451 C448 1.404 . S
C451 N449 1.334 . S
C452 H444 0.930 . S
C452 C447 1.418 . S
C452 C448 1.353 . S
C453 H423 0.930 1_545 S
C453 N454 1.330 . S
C453 C455 1.446 . S
N454 Co413 2.151 1_545 S
N454 C453 1.330 . S
N454 C458 1.418 . S
C455 H434 0.929 . S
C455 C453 1.446 . S
C455 C456 1.332 . S
C456 H436 0.931 . S
C456 C455 1.332 . S
C456 C457 1.267 . S
C457 H425 0.929 . S
C457 C456 1.267 . S
C457 C458 1.251 . S
C458 H428 0.929 . S
C458 N454 1.418 . S
C458 C457 1.251 . S
C459 H426 0.930 . S
C459 C461 1.406 . S
C459 C464 1.261 . S
C460 H427 0.930 . S
C460 N462 1.325 . S
C460 C463 1.357 . S
C461 H429 0.928 . S
C461 C459 1.406 . S
C461 N462 1.261 . S
N462 Co413 2.214 1_545 S
N462 C460 1.325 . S
N462 C461 1.261 . S
C463 H433 0.931 . S
C463 C460 1.357 . S
C463 C464 1.312 . S
C464 H435 0.930 . S
C464 C459 1.261 . S
C464 C463 1.312 . S
C465 O437 1.214 . S
C465 O445 1.234 . S
C466 H438 0.929 . S
C466 C469 1.391 . S
C466 C471 1.391 . S
C467 H439 0.929 . S
C467 C468 1.390 . S
C467 N470 1.391 . S
C468 H440 0.930 . S
C468 C467 1.390 . S
C468 C469 1.392 . S
C469 H441 0.929 . S
C469 C466 1.391 . S
C469 C468 1.392 . S
N470 Co414 2.257 . S
N470 C467 1.391 . S
N470 C471 1.388 . S
C471 H442 0.930 . S
C471 C466 1.391 . S
C471 N470 1.388 . S
Co472 O474 2.143 . S
Co472 O480 2.074 . S
Co472 O483 2.093 . S
Co472 O496 2.097 . S
Co472 N513 2.151 . S
Co472 N521 2.214 . S
Co473 O474 2.160 . S
Co473 O479 2.058 . S
Co473 O489 2.057 . S
Co473 O504 2.037 . S
Co473 N508 2.145 . S
Co473 N529 2.257 . S
O474 Co472 2.143 . S
O474 Co473 2.160 . S
C475 O476 1.278 . S
C475 O483 1.224 . S
O476 C475 1.278 . S
C477 O478 1.245 . S
C477 O489 1.232 . S
O478 C477 1.245 . S
O479 Co473 2.058 . S
O479 C505 1.269 . S
O480 Co472 2.074 . S
O480 C505 1.257 . S
H481 C506 0.930 . S
H482 C512 0.930 . S
O483 Co472 2.093 . S
O483 C475 1.224 . S
H484 C516 0.929 . S
H485 C518 0.930 . S
H486 C519 0.930 . S
H487 C517 0.929 . S
H488 C520 0.928 . S
O489 Co473 2.057 . S
O489 C477 1.232 . S
H490 C509 0.929 . S
H491 C510 0.929 . S
H492 C522 0.931 . S
H493 C514 0.929 . S
H494 C523 0.930 . S
H495 C515 0.931 . S
O496 Co472 2.097 . S
O496 C524 1.214 . S
H497 C525 0.929 . S
H498 C526 0.929 . S
H499 C527 0.930 . S
H500 C528 0.929 . S
H501 C530 0.930 . S
H502 C507 0.930 . S
H503 C511 0.930 . S
O504 Co473 2.037 . S
O504 C524 1.234 . S
C505 O479 1.269 . S
C505 O480 1.257 . S
C506 H481 0.930 . S
C506 C509 1.388 . S
C506 C511 1.418 . S
C507 H502 0.930 . S
C507 C510 1.404 . S
C507 C511 1.353 . S
N508 Co473 2.145 . S
N508 C509 1.397 . S
N508 C510 1.334 . S
C509 H490 0.929 . S
C509 C506 1.388 . S
C509 N508 1.397 . S
C510 H491 0.929 . S
C510 C507 1.404 . S
C510 N508 1.334 . S
C511 H503 0.930 . S
C511 C506 1.418 . S
C511 C507 1.353 . S
C512 H482 0.930 . S
C512 N513 1.330 . S
C512 C514 1.446 . S
N513 Co472 2.151 . S
N513 C512 1.330 . S
N513 C517 1.418 . S
C514 H493 0.929 . S
C514 C512 1.446 . S
C514 C515 1.332 . S
C515 H495 0.931 . S
C515 C514 1.332 . S
C515 C516 1.267 . S
C516 H484 0.929 . S
C516 C515 1.267 . S
C516 C517 1.251 . S
C517 H487 0.929 . S
C517 N513 1.418 . S
C517 C516 1.251 . S
C518 H485 0.930 . S
C518 C520 1.406 . S
C518 C523 1.261 . S
C519 H486 0.930 . S
C519 N521 1.325 . S
C519 C522 1.357 . S
C520 H488 0.928 . S
C520 C518 1.406 . S
C520 N521 1.261 . S
N521 Co472 2.214 . S
N521 C519 1.325 . S
N521 C520 1.261 . S
C522 H492 0.931 . S
C522 C519 1.357 . S
C522 C523 1.312 . S
C523 H494 0.930 . S
C523 C518 1.261 . S
C523 C522 1.312 . S
C524 O496 1.214 . S
C524 O504 1.234 . S
C525 H497 0.929 . S
C525 C528 1.391 . S
C525 C530 1.391 . S
C526 H498 0.929 . S
C526 C527 1.390 . S
C526 N529 1.391 . S
C527 H499 0.930 . S
C527 C526 1.390 . S
C527 C528 1.392 . S
C528 H500 0.929 . S
C528 C525 1.391 . S
C528 C527 1.392 . S
N529 Co473 2.257 . S
N529 C526 1.391 . S
N529 C530 1.388 . S
C530 H501 0.930 . S
C530 C525 1.391 . S
C530 N529 1.388 . S
Co531 O533 2.143 . S
Co531 O539 2.074 . S
Co531 O542 2.093 . S
Co531 O555 2.097 . S
Co531 N572 2.151 . S
Co531 N580 2.214 . S
Co532 O533 2.160 . S
Co532 O538 2.058 . S
Co532 O548 2.057 . S
Co532 O563 2.037 . S
Co532 N567 2.145 . S
Co532 N588 2.257 . S
O533 Co531 2.143 . S
O533 Co532 2.160 . S
C534 O535 1.278 . S
C534 O542 1.224 . S
O535 C534 1.278 . S
C536 O537 1.245 . S
C536 O548 1.232 . S
O537 C536 1.245 . S
O538 Co532 2.058 . S
O538 C564 1.269 . S
O539 Co531 2.074 . S
O539 C564 1.257 . S
H540 C565 0.930 . S
H541 C571 0.930 . S
O542 Co531 2.093 . S
O542 C534 1.224 . S
H543 C575 0.929 . S
H544 C577 0.930 . S
H545 C578 0.930 . S
H546 C576 0.929 . S
H547 C579 0.928 . S
O548 Co532 2.057 . S
O548 C536 1.232 . S
H549 C568 0.929 . S
H550 C569 0.929 . S
H551 C581 0.931 . S
H552 C573 0.929 . S
H553 C582 0.930 . S
H554 C574 0.931 . S
O555 Co531 2.097 . S
O555 C583 1.214 . S
H556 C584 0.929 . S
H557 C585 0.929 . S
H558 C586 0.930 . S
H559 C587 0.929 . S
H560 C589 0.930 . S
H561 C566 0.930 . S
H562 C570 0.930 . S
O563 Co532 2.037 . S
O563 C583 1.234 . S
C564 O538 1.269 . S
C564 O539 1.257 . S
C565 H540 0.930 . S
C565 C568 1.388 . S
C565 C570 1.418 . S
C566 H561 0.930 . S
C566 C569 1.404 . S
C566 C570 1.353 . S
N567 Co532 2.145 . S
N567 C568 1.397 . S
N567 C569 1.334 . S
C568 H549 0.929 . S
C568 C565 1.388 . S
C568 N567 1.397 . S
C569 H550 0.929 . S
C569 C566 1.404 . S
C569 N567 1.334 . S
C570 H562 0.930 . S
C570 C565 1.418 . S
C570 C566 1.353 . S
C571 H541 0.930 . S
C571 N572 1.330 . S
C571 C573 1.446 . S
N572 Co531 2.151 . S
N572 C571 1.330 . S
N572 C576 1.418 . S
C573 H552 0.929 . S
C573 C571 1.446 . S
C573 C574 1.332 . S
C574 H554 0.931 . S
C574 C573 1.332 . S
C574 C575 1.267 . S
C575 H543 0.929 . S
C575 C574 1.267 . S
C575 C576 1.251 . S
C576 H546 0.929 . S
C576 N572 1.418 . S
C576 C575 1.251 . S
C577 H544 0.930 . S
C577 C579 1.406 . S
C577 C582 1.261 . S
C578 H545 0.930 . S
C578 N580 1.325 . S
C578 C581 1.357 . S
C579 H547 0.928 . S
C579 C577 1.406 . S
C579 N580 1.261 . S
N580 Co531 2.214 . S
N580 C578 1.325 . S
N580 C579 1.261 . S
C581 H551 0.931 . S
C581 C578 1.357 . S
C581 C582 1.312 . S
C582 H553 0.930 . S
C582 C577 1.261 . S
C582 C581 1.312 . S
C583 O555 1.214 . S
C583 O563 1.234 . S
C584 H556 0.929 . S
C584 C587 1.391 . S
C584 C589 1.391 . S
C585 H557 0.929 . S
C585 C586 1.390 . S
C585 N588 1.391 . S
C586 H558 0.930 . S
C586 C585 1.390 . S
C586 C587 1.392 . S
C587 H559 0.929 . S
C587 C584 1.391 . S
C587 C586 1.392 . S
N588 Co532 2.257 . S
N588 C585 1.391 . S
N588 C589 1.388 . S
C589 H560 0.930 . S
C589 C584 1.391 . S
C589 N588 1.388 . S
Co590 O592 2.143 . S
Co590 O598 2.074 . S
Co590 O601 2.093 . S
Co590 O614 2.097 . S
Co590 N631 2.151 . S
Co590 N639 2.214 . S
Co591 O592 2.160 . S
Co591 O597 2.058 . S
Co591 O607 2.057 . S
Co591 O622 2.037 . S
Co591 N626 2.145 . S
Co591 N647 2.257 . S
O592 Co590 2.143 . S
O592 Co591 2.160 . S
C593 O594 1.278 . S
C593 O601 1.224 . S
O594 C593 1.278 . S
C595 O596 1.245 . S
C595 O607 1.232 . S
O596 C595 1.245 . S
O597 Co591 2.058 . S
O597 C623 1.269 . S
O598 Co590 2.074 . S
O598 C623 1.257 . S
H599 C624 0.930 . S
H600 C630 0.930 . S
O601 Co590 2.093 . S
O601 C593 1.224 . S
H602 C634 0.929 . S
H603 C636 0.930 . S
H604 C637 0.930 . S
H605 C635 0.929 . S
H606 C638 0.928 . S
O607 Co591 2.057 . S
O607 C595 1.232 . S
H608 C627 0.929 . S
H609 C628 0.929 . S
H610 C640 0.931 . S
H611 C632 0.929 . S
H612 C641 0.930 . S
H613 C633 0.931 . S
O614 Co590 2.097 . S
O614 C642 1.214 . S
H615 C643 0.929 . S
H616 C644 0.929 . S
H617 C645 0.930 . S
H618 C646 0.929 . S
H619 C648 0.930 . S
H620 C625 0.930 . S
H621 C629 0.930 . S
O622 Co591 2.037 . S
O622 C642 1.234 . S
C623 O597 1.269 . S
C623 O598 1.257 . S
C624 H599 0.930 . S
C624 C627 1.388 . S
C624 C629 1.418 . S
C625 H620 0.930 . S
C625 C628 1.404 . S
C625 C629 1.353 . S
N626 Co591 2.145 . S
N626 C627 1.397 . S
N626 C628 1.334 . S
C627 H608 0.929 . S
C627 C624 1.388 . S
C627 N626 1.397 . S
C628 H609 0.929 . S
C628 C625 1.404 . S
C628 N626 1.334 . S
C629 H621 0.930 . S
C629 C624 1.418 . S
C629 C625 1.353 . S
C630 H600 0.930 . S
C630 N631 1.330 . S
C630 C632 1.446 . S
N631 Co590 2.151 . S
N631 C630 1.330 . S
N631 C635 1.418 . S
C632 H611 0.929 . S
C632 C630 1.446 . S
C632 C633 1.332 . S
C633 H613 0.931 . S
C633 C632 1.332 . S
C633 C634 1.267 . S
C634 H602 0.929 . S
C634 C633 1.267 . S
C634 C635 1.251 . S
C635 H605 0.929 . S
C635 N631 1.418 . S
C635 C634 1.251 . S
C636 H603 0.930 . S
C636 C638 1.406 . S
C636 C641 1.261 . S
C637 H604 0.930 . S
C637 N639 1.325 . S
C637 C640 1.357 . S
C638 H606 0.928 . S
C638 C636 1.406 . S
C638 N639 1.261 . S
N639 Co590 2.214 . S
N639 C637 1.325 . S
N639 C638 1.261 . S
C640 H610 0.931 . S
C640 C637 1.357 . S
C640 C641 1.312 . S
C641 H612 0.930 . S
C641 C636 1.261 . S
C641 C640 1.312 . S
C642 O614 1.214 . S
C642 O622 1.234 . S
C643 H615 0.929 . S
C643 C646 1.391 . S
C643 C648 1.391 . S
C644 H616 0.929 . S
C644 C645 1.390 . S
C644 N647 1.391 . S
C645 H617 0.930 . S
C645 C644 1.390 . S
C645 C646 1.392 . S
C646 H618 0.929 . S
C646 C643 1.391 . S
C646 C645 1.392 . S
N647 Co591 2.257 . S
N647 C644 1.391 . S
N647 C648 1.388 . S
C648 H619 0.930 . S
C648 C643 1.391 . S
C648 N647 1.388 . S
Co649 O651 2.143 . S
Co649 O657 2.074 . S
Co649 O660 2.093 . S
Co649 O673 2.097 . S
Co649 N690 2.151 . S
Co649 N698 2.214 . S
Co650 O651 2.160 . S
Co650 O656 2.058 . S
Co650 O666 2.057 . S
Co650 O681 2.037 . S
Co650 N685 2.145 . S
Co650 N706 2.257 . S
O651 Co649 2.143 . S
O651 Co650 2.160 . S
C652 O653 1.278 . S
C652 O660 1.224 . S
O653 C652 1.278 . S
C654 O655 1.245 . S
C654 O666 1.232 . S
O655 C654 1.245 . S
O656 Co650 2.058 . S
O656 C682 1.269 . S
O657 Co649 2.074 . S
O657 C682 1.257 . S
H658 C683 0.930 . S
H659 C689 0.930 . S
O660 Co649 2.093 . S
O660 C652 1.224 . S
H661 C693 0.929 . S
H662 C695 0.930 . S
H663 C696 0.930 . S
H664 C694 0.929 . S
H665 C697 0.928 . S
O666 Co650 2.057 . S
O666 C654 1.232 . S
H667 C686 0.929 . S
H668 C687 0.929 . S
H669 C699 0.931 . S
H670 C691 0.929 . S
H671 C700 0.930 . S
H672 C692 0.931 . S
O673 Co649 2.097 . S
O673 C701 1.214 . S
H674 C702 0.929 . S
H675 C703 0.929 . S
H676 C704 0.930 . S
H677 C705 0.929 . S
H678 C707 0.930 . S
H679 C684 0.930 . S
H680 C688 0.930 . S
O681 Co650 2.037 . S
O681 C701 1.234 . S
C682 O656 1.269 . S
C682 O657 1.257 . S
C683 H658 0.930 . S
C683 C686 1.388 . S
C683 C688 1.418 . S
C684 H679 0.930 . S
C684 C687 1.404 . S
C684 C688 1.353 . S
N685 Co650 2.145 . S
N685 C686 1.397 . S
N685 C687 1.334 . S
C686 H667 0.929 . S
C686 C683 1.388 . S
C686 N685 1.397 . S
C687 H668 0.929 . S
C687 C684 1.404 . S
C687 N685 1.334 . S
C688 H680 0.930 . S
C688 C683 1.418 . S
C688 C684 1.353 . S
C689 H659 0.930 . S
C689 N690 1.330 . S
C689 C691 1.446 . S
N690 Co649 2.151 . S
N690 C689 1.330 . S
N690 C694 1.418 . S
C691 H670 0.929 . S
C691 C689 1.446 . S
C691 C692 1.332 . S
C692 H672 0.931 . S
C692 C691 1.332 . S
C692 C693 1.267 . S
C693 H661 0.929 . S
C693 C692 1.267 . S
C693 C694 1.251 . S
C694 H664 0.929 . S
C694 N690 1.418 . S
C694 C693 1.251 . S
C695 H662 0.930 . S
C695 C697 1.406 . S
C695 C700 1.261 . S
C696 H663 0.930 . S
C696 N698 1.325 . S
C696 C699 1.357 . S
C697 H665 0.928 . S
C697 C695 1.406 . S
C697 N698 1.261 . S
N698 Co649 2.214 . S
N698 C696 1.325 . S
N698 C697 1.261 . S
C699 H669 0.931 . S
C699 C696 1.357 . S
C699 C700 1.312 . S
C700 H671 0.930 . S
C700 C695 1.261 . S
C700 C699 1.312 . S
C701 O673 1.214 . S
C701 O681 1.234 . S
C702 H674 0.929 . S
C702 C705 1.391 . S
C702 C707 1.391 . S
C703 H675 0.929 . S
C703 C704 1.390 . S
C703 N706 1.391 . S
C704 H676 0.930 . S
C704 C703 1.390 . S
C704 C705 1.392 . S
C705 H677 0.929 . S
C705 C702 1.391 . S
C705 C704 1.392 . S
N706 Co650 2.257 . S
N706 C703 1.391 . S
N706 C707 1.388 . S
C707 H678 0.930 . S
C707 C702 1.391 . S
C707 N706 1.388 . S
Co708 O710 2.143 . S
Co708 O716 2.074 . S
Co708 O719 2.093 . S
Co708 O732 2.097 . S
Co708 N749 2.151 . S
Co708 N757 2.214 . S
Co709 O710 2.160 . S
Co709 O715 2.058 . S
Co709 O725 2.057 . S
Co709 O740 2.037 . S
Co709 N744 2.145 . S
Co709 N765 2.257 . S
O710 Co708 2.143 . S
O710 Co709 2.160 . S
C711 O712 1.278 . S
C711 O719 1.224 . S
O712 C711 1.278 . S
C713 O714 1.245 . S
C713 O725 1.232 . S
O714 C713 1.245 . S
O715 Co709 2.058 . S
O715 C741 1.269 . S
O716 Co708 2.074 . S
O716 C741 1.257 . S
H717 C742 0.930 . S
H718 C748 0.930 . S
O719 Co708 2.093 . S
O719 C711 1.224 . S
H720 C752 0.929 . S
H721 C754 0.930 . S
H722 C755 0.930 . S
H723 C753 0.929 . S
H724 C756 0.928 . S
O725 Co709 2.057 . S
O725 C713 1.232 . S
H726 C745 0.929 . S
H727 C746 0.929 . S
H728 C758 0.931 . S
H729 C750 0.929 . S
H730 C759 0.930 . S
H731 C751 0.931 . S
O732 Co708 2.097 . S
O732 C760 1.214 . S
H733 C761 0.929 . S
H734 C762 0.929 . S
H735 C763 0.930 . S
H736 C764 0.929 . S
H737 C766 0.930 . S
H738 C743 0.930 . S
H739 C747 0.930 . S
O740 Co709 2.037 . S
O740 C760 1.234 . S
C741 O715 1.269 . S
C741 O716 1.257 . S
C742 H717 0.930 . S
C742 C745 1.388 . S
C742 C747 1.418 . S
C743 H738 0.930 . S
C743 C746 1.404 . S
C743 C747 1.353 . S
N744 Co709 2.145 . S
N744 C745 1.397 . S
N744 C746 1.334 . S
C745 H726 0.929 . S
C745 C742 1.388 . S
C745 N744 1.397 . S
C746 H727 0.929 . S
C746 C743 1.404 . S
C746 N744 1.334 . S
C747 H739 0.930 . S
C747 C742 1.418 . S
C747 C743 1.353 . S
C748 H718 0.930 . S
C748 N749 1.330 . S
C748 C750 1.446 . S
N749 Co708 2.151 . S
N749 C748 1.330 . S
N749 C753 1.418 . S
C750 H729 0.929 . S
C750 C748 1.446 . S
C750 C751 1.332 . S
C751 H731 0.931 . S
C751 C750 1.332 . S
C751 C752 1.267 . S
C752 H720 0.929 . S
C752 C751 1.267 . S
C752 C753 1.251 . S
C753 H723 0.929 . S
C753 N749 1.418 . S
C753 C752 1.251 . S
C754 H721 0.930 . S
C754 C756 1.406 . S
C754 C759 1.261 . S
C755 H722 0.930 . S
C755 N757 1.325 . S
C755 C758 1.357 . S
C756 H724 0.928 . S
C756 C754 1.406 . S
C756 N757 1.261 . S
N757 Co708 2.214 . S
N757 C755 1.325 . S
N757 C756 1.261 . S
C758 H728 0.931 . S
C758 C755 1.357 . S
C758 C759 1.312 . S
C759 H730 0.930 . S
C759 C754 1.261 . S
C759 C758 1.312 . S
C760 O732 1.214 . S
C760 O740 1.234 . S
C761 H733 0.929 . S
C761 C764 1.391 . S
C761 C766 1.391 . S
C762 H734 0.929 . S
C762 C763 1.390 . S
C762 N765 1.391 . S
C763 H735 0.930 . S
C763 C762 1.390 . S
C763 C764 1.392 . S
C764 H736 0.929 . S
C764 C761 1.391 . S
C764 C763 1.392 . S
N765 Co709 2.257 . S
N765 C762 1.391 . S
N765 C766 1.388 . S
C766 H737 0.930 . S
C766 C761 1.391 . S
C766 N765 1.388 . S
Co767 O769 2.143 . S
Co767 O775 2.074 . S
Co767 O778 2.093 . S
Co767 O791 2.097 . S
Co767 N808 2.151 . S
Co767 N816 2.214 . S
Co768 O769 2.160 . S
Co768 O774 2.058 . S
Co768 O784 2.057 . S
Co768 O799 2.037 . S
Co768 N803 2.145 . S
Co768 N824 2.257 . S
O769 Co767 2.143 . S
O769 Co768 2.160 . S
C770 O771 1.278 . S
C770 O778 1.224 . S
O771 C770 1.278 . S
C772 O773 1.245 . S
C772 O784 1.232 . S
O773 C772 1.245 . S
O774 Co768 2.058 . S
O774 C800 1.269 . S
O775 Co767 2.074 . S
O775 C800 1.257 . S
H776 C801 0.930 . S
H777 C807 0.930 . S
O778 Co767 2.093 . S
O778 C770 1.224 . S
H779 C811 0.929 . S
H780 C813 0.930 . S
H781 C814 0.930 . S
H782 C812 0.929 . S
H783 C815 0.928 . S
O784 Co768 2.057 . S
O784 C772 1.232 . S
H785 C804 0.929 . S
H786 C805 0.929 . S
H787 C817 0.931 . S
H788 C809 0.929 . S
H789 C818 0.930 . S
H790 C810 0.931 . S
O791 Co767 2.097 . S
O791 C819 1.214 . S
H792 C820 0.929 . S
H793 C821 0.929 . S
H794 C822 0.930 . S
H795 C823 0.929 . S
H796 C825 0.930 . S
H797 C802 0.930 . S
H798 C806 0.930 . S
O799 Co768 2.037 . S
O799 C819 1.234 . S
C800 O774 1.269 . S
C800 O775 1.257 . S
C801 H776 0.930 . S
C801 C804 1.388 . S
C801 C806 1.418 . S
C802 H797 0.930 . S
C802 C805 1.404 . S
C802 C806 1.353 . S
N803 Co768 2.145 . S
N803 C804 1.397 . S
N803 C805 1.334 . S
C804 H785 0.929 . S
C804 C801 1.388 . S
C804 N803 1.397 . S
C805 H786 0.929 . S
C805 C802 1.404 . S
C805 N803 1.334 . S
C806 H798 0.930 . S
C806 C801 1.418 . S
C806 C802 1.353 . S
C807 H777 0.930 . S
C807 N808 1.330 . S
C807 C809 1.446 . S
N808 Co767 2.151 . S
N808 C807 1.330 . S
N808 C812 1.418 . S
C809 H788 0.929 . S
C809 C807 1.446 . S
C809 C810 1.332 . S
C810 H790 0.931 . S
C810 C809 1.332 . S
C810 C811 1.267 . S
C811 H779 0.929 . S
C811 C810 1.267 . S
C811 C812 1.251 . S
C812 H782 0.929 . S
C812 N808 1.418 . S
C812 C811 1.251 . S
C813 H780 0.930 . S
C813 C815 1.406 . S
C813 C818 1.261 . S
C814 H781 0.930 . S
C814 N816 1.325 . S
C814 C817 1.357 . S
C815 H783 0.928 . S
C815 C813 1.406 . S
C815 N816 1.261 . S
N816 Co767 2.214 . S
N816 C814 1.325 . S
N816 C815 1.261 . S
C817 H787 0.931 . S
C817 C814 1.357 . S
C817 C818 1.312 . S
C818 H789 0.930 . S
C818 C813 1.261 . S
C818 C817 1.312 . S
C819 O791 1.214 . S
C819 O799 1.234 . S
C820 H792 0.929 . S
C820 C823 1.391 . S
C820 C825 1.391 . S
C821 H793 0.929 . S
C821 C822 1.390 . S
C821 N824 1.391 . S
C822 H794 0.930 . S
C822 C821 1.390 . S
C822 C823 1.392 . S
C823 H795 0.929 . S
C823 C820 1.391 . S
C823 C822 1.392 . S
N824 Co768 2.257 . S
N824 C821 1.391 . S
N824 C825 1.388 . S
C825 H796 0.930 . S
C825 C820 1.391 . S
C825 N824 1.388 . S
Co826 O828 2.143 . S
Co826 O834 2.074 . S
Co826 O837 2.093 . S
Co826 O850 2.097 . S
Co826 N867 2.151 . S
Co826 N875 2.214 . S
Co827 O828 2.160 . S
Co827 O833 2.058 . S
Co827 O843 2.057 . S
Co827 O858 2.037 . S
Co827 N862 2.145 . S
Co827 N883 2.257 . S
O828 Co826 2.143 . S
O828 Co827 2.160 . S
C829 O830 1.278 . S
C829 O837 1.224 . S
O830 C829 1.278 . S
C831 O832 1.245 . S
C831 O843 1.232 . S
O832 C831 1.245 . S
O833 Co827 2.058 . S
O833 C859 1.269 . S
O834 Co826 2.074 . S
O834 C859 1.257 . S
H835 C860 0.930 . S
H836 C866 0.930 . S
O837 Co826 2.093 . S
O837 C829 1.224 . S
H838 C870 0.929 . S
H839 C872 0.930 . S
H840 C873 0.930 . S
H841 C871 0.929 . S
H842 C874 0.928 . S
O843 Co827 2.057 . S
O843 C831 1.232 . S
H844 C863 0.929 . S
H845 C864 0.929 . S
H846 C876 0.931 . S
H847 C868 0.929 . S
H848 C877 0.930 . S
H849 C869 0.931 . S
O850 Co826 2.097 . S
O850 C878 1.214 . S
H851 C879 0.929 . S
H852 C880 0.929 . S
H853 C881 0.930 . S
H854 C882 0.929 . S
H855 C884 0.930 . S
H856 C861 0.930 . S
H857 C865 0.930 . S
O858 Co827 2.037 . S
O858 C878 1.234 . S
C859 O833 1.269 . S
C859 O834 1.257 . S
C860 H835 0.930 . S
C860 C863 1.388 . S
C860 C865 1.418 . S
C861 H856 0.930 . S
C861 C864 1.404 . S
C861 C865 1.353 . S
N862 Co827 2.145 . S
N862 C863 1.397 . S
N862 C864 1.334 . S
C863 H844 0.929 . S
C863 C860 1.388 . S
C863 N862 1.397 . S
C864 H845 0.929 . S
C864 C861 1.404 . S
C864 N862 1.334 . S
C865 H857 0.930 . S
C865 C860 1.418 . S
C865 C861 1.353 . S
C866 H836 0.930 . S
C866 N867 1.330 . S
C866 C868 1.446 . S
N867 Co826 2.151 . S
N867 C866 1.330 . S
N867 C871 1.418 . S
C868 H847 0.929 . S
C868 C866 1.446 . S
C868 C869 1.332 . S
C869 H849 0.931 . S
C869 C868 1.332 . S
C869 C870 1.267 . S
C870 H838 0.929 . S
C870 C869 1.267 . S
C870 C871 1.251 . S
C871 H841 0.929 . S
C871 N867 1.418 . S
C871 C870 1.251 . S
C872 H839 0.930 . S
C872 C874 1.406 . S
C872 C877 1.261 . S
C873 H840 0.930 . S
C873 N875 1.325 . S
C873 C876 1.357 . S
C874 H842 0.928 . S
C874 C872 1.406 . S
C874 N875 1.261 . S
N875 Co826 2.214 . S
N875 C873 1.325 . S
N875 C874 1.261 . S
C876 H846 0.931 . S
C876 C873 1.357 . S
C876 C877 1.312 . S
C877 H848 0.930 . S
C877 C872 1.261 . S
C877 C876 1.312 . S
C878 O850 1.214 . S
C878 O858 1.234 . S
C879 H851 0.929 . S
C879 C882 1.391 . S
C879 C884 1.391 . S
C880 H852 0.929 . S
C880 C881 1.390 . S
C880 N883 1.391 . S
C881 H853 0.930 . S
C881 C880 1.390 . S
C881 C882 1.392 . S
C882 H854 0.929 . S
C882 C879 1.391 . S
C882 C881 1.392 . S
N883 Co827 2.257 . S
N883 C880 1.391 . S
N883 C884 1.388 . S
C884 H855 0.930 . S
C884 C879 1.391 . S
C884 N883 1.388 . S
Co885 O887 2.143 . S
Co885 O893 2.074 . S
Co885 O896 2.093 . S
Co885 O909 2.097 . S
Co885 N926 2.151 . S
Co885 N934 2.214 . S
Co886 O887 2.160 . S
Co886 O892 2.058 . S
Co886 O902 2.057 . S
Co886 O917 2.037 . S
Co886 N921 2.145 . S
Co886 N942 2.257 . S
O887 Co885 2.143 . S
O887 Co886 2.160 . S
C888 O889 1.278 . S
C888 O896 1.224 . S
O889 C888 1.278 . S
C890 O891 1.245 . S
C890 O902 1.232 . S
O891 C890 1.245 . S
O892 Co886 2.058 . S
O892 C918 1.269 . S
O893 Co885 2.074 . S
O893 C918 1.257 . S
H894 C919 0.930 . S
H895 C925 0.930 . S
O896 Co885 2.093 . S
O896 C888 1.224 . S
H897 C929 0.929 . S
H898 C931 0.930 . S
H899 C932 0.930 . S
H900 C930 0.929 . S
H901 C933 0.928 . S
O902 Co886 2.057 . S
O902 C890 1.232 . S
H903 C922 0.929 . S
H904 C923 0.929 . S
H905 C935 0.931 . S
H906 C927 0.929 . S
H907 C936 0.930 . S
H908 C928 0.931 . S
O909 Co885 2.097 . S
O909 C937 1.214 . S
H910 C938 0.929 . S
H911 C939 0.929 . S
H912 C940 0.930 . S
H913 C941 0.929 . S
H914 C943 0.930 . S
H915 C920 0.930 . S
H916 C924 0.930 . S
O917 Co886 2.037 . S
O917 C937 1.234 . S
C918 O892 1.269 . S
C918 O893 1.257 . S
C919 H894 0.930 . S
C919 C922 1.388 . S
C919 C924 1.418 . S
C920 H915 0.930 . S
C920 C923 1.404 . S
C920 C924 1.353 . S
N921 Co886 2.145 . S
N921 C922 1.397 . S
N921 C923 1.334 . S
C922 H903 0.929 . S
C922 C919 1.388 . S
C922 N921 1.397 . S
C923 H904 0.929 . S
C923 C920 1.404 . S
C923 N921 1.334 . S
C924 H916 0.930 . S
C924 C919 1.418 . S
C924 C920 1.353 . S
C925 H895 0.930 . S
C925 N926 1.330 . S
C925 C927 1.446 . S
N926 Co885 2.151 . S
N926 C925 1.330 . S
N926 C930 1.418 . S
C927 H906 0.929 . S
C927 C925 1.446 . S
C927 C928 1.332 . S
C928 H908 0.931 . S
C928 C927 1.332 . S
C928 C929 1.267 . S
C929 H897 0.929 . S
C929 C928 1.267 . S
C929 C930 1.251 . S
C930 H900 0.929 . S
C930 N926 1.418 . S
C930 C929 1.251 . S
C931 H898 0.930 . S
C931 C933 1.406 . S
C931 C936 1.261 . S
C932 H899 0.930 . S
C932 N934 1.325 . S
C932 C935 1.357 . S
C933 H901 0.928 . S
C933 C931 1.406 . S
C933 N934 1.261 . S
N934 Co885 2.214 . S
N934 C932 1.325 . S
N934 C933 1.261 . S
C935 H905 0.931 . S
C935 C932 1.357 . S
C935 C936 1.312 . S
C936 H907 0.930 . S
C936 C931 1.261 . S
C936 C935 1.312 . S
C937 O909 1.214 . S
C937 O917 1.234 . S
C938 H910 0.929 . S
C938 C941 1.391 . S
C938 C943 1.391 . S
C939 H911 0.929 . S
C939 C940 1.390 . S
C939 N942 1.391 . S
C940 H912 0.930 . S
C940 C939 1.390 . S
C940 C941 1.392 . S
C941 H913 0.929 . S
C941 C938 1.391 . S
C941 C940 1.392 . S
N942 Co886 2.257 . S
N942 C939 1.391 . S
N942 C943 1.388 . S
C943 H914 0.930 . S
C943 C938 1.391 . S
C943 N942 1.388 . S
C944 C945 1.385 1_565 S
C944 C946 1.394 . S
C944 H960 0.937 . S
C945 C944 1.385 1_545 S
C945 C949 1.376 . S
C946 C944 1.394 . S
C946 C947 1.369 1_565 S
C946 C950 1.531 . S
C947 C946 1.369 1_545 S
C947 C948 1.410 . S
C947 C955 1.503 . S
C948 C947 1.410 . S
C948 C949 1.392 . S
C948 C951 1.511 . S
C949 C945 1.376 . S
C949 C948 1.392 . S
C949 H961 0.929 . S
C950 C946 1.531 . S
C950 H962 0.960 . S
C950 H963 0.962 . S
C950 H964 0.960 . S
C951 C948 1.511 . S
C951 H965 0.961 . S
C951 H966 0.961 . S
C951 H967 0.961 . S
C952 C953 1.370 . S
C952 C954 1.363 . S
C952 H968 0.931 . S
C953 C952 1.370 . S
C953 C957 1.413 . S
C954 C952 1.363 . S
C954 C955 1.370 . S
C954 C958 1.524 . S
C955 C947 1.503 . S
C955 C954 1.370 . S
C955 C956 1.403 1_545 S
C956 C955 1.403 1_565 S
C956 C957 1.403 1_565 S
C956 C959 1.539 . S
C957 C953 1.413 . S
C957 C956 1.403 1_545 S
C957 H969 0.926 1_545 S
C958 C954 1.524 . S
C958 H970 0.956 . S
C958 H971 0.961 . S
C958 H972 0.961 . S
C959 C956 1.539 . S
C959 H973 0.958 . S
C959 H974 0.961 . S
C959 H975 0.960 . S
H960 C944 0.937 . S
H961 C949 0.929 . S
H962 C950 0.960 . S
H963 C950 0.962 . S
H964 C950 0.960 . S
H965 C951 0.961 . S
H966 C951 0.961 . S
H967 C951 0.961 . S
H968 C952 0.931 . S
H969 C957 0.926 1_565 S
H970 C958 0.956 . S
H971 C958 0.961 . S
H972 C958 0.961 . S
H973 C959 0.958 . S
H974 C959 0.961 . S
H975 C959 0.960 . S
C976 C977 1.391 . S
C976 C978 1.394 . S
C976 H992 0.931 . S
C977 C976 1.391 . S
C977 C981 1.376 . S
C978 C976 1.394 . S
C978 C979 1.369 . S
C978 C982 1.531 . S
C979 C978 1.369 . S
C979 C980 1.410 . S
C979 C987 1.503 . S
C980 C979 1.410 . S
C980 C981 1.392 . S
C980 C983 1.511 . S
C981 C977 1.376 . S
C981 C980 1.392 . S
C981 H993 0.929 . S
C982 C978 1.531 . S
C982 H994 0.960 . S
C982 H995 0.962 . S
C982 H996 0.960 . S
C983 C980 1.511 . S
C983 H997 0.961 . S
C983 H998 0.961 . S
C983 H999 0.961 . S
C984 C985 1.370 1_545 S
C984 C986 1.363 1_545 S
C984 H1000 0.931 . S
C985 C984 1.370 1_565 S
C985 C989 1.408 . S
C986 C984 1.363 1_565 S
C986 C987 1.372 . S
C986 C990 1.523 1_565 S
C987 C979 1.503 . S
C987 C986 1.372 . S
C987 C988 1.403 . S
C988 C987 1.403 . S
C988 C989 1.404 . S
C988 C991 1.539 . S
C989 C985 1.408 . S
C989 C988 1.404 . S
C989 H1001 0.930 . S
C990 C986 1.523 1_545 S
C990 H1002 0.956 . S
C990 H1003 0.961 . S
C990 H1004 0.961 . S
C991 C988 1.539 . S
C991 H1005 0.958 . S
C991 H1006 0.961 . S
C991 H1007 0.960 . S
H992 C976 0.931 . S
H993 C981 0.929 . S
H994 C982 0.960 . S
H995 C982 0.962 . S
H996 C982 0.960 . S
H997 C983 0.961 . S
H998 C983 0.961 . S
H999 C983 0.961 . S
H1000 C984 0.931 . S
H1001 C989 0.930 . S
H1002 C990 0.956 . S
H1003 C990 0.961 . S
H1004 C990 0.961 . S
H1005 C991 0.958 . S
H1006 C991 0.961 . S
H1007 C991 0.960 . S
C1008 C1009 1.391 1_545 S
C1008 C1010 1.394 . S
C1008 H1024 0.931 . S
C1009 C1008 1.391 1_565 S
C1009 C1013 1.376 . S
C1010 C1008 1.394 . S
C1010 C1011 1.369 1_545 S
C1010 C1014 1.531 . S
C1011 C1010 1.369 1_565 S
C1011 C1012 1.410 . S
C1011 C1019 1.503 1_554 S
C1012 C1011 1.410 . S
C1012 C1013 1.392 . S
C1012 C1015 1.511 . S
C1013 C1009 1.376 . S
C1013 C1012 1.392 . S
C1013 H1025 0.929 . S
C1014 C1010 1.531 . S
C1014 H1026 0.960 1_554 S
C1014 H1027 0.962 . S
C1014 H1028 0.960 . S
C1015 C1012 1.511 . S
C1015 H1029 0.961 . S
C1015 H1030 0.961 1_554 S
C1015 H1031 0.961 . S
C1016 C1017 1.370 . S
C1016 C1018 1.363 . S
C1016 H1032 0.931 . S
C1017 C1016 1.370 . S
C1017 C1021 1.408 . S
C1018 C1016 1.363 . S
C1018 C1019 1.370 . S
C1018 C1022 1.524 . S
C1019 C1011 1.503 1_556 S
C1019 C1018 1.370 . S
C1019 C1020 1.402 . S
C1020 C1019 1.402 . S
C1020 C1021 1.404 . S
C1020 C1023 1.540 1_565 S
C1021 C1017 1.408 . S
C1021 C1020 1.404 . S
C1021 H1033 0.930 1_565 S
C1022 C1018 1.524 . S
C1022 H1034 0.984 . S
C1022 H1035 0.961 1_556 S
C1022 H1036 0.961 . S
C1023 C1020 1.540 1_545 S
C1023 H1037 0.958 . S
C1023 H1038 0.961 . S
C1023 H1039 0.970 . S
H1024 C1008 0.931 . S
H1025 C1013 0.929 . S
H1026 C1014 0.960 1_556 S
H1027 C1014 0.962 . S
H1028 C1014 0.960 . S
H1029 C1015 0.961 . S
H1030 C1015 0.961 1_556 S
H1031 C1015 0.961 . S
H1032 C1016 0.931 . S
H1033 C1021 0.930 1_545 S
H1034 C1022 0.984 . S
H1035 C1022 0.961 1_554 S
H1036 C1022 0.961 . S
H1037 C1023 0.958 . S
H1038 C1023 0.961 . S
H1039 C1023 0.970 . S
C1040 C1041 1.391 . S
C1040 C1042 1.394 . S
C1040 H1056 0.931 . S
C1041 C1040 1.391 . S
C1041 C1045 1.376 . S
C1042 C1040 1.394 . S
C1042 C1043 1.369 . S
C1042 C1046 1.531 . S
C1043 C1042 1.369 . S
C1043 C1044 1.410 . S
C1043 C1051 1.503 1_556 S
C1044 C1043 1.410 . S
C1044 C1045 1.392 . S
C1044 C1047 1.511 1_545 S
C1045 C1041 1.376 . S
C1045 C1044 1.392 . S
C1045 H1057 0.929 . S
C1046 C1042 1.531 . S
C1046 H1058 0.960 1_556 S
C1046 H1059 0.962 . S
C1046 H1060 0.960 . S
C1047 C1044 1.511 1_565 S
C1047 H1061 0.961 . S
C1047 H1062 0.961 1_566 S
C1047 H1063 0.961 . S
C1048 C1049 1.370 . S
C1048 C1050 1.363 . S
C1048 H1064 0.931 . S
C1049 C1048 1.370 . S
C1049 C1053 1.408 1_545 S
C1050 C1048 1.363 . S
C1050 C1051 1.370 . S
C1050 C1054 1.524 . S
C1051 C1043 1.503 1_554 S
C1051 C1050 1.370 . S
C1051 C1052 1.403 1_545 S
C1052 C1051 1.403 1_565 S
C1052 C1053 1.404 . S
C1052 C1055 1.539 . S
C1053 C1049 1.408 1_565 S
C1053 C1052 1.404 . S
C1053 H1065 0.930 . S
C1054 C1050 1.524 . S
C1054 H1066 0.984 . S
C1054 H1067 0.961 1_554 S
C1054 H1068 0.961 . S
C1055 C1052 1.539 . S
C1055 H1069 0.958 . S
C1055 H1070 0.961 . S
C1055 H1071 0.970 . S
H1056 C1040 0.931 . S
H1057 C1045 0.929 . S
H1058 C1046 0.960 1_554 S
H1059 C1046 0.962 . S
H1060 C1046 0.960 . S
H1061 C1047 0.961 . S
H1062 C1047 0.961 1_544 S
H1063 C1047 0.961 . S
H1064 C1048 0.931 . S
H1065 C1053 0.930 . S
H1066 C1054 0.984 . S
H1067 C1054 0.961 1_556 S
H1068 C1054 0.961 . S
H1069 C1055 0.958 . S
H1070 C1055 0.961 . S
H1071 C1055 0.970 . S
C1072 C1073 1.391 . S
C1072 C1074 1.394 . S
C1072 H1088 0.931 . S
C1073 C1072 1.391 . S
C1073 C1077 1.376 . S
C1074 C1072 1.394 . S
C1074 C1075 1.369 . S
C1074 C1078 1.531 . S
C1075 C1074 1.369 . S
C1075 C1076 1.410 . S
C1075 C1083 1.503 . S
C1076 C1075 1.410 . S
C1076 C1077 1.392 . S
C1076 C1079 1.511 . S
C1077 C1073 1.376 . S
C1077 C1076 1.392 . S
C1077 H1089 0.929 . S
C1078 C1074 1.531 . S
C1078 H1090 0.960 . S
C1078 H1091 0.962 . S
C1078 H1092 0.960 . S
C1079 C1076 1.511 . S
C1079 H1093 0.961 . S
C1079 H1094 0.961 . S
C1079 H1095 0.961 . S
C1080 C1081 1.370 . S
C1080 C1082 1.363 . S
C1080 H1096 0.931 . S
C1081 C1080 1.370 . S
C1081 C1085 1.408 . S
C1082 C1080 1.363 . S
C1082 C1083 1.370 . S
C1082 C1086 1.524 . S
C1083 C1075 1.503 . S
C1083 C1082 1.370 . S
C1083 C1084 1.403 . S
C1084 C1083 1.403 . S
C1084 C1085 1.404 . S
C1084 C1087 1.539 . S
C1085 C1081 1.408 . S
C1085 C1084 1.404 . S
C1085 H1097 0.930 . S
C1086 C1082 1.524 . S
C1086 H1098 0.956 . S
C1086 H1099 0.961 . S
C1086 H1100 0.961 . S
C1087 C1084 1.539 . S
C1087 H1101 0.958 . S
C1087 H1102 0.961 . S
C1087 H1103 0.960 . S
H1088 C1072 0.931 . S
H1089 C1077 0.929 . S
H1090 C1078 0.960 . S
H1091 C1078 0.962 . S
H1092 C1078 0.960 . S
H1093 C1079 0.961 . S
H1094 C1079 0.961 . S
H1095 C1079 0.961 . S
H1096 C1080 0.931 . S
H1097 C1085 0.930 . S
H1098 C1086 0.956 . S
H1099 C1086 0.961 . S
H1100 C1086 0.961 . S
H1101 C1087 0.958 . S
H1102 C1087 0.961 . S
H1103 C1087 0.960 . S
C1104 C1105 1.391 . S
C1104 C1106 1.394 . S
C1104 H1120 0.931 . S
C1105 C1104 1.391 . S
C1105 C1109 1.376 . S
C1106 C1104 1.394 . S
C1106 C1107 1.369 . S
C1106 C1110 1.531 . S
C1107 C1106 1.369 . S
C1107 C1108 1.410 . S
C1107 C1115 1.503 . S
C1108 C1107 1.410 . S
C1108 C1109 1.392 . S
C1108 C1111 1.511 . S
C1109 C1105 1.376 . S
C1109 C1108 1.392 . S
C1109 H1121 0.929 . S
C1110 C1106 1.531 . S
C1110 H1122 0.960 . S
C1110 H1123 0.962 . S
C1110 H1124 0.960 . S
C1111 C1108 1.511 . S
C1111 H1125 0.961 . S
C1111 H1126 0.961 . S
C1111 H1127 0.961 . S
C1112 C1113 1.370 . S
C1112 C1114 1.363 . S
C1112 H1128 0.931 . S
C1113 C1112 1.370 . S
C1113 C1117 1.408 . S
C1114 C1112 1.363 . S
C1114 C1115 1.370 . S
C1114 C1118 1.524 . S
C1115 C1107 1.503 . S
C1115 C1114 1.370 . S
C1115 C1116 1.403 . S
C1116 C1115 1.403 . S
C1116 C1117 1.404 . S
C1116 C1119 1.539 . S
C1117 C1113 1.408 . S
C1117 C1116 1.404 . S
C1117 H1129 0.930 . S
C1118 C1114 1.524 . S
C1118 H1130 0.956 . S
C1118 H1131 0.961 . S
C1118 H1132 0.961 . S
C1119 C1116 1.539 . S
C1119 H1133 0.958 . S
C1119 H1134 0.961 . S
C1119 H1135 0.960 . S
H1120 C1104 0.931 . S
H1121 C1109 0.929 . S
H1122 C1110 0.960 . S
H1123 C1110 0.962 . S
H1124 C1110 0.960 . S
H1125 C1111 0.961 . S
H1126 C1111 0.961 . S
H1127 C1111 0.961 . S
H1128 C1112 0.931 . S
H1129 C1117 0.930 . S
H1130 C1118 0.956 . S
H1131 C1118 0.961 . S
H1132 C1118 0.961 . S
H1133 C1119 0.958 . S
H1134 C1119 0.961 . S
H1135 C1119 0.960 . S
C1136 C1137 1.391 . S
C1136 C1138 1.394 . S
C1136 H1152 0.931 . S
C1137 C1136 1.391 . S
C1137 C1141 1.376 . S
C1138 C1136 1.394 . S
C1138 C1139 1.369 . S
C1138 C1142 1.531 . S
C1139 C1138 1.369 . S
C1139 C1140 1.410 . S
C1139 C1147 1.503 1_556 S
C1140 C1139 1.410 . S
C1140 C1141 1.392 . S
C1140 C1143 1.511 . S
C1141 C1137 1.376 . S
C1141 C1140 1.392 . S
C1141 H1153 0.929 . S
C1142 C1138 1.531 . S
C1142 H1154 0.960 1_556 S
C1142 H1155 0.962 . S
C1142 H1156 0.960 . S
C1143 C1140 1.511 . S
C1143 H1157 0.961 . S
C1143 H1158 0.961 1_556 S
C1143 H1159 0.961 . S
C1144 C1145 1.370 . S
C1144 C1146 1.363 . S
C1144 H1160 0.931 . S
C1145 C1144 1.370 . S
C1145 C1149 1.408 . S
C1146 C1144 1.363 . S
C1146 C1147 1.370 . S
C1146 C1150 1.524 . S
C1147 C1139 1.503 1_554 S
C1147 C1146 1.370 . S
C1147 C1148 1.403 . S
C1148 C1147 1.403 . S
C1148 C1149 1.404 . S
C1148 C1151 1.539 . S
C1149 C1145 1.408 . S
C1149 C1148 1.404 . S
C1149 H1161 0.930 . S
C1150 C1146 1.524 . S
C1150 H1162 0.984 . S
C1150 H1163 0.961 1_554 S
C1150 H1164 0.961 . S
C1151 C1148 1.539 . S
C1151 H1165 0.958 . S
C1151 H1166 0.961 . S
C1151 H1167 0.970 . S
H1152 C1136 0.931 . S
H1153 C1141 0.929 . S
H1154 C1142 0.960 1_554 S
H1155 C1142 0.962 . S
H1156 C1142 0.960 . S
H1157 C1143 0.961 . S
H1158 C1143 0.961 1_554 S
H1159 C1143 0.961 . S
H1160 C1144 0.931 . S
H1161 C1149 0.930 . S
H1162 C1150 0.984 . S
H1163 C1150 0.961 1_556 S
H1164 C1150 0.961 . S
H1165 C1151 0.958 . S
H1166 C1151 0.961 . S
H1167 C1151 0.970 . S
C1168 C1169 1.391 . S
C1168 C1170 1.394 . S
C1168 H1184 0.931 . S
C1169 C1168 1.391 . S
C1169 C1173 1.376 . S
C1170 C1168 1.394 . S
C1170 C1171 1.369 . S
C1170 C1174 1.531 . S
C1171 C1170 1.369 . S
C1171 C1172 1.410 . S
C1171 C1179 1.503 1_554 S
C1172 C1171 1.410 . S
C1172 C1173 1.392 . S
C1172 C1175 1.511 . S
C1173 C1169 1.376 . S
C1173 C1172 1.392 . S
C1173 H1185 0.929 . S
C1174 C1170 1.531 . S
C1174 H1186 0.960 1_554 S
C1174 H1187 0.962 . S
C1174 H1188 0.960 . S
C1175 C1172 1.511 . S
C1175 H1189 0.961 . S
C1175 H1190 0.961 1_554 S
C1175 H1191 0.961 . S
C1176 C1177 1.370 . S
C1176 C1178 1.363 . S
C1176 H1192 0.931 . S
C1177 C1176 1.370 . S
C1177 C1181 1.408 . S
C1178 C1176 1.363 . S
C1178 C1179 1.370 . S
C1178 C1182 1.524 . S
C1179 C1171 1.503 1_556 S
C1179 C1178 1.370 . S
C1179 C1180 1.403 . S
C1180 C1179 1.403 . S
C1180 C1181 1.404 . S
C1180 C1183 1.539 . S
C1181 C1177 1.408 . S
C1181 C1180 1.404 . S
C1181 H1193 0.930 . S
C1182 C1178 1.524 . S
C1182 H1194 0.984 . S
C1182 H1195 0.961 1_556 S
C1182 H1196 0.961 . S
C1183 C1180 1.539 . S
C1183 H1197 0.958 . S
C1183 H1198 0.961 . S
C1183 H1199 0.970 . S
H1184 C1168 0.931 . S
H1185 C1173 0.929 . S
H1186 C1174 0.960 1_556 S
H1187 C1174 0.962 . S
H1188 C1174 0.960 . S
H1189 C1175 0.961 . S
H1190 C1175 0.961 1_556 S
H1191 C1175 0.961 . S
H1192 C1176 0.931 . S
H1193 C1181 0.930 . S
H1194 C1182 0.984 . S
H1195 C1182 0.961 1_554 S
H1196 C1182 0.961 . S
H1197 C1183 0.958 . S
H1198 C1183 0.961 . S
H1199 C1183 0.970 . S
C1200 C1201 1.391 . S
C1200 C1202 1.394 . S
C1200 H1216 0.931 . S
C1201 C1200 1.391 . S
C1201 C1205 1.376 1_565 S
C1202 C1200 1.394 . S
C1202 C1203 1.369 . S
C1202 C1206 1.531 . S
C1203 C1202 1.369 . S
C1203 C1204 1.410 1_565 S
C1203 C1211 1.503 1_565 S
C1204 C1203 1.410 1_545 S
C1204 C1205 1.392 . S
C1204 C1207 1.511 . S
C1205 C1201 1.376 1_545 S
C1205 C1204 1.392 . S
C1205 H1217 0.929 . S
C1206 C1202 1.531 . S
C1206 H1218 0.960 . S
C1206 H1219 0.962 . S
C1206 H1220 0.960 . S
C1207 C1204 1.511 . S
C1207 H1221 0.961 . S
C1207 H1222 0.961 . S
C1207 H1223 0.961 . S
C1208 C1209 1.370 . S
C1208 C1210 1.363 . S
C1208 H1224 0.931 . S
C1209 C1208 1.370 . S
C1209 C1213 1.408 1_545 S
C1210 C1208 1.363 . S
C1210 C1211 1.370 . S
C1210 C1214 1.524 . S
C1211 C1203 1.503 1_545 S
C1211 C1210 1.370 . S
C1211 C1212 1.403 1_545 S
C1212 C1211 1.403 1_565 S
C1212 C1213 1.404 . S
C1212 C1215 1.539 . S
C1213 C1209 1.408 1_565 S
C1213 C1212 1.404 . S
C1213 H1225 0.930 . S
C1214 C1210 1.524 . S
C1214 H1226 0.956 . S
C1214 H1227 0.961 . S
C1214 H1228 0.961 . S
C1215 C1212 1.539 . S
C1215 H1229 0.958 . S
C1215 H1230 0.961 . S
C1215 H1231 0.960 . S
H1216 C1200 0.931 . S
H1217 C1205 0.929 . S
H1218 C1206 0.960 . S
H1219 C1206 0.962 . S
H1220 C1206 0.960 . S
H1221 C1207 0.961 . S
H1222 C1207 0.961 . S
H1223 C1207 0.961 . S
H1224 C1208 0.931 . S
H1225 C1213 0.930 . S
H1226 C1214 0.956 . S
H1227 C1214 0.961 . S
H1228 C1214 0.961 . S
H1229 C1215 0.958 . S
H1230 C1215 0.961 . S
H1231 C1215 0.960 . S
C1232 C1233 1.391 . S
C1232 C1234 1.394 . S
C1232 H1248 0.931 . S
C1233 C1232 1.391 . S
C1233 C1237 1.376 1_565 S
C1234 C1232 1.394 . S
C1234 C1235 1.369 . S
C1234 C1238 1.531 . S
C1235 C1234 1.369 . S
C1235 C1236 1.410 1_565 S
C1235 C1243 1.503 1_565 S
C1236 C1235 1.410 1_545 S
C1236 C1237 1.392 . S
C1236 C1239 1.511 . S
C1237 C1233 1.376 1_545 S
C1237 C1236 1.392 . S
C1237 H1249 0.929 . S
C1238 C1234 1.531 . S
C1238 H1250 0.960 . S
C1238 H1251 0.962 . S
C1238 H1252 0.960 . S
C1239 C1236 1.511 . S
C1239 H1253 0.961 . S
C1239 H1254 0.961 . S
C1239 H1255 0.961 . S
C1240 C1241 1.370 . S
C1240 C1242 1.363 . S
C1240 H1256 0.931 . S
C1241 C1240 1.370 . S
C1241 C1245 1.408 . S
C1242 C1240 1.363 . S
C1242 C1243 1.370 . S
C1242 C1246 1.524 1_545 S
C1243 C1235 1.503 1_545 S
C1243 C1242 1.370 . S
C1243 C1244 1.403 . S
C1244 C1243 1.403 . S
C1244 C1245 1.404 . S
C1244 C1247 1.539 . S
C1245 C1241 1.408 . S
C1245 C1244 1.404 . S
C1245 H1257 0.930 . S
C1246 C1242 1.524 1_565 S
C1246 H1258 0.956 . S
C1246 H1259 0.961 1_565 S
C1246 H1260 0.960 1_565 S
C1247 C1244 1.539 . S
C1247 H1261 0.958 1_545 S
C1247 H1262 0.961 . S
C1247 H1263 0.960 . S
H1248 C1232 0.931 . S
H1249 C1237 0.929 . S
H1250 C1238 0.960 . S
H1251 C1238 0.962 . S
H1252 C1238 0.960 . S
H1253 C1239 0.961 . S
H1254 C1239 0.961 . S
H1255 C1239 0.961 . S
H1256 C1240 0.931 . S
H1257 C1245 0.930 . S
H1258 C1246 0.956 . S
H1259 C1246 0.961 1_545 S
H1260 C1246 0.960 1_545 S
H1261 C1247 0.958 1_565 S
H1262 C1247 0.961 . S
H1263 C1247 0.960 . S
C1264 C1265 1.391 1_545 S
C1264 C1266 1.394 . S
C1264 H1280 0.931 . S
C1265 C1264 1.391 1_565 S
C1265 C1269 1.376 . S
C1266 C1264 1.394 . S
C1266 C1267 1.369 1_545 S
C1266 C1270 1.531 . S
C1267 C1266 1.369 1_565 S
C1267 C1268 1.410 . S
C1267 C1275 1.503 1_565 S
C1268 C1267 1.410 . S
C1268 C1269 1.392 . S
C1268 C1271 1.511 . S
C1269 C1265 1.376 . S
C1269 C1268 1.392 . S
C1269 H1281 0.929 . S
C1270 C1266 1.531 . S
C1270 H1282 0.960 . S
C1270 H1283 0.962 . S
C1270 H1284 0.960 . S
C1271 C1268 1.511 . S
C1271 H1285 0.961 . S
C1271 H1286 0.961 . S
C1271 H1287 0.961 . S
C1272 C1273 1.370 . S
C1272 C1274 1.363 . S
C1272 H1288 0.931 . S
C1273 C1272 1.370 . S
C1273 C1277 1.408 . S
C1274 C1272 1.363 . S
C1274 C1275 1.370 . S
C1274 C1278 1.524 . S
C1275 C1267 1.503 1_545 S
C1275 C1274 1.370 . S
C1275 C1276 1.403 . S
C1276 C1275 1.403 . S
C1276 C1277 1.404 . S
C1276 C1279 1.539 1_545 S
C1277 C1273 1.408 . S
C1277 C1276 1.404 . S
C1277 H1289 0.930 . S
C1278 C1274 1.524 . S
C1278 H1290 0.956 . S
C1278 H1291 0.961 1_545 S
C1278 H1292 0.961 . S
C1279 C1276 1.539 1_565 S
C1279 H1293 0.958 1_565 S
C1279 H1294 0.961 . S
C1279 H1295 0.960 . S
H1280 C1264 0.931 . S
H1281 C1269 0.929 . S
H1282 C1270 0.960 . S
H1283 C1270 0.962 . S
H1284 C1270 0.960 . S
H1285 C1271 0.961 . S
H1286 C1271 0.961 . S
H1287 C1271 0.961 . S
H1288 C1272 0.931 . S
H1289 C1277 0.930 . S
H1290 C1278 0.956 . S
H1291 C1278 0.961 1_565 S
H1292 C1278 0.961 . S
H1293 C1279 0.958 1_545 S
H1294 C1279 0.961 . S
H1295 C1279 0.960 . S
C1296 C1297 1.391 . S
C1296 C1298 1.394 . S
C1296 H1312 0.931 . S
C1297 C1296 1.391 . S
C1297 C1301 1.376 1_545 S
C1298 C1296 1.394 . S
C1298 C1299 1.369 . S
C1298 C1302 1.531 . S
C1299 C1298 1.369 . S
C1299 C1300 1.410 1_545 S
C1299 C1307 1.496 1_545 S
C1300 C1299 1.410 1_565 S
C1300 C1301 1.392 . S
C1300 C1303 1.511 . S
C1301 C1297 1.376 1_565 S
C1301 C1300 1.392 . S
C1301 H1313 0.929 . S
C1302 C1298 1.531 . S
C1302 H1314 0.960 . S
C1302 H1315 0.962 . S
C1302 H1316 0.960 . S
C1303 C1300 1.511 . S
C1303 H1317 0.961 . S
C1303 H1318 0.961 . S
C1303 H1319 0.961 . S
C1304 C1305 1.370 . S
C1304 C1306 1.363 . S
C1304 H1320 0.931 . S
C1305 C1304 1.370 . S
C1305 C1309 1.408 1_565 S
C1306 C1304 1.363 . S
C1306 C1307 1.389 . S
C1306 C1310 1.524 . S
C1307 C1299 1.496 1_565 S
C1307 C1306 1.389 . S
C1307 C1308 1.392 1_565 S
C1308 C1307 1.392 1_545 S
C1308 C1309 1.404 . S
C1308 C1311 1.539 . S
C1309 C1305 1.408 1_545 S
C1309 C1308 1.404 . S
C1309 H1321 0.930 . S
C1310 C1306 1.524 . S
C1310 H1322 0.956 . S
C1310 H1323 0.961 . S
C1310 H1324 0.961 . S
C1311 C1308 1.539 . S
C1311 H1325 0.958 . S
C1311 H1326 0.961 . S
C1311 H1327 0.960 . S
H1312 C1296 0.931 . S
H1313 C1301 0.929 . S
H1314 C1302 0.960 . S
H1315 C1302 0.962 . S
H1316 C1302 0.960 . S
H1317 C1303 0.961 . S
H1318 C1303 0.961 . S
H1319 C1303 0.961 . S
H1320 C1304 0.931 . S
H1321 C1309 0.930 . S
H1322 C1310 0.956 . S
H1323 C1310 0.961 . S
H1324 C1310 0.961 . S
H1325 C1311 0.958 . S
H1326 C1311 0.961 . S
H1327 C1311 0.960 . S
C1328 C1329 1.391 . S
C1328 C1330 1.394 . S
C1328 H1344 0.931 . S
C1329 C1328 1.391 . S
C1329 C1333 1.376 . S
C1330 C1328 1.394 . S
C1330 C1331 1.369 . S
C1330 C1334 1.531 . S
C1331 C1330 1.369 . S
C1331 C1332 1.410 . S
C1331 C1339 1.503 1_655 S
C1332 C1331 1.410 . S
C1332 C1333 1.392 . S
C1332 C1335 1.511 . S
C1333 C1329 1.376 . S
C1333 C1332 1.392 . S
C1333 H1345 0.929 . S
C1334 C1330 1.531 . S
C1334 H1346 0.960 1_655 S
C1334 H1347 0.962 . S
C1334 H1348 0.960 . S
C1335 C1332 1.511 . S
C1335 H1349 0.961 . S
C1335 H1350 0.961 . S
C1335 H1351 0.961 . S
C1336 C1337 1.370 . S
C1336 C1338 1.363 . S
C1336 H1352 0.931 . S
C1337 C1336 1.370 . S
C1337 C1341 1.408 . S
C1338 C1336 1.363 . S
C1338 C1339 1.370 . S
C1338 C1342 1.539 . S
C1339 C1331 1.503 1_455 S
C1339 C1338 1.370 . S
C1339 C1340 1.403 . S
C1340 C1339 1.403 . S
C1340 C1341 1.404 . S
C1340 C1343 1.539 . S
C1341 C1337 1.408 . S
C1341 C1340 1.404 . S
C1341 H1353 0.930 . S
C1342 C1338 1.539 . S
C1342 H1354 0.947 1_455 S
C1342 H1355 0.946 1_455 S
C1342 H1356 0.970 . S
C1343 C1340 1.539 . S
C1343 H1357 0.958 . S
C1343 H1358 0.961 . S
C1343 H1359 0.960 . S
H1344 C1328 0.931 . S
H1345 C1333 0.929 . S
H1346 C1334 0.960 1_455 S
H1347 C1334 0.962 . S
H1348 C1334 0.960 . S
H1349 C1335 0.961 . S
H1350 C1335 0.961 . S
H1351 C1335 0.961 . S
H1352 C1336 0.931 . S
H1353 C1341 0.930 . S
H1354 C1342 0.947 1_655 S
H1355 C1342 0.946 1_655 S
H1356 C1342 0.970 . S
H1357 C1343 0.958 . S
H1358 C1343 0.961 . S
H1359 C1343 0.960 . S
C1360 C1361 1.391 . S
C1360 C1362 1.394 . S
C1360 H1376 0.931 . S
C1361 C1360 1.391 . S
C1361 C1365 1.376 . S
C1362 C1360 1.394 . S
C1362 C1363 1.369 . S
C1362 C1366 1.531 . S
C1363 C1362 1.369 . S
C1363 C1364 1.410 . S
C1363 C1371 1.503 1_455 S
C1364 C1363 1.410 . S
C1364 C1365 1.392 . S
C1364 C1367 1.511 . S
C1365 C1361 1.376 . S
C1365 C1364 1.392 . S
C1365 H1377 0.929 . S
C1366 C1362 1.531 . S
C1366 H1378 0.960 1_455 S
C1366 H1379 0.962 1_455 S
C1366 H1380 0.960 . S
C1367 C1364 1.511 . S
C1367 H1381 0.961 . S
C1367 H1382 0.961 . S
C1367 H1383 0.961 . S
C1368 C1369 1.370 . S
C1368 C1370 1.363 . S
C1368 H1384 0.931 . S
C1369 C1368 1.370 . S
C1369 C1373 1.408 . S
C1370 C1368 1.363 . S
C1370 C1371 1.370 . S
C1370 C1374 1.524 . S
C1371 C1363 1.503 1_655 S
C1371 C1370 1.370 . S
C1371 C1372 1.403 . S
C1372 C1371 1.403 . S
C1372 C1373 1.404 . S
C1372 C1375 1.539 . S
C1373 C1369 1.408 . S
C1373 C1372 1.404 . S
C1373 H1385 0.930 . S
C1374 C1370 1.524 . S
C1374 H1386 0.956 . S
C1374 H1387 0.961 1_655 S
C1374 H1388 0.961 . S
C1375 C1372 1.539 . S
C1375 H1389 0.958 . S
C1375 H1390 0.961 . S
C1375 H1391 0.960 1_655 S
H1376 C1360 0.931 . S
H1377 C1365 0.929 . S
H1378 C1366 0.960 1_655 S
H1379 C1366 0.962 1_655 S
H1380 C1366 0.960 . S
H1381 C1367 0.961 . S
H1382 C1367 0.961 . S
H1383 C1367 0.961 . S
H1384 C1368 0.931 . S
H1385 C1373 0.930 . S
H1386 C1374 0.956 . S
H1387 C1374 0.961 1_455 S
H1388 C1374 0.961 . S
H1389 C1375 0.958 . S
H1390 C1375 0.961 . S
H1391 C1375 0.960 1_455 S
C1392 C1393 1.391 . S
C1392 C1394 1.394 . S
C1392 H1408 0.931 . S
C1393 C1392 1.391 . S
C1393 C1397 1.376 . S
C1394 C1392 1.394 . S
C1394 C1395 1.369 . S
C1394 C1398 1.531 . S
C1395 C1394 1.369 . S
C1395 C1396 1.410 . S
C1395 C1403 1.503 1_655 S
C1396 C1395 1.410 . S
C1396 C1397 1.392 . S
C1396 C1399 1.511 . S
C1397 C1393 1.376 . S
C1397 C1396 1.392 . S
C1397 H1409 0.929 . S
C1398 C1394 1.531 . S
C1398 H1410 0.960 1_655 S
C1398 H1411 0.962 1_655 S
C1398 H1412 0.960 . S
C1399 C1396 1.511 . S
C1399 H1413 0.961 . S
C1399 H1414 0.961 . S
C1399 H1415 0.961 . S
C1400 C1401 1.370 . S
C1400 C1402 1.363 . S
C1400 H1416 0.931 . S
C1401 C1400 1.370 . S
C1401 C1405 1.408 . S
C1402 C1400 1.363 . S
C1402 C1403 1.370 . S
C1402 C1406 1.524 . S
C1403 C1395 1.503 1_455 S
C1403 C1402 1.370 . S
C1403 C1404 1.403 . S
C1404 C1403 1.403 . S
C1404 C1405 1.404 . S
C1404 C1407 1.539 . S
C1405 C1401 1.408 . S
C1405 C1404 1.404 . S
C1405 H1417 0.930 . S
C1406 C1402 1.524 . S
C1406 H1418 0.956 . S
C1406 H1419 0.961 1_455 S
C1406 H1420 0.961 . S
C1407 C1404 1.539 . S
C1407 H1421 0.958 . S
C1407 H1422 0.961 . S
C1407 H1423 0.982 . S
H1408 C1392 0.931 . S
H1409 C1397 0.929 . S
H1410 C1398 0.960 1_455 S
H1411 C1398 0.962 1_455 S
H1412 C1398 0.960 . S
H1413 C1399 0.961 . S
H1414 C1399 0.961 . S
H1415 C1399 0.961 . S
H1416 C1400 0.931 . S
H1417 C1405 0.930 . S
H1418 C1406 0.956 . S
H1419 C1406 0.961 1_655 S
H1420 C1406 0.961 . S
H1421 C1407 0.958 . S
H1422 C1407 0.961 . S
H1423 C1407 0.982 . S
C1424 C1425 1.391 . S
C1424 C1426 1.394 . S
C1424 H1440 0.931 . S
C1425 C1424 1.391 . S
C1425 C1429 1.376 . S
C1426 C1424 1.394 . S
C1426 C1427 1.369 . S
C1426 C1430 1.531 . S
C1427 C1426 1.369 . S
C1427 C1428 1.410 . S
C1427 C1435 1.503 1_455 S
C1428 C1427 1.410 . S
C1428 C1429 1.392 . S
C1428 C1431 1.511 . S
C1429 C1425 1.376 . S
C1429 C1428 1.392 . S
C1429 H1441 0.929 . S
C1430 C1426 1.531 . S
C1430 H1442 0.960 1_455 S
C1430 H1443 0.965 . S
C1430 H1444 0.960 . S
C1431 C1428 1.511 . S
C1431 H1445 0.961 . S
C1431 H1446 0.961 . S
C1431 H1447 0.961 . S
C1432 C1433 1.370 . S
C1432 C1434 1.363 . S
C1432 H1448 0.931 . S
C1433 C1432 1.370 . S
C1433 C1437 1.408 . S
C1434 C1432 1.363 . S
C1434 C1435 1.370 . S
C1434 C1438 1.524 . S
C1435 C1427 1.503 1_655 S
C1435 C1434 1.370 . S
C1435 C1436 1.403 . S
C1436 C1435 1.403 . S
C1436 C1437 1.404 . S
C1436 C1439 1.539 . S
C1437 C1433 1.408 . S
C1437 C1436 1.404 . S
C1437 H1449 0.930 . S
C1438 C1434 1.524 . S
C1438 H1450 0.956 1_655 S
C1438 H1451 0.961 1_655 S
C1438 H1452 0.961 . S
C1439 C1436 1.539 . S
C1439 H1453 0.958 . S
C1439 H1454 0.961 . S
C1439 H1455 0.960 . S
H1440 C1424 0.931 . S
H1441 C1429 0.929 . S
H1442 C1430 0.960 1_655 S
H1443 C1430 0.965 . S
H1444 C1430 0.960 . S
H1445 C1431 0.961 . S
H1446 C1431 0.961 . S
H1447 C1431 0.961 . S
H1448 C1432 0.931 . S
H1449 C1437 0.930 . S
H1450 C1438 0.956 1_455 S
H1451 C1438 0.961 1_455 S
H1452 C1438 0.961 . S
H1453 C1439 0.958 . S
H1454 C1439 0.961 . S
H1455 C1439 0.960 . S
C1456 C1457 1.391 . S
C1456 C1458 1.394 . S
C1456 H1472 0.931 . S
C1457 C1456 1.391 . S
C1457 C1461 1.376 . S
C1458 C1456 1.394 . S
C1458 C1459 1.369 . S
C1458 C1462 1.531 . S
C1459 C1458 1.369 . S
C1459 C1460 1.410 . S
C1459 C1467 1.503 . S
C1460 C1459 1.410 . S
C1460 C1461 1.392 . S
C1460 C1463 1.511 . S
C1461 C1457 1.376 . S
C1461 C1460 1.392 . S
C1461 H1473 0.929 . S
C1462 C1458 1.531 . S
C1462 H1474 0.960 . S
C1462 H1475 0.962 . S
C1462 H1476 0.960 . S
C1463 C1460 1.511 . S
C1463 H1477 0.961 . S
C1463 H1478 0.961 . S
C1463 H1479 0.961 . S
C1464 C1465 1.370 . S
C1464 C1466 1.363 . S
C1464 H1480 0.931 . S
C1465 C1464 1.370 . S
C1465 C1469 1.408 . S
C1466 C1464 1.363 . S
C1466 C1467 1.370 . S
C1466 C1470 1.524 . S
C1467 C1459 1.503 . S
C1467 C1466 1.370 . S
C1467 C1468 1.403 . S
C1468 C1467 1.403 . S
C1468 C1469 1.404 . S
C1468 C1471 1.539 . S
C1469 C1465 1.408 . S
C1469 C1468 1.404 . S
C1469 H1481 0.930 . S
C1470 C1466 1.524 . S
C1470 H1482 0.956 . S
C1470 H1483 0.961 . S
C1470 H1484 0.961 . S
C1471 C1468 1.539 . S
C1471 H1485 0.958 . S
C1471 H1486 0.961 . S
C1471 H1487 0.960 . S
H1472 C1456 0.931 . S
H1473 C1461 0.929 . S
H1474 C1462 0.960 . S
H1475 C1462 0.962 . S
H1476 C1462 0.960 . S
H1477 C1463 0.961 . S
H1478 C1463 0.961 . S
H1479 C1463 0.961 . S
H1480 C1464 0.931 . S
H1481 C1469 0.930 . S
H1482 C1470 0.956 . S
H1483 C1470 0.961 . S
H1484 C1470 0.961 . S
H1485 C1471 0.958 . S
H1486 C1471 0.961 . S
H1487 C1471 0.960 . S
C1488 C1489 1.391 . S
C1488 C1490 1.394 . S
C1488 H1504 0.931 . S
C1489 C1488 1.391 . S
C1489 C1493 1.376 . S
C1490 C1488 1.394 . S
C1490 C1491 1.369 . S
C1490 C1494 1.531 . S
C1491 C1490 1.369 . S
C1491 C1492 1.410 . S
C1491 C1499 1.503 . S
C1492 C1491 1.410 . S
C1492 C1493 1.392 . S
C1492 C1495 1.511 . S
C1493 C1489 1.376 . S
C1493 C1492 1.392 . S
C1493 H1505 0.929 . S
C1494 C1490 1.531 . S
C1494 H1506 0.960 . S
C1494 H1507 0.962 . S
C1494 H1508 0.960 . S
C1495 C1492 1.511 . S
C1495 H1509 0.961 . S
C1495 H1510 0.961 . S
C1495 H1511 0.961 . S
C1496 C1497 1.370 . S
C1496 C1498 1.363 . S
C1496 H1512 0.931 . S
C1497 C1496 1.370 . S
C1497 C1501 1.408 . S
C1498 C1496 1.363 . S
C1498 C1499 1.370 . S
C1498 C1502 1.524 . S
C1499 C1491 1.503 . S
C1499 C1498 1.370 . S
C1499 C1500 1.403 . S
C1500 C1499 1.403 . S
C1500 C1501 1.404 . S
C1500 C1503 1.539 . S
C1501 C1497 1.408 . S
C1501 C1500 1.404 . S
C1501 H1513 0.930 . S
C1502 C1498 1.524 . S
C1502 H1514 0.956 . S
C1502 H1515 0.961 . S
C1502 H1516 0.961 . S
C1503 C1500 1.539 . S
C1503 H1517 0.958 . S
C1503 H1518 0.961 . S
C1503 H1519 0.960 . S
H1504 C1488 0.931 . S
H1505 C1493 0.929 . S
H1506 C1494 0.960 . S
H1507 C1494 0.962 . S
H1508 C1494 0.960 . S
H1509 C1495 0.961 . S
H1510 C1495 0.961 . S
H1511 C1495 0.961 . S
H1512 C1496 0.931 . S
H1513 C1501 0.930 . S
H1514 C1502 0.956 . S
H1515 C1502 0.961 . S
H1516 C1502 0.961 . S
H1517 C1503 0.958 . S
H1518 C1503 0.961 . S
H1519 C1503 0.960 . S
C1520 C1521 1.391 . S
C1520 C1522 1.394 . S
C1520 H1536 0.931 . S
C1521 C1520 1.391 . S
C1521 C1525 1.376 . S
C1522 C1520 1.394 . S
C1522 C1523 1.369 . S
C1522 C1526 1.531 . S
C1523 C1522 1.369 . S
C1523 C1524 1.410 . S
C1523 C1531 1.503 . S
C1524 C1523 1.410 . S
C1524 C1525 1.392 . S
C1524 C1527 1.511 . S
C1525 C1521 1.376 . S
C1525 C1524 1.392 . S
C1525 H1537 0.929 . S
C1526 C1522 1.531 . S
C1526 H1538 0.960 . S
C1526 H1539 0.962 . S
C1526 H1540 0.960 . S
C1527 C1524 1.511 . S
C1527 H1541 0.961 . S
C1527 H1542 0.961 . S
C1527 H1543 0.961 . S
C1528 C1529 1.370 . S
C1528 C1530 1.363 . S
C1528 H1544 0.931 . S
C1529 C1528 1.370 . S
C1529 C1533 1.408 . S
C1530 C1528 1.363 . S
C1530 C1531 1.370 . S
C1530 C1534 1.524 . S
C1531 C1523 1.503 . S
C1531 C1530 1.370 . S
C1531 C1532 1.403 . S
C1532 C1531 1.403 . S
C1532 C1533 1.404 . S
C1532 C1535 1.539 . S
C1533 C1529 1.408 . S
C1533 C1532 1.404 . S
C1533 H1545 0.930 . S
C1534 C1530 1.524 . S
C1534 H1546 0.956 . S
C1534 H1547 0.961 . S
C1534 H1548 0.961 . S
C1535 C1532 1.539 . S
C1535 H1549 0.958 . S
C1535 H1550 0.961 . S
C1535 H1551 0.960 . S
H1536 C1520 0.931 . S
H1537 C1525 0.929 . S
H1538 C1526 0.960 . S
H1539 C1526 0.962 . S
H1540 C1526 0.960 . S
H1541 C1527 0.961 . S
H1542 C1527 0.961 . S
H1543 C1527 0.961 . S
H1544 C1528 0.931 . S
H1545 C1533 0.930 . S
H1546 C1534 0.956 . S
H1547 C1534 0.961 . S
H1548 C1534 0.961 . S
H1549 C1535 0.958 . S
H1550 C1535 0.961 . S
H1551 C1535 0.960 . S
C1552 C1553 1.391 . S
C1552 C1554 1.394 . S
C1552 H1568 0.931 . S
C1553 C1552 1.391 . S
C1553 C1557 1.376 . S
C1554 C1552 1.394 . S
C1554 C1555 1.369 . S
C1554 C1558 1.531 . S
C1555 C1554 1.369 . S
C1555 C1556 1.410 . S
C1555 C1563 1.503 . S
C1556 C1555 1.410 . S
C1556 C1557 1.392 . S
C1556 C1559 1.511 . S
C1557 C1553 1.376 . S
C1557 C1556 1.392 . S
C1557 H1569 0.929 . S
C1558 C1554 1.531 . S
C1558 H1570 0.960 . S
C1558 H1571 0.962 . S
C1558 H1572 0.960 . S
C1559 C1556 1.511 . S
C1559 H1573 0.961 . S
C1559 H1574 0.961 . S
C1559 H1575 0.961 . S
C1560 C1561 1.370 . S
C1560 C1562 1.363 . S
C1560 H1576 0.931 . S
C1561 C1560 1.370 . S
C1561 C1565 1.408 . S
C1562 C1560 1.363 . S
C1562 C1563 1.370 . S
C1562 C1566 1.524 . S
C1563 C1555 1.503 . S
C1563 C1562 1.370 . S
C1563 C1564 1.403 . S
C1564 C1563 1.403 . S
C1564 C1565 1.404 . S
C1564 C1567 1.539 . S
C1565 C1561 1.408 . S
C1565 C1564 1.404 . S
C1565 H1577 0.930 . S
C1566 C1562 1.524 . S
C1566 H1578 0.956 . S
C1566 H1579 0.961 . S
C1566 H1580 0.961 . S
C1567 C1564 1.539 . S
C1567 H1581 0.958 . S
C1567 H1582 0.961 . S
C1567 H1583 0.960 . S
H1568 C1552 0.931 . S
H1569 C1557 0.929 . S
H1570 C1558 0.960 . S
H1571 C1558 0.962 . S
H1572 C1558 0.960 . S
H1573 C1559 0.961 . S
H1574 C1559 0.961 . S
H1575 C1559 0.961 . S
H1576 C1560 0.931 . S
H1577 C1565 0.930 . S
H1578 C1566 0.956 . S
H1579 C1566 0.961 . S
H1580 C1566 0.961 . S
H1581 C1567 0.958 . S
H1582 C1567 0.961 . S
H1583 C1567 0.960 . S
C1584 C1585 1.391 . S
C1584 C1586 1.394 . S
C1584 H1600 0.931 . S
C1585 C1584 1.391 . S
C1585 C1589 1.376 . S
C1586 C1584 1.394 . S
C1586 C1587 1.369 . S
C1586 C1590 1.531 . S
C1587 C1586 1.369 . S
C1587 C1588 1.410 . S
C1587 C1595 1.503 . S
C1588 C1587 1.410 . S
C1588 C1589 1.392 . S
C1588 C1591 1.511 . S
C1589 C1585 1.376 . S
C1589 C1588 1.392 . S
C1589 H1601 0.929 . S
C1590 C1586 1.531 . S
C1590 H1602 0.960 . S
C1590 H1603 0.962 . S
C1590 H1604 0.960 . S
C1591 C1588 1.511 . S
C1591 H1605 0.961 . S
C1591 H1606 0.961 . S
C1591 H1607 0.961 . S
C1592 C1593 1.370 . S
C1592 C1594 1.363 . S
C1592 H1608 0.931 . S
C1593 C1592 1.370 . S
C1593 C1597 1.408 . S
C1594 C1592 1.363 . S
C1594 C1595 1.370 . S
C1594 C1598 1.524 . S
C1595 C1587 1.503 . S
C1595 C1594 1.370 . S
C1595 C1596 1.403 . S
C1596 C1595 1.403 . S
C1596 C1597 1.404 . S
C1596 C1599 1.539 . S
C1597 C1593 1.408 . S
C1597 C1596 1.404 . S
C1597 H1609 0.930 . S
C1598 C1594 1.524 . S
C1598 H1610 0.956 . S
C1598 H1611 0.961 . S
C1598 H1612 0.961 . S
C1599 C1596 1.539 . S
C1599 H1613 0.958 . S
C1599 H1614 0.961 . S
C1599 H1615 0.960 . S
H1600 C1584 0.931 . S
H1601 C1589 0.929 . S
H1602 C1590 0.960 . S
H1603 C1590 0.962 . S
H1604 C1590 0.960 . S
H1605 C1591 0.961 . S
H1606 C1591 0.961 . S
H1607 C1591 0.961 . S
H1608 C1592 0.931 . S
H1609 C1597 0.930 . S
H1610 C1598 0.956 . S
H1611 C1598 0.961 . S
H1612 C1598 0.961 . S
H1613 C1599 0.958 . S
H1614 C1599 0.961 . S
H1615 C1599 0.960 . S
C1616 C1617 1.391 . S
C1616 C1618 1.394 . S
C1616 H1632 0.931 . S
C1617 C1616 1.391 . S
C1617 C1621 1.376 . S
C1618 C1616 1.394 . S
C1618 C1619 1.369 . S
C1618 C1622 1.531 . S
C1619 C1618 1.369 . S
C1619 C1620 1.410 . S
C1619 C1627 1.503 . S
C1620 C1619 1.410 . S
C1620 C1621 1.392 . S
C1620 C1623 1.511 . S
C1621 C1617 1.376 . S
C1621 C1620 1.392 . S
C1621 H1633 0.929 . S
C1622 C1618 1.531 . S
C1622 H1634 0.960 . S
C1622 H1635 0.962 . S
C1622 H1636 0.960 . S
C1623 C1620 1.511 . S
C1623 H1637 0.961 . S
C1623 H1638 0.961 . S
C1623 H1639 0.961 . S
C1624 C1625 1.370 . S
C1624 C1626 1.363 . S
C1624 H1640 0.931 . S
C1625 C1624 1.370 . S
C1625 C1629 1.408 . S
C1626 C1624 1.363 . S
C1626 C1627 1.370 . S
C1626 C1630 1.524 . S
C1627 C1619 1.503 . S
C1627 C1626 1.370 . S
C1627 C1628 1.403 . S
C1628 C1627 1.403 . S
C1628 C1629 1.404 . S
C1628 C1631 1.539 . S
C1629 C1625 1.408 . S
C1629 C1628 1.404 . S
C1629 H1641 0.930 . S
C1630 C1626 1.524 . S
C1630 H1642 0.956 . S
C1630 H1643 0.961 . S
C1630 H1644 0.961 . S
C1631 C1628 1.539 . S
C1631 H1645 0.958 . S
C1631 H1646 0.961 . S
C1631 H1647 0.960 . S
H1632 C1616 0.931 . S
H1633 C1621 0.929 . S
H1634 C1622 0.960 . S
H1635 C1622 0.962 . S
H1636 C1622 0.960 . S
H1637 C1623 0.961 . S
H1638 C1623 0.961 . S
H1639 C1623 0.961 . S
H1640 C1624 0.931 . S
H1641 C1629 0.930 . S
H1642 C1630 0.956 . S
H1643 C1630 0.961 . S
H1644 C1630 0.961 . S
H1645 C1631 0.958 . S
H1646 C1631 0.961 . S
H1647 C1631 0.960 . S
C1648 C1649 1.391 . S
C1648 C1650 1.394 . S
C1648 H1664 0.931 . S
C1649 C1648 1.391 . S
C1649 C1653 1.376 . S
C1650 C1648 1.394 . S
C1650 C1651 1.369 . S
C1650 C1654 1.531 . S
C1651 C1650 1.369 . S
C1651 C1652 1.410 . S
C1651 C1659 1.503 . S
C1652 C1651 1.410 . S
C1652 C1653 1.392 . S
C1652 C1655 1.511 . S
C1653 C1649 1.376 . S
C1653 C1652 1.392 . S
C1653 H1665 0.929 . S
C1654 C1650 1.531 . S
C1654 H1666 0.960 . S
C1654 H1667 0.962 . S
C1654 H1668 0.960 . S
C1655 C1652 1.511 . S
C1655 H1669 0.961 . S
C1655 H1670 0.961 . S
C1655 H1671 0.961 . S
C1656 C1657 1.370 . S
C1656 C1658 1.363 . S
C1656 H1672 0.931 . S
C1657 C1656 1.370 . S
C1657 C1661 1.408 . S
C1658 C1656 1.363 . S
C1658 C1659 1.370 . S
C1658 C1662 1.524 . S
C1659 C1651 1.503 . S
C1659 C1658 1.370 . S
C1659 C1660 1.403 . S
C1660 C1659 1.403 . S
C1660 C1661 1.404 . S
C1660 C1663 1.539 . S
C1661 C1657 1.408 . S
C1661 C1660 1.404 . S
C1661 H1673 0.930 . S
C1662 C1658 1.524 . S
C1662 H1674 0.956 . S
C1662 H1675 0.961 . S
C1662 H1676 0.961 . S
C1663 C1660 1.539 . S
C1663 H1677 0.958 . S
C1663 H1678 0.961 . S
C1663 H1679 0.960 . S
H1664 C1648 0.931 . S
H1665 C1653 0.929 . S
H1666 C1654 0.960 . S
H1667 C1654 0.962 . S
H1668 C1654 0.960 . S
H1669 C1655 0.961 . S
H1670 C1655 0.961 . S
H1671 C1655 0.961 . S
H1672 C1656 0.931 . S
H1673 C1661 0.930 . S
H1674 C1662 0.956 . S
H1675 C1662 0.961 . S
H1676 C1662 0.961 . S
H1677 C1663 0.958 . S
H1678 C1663 0.961 . S
H1679 C1663 0.960 . S
C1680 C1681 1.391 . S
C1680 C1682 1.394 . S
C1680 H1696 0.931 . S
C1681 C1680 1.391 . S
C1681 C1685 1.376 . S
C1682 C1680 1.394 . S
C1682 C1683 1.369 . S
C1682 C1686 1.531 . S
C1683 C1682 1.369 . S
C1683 C1684 1.410 . S
C1683 C1691 1.503 . S
C1684 C1683 1.410 . S
C1684 C1685 1.392 . S
C1684 C1687 1.511 . S
C1685 C1681 1.376 . S
C1685 C1684 1.392 . S
C1685 H1697 0.929 . S
C1686 C1682 1.531 . S
C1686 H1698 0.960 . S
C1686 H1699 0.962 . S
C1686 H1700 0.960 . S
C1687 C1684 1.511 . S
C1687 H1701 0.961 . S
C1687 H1702 0.961 . S
C1687 H1703 0.961 . S
C1688 C1689 1.370 . S
C1688 C1690 1.363 . S
C1688 H1704 0.931 . S
C1689 C1688 1.370 . S
C1689 C1693 1.408 . S
C1690 C1688 1.363 . S
C1690 C1691 1.370 . S
C1690 C1694 1.524 . S
C1691 C1683 1.503 . S
C1691 C1690 1.370 . S
C1691 C1692 1.403 . S
C1692 C1691 1.403 . S
C1692 C1693 1.404 . S
C1692 C1695 1.539 . S
C1693 C1689 1.408 . S
C1693 C1692 1.404 . S
C1693 H1705 0.930 . S
C1694 C1690 1.524 . S
C1694 H1706 0.956 . S
C1694 H1707 0.961 . S
C1694 H1708 0.961 . S
C1695 C1692 1.539 . S
C1695 H1709 0.958 . S
C1695 H1710 0.961 . S
C1695 H1711 0.960 . S
H1696 C1680 0.931 . S
H1697 C1685 0.929 . S
H1698 C1686 0.960 . S
H1699 C1686 0.962 . S
H1700 C1686 0.960 . S
H1701 C1687 0.961 . S
H1702 C1687 0.961 . S
H1703 C1687 0.961 . S
H1704 C1688 0.931 . S
H1705 C1693 0.930 . S
H1706 C1694 0.956 . S
H1707 C1694 0.961 . S
H1708 C1694 0.961 . S
H1709 C1695 0.958 . S
H1710 C1695 0.961 . S
H1711 C1695 0.960 . S
C1712 C1713 1.391 . S
C1712 C1714 1.394 . S
C1712 H1728 0.931 . S
C1713 C1712 1.391 . S
C1713 C1717 1.376 1_545 S
C1714 C1712 1.394 . S
C1714 C1715 1.369 . S
C1714 C1718 1.531 . S
C1715 C1714 1.369 . S
C1715 C1716 1.410 1_545 S
C1715 C1723 1.503 . S
C1716 C1715 1.410 1_565 S
C1716 C1717 1.392 . S
C1716 C1719 1.511 . S
C1717 C1713 1.376 1_565 S
C1717 C1716 1.392 . S
C1717 H1729 0.929 . S
C1718 C1714 1.531 . S
C1718 H1730 0.960 . S
C1718 H1731 0.962 . S
C1718 H1732 0.960 . S
C1719 C1716 1.511 . S
C1719 H1733 0.961 . S
C1719 H1734 0.961 . S
C1719 H1735 0.961 . S
C1720 C1721 1.370 . S
C1720 C1722 1.363 . S
C1720 H1736 0.931 . S
C1721 C1720 1.370 . S
C1721 C1725 1.408 1_565 S
C1722 C1720 1.363 . S
C1722 C1723 1.370 1_565 S
C1722 C1726 1.524 . S
C1723 C1715 1.503 . S
C1723 C1722 1.370 1_545 S
C1723 C1724 1.403 . S
C1724 C1723 1.403 . S
C1724 C1725 1.404 . S
C1724 C1727 1.539 . S
C1725 C1721 1.408 1_545 S
C1725 C1724 1.404 . S
C1725 H1737 0.930 . S
C1726 C1722 1.524 . S
C1726 H1738 0.956 . S
C1726 H1739 0.961 . S
C1726 H1740 0.961 . S
C1727 C1724 1.539 . S
C1727 H1741 0.958 . S
C1727 H1742 0.961 . S
C1727 H1743 0.960 . S
H1728 C1712 0.931 . S
H1729 C1717 0.929 . S
H1730 C1718 0.960 . S
H1731 C1718 0.962 . S
H1732 C1718 0.960 . S
H1733 C1719 0.961 . S
H1734 C1719 0.961 . S
H1735 C1719 0.961 . S
H1736 C1720 0.931 . S
H1737 C1725 0.930 . S
H1738 C1726 0.956 . S
H1739 C1726 0.961 . S
H1740 C1726 0.961 . S
H1741 C1727 0.958 . S
H1742 C1727 0.961 . S
H1743 C1727 0.960 . S
C1744 C1745 1.391 1_565 S
C1744 C1746 1.394 . S
C1744 H1760 0.931 . S
C1745 C1744 1.391 1_545 S
C1745 C1749 1.376 . S
C1746 C1744 1.394 . S
C1746 C1747 1.369 . S
C1746 C1750 1.531 . S
C1747 C1746 1.369 . S
C1747 C1748 1.410 1_565 S
C1747 C1755 1.503 . S
C1748 C1747 1.410 1_545 S
C1748 C1749 1.392 . S
C1748 C1751 1.511 . S
C1749 C1745 1.376 . S
C1749 C1748 1.392 . S
C1749 H1761 0.929 . S
C1750 C1746 1.531 . S
C1750 H1762 0.960 . S
C1750 H1763 0.962 . S
C1750 H1764 0.960 . S
C1751 C1748 1.511 . S
C1751 H1765 0.961 . S
C1751 H1766 0.961 . S
C1751 H1767 0.961 1_545 S
C1752 C1753 1.370 1_545 S
C1752 C1754 1.363 . S
C1752 H1768 0.931 . S
C1753 C1752 1.370 1_565 S
C1753 C1757 1.408 . S
C1754 C1752 1.363 . S
C1754 C1755 1.370 1_545 S
C1754 C1758 1.524 . S
C1755 C1747 1.503 . S
C1755 C1754 1.370 1_565 S
C1755 C1756 1.403 . S
C1756 C1755 1.403 . S
C1756 C1757 1.404 . S
C1756 C1759 1.539 . S
C1757 C1753 1.408 . S
C1757 C1756 1.404 . S
C1757 H1769 0.930 . S
C1758 C1754 1.524 . S
C1758 H1770 0.956 . S
C1758 H1771 0.961 . S
C1758 H1772 0.961 . S
C1759 C1756 1.539 . S
C1759 H1773 0.958 . S
C1759 H1774 0.961 . S
C1759 H1775 0.960 . S
H1760 C1744 0.931 . S
H1761 C1749 0.929 . S
H1762 C1750 0.960 . S
H1763 C1750 0.962 . S
H1764 C1750 0.960 . S
H1765 C1751 0.961 . S
H1766 C1751 0.961 . S
H1767 C1751 0.961 1_565 S
H1768 C1752 0.931 . S
H1769 C1757 0.930 . S
H1770 C1758 0.956 . S
H1771 C1758 0.961 . S
H1772 C1758 0.961 . S
H1773 C1759 0.958 . S
H1774 C1759 0.961 . S
H1775 C1759 0.960 . S
C1776 C1777 1.391 . S
C1776 C1778 1.394 . S
C1776 H1792 0.931 . S
C1777 C1776 1.391 . S
C1777 C1781 1.376 1_545 S
C1778 C1776 1.394 . S
C1778 C1779 1.369 . S
C1778 C1782 1.531 . S
C1779 C1778 1.369 . S
C1779 C1780 1.410 1_545 S
C1779 C1787 1.503 . S
C1780 C1779 1.410 1_565 S
C1780 C1781 1.392 . S
C1780 C1783 1.511 . S
C1781 C1777 1.376 1_565 S
C1781 C1780 1.392 . S
C1781 H1793 0.929 . S
C1782 C1778 1.531 . S
C1782 H1794 0.960 . S
C1782 H1795 0.962 . S
C1782 H1796 0.960 . S
C1783 C1780 1.511 . S
C1783 H1797 0.961 . S
C1783 H1798 0.961 . S
C1783 H1799 0.961 . S
C1784 C1785 1.370 . S
C1784 C1786 1.363 . S
C1784 H1800 0.931 . S
C1785 C1784 1.370 . S
C1785 C1789 1.408 1_565 S
C1786 C1784 1.363 . S
C1786 C1787 1.370 1_565 S
C1786 C1790 1.524 . S
C1787 C1779 1.503 . S
C1787 C1786 1.370 1_545 S
C1787 C1788 1.403 . S
C1788 C1787 1.403 . S
C1788 C1789 1.404 . S
C1788 C1791 1.539 . S
C1789 C1785 1.408 1_545 S
C1789 C1788 1.404 . S
C1789 H1801 0.930 . S
C1790 C1786 1.524 . S
C1790 H1802 0.956 . S
C1790 H1803 0.961 . S
C1790 H1804 0.961 . S
C1791 C1788 1.539 . S
C1791 H1805 0.958 . S
C1791 H1806 0.961 . S
C1791 H1807 0.960 . S
H1792 C1776 0.931 . S
H1793 C1781 0.929 . S
H1794 C1782 0.960 . S
H1795 C1782 0.962 . S
H1796 C1782 0.960 . S
H1797 C1783 0.961 . S
H1798 C1783 0.961 . S
H1799 C1783 0.961 . S
H1800 C1784 0.931 . S
H1801 C1789 0.930 . S
H1802 C1790 0.956 . S
H1803 C1790 0.961 . S
H1804 C1790 0.961 . S
H1805 C1791 0.958 . S
H1806 C1791 0.961 . S
H1807 C1791 0.960 . S
C1808 C1809 1.391 . S
C1808 C1810 1.394 . S
C1808 H1824 0.931 . S
C1809 C1808 1.391 . S
C1809 C1813 1.376 1_565 S
C1810 C1808 1.394 . S
C1810 C1811 1.369 . S
C1810 C1814 1.531 . S
C1811 C1810 1.369 . S
C1811 C1812 1.410 1_565 S
C1811 C1819 1.503 . S
C1812 C1811 1.410 1_545 S
C1812 C1813 1.392 . S
C1812 C1815 1.511 . S
C1813 C1809 1.376 1_545 S
C1813 C1812 1.392 . S
C1813 H1825 0.929 . S
C1814 C1810 1.531 . S
C1814 H1826 0.960 . S
C1814 H1827 0.962 . S
C1814 H1828 0.960 . S
C1815 C1812 1.511 . S
C1815 H1829 0.961 . S
C1815 H1830 0.961 . S
C1815 H1831 0.961 . S
C1816 C1817 1.370 . S
C1816 C1818 1.363 . S
C1816 H1832 0.931 . S
C1817 C1816 1.370 . S
C1817 C1821 1.408 1_545 S
C1818 C1816 1.363 . S
C1818 C1819 1.370 1_545 S
C1818 C1822 1.524 . S
C1819 C1811 1.503 . S
C1819 C1818 1.370 1_565 S
C1819 C1820 1.403 . S
C1820 C1819 1.403 . S
C1820 C1821 1.404 . S
C1820 C1823 1.539 . S
C1821 C1817 1.408 1_565 S
C1821 C1820 1.404 . S
C1821 H1833 0.930 . S
C1822 C1818 1.524 . S
C1822 H1834 0.956 . S
C1822 H1835 0.961 . S
C1822 H1836 0.961 . S
C1823 C1820 1.539 . S
C1823 H1837 0.958 . S
C1823 H1838 0.961 . S
C1823 H1839 0.960 . S
H1824 C1808 0.931 . S
H1825 C1813 0.929 . S
H1826 C1814 0.960 . S
H1827 C1814 0.962 . S
H1828 C1814 0.960 . S
H1829 C1815 0.961 . S
H1830 C1815 0.961 . S
H1831 C1815 0.961 . S
H1832 C1816 0.931 . S
H1833 C1821 0.930 . S
H1834 C1822 0.956 . S
H1835 C1822 0.961 . S
H1836 C1822 0.961 . S
H1837 C1823 0.958 . S
H1838 C1823 0.961 . S
H1839 C1823 0.960 . S
C1840 C1841 1.391 . S
C1840 C1842 1.394 . S
C1840 H1856 0.931 . S
C1841 C1840 1.391 . S
C1841 C1845 1.376 . S
C1842 C1840 1.394 . S
C1842 C1843 1.369 . S
C1842 C1846 1.531 . S
C1843 C1842 1.369 . S
C1843 C1844 1.410 . S
C1843 C1851 1.503 . S
C1844 C1843 1.410 . S
C1844 C1845 1.392 . S
C1844 C1847 1.511 . S
C1845 C1841 1.376 . S
C1845 C1844 1.392 . S
C1845 H1857 0.929 . S
C1846 C1842 1.531 . S
C1846 H1858 0.960 . S
C1846 H1859 0.962 . S
C1846 H1860 0.960 . S
C1847 C1844 1.511 . S
C1847 H1861 0.961 . S
C1847 H1862 0.961 . S
C1847 H1863 0.961 . S
C1848 C1849 1.370 . S
C1848 C1850 1.363 . S
C1848 H1864 0.931 . S
C1849 C1848 1.370 . S
C1849 C1853 1.408 . S
C1850 C1848 1.363 . S
C1850 C1851 1.370 . S
C1850 C1854 1.524 . S
C1851 C1843 1.503 . S
C1851 C1850 1.370 . S
C1851 C1852 1.403 . S
C1852 C1851 1.403 . S
C1852 C1853 1.404 . S
C1852 C1855 1.539 . S
C1853 C1849 1.408 . S
C1853 C1852 1.404 . S
C1853 H1865 0.930 . S
C1854 C1850 1.524 . S
C1854 H1866 0.956 . S
C1854 H1867 0.961 . S
C1854 H1868 0.961 . S
C1855 C1852 1.539 . S
C1855 H1869 0.958 . S
C1855 H1870 0.961 . S
C1855 H1871 0.960 . S
H1856 C1840 0.931 . S
H1857 C1845 0.929 . S
H1858 C1846 0.960 . S
H1859 C1846 0.962 . S
H1860 C1846 0.960 . S
H1861 C1847 0.961 . S
H1862 C1847 0.961 . S
H1863 C1847 0.961 . S
H1864 C1848 0.931 . S
H1865 C1853 0.930 . S
H1866 C1854 0.956 . S
H1867 C1854 0.961 . S
H1868 C1854 0.961 . S
H1869 C1855 0.958 . S
H1870 C1855 0.961 . S
H1871 C1855 0.960 . S
C1872 C1873 1.391 . S
C1872 C1874 1.394 . S
C1872 H1888 0.931 . S
C1873 C1872 1.391 . S
C1873 C1877 1.376 . S
C1874 C1872 1.394 . S
C1874 C1875 1.369 . S
C1874 C1878 1.531 . S
C1875 C1874 1.369 . S
C1875 C1876 1.410 . S
C1875 C1883 1.503 . S
C1876 C1875 1.410 . S
C1876 C1877 1.392 . S
C1876 C1879 1.511 . S
C1877 C1873 1.376 . S
C1877 C1876 1.392 . S
C1877 H1889 0.929 . S
C1878 C1874 1.531 . S
C1878 H1890 0.960 . S
C1878 H1891 0.962 . S
C1878 H1892 0.960 . S
C1879 C1876 1.511 . S
C1879 H1893 0.961 . S
C1879 H1894 0.961 . S
C1879 H1895 0.961 . S
C1880 C1881 1.370 . S
C1880 C1882 1.363 . S
C1880 H1896 0.931 . S
C1881 C1880 1.370 . S
C1881 C1885 1.408 . S
C1882 C1880 1.363 . S
C1882 C1883 1.370 . S
C1882 C1886 1.524 . S
C1883 C1875 1.503 . S
C1883 C1882 1.370 . S
C1883 C1884 1.403 . S
C1884 C1883 1.403 . S
C1884 C1885 1.404 . S
C1884 C1887 1.539 . S
C1885 C1881 1.408 . S
C1885 C1884 1.404 . S
C1885 H1897 0.930 . S
C1886 C1882 1.524 . S
C1886 H1898 0.956 . S
C1886 H1899 0.961 . S
C1886 H1900 0.961 . S
C1887 C1884 1.539 . S
C1887 H1901 0.958 . S
C1887 H1902 0.961 . S
C1887 H1903 0.960 . S
H1888 C1872 0.931 . S
H1889 C1877 0.929 . S
H1890 C1878 0.960 . S
H1891 C1878 0.962 . S
H1892 C1878 0.960 . S
H1893 C1879 0.961 . S
H1894 C1879 0.961 . S
H1895 C1879 0.961 . S
H1896 C1880 0.931 . S
H1897 C1885 0.930 . S
H1898 C1886 0.956 . S
H1899 C1886 0.961 . S
H1900 C1886 0.961 . S
H1901 C1887 0.958 . S
H1902 C1887 0.961 . S
H1903 C1887 0.960 . S
C1904 C1905 1.391 . S
C1904 C1906 1.394 . S
C1904 H1920 0.931 . S
C1905 C1904 1.391 . S
C1905 C1909 1.376 . S
C1906 C1904 1.394 . S
C1906 C1907 1.369 . S
C1906 C1910 1.531 . S
C1907 C1906 1.369 . S
C1907 C1908 1.410 . S
C1907 C1915 1.503 . S
C1908 C1907 1.410 . S
C1908 C1909 1.392 . S
C1908 C1911 1.511 . S
C1909 C1905 1.376 . S
C1909 C1908 1.392 . S
C1909 H1921 0.929 . S
C1910 C1906 1.531 . S
C1910 H1922 0.960 . S
C1910 H1923 0.962 . S
C1910 H1924 0.960 . S
C1911 C1908 1.511 . S
C1911 H1925 0.961 . S
C1911 H1926 0.961 . S
C1911 H1927 0.961 . S
C1912 C1913 1.370 . S
C1912 C1914 1.363 . S
C1912 H1928 0.931 . S
C1913 C1912 1.370 . S
C1913 C1917 1.408 . S
C1914 C1912 1.363 . S
C1914 C1915 1.370 . S
C1914 C1918 1.524 . S
C1915 C1907 1.503 . S
C1915 C1914 1.370 . S
C1915 C1916 1.403 . S
C1916 C1915 1.403 . S
C1916 C1917 1.404 . S
C1916 C1919 1.539 . S
C1917 C1913 1.408 . S
C1917 C1916 1.404 . S
C1917 H1929 0.930 . S
C1918 C1914 1.524 . S
C1918 H1930 0.956 . S
C1918 H1931 0.961 . S
C1918 H1932 0.961 . S
C1919 C1916 1.539 . S
C1919 H1933 0.958 . S
C1919 H1934 0.961 . S
C1919 H1935 0.960 . S
H1920 C1904 0.931 . S
H1921 C1909 0.929 . S
H1922 C1910 0.960 . S
H1923 C1910 0.962 . S
H1924 C1910 0.960 . S
H1925 C1911 0.961 . S
H1926 C1911 0.961 . S
H1927 C1911 0.961 . S
H1928 C1912 0.931 . S
H1929 C1917 0.930 . S
H1930 C1918 0.956 . S
H1931 C1918 0.961 . S
H1932 C1918 0.961 . S
H1933 C1919 0.958 . S
H1934 C1919 0.961 . S
H1935 C1919 0.960 . S
C1936 C1937 1.391 . S
C1936 C1938 1.394 . S
C1936 H1952 0.931 . S
C1937 C1936 1.391 . S
C1937 C1941 1.376 . S
C1938 C1936 1.394 . S
C1938 C1939 1.369 . S
C1938 C1942 1.531 . S
C1939 C1938 1.369 . S
C1939 C1940 1.410 . S
C1939 C1947 1.503 . S
C1940 C1939 1.410 . S
C1940 C1941 1.392 . S
C1940 C1943 1.511 . S
C1941 C1937 1.376 . S
C1941 C1940 1.392 . S
C1941 H1953 0.929 . S
C1942 C1938 1.531 . S
C1942 H1954 0.960 . S
C1942 H1955 0.962 . S
C1942 H1956 0.960 . S
C1943 C1940 1.511 . S
C1943 H1957 0.961 . S
C1943 H1958 0.961 . S
C1943 H1959 0.961 . S
C1944 C1945 1.370 . S
C1944 C1946 1.363 . S
C1944 H1960 0.931 . S
C1945 C1944 1.370 . S
C1945 C1949 1.408 . S
C1946 C1944 1.363 . S
C1946 C1947 1.370 . S
C1946 C1950 1.524 . S
C1947 C1939 1.503 . S
C1947 C1946 1.370 . S
C1947 C1948 1.403 . S
C1948 C1947 1.403 . S
C1948 C1949 1.404 . S
C1948 C1951 1.539 . S
C1949 C1945 1.408 . S
C1949 C1948 1.404 . S
C1949 H1961 0.930 . S
C1950 C1946 1.524 . S
C1950 H1962 0.956 . S
C1950 H1963 0.961 . S
C1950 H1964 0.961 . S
C1951 C1948 1.539 . S
C1951 H1965 0.958 . S
C1951 H1966 0.961 . S
C1951 H1967 0.960 . S
H1952 C1936 0.931 . S
H1953 C1941 0.929 . S
H1954 C1942 0.960 . S
H1955 C1942 0.962 . S
H1956 C1942 0.960 . S
H1957 C1943 0.961 . S
H1958 C1943 0.961 . S
H1959 C1943 0.961 . S
H1960 C1944 0.931 . S
H1961 C1949 0.930 . S
H1962 C1950 0.956 . S
H1963 C1950 0.961 . S
H1964 C1950 0.961 . S
H1965 C1951 0.958 . S
H1966 C1951 0.961 . S
H1967 C1951 0.960 . S
C945 C3 1.366 . S
C953 C298 1.373 . S
C977 C239 1.362 . S
C985 C62 1.372 . S
C1009 C121 1.365 . S
C1017 C416 1.373 . S
C1041 C357 1.375 . S
C1049 C180 1.380 . S
C1073 C770 1.358 . S
C1081 C475 1.371 . S
C1105 C711 1.354 . S
C1113 C534 1.369 . S
C1137 C888 1.391 . S
C1145 C593 1.386 . S
C1169 C652 1.386 . S
C1177 C829 1.384 . S
C1201 C111 1.485 . S
C1209 C52 1.493 . S
C1233 C170 1.483 . S
C1241 C229 1.493 . S
C1265 C288 1.483 . S
C1273 C347 1.493 . S
C1297 C406 1.499 . S
C1305 C465 1.500 . S
C1329 C524 1.488 . S
C1337 C583 1.494 . S
C1361 C701 1.483 . S
C1369 C642 1.493 . S
C1393 C819 1.501 . S
C1401 C760 1.500 . S
C1425 C878 1.499 . S
C1433 C937 1.500 . S
C1457 C536 1.498 . S
C1465 C5 1.500 . S
C1489 C64 1.492 . S
C1497 C477 1.499 . S
C1521 C654 1.493 . S
C1529 C123 1.498 . S
C1553 C182 1.493 . S
C1561 C595 1.500 . S
C1585 C241 1.492 . S
C1593 C772 1.499 . S
C1617 C713 1.499 . S
C1625 C300 1.498 . S
C1649 C359 1.498 . S
C1657 C890 1.500 . S
C1681 C831 1.493 . S
C1689 C418 1.498 . S
C1713 C33 1.239 . S
C1721 C151 1.275 . S
C1745 C210 1.294 . S
C1753 C92 1.263 . S
C1777 C387 1.256 . S
C1785 C269 1.280 . S
C1809 C446 1.256 . S
C1817 C328 1.280 . S
C1841 C623 1.293 . S
C1849 C505 1.268 . S
C1873 C564 1.289 . S
C1881 C682 1.272 . S
C1905 C859 1.250 . S
C1913 C741 1.281 . S
C1937 C800 1.281 . S
C1945 C918 1.259 . S
