# Generated by pormake.
# Topology dei, (4)-cn, num edge types: 1
# Building blocks:
#     Node 0, Type 0, BuildingBlock: CEKHIL_clean_sbu_0, # of connection points: 4
#     Node 1, Type 0, BuildingBlock: CEKHIL_clean_sbu_0, # of connection points: 4
#     Node 2, Type 0, BuildingBlock: CEKHIL_clean_sbu_0, # of connection points: 4
#     Node 3, Type 0, BuildingBlock: CEKHIL_clean_sbu_0, # of connection points: 4
#     Node 4, Type 0, BuildingBlock: CEKHIL_clean_sbu_0, # of connection points: 4
#     Node 5, Type 0, BuildingBlock: CEKHIL_clean_sbu_0, # of connection points: 4
#     Node 6, Type 0, BuildingBlock: CEKHIL_clean_sbu_0, # of connection points: 4
#     Node 7, Type 0, BuildingBlock: CEKHIL_clean_sbu_0, # of connection points: 4
#     Node 8, Type 0, BuildingBlock: CEKHIL_clean_sbu_0, # of connection points: 4
#     Node 9, Type 0, BuildingBlock: CEKHIL_clean_sbu_0, # of connection points: 4
#     Node 10, Type 0, BuildingBlock: CEKHIL_clean_sbu_0, # of connection points: 4
#     Node 11, Type 0, BuildingBlock: CEKHIL_clean_sbu_0, # of connection points: 4
#     Node 12, Type 0, BuildingBlock: CEKHIL_clean_sbu_0, # of connection points: 4
#     Node 13, Type 0, BuildingBlock: CEKHIL_clean_sbu_0, # of connection points: 4
#     Node 14, Type 0, BuildingBlock: CEKHIL_clean_sbu_0, # of connection points: 4
#     Node 15, Type 0, BuildingBlock: CEKHIL_clean_sbu_0, # of connection points: 4
#     Node 16, Type 0, BuildingBlock: CEKHIL_clean_sbu_0, # of connection points: 4
#     Node 17, Type 0, BuildingBlock: CEKHIL_clean_sbu_0, # of connection points: 4
#     Node 18, Type 0, BuildingBlock: CEKHIL_clean_sbu_0, # of connection points: 4
#     Node 19, Type 0, BuildingBlock: CEKHIL_clean_sbu_0, # of connection points: 4
#     Node 20, Type 0, BuildingBlock: CEKHIL_clean_sbu_0, # of connection points: 4
#     Node 21, Type 0, BuildingBlock: CEKHIL_clean_sbu_0, # of connection points: 4
#     Node 22, Type 0, BuildingBlock: CEKHIL_clean_sbu_0, # of connection points: 4
#     Node 23, Type 0, BuildingBlock: CEKHIL_clean_sbu_0, # of connection points: 4
#     Node 24, Type 0, BuildingBlock: CEKHIL_clean_sbu_0, # of connection points: 4
#     Node 25, Type 0, BuildingBlock: CEKHIL_clean_sbu_0, # of connection points: 4
#     Node 26, Type 0, BuildingBlock: CEKHIL_clean_sbu_0, # of connection points: 4
#     Node 27, Type 0, BuildingBlock: CEKHIL_clean_sbu_0, # of connection points: 4
#     Node 28, Type 0, BuildingBlock: CEKHIL_clean_sbu_0, # of connection points: 4
#     Node 29, Type 0, BuildingBlock: CEKHIL_clean_sbu_0, # of connection points: 4
#     Node 30, Type 0, BuildingBlock: CEKHIL_clean_sbu_0, # of connection points: 4
#     Node 31, Type 0, BuildingBlock: CEKHIL_clean_sbu_0, # of connection points: 4
#     Edge 32, Type (0, 0), BuildingBlock: KIFKEQ_clean_linker_1, # of connection points: 2
#     Edge 33, Type (0, 0), BuildingBlock: KIFKEQ_clean_linker_1, # of connection points: 2
#     Edge 34, Type (0, 0), BuildingBlock: KIFKEQ_clean_linker_1, # of connection points: 2
#     Edge 35, Type (0, 0), BuildingBlock: KIFKEQ_clean_linker_1, # of connection points: 2
#     Edge 36, Type (0, 0), BuildingBlock: KIFKEQ_clean_linker_1, # of connection points: 2
#     Edge 37, Type (0, 0), BuildingBlock: KIFKEQ_clean_linker_1, # of connection points: 2
#     Edge 38, Type (0, 0), BuildingBlock: KIFKEQ_clean_linker_1, # of connection points: 2
#     Edge 39, Type (0, 0), BuildingBlock: KIFKEQ_clean_linker_1, # of connection points: 2
#     Edge 40, Type (0, 0), BuildingBlock: KIFKEQ_clean_linker_1, # of connection points: 2
#     Edge 41, Type (0, 0), BuildingBlock: KIFKEQ_clean_linker_1, # of connection points: 2
#     Edge 42, Type (0, 0), BuildingBlock: KIFKEQ_clean_linker_1, # of connection points: 2
#     Edge 43, Type (0, 0), BuildingBlock: KIFKEQ_clean_linker_1, # of connection points: 2
#     Edge 44, Type (0, 0), BuildingBlock: KIFKEQ_clean_linker_1, # of connection points: 2
#     Edge 45, Type (0, 0), BuildingBlock: KIFKEQ_clean_linker_1, # of connection points: 2
#     Edge 46, Type (0, 0), BuildingBlock: KIFKEQ_clean_linker_1, # of connection points: 2
#     Edge 47, Type (0, 0), BuildingBlock: KIFKEQ_clean_linker_1, # of connection points: 2
#     Edge 48, Type (0, 0), BuildingBlock: KIFKEQ_clean_linker_1, # of connection points: 2
#     Edge 49, Type (0, 0), BuildingBlock: KIFKEQ_clean_linker_1, # of connection points: 2
#     Edge 50, Type (0, 0), BuildingBlock: KIFKEQ_clean_linker_1, # of connection points: 2
#     Edge 51, Type (0, 0), BuildingBlock: KIFKEQ_clean_linker_1, # of connection points: 2
#     Edge 52, Type (0, 0), BuildingBlock: KIFKEQ_clean_linker_1, # of connection points: 2
#     Edge 53, Type (0, 0), BuildingBlock: KIFKEQ_clean_linker_1, # of connection points: 2
#     Edge 54, Type (0, 0), BuildingBlock: KIFKEQ_clean_linker_1, # of connection points: 2
#     Edge 55, Type (0, 0), BuildingBlock: KIFKEQ_clean_linker_1, # of connection points: 2
#     Edge 56, Type (0, 0), BuildingBlock: KIFKEQ_clean_linker_1, # of connection points: 2
#     Edge 57, Type (0, 0), BuildingBlock: KIFKEQ_clean_linker_1, # of connection points: 2
#     Edge 58, Type (0, 0), BuildingBlock: KIFKEQ_clean_linker_1, # of connection points: 2
#     Edge 59, Type (0, 0), BuildingBlock: KIFKEQ_clean_linker_1, # of connection points: 2
#     Edge 60, Type (0, 0), BuildingBlock: KIFKEQ_clean_linker_1, # of connection points: 2
#     Edge 61, Type (0, 0), BuildingBlock: KIFKEQ_clean_linker_1, # of connection points: 2
#     Edge 62, Type (0, 0), BuildingBlock: KIFKEQ_clean_linker_1, # of connection points: 2
#     Edge 63, Type (0, 0), BuildingBlock: KIFKEQ_clean_linker_1, # of connection points: 2
#     Edge 64, Type (0, 0), BuildingBlock: KIFKEQ_clean_linker_1, # of connection points: 2
#     Edge 65, Type (0, 0), BuildingBlock: KIFKEQ_clean_linker_1, # of connection points: 2
#     Edge 66, Type (0, 0), BuildingBlock: KIFKEQ_clean_linker_1, # of connection points: 2
#     Edge 67, Type (0, 0), BuildingBlock: KIFKEQ_clean_linker_1, # of connection points: 2
#     Edge 68, Type (0, 0), BuildingBlock: KIFKEQ_clean_linker_1, # of connection points: 2
#     Edge 69, Type (0, 0), BuildingBlock: KIFKEQ_clean_linker_1, # of connection points: 2
#     Edge 70, Type (0, 0), BuildingBlock: KIFKEQ_clean_linker_1, # of connection points: 2
#     Edge 71, Type (0, 0), BuildingBlock: KIFKEQ_clean_linker_1, # of connection points: 2
#     Edge 72, Type (0, 0), BuildingBlock: KIFKEQ_clean_linker_1, # of connection points: 2
#     Edge 73, Type (0, 0), BuildingBlock: KIFKEQ_clean_linker_1, # of connection points: 2
#     Edge 74, Type (0, 0), BuildingBlock: KIFKEQ_clean_linker_1, # of connection points: 2
#     Edge 75, Type (0, 0), BuildingBlock: KIFKEQ_clean_linker_1, # of connection points: 2
#     Edge 76, Type (0, 0), BuildingBlock: KIFKEQ_clean_linker_1, # of connection points: 2
#     Edge 77, Type (0, 0), BuildingBlock: KIFKEQ_clean_linker_1, # of connection points: 2
#     Edge 78, Type (0, 0), BuildingBlock: KIFKEQ_clean_linker_1, # of connection points: 2
#     Edge 79, Type (0, 0), BuildingBlock: KIFKEQ_clean_linker_1, # of connection points: 2
#     Edge 80, Type (0, 0), BuildingBlock: KIFKEQ_clean_linker_1, # of connection points: 2
#     Edge 81, Type (0, 0), BuildingBlock: KIFKEQ_clean_linker_1, # of connection points: 2
#     Edge 82, Type (0, 0), BuildingBlock: KIFKEQ_clean_linker_1, # of connection points: 2
#     Edge 83, Type (0, 0), BuildingBlock: KIFKEQ_clean_linker_1, # of connection points: 2
#     Edge 84, Type (0, 0), BuildingBlock: KIFKEQ_clean_linker_1, # of connection points: 2
#     Edge 85, Type (0, 0), BuildingBlock: KIFKEQ_clean_linker_1, # of connection points: 2
#     Edge 86, Type (0, 0), BuildingBlock: KIFKEQ_clean_linker_1, # of connection points: 2
#     Edge 87, Type (0, 0), BuildingBlock: KIFKEQ_clean_linker_1, # of connection points: 2
#     Edge 88, Type (0, 0), BuildingBlock: KIFKEQ_clean_linker_1, # of connection points: 2
#     Edge 89, Type (0, 0), BuildingBlock: KIFKEQ_clean_linker_1, # of connection points: 2
#     Edge 90, Type (0, 0), BuildingBlock: KIFKEQ_clean_linker_1, # of connection points: 2
#     Edge 91, Type (0, 0), BuildingBlock: KIFKEQ_clean_linker_1, # of connection points: 2
#     Edge 92, Type (0, 0), BuildingBlock: KIFKEQ_clean_linker_1, # of connection points: 2
#     Edge 93, Type (0, 0), BuildingBlock: KIFKEQ_clean_linker_1, # of connection points: 2
#     Edge 94, Type (0, 0), BuildingBlock: KIFKEQ_clean_linker_1, # of connection points: 2
#     Edge 95, Type (0, 0), BuildingBlock: KIFKEQ_clean_linker_1, # of connection points: 2
# Relax obj value: 0.245
# Max RMSD: 0.066
# Mean RMSD: 0.066
data_MOF--net-dei--node1-CEKHIL_clean_sbu_0--edge1-KIFKEQ_clean_linker_1
_symmetry_space_group_name_H-M    P1
_symmetry_Int_Tables_number       1
_symmetry_cell_setting            triclinic
loop_
_symmetry_equiv_pos_as_xyz
'x, y, z'
_cell_length_a     58.844449
_cell_length_b     58.827648
_cell_length_c     76.128515
_cell_angle_alpha  90.001058
_cell_angle_beta   89.997412
_cell_angle_gamma 89.984847
loop_
_atom_site_label
_atom_site_type_symbol
_atom_site_fract_x
_atom_site_fract_y
_atom_site_fract_z
_atom_type_partial_charge
Co0 Co 0.1283 0.62114 0.02728 0.0
O1 O 0.12414 0.58901 0.0304 0.0
O2 O 0.14618 0.60399 0.01005 0.0
C3 C 0.1329 0.62764 0.05635 0.0
O4 O 0.13691 0.65439 0.0211 0.0
Co5 Co 0.09361 0.65408 0.04524 0.0
O6 O 0.11481 0.67792 0.03726 0.0
C7 C 0.08045 0.62725 0.01406 0.0
C8 C 0.13805 0.58576 0.01752 0.0
C9 C 0.13095 0.67447 0.02643 0.0
O10 O 0.10124 0.62187 0.01091 0.0
O11 O 0.07394 0.63793 0.02781 0.0
O12 O 0.15013 0.62132 0.04684 0.0
O13 O 0.11378 0.62861 0.04821 0.0
Co14 Co 0.64324 0.87918 0.27762 0.0
O15 O 0.67514 0.87327 0.28013 0.0
O16 O 0.66069 0.89505 0.25938 0.0
C17 C 0.63816 0.88601 0.30651 0.0
O18 O 0.61022 0.88931 0.2721 0.0
Co19 Co 0.60944 0.84724 0.29741 0.0
O20 O 0.58782 0.87203 0.29218 0.0
C21 C 0.63396 0.83111 0.26594 0.0
C22 C 0.6787 0.8863 0.26677 0.0
C23 C 0.59085 0.88654 0.27998 0.0
O24 O 0.6403 0.85143 0.26218 0.0
O25 O 0.62341 0.82575 0.28005 0.0
O26 O 0.64531 0.90212 0.29624 0.0
O27 O 0.63586 0.86637 0.29928 0.0
Co28 Co 0.38396 0.38758 0.52862 0.0
O29 O 0.38659 0.41988 0.53114 0.0
O30 O 0.3652 0.40338 0.51109 0.0
C31 C 0.37966 0.38226 0.55779 0.0
O32 O 0.37704 0.3537 0.52328 0.0
Co33 Co 0.41986 0.35705 0.54721 0.0
O34 O 0.39685 0.33314 0.54308 0.0
C35 C 0.43191 0.38305 0.51529 0.0
C36 C 0.37247 0.42216 0.5183 0.0
C37 C 0.38172 0.33473 0.53118 0.0
O38 O 0.41093 0.38764 0.51221 0.0
O39 O 0.43891 0.37289 0.52914 0.0
O40 O 0.36211 0.38692 0.54807 0.0
O41 O 0.39889 0.38193 0.54975 0.0
Co42 Co 0.87046 0.13315 0.77681 0.0
O43 O 0.83835 0.1379 0.77968 0.0
O44 O 0.85328 0.1176 0.75827 0.0
C45 C 0.87602 0.12522 0.80554 0.0
O46 O 0.90367 0.12432 0.77066 0.0
Co47 Co 0.90359 0.16513 0.79725 0.0
O48 O 0.92709 0.14386 0.78876 0.0
C49 C 0.87796 0.18204 0.7666 0.0
C50 C 0.83507 0.12539 0.76597 0.0
C51 C 0.92367 0.12905 0.77686 0.0
O52 O 0.87241 0.16171 0.76215 0.0
O53 O 0.88828 0.18699 0.78089 0.0
O54 O 0.86932 0.10936 0.79485 0.0
O55 O 0.87772 0.14519 0.79879 0.0
Co56 Co 0.13294 0.38782 0.96584 0.0
O57 O 0.1276 0.41986 0.96341 0.0
O58 O 0.14844 0.40486 0.98449 0.0
C59 C 0.14068 0.38302 0.93706 0.0
O60 O 0.1424 0.35459 0.97144 0.0
Co61 Co 0.10164 0.35438 0.94509 0.0
O62 O 0.12601 0.3325 0.95075 0.0
C63 C 0.08444 0.3784 0.9765 0.0
C64 C 0.14028 0.42309 0.97702 0.0
C65 C 0.13987 0.33529 0.96342 0.0
O66 O 0.10455 0.38509 0.98062 0.0
O67 O 0.07964 0.36777 0.96232 0.0
O68 O 0.15654 0.38981 0.94769 0.0
O69 O 0.1208 0.38083 0.94388 0.0
Co70 Co 0.87828 0.8803 0.21648 0.0
O71 O 0.84654 0.87362 0.21319 0.0
O72 O 0.85997 0.89399 0.23517 0.0
C73 C 0.88357 0.88981 0.18806 0.0
O74 O 0.9106 0.89114 0.22344 0.0
Co75 Co 0.91489 0.85299 0.19584 0.0
O76 O 0.93518 0.87788 0.20313 0.0
C77 C 0.89247 0.8326 0.227 0.0
C78 C 0.84235 0.88548 0.22712 0.0
C79 C 0.93058 0.89035 0.2163 0.0
O80 O 0.88196 0.85129 0.23039 0.0
O81 O 0.90521 0.82975 0.21354 0.0
O82 O 0.87574 0.90471 0.1991 0.0
O83 O 0.88681 0.8697 0.19426 0.0
Co84 Co 0.37766 0.61989 0.46782 0.0
O85 O 0.38348 0.58795 0.46556 0.0
O86 O 0.36155 0.60271 0.48607 0.0
C87 C 0.37092 0.6243 0.43887 0.0
O88 O 0.36755 0.65301 0.47305 0.0
Co89 Co 0.40925 0.65359 0.44773 0.0
O90 O 0.38401 0.67489 0.45227 0.0
C91 C 0.42551 0.63034 0.47979 0.0
C92 C 0.37016 0.58457 0.47878 0.0
C93 C 0.36982 0.67212 0.46472 0.0
O94 O 0.40543 0.62296 0.48325 0.0
O95 O 0.4307 0.6412 0.46579 0.0
O96 O 0.35476 0.61757 0.44926 0.0
O97 O 0.39056 0.62683 0.44607 0.0
Co98 Co 0.63645 0.1334 0.71497 0.0
O99 O 0.66831 0.14016 0.71303 0.0
O100 O 0.65411 0.11598 0.73222 0.0
C101 C 0.63206 0.1297 0.68563 0.0
O102 O 0.60365 0.12193 0.7198 0.0
Co103 Co 0.60112 0.16514 0.69698 0.0
O104 O 0.58144 0.1382 0.69923 0.0
C105 C 0.62235 0.17865 0.73076 0.0
C106 C 0.67202 0.12577 0.72552 0.0
C107 C 0.5846 0.12358 0.71131 0.0
O108 O 0.63273 0.15945 0.73204 0.0
O109 O 0.61 0.18426 0.7176 0.0
O110 O 0.63908 0.11259 0.69496 0.0
O111 O 0.62898 0.14838 0.69413 0.0
Co112 Co 0.88288 0.3866 0.96669 0.0
O113 O 0.89051 0.41818 0.96397 0.0
O114 O 0.86976 0.40485 0.98575 0.0
C115 C 0.87311 0.38263 0.93823 0.0
O116 O 0.87126 0.3542 0.97282 0.0
Co117 Co 0.90911 0.35012 0.94502 0.0
O118 O 0.88214 0.33156 0.95047 0.0
C119 C 0.93002 0.37029 0.97691 0.0
C120 C 0.87874 0.42242 0.97791 0.0
C121 C 0.87045 0.33514 0.96426 0.0
O122 O 0.91181 0.38153 0.98045 0.0
O123 O 0.93242 0.35788 0.96321 0.0
O124 O 0.85846 0.39049 0.94944 0.0
O125 O 0.89314 0.37864 0.94431 0.0
Co126 Co 0.37203 0.13274 0.71685 0.0
O127 O 0.34017 0.13931 0.71431 0.0
O128 O 0.35405 0.11576 0.7341 0.0
C129 C 0.37723 0.12818 0.68763 0.0
O130 O 0.40464 0.12148 0.72255 0.0
Co131 Co 0.40786 0.16395 0.69876 0.0
O132 O 0.42882 0.13866 0.70375 0.0
C133 C 0.38576 0.1784 0.73203 0.0
C134 C 0.33625 0.12525 0.72699 0.0
C135 C 0.42458 0.12397 0.71556 0.0
O136 O 0.37529 0.15928 0.73352 0.0
O137 O 0.39831 0.18362 0.71889 0.0
O138 O 0.37001 0.11134 0.69716 0.0
O139 O 0.38007 0.1471 0.69585 0.0
Co140 Co 0.62391 0.62239 0.46533 0.0
O141 O 0.6175 0.59041 0.46391 0.0
O142 O 0.64005 0.60556 0.48381 0.0
C143 C 0.62984 0.62485 0.43608 0.0
O144 O 0.6348 0.65546 0.46993 0.0
Co145 Co 0.59441 0.6569 0.44462 0.0
O146 O 0.62098 0.67687 0.44788 0.0
C147 C 0.57771 0.63767 0.47836 0.0
C148 C 0.63101 0.58729 0.47705 0.0
C149 C 0.63411 0.67422 0.46099 0.0
O150 O 0.59645 0.62684 0.48092 0.0
O151 O 0.57359 0.64951 0.46461 0.0
O152 O 0.64635 0.61902 0.44646 0.0
O153 O 0.61055 0.62848 0.44355 0.0
Co154 Co 0.14328 0.88255 0.21743 0.0
O155 O 0.17523 0.87711 0.21473 0.0
O156 O 0.16056 0.89754 0.2362 0.0
C157 C 0.13797 0.89098 0.18885 0.0
O158 O 0.11014 0.89196 0.22317 0.0
Co159 Co 0.11021 0.85096 0.19647 0.0
O160 O 0.08802 0.87484 0.2028 0.0
C161 C 0.13533 0.83359 0.22718 0.0
C162 C 0.17865 0.88941 0.22852 0.0
C163 C 0.09081 0.889 0.21529 0.0
O164 O 0.14059 0.8539 0.23191 0.0
O165 O 0.12533 0.82881 0.21272 0.0
O166 O 0.14511 0.90657 0.19958 0.0
O167 O 0.13606 0.87092 0.1954 0.0
Co168 Co 0.88127 0.62354 0.02606 0.0
O169 O 0.88873 0.592 0.02936 0.0
O170 O 0.86797 0.60479 0.00739 0.0
C171 C 0.87169 0.62853 0.0545 0.0
O172 O 0.86976 0.65576 0.0193 0.0
Co173 Co 0.90825 0.66034 0.04679 0.0
O174 O 0.88284 0.68017 0.03982 0.0
C175 C 0.92861 0.63871 0.01531 0.0
C176 C 0.87696 0.58742 0.01549 0.0
C177 C 0.8703 0.67564 0.02667 0.0
O178 O 0.91007 0.62789 0.01203 0.0
O179 O 0.93145 0.65133 0.02883 0.0
O180 O 0.85696 0.62044 0.04345 0.0
O181 O 0.89173 0.63214 0.04829 0.0
Co182 Co 0.13823 0.13108 0.77886 0.0
O183 O 0.17037 0.13572 0.78121 0.0
O184 O 0.15487 0.11553 0.75998 0.0
C185 C 0.13346 0.12307 0.80761 0.0
O186 O 0.10472 0.12248 0.77342 0.0
Co187 Co 0.10596 0.16318 0.80006 0.0
O188 O 0.08325 0.13963 0.79416 0.0
C189 C 0.13076 0.18007 0.76895 0.0
C190 C 0.17329 0.12325 0.76745 0.0
C191 C 0.08554 0.12566 0.7815 0.0
O192 O 0.13597 0.1597 0.76432 0.0
O193 O 0.12084 0.18502 0.78341 0.0
O194 O 0.13983 0.10718 0.79683 0.0
O195 O 0.13169 0.14306 0.80092 0.0
Co196 Co 0.6257 0.38864 0.52814 0.0
O197 O 0.61888 0.42049 0.53028 0.0
O198 O 0.64269 0.40644 0.51075 0.0
C199 C 0.62997 0.3841 0.55743 0.0
O200 O 0.63721 0.3559 0.52301 0.0
Co201 Co 0.59466 0.35293 0.54644 0.0
O202 O 0.62166 0.33341 0.54372 0.0
C203 C 0.58032 0.37419 0.51284 0.0
C204 C 0.63301 0.4243 0.51763 0.0
C205 C 0.63589 0.33675 0.53141 0.0
O206 O 0.59932 0.38487 0.51138 0.0
O207 O 0.57514 0.36168 0.52602 0.0
O208 O 0.64688 0.39123 0.54793 0.0
O209 O 0.61118 0.38095 0.54912 0.0
Co210 Co 0.37818 0.8798 0.27817 0.0
O211 O 0.34638 0.87355 0.28149 0.0
O212 O 0.35995 0.8945 0.2599 0.0
C213 C 0.38374 0.88811 0.3068 0.0
O214 O 0.41066 0.89034 0.27129 0.0
Co215 Co 0.41445 0.8511 0.29797 0.0
O216 O 0.43521 0.87575 0.29107 0.0
C217 C 0.39121 0.83219 0.26664 0.0
C218 C 0.34226 0.88599 0.26785 0.0
C219 C 0.43071 0.88885 0.27825 0.0
O220 O 0.38115 0.85123 0.26363 0.0
O221 O 0.40401 0.82861 0.27996 0.0
O222 O 0.37623 0.90358 0.29609 0.0
O223 O 0.38664 0.8682 0.30011 0.0
Co224 Co 0.62736 0.12432 0.52439 0.0
O225 O 0.62132 0.09247 0.52765 0.0
O226 O 0.64449 0.10596 0.50744 0.0
C227 C 0.63201 0.13069 0.55345 0.0
O228 O 0.63806 0.15693 0.51803 0.0
Co229 Co 0.59527 0.16002 0.54167 0.0
O230 O 0.61994 0.18141 0.5361 0.0
C231 C 0.58114 0.13608 0.50918 0.0
C232 C 0.63527 0.08829 0.51495 0.0
C233 C 0.63495 0.17707 0.52455 0.0
O234 O 0.60068 0.12641 0.50775 0.0
O235 O 0.57555 0.14889 0.52207 0.0
O236 O 0.6489 0.1234 0.544 0.0
O237 O 0.61297 0.13285 0.54526 0.0
Co238 Co 0.13561 0.38028 0.77708 0.0
O239 O 0.16723 0.37305 0.78027 0.0
O240 O 0.1542 0.39466 0.75887 0.0
C241 C 0.13045 0.38853 0.80577 0.0
O242 O 0.10347 0.39189 0.77034 0.0
Co243 Co 0.09853 0.35267 0.79694 0.0
O244 O 0.07852 0.37798 0.79011 0.0
C245 C 0.12071 0.33334 0.76525 0.0
C246 C 0.17166 0.3856 0.76677 0.0
C247 C 0.0834 0.391 0.77732 0.0
O248 O 0.13162 0.35195 0.76238 0.0
O249 O 0.10785 0.33015 0.7786 0.0
O250 O 0.13835 0.40384 0.79511 0.0
O251 O 0.1269 0.36878 0.799 0.0
Co252 Co 0.87951 0.88805 0.02757 0.0
O253 O 0.88565 0.91999 0.02966 0.0
O254 O 0.86311 0.90531 0.00952 0.0
C255 C 0.87359 0.88372 0.05668 0.0
O256 O 0.86897 0.85502 0.0224 0.0
Co257 Co 0.91102 0.85376 0.04713 0.0
O258 O 0.88553 0.83271 0.04284 0.0
C259 C 0.92672 0.87655 0.01466 0.0
C260 C 0.87212 0.92341 0.01657 0.0
C261 C 0.87122 0.83575 0.03052 0.0
O262 O 0.9068 0.88469 0.01169 0.0
O263 O 0.93204 0.86535 0.02847 0.0
O264 O 0.85719 0.89062 0.04658 0.0
O265 O 0.89296 0.88093 0.0491 0.0
Co266 Co 0.36872 0.62909 0.27928 0.0
O267 O 0.33664 0.63366 0.28194 0.0
O268 O 0.35197 0.61491 0.25984 0.0
C269 C 0.37385 0.61903 0.30755 0.0
O270 O 0.40214 0.62081 0.27348 0.0
Co271 Co 0.40073 0.66008 0.30174 0.0
O272 O 0.42356 0.63715 0.29466 0.0
C273 C 0.37536 0.67879 0.27163 0.0
C274 C 0.33362 0.62215 0.2677 0.0
C275 C 0.42129 0.62373 0.28163 0.0
O276 O 0.371 0.65868 0.26594 0.0
O277 O 0.38487 0.68283 0.28643 0.0
O278 O 0.36719 0.60394 0.29622 0.0
O279 O 0.3754 0.63948 0.30173 0.0
Co280 Co 0.62948 0.88839 0.46666 0.0
O281 O 0.62478 0.92041 0.46328 0.0
O282 O 0.64427 0.906 0.48535 0.0
C283 C 0.63861 0.88206 0.43828 0.0
O284 O 0.63807 0.85531 0.47332 0.0
Co285 Co 0.59798 0.85511 0.44586 0.0
O286 O 0.61909 0.83179 0.45492 0.0
C287 C 0.58015 0.88154 0.47573 0.0
C288 C 0.63673 0.92403 0.47723 0.0
C289 C 0.63354 0.83528 0.46708 0.0
O290 O 0.60038 0.88669 0.48069 0.0
O291 O 0.57563 0.87121 0.46136 0.0
O292 O 0.654 0.88916 0.44921 0.0
O293 O 0.61835 0.88064 0.44453 0.0
Co294 Co 0.37026 0.37476 0.71866 0.0
O295 O 0.33804 0.37127 0.71619 0.0
O296 O 0.354 0.39311 0.73621 0.0
C297 C 0.37542 0.37909 0.68947 0.0
O298 O 0.40398 0.38259 0.72389 0.0
Co299 Co 0.40166 0.33956 0.70007 0.0
O300 O 0.42485 0.36334 0.70394 0.0
C301 C 0.37625 0.327 0.73216 0.0
C302 C 0.33542 0.38531 0.72904 0.0
C303 C 0.42297 0.37846 0.71583 0.0
O304 O 0.37093 0.34785 0.73511 0.0
O305 O 0.38664 0.32021 0.71836 0.0
O306 O 0.3703 0.39655 0.69915 0.0
O307 O 0.37626 0.3599 0.69756 0.0
Co308 Co 0.87769 0.12167 0.96529 0.0
O309 O 0.88133 0.08957 0.96158 0.0
O310 O 0.86258 0.10434 0.98392 0.0
C311 C 0.86865 0.12889 0.93701 0.0
O312 O 0.8702 0.15481 0.97245 0.0
Co313 Co 0.91023 0.15427 0.94486 0.0
O314 O 0.89131 0.17835 0.95553 0.0
C315 C 0.92732 0.12574 0.97371 0.0
C316 C 0.86953 0.08619 0.97566 0.0
C317 C 0.87628 0.17491 0.96728 0.0
O318 O 0.90696 0.12217 0.97915 0.0
O319 O 0.93198 0.1358 0.95925 0.0
O320 O 0.85307 0.12202 0.94787 0.0
O321 O 0.88893 0.12953 0.94325 0.0
Co322 Co 0.13493 0.63581 0.21753 0.0
O323 O 0.16684 0.64197 0.2149 0.0
O324 O 0.15271 0.61908 0.23504 0.0
C325 C 0.12995 0.63053 0.18837 0.0
O326 O 0.10222 0.62501 0.2234 0.0
Co327 Co 0.09939 0.66672 0.19886 0.0
O328 O 0.07815 0.64188 0.20434 0.0
C329 C 0.12196 0.68222 0.23163 0.0
C330 C 0.17061 0.62816 0.22777 0.0
C331 C 0.08229 0.62749 0.21639 0.0
O332 O 0.13198 0.66294 0.23367 0.0
O333 O 0.10949 0.68711 0.21837 0.0
O334 O 0.1368 0.61384 0.19822 0.0
O335 O 0.12714 0.64967 0.19629 0.0
Co336 Co 0.37962 0.88444 0.46656 0.0
O337 O 0.38668 0.91615 0.46357 0.0
O338 O 0.36506 0.90278 0.48484 0.0
C339 C 0.37164 0.87939 0.43783 0.0
O340 O 0.3682 0.85217 0.47313 0.0
Co341 Co 0.40755 0.84758 0.44667 0.0
O342 O 0.38211 0.82752 0.45313 0.0
C343 C 0.4266 0.86982 0.47843 0.0
C344 C 0.3741 0.92038 0.47711 0.0
C345 C 0.3691 0.8322 0.46596 0.0
O346 O 0.40788 0.88051 0.48133 0.0
O347 O 0.42996 0.85706 0.46505 0.0
O348 O 0.35619 0.88723 0.44841 0.0
O349 O 0.39134 0.87591 0.44469 0.0
Co350 Co 0.86869 0.62998 0.21459 0.0
O351 O 0.83635 0.63393 0.21278 0.0
O352 O 0.85317 0.61451 0.23396 0.0
C353 C 0.87291 0.62168 0.18586 0.0
O354 O 0.90239 0.62185 0.21954 0.0
Co355 Co 0.90006 0.66212 0.19258 0.0
O356 O 0.92311 0.63879 0.19827 0.0
C357 C 0.87622 0.67917 0.22408 0.0
C358 C 0.83436 0.62164 0.22675 0.0
C359 C 0.92127 0.62497 0.21109 0.0
O360 O 0.87102 0.65886 0.22886 0.0
O361 O 0.88578 0.68402 0.20946 0.0
O362 O 0.86696 0.60581 0.1968 0.0
O363 O 0.87451 0.64177 0.19238 0.0
Co364 Co 0.12864 0.1226 0.96746 0.0
O365 O 0.12184 0.09093 0.96388 0.0
O366 O 0.14232 0.10386 0.98595 0.0
C367 C 0.13797 0.12835 0.93906 0.0
O368 O 0.13958 0.1549 0.97456 0.0
Co369 Co 0.10089 0.15934 0.94721 0.0
O370 O 0.12565 0.17967 0.95462 0.0
C371 C 0.08095 0.13644 0.97828 0.0
C372 C 0.13366 0.08642 0.97776 0.0
C373 C 0.13845 0.175 0.96758 0.0
O374 O 0.09974 0.12606 0.98152 0.0
O375 O 0.07784 0.14929 0.96492 0.0
O376 O 0.15293 0.1203 0.94995 0.0
O377 O 0.11791 0.13145 0.94538 0.0
Co378 Co 0.63854 0.37537 0.71844 0.0
O379 O 0.67067 0.37187 0.71499 0.0
O380 O 0.65561 0.39297 0.73591 0.0
C381 C 0.63148 0.38083 0.68954 0.0
O382 O 0.6052 0.3831 0.72492 0.0
Co383 Co 0.60648 0.3402 0.70021 0.0
O384 O 0.58223 0.36087 0.70839 0.0
C385 C 0.63423 0.32697 0.7308 0.0
C386 C 0.67386 0.38536 0.72814 0.0
C387 C 0.58529 0.37685 0.71942 0.0
O388 O 0.63853 0.34789 0.73438 0.0
O389 O 0.62387 0.32046 0.71691 0.0
O390 O 0.63768 0.39782 0.69936 0.0
O391 O 0.63112 0.36138 0.69726 0.0
Co392 Co 0.38528 0.11858 0.52662 0.0
O393 O 0.38803 0.08634 0.52983 0.0
O394 O 0.36732 0.10214 0.509 0.0
C395 C 0.38006 0.12553 0.55556 0.0
O396 O 0.37836 0.15219 0.52046 0.0
Co397 Co 0.4216 0.14922 0.54495 0.0
O398 O 0.40209 0.17429 0.53647 0.0
C399 C 0.43378 0.12069 0.51463 0.0
C400 C 0.37456 0.08362 0.51661 0.0
C401 C 0.38564 0.17185 0.52574 0.0
O402 O 0.41271 0.11813 0.51067 0.0
O403 O 0.44062 0.13021 0.52878 0.0
O404 O 0.3629 0.11978 0.54577 0.0
O405 O 0.39947 0.12541 0.5478 0.0
Co406 Co 0.63571 0.63268 0.27544 0.0
O407 O 0.66797 0.63716 0.27773 0.0
O408 O 0.65213 0.61618 0.25703 0.0
C409 C 0.63156 0.62638 0.30453 0.0
O410 O 0.60246 0.62354 0.26978 0.0
Co411 Co 0.60192 0.66379 0.29554 0.0
O412 O 0.57937 0.64032 0.28957 0.0
C413 C 0.62362 0.6799 0.26258 0.0
C414 C 0.6706 0.62398 0.26432 0.0
C415 C 0.58275 0.62641 0.27705 0.0
O416 O 0.63343 0.6606 0.26007 0.0
O417 O 0.61154 0.68453 0.2761 0.0
O418 O 0.63701 0.60975 0.29412 0.0
O419 O 0.6293 0.64596 0.29719 0.0
Co420 Co 0.12588 0.88661 0.02857 0.0
O421 O 0.11825 0.91828 0.03045 0.0
O422 O 0.13994 0.90423 0.00952 0.0
C423 C 0.13434 0.88368 0.05739 0.0
O424 O 0.1376 0.85393 0.02342 0.0
Co425 Co 0.09858 0.85105 0.0503 0.0
O426 O 0.12569 0.83218 0.04596 0.0
C427 C 0.07933 0.86986 0.01727 0.0
C428 C 0.13067 0.92207 0.01678 0.0
C429 C 0.13792 0.83516 0.03237 0.0
O430 O 0.09762 0.88114 0.0141 0.0
O431 O 0.07628 0.85793 0.03116 0.0
O432 O 0.14952 0.89096 0.04636 0.0
O433 O 0.11458 0.87954 0.05085 0.0
Co434 Co 0.87303 0.38153 0.77807 0.0
O435 O 0.8414 0.37397 0.78032 0.0
O436 O 0.85509 0.39622 0.75956 0.0
C437 C 0.87689 0.38912 0.80694 0.0
O438 O 0.90549 0.39344 0.77258 0.0
Co439 Co 0.90916 0.35338 0.79858 0.0
O440 O 0.92801 0.38051 0.79433 0.0
C441 C 0.88878 0.33496 0.7659 0.0
C442 C 0.8374 0.38682 0.76691 0.0
C443 C 0.92451 0.3934 0.78119 0.0
O444 O 0.8779 0.3536 0.76307 0.0
O445 O 0.90106 0.33141 0.77952 0.0
O446 O 0.86924 0.40465 0.79636 0.0
O447 O 0.88077 0.36954 0.79999 0.0
H448 H 0.11571 0.66335 0.16595 0.0
H449 H 0.14292 0.59512 0.16714 0.0
H450 H 0.11786 0.66339 0.13406 0.0
H451 H 0.14489 0.59515 0.13494 0.0
H452 H 0.09938 0.64289 0.07768 0.0
H453 H 0.09848 0.64266 0.10959 0.0
H454 H 0.16716 0.61684 0.1108 0.0
H455 H 0.16807 0.61691 0.07855 0.0
C456 C 0.1219 0.64823 0.15938 0.0
C457 C 0.12905 0.62918 0.16904 0.0
C458 C 0.12316 0.64829 0.14111 0.0
C459 C 0.13164 0.62932 0.13206 0.0
C460 C 0.13855 0.6101 0.14165 0.0
C461 C 0.13716 0.60999 0.16002 0.0
C462 C 0.11442 0.63741 0.0847 0.0
C463 C 0.13384 0.62999 0.07562 0.0
C464 C 0.11388 0.63727 0.10299 0.0
C465 C 0.1327 0.62963 0.11264 0.0
C466 C 0.15233 0.62257 0.10362 0.0
C467 C 0.15294 0.62285 0.08523 0.0
H468 H 0.66078 0.91283 0.4182 0.0
H469 H 0.6236 0.84983 0.41572 0.0
H470 H 0.65982 0.91575 0.38635 0.0
H471 H 0.62439 0.85126 0.38378 0.0
H472 H 0.60652 0.86866 0.32858 0.0
H473 H 0.60769 0.86804 0.3605 0.0
H474 H 0.6712 0.90528 0.35924 0.0
H475 H 0.66852 0.90759 0.32741 0.0
C476 C 0.65316 0.89916 0.4107 0.0
C477 C 0.64236 0.88107 0.41926 0.0
C478 C 0.65256 0.90077 0.39238 0.0
C479 C 0.64171 0.88392 0.38222 0.0
C480 C 0.63217 0.86506 0.39098 0.0
C481 C 0.63207 0.86392 0.4093 0.0
C482 C 0.62038 0.87714 0.33527 0.0
C483 C 0.63728 0.88837 0.32568 0.0
C484 C 0.62137 0.87645 0.35359 0.0
C485 C 0.63984 0.88618 0.3627 0.0
C486 C 0.65651 0.89785 0.35292 0.0
C487 C 0.65504 0.89921 0.33462 0.0
H488 H 0.36922 0.34421 0.6668 0.0
H489 H 0.38381 0.41617 0.66868 0.0
H490 H 0.36893 0.34557 0.63475 0.0
H491 H 0.38425 0.41723 0.63636 0.0
H492 H 0.4143 0.38925 0.58056 0.0
H493 H 0.4127 0.38989 0.61261 0.0
H494 H 0.34133 0.37336 0.6108 0.0
H495 H 0.34262 0.37343 0.57849 0.0
C496 C 0.37258 0.36028 0.66035 0.0
C497 C 0.37663 0.38011 0.67018 0.0
C498 C 0.37221 0.36103 0.64206 0.0
C499 C 0.3764 0.3815 0.63328 0.0
C500 C 0.38087 0.4013 0.643 0.0
C501 C 0.38068 0.40068 0.66138 0.0
C502 C 0.39825 0.3857 0.58696 0.0
C503 C 0.37856 0.38119 0.57708 0.0
C504 C 0.39735 0.38627 0.60525 0.0
C505 C 0.37689 0.38185 0.61397 0.0
C506 C 0.35725 0.37693 0.6042 0.0
C507 C 0.35801 0.37689 0.58583 0.0
H508 H 0.88265 0.16198 0.91485 0.0
H509 H 0.84826 0.09738 0.9165 0.0
H510 H 0.88351 0.16038 0.88291 0.0
H511 H 0.85088 0.09439 0.88468 0.0
H512 H 0.8455 0.10201 0.82529 0.0
H513 H 0.84077 0.10419 0.857 0.0
H514 H 0.90263 0.14387 0.86056 0.0
H515 H 0.90585 0.14324 0.82872 0.0
C516 C 0.87505 0.14754 0.90824 0.0
C517 C 0.86512 0.12997 0.91796 0.0
C518 C 0.87595 0.1463 0.88994 0.0
C519 C 0.86781 0.12694 0.88099 0.0
C520 C 0.85712 0.10972 0.89087 0.0
C521 C 0.85554 0.11138 0.90916 0.0
C522 C 0.85822 0.11085 0.83299 0.0
C523 C 0.87609 0.12238 0.8247 0.0
C524 C 0.85554 0.11217 0.85122 0.0
C525 C 0.87108 0.12455 0.86158 0.0
C526 C 0.88975 0.13489 0.85316 0.0
C527 C 0.89195 0.13419 0.83491 0.0
H528 H 0.12696 0.35019 0.91459 0.0
H529 H 0.15918 0.4159 0.91673 0.0
H530 H 0.12528 0.35255 0.8827 0.0
H531 H 0.15576 0.41951 0.88496 0.0
H532 H 0.16096 0.41217 0.82534 0.0
H533 H 0.16609 0.40998 0.85703 0.0
H534 H 0.10488 0.36942 0.86099 0.0
H535 H 0.10112 0.3702 0.82919 0.0
C536 C 0.13386 0.36507 0.9081 0.0
C537 C 0.14343 0.38273 0.91793 0.0
C538 C 0.13251 0.36671 0.88984 0.0
C539 C 0.13983 0.38651 0.88107 0.0
C540 C 0.15013 0.40388 0.89105 0.0
C541 C 0.15216 0.40185 0.90928 0.0
C542 C 0.14845 0.40314 0.83311 0.0
C543 C 0.13064 0.39137 0.82494 0.0
C544 C 0.15137 0.40182 0.85132 0.0
C545 C 0.13617 0.38914 0.86176 0.0
C546 C 0.1175 0.37862 0.85348 0.0
C547 C 0.11502 0.37939 0.83526 0.0
H548 H 0.89348 0.85422 0.0792 0.0
H549 H 0.85102 0.91388 0.07729 0.0
H550 H 0.89556 0.85718 0.111 0.0
H551 H 0.85456 0.9183 0.10897 0.0
H552 H 0.85037 0.90939 0.1686 0.0
H553 H 0.84603 0.90727 0.13684 0.0
H554 H 0.91282 0.87667 0.13293 0.0
H555 H 0.91589 0.87705 0.1648 0.0
C556 C 0.88452 0.86794 0.0857 0.0
C557 C 0.87195 0.88369 0.07593 0.0
C558 C 0.88603 0.86997 0.10393 0.0
C559 C 0.8757 0.88835 0.11276 0.0
C560 C 0.86258 0.90377 0.10285 0.0
C561 C 0.86049 0.90127 0.08465 0.0
C562 C 0.86423 0.90263 0.16081 0.0
C563 C 0.88349 0.89345 0.169 0.0
C564 C 0.86179 0.90135 0.14256 0.0
C565 C 0.87887 0.89137 0.1321 0.0
C566 C 0.89885 0.88366 0.14043 0.0
C567 C 0.9009 0.88427 0.15869 0.0
H568 H 0.39129 0.65275 0.4158 0.0
H569 H 0.34628 0.59508 0.41894 0.0
H570 H 0.39183 0.64963 0.38396 0.0
H571 H 0.34821 0.59046 0.3872 0.0
H572 H 0.34097 0.60063 0.32781 0.0
H573 H 0.33858 0.60237 0.35971 0.0
H574 H 0.40712 0.62917 0.36159 0.0
H575 H 0.40831 0.62925 0.32964 0.0
C576 C 0.38146 0.63943 0.40957 0.0
C577 C 0.36861 0.62428 0.41968 0.0
C578 C 0.38206 0.6373 0.39132 0.0
C579 C 0.3705 0.61942 0.38283 0.0
C580 C 0.35716 0.6046 0.39309 0.0
C581 C 0.356 0.60721 0.41132 0.0
C582 C 0.35562 0.60641 0.33519 0.0
C583 C 0.37486 0.6147 0.32646 0.0
C584 C 0.35431 0.60748 0.3535 0.0
C585 C 0.37249 0.61635 0.36342 0.0
C586 C 0.39239 0.62305 0.35451 0.0
C587 C 0.39335 0.62269 0.3362 0.0
H588 H 0.61567 0.16276 0.66423 0.0
H589 H 0.64537 0.09559 0.66338 0.0
H590 H 0.61665 0.164 0.63232 0.0
H591 H 0.64601 0.09669 0.63122 0.0
H592 H 0.66679 0.11815 0.57531 0.0
H593 H 0.66629 0.11749 0.60746 0.0
H594 H 0.59868 0.14616 0.60709 0.0
H595 H 0.59933 0.14715 0.57517 0.0
C596 C 0.62216 0.14812 0.6572 0.0
C597 C 0.63044 0.12906 0.6663 0.0
C598 C 0.62268 0.14883 0.63891 0.0
C599 C 0.63153 0.13051 0.62926 0.0
C600 C 0.63941 0.11121 0.63833 0.0
C601 C 0.6388 0.11047 0.6567 0.0
C602 C 0.65199 0.12461 0.58214 0.0
C603 C 0.63312 0.13273 0.57275 0.0
C604 C 0.65159 0.12398 0.60052 0.0
C605 C 0.63236 0.1316 0.6098 0.0
C606 C 0.6138 0.14032 0.60035 0.0
C607 C 0.61418 0.14086 0.58204 0.0
H608 H 0.84588 0.41117 0.82716 0.0
H609 H 0.90783 0.37216 0.82965 0.0
H610 H 0.84205 0.40874 0.85901 0.0
H611 H 0.9053 0.37119 0.8615 0.0
H612 H 0.88622 0.35032 0.91514 0.0
H613 H 0.88598 0.35292 0.88328 0.0
H614 H 0.8535 0.41883 0.88682 0.0
H615 H 0.85214 0.41503 0.91871 0.0
C616 C 0.85907 0.40274 0.83466 0.0
C617 C 0.87713 0.39184 0.82609 0.0
C618 C 0.85691 0.40128 0.85292 0.0
C619 C 0.8731 0.38933 0.86297 0.0
C620 C 0.89196 0.37975 0.85428 0.0
C621 C 0.89371 0.38064 0.83603 0.0
C622 C 0.87849 0.36503 0.90899 0.0
C623 C 0.86908 0.3824 0.91923 0.0
C624 C 0.87872 0.3668 0.89073 0.0
C625 C 0.87034 0.38643 0.88233 0.0
C626 C 0.86 0.40339 0.89269 0.0
C627 C 0.85915 0.40124 0.91098 0.0
H628 H 0.36384 0.0937 0.66575 0.0
H629 H 0.39409 0.16062 0.6659 0.0
H630 H 0.36357 0.09411 0.63355 0.0
H631 H 0.39366 0.16105 0.63394 0.0
H632 H 0.34384 0.11612 0.57699 0.0
H633 H 0.34348 0.11632 0.6092 0.0
H634 H 0.41279 0.14042 0.60951 0.0
H635 H 0.41314 0.14036 0.57756 0.0
C636 C 0.37062 0.10836 0.65892 0.0
C637 C 0.37906 0.12709 0.66832 0.0
C638 C 0.37023 0.1087 0.64053 0.0
C639 C 0.37846 0.12768 0.63128 0.0
C640 C 0.38733 0.14615 0.64072 0.0
C641 C 0.38758 0.14588 0.65903 0.0
C642 C 0.35885 0.12176 0.58398 0.0
C643 C 0.3785 0.12826 0.57479 0.0
C644 C 0.35873 0.12163 0.60237 0.0
C645 C 0.37817 0.12823 0.61182 0.0
C646 C 0.39753 0.13537 0.60258 0.0
C647 C 0.39771 0.13533 0.58427 0.0
H648 H 0.59551 0.61795 0.41309 0.0
H649 H 0.668 0.62923 0.41564 0.0
H650 H 0.59765 0.61555 0.38113 0.0
H651 H 0.66988 0.6276 0.38334 0.0
H652 H 0.64054 0.66 0.32767 0.0
H653 H 0.64258 0.65755 0.35962 0.0
H654 H 0.6256 0.58631 0.35714 0.0
H655 H 0.62433 0.58846 0.32482 0.0
C656 C 0.6119 0.62001 0.4068 0.0
C657 C 0.63161 0.62395 0.41679 0.0
C658 C 0.6131 0.6184 0.38857 0.0
C659 C 0.63392 0.62117 0.37997 0.0
C660 C 0.65368 0.6252 0.38984 0.0
C661 C 0.65259 0.62624 0.40821 0.0
C662 C 0.63728 0.64376 0.33389 0.0
C663 C 0.63209 0.62442 0.32382 0.0
C664 C 0.63869 0.64237 0.35212 0.0
C665 C 0.63445 0.62174 0.36065 0.0
C666 C 0.62912 0.60234 0.35069 0.0
C667 C 0.62829 0.60359 0.33232 0.0
H668 H 0.17091 0.90703 0.16746 0.0
H669 H 0.10242 0.88116 0.16767 0.0
H670 H 0.17185 0.90465 0.1355 0.0
H671 H 0.10228 0.88059 0.13569 0.0
H672 H 0.11467 0.85593 0.0813 0.0
H673 H 0.11598 0.85922 0.11308 0.0
H674 H 0.16106 0.91707 0.10822 0.0
H675 H 0.16096 0.91239 0.07641 0.0
C676 C 0.15576 0.90165 0.16052 0.0
C677 C 0.13656 0.89438 0.16983 0.0
C678 C 0.15624 0.90024 0.14219 0.0
C679 C 0.13727 0.89203 0.13284 0.0
C680 C 0.11754 0.88619 0.14233 0.0
C681 C 0.11738 0.88691 0.16065 0.0
C682 C 0.12519 0.86904 0.08712 0.0
C683 C 0.13778 0.88384 0.0765 0.0
C684 C 0.12567 0.87124 0.10536 0.0
C685 C 0.13819 0.8888 0.1134 0.0
C686 C 0.15136 0.9032 0.10266 0.0
C687 C 0.15135 0.90056 0.08439 0.0
H688 H 0.85006 0.59637 0.0738 0.0
H689 H 0.88598 0.65999 0.07792 0.0
H690 H 0.85121 0.59208 0.10562 0.0
H691 H 0.88554 0.65699 0.10977 0.0
H692 H 0.90507 0.63758 0.16377 0.0
H693 H 0.90362 0.63839 0.13189 0.0
H694 H 0.83968 0.60196 0.1333 0.0
H695 H 0.84249 0.59959 0.16522 0.0
C696 C 0.85748 0.60983 0.08164 0.0
C697 C 0.86792 0.62852 0.07355 0.0
C698 C 0.8582 0.6074 0.09991 0.0
C699 C 0.8689 0.62393 0.11045 0.0
C700 C 0.87795 0.6434 0.1022 0.0
C701 C 0.87785 0.64542 0.08394 0.0
C702 C 0.89108 0.62923 0.15714 0.0
C703 C 0.87401 0.61836 0.1668 0.0
C704 C 0.88993 0.63006 0.13886 0.0
C705 C 0.87116 0.62083 0.12984 0.0
C706 C 0.8545 0.60914 0.13962 0.0
C707 C 0.85608 0.6077 0.15793 0.0
H708 H 0.16395 0.10039 0.82777 0.0
H709 H 0.10252 0.14014 0.83029 0.0
H710 H 0.16776 0.10261 0.8596 0.0
H711 H 0.10489 0.14081 0.86216 0.0
H712 H 0.12393 0.16066 0.91625 0.0
H713 H 0.12366 0.15835 0.88436 0.0
H714 H 0.15688 0.09272 0.88729 0.0
H715 H 0.1588 0.09635 0.91912 0.0
C716 C 0.15082 0.10889 0.83528 0.0
C717 C 0.13292 0.12004 0.82673 0.0
C718 C 0.15296 0.11023 0.85356 0.0
C719 C 0.13688 0.12229 0.86365 0.0
C720 C 0.11816 0.13214 0.85495 0.0
C721 C 0.11646 0.13141 0.83668 0.0
C722 C 0.1317 0.1461 0.90994 0.0
C723 C 0.14156 0.1288 0.92 0.0
C724 C 0.13118 0.14447 0.89166 0.0
C725 C 0.13968 0.12501 0.88305 0.0
C726 C 0.15032 0.10808 0.89325 0.0
C727 C 0.15149 0.11012 0.91154 0.0
H728 H 0.66411 0.39785 0.5795 0.0
H729 H 0.59762 0.36672 0.57896 0.0
H730 H 0.66349 0.3979 0.61169 0.0
H731 H 0.59687 0.36707 0.61088 0.0
H732 H 0.64222 0.41676 0.66821 0.0
H733 H 0.64228 0.41721 0.63603 0.0
H734 H 0.61599 0.34865 0.63552 0.0
H735 H 0.61566 0.34832 0.66746 0.0
C736 C 0.6495 0.39084 0.58625 0.0
C737 C 0.63095 0.38223 0.57674 0.0
C738 C 0.64902 0.39111 0.60464 0.0
C739 C 0.63006 0.38262 0.61379 0.0
C740 C 0.61178 0.37358 0.60422 0.0
C741 C 0.61222 0.37341 0.58592 0.0
C742 C 0.63613 0.40196 0.66118 0.0
C743 C 0.6289 0.38253 0.67032 0.0
C744 C 0.63643 0.40211 0.64279 0.0
C745 C 0.62931 0.3829 0.63327 0.0
C746 C 0.62143 0.36377 0.64247 0.0
C747 C 0.62126 0.36358 0.66078 0.0
H748 H 0.41355 0.87079 0.33029 0.0
H749 H 0.35225 0.91057 0.32625 0.0
H750 H 0.40932 0.86937 0.36205 0.0
H751 H 0.34669 0.90768 0.35788 0.0
H752 H 0.35219 0.9122 0.41781 0.0
H753 H 0.35607 0.91683 0.38614 0.0
H754 H 0.38895 0.85106 0.38312 0.0
H755 H 0.38667 0.84767 0.41492 0.0
C756 C 0.39925 0.8794 0.33632 0.0
C757 C 0.38334 0.89093 0.32596 0.0
C758 C 0.3965 0.87824 0.35451 0.0
C759 C 0.37728 0.88786 0.36269 0.0
C760 C 0.36181 0.90019 0.35223 0.0
C761 C 0.36498 0.90193 0.33407 0.0
C762 C 0.35983 0.89861 0.41022 0.0
C763 C 0.36908 0.87956 0.41866 0.0
C764 C 0.36214 0.90124 0.39204 0.0
C765 C 0.37328 0.88456 0.38191 0.0
C766 C 0.38108 0.86475 0.39042 0.0
C767 C 0.3794 0.86251 0.40862 0.0
H768 H 0.06621 0.65119 0.98575 0.0
H769 H 0.05312 0.59075 0.01602 0.0
H770 H 0.02701 0.65087 0.97514 0.0
H771 H 0.01396 0.59057 0.00597 0.0
H772 H 0.94211 0.59975 -0.00142 0.0
H773 H 0.98037 0.59211 0.98727 0.0
H774 H 0.99812 0.66261 0.99566 0.0
H775 H 0.9603 0.67002 0.0067 0.0
C776 C 0.05527 0.6371 0.98929 0.0
C777 C 0.06246 0.62103 0.00169 0.0
C778 C 0.03276 0.63701 0.98339 0.0
C779 C 0.01714 0.62112 0.99014 0.0
C780 C 0.02542 0.60309 0.00047 0.0
C781 C 0.04792 0.60314 0.00627 0.0
C782 C 0.95401 0.61373 -0.0027 0.0
C783 C 0.94852 0.63536 0.00384 0.0
C784 C 0.97591 0.60934 0.99089 0.0
C785 C 0.99247 0.62663 0.99079 0.0
C786 C 0.9859 0.64885 0.99538 0.0
C787 C 0.96423 0.65312 0.00194 0.0
H788 H 0.59231 0.70928 0.25025 0.0
H789 H 0.66383 0.69359 0.24806 0.0
H790 H 0.5999 0.74761 0.24046 0.0
H791 H 0.67172 0.73229 0.23788 0.0
H792 H 0.66849 0.80183 0.26994 0.0
H793 H 0.66996 0.7636 0.25806 0.0
H794 H 0.61328 0.77926 0.22395 0.0
H795 H 0.61163 0.8176 0.23645 0.0
C796 C 0.60961 0.71382 0.24683 0.0
C797 C 0.62754 0.69878 0.25029 0.0
C798 C 0.61403 0.73584 0.24107 0.0
C799 C 0.63655 0.74333 0.23885 0.0
C800 C 0.65422 0.72719 0.23985 0.0
C801 C 0.64973 0.70498 0.24555 0.0
C802 C 0.65708 0.79736 0.2593 0.0
C803 C 0.63987 0.81237 0.25414 0.0
C804 C 0.65795 0.77544 0.25236 0.0
C805 C 0.64138 0.7681 0.24029 0.0
C806 C 0.62602 0.78424 0.23347 0.0
C807 C 0.62512 0.80621 0.24051 0.0
H808 H 0.45993 0.41875 0.51859 0.0
H809 H 0.4443 0.36196 0.48499 0.0
H810 H 0.49781 0.42088 0.50625 0.0
H811 H 0.48232 0.36425 0.47205 0.0
H812 H 0.55146 0.34286 0.49966 0.0
H813 H 0.51365 0.35064 0.48886 0.0
H814 H 0.52949 0.42236 0.48642 0.0
H815 H 0.56765 0.41429 0.4976 0.0
C816 C 0.46427 0.40757 0.50778 0.0
C817 C 0.44948 0.39009 0.5028 0.0
C818 C 0.48603 0.40879 0.50058 0.0
C819 C 0.49342 0.39229 0.48846 0.0
C820 C 0.47732 0.37691 0.48164 0.0
C821 C 0.4555 0.37567 0.48892 0.0
C822 C 0.54719 0.36016 0.49605 0.0
C823 C 0.56215 0.37803 0.49988 0.0
C824 C 0.52547 0.3647 0.4897 0.0
C825 C 0.51819 0.38728 0.48727 0.0
C826 C 0.53441 0.40483 0.48855 0.0
C827 C 0.55631 0.40023 0.49483 0.0
H828 H 0.92057 0.30452 0.75572 0.0
H829 H 0.84949 0.32095 0.7501 0.0
H830 H 0.91331 0.26621 0.74558 0.0
H831 H 0.842 0.28225 0.73973 0.0
H832 H 0.84325 0.21123 0.77066 0.0
H833 H 0.84264 0.25013 0.75997 0.0
H834 H 0.9005 0.23568 0.72679 0.0
H835 H 0.90115 0.19663 0.73793 0.0
C836 C 0.90351 0.30014 0.75157 0.0
C837 C 0.88552 0.31545 0.75403 0.0
C838 C 0.8993 0.27816 0.74559 0.0
C839 C 0.87694 0.27095 0.74218 0.0
C840 C 0.85936 0.2872 0.74251 0.0
C841 C 0.86365 0.30939 0.74834 0.0
C842 C 0.85506 0.21612 0.7604 0.0
C843 C 0.87227 0.20118 0.75511 0.0
C844 C 0.85471 0.23842 0.75418 0.0
C845 C 0.87184 0.2462 0.74276 0.0
C846 C 0.88728 0.23029 0.73577 0.0
C847 C 0.88759 0.20792 0.74202 0.0
H848 H 0.96037 0.33769 0.9855 0.0
H849 H 0.94555 0.40885 0.99306 0.0
H850 H 0.99896 0.34371 0.99541 0.0
H851 H 0.98456 0.41507 0.00327 0.0
H852 H 0.05636 0.41421 0.97369 0.0
H853 H 0.0172 0.41501 0.98379 0.0
H854 H 0.02938 0.35448 0.01461 0.0
H855 H 0.06859 0.35351 0.00388 0.0
C856 C 0.96521 0.3545 0.98996 0.0
C857 C 0.95021 0.37288 0.98818 0.0
C858 C 0.98735 0.35798 0.99583 0.0
C859 C 0.99507 0.38 -0.00014 0.0
C860 C 0.97922 0.39796 2e-05 0.0
C861 C 0.95687 0.3944 0.99428 0.0
C862 C 0.05091 0.40178 0.98332 0.0
C863 C 0.06525 0.38378 0.98801 0.0
C864 C 0.02845 0.40223 0.9892 0.0
C865 C 0.01995 0.38449 -0.00027 0.0
C866 C 0.0353 0.36815 0.00625 0.0
C867 C 0.05777 0.36766 0.00026 0.0
H868 H 0.92304 0.80032 0.23599 0.0
H869 H 0.85261 0.81906 0.24223 0.0
H870 H 0.91445 0.76192 0.24535 0.0
H871 H 0.84379 0.78027 0.25177 0.0
H872 H 0.89976 0.69264 0.25293 0.0
H873 H 0.90055 0.73163 0.26422 0.0
H874 H 0.84345 0.74851 0.23095 0.0
H875 H 0.84269 0.70971 0.22004 0.0
C876 C 0.90583 0.79638 0.24006 0.0
C877 C 0.8884 0.81243 0.23804 0.0
C878 C 0.90088 0.77436 0.2456 0.0
C879 C 0.87831 0.76786 0.24902 0.0
C880 C 0.8613 0.78471 0.24901 0.0
C881 C 0.86634 0.80692 0.24363 0.0
C882 C 0.88667 0.70446 0.24884 0.0
C883 C 0.87119 0.69842 0.23565 0.0
C884 C 0.88719 0.72679 0.25517 0.0
C885 C 0.87237 0.74332 0.24822 0.0
C886 C 0.85504 0.7363 0.2367 0.0
C887 C 0.8546 0.71406 0.23036 0.0
H888 H 0.44127 0.65584 0.50692 0.0
H889 H 0.45294 0.59395 0.47808 0.0
H890 H 0.48021 0.65454 0.51811 0.0
H891 H 0.49193 0.59294 0.48842 0.0
H892 H 0.5633 0.59914 0.49517 0.0
H893 H 0.52486 0.59314 0.50662 0.0
H894 H 0.5109 0.66484 0.49998 0.0
H895 H 0.54897 0.67059 0.48904 0.0
C896 C 0.45191 0.6414 0.50367 0.0
C897 C 0.44436 0.62502 0.49167 0.0
C898 C 0.47426 0.64072 0.50991 0.0
C899 C 0.48951 0.62404 0.50375 0.0
C900 C 0.48084 0.60606 0.49353 0.0
C901 C 0.45845 0.60661 0.48751 0.0
C902 C 0.55227 0.61369 0.497 0.0
C903 C 0.55879 0.63523 0.49088 0.0
C904 C 0.53019 0.61027 0.50342 0.0
C905 C 0.51447 0.62836 0.50378 0.0
C906 C 0.52232 0.65041 0.49995 0.0
C907 C 0.5442 0.65376 0.4935 0.0
H908 H 0.66258 0.19001 0.74635 0.0
H909 H 0.59164 0.20818 0.74402 0.0
H910 H 0.67152 0.22771 0.75806 0.0
H911 H 0.60031 0.24554 0.75544 0.0
H912 H 0.61347 0.31435 0.76112 0.0
H913 H 0.61489 0.27586 0.77328 0.0
H914 H 0.67065 0.25995 0.73839 0.0
H915 H 0.66931 0.29827 0.72672 0.0
C916 C 0.64879 0.20166 0.74917 0.0
C917 C 0.62651 0.19654 0.7439 0.0
C918 C 0.6539 0.2233 0.75578 0.0
C919 C 0.63676 0.23993 0.75721 0.0
C920 C 0.61404 0.23334 0.75451 0.0
C921 C 0.609 0.2119 0.7478 0.0
C922 C 0.62684 0.30293 0.75688 0.0
C923 C 0.6412 0.30899 0.74297 0.0
C924 C 0.62757 0.28085 0.76372 0.0
C925 C 0.64243 0.26457 0.75647 0.0
C926 C 0.65897 0.27189 0.74436 0.0
C927 C 0.65821 0.2939 0.73756 0.0
H928 H 0.39839 0.31373 0.76176 0.0
H929 H 0.34008 0.29952 0.72939 0.0
H930 H 0.39638 0.27537 0.77406 0.0
H931 H 0.33833 0.26121 0.74097 0.0
H932 H 0.34575 0.19079 0.74763 0.0
H933 H 0.33776 0.2286 0.75959 0.0
H934 H 0.40938 0.24475 0.75661 0.0
H935 H 0.41707 0.20729 0.74511 0.0
C936 C 0.38444 0.30274 0.75799 0.0
C937 C 0.36947 0.30929 0.7446 0.0
C938 C 0.38337 0.28071 0.76488 0.0
C939 C 0.3677 0.26487 0.75808 0.0
C940 C 0.35069 0.27275 0.74658 0.0
C941 C 0.35168 0.29476 0.73983 0.0
C942 C 0.35981 0.20212 0.7504 0.0
C943 C 0.38193 0.19649 0.74505 0.0
C944 C 0.35525 0.22383 0.75714 0.0
C945 C 0.37279 0.24006 0.75855 0.0
C946 C 0.39533 0.23294 0.7557 0.0
C947 C 0.39981 0.21142 0.74892 0.0
H948 H 0.16288 0.69511 0.2452 0.0
H949 H 0.09163 0.71225 0.24471 0.0
H950 H 0.17201 0.73383 0.25463 0.0
H951 H 0.1005 0.75064 0.25391 0.0
H952 H 0.1151 0.82082 0.25779 0.0
H953 H 0.11621 0.78236 0.27021 0.0
H954 H 0.16889 0.76432 0.23313 0.0
H955 H 0.16772 0.80249 0.22108 0.0
C956 C 0.14912 0.70681 0.248 0.0
C957 C 0.12662 0.70099 0.24389 0.0
C958 C 0.15433 0.72902 0.25328 0.0
C959 C 0.13706 0.74553 0.25454 0.0
C960 C 0.11429 0.7385 0.25306 0.0
C961 C 0.10915 0.71646 0.24766 0.0
C962 C 0.12763 0.80884 0.25298 0.0
C963 C 0.14125 0.81433 0.23849 0.0
C964 C 0.12823 0.78684 0.26 0.0
C965 C 0.14236 0.77011 0.25248 0.0
C966 C 0.15791 0.77668 0.23938 0.0
C967 C 0.15719 0.79855 0.23235 0.0
H968 H 0.16478 0.20972 0.77398 0.0
H969 H 0.10898 0.19415 0.73939 0.0
H970 H 0.16615 0.24825 0.76261 0.0
H971 H 0.11036 0.2329 0.7276 0.0
H972 H 0.08923 0.30302 0.7544 0.0
H973 H 0.09667 0.26433 0.74521 0.0
H974 H 0.16841 0.27948 0.74163 0.0
H975 H 0.16073 0.31856 0.75104 0.0
C976 C 0.15358 0.21432 0.76324 0.0
C977 C 0.13673 0.19922 0.75757 0.0
C978 C 0.15439 0.23641 0.75662 0.0
C979 C 0.13806 0.24385 0.74439 0.0
C980 C 0.12297 0.22776 0.73718 0.0
C981 C 0.12223 0.20558 0.74381 0.0
C982 C 0.10647 0.29834 0.75093 0.0
C983 C 0.12446 0.31353 0.75378 0.0
C984 C 0.11078 0.27614 0.7455 0.0
C985 C 0.13324 0.26861 0.74305 0.0
C986 C 0.15096 0.2847 0.74369 0.0
C987 C 0.14657 0.30709 0.74897 0.0
H988 H 0.34441 0.71083 0.27928 0.0
H989 H 0.39456 0.69187 0.24072 0.0
H990 H 0.34384 0.74937 0.2678 0.0
H991 H 0.39425 0.73077 0.22908 0.0
H992 H 0.42095 0.80037 0.2553 0.0
H993 H 0.4114 0.76179 0.24678 0.0
H994 H 0.34025 0.77991 0.24533 0.0
H995 H 0.35004 0.81886 0.25382 0.0
C996 C 0.35452 0.71476 0.26777 0.0
C997 C 0.36959 0.69863 0.26089 0.0
C998 C 0.35413 0.73681 0.26109 0.0
C999 C 0.36923 0.74323 0.24765 0.0
C1000 C 0.38253 0.72633 0.23951 0.0
C1001 C 0.38268 0.7041 0.24609 0.0
C1002 C 0.40338 0.79635 0.25236 0.0
C1003 C 0.38619 0.81236 0.2555 0.0
C1004 C 0.39786 0.77425 0.24735 0.0
C1005 C 0.375 0.76767 0.2457 0.0
C1006 C 0.358 0.78447 0.24668 0.0
C1007 C 0.36359 0.80677 0.25147 0.0
H1008 H 0.44395 0.13862 0.48265 0.0
H1009 H 0.46428 0.08744 0.51995 0.0
H1010 H 0.48171 0.13714 0.46915 0.0
H1011 H 0.50174 0.08588 0.5068 0.0
H1012 H 0.57041 0.09449 0.49562 0.0
H1013 H 0.53247 0.08365 0.48548 0.0
H1014 H 0.51272 0.15444 0.48531 0.0
H1015 H 0.55032 0.16499 0.49527 0.0
C1016 C 0.45612 0.12618 0.48731 0.0
C1017 C 0.45152 0.1133 0.50238 0.0
C1018 C 0.47776 0.12539 0.47967 0.0
C1019 C 0.49498 0.11184 0.48716 0.0
C1020 C 0.48904 0.09653 0.50061 0.0
C1021 C 0.46755 0.09745 0.50827 0.0
C1022 C 0.55826 0.10773 0.4925 0.0
C1023 C 0.56295 0.1305 0.49663 0.0
C1024 C 0.5365 0.10153 0.48676 0.0
C1025 C 0.51932 0.11809 0.48509 0.0
C1026 C 0.52537 0.14115 0.4865 0.0
C1027 C 0.54694 0.14727 0.49236 0.0
H1028 H 0.94292 0.84949 0.98867 0.0
H1029 H 0.95326 0.91369 0.01465 0.0
H1030 H 0.98202 0.8504 0.97786 0.0
H1031 H 0.99249 0.91429 0.00479 0.0
H1032 H 0.06453 0.90734 -0.0008 0.0
H1033 H 0.02618 0.9126 0.98733 0.0
H1034 H 0.01186 0.84163 -0.00269 0.0
H1035 H 0.0498 0.83657 0.00869 0.0
C1036 C 0.9533 0.86431 0.99133 0.0
C1037 C 0.94534 0.88148 0.00249 0.0
C1038 C 0.97576 0.86477 0.98532 0.0
C1039 C 0.99071 0.882 0.99097 0.0
C1040 C 0.98163 0.90071 0.00014 0.0
C1041 C 0.95909 0.9004 0.00587 0.0
C1042 C 0.05339 0.89275 -0.00189 0.0
C1043 C 0.05981 0.87168 0.00522 0.0
C1044 C 0.03139 0.89576 0.99142 0.0
C1045 C 0.01565 0.8777 0.99171 0.0
C1046 C 0.02332 0.856 0.99676 0.0
C1047 C 0.04511 0.85308 0.0035 0.0
H1048 H 0.44085 0.91004 0.49256 0.0
H1049 H 0.45737 0.83873 0.48927 0.0
H1050 H 0.47981 0.91827 0.50196 0.0
H1051 H 0.49595 0.84672 0.49852 0.0
H1052 H 0.56587 0.86023 0.50538 0.0
H1053 H 0.52687 0.86116 0.51667 0.0
H1054 H 0.51124 0.91598 0.48083 0.0
H1055 H 0.55001 0.915 0.46987 0.0
C1056 C 0.45251 0.89604 0.49465 0.0
C1057 C 0.44637 0.87382 0.48988 0.0
C1058 C 0.47482 0.90074 0.49994 0.0
C1059 C 0.49113 0.88323 0.50065 0.0
C1060 C 0.48393 0.86066 0.49819 0.0
C1061 C 0.46181 0.85604 0.49273 0.0
C1062 C 0.55431 0.87321 0.50066 0.0
C1063 C 0.56068 0.88752 0.48679 0.0
C1064 C 0.53199 0.87368 0.50701 0.0
C1065 C 0.51582 0.88837 0.49944 0.0
C1066 C 0.52319 0.90456 0.48708 0.0
C1067 C 0.5454 0.90397 0.48071 0.0
H1068 H 0.06644 0.09557 0.99093 0.0
H1069 H 0.04983 0.16697 0.98951 0.0
H1070 H 0.02727 0.08681 -0.0005 0.0
H1071 H 0.01106 0.15844 -0.00185 0.0
H1072 H 0.94103 0.14384 0.00479 0.0
H1073 H 0.97995 0.14205 0.01625 0.0
H1074 H 0.99649 0.09135 0.9772 0.0
H1075 H 0.95791 0.09336 0.9659 0.0
C1076 C 0.05471 0.10944 0.99329 0.0
C1077 C 0.0609 0.13189 0.98928 0.0
C1078 C 0.0323 0.10444 -0.00186 0.0
C1079 C 0.01598 0.12189 -0.00078 0.0
C1080 C 0.02315 0.14457 -0.00248 0.0
C1081 C 0.04536 0.1495 0.99243 0.0
C1082 C 0.95276 0.13152 -0.00067 0.0
C1083 C 0.94674 0.11879 0.98448 0.0
C1084 C 0.97501 0.13055 0.00581 0.0
C1085 C 0.99138 0.11679 -0.00251 0.0
C1086 C 0.98434 0.10199 0.98404 0.0
C1087 C 0.96225 0.10318 0.97747 0.0
H1088 H 0.15776 0.43775 0.00883 0.0
H1089 H 0.13308 0.46199 0.95881 0.0
H1090 H 0.16197 0.47728 0.01879 0.0
H1091 H 0.13707 0.50099 0.96866 0.0
H1092 H 0.15805 0.57096 0.9867 0.0
H1093 H 0.16324 0.53142 0.97715 0.0
H1094 H 0.13539 0.50791 0.02639 0.0
H1095 H 0.13043 0.54699 0.03587 0.0
C1096 C 0.15348 0.45145 -8e-05 0.0
C1097 C 0.14488 0.44668 0.98311 0.0
C1098 C 0.1558 0.47409 0.00561 0.0
C1099 C 0.14984 0.49239 0.99452 0.0
C1100 C 0.14211 0.48746 0.9775 0.0
C1101 C 0.1396 0.46499 0.97192 0.0
C1102 C 0.15336 0.55732 0.99553 0.0
C1103 C 0.14362 0.56217 0.01195 0.0
C1104 C 0.15623 0.53466 0.99007 0.0
C1105 C 0.14965 0.5164 0.00099 0.0
C1106 C 0.14089 0.5214 0.0177 0.0
C1107 C 0.13785 0.54392 0.02306 0.0
H1108 H 0.80389 0.87505 0.20906 0.0
H1109 H 0.82657 0.90424 0.25805 0.0
H1110 H 0.76457 0.87906 0.21831 0.0
H1111 H 0.78685 0.90839 0.26736 0.0
H1112 H 0.71718 0.87889 0.28539 0.0
H1113 H 0.75637 0.88206 0.27581 0.0
H1114 H 0.73377 0.90629 0.2252 0.0
H1115 H 0.69404 0.90297 0.23489 0.0
C1116 C 0.80049 0.88248 0.22181 0.0
C1117 C 0.81846 0.88914 0.23289 0.0
C1118 C 0.77785 0.88499 0.22703 0.0
C1119 C 0.77245 0.89407 0.24357 0.0
C1120 C 0.79041 0.90117 0.25457 0.0
C1121 C 0.81317 0.89884 0.24925 0.0
C1122 C 0.72047 0.8851 0.27223 0.0
C1123 C 0.70241 0.8905 0.26084 0.0
C1124 C 0.74305 0.88711 0.2668 0.0
C1125 C 0.74833 0.89441 0.24974 0.0
C1126 C 0.73029 0.90043 0.23841 0.0
C1127 C 0.70755 0.89865 0.24396 0.0
H1128 H 0.37563 0.46072 0.53745 0.0
H1129 H 0.35454 0.43634 0.48651 0.0
H1130 H 0.37025 0.49967 0.52793 0.0
H1131 H 0.3488 0.47582 0.47689 0.0
H1132 H 0.37966 0.5459 0.46093 0.0
H1133 H 0.37491 0.50682 0.47026 0.0
H1134 H 0.34451 0.52985 0.51874 0.0
H1135 H 0.34957 0.5695 0.50935 0.0
C1136 C 0.36948 0.46368 0.52423 0.0
C1137 C 0.36578 0.44539 0.51265 0.0
C1138 C 0.36617 0.48612 0.51883 0.0
C1139 C 0.35919 0.49101 0.50162 0.0
C1140 C 0.35443 0.47267 0.49021 0.0
C1141 C 0.35758 0.45005 0.49571 0.0
C1142 C 0.37179 0.54275 0.47356 0.0
C1143 C 0.36525 0.56091 0.4845 0.0
C1144 C 0.36881 0.52021 0.47881 0.0
C1145 C 0.35931 0.51506 0.49524 0.0
C1146 C 0.35206 0.5332 0.50603 0.0
C1147 C 0.3549 0.55592 0.50067 0.0
H1148 H 0.82029 0.10905 0.73387 0.0
H1149 H 0.79624 0.13131 0.78461 0.0
H1150 H 0.78075 0.10491 0.72398 0.0
H1151 H 0.75716 0.1273 0.77483 0.0
H1152 H 0.6873 0.10506 0.75597 0.0
H1153 H 0.72696 0.10071 0.76556 0.0
H1154 H 0.74983 0.13193 0.71736 0.0
H1155 H 0.71066 0.13617 0.70788 0.0
C1156 C 0.80663 0.11279 0.74295 0.0
C1157 C 0.81146 0.12071 0.75995 0.0
C1158 C 0.78397 0.11052 0.7373 0.0
C1159 C 0.7657 0.11581 0.74861 0.0
C1160 C 0.77068 0.12281 0.76581 0.0
C1161 C 0.79319 0.12532 0.77136 0.0
C1162 C 0.70085 0.11073 0.74739 0.0
C1163 C 0.69577 0.12114 0.73125 0.0
C1164 C 0.72356 0.10833 0.75287 0.0
C1165 C 0.74166 0.11598 0.74222 0.0
C1166 C 0.73646 0.12558 0.72582 0.0
C1167 C 0.71389 0.12821 0.72047 0.0
H1168 H 0.88675 0.54961 0.03446 0.0
H1169 H 0.8604 0.57057 0.98407 0.0
H1170 H 0.88415 0.51 0.02566 0.0
H1171 H 0.85774 0.5305 0.97518 0.0
H1172 H 0.88881 0.46055 0.95944 0.0
H1173 H 0.88527 0.50001 0.96835 0.0
H1174 H 0.85766 0.47873 0.01825 0.0
H1175 H 0.86127 0.43876 0.00925 0.0
C1176 C 0.88025 0.54577 0.02149 0.0
C1177 C 0.87396 0.56335 0.0099 0.0
C1178 C 0.87856 0.52295 0.01652 0.0
C1179 C 0.87073 0.51697 -0.00027 0.0
C1180 C 0.86401 0.53452 0.98819 0.0
C1181 C 0.86546 0.55747 0.99327 0.0
C1182 C 0.88188 0.46417 0.97233 0.0
C1183 C 0.87549 0.44639 0.9837 0.0
C1184 C 0.87964 0.48691 0.97735 0.0
C1185 C 0.87113 0.49264 0.99399 0.0
C1186 C 0.86442 0.4749 0.00536 0.0
C1187 C 0.86642 0.452 0.00021 0.0
H1188 H 0.21213 0.12735 0.78621 0.0
H1189 H 0.18778 0.10869 0.7347 0.0
H1190 H 0.25112 0.12383 0.77622 0.0
H1191 H 0.22731 0.10502 0.72457 0.0
H1192 H 0.29763 0.137 0.7097 0.0
H1193 H 0.25842 0.13219 0.71894 0.0
H1194 H 0.28114 0.09805 0.76598 0.0
H1195 H 0.32079 0.10303 0.75667 0.0
C1196 C 0.21511 0.12223 0.77274 0.0
C1197 C 0.19678 0.11851 0.7612 0.0
C1198 C 0.23757 0.12 0.76705 0.0
C1199 C 0.24247 0.11418 0.74958 0.0
C1200 C 0.22414 0.10972 0.73811 0.0
C1201 C 0.2015 0.1117 0.7439 0.0
C1202 C 0.29436 0.1283 0.72198 0.0
C1203 C 0.31244 0.12059 0.73254 0.0
C1204 C 0.27176 0.12534 0.72718 0.0
C1205 C 0.26651 0.11473 0.7432 0.0
C1206 C 0.28457 0.10646 0.7536 0.0
C1207 C 0.30729 0.10924 0.74828 0.0
H1208 H 0.65204 0.43974 0.48663 0.0
H1209 H 0.62393 0.46283 0.53588 0.0
H1210 H 0.6558 0.47945 0.47702 0.0
H1211 H 0.62765 0.5021 0.52639 0.0
H1212 H 0.64954 0.5728 0.5086 0.0
H1213 H 0.65432 0.53329 0.51853 0.0
H1214 H 0.62798 0.5093 0.46895 0.0
H1215 H 0.62325 0.54827 0.45917 0.0
C1216 C 0.64694 0.45324 0.49547 0.0
C1217 C 0.63748 0.44808 0.51193 0.0
C1218 C 0.64901 0.47598 0.48997 0.0
C1219 C 0.64199 0.49403 0.50094 0.0
C1220 C 0.63347 0.48876 0.51767 0.0
C1221 C 0.63113 0.46615 0.52303 0.0
C1222 C 0.64502 0.55905 0.49981 0.0
C1223 C 0.63581 0.56374 0.48318 0.0
C1224 C 0.64769 0.53642 0.50548 0.0
C1225 C 0.64155 0.51806 0.49452 0.0
C1226 C 0.63316 0.5229 0.47767 0.0
C1227 C 0.63023 0.54535 0.47214 0.0
H1228 H 0.19393 0.90388 0.26106 0.0
H1229 H 0.2171 0.88394 0.2095 0.0
H1230 H 0.23367 0.90674 0.27083 0.0
H1231 H 0.25628 0.88662 0.21915 0.0
H1232 H 0.32651 0.90696 0.23776 0.0
H1233 H 0.2868 0.91197 0.22872 0.0
H1234 H 0.26448 0.87932 0.2765 0.0
H1235 H 0.30379 0.87452 0.28552 0.0
C1236 C 0.20744 0.90039 0.25179 0.0
C1237 C 0.20232 0.8935 0.23457 0.0
C1238 C 0.2302 0.9019 0.25737 0.0
C1239 C 0.24824 0.89686 0.24577 0.0
C1240 C 0.24296 0.89089 0.22839 0.0
C1241 C 0.22038 0.88915 0.22292 0.0
C1242 C 0.3131 0.90102 0.24635 0.0
C1243 C 0.31839 0.89016 0.26227 0.0
C1244 C 0.29034 0.90384 0.24118 0.0
C1245 C 0.27237 0.89605 0.2519 0.0
C1246 C 0.27776 0.88581 0.26802 0.0
C1247 C 0.30041 0.88285 0.2731 0.0
H1248 H 0.62471 0.05018 0.53332 0.0
H1249 H 0.6562 0.07201 0.48495 0.0
H1250 H 0.62909 0.01071 0.52461 0.0
H1251 H 0.66075 0.03208 0.47618 0.0
H1252 H 0.63103 0.96237 0.45799 0.0
H1253 H 0.63462 1.00168 0.46723 0.0
H1254 H 0.65592 0.97949 0.51873 0.0
H1255 H 0.65216 0.93967 0.50938 0.0
C1256 C 0.63279 0.04655 0.52084 0.0
C1257 C 0.63992 0.06434 0.50975 0.0
C1258 C 0.6355 0.02381 0.51593 0.0
C1259 C 0.64526 0.01811 0.49969 0.0
C1260 C 0.65299 0.03587 0.48875 0.0
C1261 C 0.65047 0.05875 0.49377 0.0
C1262 C 0.63668 0.96577 0.47127 0.0
C1263 C 0.64111 0.9478 0.48301 0.0
C1264 C 0.63895 0.98842 0.47652 0.0
C1265 C 0.64555 0.99387 0.49373 0.0
C1266 C 0.65062 0.9759 0.50539 0.0
C1267 C 0.64857 0.95309 0.50005 0.0
H1268 H 0.20978 0.37251 0.78421 0.0
H1269 H 0.18804 0.4077 0.73735 0.0
H1270 H 0.24924 0.37723 0.77561 0.0
H1271 H 0.22792 0.41264 0.72873 0.0
H1272 H 0.29738 0.38355 0.70927 0.0
H1273 H 0.25815 0.38748 0.71856 0.0
H1274 H 0.28059 0.40424 0.771 0.0
H1275 H 0.32037 0.40009 0.76156 0.0
C1276 C 0.21341 0.38142 0.77208 0.0
C1277 C 0.19566 0.38953 0.76137 0.0
C1278 C 0.23615 0.38435 0.76725 0.0
C1279 C 0.24187 0.39538 0.7515 0.0
C1280 C 0.22413 0.40392 0.74091 0.0
C1281 C 0.20127 0.40112 0.74583 0.0
C1282 C 0.29403 0.3884 0.72276 0.0
C1283 C 0.31202 0.39132 0.73473 0.0
C1284 C 0.27144 0.39084 0.72805 0.0
C1285 C 0.26609 0.39607 0.74555 0.0
C1286 C 0.28411 0.39997 0.75743 0.0
C1287 C 0.30689 0.39777 0.75204 0.0
H1288 H 0.85096 0.93819 0.98616 0.0
H1289 H 0.88283 0.96234 0.03372 0.0
H1290 H 0.84595 0.97772 0.97643 0.0
H1291 H 0.87804 1.00133 0.02407 0.0
H1292 H 0.85434 0.0713 0.00801 0.0
H1293 H 0.85077 0.03175 0.01794 0.0
H1294 H 0.8713 0.00833 0.96657 0.0
H1295 H 0.87464 0.04746 0.95672 0.0
C1296 C 0.85672 0.95187 0.99457 0.0
C1297 C 0.86746 0.94706 0.01062 0.0
C1298 C 0.85392 0.97451 0.98901 0.0
C1299 C 0.86157 0.99278 -0.00051 0.0
C1300 C 0.87163 0.98783 0.01576 0.0
C1301 C 0.8746 0.96535 0.0212 0.0
C1302 C 0.85776 0.05767 -0.00118 0.0
C1303 C 0.86498 0.06257 0.98165 0.0
C1304 C 0.85583 0.03501 0.00449 0.0
C1305 C 0.86084 0.01679 0.99306 0.0
C1306 C 0.86707 0.02181 0.97569 0.0
C1307 C 0.86919 0.04434 0.97009 0.0
H1308 H 0.29499 0.62498 0.28682 0.0
H1309 H 0.31885 0.61001 0.23446 0.0
H1310 H 0.25593 0.62255 0.27687 0.0
H1311 H 0.27923 0.60736 0.22437 0.0
H1312 H 0.20932 0.64078 0.21098 0.0
H1313 H 0.24847 0.63499 0.21996 0.0
H1314 H 0.2255 0.59826 0.26575 0.0
H1315 H 0.18589 0.6043 0.25675 0.0
C1316 C 0.29188 0.62089 0.27316 0.0
C1317 C 0.31009 0.61793 0.26138 0.0
C1318 C 0.26938 0.61928 0.26749 0.0
C1319 C 0.26432 0.61482 0.24981 0.0
C1320 C 0.28253 0.61104 0.23807 0.0
C1321 C 0.30521 0.61242 0.24383 0.0
C1322 C 0.21252 0.63133 0.22294 0.0
C1323 C 0.19438 0.6232 0.23325 0.0
C1324 C 0.23508 0.6278 0.22798 0.0
C1325 C 0.24026 0.61613 0.24356 0.0
C1326 C 0.22214 0.60749 0.25372 0.0
C1327 C 0.19944 0.6109 0.24857 0.0
H1328 H 0.35971 0.06894 0.48406 0.0
H1329 H 0.37686 0.04519 0.53604 0.0
H1330 H 0.35561 0.02934 0.47427 0.0
H1331 H 0.37297 0.00606 0.52638 0.0
H1332 H 0.35235 0.93623 0.50685 0.0
H1333 H 0.34767 0.97596 0.51601 0.0
H1334 H 0.38258 0.99812 0.46915 0.0
H1335 H 0.38704 0.95882 0.46002 0.0
C1336 C 0.3622 0.05533 0.49345 0.0
C1337 C 0.36878 0.06022 0.51077 0.0
C1338 C 0.36002 0.03264 0.48784 0.0
C1339 C 0.36409 0.01443 0.49952 0.0
C1340 C 0.36949 0.01952 0.51705 0.0
C1341 C 0.3719 0.04204 0.52255 0.0
C1342 C 0.35887 0.94962 0.49849 0.0
C1343 C 0.37024 0.94428 0.48279 0.0
C1344 C 0.35623 0.97239 0.50372 0.0
C1345 C 0.36471 0.99032 0.4933 0.0
C1346 C 0.37551 0.98488 0.47739 0.0
C1347 C 0.37829 0.96223 0.47225 0.0
H1348 H 0.68771 0.62384 0.23079 0.0
H1349 H 0.70603 0.61183 0.28477 0.0
H1350 H 0.72754 0.6205 0.22225 0.0
H1351 H 0.74552 0.60655 0.27635 0.0
H1352 H 0.81751 0.62711 0.26003 0.0
H1353 H 0.77774 0.62504 0.26893 0.0
H1354 H 0.75983 0.60086 0.21701 0.0
H1355 H 0.79928 0.60487 0.20802 0.0
C1356 C 0.70024 0.61976 0.24073 0.0
C1357 C 0.69384 0.61812 0.25841 0.0
C1358 C 0.7232 0.61773 0.23589 0.0
C1359 C 0.74025 0.61341 0.24859 0.0
C1360 C 0.73334 0.61057 0.26617 0.0
C1361 C 0.71057 0.61327 0.27102 0.0
C1362 C 0.80502 0.62099 0.2507 0.0
C1363 C 0.81141 0.61609 0.23339 0.0
C1364 C 0.78209 0.61972 0.25575 0.0
C1365 C 0.76506 0.61297 0.24369 0.0
C1366 C 0.77198 0.60682 0.22662 0.0
C1367 C 0.79474 0.60875 0.22149 0.0
H1368 H 0.12041 0.96065 0.03456 0.0
H1369 H 0.14916 0.9376 0.9855 0.0
H1370 H 0.12444 0.99987 0.02522 0.0
H1371 H 0.15325 0.97737 0.97604 0.0
H1372 H 0.12465 0.04838 0.95876 0.0
H1373 H 0.12715 0.00884 0.96784 0.0
H1374 H 0.15238 0.02994 0.01853 0.0
H1375 H 0.14981 0.06989 0.00937 0.0
C1376 C 0.12772 0.96394 0.02175 0.0
C1377 C 0.1343 0.94587 0.01071 0.0
C1378 C 0.13024 0.98655 0.01647 0.0
C1379 C 0.13923 0.99189 -9e-05 0.0
C1380 C 0.14613 0.97386 0.98888 0.0
C1381 C 0.14385 0.95108 0.99428 0.0
C1382 C 0.13089 0.04467 0.97183 0.0
C1383 C 0.13684 0.06239 0.98341 0.0
C1384 C 0.13252 0.0219 0.97697 0.0
C1385 C 0.13994 0.01611 0.99392 0.0
C1386 C 0.14641 0.0338 0.00541 0.0
C1387 C 0.14502 0.05669 0.00017 0.0
H1388 H 0.82163 0.40703 0.73642 0.0
H1389 H 0.799 0.37532 0.78449 0.0
H1390 H 0.78185 0.41129 0.72716 0.0
H1391 H 0.75974 0.37945 0.77531 0.0
H1392 H 0.6891 0.4021 0.75997 0.0
H1393 H 0.72882 0.40656 0.76932 0.0
H1394 H 0.75142 0.38514 0.71796 0.0
H1395 H 0.71216 0.38086 0.7087 0.0
C1396 C 0.80823 0.40111 0.74503 0.0
C1397 C 0.81355 0.39065 0.7611 0.0
C1398 C 0.78544 0.40351 0.73975 0.0
C1399 C 0.76752 0.39576 0.75052 0.0
C1400 C 0.77297 0.38593 0.76679 0.0
C1401 C 0.7956 0.38333 0.77195 0.0
C1402 C 0.70258 0.39873 0.75065 0.0
C1403 C 0.69745 0.39093 0.73367 0.0
C1404 C 0.72533 0.40115 0.756 0.0
C1405 C 0.74338 0.3961 0.7444 0.0
C1406 C 0.73808 0.3894 0.72719 0.0
C1407 C 0.71548 0.38676 0.72194 0.0
H1408 H 0.13715 0.8168 -0.0008 0.0
H1409 H 0.16274 0.80546 0.05149 0.0
H1410 H 0.14316 0.77654 0.9923 0.0
H1411 H 0.16821 0.7655 0.04498 0.0
H1412 H 0.17243 0.6927 0.03464 0.0
H1413 H 0.18298 0.73278 0.0313 0.0
H1414 H 0.12194 0.74423 0.00097 0.0
H1415 H 0.11208 0.70432 0.00398 0.0
C1416 C 0.14505 0.80595 0.00895 0.0
C1417 C 0.1495 0.81433 0.02588 0.0
C1418 C 0.14812 0.78273 0.00513 0.0
C1419 C 0.15573 0.76741 0.01818 0.0
C1420 C 0.16246 0.77649 0.03448 0.0
C1421 C 0.15934 0.79956 0.03826 0.0
C1422 C 0.16197 0.70361 0.02652 0.0
C1423 C 0.14164 0.69532 0.01933 0.0
C1424 C 0.16776 0.72672 0.02483 0.0
C1425 C 0.15317 0.74209 0.01608 0.0
C1426 C 0.13385 0.73315 0.00762 0.0
C1427 C 0.12814 0.71014 0.0093 0.0
H1428 H 0.56254 0.90984 0.30108 0.0
H1429 H 0.57135 0.88939 0.24718 0.0
H1430 H 0.5229 0.91816 0.29561 0.0
H1431 H 0.53131 0.89834 0.2413 0.0
H1432 H 0.45664 0.87215 0.25204 0.0
H1433 H 0.49702 0.87962 0.24835 0.0
H1434 H 0.49164 0.93673 0.28384 0.0
H1435 H 0.45138 0.92821 0.28813 0.0
C1436 C 0.55616 0.90816 0.28778 0.0
C1437 C 0.57011 0.89907 0.27456 0.0
C1438 C 0.53327 0.91296 0.28458 0.0
C1439 C 0.52348 0.90871 0.26801 0.0
C1440 C 0.53802 0.90151 0.25431 0.0
C1441 C 0.56112 0.89673 0.25756 0.0
C1442 C 0.46388 0.887 0.25833 0.0
C1443 C 0.45078 0.89978 0.27018 0.0
C1444 C 0.4872 0.89127 0.25631 0.0
C1445 C 0.498 0.9085 0.26612 0.0
C1446 C 0.48419 0.92291 0.27642 0.0
C1447 C 0.46094 0.91838 0.27863 0.0
H1448 H 0.40462 0.20136 0.50293 0.0
H1449 H 0.34567 0.19173 0.53559 0.0
H1450 H 0.3961 0.24177 0.50054 0.0
H1451 H 0.33672 0.23232 0.53309 0.0
H1452 H 0.36156 0.30424 0.55257 0.0
H1453 H 0.3555 0.26409 0.54671 0.0
H1454 H 0.37358 0.27469 0.49233 0.0
H1455 H 0.37978 0.31522 0.49842 0.0
C1456 C 0.38914 0.20775 0.50886 0.0
C1457 C 0.37559 0.19332 0.51919 0.0
C1458 C 0.38424 0.23101 0.50756 0.0
C1459 C 0.36582 0.24056 0.51678 0.0
C1460 C 0.3512 0.22569 0.52597 0.0
C1461 C 0.35609 0.20234 0.52719 0.0
C1462 C 0.36332 0.29817 0.53919 0.0
C1463 C 0.37098 0.31293 0.52594 0.0
C1464 C 0.35984 0.27505 0.53579 0.0
C1465 C 0.36424 0.26589 0.51905 0.0
C1466 C 0.37024 0.28104 0.50543 0.0
C1467 C 0.37349 0.30435 0.50883 0.0
H1468 H 0.95213 0.1475 0.75304 0.0
H1469 H 0.94346 0.08885 0.78615 0.0
H1470 H 0.99246 0.1391 0.75013 0.0
H1471 H 0.98384 0.07972 0.78288 0.0
H1472 H 0.05569 0.10313 0.80192 0.0
H1473 H 0.01571 0.09693 0.79595 0.0
H1474 H 0.02583 0.11852 0.74225 0.0
H1475 H 0.06621 0.12515 0.74858 0.0
C1476 C 0.95867 0.13203 0.75889 0.0
C1477 C 0.94455 0.11862 0.76956 0.0
C1478 C 0.98193 0.1272 0.7573 0.0
C1479 C 0.99176 0.10888 0.76649 0.0
C1480 C 0.97709 0.09423 0.77586 0.0
C1481 C 0.95381 0.09917 0.7775 0.0
C1482 C 0.04958 0.10565 0.78863 0.0
C1483 C 0.06416 0.1145 0.77571 0.0
C1484 C 0.0265 0.10209 0.78515 0.0
C1485 C 0.01717 0.10746 0.76863 0.0
C1486 C 0.03223 0.1145 0.75522 0.0
C1487 C 0.05549 0.11796 0.75872 0.0
H1488 H 0.12158 0.20191 0.99314 0.0
H1489 H 0.17859 0.19452 0.9582 0.0
H1490 H 0.12974 0.24225 0.99628 0.0
H1491 H 0.18773 0.23474 0.96193 0.0
H1492 H 0.16291 0.30576 0.94311 0.0
H1493 H 0.17009 0.26607 0.94931 0.0
H1494 H 0.14905 0.27637 0.00314 0.0
H1495 H 0.14128 0.31647 0.99652 0.0
C1496 C 0.13676 0.20867 0.98701 0.0
C1497 C 0.14963 0.19496 0.97563 0.0
C1498 C 0.14143 0.23197 0.98871 0.0
C1499 C 0.15914 0.24217 0.97904 0.0
C1500 C 0.17357 0.22778 0.96924 0.0
C1501 C 0.16868 0.20453 0.96737 0.0
C1502 C 0.1607 0.29977 0.95647 0.0
C1503 C 0.15163 0.3143 0.96932 0.0
C1504 C 0.16484 0.27684 0.9601 0.0
C1505 C 0.15993 0.26759 0.97674 0.0
C1506 C 0.15272 0.28266 0.99009 0.0
C1507 C 0.14862 0.30579 0.98641 0.0
H1508 H 0.95634 0.87326 0.24247 0.0
H1509 H 0.9512 0.92995 0.20696 0.0
H1510 H 0.99665 0.88081 0.24646 0.0
H1511 H 0.99135 0.93858 0.21159 0.0
H1512 H 0.06251 0.91261 0.19443 0.0
H1513 H 0.0228 0.92054 0.1998 0.0
H1514 H 0.03084 0.89937 0.25385 0.0
H1515 H 0.07097 0.89076 0.24803 0.0
C1516 C 0.96358 0.88826 0.23638 0.0
C1517 C 0.95055 0.90119 0.22459 0.0
C1518 C 0.98686 0.89258 0.23857 0.0
C1519 C 0.99769 0.91003 0.22902 0.0
C1520 C 0.98391 0.92458 0.21881 0.0
C1521 C 0.96071 0.91999 0.21641 0.0
C1522 C 0.05603 0.91053 0.20766 0.0
C1523 C 0.06991 0.90117 0.22081 0.0
C1524 C 0.03308 0.91511 0.21082 0.0
C1525 C 0.02318 0.91039 0.22726 0.0
C1526 C 0.03764 0.90289 0.24092 0.0
C1527 C 0.06078 0.89832 0.23771 0.0
H1528 H 0.34685 0.70045 0.44342 0.0
H1529 H 0.36675 0.69181 0.49746 0.0
H1530 H 0.33882 0.74017 0.44869 0.0
H1531 H 0.358 0.73194 0.50316 0.0
H1532 H 0.38489 0.80631 0.49252 0.0
H1533 H 0.37692 0.76603 0.49629 0.0
H1534 H 0.32067 0.77175 0.46002 0.0
H1535 H 0.32977 0.81186 0.45562 0.0
C1536 C 0.34847 0.7069 0.4567 0.0
C1537 C 0.35737 0.69296 0.47002 0.0
C1538 C 0.34382 0.72985 0.4598 0.0
C1539 C 0.34799 0.73971 0.47635 0.0
C1540 C 0.35493 0.72518 0.49015 0.0
C1541 C 0.35958 0.70203 0.487 0.0
C1542 C 0.37012 0.79917 0.48605 0.0
C1543 C 0.35778 0.8123 0.47395 0.0
C1544 C 0.36555 0.77591 0.48812 0.0
C1545 C 0.34844 0.7652 0.47814 0.0
C1546 C 0.33441 0.77909 0.46758 0.0
C1547 C 0.33927 0.80227 0.4653 0.0
H1548 H 0.45179 0.13819 0.74181 0.0
H1549 H 0.44426 0.08513 0.70334 0.0
H1550 H 0.49205 0.12957 0.74447 0.0
H1551 H 0.48443 0.0754 0.70654 0.0
H1552 H 0.55576 0.1016 0.68971 0.0
H1553 H 0.51612 0.09358 0.69533 0.0
H1554 H 0.52591 0.10972 0.75023 0.0
H1555 H 0.56591 0.11849 0.74421 0.0
C1556 C 0.45852 0.12371 0.73471 0.0
C1557 C 0.4448 0.11212 0.72256 0.0
C1558 C 0.48178 0.11876 0.73615 0.0
C1559 C 0.49193 0.10204 0.72544 0.0
C1560 C 0.47752 0.0888 0.7147 0.0
C1561 C 0.45431 0.09401 0.71309 0.0
C1562 C 0.54968 0.10253 0.70314 0.0
C1563 C 0.564 0.11066 0.7165 0.0
C1564 C 0.52677 0.0979 0.70643 0.0
C1565 C 0.51736 0.10131 0.72325 0.0
C1566 C 0.5323 0.1073 0.73703 0.0
C1567 C 0.55539 0.11194 0.73368 0.0
H1568 H 0.87466 0.31641 -0.00295 0.0
H1569 H 0.84255 0.30654 0.94678 0.0
H1570 H 0.86904 0.27609 0.00388 0.0
H1571 H 0.8373 0.2665 0.95323 0.0
H1572 H 0.83388 0.19342 0.96309 0.0
H1573 H 0.82401 0.23346 0.96791 0.0
H1574 H 0.88926 0.24419 0.99261 0.0
H1575 H 0.89858 0.20437 0.98809 0.0
C1576 C 0.86538 0.30589 0.98784 0.0
C1577 C 0.85898 0.31467 0.97141 0.0
C1578 C 0.8625 0.28264 0.99158 0.0
C1579 C 0.85314 0.26771 0.97897 0.0
C1580 C 0.84445 0.27721 0.96338 0.0
C1581 C 0.84741 0.30033 0.95965 0.0
C1582 C 0.84554 0.20415 0.97033 0.0
C1583 C 0.86686 0.19573 0.97544 0.0
C1584 C 0.84009 0.22722 0.97286 0.0
C1585 C 0.85593 0.24237 0.98045 0.0
C1586 C 0.87642 0.23325 0.98693 0.0
C1587 C 0.88183 0.21031 0.98436 0.0
H1588 H 0.67363 0.81545 0.45779 0.0
H1589 H 0.61508 0.80698 0.49104 0.0
H1590 H 0.68239 0.77496 0.46076 0.0
H1591 H 0.62313 0.76653 0.49365 0.0
H1592 H 0.63579 0.69267 0.49417 0.0
H1593 H 0.64344 0.7327 0.50103 0.0
H1594 H 0.66443 0.74371 0.4473 0.0
H1595 H 0.65722 0.70404 0.44077 0.0
C1596 C 0.66328 0.80512 0.46644 0.0
C1597 C 0.64393 0.81446 0.47446 0.0
C1598 C 0.66801 0.78177 0.4679 0.0
C1599 C 0.65324 0.76714 0.47717 0.0
C1600 C 0.6351 0.77704 0.48653 0.0
C1601 C 0.63048 0.80037 0.48512 0.0
C1602 C 0.64307 0.70346 0.48411 0.0
C1603 C 0.64596 0.69517 0.46694 0.0
C1604 C 0.64712 0.72654 0.48793 0.0
C1605 C 0.65424 0.74178 0.47468 0.0
C1606 C 0.65918 0.73275 0.45798 0.0
C1607 C 0.65503 0.70986 0.45417 0.0
H1608 H 0.83088 0.6957 0.03705 0.0
H1609 H 0.88626 0.70212 0.00046 0.0
H1610 H 0.82204 0.73598 0.03342 0.0
H1611 H 0.87847 0.74256 -0.00258 0.0
H1612 H 0.86805 0.81697 -0.00251 0.0
H1613 H 0.85944 0.77698 0.99111 0.0
H1614 H 0.84055 0.76707 0.04546 0.0
H1615 H 0.84852 0.80666 0.05143 0.0
C1616 C 0.84047 0.70552 0.02756 0.0
C1617 C 0.85899 0.69565 0.0188 0.0
C1618 C 0.83576 0.72881 0.02574 0.0
C1619 C 0.84991 0.74296 0.0155 0.0
C1620 C 0.86702 0.73247 0.00536 0.0
C1621 C 0.87146 0.70911 0.00699 0.0
C1622 C 0.86098 0.80642 0.00779 0.0
C1623 C 0.85882 0.81499 0.02494 0.0
C1624 C 0.85641 0.78334 0.00425 0.0
C1625 C 0.84956 0.7684 0.01779 0.0
C1626 C 0.84548 0.77775 0.03453 0.0
C1627 C 0.85008 0.80062 0.03803 0.0
H1628 H 0.64051 0.31905 0.49814 0.0
H1629 H 0.65798 0.30707 0.55231 0.0
H1630 H 0.64911 0.27922 0.49128 0.0
H1631 H 0.6659 0.26759 0.54584 0.0
H1632 H 0.67435 0.19603 0.5363 0.0
H1633 H 0.68412 0.23628 0.53368 0.0
H1634 H 0.62904 0.24526 0.49676 0.0
H1635 H 0.62026 0.20498 0.49888 0.0
C1636 C 0.64714 0.30817 0.50842 0.0
C1637 C 0.64863 0.31621 0.52576 0.0
C1638 C 0.6517 0.28518 0.50459 0.0
C1639 C 0.65785 0.26978 0.51803 0.0
C1640 C 0.66146 0.27863 0.535 0.0
C1641 C 0.65689 0.30143 0.53878 0.0
C1642 C 0.66527 0.20641 0.52686 0.0
C1643 C 0.64682 0.19727 0.51755 0.0
C1644 C 0.67051 0.22965 0.5256 0.0
C1645 C 0.65703 0.24443 0.51534 0.0
C1646 C 0.64001 0.23468 0.50471 0.0
C1647 C 0.63499 0.21142 0.50583 0.0
H1648 H 0.95317 0.41842 0.80087 0.0
H1649 H 0.94281 0.39464 0.74796 0.0
H1650 H 0.99275 0.42569 0.79458 0.0
H1651 H 0.98274 0.40268 0.74118 0.0
H1652 H 0.05638 0.3744 0.75184 0.0
H1653 H 0.01635 0.38343 0.74828 0.0
H1654 H 0.02469 0.44179 0.78221 0.0
H1655 H 0.06459 0.43165 0.78644 0.0
C1656 C 0.95918 0.41582 0.78756 0.0
C1657 C 0.94484 0.40594 0.77494 0.0
C1658 C 0.98207 0.42001 0.78388 0.0
C1659 C 0.99142 0.41442 0.76739 0.0
C1660 C 0.97641 0.40676 0.75415 0.0
C1661 C 0.95335 0.40254 0.7579 0.0
C1662 C 0.04987 0.38981 0.75781 0.0
C1663 C 0.06368 0.40248 0.76923 0.0
C1664 C 0.02675 0.39501 0.75585 0.0
C1665 C 0.01683 0.41311 0.76528 0.0
C1666 C 0.03141 0.42734 0.7751 0.0
C1667 C 0.05447 0.42186 0.77727 0.0
H1668 H 0.44055 0.62336 0.24865 0.0
H1669 H 0.45098 0.60087 0.30189 0.0
H1670 H 0.48082 0.61624 0.24221 0.0
H1671 H 0.49083 0.59436 0.29588 0.0
H1672 H 0.5628 0.58653 0.28678 0.0
H1673 H 0.52253 0.57732 0.2832 0.0
H1674 H 0.51446 0.63603 0.24963 0.0
H1675 H 0.55478 0.64431 0.25266 0.0
C1676 C 0.45123 0.616 0.25875 0.0
C1677 C 0.4426 0.61257 0.27575 0.0
C1678 C 0.47444 0.61227 0.25519 0.0
C1679 C 0.48945 0.60501 0.26856 0.0
C1680 C 0.4801 0.59967 0.28509 0.0
C1681 C 0.45709 0.60344 0.2886 0.0
C1682 C 0.5526 0.59666 0.27789 0.0
C1683 C 0.56199 0.61588 0.26975 0.0
C1684 C 0.52937 0.59169 0.27607 0.0
C1685 C 0.51485 0.6062 0.26643 0.0
C1686 C 0.52485 0.62425 0.25703 0.0
C1687 C 0.54811 0.62902 0.2587 0.0
H1688 H 0.44282 0.38155 0.74846 0.0
H1689 H 0.45265 0.39899 0.69403 0.0
H1690 H 0.48327 0.38878 0.75414 0.0
H1691 H 0.4927 0.40591 0.69943 0.0
H1692 H 0.56492 0.41622 0.70891 0.0
H1693 H 0.52441 0.42498 0.71195 0.0
H1694 H 0.51659 0.36726 0.74651 0.0
H1695 H 0.55701 0.35909 0.7437 0.0
C1696 C 0.4534 0.38788 0.73789 0.0
C1697 C 0.44454 0.38986 0.72083 0.0
C1698 C 0.47669 0.3917 0.74105 0.0
C1699 C 0.49153 0.3977 0.72722 0.0
C1700 C 0.48202 0.40159 0.71051 0.0
C1701 C 0.45894 0.39761 0.70737 0.0
C1702 C 0.55471 0.4062 0.71787 0.0
C1703 C 0.5642 0.38725 0.72634 0.0
C1704 C 0.53137 0.41094 0.7194 0.0
C1705 C 0.51693 0.39663 0.72926 0.0
C1706 C 0.52698 0.37887 0.73894 0.0
C1707 C 0.55027 0.37419 0.73741 0.0
H1708 H 0.95161 0.60456 0.18982 0.0
H1709 H 0.94024 0.62171 0.24413 0.0
H1710 H 0.99133 0.5974 0.19584 0.0
H1711 H 0.98041 0.61394 0.25054 0.0
H1712 H 0.05477 0.64261 0.24217 0.0
H1713 H 0.01443 0.63412 0.24466 0.0
H1714 H 0.02255 0.57875 0.20786 0.0
H1715 H 0.0628 0.58825 0.20485 0.0
C1716 C 0.9575 0.60588 0.20327 0.0
C1717 C 0.94277 0.6137 0.21648 0.0
C1718 C 0.98042 0.60169 0.2068 0.0
C1719 C 0.98947 0.60529 0.2237 0.0
C1720 C 0.97425 0.6113 0.2373 0.0
C1721 C 0.9511 0.61543 0.23372 0.0
C1722 C 0.04812 0.6279 0.23531 0.0
C1723 C 0.06201 0.61589 0.22351 0.0
C1724 C 0.02484 0.62304 0.23665 0.0
C1725 C 0.01485 0.60602 0.22616 0.0
C1726 C 0.02938 0.59238 0.21582 0.0
C1727 C 0.05262 0.59747 0.21434 0.0
loop_
_geom_bond_atom_site_label_1
_geom_bond_atom_site_label_2
_geom_bond_distance
_geom_bond_site_symmetry_2
_ccdc_geom_bond_type
Co0 O1 2.216 . S
Co0 O2 2.091 . S
Co0 O4 2.004 . S
Co0 O10 2.021 . S
Co0 O12 2.137 . S
Co0 O13 2.244 . S
O1 Co0 2.216 . S
O1 C8 1.247 . S
O2 Co0 2.091 . S
O2 C8 1.261 . S
C3 O12 1.247 . S
C3 O13 1.272 . S
O4 Co0 2.004 . S
O4 C9 1.259 . S
Co5 O6 2.061 . S
Co5 O11 2.052 . S
Co5 O13 2.135 . S
O6 Co5 2.061 . S
O6 C9 1.235 . S
C7 O10 1.238 . S
C7 O11 1.241 . S
C8 O1 1.247 . S
C8 O2 1.261 . S
C9 O4 1.259 . S
C9 O6 1.235 . S
O10 Co0 2.021 . S
O10 C7 1.238 . S
O11 Co5 2.052 . S
O11 C7 1.241 . S
O12 Co0 2.137 . S
O12 C3 1.247 . S
O13 Co0 2.244 . S
O13 C3 1.272 . S
O13 Co5 2.135 . S
Co14 O15 2.216 . S
Co14 O16 2.091 . S
Co14 O18 2.004 . S
Co14 O24 2.021 . S
Co14 O26 2.137 . S
Co14 O27 2.244 . S
O15 Co14 2.216 . S
O15 C22 1.247 . S
O16 Co14 2.091 . S
O16 C22 1.261 . S
C17 O26 1.247 . S
C17 O27 1.272 . S
O18 Co14 2.004 . S
O18 C23 1.259 . S
Co19 O20 2.061 . S
Co19 O25 2.052 . S
Co19 O27 2.135 . S
O20 Co19 2.061 . S
O20 C23 1.235 . S
C21 O24 1.238 . S
C21 O25 1.241 . S
C22 O15 1.247 . S
C22 O16 1.261 . S
C23 O18 1.259 . S
C23 O20 1.235 . S
O24 Co14 2.021 . S
O24 C21 1.238 . S
O25 Co19 2.052 . S
O25 C21 1.241 . S
O26 Co14 2.137 . S
O26 C17 1.247 . S
O27 Co14 2.244 . S
O27 C17 1.272 . S
O27 Co19 2.135 . S
Co28 O29 2.216 . S
Co28 O30 2.091 . S
Co28 O32 2.004 . S
Co28 O38 2.021 . S
Co28 O40 2.137 . S
Co28 O41 2.244 . S
O29 Co28 2.216 . S
O29 C36 1.247 . S
O30 Co28 2.091 . S
O30 C36 1.261 . S
C31 O40 1.247 . S
C31 O41 1.272 . S
O32 Co28 2.004 . S
O32 C37 1.259 . S
Co33 O34 2.061 . S
Co33 O39 2.052 . S
Co33 O41 2.135 . S
O34 Co33 2.061 . S
O34 C37 1.235 . S
C35 O38 1.238 . S
C35 O39 1.241 . S
C36 O29 1.247 . S
C36 O30 1.261 . S
C37 O32 1.259 . S
C37 O34 1.235 . S
O38 Co28 2.021 . S
O38 C35 1.238 . S
O39 Co33 2.052 . S
O39 C35 1.241 . S
O40 Co28 2.137 . S
O40 C31 1.247 . S
O41 Co28 2.244 . S
O41 C31 1.272 . S
O41 Co33 2.135 . S
Co42 O43 2.216 . S
Co42 O44 2.091 . S
Co42 O46 2.004 . S
Co42 O52 2.021 . S
Co42 O54 2.137 . S
Co42 O55 2.244 . S
O43 Co42 2.216 . S
O43 C50 1.247 . S
O44 Co42 2.091 . S
O44 C50 1.261 . S
C45 O54 1.247 . S
C45 O55 1.272 . S
O46 Co42 2.004 . S
O46 C51 1.259 . S
Co47 O48 2.061 . S
Co47 O53 2.052 . S
Co47 O55 2.135 . S
O48 Co47 2.061 . S
O48 C51 1.235 . S
C49 O52 1.238 . S
C49 O53 1.241 . S
C50 O43 1.247 . S
C50 O44 1.261 . S
C51 O46 1.259 . S
C51 O48 1.235 . S
O52 Co42 2.021 . S
O52 C49 1.238 . S
O53 Co47 2.052 . S
O53 C49 1.241 . S
O54 Co42 2.137 . S
O54 C45 1.247 . S
O55 Co42 2.244 . S
O55 C45 1.272 . S
O55 Co47 2.135 . S
Co56 O57 2.216 . S
Co56 O58 2.091 . S
Co56 O60 2.004 . S
Co56 O66 2.021 . S
Co56 O68 2.137 . S
Co56 O69 2.244 . S
O57 Co56 2.216 . S
O57 C64 1.247 . S
O58 Co56 2.091 . S
O58 C64 1.261 . S
C59 O68 1.247 . S
C59 O69 1.272 . S
O60 Co56 2.004 . S
O60 C65 1.259 . S
Co61 O62 2.061 . S
Co61 O67 2.052 . S
Co61 O69 2.135 . S
O62 Co61 2.061 . S
O62 C65 1.235 . S
C63 O66 1.238 . S
C63 O67 1.241 . S
C64 O57 1.247 . S
C64 O58 1.261 . S
C65 O60 1.259 . S
C65 O62 1.235 . S
O66 Co56 2.021 . S
O66 C63 1.238 . S
O67 Co61 2.052 . S
O67 C63 1.241 . S
O68 Co56 2.137 . S
O68 C59 1.247 . S
O69 Co56 2.244 . S
O69 C59 1.272 . S
O69 Co61 2.135 . S
Co70 O71 2.216 . S
Co70 O72 2.091 . S
Co70 O74 2.004 . S
Co70 O80 2.021 . S
Co70 O82 2.137 . S
Co70 O83 2.244 . S
O71 Co70 2.216 . S
O71 C78 1.247 . S
O72 Co70 2.091 . S
O72 C78 1.261 . S
C73 O82 1.247 . S
C73 O83 1.272 . S
O74 Co70 2.004 . S
O74 C79 1.259 . S
Co75 O76 2.061 . S
Co75 O81 2.052 . S
Co75 O83 2.135 . S
O76 Co75 2.061 . S
O76 C79 1.235 . S
C77 O80 1.238 . S
C77 O81 1.241 . S
C78 O71 1.247 . S
C78 O72 1.261 . S
C79 O74 1.259 . S
C79 O76 1.235 . S
O80 Co70 2.021 . S
O80 C77 1.238 . S
O81 Co75 2.052 . S
O81 C77 1.241 . S
O82 Co70 2.137 . S
O82 C73 1.247 . S
O83 Co70 2.244 . S
O83 C73 1.272 . S
O83 Co75 2.135 . S
Co84 O85 2.216 . S
Co84 O86 2.091 . S
Co84 O88 2.004 . S
Co84 O94 2.021 . S
Co84 O96 2.137 . S
Co84 O97 2.244 . S
O85 Co84 2.216 . S
O85 C92 1.247 . S
O86 Co84 2.091 . S
O86 C92 1.261 . S
C87 O96 1.247 . S
C87 O97 1.272 . S
O88 Co84 2.004 . S
O88 C93 1.259 . S
Co89 O90 2.061 . S
Co89 O95 2.052 . S
Co89 O97 2.135 . S
O90 Co89 2.061 . S
O90 C93 1.235 . S
C91 O94 1.238 . S
C91 O95 1.241 . S
C92 O85 1.247 . S
C92 O86 1.261 . S
C93 O88 1.259 . S
C93 O90 1.235 . S
O94 Co84 2.021 . S
O94 C91 1.238 . S
O95 Co89 2.052 . S
O95 C91 1.241 . S
O96 Co84 2.137 . S
O96 C87 1.247 . S
O97 Co84 2.244 . S
O97 C87 1.272 . S
O97 Co89 2.135 . S
Co98 O99 2.216 . S
Co98 O100 2.091 . S
Co98 O102 2.004 . S
Co98 O108 2.021 . S
Co98 O110 2.137 . S
Co98 O111 2.244 . S
O99 Co98 2.216 . S
O99 C106 1.247 . S
O100 Co98 2.091 . S
O100 C106 1.261 . S
C101 O110 1.247 . S
C101 O111 1.272 . S
O102 Co98 2.004 . S
O102 C107 1.259 . S
Co103 O104 2.061 . S
Co103 O109 2.052 . S
Co103 O111 2.135 . S
O104 Co103 2.061 . S
O104 C107 1.235 . S
C105 O108 1.238 . S
C105 O109 1.241 . S
C106 O99 1.247 . S
C106 O100 1.261 . S
C107 O102 1.259 . S
C107 O104 1.235 . S
O108 Co98 2.021 . S
O108 C105 1.238 . S
O109 Co103 2.052 . S
O109 C105 1.241 . S
O110 Co98 2.137 . S
O110 C101 1.247 . S
O111 Co98 2.244 . S
O111 C101 1.272 . S
O111 Co103 2.135 . S
Co112 O113 2.216 . S
Co112 O114 2.091 . S
Co112 O116 2.004 . S
Co112 O122 2.021 . S
Co112 O124 2.137 . S
Co112 O125 2.244 . S
O113 Co112 2.216 . S
O113 C120 1.247 . S
O114 Co112 2.091 . S
O114 C120 1.261 . S
C115 O124 1.247 . S
C115 O125 1.272 . S
O116 Co112 2.004 . S
O116 C121 1.259 . S
Co117 O118 2.061 . S
Co117 O123 2.052 . S
Co117 O125 2.135 . S
O118 Co117 2.061 . S
O118 C121 1.235 . S
C119 O122 1.238 . S
C119 O123 1.241 . S
C120 O113 1.247 . S
C120 O114 1.261 . S
C121 O116 1.259 . S
C121 O118 1.235 . S
O122 Co112 2.021 . S
O122 C119 1.238 . S
O123 Co117 2.052 . S
O123 C119 1.241 . S
O124 Co112 2.137 . S
O124 C115 1.247 . S
O125 Co112 2.244 . S
O125 C115 1.272 . S
O125 Co117 2.135 . S
Co126 O127 2.216 . S
Co126 O128 2.091 . S
Co126 O130 2.004 . S
Co126 O136 2.021 . S
Co126 O138 2.137 . S
Co126 O139 2.244 . S
O127 Co126 2.216 . S
O127 C134 1.247 . S
O128 Co126 2.091 . S
O128 C134 1.261 . S
C129 O138 1.247 . S
C129 O139 1.272 . S
O130 Co126 2.004 . S
O130 C135 1.259 . S
Co131 O132 2.061 . S
Co131 O137 2.052 . S
Co131 O139 2.135 . S
O132 Co131 2.061 . S
O132 C135 1.235 . S
C133 O136 1.238 . S
C133 O137 1.241 . S
C134 O127 1.247 . S
C134 O128 1.261 . S
C135 O130 1.259 . S
C135 O132 1.235 . S
O136 Co126 2.021 . S
O136 C133 1.238 . S
O137 Co131 2.052 . S
O137 C133 1.241 . S
O138 Co126 2.137 . S
O138 C129 1.247 . S
O139 Co126 2.244 . S
O139 C129 1.272 . S
O139 Co131 2.135 . S
Co140 O141 2.216 . S
Co140 O142 2.091 . S
Co140 O144 2.004 . S
Co140 O150 2.021 . S
Co140 O152 2.137 . S
Co140 O153 2.244 . S
O141 Co140 2.216 . S
O141 C148 1.247 . S
O142 Co140 2.091 . S
O142 C148 1.261 . S
C143 O152 1.247 . S
C143 O153 1.272 . S
O144 Co140 2.004 . S
O144 C149 1.259 . S
Co145 O146 2.061 . S
Co145 O151 2.052 . S
Co145 O153 2.135 . S
O146 Co145 2.061 . S
O146 C149 1.235 . S
C147 O150 1.238 . S
C147 O151 1.241 . S
C148 O141 1.247 . S
C148 O142 1.261 . S
C149 O144 1.259 . S
C149 O146 1.235 . S
O150 Co140 2.021 . S
O150 C147 1.238 . S
O151 Co145 2.052 . S
O151 C147 1.241 . S
O152 Co140 2.137 . S
O152 C143 1.247 . S
O153 Co140 2.244 . S
O153 C143 1.272 . S
O153 Co145 2.135 . S
Co154 O155 2.216 . S
Co154 O156 2.091 . S
Co154 O158 2.004 . S
Co154 O164 2.021 . S
Co154 O166 2.137 . S
Co154 O167 2.244 . S
O155 Co154 2.216 . S
O155 C162 1.247 . S
O156 Co154 2.091 . S
O156 C162 1.261 . S
C157 O166 1.247 . S
C157 O167 1.272 . S
O158 Co154 2.004 . S
O158 C163 1.259 . S
Co159 O160 2.061 . S
Co159 O165 2.052 . S
Co159 O167 2.135 . S
O160 Co159 2.061 . S
O160 C163 1.235 . S
C161 O164 1.238 . S
C161 O165 1.241 . S
C162 O155 1.247 . S
C162 O156 1.261 . S
C163 O158 1.259 . S
C163 O160 1.235 . S
O164 Co154 2.021 . S
O164 C161 1.238 . S
O165 Co159 2.052 . S
O165 C161 1.241 . S
O166 Co154 2.137 . S
O166 C157 1.247 . S
O167 Co154 2.244 . S
O167 C157 1.272 . S
O167 Co159 2.135 . S
Co168 O169 2.216 . S
Co168 O170 2.091 . S
Co168 O172 2.004 . S
Co168 O178 2.021 . S
Co168 O180 2.137 . S
Co168 O181 2.244 . S
O169 Co168 2.216 . S
O169 C176 1.247 . S
O170 Co168 2.091 . S
O170 C176 1.261 . S
C171 O180 1.247 . S
C171 O181 1.272 . S
O172 Co168 2.004 . S
O172 C177 1.259 . S
Co173 O174 2.061 . S
Co173 O179 2.052 . S
Co173 O181 2.135 . S
O174 Co173 2.061 . S
O174 C177 1.235 . S
C175 O178 1.238 . S
C175 O179 1.241 . S
C176 O169 1.247 . S
C176 O170 1.261 . S
C177 O172 1.259 . S
C177 O174 1.235 . S
O178 Co168 2.021 . S
O178 C175 1.238 . S
O179 Co173 2.052 . S
O179 C175 1.241 . S
O180 Co168 2.137 . S
O180 C171 1.247 . S
O181 Co168 2.244 . S
O181 C171 1.272 . S
O181 Co173 2.135 . S
Co182 O183 2.216 . S
Co182 O184 2.091 . S
Co182 O186 2.004 . S
Co182 O192 2.021 . S
Co182 O194 2.137 . S
Co182 O195 2.244 . S
O183 Co182 2.216 . S
O183 C190 1.247 . S
O184 Co182 2.091 . S
O184 C190 1.261 . S
C185 O194 1.247 . S
C185 O195 1.272 . S
O186 Co182 2.004 . S
O186 C191 1.259 . S
Co187 O188 2.061 . S
Co187 O193 2.052 . S
Co187 O195 2.135 . S
O188 Co187 2.061 . S
O188 C191 1.235 . S
C189 O192 1.238 . S
C189 O193 1.241 . S
C190 O183 1.247 . S
C190 O184 1.261 . S
C191 O186 1.259 . S
C191 O188 1.235 . S
O192 Co182 2.021 . S
O192 C189 1.238 . S
O193 Co187 2.052 . S
O193 C189 1.241 . S
O194 Co182 2.137 . S
O194 C185 1.247 . S
O195 Co182 2.244 . S
O195 C185 1.272 . S
O195 Co187 2.135 . S
Co196 O197 2.216 . S
Co196 O198 2.091 . S
Co196 O200 2.004 . S
Co196 O206 2.021 . S
Co196 O208 2.137 . S
Co196 O209 2.244 . S
O197 Co196 2.216 . S
O197 C204 1.247 . S
O198 Co196 2.091 . S
O198 C204 1.261 . S
C199 O208 1.247 . S
C199 O209 1.272 . S
O200 Co196 2.004 . S
O200 C205 1.259 . S
Co201 O202 2.061 . S
Co201 O207 2.052 . S
Co201 O209 2.135 . S
O202 Co201 2.061 . S
O202 C205 1.235 . S
C203 O206 1.238 . S
C203 O207 1.241 . S
C204 O197 1.247 . S
C204 O198 1.261 . S
C205 O200 1.259 . S
C205 O202 1.235 . S
O206 Co196 2.021 . S
O206 C203 1.238 . S
O207 Co201 2.052 . S
O207 C203 1.241 . S
O208 Co196 2.137 . S
O208 C199 1.247 . S
O209 Co196 2.244 . S
O209 C199 1.272 . S
O209 Co201 2.135 . S
Co210 O211 2.216 . S
Co210 O212 2.091 . S
Co210 O214 2.004 . S
Co210 O220 2.021 . S
Co210 O222 2.137 . S
Co210 O223 2.244 . S
O211 Co210 2.216 . S
O211 C218 1.247 . S
O212 Co210 2.091 . S
O212 C218 1.261 . S
C213 O222 1.247 . S
C213 O223 1.272 . S
O214 Co210 2.004 . S
O214 C219 1.259 . S
Co215 O216 2.061 . S
Co215 O221 2.052 . S
Co215 O223 2.135 . S
O216 Co215 2.061 . S
O216 C219 1.235 . S
C217 O220 1.238 . S
C217 O221 1.241 . S
C218 O211 1.247 . S
C218 O212 1.261 . S
C219 O214 1.259 . S
C219 O216 1.235 . S
O220 Co210 2.021 . S
O220 C217 1.238 . S
O221 Co215 2.052 . S
O221 C217 1.241 . S
O222 Co210 2.137 . S
O222 C213 1.247 . S
O223 Co210 2.244 . S
O223 C213 1.272 . S
O223 Co215 2.135 . S
Co224 O225 2.216 . S
Co224 O226 2.091 . S
Co224 O228 2.004 . S
Co224 O234 2.021 . S
Co224 O236 2.137 . S
Co224 O237 2.244 . S
O225 Co224 2.216 . S
O225 C232 1.247 . S
O226 Co224 2.091 . S
O226 C232 1.261 . S
C227 O236 1.247 . S
C227 O237 1.272 . S
O228 Co224 2.004 . S
O228 C233 1.259 . S
Co229 O230 2.061 . S
Co229 O235 2.052 . S
Co229 O237 2.135 . S
O230 Co229 2.061 . S
O230 C233 1.235 . S
C231 O234 1.238 . S
C231 O235 1.241 . S
C232 O225 1.247 . S
C232 O226 1.261 . S
C233 O228 1.259 . S
C233 O230 1.235 . S
O234 Co224 2.021 . S
O234 C231 1.238 . S
O235 Co229 2.052 . S
O235 C231 1.241 . S
O236 Co224 2.137 . S
O236 C227 1.247 . S
O237 Co224 2.244 . S
O237 C227 1.272 . S
O237 Co229 2.135 . S
Co238 O239 2.216 . S
Co238 O240 2.091 . S
Co238 O242 2.004 . S
Co238 O248 2.021 . S
Co238 O250 2.137 . S
Co238 O251 2.244 . S
O239 Co238 2.216 . S
O239 C246 1.247 . S
O240 Co238 2.091 . S
O240 C246 1.261 . S
C241 O250 1.247 . S
C241 O251 1.272 . S
O242 Co238 2.004 . S
O242 C247 1.259 . S
Co243 O244 2.061 . S
Co243 O249 2.052 . S
Co243 O251 2.135 . S
O244 Co243 2.061 . S
O244 C247 1.235 . S
C245 O248 1.238 . S
C245 O249 1.241 . S
C246 O239 1.247 . S
C246 O240 1.261 . S
C247 O242 1.259 . S
C247 O244 1.235 . S
O248 Co238 2.021 . S
O248 C245 1.238 . S
O249 Co243 2.052 . S
O249 C245 1.241 . S
O250 Co238 2.137 . S
O250 C241 1.247 . S
O251 Co238 2.244 . S
O251 C241 1.272 . S
O251 Co243 2.135 . S
Co252 O253 2.216 . S
Co252 O254 2.091 . S
Co252 O256 2.004 . S
Co252 O262 2.021 . S
Co252 O264 2.137 . S
Co252 O265 2.244 . S
O253 Co252 2.216 . S
O253 C260 1.247 . S
O254 Co252 2.091 . S
O254 C260 1.261 . S
C255 O264 1.247 . S
C255 O265 1.272 . S
O256 Co252 2.004 . S
O256 C261 1.259 . S
Co257 O258 2.061 . S
Co257 O263 2.052 . S
Co257 O265 2.135 . S
O258 Co257 2.061 . S
O258 C261 1.235 . S
C259 O262 1.238 . S
C259 O263 1.241 . S
C260 O253 1.247 . S
C260 O254 1.261 . S
C261 O256 1.259 . S
C261 O258 1.235 . S
O262 Co252 2.021 . S
O262 C259 1.238 . S
O263 Co257 2.052 . S
O263 C259 1.241 . S
O264 Co252 2.137 . S
O264 C255 1.247 . S
O265 Co252 2.244 . S
O265 C255 1.272 . S
O265 Co257 2.135 . S
Co266 O267 2.216 . S
Co266 O268 2.091 . S
Co266 O270 2.004 . S
Co266 O276 2.021 . S
Co266 O278 2.137 . S
Co266 O279 2.244 . S
O267 Co266 2.216 . S
O267 C274 1.247 . S
O268 Co266 2.091 . S
O268 C274 1.261 . S
C269 O278 1.247 . S
C269 O279 1.272 . S
O270 Co266 2.004 . S
O270 C275 1.259 . S
Co271 O272 2.061 . S
Co271 O277 2.052 . S
Co271 O279 2.135 . S
O272 Co271 2.061 . S
O272 C275 1.235 . S
C273 O276 1.238 . S
C273 O277 1.241 . S
C274 O267 1.247 . S
C274 O268 1.261 . S
C275 O270 1.259 . S
C275 O272 1.235 . S
O276 Co266 2.021 . S
O276 C273 1.238 . S
O277 Co271 2.052 . S
O277 C273 1.241 . S
O278 Co266 2.137 . S
O278 C269 1.247 . S
O279 Co266 2.244 . S
O279 C269 1.272 . S
O279 Co271 2.135 . S
Co280 O281 2.216 . S
Co280 O282 2.091 . S
Co280 O284 2.004 . S
Co280 O290 2.021 . S
Co280 O292 2.137 . S
Co280 O293 2.244 . S
O281 Co280 2.216 . S
O281 C288 1.247 . S
O282 Co280 2.091 . S
O282 C288 1.261 . S
C283 O292 1.247 . S
C283 O293 1.272 . S
O284 Co280 2.004 . S
O284 C289 1.259 . S
Co285 O286 2.061 . S
Co285 O291 2.052 . S
Co285 O293 2.135 . S
O286 Co285 2.061 . S
O286 C289 1.235 . S
C287 O290 1.238 . S
C287 O291 1.241 . S
C288 O281 1.247 . S
C288 O282 1.261 . S
C289 O284 1.259 . S
C289 O286 1.235 . S
O290 Co280 2.021 . S
O290 C287 1.238 . S
O291 Co285 2.052 . S
O291 C287 1.241 . S
O292 Co280 2.137 . S
O292 C283 1.247 . S
O293 Co280 2.244 . S
O293 C283 1.272 . S
O293 Co285 2.135 . S
Co294 O295 2.216 . S
Co294 O296 2.091 . S
Co294 O298 2.004 . S
Co294 O304 2.021 . S
Co294 O306 2.137 . S
Co294 O307 2.244 . S
O295 Co294 2.216 . S
O295 C302 1.247 . S
O296 Co294 2.091 . S
O296 C302 1.261 . S
C297 O306 1.247 . S
C297 O307 1.272 . S
O298 Co294 2.004 . S
O298 C303 1.259 . S
Co299 O300 2.061 . S
Co299 O305 2.052 . S
Co299 O307 2.135 . S
O300 Co299 2.061 . S
O300 C303 1.235 . S
C301 O304 1.238 . S
C301 O305 1.241 . S
C302 O295 1.247 . S
C302 O296 1.261 . S
C303 O298 1.259 . S
C303 O300 1.235 . S
O304 Co294 2.021 . S
O304 C301 1.238 . S
O305 Co299 2.052 . S
O305 C301 1.241 . S
O306 Co294 2.137 . S
O306 C297 1.247 . S
O307 Co294 2.244 . S
O307 C297 1.272 . S
O307 Co299 2.135 . S
Co308 O309 2.216 . S
Co308 O310 2.091 . S
Co308 O312 2.004 . S
Co308 O318 2.021 . S
Co308 O320 2.137 . S
Co308 O321 2.244 . S
O309 Co308 2.216 . S
O309 C316 1.247 . S
O310 Co308 2.091 . S
O310 C316 1.261 . S
C311 O320 1.247 . S
C311 O321 1.272 . S
O312 Co308 2.004 . S
O312 C317 1.259 . S
Co313 O314 2.061 . S
Co313 O319 2.052 . S
Co313 O321 2.135 . S
O314 Co313 2.061 . S
O314 C317 1.235 . S
C315 O318 1.238 . S
C315 O319 1.241 . S
C316 O309 1.247 . S
C316 O310 1.261 . S
C317 O312 1.259 . S
C317 O314 1.235 . S
O318 Co308 2.021 . S
O318 C315 1.238 . S
O319 Co313 2.052 . S
O319 C315 1.241 . S
O320 Co308 2.137 . S
O320 C311 1.247 . S
O321 Co308 2.244 . S
O321 C311 1.272 . S
O321 Co313 2.135 . S
Co322 O323 2.216 . S
Co322 O324 2.091 . S
Co322 O326 2.004 . S
Co322 O332 2.021 . S
Co322 O334 2.137 . S
Co322 O335 2.244 . S
O323 Co322 2.216 . S
O323 C330 1.247 . S
O324 Co322 2.091 . S
O324 C330 1.261 . S
C325 O334 1.247 . S
C325 O335 1.272 . S
O326 Co322 2.004 . S
O326 C331 1.259 . S
Co327 O328 2.061 . S
Co327 O333 2.052 . S
Co327 O335 2.135 . S
O328 Co327 2.061 . S
O328 C331 1.235 . S
C329 O332 1.238 . S
C329 O333 1.241 . S
C330 O323 1.247 . S
C330 O324 1.261 . S
C331 O326 1.259 . S
C331 O328 1.235 . S
O332 Co322 2.021 . S
O332 C329 1.238 . S
O333 Co327 2.052 . S
O333 C329 1.241 . S
O334 Co322 2.137 . S
O334 C325 1.247 . S
O335 Co322 2.244 . S
O335 C325 1.272 . S
O335 Co327 2.135 . S
Co336 O337 2.216 . S
Co336 O338 2.091 . S
Co336 O340 2.004 . S
Co336 O346 2.021 . S
Co336 O348 2.137 . S
Co336 O349 2.244 . S
O337 Co336 2.216 . S
O337 C344 1.247 . S
O338 Co336 2.091 . S
O338 C344 1.261 . S
C339 O348 1.247 . S
C339 O349 1.272 . S
O340 Co336 2.004 . S
O340 C345 1.259 . S
Co341 O342 2.061 . S
Co341 O347 2.052 . S
Co341 O349 2.135 . S
O342 Co341 2.061 . S
O342 C345 1.235 . S
C343 O346 1.238 . S
C343 O347 1.241 . S
C344 O337 1.247 . S
C344 O338 1.261 . S
C345 O340 1.259 . S
C345 O342 1.235 . S
O346 Co336 2.021 . S
O346 C343 1.238 . S
O347 Co341 2.052 . S
O347 C343 1.241 . S
O348 Co336 2.137 . S
O348 C339 1.247 . S
O349 Co336 2.244 . S
O349 C339 1.272 . S
O349 Co341 2.135 . S
Co350 O351 2.216 . S
Co350 O352 2.091 . S
Co350 O354 2.004 . S
Co350 O360 2.021 . S
Co350 O362 2.137 . S
Co350 O363 2.244 . S
O351 Co350 2.216 . S
O351 C358 1.247 . S
O352 Co350 2.091 . S
O352 C358 1.261 . S
C353 O362 1.247 . S
C353 O363 1.272 . S
O354 Co350 2.004 . S
O354 C359 1.259 . S
Co355 O356 2.061 . S
Co355 O361 2.052 . S
Co355 O363 2.135 . S
O356 Co355 2.061 . S
O356 C359 1.235 . S
C357 O360 1.238 . S
C357 O361 1.241 . S
C358 O351 1.247 . S
C358 O352 1.261 . S
C359 O354 1.259 . S
C359 O356 1.235 . S
O360 Co350 2.021 . S
O360 C357 1.238 . S
O361 Co355 2.052 . S
O361 C357 1.241 . S
O362 Co350 2.137 . S
O362 C353 1.247 . S
O363 Co350 2.244 . S
O363 C353 1.272 . S
O363 Co355 2.135 . S
Co364 O365 2.216 . S
Co364 O366 2.091 . S
Co364 O368 2.004 . S
Co364 O374 2.021 . S
Co364 O376 2.137 . S
Co364 O377 2.244 . S
O365 Co364 2.216 . S
O365 C372 1.247 . S
O366 Co364 2.091 . S
O366 C372 1.261 . S
C367 O376 1.247 . S
C367 O377 1.272 . S
O368 Co364 2.004 . S
O368 C373 1.259 . S
Co369 O370 2.061 . S
Co369 O375 2.052 . S
Co369 O377 2.135 . S
O370 Co369 2.061 . S
O370 C373 1.235 . S
C371 O374 1.238 . S
C371 O375 1.241 . S
C372 O365 1.247 . S
C372 O366 1.261 . S
C373 O368 1.259 . S
C373 O370 1.235 . S
O374 Co364 2.021 . S
O374 C371 1.238 . S
O375 Co369 2.052 . S
O375 C371 1.241 . S
O376 Co364 2.137 . S
O376 C367 1.247 . S
O377 Co364 2.244 . S
O377 C367 1.272 . S
O377 Co369 2.135 . S
Co378 O379 2.216 . S
Co378 O380 2.091 . S
Co378 O382 2.004 . S
Co378 O388 2.021 . S
Co378 O390 2.137 . S
Co378 O391 2.244 . S
O379 Co378 2.216 . S
O379 C386 1.247 . S
O380 Co378 2.091 . S
O380 C386 1.261 . S
C381 O390 1.247 . S
C381 O391 1.272 . S
O382 Co378 2.004 . S
O382 C387 1.259 . S
Co383 O384 2.061 . S
Co383 O389 2.052 . S
Co383 O391 2.135 . S
O384 Co383 2.061 . S
O384 C387 1.235 . S
C385 O388 1.238 . S
C385 O389 1.241 . S
C386 O379 1.247 . S
C386 O380 1.261 . S
C387 O382 1.259 . S
C387 O384 1.235 . S
O388 Co378 2.021 . S
O388 C385 1.238 . S
O389 Co383 2.052 . S
O389 C385 1.241 . S
O390 Co378 2.137 . S
O390 C381 1.247 . S
O391 Co378 2.244 . S
O391 C381 1.272 . S
O391 Co383 2.135 . S
Co392 O393 2.216 . S
Co392 O394 2.091 . S
Co392 O396 2.004 . S
Co392 O402 2.021 . S
Co392 O404 2.137 . S
Co392 O405 2.244 . S
O393 Co392 2.216 . S
O393 C400 1.247 . S
O394 Co392 2.091 . S
O394 C400 1.261 . S
C395 O404 1.247 . S
C395 O405 1.272 . S
O396 Co392 2.004 . S
O396 C401 1.259 . S
Co397 O398 2.061 . S
Co397 O403 2.052 . S
Co397 O405 2.135 . S
O398 Co397 2.061 . S
O398 C401 1.235 . S
C399 O402 1.238 . S
C399 O403 1.241 . S
C400 O393 1.247 . S
C400 O394 1.261 . S
C401 O396 1.259 . S
C401 O398 1.235 . S
O402 Co392 2.021 . S
O402 C399 1.238 . S
O403 Co397 2.052 . S
O403 C399 1.241 . S
O404 Co392 2.137 . S
O404 C395 1.247 . S
O405 Co392 2.244 . S
O405 C395 1.272 . S
O405 Co397 2.135 . S
Co406 O407 2.216 . S
Co406 O408 2.091 . S
Co406 O410 2.004 . S
Co406 O416 2.021 . S
Co406 O418 2.137 . S
Co406 O419 2.244 . S
O407 Co406 2.216 . S
O407 C414 1.247 . S
O408 Co406 2.091 . S
O408 C414 1.261 . S
C409 O418 1.247 . S
C409 O419 1.272 . S
O410 Co406 2.004 . S
O410 C415 1.259 . S
Co411 O412 2.061 . S
Co411 O417 2.052 . S
Co411 O419 2.135 . S
O412 Co411 2.061 . S
O412 C415 1.235 . S
C413 O416 1.238 . S
C413 O417 1.241 . S
C414 O407 1.247 . S
C414 O408 1.261 . S
C415 O410 1.259 . S
C415 O412 1.235 . S
O416 Co406 2.021 . S
O416 C413 1.238 . S
O417 Co411 2.052 . S
O417 C413 1.241 . S
O418 Co406 2.137 . S
O418 C409 1.247 . S
O419 Co406 2.244 . S
O419 C409 1.272 . S
O419 Co411 2.135 . S
Co420 O421 2.216 . S
Co420 O422 2.091 . S
Co420 O424 2.004 . S
Co420 O430 2.021 . S
Co420 O432 2.137 . S
Co420 O433 2.244 . S
O421 Co420 2.216 . S
O421 C428 1.247 . S
O422 Co420 2.091 . S
O422 C428 1.261 . S
C423 O432 1.247 . S
C423 O433 1.272 . S
O424 Co420 2.004 . S
O424 C429 1.259 . S
Co425 O426 2.061 . S
Co425 O431 2.052 . S
Co425 O433 2.135 . S
O426 Co425 2.061 . S
O426 C429 1.235 . S
C427 O430 1.238 . S
C427 O431 1.241 . S
C428 O421 1.247 . S
C428 O422 1.261 . S
C429 O424 1.259 . S
C429 O426 1.235 . S
O430 Co420 2.021 . S
O430 C427 1.238 . S
O431 Co425 2.052 . S
O431 C427 1.241 . S
O432 Co420 2.137 . S
O432 C423 1.247 . S
O433 Co420 2.244 . S
O433 C423 1.272 . S
O433 Co425 2.135 . S
Co434 O435 2.216 . S
Co434 O436 2.091 . S
Co434 O438 2.004 . S
Co434 O444 2.021 . S
Co434 O446 2.137 . S
Co434 O447 2.244 . S
O435 Co434 2.216 . S
O435 C442 1.247 . S
O436 Co434 2.091 . S
O436 C442 1.261 . S
C437 O446 1.247 . S
C437 O447 1.272 . S
O438 Co434 2.004 . S
O438 C443 1.259 . S
Co439 O440 2.061 . S
Co439 O445 2.052 . S
Co439 O447 2.135 . S
O440 Co439 2.061 . S
O440 C443 1.235 . S
C441 O444 1.238 . S
C441 O445 1.241 . S
C442 O435 1.247 . S
C442 O436 1.261 . S
C443 O438 1.259 . S
C443 O440 1.235 . S
O444 Co434 2.021 . S
O444 C441 1.238 . S
O445 Co439 2.052 . S
O445 C441 1.241 . S
O446 Co434 2.137 . S
O446 C437 1.247 . S
O447 Co434 2.244 . S
O447 C437 1.272 . S
O447 Co439 2.135 . S
H448 C456 0.950 . S
H449 C461 0.950 . S
H450 C458 0.950 . S
H451 C460 0.950 . S
H452 C462 0.950 . S
H453 C464 0.950 . S
H454 C466 0.950 . S
H455 C467 0.950 . S
C456 H448 0.950 . S
C456 C457 1.386 . S
C456 C458 1.391 . S
C457 C456 1.386 . S
C457 C461 1.393 . S
C458 H450 0.950 . S
C458 C456 1.391 . S
C458 C459 1.400 . S
C459 C458 1.400 . S
C459 C460 1.398 . S
C459 C465 1.491 . S
C460 H451 0.950 . S
C460 C459 1.398 . S
C460 C461 1.391 . S
C461 H449 0.950 . S
C461 C457 1.393 . S
C461 C460 1.391 . S
C462 H452 0.950 . S
C462 C463 1.386 . S
C462 C464 1.391 . S
C463 C462 1.386 . S
C463 C467 1.393 . S
C464 H453 0.950 . S
C464 C462 1.391 . S
C464 C465 1.400 . S
C465 C459 1.491 . S
C465 C464 1.400 . S
C465 C466 1.398 . S
C466 H454 0.950 . S
C466 C465 1.398 . S
C466 C467 1.391 . S
C467 H455 0.950 . S
C467 C463 1.393 . S
C467 C466 1.391 . S
H468 C476 0.950 . S
H469 C481 0.950 . S
H470 C478 0.950 . S
H471 C480 0.950 . S
H472 C482 0.950 . S
H473 C484 0.950 . S
H474 C486 0.950 . S
H475 C487 0.950 . S
C476 H468 0.950 . S
C476 C477 1.386 . S
C476 C478 1.391 . S
C477 C476 1.386 . S
C477 C481 1.393 . S
C478 H470 0.950 . S
C478 C476 1.391 . S
C478 C479 1.400 . S
C479 C478 1.400 . S
C479 C480 1.398 . S
C479 C485 1.491 . S
C480 H471 0.950 . S
C480 C479 1.398 . S
C480 C481 1.391 . S
C481 H469 0.950 . S
C481 C477 1.393 . S
C481 C480 1.391 . S
C482 H472 0.950 . S
C482 C483 1.386 . S
C482 C484 1.391 . S
C483 C482 1.386 . S
C483 C487 1.393 . S
C484 H473 0.950 . S
C484 C482 1.391 . S
C484 C485 1.400 . S
C485 C479 1.491 . S
C485 C484 1.400 . S
C485 C486 1.398 . S
C486 H474 0.950 . S
C486 C485 1.398 . S
C486 C487 1.391 . S
C487 H475 0.950 . S
C487 C483 1.393 . S
C487 C486 1.391 . S
H488 C496 0.950 . S
H489 C501 0.950 . S
H490 C498 0.950 . S
H491 C500 0.950 . S
H492 C502 0.950 . S
H493 C504 0.950 . S
H494 C506 0.950 . S
H495 C507 0.950 . S
C496 H488 0.950 . S
C496 C497 1.386 . S
C496 C498 1.391 . S
C497 C496 1.386 . S
C497 C501 1.393 . S
C498 H490 0.950 . S
C498 C496 1.391 . S
C498 C499 1.400 . S
C499 C498 1.400 . S
C499 C500 1.398 . S
C499 C505 1.491 . S
C500 H491 0.950 . S
C500 C499 1.398 . S
C500 C501 1.391 . S
C501 H489 0.950 . S
C501 C497 1.393 . S
C501 C500 1.391 . S
C502 H492 0.950 . S
C502 C503 1.386 . S
C502 C504 1.391 . S
C503 C502 1.386 . S
C503 C507 1.393 . S
C504 H493 0.950 . S
C504 C502 1.391 . S
C504 C505 1.400 . S
C505 C499 1.491 . S
C505 C504 1.400 . S
C505 C506 1.398 . S
C506 H494 0.950 . S
C506 C505 1.398 . S
C506 C507 1.391 . S
C507 H495 0.950 . S
C507 C503 1.393 . S
C507 C506 1.391 . S
H508 C516 0.950 . S
H509 C521 0.950 . S
H510 C518 0.950 . S
H511 C520 0.950 . S
H512 C522 0.950 . S
H513 C524 0.950 . S
H514 C526 0.950 . S
H515 C527 0.950 . S
C516 H508 0.950 . S
C516 C517 1.386 . S
C516 C518 1.391 . S
C517 C516 1.386 . S
C517 C521 1.393 . S
C518 H510 0.950 . S
C518 C516 1.391 . S
C518 C519 1.400 . S
C519 C518 1.400 . S
C519 C520 1.398 . S
C519 C525 1.491 . S
C520 H511 0.950 . S
C520 C519 1.398 . S
C520 C521 1.391 . S
C521 H509 0.950 . S
C521 C517 1.393 . S
C521 C520 1.391 . S
C522 H512 0.950 . S
C522 C523 1.386 . S
C522 C524 1.391 . S
C523 C522 1.386 . S
C523 C527 1.393 . S
C524 H513 0.950 . S
C524 C522 1.391 . S
C524 C525 1.400 . S
C525 C519 1.491 . S
C525 C524 1.400 . S
C525 C526 1.398 . S
C526 H514 0.950 . S
C526 C525 1.398 . S
C526 C527 1.391 . S
C527 H515 0.950 . S
C527 C523 1.393 . S
C527 C526 1.391 . S
H528 C536 0.950 . S
H529 C541 0.950 . S
H530 C538 0.950 . S
H531 C540 0.950 . S
H532 C542 0.950 . S
H533 C544 0.950 . S
H534 C546 0.950 . S
H535 C547 0.950 . S
C536 H528 0.950 . S
C536 C537 1.386 . S
C536 C538 1.391 . S
C537 C536 1.386 . S
C537 C541 1.393 . S
C538 H530 0.950 . S
C538 C536 1.391 . S
C538 C539 1.400 . S
C539 C538 1.400 . S
C539 C540 1.398 . S
C539 C545 1.491 . S
C540 H531 0.950 . S
C540 C539 1.398 . S
C540 C541 1.391 . S
C541 H529 0.950 . S
C541 C537 1.393 . S
C541 C540 1.391 . S
C542 H532 0.950 . S
C542 C543 1.386 . S
C542 C544 1.391 . S
C543 C542 1.386 . S
C543 C547 1.393 . S
C544 H533 0.950 . S
C544 C542 1.391 . S
C544 C545 1.400 . S
C545 C539 1.491 . S
C545 C544 1.400 . S
C545 C546 1.398 . S
C546 H534 0.950 . S
C546 C545 1.398 . S
C546 C547 1.391 . S
C547 H535 0.950 . S
C547 C543 1.393 . S
C547 C546 1.391 . S
H548 C556 0.950 . S
H549 C561 0.950 . S
H550 C558 0.950 . S
H551 C560 0.950 . S
H552 C562 0.950 . S
H553 C564 0.950 . S
H554 C566 0.950 . S
H555 C567 0.950 . S
C556 H548 0.950 . S
C556 C557 1.386 . S
C556 C558 1.391 . S
C557 C556 1.386 . S
C557 C561 1.393 . S
C558 H550 0.950 . S
C558 C556 1.391 . S
C558 C559 1.400 . S
C559 C558 1.400 . S
C559 C560 1.398 . S
C559 C565 1.491 . S
C560 H551 0.950 . S
C560 C559 1.398 . S
C560 C561 1.391 . S
C561 H549 0.950 . S
C561 C557 1.393 . S
C561 C560 1.391 . S
C562 H552 0.950 . S
C562 C563 1.386 . S
C562 C564 1.391 . S
C563 C562 1.386 . S
C563 C567 1.393 . S
C564 H553 0.950 . S
C564 C562 1.391 . S
C564 C565 1.400 . S
C565 C559 1.491 . S
C565 C564 1.400 . S
C565 C566 1.398 . S
C566 H554 0.950 . S
C566 C565 1.398 . S
C566 C567 1.391 . S
C567 H555 0.950 . S
C567 C563 1.393 . S
C567 C566 1.391 . S
H568 C576 0.950 . S
H569 C581 0.950 . S
H570 C578 0.950 . S
H571 C580 0.950 . S
H572 C582 0.950 . S
H573 C584 0.950 . S
H574 C586 0.950 . S
H575 C587 0.950 . S
C576 H568 0.950 . S
C576 C577 1.386 . S
C576 C578 1.391 . S
C577 C576 1.386 . S
C577 C581 1.393 . S
C578 H570 0.950 . S
C578 C576 1.391 . S
C578 C579 1.400 . S
C579 C578 1.400 . S
C579 C580 1.398 . S
C579 C585 1.491 . S
C580 H571 0.950 . S
C580 C579 1.398 . S
C580 C581 1.391 . S
C581 H569 0.950 . S
C581 C577 1.393 . S
C581 C580 1.391 . S
C582 H572 0.950 . S
C582 C583 1.386 . S
C582 C584 1.391 . S
C583 C582 1.386 . S
C583 C587 1.393 . S
C584 H573 0.950 . S
C584 C582 1.391 . S
C584 C585 1.400 . S
C585 C579 1.491 . S
C585 C584 1.400 . S
C585 C586 1.398 . S
C586 H574 0.950 . S
C586 C585 1.398 . S
C586 C587 1.391 . S
C587 H575 0.950 . S
C587 C583 1.393 . S
C587 C586 1.391 . S
H588 C596 0.950 . S
H589 C601 0.950 . S
H590 C598 0.950 . S
H591 C600 0.950 . S
H592 C602 0.950 . S
H593 C604 0.950 . S
H594 C606 0.950 . S
H595 C607 0.950 . S
C596 H588 0.950 . S
C596 C597 1.386 . S
C596 C598 1.391 . S
C597 C596 1.386 . S
C597 C601 1.393 . S
C598 H590 0.950 . S
C598 C596 1.391 . S
C598 C599 1.400 . S
C599 C598 1.400 . S
C599 C600 1.398 . S
C599 C605 1.491 . S
C600 H591 0.950 . S
C600 C599 1.398 . S
C600 C601 1.391 . S
C601 H589 0.950 . S
C601 C597 1.393 . S
C601 C600 1.391 . S
C602 H592 0.950 . S
C602 C603 1.386 . S
C602 C604 1.391 . S
C603 C602 1.386 . S
C603 C607 1.393 . S
C604 H593 0.950 . S
C604 C602 1.391 . S
C604 C605 1.400 . S
C605 C599 1.491 . S
C605 C604 1.400 . S
C605 C606 1.398 . S
C606 H594 0.950 . S
C606 C605 1.398 . S
C606 C607 1.391 . S
C607 H595 0.950 . S
C607 C603 1.393 . S
C607 C606 1.391 . S
H608 C616 0.950 . S
H609 C621 0.950 . S
H610 C618 0.950 . S
H611 C620 0.950 . S
H612 C622 0.950 . S
H613 C624 0.950 . S
H614 C626 0.950 . S
H615 C627 0.950 . S
C616 H608 0.950 . S
C616 C617 1.386 . S
C616 C618 1.391 . S
C617 C616 1.386 . S
C617 C621 1.393 . S
C618 H610 0.950 . S
C618 C616 1.391 . S
C618 C619 1.400 . S
C619 C618 1.400 . S
C619 C620 1.398 . S
C619 C625 1.491 . S
C620 H611 0.950 . S
C620 C619 1.398 . S
C620 C621 1.391 . S
C621 H609 0.950 . S
C621 C617 1.393 . S
C621 C620 1.391 . S
C622 H612 0.950 . S
C622 C623 1.386 . S
C622 C624 1.391 . S
C623 C622 1.386 . S
C623 C627 1.393 . S
C624 H613 0.950 . S
C624 C622 1.391 . S
C624 C625 1.400 . S
C625 C619 1.491 . S
C625 C624 1.400 . S
C625 C626 1.398 . S
C626 H614 0.950 . S
C626 C625 1.398 . S
C626 C627 1.391 . S
C627 H615 0.950 . S
C627 C623 1.393 . S
C627 C626 1.391 . S
H628 C636 0.950 . S
H629 C641 0.950 . S
H630 C638 0.950 . S
H631 C640 0.950 . S
H632 C642 0.950 . S
H633 C644 0.950 . S
H634 C646 0.950 . S
H635 C647 0.950 . S
C636 H628 0.950 . S
C636 C637 1.386 . S
C636 C638 1.391 . S
C637 C636 1.386 . S
C637 C641 1.393 . S
C638 H630 0.950 . S
C638 C636 1.391 . S
C638 C639 1.400 . S
C639 C638 1.400 . S
C639 C640 1.398 . S
C639 C645 1.491 . S
C640 H631 0.950 . S
C640 C639 1.398 . S
C640 C641 1.391 . S
C641 H629 0.950 . S
C641 C637 1.393 . S
C641 C640 1.391 . S
C642 H632 0.950 . S
C642 C643 1.386 . S
C642 C644 1.391 . S
C643 C642 1.386 . S
C643 C647 1.393 . S
C644 H633 0.950 . S
C644 C642 1.391 . S
C644 C645 1.400 . S
C645 C639 1.491 . S
C645 C644 1.400 . S
C645 C646 1.398 . S
C646 H634 0.950 . S
C646 C645 1.398 . S
C646 C647 1.391 . S
C647 H635 0.950 . S
C647 C643 1.393 . S
C647 C646 1.391 . S
H648 C656 0.950 . S
H649 C661 0.950 . S
H650 C658 0.950 . S
H651 C660 0.950 . S
H652 C662 0.950 . S
H653 C664 0.950 . S
H654 C666 0.950 . S
H655 C667 0.950 . S
C656 H648 0.950 . S
C656 C657 1.386 . S
C656 C658 1.391 . S
C657 C656 1.386 . S
C657 C661 1.393 . S
C658 H650 0.950 . S
C658 C656 1.391 . S
C658 C659 1.400 . S
C659 C658 1.400 . S
C659 C660 1.398 . S
C659 C665 1.491 . S
C660 H651 0.950 . S
C660 C659 1.398 . S
C660 C661 1.391 . S
C661 H649 0.950 . S
C661 C657 1.393 . S
C661 C660 1.391 . S
C662 H652 0.950 . S
C662 C663 1.386 . S
C662 C664 1.391 . S
C663 C662 1.386 . S
C663 C667 1.393 . S
C664 H653 0.950 . S
C664 C662 1.391 . S
C664 C665 1.400 . S
C665 C659 1.491 . S
C665 C664 1.400 . S
C665 C666 1.398 . S
C666 H654 0.950 . S
C666 C665 1.398 . S
C666 C667 1.391 . S
C667 H655 0.950 . S
C667 C663 1.393 . S
C667 C666 1.391 . S
H668 C676 0.950 . S
H669 C681 0.950 . S
H670 C678 0.950 . S
H671 C680 0.950 . S
H672 C682 0.950 . S
H673 C684 0.950 . S
H674 C686 0.950 . S
H675 C687 0.950 . S
C676 H668 0.950 . S
C676 C677 1.386 . S
C676 C678 1.391 . S
C677 C676 1.386 . S
C677 C681 1.393 . S
C678 H670 0.950 . S
C678 C676 1.391 . S
C678 C679 1.400 . S
C679 C678 1.400 . S
C679 C680 1.398 . S
C679 C685 1.491 . S
C680 H671 0.950 . S
C680 C679 1.398 . S
C680 C681 1.391 . S
C681 H669 0.950 . S
C681 C677 1.393 . S
C681 C680 1.391 . S
C682 H672 0.950 . S
C682 C683 1.386 . S
C682 C684 1.391 . S
C683 C682 1.386 . S
C683 C687 1.393 . S
C684 H673 0.950 . S
C684 C682 1.391 . S
C684 C685 1.400 . S
C685 C679 1.491 . S
C685 C684 1.400 . S
C685 C686 1.398 . S
C686 H674 0.950 . S
C686 C685 1.398 . S
C686 C687 1.391 . S
C687 H675 0.950 . S
C687 C683 1.393 . S
C687 C686 1.391 . S
H688 C696 0.950 . S
H689 C701 0.950 . S
H690 C698 0.950 . S
H691 C700 0.950 . S
H692 C702 0.950 . S
H693 C704 0.950 . S
H694 C706 0.950 . S
H695 C707 0.950 . S
C696 H688 0.950 . S
C696 C697 1.386 . S
C696 C698 1.391 . S
C697 C696 1.386 . S
C697 C701 1.393 . S
C698 H690 0.950 . S
C698 C696 1.391 . S
C698 C699 1.400 . S
C699 C698 1.400 . S
C699 C700 1.398 . S
C699 C705 1.491 . S
C700 H691 0.950 . S
C700 C699 1.398 . S
C700 C701 1.391 . S
C701 H689 0.950 . S
C701 C697 1.393 . S
C701 C700 1.391 . S
C702 H692 0.950 . S
C702 C703 1.386 . S
C702 C704 1.391 . S
C703 C702 1.386 . S
C703 C707 1.393 . S
C704 H693 0.950 . S
C704 C702 1.391 . S
C704 C705 1.400 . S
C705 C699 1.491 . S
C705 C704 1.400 . S
C705 C706 1.398 . S
C706 H694 0.950 . S
C706 C705 1.398 . S
C706 C707 1.391 . S
C707 H695 0.950 . S
C707 C703 1.393 . S
C707 C706 1.391 . S
H708 C716 0.950 . S
H709 C721 0.950 . S
H710 C718 0.950 . S
H711 C720 0.950 . S
H712 C722 0.950 . S
H713 C724 0.950 . S
H714 C726 0.950 . S
H715 C727 0.950 . S
C716 H708 0.950 . S
C716 C717 1.386 . S
C716 C718 1.391 . S
C717 C716 1.386 . S
C717 C721 1.393 . S
C718 H710 0.950 . S
C718 C716 1.391 . S
C718 C719 1.400 . S
C719 C718 1.400 . S
C719 C720 1.398 . S
C719 C725 1.491 . S
C720 H711 0.950 . S
C720 C719 1.398 . S
C720 C721 1.391 . S
C721 H709 0.950 . S
C721 C717 1.393 . S
C721 C720 1.391 . S
C722 H712 0.950 . S
C722 C723 1.386 . S
C722 C724 1.391 . S
C723 C722 1.386 . S
C723 C727 1.393 . S
C724 H713 0.950 . S
C724 C722 1.391 . S
C724 C725 1.400 . S
C725 C719 1.491 . S
C725 C724 1.400 . S
C725 C726 1.398 . S
C726 H714 0.950 . S
C726 C725 1.398 . S
C726 C727 1.391 . S
C727 H715 0.950 . S
C727 C723 1.393 . S
C727 C726 1.391 . S
H728 C736 0.950 . S
H729 C741 0.950 . S
H730 C738 0.950 . S
H731 C740 0.950 . S
H732 C742 0.950 . S
H733 C744 0.950 . S
H734 C746 0.950 . S
H735 C747 0.950 . S
C736 H728 0.950 . S
C736 C737 1.386 . S
C736 C738 1.391 . S
C737 C736 1.386 . S
C737 C741 1.393 . S
C738 H730 0.950 . S
C738 C736 1.391 . S
C738 C739 1.400 . S
C739 C738 1.400 . S
C739 C740 1.398 . S
C739 C745 1.491 . S
C740 H731 0.950 . S
C740 C739 1.398 . S
C740 C741 1.391 . S
C741 H729 0.950 . S
C741 C737 1.393 . S
C741 C740 1.391 . S
C742 H732 0.950 . S
C742 C743 1.386 . S
C742 C744 1.391 . S
C743 C742 1.386 . S
C743 C747 1.393 . S
C744 H733 0.950 . S
C744 C742 1.391 . S
C744 C745 1.400 . S
C745 C739 1.491 . S
C745 C744 1.400 . S
C745 C746 1.398 . S
C746 H734 0.950 . S
C746 C745 1.398 . S
C746 C747 1.391 . S
C747 H735 0.950 . S
C747 C743 1.393 . S
C747 C746 1.391 . S
H748 C756 0.950 . S
H749 C761 0.950 . S
H750 C758 0.950 . S
H751 C760 0.950 . S
H752 C762 0.950 . S
H753 C764 0.950 . S
H754 C766 0.950 . S
H755 C767 0.950 . S
C756 H748 0.950 . S
C756 C757 1.386 . S
C756 C758 1.391 . S
C757 C756 1.386 . S
C757 C761 1.393 . S
C758 H750 0.950 . S
C758 C756 1.391 . S
C758 C759 1.400 . S
C759 C758 1.400 . S
C759 C760 1.398 . S
C759 C765 1.491 . S
C760 H751 0.950 . S
C760 C759 1.398 . S
C760 C761 1.391 . S
C761 H749 0.950 . S
C761 C757 1.393 . S
C761 C760 1.391 . S
C762 H752 0.950 . S
C762 C763 1.386 . S
C762 C764 1.391 . S
C763 C762 1.386 . S
C763 C767 1.393 . S
C764 H753 0.950 . S
C764 C762 1.391 . S
C764 C765 1.400 . S
C765 C759 1.491 . S
C765 C764 1.400 . S
C765 C766 1.398 . S
C766 H754 0.950 . S
C766 C765 1.398 . S
C766 C767 1.391 . S
C767 H755 0.950 . S
C767 C763 1.393 . S
C767 C766 1.391 . S
H768 C776 0.950 . S
H769 C781 0.937 1_556 S
H770 C778 0.950 . S
H771 C780 0.936 1_556 S
H772 C782 0.950 1_556 S
H773 C784 0.950 1_556 S
H774 C786 0.950 . S
H775 C787 0.950 . S
C776 H768 0.950 . S
C776 C777 1.386 . S
C776 C778 1.391 . S
C777 C776 1.386 . S
C777 C781 1.406 . S
C778 H770 0.950 . S
C778 C776 1.391 . S
C778 C779 1.400 . S
C779 C778 1.400 . S
C779 C780 1.412 . S
C779 C785 1.491 1_455 S
C780 H771 0.936 1_554 S
C780 C779 1.412 . S
C780 C781 1.391 . S
C781 H769 0.937 1_554 S
C781 C777 1.406 . S
C781 C780 1.391 . S
C782 H772 0.950 1_554 S
C782 C783 1.386 . S
C782 C784 1.391 . S
C783 C782 1.386 . S
C783 C787 1.393 . S
C784 H773 0.950 1_554 S
C784 C782 1.391 . S
C784 C785 1.400 . S
C785 C779 1.491 1_655 S
C785 C784 1.400 . S
C785 C786 1.398 . S
C786 H774 0.950 . S
C786 C785 1.398 . S
C786 C787 1.391 . S
C787 H775 0.950 . S
C787 C783 1.393 . S
C787 C786 1.391 . S
H788 C796 0.950 . S
H789 C801 0.950 . S
H790 C798 0.950 . S
H791 C800 0.950 . S
H792 C802 0.950 . S
H793 C804 0.950 . S
H794 C806 0.950 . S
H795 C807 0.950 . S
C796 H788 0.950 . S
C796 C797 1.386 . S
C796 C798 1.391 . S
C797 C796 1.386 . S
C797 C801 1.393 . S
C798 H790 0.950 . S
C798 C796 1.391 . S
C798 C799 1.400 . S
C799 C798 1.400 . S
C799 C800 1.398 . S
C799 C805 1.491 . S
C800 H791 0.950 . S
C800 C799 1.398 . S
C800 C801 1.391 . S
C801 H789 0.950 . S
C801 C797 1.393 . S
C801 C800 1.391 . S
C802 H792 0.950 . S
C802 C803 1.386 . S
C802 C804 1.391 . S
C803 C802 1.386 . S
C803 C807 1.393 . S
C804 H793 0.950 . S
C804 C802 1.391 . S
C804 C805 1.400 . S
C805 C799 1.491 . S
C805 C804 1.400 . S
C805 C806 1.398 . S
C806 H794 0.950 . S
C806 C805 1.398 . S
C806 C807 1.391 . S
C807 H795 0.950 . S
C807 C803 1.393 . S
C807 C806 1.391 . S
H808 C816 0.950 . S
H809 C821 0.950 . S
H810 C818 0.950 . S
H811 C820 0.950 . S
H812 C822 0.950 . S
H813 C824 0.950 . S
H814 C826 0.950 . S
H815 C827 0.950 . S
C816 H808 0.950 . S
C816 C817 1.386 . S
C816 C818 1.391 . S
C817 C816 1.386 . S
C817 C821 1.393 . S
C818 H810 0.950 . S
C818 C816 1.391 . S
C818 C819 1.400 . S
C819 C818 1.400 . S
C819 C820 1.398 . S
C819 C825 1.491 . S
C820 H811 0.950 . S
C820 C819 1.398 . S
C820 C821 1.391 . S
C821 H809 0.950 . S
C821 C817 1.393 . S
C821 C820 1.391 . S
C822 H812 0.950 . S
C822 C823 1.386 . S
C822 C824 1.391 . S
C823 C822 1.386 . S
C823 C827 1.393 . S
C824 H813 0.950 . S
C824 C822 1.391 . S
C824 C825 1.400 . S
C825 C819 1.491 . S
C825 C824 1.400 . S
C825 C826 1.398 . S
C826 H814 0.950 . S
C826 C825 1.398 . S
C826 C827 1.391 . S
C827 H815 0.950 . S
C827 C823 1.393 . S
C827 C826 1.391 . S
H828 C836 0.950 . S
H829 C841 0.950 . S
H830 C838 0.950 . S
H831 C840 0.950 . S
H832 C842 0.950 . S
H833 C844 0.950 . S
H834 C846 0.950 . S
H835 C847 0.950 . S
C836 H828 0.950 . S
C836 C837 1.386 . S
C836 C838 1.391 . S
C837 C836 1.386 . S
C837 C841 1.393 . S
C838 H830 0.950 . S
C838 C836 1.391 . S
C838 C839 1.400 . S
C839 C838 1.400 . S
C839 C840 1.398 . S
C839 C845 1.491 . S
C840 H831 0.950 . S
C840 C839 1.398 . S
C840 C841 1.391 . S
C841 H829 0.950 . S
C841 C837 1.393 . S
C841 C840 1.391 . S
C842 H832 0.950 . S
C842 C843 1.386 . S
C842 C844 1.391 . S
C843 C842 1.386 . S
C843 C847 1.393 . S
C844 H833 0.950 . S
C844 C842 1.391 . S
C844 C845 1.400 . S
C845 C839 1.491 . S
C845 C844 1.400 . S
C845 C846 1.398 . S
C846 H834 0.950 . S
C846 C845 1.398 . S
C846 C847 1.391 . S
C847 H835 0.950 . S
C847 C843 1.393 . S
C847 C846 1.391 . S
H848 C856 0.950 . S
H849 C861 0.950 . S
H850 C858 0.950 . S
H851 C860 0.950 . S
H852 C862 0.950 . S
H853 C864 0.950 . S
H854 C866 0.950 . S
H855 C867 0.950 . S
C856 H848 0.950 . S
C856 C857 1.386 . S
C856 C858 1.391 . S
C857 C856 1.386 . S
C857 C861 1.393 . S
C858 H850 0.950 . S
C858 C856 1.391 . S
C858 C859 1.400 . S
C859 C858 1.400 . S
C859 C860 1.398 . S
C859 C865 1.491 1_655 S
C860 H851 0.950 . S
C860 C859 1.398 . S
C860 C861 1.391 . S
C861 H849 0.950 . S
C861 C857 1.393 . S
C861 C860 1.391 . S
C862 H852 0.950 . S
C862 C863 1.386 . S
C862 C864 1.391 . S
C863 C862 1.386 . S
C863 C867 1.393 . S
C864 H853 0.950 . S
C864 C862 1.391 . S
C864 C865 1.400 . S
C865 C859 1.491 1_455 S
C865 C864 1.400 . S
C865 C866 1.398 . S
C866 H854 0.950 . S
C866 C865 1.398 . S
C866 C867 1.391 . S
C867 H855 0.950 . S
C867 C863 1.393 . S
C867 C866 1.391 . S
H868 C876 0.950 . S
H869 C881 0.950 . S
H870 C878 0.950 . S
H871 C880 0.950 . S
H872 C882 0.950 . S
H873 C884 0.950 . S
H874 C886 0.950 . S
H875 C887 0.950 . S
C876 H868 0.950 . S
C876 C877 1.386 . S
C876 C878 1.391 . S
C877 C876 1.386 . S
C877 C881 1.393 . S
C878 H870 0.950 . S
C878 C876 1.391 . S
C878 C879 1.400 . S
C879 C878 1.400 . S
C879 C880 1.398 . S
C879 C885 1.491 . S
C880 H871 0.950 . S
C880 C879 1.398 . S
C880 C881 1.391 . S
C881 H869 0.950 . S
C881 C877 1.393 . S
C881 C880 1.391 . S
C882 H872 0.950 . S
C882 C883 1.386 . S
C882 C884 1.391 . S
C883 C882 1.386 . S
C883 C887 1.393 . S
C884 H873 0.950 . S
C884 C882 1.391 . S
C884 C885 1.400 . S
C885 C879 1.491 . S
C885 C884 1.400 . S
C885 C886 1.398 . S
C886 H874 0.950 . S
C886 C885 1.398 . S
C886 C887 1.391 . S
C887 H875 0.950 . S
C887 C883 1.393 . S
C887 C886 1.391 . S
H888 C896 0.950 . S
H889 C901 0.950 . S
H890 C898 0.950 . S
H891 C900 0.950 . S
H892 C902 0.950 . S
H893 C904 0.950 . S
H894 C906 0.950 . S
H895 C907 0.950 . S
C896 H888 0.950 . S
C896 C897 1.386 . S
C896 C898 1.391 . S
C897 C896 1.386 . S
C897 C901 1.393 . S
C898 H890 0.950 . S
C898 C896 1.391 . S
C898 C899 1.400 . S
C899 C898 1.400 . S
C899 C900 1.398 . S
C899 C905 1.491 . S
C900 H891 0.950 . S
C900 C899 1.398 . S
C900 C901 1.391 . S
C901 H889 0.950 . S
C901 C897 1.393 . S
C901 C900 1.391 . S
C902 H892 0.950 . S
C902 C903 1.386 . S
C902 C904 1.391 . S
C903 C902 1.386 . S
C903 C907 1.393 . S
C904 H893 0.950 . S
C904 C902 1.391 . S
C904 C905 1.400 . S
C905 C899 1.491 . S
C905 C904 1.400 . S
C905 C906 1.398 . S
C906 H894 0.950 . S
C906 C905 1.398 . S
C906 C907 1.391 . S
C907 H895 0.950 . S
C907 C903 1.393 . S
C907 C906 1.391 . S
H908 C916 0.950 . S
H909 C921 0.950 . S
H910 C918 0.950 . S
H911 C920 0.950 . S
H912 C922 0.950 . S
H913 C924 0.950 . S
H914 C926 0.950 . S
H915 C927 0.950 . S
C916 H908 0.950 . S
C916 C917 1.386 . S
C916 C918 1.391 . S
C917 C916 1.386 . S
C917 C921 1.393 . S
C918 H910 0.950 . S
C918 C916 1.391 . S
C918 C919 1.400 . S
C919 C918 1.400 . S
C919 C920 1.398 . S
C919 C925 1.491 . S
C920 H911 0.950 . S
C920 C919 1.398 . S
C920 C921 1.391 . S
C921 H909 0.950 . S
C921 C917 1.393 . S
C921 C920 1.391 . S
C922 H912 0.950 . S
C922 C923 1.386 . S
C922 C924 1.391 . S
C923 C922 1.386 . S
C923 C927 1.393 . S
C924 H913 0.950 . S
C924 C922 1.391 . S
C924 C925 1.400 . S
C925 C919 1.491 . S
C925 C924 1.400 . S
C925 C926 1.398 . S
C926 H914 0.950 . S
C926 C925 1.398 . S
C926 C927 1.391 . S
C927 H915 0.950 . S
C927 C923 1.393 . S
C927 C926 1.391 . S
H928 C936 0.950 . S
H929 C941 0.950 . S
H930 C938 0.950 . S
H931 C940 0.950 . S
H932 C942 0.950 . S
H933 C944 0.950 . S
H934 C946 0.950 . S
H935 C947 0.950 . S
C936 H928 0.950 . S
C936 C937 1.386 . S
C936 C938 1.391 . S
C937 C936 1.386 . S
C937 C941 1.393 . S
C938 H930 0.950 . S
C938 C936 1.391 . S
C938 C939 1.400 . S
C939 C938 1.400 . S
C939 C940 1.398 . S
C939 C945 1.491 . S
C940 H931 0.950 . S
C940 C939 1.398 . S
C940 C941 1.391 . S
C941 H929 0.950 . S
C941 C937 1.393 . S
C941 C940 1.391 . S
C942 H932 0.950 . S
C942 C943 1.386 . S
C942 C944 1.391 . S
C943 C942 1.386 . S
C943 C947 1.393 . S
C944 H933 0.950 . S
C944 C942 1.391 . S
C944 C945 1.400 . S
C945 C939 1.491 . S
C945 C944 1.400 . S
C945 C946 1.398 . S
C946 H934 0.950 . S
C946 C945 1.398 . S
C946 C947 1.391 . S
C947 H935 0.950 . S
C947 C943 1.393 . S
C947 C946 1.391 . S
H948 C956 0.950 . S
H949 C961 0.950 . S
H950 C958 0.950 . S
H951 C960 0.950 . S
H952 C962 0.950 . S
H953 C964 0.950 . S
H954 C966 0.950 . S
H955 C967 0.950 . S
C956 H948 0.950 . S
C956 C957 1.386 . S
C956 C958 1.391 . S
C957 C956 1.386 . S
C957 C961 1.393 . S
C958 H950 0.950 . S
C958 C956 1.391 . S
C958 C959 1.400 . S
C959 C958 1.400 . S
C959 C960 1.398 . S
C959 C965 1.491 . S
C960 H951 0.950 . S
C960 C959 1.398 . S
C960 C961 1.391 . S
C961 H949 0.950 . S
C961 C957 1.393 . S
C961 C960 1.391 . S
C962 H952 0.950 . S
C962 C963 1.386 . S
C962 C964 1.391 . S
C963 C962 1.386 . S
C963 C967 1.393 . S
C964 H953 0.950 . S
C964 C962 1.391 . S
C964 C965 1.400 . S
C965 C959 1.491 . S
C965 C964 1.400 . S
C965 C966 1.398 . S
C966 H954 0.950 . S
C966 C965 1.398 . S
C966 C967 1.391 . S
C967 H955 0.950 . S
C967 C963 1.393 . S
C967 C966 1.391 . S
H968 C976 0.950 . S
H969 C981 0.950 . S
H970 C978 0.950 . S
H971 C980 0.950 . S
H972 C982 0.950 . S
H973 C984 0.950 . S
H974 C986 0.950 . S
H975 C987 0.950 . S
C976 H968 0.950 . S
C976 C977 1.386 . S
C976 C978 1.391 . S
C977 C976 1.386 . S
C977 C981 1.393 . S
C978 H970 0.950 . S
C978 C976 1.391 . S
C978 C979 1.400 . S
C979 C978 1.400 . S
C979 C980 1.398 . S
C979 C985 1.491 . S
C980 H971 0.950 . S
C980 C979 1.398 . S
C980 C981 1.391 . S
C981 H969 0.950 . S
C981 C977 1.393 . S
C981 C980 1.391 . S
C982 H972 0.950 . S
C982 C983 1.386 . S
C982 C984 1.391 . S
C983 C982 1.386 . S
C983 C987 1.393 . S
C984 H973 0.950 . S
C984 C982 1.391 . S
C984 C985 1.400 . S
C985 C979 1.491 . S
C985 C984 1.400 . S
C985 C986 1.398 . S
C986 H974 0.950 . S
C986 C985 1.398 . S
C986 C987 1.391 . S
C987 H975 0.950 . S
C987 C983 1.393 . S
C987 C986 1.391 . S
H988 C996 0.950 . S
H989 C1001 0.950 . S
H990 C998 0.950 . S
H991 C1000 0.950 . S
H992 C1002 0.950 . S
H993 C1004 0.950 . S
H994 C1006 0.950 . S
H995 C1007 0.950 . S
C996 H988 0.950 . S
C996 C997 1.386 . S
C996 C998 1.391 . S
C997 C996 1.386 . S
C997 C1001 1.393 . S
C998 H990 0.950 . S
C998 C996 1.391 . S
C998 C999 1.400 . S
C999 C998 1.400 . S
C999 C1000 1.398 . S
C999 C1005 1.491 . S
C1000 H991 0.950 . S
C1000 C999 1.398 . S
C1000 C1001 1.391 . S
C1001 H989 0.950 . S
C1001 C997 1.393 . S
C1001 C1000 1.391 . S
C1002 H992 0.950 . S
C1002 C1003 1.386 . S
C1002 C1004 1.391 . S
C1003 C1002 1.386 . S
C1003 C1007 1.393 . S
C1004 H993 0.950 . S
C1004 C1002 1.391 . S
C1004 C1005 1.400 . S
C1005 C999 1.491 . S
C1005 C1004 1.400 . S
C1005 C1006 1.398 . S
C1006 H994 0.950 . S
C1006 C1005 1.398 . S
C1006 C1007 1.391 . S
C1007 H995 0.950 . S
C1007 C1003 1.393 . S
C1007 C1006 1.391 . S
H1008 C1016 0.950 . S
H1009 C1021 0.950 . S
H1010 C1018 0.950 . S
H1011 C1020 0.950 . S
H1012 C1022 0.950 . S
H1013 C1024 0.950 . S
H1014 C1026 0.950 . S
H1015 C1027 0.950 . S
C1016 H1008 0.950 . S
C1016 C1017 1.386 . S
C1016 C1018 1.391 . S
C1017 C1016 1.386 . S
C1017 C1021 1.393 . S
C1018 H1010 0.950 . S
C1018 C1016 1.391 . S
C1018 C1019 1.400 . S
C1019 C1018 1.400 . S
C1019 C1020 1.398 . S
C1019 C1025 1.491 . S
C1020 H1011 0.950 . S
C1020 C1019 1.398 . S
C1020 C1021 1.391 . S
C1021 H1009 0.950 . S
C1021 C1017 1.393 . S
C1021 C1020 1.391 . S
C1022 H1012 0.950 . S
C1022 C1023 1.386 . S
C1022 C1024 1.391 . S
C1023 C1022 1.386 . S
C1023 C1027 1.393 . S
C1024 H1013 0.950 . S
C1024 C1022 1.391 . S
C1024 C1025 1.400 . S
C1025 C1019 1.491 . S
C1025 C1024 1.400 . S
C1025 C1026 1.398 . S
C1026 H1014 0.950 . S
C1026 C1025 1.398 . S
C1026 C1027 1.391 . S
C1027 H1015 0.950 . S
C1027 C1023 1.393 . S
C1027 C1026 1.391 . S
H1028 C1036 0.950 . S
H1029 C1041 0.950 1_556 S
H1030 C1038 0.950 . S
H1031 C1040 0.950 1_556 S
H1032 C1042 0.955 . S
H1033 C1044 0.947 1_556 S
H1034 C1046 0.950 . S
H1035 C1047 0.950 . S
C1036 H1028 0.950 . S
C1036 C1037 1.386 . S
C1036 C1038 1.391 . S
C1037 C1036 1.386 . S
C1037 C1041 1.393 . S
C1038 H1030 0.950 . S
C1038 C1036 1.391 . S
C1038 C1039 1.400 . S
C1039 C1038 1.400 . S
C1039 C1040 1.398 . S
C1039 C1045 1.491 1_655 S
C1040 H1031 0.950 1_554 S
C1040 C1039 1.398 . S
C1040 C1041 1.391 . S
C1041 H1029 0.950 1_554 S
C1041 C1037 1.393 . S
C1041 C1040 1.391 . S
C1042 H1032 0.955 . S
C1042 C1043 1.386 . S
C1042 C1044 1.391 . S
C1043 C1042 1.386 . S
C1043 C1047 1.393 . S
C1044 H1033 0.947 1_554 S
C1044 C1042 1.391 . S
C1044 C1045 1.400 . S
C1045 C1039 1.491 1_455 S
C1045 C1044 1.400 . S
C1045 C1046 1.398 . S
C1046 H1034 0.950 . S
C1046 C1045 1.398 . S
C1046 C1047 1.391 . S
C1047 H1035 0.950 . S
C1047 C1043 1.393 . S
C1047 C1046 1.391 . S
H1048 C1056 0.950 . S
H1049 C1061 0.950 . S
H1050 C1058 0.950 . S
H1051 C1060 0.950 . S
H1052 C1062 0.950 . S
H1053 C1064 0.950 . S
H1054 C1066 0.950 . S
H1055 C1067 0.950 . S
C1056 H1048 0.950 . S
C1056 C1057 1.386 . S
C1056 C1058 1.391 . S
C1057 C1056 1.386 . S
C1057 C1061 1.393 . S
C1058 H1050 0.950 . S
C1058 C1056 1.391 . S
C1058 C1059 1.400 . S
C1059 C1058 1.400 . S
C1059 C1060 1.398 . S
C1059 C1065 1.491 . S
C1060 H1051 0.950 . S
C1060 C1059 1.398 . S
C1060 C1061 1.391 . S
C1061 H1049 0.950 . S
C1061 C1057 1.393 . S
C1061 C1060 1.391 . S
C1062 H1052 0.950 . S
C1062 C1063 1.386 . S
C1062 C1064 1.391 . S
C1063 C1062 1.386 . S
C1063 C1067 1.393 . S
C1064 H1053 0.950 . S
C1064 C1062 1.391 . S
C1064 C1065 1.400 . S
C1065 C1059 1.491 . S
C1065 C1064 1.400 . S
C1065 C1066 1.398 . S
C1066 H1054 0.950 . S
C1066 C1065 1.398 . S
C1066 C1067 1.391 . S
C1067 H1055 0.950 . S
C1067 C1063 1.393 . S
C1067 C1066 1.391 . S
H1068 C1076 0.950 . S
H1069 C1081 0.950 . S
H1070 C1078 0.950 . S
H1071 C1080 0.950 . S
H1072 C1082 0.980 . S
H1073 C1084 0.988 . S
H1074 C1086 0.950 . S
H1075 C1087 0.950 . S
C1076 H1068 0.950 . S
C1076 C1077 1.386 . S
C1076 C1078 1.391 . S
C1077 C1076 1.386 . S
C1077 C1081 1.393 1_556 S
C1078 H1070 0.950 . S
C1078 C1076 1.391 . S
C1078 C1079 1.400 . S
C1079 C1078 1.400 . S
C1079 C1080 1.398 1_556 S
C1079 C1085 1.491 1_455 S
C1080 H1071 0.950 . S
C1080 C1079 1.398 1_554 S
C1080 C1081 1.391 . S
C1081 H1069 0.950 . S
C1081 C1077 1.393 1_554 S
C1081 C1080 1.391 . S
C1082 H1072 0.980 . S
C1082 C1083 1.356 1_554 S
C1082 C1084 1.391 . S
C1083 C1082 1.356 1_556 S
C1083 C1087 1.393 . S
C1084 H1073 0.988 . S
C1084 C1082 1.391 . S
C1084 C1085 1.364 1_554 S
C1085 C1079 1.491 1_655 S
C1085 C1084 1.364 1_556 S
C1085 C1086 1.398 . S
C1086 H1074 0.950 . S
C1086 C1085 1.398 . S
C1086 C1087 1.391 . S
C1087 H1075 0.950 . S
C1087 C1083 1.393 . S
C1087 C1086 1.391 . S
H1088 C1096 0.950 . S
H1089 C1101 0.950 . S
H1090 C1098 0.950 . S
H1091 C1100 0.950 . S
H1092 C1102 0.950 . S
H1093 C1104 0.950 . S
H1094 C1106 0.950 . S
H1095 C1107 0.950 . S
C1096 H1088 0.950 . S
C1096 C1097 1.386 1_554 S
C1096 C1098 1.391 . S
C1097 C1096 1.386 1_556 S
C1097 C1101 1.393 . S
C1098 H1090 0.950 . S
C1098 C1096 1.391 . S
C1098 C1099 1.400 1_554 S
C1099 C1098 1.400 1_556 S
C1099 C1100 1.398 . S
C1099 C1105 1.491 1_556 S
C1100 H1091 0.950 . S
C1100 C1099 1.398 . S
C1100 C1101 1.391 . S
C1101 H1089 0.950 . S
C1101 C1097 1.393 . S
C1101 C1100 1.391 . S
C1102 H1092 0.950 . S
C1102 C1103 1.386 1_556 S
C1102 C1104 1.391 . S
C1103 C1102 1.386 1_554 S
C1103 C1107 1.393 . S
C1104 H1093 0.950 . S
C1104 C1102 1.391 . S
C1104 C1105 1.400 1_556 S
C1105 C1099 1.491 1_554 S
C1105 C1104 1.400 1_554 S
C1105 C1106 1.398 . S
C1106 H1094 0.950 . S
C1106 C1105 1.398 . S
C1106 C1107 1.391 . S
C1107 H1095 0.950 . S
C1107 C1103 1.393 . S
C1107 C1106 1.391 . S
H1108 C1116 0.950 . S
H1109 C1121 0.950 . S
H1110 C1118 0.950 . S
H1111 C1120 0.950 . S
H1112 C1122 0.950 . S
H1113 C1124 0.950 . S
H1114 C1126 0.950 . S
H1115 C1127 0.950 . S
C1116 H1108 0.950 . S
C1116 C1117 1.386 . S
C1116 C1118 1.391 . S
C1117 C1116 1.386 . S
C1117 C1121 1.393 . S
C1118 H1110 0.950 . S
C1118 C1116 1.391 . S
C1118 C1119 1.400 . S
C1119 C1118 1.400 . S
C1119 C1120 1.398 . S
C1119 C1125 1.491 . S
C1120 H1111 0.950 . S
C1120 C1119 1.398 . S
C1120 C1121 1.391 . S
C1121 H1109 0.950 . S
C1121 C1117 1.393 . S
C1121 C1120 1.391 . S
C1122 H1112 0.950 . S
C1122 C1123 1.386 . S
C1122 C1124 1.391 . S
C1123 C1122 1.386 . S
C1123 C1127 1.393 . S
C1124 H1113 0.950 . S
C1124 C1122 1.391 . S
C1124 C1125 1.400 . S
C1125 C1119 1.491 . S
C1125 C1124 1.400 . S
C1125 C1126 1.398 . S
C1126 H1114 0.950 . S
C1126 C1125 1.398 . S
C1126 C1127 1.391 . S
C1127 H1115 0.950 . S
C1127 C1123 1.393 . S
C1127 C1126 1.391 . S
H1128 C1136 0.950 . S
H1129 C1141 0.950 . S
H1130 C1138 0.950 . S
H1131 C1140 0.950 . S
H1132 C1142 0.950 . S
H1133 C1144 0.950 . S
H1134 C1146 0.950 . S
H1135 C1147 0.950 . S
C1136 H1128 0.950 . S
C1136 C1137 1.386 . S
C1136 C1138 1.391 . S
C1137 C1136 1.386 . S
C1137 C1141 1.393 . S
C1138 H1130 0.950 . S
C1138 C1136 1.391 . S
C1138 C1139 1.400 . S
C1139 C1138 1.400 . S
C1139 C1140 1.398 . S
C1139 C1145 1.491 . S
C1140 H1131 0.950 . S
C1140 C1139 1.398 . S
C1140 C1141 1.391 . S
C1141 H1129 0.950 . S
C1141 C1137 1.393 . S
C1141 C1140 1.391 . S
C1142 H1132 0.950 . S
C1142 C1143 1.386 . S
C1142 C1144 1.391 . S
C1143 C1142 1.386 . S
C1143 C1147 1.393 . S
C1144 H1133 0.950 . S
C1144 C1142 1.391 . S
C1144 C1145 1.400 . S
C1145 C1139 1.491 . S
C1145 C1144 1.400 . S
C1145 C1146 1.398 . S
C1146 H1134 0.950 . S
C1146 C1145 1.398 . S
C1146 C1147 1.391 . S
C1147 H1135 0.950 . S
C1147 C1143 1.393 . S
C1147 C1146 1.391 . S
H1148 C1156 0.950 . S
H1149 C1161 0.950 . S
H1150 C1158 0.950 . S
H1151 C1160 0.950 . S
H1152 C1162 0.950 . S
H1153 C1164 0.950 . S
H1154 C1166 0.950 . S
H1155 C1167 0.950 . S
C1156 H1148 0.950 . S
C1156 C1157 1.386 . S
C1156 C1158 1.391 . S
C1157 C1156 1.386 . S
C1157 C1161 1.393 . S
C1158 H1150 0.950 . S
C1158 C1156 1.391 . S
C1158 C1159 1.400 . S
C1159 C1158 1.400 . S
C1159 C1160 1.398 . S
C1159 C1165 1.491 . S
C1160 H1151 0.950 . S
C1160 C1159 1.398 . S
C1160 C1161 1.391 . S
C1161 H1149 0.950 . S
C1161 C1157 1.393 . S
C1161 C1160 1.391 . S
C1162 H1152 0.950 . S
C1162 C1163 1.386 . S
C1162 C1164 1.391 . S
C1163 C1162 1.386 . S
C1163 C1167 1.393 . S
C1164 H1153 0.950 . S
C1164 C1162 1.391 . S
C1164 C1165 1.400 . S
C1165 C1159 1.491 . S
C1165 C1164 1.400 . S
C1165 C1166 1.398 . S
C1166 H1154 0.950 . S
C1166 C1165 1.398 . S
C1166 C1167 1.391 . S
C1167 H1155 0.950 . S
C1167 C1163 1.393 . S
C1167 C1166 1.391 . S
H1168 C1176 0.950 . S
H1169 C1181 0.950 . S
H1170 C1178 0.950 . S
H1171 C1180 0.950 . S
H1172 C1182 0.950 . S
H1173 C1184 0.950 . S
H1174 C1186 0.950 . S
H1175 C1187 0.950 . S
C1176 H1168 0.950 . S
C1176 C1177 1.386 . S
C1176 C1178 1.391 . S
C1177 C1176 1.386 . S
C1177 C1181 1.393 1_554 S
C1178 H1170 0.950 . S
C1178 C1176 1.391 . S
C1178 C1179 1.400 . S
C1179 C1178 1.400 . S
C1179 C1180 1.398 1_554 S
C1179 C1185 1.491 1_554 S
C1180 H1171 0.950 . S
C1180 C1179 1.398 1_556 S
C1180 C1181 1.391 . S
C1181 H1169 0.950 . S
C1181 C1177 1.393 1_556 S
C1181 C1180 1.391 . S
C1182 H1172 0.950 . S
C1182 C1183 1.386 . S
C1182 C1184 1.391 . S
C1183 C1182 1.386 . S
C1183 C1187 1.393 1_556 S
C1184 H1173 0.950 . S
C1184 C1182 1.391 . S
C1184 C1185 1.400 . S
C1185 C1179 1.491 1_556 S
C1185 C1184 1.400 . S
C1185 C1186 1.398 1_556 S
C1186 H1174 0.950 . S
C1186 C1185 1.398 1_554 S
C1186 C1187 1.391 . S
C1187 H1175 0.950 . S
C1187 C1183 1.393 1_554 S
C1187 C1186 1.391 . S
H1188 C1196 0.950 . S
H1189 C1201 0.950 . S
H1190 C1198 0.950 . S
H1191 C1200 0.950 . S
H1192 C1202 0.950 . S
H1193 C1204 0.950 . S
H1194 C1206 0.950 . S
H1195 C1207 0.950 . S
C1196 H1188 0.950 . S
C1196 C1197 1.386 . S
C1196 C1198 1.391 . S
C1197 C1196 1.386 . S
C1197 C1201 1.393 . S
C1198 H1190 0.950 . S
C1198 C1196 1.391 . S
C1198 C1199 1.400 . S
C1199 C1198 1.400 . S
C1199 C1200 1.398 . S
C1199 C1205 1.491 . S
C1200 H1191 0.950 . S
C1200 C1199 1.398 . S
C1200 C1201 1.391 . S
C1201 H1189 0.950 . S
C1201 C1197 1.393 . S
C1201 C1200 1.391 . S
C1202 H1192 0.950 . S
C1202 C1203 1.386 . S
C1202 C1204 1.391 . S
C1203 C1202 1.386 . S
C1203 C1207 1.393 . S
C1204 H1193 0.950 . S
C1204 C1202 1.391 . S
C1204 C1205 1.400 . S
C1205 C1199 1.491 . S
C1205 C1204 1.400 . S
C1205 C1206 1.398 . S
C1206 H1194 0.950 . S
C1206 C1205 1.398 . S
C1206 C1207 1.391 . S
C1207 H1195 0.950 . S
C1207 C1203 1.393 . S
C1207 C1206 1.391 . S
H1208 C1216 0.950 . S
H1209 C1221 0.950 . S
H1210 C1218 0.950 . S
H1211 C1220 0.950 . S
H1212 C1222 0.950 . S
H1213 C1224 0.950 . S
H1214 C1226 0.950 . S
H1215 C1227 0.950 . S
C1216 H1208 0.950 . S
C1216 C1217 1.386 . S
C1216 C1218 1.391 . S
C1217 C1216 1.386 . S
C1217 C1221 1.393 . S
C1218 H1210 0.950 . S
C1218 C1216 1.391 . S
C1218 C1219 1.400 . S
C1219 C1218 1.400 . S
C1219 C1220 1.398 . S
C1219 C1225 1.491 . S
C1220 H1211 0.950 . S
C1220 C1219 1.398 . S
C1220 C1221 1.391 . S
C1221 H1209 0.950 . S
C1221 C1217 1.393 . S
C1221 C1220 1.391 . S
C1222 H1212 0.950 . S
C1222 C1223 1.386 . S
C1222 C1224 1.391 . S
C1223 C1222 1.386 . S
C1223 C1227 1.393 . S
C1224 H1213 0.950 . S
C1224 C1222 1.391 . S
C1224 C1225 1.400 . S
C1225 C1219 1.491 . S
C1225 C1224 1.400 . S
C1225 C1226 1.398 . S
C1226 H1214 0.950 . S
C1226 C1225 1.398 . S
C1226 C1227 1.391 . S
C1227 H1215 0.950 . S
C1227 C1223 1.393 . S
C1227 C1226 1.391 . S
H1228 C1236 0.950 . S
H1229 C1241 0.950 . S
H1230 C1238 0.950 . S
H1231 C1240 0.950 . S
H1232 C1242 0.950 . S
H1233 C1244 0.950 . S
H1234 C1246 0.950 . S
H1235 C1247 0.950 . S
C1236 H1228 0.950 . S
C1236 C1237 1.386 . S
C1236 C1238 1.391 . S
C1237 C1236 1.386 . S
C1237 C1241 1.393 . S
C1238 H1230 0.950 . S
C1238 C1236 1.391 . S
C1238 C1239 1.400 . S
C1239 C1238 1.400 . S
C1239 C1240 1.398 . S
C1239 C1245 1.491 . S
C1240 H1231 0.950 . S
C1240 C1239 1.398 . S
C1240 C1241 1.391 . S
C1241 H1229 0.950 . S
C1241 C1237 1.393 . S
C1241 C1240 1.391 . S
C1242 H1232 0.950 . S
C1242 C1243 1.386 . S
C1242 C1244 1.391 . S
C1243 C1242 1.386 . S
C1243 C1247 1.393 . S
C1244 H1233 0.950 . S
C1244 C1242 1.391 . S
C1244 C1245 1.400 . S
C1245 C1239 1.491 . S
C1245 C1244 1.400 . S
C1245 C1246 1.398 . S
C1246 H1234 0.950 . S
C1246 C1245 1.398 . S
C1246 C1247 1.391 . S
C1247 H1235 0.950 . S
C1247 C1243 1.393 . S
C1247 C1246 1.391 . S
H1248 C1256 0.950 . S
H1249 C1261 0.950 . S
H1250 C1258 0.950 . S
H1251 C1260 0.950 . S
H1252 C1262 0.950 . S
H1253 C1264 0.950 . S
H1254 C1266 0.950 . S
H1255 C1267 0.950 . S
C1256 H1248 0.950 . S
C1256 C1257 1.386 . S
C1256 C1258 1.391 . S
C1257 C1256 1.386 . S
C1257 C1261 1.393 . S
C1258 H1250 0.950 . S
C1258 C1256 1.391 . S
C1258 C1259 1.400 . S
C1259 C1258 1.400 . S
C1259 C1260 1.398 . S
C1259 C1265 1.491 1_545 S
C1260 H1251 0.950 . S
C1260 C1259 1.398 . S
C1260 C1261 1.391 . S
C1261 H1249 0.950 . S
C1261 C1257 1.393 . S
C1261 C1260 1.391 . S
C1262 H1252 0.950 . S
C1262 C1263 1.386 . S
C1262 C1264 1.391 . S
C1263 C1262 1.386 . S
C1263 C1267 1.393 . S
C1264 H1253 0.950 . S
C1264 C1262 1.391 . S
C1264 C1265 1.400 . S
C1265 C1259 1.491 1_565 S
C1265 C1264 1.400 . S
C1265 C1266 1.398 . S
C1266 H1254 0.950 . S
C1266 C1265 1.398 . S
C1266 C1267 1.391 . S
C1267 H1255 0.950 . S
C1267 C1263 1.393 . S
C1267 C1266 1.391 . S
H1268 C1276 0.950 . S
H1269 C1281 0.950 . S
H1270 C1278 0.950 . S
H1271 C1280 0.950 . S
H1272 C1282 0.950 . S
H1273 C1284 0.950 . S
H1274 C1286 0.950 . S
H1275 C1287 0.950 . S
C1276 H1268 0.950 . S
C1276 C1277 1.386 . S
C1276 C1278 1.391 . S
C1277 C1276 1.386 . S
C1277 C1281 1.393 . S
C1278 H1270 0.950 . S
C1278 C1276 1.391 . S
C1278 C1279 1.400 . S
C1279 C1278 1.400 . S
C1279 C1280 1.398 . S
C1279 C1285 1.491 . S
C1280 H1271 0.950 . S
C1280 C1279 1.398 . S
C1280 C1281 1.391 . S
C1281 H1269 0.950 . S
C1281 C1277 1.393 . S
C1281 C1280 1.391 . S
C1282 H1272 0.950 . S
C1282 C1283 1.386 . S
C1282 C1284 1.391 . S
C1283 C1282 1.386 . S
C1283 C1287 1.393 . S
C1284 H1273 0.950 . S
C1284 C1282 1.391 . S
C1284 C1285 1.400 . S
C1285 C1279 1.491 . S
C1285 C1284 1.400 . S
C1285 C1286 1.398 . S
C1286 H1274 0.950 . S
C1286 C1285 1.398 . S
C1286 C1287 1.391 . S
C1287 H1275 0.950 . S
C1287 C1283 1.393 . S
C1287 C1286 1.391 . S
H1288 C1296 0.950 . S
H1289 C1301 0.950 . S
H1290 C1298 0.949 1_556 S
H1291 C1300 0.950 . S
H1292 C1302 0.950 . S
H1293 C1304 0.949 1_554 S
H1294 C1306 0.950 . S
H1295 C1307 0.950 . S
C1296 H1288 0.950 . S
C1296 C1297 1.386 . S
C1296 C1298 1.391 . S
C1297 C1296 1.386 . S
C1297 C1301 1.393 . S
C1298 H1290 0.949 1_554 S
C1298 C1296 1.391 . S
C1298 C1299 1.400 . S
C1299 C1298 1.400 . S
C1299 C1300 1.398 . S
C1299 C1305 1.491 1_564 S
C1300 H1291 0.950 . S
C1300 C1299 1.398 . S
C1300 C1301 1.391 . S
C1301 H1289 0.950 . S
C1301 C1297 1.393 . S
C1301 C1300 1.391 . S
C1302 H1292 0.950 . S
C1302 C1303 1.386 . S
C1302 C1304 1.391 . S
C1303 C1302 1.386 . S
C1303 C1307 1.393 . S
C1304 H1293 0.949 1_556 S
C1304 C1302 1.391 . S
C1304 C1305 1.400 . S
C1305 C1299 1.491 1_546 S
C1305 C1304 1.400 . S
C1305 C1306 1.398 . S
C1306 H1294 0.950 . S
C1306 C1305 1.398 . S
C1306 C1307 1.391 . S
C1307 H1295 0.950 . S
C1307 C1303 1.393 . S
C1307 C1306 1.391 . S
H1308 C1316 0.950 . S
H1309 C1321 0.950 . S
H1310 C1318 0.950 . S
H1311 C1320 0.950 . S
H1312 C1322 0.950 . S
H1313 C1324 0.950 . S
H1314 C1326 0.950 . S
H1315 C1327 0.950 . S
C1316 H1308 0.950 . S
C1316 C1317 1.386 . S
C1316 C1318 1.391 . S
C1317 C1316 1.386 . S
C1317 C1321 1.393 . S
C1318 H1310 0.950 . S
C1318 C1316 1.391 . S
C1318 C1319 1.400 . S
C1319 C1318 1.400 . S
C1319 C1320 1.398 . S
C1319 C1325 1.491 . S
C1320 H1311 0.950 . S
C1320 C1319 1.398 . S
C1320 C1321 1.391 . S
C1321 H1309 0.950 . S
C1321 C1317 1.393 . S
C1321 C1320 1.391 . S
C1322 H1312 0.950 . S
C1322 C1323 1.386 . S
C1322 C1324 1.391 . S
C1323 C1322 1.386 . S
C1323 C1327 1.393 . S
C1324 H1313 0.950 . S
C1324 C1322 1.391 . S
C1324 C1325 1.400 . S
C1325 C1319 1.491 . S
C1325 C1324 1.400 . S
C1325 C1326 1.398 . S
C1326 H1314 0.950 . S
C1326 C1325 1.398 . S
C1326 C1327 1.391 . S
C1327 H1315 0.950 . S
C1327 C1323 1.393 . S
C1327 C1326 1.391 . S
H1328 C1336 0.950 . S
H1329 C1341 0.950 . S
H1330 C1338 0.950 . S
H1331 C1340 0.950 . S
H1332 C1342 0.950 . S
H1333 C1344 0.950 . S
H1334 C1346 0.950 . S
H1335 C1347 0.950 . S
C1336 H1328 0.950 . S
C1336 C1337 1.386 . S
C1336 C1338 1.391 . S
C1337 C1336 1.386 . S
C1337 C1341 1.393 . S
C1338 H1330 0.950 . S
C1338 C1336 1.391 . S
C1338 C1339 1.400 . S
C1339 C1338 1.400 . S
C1339 C1340 1.398 . S
C1339 C1345 1.491 1_545 S
C1340 H1331 0.950 . S
C1340 C1339 1.398 . S
C1340 C1341 1.391 . S
C1341 H1329 0.950 . S
C1341 C1337 1.393 . S
C1341 C1340 1.391 . S
C1342 H1332 0.950 . S
C1342 C1343 1.386 . S
C1342 C1344 1.391 . S
C1343 C1342 1.386 . S
C1343 C1347 1.393 . S
C1344 H1333 0.950 . S
C1344 C1342 1.391 . S
C1344 C1345 1.400 . S
C1345 C1339 1.491 1_565 S
C1345 C1344 1.400 . S
C1345 C1346 1.398 . S
C1346 H1334 0.950 . S
C1346 C1345 1.398 . S
C1346 C1347 1.391 . S
C1347 H1335 0.950 . S
C1347 C1343 1.393 . S
C1347 C1346 1.391 . S
H1348 C1356 0.950 . S
H1349 C1361 0.950 . S
H1350 C1358 0.950 . S
H1351 C1360 0.950 . S
H1352 C1362 0.950 . S
H1353 C1364 0.950 . S
H1354 C1366 0.950 . S
H1355 C1367 0.950 . S
C1356 H1348 0.950 . S
C1356 C1357 1.386 . S
C1356 C1358 1.391 . S
C1357 C1356 1.386 . S
C1357 C1361 1.393 . S
C1358 H1350 0.950 . S
C1358 C1356 1.391 . S
C1358 C1359 1.400 . S
C1359 C1358 1.400 . S
C1359 C1360 1.398 . S
C1359 C1365 1.491 . S
C1360 H1351 0.950 . S
C1360 C1359 1.398 . S
C1360 C1361 1.391 . S
C1361 H1349 0.950 . S
C1361 C1357 1.393 . S
C1361 C1360 1.391 . S
C1362 H1352 0.950 . S
C1362 C1363 1.386 . S
C1362 C1364 1.391 . S
C1363 C1362 1.386 . S
C1363 C1367 1.393 . S
C1364 H1353 0.950 . S
C1364 C1362 1.391 . S
C1364 C1365 1.400 . S
C1365 C1359 1.491 . S
C1365 C1364 1.400 . S
C1365 C1366 1.398 . S
C1366 H1354 0.950 . S
C1366 C1365 1.398 . S
C1366 C1367 1.391 . S
C1367 H1355 0.950 . S
C1367 C1363 1.393 . S
C1367 C1366 1.391 . S
H1368 C1376 0.950 . S
H1369 C1381 0.950 . S
H1370 C1378 0.950 . S
H1371 C1380 0.950 . S
H1372 C1382 0.950 . S
H1373 C1384 0.950 . S
H1374 C1386 0.950 . S
H1375 C1387 0.950 . S
C1376 H1368 0.950 . S
C1376 C1377 1.386 . S
C1376 C1378 1.391 . S
C1377 C1376 1.386 . S
C1377 C1381 1.393 1_554 S
C1378 H1370 0.950 . S
C1378 C1376 1.391 . S
C1378 C1379 1.400 . S
C1379 C1378 1.400 . S
C1379 C1380 1.398 1_554 S
C1379 C1385 1.491 1_564 S
C1380 H1371 0.950 . S
C1380 C1379 1.398 1_556 S
C1380 C1381 1.391 . S
C1381 H1369 0.950 . S
C1381 C1377 1.393 1_556 S
C1381 C1380 1.391 . S
C1382 H1372 0.950 . S
C1382 C1383 1.386 . S
C1382 C1384 1.391 . S
C1383 C1382 1.386 . S
C1383 C1387 1.393 1_556 S
C1384 H1373 0.950 . S
C1384 C1382 1.391 . S
C1384 C1385 1.400 . S
C1385 C1379 1.491 1_546 S
C1385 C1384 1.400 . S
C1385 C1386 1.398 1_556 S
C1386 H1374 0.950 . S
C1386 C1385 1.398 1_554 S
C1386 C1387 1.391 . S
C1387 H1375 0.950 . S
C1387 C1383 1.393 1_554 S
C1387 C1386 1.391 . S
H1388 C1396 0.950 . S
H1389 C1401 0.950 . S
H1390 C1398 0.950 . S
H1391 C1400 0.950 . S
H1392 C1402 0.950 . S
H1393 C1404 0.950 . S
H1394 C1406 0.950 . S
H1395 C1407 0.950 . S
C1396 H1388 0.950 . S
C1396 C1397 1.386 . S
C1396 C1398 1.391 . S
C1397 C1396 1.386 . S
C1397 C1401 1.393 . S
C1398 H1390 0.950 . S
C1398 C1396 1.391 . S
C1398 C1399 1.400 . S
C1399 C1398 1.400 . S
C1399 C1400 1.398 . S
C1399 C1405 1.491 . S
C1400 H1391 0.950 . S
C1400 C1399 1.398 . S
C1400 C1401 1.391 . S
C1401 H1389 0.950 . S
C1401 C1397 1.393 . S
C1401 C1400 1.391 . S
C1402 H1392 0.950 . S
C1402 C1403 1.386 . S
C1402 C1404 1.391 . S
C1403 C1402 1.386 . S
C1403 C1407 1.393 . S
C1404 H1393 0.950 . S
C1404 C1402 1.391 . S
C1404 C1405 1.400 . S
C1405 C1399 1.491 . S
C1405 C1404 1.400 . S
C1405 C1406 1.398 . S
C1406 H1394 0.950 . S
C1406 C1405 1.398 . S
C1406 C1407 1.391 . S
C1407 H1395 0.950 . S
C1407 C1403 1.393 . S
C1407 C1406 1.391 . S
H1408 C1416 0.950 . S
H1409 C1421 0.950 . S
H1410 C1418 0.950 . S
H1411 C1420 0.950 . S
H1412 C1422 0.950 . S
H1413 C1424 0.950 . S
H1414 C1426 0.950 . S
H1415 C1427 0.950 . S
C1416 H1408 0.950 . S
C1416 C1417 1.386 . S
C1416 C1418 1.391 . S
C1417 C1416 1.386 . S
C1417 C1421 1.393 . S
C1418 H1410 0.950 . S
C1418 C1416 1.391 . S
C1418 C1419 1.400 . S
C1419 C1418 1.400 . S
C1419 C1420 1.398 . S
C1419 C1425 1.491 . S
C1420 H1411 0.950 . S
C1420 C1419 1.398 . S
C1420 C1421 1.391 . S
C1421 H1409 0.950 . S
C1421 C1417 1.393 . S
C1421 C1420 1.391 . S
C1422 H1412 0.950 . S
C1422 C1423 1.386 . S
C1422 C1424 1.391 . S
C1423 C1422 1.386 . S
C1423 C1427 1.393 . S
C1424 H1413 0.950 . S
C1424 C1422 1.391 . S
C1424 C1425 1.400 . S
C1425 C1419 1.491 . S
C1425 C1424 1.400 . S
C1425 C1426 1.398 . S
C1426 H1414 0.950 . S
C1426 C1425 1.398 . S
C1426 C1427 1.391 . S
C1427 H1415 0.950 . S
C1427 C1423 1.393 . S
C1427 C1426 1.391 . S
H1428 C1436 0.950 . S
H1429 C1441 0.950 . S
H1430 C1438 0.950 . S
H1431 C1440 0.950 . S
H1432 C1442 0.950 . S
H1433 C1444 0.950 . S
H1434 C1446 0.950 . S
H1435 C1447 0.950 . S
C1436 H1428 0.950 . S
C1436 C1437 1.386 . S
C1436 C1438 1.391 . S
C1437 C1436 1.386 . S
C1437 C1441 1.393 . S
C1438 H1430 0.950 . S
C1438 C1436 1.391 . S
C1438 C1439 1.400 . S
C1439 C1438 1.400 . S
C1439 C1440 1.398 . S
C1439 C1445 1.491 . S
C1440 H1431 0.950 . S
C1440 C1439 1.398 . S
C1440 C1441 1.391 . S
C1441 H1429 0.950 . S
C1441 C1437 1.393 . S
C1441 C1440 1.391 . S
C1442 H1432 0.950 . S
C1442 C1443 1.386 . S
C1442 C1444 1.391 . S
C1443 C1442 1.386 . S
C1443 C1447 1.393 . S
C1444 H1433 0.950 . S
C1444 C1442 1.391 . S
C1444 C1445 1.400 . S
C1445 C1439 1.491 . S
C1445 C1444 1.400 . S
C1445 C1446 1.398 . S
C1446 H1434 0.950 . S
C1446 C1445 1.398 . S
C1446 C1447 1.391 . S
C1447 H1435 0.950 . S
C1447 C1443 1.393 . S
C1447 C1446 1.391 . S
H1448 C1456 0.950 . S
H1449 C1461 0.950 . S
H1450 C1458 0.950 . S
H1451 C1460 0.950 . S
H1452 C1462 0.950 . S
H1453 C1464 0.950 . S
H1454 C1466 0.950 . S
H1455 C1467 0.950 . S
C1456 H1448 0.950 . S
C1456 C1457 1.386 . S
C1456 C1458 1.391 . S
C1457 C1456 1.386 . S
C1457 C1461 1.393 . S
C1458 H1450 0.950 . S
C1458 C1456 1.391 . S
C1458 C1459 1.400 . S
C1459 C1458 1.400 . S
C1459 C1460 1.398 . S
C1459 C1465 1.491 . S
C1460 H1451 0.950 . S
C1460 C1459 1.398 . S
C1460 C1461 1.391 . S
C1461 H1449 0.950 . S
C1461 C1457 1.393 . S
C1461 C1460 1.391 . S
C1462 H1452 0.950 . S
C1462 C1463 1.386 . S
C1462 C1464 1.391 . S
C1463 C1462 1.386 . S
C1463 C1467 1.393 . S
C1464 H1453 0.950 . S
C1464 C1462 1.391 . S
C1464 C1465 1.400 . S
C1465 C1459 1.491 . S
C1465 C1464 1.400 . S
C1465 C1466 1.398 . S
C1466 H1454 0.950 . S
C1466 C1465 1.398 . S
C1466 C1467 1.391 . S
C1467 H1455 0.950 . S
C1467 C1463 1.393 . S
C1467 C1466 1.391 . S
H1468 C1476 0.950 . S
H1469 C1481 0.950 . S
H1470 C1478 0.950 . S
H1471 C1480 0.950 . S
H1472 C1482 0.950 . S
H1473 C1484 0.950 . S
H1474 C1486 0.950 . S
H1475 C1487 0.950 . S
C1476 H1468 0.950 . S
C1476 C1477 1.386 . S
C1476 C1478 1.391 . S
C1477 C1476 1.386 . S
C1477 C1481 1.393 . S
C1478 H1470 0.950 . S
C1478 C1476 1.391 . S
C1478 C1479 1.400 . S
C1479 C1478 1.400 . S
C1479 C1480 1.398 . S
C1479 C1485 1.491 1_655 S
C1480 H1471 0.950 . S
C1480 C1479 1.398 . S
C1480 C1481 1.391 . S
C1481 H1469 0.950 . S
C1481 C1477 1.393 . S
C1481 C1480 1.391 . S
C1482 H1472 0.950 . S
C1482 C1483 1.386 . S
C1482 C1484 1.391 . S
C1483 C1482 1.386 . S
C1483 C1487 1.393 . S
C1484 H1473 0.950 . S
C1484 C1482 1.391 . S
C1484 C1485 1.400 . S
C1485 C1479 1.491 1_455 S
C1485 C1484 1.400 . S
C1485 C1486 1.398 . S
C1486 H1474 0.950 . S
C1486 C1485 1.398 . S
C1486 C1487 1.391 . S
C1487 H1475 0.950 . S
C1487 C1483 1.393 . S
C1487 C1486 1.391 . S
H1488 C1496 0.936 1_554 S
H1489 C1501 0.950 . S
H1490 C1498 0.939 1_554 S
H1491 C1500 0.950 . S
H1492 C1502 0.950 . S
H1493 C1504 0.950 . S
H1494 C1506 0.944 1_554 S
H1495 C1507 0.951 1_554 S
C1496 H1488 0.936 1_556 S
C1496 C1497 1.399 . S
C1496 C1498 1.391 . S
C1497 C1496 1.399 . S
C1497 C1501 1.393 . S
C1498 H1490 0.939 1_556 S
C1498 C1496 1.391 . S
C1498 C1499 1.411 . S
C1499 C1498 1.411 . S
C1499 C1500 1.398 . S
C1499 C1505 1.491 . S
C1500 H1491 0.950 . S
C1500 C1499 1.398 . S
C1500 C1501 1.391 . S
C1501 H1489 0.950 . S
C1501 C1497 1.393 . S
C1501 C1500 1.391 . S
C1502 H1492 0.950 . S
C1502 C1503 1.386 . S
C1502 C1504 1.391 . S
C1503 C1502 1.386 . S
C1503 C1507 1.391 . S
C1504 H1493 0.950 . S
C1504 C1502 1.391 . S
C1504 C1505 1.400 . S
C1505 C1499 1.491 . S
C1505 C1504 1.400 . S
C1505 C1506 1.404 . S
C1506 H1494 0.944 1_556 S
C1506 C1505 1.404 . S
C1506 C1507 1.391 . S
C1507 H1495 0.951 1_556 S
C1507 C1503 1.391 . S
C1507 C1506 1.391 . S
H1508 C1516 0.950 . S
H1509 C1521 0.950 . S
H1510 C1518 0.950 . S
H1511 C1520 0.950 . S
H1512 C1522 0.950 . S
H1513 C1524 0.950 . S
H1514 C1526 0.950 . S
H1515 C1527 0.950 . S
C1516 H1508 0.950 . S
C1516 C1517 1.386 . S
C1516 C1518 1.391 . S
C1517 C1516 1.386 . S
C1517 C1521 1.393 . S
C1518 H1510 0.950 . S
C1518 C1516 1.391 . S
C1518 C1519 1.400 . S
C1519 C1518 1.400 . S
C1519 C1520 1.398 . S
C1519 C1525 1.491 1_655 S
C1520 H1511 0.950 . S
C1520 C1519 1.398 . S
C1520 C1521 1.391 . S
C1521 H1509 0.950 . S
C1521 C1517 1.393 . S
C1521 C1520 1.391 . S
C1522 H1512 0.950 . S
C1522 C1523 1.386 . S
C1522 C1524 1.391 . S
C1523 C1522 1.386 . S
C1523 C1527 1.393 . S
C1524 H1513 0.950 . S
C1524 C1522 1.391 . S
C1524 C1525 1.400 . S
C1525 C1519 1.491 1_455 S
C1525 C1524 1.400 . S
C1525 C1526 1.398 . S
C1526 H1514 0.950 . S
C1526 C1525 1.398 . S
C1526 C1527 1.391 . S
C1527 H1515 0.950 . S
C1527 C1523 1.393 . S
C1527 C1526 1.391 . S
H1528 C1536 0.950 . S
H1529 C1541 0.950 . S
H1530 C1538 0.950 . S
H1531 C1540 0.950 . S
H1532 C1542 0.950 . S
H1533 C1544 0.950 . S
H1534 C1546 0.950 . S
H1535 C1547 0.950 . S
C1536 H1528 0.950 . S
C1536 C1537 1.386 . S
C1536 C1538 1.391 . S
C1537 C1536 1.386 . S
C1537 C1541 1.393 . S
C1538 H1530 0.950 . S
C1538 C1536 1.391 . S
C1538 C1539 1.400 . S
C1539 C1538 1.400 . S
C1539 C1540 1.398 . S
C1539 C1545 1.491 . S
C1540 H1531 0.950 . S
C1540 C1539 1.398 . S
C1540 C1541 1.391 . S
C1541 H1529 0.950 . S
C1541 C1537 1.393 . S
C1541 C1540 1.391 . S
C1542 H1532 0.950 . S
C1542 C1543 1.386 . S
C1542 C1544 1.391 . S
C1543 C1542 1.386 . S
C1543 C1547 1.393 . S
C1544 H1533 0.950 . S
C1544 C1542 1.391 . S
C1544 C1545 1.400 . S
C1545 C1539 1.491 . S
C1545 C1544 1.400 . S
C1545 C1546 1.398 . S
C1546 H1534 0.950 . S
C1546 C1545 1.398 . S
C1546 C1547 1.391 . S
C1547 H1535 0.950 . S
C1547 C1543 1.393 . S
C1547 C1546 1.391 . S
H1548 C1556 0.950 . S
H1549 C1561 0.950 . S
H1550 C1558 0.950 . S
H1551 C1560 0.950 . S
H1552 C1562 0.950 . S
H1553 C1564 0.950 . S
H1554 C1566 0.950 . S
H1555 C1567 0.950 . S
C1556 H1548 0.950 . S
C1556 C1557 1.386 . S
C1556 C1558 1.391 . S
C1557 C1556 1.386 . S
C1557 C1561 1.393 . S
C1558 H1550 0.950 . S
C1558 C1556 1.391 . S
C1558 C1559 1.400 . S
C1559 C1558 1.400 . S
C1559 C1560 1.398 . S
C1559 C1565 1.491 . S
C1560 H1551 0.950 . S
C1560 C1559 1.398 . S
C1560 C1561 1.391 . S
C1561 H1549 0.950 . S
C1561 C1557 1.393 . S
C1561 C1560 1.391 . S
C1562 H1552 0.950 . S
C1562 C1563 1.386 . S
C1562 C1564 1.391 . S
C1563 C1562 1.386 . S
C1563 C1567 1.393 . S
C1564 H1553 0.950 . S
C1564 C1562 1.391 . S
C1564 C1565 1.400 . S
C1565 C1559 1.491 . S
C1565 C1564 1.400 . S
C1565 C1566 1.398 . S
C1566 H1554 0.950 . S
C1566 C1565 1.398 . S
C1566 C1567 1.391 . S
C1567 H1555 0.950 . S
C1567 C1563 1.393 . S
C1567 C1566 1.391 . S
H1568 C1576 0.950 . S
H1569 C1581 0.950 1_554 S
H1570 C1578 0.950 . S
H1571 C1580 0.950 1_554 S
H1572 C1582 0.933 1_554 S
H1573 C1584 0.916 1_554 S
H1574 C1586 0.950 . S
H1575 C1587 0.950 . S
C1576 H1568 0.950 . S
C1576 C1577 1.386 . S
C1576 C1578 1.391 . S
C1577 C1576 1.386 . S
C1577 C1581 1.393 . S
C1578 H1570 0.950 . S
C1578 C1576 1.391 . S
C1578 C1579 1.400 . S
C1579 C1578 1.400 . S
C1579 C1580 1.398 . S
C1579 C1585 1.491 . S
C1580 H1571 0.950 1_556 S
C1580 C1579 1.398 . S
C1580 C1581 1.391 . S
C1581 H1569 0.950 1_556 S
C1581 C1577 1.393 . S
C1581 C1580 1.391 . S
C1582 H1572 0.933 1_556 S
C1582 C1583 1.386 . S
C1582 C1584 1.391 . S
C1583 C1582 1.386 . S
C1583 C1587 1.393 . S
C1584 H1573 0.916 1_556 S
C1584 C1582 1.391 . S
C1584 C1585 1.400 . S
C1585 C1579 1.491 . S
C1585 C1584 1.400 . S
C1585 C1586 1.398 . S
C1586 H1574 0.950 . S
C1586 C1585 1.398 . S
C1586 C1587 1.391 . S
C1587 H1575 0.950 . S
C1587 C1583 1.393 . S
C1587 C1586 1.391 . S
H1588 C1596 0.950 . S
H1589 C1601 0.950 . S
H1590 C1598 0.950 . S
H1591 C1600 0.950 . S
H1592 C1602 0.950 . S
H1593 C1604 0.950 . S
H1594 C1606 0.950 . S
H1595 C1607 0.950 . S
C1596 H1588 0.950 . S
C1596 C1597 1.386 . S
C1596 C1598 1.391 . S
C1597 C1596 1.386 . S
C1597 C1601 1.393 . S
C1598 H1590 0.950 . S
C1598 C1596 1.391 . S
C1598 C1599 1.400 . S
C1599 C1598 1.400 . S
C1599 C1600 1.398 . S
C1599 C1605 1.491 . S
C1600 H1591 0.950 . S
C1600 C1599 1.398 . S
C1600 C1601 1.391 . S
C1601 H1589 0.950 . S
C1601 C1597 1.393 . S
C1601 C1600 1.391 . S
C1602 H1592 0.950 . S
C1602 C1603 1.386 . S
C1602 C1604 1.391 . S
C1603 C1602 1.386 . S
C1603 C1607 1.393 . S
C1604 H1593 0.950 . S
C1604 C1602 1.391 . S
C1604 C1605 1.400 . S
C1605 C1599 1.491 . S
C1605 C1604 1.400 . S
C1605 C1606 1.398 . S
C1606 H1594 0.950 . S
C1606 C1605 1.398 . S
C1606 C1607 1.391 . S
C1607 H1595 0.950 . S
C1607 C1603 1.393 . S
C1607 C1606 1.391 . S
H1608 C1616 0.950 . S
H1609 C1621 0.950 . S
H1610 C1618 0.971 . S
H1611 C1620 0.950 . S
H1612 C1622 0.950 . S
H1613 C1624 0.950 . S
H1614 C1626 0.916 1_556 S
H1615 C1627 0.935 1_556 S
C1616 H1608 0.950 . S
C1616 C1617 1.386 . S
C1616 C1618 1.391 . S
C1617 C1616 1.386 . S
C1617 C1621 1.393 . S
C1618 H1610 0.971 . S
C1618 C1616 1.391 . S
C1618 C1619 1.400 . S
C1619 C1618 1.400 . S
C1619 C1620 1.398 . S
C1619 C1625 1.491 . S
C1620 H1611 0.950 . S
C1620 C1619 1.398 . S
C1620 C1621 1.391 . S
C1621 H1609 0.950 . S
C1621 C1617 1.393 . S
C1621 C1620 1.391 . S
C1622 H1612 0.950 . S
C1622 C1623 1.386 . S
C1622 C1624 1.391 . S
C1623 C1622 1.386 . S
C1623 C1627 1.393 . S
C1624 H1613 0.950 . S
C1624 C1622 1.391 . S
C1624 C1625 1.400 . S
C1625 C1619 1.491 . S
C1625 C1624 1.400 . S
C1625 C1626 1.398 . S
C1626 H1614 0.916 1_554 S
C1626 C1625 1.398 . S
C1626 C1627 1.391 . S
C1627 H1615 0.935 1_554 S
C1627 C1623 1.393 . S
C1627 C1626 1.391 . S
H1628 C1636 0.950 . S
H1629 C1641 0.950 . S
H1630 C1638 0.950 . S
H1631 C1640 0.950 . S
H1632 C1642 0.950 . S
H1633 C1644 0.950 . S
H1634 C1646 0.950 . S
H1635 C1647 0.950 . S
C1636 H1628 0.950 . S
C1636 C1637 1.386 . S
C1636 C1638 1.391 . S
C1637 C1636 1.386 . S
C1637 C1641 1.393 . S
C1638 H1630 0.950 . S
C1638 C1636 1.391 . S
C1638 C1639 1.400 . S
C1639 C1638 1.400 . S
C1639 C1640 1.398 . S
C1639 C1645 1.491 . S
C1640 H1631 0.950 . S
C1640 C1639 1.398 . S
C1640 C1641 1.391 . S
C1641 H1629 0.950 . S
C1641 C1637 1.393 . S
C1641 C1640 1.391 . S
C1642 H1632 0.950 . S
C1642 C1643 1.386 . S
C1642 C1644 1.391 . S
C1643 C1642 1.386 . S
C1643 C1647 1.393 . S
C1644 H1633 0.950 . S
C1644 C1642 1.391 . S
C1644 C1645 1.400 . S
C1645 C1639 1.491 . S
C1645 C1644 1.400 . S
C1645 C1646 1.398 . S
C1646 H1634 0.950 . S
C1646 C1645 1.398 . S
C1646 C1647 1.391 . S
C1647 H1635 0.950 . S
C1647 C1643 1.393 . S
C1647 C1646 1.391 . S
H1648 C1656 0.950 . S
H1649 C1661 0.950 . S
H1650 C1658 0.950 . S
H1651 C1660 0.950 . S
H1652 C1662 0.950 . S
H1653 C1664 0.950 . S
H1654 C1666 0.950 . S
H1655 C1667 0.950 . S
C1656 H1648 0.950 . S
C1656 C1657 1.386 . S
C1656 C1658 1.391 . S
C1657 C1656 1.386 . S
C1657 C1661 1.393 . S
C1658 H1650 0.950 . S
C1658 C1656 1.391 . S
C1658 C1659 1.400 . S
C1659 C1658 1.400 . S
C1659 C1660 1.398 . S
C1659 C1665 1.491 1_655 S
C1660 H1651 0.950 . S
C1660 C1659 1.398 . S
C1660 C1661 1.391 . S
C1661 H1649 0.950 . S
C1661 C1657 1.393 . S
C1661 C1660 1.391 . S
C1662 H1652 0.950 . S
C1662 C1663 1.386 . S
C1662 C1664 1.391 . S
C1663 C1662 1.386 . S
C1663 C1667 1.393 . S
C1664 H1653 0.950 . S
C1664 C1662 1.391 . S
C1664 C1665 1.400 . S
C1665 C1659 1.491 1_455 S
C1665 C1664 1.400 . S
C1665 C1666 1.398 . S
C1666 H1654 0.950 . S
C1666 C1665 1.398 . S
C1666 C1667 1.391 . S
C1667 H1655 0.950 . S
C1667 C1663 1.393 . S
C1667 C1666 1.391 . S
H1668 C1676 0.950 . S
H1669 C1681 0.950 . S
H1670 C1678 0.950 . S
H1671 C1680 0.950 . S
H1672 C1682 0.950 . S
H1673 C1684 0.950 . S
H1674 C1686 0.950 . S
H1675 C1687 0.950 . S
C1676 H1668 0.950 . S
C1676 C1677 1.386 . S
C1676 C1678 1.391 . S
C1677 C1676 1.386 . S
C1677 C1681 1.393 . S
C1678 H1670 0.950 . S
C1678 C1676 1.391 . S
C1678 C1679 1.400 . S
C1679 C1678 1.400 . S
C1679 C1680 1.398 . S
C1679 C1685 1.491 . S
C1680 H1671 0.950 . S
C1680 C1679 1.398 . S
C1680 C1681 1.391 . S
C1681 H1669 0.950 . S
C1681 C1677 1.393 . S
C1681 C1680 1.391 . S
C1682 H1672 0.950 . S
C1682 C1683 1.386 . S
C1682 C1684 1.391 . S
C1683 C1682 1.386 . S
C1683 C1687 1.393 . S
C1684 H1673 0.950 . S
C1684 C1682 1.391 . S
C1684 C1685 1.400 . S
C1685 C1679 1.491 . S
C1685 C1684 1.400 . S
C1685 C1686 1.398 . S
C1686 H1674 0.950 . S
C1686 C1685 1.398 . S
C1686 C1687 1.391 . S
C1687 H1675 0.950 . S
C1687 C1683 1.393 . S
C1687 C1686 1.391 . S
H1688 C1696 0.950 . S
H1689 C1701 0.950 . S
H1690 C1698 0.950 . S
H1691 C1700 0.950 . S
H1692 C1702 0.950 . S
H1693 C1704 0.950 . S
H1694 C1706 0.950 . S
H1695 C1707 0.950 . S
C1696 H1688 0.950 . S
C1696 C1697 1.386 . S
C1696 C1698 1.391 . S
C1697 C1696 1.386 . S
C1697 C1701 1.393 . S
C1698 H1690 0.950 . S
C1698 C1696 1.391 . S
C1698 C1699 1.400 . S
C1699 C1698 1.400 . S
C1699 C1700 1.398 . S
C1699 C1705 1.491 . S
C1700 H1691 0.950 . S
C1700 C1699 1.398 . S
C1700 C1701 1.391 . S
C1701 H1689 0.950 . S
C1701 C1697 1.393 . S
C1701 C1700 1.391 . S
C1702 H1692 0.950 . S
C1702 C1703 1.386 . S
C1702 C1704 1.391 . S
C1703 C1702 1.386 . S
C1703 C1707 1.393 . S
C1704 H1693 0.950 . S
C1704 C1702 1.391 . S
C1704 C1705 1.400 . S
C1705 C1699 1.491 . S
C1705 C1704 1.400 . S
C1705 C1706 1.398 . S
C1706 H1694 0.950 . S
C1706 C1705 1.398 . S
C1706 C1707 1.391 . S
C1707 H1695 0.950 . S
C1707 C1703 1.393 . S
C1707 C1706 1.391 . S
H1708 C1716 0.950 . S
H1709 C1721 0.950 . S
H1710 C1718 0.950 . S
H1711 C1720 0.950 . S
H1712 C1722 0.950 . S
H1713 C1724 0.950 . S
H1714 C1726 0.950 . S
H1715 C1727 0.950 . S
C1716 H1708 0.950 . S
C1716 C1717 1.386 . S
C1716 C1718 1.391 . S
C1717 C1716 1.386 . S
C1717 C1721 1.393 . S
C1718 H1710 0.950 . S
C1718 C1716 1.391 . S
C1718 C1719 1.400 . S
C1719 C1718 1.400 . S
C1719 C1720 1.398 . S
C1719 C1725 1.491 1_655 S
C1720 H1711 0.950 . S
C1720 C1719 1.398 . S
C1720 C1721 1.391 . S
C1721 H1709 0.950 . S
C1721 C1717 1.393 . S
C1721 C1720 1.391 . S
C1722 H1712 0.950 . S
C1722 C1723 1.386 . S
C1722 C1724 1.391 . S
C1723 C1722 1.386 . S
C1723 C1727 1.393 . S
C1724 H1713 0.950 . S
C1724 C1722 1.391 . S
C1724 C1725 1.400 . S
C1725 C1719 1.491 1_455 S
C1725 C1724 1.400 . S
C1725 C1726 1.398 . S
C1726 H1714 0.950 . S
C1726 C1725 1.398 . S
C1726 C1727 1.391 . S
C1727 H1715 0.950 . S
C1727 C1723 1.393 . S
C1727 C1726 1.391 . S
C457 C325 1.707 . S
C463 C3 1.700 . S
C477 C283 1.707 . S
C483 C17 1.703 . S
C497 C297 1.706 . S
C503 C31 1.698 . S
C517 C311 1.693 . S
C523 C45 1.697 . S
C537 C59 1.693 . S
C543 C241 1.699 . S
C557 C255 1.700 . S
C563 C73 1.693 . S
C577 C87 1.699 . S
C583 C269 1.693 . S
C597 C101 1.693 . S
C603 C227 1.698 . S
C617 C437 1.696 . S
C623 C115 1.693 . S
C637 C129 1.704 . S
C643 C395 1.695 . S
C657 C143 1.698 . S
C663 C409 1.706 . S
C677 C157 1.693 . S
C683 C423 1.701 . S
C697 C171 1.693 . S
C703 C353 1.696 . S
C717 C185 1.694 . S
C723 C367 1.694 . S
C737 C199 1.701 . S
C743 C381 1.693 . S
C757 C213 1.701 . S
C763 C339 1.707 . S
C777 C7 1.273 . S
C783 C175 1.263 . S
C797 C413 1.253 . S
C803 C21 1.283 . S
C817 C35 1.258 . S
C823 C203 1.279 . S
C837 C441 1.259 . S
C843 C49 1.277 . S
C857 C119 1.258 . S
C863 C63 1.278 . S
C877 C77 1.267 . S
C883 C357 1.269 . S
C897 C91 1.271 . S
C903 C147 1.265 . S
C917 C105 1.259 . S
C923 C385 1.277 . S
C937 C301 1.283 . S
C943 C133 1.253 . S
C957 C329 1.254 . S
C963 C161 1.283 . S
C977 C189 1.274 . S
C983 C245 1.262 . S
C997 C273 1.265 . S
C1003 C217 1.271 . S
C1017 C399 1.252 . S
C1023 C231 1.284 . S
C1037 C259 1.278 . S
C1043 C427 1.258 . S
C1057 C343 1.284 . S
C1063 C287 1.253 . S
C1077 C371 1.283 . S
C1083 C315 1.254 . S
C1097 C64 1.241 . S
C1103 C8 1.229 . S
C1117 C78 1.225 . S
C1123 C22 1.236 . S
C1137 C36 1.238 . S
C1143 C92 1.242 . S
C1157 C50 1.228 . S
C1163 C106 1.224 . S
C1177 C176 1.243 . S
C1183 C120 1.235 . S
C1197 C190 1.241 . S
C1203 C134 1.240 . S
C1217 C204 1.224 . S
C1223 C148 1.231 . S
C1237 C162 1.224 . S
C1243 C218 1.231 . S
C1257 C232 1.224 . S
C1263 C288 1.228 . S
C1277 C246 1.236 . S
C1283 C302 1.243 . S
C1297 C260 1.226 . S
C1303 C316 1.226 . S
C1317 C274 1.225 . S
C1323 C330 1.227 . S
C1337 C400 1.226 . S
C1343 C344 1.226 . S
C1357 C414 1.225 . S
C1363 C358 1.236 . S
C1377 C428 1.232 . S
C1383 C372 1.224 . S
C1397 C442 1.224 . S
C1403 C386 1.232 . S
C1417 C429 1.531 . S
C1423 C9 1.503 . S
C1437 C23 1.527 . S
C1443 C219 1.507 . S
C1457 C401 1.531 . S
C1463 C37 1.503 . S
C1477 C51 1.509 . S
C1483 C191 1.526 . S
C1497 C373 1.525 . S
C1503 C65 1.509 . S
C1517 C79 1.504 . S
C1523 C163 1.531 . S
C1537 C93 1.526 . S
C1543 C345 1.508 . S
C1557 C135 1.525 . S
C1563 C107 1.509 . S
C1577 C121 1.521 . S
C1583 C317 1.513 . S
C1597 C289 1.530 . S
C1603 C149 1.504 . S
C1617 C177 1.512 . S
C1623 C261 1.522 . S
C1637 C205 1.524 . S
C1643 C233 1.510 . S
C1657 C443 1.510 . S
C1663 C247 1.524 . S
C1677 C275 1.503 . S
C1683 C415 1.531 . S
C1697 C303 1.503 . S
C1703 C387 1.531 . S
C1717 C359 1.510 . S
C1723 C331 1.524 . S
