# Generated by pormake.
# Topology upc, (4)-cn, num edge types: 1
# Building blocks:
#     Node 0, Type 0, BuildingBlock: CEKHIL_clean_sbu_0, # of connection points: 4
#     Node 1, Type 0, BuildingBlock: CEKHIL_clean_sbu_0, # of connection points: 4
#     Node 2, Type 0, BuildingBlock: CEKHIL_clean_sbu_0, # of connection points: 4
#     Node 3, Type 0, BuildingBlock: CEKHIL_clean_sbu_0, # of connection points: 4
#     Node 4, Type 0, BuildingBlock: CEKHIL_clean_sbu_0, # of connection points: 4
#     Node 5, Type 0, BuildingBlock: CEKHIL_clean_sbu_0, # of connection points: 4
#     Node 6, Type 0, BuildingBlock: CEKHIL_clean_sbu_0, # of connection points: 4
#     Node 7, Type 0, BuildingBlock: CEKHIL_clean_sbu_0, # of connection points: 4
#     Node 8, Type 0, BuildingBlock: CEKHIL_clean_sbu_0, # of connection points: 4
#     Node 9, Type 0, BuildingBlock: CEKHIL_clean_sbu_0, # of connection points: 4
#     Node 10, Type 0, BuildingBlock: CEKHIL_clean_sbu_0, # of connection points: 4
#     Node 11, Type 0, BuildingBlock: CEKHIL_clean_sbu_0, # of connection points: 4
#     Node 12, Type 0, BuildingBlock: CEKHIL_clean_sbu_0, # of connection points: 4
#     Node 13, Type 0, BuildingBlock: CEKHIL_clean_sbu_0, # of connection points: 4
#     Node 14, Type 0, BuildingBlock: CEKHIL_clean_sbu_0, # of connection points: 4
#     Node 15, Type 0, BuildingBlock: CEKHIL_clean_sbu_0, # of connection points: 4
#     Edge 16, Type (0, 0), BuildingBlock: KIFKEQ_clean_linker_1, # of connection points: 2
#     Edge 17, Type (0, 0), BuildingBlock: KIFKEQ_clean_linker_1, # of connection points: 2
#     Edge 18, Type (0, 0), BuildingBlock: KIFKEQ_clean_linker_1, # of connection points: 2
#     Edge 19, Type (0, 0), BuildingBlock: KIFKEQ_clean_linker_1, # of connection points: 2
#     Edge 20, Type (0, 0), BuildingBlock: KIFKEQ_clean_linker_1, # of connection points: 2
#     Edge 21, Type (0, 0), BuildingBlock: KIFKEQ_clean_linker_1, # of connection points: 2
#     Edge 22, Type (0, 0), BuildingBlock: KIFKEQ_clean_linker_1, # of connection points: 2
#     Edge 23, Type (0, 0), BuildingBlock: KIFKEQ_clean_linker_1, # of connection points: 2
#     Edge 24, Type (0, 0), BuildingBlock: KIFKEQ_clean_linker_1, # of connection points: 2
#     Edge 25, Type (0, 0), BuildingBlock: KIFKEQ_clean_linker_1, # of connection points: 2
#     Edge 26, Type (0, 0), BuildingBlock: KIFKEQ_clean_linker_1, # of connection points: 2
#     Edge 27, Type (0, 0), BuildingBlock: KIFKEQ_clean_linker_1, # of connection points: 2
#     Edge 28, Type (0, 0), BuildingBlock: KIFKEQ_clean_linker_1, # of connection points: 2
#     Edge 29, Type (0, 0), BuildingBlock: KIFKEQ_clean_linker_1, # of connection points: 2
#     Edge 30, Type (0, 0), BuildingBlock: KIFKEQ_clean_linker_1, # of connection points: 2
#     Edge 31, Type (0, 0), BuildingBlock: KIFKEQ_clean_linker_1, # of connection points: 2
#     Edge 32, Type (0, 0), BuildingBlock: KIFKEQ_clean_linker_1, # of connection points: 2
#     Edge 33, Type (0, 0), BuildingBlock: KIFKEQ_clean_linker_1, # of connection points: 2
#     Edge 34, Type (0, 0), BuildingBlock: KIFKEQ_clean_linker_1, # of connection points: 2
#     Edge 35, Type (0, 0), BuildingBlock: KIFKEQ_clean_linker_1, # of connection points: 2
#     Edge 36, Type (0, 0), BuildingBlock: KIFKEQ_clean_linker_1, # of connection points: 2
#     Edge 37, Type (0, 0), BuildingBlock: KIFKEQ_clean_linker_1, # of connection points: 2
#     Edge 38, Type (0, 0), BuildingBlock: KIFKEQ_clean_linker_1, # of connection points: 2
#     Edge 39, Type (0, 0), BuildingBlock: KIFKEQ_clean_linker_1, # of connection points: 2
#     Edge 40, Type (0, 0), BuildingBlock: KIFKEQ_clean_linker_1, # of connection points: 2
#     Edge 41, Type (0, 0), BuildingBlock: KIFKEQ_clean_linker_1, # of connection points: 2
#     Edge 42, Type (0, 0), BuildingBlock: KIFKEQ_clean_linker_1, # of connection points: 2
#     Edge 43, Type (0, 0), BuildingBlock: KIFKEQ_clean_linker_1, # of connection points: 2
#     Edge 44, Type (0, 0), BuildingBlock: KIFKEQ_clean_linker_1, # of connection points: 2
#     Edge 45, Type (0, 0), BuildingBlock: KIFKEQ_clean_linker_1, # of connection points: 2
#     Edge 46, Type (0, 0), BuildingBlock: KIFKEQ_clean_linker_1, # of connection points: 2
#     Edge 47, Type (0, 0), BuildingBlock: KIFKEQ_clean_linker_1, # of connection points: 2
# Relax obj value: 0.268
# Max RMSD: 0.292
# Mean RMSD: 0.292
data_MOF--net-upc--node1-CEKHIL_clean_sbu_0--edge1-KIFKEQ_clean_linker_1
_symmetry_space_group_name_H-M    P1
_symmetry_Int_Tables_number       1
_symmetry_cell_setting            triclinic
loop_
_symmetry_equiv_pos_as_xyz
'x, y, z'
_cell_length_a     33.774301
_cell_length_b     33.775752
_cell_length_c     43.844479
_cell_angle_alpha  89.98613
_cell_angle_beta   90.03565
_cell_angle_gamma 90.043063
loop_
_atom_site_label
_atom_site_type_symbol
_atom_site_fract_x
_atom_site_fract_y
_atom_site_fract_z
_atom_type_partial_charge
Co0 Co 0.10556 0.59103 0.12037 0.0
O1 O 0.10724 0.55468 0.08659 0.0
O2 O 0.05263 0.58077 0.10622 0.0
C3 C 0.15362 0.63268 0.10442 0.0
O4 O 0.09174 0.63013 0.15371 0.0
Co5 Co 0.17732 0.60165 0.16376 0.0
O6 O 0.1489 0.65124 0.17438 0.0
C7 C 0.12261 0.53444 0.17351 0.0
C8 C 0.06896 0.55845 0.08563 0.0
C9 C 0.11169 0.65423 0.17029 0.0
O10 O 0.10166 0.54598 0.1506 0.0
O11 O 0.15484 0.55155 0.18155 0.0
O12 O 0.11801 0.63518 0.09343 0.0
O13 O 0.16022 0.60221 0.12162 0.0
Co14 Co 0.90578 0.10564 0.12069 0.0
O15 O 0.94313 0.10694 0.08766 0.0
O16 O 0.91583 0.05257 0.10683 0.0
C17 C 0.86541 0.15408 0.10383 0.0
O18 O 0.8655 0.09245 0.15342 0.0
Co19 Co 0.895 0.17771 0.16367 0.0
O20 O 0.84469 0.15004 0.17347 0.0
C21 C 0.96127 0.12237 0.17452 0.0
C22 C 0.93903 0.06871 0.0867 0.0
C23 C 0.84123 0.11284 0.16951 0.0
O24 O 0.94988 0.1014 0.15161 0.0
O25 O 0.94443 0.15483 0.18227 0.0
O26 O 0.86267 0.11846 0.09292 0.0
O27 O 0.89541 0.16038 0.12159 0.0
Co28 Co 0.3893 0.90718 0.12073 0.0
O29 O 0.38797 0.94321 0.08672 0.0
O30 O 0.44233 0.91673 0.10645 0.0
C31 C 0.34081 0.8659 0.10497 0.0
O32 O 0.40255 0.86815 0.1544 0.0
Co33 Co 0.31727 0.89835 0.16404 0.0
O34 O 0.34499 0.84867 0.17541 0.0
C35 C 0.37295 0.96482 0.17333 0.0
C36 C 0.42619 0.93901 0.08572 0.0
C37 C 0.38212 0.84484 0.17134 0.0
O38 O 0.39379 0.95252 0.15063 0.0
O39 O 0.34039 0.94841 0.18143 0.0
O40 O 0.3764 0.86295 0.09406 0.0
O41 O 0.33448 0.89664 0.12194 0.0
Co42 Co 0.58971 0.38742 0.12185 0.0
O43 O 0.55352 0.383 0.08819 0.0
O44 O 0.57694 0.43945 0.10673 0.0
C45 C 0.63262 0.34042 0.10634 0.0
O46 O 0.62864 0.40368 0.15487 0.0
Co47 Co 0.60311 0.31735 0.16634 0.0
O48 O 0.652 0.34763 0.17588 0.0
C49 C 0.53428 0.36999 0.17557 0.0
C50 C 0.55548 0.42133 0.08642 0.0
C51 C 0.65374 0.38484 0.17138 0.0
O52 O 0.54477 0.39047 0.15213 0.0
O53 O 0.55263 0.33874 0.1842 0.0
O54 O 0.63408 0.37586 0.09493 0.0
O55 O 0.60268 0.33331 0.12394 0.0
Co56 Co 0.10828 0.9062 0.37443 0.0
O57 O 0.11198 0.94338 0.40761 0.0
O58 O 0.05629 0.91688 0.39007 0.0
C59 C 0.15713 0.86486 0.38932 0.0
O60 O 0.09231 0.86639 0.3421 0.0
Co61 Co 0.17751 0.89495 0.3287 0.0
O62 O 0.14761 0.84622 0.31815 0.0
C63 C 0.12283 0.96232 0.32052 0.0
C64 C 0.07376 0.9397 0.40978 0.0
C65 C 0.11087 0.84293 0.32412 0.0
O66 O 0.10273 0.95058 0.3438 0.0
O67 O 0.15482 0.9454 0.31179 0.0
O68 O 0.12227 0.86281 0.40167 0.0
O69 O 0.16271 0.89478 0.37135 0.0
Co70 Co 0.58751 0.11174 0.37365 0.0
O71 O 0.55064 0.11416 0.40706 0.0
O72 O 0.5768 0.05911 0.38823 0.0
C73 C 0.62907 0.15992 0.38951 0.0
O74 O 0.62705 0.09722 0.34076 0.0
Co75 Co 0.59882 0.18266 0.32961 0.0
O76 O 0.64838 0.15392 0.3195 0.0
C77 C 0.5319 0.12766 0.31969 0.0
C78 C 0.55417 0.07589 0.40841 0.0
C79 C 0.65127 0.11679 0.32401 0.0
O80 O 0.54293 0.10736 0.34308 0.0
O81 O 0.54921 0.15965 0.31135 0.0
O82 O 0.63126 0.1245 0.40087 0.0
O83 O 0.59888 0.16635 0.37196 0.0
Co84 Co 0.38623 0.58701 0.37417 0.0
O85 O 0.38377 0.54982 0.40745 0.0
O86 O 0.43866 0.5774 0.38955 0.0
C87 C 0.33674 0.62737 0.38938 0.0
O88 O 0.40078 0.6272 0.34162 0.0
Co89 Co 0.31603 0.59646 0.32899 0.0
O90 O 0.3446 0.6458 0.31804 0.0
C91 C 0.37192 0.53019 0.32063 0.0
C92 C 0.42192 0.55426 0.40941 0.0
C93 C 0.38132 0.6501 0.32371 0.0
O94 O 0.39224 0.54264 0.34359 0.0
O95 O 0.33939 0.54629 0.31216 0.0
O96 O 0.37173 0.63014 0.40146 0.0
O97 O 0.33151 0.59728 0.37151 0.0
Co98 Co 0.90804 0.39101 0.3744 0.0
O99 O 0.94361 0.38702 0.40854 0.0
O100 O 0.92045 0.44321 0.38944 0.0
C101 C 0.86469 0.34397 0.38948 0.0
O102 O 0.86972 0.40687 0.34087 0.0
Co103 Co 0.89592 0.32041 0.33011 0.0
O104 O 0.84737 0.35057 0.31953 0.0
C105 C 0.96445 0.37365 0.32121 0.0
C106 C 0.9416 0.42537 0.41007 0.0
C107 C 0.84528 0.38778 0.32394 0.0
O108 O 0.95355 0.39413 0.34454 0.0
O109 O 0.94647 0.34216 0.3126 0.0
O110 O 0.8631 0.37943 0.40082 0.0
O111 O 0.8951 0.33681 0.37239 0.0
Co112 Co 0.8847 0.40848 0.87316 0.0
O113 O 0.87924 0.4452 0.90643 0.0
O114 O 0.93626 0.42299 0.88811 0.0
C115 C 0.83872 0.36453 0.88896 0.0
O116 O 0.90256 0.36942 0.84079 0.0
Co117 Co 0.81605 0.39071 0.82827 0.0
O118 O 0.84772 0.34221 0.82077 0.0
C119 C 0.86721 0.46049 0.81771 0.0
C120 C 0.91764 0.44436 0.90814 0.0
C121 C 0.88496 0.34244 0.82528 0.0
O122 O 0.88659 0.45293 0.84233 0.0
O123 O 0.83779 0.43978 0.80844 0.0
O124 O 0.8741 0.36431 0.90057 0.0
O125 O 0.831 0.3938 0.87085 0.0
Co126 Co 0.09186 0.8869 0.87465 0.0
O127 O 0.05522 0.88122 0.90787 0.0
O128 O 0.0779 0.93837 0.89 0.0
C129 C 0.13551 0.8405 0.88994 0.0
O130 O 0.13099 0.90458 0.84231 0.0
Co131 Co 0.10715 0.81823 0.82937 0.0
O132 O 0.156 0.84932 0.82131 0.0
C133 C 0.03729 0.86943 0.82034 0.0
C134 C 0.05636 0.91957 0.90986 0.0
C135 C 0.15704 0.88646 0.82627 0.0
O136 O 0.0473 0.88968 0.844 0.0
O137 O 0.05629 0.83871 0.81144 0.0
O138 O 0.13605 0.87568 0.90186 0.0
O139 O 0.10591 0.83313 0.87202 0.0
Co140 Co 0.6134 0.08212 0.87167 0.0
O141 O 0.61718 0.04621 0.90555 0.0
O142 O 0.56108 0.06933 0.88623 0.0
C143 C 0.66 0.1254 0.88745 0.0
O144 O 0.59777 0.12079 0.83828 0.0
Co145 Co 0.68436 0.0949 0.82792 0.0
O146 O 0.65422 0.14346 0.81739 0.0
C147 C 0.6317 0.02613 0.81842 0.0
C148 C 0.57882 0.04809 0.90686 0.0
C149 C 0.61697 0.14545 0.82161 0.0
O150 O 0.61088 0.03692 0.84157 0.0
O151 O 0.66319 0.04429 0.81003 0.0
O152 O 0.62438 0.12669 0.89849 0.0
O153 O 0.66757 0.09527 0.87014 0.0
Co154 Co 0.41158 0.60988 0.87366 0.0
O155 O 0.44906 0.6104 0.90668 0.0
O156 O 0.42115 0.55652 0.88727 0.0
C157 C 0.37166 0.65841 0.89088 0.0
O158 O 0.37085 0.59773 0.84083 0.0
Co159 Co 0.40202 0.68275 0.83125 0.0
O160 O 0.35123 0.6561 0.82127 0.0
C161 C 0.46742 0.62665 0.82001 0.0
C162 C 0.4445 0.57222 0.90753 0.0
C163 C 0.34695 0.61893 0.82494 0.0
O164 O 0.45557 0.6055 0.84269 0.0
O165 O 0.45115 0.65951 0.81252 0.0
O166 O 0.36878 0.62269 0.90156 0.0
O167 O 0.40173 0.66477 0.87321 0.0
Co168 Co 0.8931 0.08941 0.62431 0.0
O169 O 0.88835 0.05436 0.59002 0.0
O170 O 0.94498 0.0772 0.60875 0.0
C171 C 0.84584 0.13278 0.60998 0.0
O172 O 0.90976 0.12718 0.65791 0.0
Co173 Co 0.82352 0.10093 0.66951 0.0
O174 O 0.85407 0.14924 0.68023 0.0
C175 C 0.87601 0.03163 0.67667 0.0
C176 C 0.92669 0.05629 0.58821 0.0
C177 C 0.89116 0.15137 0.67529 0.0
O178 O 0.89652 0.04341 0.65363 0.0
O179 O 0.84465 0.0494 0.68575 0.0
O180 O 0.88115 0.13469 0.59837 0.0
O181 O 0.839 0.10223 0.62701 0.0
Co182 Co 0.4063 0.89249 0.62269 0.0
O183 O 0.43983 0.88752 0.58751 0.0
O184 O 0.41974 0.94433 0.60759 0.0
C185 C 0.36067 0.84709 0.60878 0.0
O186 O 0.37049 0.90954 0.65737 0.0
Co187 Co 0.39408 0.82198 0.66709 0.0
O188 O 0.34779 0.85416 0.6799 0.0
C189 C 0.46539 0.87202 0.67348 0.0
C190 C 0.43919 0.92594 0.58629 0.0
C191 C 0.34671 0.89139 0.67538 0.0
O192 O 0.45351 0.8936 0.65104 0.0
O193 O 0.44691 0.84096 0.68239 0.0
O194 O 0.35956 0.88271 0.59767 0.0
O195 O 0.39167 0.83881 0.62493 0.0
Co196 Co 0.60945 0.40638 0.6219 0.0
O197 O 0.61249 0.4419 0.58775 0.0
O198 O 0.55689 0.41735 0.60691 0.0
C199 C 0.65756 0.36438 0.60689 0.0
O200 O 0.59474 0.3677 0.65553 0.0
Co201 Co 0.68052 0.39654 0.66615 0.0
O202 O 0.65176 0.34715 0.67682 0.0
C203 C 0.62624 0.46424 0.67429 0.0
C204 C 0.5742 0.43896 0.58628 0.0
C205 C 0.61462 0.34385 0.67241 0.0
O206 O 0.6054 0.45201 0.65154 0.0
O207 O 0.65835 0.44735 0.6828 0.0
O208 O 0.62213 0.36168 0.59557 0.0
O209 O 0.66391 0.39504 0.62391 0.0
Co210 Co 0.08428 0.61455 0.6237 0.0
O211 O 0.04781 0.6159 0.58993 0.0
O212 O 0.07455 0.56153 0.6094 0.0
C213 C 0.12518 0.66313 0.60766 0.0
O214 O 0.12381 0.60113 0.65713 0.0
Co215 Co 0.09459 0.68629 0.66721 0.0
O216 O 0.14443 0.65848 0.67779 0.0
C217 C 0.02889 0.62997 0.67759 0.0
C218 C 0.05201 0.57768 0.58884 0.0
C219 C 0.14774 0.62132 0.67376 0.0
O220 O 0.03927 0.61009 0.65386 0.0
O221 O 0.04647 0.6616 0.68637 0.0
O222 O 0.12808 0.62755 0.59671 0.0
O223 O 0.09478 0.66937 0.625 0.0
H224 H 0.13874 0.70702 0.08298 0.0
H225 H 0.23144 0.63468 0.12169 0.0
H226 H 0.18348 0.76383 0.08224 0.0
H227 H 0.27633 0.69162 0.12075 0.0
H228 H 0.26308 0.86412 0.12277 0.0
H229 H 0.21781 0.80742 0.12148 0.0
H230 H 0.3098 0.7355 0.08157 0.0
H231 H 0.35483 0.79196 0.08265 0.0
C232 C 0.16878 0.70315 0.0911 0.0
C233 C 0.18164 0.6663 0.1023 0.0
C234 C 0.19428 0.73579 0.09088 0.0
C235 C 0.23336 0.7322 0.10149 0.0
C236 C 0.24644 0.69519 0.11221 0.0
C237 C 0.22076 0.66263 0.11281 0.0
C238 C 0.27347 0.83628 0.11351 0.0
C239 C 0.31245 0.83256 0.10274 0.0
C240 C 0.24757 0.80387 0.11271 0.0
C241 C 0.26034 0.76699 0.10151 0.0
C242 C 0.29925 0.76341 0.0906 0.0
C243 C 0.32492 0.79588 0.09103 0.0
H244 H 0.86399 0.23189 0.12101 0.0
H245 H 0.79165 0.14001 0.08101 0.0
H246 H 0.80736 0.27708 0.1198 0.0
H247 H 0.73517 0.18503 0.08004 0.0
H248 H 0.63549 0.26261 0.12324 0.0
H249 H 0.69239 0.21792 0.12062 0.0
H250 H 0.7628 0.31131 0.08085 0.0
H251 H 0.70597 0.3559 0.08324 0.0
C252 C 0.83613 0.22149 0.11173 0.0
C253 C 0.83228 0.18247 0.10107 0.0
C254 C 0.80378 0.24734 0.11098 0.0
C255 C 0.76685 0.23447 0.09994 0.0
C256 C 0.76318 0.19561 0.08893 0.0
C257 C 0.79561 0.16996 0.0893 0.0
C258 C 0.66303 0.27346 0.11373 0.0
C259 C 0.66625 0.31268 0.10338 0.0
C260 C 0.69553 0.24789 0.11215 0.0
C261 C 0.73201 0.2612 0.10057 0.0
C262 C 0.73513 0.30037 0.09009 0.0
C263 C 0.70252 0.32577 0.09129 0.0
H264 H 0.15626 0.80458 0.43061 0.0
H265 H 0.22103 0.84896 0.35279 0.0
H266 H 0.19922 0.74613 0.43195 0.0
H267 H 0.263 0.78976 0.35374 0.0
H268 H 0.27221 0.64222 0.35314 0.0
H269 H 0.22966 0.70103 0.35401 0.0
H270 H 0.29352 0.74565 0.43191 0.0
H271 H 0.33702 0.68763 0.43062 0.0
C272 C 0.1797 0.80194 0.41388 0.0
C273 C 0.1852 0.83134 0.39153 0.0
C274 C 0.20411 0.76852 0.41466 0.0
C275 C 0.23394 0.7636 0.39279 0.0
C276 C 0.23991 0.79304 0.3707 0.0
C277 C 0.21602 0.82689 0.37027 0.0
C278 C 0.27708 0.66441 0.37054 0.0
C279 C 0.30813 0.66041 0.3917 0.0
C280 C 0.25285 0.69802 0.37094 0.0
C281 C 0.25871 0.72765 0.39291 0.0
C282 C 0.28869 0.7231 0.41473 0.0
C283 C 0.31342 0.68993 0.41397 0.0
H284 H 0.86153 0.26615 0.37242 0.0
H285 H 0.79057 0.36008 0.41077 0.0
H286 H 0.80403 0.222 0.37371 0.0
H287 H 0.73317 0.31608 0.41183 0.0
H288 H 0.70267 0.14516 0.41234 0.0
H289 H 0.75973 0.18949 0.41333 0.0
H290 H 0.68919 0.28198 0.37255 0.0
H291 H 0.63193 0.23743 0.37133 0.0
C292 C 0.83375 0.27727 0.38128 0.0
C293 C 0.83062 0.31651 0.3916 0.0
C294 C 0.80088 0.25201 0.38208 0.0
C295 C 0.76409 0.26565 0.39282 0.0
C296 C 0.76104 0.30486 0.4032 0.0
C297 C 0.794 0.32993 0.40279 0.0
C298 C 0.69919 0.17504 0.40377 0.0
C299 C 0.66274 0.18786 0.39181 0.0
C300 C 0.73199 0.2003 0.40415 0.0
C301 C 0.72896 0.23913 0.39295 0.0
C302 C 0.6923 0.25226 0.38154 0.0
C303 C 0.65958 0.22678 0.38078 0.0
H304 H 0.76115 0.35944 0.87202 0.0
H305 H 0.85661 0.29109 0.91105 0.0
H306 H 0.71845 0.30096 0.87332 0.0
H307 H 0.81396 0.23258 0.91215 0.0
H308 H 0.73773 0.12989 0.87012 0.0
H309 H 0.78121 0.18792 0.87236 0.0
H310 H 0.68676 0.25605 0.91282 0.0
H311 H 0.64349 0.19825 0.91079 0.0
C312 C 0.77289 0.33202 0.88108 0.0
C313 C 0.81213 0.32988 0.89154 0.0
C314 C 0.74845 0.29859 0.88189 0.0
C315 C 0.76293 0.26222 0.8928 0.0
C316 C 0.80213 0.26015 0.90341 0.0
C317 C 0.8264 0.29372 0.90299 0.0
C318 C 0.72643 0.15718 0.87972 0.0
C319 C 0.68725 0.1595 0.89031 0.0
C320 C 0.75131 0.19032 0.88109 0.0
C321 C 0.73729 0.22651 0.89268 0.0
C322 C 0.69824 0.22865 0.90352 0.0
C323 C 0.67357 0.19546 0.90252 0.0
H324 H 0.36922 0.73614 0.87308 0.0
H325 H 0.29853 0.64399 0.91443 0.0
H326 H 0.31198 0.78069 0.87437 0.0
H327 H 0.24159 0.68826 0.91545 0.0
H328 H 0.20898 0.85783 0.91213 0.0
H329 H 0.267 0.81466 0.91374 0.0
H330 H 0.19809 0.71975 0.87452 0.0
H331 H 0.14006 0.763 0.87266 0.0
C332 C 0.34163 0.72555 0.88266 0.0
C333 C 0.33839 0.68662 0.89367 0.0
C334 C 0.30894 0.75102 0.88345 0.0
C335 C 0.27232 0.7378 0.89485 0.0
C336 C 0.26932 0.69908 0.90624 0.0
C337 C 0.30205 0.67386 0.90584 0.0
C338 C 0.20613 0.82766 0.90404 0.0
C339 C 0.16993 0.81368 0.89239 0.0
C340 C 0.23943 0.8031 0.90477 0.0
C341 C 0.23703 0.7639 0.89427 0.0
C342 C 0.20067 0.74976 0.88301 0.0
C343 C 0.16752 0.7745 0.88188 0.0
H344 H 0.6436 0.28981 0.5856 0.0
H345 H 0.73524 0.36357 0.62436 0.0
H346 H 0.68901 0.23358 0.58528 0.0
H347 H 0.78078 0.30724 0.62385 0.0
H348 H 0.76826 0.13485 0.6276 0.0
H349 H 0.72294 0.19129 0.62542 0.0
H350 H 0.81516 0.2629 0.58532 0.0
H351 H 0.86038 0.20657 0.58732 0.0
C352 C 0.67355 0.29411 0.5938 0.0
C353 C 0.68592 0.33114 0.60495 0.0
C354 C 0.69943 0.26183 0.59381 0.0
C355 C 0.73837 0.26601 0.6046 0.0
C356 C 0.751 0.30324 0.61519 0.0
C357 C 0.72494 0.33543 0.61554 0.0
C358 C 0.77874 0.16258 0.61815 0.0
C359 C 0.8178 0.16625 0.60756 0.0
C360 C 0.75279 0.19481 0.61681 0.0
C361 C 0.76556 0.23149 0.60523 0.0
C362 C 0.80461 0.2351 0.59458 0.0
C363 C 0.83039 0.20275 0.59556 0.0
H364 H 0.19859 0.64949 0.58424 0.0
H365 H 0.12739 0.74046 0.6264 0.0
H366 H 0.25527 0.69422 0.58359 0.0
H367 H 0.18434 0.78542 0.62558 0.0
H368 H 0.2862 0.86452 0.58864 0.0
H369 H 0.22849 0.82085 0.58725 0.0
H370 H 0.29927 0.72544 0.62358 0.0
H371 H 0.357 0.76916 0.62512 0.0
C372 C 0.19492 0.67917 0.59313 0.0
C373 C 0.15848 0.69148 0.60536 0.0
C374 C 0.22751 0.70467 0.59294 0.0
C375 C 0.2243 0.74322 0.60466 0.0
C376 C 0.1876 0.75592 0.61623 0.0
C377 C 0.15505 0.7302 0.61675 0.0
C378 C 0.2895 0.83416 0.59619 0.0
C379 C 0.32618 0.82018 0.60687 0.0
C380 C 0.25638 0.80928 0.59558 0.0
C381 C 0.25938 0.76975 0.60528 0.0
C382 C 0.29618 0.75568 0.61569 0.0
C383 C 0.32917 0.78071 0.61665 0.0
H384 H 0.98748 0.34705 0.26484 0.0
H385 H 0.01278 0.43763 0.33177 0.0
H386 H 0.03116 0.38003 0.22865 0.0
H387 H 0.05627 0.47058 0.2954 0.0
H388 H 0.05757 0.48732 0.16367 0.0
H389 H 0.02547 0.44311 0.19997 0.0
H390 H 0.11835 0.46574 0.26538 0.0
H391 H 0.15049 0.51016 0.22924 0.0
C392 C 0.00287 0.37356 0.27212 0.0
C393 C 0.99626 0.38977 0.30128 0.0
C394 C 0.02771 0.39261 0.25121 0.0
C395 C 0.04689 0.42812 0.25901 0.0
C396 C 0.04214 0.44312 0.28872 0.0
C397 C 0.01705 0.42425 0.30957 0.0
C398 C 0.0716 0.4824 0.18556 0.0
C399 C 0.10654 0.50264 0.1935 0.0
C400 C 0.05323 0.45688 0.20637 0.0
C401 C 0.0692 0.45114 0.23568 0.0
C402 C 0.10506 0.46992 0.24313 0.0
C403 C 0.1236 0.4952 0.22226 0.0
H404 H 0.00984 0.05887 0.16387 0.0
H405 H 0.98324 0.1483 0.23135 0.0
H406 H 0.05389 0.02628 0.19999 0.0
H407 H 0.02758 0.11567 0.26735 0.0
H408 H 0.05714 0.00802 0.33134 0.0
H409 H 0.02373 0.05212 0.29569 0.0
H410 H 0.11621 0.03252 0.22947 0.0
H411 H 0.14963 0.98815 0.26492 0.0
C412 C 0.01389 0.07202 0.18619 0.0
C413 C 0.99271 0.10613 0.19468 0.0
C414 C 0.03933 0.0534 0.20687 0.0
C415 C 0.04404 0.06826 0.23662 0.0
C416 C 0.02423 0.10327 0.24471 0.0
C417 C -0.00098 0.12211 0.22395 0.0
C418 C 0.0708 0.01359 0.3094 0.0
C419 C 0.10598 0.99415 0.301 0.0
C420 C 0.05168 0.03905 0.28899 0.0
C421 C 0.06715 0.04555 0.25963 0.0
C422 C 0.10328 0.02769 0.25177 0.0
C423 C 0.12256 0.00244 0.27223 0.0
H424 H 0.50989 0.15278 0.26265 0.0
H425 H 0.48363 0.06382 0.33063 0.0
H426 H 0.46629 0.1192 0.22665 0.0
H427 H 0.44027 0.03026 0.29448 0.0
H428 H 0.34552 0.99041 0.22881 0.0
H429 H 0.37823 0.03516 0.26441 0.0
H430 H 0.47125 0.05545 0.19875 0.0
H431 H 0.43857 0.01092 0.16297 0.0
C432 C 0.49433 0.1265 0.27017 0.0
C433 C 0.50056 0.11094 0.29959 0.0
C434 C 0.46954 0.10709 0.24939 0.0
C435 C 0.45006 0.07189 0.25759 0.0
C436 C 0.4546 0.05749 0.28749 0.0
C437 C 0.47963 0.07669 0.30821 0.0
C438 C 0.37256 0.00492 0.22165 0.0
C439 C 0.38947 0.99674 0.19298 0.0
C440 C 0.39144 0.03039 0.24221 0.0
C441 C 0.4275 0.04862 0.23454 0.0
C442 C 0.44335 0.04212 0.20531 0.0
C443 C 0.42465 0.01642 0.18481 0.0
H444 H 0.4841 0.43209 0.16411 0.0
H445 H 0.51273 0.34454 0.23261 0.0
H446 H 0.43982 0.4647 0.2 0.0
H447 H 0.46818 0.37716 0.26836 0.0
H448 H 0.43843 0.48559 0.33127 0.0
H449 H 0.47178 0.44125 0.29582 0.0
H450 H 0.3781 0.45867 0.23015 0.0
H451 H 0.34472 0.50328 0.26542 0.0
C452 C 0.48042 0.4193 0.18659 0.0
C453 C 0.50231 0.38579 0.19544 0.0
C454 C 0.45486 0.43795 0.20715 0.0
C455 C 0.45073 0.42371 0.23714 0.0
C456 C 0.47111 0.38913 0.24555 0.0
C457 C 0.49644 0.37028 0.22492 0.0
C458 C 0.42451 0.47951 0.3095 0.0
C459 C 0.38898 0.49839 0.3012 0.0
C460 C 0.4436 0.45389 0.2892 0.0
C461 C 0.42774 0.44667 0.26005 0.0
C462 C 0.39132 0.46404 0.25228 0.0
C463 C 0.37208 0.48944 0.27264 0.0
H464 H 0.96054 0.59169 0.66146 0.0
H465 H 0.02934 0.62859 0.73929 0.0
H466 H 0.91427 0.55774 0.69515 0.0
H467 H 0.98593 0.59189 0.77285 0.0
H468 H 0.89859 0.53264 0.83289 0.0
H469 H 0.93008 0.5802 0.79883 0.0
H470 H 0.90642 0.50229 0.72244 0.0
H471 H 0.87196 0.45735 0.75619 0.0
C472 C 0.96563 0.59251 0.68586 0.0
C473 C 0.99833 0.61287 0.69779 0.0
C474 C 0.93942 0.57259 0.7053 0.0
C475 C 0.94622 0.57117 0.73708 0.0
C476 C 0.97866 0.59259 0.74883 0.0
C477 C 0.00396 0.6136 0.7295 0.0
C478 C 0.89949 0.5264 0.80867 0.0
C479 C 0.8827 0.4915 0.79714 0.0
C480 C 0.91803 0.55339 0.78904 0.0
C481 C 0.92166 0.54532 0.75754 0.0
C482 C 0.90383 0.51056 0.74618 0.0
C483 C 0.88414 0.48439 0.76564 0.0
H484 H 0.01514 0.84368 0.76345 0.0
H485 H 0.98684 0.93115 0.83204 0.0
H486 H 0.96999 0.87606 0.72795 0.0
H487 H 0.94215 0.96359 0.7964 0.0
H488 H 0.84815 0.00453 0.73164 0.0
H489 H 0.88068 0.95876 0.76654 0.0
H490 H 0.9732 0.9394 0.70029 0.0
H491 H 0.94061 0.98474 0.6652 0.0
C492 C -0.00119 0.86935 0.77121 0.0
C493 C 0.00498 0.88494 0.80062 0.0
C494 C 0.97312 0.88806 0.75073 0.0
C495 C 0.95273 0.9226 0.75921 0.0
C496 C 0.95713 0.93685 0.78917 0.0
C497 C 0.98297 0.91831 0.8096 0.0
C498 C 0.875 0.98995 0.72419 0.0
C499 C 0.89189 -0.00128 0.69562 0.0
C500 C 0.89378 0.96388 0.74434 0.0
C501 C 0.92974 0.94574 0.73636 0.0
C502 C 0.94538 0.95264 0.70711 0.0
C503 C 0.92672 0.97884 0.687 0.0
H504 H 0.65743 0.00441 0.76148 0.0
H505 H 0.5693 0.97623 0.82962 0.0
H506 H 0.62423 0.96065 0.72537 0.0
H507 H 0.53611 0.93281 0.7934 0.0
H508 H 0.49317 0.84142 0.72737 0.0
H509 H 0.54013 0.87181 0.76248 0.0
H510 H 0.56037 0.96628 0.69798 0.0
H511 H 0.51371 0.93588 0.66268 0.0
C512 C 0.63147 0.98833 0.76903 0.0
C513 C 0.6159 0.9942 0.79848 0.0
C514 C 0.61229 0.96344 0.7482 0.0
C515 C 0.57733 0.94353 0.75639 0.0
C516 C 0.56315 0.94747 0.78639 0.0
C517 C 0.58213 0.97256 0.80716 0.0
C518 C 0.5082 0.86823 0.72031 0.0
C519 C 0.49923 0.88636 0.69221 0.0
C520 C 0.53496 0.88577 0.74059 0.0
C521 C 0.55366 0.92168 0.7332 0.0
C522 C 0.54668 0.93847 0.70433 0.0
C523 C 0.51973 0.92108 0.6841 0.0
H524 H 0.56109 0.51072 0.66342 0.0
H525 H 0.65405 0.49052 0.72947 0.0
H526 H 0.52855 0.55559 0.69896 0.0
H527 H 0.62148 0.53559 0.76482 0.0
H528 H 0.51551 0.56278 0.83065 0.0
H529 H 0.55915 0.5298 0.79451 0.0
H530 H 0.5334 0.61941 0.72713 0.0
H531 H 0.48948 0.65246 0.76318 0.0
C532 C 0.57505 0.51639 0.68524 0.0
C533 C 0.61008 0.49662 0.69359 0.0
C534 C 0.55643 0.54228 0.70559 0.0
C535 C 0.57226 0.54887 0.73483 0.0
C536 C 0.60829 0.53071 0.74261 0.0
C537 C 0.62708 0.50506 0.7222 0.0
C538 C 0.5196 0.5759 0.80833 0.0
C539 C 0.49869 0.61019 0.79984 0.0
C540 C 0.54482 0.55706 0.78763 0.0
C541 C 0.54955 0.57186 0.75786 0.0
C542 C 0.53003 0.60706 0.74978 0.0
C543 C 0.50507 0.62613 0.77057 0.0
H544 H 0.05389 0.6411 0.21175 0.0
H545 H 0.12401 0.73313 0.17003 0.0
H546 H 0.03291 0.68761 0.25165 0.0
H547 H 0.10175 0.77993 0.20889 0.0
H548 H 0.05683 0.85825 0.28039 0.0
H549 H 0.03665 0.81204 0.24007 0.0
H550 H 0.09557 0.71694 0.28767 0.0
H551 H 0.11708 0.7634 0.3271 0.0
C552 C 0.06318 0.67176 0.21038 0.0
C553 C 0.09063 0.68387 0.18825 0.0
C554 C 0.05113 0.69822 0.23303 0.0
C555 C 0.0656 0.73717 0.23306 0.0
C556 C 0.08975 0.75016 0.20899 0.0
C557 C 0.10271 0.72347 0.18696 0.0
C558 C 0.06384 0.82709 0.28277 0.0
C559 C 0.08845 0.81398 0.30648 0.0
C560 C 0.05227 0.8008 0.25985 0.0
C561 C 0.0645 0.76115 0.261 0.0
C562 C 0.08531 0.74731 0.28662 0.0
C563 C 0.09778 0.77377 0.30903 0.0
H564 H 0.76236 0.12548 0.16822 0.0
H565 H 0.85334 0.05632 0.21215 0.0
H566 H 0.71509 0.10546 0.20753 0.0
H567 H 0.8064 0.03771 0.25245 0.0
H568 H 0.73051 0.12699 0.32494 0.0
H569 H 0.77693 0.10494 0.28568 0.0
H570 H 0.68314 0.03985 0.24137 0.0
H571 H 0.63701 0.06049 0.28162 0.0
C572 C 0.77166 0.10477 0.1857 0.0
C573 C 0.81112 0.09236 0.18746 0.0
C574 C 0.74471 0.09314 0.20802 0.0
C575 C 0.75734 0.07004 0.2328 0.0
C576 C 0.79608 0.05511 0.23327 0.0
C577 C 0.82277 0.06579 0.21037 0.0
C578 C 0.72044 0.10644 0.3076 0.0
C579 C 0.68057 0.09532 0.306 0.0
C580 C 0.74689 0.09365 0.28533 0.0
C581 C 0.73339 0.07067 0.26074 0.0
C582 C 0.69413 0.05711 0.26041 0.0
C583 C 0.6679 0.06895 0.28327 0.0
H584 H 0.4353 0.63739 0.2794 0.0
H585 H 0.37245 0.72931 0.32743 0.0
H586 H 0.45445 0.68527 0.2399 0.0
H587 H 0.39283 0.77742 0.2888 0.0
H588 H 0.37113 0.76584 0.16883 0.0
H589 H 0.39127 0.71786 0.2076 0.0
H590 H 0.45544 0.80949 0.25529 0.0
H591 H 0.43654 0.85725 0.21559 0.0
C592 C 0.42738 0.66826 0.28221 0.0
C593 C 0.40254 0.68007 0.30615 0.0
C594 C 0.43831 0.69549 0.25974 0.0
C595 C 0.4252 0.73484 0.26154 0.0
C596 C 0.40378 0.74733 0.28724 0.0
C597 C 0.39198 0.71993 0.30921 0.0
C598 C 0.39103 0.77514 0.18687 0.0
C599 C 0.40244 0.81483 0.1895 0.0
C600 C 0.40272 0.7478 0.20889 0.0
C601 C 0.42494 0.76018 0.23425 0.0
C602 C 0.43869 0.79936 0.23571 0.0
C603 C 0.42789 0.82651 0.21314 0.0
H604 H 0.73305 0.37646 0.1687 0.0
H605 H 0.64004 0.44078 0.21427 0.0
H606 H 0.78042 0.39871 0.20718 0.0
H607 H 0.68723 0.46189 0.25369 0.0
H608 H 0.76588 0.38096 0.32733 0.0
H609 H 0.71868 0.40165 0.28821 0.0
H610 H 0.81265 0.46065 0.23932 0.0
H611 H 0.85969 0.44114 0.27931 0.0
C612 C 0.72325 0.39665 0.18636 0.0
C613 C 0.68325 0.407 0.1888 0.0
C614 C 0.75027 0.40958 0.20823 0.0
C615 C 0.7373 0.43198 0.23329 0.0
C616 C 0.69784 0.44496 0.23437 0.0
C617 C 0.67099 0.4329 0.21194 0.0
C618 C 0.7759 0.40001 0.30898 0.0
C619 C 0.81604 0.4096 0.30606 0.0
C620 C 0.74898 0.41203 0.28673 0.0
C621 C 0.76221 0.4327 0.26086 0.0
C622 C 0.80185 0.44506 0.25925 0.0
C623 C 0.82862 0.43392 0.282 0.0
H624 H 0.94445 0.1367 0.7199 0.0
H625 H 0.88579 0.23079 0.67115 0.0
H626 H 0.96468 0.18389 0.75956 0.0
H627 H 0.90713 0.27811 0.70992 0.0
H628 H 0.87845 0.26301 0.82862 0.0
H629 H 0.90297 0.21576 0.79102 0.0
H630 H 0.96581 0.3098 0.74508 0.0
H631 H 0.94239 0.35693 0.78368 0.0
C632 C 0.93773 0.16784 0.71697 0.0
C633 C 0.91353 0.18048 0.69288 0.0
C634 C 0.94934 0.19471 0.73951 0.0
C635 C 0.93746 0.23447 0.73765 0.0
C636 C 0.91713 0.24771 0.71162 0.0
C637 C 0.90469 0.22072 0.68957 0.0
C638 C 0.89905 0.27307 0.81133 0.0
C639 C 0.90852 0.31327 0.8087 0.0
C640 C 0.91332 0.24611 0.78997 0.0
C641 C 0.93618 0.25932 0.76522 0.0
C642 C 0.94851 0.29901 0.76416 0.0
C643 C 0.9351 0.32584 0.7861 0.0
H644 H 0.26713 0.89146 0.67123 0.0
H645 H 0.36495 0.94042 0.72201 0.0
H646 H 0.22136 0.91307 0.71096 0.0
H647 H 0.31925 0.961 0.76252 0.0
H648 H 0.23605 0.87609 0.82893 0.0
H649 H 0.2842 0.90038 0.79193 0.0
H650 H 0.19304 0.96996 0.74839 0.0
H651 H 0.14502 0.94662 0.78641 0.0
C652 C 0.27843 0.90838 0.69036 0.0
C653 C 0.31917 0.91434 0.69391 0.0
C654 C 0.25235 0.92098 0.71296 0.0
C655 C 0.26694 0.9386 0.73974 0.0
C656 C 0.30741 0.94776 0.74193 0.0
C657 C 0.33342 0.93595 0.71891 0.0
C658 C 0.22688 0.898 0.8123 0.0
C659 C 0.18714 0.90941 0.81012 0.0
C660 C 0.25438 0.91215 0.7913 0.0
C661 C 0.24214 0.93692 0.76734 0.0
C662 C 0.20308 0.95112 0.76684 0.0
C663 C 0.17574 0.93775 0.78845 0.0
H664 H 0.62325 0.22472 0.82664 0.0
H665 H 0.56443 0.13225 0.77612 0.0
H666 H 0.60219 0.27329 0.78864 0.0
H667 H 0.54448 0.18071 0.73727 0.0
H668 H 0.56052 0.35481 0.71714 0.0
H669 H 0.54165 0.30554 0.75573 0.0
H670 H 0.60445 0.21553 0.70534 0.0
H671 H 0.62438 0.26494 0.66763 0.0
C672 C 0.60447 0.21524 0.80796 0.0
C673 C 0.59529 0.17514 0.80406 0.0
C674 C 0.59225 0.24292 0.78634 0.0
C675 C 0.57174 0.23057 0.76013 0.0
C676 C 0.55996 0.19084 0.75746 0.0
C677 C 0.57133 0.16327 0.77957 0.0
C678 C 0.56881 0.32413 0.71384 0.0
C679 C 0.59386 0.31329 0.68975 0.0
C680 C 0.55805 0.29609 0.73579 0.0
C681 C 0.57155 0.2569 0.73333 0.0
C682 C 0.5932 0.24544 0.70747 0.0
C683 C 0.60479 0.27362 0.68602 0.0
H684 H 0.26861 0.6337 0.82827 0.0
H685 H 0.3556 0.56308 0.78118 0.0
H686 H 0.21881 0.61521 0.79034 0.0
H687 H 0.30605 0.54581 0.74231 0.0
H688 H 0.13464 0.57017 0.72006 0.0
H689 H 0.18279 0.55186 0.75964 0.0
H690 H 0.27541 0.6093 0.70823 0.0
H691 H 0.22707 0.6289 0.66947 0.0
C692 C 0.27652 0.61306 0.81035 0.0
C693 C 0.31555 0.59965 0.80742 0.0
C694 C 0.24813 0.60234 0.7888 0.0
C695 C 0.2588 0.57907 0.76358 0.0
C696 C 0.29722 0.56343 0.76179 0.0
C697 C 0.32539 0.57327 0.78391 0.0
C698 C 0.16562 0.57739 0.71678 0.0
C699 C 0.17755 0.60075 0.69197 0.0
C700 C 0.19299 0.56696 0.73931 0.0
C701 C 0.23262 0.57902 0.73672 0.0
C702 C 0.24509 0.59915 0.71039 0.0
C703 C 0.21757 0.61048 0.68835 0.0
H704 H 0.99417 0.57795 0.06802 0.0
H705 H 0.09108 0.49921 0.04706 0.0
H706 H 0.95758 0.55282 0.02429 0.0
H707 H 0.05379 0.47247 0.0042 0.0
H708 H 0.99663 0.46042 0.91174 0.0
H709 H 0.03249 0.48871 0.95476 0.0
H710 H 0.92268 0.49847 0.00494 0.0
H711 H 0.88683 0.47211 0.96132 0.0
C712 C 0.00734 0.55473 0.05434 0.0
C713 C 0.04546 0.54054 0.06088 0.0
C714 C 0.98632 0.5402 0.02929 0.0
C715 C 0.00273 0.5107 0.0105 0.0
C716 C 0.04054 0.49582 0.01766 0.0
C717 C 0.06179 0.51082 0.04243 0.0
C718 C 0.9802 0.46905 0.93188 0.0
C719 C 0.93898 0.46414 0.9332 0.0
C720 C 0.00076 0.48489 0.95669 0.0
C721 C 0.98061 0.49555 0.98356 0.0
C722 C 0.9392 0.49116 0.98456 0.0
C723 C 0.9186 0.47591 0.95956 0.0
H724 H 0.0412 0.99863 0.91427 0.0
H725 H 0.02736 0.88785 0.96233 0.0
H726 H 0.01229 0.03376 0.95735 0.0
H727 H 0.0003 0.92295 0.00601 0.0
H728 H 0.91921 0.9943 0.06823 0.0
H729 H 0.94547 0.95807 0.02472 0.0
H730 H 0.02801 0.05346 0.00739 0.0
H731 H 0.00026 0.09037 0.04999 0.0
C732 C 0.03199 0.98184 0.93409 0.0
C733 C 0.03647 0.94057 0.93498 0.0
C734 C 0.01578 0.00196 0.95893 0.0
C735 C 0.00431 0.98128 0.98537 0.0
C736 C 0.00828 0.93984 0.98594 0.0
C737 C 0.02393 0.91969 0.96092 0.0
C738 C 0.94317 0.00733 0.05521 0.0
C739 C 0.95765 0.04515 0.06238 0.0
C740 C 0.95833 0.98653 0.0303 0.0
C741 C 0.98871 0.00292 0.01232 0.0
C742 C 0.00396 0.04032 0.02021 0.0
C743 C 0.98837 0.06134 0.04482 0.0
H744 H 0.5004 0.91807 0.06774 0.0
H745 H 0.40466 0.99831 0.04693 0.0
H746 H 0.5369 0.94218 0.02367 0.0
H747 H 0.44193 0.02409 0.0037 0.0
H748 H 0.49917 0.03484 0.91087 0.0
H749 H 0.46276 0.00791 0.95419 0.0
H750 H 0.5726 0.9955 0.00409 0.0
H751 H 0.60885 0.02038 0.96027 0.0
C752 C 0.4875 0.94142 0.05402 0.0
C753 C 0.44972 0.95633 0.06073 0.0
C754 C 0.50846 0.95538 0.02876 0.0
C755 C 0.4924 0.98506 0.00992 0.0
C756 C 0.45492 0.00061 0.01721 0.0
C757 C 0.43369 0.98617 0.04219 0.0
C758 C 0.51545 0.02592 0.93102 0.0
C759 C 0.55681 0.02957 0.93217 0.0
C760 C 0.4946 0.01086 0.956 0.0
C761 C 0.51463 -0.00027 0.98285 0.0
C762 C 0.55613 0.00309 0.98372 0.0
C763 C 0.57698 0.01752 0.9586 0.0
H764 H 0.50573 0.5929 0.94471 0.0
H765 H 0.42319 0.49825 0.92608 0.0
H766 H 0.5321 0.5558 0.98778 0.0
H767 H 0.44802 0.46189 0.97004 0.0
H768 H 0.52654 0.39027 0.03372 0.0
H769 H 0.50137 0.42577 0.98958 0.0
H770 H 0.5159 0.5366 0.03777 0.0
H771 H 0.54302 0.50095 0.08138 0.0
C772 C 0.49324 0.56411 0.94987 0.0
C773 C 0.4625 0.54839 0.93204 0.0
C774 C 0.50804 0.543 0.97477 0.0
C775 C 0.49196 0.50595 0.9827 0.0
C776 C 0.46155 0.49004 0.96446 0.0
C777 C 0.44721 0.5109 0.93926 0.0
C778 C 0.52409 0.42221 0.03495 0.0
C779 C 0.53678 0.44288 0.06096 0.0
C780 C 0.5095 0.44261 0.00964 0.0
C781 C 0.50671 0.48416 0.00994 0.0
C782 C 0.51844 0.5047 0.0364 0.0
C783 C 0.53361 0.48429 0.06155 0.0
H784 H 0.09783 -0.0002 0.44704 0.0
H785 H -0.00023 0.92095 0.42934 0.0
H786 H 0.062 0.02815 0.49007 0.0
H787 H 0.96477 0.94762 0.47314 0.0
H788 H 0.89554 0.02919 0.53504 0.0
H789 H 0.93077 0.00293 0.49123 0.0
H790 H 0.04144 0.01401 0.54026 0.0
H791 H 0.00609 0.04228 0.58357 0.0
C792 C 0.06863 0.98851 0.45243 0.0
C793 C 0.05149 0.95834 0.43482 0.0
C794 C 0.04822 0.00445 0.47726 0.0
C795 C 0.0105 0.99008 0.48526 0.0
C796 C 0.99341 0.95997 0.46741 0.0
C797 C 0.01354 0.94452 0.44233 0.0
C798 C 0.92738 0.02581 0.5365 0.0
C799 C 0.9481 0.03771 0.5627 0.0
C800 C 0.94762 0.01058 0.5114 0.0
C801 C 0.98904 0.00629 0.5121 0.0
C802 C 0.00966 0.0176 0.53863 0.0
C803 C 0.98941 0.03344 0.56359 0.0
H804 H 0.49517 0.09942 0.44676 0.0
H805 H 0.57176 0.00069 0.42611 0.0
H806 H 0.46721 0.06271 0.48948 0.0
H807 H 0.54538 0.96466 0.46962 0.0
H808 H 0.46399 0.89542 0.53222 0.0
H809 H 0.48982 0.93113 0.4884 0.0
H810 H 0.48284 0.04078 0.53908 0.0
H811 H 0.4551 0.00504 0.58241 0.0
C812 C 0.50604 0.06986 0.45141 0.0
C813 C 0.53553 0.05285 0.43309 0.0
C814 C 0.49032 0.04893 0.47608 0.0
C815 C 0.5042 0.01076 0.48323 0.0
C816 C 0.53348 0.99369 0.46459 0.0
C817 C 0.54875 0.0144 0.43967 0.0
C818 C 0.46819 0.92713 0.53403 0.0
C819 C 0.45757 0.94748 0.56071 0.0
C820 C 0.48316 0.94764 0.50893 0.0
C821 C 0.48842 0.98893 0.51008 0.0
C822 C 0.47845 0.00913 0.53709 0.0
C823 C 0.46291 0.98864 0.56206 0.0
H824 H 0.60376 0.46781 0.53314 0.0
H825 H 0.49428 0.45072 0.58224 0.0
H826 H 0.56726 0.49389 0.48986 0.0
H827 H 0.45758 0.47884 0.53946 0.0
H828 H 0.39957 0.49346 0.44667 0.0
H829 H 0.43649 0.46553 0.48936 0.0
H830 H 0.53172 0.54835 0.47229 0.0
H831 H 0.49566 0.5746 0.4288 0.0
C832 C 0.57185 0.47026 0.53485 0.0
C833 C 0.55184 0.45729 0.56106 0.0
C834 C 0.55087 0.48541 0.51005 0.0
C835 C 0.50936 0.48859 0.51104 0.0
C836 C 0.48943 0.47617 0.53759 0.0
C837 C 0.51044 0.4604 0.56225 0.0
C838 C 0.42857 0.50536 0.45195 0.0
C839 C 0.44485 0.53602 0.43435 0.0
C840 C 0.4496 0.48966 0.47661 0.0
C841 C 0.48712 0.50473 0.48447 0.0
C842 C 0.5033 0.53541 0.46667 0.0
C843 C 0.48256 0.55062 0.44176 0.0
H844 H 0.95472 0.505 0.41437 0.0
H845 H 0.96937 0.39512 0.46344 0.0
H846 H 0.98181 0.54123 0.45772 0.0
H847 H 0.99445 0.43122 0.50732 0.0
H848 H 0.07252 0.50335 0.57079 0.0
H849 H 0.04789 0.46684 0.52688 0.0
H850 H 0.96607 0.56201 0.50729 0.0
H851 H 0.99236 0.59927 0.55035 0.0
C852 C 0.96369 0.48863 0.43447 0.0
C853 C 0.96005 0.44727 0.4355 0.0
C854 C 0.97885 0.50939 0.45947 0.0
C855 C 0.99011 0.48927 0.48625 0.0
C856 C 0.98675 0.44776 0.48702 0.0
C857 C 0.97219 0.427 0.46186 0.0
C858 C 0.04908 0.5163 0.55719 0.0
C859 C 0.03436 0.55414 0.56395 0.0
C860 C 0.03481 0.49532 0.53202 0.0
C861 C 0.00501 0.51144 0.51331 0.0
C862 C 0.98963 0.54897 0.52068 0.0
C863 C 0.00438 0.5702 0.54557 0.0
loop_
_geom_bond_atom_site_label_1
_geom_bond_atom_site_label_2
_geom_bond_distance
_geom_bond_site_symmetry_2
_ccdc_geom_bond_type
Co0 O1 2.216 . S
Co0 O2 2.091 . S
Co0 O4 2.004 . S
Co0 O10 2.021 . S
Co0 O12 2.137 . S
Co0 O13 2.244 . S
O1 Co0 2.216 . S
O1 C8 1.247 . S
O2 Co0 2.091 . S
O2 C8 1.261 . S
C3 O12 1.247 . S
C3 O13 1.272 . S
O4 Co0 2.004 . S
O4 C9 1.259 . S
Co5 O6 2.061 . S
Co5 O11 2.052 . S
Co5 O13 2.135 . S
O6 Co5 2.061 . S
O6 C9 1.235 . S
C7 O10 1.238 . S
C7 O11 1.241 . S
C8 O1 1.247 . S
C8 O2 1.261 . S
C9 O4 1.259 . S
C9 O6 1.235 . S
O10 Co0 2.021 . S
O10 C7 1.238 . S
O11 Co5 2.052 . S
O11 C7 1.241 . S
O12 Co0 2.137 . S
O12 C3 1.247 . S
O13 Co0 2.244 . S
O13 C3 1.272 . S
O13 Co5 2.135 . S
Co14 O15 2.216 . S
Co14 O16 2.091 . S
Co14 O18 2.004 . S
Co14 O24 2.021 . S
Co14 O26 2.137 . S
Co14 O27 2.244 . S
O15 Co14 2.216 . S
O15 C22 1.247 . S
O16 Co14 2.091 . S
O16 C22 1.261 . S
C17 O26 1.247 . S
C17 O27 1.272 . S
O18 Co14 2.004 . S
O18 C23 1.259 . S
Co19 O20 2.061 . S
Co19 O25 2.052 . S
Co19 O27 2.135 . S
O20 Co19 2.061 . S
O20 C23 1.235 . S
C21 O24 1.238 . S
C21 O25 1.241 . S
C22 O15 1.247 . S
C22 O16 1.261 . S
C23 O18 1.259 . S
C23 O20 1.235 . S
O24 Co14 2.021 . S
O24 C21 1.238 . S
O25 Co19 2.052 . S
O25 C21 1.241 . S
O26 Co14 2.137 . S
O26 C17 1.247 . S
O27 Co14 2.244 . S
O27 C17 1.272 . S
O27 Co19 2.135 . S
Co28 O29 2.216 . S
Co28 O30 2.091 . S
Co28 O32 2.004 . S
Co28 O38 2.021 . S
Co28 O40 2.137 . S
Co28 O41 2.244 . S
O29 Co28 2.216 . S
O29 C36 1.247 . S
O30 Co28 2.091 . S
O30 C36 1.261 . S
C31 O40 1.247 . S
C31 O41 1.272 . S
O32 Co28 2.004 . S
O32 C37 1.259 . S
Co33 O34 2.061 . S
Co33 O39 2.052 . S
Co33 O41 2.135 . S
O34 Co33 2.061 . S
O34 C37 1.235 . S
C35 O38 1.238 . S
C35 O39 1.241 . S
C36 O29 1.247 . S
C36 O30 1.261 . S
C37 O32 1.259 . S
C37 O34 1.235 . S
O38 Co28 2.021 . S
O38 C35 1.238 . S
O39 Co33 2.052 . S
O39 C35 1.241 . S
O40 Co28 2.137 . S
O40 C31 1.247 . S
O41 Co28 2.244 . S
O41 C31 1.272 . S
O41 Co33 2.135 . S
Co42 O43 2.216 . S
Co42 O44 2.091 . S
Co42 O46 2.004 . S
Co42 O52 2.021 . S
Co42 O54 2.137 . S
Co42 O55 2.244 . S
O43 Co42 2.216 . S
O43 C50 1.247 . S
O44 Co42 2.091 . S
O44 C50 1.261 . S
C45 O54 1.247 . S
C45 O55 1.272 . S
O46 Co42 2.004 . S
O46 C51 1.259 . S
Co47 O48 2.061 . S
Co47 O53 2.052 . S
Co47 O55 2.135 . S
O48 Co47 2.061 . S
O48 C51 1.235 . S
C49 O52 1.238 . S
C49 O53 1.241 . S
C50 O43 1.247 . S
C50 O44 1.261 . S
C51 O46 1.259 . S
C51 O48 1.235 . S
O52 Co42 2.021 . S
O52 C49 1.238 . S
O53 Co47 2.052 . S
O53 C49 1.241 . S
O54 Co42 2.137 . S
O54 C45 1.247 . S
O55 Co42 2.244 . S
O55 C45 1.272 . S
O55 Co47 2.135 . S
Co56 O57 2.216 . S
Co56 O58 2.091 . S
Co56 O60 2.004 . S
Co56 O66 2.021 . S
Co56 O68 2.137 . S
Co56 O69 2.244 . S
O57 Co56 2.216 . S
O57 C64 1.247 . S
O58 Co56 2.091 . S
O58 C64 1.261 . S
C59 O68 1.247 . S
C59 O69 1.272 . S
O60 Co56 2.004 . S
O60 C65 1.259 . S
Co61 O62 2.061 . S
Co61 O67 2.052 . S
Co61 O69 2.135 . S
O62 Co61 2.061 . S
O62 C65 1.235 . S
C63 O66 1.238 . S
C63 O67 1.241 . S
C64 O57 1.247 . S
C64 O58 1.261 . S
C65 O60 1.259 . S
C65 O62 1.235 . S
O66 Co56 2.021 . S
O66 C63 1.238 . S
O67 Co61 2.052 . S
O67 C63 1.241 . S
O68 Co56 2.137 . S
O68 C59 1.247 . S
O69 Co56 2.244 . S
O69 C59 1.272 . S
O69 Co61 2.135 . S
Co70 O71 2.216 . S
Co70 O72 2.091 . S
Co70 O74 2.004 . S
Co70 O80 2.021 . S
Co70 O82 2.137 . S
Co70 O83 2.244 . S
O71 Co70 2.216 . S
O71 C78 1.247 . S
O72 Co70 2.091 . S
O72 C78 1.261 . S
C73 O82 1.247 . S
C73 O83 1.272 . S
O74 Co70 2.004 . S
O74 C79 1.259 . S
Co75 O76 2.061 . S
Co75 O81 2.052 . S
Co75 O83 2.135 . S
O76 Co75 2.061 . S
O76 C79 1.235 . S
C77 O80 1.238 . S
C77 O81 1.241 . S
C78 O71 1.247 . S
C78 O72 1.261 . S
C79 O74 1.259 . S
C79 O76 1.235 . S
O80 Co70 2.021 . S
O80 C77 1.238 . S
O81 Co75 2.052 . S
O81 C77 1.241 . S
O82 Co70 2.137 . S
O82 C73 1.247 . S
O83 Co70 2.244 . S
O83 C73 1.272 . S
O83 Co75 2.135 . S
Co84 O85 2.216 . S
Co84 O86 2.091 . S
Co84 O88 2.004 . S
Co84 O94 2.021 . S
Co84 O96 2.137 . S
Co84 O97 2.244 . S
O85 Co84 2.216 . S
O85 C92 1.247 . S
O86 Co84 2.091 . S
O86 C92 1.261 . S
C87 O96 1.247 . S
C87 O97 1.272 . S
O88 Co84 2.004 . S
O88 C93 1.259 . S
Co89 O90 2.061 . S
Co89 O95 2.052 . S
Co89 O97 2.135 . S
O90 Co89 2.061 . S
O90 C93 1.235 . S
C91 O94 1.238 . S
C91 O95 1.241 . S
C92 O85 1.247 . S
C92 O86 1.261 . S
C93 O88 1.259 . S
C93 O90 1.235 . S
O94 Co84 2.021 . S
O94 C91 1.238 . S
O95 Co89 2.052 . S
O95 C91 1.241 . S
O96 Co84 2.137 . S
O96 C87 1.247 . S
O97 Co84 2.244 . S
O97 C87 1.272 . S
O97 Co89 2.135 . S
Co98 O99 2.216 . S
Co98 O100 2.091 . S
Co98 O102 2.004 . S
Co98 O108 2.021 . S
Co98 O110 2.137 . S
Co98 O111 2.244 . S
O99 Co98 2.216 . S
O99 C106 1.247 . S
O100 Co98 2.091 . S
O100 C106 1.261 . S
C101 O110 1.247 . S
C101 O111 1.272 . S
O102 Co98 2.004 . S
O102 C107 1.259 . S
Co103 O104 2.061 . S
Co103 O109 2.052 . S
Co103 O111 2.135 . S
O104 Co103 2.061 . S
O104 C107 1.235 . S
C105 O108 1.238 . S
C105 O109 1.241 . S
C106 O99 1.247 . S
C106 O100 1.261 . S
C107 O102 1.259 . S
C107 O104 1.235 . S
O108 Co98 2.021 . S
O108 C105 1.238 . S
O109 Co103 2.052 . S
O109 C105 1.241 . S
O110 Co98 2.137 . S
O110 C101 1.247 . S
O111 Co98 2.244 . S
O111 C101 1.272 . S
O111 Co103 2.135 . S
Co112 O113 2.216 . S
Co112 O114 2.091 . S
Co112 O116 2.004 . S
Co112 O122 2.021 . S
Co112 O124 2.137 . S
Co112 O125 2.244 . S
O113 Co112 2.216 . S
O113 C120 1.247 . S
O114 Co112 2.091 . S
O114 C120 1.261 . S
C115 O124 1.247 . S
C115 O125 1.272 . S
O116 Co112 2.004 . S
O116 C121 1.259 . S
Co117 O118 2.061 . S
Co117 O123 2.052 . S
Co117 O125 2.135 . S
O118 Co117 2.061 . S
O118 C121 1.235 . S
C119 O122 1.238 . S
C119 O123 1.241 . S
C120 O113 1.247 . S
C120 O114 1.261 . S
C121 O116 1.259 . S
C121 O118 1.235 . S
O122 Co112 2.021 . S
O122 C119 1.238 . S
O123 Co117 2.052 . S
O123 C119 1.241 . S
O124 Co112 2.137 . S
O124 C115 1.247 . S
O125 Co112 2.244 . S
O125 C115 1.272 . S
O125 Co117 2.135 . S
Co126 O127 2.216 . S
Co126 O128 2.091 . S
Co126 O130 2.004 . S
Co126 O136 2.021 . S
Co126 O138 2.137 . S
Co126 O139 2.244 . S
O127 Co126 2.216 . S
O127 C134 1.247 . S
O128 Co126 2.091 . S
O128 C134 1.261 . S
C129 O138 1.247 . S
C129 O139 1.272 . S
O130 Co126 2.004 . S
O130 C135 1.259 . S
Co131 O132 2.061 . S
Co131 O137 2.052 . S
Co131 O139 2.135 . S
O132 Co131 2.061 . S
O132 C135 1.235 . S
C133 O136 1.238 . S
C133 O137 1.241 . S
C134 O127 1.247 . S
C134 O128 1.261 . S
C135 O130 1.259 . S
C135 O132 1.235 . S
O136 Co126 2.021 . S
O136 C133 1.238 . S
O137 Co131 2.052 . S
O137 C133 1.241 . S
O138 Co126 2.137 . S
O138 C129 1.247 . S
O139 Co126 2.244 . S
O139 C129 1.272 . S
O139 Co131 2.135 . S
Co140 O141 2.216 . S
Co140 O142 2.091 . S
Co140 O144 2.004 . S
Co140 O150 2.021 . S
Co140 O152 2.137 . S
Co140 O153 2.244 . S
O141 Co140 2.216 . S
O141 C148 1.247 . S
O142 Co140 2.091 . S
O142 C148 1.261 . S
C143 O152 1.247 . S
C143 O153 1.272 . S
O144 Co140 2.004 . S
O144 C149 1.259 . S
Co145 O146 2.061 . S
Co145 O151 2.052 . S
Co145 O153 2.135 . S
O146 Co145 2.061 . S
O146 C149 1.235 . S
C147 O150 1.238 . S
C147 O151 1.241 . S
C148 O141 1.247 . S
C148 O142 1.261 . S
C149 O144 1.259 . S
C149 O146 1.235 . S
O150 Co140 2.021 . S
O150 C147 1.238 . S
O151 Co145 2.052 . S
O151 C147 1.241 . S
O152 Co140 2.137 . S
O152 C143 1.247 . S
O153 Co140 2.244 . S
O153 C143 1.272 . S
O153 Co145 2.135 . S
Co154 O155 2.216 . S
Co154 O156 2.091 . S
Co154 O158 2.004 . S
Co154 O164 2.021 . S
Co154 O166 2.137 . S
Co154 O167 2.244 . S
O155 Co154 2.216 . S
O155 C162 1.247 . S
O156 Co154 2.091 . S
O156 C162 1.261 . S
C157 O166 1.247 . S
C157 O167 1.272 . S
O158 Co154 2.004 . S
O158 C163 1.259 . S
Co159 O160 2.061 . S
Co159 O165 2.052 . S
Co159 O167 2.135 . S
O160 Co159 2.061 . S
O160 C163 1.235 . S
C161 O164 1.238 . S
C161 O165 1.241 . S
C162 O155 1.247 . S
C162 O156 1.261 . S
C163 O158 1.259 . S
C163 O160 1.235 . S
O164 Co154 2.021 . S
O164 C161 1.238 . S
O165 Co159 2.052 . S
O165 C161 1.241 . S
O166 Co154 2.137 . S
O166 C157 1.247 . S
O167 Co154 2.244 . S
O167 C157 1.272 . S
O167 Co159 2.135 . S
Co168 O169 2.216 . S
Co168 O170 2.091 . S
Co168 O172 2.004 . S
Co168 O178 2.021 . S
Co168 O180 2.137 . S
Co168 O181 2.244 . S
O169 Co168 2.216 . S
O169 C176 1.247 . S
O170 Co168 2.091 . S
O170 C176 1.261 . S
C171 O180 1.247 . S
C171 O181 1.272 . S
O172 Co168 2.004 . S
O172 C177 1.259 . S
Co173 O174 2.061 . S
Co173 O179 2.052 . S
Co173 O181 2.135 . S
O174 Co173 2.061 . S
O174 C177 1.235 . S
C175 O178 1.238 . S
C175 O179 1.241 . S
C176 O169 1.247 . S
C176 O170 1.261 . S
C177 O172 1.259 . S
C177 O174 1.235 . S
O178 Co168 2.021 . S
O178 C175 1.238 . S
O179 Co173 2.052 . S
O179 C175 1.241 . S
O180 Co168 2.137 . S
O180 C171 1.247 . S
O181 Co168 2.244 . S
O181 C171 1.272 . S
O181 Co173 2.135 . S
Co182 O183 2.216 . S
Co182 O184 2.091 . S
Co182 O186 2.004 . S
Co182 O192 2.021 . S
Co182 O194 2.137 . S
Co182 O195 2.244 . S
O183 Co182 2.216 . S
O183 C190 1.247 . S
O184 Co182 2.091 . S
O184 C190 1.261 . S
C185 O194 1.247 . S
C185 O195 1.272 . S
O186 Co182 2.004 . S
O186 C191 1.259 . S
Co187 O188 2.061 . S
Co187 O193 2.052 . S
Co187 O195 2.135 . S
O188 Co187 2.061 . S
O188 C191 1.235 . S
C189 O192 1.238 . S
C189 O193 1.241 . S
C190 O183 1.247 . S
C190 O184 1.261 . S
C191 O186 1.259 . S
C191 O188 1.235 . S
O192 Co182 2.021 . S
O192 C189 1.238 . S
O193 Co187 2.052 . S
O193 C189 1.241 . S
O194 Co182 2.137 . S
O194 C185 1.247 . S
O195 Co182 2.244 . S
O195 C185 1.272 . S
O195 Co187 2.135 . S
Co196 O197 2.216 . S
Co196 O198 2.091 . S
Co196 O200 2.004 . S
Co196 O206 2.021 . S
Co196 O208 2.137 . S
Co196 O209 2.244 . S
O197 Co196 2.216 . S
O197 C204 1.247 . S
O198 Co196 2.091 . S
O198 C204 1.261 . S
C199 O208 1.247 . S
C199 O209 1.272 . S
O200 Co196 2.004 . S
O200 C205 1.259 . S
Co201 O202 2.061 . S
Co201 O207 2.052 . S
Co201 O209 2.135 . S
O202 Co201 2.061 . S
O202 C205 1.235 . S
C203 O206 1.238 . S
C203 O207 1.241 . S
C204 O197 1.247 . S
C204 O198 1.261 . S
C205 O200 1.259 . S
C205 O202 1.235 . S
O206 Co196 2.021 . S
O206 C203 1.238 . S
O207 Co201 2.052 . S
O207 C203 1.241 . S
O208 Co196 2.137 . S
O208 C199 1.247 . S
O209 Co196 2.244 . S
O209 C199 1.272 . S
O209 Co201 2.135 . S
Co210 O211 2.216 . S
Co210 O212 2.091 . S
Co210 O214 2.004 . S
Co210 O220 2.021 . S
Co210 O222 2.137 . S
Co210 O223 2.244 . S
O211 Co210 2.216 . S
O211 C218 1.247 . S
O212 Co210 2.091 . S
O212 C218 1.261 . S
C213 O222 1.247 . S
C213 O223 1.272 . S
O214 Co210 2.004 . S
O214 C219 1.259 . S
Co215 O216 2.061 . S
Co215 O221 2.052 . S
Co215 O223 2.135 . S
O216 Co215 2.061 . S
O216 C219 1.235 . S
C217 O220 1.238 . S
C217 O221 1.241 . S
C218 O211 1.247 . S
C218 O212 1.261 . S
C219 O214 1.259 . S
C219 O216 1.235 . S
O220 Co210 2.021 . S
O220 C217 1.238 . S
O221 Co215 2.052 . S
O221 C217 1.241 . S
O222 Co210 2.137 . S
O222 C213 1.247 . S
O223 Co210 2.244 . S
O223 C213 1.272 . S
O223 Co215 2.135 . S
H224 C232 0.950 . S
H225 C237 0.950 . S
H226 C234 0.950 . S
H227 C236 0.950 . S
H228 C238 0.950 . S
H229 C240 0.950 . S
H230 C242 0.950 . S
H231 C243 0.950 . S
C232 H224 0.950 . S
C232 C233 1.386 . S
C232 C234 1.391 . S
C233 C232 1.386 . S
C233 C237 1.393 . S
C234 H226 0.950 . S
C234 C232 1.391 . S
C234 C235 1.400 . S
C235 C234 1.400 . S
C235 C236 1.398 . S
C235 C241 1.491 . S
C236 H227 0.950 . S
C236 C235 1.398 . S
C236 C237 1.391 . S
C237 H225 0.950 . S
C237 C233 1.393 . S
C237 C236 1.391 . S
C238 H228 0.950 . S
C238 C239 1.386 . S
C238 C240 1.391 . S
C239 C238 1.386 . S
C239 C243 1.393 . S
C240 H229 0.950 . S
C240 C238 1.391 . S
C240 C241 1.400 . S
C241 C235 1.491 . S
C241 C240 1.400 . S
C241 C242 1.398 . S
C242 H230 0.950 . S
C242 C241 1.398 . S
C242 C243 1.391 . S
C243 H231 0.950 . S
C243 C239 1.393 . S
C243 C242 1.391 . S
H244 C252 0.950 . S
H245 C257 0.950 . S
H246 C254 0.950 . S
H247 C256 0.950 . S
H248 C258 0.950 . S
H249 C260 0.950 . S
H250 C262 0.950 . S
H251 C263 0.950 . S
C252 H244 0.950 . S
C252 C253 1.386 . S
C252 C254 1.391 . S
C253 C252 1.386 . S
C253 C257 1.393 . S
C254 H246 0.950 . S
C254 C252 1.391 . S
C254 C255 1.400 . S
C255 C254 1.400 . S
C255 C256 1.398 . S
C255 C261 1.491 . S
C256 H247 0.950 . S
C256 C255 1.398 . S
C256 C257 1.391 . S
C257 H245 0.950 . S
C257 C253 1.393 . S
C257 C256 1.391 . S
C258 H248 0.950 . S
C258 C259 1.386 . S
C258 C260 1.391 . S
C259 C258 1.386 . S
C259 C263 1.393 . S
C260 H249 0.950 . S
C260 C258 1.391 . S
C260 C261 1.400 . S
C261 C255 1.491 . S
C261 C260 1.400 . S
C261 C262 1.398 . S
C262 H250 0.950 . S
C262 C261 1.398 . S
C262 C263 1.391 . S
C263 H251 0.950 . S
C263 C259 1.393 . S
C263 C262 1.391 . S
H264 C272 0.950 . S
H265 C277 0.950 . S
H266 C274 0.950 . S
H267 C276 0.950 . S
H268 C278 0.950 . S
H269 C280 0.950 . S
H270 C282 0.950 . S
H271 C283 0.950 . S
C272 H264 0.950 . S
C272 C273 1.386 . S
C272 C274 1.391 . S
C273 C272 1.386 . S
C273 C277 1.393 . S
C274 H266 0.950 . S
C274 C272 1.391 . S
C274 C275 1.400 . S
C275 C274 1.400 . S
C275 C276 1.398 . S
C275 C281 1.491 . S
C276 H267 0.950 . S
C276 C275 1.398 . S
C276 C277 1.391 . S
C277 H265 0.950 . S
C277 C273 1.393 . S
C277 C276 1.391 . S
C278 H268 0.950 . S
C278 C279 1.386 . S
C278 C280 1.391 . S
C279 C278 1.386 . S
C279 C283 1.393 . S
C280 H269 0.950 . S
C280 C278 1.391 . S
C280 C281 1.400 . S
C281 C275 1.491 . S
C281 C280 1.400 . S
C281 C282 1.398 . S
C282 H270 0.950 . S
C282 C281 1.398 . S
C282 C283 1.391 . S
C283 H271 0.950 . S
C283 C279 1.393 . S
C283 C282 1.391 . S
H284 C292 0.950 . S
H285 C297 0.950 . S
H286 C294 0.950 . S
H287 C296 0.950 . S
H288 C298 0.950 . S
H289 C300 0.950 . S
H290 C302 0.950 . S
H291 C303 0.950 . S
C292 H284 0.950 . S
C292 C293 1.386 . S
C292 C294 1.391 . S
C293 C292 1.386 . S
C293 C297 1.393 . S
C294 H286 0.950 . S
C294 C292 1.391 . S
C294 C295 1.400 . S
C295 C294 1.400 . S
C295 C296 1.398 . S
C295 C301 1.491 . S
C296 H287 0.950 . S
C296 C295 1.398 . S
C296 C297 1.391 . S
C297 H285 0.950 . S
C297 C293 1.393 . S
C297 C296 1.391 . S
C298 H288 0.950 . S
C298 C299 1.386 . S
C298 C300 1.391 . S
C299 C298 1.386 . S
C299 C303 1.393 . S
C300 H289 0.950 . S
C300 C298 1.391 . S
C300 C301 1.400 . S
C301 C295 1.491 . S
C301 C300 1.400 . S
C301 C302 1.398 . S
C302 H290 0.950 . S
C302 C301 1.398 . S
C302 C303 1.391 . S
C303 H291 0.950 . S
C303 C299 1.393 . S
C303 C302 1.391 . S
H304 C312 0.950 . S
H305 C317 0.950 . S
H306 C314 0.950 . S
H307 C316 0.950 . S
H308 C318 0.950 . S
H309 C320 0.950 . S
H310 C322 0.950 . S
H311 C323 0.950 . S
C312 H304 0.950 . S
C312 C313 1.386 . S
C312 C314 1.391 . S
C313 C312 1.386 . S
C313 C317 1.393 . S
C314 H306 0.950 . S
C314 C312 1.391 . S
C314 C315 1.400 . S
C315 C314 1.400 . S
C315 C316 1.398 . S
C315 C321 1.491 . S
C316 H307 0.950 . S
C316 C315 1.398 . S
C316 C317 1.391 . S
C317 H305 0.950 . S
C317 C313 1.393 . S
C317 C316 1.391 . S
C318 H308 0.950 . S
C318 C319 1.386 . S
C318 C320 1.391 . S
C319 C318 1.386 . S
C319 C323 1.393 . S
C320 H309 0.950 . S
C320 C318 1.391 . S
C320 C321 1.400 . S
C321 C315 1.491 . S
C321 C320 1.400 . S
C321 C322 1.398 . S
C322 H310 0.950 . S
C322 C321 1.398 . S
C322 C323 1.391 . S
C323 H311 0.950 . S
C323 C319 1.393 . S
C323 C322 1.391 . S
H324 C332 0.950 . S
H325 C337 0.950 . S
H326 C334 0.950 . S
H327 C336 0.950 . S
H328 C338 0.950 . S
H329 C340 0.950 . S
H330 C342 0.950 . S
H331 C343 0.950 . S
C332 H324 0.950 . S
C332 C333 1.386 . S
C332 C334 1.391 . S
C333 C332 1.386 . S
C333 C337 1.393 . S
C334 H326 0.950 . S
C334 C332 1.391 . S
C334 C335 1.400 . S
C335 C334 1.400 . S
C335 C336 1.398 . S
C335 C341 1.491 . S
C336 H327 0.950 . S
C336 C335 1.398 . S
C336 C337 1.391 . S
C337 H325 0.950 . S
C337 C333 1.393 . S
C337 C336 1.391 . S
C338 H328 0.950 . S
C338 C339 1.386 . S
C338 C340 1.391 . S
C339 C338 1.386 . S
C339 C343 1.393 . S
C340 H329 0.950 . S
C340 C338 1.391 . S
C340 C341 1.400 . S
C341 C335 1.491 . S
C341 C340 1.400 . S
C341 C342 1.398 . S
C342 H330 0.950 . S
C342 C341 1.398 . S
C342 C343 1.391 . S
C343 H331 0.950 . S
C343 C339 1.393 . S
C343 C342 1.391 . S
H344 C352 0.950 . S
H345 C357 0.950 . S
H346 C354 0.950 . S
H347 C356 0.950 . S
H348 C358 0.950 . S
H349 C360 0.950 . S
H350 C362 0.950 . S
H351 C363 0.950 . S
C352 H344 0.950 . S
C352 C353 1.386 . S
C352 C354 1.391 . S
C353 C352 1.386 . S
C353 C357 1.393 . S
C354 H346 0.950 . S
C354 C352 1.391 . S
C354 C355 1.400 . S
C355 C354 1.400 . S
C355 C356 1.398 . S
C355 C361 1.491 . S
C356 H347 0.950 . S
C356 C355 1.398 . S
C356 C357 1.391 . S
C357 H345 0.950 . S
C357 C353 1.393 . S
C357 C356 1.391 . S
C358 H348 0.950 . S
C358 C359 1.386 . S
C358 C360 1.391 . S
C359 C358 1.386 . S
C359 C363 1.393 . S
C360 H349 0.950 . S
C360 C358 1.391 . S
C360 C361 1.400 . S
C361 C355 1.491 . S
C361 C360 1.400 . S
C361 C362 1.398 . S
C362 H350 0.950 . S
C362 C361 1.398 . S
C362 C363 1.391 . S
C363 H351 0.950 . S
C363 C359 1.393 . S
C363 C362 1.391 . S
H364 C372 0.950 . S
H365 C377 0.950 . S
H366 C374 0.950 . S
H367 C376 0.950 . S
H368 C378 0.950 . S
H369 C380 0.950 . S
H370 C382 0.950 . S
H371 C383 0.950 . S
C372 H364 0.950 . S
C372 C373 1.386 . S
C372 C374 1.391 . S
C373 C372 1.386 . S
C373 C377 1.393 . S
C374 H366 0.950 . S
C374 C372 1.391 . S
C374 C375 1.400 . S
C375 C374 1.400 . S
C375 C376 1.398 . S
C375 C381 1.491 . S
C376 H367 0.950 . S
C376 C375 1.398 . S
C376 C377 1.391 . S
C377 H365 0.950 . S
C377 C373 1.393 . S
C377 C376 1.391 . S
C378 H368 0.950 . S
C378 C379 1.386 . S
C378 C380 1.391 . S
C379 C378 1.386 . S
C379 C383 1.393 . S
C380 H369 0.950 . S
C380 C378 1.391 . S
C380 C381 1.400 . S
C381 C375 1.491 . S
C381 C380 1.400 . S
C381 C382 1.398 . S
C382 H370 0.950 . S
C382 C381 1.398 . S
C382 C383 1.391 . S
C383 H371 0.950 . S
C383 C379 1.393 . S
C383 C382 1.391 . S
H384 C392 0.950 . S
H385 C397 0.950 . S
H386 C394 0.950 . S
H387 C396 0.950 . S
H388 C398 0.950 . S
H389 C400 0.950 . S
H390 C402 0.950 . S
H391 C403 0.950 . S
C392 H384 0.950 . S
C392 C393 1.386 . S
C392 C394 1.391 . S
C393 C392 1.386 . S
C393 C397 1.393 . S
C394 H386 0.950 . S
C394 C392 1.391 . S
C394 C395 1.400 . S
C395 C394 1.400 . S
C395 C396 1.398 . S
C395 C401 1.491 . S
C396 H387 0.950 . S
C396 C395 1.398 . S
C396 C397 1.391 . S
C397 H385 0.950 . S
C397 C393 1.393 . S
C397 C396 1.391 . S
C398 H388 0.950 . S
C398 C399 1.386 1_655 S
C398 C400 1.391 . S
C399 C398 1.386 1_455 S
C399 C403 1.393 . S
C400 H389 0.950 . S
C400 C398 1.391 . S
C400 C401 1.400 . S
C401 C395 1.491 . S
C401 C400 1.400 . S
C401 C402 1.398 1_655 S
C402 H390 0.950 . S
C402 C401 1.398 1_455 S
C402 C403 1.391 . S
C403 H391 0.950 . S
C403 C399 1.393 . S
C403 C402 1.391 . S
H404 C412 0.950 . S
H405 C417 0.950 . S
H406 C414 0.945 1_545 S
H407 C416 0.950 . S
H408 C418 0.950 . S
H409 C420 0.950 . S
H410 C422 0.950 . S
H411 C423 0.950 . S
C412 H404 0.950 . S
C412 C413 1.386 . S
C412 C414 1.391 1_545 S
C413 C412 1.386 . S
C413 C417 1.393 1_545 S
C414 H406 0.945 1_565 S
C414 C412 1.391 1_565 S
C414 C415 1.400 . S
C415 C414 1.400 . S
C415 C416 1.398 . S
C415 C421 1.491 . S
C416 H407 0.950 . S
C416 C415 1.398 . S
C416 C417 1.391 . S
C417 H405 0.950 . S
C417 C413 1.393 1_565 S
C417 C416 1.391 . S
C418 H408 0.950 . S
C418 C419 1.386 1_655 S
C418 C420 1.391 . S
C419 C418 1.386 1_455 S
C419 C423 1.393 . S
C420 H409 0.950 . S
C420 C418 1.391 . S
C420 C421 1.400 . S
C421 C415 1.491 . S
C421 C420 1.400 . S
C421 C422 1.398 1_655 S
C422 H410 0.950 . S
C422 C421 1.398 1_455 S
C422 C423 1.391 . S
C423 H411 0.950 . S
C423 C419 1.393 . S
C423 C422 1.391 . S
H424 C432 0.950 . S
H425 C437 0.950 . S
H426 C434 0.950 . S
H427 C436 0.950 . S
H428 C438 0.950 . S
H429 C440 0.950 . S
H430 C442 0.950 . S
H431 C443 0.950 . S
C432 H424 0.950 . S
C432 C433 1.386 . S
C432 C434 1.391 . S
C433 C432 1.386 . S
C433 C437 1.393 1_545 S
C434 H426 0.950 . S
C434 C432 1.391 . S
C434 C435 1.400 1_545 S
C435 C434 1.400 1_565 S
C435 C436 1.398 . S
C435 C441 1.491 . S
C436 H427 0.950 . S
C436 C435 1.398 . S
C436 C437 1.391 . S
C437 H425 0.950 . S
C437 C433 1.393 1_565 S
C437 C436 1.391 . S
C438 H428 0.950 . S
C438 C439 1.386 . S
C438 C440 1.391 . S
C439 C438 1.386 . S
C439 C443 1.393 . S
C440 H429 0.950 . S
C440 C438 1.391 . S
C440 C441 1.400 . S
C441 C435 1.491 . S
C441 C440 1.400 . S
C441 C442 1.398 . S
C442 H430 0.950 . S
C442 C441 1.398 . S
C442 C443 1.391 . S
C443 H431 0.950 . S
C443 C439 1.393 . S
C443 C442 1.391 . S
H444 C452 0.950 . S
H445 C457 0.950 . S
H446 C454 0.950 . S
H447 C456 0.950 . S
H448 C458 0.950 . S
H449 C460 0.950 . S
H450 C462 0.950 . S
H451 C463 0.950 . S
C452 H444 0.950 . S
C452 C453 1.386 . S
C452 C454 1.391 . S
C453 C452 1.386 . S
C453 C457 1.393 . S
C454 H446 0.950 . S
C454 C452 1.391 . S
C454 C455 1.400 . S
C455 C454 1.400 . S
C455 C456 1.398 . S
C455 C461 1.491 . S
C456 H447 0.950 . S
C456 C455 1.398 . S
C456 C457 1.391 . S
C457 H445 0.950 . S
C457 C453 1.393 . S
C457 C456 1.391 . S
C458 H448 0.950 . S
C458 C459 1.386 . S
C458 C460 1.391 . S
C459 C458 1.386 . S
C459 C463 1.393 . S
C460 H449 0.950 . S
C460 C458 1.391 . S
C460 C461 1.400 . S
C461 C455 1.491 . S
C461 C460 1.400 . S
C461 C462 1.398 . S
C462 H450 0.950 . S
C462 C461 1.398 . S
C462 C463 1.391 . S
C463 H451 0.950 . S
C463 C459 1.393 . S
C463 C462 1.391 . S
H464 C472 0.950 . S
H465 C477 0.950 . S
H466 C474 0.950 . S
H467 C476 0.950 . S
H468 C478 0.950 . S
H469 C480 0.950 . S
H470 C482 0.950 . S
H471 C483 0.950 . S
C472 H464 0.950 . S
C472 C473 1.386 . S
C472 C474 1.391 . S
C473 C472 1.386 . S
C473 C477 1.393 . S
C474 H466 0.950 . S
C474 C472 1.391 . S
C474 C475 1.400 . S
C475 C474 1.400 . S
C475 C476 1.398 . S
C475 C481 1.491 . S
C476 H467 0.950 . S
C476 C475 1.398 . S
C476 C477 1.391 . S
C477 H465 0.950 . S
C477 C473 1.393 . S
C477 C476 1.391 . S
C478 H468 0.950 . S
C478 C479 1.386 1_455 S
C478 C480 1.391 . S
C479 C478 1.386 1_655 S
C479 C483 1.393 . S
C480 H469 0.950 . S
C480 C478 1.391 . S
C480 C481 1.400 . S
C481 C475 1.491 . S
C481 C480 1.400 . S
C481 C482 1.398 1_455 S
C482 H470 0.950 . S
C482 C481 1.398 1_655 S
C482 C483 1.391 . S
C483 H471 0.950 . S
C483 C479 1.393 . S
C483 C482 1.391 . S
H484 C492 0.957 . S
H485 C497 0.950 . S
H486 C494 0.950 . S
H487 C496 0.947 1_655 S
H488 C498 0.950 . S
H489 C500 0.950 . S
H490 C502 0.950 . S
H491 C503 0.950 . S
C492 H484 0.957 . S
C492 C493 1.388 . S
C492 C494 1.382 1_565 S
C493 C492 1.388 . S
C493 C497 1.393 1_565 S
C494 H486 0.950 . S
C494 C492 1.382 1_545 S
C494 C495 1.400 . S
C495 C494 1.400 . S
C495 C496 1.398 . S
C495 C501 1.491 . S
C496 H487 0.947 1_455 S
C496 C495 1.398 . S
C496 C497 1.391 . S
C497 H485 0.950 . S
C497 C493 1.393 1_545 S
C497 C496 1.391 . S
C498 H488 0.950 . S
C498 C499 1.386 . S
C498 C500 1.391 . S
C499 C498 1.386 . S
C499 C503 1.393 1_655 S
C500 H489 0.950 . S
C500 C498 1.391 . S
C500 C501 1.400 1_655 S
C501 C495 1.491 . S
C501 C500 1.400 1_455 S
C501 C502 1.398 . S
C502 H490 0.950 . S
C502 C501 1.398 . S
C502 C503 1.391 . S
C503 H491 0.950 . S
C503 C499 1.393 1_455 S
C503 C502 1.391 . S
H504 C512 0.950 . S
H505 C517 0.950 . S
H506 C514 0.950 . S
H507 C516 0.950 . S
H508 C518 0.950 . S
H509 C520 0.950 . S
H510 C522 0.950 . S
H511 C523 0.950 . S
C512 H504 0.950 . S
C512 C513 1.386 . S
C512 C514 1.391 . S
C513 C512 1.386 . S
C513 C517 1.393 . S
C514 H506 0.950 . S
C514 C512 1.391 . S
C514 C515 1.400 . S
C515 C514 1.400 . S
C515 C516 1.398 . S
C515 C521 1.491 . S
C516 H507 0.950 . S
C516 C515 1.398 . S
C516 C517 1.391 . S
C517 H505 0.950 . S
C517 C513 1.393 . S
C517 C516 1.391 . S
C518 H508 0.950 . S
C518 C519 1.386 . S
C518 C520 1.391 . S
C519 C518 1.386 . S
C519 C523 1.393 1_565 S
C520 H509 0.950 . S
C520 C518 1.391 . S
C520 C521 1.400 1_565 S
C521 C515 1.491 . S
C521 C520 1.400 1_545 S
C521 C522 1.398 . S
C522 H510 0.950 . S
C522 C521 1.398 . S
C522 C523 1.391 . S
C523 H511 0.950 . S
C523 C519 1.393 1_545 S
C523 C522 1.391 . S
H524 C532 0.950 . S
H525 C537 0.950 . S
H526 C534 0.950 . S
H527 C536 0.950 . S
H528 C538 0.950 . S
H529 C540 0.950 . S
H530 C542 0.950 . S
H531 C543 0.950 . S
C532 H524 0.950 . S
C532 C533 1.386 . S
C532 C534 1.391 . S
C533 C532 1.386 . S
C533 C537 1.393 . S
C534 H526 0.950 . S
C534 C532 1.391 . S
C534 C535 1.400 . S
C535 C534 1.400 . S
C535 C536 1.398 . S
C535 C541 1.491 . S
C536 H527 0.950 . S
C536 C535 1.398 . S
C536 C537 1.391 . S
C537 H525 0.950 . S
C537 C533 1.393 . S
C537 C536 1.391 . S
C538 H528 0.950 . S
C538 C539 1.386 . S
C538 C540 1.391 . S
C539 C538 1.386 . S
C539 C543 1.393 . S
C540 H529 0.950 . S
C540 C538 1.391 . S
C540 C541 1.400 . S
C541 C535 1.491 . S
C541 C540 1.400 . S
C541 C542 1.398 . S
C542 H530 0.950 . S
C542 C541 1.398 . S
C542 C543 1.391 . S
C543 H531 0.950 . S
C543 C539 1.393 . S
C543 C542 1.391 . S
H544 C552 0.950 . S
H545 C557 0.950 . S
H546 C554 0.950 . S
H547 C556 0.950 . S
H548 C558 0.950 . S
H549 C560 0.950 . S
H550 C562 0.950 . S
H551 C563 0.950 . S
C552 H544 0.950 . S
C552 C553 1.386 . S
C552 C554 1.391 . S
C553 C552 1.386 . S
C553 C557 1.393 . S
C554 H546 0.950 . S
C554 C552 1.391 . S
C554 C555 1.400 . S
C555 C554 1.400 . S
C555 C556 1.398 . S
C555 C561 1.491 . S
C556 H547 0.950 . S
C556 C555 1.398 . S
C556 C557 1.391 . S
C557 H545 0.950 . S
C557 C553 1.393 . S
C557 C556 1.391 . S
C558 H548 0.950 . S
C558 C559 1.386 . S
C558 C560 1.391 . S
C559 C558 1.386 . S
C559 C563 1.393 . S
C560 H549 0.950 . S
C560 C558 1.391 . S
C560 C561 1.400 . S
C561 C555 1.491 . S
C561 C560 1.400 . S
C561 C562 1.398 . S
C562 H550 0.950 . S
C562 C561 1.398 . S
C562 C563 1.391 . S
C563 H551 0.950 . S
C563 C559 1.393 . S
C563 C562 1.391 . S
H564 C572 0.950 . S
H565 C577 0.950 . S
H566 C574 0.950 . S
H567 C576 0.950 . S
H568 C578 0.950 1_565 S
H569 C580 0.950 1_565 S
H570 C582 0.950 . S
H571 C583 0.950 . S
C572 H564 0.950 . S
C572 C573 1.386 . S
C572 C574 1.391 . S
C573 C572 1.386 . S
C573 C577 1.393 1_545 S
C574 H566 0.950 . S
C574 C572 1.391 . S
C574 C575 1.400 . S
C575 C574 1.400 . S
C575 C576 1.398 1_545 S
C575 C581 1.491 . S
C576 H567 0.950 . S
C576 C575 1.398 1_565 S
C576 C577 1.391 . S
C577 H565 0.950 . S
C577 C573 1.393 1_565 S
C577 C576 1.391 . S
C578 H568 0.950 1_545 S
C578 C579 1.386 . S
C578 C580 1.391 . S
C579 C578 1.386 . S
C579 C583 1.393 . S
C580 H569 0.950 1_545 S
C580 C578 1.391 . S
C580 C581 1.400 . S
C581 C575 1.491 . S
C581 C580 1.400 . S
C581 C582 1.398 . S
C582 H570 0.950 . S
C582 C581 1.398 . S
C582 C583 1.391 . S
C583 H571 0.950 . S
C583 C579 1.393 . S
C583 C582 1.391 . S
H584 C592 0.950 . S
H585 C597 0.950 . S
H586 C594 0.950 . S
H587 C596 0.950 . S
H588 C598 0.950 . S
H589 C600 0.950 . S
H590 C602 0.950 . S
H591 C603 0.950 . S
C592 H584 0.950 . S
C592 C593 1.386 . S
C592 C594 1.391 . S
C593 C592 1.386 . S
C593 C597 1.393 . S
C594 H586 0.950 . S
C594 C592 1.391 . S
C594 C595 1.400 . S
C595 C594 1.400 . S
C595 C596 1.398 . S
C595 C601 1.491 . S
C596 H587 0.950 . S
C596 C595 1.398 . S
C596 C597 1.391 . S
C597 H585 0.950 . S
C597 C593 1.393 . S
C597 C596 1.391 . S
C598 H588 0.950 . S
C598 C599 1.386 . S
C598 C600 1.391 . S
C599 C598 1.386 . S
C599 C603 1.393 . S
C600 H589 0.950 . S
C600 C598 1.391 . S
C600 C601 1.400 . S
C601 C595 1.491 . S
C601 C600 1.400 . S
C601 C602 1.398 . S
C602 H590 0.950 . S
C602 C601 1.398 . S
C602 C603 1.391 . S
C603 H591 0.950 . S
C603 C599 1.393 . S
C603 C602 1.391 . S
H604 C612 0.950 . S
H605 C617 0.950 . S
H606 C614 0.950 . S
H607 C616 0.950 . S
H608 C618 0.950 . S
H609 C620 0.950 . S
H610 C622 0.950 . S
H611 C623 0.950 . S
C612 H604 0.950 . S
C612 C613 1.386 . S
C612 C614 1.391 . S
C613 C612 1.386 . S
C613 C617 1.393 . S
C614 H606 0.950 . S
C614 C612 1.391 . S
C614 C615 1.400 . S
C615 C614 1.400 . S
C615 C616 1.398 . S
C615 C621 1.491 . S
C616 H607 0.950 . S
C616 C615 1.398 . S
C616 C617 1.391 . S
C617 H605 0.950 . S
C617 C613 1.393 . S
C617 C616 1.391 . S
C618 H608 0.950 . S
C618 C619 1.386 . S
C618 C620 1.391 . S
C619 C618 1.386 . S
C619 C623 1.393 . S
C620 H609 0.950 . S
C620 C618 1.391 . S
C620 C621 1.400 . S
C621 C615 1.491 . S
C621 C620 1.400 . S
C621 C622 1.398 . S
C622 H610 0.950 . S
C622 C621 1.398 . S
C622 C623 1.391 . S
C623 H611 0.950 . S
C623 C619 1.393 . S
C623 C622 1.391 . S
H624 C632 0.950 . S
H625 C637 0.950 . S
H626 C634 0.950 . S
H627 C636 0.950 . S
H628 C638 0.950 . S
H629 C640 0.950 . S
H630 C642 0.950 . S
H631 C643 0.950 . S
C632 H624 0.950 . S
C632 C633 1.386 1_455 S
C632 C634 1.391 . S
C633 C632 1.386 1_655 S
C633 C637 1.393 . S
C634 H626 0.950 . S
C634 C632 1.391 . S
C634 C635 1.400 1_455 S
C635 C634 1.400 1_655 S
C635 C636 1.398 . S
C635 C641 1.491 . S
C636 H627 0.950 . S
C636 C635 1.398 . S
C636 C637 1.391 . S
C637 H625 0.950 . S
C637 C633 1.393 . S
C637 C636 1.391 . S
C638 H628 0.950 . S
C638 C639 1.386 . S
C638 C640 1.391 . S
C639 C638 1.386 . S
C639 C643 1.393 1_655 S
C640 H629 0.950 . S
C640 C638 1.391 . S
C640 C641 1.400 . S
C641 C635 1.491 . S
C641 C640 1.400 . S
C641 C642 1.398 1_655 S
C642 H630 0.950 . S
C642 C641 1.398 1_455 S
C642 C643 1.391 . S
C643 H631 0.950 . S
C643 C639 1.393 1_455 S
C643 C642 1.391 . S
H644 C652 0.950 . S
H645 C657 0.950 . S
H646 C654 0.950 . S
H647 C656 0.950 . S
H648 C658 0.950 . S
H649 C660 0.950 . S
H650 C662 0.950 . S
H651 C663 0.950 . S
C652 H644 0.950 . S
C652 C653 1.386 . S
C652 C654 1.391 . S
C653 C652 1.386 . S
C653 C657 1.393 . S
C654 H646 0.950 . S
C654 C652 1.391 . S
C654 C655 1.400 . S
C655 C654 1.400 . S
C655 C656 1.398 . S
C655 C661 1.491 . S
C656 H647 0.950 . S
C656 C655 1.398 . S
C656 C657 1.391 . S
C657 H645 0.950 . S
C657 C653 1.393 . S
C657 C656 1.391 . S
C658 H648 0.950 . S
C658 C659 1.386 . S
C658 C660 1.391 . S
C659 C658 1.386 . S
C659 C663 1.393 . S
C660 H649 0.950 . S
C660 C658 1.391 . S
C660 C661 1.400 . S
C661 C655 1.491 . S
C661 C660 1.400 . S
C661 C662 1.398 . S
C662 H650 0.950 . S
C662 C661 1.398 . S
C662 C663 1.391 . S
C663 H651 0.950 . S
C663 C659 1.393 . S
C663 C662 1.391 . S
H664 C672 0.950 . S
H665 C677 0.950 . S
H666 C674 0.950 . S
H667 C676 0.950 . S
H668 C678 0.950 . S
H669 C680 0.950 . S
H670 C682 0.950 . S
H671 C683 0.950 . S
C672 H664 0.950 . S
C672 C673 1.386 . S
C672 C674 1.391 . S
C673 C672 1.386 . S
C673 C677 1.393 . S
C674 H666 0.950 . S
C674 C672 1.391 . S
C674 C675 1.400 . S
C675 C674 1.400 . S
C675 C676 1.398 . S
C675 C681 1.491 . S
C676 H667 0.950 . S
C676 C675 1.398 . S
C676 C677 1.391 . S
C677 H665 0.950 . S
C677 C673 1.393 . S
C677 C676 1.391 . S
C678 H668 0.950 . S
C678 C679 1.386 . S
C678 C680 1.391 . S
C679 C678 1.386 . S
C679 C683 1.393 . S
C680 H669 0.950 . S
C680 C678 1.391 . S
C680 C681 1.400 . S
C681 C675 1.491 . S
C681 C680 1.400 . S
C681 C682 1.398 . S
C682 H670 0.950 . S
C682 C681 1.398 . S
C682 C683 1.391 . S
C683 H671 0.950 . S
C683 C679 1.393 . S
C683 C682 1.391 . S
H684 C692 0.950 . S
H685 C697 0.950 . S
H686 C694 0.950 . S
H687 C696 0.950 . S
H688 C698 0.950 . S
H689 C700 0.950 . S
H690 C702 0.950 . S
H691 C703 0.950 . S
C692 H684 0.950 . S
C692 C693 1.386 . S
C692 C694 1.391 . S
C693 C692 1.386 . S
C693 C697 1.393 . S
C694 H686 0.950 . S
C694 C692 1.391 . S
C694 C695 1.400 . S
C695 C694 1.400 . S
C695 C696 1.398 . S
C695 C701 1.491 . S
C696 H687 0.950 . S
C696 C695 1.398 . S
C696 C697 1.391 . S
C697 H685 0.950 . S
C697 C693 1.393 . S
C697 C696 1.391 . S
C698 H688 0.950 . S
C698 C699 1.386 . S
C698 C700 1.391 . S
C699 C698 1.386 . S
C699 C703 1.393 . S
C700 H689 0.950 . S
C700 C698 1.391 . S
C700 C701 1.400 . S
C701 C695 1.491 . S
C701 C700 1.400 . S
C701 C702 1.398 . S
C702 H690 0.950 . S
C702 C701 1.398 . S
C702 C703 1.391 . S
C703 H691 0.950 . S
C703 C699 1.393 . S
C703 C702 1.391 . S
H704 C712 0.950 . S
H705 C717 0.950 . S
H706 C714 0.950 . S
H707 C716 0.950 1_556 S
H708 C718 0.950 . S
H709 C720 0.950 . S
H710 C722 0.950 1_554 S
H711 C723 0.950 . S
C712 H704 0.950 . S
C712 C713 1.386 1_655 S
C712 C714 1.391 . S
C713 C712 1.386 1_455 S
C713 C717 1.393 . S
C714 H706 0.950 . S
C714 C712 1.391 . S
C714 C715 1.400 1_655 S
C715 C714 1.400 1_455 S
C715 C716 1.398 . S
C715 C721 1.491 1_454 S
C716 H707 0.950 1_554 S
C716 C715 1.398 . S
C716 C717 1.391 . S
C717 H705 0.950 . S
C717 C713 1.393 . S
C717 C716 1.391 . S
C718 H708 0.950 . S
C718 C719 1.386 1_455 S
C718 C720 1.391 . S
C719 C718 1.386 1_655 S
C719 C723 1.393 . S
C720 H709 0.950 . S
C720 C718 1.391 . S
C720 C721 1.400 1_455 S
C721 C715 1.491 1_656 S
C721 C720 1.400 1_655 S
C721 C722 1.398 . S
C722 H710 0.950 1_556 S
C722 C721 1.398 . S
C722 C723 1.391 . S
C723 H711 0.950 . S
C723 C719 1.393 . S
C723 C722 1.391 . S
H724 C732 0.950 . S
H725 C737 0.950 . S
H726 C734 0.950 1_554 S
H727 C736 0.950 1_655 S
H728 C738 0.950 . S
H729 C740 0.950 1_556 S
H730 C742 0.950 1_455 S
H731 C743 0.950 . S
C732 H724 0.950 . S
C732 C733 1.386 1_545 S
C732 C734 1.391 . S
C733 C732 1.386 1_565 S
C733 C737 1.393 . S
C734 H726 0.950 1_556 S
C734 C732 1.391 . S
C734 C735 1.400 1_545 S
C735 C734 1.400 1_565 S
C735 C736 1.398 . S
C735 C741 1.491 1_466 S
C736 H727 0.950 1_455 S
C736 C735 1.398 . S
C736 C737 1.391 . S
C737 H725 0.950 . S
C737 C733 1.393 . S
C737 C736 1.391 . S
C738 H728 0.950 . S
C738 C739 1.386 1_565 S
C738 C740 1.391 . S
C739 C738 1.386 1_545 S
C739 C743 1.393 . S
C740 H729 0.950 1_554 S
C740 C738 1.391 . S
C740 C741 1.400 1_565 S
C741 C735 1.491 1_644 S
C741 C740 1.400 1_545 S
C741 C742 1.398 . S
C742 H730 0.950 1_655 S
C742 C741 1.398 . S
C742 C743 1.391 . S
C743 H731 0.950 . S
C743 C739 1.393 . S
C743 C742 1.391 . S
H744 C752 0.950 . S
H745 C757 0.950 . S
H746 C754 0.950 1_545 S
H747 C756 0.950 . S
H748 C758 0.950 . S
H749 C760 0.950 1_565 S
H750 C762 0.950 . S
H751 C763 0.950 . S
C752 H744 0.950 . S
C752 C753 1.386 . S
C752 C754 1.391 . S
C753 C752 1.386 . S
C753 C757 1.393 . S
C754 H746 0.950 1_565 S
C754 C752 1.391 . S
C754 C755 1.400 . S
C755 C754 1.400 . S
C755 C756 1.398 1_554 S
C755 C761 1.491 1_564 S
C756 H747 0.950 . S
C756 C755 1.398 1_556 S
C756 C757 1.391 1_556 S
C757 H745 0.950 . S
C757 C753 1.393 . S
C757 C756 1.391 1_554 S
C758 H748 0.950 . S
C758 C759 1.386 . S
C758 C760 1.391 . S
C759 C758 1.386 . S
C759 C763 1.393 . S
C760 H749 0.950 1_545 S
C760 C758 1.391 . S
C760 C761 1.400 . S
C761 C755 1.491 1_546 S
C761 C760 1.400 . S
C761 C762 1.398 1_556 S
C762 H750 0.950 . S
C762 C761 1.398 1_554 S
C762 C763 1.391 1_554 S
C763 H751 0.950 . S
C763 C759 1.393 . S
C763 C762 1.391 1_556 S
H764 C772 0.950 . S
H765 C777 0.950 . S
H766 C774 0.950 . S
H767 C776 0.950 . S
H768 C778 0.950 . S
H769 C780 0.950 . S
H770 C782 0.950 . S
H771 C783 0.950 . S
C772 H764 0.950 . S
C772 C773 1.386 . S
C772 C774 1.391 . S
C773 C772 1.386 . S
C773 C777 1.393 . S
C774 H766 0.950 . S
C774 C772 1.391 . S
C774 C775 1.400 . S
C775 C774 1.400 . S
C775 C776 1.398 1_556 S
C775 C781 1.491 1_556 S
C776 H767 0.950 . S
C776 C775 1.398 1_554 S
C776 C777 1.391 1_554 S
C777 H765 0.950 . S
C777 C773 1.393 . S
C777 C776 1.391 1_556 S
C778 H768 0.950 . S
C778 C779 1.386 . S
C778 C780 1.391 . S
C779 C778 1.386 . S
C779 C783 1.393 . S
C780 H769 0.950 . S
C780 C778 1.391 . S
C780 C781 1.400 . S
C781 C775 1.491 1_554 S
C781 C780 1.400 . S
C781 C782 1.398 1_554 S
C782 H770 0.950 . S
C782 C781 1.398 1_556 S
C782 C783 1.391 1_556 S
C783 H771 0.950 . S
C783 C779 1.393 . S
C783 C782 1.391 1_554 S
H784 C792 0.950 . S
H785 C797 0.950 . S
H786 C794 0.950 . S
H787 C796 0.950 1_545 S
H788 C798 0.950 . S
H789 C800 0.950 . S
H790 C802 0.950 1_565 S
H791 C803 0.950 . S
C792 H784 0.950 . S
C792 C793 1.386 . S
C792 C794 1.391 . S
C793 C792 1.386 . S
C793 C797 1.393 1_455 S
C794 H786 0.950 . S
C794 C792 1.391 . S
C794 C795 1.400 . S
C795 C794 1.400 . S
C795 C796 1.398 1_455 S
C795 C801 1.491 1_465 S
C796 H787 0.950 1_565 S
C796 C795 1.398 1_655 S
C796 C797 1.391 . S
C797 H785 0.950 . S
C797 C793 1.393 1_655 S
C797 C796 1.391 . S
C798 H788 0.950 . S
C798 C799 1.386 . S
C798 C800 1.391 . S
C799 C798 1.386 . S
C799 C803 1.393 1_655 S
C800 H789 0.950 . S
C800 C798 1.391 . S
C800 C801 1.400 . S
C801 C795 1.491 1_645 S
C801 C800 1.400 . S
C801 C802 1.398 1_655 S
C802 H790 0.950 1_545 S
C802 C801 1.398 1_455 S
C802 C803 1.391 . S
C803 H791 0.950 . S
C803 C799 1.393 1_455 S
C803 C802 1.391 . S
H804 C812 0.950 . S
H805 C817 0.950 . S
H806 C814 0.950 . S
H807 C816 0.950 . S
H808 C818 0.950 . S
H809 C820 0.950 . S
H810 C822 0.950 . S
H811 C823 0.950 . S
C812 H804 0.950 . S
C812 C813 1.386 . S
C812 C814 1.391 . S
C813 C812 1.386 . S
C813 C817 1.393 1_545 S
C814 H806 0.950 . S
C814 C812 1.391 . S
C814 C815 1.400 . S
C815 C814 1.400 . S
C815 C816 1.398 1_545 S
C815 C821 1.491 1_545 S
C816 H807 0.950 . S
C816 C815 1.398 1_565 S
C816 C817 1.391 . S
C817 H805 0.950 . S
C817 C813 1.393 1_565 S
C817 C816 1.391 . S
C818 H808 0.950 . S
C818 C819 1.386 . S
C818 C820 1.391 . S
C819 C818 1.386 . S
C819 C823 1.393 1_565 S
C820 H809 0.950 . S
C820 C818 1.391 . S
C820 C821 1.400 . S
C821 C815 1.491 1_565 S
C821 C820 1.400 . S
C821 C822 1.398 1_565 S
C822 H810 0.950 . S
C822 C821 1.398 1_545 S
C822 C823 1.391 . S
C823 H811 0.950 . S
C823 C819 1.393 1_545 S
C823 C822 1.391 . S
H824 C832 0.950 . S
H825 C837 0.950 . S
H826 C834 0.950 . S
H827 C836 0.950 . S
H828 C838 0.950 . S
H829 C840 0.950 . S
H830 C842 0.950 . S
H831 C843 0.950 . S
C832 H824 0.950 . S
C832 C833 1.386 . S
C832 C834 1.391 . S
C833 C832 1.386 . S
C833 C837 1.393 . S
C834 H826 0.950 . S
C834 C832 1.391 . S
C834 C835 1.400 . S
C835 C834 1.400 . S
C835 C836 1.398 . S
C835 C841 1.491 . S
C836 H827 0.950 . S
C836 C835 1.398 . S
C836 C837 1.391 . S
C837 H825 0.950 . S
C837 C833 1.393 . S
C837 C836 1.391 . S
C838 H828 0.950 . S
C838 C839 1.386 . S
C838 C840 1.391 . S
C839 C838 1.386 . S
C839 C843 1.393 . S
C840 H829 0.950 . S
C840 C838 1.391 . S
C840 C841 1.400 . S
C841 C835 1.491 . S
C841 C840 1.400 . S
C841 C842 1.398 . S
C842 H830 0.950 . S
C842 C841 1.398 . S
C842 C843 1.391 . S
C843 H831 0.950 . S
C843 C839 1.393 . S
C843 C842 1.391 . S
H844 C852 0.950 . S
H845 C857 0.950 . S
H846 C854 0.950 . S
H847 C856 0.950 1_455 S
H848 C858 0.950 . S
H849 C860 0.950 . S
H850 C862 0.950 1_655 S
H851 C863 0.950 . S
C852 H844 0.950 . S
C852 C853 1.386 . S
C852 C854 1.391 . S
C853 C852 1.386 . S
C853 C857 1.393 . S
C854 H846 0.950 . S
C854 C852 1.391 . S
C854 C855 1.400 . S
C855 C854 1.400 . S
C855 C856 1.398 . S
C855 C861 1.491 1_655 S
C856 H847 0.950 1_655 S
C856 C855 1.398 . S
C856 C857 1.391 . S
C857 H845 0.950 . S
C857 C853 1.393 . S
C857 C856 1.391 . S
C858 H848 0.950 . S
C858 C859 1.386 . S
C858 C860 1.391 . S
C859 C858 1.386 . S
C859 C863 1.393 . S
C860 H849 0.950 . S
C860 C858 1.391 . S
C860 C861 1.400 . S
C861 C855 1.491 1_455 S
C861 C860 1.400 . S
C861 C862 1.398 . S
C862 H850 0.950 1_455 S
C862 C861 1.398 . S
C862 C863 1.391 . S
C863 H851 0.950 . S
C863 C859 1.393 . S
C863 C862 1.391 . S
C233 C3 1.644 . S
C239 C31 1.646 . S
C253 C17 1.649 . S
C259 C45 1.647 . S
C273 C59 1.644 . S
C279 C87 1.645 . S
C293 C101 1.660 . S
C299 C73 1.657 . S
C313 C115 1.647 . S
C319 C143 1.650 . S
C333 C157 1.644 . S
C339 C129 1.645 . S
C353 C199 1.662 . S
C359 C171 1.660 . S
C373 C213 1.660 . S
C379 C185 1.657 . S
C393 C105 1.144 . S
C399 C7 1.144 . S
C413 C21 1.145 . S
C419 C63 1.143 . S
C433 C77 1.153 . S
C439 C35 1.162 . S
C453 C49 1.147 . S
C459 C91 1.143 . S
C473 C217 1.159 . S
C479 C119 1.168 . S
C493 C133 1.160 . S
C499 C175 1.151 . S
C513 C147 1.146 . S
C519 C189 1.143 . S
C533 C203 1.144 . S
C539 C161 1.144 . S
C553 C9 0.741 . S
C559 C65 0.785 . S
C573 C23 0.801 . S
C579 C79 0.763 . S
C593 C93 0.728 . S
C599 C37 0.722 . S
C613 C51 0.791 . S
C619 C107 0.748 . S
C633 C177 0.793 . S
C639 C121 0.809 . S
C653 C191 0.749 . S
C659 C135 0.792 . S
C673 C149 0.719 . S
C679 C205 0.745 . S
C693 C163 0.723 . S
C699 C219 0.727 . S
C713 C8 1.739 . S
C719 C120 1.739 . S
C733 C134 1.723 . S
C739 C22 1.723 . S
C753 C36 1.737 . S
C759 C148 1.737 . S
C773 C162 1.729 . S
C779 C50 1.729 . S
C793 C64 1.719 . S
C799 C176 1.719 . S
C813 C78 1.718 . S
C819 C190 1.718 . S
C833 C204 1.739 . S
C839 C92 1.739 . S
C853 C106 1.722 . S
C859 C218 1.722 . S
