# Generated by pormake.
# Topology ung, (4)-cn, num edge types: 1
# Building blocks:
#     Node 0, Type 0, BuildingBlock: KUFVIS_clean_sbu_0, # of connection points: 4
#     Node 1, Type 0, BuildingBlock: KUFVIS_clean_sbu_0, # of connection points: 4
#     Node 2, Type 0, BuildingBlock: KUFVIS_clean_sbu_0, # of connection points: 4
#     Node 3, Type 0, BuildingBlock: KUFVIS_clean_sbu_0, # of connection points: 4
#     Node 4, Type 0, BuildingBlock: KUFVIS_clean_sbu_0, # of connection points: 4
#     Node 5, Type 0, BuildingBlock: KUFVIS_clean_sbu_0, # of connection points: 4
#     Node 6, Type 0, BuildingBlock: KUFVIS_clean_sbu_0, # of connection points: 4
#     Node 7, Type 0, BuildingBlock: KUFVIS_clean_sbu_0, # of connection points: 4
#     Node 8, Type 0, BuildingBlock: KUFVIS_clean_sbu_0, # of connection points: 4
#     Node 9, Type 0, BuildingBlock: KUFVIS_clean_sbu_0, # of connection points: 4
#     Node 10, Type 0, BuildingBlock: KUFVIS_clean_sbu_0, # of connection points: 4
#     Node 11, Type 0, BuildingBlock: KUFVIS_clean_sbu_0, # of connection points: 4
#     Node 12, Type 0, BuildingBlock: KUFVIS_clean_sbu_0, # of connection points: 4
#     Node 13, Type 0, BuildingBlock: KUFVIS_clean_sbu_0, # of connection points: 4
#     Node 14, Type 0, BuildingBlock: KUFVIS_clean_sbu_0, # of connection points: 4
#     Node 15, Type 0, BuildingBlock: KUFVIS_clean_sbu_0, # of connection points: 4
#     Node 16, Type 0, BuildingBlock: KUFVIS_clean_sbu_0, # of connection points: 4
#     Node 17, Type 0, BuildingBlock: KUFVIS_clean_sbu_0, # of connection points: 4
#     Edge 18, Type (0, 0), BuildingBlock: XUDNAN_clean_linker_2, # of connection points: 2
#     Edge 19, Type (0, 0), BuildingBlock: XUDNAN_clean_linker_2, # of connection points: 2
#     Edge 20, Type (0, 0), BuildingBlock: XUDNAN_clean_linker_2, # of connection points: 2
#     Edge 21, Type (0, 0), BuildingBlock: XUDNAN_clean_linker_2, # of connection points: 2
#     Edge 22, Type (0, 0), BuildingBlock: XUDNAN_clean_linker_2, # of connection points: 2
#     Edge 23, Type (0, 0), BuildingBlock: XUDNAN_clean_linker_2, # of connection points: 2
#     Edge 24, Type (0, 0), BuildingBlock: XUDNAN_clean_linker_2, # of connection points: 2
#     Edge 25, Type (0, 0), BuildingBlock: XUDNAN_clean_linker_2, # of connection points: 2
#     Edge 26, Type (0, 0), BuildingBlock: XUDNAN_clean_linker_2, # of connection points: 2
#     Edge 27, Type (0, 0), BuildingBlock: XUDNAN_clean_linker_2, # of connection points: 2
#     Edge 28, Type (0, 0), BuildingBlock: XUDNAN_clean_linker_2, # of connection points: 2
#     Edge 29, Type (0, 0), BuildingBlock: XUDNAN_clean_linker_2, # of connection points: 2
#     Edge 30, Type (0, 0), BuildingBlock: XUDNAN_clean_linker_2, # of connection points: 2
#     Edge 31, Type (0, 0), BuildingBlock: XUDNAN_clean_linker_2, # of connection points: 2
#     Edge 32, Type (0, 0), BuildingBlock: XUDNAN_clean_linker_2, # of connection points: 2
#     Edge 33, Type (0, 0), BuildingBlock: XUDNAN_clean_linker_2, # of connection points: 2
#     Edge 34, Type (0, 0), BuildingBlock: XUDNAN_clean_linker_2, # of connection points: 2
#     Edge 35, Type (0, 0), BuildingBlock: XUDNAN_clean_linker_2, # of connection points: 2
#     Edge 36, Type (0, 0), BuildingBlock: XUDNAN_clean_linker_2, # of connection points: 2
#     Edge 37, Type (0, 0), BuildingBlock: XUDNAN_clean_linker_2, # of connection points: 2
#     Edge 38, Type (0, 0), BuildingBlock: XUDNAN_clean_linker_2, # of connection points: 2
#     Edge 39, Type (0, 0), BuildingBlock: XUDNAN_clean_linker_2, # of connection points: 2
#     Edge 40, Type (0, 0), BuildingBlock: XUDNAN_clean_linker_2, # of connection points: 2
#     Edge 41, Type (0, 0), BuildingBlock: XUDNAN_clean_linker_2, # of connection points: 2
#     Edge 42, Type (0, 0), BuildingBlock: XUDNAN_clean_linker_2, # of connection points: 2
#     Edge 43, Type (0, 0), BuildingBlock: XUDNAN_clean_linker_2, # of connection points: 2
#     Edge 44, Type (0, 0), BuildingBlock: XUDNAN_clean_linker_2, # of connection points: 2
#     Edge 45, Type (0, 0), BuildingBlock: XUDNAN_clean_linker_2, # of connection points: 2
#     Edge 46, Type (0, 0), BuildingBlock: XUDNAN_clean_linker_2, # of connection points: 2
#     Edge 47, Type (0, 0), BuildingBlock: XUDNAN_clean_linker_2, # of connection points: 2
#     Edge 48, Type (0, 0), BuildingBlock: XUDNAN_clean_linker_2, # of connection points: 2
#     Edge 49, Type (0, 0), BuildingBlock: XUDNAN_clean_linker_2, # of connection points: 2
#     Edge 50, Type (0, 0), BuildingBlock: XUDNAN_clean_linker_2, # of connection points: 2
#     Edge 51, Type (0, 0), BuildingBlock: XUDNAN_clean_linker_2, # of connection points: 2
#     Edge 52, Type (0, 0), BuildingBlock: XUDNAN_clean_linker_2, # of connection points: 2
#     Edge 53, Type (0, 0), BuildingBlock: XUDNAN_clean_linker_2, # of connection points: 2
# Relax obj value: 0.111
# Max RMSD: 0.233
# Mean RMSD: 0.223
data_MOF--net-ung--node1-KUFVIS_clean_sbu_0--edge1-XUDNAN_clean_linker_2
_symmetry_space_group_name_H-M    P1
_symmetry_Int_Tables_number       1
_symmetry_cell_setting            triclinic
loop_
_symmetry_equiv_pos_as_xyz
'x, y, z'
_cell_length_a     72.205864
_cell_length_b     73.276598
_cell_length_c     22.246262
_cell_angle_alpha  89.97476
_cell_angle_beta   89.438161
_cell_angle_gamma 120.53634
loop_
_atom_site_label
_atom_site_type_symbol
_atom_site_fract_x
_atom_site_fract_y
_atom_site_fract_z
_atom_type_partial_charge
Mn0 Mn 0.06713 0.63198 0.2219 0.0
Mn1 Mn 0.01747 0.58856 0.21857 0.0
C2 C 0.04002 0.63354 0.17236 0.0
C3 C 0.09188 0.66167 0.27559 0.0
C4 C 0.0544 0.59453 0.13806 0.0
O5 O 0.06837 0.61272 0.28475 0.0
O6 O 0.03411 0.58577 0.28564 0.0
C7 C 0.00068 0.5949 0.33368 0.0
N8 N -0.00106 0.5921 0.27305 0.0
C9 C 0.96618 0.59315 0.27231 0.0
C10 C 0.96753 0.59589 0.33482 0.0
C11 C 0.98489 0.59681 0.3656 0.0
C12 C 0.98234 0.59123 0.24297 0.0
H13 H 0.01405 0.59569 0.35743 0.0
C14 C 0.05338 0.59515 0.30554 0.0
O15 O 0.09829 0.65319 0.23522 0.0
O16 O 0.07133 0.65299 0.28399 0.0
N17 N -0.00063 0.58878 0.15661 0.0
C18 C 0.00099 0.58707 0.09601 0.0
C19 C 0.98516 0.58646 0.05849 0.0
C20 C 0.96777 0.58744 0.08361 0.0
C21 C 0.96629 0.58888 0.14614 0.0
C22 C 0.98245 0.58925 0.18134 0.0
H23 H 0.01436 0.58643 0.07637 0.0
O24 O 0.06003 0.64761 0.16187 0.0
O25 O 0.03642 0.6194 0.21347 0.0
O26 O 0.0684 0.61314 0.15542 0.0
O27 O 0.03536 0.58398 0.16014 0.0
C28 C 0.94966 0.59043 0.17483 0.0
C29 C 0.94962 0.5926 0.23785 0.0
H30 H 0.95543 0.59748 0.35958 0.0
H31 H 0.9861 0.59903 0.4138 0.0
H32 H 0.98643 0.58535 0.01028 0.0
H33 H 0.95574 0.58723 0.05444 0.0
H34 H 0.93698 0.59027 0.14878 0.0
H35 H 0.9369 0.59405 0.25931 0.0
Mn36 Mn 0.50938 0.48938 0.24504 0.0
Mn37 Mn 0.49877 0.52923 0.24605 0.0
C38 C 0.48414 0.48809 0.31149 0.0
C39 C 0.50241 0.458 0.19852 0.0
C40 C 0.53725 0.53169 0.30838 0.0
O41 O 0.52405 0.50581 0.16943 0.0
O42 O 0.51405 0.53023 0.17 0.0
C43 C 0.46721 0.51309 0.14753 0.0
N44 N 0.47217 0.5195 0.20557 0.0
C45 C 0.43663 0.51341 0.22504 0.0
C46 C 0.43116 0.50684 0.16539 0.0
C47 C 0.44649 0.5066 0.12655 0.0
C48 C 0.45742 0.51941 0.24362 0.0
H49 H 0.47896 0.5129 0.11753 0.0
C50 C 0.52368 0.52141 0.14589 0.0
O51 O 0.52024 0.46946 0.22745 0.0
O52 O 0.48902 0.46479 0.19734 0.0
N53 N 0.48403 0.53083 0.31604 0.0
C54 C 0.49229 0.53888 0.37105 0.0
C55 C 0.47913 0.54055 0.41498 0.0
C56 C 0.45777 0.53435 0.40152 0.0
C57 C 0.4499 0.52693 0.34385 0.0
C58 C 0.46378 0.52566 0.30188 0.0
H59 H 0.5087 0.54378 0.38163 0.0
O60 O 0.49203 0.47583 0.3191 0.0
O61 O 0.49035 0.49985 0.26324 0.0
O62 O 0.53331 0.51298 0.29565 0.0
O63 O 0.52578 0.53937 0.29029 0.0
C64 C 0.42896 0.52114 0.32602 0.0
C65 C 0.42231 0.51433 0.26669 0.0
H66 H 0.41523 0.50194 0.14895 0.0
H67 H 0.44237 0.50149 0.0805 0.0
H68 H 0.48544 0.54658 0.45911 0.0
H69 H 0.44765 0.5356 0.43555 0.0
H70 H 0.41784 0.52188 0.35755 0.0
H71 H 0.40614 0.50983 0.25359 0.0
Mn72 Mn 0.65454 0.07374 0.27893 0.0
Mn73 Mn 0.67269 0.12608 0.27594 0.0
C74 C 0.6851 0.09604 0.22347 0.0
C75 C 0.65317 0.0454 0.32988 0.0
C76 C 0.63355 0.09354 0.20741 0.0
O77 O 0.63858 0.07814 0.34799 0.0
O78 O 0.65585 0.11378 0.35118 0.0
C79 C 0.70295 0.14032 0.37761 0.0
N80 N 0.69909 0.14145 0.31834 0.0
C81 C 0.73582 0.16879 0.30021 0.0
C82 C 0.74019 0.168 0.36114 0.0
C83 C 0.72369 0.15366 0.39995 0.0
C84 C 0.71485 0.15513 0.28057 0.0
H85 H 0.6903 0.1293 0.4075 0.0
C86 C 0.64243 0.09542 0.37262 0.0
O87 O 0.63798 0.04243 0.29326 0.0
O88 O 0.66907 0.06457 0.33631 0.0
N89 N 0.6893 0.13986 0.20543 0.0
C90 C 0.68271 0.13773 0.14734 0.0
C91 C 0.69733 0.15069 0.10261 0.0
C92 C 0.71849 0.16575 0.11812 0.0
C93 C 0.72496 0.16754 0.17807 0.0
C94 C 0.70962 0.15436 0.22082 0.0
H95 H 0.66642 0.1263 0.13518 0.0
O96 O 0.67466 0.07582 0.21301 0.0
O97 O 0.67759 0.10234 0.26692 0.0
O98 O 0.63552 0.07749 0.21829 0.0
O99 O 0.64579 0.11183 0.22984 0.0
C100 C 0.74606 0.18176 0.197 0.0
C101 C 0.75153 0.18232 0.25798 0.0
H102 H 0.75618 0.17821 0.37851 0.0
H103 H 0.72696 0.1529 0.44697 0.0
H104 H 0.69229 0.14915 0.05632 0.0
H105 H 0.72959 0.17578 0.08352 0.0
H106 H 0.75822 0.19216 0.16492 0.0
H107 H 0.76789 0.19309 0.2718 0.0
Mn108 Mn 0.07323 0.48665 0.72248 0.0
Mn109 Mn 0.02235 0.47688 0.71873 0.0
C110 C 0.04707 0.45663 0.6752 0.0
C111 C 0.09865 0.48317 0.77764 0.0
C112 C 0.05823 0.50908 0.63726 0.0
O113 O 0.07308 0.50684 0.78411 0.0
O114 O 0.03805 0.49705 0.78522 0.0
C115 C 0.00661 0.4539 0.83455 0.0
N116 N 0.00488 0.45446 0.77376 0.0
C117 C 0.97411 0.41914 0.77348 0.0
C118 C 0.97547 0.41824 0.83615 0.0
C119 C 0.99181 0.43569 0.86678 0.0
C120 C 0.98923 0.43777 0.74383 0.0
H121 H 0.01922 0.46724 0.8582 0.0
C122 C 0.0573 0.50814 0.80481 0.0
O123 O 0.10474 0.49793 0.73685 0.0
O124 O 0.07818 0.47087 0.78577 0.0
N125 N 0.00529 0.45757 0.65711 0.0
C126 C 0.00688 0.46058 0.59639 0.0
C127 C 0.99194 0.44448 0.55906 0.0
C128 C 0.97553 0.42549 0.58453 0.0
C129 C 0.97419 0.42276 0.64709 0.0
C130 C 0.98935 0.43948 0.68209 0.0
H131 H 0.01952 0.47508 0.57652 0.0
O132 O 0.06726 0.46371 0.66385 0.0
O133 O 0.04291 0.46708 0.71501 0.0
O134 O 0.07314 0.50577 0.65473 0.0
O135 O 0.0392 0.49959 0.65971 0.0
C136 C 0.95862 0.40398 0.67602 0.0
C137 C 0.9586 0.40216 0.73917 0.0
H138 H 0.96417 0.40418 0.86114 0.0
H139 H 0.99303 0.43507 0.9151 0.0
H140 H 0.99313 0.44665 0.51077 0.0
H141 H 0.96411 0.4131 0.55561 0.0
H142 H 0.94675 0.39075 0.65006 0.0
H143 H 0.94672 0.38754 0.76085 0.0
Mn144 Mn 0.64965 0.6427 0.74258 0.0
Mn145 Mn 0.60498 0.64617 0.73327 0.0
C146 C 0.64775 0.66902 0.79349 0.0
C147 C 0.6826 0.65089 0.70177 0.0
C148 C 0.60813 0.614 0.81191 0.0
O149 O 0.63397 0.62369 0.67253 0.0
O150 O 0.60606 0.62914 0.66462 0.0
C151 C 0.61622 0.67214 0.62233 0.0
N152 N 0.61075 0.6694 0.68179 0.0
C153 C 0.61239 0.703 0.68597 0.0
C154 C 0.61788 0.70611 0.62466 0.0
C155 C 0.61982 0.69061 0.59274 0.0
C156 C 0.60884 0.6842 0.71294 0.0
H157 H 0.6179 0.66035 0.59773 0.0
C158 C 0.61709 0.62087 0.64653 0.0
O159 O 0.67236 0.63489 0.7383 0.0
O160 O 0.6737 0.6619 0.68884 0.0
N161 N 0.60203 0.66236 0.79622 0.0
C162 C 0.59751 0.65736 0.85565 0.0
C163 C 0.59544 0.67142 0.89415 0.0
C164 C 0.59799 0.69043 0.87119 0.0
C165 C 0.60243 0.69514 0.80979 0.0
C166 C 0.60406 0.6804 0.77344 0.0
H167 H 0.59578 0.64291 0.87372 0.0
O168 O 0.66168 0.66371 0.80862 0.0
O169 O 0.6358 0.65923 0.74753 0.0
O170 O 0.62783 0.62025 0.80047 0.0
O171 O 0.59799 0.6223 0.7885 0.0
C172 C 0.60567 0.71405 0.78344 0.0
C173 C 0.61067 0.71799 0.72159 0.0
H174 H 0.6208 0.7204 0.60176 0.0
H175 H 0.62417 0.69294 0.5455 0.0
H176 H 0.59207 0.6677 0.94151 0.0
H177 H 0.59663 0.70135 0.90116 0.0
H178 H 0.6046 0.72578 0.81047 0.0
H179 H 0.61336 0.73268 0.70198 0.0
Mn180 Mn 0.50913 0.07037 0.77611 0.0
Mn181 Mn 0.51121 0.02554 0.78941 0.0
C182 C 0.48089 0.04118 0.82097 0.0
C183 C 0.50191 0.09186 0.7153 0.0
C184 C 0.5349 0.06334 0.87194 0.0
O185 O 0.53384 0.07549 0.72214 0.0
O186 O 0.53209 0.04397 0.72554 0.0
C187 C 0.49339 0.00699 0.67082 0.0
N188 N 0.49245 0.00543 0.7319 0.0
C189 C 0.46079 0.97075 0.72861 0.0
C190 C 0.46151 0.97191 0.66563 0.0
C191 C 0.47786 0.99013 0.63663 0.0
C192 C 0.47676 0.98801 0.76027 0.0
H193 H 0.50585 0.02102 0.64839 0.0
C194 C 0.54025 0.06299 0.70576 0.0
O195 O 0.51527 0.09979 0.75963 0.0
O196 O 0.49289 0.07163 0.70671 0.0
N197 N 0.49203 0.00605 0.84892 0.0
C198 C 0.49331 0.00766 0.90997 0.0
C199 C 0.47789 0.99092 0.94573 0.0
C200 C 0.46148 0.97261 0.91844 0.0
C201 C 0.46077 0.97111 0.85557 0.0
C202 C 0.47667 0.98824 0.82225 0.0
H203 H 0.50587 0.0217 0.93125 0.0
O204 O 0.48323 0.05981 0.82817 0.0
O205 O 0.49465 0.04002 0.78515 0.0
O206 O 0.52773 0.07462 0.84968 0.0
O207 O 0.53035 0.04525 0.85129 0.0
C208 C 0.4447 0.95345 0.82464 0.0
C209 C 0.44469 0.95329 0.76121 0.0
H210 H 0.4495 0.95898 0.6391 0.0
H211 H 0.47845 0.99118 0.58805 0.0
H212 H 0.47861 0.99216 0.99422 0.0
H213 H 0.44948 0.95983 0.94618 0.0
H214 H 0.43213 0.94001 0.84919 0.0
H215 H 0.43212 0.93972 0.73794 0.0
Mn216 Mn 0.72255 0.95701 0.61057 0.0
Mn217 Mn 0.66974 0.92064 0.60624 0.0
C218 C 0.69993 0.96385 0.55469 0.0
C219 C 0.74999 0.98536 0.66256 0.0
C220 C 0.70406 0.91662 0.53701 0.0
O221 O 0.71827 0.93705 0.67938 0.0
O222 O 0.68222 0.91611 0.68052 0.0
C223 C 0.65419 0.93413 0.71105 0.0
N224 N 0.65346 0.93 0.65117 0.0
C225 C 0.62579 0.93859 0.63623 0.0
C226 C 0.62612 0.94278 0.69783 0.0
C227 C 0.64041 0.94058 0.73536 0.0
C228 C 0.63973 0.93201 0.61466 0.0
H229 H 0.66524 0.93256 0.73997 0.0
C230 C 0.70083 0.92236 0.70274 0.0
O231 O 0.75429 0.97399 0.62648 0.0
O232 O 0.73004 0.98019 0.66775 0.0
N233 N 0.65579 0.92346 0.53707 0.0
C234 C 0.65871 0.92047 0.47806 0.0
C235 C 0.64636 0.92305 0.4342 0.0
C236 C 0.63106 0.92855 0.45145 0.0
C237 C 0.62827 0.93144 0.51245 0.0
C238 C 0.64094 0.92852 0.55421 0.0
H239 H 0.67051 0.91634 0.4645 0.0
O240 O 0.72053 0.97441 0.54463 0.0
O241 O 0.69335 0.94992 0.59797 0.0
O242 O 0.72013 0.93477 0.54992 0.0
O243 O 0.68506 0.9098 0.55768 0.0
C244 C 0.61381 0.93764 0.53331 0.0
C245 C 0.61256 0.9412 0.59515 0.0
H246 H 0.61566 0.94794 0.71667 0.0
H247 H 0.64085 0.94391 0.78289 0.0
H248 H 0.64869 0.92092 0.38716 0.0
H249 H 0.62171 0.93072 0.41743 0.0
H250 H 0.60384 0.94007 0.50205 0.0
H251 H 0.60163 0.9463 0.61051 0.0
Mn252 Mn 0.16925 0.8175 0.58414 0.0
Mn253 Mn 0.16141 0.85911 0.59013 0.0
C254 C 0.14406 0.81653 0.64968 0.0
C255 C 0.1614 0.78647 0.53395 0.0
C256 C 0.19769 0.85809 0.6548 0.0
O257 O 0.18524 0.83474 0.5111 0.0
O258 O 0.17794 0.86104 0.51555 0.0
C259 C 0.13213 0.847 0.48654 0.0
N260 N 0.13605 0.85185 0.54588 0.0
C261 C 0.10133 0.84833 0.56068 0.0
C262 C 0.09695 0.84338 0.49967 0.0
C263 C 0.11238 0.84262 0.46251 0.0
C264 C 0.12115 0.85222 0.58227 0.0
H265 H 0.144 0.84649 0.45778 0.0
C266 C 0.18673 0.85158 0.49032 0.0
O267 O 0.17899 0.79685 0.56469 0.0
O268 O 0.1487 0.79408 0.53304 0.0
N269 N 0.14573 0.85998 0.65893 0.0
C270 C 0.15273 0.86572 0.7163 0.0
C271 C 0.13914 0.86711 0.75931 0.0
C272 C 0.11873 0.86316 0.74255 0.0
C273 C 0.11221 0.8581 0.68274 0.0
C274 C 0.12636 0.85673 0.64199 0.0
H275 H 0.16845 0.86894 0.7294 0.0
O276 O 0.15097 0.8034 0.65594 0.0
O277 O 0.15112 0.82901 0.60282 0.0
O278 O 0.19323 0.83952 0.63835 0.0
O279 O 0.18712 0.86688 0.63804 0.0
C280 C 0.09236 0.85467 0.66174 0.0
C281 C 0.08686 0.84967 0.60084 0.0
H282 H 0.0818 0.84015 0.48087 0.0
H283 H 0.10911 0.83877 0.4154 0.0
H284 H 0.14441 0.87128 0.80522 0.0
H285 H 0.10831 0.8643 0.77582 0.0
H286 H 0.08112 0.85572 0.6921 0.0
H287 H 0.07145 0.84685 0.5854 0.0
Mn288 Mn 0.32074 0.39941 0.58693 0.0
Mn289 Mn 0.27768 0.34985 0.58161 0.0
C290 C 0.32089 0.37283 0.64146 0.0
C291 C 0.35254 0.42522 0.54291 0.0
C292 C 0.2793 0.38452 0.65975 0.0
O293 O 0.30377 0.40112 0.51774 0.0
O294 O 0.27689 0.36726 0.51369 0.0
C295 C 0.29033 0.33701 0.46961 0.0
N296 N 0.28499 0.33376 0.52914 0.0
C297 C 0.28895 0.30309 0.53153 0.0
C298 C 0.29439 0.30604 0.47019 0.0
C299 C 0.29515 0.32312 0.43916 0.0
C300 C 0.28455 0.31759 0.55964 0.0
H301 H 0.29094 0.35011 0.44559 0.0
C302 C 0.28677 0.3864 0.49412 0.0
O303 O 0.34186 0.43034 0.57971 0.0
O304 O 0.3448 0.40529 0.5318 0.0
N305 N 0.27579 0.33078 0.64349 0.0
C306 C 0.26893 0.32935 0.70154 0.0
C307 C 0.26703 0.31296 0.73867 0.0
C308 C 0.27166 0.29789 0.71534 0.0
C309 C 0.27773 0.29913 0.65476 0.0
C310 C 0.27942 0.31586 0.61999 0.0
H311 H 0.26526 0.34081 0.71967 0.0
O312 O 0.33448 0.39252 0.65297 0.0
O313 O 0.30837 0.36915 0.59561 0.0
O314 O 0.29852 0.39887 0.64576 0.0
O315 O 0.26983 0.36578 0.63792 0.0
C316 C 0.28182 0.2842 0.62725 0.0
C317 C 0.28759 0.28627 0.56579 0.0
H318 H 0.298 0.29529 0.44646 0.0
H319 H 0.29938 0.32553 0.39184 0.0
H320 H 0.26203 0.31196 0.78516 0.0
H321 H 0.2702 0.28529 0.74409 0.0
H322 H 0.28059 0.27107 0.65295 0.0
H323 H 0.29084 0.27477 0.54527 0.0
Mn324 Mn 0.72899 0.81954 0.10065 0.0
Mn325 Mn 0.775 0.86634 0.11386 0.0
C326 C 0.7588 0.81963 0.13609 0.0
C327 C 0.70594 0.79293 0.03628 0.0
C328 C 0.73744 0.85035 0.20231 0.0
O329 O 0.7235 0.84031 0.05659 0.0
O330 O 0.75644 0.86941 0.05287 0.0
C331 C 0.79375 0.86927 0.99289 0.0
N332 N 0.79529 0.8689 0.05379 0.0
C333 C 0.83033 0.87266 0.04607 0.0
C334 C 0.8292 0.87326 0.98325 0.0
C335 C 0.81082 0.87152 0.95657 0.0
C336 C 0.81288 0.87052 0.07995 0.0
H337 H 0.77959 0.86781 0.97222 0.0
C338 C 0.73655 0.85902 0.03819 0.0
O339 O 0.69878 0.79645 0.08613 0.0
O340 O 0.72634 0.80447 0.02459 0.0
N341 N 0.79456 0.86589 0.17052 0.0
C342 C 0.79272 0.8641 0.23158 0.0
C343 C 0.80949 0.86489 0.26506 0.0
C344 C 0.82807 0.86775 0.23555 0.0
C345 C 0.82977 0.86994 0.17279 0.0
C346 C 0.81257 0.86912 0.1418 0.0
H347 H 0.77849 0.8619 0.25459 0.0
O348 O 0.73981 0.803 0.14246 0.0
O349 O 0.75991 0.83539 0.10559 0.0
O350 O 0.72611 0.83176 0.18059 0.0
O351 O 0.75518 0.86467 0.17862 0.0
C352 C 0.84764 0.8724 0.13965 0.0
C353 C 0.84791 0.87374 0.07633 0.0
H354 H 0.84228 0.87488 0.95507 0.0
H355 H 0.80978 0.87185 0.90812 0.0
H356 H 0.80806 0.86321 0.31348 0.0
H357 H 0.84087 0.86811 0.26148 0.0
H358 H 0.86114 0.87301 0.16235 0.0
H359 H 0.86163 0.87539 0.05132 0.0
Mn360 Mn 0.31884 0.96494 0.08229 0.0
Mn361 Mn 0.27798 0.97471 0.07629 0.0
C362 C 0.32199 0.99434 0.12969 0.0
C363 C 0.34899 0.96748 0.03665 0.0
C364 C 0.27789 0.94166 0.15867 0.0
O365 O 0.30028 0.9457 0.016 0.0
O366 O 0.27504 0.95498 0.0102 0.0
C367 C 0.2897 -0.00167 0.96096 0.0
N368 N 0.2854 0.99743 0.02099 0.0
C369 C 0.29081 0.03265 0.01952 0.0
C370 C 0.29515 0.0339 0.9576 0.0
C371 C 0.29462 0.01668 0.92823 0.0
C372 C 0.28589 0.01391 0.04971 0.0
H373 H 0.28942 0.98517 0.93826 0.0
C374 C 0.28374 0.94442 0.99202 0.0
O375 O 0.3379 0.95264 0.07591 0.0
O376 O 0.3428 0.98084 0.02464 0.0
N377 N 0.27876 0.99367 0.13675 0.0
C378 C 0.27511 0.99028 0.19705 0.0
C379 C 0.2754 0.00614 0.23318 0.0
C380 C 0.2794 0.02526 0.20696 0.0
C381 C 0.28295 0.02833 0.14478 0.0
C382 C 0.28219 0.01185 0.11093 0.0
H383 H 0.27216 0.97568 0.21752 0.0
O384 O 0.33431 0.98699 0.14456 0.0
O385 O 0.3086 0.98459 0.0863 0.0
O386 O 0.29662 0.94525 0.14444 0.0
O387 O 0.26928 0.95151 0.13544 0.0
C388 C 0.28755 0.04721 0.1152 0.0
C389 C 0.29152 0.04938 0.05264 0.0
H390 H 0.29906 0.04806 0.93225 0.0
H391 H 0.29806 0.01756 0.88051 0.0
H392 H 0.27267 0.00366 0.28117 0.0
H393 H 0.27982 0.03754 0.23498 0.0
H394 H 0.28833 0.06025 0.14023 0.0
H395 H 0.2953 0.06407 0.03052 0.0
Mn396 Mn 0.17279 0.40222 0.08756 0.0
Mn397 Mn 0.16542 0.35289 0.09216 0.0
C398 C 0.14466 0.37624 0.14337 0.0
C399 C 0.16638 0.42609 0.0355 0.0
C400 C 0.19958 0.38981 0.16396 0.0
O401 O 0.19152 0.40231 0.01945 0.0
O402 O 0.18291 0.36817 0.0197 0.0
C403 C 0.13831 0.33497 0.98468 0.0
N404 N 0.14133 0.33404 0.04467 0.0
C405 C 0.10738 0.30157 0.05548 0.0
C406 C 0.10396 0.30209 0.9937 0.0
C407 C 0.11948 0.31889 0.9582 0.0
C408 C 0.12651 0.31795 0.07927 0.0
H409 H 0.15019 0.34789 0.95731 0.0
C410 C 0.19274 0.38694 -0.00263 0.0
O411 O 0.18274 0.43289 0.07115 0.0
O412 O 0.15416 0.40579 0.0304 0.0
N413 N 0.1487 0.33614 0.15948 0.0
C414 C 0.15366 0.33888 0.21899 0.0
C415 C 0.13941 0.32388 0.261 0.0
C416 C 0.12028 0.30617 0.24141 0.0
C417 C 0.1156 0.30359 0.17991 0.0
C418 C 0.13049 0.31898 0.14006 0.0
H419 H 0.16825 0.35251 0.2344 0.0
O420 O 0.15138 0.39609 0.1532 0.0
O421 O 0.15425 0.37218 0.10007 0.0
O422 O 0.19482 0.40378 0.14872 0.0
O423 O 0.19004 0.37095 0.14341 0.0
C424 C 0.09645 0.28669 0.15674 0.0
C425 C 0.09233 0.28569 0.09459 0.0
H426 H 0.0894 0.2898 0.97317 0.0
H427 H 0.11691 0.31946 0.91056 0.0
H428 H 0.1431 0.32603 0.3084 0.0
H429 H 0.1092 0.29478 0.27404 0.0
H430 H 0.0846 0.27459 0.18648 0.0
H431 H 0.07739 0.27282 0.07748 0.0
Mn432 Mn 0.40773 0.29935 0.90462 0.0
Mn433 Mn 0.35689 0.25796 0.90421 0.0
C434 C 0.38161 0.30204 0.85357 0.0
C435 C 0.43333 0.32942 0.95544 0.0
C436 C 0.39266 0.26032 0.82535 0.0
O437 O 0.40763 0.28051 0.97088 0.0
O438 O 0.37288 0.25457 0.97226 0.0
C439 C 0.34173 0.26709 0.01811 0.0
N440 N 0.33971 0.26383 0.95767 0.0
C441 C 0.30921 0.26875 0.95537 0.0
C442 C 0.31086 0.272 0.01767 0.0
C443 C 0.32721 0.27119 0.04914 0.0
C444 C 0.32404 0.26457 0.92694 0.0
H445 H 0.35436 0.26663 0.04242 0.0
C446 C 0.39207 0.2635 0.99275 0.0
O447 O 0.43926 0.31982 0.91743 0.0
O448 O 0.41288 0.32154 0.96326 0.0
N449 N 0.33951 0.25917 0.8416 0.0
C450 C 0.34077 0.25673 0.78123 0.0
C451 C 0.32583 0.25758 0.74312 0.0
C452 C 0.30973 0.26086 0.76742 0.0
C453 C 0.30867 0.26319 0.82968 0.0
C454 C 0.32384 0.26194 0.86553 0.0
H455 H 0.35321 0.25439 0.76222 0.0
O456 O 0.4018 0.31494 0.84143 0.0
O457 O 0.3774 0.28832 0.89637 0.0
O458 O 0.40757 0.2787 0.84172 0.0
O459 O 0.37348 0.25113 0.84681 0.0
C460 C 0.2934 0.26708 0.85744 0.0
C461 C 0.29369 0.26989 0.92023 0.0
H462 H 0.29979 0.27531 0.04172 0.0
H463 H 0.32866 0.2738 0.09717 0.0
H464 H 0.3268 0.25585 0.69507 0.0
H465 H 0.29837 0.26171 0.73787 0.0
H466 H 0.28154 0.26821 0.83084 0.0
H467 H 0.28203 0.27313 0.94097 0.0
Mn468 Mn 0.84109 0.14944 0.92833 0.0
Mn469 Mn 0.83433 0.19164 0.92516 0.0
C470 C 0.81762 0.1512 0.99562 0.0
C471 C 0.83125 0.11655 0.88713 0.0
C472 C 0.87255 0.19225 0.98333 0.0
O473 O 0.85517 0.16397 0.84985 0.0
O474 O 0.84676 0.18957 0.84689 0.0
C475 C 0.80025 0.17628 0.83356 0.0
N476 N 0.80724 0.18359 0.88995 0.0
C477 C 0.77467 0.18358 0.91388 0.0
C478 C 0.76712 0.17609 0.856 0.0
C479 C 0.77992 0.17229 0.81581 0.0
C480 C 0.79485 0.1868 0.92945 0.0
H481 H 0.81016 0.17357 0.80237 0.0
C482 C 0.85506 0.17934 0.8236 0.0
O483 O 0.84973 0.1277 0.91326 0.0
O484 O 0.81891 0.12457 0.88516 0.0
N485 N 0.82248 0.19595 -0.00265 0.0
C486 C 0.83209 0.20314 0.05154 0.0
C487 C 0.82142 0.2077 0.09689 0.0
C488 C 0.80118 0.20521 0.08569 0.0
C489 C 0.79172 0.19805 0.02935 0.0
C490 C 0.80302 0.19357 0.98609 0.0
H491 H 0.84769 0.20524 0.06039 0.0
O492 O 0.82449 0.13817 0.00481 0.0
O493 O 0.8239 0.16206 0.9458 0.0
O494 O 0.86672 0.17278 0.97471 0.0
O495 O 0.8621 0.20082 0.96394 0.0
C496 C 0.77173 0.19562 0.01401 0.0
C497 C 0.7631 0.1882 0.95652 0.0
H498 H 0.75156 0.17324 0.84192 0.0
H499 H 0.77419 0.16649 0.77108 0.0
H500 H 0.82888 0.21328 0.14018 0.0
H501 H 0.79318 0.20906 0.12052 0.0
H502 H 0.76298 0.1996 0.046 0.0
H503 H 0.74758 0.18616 0.94555 0.0
Mn504 Mn 0.97684 0.72445 0.89862 0.0
Mn505 Mn 0.99033 0.77541 0.91743 0.0
C506 C 0.00991 0.75082 0.86582 0.0
C507 C 0.97461 0.6948 0.94403 0.0
C508 C 0.96182 0.74775 0.81634 0.0
O509 O 0.95402 0.72254 0.95509 0.0
O510 O 0.9656 0.75687 0.97211 0.0
C511 C 0.00643 0.7805 0.0417 0.0
N512 N 0.00977 0.78684 0.98307 0.0
C513 C 0.04602 0.81449 0.00309 0.0
C514 C 0.04293 0.80836 0.06378 0.0
C515 C 0.02305 0.79126 0.08313 0.0
C516 C 0.02886 0.8032 0.96392 0.0
H517 H 0.99122 0.76729 0.05668 0.0
C518 C 0.95245 0.73708 0.98138 0.0
O519 O 0.96253 0.69267 0.89843 0.0
O520 O 0.98779 0.71378 0.96224 0.0
N521 N 0.01392 0.7955 0.8685 0.0
C522 C 0.0144 0.79929 0.80836 0.0
C523 C 0.03312 0.81592 0.78184 0.0
C524 C 0.05118 0.82848 0.81732 0.0
C525 C 0.05019 0.82455 0.87928 0.0
C526 C 0.03096 0.80797 0.90339 0.0
H527 H 0.00069 0.78958 0.78068 0.0
O528 O 0.00221 0.73155 0.84728 0.0
O529 O -0.00154 0.7539 0.90578 0.0
O530 O 0.96254 0.731 0.82845 0.0
O531 O 0.97099 0.76462 0.848 0.0
C532 C 0.06761 0.83627 0.91796 0.0
C533 C 0.06555 0.8312 0.97979 0.0
H534 H 0.05573 0.81657 0.09585 0.0
H535 H 0.02057 0.78636 0.12984 0.0
H536 H 0.03364 0.819 0.73411 0.0
H537 H 0.06569 0.84111 0.79658 0.0
H538 H 0.08273 0.84909 0.90053 0.0
H539 H 0.07912 0.84021 0.009 0.0
Mn540 Mn 0.40945 0.15301 0.40423 0.0
Mn541 Mn 0.3581 0.14215 0.4041 0.0
C542 C 0.38493 0.12634 0.34436 0.0
C543 C 0.43533 0.14833 0.45175 0.0
C544 C 0.39349 0.17766 0.33007 0.0
O545 O 0.40821 0.16925 0.47559 0.0
O546 O 0.3738 0.16108 0.47319 0.0
C547 C 0.34479 0.11639 0.51575 0.0
N548 N 0.34217 0.11819 0.45591 0.0
C549 C 0.31258 0.08228 0.45208 0.0
C550 C 0.31489 0.08007 0.51372 0.0
C551 C 0.33112 0.09718 0.54563 0.0
C552 C 0.32686 0.10171 0.42457 0.0
H553 H 0.35723 0.1295 0.54049 0.0
C554 C 0.39259 0.17074 0.4962 0.0
O555 O 0.44094 0.16499 0.41847 0.0
O556 O 0.41499 0.13468 0.45685 0.0
N557 N 0.34037 0.12408 0.34117 0.0
C558 C 0.33946 0.12918 0.28278 0.0
C559 C 0.32397 0.11384 0.24471 0.0
C560 C 0.3092 0.09362 0.26747 0.0
C561 C 0.30984 0.08903 0.32833 0.0
C562 C 0.32574 0.1049 0.36399 0.0
H563 H 0.35066 0.14473 0.26514 0.0
O564 O 0.40538 0.13434 0.33515 0.0
O565 O 0.37934 0.13338 0.39087 0.0
O566 O 0.40882 0.17495 0.34748 0.0
O567 O 0.37398 0.16636 0.34856 0.0
C568 C 0.29509 0.06947 0.35527 0.0
C569 C 0.29657 0.06602 0.41697 0.0
H570 H 0.30428 0.06532 0.537 0.0
H571 H 0.33304 0.09558 0.59319 0.0
H572 H 0.3234 0.11761 0.19798 0.0
H573 H 0.29725 0.08184 0.23805 0.0
H574 H 0.28254 0.05694 0.32897 0.0
H575 H 0.28523 0.05085 0.43703 0.0
Mn576 Mn 0.98403 0.29534 0.42575 0.0
Mn577 Mn 0.94176 0.30271 0.41475 0.0
C578 C 0.98293 0.32063 0.48414 0.0
C579 C 0.01637 0.30181 0.38502 0.0
C580 C 0.94036 0.26664 0.48575 0.0
O581 O 0.96919 0.2794 0.35085 0.0
O582 O 0.94294 0.2871 0.34234 0.0
C583 C 0.95774 0.33232 0.31106 0.0
N584 N 0.95064 0.32799 0.36915 0.0
C585 C 0.95361 0.36205 0.37979 0.0
C586 C 0.96086 0.36685 0.32 0.0
C587 C 0.96303 0.35195 0.28558 0.0
C588 C 0.94886 0.34235 0.40297 0.0
H589 H 0.95936 0.32089 0.2844 0.0
C590 C 0.95335 0.27832 0.32333 0.0
O591 O 0.00456 0.28486 0.41708 0.0
O592 O 0.00972 0.31509 0.37819 0.0
N593 N 0.93833 0.31761 0.48057 0.0
C594 C 0.9309 0.31047 0.53735 0.0
C595 C 0.92797 0.32354 0.57772 0.0
C596 C 0.93233 0.34366 0.55901 0.0
C597 C 0.93942 0.35045 0.49992 0.0
C598 C 0.94215 0.33678 0.46178 0.0
H599 H 0.92753 0.29504 0.55203 0.0
O600 O -0.00425 0.31372 0.49752 0.0
O601 O 0.97185 0.31323 0.43518 0.0
O602 O 0.95995 0.27187 0.47659 0.0
O603 O 0.93182 0.27681 0.46398 0.0
C604 C 0.94366 0.37015 0.47717 0.0
C605 C 0.95083 0.376 0.41724 0.0
H606 H 0.96484 0.38192 0.30009 0.0
H607 H 0.96867 0.35555 0.23945 0.0
H608 H 0.92236 0.31811 0.62314 0.0
H609 H 0.93005 0.3537 0.59026 0.0
H610 H 0.9414 0.38091 0.50538 0.0
H611 H 0.95423 0.39129 0.40046 0.0
Mn612 Mn 0.84115 0.74013 0.39976 0.0
Mn613 Mn 0.8293 0.68974 0.42473 0.0
C614 C 0.81627 0.71987 0.47295 0.0
C615 C 0.83575 0.76396 0.34449 0.0
C616 C 0.86888 0.72801 0.47436 0.0
O617 O 0.85418 0.73404 0.32696 0.0
O618 O 0.84405 0.70006 0.34564 0.0
C619 C 0.79702 0.66995 0.32871 0.0
N620 N 0.80235 0.67128 0.38776 0.0
C621 C 0.76705 0.64258 0.41411 0.0
C622 C 0.76121 0.64083 0.35355 0.0
C623 C 0.77623 0.65467 0.31072 0.0
C624 C 0.78786 0.6584 0.42954 0.0
H625 H 0.80856 0.68047 0.29558 0.0
C626 C 0.85325 0.71678 0.31284 0.0
O627 O 0.85372 0.77016 0.3722 0.0
O628 O 0.8211 0.7441 0.34857 0.0
N629 N 0.81489 0.67702 0.49904 0.0
C630 C 0.82355 0.6797 0.55482 0.0
C631 C 0.81071 0.66691 0.60276 0.0
C632 C 0.78928 0.65112 0.59259 0.0
C633 C 0.78103 0.64799 0.53431 0.0
C634 C 0.79456 0.66128 0.48835 0.0
H635 H 0.84008 0.6916 0.56284 0.0
O636 O 0.82508 0.74032 0.47292 0.0
O637 O 0.82149 0.71174 0.42859 0.0
O638 O 0.86518 0.74195 0.45219 0.0
O639 O 0.85681 0.70808 0.46582 0.0
C640 C 0.76008 0.63184 0.51976 0.0
C641 C 0.75311 0.62913 0.45968 0.0
H642 H 0.74525 0.62892 0.33943 0.0
H643 H 0.77184 0.65346 0.26391 0.0
H644 H 0.81733 0.66919 0.6474 0.0
H645 H 0.77943 0.64126 0.62964 0.0
H646 H 0.74923 0.62134 0.55437 0.0
H647 H 0.73696 0.61666 0.44906 0.0
H648 H 0.02788 0.50989 0.87989 0.0
H649 H 0.09636 0.54092 0.84079 0.0
H650 H 0.10338 0.56662 0.92171 0.0
H651 H 0.02605 0.5568 0.91326 0.0
H652 H 0.00659 0.54452 0.97333 0.0
H653 H 0.007 0.52872 0.91194 0.0
H654 H 0.011 0.50395 0.98728 0.0
H655 H 0.01054 0.51965 0.0489 0.0
H656 H 0.03273 0.51512 0.04021 0.0
H657 H 0.10273 0.58964 0.00602 0.0
H658 H 0.0944 0.60683 0.08936 0.0
H659 H 0.02662 0.55955 0.07397 0.0
C660 C 0.04436 0.52211 0.88812 0.0
C661 C 0.06154 0.52341 0.85379 0.0
C662 C 0.0829 0.53955 0.86657 0.0
C663 C 0.08707 0.55427 0.91235 0.0
C664 C 0.06974 0.55255 0.94524 0.0
C665 C 0.04883 0.53679 0.93391 0.0
C666 C 0.03308 0.53811 0.97628 0.0
C667 C 0.01725 0.54229 0.94162 0.0
C668 C 0.02114 0.51802 0.01549 0.0
C669 C 0.04838 0.55712 0.01308 0.0
C670 C 0.06945 0.56536 0.99443 0.0
C671 C 0.08629 0.58325 0.02123 0.0
C672 C 0.08141 0.59293 0.06843 0.0
C673 C 0.05989 0.58454 0.08852 0.0
C674 C 0.04328 0.56636 0.06023 0.0
H675 H 0.57153 0.60417 0.87552 0.0
H676 H 0.61853 0.58458 0.84809 0.0
H677 H 0.59977 0.55638 0.92449 0.0
H678 H 0.5688 0.59853 0.03254 0.0
H679 H 0.54048 0.58936 0.03841 0.0
H680 H 0.55613 0.60633 0.97688 0.0
H681 H 0.52993 0.57849 0.90114 0.0
H682 H 0.51421 0.56138 0.96255 0.0
H683 H 0.52472 0.5517 0.90496 0.0
H684 H 0.57692 0.53149 0.00679 0.0
H685 H 0.55344 0.51343 0.09433 0.0
H686 H 0.52246 0.55056 0.07091 0.0
C687 C 0.57775 0.5938 0.8849 0.0
C688 C 0.59646 0.59653 0.85566 0.0
C689 C 0.60423 0.58279 0.86997 0.0
C690 C 0.59362 0.56666 0.91302 0.0
C691 C 0.57537 0.56459 0.9415 0.0
C692 C 0.56758 0.57787 0.92831 0.0
C693 C 0.54877 0.57348 0.96877 0.0
C694 C 0.55386 0.59309 0.00638 0.0
C695 C 0.52819 0.5658 0.93215 0.0
C696 C 0.54741 0.55586 0.00751 0.0
C697 C 0.56264 0.55072 0.99038 0.0
C698 C 0.56486 0.53529 0.02046 0.0
C699 C 0.5514 0.5251 0.0701 0.0
C700 C 0.53612 0.53061 0.08967 0.0
C701 C 0.53396 0.54598 0.05719 0.0
H702 H 0.60952 0.06064 0.12998 0.0
H703 H 0.62078 0.12224 0.18603 0.0
H704 H 0.59593 0.12069 0.10861 0.0
H705 H 0.60829 0.06899 0.97444 0.0
H706 H 0.58729 0.0423 0.95843 0.0
H707 H 0.6047 0.04732 0.02135 0.0
H708 H 0.5716 0.02887 0.09299 0.0
H709 H 0.55406 0.02365 0.03016 0.0
H710 H 0.55243 0.03773 0.09449 0.0
H711 H 0.57151 0.11355 0.02159 0.0
H712 H 0.54839 0.1007 0.93229 0.0
H713 H 0.55315 0.0439 0.93279 0.0
C714 C 0.6065 0.07365 0.12671 0.0
C715 C 0.61711 0.09153 0.16431 0.0
C716 C 0.61289 0.10834 0.15783 0.0
C717 C 0.59876 0.10763 0.11399 0.0
C718 C 0.58892 0.08999 0.07695 0.0
C719 C 0.59247 0.07324 0.08301 0.0
C720 C 0.58047 0.05654 0.03582 0.0
C721 C 0.59613 0.05363 0.99511 0.0
C722 C 0.56364 0.03545 0.06513 0.0
C723 C 0.56989 0.06668 0.00193 0.0
C724 C 0.57488 0.08592 0.02651 0.0
C725 C 0.56735 0.09843 0.0021 0.0
C726 C 0.55428 0.09101 0.95125 0.0
C727 C 0.54891 0.07128 0.92529 0.0
C728 C 0.55688 0.05904 0.95133 0.0
H729 H 0.61087 0.05985 0.43162 0.0
H730 H 0.64687 0.12868 0.43962 0.0
H731 H 0.62586 0.12735 0.5288 0.0
H732 H 0.56037 0.05316 0.47129 0.0
H733 H 0.55173 0.0297 0.51644 0.0
H734 H 0.57057 0.03572 0.45542 0.0
H735 H 0.59753 0.03435 0.52861 0.0
H736 H 0.57871 0.02821 0.58989 0.0
H737 H 0.60561 0.05068 0.59482 0.0
H738 H 0.59969 0.11914 0.61129 0.0
H739 H 0.57018 0.10436 0.68574 0.0
H740 H 0.55113 0.04068 0.62722 0.0
C741 C 0.61452 0.07464 0.45246 0.0
C742 C 0.63053 0.09438 0.42831 0.0
C743 C 0.63469 0.11335 0.45697 0.0
C744 C 0.62287 0.11279 0.50782 0.0
C745 C 0.60705 0.09314 0.52981 0.0
C746 C 0.60289 0.07439 0.50347 0.0
C747 C 0.58442 0.05547 0.53517 0.0
C748 C 0.56566 0.04277 0.492 0.0
C749 C 0.59203 0.04134 0.56383 0.0
C750 C 0.5786 0.0666 0.58262 0.0
C751 C 0.59195 0.08833 0.57863 0.0
C752 C 0.58925 0.10215 0.61537 0.0
C753 C 0.57235 0.09358 0.6573 0.0
C754 C 0.55837 0.07136 0.66235 0.0
C755 C 0.56171 0.0577 0.62486 0.0
H756 H 0.02545 0.5626 0.38006 0.0
H757 H 0.09346 0.60462 0.3421 0.0
H758 H 0.10242 0.58719 0.42227 0.0
H759 H 0.03035 0.56197 0.54052 0.0
H760 H 0.00967 0.53452 0.54828 0.0
H761 H 0.00873 0.55019 0.48731 0.0
H762 H 0.00733 0.52281 0.41089 0.0
H763 H 0.00835 0.5071 0.47162 0.0
H764 H 0.02806 0.51599 0.41166 0.0
H765 H 0.10386 0.56425 0.50569 0.0
H766 H 0.09745 0.53901 0.58853 0.0
H767 H 0.02867 0.51336 0.57263 0.0
C768 C 0.04224 0.56814 0.38843 0.0
C769 C 0.05872 0.58494 0.35456 0.0
C770 C 0.08051 0.5918 0.36749 0.0
C771 C 0.08578 0.58197 0.41285 0.0
C772 C 0.06912 0.56539 0.44522 0.0
C773 C 0.0478 0.55865 0.43383 0.0
C774 C 0.03292 0.54079 0.47567 0.0
C775 C 0.01964 0.54726 0.5153 0.0
C776 C 0.01831 0.52047 0.44034 0.0
C777 C 0.04918 0.53849 0.51222 0.0
C778 C 0.06998 0.55268 0.4939 0.0
C779 C 0.08762 0.55313 0.52063 0.0
C780 C 0.08384 0.53872 0.56754 0.0
C781 C 0.06259 0.52424 0.58743 0.0
C782 C 0.04515 0.52426 0.55906 0.0
H783 H 0.59035 0.6197 0.55828 0.0
H784 H 0.62704 0.59073 0.61415 0.0
H785 H 0.61323 0.56647 0.52755 0.0
H786 H 0.54426 0.57322 0.51237 0.0
H787 H 0.53919 0.58523 0.44875 0.0
H788 H 0.55312 0.60109 0.51281 0.0
H789 H 0.58502 0.62679 0.44374 0.0
H790 H 0.57116 0.61094 0.37938 0.0
H791 H 0.5979 0.61649 0.39616 0.0
H792 H 0.59224 0.5429 0.44031 0.0
H793 H 0.56689 0.52309 0.35863 0.0
H794 H 0.54648 0.56958 0.3571 0.0
C795 C 0.59563 0.60837 0.5521 0.0
C796 C 0.60971 0.60706 0.59307 0.0
C797 C 0.61632 0.59208 0.58316 0.0
C798 C 0.60857 0.57823 0.53411 0.0
C799 C 0.59454 0.57983 0.49484 0.0
C800 C 0.58834 0.59469 0.503 0.0
C801 C 0.57266 0.59282 0.45554 0.0
C802 C 0.55104 0.58779 0.48408 0.0
C803 C 0.58227 0.61296 0.41638 0.0
C804 C 0.57053 0.57421 0.4204 0.0
C805 C 0.58324 0.56688 0.44351 0.0
C806 C 0.58249 0.54873 0.42114 0.0
C807 C 0.56805 0.53758 0.37472 0.0
C808 C 0.55465 0.54472 0.35114 0.0
C809 C 0.5565 0.56363 0.37351 0.0
H810 H 0.75634 0.88861 0.26066 0.0
H811 H 0.70106 0.82469 0.26923 0.0
H812 H 0.68788 0.83433 0.35951 0.0
H813 H 0.76381 0.89665 0.42224 0.0
H814 H 0.7712 0.9241 0.41752 0.0
H815 H 0.77695 0.91189 0.35544 0.0
H816 H 0.75605 0.92282 0.28402 0.0
H817 H 0.75025 0.93506 0.34578 0.0
H818 H 0.72859 0.91501 0.30199 0.0
H819 H 0.67974 0.85124 0.4451 0.0
H820 H 0.67683 0.87428 0.52029 0.0
H821 H 0.73753 0.92734 0.45677 0.0
C822 C 0.74153 0.87653 0.28164 0.0
C823 C 0.72975 0.85585 0.25763 0.0
C824 C 0.7104 0.84063 0.28659 0.0
C825 C 0.7028 0.84593 0.33802 0.0
C826 C 0.71475 0.86648 0.36009 0.0
C827 C 0.73371 0.88154 0.33294 0.0
C828 C 0.74306 0.90272 0.3644 0.0
C829 C 0.76506 0.90922 0.39151 0.0
C830 C 0.74456 0.91991 0.32149 0.0
C831 C 0.72619 0.89729 0.41303 0.0
C832 C 0.71009 0.87627 0.40983 0.0
C833 C 0.69232 0.86768 0.44834 0.0
C834 C 0.69082 0.88096 0.49083 0.0
C835 C 0.70698 0.90266 0.49463 0.0
C836 C 0.72504 0.9108 0.45556 0.0
H837 H 0.19096 0.88482 0.42158 0.0
H838 H 0.21367 0.84029 0.43671 0.0
H839 H 0.23855 0.85783 0.35162 0.0
H840 H 0.19374 0.88833 0.25713 0.0
H841 H 0.20253 0.91617 0.25644 0.0
H842 H 0.18567 0.89948 0.31701 0.0
H843 H 0.21393 0.92441 0.39401 0.0
H844 H 0.23093 0.94108 0.33372 0.0
H845 H 0.24126 0.93008 0.38722 0.0
H846 H 0.26299 0.88173 0.27074 0.0
H847 H 0.28362 0.90909 0.19364 0.0
H848 H 0.24411 0.93716 0.22782 0.0
C849 C 0.201 0.87862 0.40666 0.0
C850 C 0.20034 0.86119 0.43607 0.0
C851 C 0.21377 0.85357 0.41496 0.0
C852 C 0.22803 0.86345 0.36667 0.0
C853 C 0.22852 0.88078 0.33944 0.0
C854 C 0.21521 0.88817 0.35809 0.0
C855 C 0.21921 0.90727 0.3214 0.0
C856 C 0.19909 0.90252 0.28588 0.0
C857 C 0.22678 0.92686 0.36149 0.0
C858 C 0.23709 0.90964 0.28003 0.0
C859 C 0.24226 0.89424 0.29135 0.0
C860 C 0.25894 0.89375 0.26089 0.0
C861 C 0.27062 0.9094 0.21742 0.0
C862 C 0.26544 0.92521 0.20454 0.0
C863 C 0.24835 0.92519 0.23618 0.0
H864 H 0.25665 0.35917 0.41473 0.0
H865 H 0.29593 0.42596 0.45743 0.0
H866 H 0.27893 0.43474 0.37529 0.0
H867 H 0.25817 0.36607 0.25287 0.0
H868 H 0.23083 0.34479 0.24398 0.0
H869 H 0.24668 0.34407 0.30495 0.0
H870 H 0.21737 0.34003 0.38113 0.0
H871 H 0.2015 0.34084 0.32046 0.0
H872 H 0.209 0.3594 0.38139 0.0
H873 H 0.25537 0.43577 0.29172 0.0
H874 H 0.22905 0.42885 0.21129 0.0
H875 H 0.20712 0.36168 0.22295 0.0
C876 C 0.26179 0.37567 0.40672 0.0
C877 C 0.27758 0.39185 0.44268 0.0
C878 C 0.28391 0.41326 0.43033 0.0
C879 C 0.27431 0.41842 0.38386 0.0
C880 C 0.25859 0.40203 0.34972 0.0
C881 C 0.25257 0.38111 0.36029 0.0
C882 C 0.23525 0.36638 0.31774 0.0
C883 C 0.24322 0.35464 0.27749 0.0
C884 C 0.21456 0.35075 0.35225 0.0
C885 C 0.23224 0.38221 0.28206 0.0
C886 C 0.24571 0.4027 0.30104 0.0
C887 C 0.24491 0.41978 0.27603 0.0
C888 C 0.2299 0.41572 0.23049 0.0
C889 C 0.21607 0.39476 0.21033 0.0
C890 C 0.21753 0.37795 0.23652 0.0
H891 H 0.19317 0.35786 0.92077 0.0
H892 H 0.22371 0.42552 0.95289 0.0
H893 H 0.24803 0.43245 0.86626 0.0
H894 H 0.24013 0.35715 0.88079 0.0
H895 H 0.22759 0.33747 0.82302 0.0
H896 H 0.2118 0.33785 0.88559 0.0
H897 H 0.18561 0.34053 0.81214 0.0
H898 H 0.20129 0.34008 0.74925 0.0
H899 H 0.19604 0.36154 0.75688 0.0
H900 H 0.27084 0.43186 0.78132 0.0
H901 H 0.28944 0.42377 0.70116 0.0
H902 H 0.24277 0.35667 0.72219 0.0
C903 C 0.20488 0.37415 0.90943 0.0
C904 C 0.20658 0.39113 0.94374 0.0
C905 C 0.22205 0.41223 0.92716 0.0
C906 C 0.23595 0.41635 0.87806 0.0
C907 C 0.23399 0.39922 0.84563 0.0
C908 C 0.21871 0.37856 0.86026 0.0
C909 C 0.2202 0.36299 0.81885 0.0
C910 C 0.22524 0.34799 0.85418 0.0
C911 C 0.19956 0.35056 0.78209 0.0
C912 C 0.239 0.37811 0.77948 0.0
C913 C 0.24674 0.39893 0.7956 0.0
C914 C 0.26477 0.41562 0.76775 0.0
C915 C 0.27526 0.41086 0.72243 0.0
C916 C 0.26758 0.38959 0.70528 0.0
C917 C 0.24902 0.37311 0.73383 0.0
H918 H 0.75854 0.89101 0.95434 0.0
H919 H 0.69471 0.84815 0.02716 0.0
H920 H 0.67905 0.86107 0.9527 0.0
H921 H 0.74914 0.9348 0.91702 0.0
H922 H 0.76473 0.94139 0.84832 0.0
H923 H 0.77135 0.93019 0.91087 0.0
H924 H 0.768 0.90009 0.84239 0.0
H925 H 0.76126 0.91111 0.7798 0.0
H926 H 0.7434 0.88396 0.80221 0.0
H927 H 0.66977 0.87644 0.86686 0.0
H928 H 0.66759 0.89413 0.77523 0.0
H929 H 0.73722 0.92711 0.75664 0.0
C930 C 0.74134 0.88469 0.95533 0.0
C931 C 0.72788 0.86859 0.99669 0.0
C932 C 0.70537 0.86043 0.99581 0.0
C933 C 0.69629 0.8677 0.95379 0.0
C934 C 0.70988 0.88319 0.91281 0.0
C935 C 0.73191 0.8917 0.91325 0.0
C936 C 0.74265 0.90739 0.86197 0.0
C937 C 0.75787 0.92977 0.886 0.0
C938 C 0.75452 0.9002 0.81906 0.0
C939 C 0.72316 0.90604 0.83236 0.0
C940 C 0.70445 0.89207 0.86268 0.0
C941 C 0.68432 0.88757 0.84291 0.0
C942 C 0.68325 0.89765 0.79062 0.0
C943 C 0.7022 0.91205 0.75855 0.0
C944 C 0.72241 0.91632 0.78018 0.0
H945 H 0.25511 0.94359 0.91048 0.0
H946 H 0.2908 0.91257 0.95656 0.0
H947 H 0.27435 0.8881 0.8714 0.0
H948 H 0.20679 0.89736 0.86874 0.0
H949 H 0.20135 0.91003 0.80758 0.0
H950 H 0.21646 0.92539 0.87112 0.0
H951 H 0.24769 0.95083 0.79985 0.0
H952 H 0.23267 0.93551 0.73605 0.0
H953 H 0.25935 0.9402 0.74889 0.0
H954 H 0.25195 0.86543 0.78425 0.0
H955 H 0.22624 0.84735 0.70179 0.0
H956 H 0.20738 0.89495 0.71119 0.0
C957 C 0.25952 0.93169 0.90272 0.0
C958 C 0.27418 0.92997 0.94039 0.0
C959 C 0.27962 0.91424 0.92826 0.0
C960 C 0.27037 0.90025 0.87998 0.0
C961 C 0.25593 0.90236 0.84383 0.0
C962 C 0.25066 0.91779 0.85446 0.0
C963 C 0.23457 0.91665 0.80954 0.0
C964 C 0.21355 0.91208 0.84114 0.0
C965 C 0.24415 0.93701 0.77132 0.0
C966 C 0.23134 0.89798 0.77255 0.0
C967 C 0.24371 0.88986 0.79286 0.0
C968 C 0.24237 0.87181 0.76747 0.0
C969 C 0.22774 0.86166 0.72063 0.0
C970 C 0.21478 0.8697 0.69963 0.0
C971 C 0.21706 0.88835 0.72553 0.0
H972 H 0.36365 0.22647 0.75903 0.0
H973 H 0.43222 0.26844 0.7841 0.0
H974 H 0.43958 0.2492 0.70489 0.0
H975 H 0.36469 0.17871 0.73036 0.0
H976 H 0.3442 0.16952 0.67382 0.0
H977 H 0.34438 0.18609 0.73388 0.0
H978 H 0.3453 0.21288 0.65608 0.0
H979 H 0.34502 0.19636 0.59579 0.0
H980 H 0.36616 0.22373 0.59916 0.0
H981 H 0.4393 0.22519 0.62347 0.0
H982 H 0.43175 0.19985 0.54156 0.0
H983 H 0.3632 0.17451 0.56729 0.0
C984 C 0.38025 0.23163 0.74825 0.0
C985 C 0.39738 0.24896 0.77809 0.0
C986 C 0.41884 0.25524 0.76191 0.0
C987 C 0.42317 0.24436 0.71713 0.0
C988 C 0.40587 0.22738 0.68869 0.0
C989 C 0.38484 0.22116 0.70332 0.0
C990 C 0.36913 0.20295 0.66451 0.0
C991 C 0.35476 0.18314 0.70295 0.0
C992 C 0.35561 0.20937 0.62664 0.0
C993 C 0.3846 0.19983 0.62562 0.0
C994 C 0.4057 0.21396 0.64067 0.0
C995 C 0.42285 0.21408 0.61125 0.0
C996 C 0.41835 0.19955 0.56481 0.0
C997 C 0.39684 0.18515 0.54772 0.0
C998 C 0.3798 0.18531 0.57899 0.0
H999 H 0.85397 0.20751 0.74442 0.0
H1000 H 0.88213 0.16799 0.7707 0.0
H1001 H 0.90441 0.18339 0.6795 0.0
H1002 H 0.85422 0.20601 0.57675 0.0
H1003 H 0.86072 0.23318 0.57095 0.0
H1004 H 0.84499 0.21707 0.6339 0.0
H1005 H 0.87245 0.24504 0.70711 0.0
H1006 H 0.88832 0.26112 0.64457 0.0
H1007 H 0.90043 0.25282 0.70061 0.0
H1008 H 0.92743 0.20679 0.59524 0.0
H1009 H 0.94778 0.23496 0.51986 0.0
H1010 H 0.9032 0.25768 0.54488 0.0
C1011 C 0.86449 0.20176 0.73038 0.0
C1012 C 0.86632 0.18658 0.76489 0.0
C1013 C 0.88035 0.17954 0.74497 0.0
C1014 C 0.89309 0.18819 0.69315 0.0
C1015 C 0.89134 0.20356 0.66117 0.0
C1016 C 0.87715 0.21005 0.67845 0.0
C1017 C 0.87929 0.22773 0.63836 0.0
C1018 C 0.85857 0.22056 0.60287 0.0
C1019 C 0.8855 0.24786 0.67485 0.0
C1020 C 0.89752 0.23075 0.59747 0.0
C1021 C 0.90418 0.2166 0.61111 0.0
C1022 C 0.92207 0.21767 0.5832 0.0
C1023 C 0.93359 0.23378 0.54069 0.0
C1024 C 0.92709 0.24853 0.52635 0.0
C1025 C 0.90851 0.24658 0.55429 0.0
H1026 H 0.93338 0.71457 0.74414 0.0
H1027 H 0.96469 0.7829 0.76476 0.0
H1028 H 0.94712 0.78522 0.67399 0.0
H1029 H 0.93435 0.71387 0.57946 0.0
H1030 H 0.90789 0.69076 0.57425 0.0
H1031 H 0.9243 0.69422 0.63863 0.0
H1032 H 0.89391 0.69066 0.70947 0.0
H1033 H 0.87739 0.68709 0.64537 0.0
H1034 H 0.88311 0.70783 0.69844 0.0
H1035 H 0.92555 0.78065 0.58406 0.0
H1036 H 0.89858 0.76885 0.50428 0.0
H1037 H 0.87995 0.70342 0.54157 0.0
C1038 C 0.9367 0.73002 0.72918 0.0
C1039 C 0.9507 0.74854 0.76152 0.0
C1040 C 0.95425 0.76842 0.74087 0.0
C1041 C 0.94439 0.76999 0.68903 0.0
C1042 C 0.93078 0.75153 0.65825 0.0
C1043 C 0.92669 0.73188 0.67764 0.0
C1044 C 0.9101 0.71445 0.63823 0.0
C1045 C 0.91974 0.70263 0.60571 0.0
C1046 C 0.88994 0.69911 0.67508 0.0
C1047 C 0.90541 0.72745 0.59445 0.0
C1048 C 0.91776 0.74881 0.60647 0.0
C1049 C 0.91582 0.76396 0.57386 0.0
C1050 C 0.90044 0.75707 0.52854 0.0
C1051 C 0.88704 0.73519 0.51648 0.0
C1052 C 0.88997 0.72027 0.54923 0.0
H1053 H 0.88554 0.75019 0.24935 0.0
H1054 H 0.84551 0.68156 0.25056 0.0
H1055 H 0.86526 0.67978 0.16198 0.0
H1056 H 0.89163 0.75709 0.08466 0.0
H1057 H 0.91928 0.77814 0.08907 0.0
H1058 H 0.90065 0.77427 0.14908 0.0
H1059 H 0.92592 0.7714 0.22551 0.0
H1060 H 0.94453 0.7751 0.16578 0.0
H1061 H 0.93394 0.75203 0.21374 0.0
H1062 H 0.89052 0.68497 0.07897 0.0
H1063 H 0.91988 0.69671 0.00496 0.0
H1064 H 0.94433 0.76216 0.05723 0.0
C1065 C 0.88065 0.73482 0.23022 0.0
C1066 C 0.86393 0.71601 0.25673 0.0
C1067 C 0.85829 0.69618 0.23109 0.0
C1068 C 0.86936 0.695 0.18066 0.0
C1069 C 0.88603 0.71378 0.15643 0.0
C1070 C 0.89166 0.73334 0.18009 0.0
C1071 C 0.9111 0.75096 0.14751 0.0
C1072 C 0.90531 0.766 0.11568 0.0
C1073 C 0.92999 0.76308 0.19072 0.0
C1074 C 0.9157 0.73818 0.1026 0.0
C1075 C 0.9009 0.7168 0.10836 0.0
C1076 C 0.90212 0.70169 0.07358 0.0
C1077 C 0.91895 0.70857 0.03174 0.0
C1078 C 0.93448 0.73042 0.02501 0.0
C1079 C 0.93268 0.74539 0.06086 0.0
H1080 H 0.36432 0.18328 0.26698 0.0
H1081 H 0.43295 0.2087 0.28658 0.0
H1082 H 0.44004 0.23428 0.20453 0.0
H1083 H 0.36489 0.18541 0.10816 0.0
H1084 H 0.34432 0.19237 0.10368 0.0
H1085 H 0.34476 0.17721 0.16678 0.0
H1086 H 0.34584 0.20526 0.2399 0.0
H1087 H 0.34535 0.2205 0.17701 0.0
H1088 H 0.36663 0.23264 0.2311 0.0
H1089 H 0.43949 0.25638 0.11865 0.0
H1090 H 0.43155 0.27288 0.03391 0.0
H1091 H 0.3631 0.23183 0.06841 0.0
C1092 C 0.3809 0.19431 0.25464 0.0
C1093 C 0.39809 0.19396 0.28352 0.0
C1094 C 0.4195 0.20864 0.2653 0.0
C1095 C 0.42369 0.22325 0.21878 0.0
C1096 C 0.4063 0.22288 0.19079 0.0
C1097 C 0.38534 0.20877 0.20801 0.0
C1098 C 0.36947 0.21091 0.16899 0.0
C1099 C 0.35502 0.19025 0.13488 0.0
C1100 C 0.35604 0.21774 0.2065 0.0
C1101 C 0.38479 0.22841 0.12674 0.0
C1102 C 0.40595 0.23521 0.14041 0.0
C1103 C 0.42298 0.25121 0.10761 0.0
C1104 C 0.41827 0.26048 0.05953 0.0
C1105 C 0.39667 0.25364 0.04427 0.0
C1106 C 0.37976 0.23737 0.0786 0.0
H1107 H 0.92813 0.27949 0.23335 0.0
H1108 H 0.96243 0.24793 0.28831 0.0
H1109 H 0.94878 0.22471 0.19986 0.0
H1110 H 0.88169 0.23454 0.1834 0.0
H1111 H 0.87761 0.24738 0.12006 0.0
H1112 H 0.89154 0.26261 0.18499 0.0
H1113 H 0.92418 0.28789 0.11745 0.0
H1114 H 0.91031 0.27261 0.05227 0.0
H1115 H 0.93661 0.2771 0.06993 0.0
H1116 H 0.92746 0.2018 0.11292 0.0
H1117 H 0.90146 0.18241 0.03221 0.0
H1118 H 0.88416 0.23118 0.02908 0.0
C1119 C 0.93298 0.26787 0.22638 0.0
C1120 C 0.94628 0.26551 0.26787 0.0
C1121 C 0.9523 0.25012 0.25704 0.0
C1122 C 0.94466 0.23685 0.20687 0.0
C1123 C 0.93135 0.2394 0.16723 0.0
C1124 C 0.9258 0.25472 0.17598 0.0
C1125 C 0.91062 0.25369 0.12798 0.0
C1126 C 0.8891 0.24929 0.15578 0.0
C1127 C 0.92106 0.27403 0.08963 0.0
C1128 C 0.90795 0.23495 0.0922 0.0
C1129 C 0.91999 0.22688 0.11538 0.0
C1130 C 0.91829 0.20825 0.09346 0.0
C1131 C 0.90349 0.19733 0.04759 0.0
C1132 C 0.89074 0.2052 0.02399 0.0
C1133 C 0.8937 0.22468 0.04546 0.0
H1134 H 0.08181 0.68585 0.34508 0.0
H1135 H 0.13578 0.6794 0.28778 0.0
H1136 H 0.15996 0.70987 0.35221 0.0
H1137 H 0.10993 0.74221 0.34535 0.0
H1138 H 0.09536 0.74356 0.40981 0.0
H1139 H 0.08283 0.72107 0.36065 0.0
H1140 H 0.07539 0.69599 0.4516 0.0
H1141 H 0.08807 0.71845 0.50097 0.0
H1142 H 0.09743 0.69986 0.49798 0.0
H1143 H 0.17799 0.74154 0.42565 0.0
H1144 H 0.18816 0.77235 0.49253 0.0
H1145 H 0.12175 0.7571 0.49674 0.0
C1146 C 0.09871 0.69074 0.34604 0.0
C1147 C 0.10692 0.68021 0.31168 0.0
C1148 C 0.12917 0.6873 0.31379 0.0
C1149 C 0.14297 0.7045 0.35045 0.0
C1150 C 0.13422 0.71443 0.38425 0.0
C1151 C 0.11258 0.70783 0.3817 0.0
C1152 C 0.107 0.72134 0.4202 0.0
C1153 C 0.09828 0.73272 0.38169 0.0
C1154 C 0.09103 0.70812 0.47068 0.0
C1155 C 0.12886 0.73672 0.44495 0.0
C1156 C 0.14444 0.7325 0.42448 0.0
C1157 C 0.16588 0.74494 0.44179 0.0
C1158 C 0.17151 0.76231 0.47997 0.0
C1159 C 0.15575 0.76711 0.49958 0.0
C1160 C 0.1342 0.75391 0.48229 0.0
H1161 H 0.4418 0.46851 0.28675 0.0
H1162 H 0.48789 0.4997 0.4283 0.0
H1163 H 0.45827 0.49204 0.4999 0.0
H1164 H 0.39669 0.47725 0.33914 0.0
H1165 H 0.37756 0.45055 0.318 0.0
H1166 H 0.40277 0.46501 0.27755 0.0
H1167 H 0.40825 0.43294 0.30169 0.0
H1168 H 0.38387 0.42021 0.34587 0.0
H1169 H 0.40895 0.42612 0.3792 0.0
H1170 H 0.42359 0.47972 0.55657 0.0
H1171 H 0.38703 0.45696 0.59988 0.0
H1172 H 0.36415 0.4284 0.42558 0.0
C1173 C 0.44554 0.47447 0.33225 0.0
C1174 C 0.46697 0.48586 0.35169 0.0
C1175 C 0.47148 0.49185 0.41249 0.0
C1176 C 0.45481 0.48762 0.45318 0.0
C1177 C 0.43372 0.4765 0.4327 0.0
C1178 C 0.42901 0.46946 0.374 0.0
C1179 C 0.40524 0.45381 0.36675 0.0
C1180 C 0.395 0.46218 0.32266 0.0
C1181 C 0.40137 0.43199 0.34726 0.0
C1182 C 0.39736 0.45321 0.43035 0.0
C1183 C 0.41388 0.46697 0.46722 0.0
C1184 C 0.4105 0.46894 0.52814 0.0
C1185 C 0.38976 0.45607 0.55228 0.0
C1186 C 0.37305 0.4411 0.51577 0.0
C1187 C 0.3768 0.43986 0.45408 0.0
H1188 H 0.69755 0.9721 0.43656 0.0
H1189 H 0.67443 0.97514 0.6143 0.0
H1190 H 0.65445 0.99118 0.57159 0.0
H1191 H 0.70881 0.02185 0.39203 0.0
H1192 H 0.70133 0.01531 0.31453 0.0
H1193 H 0.71024 0.00039 0.3571 0.0
H1194 H 0.67482 0.96548 0.33291 0.0
H1195 H 0.66607 0.98047 0.28953 0.0
H1196 H 0.64937 0.96344 0.34977 0.0
H1197 H 0.64028 0.01012 0.51184 0.0
H1198 H 0.63585 0.03372 0.44114 0.0
H1199 H 0.66965 0.02023 0.30261 0.0
C1200 C 0.68768 0.97556 0.46592 0.0
C1201 C 0.68641 0.97134 0.52811 0.0
C1202 C 0.67451 0.97719 0.56606 0.0
C1203 C 0.66324 0.98639 0.54221 0.0
C1204 C 0.66442 0.99001 0.4804 0.0
C1205 C 0.6765 0.98494 0.44277 0.0
C1206 C 0.67747 0.99302 0.37945 0.0
C1207 C 0.70084 0.00857 0.35966 0.0
C1208 C 0.66627 0.9745 0.33531 0.0
C1209 C 0.66479 0.00417 0.38785 0.0
C1210 C 0.65693 0.00175 0.44609 0.0
C1211 C 0.64599 0.0118 0.46587 0.0
C1212 C 0.6435 0.02509 0.42556 0.0
C1213 C 0.65201 0.02824 0.36656 0.0
C1214 C 0.66248 0.01746 0.34714 0.0
H1215 H 0.69702 0.1016 0.10472 0.0
H1216 H 0.72182 0.11883 0.28509 0.0
H1217 H 0.7588 0.13969 0.24409 0.0
H1218 H 0.73828 0.09337 0.05277 0.0
H1219 H 0.73942 0.10312 0.97763 0.0
H1220 H 0.71476 0.09192 0.02052 0.0
H1221 H 0.71365 0.12642 0.00552 0.0
H1222 H 0.73837 0.13764 0.96242 0.0
H1223 H 0.73645 0.15134 0.02712 0.0
H1224 H 0.79274 0.15399 0.18603 0.0
H1225 H 0.8219 0.16119 0.1135 0.0
H1226 H 0.77589 0.13691 0.96911 0.0
C1227 C 0.71028 0.11025 0.13515 0.0
C1228 C 0.70671 0.1095 0.19775 0.0
C1229 C 0.72433 0.12005 0.23682 0.0
C1230 C 0.74533 0.13185 0.21395 0.0
C1231 C 0.74839 0.13271 0.15188 0.0
C1232 C 0.73139 0.12215 0.11289 0.0
C1233 C 0.73934 0.12381 0.04867 0.0
C1234 C 0.73255 0.10175 0.02345 0.0
C1235 C 0.73147 0.13549 0.00853 0.0
C1236 C 0.76343 0.13681 0.05778 0.0
C1237 C 0.76827 0.1417 0.11777 0.0
C1238 C 0.78925 0.15095 0.13869 0.0
C1239 C 0.80568 0.15499 0.0974 0.0
C1240 C 0.8011 0.1505 0.03583 0.0
C1241 C 0.7798 0.14151 0.01563 0.0
H1242 H 0.99504 0.67355 0.91465 0.0
H1243 H 0.95451 0.6786 0.04998 0.0
H1244 H 0.96276 0.65778 0.12091 0.0
H1245 H 0.98485 0.61875 0.96435 0.0
H1246 H 0.01246 0.62654 0.94882 0.0
H1247 H -0.00074 0.63689 0.9035 0.0
H1248 H 0.02935 0.67512 0.92669 0.0
H1249 H 0.04276 0.66522 0.97225 0.0
H1250 H 0.03548 0.6834 0.00384 0.0
H1251 H 0.98219 0.64481 0.18333 0.0
H1252 H 0.00828 0.63667 0.22937 0.0
H1253 H 0.03573 0.63901 0.05379 0.0
C1254 C 0.98692 0.66906 0.95795 0.0
C1255 C 0.97356 0.67689 0.97651 0.0
C1256 C 0.96417 0.672 0.03462 0.0
C1257 C 0.96888 0.66031 0.07521 0.0
C1258 C 0.98298 0.65363 0.05676 0.0
C1259 C 0.99151 0.6574 -0.00102 0.0
C1260 C 0.00836 0.65098 0.99289 0.0
C1261 C 0.00078 0.63217 0.94984 0.0
C1262 C 0.03027 0.6698 0.97277 0.0
C1263 C 0.00899 0.64438 0.05699 0.0
C1264 C 0.99401 0.64571 0.09299 0.0
C1265 C 0.99335 0.64285 0.15517 0.0
C1266 C 0.00814 0.63818 0.18097 0.0
C1267 C 0.02311 0.63613 0.14455 0.0
C1268 C 0.02372 0.63957 0.08203 0.0
H1269 H 0.42361 0.35482 0.01946 0.0
H1270 H 0.4774 0.34723 0.96812 0.0
H1271 H 0.50168 0.37882 0.02909 0.0
H1272 H 0.45166 0.41102 0.01231 0.0
H1273 H 0.43699 0.41328 0.07508 0.0
H1274 H 0.42456 0.39007 0.0286 0.0
H1275 H 0.41703 0.36636 0.12295 0.0
H1276 H 0.42961 0.38953 0.16969 0.0
H1277 H 0.43902 0.37097 0.17069 0.0
H1278 H 0.51978 0.41205 0.09852 0.0
H1279 H 0.52965 0.44378 0.16123 0.0
H1280 H 0.46303 0.42786 0.16243 0.0
C1281 C 0.44049 0.35966 0.02095 0.0
C1282 C 0.44862 0.34851 0.9893 0.0
C1283 C 0.47086 0.35559 0.99208 0.0
C1284 C 0.4847 0.37344 0.02676 0.0
C1285 C 0.47599 0.38396 0.05794 0.0
C1286 C 0.45435 0.37728 0.05469 0.0
C1287 C 0.44867 0.39129 0.09031 0.0
C1288 C 0.43997 0.40205 0.04911 0.0
C1289 C 0.43264 0.37879 0.14144 0.0
C1290 C 0.47047 0.40705 0.11444 0.0
C1291 C 0.48614 0.40267 0.09599 0.0
C1292 C 0.50757 0.41554 0.11307 0.0
C1293 C 0.51303 0.43344 0.14888 0.0
C1294 C 0.49712 0.43829 0.16649 0.0
C1295 C 0.47562 0.42467 0.14952 0.0
H1296 H -0.00095 0.36111 0.4458 0.0
H1297 H 0.97261 0.32009 0.6015 0.0
H1298 H 0.98093 0.351 0.66485 0.0
H1299 H 0.04349 0.39797 0.52114 0.0
H1300 H 0.04679 0.42105 0.48231 0.0
H1301 H 0.03369 0.39575 0.44568 0.0
H1302 H -0.00011 0.39878 0.42757 0.0
H1303 H 0.01343 0.42446 0.46271 0.0
H1304 H 0.9875 0.40428 0.49028 0.0
H1305 H -0.00352 0.3861 0.71347 0.0
H1306 H 0.0203 0.42315 0.74539 0.0
H1307 H 0.03968 0.44197 0.56027 0.0
C1308 C 0.99414 0.35869 0.49268 0.0
C1309 C 0.9842 0.33827 0.51863 0.0
C1310 C 0.97945 0.33561 0.58083 0.0
C1311 C 0.98409 0.35305 0.61694 0.0
C1312 C 0.99421 0.37311 0.59041 0.0
C1313 C -0.0006 0.37608 0.52973 0.0
C1314 C 0.01393 0.39939 0.5148 0.0
C1315 C 0.03576 0.40378 0.48953 0.0
C1316 C 0.00302 0.40717 0.47121 0.0
C1317 C 0.01627 0.40899 0.57652 0.0
C1318 C 0.00442 0.39359 0.61927 0.0
C1319 C 0.00539 0.39836 0.68022 0.0
C1320 C 0.01884 0.4194 0.69795 0.0
C1321 C 0.031 0.43536 0.65488 0.0
C1322 C 0.02986 0.43007 0.59359 0.0
H1323 H 0.69516 0.65934 0.58514 0.0
H1324 H 0.71775 0.65717 0.7632 0.0
H1325 H 0.75504 0.6733 0.72303 0.0
H1326 H 0.72886 0.64484 0.50738 0.0
H1327 H 0.73562 0.66225 0.44306 0.0
H1328 H 0.70997 0.65193 0.48081 0.0
H1329 H 0.71484 0.68794 0.50481 0.0
H1330 H 0.73947 0.69989 0.46153 0.0
H1331 H 0.73948 0.70813 0.53788 0.0
H1332 H 0.78999 0.69658 0.66667 0.0
H1333 H 0.81972 0.71667 0.59336 0.0
H1334 H 0.77378 0.69711 0.44927 0.0
C1335 C 0.70796 0.6619 0.61526 0.0
C1336 C 0.70386 0.65711 0.67699 0.0
C1337 C 0.72077 0.66062 0.71557 0.0
C1338 C 0.74192 0.66988 0.69325 0.0
C1339 C 0.74556 0.67491 0.63216 0.0
C1340 C 0.72896 0.67049 0.59342 0.0
C1341 C 0.73708 0.67714 0.52963 0.0
C1342 C 0.72736 0.65792 0.48762 0.0
C1343 C 0.73244 0.69429 0.50719 0.0
C1344 C 0.76092 0.68617 0.53852 0.0
C1345 C 0.76556 0.68546 0.59839 0.0
C1346 C 0.7866 0.69631 0.61931 0.0
C1347 C 0.80332 0.70768 0.57765 0.0
C1348 C 0.7989 0.70713 0.5158 0.0
C1349 C 0.77748 0.69648 0.49604 0.0
H1350 H 0.43007 0.11052 0.48516 0.0
H1351 H 0.47525 0.17807 0.49359 0.0
H1352 H 0.49857 0.17131 0.5603 0.0
H1353 H 0.43315 0.09832 0.63427 0.0
H1354 H 0.43127 0.07329 0.61866 0.0
H1355 H 0.41935 0.08355 0.56832 0.0
H1356 H 0.44144 0.08122 0.47914 0.0
H1357 H 0.45327 0.0707 0.5291 0.0
H1358 H 0.47028 0.09401 0.48459 0.0
H1359 H 0.51474 0.15658 0.63538 0.0
H1360 H 0.52386 0.13535 0.70284 0.0
H1361 H 0.46823 0.07781 0.63938 0.0
C1362 C 0.44504 0.1239 0.50028 0.0
C1363 C 0.45091 0.14481 0.48452 0.0
C1364 C 0.47061 0.16191 0.50495 0.0
C1365 C 0.48385 0.15821 0.543 0.0
C1366 C 0.47725 0.13731 0.55902 0.0
C1367 C 0.45846 0.12047 0.53725 0.0
C1368 C 0.45453 0.09953 0.56153 0.0
C1369 C 0.43333 0.08801 0.59785 0.0
C1370 C 0.45491 0.08555 0.51055 0.0
C1371 C 0.47377 0.10715 0.60168 0.0
C1372 C 0.48674 0.12896 0.60002 0.0
C1373 C 0.50485 0.13948 0.63624 0.0
C1374 C 0.50985 0.12733 0.6746 0.0
C1375 C 0.49684 0.10495 0.67595 0.0
C1376 C 0.47866 0.09487 0.63882 0.0
H1377 H 0.39059 0.99176 0.0677 0.0
H1378 H 0.34882 0.94875 0.93183 0.0
H1379 H 0.38037 0.95868 0.86561 0.0
H1380 H 0.42156 0.03191 0.97665 0.0
H1381 H 0.44694 0.04102 0.01318 0.0
H1382 H 0.42233 0.02668 0.05554 0.0
H1383 H 0.43274 -0.00084 0.08776 0.0
H1384 H 0.45757 0.01338 0.04545 0.0
H1385 H 0.43933 0.98566 0.03133 0.0
H1386 H 0.41463 0.9791 0.80693 0.0
H1387 H 0.44933 0.00688 0.76302 0.0
H1388 H 0.46903 0.03604 0.93764 0.0
C1389 C 0.38837 0.98371 0.02523 0.0
C1390 C 0.36762 0.96914 0.005 0.0
C1391 C 0.36483 0.95952 0.94826 0.0
C1392 C 0.38262 0.96509 0.91051 0.0
C1393 C 0.40298 0.98017 0.93069 0.0
C1394 C 0.40599 0.98907 0.98729 0.0
C1395 C 0.42894 0.00686 0.99531 0.0
C1396 C 0.42998 0.02784 0.01104 0.0
C1397 C 0.44032 0.0009 0.04278 0.0
C1398 C 0.43795 0.00762 0.93317 0.0
C1399 C 0.42292 0.99182 0.89682 0.0
C1400 C 0.4268 0.99101 0.83554 0.0
C1401 C 0.4465 0.00675 0.81097 0.0
C1402 C 0.46203 0.02282 0.84784 0.0
C1403 C 0.45766 0.02328 0.9094 0.0
H1404 H 0.08852 0.44889 0.84629 0.0
H1405 H 0.1427 0.50957 0.79115 0.0
H1406 H 0.16662 0.50294 0.85601 0.0
H1407 H 0.1035 0.44987 -0.00057 0.0
H1408 H 0.09388 0.42186 0.00144 0.0
H1409 H 0.08155 0.43205 0.95224 0.0
H1410 H 0.08906 0.41468 0.86081 0.0
H1411 H 0.10125 0.4043 0.90973 0.0
H1412 H 0.11612 0.42049 0.84594 0.0
H1413 H 0.18426 0.48862 0.93013 0.0
H1414 H 0.19377 0.4673 0.99654 0.0
H1415 H 0.12722 0.41646 -0.00305 0.0
C1416 C 0.1054 0.46093 0.8478 0.0
C1417 C 0.11375 0.47982 0.81396 0.0
C1418 C 0.13599 0.49497 0.8168 0.0
C1419 C 0.14963 0.49136 0.8537 0.0
C1420 C 0.1407 0.4725 0.88696 0.0
C1421 C 0.11907 0.45753 0.88362 0.0
C1422 C 0.11316 0.43819 0.92136 0.0
C1423 C 0.09708 0.43534 0.97159 0.0
C1424 C 0.10439 0.41825 0.88211 0.0
C1425 C 0.13486 0.44438 0.94653 0.0
C1426 C 0.15064 0.46428 0.92714 0.0
C1427 C 0.17197 0.47303 0.94535 0.0
C1428 C 0.17723 0.4609 0.98324 0.0
C1429 C 0.16123 0.44024 0.0015 0.0
C1430 C 0.13983 0.43216 0.98338 0.0
H1431 H 0.64614 0.67695 0.91173 0.0
H1432 H 0.65576 0.70462 0.73408 0.0
H1433 H 0.66586 0.73926 0.77917 0.0
H1434 H 0.62644 0.7112 0.98657 0.0
H1435 H 0.64019 0.71231 0.05484 0.0
H1436 H 0.6293 0.68905 0.00822 0.0
H1437 H 0.66691 0.69264 0.00319 0.0
H1438 H 0.67791 0.71602 0.04864 0.0
H1439 H 0.68962 0.71702 0.97588 0.0
H1440 H 0.6824 0.77154 0.84197 0.0
H1441 H 0.7019 0.79905 0.91858 0.0
H1442 H 0.67963 0.75067 0.057 0.0
C1443 C 0.64954 0.69018 0.88266 0.0
C1444 C 0.64946 0.68815 0.8197 0.0
C1445 C 0.65494 0.70583 0.78246 0.0
C1446 C 0.66074 0.72552 0.80772 0.0
C1447 C 0.6609 0.72713 0.87021 0.0
C1448 C 0.65507 0.70984 0.90728 0.0
C1449 C 0.65884 0.71625 0.97275 0.0
C1450 C 0.63742 0.70663 0.00765 0.0
C1451 C 0.67424 0.71013 0.00176 0.0
C1452 C 0.6691 0.74004 0.96651 0.0
C1453 C 0.66987 0.74595 0.90699 0.0
C1454 C 0.68122 0.76713 0.88888 0.0
C1455 C 0.69232 0.78261 0.93248 0.0
C1456 C 0.69171 0.77683 0.99337 0.0
C1457 C 0.67958 0.75538 0.01088 0.0
H1458 H 0.74351 0.0111 0.73571 0.0
H1459 H 0.79392 0.00097 0.66639 0.0
H1460 H 0.82091 0.03235 0.72332 0.0
H1461 H 0.77219 0.06635 0.72389 0.0
H1462 H 0.76052 0.0702 0.79118 0.0
H1463 H 0.74568 0.04625 0.7487 0.0
H1464 H 0.74152 0.02398 0.84399 0.0
H1465 H 0.75645 0.04792 0.88679 0.0
H1466 H 0.76515 0.02882 0.88414 0.0
H1467 H 0.84244 0.06654 0.78686 0.0
H1468 H 0.8558 0.10008 0.8439 0.0
H1469 H 0.79022 0.08623 0.867 0.0
C1470 C 0.76018 0.01525 0.73267 0.0
C1471 C 0.76661 0.00356 0.69672 0.0
C1472 C 0.78865 0.00972 0.69383 0.0
C1473 C 0.80404 0.02746 0.72614 0.0
C1474 C 0.79705 0.03872 0.76102 0.0
C1475 C 0.77556 0.03274 0.76413 0.0
C1476 C 0.77189 0.04775 0.80172 0.0
C1477 C 0.762 0.05826 0.76411 0.0
C1478 C 0.75793 0.03644 0.85746 0.0
C1479 C 0.79471 0.06345 0.8188 0.0
C1480 C 0.80912 0.05802 0.79584 0.0
C1481 C 0.83122 0.07081 0.80519 0.0
C1482 C 0.83868 0.08975 0.83777 0.0
C1483 C 0.82402 0.09571 0.85959 0.0
C1484 C 0.80183 0.08214 0.85069 0.0
H1485 H 0.10262 0.80244 0.62176 0.0
H1486 H 0.14724 0.82346 0.76939 0.0
H1487 H 0.11731 0.814 0.84142 0.0
H1488 H 0.06083 0.81343 0.68519 0.0
H1489 H 0.03949 0.78878 0.65676 0.0
H1490 H 0.06491 0.80252 0.61704 0.0
H1491 H 0.06727 0.76838 0.6235 0.0
H1492 H 0.04226 0.75505 0.66476 0.0
H1493 H 0.06606 0.75689 0.69617 0.0
H1494 H 0.0825 0.79787 0.89777 0.0
H1495 H 0.04512 0.77441 0.93446 0.0
H1496 H 0.02305 0.76136 0.7508 0.0
C1497 C 0.10606 0.80593 0.66903 0.0
C1498 C 0.12716 0.81466 0.69034 0.0
C1499 C 0.13114 0.81753 0.75263 0.0
C1500 C 0.1143 0.81225 0.79362 0.0
C1501 C 0.09351 0.80338 0.7715 0.0
C1502 C 0.08929 0.80001 0.71063 0.0
C1503 C 0.0654 0.7865 0.69948 0.0
C1504 C 0.05719 0.79854 0.66234 0.0
C1505 C 0.05994 0.76547 0.66923 0.0
C1506 C 0.05689 0.78295 0.76334 0.0
C1507 C 0.0733 0.793 0.80426 0.0
C1508 C 0.06946 0.79041 0.86615 0.0
C1509 C 0.04826 0.77721 0.88663 0.0
C1510 C 0.03135 0.76704 0.84524 0.0
C1511 C 0.03574 0.76977 0.78306 0.0
H1512 H 0.33568 0.3467 0.60904 0.0
H1513 H 0.31028 0.36518 0.75882 0.0
H1514 H 0.31749 0.34302 0.82736 0.0
H1515 H 0.32239 0.29204 0.66396 0.0
H1516 H 0.34807 0.29675 0.63756 0.0
H1517 H 0.33495 0.30864 0.59881 0.0
H1518 H 0.36953 0.34541 0.61255 0.0
H1519 H 0.38202 0.33339 0.65321 0.0
H1520 H 0.37941 0.3543 0.68732 0.0
H1521 H 0.33176 0.32345 0.88146 0.0
H1522 H 0.35496 0.31027 0.91901 0.0
H1523 H 0.37438 0.30703 0.73646 0.0
C1524 C 0.33068 0.3451 0.65575 0.0
C1525 C 0.32127 0.3565 0.67852 0.0
C1526 C 0.3166 0.35569 0.74057 0.0
C1527 C 0.32061 0.34315 0.77964 0.0
C1528 C 0.33008 0.33217 0.7562 0.0
C1529 C 0.33533 0.33321 0.69575 0.0
C1530 C 0.34933 0.3236 0.68437 0.0
C1531 C 0.33799 0.30411 0.64371 0.0
C1532 C 0.37137 0.34017 0.65783 0.0
C1533 C 0.35139 0.31736 0.74779 0.0
C1534 C 0.33974 0.32199 0.7883 0.0
C1535 C 0.3405 0.31925 0.85006 0.0
C1536 C 0.3536 0.31168 0.87099 0.0
C1537 C 0.36563 0.30687 0.83027 0.0
C1538 C 0.36465 0.30989 0.76807 0.0
H1539 H 0.05877 0.32828 0.40781 0.0
H1540 H 0.01448 0.28323 0.27951 0.0
H1541 H 0.04401 0.29522 0.20465 0.0
H1542 H 0.08676 0.36924 0.31341 0.0
H1543 H 0.11322 0.37885 0.34344 0.0
H1544 H 0.08991 0.36422 0.39093 0.0
H1545 H 0.10178 0.33729 0.41616 0.0
H1546 H 0.12534 0.3517 0.36892 0.0
H1547 H 0.10701 0.3239 0.35632 0.0
H1548 H 0.07531 0.31803 0.13818 0.0
H1549 H 0.10926 0.345 0.08927 0.0
H1550 H 0.13469 0.37286 0.26249 0.0
C1551 C 0.05567 0.3203 0.36494 0.0
C1552 C 0.03469 0.30459 0.34927 0.0
C1553 C 0.03071 0.29492 0.29229 0.0
C1554 C 0.04731 0.30172 0.24955 0.0
C1555 C 0.06777 0.3179 0.2653 0.0
C1556 C 0.07221 0.32659 0.32227 0.0
C1557 C 0.09525 0.34468 0.32627 0.0
C1558 C 0.09632 0.36546 0.34457 0.0
C1559 C 0.10811 0.33906 0.36947 0.0
C1560 C 0.10261 0.34561 0.26187 0.0
C1561 C 0.08649 0.33007 0.2274 0.0
C1562 C 0.08845 0.32956 0.16513 0.0
C1563 C 0.10774 0.34483 0.13778 0.0
C1564 C 0.12489 0.35992 0.17285 0.0
C1565 C 0.1221 0.36068 0.23535 0.0
H1566 H 0.8063 0.7751 0.37133 0.0
H1567 H 0.85514 0.78476 0.24009 0.0
H1568 H 0.84371 0.80474 0.17492 0.0
H1569 H 0.76614 0.76555 0.27524 0.0
H1570 H 0.75567 0.77962 0.31632 0.0
H1571 H 0.76976 0.76895 0.35537 0.0
H1572 H 0.79631 0.80616 0.39757 0.0
H1573 H 0.78236 0.81708 0.35838 0.0
H1574 H 0.81083 0.82819 0.34653 0.0
H1575 H 0.82211 0.81757 0.11711 0.0
H1576 H 0.79464 0.82497 0.07657 0.0
H1577 H 0.76239 0.80971 0.24981 0.0
C1578 C 0.81496 0.78202 0.32965 0.0
C1579 C 0.83163 0.77869 0.3105 0.0
C1580 C 0.8425 0.78753 0.2555 0.0
C1581 C 0.83609 0.79883 0.21836 0.0
C1582 C 0.81918 0.80151 0.23789 0.0
C1583 C 0.80912 0.79375 0.293 0.0
C1584 C 0.79065 0.79763 0.30245 0.0
C1585 C 0.76931 0.77669 0.31291 0.0
C1586 C 0.79532 0.81319 0.35432 0.0
C1587 C 0.791 0.80764 0.24273 0.0
C1588 C 0.80766 0.80997 0.20606 0.0
C1589 C 0.80955 0.8166 0.14626 0.0
C1590 C 0.79402 0.82091 0.12365 0.0
C1591 C 0.77722 0.81901 0.1612 0.0
C1592 C 0.77573 0.81224 0.2212 0.0
H1593 H 0.32537 0.00662 0.24659 0.0
H1594 H 0.33172 0.02911 0.06329 0.0
H1595 H 0.3435 0.06517 0.10032 0.0
H1596 H 0.30729 0.04083 0.31552 0.0
H1597 H 0.32304 0.0456 0.38223 0.0
H1598 H 0.31274 0.02091 0.3425 0.0
H1599 H 0.35095 0.02669 0.33127 0.0
H1600 H 0.3615 0.0511 0.37207 0.0
H1601 H 0.37203 0.05102 0.29833 0.0
H1602 H 0.36006 0.09912 0.15546 0.0
H1603 H 0.37927 0.12893 0.22582 0.0
H1604 H 0.35989 0.08478 0.37487 0.0
C1605 C 0.32869 0.0191 0.21461 0.0
C1606 C 0.3268 0.0151 0.15232 0.0
C1607 C 0.33223 0.03183 0.11126 0.0
C1608 C 0.33899 0.05231 0.1319 0.0
C1609 C 0.34036 0.05575 0.19374 0.0
C1610 C 0.33534 0.03962 0.23459 0.0
C1611 C 0.34017 0.04796 0.29829 0.0
C1612 C 0.31958 0.03825 0.33696 0.0
C1613 C 0.35717 0.04396 0.32662 0.0
C1614 C 0.34903 0.07136 0.28683 0.0
C1615 C 0.34906 0.07549 0.22608 0.0
C1616 C 0.35939 0.09609 0.20327 0.0
C1617 C 0.37022 0.11289 0.24338 0.0
C1618 C 0.36993 0.10903 0.30569 0.0
C1619 C 0.3591 0.08805 0.32777 0.0
loop_
_geom_bond_atom_site_label_1
_geom_bond_atom_site_label_2
_geom_bond_distance
_geom_bond_site_symmetry_2
_ccdc_geom_bond_type
Mn0 O5 2.095 . S
Mn0 O15 2.162 . S
Mn0 O16 2.297 . S
Mn0 O24 2.385 . S
Mn0 O25 2.209 . S
Mn0 O26 2.094 . S
Mn1 O6 2.121 . S
Mn1 N8 2.257 1_455 S
Mn1 N17 2.282 . S
Mn1 O25 2.215 . S
Mn1 O27 2.117 . S
C2 O24 1.234 . S
C2 O25 1.283 . S
C3 O15 1.281 . S
C3 O16 1.236 . S
C4 O26 1.240 . S
C4 O27 1.264 . S
O5 Mn0 2.095 . S
O5 C14 1.250 . S
O6 Mn1 2.121 . S
O6 C14 1.258 . S
C7 N8 1.326 . S
C7 C11 1.460 . S
C7 H13 0.929 . S
N8 Mn1 2.257 1_655 S
N8 C7 1.326 . S
N8 C12 1.362 . S
C9 C10 1.258 . S
C9 C12 1.431 . S
C9 C29 1.449 . S
C10 C9 1.258 . S
C10 C11 1.477 . S
C10 H30 0.931 . S
C11 C7 1.460 . S
C11 C10 1.477 . S
C11 H31 0.930 . S
C12 N8 1.362 . S
C12 C9 1.431 . S
C12 C22 1.476 . S
H13 C7 0.929 . S
C14 O5 1.250 . S
C14 O6 1.258 . S
O15 Mn0 2.162 . S
O15 C3 1.281 . S
O16 Mn0 2.297 . S
O16 C3 1.236 . S
N17 Mn1 2.282 . S
N17 C18 1.328 . S
N17 C22 1.318 1_455 S
C18 N17 1.328 . S
C18 C19 1.457 . S
C18 H23 0.929 . S
C19 C18 1.457 . S
C19 C20 1.291 1_455 S
C19 H32 0.931 1_554 S
C20 C19 1.291 1_655 S
C20 C21 1.373 . S
C20 H33 0.929 1_554 S
C21 C20 1.373 . S
C21 C22 1.396 . S
C21 C28 1.403 . S
C22 C12 1.476 . S
C22 N17 1.318 1_655 S
C22 C21 1.396 . S
H23 C18 0.929 . S
O24 Mn0 2.385 . S
O24 C2 1.234 . S
O25 Mn0 2.209 . S
O25 Mn1 2.215 . S
O25 C2 1.283 . S
O26 Mn0 2.094 . S
O26 C4 1.240 . S
O27 Mn1 2.117 . S
O27 C4 1.264 . S
C28 C21 1.403 . S
C28 C29 1.399 . S
C28 H34 0.929 . S
C29 C9 1.449 . S
C29 C28 1.399 . S
C29 H35 0.930 . S
H30 C10 0.931 . S
H31 C11 0.930 . S
H32 C19 0.931 1_556 S
H33 C20 0.929 1_556 S
H34 C28 0.929 . S
H35 C29 0.930 . S
Mn36 O41 2.095 . S
Mn36 O51 2.162 . S
Mn36 O52 2.297 . S
Mn36 O60 2.385 . S
Mn36 O61 2.209 . S
Mn36 O62 2.094 . S
Mn37 O42 2.121 . S
Mn37 N44 2.257 . S
Mn37 N53 2.282 . S
Mn37 O61 2.215 . S
Mn37 O63 2.117 . S
C38 O60 1.234 . S
C38 O61 1.283 . S
C39 O51 1.281 . S
C39 O52 1.236 . S
C40 O62 1.240 . S
C40 O63 1.264 . S
O41 Mn36 2.095 . S
O41 C50 1.250 . S
O42 Mn37 2.121 . S
O42 C50 1.258 . S
C43 N44 1.326 . S
C43 C47 1.460 . S
C43 H49 0.929 . S
N44 Mn37 2.257 . S
N44 C43 1.326 . S
N44 C48 1.362 . S
C45 C46 1.258 . S
C45 C48 1.431 . S
C45 C65 1.449 . S
C46 C45 1.258 . S
C46 C47 1.477 . S
C46 H66 0.931 . S
C47 C43 1.460 . S
C47 C46 1.477 . S
C47 H67 0.930 . S
C48 N44 1.362 . S
C48 C45 1.431 . S
C48 C58 1.476 . S
H49 C43 0.929 . S
C50 O41 1.250 . S
C50 O42 1.258 . S
O51 Mn36 2.162 . S
O51 C39 1.281 . S
O52 Mn36 2.297 . S
O52 C39 1.236 . S
N53 Mn37 2.282 . S
N53 C54 1.328 . S
N53 C58 1.318 . S
C54 N53 1.328 . S
C54 C55 1.457 . S
C54 H59 0.929 . S
C55 C54 1.457 . S
C55 C56 1.291 . S
C55 H68 0.931 . S
C56 C55 1.291 . S
C56 C57 1.373 . S
C56 H69 0.929 . S
C57 C56 1.373 . S
C57 C58 1.396 . S
C57 C64 1.403 . S
C58 C48 1.476 . S
C58 N53 1.318 . S
C58 C57 1.396 . S
H59 C54 0.929 . S
O60 Mn36 2.385 . S
O60 C38 1.234 . S
O61 Mn36 2.209 . S
O61 Mn37 2.215 . S
O61 C38 1.283 . S
O62 Mn36 2.094 . S
O62 C40 1.240 . S
O63 Mn37 2.117 . S
O63 C40 1.264 . S
C64 C57 1.403 . S
C64 C65 1.399 . S
C64 H70 0.929 . S
C65 C45 1.449 . S
C65 C64 1.399 . S
C65 H71 0.930 . S
H66 C46 0.931 . S
H67 C47 0.930 . S
H68 C55 0.931 . S
H69 C56 0.929 . S
H70 C64 0.929 . S
H71 C65 0.930 . S
Mn72 O77 2.095 . S
Mn72 O87 2.162 . S
Mn72 O88 2.297 . S
Mn72 O96 2.385 . S
Mn72 O97 2.209 . S
Mn72 O98 2.094 . S
Mn73 O78 2.121 . S
Mn73 N80 2.257 . S
Mn73 N89 2.282 . S
Mn73 O97 2.215 . S
Mn73 O99 2.117 . S
C74 O96 1.234 . S
C74 O97 1.283 . S
C75 O87 1.281 . S
C75 O88 1.236 . S
C76 O98 1.240 . S
C76 O99 1.264 . S
O77 Mn72 2.095 . S
O77 C86 1.250 . S
O78 Mn73 2.121 . S
O78 C86 1.258 . S
C79 N80 1.326 . S
C79 C83 1.460 . S
C79 H85 0.929 . S
N80 Mn73 2.257 . S
N80 C79 1.326 . S
N80 C84 1.362 . S
C81 C82 1.258 . S
C81 C84 1.431 . S
C81 C101 1.449 . S
C82 C81 1.258 . S
C82 C83 1.477 . S
C82 H102 0.931 . S
C83 C79 1.460 . S
C83 C82 1.477 . S
C83 H103 0.930 . S
C84 N80 1.362 . S
C84 C81 1.431 . S
C84 C94 1.476 . S
H85 C79 0.929 . S
C86 O77 1.250 . S
C86 O78 1.258 . S
O87 Mn72 2.162 . S
O87 C75 1.281 . S
O88 Mn72 2.297 . S
O88 C75 1.236 . S
N89 Mn73 2.282 . S
N89 C90 1.328 . S
N89 C94 1.318 . S
C90 N89 1.328 . S
C90 C91 1.457 . S
C90 H95 0.929 . S
C91 C90 1.457 . S
C91 C92 1.291 . S
C91 H104 0.931 . S
C92 C91 1.291 . S
C92 C93 1.373 . S
C92 H105 0.929 . S
C93 C92 1.373 . S
C93 C94 1.396 . S
C93 C100 1.403 . S
C94 C84 1.476 . S
C94 N89 1.318 . S
C94 C93 1.396 . S
H95 C90 0.929 . S
O96 Mn72 2.385 . S
O96 C74 1.234 . S
O97 Mn72 2.209 . S
O97 Mn73 2.215 . S
O97 C74 1.283 . S
O98 Mn72 2.094 . S
O98 C76 1.240 . S
O99 Mn73 2.117 . S
O99 C76 1.264 . S
C100 C93 1.403 . S
C100 C101 1.399 . S
C100 H106 0.929 . S
C101 C81 1.449 . S
C101 C100 1.399 . S
C101 H107 0.930 . S
H102 C82 0.931 . S
H103 C83 0.930 . S
H104 C91 0.931 . S
H105 C92 0.929 . S
H106 C100 0.929 . S
H107 C101 0.930 . S
Mn108 O113 2.095 . S
Mn108 O123 2.162 . S
Mn108 O124 2.297 . S
Mn108 O132 2.385 . S
Mn108 O133 2.209 . S
Mn108 O134 2.094 . S
Mn109 O114 2.121 . S
Mn109 N116 2.257 1_455 S
Mn109 N125 2.282 . S
Mn109 O133 2.215 . S
Mn109 O135 2.117 . S
C110 O132 1.234 . S
C110 O133 1.283 . S
C111 O123 1.281 . S
C111 O124 1.236 . S
C112 O134 1.240 . S
C112 O135 1.264 . S
O113 Mn108 2.095 . S
O113 C122 1.250 . S
O114 Mn109 2.121 . S
O114 C122 1.258 . S
C115 N116 1.326 . S
C115 C119 1.460 . S
C115 H121 0.929 . S
N116 Mn109 2.257 1_655 S
N116 C115 1.326 . S
N116 C120 1.362 . S
C117 C118 1.258 . S
C117 C120 1.431 . S
C117 C137 1.449 . S
C118 C117 1.258 . S
C118 C119 1.477 . S
C118 H138 0.931 . S
C119 C115 1.460 . S
C119 C118 1.477 . S
C119 H139 0.930 . S
C120 N116 1.362 . S
C120 C117 1.431 . S
C120 C130 1.476 . S
H121 C115 0.929 . S
C122 O113 1.250 . S
C122 O114 1.258 . S
O123 Mn108 2.162 . S
O123 C111 1.281 . S
O124 Mn108 2.297 . S
O124 C111 1.236 . S
N125 Mn109 2.282 . S
N125 C126 1.328 . S
N125 C130 1.318 1_455 S
C126 N125 1.328 . S
C126 C127 1.457 . S
C126 H131 0.929 . S
C127 C126 1.457 . S
C127 C128 1.291 1_455 S
C127 H140 0.931 . S
C128 C127 1.291 1_655 S
C128 C129 1.373 . S
C128 H141 0.929 . S
C129 C128 1.373 . S
C129 C130 1.396 . S
C129 C136 1.403 . S
C130 C120 1.476 . S
C130 N125 1.318 1_655 S
C130 C129 1.396 . S
H131 C126 0.929 . S
O132 Mn108 2.385 . S
O132 C110 1.234 . S
O133 Mn108 2.209 . S
O133 Mn109 2.215 . S
O133 C110 1.283 . S
O134 Mn108 2.094 . S
O134 C112 1.240 . S
O135 Mn109 2.117 . S
O135 C112 1.264 . S
C136 C129 1.403 . S
C136 C137 1.399 . S
C136 H142 0.929 . S
C137 C117 1.449 . S
C137 C136 1.399 . S
C137 H143 0.930 . S
H138 C118 0.931 . S
H139 C119 0.930 . S
H140 C127 0.931 . S
H141 C128 0.929 . S
H142 C136 0.929 . S
H143 C137 0.930 . S
Mn144 O149 2.095 . S
Mn144 O159 2.162 . S
Mn144 O160 2.297 . S
Mn144 O168 2.385 . S
Mn144 O169 2.209 . S
Mn144 O170 2.094 . S
Mn145 O150 2.121 . S
Mn145 N152 2.257 . S
Mn145 N161 2.282 . S
Mn145 O169 2.215 . S
Mn145 O171 2.117 . S
C146 O168 1.234 . S
C146 O169 1.283 . S
C147 O159 1.281 . S
C147 O160 1.236 . S
C148 O170 1.240 . S
C148 O171 1.264 . S
O149 Mn144 2.095 . S
O149 C158 1.250 . S
O150 Mn145 2.121 . S
O150 C158 1.258 . S
C151 N152 1.326 . S
C151 C155 1.460 . S
C151 H157 0.929 . S
N152 Mn145 2.257 . S
N152 C151 1.326 . S
N152 C156 1.362 . S
C153 C154 1.258 . S
C153 C156 1.431 . S
C153 C173 1.449 . S
C154 C153 1.258 . S
C154 C155 1.477 . S
C154 H174 0.931 . S
C155 C151 1.460 . S
C155 C154 1.477 . S
C155 H175 0.930 . S
C156 N152 1.362 . S
C156 C153 1.431 . S
C156 C166 1.476 . S
H157 C151 0.929 . S
C158 O149 1.250 . S
C158 O150 1.258 . S
O159 Mn144 2.162 . S
O159 C147 1.281 . S
O160 Mn144 2.297 . S
O160 C147 1.236 . S
N161 Mn145 2.282 . S
N161 C162 1.328 . S
N161 C166 1.318 . S
C162 N161 1.328 . S
C162 C163 1.457 . S
C162 H167 0.929 . S
C163 C162 1.457 . S
C163 C164 1.291 . S
C163 H176 0.931 . S
C164 C163 1.291 . S
C164 C165 1.373 . S
C164 H177 0.929 . S
C165 C164 1.373 . S
C165 C166 1.396 . S
C165 C172 1.403 . S
C166 C156 1.476 . S
C166 N161 1.318 . S
C166 C165 1.396 . S
H167 C162 0.929 . S
O168 Mn144 2.385 . S
O168 C146 1.234 . S
O169 Mn144 2.209 . S
O169 Mn145 2.215 . S
O169 C146 1.283 . S
O170 Mn144 2.094 . S
O170 C148 1.240 . S
O171 Mn145 2.117 . S
O171 C148 1.264 . S
C172 C165 1.403 . S
C172 C173 1.399 . S
C172 H178 0.929 . S
C173 C153 1.449 . S
C173 C172 1.399 . S
C173 H179 0.930 . S
H174 C154 0.931 . S
H175 C155 0.930 . S
H176 C163 0.931 . S
H177 C164 0.929 . S
H178 C172 0.929 . S
H179 C173 0.930 . S
Mn180 O185 2.095 . S
Mn180 O195 2.162 . S
Mn180 O196 2.297 . S
Mn180 O204 2.385 . S
Mn180 O205 2.209 . S
Mn180 O206 2.094 . S
Mn181 O186 2.121 . S
Mn181 N188 2.257 1_545 S
Mn181 N197 2.282 . S
Mn181 O205 2.215 . S
Mn181 O207 2.117 . S
C182 O204 1.234 . S
C182 O205 1.283 . S
C183 O195 1.281 . S
C183 O196 1.236 . S
C184 O206 1.240 . S
C184 O207 1.264 . S
O185 Mn180 2.095 . S
O185 C194 1.250 . S
O186 Mn181 2.121 . S
O186 C194 1.258 . S
C187 N188 1.326 . S
C187 C191 1.460 . S
C187 H193 0.929 . S
N188 Mn181 2.257 1_565 S
N188 C187 1.326 . S
N188 C192 1.362 . S
C189 C190 1.258 . S
C189 C192 1.431 . S
C189 C209 1.449 . S
C190 C189 1.258 . S
C190 C191 1.477 . S
C190 H210 0.931 . S
C191 C187 1.460 . S
C191 C190 1.477 . S
C191 H211 0.930 . S
C192 N188 1.362 . S
C192 C189 1.431 . S
C192 C202 1.476 . S
H193 C187 0.929 . S
C194 O185 1.250 . S
C194 O186 1.258 . S
O195 Mn180 2.162 . S
O195 C183 1.281 . S
O196 Mn180 2.297 . S
O196 C183 1.236 . S
N197 Mn181 2.282 . S
N197 C198 1.328 . S
N197 C202 1.318 1_545 S
C198 N197 1.328 . S
C198 C199 1.457 . S
C198 H203 0.929 . S
C199 C198 1.457 . S
C199 C200 1.291 1_545 S
C199 H212 0.931 1_556 S
C200 C199 1.291 1_565 S
C200 C201 1.373 . S
C200 H213 0.915 1_556 S
C201 C200 1.373 . S
C201 C202 1.396 . S
C201 C208 1.403 . S
C202 C192 1.476 . S
C202 N197 1.318 1_565 S
C202 C201 1.396 . S
H203 C198 0.929 . S
O204 Mn180 2.385 . S
O204 C182 1.234 . S
O205 Mn180 2.209 . S
O205 Mn181 2.215 . S
O205 C182 1.283 . S
O206 Mn180 2.094 . S
O206 C184 1.240 . S
O207 Mn181 2.117 . S
O207 C184 1.264 . S
C208 C201 1.403 . S
C208 C209 1.399 . S
C208 H214 0.929 . S
C209 C189 1.449 . S
C209 C208 1.399 . S
C209 H215 0.930 . S
H210 C190 0.931 . S
H211 C191 0.930 . S
H212 C199 0.931 1_554 S
H213 C200 0.915 1_554 S
H214 C208 0.929 . S
H215 C209 0.930 . S
Mn216 O221 2.095 . S
Mn216 O231 2.162 . S
Mn216 O232 2.297 . S
Mn216 O240 2.385 . S
Mn216 O241 2.209 . S
Mn216 O242 2.094 . S
Mn217 O222 2.121 . S
Mn217 N224 2.257 . S
Mn217 N233 2.282 . S
Mn217 O241 2.215 . S
Mn217 O243 2.117 . S
C218 O240 1.234 . S
C218 O241 1.283 . S
C219 O231 1.281 1_545 S
C219 O232 1.236 1_545 S
C220 O242 1.240 . S
C220 O243 1.264 . S
O221 Mn216 2.095 . S
O221 C230 1.250 . S
O222 Mn217 2.121 . S
O222 C230 1.258 . S
C223 N224 1.326 . S
C223 C227 1.460 . S
C223 H229 0.929 . S
N224 Mn217 2.257 . S
N224 C223 1.326 . S
N224 C228 1.362 . S
C225 C226 1.258 . S
C225 C228 1.431 . S
C225 C245 1.449 . S
C226 C225 1.258 . S
C226 C227 1.477 . S
C226 H246 0.931 . S
C227 C223 1.460 . S
C227 C226 1.477 . S
C227 H247 0.930 . S
C228 N224 1.362 . S
C228 C225 1.431 . S
C228 C238 1.476 . S
H229 C223 0.929 . S
C230 O221 1.250 . S
C230 O222 1.258 . S
O231 Mn216 2.162 . S
O231 C219 1.281 1_565 S
O232 Mn216 2.297 . S
O232 C219 1.236 1_565 S
N233 Mn217 2.282 . S
N233 C234 1.328 . S
N233 C238 1.318 . S
C234 N233 1.328 . S
C234 C235 1.457 . S
C234 H239 0.929 . S
C235 C234 1.457 . S
C235 C236 1.291 . S
C235 H248 0.931 . S
C236 C235 1.291 . S
C236 C237 1.373 . S
C236 H249 0.929 . S
C237 C236 1.373 . S
C237 C238 1.396 . S
C237 C244 1.403 . S
C238 C228 1.476 . S
C238 N233 1.318 . S
C238 C237 1.396 . S
H239 C234 0.929 . S
O240 Mn216 2.385 . S
O240 C218 1.234 . S
O241 Mn216 2.209 . S
O241 Mn217 2.215 . S
O241 C218 1.283 . S
O242 Mn216 2.094 . S
O242 C220 1.240 . S
O243 Mn217 2.117 . S
O243 C220 1.264 . S
C244 C237 1.403 . S
C244 C245 1.399 . S
C244 H250 0.929 . S
C245 C225 1.449 . S
C245 C244 1.399 . S
C245 H251 0.930 . S
H246 C226 0.931 . S
H247 C227 0.930 . S
H248 C235 0.931 . S
H249 C236 0.929 . S
H250 C244 0.929 . S
H251 C245 0.930 . S
Mn252 O257 2.095 . S
Mn252 O267 2.162 . S
Mn252 O268 2.297 . S
Mn252 O276 2.385 . S
Mn252 O277 2.209 . S
Mn252 O278 2.094 . S
Mn253 O258 2.121 . S
Mn253 N260 2.257 . S
Mn253 N269 2.282 . S
Mn253 O277 2.215 . S
Mn253 O279 2.117 . S
C254 O276 1.234 . S
C254 O277 1.283 . S
C255 O267 1.281 . S
C255 O268 1.236 . S
C256 O278 1.240 . S
C256 O279 1.264 . S
O257 Mn252 2.095 . S
O257 C266 1.250 . S
O258 Mn253 2.121 . S
O258 C266 1.258 . S
C259 N260 1.326 . S
C259 C263 1.460 . S
C259 H265 0.929 . S
N260 Mn253 2.257 . S
N260 C259 1.326 . S
N260 C264 1.362 . S
C261 C262 1.258 . S
C261 C264 1.431 . S
C261 C281 1.449 . S
C262 C261 1.258 . S
C262 C263 1.477 . S
C262 H282 0.931 . S
C263 C259 1.460 . S
C263 C262 1.477 . S
C263 H283 0.930 . S
C264 N260 1.362 . S
C264 C261 1.431 . S
C264 C274 1.476 . S
H265 C259 0.929 . S
C266 O257 1.250 . S
C266 O258 1.258 . S
O267 Mn252 2.162 . S
O267 C255 1.281 . S
O268 Mn252 2.297 . S
O268 C255 1.236 . S
N269 Mn253 2.282 . S
N269 C270 1.328 . S
N269 C274 1.318 . S
C270 N269 1.328 . S
C270 C271 1.457 . S
C270 H275 0.929 . S
C271 C270 1.457 . S
C271 C272 1.291 . S
C271 H284 0.931 . S
C272 C271 1.291 . S
C272 C273 1.373 . S
C272 H285 0.929 . S
C273 C272 1.373 . S
C273 C274 1.396 . S
C273 C280 1.403 . S
C274 C264 1.476 . S
C274 N269 1.318 . S
C274 C273 1.396 . S
H275 C270 0.929 . S
O276 Mn252 2.385 . S
O276 C254 1.234 . S
O277 Mn252 2.209 . S
O277 Mn253 2.215 . S
O277 C254 1.283 . S
O278 Mn252 2.094 . S
O278 C256 1.240 . S
O279 Mn253 2.117 . S
O279 C256 1.264 . S
C280 C273 1.403 . S
C280 C281 1.399 . S
C280 H286 0.929 . S
C281 C261 1.449 . S
C281 C280 1.399 . S
C281 H287 0.930 . S
H282 C262 0.931 . S
H283 C263 0.930 . S
H284 C271 0.931 . S
H285 C272 0.929 . S
H286 C280 0.929 . S
H287 C281 0.930 . S
Mn288 O293 2.095 . S
Mn288 O303 2.162 . S
Mn288 O304 2.297 . S
Mn288 O312 2.385 . S
Mn288 O313 2.209 . S
Mn288 O314 2.094 . S
Mn289 O294 2.121 . S
Mn289 N296 2.257 . S
Mn289 N305 2.282 . S
Mn289 O313 2.215 . S
Mn289 O315 2.117 . S
C290 O312 1.234 . S
C290 O313 1.283 . S
C291 O303 1.281 . S
C291 O304 1.236 . S
C292 O314 1.240 . S
C292 O315 1.264 . S
O293 Mn288 2.095 . S
O293 C302 1.250 . S
O294 Mn289 2.121 . S
O294 C302 1.258 . S
C295 N296 1.326 . S
C295 C299 1.460 . S
C295 H301 0.929 . S
N296 Mn289 2.257 . S
N296 C295 1.326 . S
N296 C300 1.362 . S
C297 C298 1.258 . S
C297 C300 1.431 . S
C297 C317 1.449 . S
C298 C297 1.258 . S
C298 C299 1.477 . S
C298 H318 0.931 . S
C299 C295 1.460 . S
C299 C298 1.477 . S
C299 H319 0.930 . S
C300 N296 1.362 . S
C300 C297 1.431 . S
C300 C310 1.476 . S
H301 C295 0.929 . S
C302 O293 1.250 . S
C302 O294 1.258 . S
O303 Mn288 2.162 . S
O303 C291 1.281 . S
O304 Mn288 2.297 . S
O304 C291 1.236 . S
N305 Mn289 2.282 . S
N305 C306 1.328 . S
N305 C310 1.318 . S
C306 N305 1.328 . S
C306 C307 1.457 . S
C306 H311 0.929 . S
C307 C306 1.457 . S
C307 C308 1.291 . S
C307 H320 0.931 . S
C308 C307 1.291 . S
C308 C309 1.373 . S
C308 H321 0.929 . S
C309 C308 1.373 . S
C309 C310 1.396 . S
C309 C316 1.403 . S
C310 C300 1.476 . S
C310 N305 1.318 . S
C310 C309 1.396 . S
H311 C306 0.929 . S
O312 Mn288 2.385 . S
O312 C290 1.234 . S
O313 Mn288 2.209 . S
O313 Mn289 2.215 . S
O313 C290 1.283 . S
O314 Mn288 2.094 . S
O314 C292 1.240 . S
O315 Mn289 2.117 . S
O315 C292 1.264 . S
C316 C309 1.403 . S
C316 C317 1.399 . S
C316 H322 0.929 . S
C317 C297 1.449 . S
C317 C316 1.399 . S
C317 H323 0.930 . S
H318 C298 0.931 . S
H319 C299 0.930 . S
H320 C307 0.931 . S
H321 C308 0.929 . S
H322 C316 0.929 . S
H323 C317 0.930 . S
Mn324 O329 2.095 . S
Mn324 O339 2.162 . S
Mn324 O340 2.297 . S
Mn324 O348 2.385 . S
Mn324 O349 2.209 . S
Mn324 O350 2.094 . S
Mn325 O330 2.121 . S
Mn325 N332 2.257 . S
Mn325 N341 2.282 . S
Mn325 O349 2.215 . S
Mn325 O351 2.117 . S
C326 O348 1.234 . S
C326 O349 1.283 . S
C327 O339 1.281 . S
C327 O340 1.236 . S
C328 O350 1.240 . S
C328 O351 1.264 . S
O329 Mn324 2.095 . S
O329 C338 1.250 1_554 S
O330 Mn325 2.121 . S
O330 C338 1.258 1_554 S
C331 N332 1.326 . S
C331 C335 1.460 . S
C331 H337 0.929 1_554 S
N332 Mn325 2.257 . S
N332 C331 1.326 . S
N332 C336 1.362 . S
C333 C334 1.258 . S
C333 C336 1.431 . S
C333 C353 1.449 . S
C334 C333 1.258 . S
C334 C335 1.477 . S
C334 H354 0.931 . S
C335 C331 1.460 . S
C335 C334 1.477 . S
C335 H355 0.930 1_554 S
C336 N332 1.362 . S
C336 C333 1.431 . S
C336 C346 1.476 . S
H337 C331 0.929 1_556 S
C338 O329 1.250 1_556 S
C338 O330 1.258 1_556 S
O339 Mn324 2.162 . S
O339 C327 1.281 . S
O340 Mn324 2.297 . S
O340 C327 1.236 . S
N341 Mn325 2.282 . S
N341 C342 1.328 . S
N341 C346 1.318 . S
C342 N341 1.328 . S
C342 C343 1.457 . S
C342 H347 0.929 . S
C343 C342 1.457 . S
C343 C344 1.291 . S
C343 H356 0.931 . S
C344 C343 1.291 . S
C344 C345 1.373 . S
C344 H357 0.929 . S
C345 C344 1.373 . S
C345 C346 1.396 . S
C345 C352 1.403 . S
C346 C336 1.476 . S
C346 N341 1.318 . S
C346 C345 1.396 . S
H347 C342 0.929 . S
O348 Mn324 2.385 . S
O348 C326 1.234 . S
O349 Mn324 2.209 . S
O349 Mn325 2.215 . S
O349 C326 1.283 . S
O350 Mn324 2.094 . S
O350 C328 1.240 . S
O351 Mn325 2.117 . S
O351 C328 1.264 . S
C352 C345 1.403 . S
C352 C353 1.399 . S
C352 H358 0.929 . S
C353 C333 1.449 . S
C353 C352 1.399 . S
C353 H359 0.930 . S
H354 C334 0.931 . S
H355 C335 0.930 1_556 S
H356 C343 0.931 . S
H357 C344 0.929 . S
H358 C352 0.929 . S
H359 C353 0.930 . S
Mn360 O365 2.095 . S
Mn360 O375 2.162 . S
Mn360 O376 2.297 . S
Mn360 O384 2.385 . S
Mn360 O385 2.209 . S
Mn360 O386 2.094 . S
Mn361 O366 2.121 . S
Mn361 N368 2.257 . S
Mn361 N377 2.282 . S
Mn361 O385 2.215 . S
Mn361 O387 2.117 . S
C362 O384 1.236 . S
C362 O385 1.284 . S
C363 O375 1.281 . S
C363 O376 1.236 . S
C364 O386 1.240 . S
C364 O387 1.264 . S
O365 Mn360 2.095 . S
O365 C374 1.250 . S
O366 Mn361 2.121 . S
O366 C374 1.258 . S
C367 N368 1.326 . S
C367 C371 1.460 1_565 S
C367 H373 0.929 . S
N368 Mn361 2.257 . S
N368 C367 1.326 . S
N368 C372 1.321 1_565 S
C369 C370 1.258 . S
C369 C372 1.491 . S
C369 C389 1.449 . S
C370 C369 1.258 . S
C370 C371 1.477 . S
C370 H390 0.931 . S
C371 C367 1.460 1_545 S
C371 C370 1.477 . S
C371 H391 0.930 1_554 S
C372 N368 1.321 1_545 S
C372 C369 1.491 . S
C372 C382 1.460 1_545 S
H373 C367 0.929 . S
C374 O365 1.250 . S
C374 O366 1.258 . S
O375 Mn360 2.162 . S
O375 C363 1.281 . S
O376 Mn360 2.297 . S
O376 C363 1.236 . S
N377 Mn361 2.282 . S
N377 C378 1.328 . S
N377 C382 1.318 . S
C378 N377 1.328 . S
C378 C379 1.457 . S
C378 H383 0.929 . S
C379 C378 1.457 . S
C379 C380 1.291 1_565 S
C379 H392 0.931 . S
C380 C379 1.291 1_545 S
C380 C381 1.373 . S
C380 H393 0.929 . S
C381 C380 1.373 . S
C381 C382 1.396 1_545 S
C381 C388 1.403 . S
C382 C372 1.460 1_565 S
C382 N377 1.318 . S
C382 C381 1.396 1_565 S
H383 C378 0.929 . S
O384 Mn360 2.385 . S
O384 C362 1.236 . S
O385 Mn360 2.209 . S
O385 Mn361 2.215 . S
O385 C362 1.284 . S
O386 Mn360 2.094 . S
O386 C364 1.240 . S
O387 Mn361 2.117 . S
O387 C364 1.264 . S
C388 C381 1.403 . S
C388 C389 1.399 . S
C388 H394 0.929 . S
C389 C369 1.449 . S
C389 C388 1.399 . S
C389 H395 0.930 . S
H390 C370 0.931 . S
H391 C371 0.930 1_556 S
H392 C379 0.931 . S
H393 C380 0.929 . S
H394 C388 0.929 . S
H395 C389 0.930 . S
Mn396 O401 2.095 . S
Mn396 O411 2.162 . S
Mn396 O412 2.297 . S
Mn396 O420 2.385 . S
Mn396 O421 2.209 . S
Mn396 O422 2.094 . S
Mn397 O402 2.121 . S
Mn397 N404 2.257 . S
Mn397 N413 2.282 . S
Mn397 O421 2.215 . S
Mn397 O423 2.117 . S
C398 O420 1.234 . S
C398 O421 1.283 . S
C399 O411 1.281 . S
C399 O412 1.236 . S
C400 O422 1.240 . S
C400 O423 1.264 . S
O401 Mn396 2.095 . S
O401 C410 1.250 . S
O402 Mn397 2.121 . S
O402 C410 1.258 . S
C403 N404 1.326 . S
C403 C407 1.460 . S
C403 H409 0.929 . S
N404 Mn397 2.257 . S
N404 C403 1.326 . S
N404 C408 1.362 . S
C405 C406 1.258 . S
C405 C408 1.431 . S
C405 C425 1.449 . S
C406 C405 1.258 . S
C406 C407 1.477 . S
C406 H426 0.931 . S
C407 C403 1.460 . S
C407 C406 1.477 . S
C407 H427 0.930 . S
C408 N404 1.362 . S
C408 C405 1.431 . S
C408 C418 1.476 . S
H409 C403 0.929 . S
C410 O401 1.250 . S
C410 O402 1.258 . S
O411 Mn396 2.162 . S
O411 C399 1.281 . S
O412 Mn396 2.297 . S
O412 C399 1.236 . S
N413 Mn397 2.282 . S
N413 C414 1.328 . S
N413 C418 1.318 . S
C414 N413 1.328 . S
C414 C415 1.457 . S
C414 H419 0.929 . S
C415 C414 1.457 . S
C415 C416 1.291 . S
C415 H428 0.931 . S
C416 C415 1.291 . S
C416 C417 1.373 . S
C416 H429 0.929 . S
C417 C416 1.373 . S
C417 C418 1.396 . S
C417 C424 1.403 . S
C418 C408 1.476 . S
C418 N413 1.318 . S
C418 C417 1.396 . S
H419 C414 0.929 . S
O420 Mn396 2.385 . S
O420 C398 1.234 . S
O421 Mn396 2.209 . S
O421 Mn397 2.215 . S
O421 C398 1.283 . S
O422 Mn396 2.094 . S
O422 C400 1.240 . S
O423 Mn397 2.117 . S
O423 C400 1.264 . S
C424 C417 1.403 . S
C424 C425 1.399 . S
C424 H430 0.929 . S
C425 C405 1.449 . S
C425 C424 1.399 . S
C425 H431 0.930 . S
H426 C406 0.931 . S
H427 C407 0.930 . S
H428 C415 0.931 . S
H429 C416 0.929 . S
H430 C424 0.929 . S
H431 C425 0.930 . S
Mn432 O437 2.095 . S
Mn432 O447 2.162 . S
Mn432 O448 2.297 . S
Mn432 O456 2.385 . S
Mn432 O457 2.209 . S
Mn432 O458 2.094 . S
Mn433 O438 2.121 . S
Mn433 N440 2.257 . S
Mn433 N449 2.282 . S
Mn433 O457 2.215 . S
Mn433 O459 2.117 . S
C434 O456 1.234 . S
C434 O457 1.283 . S
C435 O447 1.281 . S
C435 O448 1.236 . S
C436 O458 1.240 . S
C436 O459 1.264 . S
O437 Mn432 2.095 . S
O437 C446 1.250 . S
O438 Mn433 2.121 . S
O438 C446 1.258 . S
C439 N440 1.326 . S
C439 C443 1.460 . S
C439 H445 0.929 . S
N440 Mn433 2.257 . S
N440 C439 1.326 . S
N440 C444 1.362 . S
C441 C442 1.258 . S
C441 C444 1.431 . S
C441 C461 1.449 . S
C442 C441 1.258 . S
C442 C443 1.477 . S
C442 H462 0.931 . S
C443 C439 1.460 . S
C443 C442 1.477 . S
C443 H463 0.933 . S
C444 N440 1.362 . S
C444 C441 1.431 . S
C444 C454 1.476 . S
H445 C439 0.929 . S
C446 O437 1.250 . S
C446 O438 1.258 . S
O447 Mn432 2.162 . S
O447 C435 1.281 . S
O448 Mn432 2.297 . S
O448 C435 1.236 . S
N449 Mn433 2.282 . S
N449 C450 1.328 . S
N449 C454 1.318 . S
C450 N449 1.328 . S
C450 C451 1.457 . S
C450 H455 0.929 . S
C451 C450 1.457 . S
C451 C452 1.291 . S
C451 H464 0.931 . S
C452 C451 1.291 . S
C452 C453 1.373 . S
C452 H465 0.929 . S
C453 C452 1.373 . S
C453 C454 1.396 . S
C453 C460 1.403 . S
C454 C444 1.476 . S
C454 N449 1.318 . S
C454 C453 1.396 . S
H455 C450 0.929 . S
O456 Mn432 2.385 . S
O456 C434 1.234 . S
O457 Mn432 2.209 . S
O457 Mn433 2.215 . S
O457 C434 1.283 . S
O458 Mn432 2.094 . S
O458 C436 1.240 . S
O459 Mn433 2.117 . S
O459 C436 1.264 . S
C460 C453 1.403 . S
C460 C461 1.399 . S
C460 H466 0.929 . S
C461 C441 1.449 . S
C461 C460 1.399 . S
C461 H467 0.930 . S
H462 C442 0.931 . S
H463 C443 0.933 . S
H464 C451 0.931 . S
H465 C452 0.929 . S
H466 C460 0.929 . S
H467 C461 0.930 . S
Mn468 O473 2.095 . S
Mn468 O483 2.162 . S
Mn468 O484 2.297 . S
Mn468 O492 2.385 1_556 S
Mn468 O493 2.209 . S
Mn468 O494 2.094 1_556 S
Mn469 O474 2.121 . S
Mn469 N476 2.257 . S
Mn469 N485 2.282 1_556 S
Mn469 O493 2.215 . S
Mn469 O495 2.117 1_556 S
C470 O492 1.234 1_556 S
C470 O493 1.283 . S
C471 O483 1.281 . S
C471 O484 1.236 . S
C472 O494 1.240 . S
C472 O495 1.264 . S
O473 Mn468 2.095 . S
O473 C482 1.250 . S
O474 Mn469 2.121 . S
O474 C482 1.258 . S
C475 N476 1.326 . S
C475 C479 1.460 . S
C475 H481 0.929 . S
N476 Mn469 2.257 . S
N476 C475 1.326 . S
N476 C480 1.352 1_556 S
C477 C478 1.258 . S
C477 C480 1.429 1_556 S
C477 C497 1.449 1_556 S
C478 C477 1.258 . S
C478 C479 1.477 . S
C478 H498 0.931 . S
C479 C475 1.460 . S
C479 C478 1.477 . S
C479 H499 0.930 . S
C480 N476 1.352 1_554 S
C480 C477 1.429 1_554 S
C480 C490 1.489 . S
H481 C475 0.929 . S
C482 O473 1.250 . S
C482 O474 1.258 . S
O483 Mn468 2.162 . S
O483 C471 1.281 . S
O484 Mn468 2.297 . S
O484 C471 1.236 . S
N485 Mn469 2.282 1_554 S
N485 C486 1.328 . S
N485 C490 1.318 . S
C486 N485 1.328 . S
C486 C487 1.457 . S
C486 H491 0.929 . S
C487 C486 1.457 . S
C487 C488 1.291 . S
C487 H500 0.931 . S
C488 C487 1.291 . S
C488 C489 1.373 . S
C488 H501 0.929 . S
C489 C488 1.373 . S
C489 C490 1.396 . S
C489 C496 1.403 . S
C490 C480 1.489 . S
C490 N485 1.318 . S
C490 C489 1.396 . S
H491 C486 0.929 . S
O492 Mn468 2.385 1_554 S
O492 C470 1.234 1_554 S
O493 Mn468 2.209 . S
O493 Mn469 2.215 . S
O493 C470 1.283 . S
O494 Mn468 2.094 1_554 S
O494 C472 1.240 . S
O495 Mn469 2.117 1_554 S
O495 C472 1.264 . S
C496 C489 1.403 . S
C496 C497 1.399 . S
C496 H502 0.929 . S
C497 C477 1.449 1_554 S
C497 C496 1.399 . S
C497 H503 0.930 . S
H498 C478 0.931 . S
H499 C479 0.930 . S
H500 C487 0.931 . S
H501 C488 0.929 . S
H502 C496 0.929 . S
H503 C497 0.930 . S
Mn504 O509 2.095 . S
Mn504 O519 2.162 . S
Mn504 O520 2.297 . S
Mn504 O528 2.385 1_655 S
Mn504 O529 2.209 1_655 S
Mn504 O530 2.094 . S
Mn505 O510 2.121 . S
Mn505 N512 2.257 1_655 S
Mn505 N521 2.282 1_655 S
Mn505 O529 2.215 1_655 S
Mn505 O531 2.117 . S
C506 O528 1.234 . S
C506 O529 1.283 . S
C507 O519 1.281 . S
C507 O520 1.236 . S
C508 O530 1.240 . S
C508 O531 1.264 . S
O509 Mn504 2.095 . S
O509 C518 1.250 . S
O510 Mn505 2.121 . S
O510 C518 1.258 . S
C511 N512 1.326 . S
C511 C515 1.460 . S
C511 H517 0.929 . S
N512 Mn505 2.257 1_455 S
N512 C511 1.326 . S
N512 C516 1.362 . S
C513 C514 1.258 . S
C513 C516 1.431 . S
C513 C533 1.449 . S
C514 C513 1.258 . S
C514 C515 1.477 . S
C514 H534 0.931 . S
C515 C511 1.460 . S
C515 C514 1.477 . S
C515 H535 0.930 1_556 S
C516 N512 1.362 . S
C516 C513 1.431 . S
C516 C526 1.476 . S
H517 C511 0.929 . S
C518 O509 1.250 . S
C518 O510 1.258 . S
O519 Mn504 2.162 . S
O519 C507 1.281 . S
O520 Mn504 2.297 . S
O520 C507 1.236 . S
N521 Mn505 2.282 1_455 S
N521 C522 1.326 . S
N521 C526 1.318 . S
C522 N521 1.326 . S
C522 C523 1.466 . S
C522 H527 0.922 1_455 S
C523 C522 1.466 . S
C523 C524 1.291 . S
C523 H536 0.931 . S
C524 C523 1.291 . S
C524 C525 1.373 . S
C524 H537 0.929 . S
C525 C524 1.373 . S
C525 C526 1.396 . S
C525 C532 1.403 . S
C526 C516 1.476 . S
C526 N521 1.318 . S
C526 C525 1.396 . S
H527 C522 0.922 1_655 S
O528 Mn504 2.385 1_455 S
O528 C506 1.234 . S
O529 Mn504 2.209 1_455 S
O529 Mn505 2.215 1_455 S
O529 C506 1.283 . S
O530 Mn504 2.094 . S
O530 C508 1.240 . S
O531 Mn505 2.117 . S
O531 C508 1.264 . S
C532 C525 1.403 . S
C532 C533 1.399 . S
C532 H538 0.929 . S
C533 C513 1.449 . S
C533 C532 1.399 . S
C533 H539 0.930 . S
H534 C514 0.931 . S
H535 C515 0.930 1_554 S
H536 C523 0.931 . S
H537 C524 0.929 . S
H538 C532 0.929 . S
H539 C533 0.930 . S
Mn540 O545 2.095 . S
Mn540 O555 2.162 . S
Mn540 O556 2.297 . S
Mn540 O564 2.385 . S
Mn540 O565 2.209 . S
Mn540 O566 2.094 . S
Mn541 O546 2.121 . S
Mn541 N548 2.257 . S
Mn541 N557 2.282 . S
Mn541 O565 2.215 . S
Mn541 O567 2.117 . S
C542 O564 1.234 . S
C542 O565 1.283 . S
C543 O555 1.281 . S
C543 O556 1.236 . S
C544 O566 1.240 . S
C544 O567 1.264 . S
O545 Mn540 2.095 . S
O545 C554 1.250 . S
O546 Mn541 2.121 . S
O546 C554 1.258 . S
C547 N548 1.326 . S
C547 C551 1.460 . S
C547 H553 0.929 . S
N548 Mn541 2.257 . S
N548 C547 1.326 . S
N548 C552 1.362 . S
C549 C550 1.258 . S
C549 C552 1.431 . S
C549 C569 1.449 . S
C550 C549 1.258 . S
C550 C551 1.477 . S
C550 H570 0.931 . S
C551 C547 1.460 . S
C551 C550 1.477 . S
C551 H571 0.930 . S
C552 N548 1.362 . S
C552 C549 1.431 . S
C552 C562 1.476 . S
H553 C547 0.929 . S
C554 O545 1.250 . S
C554 O546 1.258 . S
O555 Mn540 2.162 . S
O555 C543 1.281 . S
O556 Mn540 2.297 . S
O556 C543 1.236 . S
N557 Mn541 2.282 . S
N557 C558 1.328 . S
N557 C562 1.318 . S
C558 N557 1.328 . S
C558 C559 1.457 . S
C558 H563 0.929 . S
C559 C558 1.457 . S
C559 C560 1.291 . S
C559 H572 0.931 . S
C560 C559 1.291 . S
C560 C561 1.373 . S
C560 H573 0.929 . S
C561 C560 1.373 . S
C561 C562 1.396 . S
C561 C568 1.403 . S
C562 C552 1.476 . S
C562 N557 1.318 . S
C562 C561 1.396 . S
H563 C558 0.929 . S
O564 Mn540 2.385 . S
O564 C542 1.234 . S
O565 Mn540 2.209 . S
O565 Mn541 2.215 . S
O565 C542 1.283 . S
O566 Mn540 2.094 . S
O566 C544 1.240 . S
O567 Mn541 2.117 . S
O567 C544 1.264 . S
C568 C561 1.403 . S
C568 C569 1.399 . S
C568 H574 0.929 . S
C569 C549 1.449 . S
C569 C568 1.399 . S
C569 H575 0.930 . S
H570 C550 0.931 . S
H571 C551 0.930 . S
H572 C559 0.931 . S
H573 C560 0.929 . S
H574 C568 0.929 . S
H575 C569 0.930 . S
Mn576 O581 2.095 . S
Mn576 O591 2.162 1_655 S
Mn576 O592 2.297 1_655 S
Mn576 O600 2.385 1_655 S
Mn576 O601 2.209 . S
Mn576 O602 2.094 . S
Mn577 O582 2.121 . S
Mn577 N584 2.257 . S
Mn577 N593 2.282 . S
Mn577 O601 2.215 . S
Mn577 O603 2.117 . S
C578 O600 1.234 1_655 S
C578 O601 1.283 . S
C579 O591 1.281 . S
C579 O592 1.236 . S
C580 O602 1.240 . S
C580 O603 1.264 . S
O581 Mn576 2.095 . S
O581 C590 1.250 . S
O582 Mn577 2.121 . S
O582 C590 1.258 . S
C583 N584 1.326 . S
C583 C587 1.460 . S
C583 H589 0.929 . S
N584 Mn577 2.257 . S
N584 C583 1.326 . S
N584 C588 1.362 . S
C585 C586 1.258 . S
C585 C588 1.431 . S
C585 C605 1.449 . S
C586 C585 1.258 . S
C586 C587 1.477 . S
C586 H606 0.931 . S
C587 C583 1.460 . S
C587 C586 1.477 . S
C587 H607 0.930 . S
C588 N584 1.362 . S
C588 C585 1.431 . S
C588 C598 1.476 . S
H589 C583 0.929 . S
C590 O581 1.250 . S
C590 O582 1.258 . S
O591 Mn576 2.162 1_455 S
O591 C579 1.281 . S
O592 Mn576 2.297 1_455 S
O592 C579 1.236 . S
N593 Mn577 2.282 . S
N593 C594 1.328 . S
N593 C598 1.318 . S
C594 N593 1.328 . S
C594 C595 1.457 . S
C594 H599 0.929 . S
C595 C594 1.457 . S
C595 C596 1.291 . S
C595 H608 0.931 . S
C596 C595 1.291 . S
C596 C597 1.373 . S
C596 H609 0.929 . S
C597 C596 1.373 . S
C597 C598 1.396 . S
C597 C604 1.403 . S
C598 C588 1.476 . S
C598 N593 1.318 . S
C598 C597 1.396 . S
H599 C594 0.929 . S
O600 Mn576 2.385 1_455 S
O600 C578 1.234 1_455 S
O601 Mn576 2.209 . S
O601 Mn577 2.215 . S
O601 C578 1.283 . S
O602 Mn576 2.094 . S
O602 C580 1.240 . S
O603 Mn577 2.117 . S
O603 C580 1.264 . S
C604 C597 1.403 . S
C604 C605 1.399 . S
C604 H610 0.929 . S
C605 C585 1.449 . S
C605 C604 1.399 . S
C605 H611 0.930 . S
H606 C586 0.931 . S
H607 C587 0.930 . S
H608 C595 0.931 . S
H609 C596 0.929 . S
H610 C604 0.929 . S
H611 C605 0.930 . S
Mn612 O617 2.095 . S
Mn612 O627 2.162 . S
Mn612 O628 2.297 . S
Mn612 O636 2.385 . S
Mn612 O637 2.209 . S
Mn612 O638 2.094 . S
Mn613 O618 2.121 . S
Mn613 N620 2.257 . S
Mn613 N629 2.282 . S
Mn613 O637 2.215 . S
Mn613 O639 2.117 . S
C614 O636 1.234 . S
C614 O637 1.283 . S
C615 O627 1.281 . S
C615 O628 1.236 . S
C616 O638 1.240 . S
C616 O639 1.264 . S
O617 Mn612 2.095 . S
O617 C626 1.250 . S
O618 Mn613 2.121 . S
O618 C626 1.258 . S
C619 N620 1.326 . S
C619 C623 1.460 . S
C619 H625 0.929 . S
N620 Mn613 2.257 . S
N620 C619 1.326 . S
N620 C624 1.362 . S
C621 C622 1.258 . S
C621 C624 1.431 . S
C621 C641 1.449 . S
C622 C621 1.258 . S
C622 C623 1.477 . S
C622 H642 0.931 . S
C623 C619 1.460 . S
C623 C622 1.477 . S
C623 H643 0.930 . S
C624 N620 1.362 . S
C624 C621 1.431 . S
C624 C634 1.476 . S
H625 C619 0.929 . S
C626 O617 1.250 . S
C626 O618 1.258 . S
O627 Mn612 2.162 . S
O627 C615 1.281 . S
O628 Mn612 2.297 . S
O628 C615 1.236 . S
N629 Mn613 2.282 . S
N629 C630 1.328 . S
N629 C634 1.318 . S
C630 N629 1.328 . S
C630 C631 1.457 . S
C630 H635 0.929 . S
C631 C630 1.457 . S
C631 C632 1.291 . S
C631 H644 0.931 . S
C632 C631 1.291 . S
C632 C633 1.373 . S
C632 H645 0.929 . S
C633 C632 1.373 . S
C633 C634 1.396 . S
C633 C640 1.403 . S
C634 C624 1.476 . S
C634 N629 1.318 . S
C634 C633 1.396 . S
H635 C630 0.929 . S
O636 Mn612 2.385 . S
O636 C614 1.234 . S
O637 Mn612 2.209 . S
O637 Mn613 2.215 . S
O637 C614 1.283 . S
O638 Mn612 2.094 . S
O638 C616 1.240 . S
O639 Mn613 2.117 . S
O639 C616 1.264 . S
C640 C633 1.403 . S
C640 C641 1.399 . S
C640 H646 0.929 . S
C641 C621 1.449 . S
C641 C640 1.399 . S
C641 H647 0.930 . S
H642 C622 0.931 . S
H643 C623 0.930 . S
H644 C631 0.931 . S
H645 C632 0.929 . S
H646 C640 0.929 . S
H647 C641 0.930 . S
H648 C660 0.930 . S
H649 C662 0.930 . S
H650 C663 0.930 . S
H651 C667 0.959 . S
H652 C667 0.959 . S
H653 C667 0.961 . S
H654 C668 0.960 . S
H655 C668 0.961 1_554 S
H656 C668 0.959 . S
H657 C671 0.929 1_556 S
H658 C672 0.931 . S
H659 C674 0.930 . S
C660 H648 0.930 . S
C660 C661 1.399 . S
C660 C665 1.399 . S
C661 C660 1.399 . S
C661 C662 1.376 . S
C662 H649 0.930 . S
C662 C661 1.376 . S
C662 C663 1.388 . S
C663 H650 0.930 . S
C663 C662 1.388 . S
C663 C664 1.390 . S
C664 C663 1.390 . S
C664 C665 1.394 . S
C664 C670 1.465 . S
C665 C660 1.399 . S
C665 C664 1.394 . S
C665 C666 1.516 1_556 S
C666 C665 1.516 1_554 S
C666 C667 1.502 . S
C666 C668 1.561 1_554 S
C666 C669 1.526 . S
C667 H651 0.959 . S
C667 H652 0.959 . S
C667 H653 0.961 . S
C667 C666 1.502 . S
C668 H654 0.960 . S
C668 H655 0.961 1_556 S
C668 H656 0.959 . S
C668 C666 1.561 1_556 S
C669 C666 1.526 . S
C669 C670 1.396 1_554 S
C669 C674 1.390 . S
C670 C664 1.465 . S
C670 C669 1.396 1_556 S
C670 C671 1.399 1_556 S
C671 H657 0.929 1_554 S
C671 C670 1.399 1_554 S
C671 C672 1.385 . S
C672 H658 0.931 . S
C672 C671 1.385 . S
C672 C673 1.389 . S
C673 C672 1.389 . S
C673 C674 1.387 . S
C674 H659 0.930 . S
C674 C669 1.390 . S
C674 C673 1.387 . S
H675 C687 0.930 . S
H676 C689 0.930 . S
H677 C690 0.930 1_554 S
H678 C694 0.959 . S
H679 C694 0.959 . S
H680 C694 0.961 . S
H681 C695 0.960 . S
H682 C695 0.961 . S
H683 C695 0.959 . S
H684 C698 0.929 . S
H685 C699 0.931 . S
H686 C701 0.930 . S
C687 H675 0.930 . S
C687 C688 1.399 . S
C687 C692 1.399 . S
C688 C687 1.399 . S
C688 C689 1.376 . S
C689 H676 0.930 . S
C689 C688 1.376 . S
C689 C690 1.388 . S
C690 H677 0.930 1_556 S
C690 C689 1.388 . S
C690 C691 1.390 . S
C691 C690 1.390 . S
C691 C692 1.394 . S
C691 C697 1.465 1_556 S
C692 C687 1.399 . S
C692 C691 1.394 . S
C692 C693 1.516 . S
C693 C692 1.516 . S
C693 C694 1.502 . S
C693 C695 1.561 . S
C693 C696 1.526 1_556 S
C694 H678 0.959 . S
C694 H679 0.959 . S
C694 H680 0.961 . S
C694 C693 1.502 . S
C695 H681 0.960 . S
C695 H682 0.961 . S
C695 H683 0.959 . S
C695 C693 1.561 . S
C696 C693 1.526 1_554 S
C696 C697 1.396 . S
C696 C701 1.390 . S
C697 C691 1.465 1_554 S
C697 C696 1.396 . S
C697 C698 1.399 . S
C698 H684 0.929 . S
C698 C697 1.399 . S
C698 C699 1.385 . S
C699 H685 0.931 . S
C699 C698 1.385 . S
C699 C700 1.389 . S
C700 C699 1.389 . S
C700 C701 1.387 . S
C701 H686 0.930 . S
C701 C696 1.390 . S
C701 C700 1.387 . S
H702 C714 0.930 . S
H703 C716 0.930 . S
H704 C717 0.930 . S
H705 C721 0.959 . S
H706 C721 0.959 . S
H707 C721 0.961 . S
H708 C722 0.960 . S
H709 C722 0.961 . S
H710 C722 0.959 . S
H711 C725 0.929 . S
H712 C726 0.931 . S
H713 C728 0.930 . S
C714 H702 0.930 . S
C714 C715 1.399 . S
C714 C719 1.399 . S
C715 C714 1.399 . S
C715 C716 1.376 . S
C716 H703 0.930 . S
C716 C715 1.376 . S
C716 C717 1.388 . S
C717 H704 0.930 . S
C717 C716 1.388 . S
C717 C718 1.390 . S
C718 C717 1.390 . S
C718 C719 1.394 . S
C718 C724 1.465 1_554 S
C719 C714 1.399 . S
C719 C718 1.394 . S
C719 C720 1.525 . S
C720 C719 1.525 . S
C720 C721 1.494 1_554 S
C720 C722 1.568 . S
C720 C723 1.519 1_554 S
C721 H705 0.959 . S
C721 H706 0.959 . S
C721 H707 0.961 . S
C721 C720 1.494 1_556 S
C722 H708 0.960 . S
C722 H709 0.961 . S
C722 H710 0.959 . S
C722 C720 1.568 . S
C723 C720 1.519 1_556 S
C723 C724 1.396 . S
C723 C728 1.390 . S
C724 C718 1.465 1_556 S
C724 C723 1.396 . S
C724 C725 1.399 . S
C725 H711 0.929 . S
C725 C724 1.399 . S
C725 C726 1.385 . S
C726 H712 0.931 . S
C726 C725 1.385 . S
C726 C727 1.389 . S
C727 C726 1.389 . S
C727 C728 1.387 . S
C728 H713 0.930 . S
C728 C723 1.390 . S
C728 C727 1.387 . S
H729 C741 0.930 . S
H730 C743 0.930 . S
H731 C744 0.930 . S
H732 C748 0.959 . S
H733 C748 0.959 . S
H734 C748 0.961 . S
H735 C749 0.960 . S
H736 C749 0.961 . S
H737 C749 0.959 . S
H738 C752 0.929 . S
H739 C753 0.931 . S
H740 C755 0.930 . S
C741 H729 0.930 . S
C741 C742 1.399 . S
C741 C746 1.399 . S
C742 C741 1.399 . S
C742 C743 1.376 . S
C743 H730 0.930 . S
C743 C742 1.376 . S
C743 C744 1.388 . S
C744 H731 0.930 . S
C744 C743 1.388 . S
C744 C745 1.390 . S
C745 C744 1.390 . S
C745 C746 1.394 . S
C745 C751 1.465 . S
C746 C741 1.399 . S
C746 C745 1.394 . S
C746 C747 1.516 . S
C747 C746 1.516 . S
C747 C748 1.502 . S
C747 C749 1.561 . S
C747 C750 1.526 . S
C748 H732 0.959 . S
C748 H733 0.959 . S
C748 H734 0.961 . S
C748 C747 1.502 . S
C749 H735 0.960 . S
C749 H736 0.961 . S
C749 H737 0.959 . S
C749 C747 1.561 . S
C750 C747 1.526 . S
C750 C751 1.396 . S
C750 C755 1.390 . S
C751 C745 1.465 . S
C751 C750 1.396 . S
C751 C752 1.399 . S
C752 H738 0.929 . S
C752 C751 1.399 . S
C752 C753 1.385 . S
C753 H739 0.931 . S
C753 C752 1.385 . S
C753 C754 1.389 . S
C754 C753 1.389 . S
C754 C755 1.387 . S
C755 H740 0.930 . S
C755 C750 1.390 . S
C755 C754 1.387 . S
H756 C768 0.930 . S
H757 C770 0.930 . S
H758 C771 0.930 . S
H759 C775 0.959 . S
H760 C775 0.959 . S
H761 C775 0.961 . S
H762 C776 0.960 . S
H763 C776 0.961 . S
H764 C776 0.959 . S
H765 C779 0.929 . S
H766 C780 0.931 . S
H767 C782 0.930 . S
C768 H756 0.930 . S
C768 C769 1.399 . S
C768 C773 1.399 . S
C769 C768 1.399 . S
C769 C770 1.376 . S
C770 H757 0.930 . S
C770 C769 1.376 . S
C770 C771 1.388 . S
C771 H758 0.930 . S
C771 C770 1.388 . S
C771 C772 1.390 . S
C772 C771 1.390 . S
C772 C773 1.394 . S
C772 C778 1.465 . S
C773 C768 1.399 . S
C773 C772 1.394 . S
C773 C774 1.516 . S
C774 C773 1.516 . S
C774 C775 1.502 . S
C774 C776 1.561 . S
C774 C777 1.526 . S
C775 H759 0.959 . S
C775 H760 0.959 . S
C775 H761 0.961 . S
C775 C774 1.502 . S
C776 H762 0.960 . S
C776 H763 0.961 . S
C776 H764 0.959 . S
C776 C774 1.561 . S
C777 C774 1.526 . S
C777 C778 1.396 . S
C777 C782 1.390 . S
C778 C772 1.465 . S
C778 C777 1.396 . S
C778 C779 1.399 . S
C779 H765 0.929 . S
C779 C778 1.399 . S
C779 C780 1.385 . S
C780 H766 0.931 . S
C780 C779 1.385 . S
C780 C781 1.389 . S
C781 C780 1.389 . S
C781 C782 1.387 . S
C782 H767 0.930 . S
C782 C777 1.390 . S
C782 C781 1.387 . S
H783 C795 0.930 . S
H784 C797 0.930 . S
H785 C798 0.930 . S
H786 C802 0.959 . S
H787 C802 0.959 . S
H788 C802 0.961 . S
H789 C803 0.960 . S
H790 C803 0.961 . S
H791 C803 0.959 . S
H792 C806 0.929 . S
H793 C807 0.931 . S
H794 C809 0.930 . S
C795 H783 0.930 . S
C795 C796 1.399 . S
C795 C800 1.399 . S
C796 C795 1.399 . S
C796 C797 1.376 . S
C797 H784 0.930 . S
C797 C796 1.376 . S
C797 C798 1.388 . S
C798 H785 0.930 . S
C798 C797 1.388 . S
C798 C799 1.390 . S
C799 C798 1.390 . S
C799 C800 1.394 . S
C799 C805 1.465 . S
C800 C795 1.399 . S
C800 C799 1.394 . S
C800 C801 1.516 . S
C801 C800 1.516 . S
C801 C802 1.502 . S
C801 C803 1.561 . S
C801 C804 1.526 . S
C802 H786 0.959 . S
C802 H787 0.959 . S
C802 H788 0.961 . S
C802 C801 1.502 . S
C803 H789 0.960 . S
C803 H790 0.961 . S
C803 H791 0.959 . S
C803 C801 1.561 . S
C804 C801 1.526 . S
C804 C805 1.396 . S
C804 C809 1.390 . S
C805 C799 1.465 . S
C805 C804 1.396 . S
C805 C806 1.399 . S
C806 H792 0.929 . S
C806 C805 1.399 . S
C806 C807 1.385 . S
C807 H793 0.931 . S
C807 C806 1.385 . S
C807 C808 1.389 . S
C808 C807 1.389 . S
C808 C809 1.387 . S
C809 H794 0.930 . S
C809 C804 1.390 . S
C809 C808 1.387 . S
H810 C822 0.930 . S
H811 C824 0.930 . S
H812 C825 0.930 . S
H813 C829 0.959 . S
H814 C829 0.959 . S
H815 C829 0.961 . S
H816 C830 0.960 . S
H817 C830 0.961 . S
H818 C830 0.959 . S
H819 C833 0.929 . S
H820 C834 0.931 . S
H821 C836 0.930 . S
C822 H810 0.930 . S
C822 C823 1.399 . S
C822 C827 1.399 . S
C823 C822 1.399 . S
C823 C824 1.376 . S
C824 H811 0.930 . S
C824 C823 1.376 . S
C824 C825 1.388 . S
C825 H812 0.930 . S
C825 C824 1.388 . S
C825 C826 1.390 . S
C826 C825 1.390 . S
C826 C827 1.394 . S
C826 C832 1.465 . S
C827 C822 1.399 . S
C827 C826 1.394 . S
C827 C828 1.516 . S
C828 C827 1.516 . S
C828 C829 1.502 . S
C828 C830 1.561 . S
C828 C831 1.526 . S
C829 H813 0.959 . S
C829 H814 0.959 . S
C829 H815 0.961 . S
C829 C828 1.502 . S
C830 H816 0.960 . S
C830 H817 0.961 . S
C830 H818 0.959 . S
C830 C828 1.561 . S
C831 C828 1.526 . S
C831 C832 1.396 . S
C831 C836 1.390 . S
C832 C826 1.465 . S
C832 C831 1.396 . S
C832 C833 1.399 . S
C833 H819 0.929 . S
C833 C832 1.399 . S
C833 C834 1.385 . S
C834 H820 0.931 . S
C834 C833 1.385 . S
C834 C835 1.389 . S
C835 C834 1.389 . S
C835 C836 1.387 . S
C836 H821 0.930 . S
C836 C831 1.390 . S
C836 C835 1.387 . S
H837 C849 0.930 . S
H838 C851 0.930 . S
H839 C852 0.930 . S
H840 C856 0.959 . S
H841 C856 0.959 . S
H842 C856 0.961 . S
H843 C857 0.960 . S
H844 C857 0.961 . S
H845 C857 0.959 . S
H846 C860 0.929 . S
H847 C861 0.931 . S
H848 C863 0.930 . S
C849 H837 0.930 . S
C849 C850 1.399 . S
C849 C854 1.399 . S
C850 C849 1.399 . S
C850 C851 1.376 . S
C851 H838 0.930 . S
C851 C850 1.376 . S
C851 C852 1.388 . S
C852 H839 0.930 . S
C852 C851 1.388 . S
C852 C853 1.390 . S
C853 C852 1.390 . S
C853 C854 1.394 . S
C853 C859 1.465 . S
C854 C849 1.399 . S
C854 C853 1.394 . S
C854 C855 1.516 . S
C855 C854 1.516 . S
C855 C856 1.502 . S
C855 C857 1.561 . S
C855 C858 1.526 . S
C856 H840 0.959 . S
C856 H841 0.959 . S
C856 H842 0.961 . S
C856 C855 1.502 . S
C857 H843 0.960 . S
C857 H844 0.961 . S
C857 H845 0.959 . S
C857 C855 1.561 . S
C858 C855 1.526 . S
C858 C859 1.396 . S
C858 C863 1.390 . S
C859 C853 1.465 . S
C859 C858 1.396 . S
C859 C860 1.399 . S
C860 H846 0.929 . S
C860 C859 1.399 . S
C860 C861 1.385 . S
C861 H847 0.931 . S
C861 C860 1.385 . S
C861 C862 1.389 . S
C862 C861 1.389 . S
C862 C863 1.387 . S
C863 H848 0.930 . S
C863 C858 1.390 . S
C863 C862 1.387 . S
H864 C876 0.930 . S
H865 C878 0.930 . S
H866 C879 0.930 . S
H867 C883 0.959 . S
H868 C883 0.959 . S
H869 C883 0.961 . S
H870 C884 0.960 . S
H871 C884 0.961 . S
H872 C884 0.959 . S
H873 C887 0.929 . S
H874 C888 0.931 . S
H875 C890 0.930 . S
C876 H864 0.930 . S
C876 C877 1.399 . S
C876 C881 1.399 . S
C877 C876 1.399 . S
C877 C878 1.376 . S
C878 H865 0.930 . S
C878 C877 1.376 . S
C878 C879 1.388 . S
C879 H866 0.930 . S
C879 C878 1.388 . S
C879 C880 1.390 . S
C880 C879 1.390 . S
C880 C881 1.394 . S
C880 C886 1.465 . S
C881 C876 1.399 . S
C881 C880 1.394 . S
C881 C882 1.516 . S
C882 C881 1.516 . S
C882 C883 1.502 . S
C882 C884 1.561 . S
C882 C885 1.526 . S
C883 H867 0.959 . S
C883 H868 0.959 . S
C883 H869 0.961 . S
C883 C882 1.502 . S
C884 H870 0.960 . S
C884 H871 0.961 . S
C884 H872 0.959 . S
C884 C882 1.561 . S
C885 C882 1.526 . S
C885 C886 1.396 . S
C885 C890 1.390 . S
C886 C880 1.465 . S
C886 C885 1.396 . S
C886 C887 1.399 . S
C887 H873 0.929 . S
C887 C886 1.399 . S
C887 C888 1.385 . S
C888 H874 0.931 . S
C888 C887 1.385 . S
C888 C889 1.389 . S
C889 C888 1.389 . S
C889 C890 1.387 . S
C890 H875 0.930 . S
C890 C885 1.390 . S
C890 C889 1.387 . S
H891 C903 0.930 . S
H892 C905 0.930 . S
H893 C906 0.930 . S
H894 C910 0.959 . S
H895 C910 0.959 . S
H896 C910 0.961 . S
H897 C911 0.960 . S
H898 C911 0.961 . S
H899 C911 0.959 . S
H900 C914 0.929 . S
H901 C915 0.931 . S
H902 C917 0.930 . S
C903 H891 0.930 . S
C903 C904 1.399 . S
C903 C908 1.399 . S
C904 C903 1.399 . S
C904 C905 1.376 . S
C905 H892 0.930 . S
C905 C904 1.376 . S
C905 C906 1.388 . S
C906 H893 0.930 . S
C906 C905 1.388 . S
C906 C907 1.390 . S
C907 C906 1.390 . S
C907 C908 1.394 . S
C907 C913 1.465 . S
C908 C903 1.399 . S
C908 C907 1.394 . S
C908 C909 1.516 . S
C909 C908 1.516 . S
C909 C910 1.502 . S
C909 C911 1.561 . S
C909 C912 1.526 . S
C910 H894 0.959 . S
C910 H895 0.959 . S
C910 H896 0.961 . S
C910 C909 1.502 . S
C911 H897 0.960 . S
C911 H898 0.961 . S
C911 H899 0.959 . S
C911 C909 1.561 . S
C912 C909 1.526 . S
C912 C913 1.396 . S
C912 C917 1.390 . S
C913 C907 1.465 . S
C913 C912 1.396 . S
C913 C914 1.399 . S
C914 H900 0.929 . S
C914 C913 1.399 . S
C914 C915 1.385 . S
C915 H901 0.931 . S
C915 C914 1.385 . S
C915 C916 1.389 . S
C916 C915 1.389 . S
C916 C917 1.387 . S
C917 H902 0.930 . S
C917 C912 1.390 . S
C917 C916 1.387 . S
H918 C930 0.930 . S
H919 C932 0.930 1_554 S
H920 C933 0.930 . S
H921 C937 0.959 . S
H922 C937 0.959 . S
H923 C937 0.961 . S
H924 C938 0.960 . S
H925 C938 0.961 . S
H926 C938 0.959 . S
H927 C941 0.929 . S
H928 C942 0.931 . S
H929 C944 0.930 . S
C930 H918 0.930 . S
C930 C931 1.399 . S
C930 C935 1.399 . S
C931 C930 1.399 . S
C931 C932 1.376 . S
C932 H919 0.930 1_556 S
C932 C931 1.376 . S
C932 C933 1.388 . S
C933 H920 0.930 . S
C933 C932 1.388 . S
C933 C934 1.390 . S
C934 C933 1.390 . S
C934 C935 1.394 . S
C934 C940 1.465 . S
C935 C930 1.399 . S
C935 C934 1.394 . S
C935 C936 1.516 . S
C936 C935 1.516 . S
C936 C937 1.502 . S
C936 C938 1.561 . S
C936 C939 1.526 . S
C937 H921 0.959 . S
C937 H922 0.959 . S
C937 H923 0.961 . S
C937 C936 1.502 . S
C938 H924 0.960 . S
C938 H925 0.961 . S
C938 H926 0.959 . S
C938 C936 1.561 . S
C939 C936 1.526 . S
C939 C940 1.396 . S
C939 C944 1.390 . S
C940 C934 1.465 . S
C940 C939 1.396 . S
C940 C941 1.399 . S
C941 H927 0.929 . S
C941 C940 1.399 . S
C941 C942 1.385 . S
C942 H928 0.931 . S
C942 C941 1.385 . S
C942 C943 1.389 . S
C943 C942 1.389 . S
C943 C944 1.387 . S
C944 H929 0.930 . S
C944 C939 1.390 . S
C944 C943 1.387 . S
H945 C957 0.930 . S
H946 C959 0.930 . S
H947 C960 0.930 . S
H948 C964 0.959 . S
H949 C964 0.959 . S
H950 C964 0.961 . S
H951 C965 0.960 . S
H952 C965 0.961 . S
H953 C965 0.959 . S
H954 C968 0.929 . S
H955 C969 0.931 . S
H956 C971 0.930 . S
C957 H945 0.930 . S
C957 C958 1.399 . S
C957 C962 1.399 . S
C958 C957 1.399 . S
C958 C959 1.376 . S
C959 H946 0.930 . S
C959 C958 1.376 . S
C959 C960 1.388 . S
C960 H947 0.930 . S
C960 C959 1.388 . S
C960 C961 1.390 . S
C961 C960 1.390 . S
C961 C962 1.394 . S
C961 C967 1.465 . S
C962 C957 1.399 . S
C962 C961 1.394 . S
C962 C963 1.516 . S
C963 C962 1.516 . S
C963 C964 1.502 . S
C963 C965 1.561 . S
C963 C966 1.526 . S
C964 H948 0.959 . S
C964 H949 0.959 . S
C964 H950 0.961 . S
C964 C963 1.502 . S
C965 H951 0.960 . S
C965 H952 0.961 . S
C965 H953 0.959 . S
C965 C963 1.561 . S
C966 C963 1.526 . S
C966 C967 1.396 . S
C966 C971 1.390 . S
C967 C961 1.465 . S
C967 C966 1.396 . S
C967 C968 1.399 . S
C968 H954 0.929 . S
C968 C967 1.399 . S
C968 C969 1.385 . S
C969 H955 0.931 . S
C969 C968 1.385 . S
C969 C970 1.389 . S
C970 C969 1.389 . S
C970 C971 1.387 . S
C971 H956 0.930 . S
C971 C966 1.390 . S
C971 C970 1.387 . S
H972 C984 0.930 . S
H973 C986 0.930 . S
H974 C987 0.930 . S
H975 C991 0.959 . S
H976 C991 0.959 . S
H977 C991 0.961 . S
H978 C992 0.960 . S
H979 C992 0.961 . S
H980 C992 0.959 . S
H981 C995 0.929 . S
H982 C996 0.931 . S
H983 C998 0.930 . S
C984 H972 0.930 . S
C984 C985 1.399 . S
C984 C989 1.399 . S
C985 C984 1.399 . S
C985 C986 1.376 . S
C986 H973 0.930 . S
C986 C985 1.376 . S
C986 C987 1.388 . S
C987 H974 0.930 . S
C987 C986 1.388 . S
C987 C988 1.390 . S
C988 C987 1.390 . S
C988 C989 1.394 . S
C988 C994 1.465 . S
C989 C984 1.399 . S
C989 C988 1.394 . S
C989 C990 1.516 . S
C990 C989 1.516 . S
C990 C991 1.502 . S
C990 C992 1.561 . S
C990 C993 1.526 . S
C991 H975 0.959 . S
C991 H976 0.959 . S
C991 H977 0.961 . S
C991 C990 1.502 . S
C992 H978 0.960 . S
C992 H979 0.961 . S
C992 H980 0.959 . S
C992 C990 1.561 . S
C993 C990 1.526 . S
C993 C994 1.396 . S
C993 C998 1.390 . S
C994 C988 1.465 . S
C994 C993 1.396 . S
C994 C995 1.399 . S
C995 H981 0.929 . S
C995 C994 1.399 . S
C995 C996 1.385 . S
C996 H982 0.931 . S
C996 C995 1.385 . S
C996 C997 1.389 . S
C997 C996 1.389 . S
C997 C998 1.387 . S
C998 H983 0.930 . S
C998 C993 1.390 . S
C998 C997 1.387 . S
H999 C1011 0.930 . S
H1000 C1013 0.930 . S
H1001 C1014 0.930 . S
H1002 C1018 0.959 . S
H1003 C1018 0.959 . S
H1004 C1018 0.961 . S
H1005 C1019 0.960 . S
H1006 C1019 0.961 . S
H1007 C1019 0.959 . S
H1008 C1022 0.929 . S
H1009 C1023 0.931 . S
H1010 C1025 0.930 . S
C1011 H999 0.930 . S
C1011 C1012 1.399 . S
C1011 C1016 1.399 . S
C1012 C1011 1.399 . S
C1012 C1013 1.376 . S
C1013 H1000 0.930 . S
C1013 C1012 1.376 . S
C1013 C1014 1.388 . S
C1014 H1001 0.930 . S
C1014 C1013 1.388 . S
C1014 C1015 1.390 . S
C1015 C1014 1.390 . S
C1015 C1016 1.394 . S
C1015 C1021 1.465 . S
C1016 C1011 1.399 . S
C1016 C1015 1.394 . S
C1016 C1017 1.516 . S
C1017 C1016 1.516 . S
C1017 C1018 1.502 . S
C1017 C1019 1.561 . S
C1017 C1020 1.526 . S
C1018 H1002 0.959 . S
C1018 H1003 0.959 . S
C1018 H1004 0.961 . S
C1018 C1017 1.502 . S
C1019 H1005 0.960 . S
C1019 H1006 0.961 . S
C1019 H1007 0.959 . S
C1019 C1017 1.561 . S
C1020 C1017 1.526 . S
C1020 C1021 1.396 . S
C1020 C1025 1.390 . S
C1021 C1015 1.465 . S
C1021 C1020 1.396 . S
C1021 C1022 1.399 . S
C1022 H1008 0.929 . S
C1022 C1021 1.399 . S
C1022 C1023 1.385 . S
C1023 H1009 0.931 . S
C1023 C1022 1.385 . S
C1023 C1024 1.389 . S
C1024 C1023 1.389 . S
C1024 C1025 1.387 . S
C1025 H1010 0.930 . S
C1025 C1020 1.390 . S
C1025 C1024 1.387 . S
H1026 C1038 0.930 . S
H1027 C1040 0.930 . S
H1028 C1041 0.930 . S
H1029 C1045 0.959 . S
H1030 C1045 0.959 . S
H1031 C1045 0.961 . S
H1032 C1046 0.960 . S
H1033 C1046 0.961 . S
H1034 C1046 0.959 . S
H1035 C1049 0.929 . S
H1036 C1050 0.931 . S
H1037 C1052 0.930 . S
C1038 H1026 0.930 . S
C1038 C1039 1.399 . S
C1038 C1043 1.399 . S
C1039 C1038 1.399 . S
C1039 C1040 1.376 . S
C1040 H1027 0.930 . S
C1040 C1039 1.376 . S
C1040 C1041 1.388 . S
C1041 H1028 0.930 . S
C1041 C1040 1.388 . S
C1041 C1042 1.390 . S
C1042 C1041 1.390 . S
C1042 C1043 1.394 . S
C1042 C1048 1.465 . S
C1043 C1038 1.399 . S
C1043 C1042 1.394 . S
C1043 C1044 1.516 . S
C1044 C1043 1.516 . S
C1044 C1045 1.502 . S
C1044 C1046 1.561 . S
C1044 C1047 1.526 . S
C1045 H1029 0.959 . S
C1045 H1030 0.959 . S
C1045 H1031 0.961 . S
C1045 C1044 1.502 . S
C1046 H1032 0.960 . S
C1046 H1033 0.961 . S
C1046 H1034 0.959 . S
C1046 C1044 1.561 . S
C1047 C1044 1.526 . S
C1047 C1048 1.396 . S
C1047 C1052 1.390 . S
C1048 C1042 1.465 . S
C1048 C1047 1.396 . S
C1048 C1049 1.399 . S
C1049 H1035 0.929 . S
C1049 C1048 1.399 . S
C1049 C1050 1.385 . S
C1050 H1036 0.931 . S
C1050 C1049 1.385 . S
C1050 C1051 1.389 . S
C1051 C1050 1.389 . S
C1051 C1052 1.387 . S
C1052 H1037 0.930 . S
C1052 C1047 1.390 . S
C1052 C1051 1.387 . S
H1053 C1065 0.930 . S
H1054 C1067 0.930 . S
H1055 C1068 0.930 . S
H1056 C1072 0.959 . S
H1057 C1072 0.959 . S
H1058 C1072 0.961 . S
H1059 C1073 0.960 . S
H1060 C1073 0.961 . S
H1061 C1073 0.959 . S
H1062 C1076 0.929 . S
H1063 C1077 0.931 . S
H1064 C1079 0.930 . S
C1065 H1053 0.930 . S
C1065 C1066 1.399 . S
C1065 C1070 1.399 . S
C1066 C1065 1.399 . S
C1066 C1067 1.376 . S
C1067 H1054 0.930 . S
C1067 C1066 1.376 . S
C1067 C1068 1.388 . S
C1068 H1055 0.930 . S
C1068 C1067 1.388 . S
C1068 C1069 1.390 . S
C1069 C1068 1.390 . S
C1069 C1070 1.394 . S
C1069 C1075 1.465 . S
C1070 C1065 1.399 . S
C1070 C1069 1.394 . S
C1070 C1071 1.516 . S
C1071 C1070 1.516 . S
C1071 C1072 1.502 . S
C1071 C1073 1.561 . S
C1071 C1074 1.526 . S
C1072 H1056 0.959 . S
C1072 H1057 0.959 . S
C1072 H1058 0.961 . S
C1072 C1071 1.502 . S
C1073 H1059 0.960 . S
C1073 H1060 0.961 . S
C1073 H1061 0.959 . S
C1073 C1071 1.561 . S
C1074 C1071 1.526 . S
C1074 C1075 1.396 . S
C1074 C1079 1.390 . S
C1075 C1069 1.465 . S
C1075 C1074 1.396 . S
C1075 C1076 1.399 . S
C1076 H1062 0.929 . S
C1076 C1075 1.399 . S
C1076 C1077 1.385 . S
C1077 H1063 0.931 . S
C1077 C1076 1.385 . S
C1077 C1078 1.389 . S
C1078 C1077 1.389 . S
C1078 C1079 1.387 . S
C1079 H1064 0.930 . S
C1079 C1074 1.390 . S
C1079 C1078 1.387 . S
H1080 C1092 0.930 . S
H1081 C1094 0.930 . S
H1082 C1095 0.930 . S
H1083 C1099 0.959 . S
H1084 C1099 0.959 . S
H1085 C1099 0.961 . S
H1086 C1100 0.960 . S
H1087 C1100 0.961 . S
H1088 C1100 0.959 . S
H1089 C1103 0.929 . S
H1090 C1104 0.931 . S
H1091 C1106 0.930 . S
C1092 H1080 0.930 . S
C1092 C1093 1.399 . S
C1092 C1097 1.399 . S
C1093 C1092 1.399 . S
C1093 C1094 1.376 . S
C1094 H1081 0.930 . S
C1094 C1093 1.376 . S
C1094 C1095 1.388 . S
C1095 H1082 0.930 . S
C1095 C1094 1.388 . S
C1095 C1096 1.390 . S
C1096 C1095 1.390 . S
C1096 C1097 1.394 . S
C1096 C1102 1.465 . S
C1097 C1092 1.399 . S
C1097 C1096 1.394 . S
C1097 C1098 1.516 . S
C1098 C1097 1.516 . S
C1098 C1099 1.502 . S
C1098 C1100 1.561 . S
C1098 C1101 1.526 . S
C1099 H1083 0.959 . S
C1099 H1084 0.959 . S
C1099 H1085 0.961 . S
C1099 C1098 1.502 . S
C1100 H1086 0.960 . S
C1100 H1087 0.961 . S
C1100 H1088 0.959 . S
C1100 C1098 1.561 . S
C1101 C1098 1.526 . S
C1101 C1102 1.396 . S
C1101 C1106 1.390 . S
C1102 C1096 1.465 . S
C1102 C1101 1.396 . S
C1102 C1103 1.399 . S
C1103 H1089 0.929 . S
C1103 C1102 1.399 . S
C1103 C1104 1.385 1_554 S
C1104 H1090 0.931 . S
C1104 C1103 1.385 1_556 S
C1104 C1105 1.389 1_556 S
C1105 C1104 1.389 1_554 S
C1105 C1106 1.387 . S
C1106 H1091 0.930 . S
C1106 C1101 1.390 . S
C1106 C1105 1.387 . S
H1107 C1119 0.930 . S
H1108 C1121 0.930 . S
H1109 C1122 0.930 . S
H1110 C1126 0.959 . S
H1111 C1126 0.959 . S
H1112 C1126 0.961 . S
H1113 C1127 0.960 . S
H1114 C1127 0.961 . S
H1115 C1127 0.959 . S
H1116 C1130 0.929 . S
H1117 C1131 0.931 . S
H1118 C1133 0.930 . S
C1119 H1107 0.930 . S
C1119 C1120 1.399 . S
C1119 C1124 1.399 . S
C1120 C1119 1.399 . S
C1120 C1121 1.376 . S
C1121 H1108 0.930 . S
C1121 C1120 1.376 . S
C1121 C1122 1.388 . S
C1122 H1109 0.930 . S
C1122 C1121 1.388 . S
C1122 C1123 1.390 . S
C1123 C1122 1.390 . S
C1123 C1124 1.394 . S
C1123 C1129 1.465 . S
C1124 C1119 1.399 . S
C1124 C1123 1.394 . S
C1124 C1125 1.516 . S
C1125 C1124 1.516 . S
C1125 C1126 1.502 . S
C1125 C1127 1.561 . S
C1125 C1128 1.526 . S
C1126 H1110 0.959 . S
C1126 H1111 0.959 . S
C1126 H1112 0.961 . S
C1126 C1125 1.502 . S
C1127 H1113 0.960 . S
C1127 H1114 0.961 . S
C1127 H1115 0.959 . S
C1127 C1125 1.561 . S
C1128 C1125 1.526 . S
C1128 C1129 1.396 . S
C1128 C1133 1.390 . S
C1129 C1123 1.465 . S
C1129 C1128 1.396 . S
C1129 C1130 1.399 . S
C1130 H1116 0.929 . S
C1130 C1129 1.399 . S
C1130 C1131 1.385 . S
C1131 H1117 0.931 . S
C1131 C1130 1.385 . S
C1131 C1132 1.389 . S
C1132 C1131 1.389 . S
C1132 C1133 1.387 . S
C1133 H1118 0.930 . S
C1133 C1128 1.390 . S
C1133 C1132 1.387 . S
H1134 C1146 0.930 . S
H1135 C1148 0.930 . S
H1136 C1149 0.930 . S
H1137 C1153 0.959 . S
H1138 C1153 0.959 . S
H1139 C1153 0.961 . S
H1140 C1154 0.960 . S
H1141 C1154 0.961 . S
H1142 C1154 0.959 . S
H1143 C1157 0.929 . S
H1144 C1158 0.931 . S
H1145 C1160 0.930 . S
C1146 H1134 0.930 . S
C1146 C1147 1.399 . S
C1146 C1151 1.399 . S
C1147 C1146 1.399 . S
C1147 C1148 1.376 . S
C1148 H1135 0.930 . S
C1148 C1147 1.376 . S
C1148 C1149 1.388 . S
C1149 H1136 0.930 . S
C1149 C1148 1.388 . S
C1149 C1150 1.390 . S
C1150 C1149 1.390 . S
C1150 C1151 1.394 . S
C1150 C1156 1.465 . S
C1151 C1146 1.399 . S
C1151 C1150 1.394 . S
C1151 C1152 1.516 . S
C1152 C1151 1.516 . S
C1152 C1153 1.502 . S
C1152 C1154 1.561 . S
C1152 C1155 1.526 . S
C1153 H1137 0.959 . S
C1153 H1138 0.959 . S
C1153 H1139 0.961 . S
C1153 C1152 1.502 . S
C1154 H1140 0.960 . S
C1154 H1141 0.961 . S
C1154 H1142 0.959 . S
C1154 C1152 1.561 . S
C1155 C1152 1.526 . S
C1155 C1156 1.396 . S
C1155 C1160 1.390 . S
C1156 C1150 1.465 . S
C1156 C1155 1.396 . S
C1156 C1157 1.399 . S
C1157 H1143 0.929 . S
C1157 C1156 1.399 . S
C1157 C1158 1.385 . S
C1158 H1144 0.931 . S
C1158 C1157 1.385 . S
C1158 C1159 1.389 . S
C1159 C1158 1.389 . S
C1159 C1160 1.387 . S
C1160 H1145 0.930 . S
C1160 C1155 1.390 . S
C1160 C1159 1.387 . S
H1161 C1173 0.930 . S
H1162 C1175 0.930 . S
H1163 C1176 0.930 . S
H1164 C1180 0.959 . S
H1165 C1180 0.959 . S
H1166 C1180 0.961 . S
H1167 C1181 0.960 . S
H1168 C1181 0.961 . S
H1169 C1181 0.959 . S
H1170 C1184 0.929 . S
H1171 C1185 0.931 . S
H1172 C1187 0.930 . S
C1173 H1161 0.930 . S
C1173 C1174 1.399 . S
C1173 C1178 1.399 . S
C1174 C1173 1.399 . S
C1174 C1175 1.376 . S
C1175 H1162 0.930 . S
C1175 C1174 1.376 . S
C1175 C1176 1.388 . S
C1176 H1163 0.930 . S
C1176 C1175 1.388 . S
C1176 C1177 1.390 . S
C1177 C1176 1.390 . S
C1177 C1178 1.394 . S
C1177 C1183 1.465 . S
C1178 C1173 1.399 . S
C1178 C1177 1.394 . S
C1178 C1179 1.516 . S
C1179 C1178 1.516 . S
C1179 C1180 1.502 . S
C1179 C1181 1.561 . S
C1179 C1182 1.526 . S
C1180 H1164 0.959 . S
C1180 H1165 0.959 . S
C1180 H1166 0.961 . S
C1180 C1179 1.502 . S
C1181 H1167 0.960 . S
C1181 H1168 0.961 . S
C1181 H1169 0.959 . S
C1181 C1179 1.561 . S
C1182 C1179 1.526 . S
C1182 C1183 1.396 . S
C1182 C1187 1.390 . S
C1183 C1177 1.465 . S
C1183 C1182 1.396 . S
C1183 C1184 1.399 . S
C1184 H1170 0.929 . S
C1184 C1183 1.399 . S
C1184 C1185 1.385 . S
C1185 H1171 0.931 . S
C1185 C1184 1.385 . S
C1185 C1186 1.389 . S
C1186 C1185 1.389 . S
C1186 C1187 1.387 . S
C1187 H1172 0.930 . S
C1187 C1182 1.390 . S
C1187 C1186 1.387 . S
H1188 C1200 0.930 . S
H1189 C1202 0.929 1_545 S
H1190 C1203 0.930 . S
H1191 C1207 0.959 . S
H1192 C1207 0.959 . S
H1193 C1207 0.961 . S
H1194 C1208 0.960 . S
H1195 C1208 0.961 . S
H1196 C1208 0.959 . S
H1197 C1211 0.929 . S
H1198 C1212 0.931 . S
H1199 C1214 0.930 1_565 S
C1200 H1188 0.930 . S
C1200 C1201 1.399 . S
C1200 C1205 1.399 . S
C1201 C1200 1.399 . S
C1201 C1202 1.376 . S
C1202 H1189 0.929 1_565 S
C1202 C1201 1.376 . S
C1202 C1203 1.388 1_565 S
C1203 H1190 0.930 . S
C1203 C1202 1.388 1_545 S
C1203 C1204 1.390 . S
C1204 C1203 1.390 . S
C1204 C1205 1.394 1_545 S
C1204 C1210 1.465 . S
C1205 C1200 1.399 . S
C1205 C1204 1.394 1_565 S
C1205 C1206 1.516 . S
C1206 C1205 1.516 . S
C1206 C1207 1.502 . S
C1206 C1208 1.561 . S
C1206 C1209 1.526 . S
C1207 H1191 0.959 . S
C1207 H1192 0.959 . S
C1207 H1193 0.961 . S
C1207 C1206 1.502 . S
C1208 H1194 0.960 . S
C1208 H1195 0.961 . S
C1208 H1196 0.959 . S
C1208 C1206 1.561 . S
C1209 C1206 1.526 . S
C1209 C1210 1.396 1_565 S
C1209 C1214 1.390 1_565 S
C1210 C1204 1.465 . S
C1210 C1209 1.396 1_545 S
C1210 C1211 1.399 . S
C1211 H1197 0.929 . S
C1211 C1210 1.399 . S
C1211 C1212 1.385 . S
C1212 H1198 0.931 . S
C1212 C1211 1.385 . S
C1212 C1213 1.389 . S
C1213 C1212 1.389 . S
C1213 C1214 1.387 . S
C1214 H1199 0.930 1_545 S
C1214 C1209 1.390 1_545 S
C1214 C1213 1.387 . S
H1215 C1227 0.930 . S
H1216 C1229 0.930 . S
H1217 C1230 0.930 . S
H1218 C1234 0.959 . S
H1219 C1234 0.959 . S
H1220 C1234 0.961 . S
H1221 C1235 0.960 . S
H1222 C1235 0.961 . S
H1223 C1235 0.959 . S
H1224 C1238 0.929 . S
H1225 C1239 0.931 . S
H1226 C1241 0.930 . S
C1227 H1215 0.930 . S
C1227 C1228 1.399 . S
C1227 C1232 1.399 . S
C1228 C1227 1.399 . S
C1228 C1229 1.376 . S
C1229 H1216 0.930 . S
C1229 C1228 1.376 . S
C1229 C1230 1.388 . S
C1230 H1217 0.930 . S
C1230 C1229 1.388 . S
C1230 C1231 1.390 . S
C1231 C1230 1.390 . S
C1231 C1232 1.394 . S
C1231 C1237 1.465 . S
C1232 C1227 1.399 . S
C1232 C1231 1.394 . S
C1232 C1233 1.516 . S
C1233 C1232 1.516 . S
C1233 C1234 1.502 . S
C1233 C1235 1.561 . S
C1233 C1236 1.526 . S
C1234 H1218 0.959 . S
C1234 H1219 0.959 . S
C1234 H1220 0.961 . S
C1234 C1233 1.502 . S
C1235 H1221 0.960 . S
C1235 H1222 0.961 . S
C1235 H1223 0.959 . S
C1235 C1233 1.561 . S
C1236 C1233 1.526 . S
C1236 C1237 1.396 . S
C1236 C1241 1.390 . S
C1237 C1231 1.465 . S
C1237 C1236 1.396 . S
C1237 C1238 1.399 . S
C1238 H1224 0.929 . S
C1238 C1237 1.399 . S
C1238 C1239 1.385 . S
C1239 H1225 0.931 . S
C1239 C1238 1.385 . S
C1239 C1240 1.389 . S
C1240 C1239 1.389 . S
C1240 C1241 1.387 . S
C1241 H1226 0.930 . S
C1241 C1236 1.390 . S
C1241 C1240 1.387 . S
H1242 C1254 0.932 . S
H1243 C1256 0.930 . S
H1244 C1257 0.930 . S
H1245 C1261 0.959 . S
H1246 C1261 0.959 . S
H1247 C1261 0.961 . S
H1248 C1262 0.960 . S
H1249 C1262 0.961 . S
H1250 C1262 0.959 . S
H1251 C1265 0.928 . S
H1252 C1266 0.931 . S
H1253 C1268 0.930 . S
C1254 H1242 0.932 . S
C1254 C1255 1.399 1_454 S
C1254 C1259 1.399 . S
C1255 C1254 1.399 1_656 S
C1255 C1256 1.376 1_556 S
C1256 H1243 0.930 . S
C1256 C1255 1.376 1_554 S
C1256 C1257 1.388 . S
C1257 H1244 0.930 . S
C1257 C1256 1.388 . S
C1257 C1258 1.390 1_655 S
C1258 C1257 1.390 1_455 S
C1258 C1259 1.394 . S
C1258 C1264 1.465 . S
C1259 C1254 1.399 . S
C1259 C1258 1.394 . S
C1259 C1260 1.516 . S
C1260 C1259 1.516 . S
C1260 C1261 1.502 . S
C1260 C1262 1.561 . S
C1260 C1263 1.526 . S
C1261 H1245 0.959 . S
C1261 H1246 0.959 . S
C1261 H1247 0.961 . S
C1261 C1260 1.502 . S
C1262 H1248 0.960 . S
C1262 H1249 0.961 . S
C1262 H1250 0.959 . S
C1262 C1260 1.561 . S
C1263 C1260 1.526 . S
C1263 C1264 1.396 . S
C1263 C1268 1.390 . S
C1264 C1258 1.465 . S
C1264 C1263 1.396 . S
C1264 C1265 1.399 1_455 S
C1265 H1251 0.928 . S
C1265 C1264 1.399 1_655 S
C1265 C1266 1.387 1_655 S
C1266 H1252 0.931 . S
C1266 C1265 1.387 1_455 S
C1266 C1267 1.389 . S
C1267 C1266 1.389 . S
C1267 C1268 1.387 . S
C1268 H1253 0.930 . S
C1268 C1263 1.390 . S
C1268 C1267 1.387 . S
H1269 C1281 0.930 . S
H1270 C1283 0.930 . S
H1271 C1284 0.930 . S
H1272 C1288 0.959 . S
H1273 C1288 0.959 . S
H1274 C1288 0.961 . S
H1275 C1289 0.960 . S
H1276 C1289 0.961 . S
H1277 C1289 0.959 . S
H1278 C1292 0.929 . S
H1279 C1293 0.931 . S
H1280 C1295 0.930 . S
C1281 H1269 0.930 . S
C1281 C1282 1.399 . S
C1281 C1286 1.399 1_556 S
C1282 C1281 1.399 . S
C1282 C1283 1.376 1_556 S
C1283 H1270 0.930 . S
C1283 C1282 1.376 1_554 S
C1283 C1284 1.388 . S
C1284 H1271 0.930 . S
C1284 C1283 1.388 . S
C1284 C1285 1.390 . S
C1285 C1284 1.390 . S
C1285 C1286 1.394 . S
C1285 C1291 1.465 . S
C1286 C1281 1.399 1_554 S
C1286 C1285 1.394 . S
C1286 C1287 1.516 . S
C1287 C1286 1.516 . S
C1287 C1288 1.502 . S
C1287 C1289 1.561 1_554 S
C1287 C1290 1.526 . S
C1288 H1272 0.959 . S
C1288 H1273 0.959 . S
C1288 H1274 0.961 . S
C1288 C1287 1.502 . S
C1289 H1275 0.960 . S
C1289 H1276 0.961 . S
C1289 H1277 0.959 . S
C1289 C1287 1.561 1_556 S
C1290 C1287 1.526 . S
C1290 C1291 1.396 . S
C1290 C1295 1.390 . S
C1291 C1285 1.465 . S
C1291 C1290 1.396 . S
C1291 C1292 1.399 . S
C1292 H1278 0.929 . S
C1292 C1291 1.399 . S
C1292 C1293 1.385 . S
C1293 H1279 0.931 . S
C1293 C1292 1.385 . S
C1293 C1294 1.389 . S
C1294 C1293 1.389 . S
C1294 C1295 1.387 . S
C1295 H1280 0.930 . S
C1295 C1290 1.390 . S
C1295 C1294 1.387 . S
H1296 C1308 0.930 . S
H1297 C1310 0.930 . S
H1298 C1311 0.930 . S
H1299 C1315 0.959 . S
H1300 C1315 0.959 . S
H1301 C1315 0.961 . S
H1302 C1316 0.960 . S
H1303 C1316 0.961 . S
H1304 C1316 0.959 . S
H1305 C1319 0.929 1_655 S
H1306 C1320 0.931 . S
H1307 C1322 0.930 . S
C1308 H1296 0.930 . S
C1308 C1309 1.399 1_455 S
C1308 C1313 1.399 . S
C1309 C1308 1.399 1_655 S
C1309 C1310 1.376 . S
C1310 H1297 0.930 . S
C1310 C1309 1.376 . S
C1310 C1311 1.388 . S
C1311 H1298 0.930 . S
C1311 C1310 1.388 . S
C1311 C1312 1.393 . S
C1312 C1311 1.393 . S
C1312 C1313 1.389 1_655 S
C1312 C1318 1.466 1_655 S
C1313 C1308 1.399 . S
C1313 C1312 1.389 1_455 S
C1313 C1314 1.516 . S
C1314 C1313 1.516 . S
C1314 C1315 1.502 . S
C1314 C1316 1.561 . S
C1314 C1317 1.526 . S
C1315 H1299 0.959 . S
C1315 H1300 0.959 . S
C1315 H1301 0.961 . S
C1315 C1314 1.502 . S
C1316 H1302 0.960 . S
C1316 H1303 0.961 . S
C1316 H1304 0.959 . S
C1316 C1314 1.561 . S
C1317 C1314 1.526 . S
C1317 C1318 1.396 . S
C1317 C1322 1.390 . S
C1318 C1312 1.466 1_455 S
C1318 C1317 1.396 . S
C1318 C1319 1.399 . S
C1319 H1305 0.929 1_455 S
C1319 C1318 1.399 . S
C1319 C1320 1.385 . S
C1320 H1306 0.931 . S
C1320 C1319 1.385 . S
C1320 C1321 1.389 . S
C1321 C1320 1.389 . S
C1321 C1322 1.387 . S
C1322 H1307 0.930 . S
C1322 C1317 1.390 . S
C1322 C1321 1.387 . S
H1323 C1335 0.930 . S
H1324 C1337 0.930 . S
H1325 C1338 0.930 . S
H1326 C1342 0.959 . S
H1327 C1342 0.959 . S
H1328 C1342 0.961 . S
H1329 C1343 0.960 . S
H1330 C1343 0.961 . S
H1331 C1343 0.959 . S
H1332 C1346 0.929 . S
H1333 C1347 0.931 . S
H1334 C1349 0.930 . S
C1335 H1323 0.930 . S
C1335 C1336 1.399 . S
C1335 C1340 1.399 . S
C1336 C1335 1.399 . S
C1336 C1337 1.376 . S
C1337 H1324 0.930 . S
C1337 C1336 1.376 . S
C1337 C1338 1.388 . S
C1338 H1325 0.930 . S
C1338 C1337 1.388 . S
C1338 C1339 1.390 . S
C1339 C1338 1.390 . S
C1339 C1340 1.394 . S
C1339 C1345 1.465 . S
C1340 C1335 1.399 . S
C1340 C1339 1.394 . S
C1340 C1341 1.516 . S
C1341 C1340 1.516 . S
C1341 C1342 1.502 . S
C1341 C1343 1.561 . S
C1341 C1344 1.526 . S
C1342 H1326 0.959 . S
C1342 H1327 0.959 . S
C1342 H1328 0.961 . S
C1342 C1341 1.502 . S
C1343 H1329 0.960 . S
C1343 H1330 0.961 . S
C1343 H1331 0.959 . S
C1343 C1341 1.561 . S
C1344 C1341 1.526 . S
C1344 C1345 1.396 . S
C1344 C1349 1.390 . S
C1345 C1339 1.465 . S
C1345 C1344 1.396 . S
C1345 C1346 1.399 . S
C1346 H1332 0.929 . S
C1346 C1345 1.399 . S
C1346 C1347 1.385 . S
C1347 H1333 0.931 . S
C1347 C1346 1.385 . S
C1347 C1348 1.389 . S
C1348 C1347 1.389 . S
C1348 C1349 1.387 . S
C1349 H1334 0.930 . S
C1349 C1344 1.390 . S
C1349 C1348 1.387 . S
H1350 C1362 0.930 . S
H1351 C1364 0.930 . S
H1352 C1365 0.930 . S
H1353 C1369 0.959 . S
H1354 C1369 0.959 . S
H1355 C1369 0.961 . S
H1356 C1370 0.960 . S
H1357 C1370 0.961 . S
H1358 C1370 0.959 . S
H1359 C1373 0.929 . S
H1360 C1374 0.931 . S
H1361 C1376 0.930 . S
C1362 H1350 0.930 . S
C1362 C1363 1.399 . S
C1362 C1367 1.399 . S
C1363 C1362 1.399 . S
C1363 C1364 1.376 . S
C1364 H1351 0.930 . S
C1364 C1363 1.376 . S
C1364 C1365 1.388 . S
C1365 H1352 0.930 . S
C1365 C1364 1.388 . S
C1365 C1366 1.390 . S
C1366 C1365 1.390 . S
C1366 C1367 1.394 . S
C1366 C1372 1.465 . S
C1367 C1362 1.399 . S
C1367 C1366 1.394 . S
C1367 C1368 1.516 . S
C1368 C1367 1.516 . S
C1368 C1369 1.502 . S
C1368 C1370 1.561 . S
C1368 C1371 1.526 . S
C1369 H1353 0.959 . S
C1369 H1354 0.959 . S
C1369 H1355 0.961 . S
C1369 C1368 1.502 . S
C1370 H1356 0.960 . S
C1370 H1357 0.961 . S
C1370 H1358 0.959 . S
C1370 C1368 1.561 . S
C1371 C1368 1.526 . S
C1371 C1372 1.396 . S
C1371 C1376 1.390 . S
C1372 C1366 1.465 . S
C1372 C1371 1.396 . S
C1372 C1373 1.399 . S
C1373 H1359 0.929 . S
C1373 C1372 1.399 . S
C1373 C1374 1.385 . S
C1374 H1360 0.931 . S
C1374 C1373 1.385 . S
C1374 C1375 1.389 . S
C1375 C1374 1.389 . S
C1375 C1376 1.387 . S
C1376 H1361 0.930 . S
C1376 C1371 1.390 . S
C1376 C1375 1.387 . S
H1377 C1389 0.930 . S
H1378 C1391 0.930 1_554 S
H1379 C1392 0.930 . S
H1380 C1396 0.959 . S
H1381 C1396 0.959 . S
H1382 C1396 0.961 . S
H1383 C1397 0.970 . S
H1384 C1397 0.961 . S
H1385 C1397 0.959 . S
H1386 C1400 0.929 . S
H1387 C1401 0.931 . S
H1388 C1403 0.930 . S
C1389 H1377 0.930 . S
C1389 C1390 1.399 1_546 S
C1389 C1394 1.399 . S
C1390 C1389 1.399 1_564 S
C1390 C1391 1.376 1_554 S
C1391 H1378 0.930 1_556 S
C1391 C1390 1.376 1_556 S
C1391 C1392 1.388 . S
C1392 H1379 0.930 . S
C1392 C1391 1.388 . S
C1392 C1393 1.390 . S
C1393 C1392 1.390 . S
C1393 C1394 1.394 1_565 S
C1393 C1399 1.465 1_565 S
C1394 C1389 1.399 . S
C1394 C1393 1.394 1_545 S
C1394 C1395 1.516 . S
C1395 C1394 1.516 . S
C1395 C1396 1.502 . S
C1395 C1397 1.561 . S
C1395 C1398 1.526 . S
C1396 H1380 0.959 . S
C1396 H1381 0.959 . S
C1396 H1382 0.961 . S
C1396 C1395 1.502 . S
C1397 H1383 0.970 . S
C1397 H1384 0.961 . S
C1397 H1385 0.959 . S
C1397 C1395 1.561 . S
C1398 C1395 1.526 . S
C1398 C1399 1.396 . S
C1398 C1403 1.390 . S
C1399 C1393 1.465 1_545 S
C1399 C1398 1.396 . S
C1399 C1400 1.399 1_545 S
C1400 H1386 0.929 . S
C1400 C1399 1.399 1_565 S
C1400 C1401 1.385 1_565 S
C1401 H1387 0.931 . S
C1401 C1400 1.385 1_545 S
C1401 C1402 1.389 . S
C1402 C1401 1.389 . S
C1402 C1403 1.387 . S
C1403 H1388 0.930 . S
C1403 C1398 1.390 . S
C1403 C1402 1.387 . S
H1404 C1416 0.930 . S
H1405 C1418 0.930 . S
H1406 C1419 0.930 . S
H1407 C1423 0.959 . S
H1408 C1423 0.959 . S
H1409 C1423 0.961 . S
H1410 C1424 0.960 . S
H1411 C1424 0.961 . S
H1412 C1424 0.959 . S
H1413 C1427 0.929 . S
H1414 C1428 0.931 . S
H1415 C1430 0.930 . S
C1416 H1404 0.930 . S
C1416 C1417 1.399 . S
C1416 C1421 1.399 . S
C1417 C1416 1.399 . S
C1417 C1418 1.376 . S
C1418 H1405 0.930 . S
C1418 C1417 1.376 . S
C1418 C1419 1.388 . S
C1419 H1406 0.930 . S
C1419 C1418 1.388 . S
C1419 C1420 1.390 . S
C1420 C1419 1.390 . S
C1420 C1421 1.394 . S
C1420 C1426 1.465 . S
C1421 C1416 1.399 . S
C1421 C1420 1.394 . S
C1421 C1422 1.516 . S
C1422 C1421 1.516 . S
C1422 C1423 1.502 . S
C1422 C1424 1.561 1_556 S
C1422 C1425 1.526 . S
C1423 H1407 0.959 . S
C1423 H1408 0.959 . S
C1423 H1409 0.961 . S
C1423 C1422 1.502 . S
C1424 H1410 0.960 . S
C1424 H1411 0.961 . S
C1424 H1412 0.959 . S
C1424 C1422 1.561 1_554 S
C1425 C1422 1.526 . S
C1425 C1426 1.396 . S
C1425 C1430 1.390 1_556 S
C1426 C1420 1.465 . S
C1426 C1425 1.396 . S
C1426 C1427 1.399 . S
C1427 H1413 0.929 . S
C1427 C1426 1.399 . S
C1427 C1428 1.385 . S
C1428 H1414 0.931 . S
C1428 C1427 1.385 . S
C1428 C1429 1.389 1_556 S
C1429 C1428 1.389 1_554 S
C1429 C1430 1.387 . S
C1430 H1415 0.930 . S
C1430 C1425 1.390 1_554 S
C1430 C1429 1.387 . S
H1431 C1443 0.930 . S
H1432 C1445 0.930 . S
H1433 C1446 0.930 . S
H1434 C1450 0.957 1_556 S
H1435 C1450 0.967 . S
H1436 C1450 0.960 1_556 S
H1437 C1451 0.960 . S
H1438 C1451 0.961 1_554 S
H1439 C1451 0.959 . S
H1440 C1454 0.929 . S
H1441 C1455 0.931 . S
H1442 C1457 0.919 1_554 S
C1443 H1431 0.930 . S
C1443 C1444 1.399 . S
C1443 C1448 1.399 . S
C1444 C1443 1.399 . S
C1444 C1445 1.376 . S
C1445 H1432 0.930 . S
C1445 C1444 1.376 . S
C1445 C1446 1.388 . S
C1446 H1433 0.930 . S
C1446 C1445 1.388 . S
C1446 C1447 1.390 . S
C1447 C1446 1.390 . S
C1447 C1448 1.394 . S
C1447 C1453 1.465 . S
C1448 C1443 1.399 . S
C1448 C1447 1.394 . S
C1448 C1449 1.516 . S
C1449 C1448 1.516 . S
C1449 C1450 1.497 1_556 S
C1449 C1451 1.561 . S
C1449 C1452 1.526 . S
C1450 H1434 0.957 1_554 S
C1450 H1435 0.967 . S
C1450 H1436 0.960 1_554 S
C1450 C1449 1.497 1_554 S
C1451 H1437 0.960 . S
C1451 H1438 0.961 1_556 S
C1451 H1439 0.959 . S
C1451 C1449 1.561 . S
C1452 C1449 1.526 . S
C1452 C1453 1.396 . S
C1452 C1457 1.398 . S
C1453 C1447 1.465 . S
C1453 C1452 1.396 . S
C1453 C1454 1.399 . S
C1454 H1440 0.929 . S
C1454 C1453 1.399 . S
C1454 C1455 1.385 . S
C1455 H1441 0.931 . S
C1455 C1454 1.385 . S
C1455 C1456 1.389 . S
C1456 C1455 1.389 . S
C1456 C1457 1.389 . S
C1457 H1442 0.919 1_556 S
C1457 C1452 1.398 . S
C1457 C1456 1.389 . S
H1458 C1470 0.930 . S
H1459 C1472 0.930 1_565 S
H1460 C1473 0.930 . S
H1461 C1477 0.959 . S
H1462 C1477 0.959 . S
H1463 C1477 0.961 . S
H1464 C1478 0.960 . S
H1465 C1478 0.961 . S
H1466 C1478 0.959 . S
H1467 C1481 0.929 . S
H1468 C1482 0.931 . S
H1469 C1484 0.930 . S
C1470 H1458 0.930 . S
C1470 C1471 1.399 . S
C1470 C1475 1.399 . S
C1471 C1470 1.399 . S
C1471 C1472 1.376 . S
C1472 H1459 0.930 1_545 S
C1472 C1471 1.376 . S
C1472 C1473 1.388 . S
C1473 H1460 0.930 . S
C1473 C1472 1.388 . S
C1473 C1474 1.390 . S
C1474 C1473 1.390 . S
C1474 C1475 1.394 . S
C1474 C1480 1.465 . S
C1475 C1470 1.399 . S
C1475 C1474 1.394 . S
C1475 C1476 1.516 . S
C1476 C1475 1.516 . S
C1476 C1477 1.502 . S
C1476 C1478 1.561 . S
C1476 C1479 1.526 . S
C1477 H1461 0.959 . S
C1477 H1462 0.959 . S
C1477 H1463 0.961 . S
C1477 C1476 1.502 . S
C1478 H1464 0.960 . S
C1478 H1465 0.961 . S
C1478 H1466 0.959 . S
C1478 C1476 1.561 . S
C1479 C1476 1.526 . S
C1479 C1480 1.396 . S
C1479 C1484 1.390 . S
C1480 C1474 1.465 . S
C1480 C1479 1.396 . S
C1480 C1481 1.399 . S
C1481 H1467 0.929 . S
C1481 C1480 1.399 . S
C1481 C1482 1.385 . S
C1482 H1468 0.931 . S
C1482 C1481 1.385 . S
C1482 C1483 1.389 . S
C1483 C1482 1.389 . S
C1483 C1484 1.387 . S
C1484 H1469 0.930 . S
C1484 C1479 1.390 . S
C1484 C1483 1.387 . S
H1485 C1497 0.930 . S
H1486 C1499 0.930 . S
H1487 C1500 0.930 . S
H1488 C1504 0.959 . S
H1489 C1504 0.959 . S
H1490 C1504 0.961 . S
H1491 C1505 0.960 . S
H1492 C1505 0.961 . S
H1493 C1505 0.959 . S
H1494 C1508 0.929 . S
H1495 C1509 0.931 . S
H1496 C1511 0.930 . S
C1497 H1485 0.930 . S
C1497 C1498 1.399 . S
C1497 C1502 1.399 . S
C1498 C1497 1.399 . S
C1498 C1499 1.376 . S
C1499 H1486 0.930 . S
C1499 C1498 1.376 . S
C1499 C1500 1.388 . S
C1500 H1487 0.930 . S
C1500 C1499 1.388 . S
C1500 C1501 1.390 . S
C1501 C1500 1.390 . S
C1501 C1502 1.394 . S
C1501 C1507 1.465 . S
C1502 C1497 1.399 . S
C1502 C1501 1.394 . S
C1502 C1503 1.516 . S
C1503 C1502 1.516 . S
C1503 C1504 1.502 . S
C1503 C1505 1.561 . S
C1503 C1506 1.526 . S
C1504 H1488 0.959 . S
C1504 H1489 0.959 . S
C1504 H1490 0.961 . S
C1504 C1503 1.502 . S
C1505 H1491 0.960 . S
C1505 H1492 0.961 . S
C1505 H1493 0.959 . S
C1505 C1503 1.561 . S
C1506 C1503 1.526 . S
C1506 C1507 1.396 . S
C1506 C1511 1.390 . S
C1507 C1501 1.465 . S
C1507 C1506 1.396 . S
C1507 C1508 1.399 . S
C1508 H1494 0.929 . S
C1508 C1507 1.399 . S
C1508 C1509 1.385 . S
C1509 H1495 0.931 . S
C1509 C1508 1.385 . S
C1509 C1510 1.389 . S
C1510 C1509 1.389 . S
C1510 C1511 1.387 . S
C1511 H1496 0.930 . S
C1511 C1506 1.390 . S
C1511 C1510 1.387 . S
H1512 C1524 0.930 . S
H1513 C1526 0.930 . S
H1514 C1527 0.930 . S
H1515 C1531 0.959 . S
H1516 C1531 0.959 . S
H1517 C1531 0.961 . S
H1518 C1532 0.960 . S
H1519 C1532 0.961 . S
H1520 C1532 0.959 . S
H1521 C1535 0.929 . S
H1522 C1536 0.931 . S
H1523 C1538 0.930 . S
C1524 H1512 0.930 . S
C1524 C1525 1.399 . S
C1524 C1529 1.399 . S
C1525 C1524 1.399 . S
C1525 C1526 1.376 . S
C1526 H1513 0.930 . S
C1526 C1525 1.376 . S
C1526 C1527 1.388 . S
C1527 H1514 0.930 . S
C1527 C1526 1.388 . S
C1527 C1528 1.390 . S
C1528 C1527 1.390 . S
C1528 C1529 1.394 . S
C1528 C1534 1.465 . S
C1529 C1524 1.399 . S
C1529 C1528 1.394 . S
C1529 C1530 1.516 . S
C1530 C1529 1.516 . S
C1530 C1531 1.502 . S
C1530 C1532 1.561 . S
C1530 C1533 1.526 . S
C1531 H1515 0.959 . S
C1531 H1516 0.959 . S
C1531 H1517 0.961 . S
C1531 C1530 1.502 . S
C1532 H1518 0.960 . S
C1532 H1519 0.961 . S
C1532 H1520 0.959 . S
C1532 C1530 1.561 . S
C1533 C1530 1.526 . S
C1533 C1534 1.396 . S
C1533 C1538 1.390 . S
C1534 C1528 1.465 . S
C1534 C1533 1.396 . S
C1534 C1535 1.399 . S
C1535 H1521 0.929 . S
C1535 C1534 1.399 . S
C1535 C1536 1.385 . S
C1536 H1522 0.931 . S
C1536 C1535 1.385 . S
C1536 C1537 1.389 . S
C1537 C1536 1.389 . S
C1537 C1538 1.387 . S
C1538 H1523 0.930 . S
C1538 C1533 1.390 . S
C1538 C1537 1.387 . S
H1539 C1551 0.930 . S
H1540 C1553 0.930 . S
H1541 C1554 0.930 . S
H1542 C1558 0.959 . S
H1543 C1558 0.959 . S
H1544 C1558 0.961 . S
H1545 C1559 0.960 . S
H1546 C1559 0.961 . S
H1547 C1559 0.959 . S
H1548 C1562 0.929 . S
H1549 C1563 0.931 . S
H1550 C1565 0.930 . S
C1551 H1539 0.930 . S
C1551 C1552 1.399 . S
C1551 C1556 1.399 . S
C1552 C1551 1.399 . S
C1552 C1553 1.376 . S
C1553 H1540 0.930 . S
C1553 C1552 1.376 . S
C1553 C1554 1.388 . S
C1554 H1541 0.930 . S
C1554 C1553 1.388 . S
C1554 C1555 1.390 . S
C1555 C1554 1.390 . S
C1555 C1556 1.394 . S
C1555 C1561 1.465 . S
C1556 C1551 1.399 . S
C1556 C1555 1.394 . S
C1556 C1557 1.516 . S
C1557 C1556 1.516 . S
C1557 C1558 1.502 . S
C1557 C1559 1.561 . S
C1557 C1560 1.526 . S
C1558 H1542 0.959 . S
C1558 H1543 0.959 . S
C1558 H1544 0.961 . S
C1558 C1557 1.502 . S
C1559 H1545 0.960 . S
C1559 H1546 0.961 . S
C1559 H1547 0.959 . S
C1559 C1557 1.561 . S
C1560 C1557 1.526 . S
C1560 C1561 1.396 . S
C1560 C1565 1.390 . S
C1561 C1555 1.465 . S
C1561 C1560 1.396 . S
C1561 C1562 1.399 . S
C1562 H1548 0.929 . S
C1562 C1561 1.399 . S
C1562 C1563 1.385 . S
C1563 H1549 0.931 . S
C1563 C1562 1.385 . S
C1563 C1564 1.389 . S
C1564 C1563 1.389 . S
C1564 C1565 1.387 . S
C1565 H1550 0.930 . S
C1565 C1560 1.390 . S
C1565 C1564 1.387 . S
H1566 C1578 0.930 . S
H1567 C1580 0.930 . S
H1568 C1581 0.930 . S
H1569 C1585 0.959 . S
H1570 C1585 0.959 . S
H1571 C1585 0.961 . S
H1572 C1586 0.960 . S
H1573 C1586 0.961 . S
H1574 C1586 0.959 . S
H1575 C1589 0.929 . S
H1576 C1590 0.931 . S
H1577 C1592 0.930 . S
C1578 H1566 0.930 . S
C1578 C1579 1.399 . S
C1578 C1583 1.399 . S
C1579 C1578 1.399 . S
C1579 C1580 1.376 . S
C1580 H1567 0.930 . S
C1580 C1579 1.376 . S
C1580 C1581 1.388 . S
C1581 H1568 0.930 . S
C1581 C1580 1.388 . S
C1581 C1582 1.390 . S
C1582 C1581 1.390 . S
C1582 C1583 1.394 . S
C1582 C1588 1.465 . S
C1583 C1578 1.399 . S
C1583 C1582 1.394 . S
C1583 C1584 1.516 . S
C1584 C1583 1.516 . S
C1584 C1585 1.502 . S
C1584 C1586 1.561 . S
C1584 C1587 1.526 . S
C1585 H1569 0.959 . S
C1585 H1570 0.959 . S
C1585 H1571 0.961 . S
C1585 C1584 1.502 . S
C1586 H1572 0.960 . S
C1586 H1573 0.961 . S
C1586 H1574 0.959 . S
C1586 C1584 1.561 . S
C1587 C1584 1.526 . S
C1587 C1588 1.396 . S
C1587 C1592 1.390 . S
C1588 C1582 1.465 . S
C1588 C1587 1.396 . S
C1588 C1589 1.399 . S
C1589 H1575 0.929 . S
C1589 C1588 1.399 . S
C1589 C1590 1.385 . S
C1590 H1576 0.931 . S
C1590 C1589 1.385 . S
C1590 C1591 1.389 . S
C1591 C1590 1.389 . S
C1591 C1592 1.387 . S
C1592 H1577 0.930 . S
C1592 C1587 1.390 . S
C1592 C1591 1.387 . S
H1593 C1605 0.930 . S
H1594 C1607 0.930 . S
H1595 C1608 0.930 . S
H1596 C1612 0.959 . S
H1597 C1612 0.959 . S
H1598 C1612 0.961 . S
H1599 C1613 0.960 . S
H1600 C1613 0.961 . S
H1601 C1613 0.959 . S
H1602 C1616 0.929 . S
H1603 C1617 0.931 . S
H1604 C1619 0.930 . S
C1605 H1593 0.930 . S
C1605 C1606 1.399 . S
C1605 C1610 1.399 . S
C1606 C1605 1.399 . S
C1606 C1607 1.376 . S
C1607 H1594 0.930 . S
C1607 C1606 1.376 . S
C1607 C1608 1.388 . S
C1608 H1595 0.930 . S
C1608 C1607 1.388 . S
C1608 C1609 1.390 . S
C1609 C1608 1.390 . S
C1609 C1610 1.394 . S
C1609 C1615 1.465 . S
C1610 C1605 1.399 . S
C1610 C1609 1.394 . S
C1610 C1611 1.516 . S
C1611 C1610 1.516 . S
C1611 C1612 1.502 . S
C1611 C1613 1.561 . S
C1611 C1614 1.526 . S
C1612 H1596 0.959 . S
C1612 H1597 0.959 . S
C1612 H1598 0.961 . S
C1612 C1611 1.502 . S
C1613 H1599 0.960 . S
C1613 H1600 0.961 . S
C1613 H1601 0.959 . S
C1613 C1611 1.561 . S
C1614 C1611 1.526 . S
C1614 C1615 1.396 . S
C1614 C1619 1.390 . S
C1615 C1609 1.465 . S
C1615 C1614 1.396 . S
C1615 C1616 1.399 . S
C1616 H1602 0.929 . S
C1616 C1615 1.399 . S
C1616 C1617 1.385 . S
C1617 H1603 0.931 . S
C1617 C1616 1.385 . S
C1617 C1618 1.389 . S
C1618 C1617 1.389 . S
C1618 C1619 1.387 . S
C1619 H1604 0.930 . S
C1619 C1614 1.390 . S
C1619 C1618 1.387 . S
C661 C122 1.263 . S
C673 C4 1.245 . S
C688 C148 1.288 . S
C700 C50 1.246 . S
C715 C76 1.241 . S
C727 C184 1.326 . S
C742 C86 1.294 . S
C754 C194 1.227 . S
C769 C14 1.299 . S
C781 C112 1.315 . S
C796 C158 1.269 . S
C808 C40 1.297 . S
C823 C328 1.312 . S
C835 C220 1.271 . S
C850 C266 1.291 . S
C862 C364 1.289 . S
C877 C302 1.317 . S
C889 C400 1.221 . S
C904 C410 1.298 1_556 S
C916 C292 1.304 . S
C931 C338 1.245 . S
C943 C230 1.301 . S
C958 C374 1.308 1_556 S
C970 C256 1.234 . S
C985 C436 1.319 . S
C997 C554 1.293 . S
C1012 C482 1.264 . S
C1024 C580 1.248 . S
C1039 C508 1.246 . S
C1051 C616 1.314 . S
C1066 C626 1.237 . S
C1078 C518 1.287 1_554 S
C1093 C544 1.284 . S
C1105 C446 1.260 1_554 S
C1120 C590 1.281 . S
C1132 C472 1.309 . S
C1147 C3 1.240 . S
C1159 C255 1.267 . S
C1174 C38 1.179 . S
C1186 C291 1.249 . S
C1201 C218 1.225 . S
C1213 C75 1.221 . S
C1228 C74 1.188 . S
C1240 C470 1.156 1_554 S
C1255 C507 1.246 . S
C1267 C2 1.250 . S
C1282 C435 1.244 . S
C1294 C39 1.240 . S
C1309 C578 1.215 . S
C1321 C110 1.240 . S
C1336 C147 1.239 . S
C1348 C614 1.177 . S
C1363 C543 1.257 . S
C1375 C183 1.280 . S
C1390 C363 1.263 . S
C1402 C182 1.248 . S
C1417 C111 1.252 . S
C1429 C399 1.230 . S
C1444 C146 1.220 . S
C1456 C327 1.219 1_556 S
C1471 C219 1.231 . S
C1483 C471 1.266 . S
C1498 C254 1.177 . S
C1510 C506 1.237 . S
C1525 C290 1.156 . S
C1537 C434 1.176 . S
C1552 C579 1.255 . S
C1564 C398 1.219 . S
C1579 C615 1.239 . S
C1591 C326 1.249 . S
C1606 C362 1.200 1_545 S
C1618 C542 1.159 . S
