# Generated by pormake.
# Topology qtz-g, (3)-cn, num edge types: 1
# Building blocks:
#     Node 0, Type 0, BuildingBlock: WUSLED_clean_sbu_0, # of connection points: 3
#     Node 1, Type 0, BuildingBlock: WUSLED_clean_sbu_0, # of connection points: 3
#     Node 2, Type 0, BuildingBlock: WUSLED_clean_sbu_0, # of connection points: 3
#     Node 3, Type 0, BuildingBlock: WUSLED_clean_sbu_0, # of connection points: 3
#     Node 4, Type 0, BuildingBlock: WUSLED_clean_sbu_0, # of connection points: 3
#     Node 5, Type 0, BuildingBlock: WUSLED_clean_sbu_0, # of connection points: 3
#     Node 6, Type 0, BuildingBlock: WUSLED_clean_sbu_0, # of connection points: 3
#     Node 7, Type 0, BuildingBlock: WUSLED_clean_sbu_0, # of connection points: 3
#     Node 8, Type 0, BuildingBlock: WUSLED_clean_sbu_0, # of connection points: 3
#     Node 9, Type 0, BuildingBlock: WUSLED_clean_sbu_0, # of connection points: 3
#     Node 10, Type 0, BuildingBlock: WUSLED_clean_sbu_0, # of connection points: 3
#     Node 11, Type 0, BuildingBlock: WUSLED_clean_sbu_0, # of connection points: 3
#     Edge 12, Type (0, 0), BuildingBlock: TEMPAE_clean_linker_10, # of connection points: 2
#     Edge 13, Type (0, 0), BuildingBlock: TEMPAE_clean_linker_10, # of connection points: 2
#     Edge 14, Type (0, 0), BuildingBlock: TEMPAE_clean_linker_10, # of connection points: 2
#     Edge 15, Type (0, 0), BuildingBlock: TEMPAE_clean_linker_10, # of connection points: 2
#     Edge 16, Type (0, 0), BuildingBlock: TEMPAE_clean_linker_10, # of connection points: 2
#     Edge 17, Type (0, 0), BuildingBlock: TEMPAE_clean_linker_10, # of connection points: 2
#     Edge 18, Type (0, 0), BuildingBlock: TEMPAE_clean_linker_10, # of connection points: 2
#     Edge 19, Type (0, 0), BuildingBlock: TEMPAE_clean_linker_10, # of connection points: 2
#     Edge 20, Type (0, 0), BuildingBlock: TEMPAE_clean_linker_10, # of connection points: 2
#     Edge 21, Type (0, 0), BuildingBlock: TEMPAE_clean_linker_10, # of connection points: 2
#     Edge 22, Type (0, 0), BuildingBlock: TEMPAE_clean_linker_10, # of connection points: 2
#     Edge 23, Type (0, 0), BuildingBlock: TEMPAE_clean_linker_10, # of connection points: 2
#     Edge 24, Type (0, 0), BuildingBlock: TEMPAE_clean_linker_10, # of connection points: 2
#     Edge 25, Type (0, 0), BuildingBlock: TEMPAE_clean_linker_10, # of connection points: 2
#     Edge 26, Type (0, 0), BuildingBlock: TEMPAE_clean_linker_10, # of connection points: 2
#     Edge 27, Type (0, 0), BuildingBlock: TEMPAE_clean_linker_10, # of connection points: 2
#     Edge 28, Type (0, 0), BuildingBlock: TEMPAE_clean_linker_10, # of connection points: 2
#     Edge 29, Type (0, 0), BuildingBlock: TEMPAE_clean_linker_10, # of connection points: 2
# Relax obj value: 0.110
# Max RMSD: 0.087
# Mean RMSD: 0.086
data_MOF--net-qtz-g--node1-WUSLED_clean_sbu_0--edge1-TEMPAE_clean_linker_10
_symmetry_space_group_name_H-M    P1
_symmetry_Int_Tables_number       1
_symmetry_cell_setting            triclinic
loop_
_symmetry_equiv_pos_as_xyz
'x, y, z'
_cell_length_a     67.538739
_cell_length_b     68.346833
_cell_length_c     107.10546
_cell_angle_alpha  90.212761
_cell_angle_beta   90.003179
_cell_angle_gamma 119.62283
loop_
_atom_site_label
_atom_site_type_symbol
_atom_site_fract_x
_atom_site_fract_y
_atom_site_fract_z
_atom_type_partial_charge
C0 C 0.05441 0.33153 0.10249 0.0
C1 C 0.04961 0.34548 0.11006 0.0
C2 C 0.0368 0.31789 0.12677 0.0
C3 C 0.04103 0.3388 0.12209 0.0
C4 C 0.04135 0.30379 0.11911 0.0
C5 C 0.05017 0.31062 0.10707 0.0
U6 U 0.05944 0.3669 0.07476 0.0
O7 O 0.08839 0.38933 0.06294 0.0
O8 O 0.05812 0.361 0.05447 0.0
C9 C 0.07896 0.37765 0.05274 0.0
C10 C 0.06312 0.33864 0.08973 0.0
C11 C 0.09386 0.37269 0.04495 0.0
C12 C 0.11505 0.35306 0.04112 0.0
C13 C 0.09989 0.35656 0.04846 0.0
C14 C 0.11801 0.38161 0.02668 0.0
C15 C 0.12449 0.36577 0.03022 0.0
C16 C 0.10284 0.38501 0.03398 0.0
C17 C 0.02966 0.4022 0.07859 0.0
C18 C 0.0363 0.43416 0.06578 0.0
C19 C 0.00722 0.4206 0.0818 0.0
C20 C 0.01233 0.40376 0.08488 0.0
C21 C 0.01942 0.43626 0.07239 0.0
C22 C 0.04141 0.41724 0.06887 0.0
C23 C 0.03587 0.38553 0.0828 0.0
O24 O 0.04741 0.33211 0.081 0.0
O25 O 0.07896 0.35987 0.08869 0.0
O26 O 0.05754 0.39345 0.08538 0.0
O27 O 0.02669 0.36639 0.07661 0.0
H28 H 0.05242 0.36156 0.10664 0.0
H29 H 0.03732 0.34985 0.12767 0.0
H30 H 0.03829 0.28762 0.12249 0.0
H31 H 0.05361 0.29956 0.10133 0.0
H32 H 0.11985 0.34086 0.04412 0.0
H33 H 0.09315 0.34696 0.05695 0.0
H34 H 0.12471 0.39142 0.01826 0.0
H35 H 0.09833 0.3975 0.03113 0.0
H36 H 0.04606 0.44603 0.05852 0.0
H37 H 0.99386 0.42152 0.08691 0.0
H38 H 0.00303 0.39221 0.09236 0.0
H39 H 0.05485 0.41622 0.0639 0.0
C40 C 0.7243 0.04749 0.43407 0.0
C41 C 0.70434 0.04045 0.44105 0.0
C42 C 0.72015 0.029 0.45812 0.0
C43 C 0.70234 0.03145 0.45296 0.0
C44 C 0.74016 0.03608 0.45108 0.0
C45 C 0.7422 0.04525 0.43914 0.0
U46 U 0.69395 0.05283 0.40616 0.0
O47 O 0.69982 0.08158 0.39451 0.0
O48 O 0.69922 0.05207 0.3859 0.0
C49 C 0.70269 0.07259 0.38428 0.0
C50 C 0.72598 0.05659 0.42143 0.0
C51 C 0.7224 0.08761 0.37659 0.0
C52 C 0.76281 0.11404 0.3741 0.0
C53 C 0.74462 0.09863 0.38145 0.0
C54 C 0.73674 0.10709 0.35693 0.0
C55 C 0.75898 0.11869 0.36181 0.0
C56 C 0.71865 0.09172 0.36426 0.0
C57 C 0.62855 0.02205 0.40915 0.0
C58 C 0.60221 0.02987 0.39766 0.0
C59 C 0.58781 0.9968 0.41076 0.0
C60 C 0.61009 0.0025 0.41392 0.0
C61 C 0.58358 0.01061 0.40276 0.0
C62 C 0.62455 0.03553 0.40081 0.0
C63 C 0.6516 0.02863 0.41363 0.0
O64 O 0.71761 0.04141 0.41248 0.0
O65 O 0.71971 0.07194 0.42051 0.0
O66 O 0.66457 0.05002 0.41646 0.0
O67 O 0.66244 0.02005 0.40755 0.0
H68 H 0.69026 0.04194 0.43728 0.0
H69 H 0.68686 0.0266 0.45816 0.0
H70 H 0.75411 0.03422 0.4547 0.0
H71 H 0.75767 0.05044 0.43385 0.0
H72 H 0.77972 0.12281 0.37815 0.0
H73 H 0.7478 0.09564 0.39098 0.0
H74 H 0.73327 0.11001 0.34745 0.0
H75 H 0.70161 0.0833 0.36035 0.0
H76 H 0.5995 0.04072 0.39139 0.0
H77 H 0.57388 0.98205 0.41499 0.0
H78 H 0.61287 0.99195 0.4204 0.0
H79 H 0.63864 0.05066 0.39698 0.0
C80 C 0.67022 0.71877 0.76563 0.0
C81 C 0.66761 0.69813 0.76968 0.0
C82 C 0.6832 0.71437 0.79007 0.0
C83 C 0.67413 0.69597 0.78175 0.0
C84 C 0.68601 0.73512 0.7859 0.0
C85 C 0.67954 0.73728 0.77378 0.0
U86 U 0.63457 0.68928 0.73753 0.0
O87 O 0.61131 0.6956 0.72607 0.0
O88 O 0.64051 0.69517 0.71735 0.0
C89 C 0.6233 0.69883 0.71585 0.0
C90 C 0.66214 0.72053 0.75315 0.0
C91 C 0.62801 0.71882 0.70853 0.0
C92 C 0.64601 0.75937 0.70595 0.0
C93 C 0.64219 0.74068 0.7131 0.0
C94 C 0.62165 0.73443 0.68964 0.0
C95 C 0.63575 0.75644 0.69412 0.0
C96 C 0.61785 0.71584 0.69677 0.0
C97 C 0.60192 0.62454 0.73935 0.0
C98 C 0.56821 0.59874 0.72752 0.0
C99 C 0.58871 0.58444 0.73953 0.0
C100 C 0.60436 0.60633 0.74329 0.0
C101 C 0.57021 0.58032 0.73177 0.0
C102 C 0.58396 0.62069 0.73127 0.0
C103 C 0.61769 0.64712 0.74427 0.0
O104 O 0.66936 0.71299 0.7439 0.0
O105 O 0.64024 0.71369 0.75249 0.0
O106 O 0.60853 0.65953 0.74736 0.0
O107 O 0.63719 0.65841 0.73839 0.0
H108 H 0.66033 0.68359 0.76354 0.0
H109 H 0.67204 0.67985 0.78456 0.0
H110 H 0.69269 0.74955 0.79211 0.0
H111 H 0.68149 0.75328 0.77084 0.0
H112 H 0.65709 0.77608 0.70964 0.0
H113 H 0.6502 0.74326 0.72218 0.0
H114 H 0.61314 0.73152 0.68069 0.0
H115 H 0.60678 0.69906 0.69313 0.0
H116 H 0.5541 0.59614 0.72161 0.0
H117 H 0.59101 0.57071 0.74278 0.0
H118 H 0.61819 0.60901 0.74948 0.0
H119 H 0.58184 0.63457 0.72808 0.0
C120 C 0.94886 0.66253 0.10278 0.0
C121 C 0.95725 0.6496 0.10844 0.0
C122 C 0.9644 0.67101 0.12772 0.0
C123 C 0.96487 0.65375 0.12077 0.0
C124 C 0.95633 0.68422 0.12196 0.0
C125 C 0.94853 0.67994 0.10958 0.0
U126 U 0.94586 0.63257 0.07301 0.0
O127 O 0.91788 0.61207 0.0601 0.0
O128 O 0.9483 0.64213 0.05318 0.0
C129 C 0.9276 0.62579 0.05067 0.0
C130 C 0.94075 0.65773 0.08978 0.0
C131 C 0.91293 0.63206 0.04353 0.0
C132 C 0.88068 0.63852 0.04218 0.0
C133 C 0.89568 0.63459 0.04934 0.0
C134 C 0.90057 0.63838 0.02338 0.0
C135 C 0.88278 0.64016 0.02909 0.0
C136 C 0.91546 0.63431 0.03054 0.0
C137 C 0.97667 0.59773 0.07452 0.0
C138 C 0.96988 0.56573 0.06155 0.0
C139 C 0.00132 0.58142 0.07625 0.0
C140 C 0.99552 0.59759 0.07985 0.0
C141 C 0.98832 0.56503 0.06723 0.0
C142 C 0.96411 0.582 0.06516 0.0
C143 C 0.9696 0.61332 0.07959 0.0
O144 O 0.95689 0.66597 0.0813 0.0
O145 O 0.92529 0.63667 0.0876 0.0
O146 O 0.94772 0.60463 0.08185 0.0
O147 O 0.97883 0.63339 0.0745 0.0
H148 H 0.95788 0.63624 0.10329 0.0
H149 H 0.97138 0.64356 0.12485 0.0
H150 H 0.95573 0.69759 0.1271 0.0
H151 H 0.9422 0.69015 0.10533 0.0
H152 H 0.8673 0.64009 0.04685 0.0
H153 H 0.89352 0.63306 0.05938 0.0
H154 H 0.9025 0.63934 0.01333 0.0
H155 H 0.92863 0.63236 0.02589 0.0
H156 H 0.95967 0.55347 0.0545 0.0
H157 H 0.01539 0.58118 0.08095 0.0
H158 H 0.00534 0.60955 0.08713 0.0
H159 H 0.94952 0.58192 0.06091 0.0
C160 C 0.28137 0.94873 0.43639 0.0
C161 C 0.30162 0.95702 0.44328 0.0
C162 C 0.28532 0.96861 0.46009 0.0
C163 C 0.30354 0.96675 0.45502 0.0
C164 C 0.265 0.96025 0.45314 0.0
C165 C 0.26306 0.95039 0.44137 0.0
U166 U 0.31193 0.93977 0.40983 0.0
O167 O 0.30472 0.91001 0.39858 0.0
O168 O 0.3086 0.9404 0.38941 0.0
C169 C 0.30346 0.91927 0.38809 0.0
C170 C 0.27979 0.93878 0.42397 0.0
C171 C 0.28367 0.90523 0.38014 0.0
C172 C 0.24279 0.88354 0.37663 0.0
C173 C 0.26132 0.89742 0.38432 0.0
C174 C 0.26887 0.8854 0.36053 0.0
C175 C 0.24638 0.87734 0.36464 0.0
C176 C 0.28731 0.89921 0.36821 0.0
C177 C 0.37686 0.96741 0.41462 0.0
C178 C 0.40277 0.96166 0.40136 0.0
C179 C 0.41739 0.9873 0.41899 0.0
C180 C 0.39535 0.98271 0.42185 0.0
C181 C 0.42134 0.97662 0.40882 0.0
C182 C 0.38064 0.95705 0.40426 0.0
C183 C 0.35384 0.9621 0.41836 0.0
O184 O 0.28953 0.95344 0.41494 0.0
O185 O 0.28481 0.92249 0.42371 0.0
O186 O 0.33974 0.9409 0.42101 0.0
O187 O 0.34442 0.97147 0.41172 0.0
H188 H 0.31597 0.95592 0.43958 0.0
H189 H 0.31928 0.97259 0.46018 0.0
H190 H 0.25072 0.9616 0.45671 0.0
H191 H 0.24735 0.94419 0.43613 0.0
H192 H 0.2257 0.87778 0.38003 0.0
H193 H 0.25823 0.90196 0.39353 0.0
H194 H 0.27226 0.88068 0.35145 0.0
H195 H 0.30446 0.90502 0.36486 0.0
H196 H 0.40527 0.95309 0.39351 0.0
H197 H 0.43136 0.99919 0.42478 0.0
H198 H 0.39272 0.99092 0.42985 0.0
H199 H 0.36647 0.94517 0.39857 0.0
C200 C 0.4209 0.37144 0.71657 0.0
C201 C 0.42023 0.38527 0.72607 0.0
C202 C 0.45172 0.41814 0.71644 0.0
C203 C 0.43546 0.4084 0.726 0.0
C204 C 0.45213 0.40421 0.70684 0.0
C205 C 0.43681 0.38103 0.70691 0.0
U206 U 0.37808 0.3208 0.73448 0.0
O207 O 0.34692 0.29019 0.72851 0.0
O208 O 0.37489 0.28753 0.73723 0.0
C209 C 0.35532 0.277 0.73128 0.0
C210 C 0.40573 0.34696 0.71708 0.0
C211 C 0.35439 0.26191 0.7212 0.0
C212 C 0.36895 0.25585 0.70169 0.0
C213 C 0.36909 0.27043 0.71093 0.0
C214 C 0.33903 0.22413 0.71274 0.0
C215 C 0.35405 0.2325 0.70254 0.0
C216 C 0.33924 0.23873 0.722 0.0
C217 C 0.36405 0.33441 0.76742 0.0
C218 C 0.33423 0.30937 0.78164 0.0
C219 C 0.36355 0.34608 0.78878 0.0
C220 C 0.37354 0.35045 0.77698 0.0
C221 C 0.3438 0.3255 0.79128 0.0
C222 C 0.34436 0.31377 0.76979 0.0
C223 C 0.37515 0.34 0.75514 0.0
O224 O 0.4116 0.33661 0.72536 0.0
O225 O 0.38383 0.3403 0.71723 0.0
O226 O 0.36195 0.33646 0.74539 0.0
O227 O 0.39071 0.3341 0.7533 0.0
H228 H 0.40816 0.37809 0.73367 0.0
H229 H 0.43492 0.41856 0.73364 0.0
H230 H 0.46433 0.41123 0.69931 0.0
H231 H 0.43758 0.37056 0.69952 0.0
H232 H 0.38053 0.26285 0.69388 0.0
H233 H 0.38087 0.28832 0.71015 0.0
H234 H 0.32753 0.20623 0.71374 0.0
H235 H 0.32782 0.23189 0.72989 0.0
H236 H 0.31909 0.29333 0.78331 0.0
H237 H 0.37111 0.35902 0.7959 0.0
H238 H 0.38869 0.36651 0.7753 0.0
H239 H 0.33684 0.30115 0.7625 0.0
C240 C 0.67383 0.94921 0.56988 0.0
C241 C 0.66195 0.9576 0.56304 0.0
C242 C 0.68902 0.96789 0.54594 0.0
C243 C 0.66936 0.96671 0.5512 0.0
C244 C 0.70093 0.95946 0.55284 0.0
C245 C 0.69338 0.95019 0.56473 0.0
U246 U 0.6372 0.94423 0.59712 0.0
O247 O 0.61323 0.91556 0.60851 0.0
O248 O 0.64197 0.94474 0.61747 0.0
C249 C 0.62462 0.92432 0.6189 0.0
C250 C 0.66587 0.93996 0.58244 0.0
C251 C 0.62862 0.90895 0.6267 0.0
C252 C 0.64858 0.88838 0.63129 0.0
C253 C 0.64579 0.90373 0.62389 0.0
C254 C 0.61717 0.88351 0.64435 0.0
C255 C 0.63412 0.87793 0.64153 0.0
C256 C 0.61447 0.89887 0.637 0.0
C257 C 0.60406 0.97635 0.59256 0.0
C258 C 0.57797 0.97834 0.60746 0.0
C259 C 0.58259 0.9948 0.58692 0.0
C260 C 0.59838 0.98804 0.58389 0.0
C261 C 0.57216 0.99007 0.59873 0.0
C262 C 0.59384 0.97153 0.60439 0.0
C263 C 0.62029 0.96904 0.58882 0.0
O264 O 0.67248 0.95505 0.59143 0.0
O265 O 0.64413 0.92484 0.58309 0.0
O266 O 0.61142 0.94752 0.58623 0.0
O267 O 0.63922 0.97724 0.59535 0.0
H268 H 0.64684 0.95707 0.56687 0.0
H269 H 0.6595 0.97262 0.5461 0.0
H270 H 0.71625 0.96029 0.54914 0.0
H271 H 0.70285 0.94393 0.56991 0.0
H272 H 0.66167 0.88429 0.62883 0.0
H273 H 0.65681 0.91132 0.61591 0.0
H274 H 0.60599 0.87602 0.65227 0.0
H275 H 0.60116 0.90274 0.63931 0.0
H276 H 0.57032 0.97453 0.61665 0.0
H277 H 0.57818 0.00333 0.57987 0.0
H278 H 0.60601 0.99174 0.57468 0.0
H279 H 0.59804 0.96244 0.61119 0.0
C280 C 0.72202 0.6748 0.90261 0.0
C281 C 0.70099 0.67194 0.89857 0.0
C282 C 0.71733 0.68804 0.87837 0.0
C283 C 0.69868 0.67858 0.88659 0.0
C284 C 0.73842 0.69094 0.88248 0.0
C285 C 0.74074 0.68439 0.89452 0.0
U286 U 0.69279 0.6384 0.93032 0.0
O287 O 0.69997 0.61573 0.94149 0.0
O288 O 0.69873 0.64397 0.95058 0.0
C289 C 0.70335 0.62751 0.95179 0.0
C290 C 0.72401 0.66671 0.91501 0.0
C291 C 0.72403 0.63282 0.95901 0.0
C292 C 0.7625 0.63859 0.96043 0.0
C293 C 0.74371 0.63507 0.95322 0.0
C294 C 0.74248 0.63847 0.97922 0.0
C295 C 0.762 0.64012 0.97352 0.0
C296 C 0.72367 0.6348 0.97203 0.0
C297 C 0.62728 0.60408 0.92782 0.0
C298 C 0.60187 0.56991 0.93907 0.0
C299 C 0.58635 0.58802 0.92603 0.0
C300 C 0.60837 0.60482 0.92304 0.0
C301 C 0.58283 0.57008 0.93384 0.0
C302 C 0.62396 0.5868 0.93607 0.0
C303 C 0.65007 0.62057 0.92332 0.0
O304 O 0.71586 0.67317 0.92432 0.0
O305 O 0.71782 0.64522 0.91543 0.0
O306 O 0.66331 0.61236 0.92011 0.0
O307 O 0.66076 0.63958 0.92958 0.0
H308 H 0.68624 0.66428 0.90463 0.0
H309 H 0.68213 0.67577 0.88364 0.0
H310 H 0.75313 0.6983 0.87639 0.0
H311 H 0.75707 0.68659 0.89747 0.0
H312 H 0.7774 0.64004 0.95577 0.0
H313 H 0.74446 0.63378 0.94317 0.0
H314 H 0.74147 0.63933 0.98928 0.0
H315 H 0.70864 0.63307 0.97667 0.0
H316 H 0.59971 0.55626 0.94506 0.0
H317 H 0.57204 0.58883 0.92204 0.0
H318 H 0.61063 0.61809 0.9167 0.0
H319 H 0.63841 0.586 0.93987 0.0
C320 C 0.05618 0.62978 0.28721 0.0
C321 C 0.04888 0.61824 0.2758 0.0
C322 C 0.03972 0.58303 0.28601 0.0
C323 C 0.0408 0.59511 0.2752 0.0
C324 C 0.04667 0.59459 0.29749 0.0
C325 C 0.05492 0.61784 0.29807 0.0
U326 U 0.06437 0.68191 0.27103 0.0
O327 O 0.06264 0.71151 0.27781 0.0
O328 O 0.09411 0.71572 0.26936 0.0
C329 C 0.0843 0.72533 0.27548 0.0
C330 C 0.06508 0.65422 0.28767 0.0
C331 C 0.09771 0.73989 0.28592 0.0
C332 C 0.11875 0.74553 0.30524 0.0
C333 C 0.10475 0.73126 0.29576 0.0
C334 C 0.11828 0.7771 0.2953 0.0
C335 C 0.12589 0.76868 0.30505 0.0
C336 C 0.10435 0.76282 0.28581 0.0
C337 C 0.03913 0.67104 0.23745 0.0
C338 C 0.02812 0.69311 0.22435 0.0
C339 C 0.03257 0.66298 0.21528 0.0
C340 C 0.03848 0.65846 0.22696 0.0
C341 C 0.02716 0.68025 0.21383 0.0
C342 C 0.03414 0.68858 0.23609 0.0
C343 C 0.04405 0.66457 0.24967 0.0
O344 O 0.08201 0.66592 0.27997 0.0
O345 O 0.04951 0.66043 0.28754 0.0
O346 O 0.03344 0.66675 0.25941 0.0
O347 O 0.06547 0.67069 0.25188 0.0
H348 H 0.04954 0.62717 0.26733 0.0
H349 H 0.03522 0.58663 0.26626 0.0
H350 H 0.04612 0.58572 0.30596 0.0
H351 H 0.06043 0.6265 0.30696 0.0
H352 H 0.12409 0.73848 0.31269 0.0
H353 H 0.09971 0.71355 0.296 0.0
H354 H 0.12366 0.79487 0.29481 0.0
H355 H 0.0991 0.76975 0.27825 0.0
H356 H 0.0242 0.70661 0.22351 0.0
H357 H 0.0316 0.65249 0.20744 0.0
H358 H 0.04214 0.64477 0.22784 0.0
H359 H 0.0346 0.69855 0.24408 0.0
C360 C 0.33272 0.05412 0.57086 0.0
C361 C 0.3454 0.04681 0.56386 0.0
C362 C 0.3173 0.03418 0.54712 0.0
C363 C 0.33785 0.03705 0.55211 0.0
C364 C 0.30462 0.04159 0.55417 0.0
C365 C 0.31228 0.05147 0.56597 0.0
U366 U 0.37291 0.06444 0.59724 0.0
O367 O 0.39459 0.09436 0.6086 0.0
O368 O 0.36911 0.06328 0.61769 0.0
C369 C 0.38445 0.08463 0.61908 0.0
C370 C 0.34081 0.06403 0.58331 0.0
C371 C 0.37806 0.09794 0.62723 0.0
C372 C 0.357 0.11763 0.63128 0.0
C373 C 0.36212 0.10426 0.62345 0.0
C374 C 0.38355 0.11825 0.64671 0.0
C375 C 0.36771 0.12483 0.643 0.0
C376 C 0.38863 0.10494 0.6389 0.0
C377 C 0.41282 0.03968 0.59175 0.0
C378 C 0.43237 0.02797 0.60647 0.0
C379 C 0.4447 0.03536 0.58492 0.0
C380 C 0.42776 0.04079 0.58235 0.0
C381 C 0.447 0.02852 0.59695 0.0
C382 C 0.41539 0.03351 0.60389 0.0
C383 C 0.39428 0.04412 0.58837 0.0
O384 O 0.33663 0.04935 0.59224 0.0
O385 O 0.36179 0.08101 0.58361 0.0
O386 O 0.40038 0.06515 0.58584 0.0
O387 O 0.37543 0.03378 0.59494 0.0
H388 H 0.36122 0.04868 0.56749 0.0
H389 H 0.34828 0.03196 0.54687 0.0
H390 H 0.28863 0.03945 0.55066 0.0
H391 H 0.30221 0.05691 0.57128 0.0
H392 H 0.34459 0.12224 0.62819 0.0
H393 H 0.3538 0.09898 0.61444 0.0
H394 H 0.3924 0.12378 0.65556 0.0
H395 H 0.40108 0.10031 0.64192 0.0
H396 H 0.43365 0.02271 0.61581 0.0
H397 H 0.45599 0.03646 0.57744 0.0
H398 H 0.42612 0.04561 0.57294 0.0
H399 H 0.40408 0.03262 0.61131 0.0
C400 C 0.28455 0.34014 0.90285 0.0
C401 C 0.30329 0.3558 0.89589 0.0
C402 C 0.28995 0.33113 0.87772 0.0
C403 C 0.30589 0.3514 0.88346 0.0
C404 C 0.27131 0.31528 0.88475 0.0
C405 C 0.26859 0.31981 0.89723 0.0
U406 U 0.31396 0.37061 0.93209 0.0
O407 O 0.30729 0.39109 0.94547 0.0
O408 O 0.30896 0.36151 0.952 0.0
C409 C 0.30475 0.37781 0.9549 0.0
C410 C 0.28237 0.34487 0.91606 0.0
C411 C 0.28466 0.37161 0.96274 0.0
C412 C 0.24371 0.35168 0.96603 0.0
C413 C 0.2626 0.35629 0.95859 0.0
C414 C 0.26889 0.37748 0.98181 0.0
C415 C 0.24664 0.36236 0.9777 0.0
C416 C 0.28768 0.38202 0.9744 0.0
C417 C 0.3792 0.40635 0.9288 0.0
C418 C 0.40473 0.43613 0.94291 0.0
C419 C 0.42002 0.42508 0.9255 0.0
C420 C 0.398 0.40888 0.922 0.0
C421 C 0.42366 0.43911 0.9359 0.0
C422 C 0.38263 0.41982 0.9394 0.0
C423 C 0.35626 0.39043 0.92422 0.0
O424 O 0.29134 0.33696 0.9241 0.0
O425 O 0.28758 0.36576 0.91846 0.0
O426 O 0.3426 0.39875 0.92257 0.0
O427 O 0.34621 0.37043 0.9294 0.0
H428 H 0.31605 0.37144 0.9001 0.0
H429 H 0.32065 0.36374 0.87837 0.0
H430 H 0.25878 0.29952 0.88056 0.0
H431 H 0.25414 0.30743 0.90249 0.0
H432 H 0.22684 0.33981 0.96263 0.0
H433 H 0.25999 0.34815 0.94957 0.0
H434 H 0.2718 0.38634 0.99062 0.0
H435 H 0.3046 0.39402 0.9777 0.0
H436 H 0.40698 0.44654 0.95103 0.0
H437 H 0.43413 0.42716 0.91976 0.0
H438 H 0.39562 0.39867 0.91377 0.0
H439 H 0.36824 0.41803 0.94477 0.0
C440 C 0.94829 0.28067 0.23678 0.0
C441 C 0.95555 0.30047 0.22988 0.0
C442 C 0.9662 0.28449 0.21254 0.0
C443 C 0.96433 0.30234 0.21787 0.0
C444 C 0.95914 0.26473 0.21953 0.0
C445 C 0.95018 0.26283 0.23155 0.0
U446 U 0.94137 0.31003 0.26472 0.0
O447 O 0.91187 0.3025 0.27658 0.0
O448 O 0.94288 0.3053 0.28494 0.0
C449 C 0.92168 0.30049 0.28672 0.0
C450 C 0.93918 0.27895 0.24945 0.0
C451 C 0.90748 0.28072 0.29447 0.0
C452 C 0.89224 0.24133 0.29989 0.0
C453 C 0.90616 0.25983 0.29235 0.0
C454 C 0.88084 0.26448 0.31163 0.0
C455 C 0.87942 0.24346 0.30964 0.0
C456 C 0.89474 0.28289 0.30414 0.0
C457 C 0.96895 0.37437 0.26204 0.0
C458 C 0.97838 0.40139 0.27896 0.0
C459 C 0.97685 0.41237 0.25765 0.0
C460 C 0.97107 0.39079 0.25352 0.0
C461 C 0.98071 0.41798 0.27041 0.0
C462 C 0.97243 0.3797 0.27482 0.0
C463 C 0.96351 0.35204 0.25727 0.0
O464 O 0.95464 0.28806 0.2583 0.0
O465 O 0.92293 0.28417 0.2504 0.0
O466 O 0.94197 0.33833 0.25462 0.0
O467 O 0.97337 0.3421 0.26299 0.0
H468 H 0.95447 0.31455 0.23382 0.0
H469 H 0.96998 0.3179 0.21282 0.0
H470 H 0.96029 0.25067 0.21564 0.0
H471 H 0.94476 0.24745 0.23677 0.0
H472 H 0.89166 0.22544 0.29815 0.0
H473 H 0.91585 0.25783 0.28488 0.0
H474 H 0.87087 0.26666 0.31886 0.0
H475 H 0.89543 0.29885 0.30585 0.0
H476 H 0.98107 0.40518 0.28885 0.0
H477 H 0.97882 0.42484 0.25081 0.0
H478 H 0.96848 0.38699 0.24363 0.0
H479 H 0.97071 0.36719 0.28157 0.0
C480 C 0.97503 0.52401 0.06411 0.0
C481 C 0.99301 0.5463 0.06463 0.0
C482 C 0.97928 0.50588 0.06366 0.0
C483 C 0.00204 0.51015 0.06377 0.0
C484 C 0.02023 0.53261 0.06349 0.0
C485 C 0.01549 0.55042 0.06391 0.0
C486 C 0.9594 0.48217 0.0639 0.0
C487 C 0.04474 0.53788 0.06353 0.0
C488 C 0.01267 0.46703 0.08004 0.0
C489 C 0.0152 0.45529 0.06997 0.0
C490 C 0.00847 0.48491 0.0781 0.0
C491 C 0.00678 0.49131 0.06576 0.0
C492 C 0.0095 0.47969 0.05552 0.0
C493 C 0.01374 0.46181 0.05775 0.0
C494 C 0.00584 0.49697 0.08929 0.0
C495 C 0.00774 0.48601 0.04225 0.0
H496 H 0.95761 0.52064 0.06477 0.0
H497 H 0.02946 0.56761 0.06407 0.0
H498 H 0.96161 0.47156 0.0568 0.0
H499 H 0.95859 0.4746 0.07317 0.0
H500 H 0.94292 0.48164 0.06218 0.0
H501 H 0.05676 0.55599 0.06179 0.0
H502 H 0.04888 0.53336 0.07272 0.0
H503 H 0.04747 0.52774 0.05634 0.0
H504 H 0.01422 0.46236 0.08951 0.0
H505 H 0.01556 0.45271 0.04993 0.0
H506 H 0.98883 0.49572 0.08911 0.0
H507 H 0.01877 0.51511 0.08897 0.0
H508 H 0.00773 0.48995 0.09827 0.0
H509 H 0.99059 0.48396 0.0406 0.0
H510 H 0.0107 0.47559 0.03533 0.0
H511 H 0.02032 0.50398 0.04063 0.0
C512 C 0.54221 0.98347 0.39876 0.0
C513 C 0.5598 0.00569 0.40059 0.0
C514 C 0.51932 0.97822 0.39849 0.0
C515 C 0.51389 0.9956 0.40011 0.0
C516 C 0.53163 0.01821 0.40123 0.0
C517 C 0.55437 0.02298 0.40146 0.0
C518 C 0.50092 0.95393 0.39717 0.0
C519 C 0.52656 0.03723 0.40296 0.0
C520 C 0.45353 0.98439 0.39418 0.0
C521 C 0.44473 0.98068 0.40634 0.0
C522 C 0.47597 0.98904 0.39193 0.0
C523 C 0.48983 0.98994 0.40209 0.0
C524 C 0.48085 0.9858 0.41435 0.0
C525 C 0.45845 0.98121 0.41631 0.0
C526 C 0.48497 0.99337 0.37874 0.0
C527 C 0.49499 0.98643 0.42543 0.0
H528 H 0.54633 0.97008 0.39788 0.0
H529 H 0.56783 0.04016 0.40298 0.0
H530 H 0.49173 0.94796 0.40615 0.0
H531 H 0.48827 0.95222 0.39002 0.0
H532 H 0.50794 0.94282 0.39454 0.0
H533 H 0.54214 0.05399 0.40227 0.0
H534 H 0.51409 0.03617 0.39587 0.0
H535 H 0.51882 0.03586 0.41228 0.0
H536 H 0.44305 0.98413 0.38645 0.0
H537 H 0.45161 0.97793 0.4257 0.0
H538 H 0.49154 0.98185 0.37629 0.0
H539 H 0.49944 0.01081 0.37799 0.0
H540 H 0.47174 0.99111 0.37182 0.0
H541 H 0.50103 0.97414 0.42409 0.0
H542 H 0.48535 0.98253 0.43433 0.0
H543 H 0.51028 0.00336 0.42627 0.0
C544 C 0.4622 0.45835 0.72034 0.0
C545 C 0.46875 0.44256 0.71686 0.0
C546 C 0.47839 0.4812 0.72183 0.0
C547 C 0.50172 0.48845 0.71982 0.0
C548 C 0.50837 0.47275 0.71587 0.0
C549 C 0.49181 0.45 0.71444 0.0
C550 C 0.4706 0.49745 0.72598 0.0
C551 C 0.53308 0.47982 0.71365 0.0
C552 C 0.54351 0.55112 0.71648 0.0
C553 C 0.55269 0.55682 0.72857 0.0
C554 C 0.52689 0.52894 0.71346 0.0
C555 C 0.5193 0.51208 0.72275 0.0
C556 C 0.52847 0.51775 0.73496 0.0
C557 C 0.54497 0.54001 0.73772 0.0
C558 C 0.5175 0.52351 0.70034 0.0
C559 C 0.52078 0.50028 0.74516 0.0
H560 H 0.44437 0.45278 0.72203 0.0
H561 H 0.49705 0.43788 0.71187 0.0
H562 H 0.47745 0.50401 0.73543 0.0
H563 H 0.47731 0.51208 0.7196 0.0
H564 H 0.45174 0.48946 0.72629 0.0
H565 H 0.53525 0.46597 0.70966 0.0
H566 H 0.54091 0.49437 0.70721 0.0
H567 H 0.54259 0.48529 0.7226 0.0
H568 H 0.54952 0.56396 0.70932 0.0
H569 H 0.55163 0.54434 0.74715 0.0
H570 H 0.49875 0.51635 0.7005 0.0
H571 H 0.52089 0.51058 0.69617 0.0
H572 H 0.52505 0.53857 0.69422 0.0
H573 H 0.5022 0.49286 0.74671 0.0
H574 H 0.52976 0.5074 0.75414 0.0
H575 H 0.52384 0.48639 0.74229 0.0
C576 C 0.5343 0.98176 0.60756 0.0
C577 C 0.55473 0.99673 0.60158 0.0
C578 C 0.51653 0.98674 0.60875 0.0
C579 C 0.51922 0.00706 0.60374 0.0
C580 C 0.54027 0.02278 0.59836 0.0
C581 C 0.55779 0.01749 0.59742 0.0
C582 C 0.49446 0.9697 0.61472 0.0
C583 C 0.54386 0.04465 0.59291 0.0
C584 C 0.46804 0.00862 0.59044 0.0
C585 C 0.46439 0.02163 0.59933 0.0
C586 C 0.4854 0.00325 0.59198 0.0
C587 C 0.49937 0.01083 0.60276 0.0
C588 C 0.4952 0.02315 0.61205 0.0
C589 C 0.47778 0.02847 0.61021 0.0
C590 C 0.48922 0.99003 0.58185 0.0
C591 C 0.50959 0.0313 0.62372 0.0
H592 H 0.53174 0.96566 0.61077 0.0
H593 H 0.57373 0.02938 0.59306 0.0
H594 H 0.48836 0.97805 0.62136 0.0
H595 H 0.48119 0.96146 0.60741 0.0
H596 H 0.49621 0.95646 0.61976 0.0
H597 H 0.5618 0.05587 0.59003 0.0
H598 H 0.53274 0.04107 0.5846 0.0
H599 H 0.53905 0.05376 0.59977 0.0
H600 H 0.45741 0.00279 0.58216 0.0
H601 H 0.47512 0.03858 0.61711 0.0
H602 H 0.48872 0.97485 0.58585 0.0
H603 H 0.50635 1.00046 0.57769 0.0
H604 H 0.47631 0.98466 0.57428 0.0
H605 H 0.51077 0.01729 0.62818 0.0
H606 H 0.50267 0.03854 0.63061 0.0
H607 H 0.52716 0.04441 0.62126 0.0
C608 C 0.46581 0.45427 0.93763 0.0
C609 C 0.44703 0.45768 0.93878 0.0
C610 C 0.48816 0.47235 0.93843 0.0
C611 C 0.49185 0.49437 0.94049 0.0
C612 C 0.47301 0.49772 0.94248 0.0
C613 C 0.45081 0.47934 0.94157 0.0
C614 C 0.50778 0.46804 0.93631 0.0
C615 C 0.47623 0.52093 0.94478 0.0
C616 C 0.55211 0.54133 0.94764 0.0
C617 C 0.55943 0.55095 0.9358 0.0
C618 C 0.53006 0.52301 0.94939 0.0
C619 C 0.51511 0.51407 0.93904 0.0
C620 C 0.52245 0.52374 0.92709 0.0
C621 C 0.54447 0.54201 0.92563 0.0
C622 C 0.52276 0.5132 0.96228 0.0
C623 C 0.50712 0.51461 0.91579 0.0
H624 H 0.46301 0.43751 0.93572 0.0
H625 H 0.43643 0.48218 0.94239 0.0
H626 H 0.51596 0.47535 0.92723 0.0
H627 H 0.52091 0.47634 0.94368 0.0
H628 H 0.50221 0.44978 0.9362 0.0
H629 H 0.46019 0.52033 0.94777 0.0
H630 H 0.48943 0.5299 0.95204 0.0
H631 H 0.48221 0.53093 0.93608 0.0
H632 H 0.56356 0.54827 0.95555 0.0
H633 H 0.55016 0.54908 0.91641 0.0
H634 H 0.51823 0.49523 0.96221 0.0
H635 H 0.50731 0.51386 0.96513 0.0
H636 H 0.5363 0.52227 0.96938 0.0
H637 H 0.50227 0.49673 0.91424 0.0
H638 H 0.51535 0.5242 0.90717 0.0
H639 H 0.49118 0.51519 0.91737 0.0
C640 C 0.01558 0.5435 0.29378 0.0
C641 C 0.03148 0.55849 0.28519 0.0
C642 C 0.00677 0.52015 0.29259 0.0
C643 C 0.01416 0.51167 0.28262 0.0
C644 C 0.03067 0.52679 0.27414 0.0
C645 C 0.03908 0.54999 0.27551 0.0
C646 C 0.98914 0.50455 0.30178 0.0
C647 C 0.03915 0.51845 0.26345 0.0
C648 C 0.00613 0.45256 0.28291 0.0
C649 C 0.98783 0.44129 0.2746 0.0
C650 C 0.0144 0.4753 0.28599 0.0
C651 C 0.00406 0.48698 0.28066 0.0
C652 C 0.98498 0.47541 0.27267 0.0
C653 C 0.97713 0.45272 0.26972 0.0
C654 C 0.0348 0.48707 0.29452 0.0
C655 C 0.97335 0.48719 0.26688 0.0
H656 H 0.00954 0.55 0.30122 0.0
H657 H 0.05164 0.56153 0.26897 0.0
H658 H 0.97279 0.49383 0.29685 0.0
H659 H 0.99456 0.49314 0.30599 0.0
H660 H 0.9861 0.51384 0.30939 0.0
H661 H 0.05271 0.53245 0.25799 0.0
H662 H 0.04597 0.50774 0.26704 0.0
H663 H 0.02482 0.50789 0.25707 0.0
H664 H 0.01457 0.44386 0.28663 0.0
H665 H 0.96276 0.44398 0.26345 0.0
H666 H 0.03129 0.49598 0.30213 0.0
H667 H 0.04955 0.49994 0.28918 0.0
H668 H 0.03965 0.4752 0.29873 0.0
H669 H 0.96865 0.49568 0.2742 0.0
H670 H 0.95774 0.47542 0.26162 0.0
H671 H 0.98523 0.5004 0.26039 0.0
C672 C 0.96888 0.29606 0.19016 0.0
C673 C 0.97569 0.28674 0.19976 0.0
C674 C 0.97859 0.29958 0.17823 0.0
C675 C 0.99564 0.29374 0.17581 0.0
C676 C 0.00222 0.28383 0.18537 0.0
C677 C 0.99211 0.28038 0.19722 0.0
C678 C 0.97095 0.31001 0.16827 0.0
C679 C 0.02042 0.27749 0.18318 0.0
C680 C 0.00876 0.28939 0.14167 0.0
C681 C 0.02734 0.3109 0.13953 0.0
C682 C 0.99857 0.28332 0.15352 0.0
C683 C 0.0073 0.29909 0.16346 0.0
C684 C 0.02654 0.32055 0.16145 0.0
C685 C 0.03627 0.32621 0.14951 0.0
C686 C 0.978 0.26034 0.15528 0.0
C687 C 0.03652 0.33778 0.17182 0.0
H688 H 0.95595 0.3007 0.19201 0.0
H689 H 0.99757 0.27334 0.20463 0.0
H690 H 0.98541 0.32656 0.16552 0.0
H691 H 0.96539 0.29919 0.1598 0.0
H692 H 0.95672 0.31254 0.17146 0.0
H693 H 0.0227 0.26881 0.19134 0.0
H694 H 0.0161 0.26633 0.17488 0.0
H695 H 0.03689 0.29285 0.18121 0.0
H696 H 0.00169 0.27757 0.13397 0.0
H697 H 0.05083 0.34275 0.14794 0.0
H698 H 0.96291 0.26212 0.15746 0.0
H699 H 0.98069 0.25168 0.1633 0.0
H700 H 0.97417 0.24955 0.14684 0.0
H701 H 0.02387 0.34268 0.17488 0.0
H702 H 0.05228 0.35318 0.16891 0.0
H703 H 0.04051 0.33047 0.18003 0.0
C704 C 0.69668 0.00121 0.47465 0.0
C705 C 0.71769 0.01919 0.47083 0.0
C706 C 0.69349 0.99276 0.48685 0.0
C707 C 0.71183 0.0023 0.49544 0.0
C708 C 0.73332 0.01989 0.49154 0.0
C709 C 0.73598 0.0282 0.4793 0.0
C710 C 0.67027 0.97403 0.49063 0.0
C711 C 0.75334 0.03035 0.5004 0.0
C712 C 0.69518 0.99666 0.52965 0.0
C713 C 0.69673 0.97774 0.53328 0.0
C714 C 0.70057 0.00512 0.51746 0.0
C715 C 0.70801 0.99463 0.50868 0.0
C716 C 0.71052 0.9761 0.51239 0.0
C717 C 0.70476 0.96781 0.52463 0.0
C718 C 0.69761 0.02488 0.51389 0.0
C719 C 0.71861 0.9646 0.50333 0.0
H720 H 0.68259 0.99378 0.46811 0.0
H721 H 0.75222 0.0422 0.47649 0.0
H722 H 0.67162 0.95964 0.49439 0.0
H723 H 0.66329 0.98002 0.49818 0.0
H724 H 0.658 0.96794 0.48272 0.0
H725 H 0.76934 0.04258 0.49566 0.0
H726 H 0.74983 0.03921 0.50804 0.0
H727 H 0.75596 0.0171 0.50476 0.0
H728 H 0.6895 0.00478 0.53633 0.0
H729 H 0.70587 0.9531 0.5273 0.0
H730 H 0.68439 0.01967 0.50651 0.0
H731 H 0.7137 0.03858 0.50997 0.0
H732 H 0.69251 0.03168 0.52194 0.0
H733 H 0.70577 0.95632 0.49582 0.0
H734 H 0.7215 0.95168 0.50793 0.0
H735 H 0.73469 0.97716 0.49882 0.0
C736 C 0.67497 0.69207 0.80982 0.0
C737 C 0.68919 0.71167 0.8031 0.0
C738 C 0.68039 0.68905 0.82205 0.0
C739 C 0.70046 0.7061 0.82778 0.0
C740 C 0.71483 0.72599 0.8211 0.0
C741 C 0.70904 0.72853 0.80883 0.0
C742 C 0.66458 0.6676 0.82886 0.0
C743 C 0.73636 0.74455 0.82689 0.0
C744 C 0.7019 0.70514 0.86324 0.0
C745 C 0.71444 0.69414 0.86544 0.0
C746 C 0.69775 0.70969 0.85104 0.0
C747 C 0.70627 0.703 0.84077 0.0
C748 C 0.7194 0.69237 0.84294 0.0
C749 C 0.72336 0.68811 0.85524 0.0
C750 C 0.68383 0.72121 0.84913 0.0
C751 C 0.72866 0.68486 0.83224 0.0
H752 H 0.65939 0.67913 0.80557 0.0
H753 H 0.72025 0.74361 0.80367 0.0
H754 H 0.67397 0.65886 0.83175 0.0
H755 H 0.65814 0.67159 0.83748 0.0
H756 H 0.64978 0.65588 0.82304 0.0
H757 H 0.74555 0.75909 0.82052 0.0
H758 H 0.73224 0.75057 0.83563 0.0
H759 H 0.74792 0.73801 0.82945 0.0
H760 H 0.69522 0.71011 0.87109 0.0
H761 H 0.73285 0.67938 0.85687 0.0
H762 H 0.66779 0.70971 0.84414 0.0
H763 H 0.6933 0.73635 0.84322 0.0
H764 H 0.67944 0.72637 0.85809 0.0
H765 H 0.71435 0.67173 0.8267 0.0
H766 H 0.73955 0.67792 0.8355 0.0
H767 H 0.7388 0.69918 0.8259 0.0
C768 C 1.00047 0.68678 0.2004 0.0
C769 C 0.01959 0.68389 0.20143 0.0
C770 C 0.99146 0.6873 0.18865 0.0
C771 C 0.00176 0.6848 0.1777 0.0
C772 C 0.02174 0.68306 0.17867 0.0
C773 C 0.03043 0.68269 0.19051 0.0
C774 C 0.97022 0.68933 0.18799 0.0
C775 C 0.03333 0.68046 0.16723 0.0
C776 C 0.966 0.65672 0.14894 0.0
C777 C 0.97243 0.67502 0.14089 0.0
C778 C 0.97485 0.65982 0.16107 0.0
C779 C 0.99057 0.68178 0.16531 0.0
C780 C 0.99651 0.70044 0.1574 0.0
C781 C 0.98733 0.69684 0.14527 0.0
C782 C 0.96793 0.63946 0.16923 0.0
C783 C 0.01317 0.7241 0.16159 0.0
H784 H 0.99191 0.68758 0.20878 0.0
H785 H 0.04546 0.68089 0.19123 0.0
H786 H 0.97231 0.70221 0.18104 0.0
H787 H 0.95566 0.67305 0.18489 0.0
H788 H 0.96592 0.69388 0.19717 0.0
H789 H 0.0497 0.68114 0.16952 0.0
H790 H 0.02196 0.66407 0.16265 0.0
H791 H 0.03666 0.69386 0.16037 0.0
H792 H 0.95418 0.63986 0.14567 0.0
H793 H 0.99245 0.71103 0.13906 0.0
H794 H 0.96137 0.6417 0.1783 0.0
H795 H 0.98301 0.63756 0.17123 0.0
H796 H 0.95463 0.62369 0.16478 0.0
H797 H 0.00807 0.72767 0.17079 0.0
H798 H 0.01445 0.73691 0.15479 0.0
H799 H 0.0303 0.72586 0.16276 0.0
C800 C 0.26977 0.96974 0.48128 0.0
C801 C 0.28768 0.97909 0.47263 0.0
C802 C 0.27249 0.97862 0.49342 0.0
C803 C 0.29366 0.99718 0.49703 0.0
C804 C 0.31155 0.00709 0.48822 0.0
C805 C 0.3083 0.99802 0.47614 0.0
C806 C 0.25295 0.9677 0.50252 0.0
C807 C 0.33441 0.02688 0.49168 0.0
C808 C 0.30006 0.03229 0.526 0.0
C809 C 0.30942 0.02362 0.53458 0.0
C810 C 0.29409 0.02336 0.51385 0.0
C811 C 0.29772 0.00545 0.51018 0.0
C812 C 0.30652 0.9962 0.51891 0.0
C813 C 0.31213 0.0053 0.531 0.0
C814 C 0.28457 0.03354 0.50483 0.0
C815 C 0.31068 0.97712 0.51538 0.0
H816 H 0.25383 0.95502 0.4787 0.0
H817 H 0.32207 0.00568 0.46944 0.0
H818 H 0.25744 0.95966 0.51015 0.0
H819 H 0.24965 0.98058 0.50686 0.0
H820 H 0.23703 0.95469 0.49798 0.0
H821 H 0.34624 0.03323 0.48361 0.0
H822 H 0.33222 0.04085 0.49543 0.0
H823 H 0.34241 0.02189 0.49915 0.0
H824 H 0.29804 0.04653 0.52863 0.0
H825 H 0.31888 0.99816 0.53764 0.0
H826 H 0.26861 0.02018 0.50054 0.0
H827 H 0.29689 0.04201 0.49716 0.0
H828 H 0.28098 0.04606 0.50942 0.0
H829 H 0.29481 0.96268 0.51168 0.0
H830 H 0.31676 0.97123 0.5234 0.0
H831 H 0.32362 0.98265 0.50786 0.0
C832 C 0.29179 0.30617 0.86102 0.0
C833 C 0.29332 0.32667 0.86453 0.0
C834 C 0.29759 0.30291 0.84888 0.0
C835 C 0.30499 0.32055 0.84006 0.0
C836 C 0.30545 0.34083 0.8434 0.0
C837 C 0.29964 0.34364 0.85558 0.0
C838 C 0.29685 0.28104 0.84567 0.0
C839 C 0.31305 0.36 0.83426 0.0
C840 C 0.34704 0.32793 0.81458 0.0
C841 C 0.33323 0.3214 0.80387 0.0
C842 C 0.33785 0.32678 0.82647 0.0
C843 C 0.31421 0.31879 0.82773 0.0
C844 C 0.29996 0.31105 0.81705 0.0
C845 C 0.30965 0.31246 0.80523 0.0
C846 C 0.35365 0.33509 0.83761 0.0
C847 C 0.27467 0.3023 0.81803 0.0
H848 H 0.28702 0.29304 0.86793 0.0
H849 H 0.30048 0.35938 0.85819 0.0
H850 H 0.28778 0.27424 0.8367 0.0
H851 H 0.31446 0.28406 0.84449 0.0
H852 H 0.28832 0.26815 0.85304 0.0
H853 H 0.31084 0.37397 0.83802 0.0
H854 H 0.33131 0.36674 0.83199 0.0
H855 H 0.30331 0.35395 0.82541 0.0
H856 H 0.36521 0.33444 0.81362 0.0
H857 H 0.29889 0.30747 0.797 0.0
H858 H 0.34727 0.32221 0.84508 0.0
H859 H 0.35418 0.35042 0.8415 0.0
H860 H 0.37129 0.33924 0.83518 0.0
H861 H 0.26721 0.28969 0.8256 0.0
H862 H 0.26561 0.2945 0.80916 0.0
H863 H 0.27158 0.31637 0.82044 0.0
C864 C 0.20755 0.3579 0.97977 0.0
C865 C 0.22671 0.3587 0.98539 0.0
C866 C 0.1897 0.35684 0.98701 0.0
C867 C 0.1911 0.35672 1.00021 0.0
C868 C 0.20991 0.35656 0.00592 0.0
C869 C 0.22742 0.35747 0.99846 0.0
C870 C 0.16986 0.35689 0.98056 0.0
C871 C 0.21204 0.35642 0.01995 0.0
C872 C 0.16121 0.38231 0.01844 0.0
C873 C 0.14158 0.36317 0.02271 0.0
C874 C 0.17742 0.38038 0.01116 0.0
C875 C 0.17394 0.35876 0.00802 0.0
C876 C 0.15423 0.33934 0.01235 0.0
C877 C 0.13831 0.34178 0.01969 0.0
C878 C 0.19831 0.40152 0.00684 0.0
C879 C 0.14988 0.31602 0.00912 0.0
H880 H 0.2069 0.35904 0.9697 0.0
H881 H 0.24194 0.35763 0.00288 0.0
H882 H 0.15352 0.34323 0.98426 0.0
H883 H 0.17027 0.37306 0.98245 0.0
H884 H 0.17017 0.35473 0.97028 0.0
H885 H 0.2268 0.35459 0.02292 0.0
H886 H 0.21413 0.37238 0.02389 0.0
H887 H 0.19631 0.34248 0.02404 0.0
H888 H 0.16402 0.39889 0.02091 0.0
H889 H 0.12308 0.32694 0.02288 0.0
H890 H 0.19907 0.40184 0.99649 0.0
H891 H 0.2139 0.40173 0.01029 0.0
H892 H 0.19852 0.41705 0.01015 0.0
H893 H 0.14886 0.31372 0.99884 0.0
H894 H 0.13385 0.30264 0.01331 0.0
H895 H 0.16424 0.31385 0.01243 0.0
C896 C 0.85046 0.20251 0.31225 0.0
C897 C 0.86412 0.22388 0.31757 0.0
C898 C 0.83451 0.18444 0.31948 0.0
C899 C 0.83206 0.18783 0.33231 0.0
C900 C 0.84639 0.2091 0.33784 0.0
C901 C 0.86229 0.2268 0.33042 0.0
C902 C 0.81964 0.16197 0.31326 0.0
C903 C 0.84435 0.21343 0.35149 0.0
C904 C 0.77429 0.15163 0.34733 0.0
C905 C 0.77784 0.1362 0.35421 0.0
C906 C 0.79175 0.16835 0.34012 0.0
C907 C 0.81335 0.16973 0.33974 0.0
C908 C 0.81708 0.15419 0.34664 0.0
C909 C 0.79929 0.13765 0.35383 0.0
C910 C 0.78711 0.18472 0.333 0.0
C911 C 0.83984 0.15505 0.34641 0.0
H912 H 0.8516 0.2001 0.30233 0.0
H913 H 0.87309 0.24311 0.33468 0.0
H914 H 0.81992 0.14829 0.31866 0.0
H915 H 0.80175 0.15844 0.31304 0.0
H916 H 0.8251 0.16145 0.30353 0.0
H917 H 0.85773 0.23045 0.35453 0.0
H918 H 0.82743 0.21185 0.35325 0.0
H919 H 0.84554 0.20069 0.35734 0.0
H920 H 0.75789 0.15086 0.34774 0.0
H921 H 0.80208 0.12565 0.35904 0.0
H922 H 0.79038 0.18399 0.32291 0.0
H923 H 0.79881 0.20215 0.33625 0.0
H924 H 0.7693 0.18119 0.33416 0.0
H925 H 0.84438 0.15335 0.33666 0.0
H926 H 0.8399 0.14156 0.35214 0.0
H927 H 0.85332 0.17159 0.34996 0.0
C928 C 0.64178 0.77616 0.67357 0.0
C929 C 0.63906 0.7761 0.68657 0.0
C930 C 0.64282 0.79354 0.66616 0.0
C931 C 0.6412 0.81141 0.67188 0.0
C932 C 0.63939 0.81195 0.68504 0.0
C933 C 0.63831 0.79428 0.69222 0.0
C934 C 0.64483 0.79237 0.65217 0.0
C935 C 0.63769 0.83074 0.69149 0.0
C936 C 0.6576 0.86449 0.65307 0.0
C937 C 0.63622 0.86086 0.64914 0.0
C938 C 0.65954 0.8486 0.66051 0.0
C939 C 0.63965 0.82856 0.66402 0.0
C940 C 0.61806 0.82475 0.65997 0.0
C941 C 0.61662 0.84092 0.65261 0.0
C942 C 0.68284 0.85331 0.66469 0.0
C943 C 0.59644 0.80352 0.66341 0.0
H944 H 0.6428 0.7624 0.66915 0.0
H945 H 0.63602 0.79431 0.70224 0.0
H946 H 0.6291 0.79022 0.64763 0.0
H947 H 0.65923 0.8083 0.64865 0.0
H948 H 0.64744 0.77819 0.64926 0.0
H949 H 0.63834 0.82973 0.70182 0.0
H950 H 0.65173 0.84732 0.68843 0.0
H951 H 0.62144 0.82999 0.68886 0.0
H952 H 0.67279 0.87995 0.65051 0.0
H953 H 0.60007 0.83785 0.64944 0.0
H954 H 0.68599 0.83965 0.66146 0.0
H955 H 0.68371 0.85365 0.67504 0.0
H956 H 0.69664 0.8696 0.66109 0.0
H957 H 0.59715 0.78857 0.65993 0.0
H958 H 0.581 0.80311 0.6595 0.0
H959 H 0.59473 0.80205 0.67371 0.0
C960 C 0.84245 0.62903 0.02374 0.0
C961 C 0.8658 0.6425 0.02134 0.0
C962 C 0.82609 0.62983 0.016 0.0
C963 C 0.83324 0.64456 0.00564 0.0
C964 C 0.85679 0.65863 0.00335 0.0
C965 C 0.87279 0.65737 0.0112 0.0
C966 C 0.80114 0.61444 0.01872 0.0
C967 C 0.86508 0.67473 0.99249 0.0
C968 C 0.79112 0.62889 0.97884 0.0
C969 C 0.7813 0.6424 0.98128 0.0
C970 C 0.80831 0.62972 0.98657 0.0
C971 C 0.81599 0.64454 0.99696 0.0
C972 C 0.80656 0.65866 0.99929 0.0
C973 C 0.78926 0.65735 0.99146 0.0
C974 C 0.81782 0.61428 0.98381 0.0
C975 C 0.81447 0.67486 0.01019 0.0
H976 H 0.83693 0.6173 0.03146 0.0
H977 H 0.89083 0.66798 0.00938 0.0
H978 H 0.7923 0.62439 0.01969 0.0
H979 H 0.79304 0.60259 0.0108 0.0
H980 H 0.7984 0.60452 0.02738 0.0
H981 H 0.88393 0.68533 0.99236 0.0
H982 H 0.85949 0.66516 0.98358 0.0
H983 H 0.85751 0.68589 0.99286 0.0
H984 H 0.78485 0.61711 0.97108 0.0
H985 H 0.78189 0.66802 0.99331 0.0
H986 H 0.81408 0.60249 0.9917 0.0
H987 H 0.8366 0.62419 0.98285 0.0
H988 H 0.81057 0.60429 0.97513 0.0
H989 H 0.81053 0.66537 0.01908 0.0
H990 H 0.80626 0.68549 0.01035 0.0
H991 H 0.83321 0.68599 0.00982 0.0
C992 C 0.20803 0.84301 0.36138 0.0
C993 C 0.22688 0.86217 0.35647 0.0
C994 C 0.19032 0.82773 0.35358 0.0
C995 C 0.19153 0.83168 0.34056 0.0
C996 C 0.21018 0.85131 0.3356 0.0
C997 C 0.22758 0.86631 0.3436 0.0
C998 C 0.17068 0.80703 0.35923 0.0
C999 C 0.21207 0.85619 0.32178 0.0
C1000 C 0.16095 0.78227 0.31823 0.0
C1001 C 0.14198 0.78415 0.31466 0.0
C1002 C 0.17696 0.79738 0.32682 0.0
C1003 C 0.17392 0.81479 0.33201 0.0
C1004 C 0.15457 0.81653 0.32864 0.0
C1005 C 0.13886 0.80123 0.31998 0.0
C1006 C 0.19743 0.79502 0.3301 0.0
C1007 C 0.15064 0.83476 0.33405 0.0
H1008 H 0.20744 0.83957 0.37128 0.0
H1009 H 0.24189 0.88127 0.33976 0.0
H1010 H 0.15425 0.80563 0.35633 0.0
H1011 H 0.17078 0.79177 0.35576 0.0
H1012 H 0.17147 0.80719 0.36959 0.0
H1013 H 0.22719 0.87263 0.31947 0.0
H1014 H 0.2133 0.84274 0.31659 0.0
H1015 H 0.19658 0.85624 0.31839 0.0
H1016 H 0.16365 0.76931 0.31403 0.0
H1017 H 0.1241 0.80261 0.31737 0.0
H1018 H 0.19851 0.7936 0.34036 0.0
H1019 H 0.21323 0.81028 0.32711 0.0
H1020 H 0.19686 0.78008 0.3256 0.0
H1021 H 0.15066 0.83412 0.3444 0.0
H1022 H 0.13427 0.83323 0.33089 0.0
H1023 H 0.16471 0.85153 0.33126 0.0
C1024 C 0.33458 0.19869 0.68843 0.0
C1025 C 0.35477 0.21686 0.69308 0.0
C1026 C 0.33515 0.18338 0.67984 0.0
C1027 C 0.35641 0.18625 0.67584 0.0
C1028 C 0.37683 0.20472 0.68037 0.0
C1029 C 0.37576 0.2198 0.68891 0.0
C1030 C 0.31302 0.16399 0.67515 0.0
C1031 C 0.39984 0.2083 0.6764 0.0
C1032 C 0.36099 0.13606 0.66423 0.0
C1033 C 0.36296 0.13958 0.65128 0.0
C1034 C 0.3583 0.15081 0.67229 0.0
C1035 C 0.35743 0.16952 0.66729 0.0
C1036 C 0.35865 0.17278 0.6542 0.0
C1037 C 0.36143 0.15779 0.64635 0.0
C1038 C 0.35699 0.1467 0.68618 0.0
C1039 C 0.35772 0.19249 0.64852 0.0
H1040 H 0.31831 0.19648 0.6915 0.0
H1041 H 0.39142 0.23361 0.69258 0.0
H1042 H 0.31254 0.16409 0.6648 0.0
H1043 H 0.31174 0.14782 0.678 0.0
H1044 H 0.29794 0.16461 0.6788 0.0
H1045 H 0.41409 0.2239 0.68046 0.0
H1046 H 0.40173 0.19377 0.67937 0.0
H1047 H 0.40129 0.20929 0.66608 0.0
H1048 H 0.36175 0.12181 0.6681 0.0
H1049 H 0.36315 0.16076 0.63638 0.0
H1050 H 0.34133 0.14582 0.69005 0.0
H1051 H 0.37173 0.16093 0.6909 0.0
H1052 H 0.35698 0.13088 0.68854 0.0
H1053 H 0.34244 0.19301 0.65188 0.0
H1054 H 0.35728 0.19177 0.63815 0.0
H1055 H 0.37286 0.20843 0.6515 0.0
loop_
_geom_bond_atom_site_label_1
_geom_bond_atom_site_label_2
_geom_bond_distance
_geom_bond_site_symmetry_2
_ccdc_geom_bond_type
C0 C1 1.264 1_455 S
C0 C5 1.479 . S
C0 C10 1.465 . S
C1 C0 1.264 1_655 S
C1 C3 1.339 . S
C1 H28 0.931 . S
C2 C3 1.395 . S
C2 C4 1.320 . S
C3 C1 1.339 . S
C3 C2 1.395 . S
C3 H29 0.929 . S
C4 C2 1.320 . S
C4 C5 1.405 1_655 S
C4 H30 0.930 . S
C5 C0 1.479 . S
C5 C4 1.405 1_455 S
C5 H31 0.931 . S
U6 O7 2.454 . S
U6 O8 2.458 . S
U6 C9 2.984 . S
U6 C10 2.847 . S
U6 C23 2.882 . S
U6 O24 2.441 . S
U6 O25 2.420 . S
U6 O26 2.455 . S
U6 O27 2.449 . S
O7 U6 2.454 . S
O7 C9 1.353 . S
O8 U6 2.458 . S
O8 C9 1.286 . S
C9 U6 2.984 . S
C9 O7 1.353 . S
C9 O8 1.286 . S
C9 C11 1.363 . S
C10 C0 1.465 . S
C10 U6 2.847 . S
C10 O24 1.249 . S
C10 O25 1.202 . S
C11 C9 1.363 . S
C11 C13 1.408 . S
C11 C16 1.342 . S
C12 C13 1.310 . S
C12 C15 1.461 . S
C12 H32 0.932 . S
C13 C11 1.408 . S
C13 C12 1.310 . S
C13 H33 0.930 . S
C14 C15 1.474 . S
C14 C16 1.285 . S
C14 H34 0.929 . S
C15 C12 1.461 . S
C15 C14 1.474 . S
C16 C11 1.342 . S
C16 C14 1.285 . S
C16 H35 0.930 . S
C17 C20 1.424 1_455 S
C17 C22 1.245 . S
C17 C23 1.428 . S
C18 C21 1.260 . S
C18 C22 1.477 1_655 S
C18 H36 0.930 1_655 S
C19 C20 1.384 . S
C19 C21 1.479 . S
C19 H37 0.929 . S
C20 C17 1.424 1_655 S
C20 C19 1.384 . S
C20 H38 0.928 . S
C21 C18 1.260 . S
C21 C19 1.479 . S
C22 C17 1.245 . S
C22 C18 1.477 1_455 S
C22 H39 0.932 . S
C23 U6 2.882 . S
C23 C17 1.428 . S
C23 O26 1.301 . S
C23 O27 1.282 . S
O24 U6 2.441 . S
O24 C10 1.249 . S
O25 U6 2.420 . S
O25 C10 1.202 . S
O26 U6 2.455 . S
O26 C23 1.301 . S
O27 U6 2.449 . S
O27 C23 1.282 . S
H28 C1 0.931 . S
H29 C3 0.929 . S
H30 C4 0.930 . S
H31 C5 0.931 . S
H32 C12 0.932 . S
H33 C13 0.930 . S
H34 C14 0.929 . S
H35 C16 0.930 . S
H36 C18 0.930 1_455 S
H37 C19 0.929 . S
H38 C20 0.928 . S
H39 C22 0.932 . S
C40 C41 1.264 . S
C40 C45 1.479 1_565 S
C40 C50 1.465 1_565 S
C41 C40 1.264 . S
C41 C43 1.339 . S
C41 H68 0.931 . S
C42 C43 1.395 . S
C42 C44 1.320 . S
C43 C41 1.339 . S
C43 C42 1.395 . S
C43 H69 0.929 . S
C44 C42 1.320 . S
C44 C45 1.405 1_565 S
C44 H70 0.930 . S
C45 C40 1.479 1_545 S
C45 C44 1.405 1_545 S
C45 H71 0.931 . S
U46 O47 2.454 . S
U46 O48 2.458 . S
U46 C49 2.984 . S
U46 C50 2.847 . S
U46 C63 2.882 . S
U46 O64 2.441 . S
U46 O65 2.420 . S
U46 O66 2.455 . S
U46 O67 2.449 . S
O47 U46 2.454 . S
O47 C49 1.353 . S
O48 U46 2.458 . S
O48 C49 1.286 . S
C49 U46 2.984 . S
C49 O47 1.353 . S
C49 O48 1.286 . S
C49 C51 1.363 . S
C50 C40 1.465 1_545 S
C50 U46 2.847 . S
C50 O64 1.249 . S
C50 O65 1.202 . S
C51 C49 1.363 . S
C51 C53 1.408 . S
C51 C56 1.342 . S
C52 C53 1.310 . S
C52 C55 1.461 . S
C52 H72 0.932 . S
C53 C51 1.408 . S
C53 C52 1.310 . S
C53 H73 0.930 . S
C54 C55 1.474 . S
C54 C56 1.285 . S
C54 H74 0.929 . S
C55 C52 1.461 . S
C55 C54 1.474 . S
C56 C51 1.342 . S
C56 C54 1.285 . S
C56 H75 0.930 . S
C57 C60 1.424 . S
C57 C62 1.237 1_565 S
C57 C63 1.428 1_565 S
C58 C61 1.260 . S
C58 C62 1.481 1_565 S
C58 H76 0.932 . S
C59 C60 1.384 . S
C59 C61 1.479 . S
C59 H77 0.929 . S
C60 C57 1.424 . S
C60 C59 1.384 . S
C60 H78 0.928 . S
C61 C58 1.260 . S
C61 C59 1.479 . S
C62 C57 1.237 1_545 S
C62 C58 1.481 1_545 S
C62 H79 0.938 . S
C63 U46 2.882 . S
C63 C57 1.428 1_545 S
C63 O66 1.301 . S
C63 O67 1.282 . S
O64 U46 2.441 . S
O64 C50 1.249 . S
O65 U46 2.420 . S
O65 C50 1.202 . S
O66 U46 2.455 . S
O66 C63 1.301 . S
O67 U46 2.449 . S
O67 C63 1.282 . S
H68 C41 0.931 . S
H69 C43 0.929 . S
H70 C44 0.930 . S
H71 C45 0.931 . S
H72 C52 0.932 . S
H73 C53 0.930 . S
H74 C54 0.929 . S
H75 C56 0.930 . S
H76 C58 0.932 . S
H77 C59 0.929 . S
H78 C60 0.928 . S
H79 C62 0.938 . S
C80 C81 1.264 . S
C80 C85 1.479 . S
C80 C90 1.465 . S
C81 C80 1.264 . S
C81 C83 1.339 . S
C81 H108 0.931 . S
C82 C83 1.395 . S
C82 C84 1.320 . S
C83 C81 1.339 . S
C83 C82 1.395 . S
C83 H109 0.929 . S
C84 C82 1.320 . S
C84 C85 1.405 . S
C84 H110 0.930 . S
C85 C80 1.479 . S
C85 C84 1.405 . S
C85 H111 0.931 . S
U86 O87 2.454 . S
U86 O88 2.458 . S
U86 C89 2.984 . S
U86 C90 2.847 . S
U86 C103 2.882 . S
U86 O104 2.441 . S
U86 O105 2.420 . S
U86 O106 2.455 . S
U86 O107 2.449 . S
O87 U86 2.454 . S
O87 C89 1.353 . S
O88 U86 2.458 . S
O88 C89 1.286 . S
C89 U86 2.984 . S
C89 O87 1.353 . S
C89 O88 1.286 . S
C89 C91 1.363 . S
C90 C80 1.465 . S
C90 U86 2.847 . S
C90 O104 1.249 . S
C90 O105 1.202 . S
C91 C89 1.363 . S
C91 C93 1.408 . S
C91 C96 1.342 . S
C92 C93 1.310 . S
C92 C95 1.461 . S
C92 H112 0.932 . S
C93 C91 1.408 . S
C93 C92 1.310 . S
C93 H113 0.930 . S
C94 C95 1.474 . S
C94 C96 1.285 . S
C94 H114 0.929 . S
C95 C92 1.461 . S
C95 C94 1.474 . S
C96 C91 1.342 . S
C96 C94 1.285 . S
C96 H115 0.930 . S
C97 C100 1.424 . S
C97 C102 1.245 . S
C97 C103 1.428 . S
C98 C101 1.260 . S
C98 C102 1.477 . S
C98 H116 0.932 . S
C99 C100 1.384 . S
C99 C101 1.479 . S
C99 H117 0.929 . S
C100 C97 1.424 . S
C100 C99 1.384 . S
C100 H118 0.928 . S
C101 C98 1.260 . S
C101 C99 1.479 . S
C102 C97 1.245 . S
C102 C98 1.477 . S
C102 H119 0.932 . S
C103 U86 2.882 . S
C103 C97 1.428 . S
C103 O106 1.301 . S
C103 O107 1.282 . S
O104 U86 2.441 . S
O104 C90 1.249 . S
O105 U86 2.420 . S
O105 C90 1.202 . S
O106 U86 2.455 . S
O106 C103 1.301 . S
O107 U86 2.449 . S
O107 C103 1.282 . S
H108 C81 0.931 . S
H109 C83 0.929 . S
H110 C84 0.930 . S
H111 C85 0.931 . S
H112 C92 0.932 . S
H113 C93 0.930 . S
H114 C94 0.929 . S
H115 C96 0.930 . S
H116 C98 0.932 . S
H117 C99 0.929 . S
H118 C100 0.928 . S
H119 C102 0.932 . S
C120 C121 1.264 . S
C120 C125 1.512 . S
C120 C130 1.465 1_455 S
C121 C120 1.264 . S
C121 C123 1.339 . S
C121 H148 0.931 . S
C122 C123 1.395 . S
C122 C124 1.320 . S
C123 C121 1.339 . S
C123 C122 1.395 . S
C123 H149 0.929 . S
C124 C122 1.320 . S
C124 C125 1.420 . S
C124 H150 0.930 . S
C125 C120 1.512 . S
C125 C124 1.420 . S
C125 H151 0.887 1_455 S
U126 O127 2.454 . S
U126 O128 2.458 . S
U126 C129 2.984 . S
U126 C130 2.847 . S
U126 C143 2.882 . S
U126 O144 2.441 . S
U126 O145 2.420 . S
U126 O146 2.455 . S
U126 O147 2.449 . S
O127 U126 2.454 . S
O127 C129 1.353 . S
O128 U126 2.458 . S
O128 C129 1.286 . S
C129 U126 2.984 . S
C129 O127 1.353 . S
C129 O128 1.286 . S
C129 C131 1.363 . S
C130 C120 1.465 1_655 S
C130 U126 2.847 . S
C130 O144 1.249 . S
C130 O145 1.202 . S
C131 C129 1.363 . S
C131 C133 1.408 . S
C131 C136 1.342 . S
C132 C133 1.310 . S
C132 C135 1.461 . S
C132 H152 0.932 . S
C133 C131 1.408 . S
C133 C132 1.310 . S
C133 H153 0.930 . S
C134 C135 1.474 . S
C134 C136 1.285 . S
C134 H154 0.929 . S
C135 C132 1.461 . S
C135 C134 1.474 . S
C136 C131 1.342 . S
C136 C134 1.285 . S
C136 H155 0.930 . S
C137 C140 1.424 . S
C137 C142 1.245 . S
C137 C143 1.428 1_455 S
C138 C141 1.260 . S
C138 C142 1.477 . S
C138 H156 0.932 . S
C139 C140 1.384 . S
C139 C141 1.479 . S
C139 H157 0.929 . S
C140 C137 1.424 . S
C140 C139 1.384 . S
C140 H158 0.928 . S
C141 C138 1.260 . S
C141 C139 1.479 . S
C142 C137 1.245 . S
C142 C138 1.477 . S
C142 H159 0.932 1_455 S
C143 U126 2.882 . S
C143 C137 1.428 1_655 S
C143 O146 1.301 . S
C143 O147 1.282 . S
O144 U126 2.441 . S
O144 C130 1.249 . S
O145 U126 2.420 . S
O145 C130 1.202 . S
O146 U126 2.455 . S
O146 C143 1.301 . S
O147 U126 2.449 . S
O147 C143 1.282 . S
H148 C121 0.931 . S
H149 C123 0.929 . S
H150 C124 0.930 . S
H151 C125 0.887 1_655 S
H152 C132 0.932 . S
H153 C133 0.930 . S
H154 C134 0.929 . S
H155 C136 0.930 . S
H156 C138 0.932 . S
H157 C139 0.929 . S
H158 C140 0.928 . S
H159 C142 0.932 1_655 S
C160 C161 1.263 1_565 S
C160 C165 1.476 . S
C160 C170 1.469 . S
C161 C160 1.263 1_545 S
C161 C163 1.339 . S
C161 H188 0.931 . S
C162 C163 1.395 . S
C162 C164 1.320 . S
C163 C161 1.339 . S
C163 C162 1.395 . S
C163 H189 0.929 . S
C164 C162 1.320 . S
C164 C165 1.405 1_545 S
C164 H190 0.930 . S
C165 C160 1.476 . S
C165 C164 1.405 1_565 S
C165 H191 0.931 . S
U166 O167 2.454 . S
U166 O168 2.458 . S
U166 C169 2.984 . S
U166 C170 2.847 . S
U166 C183 2.882 . S
U166 O184 2.441 . S
U166 O185 2.420 . S
U166 O186 2.455 . S
U166 O187 2.449 . S
O167 U166 2.454 . S
O167 C169 1.353 . S
O168 U166 2.458 . S
O168 C169 1.286 . S
C169 U166 2.984 . S
C169 O167 1.353 . S
C169 O168 1.286 . S
C169 C171 1.363 . S
C170 C160 1.469 . S
C170 U166 2.847 . S
C170 O184 1.249 . S
C170 O185 1.202 . S
C171 C169 1.363 . S
C171 C173 1.408 . S
C171 C176 1.342 . S
C172 C173 1.310 . S
C172 C175 1.461 . S
C172 H192 0.932 . S
C173 C171 1.408 . S
C173 C172 1.310 . S
C173 H193 0.930 . S
C174 C175 1.474 . S
C174 C176 1.285 . S
C174 H194 0.929 . S
C175 C172 1.461 . S
C175 C174 1.474 . S
C176 C171 1.342 . S
C176 C174 1.285 . S
C176 H195 0.930 . S
C177 C180 1.424 1_565 S
C177 C182 1.245 . S
C177 C183 1.428 . S
C178 C181 1.260 . S
C178 C182 1.477 1_545 S
C178 H196 0.908 1_545 S
C179 C180 1.384 . S
C179 C181 1.479 . S
C179 H197 0.929 . S
C180 C177 1.424 1_545 S
C180 C179 1.384 . S
C180 H198 0.928 . S
C181 C178 1.260 . S
C181 C179 1.479 . S
C182 C177 1.245 . S
C182 C178 1.477 1_565 S
C182 H199 0.932 . S
C183 U166 2.882 . S
C183 C177 1.428 . S
C183 O186 1.301 . S
C183 O187 1.282 . S
O184 U166 2.441 . S
O184 C170 1.249 . S
O185 U166 2.420 . S
O185 C170 1.202 . S
O186 U166 2.455 . S
O186 C183 1.301 . S
O187 U166 2.449 . S
O187 C183 1.282 . S
H188 C161 0.931 . S
H189 C163 0.929 . S
H190 C164 0.930 . S
H191 C165 0.931 . S
H192 C172 0.932 . S
H193 C173 0.930 . S
H194 C174 0.929 . S
H195 C176 0.930 . S
H196 C178 0.908 1_565 S
H197 C179 0.929 . S
H198 C180 0.928 . S
H199 C182 0.932 . S
C200 C201 1.264 . S
C200 C205 1.479 . S
C200 C210 1.465 . S
C201 C200 1.264 . S
C201 C203 1.339 . S
C201 H228 0.931 . S
C202 C203 1.395 . S
C202 C204 1.320 . S
C203 C201 1.339 . S
C203 C202 1.395 . S
C203 H229 0.929 . S
C204 C202 1.320 . S
C204 C205 1.405 . S
C204 H230 0.930 . S
C205 C200 1.479 . S
C205 C204 1.405 . S
C205 H231 0.931 . S
U206 O207 2.454 . S
U206 O208 2.458 . S
U206 C209 2.984 . S
U206 C210 2.847 . S
U206 C223 2.882 . S
U206 O224 2.441 . S
U206 O225 2.420 . S
U206 O226 2.455 . S
U206 O227 2.449 . S
O207 U206 2.454 . S
O207 C209 1.353 . S
O208 U206 2.458 . S
O208 C209 1.286 . S
C209 U206 2.984 . S
C209 O207 1.353 . S
C209 O208 1.286 . S
C209 C211 1.363 . S
C210 C200 1.465 . S
C210 U206 2.847 . S
C210 O224 1.249 . S
C210 O225 1.202 . S
C211 C209 1.363 . S
C211 C213 1.408 . S
C211 C216 1.342 . S
C212 C213 1.310 . S
C212 C215 1.461 . S
C212 H232 0.932 . S
C213 C211 1.408 . S
C213 C212 1.310 . S
C213 H233 0.930 . S
C214 C215 1.474 . S
C214 C216 1.285 . S
C214 H234 0.929 . S
C215 C212 1.461 . S
C215 C214 1.474 . S
C216 C211 1.342 . S
C216 C214 1.285 . S
C216 H235 0.930 . S
C217 C220 1.424 . S
C217 C222 1.245 . S
C217 C223 1.428 . S
C218 C221 1.260 . S
C218 C222 1.477 . S
C218 H236 0.932 . S
C219 C220 1.384 . S
C219 C221 1.479 . S
C219 H237 0.929 . S
C220 C217 1.424 . S
C220 C219 1.384 . S
C220 H238 0.928 . S
C221 C218 1.260 . S
C221 C219 1.479 . S
C222 C217 1.245 . S
C222 C218 1.477 . S
C222 H239 0.932 . S
C223 U206 2.882 . S
C223 C217 1.428 . S
C223 O226 1.301 . S
C223 O227 1.282 . S
O224 U206 2.441 . S
O224 C210 1.249 . S
O225 U206 2.420 . S
O225 C210 1.202 . S
O226 U206 2.455 . S
O226 C223 1.301 . S
O227 U206 2.449 . S
O227 C223 1.282 . S
H228 C201 0.931 . S
H229 C203 0.929 . S
H230 C204 0.930 . S
H231 C205 0.931 . S
H232 C212 0.932 . S
H233 C213 0.930 . S
H234 C214 0.929 . S
H235 C216 0.930 . S
H236 C218 0.932 . S
H237 C219 0.929 . S
H238 C220 0.928 . S
H239 C222 0.932 . S
C240 C241 1.264 . S
C240 C245 1.443 1_545 S
C240 C250 1.465 1_545 S
C241 C240 1.264 . S
C241 C243 1.339 . S
C241 H268 0.931 . S
C242 C243 1.395 . S
C242 C244 1.320 . S
C243 C241 1.339 . S
C243 C242 1.395 . S
C243 H269 0.929 . S
C244 C242 1.320 . S
C244 C245 1.390 1_545 S
C244 H270 0.930 . S
C245 C240 1.443 1_565 S
C245 C244 1.390 1_565 S
C245 H271 0.981 . S
U246 O247 2.454 . S
U246 O248 2.458 . S
U246 C249 2.984 . S
U246 C250 2.847 . S
U246 C263 2.882 . S
U246 O264 2.441 . S
U246 O265 2.420 . S
U246 O266 2.455 . S
U246 O267 2.449 . S
O247 U246 2.454 . S
O247 C249 1.353 . S
O248 U246 2.458 . S
O248 C249 1.286 . S
C249 U246 2.984 . S
C249 O247 1.353 . S
C249 O248 1.286 . S
C249 C251 1.363 . S
C250 C240 1.465 1_565 S
C250 U246 2.847 . S
C250 O264 1.249 . S
C250 O265 1.202 . S
C251 C249 1.363 . S
C251 C253 1.408 . S
C251 C256 1.342 . S
C252 C253 1.310 . S
C252 C255 1.461 . S
C252 H272 0.932 . S
C253 C251 1.408 . S
C253 C252 1.310 . S
C253 H273 0.930 . S
C254 C255 1.474 . S
C254 C256 1.285 . S
C254 H274 0.929 . S
C255 C252 1.461 . S
C255 C254 1.474 . S
C256 C251 1.342 . S
C256 C254 1.285 . S
C256 H275 0.930 . S
C257 C260 1.424 . S
C257 C262 1.245 1_545 S
C257 C263 1.428 1_545 S
C258 C261 1.260 . S
C258 C262 1.473 1_545 S
C258 H276 0.932 . S
C259 C260 1.384 . S
C259 C261 1.479 . S
C259 H277 0.929 . S
C260 C257 1.424 . S
C260 C259 1.384 . S
C260 H278 0.928 . S
C261 C258 1.260 . S
C261 C259 1.479 . S
C262 C257 1.245 1_565 S
C262 C258 1.473 1_565 S
C262 H279 0.935 . S
C263 U246 2.882 . S
C263 C257 1.428 1_565 S
C263 O266 1.301 . S
C263 O267 1.282 . S
O264 U246 2.441 . S
O264 C250 1.249 . S
O265 U246 2.420 . S
O265 C250 1.202 . S
O266 U246 2.455 . S
O266 C263 1.301 . S
O267 U246 2.449 . S
O267 C263 1.282 . S
H268 C241 0.931 . S
H269 C243 0.929 . S
H270 C244 0.930 . S
H271 C245 0.981 . S
H272 C252 0.932 . S
H273 C253 0.930 . S
H274 C254 0.929 . S
H275 C256 0.930 . S
H276 C258 0.932 . S
H277 C259 0.929 . S
H278 C260 0.928 . S
H279 C262 0.935 . S
C280 C281 1.264 . S
C280 C285 1.479 . S
C280 C290 1.465 . S
C281 C280 1.264 . S
C281 C283 1.339 . S
C281 H308 0.931 . S
C282 C283 1.395 . S
C282 C284 1.320 . S
C283 C281 1.339 . S
C283 C282 1.395 . S
C283 H309 0.929 . S
C284 C282 1.320 . S
C284 C285 1.405 . S
C284 H310 0.930 . S
C285 C280 1.479 . S
C285 C284 1.405 . S
C285 H311 0.931 . S
U286 O287 2.454 . S
U286 O288 2.458 . S
U286 C289 2.984 . S
U286 C290 2.847 . S
U286 C303 2.882 . S
U286 O304 2.441 . S
U286 O305 2.420 . S
U286 O306 2.455 . S
U286 O307 2.449 . S
O287 U286 2.454 . S
O287 C289 1.353 . S
O288 U286 2.458 . S
O288 C289 1.286 . S
C289 U286 2.984 . S
C289 O287 1.353 . S
C289 O288 1.286 . S
C289 C291 1.363 . S
C290 C280 1.465 . S
C290 U286 2.847 . S
C290 O304 1.249 . S
C290 O305 1.202 . S
C291 C289 1.363 . S
C291 C293 1.408 . S
C291 C296 1.342 . S
C292 C293 1.310 . S
C292 C295 1.461 . S
C292 H312 0.932 . S
C293 C291 1.408 . S
C293 C292 1.310 . S
C293 H313 0.930 . S
C294 C295 1.474 . S
C294 C296 1.285 . S
C294 H314 0.929 . S
C295 C292 1.461 . S
C295 C294 1.474 . S
C296 C291 1.342 . S
C296 C294 1.285 . S
C296 H315 0.930 . S
C297 C300 1.424 . S
C297 C302 1.245 . S
C297 C303 1.428 . S
C298 C301 1.260 . S
C298 C302 1.477 . S
C298 H316 0.932 . S
C299 C300 1.384 . S
C299 C301 1.479 . S
C299 H317 0.929 . S
C300 C297 1.424 . S
C300 C299 1.384 . S
C300 H318 0.928 . S
C301 C298 1.260 . S
C301 C299 1.479 . S
C302 C297 1.245 . S
C302 C298 1.477 . S
C302 H319 0.932 . S
C303 U286 2.882 . S
C303 C297 1.428 . S
C303 O306 1.301 . S
C303 O307 1.282 . S
O304 U286 2.441 . S
O304 C290 1.249 . S
O305 U286 2.420 . S
O305 C290 1.202 . S
O306 U286 2.455 . S
O306 C303 1.301 . S
O307 U286 2.449 . S
O307 C303 1.282 . S
H308 C281 0.931 . S
H309 C283 0.929 . S
H310 C284 0.930 . S
H311 C285 0.931 . S
H312 C292 0.932 . S
H313 C293 0.930 . S
H314 C294 0.929 . S
H315 C296 0.930 . S
H316 C298 0.932 . S
H317 C299 0.929 . S
H318 C300 0.928 . S
H319 C302 0.932 . S
C320 C321 1.264 . S
C320 C325 1.479 . S
C320 C330 1.465 . S
C321 C320 1.264 . S
C321 C323 1.339 . S
C321 H348 0.931 . S
C322 C323 1.395 . S
C322 C324 1.320 . S
C323 C321 1.339 . S
C323 C322 1.395 . S
C323 H349 0.929 . S
C324 C322 1.320 . S
C324 C325 1.405 . S
C324 H350 0.930 . S
C325 C320 1.479 . S
C325 C324 1.405 . S
C325 H351 0.931 . S
U326 O327 2.454 1_655 S
U326 O328 2.458 1_655 S
U326 C329 2.984 1_655 S
U326 C330 2.847 . S
U326 C343 2.882 . S
U326 O344 2.441 . S
U326 O345 2.420 . S
U326 O346 2.455 . S
U326 O347 2.449 . S
O327 U326 2.454 1_455 S
O327 C329 1.353 . S
O328 U326 2.458 1_455 S
O328 C329 1.286 . S
C329 U326 2.984 1_455 S
C329 O327 1.353 . S
C329 O328 1.286 . S
C329 C331 1.363 . S
C330 C320 1.465 . S
C330 U326 2.847 . S
C330 O344 1.249 . S
C330 O345 1.202 . S
C331 C329 1.363 . S
C331 C333 1.408 . S
C331 C336 1.342 . S
C332 C333 1.310 . S
C332 C335 1.461 . S
C332 H352 0.932 . S
C333 C331 1.408 . S
C333 C332 1.310 . S
C333 H353 0.930 . S
C334 C335 1.474 . S
C334 C336 1.285 . S
C334 H354 0.929 . S
C335 C332 1.461 . S
C335 C334 1.474 . S
C336 C331 1.342 . S
C336 C334 1.285 . S
C336 H355 0.930 . S
C337 C340 1.424 . S
C337 C342 1.245 . S
C337 C343 1.428 . S
C338 C341 1.260 . S
C338 C342 1.477 . S
C338 H356 0.932 . S
C339 C340 1.384 . S
C339 C341 1.479 . S
C339 H357 0.929 . S
C340 C337 1.424 . S
C340 C339 1.384 . S
C340 H358 0.928 . S
C341 C338 1.260 . S
C341 C339 1.479 . S
C342 C337 1.245 . S
C342 C338 1.477 . S
C342 H359 0.932 . S
C343 U326 2.882 . S
C343 C337 1.428 . S
C343 O346 1.301 . S
C343 O347 1.282 . S
O344 U326 2.441 . S
O344 C330 1.249 . S
O345 U326 2.420 . S
O345 C330 1.202 . S
O346 U326 2.455 . S
O346 C343 1.301 . S
O347 U326 2.449 . S
O347 C343 1.282 . S
H348 C321 0.931 . S
H349 C323 0.929 . S
H350 C324 0.930 . S
H351 C325 0.931 . S
H352 C332 0.932 . S
H353 C333 0.930 . S
H354 C334 0.929 . S
H355 C336 0.930 . S
H356 C338 0.932 . S
H357 C339 0.929 . S
H358 C340 0.928 . S
H359 C342 0.932 . S
C360 C361 1.236 1_545 S
C360 C365 1.502 . S
C360 C370 1.474 . S
C361 C360 1.236 1_565 S
C361 C363 1.339 . S
C361 H388 0.931 . S
C362 C363 1.395 . S
C362 C364 1.320 . S
C363 C361 1.339 . S
C363 C362 1.395 . S
C363 H389 0.929 . S
C364 C362 1.320 . S
C364 C365 1.405 1_565 S
C364 H390 0.930 . S
C365 C360 1.502 . S
C365 C364 1.405 1_545 S
C365 H391 0.931 . S
U366 O367 2.454 . S
U366 O368 2.458 . S
U366 C369 2.984 . S
U366 C370 2.847 . S
U366 C383 2.882 . S
U366 O384 2.441 . S
U366 O385 2.420 . S
U366 O386 2.455 . S
U366 O387 2.449 . S
O367 U366 2.454 . S
O367 C369 1.353 . S
O368 U366 2.458 . S
O368 C369 1.286 . S
C369 U366 2.984 . S
C369 O367 1.353 . S
C369 O368 1.286 . S
C369 C371 1.363 . S
C370 C360 1.474 . S
C370 U366 2.847 . S
C370 O384 1.249 . S
C370 O385 1.202 . S
C371 C369 1.363 . S
C371 C373 1.408 . S
C371 C376 1.342 . S
C372 C373 1.310 . S
C372 C375 1.461 . S
C372 H392 0.932 . S
C373 C371 1.408 . S
C373 C372 1.310 . S
C373 H393 0.930 . S
C374 C375 1.474 . S
C374 C376 1.285 . S
C374 H394 0.929 . S
C375 C372 1.461 . S
C375 C374 1.474 . S
C376 C371 1.342 . S
C376 C374 1.285 . S
C376 H395 0.930 . S
C377 C380 1.424 1_545 S
C377 C382 1.245 . S
C377 C383 1.428 . S
C378 C381 1.260 . S
C378 C382 1.477 1_565 S
C378 H396 0.932 1_565 S
C379 C380 1.384 . S
C379 C381 1.479 . S
C379 H397 0.929 . S
C380 C377 1.424 1_565 S
C380 C379 1.384 . S
C380 H398 0.928 . S
C381 C378 1.260 . S
C381 C379 1.479 . S
C382 C377 1.245 . S
C382 C378 1.477 1_545 S
C382 H399 0.932 . S
C383 U366 2.882 . S
C383 C377 1.428 . S
C383 O386 1.301 . S
C383 O387 1.282 . S
O384 U366 2.441 . S
O384 C370 1.249 . S
O385 U366 2.420 . S
O385 C370 1.202 . S
O386 U366 2.455 . S
O386 C383 1.301 . S
O387 U366 2.449 . S
O387 C383 1.282 . S
H388 C361 0.931 . S
H389 C363 0.929 . S
H390 C364 0.930 . S
H391 C365 0.931 . S
H392 C372 0.932 . S
H393 C373 0.930 . S
H394 C374 0.929 . S
H395 C376 0.930 . S
H396 C378 0.932 1_545 S
H397 C379 0.929 . S
H398 C380 0.928 . S
H399 C382 0.932 . S
C400 C401 1.264 . S
C400 C405 1.479 . S
C400 C410 1.465 . S
C401 C400 1.264 . S
C401 C403 1.339 . S
C401 H428 0.931 . S
C402 C403 1.395 . S
C402 C404 1.320 . S
C403 C401 1.339 . S
C403 C402 1.395 . S
C403 H429 0.929 . S
C404 C402 1.320 . S
C404 C405 1.405 . S
C404 H430 0.930 . S
C405 C400 1.479 . S
C405 C404 1.405 . S
C405 H431 0.931 . S
U406 O407 2.454 . S
U406 O408 2.458 . S
U406 C409 2.984 . S
U406 C410 2.847 . S
U406 C423 2.882 . S
U406 O424 2.441 . S
U406 O425 2.420 . S
U406 O426 2.455 . S
U406 O427 2.449 . S
O407 U406 2.454 . S
O407 C409 1.353 . S
O408 U406 2.458 . S
O408 C409 1.286 . S
C409 U406 2.984 . S
C409 O407 1.353 . S
C409 O408 1.286 . S
C409 C411 1.363 . S
C410 C400 1.465 . S
C410 U406 2.847 . S
C410 O424 1.249 . S
C410 O425 1.202 . S
C411 C409 1.363 . S
C411 C413 1.408 . S
C411 C416 1.342 . S
C412 C413 1.310 . S
C412 C415 1.461 . S
C412 H432 0.932 . S
C413 C411 1.408 . S
C413 C412 1.310 . S
C413 H433 0.930 . S
C414 C415 1.474 . S
C414 C416 1.285 . S
C414 H434 0.929 . S
C415 C412 1.461 . S
C415 C414 1.474 . S
C416 C411 1.342 . S
C416 C414 1.285 . S
C416 H435 0.930 . S
C417 C420 1.424 . S
C417 C422 1.245 . S
C417 C423 1.428 . S
C418 C421 1.260 . S
C418 C422 1.477 . S
C418 H436 0.932 . S
C419 C420 1.384 . S
C419 C421 1.479 . S
C419 H437 0.929 . S
C420 C417 1.424 . S
C420 C419 1.384 . S
C420 H438 0.928 . S
C421 C418 1.260 . S
C421 C419 1.479 . S
C422 C417 1.245 . S
C422 C418 1.477 . S
C422 H439 0.932 . S
C423 U406 2.882 . S
C423 C417 1.428 . S
C423 O426 1.301 . S
C423 O427 1.282 . S
O424 U406 2.441 . S
O424 C410 1.249 . S
O425 U406 2.420 . S
O425 C410 1.202 . S
O426 U406 2.455 . S
O426 C423 1.301 . S
O427 U406 2.449 . S
O427 C423 1.282 . S
H428 C401 0.931 . S
H429 C403 0.929 . S
H430 C404 0.930 . S
H431 C405 0.931 . S
H432 C412 0.932 . S
H433 C413 0.930 . S
H434 C414 0.929 . S
H435 C416 0.930 . S
H436 C418 0.932 . S
H437 C419 0.929 . S
H438 C420 0.928 . S
H439 C422 0.932 . S
C440 C441 1.264 . S
C440 C445 1.492 1_455 S
C440 C450 1.465 1_455 S
C441 C440 1.264 . S
C441 C443 1.339 . S
C441 H468 0.931 . S
C442 C443 1.395 . S
C442 C444 1.320 . S
C443 C441 1.339 . S
C443 C442 1.395 . S
C443 H469 0.929 . S
C444 C442 1.320 . S
C444 C445 1.385 1_455 S
C444 H470 0.930 . S
C445 C440 1.492 1_655 S
C445 C444 1.385 1_655 S
C445 H471 0.938 . S
U446 O447 2.454 . S
U446 O448 2.458 . S
U446 C449 2.984 . S
U446 C450 2.847 . S
U446 C463 2.882 . S
U446 O464 2.441 . S
U446 O465 2.420 . S
U446 O466 2.455 . S
U446 O467 2.449 . S
O447 U446 2.454 . S
O447 C449 1.353 . S
O448 U446 2.458 . S
O448 C449 1.286 . S
C449 U446 2.984 . S
C449 O447 1.353 . S
C449 O448 1.286 . S
C449 C451 1.363 . S
C450 C440 1.465 1_655 S
C450 U446 2.847 . S
C450 O464 1.249 . S
C450 O465 1.202 . S
C451 C449 1.363 . S
C451 C453 1.408 . S
C451 C456 1.342 . S
C452 C453 1.310 . S
C452 C455 1.461 . S
C452 H472 0.932 . S
C453 C451 1.408 . S
C453 C452 1.310 . S
C453 H473 0.930 . S
C454 C455 1.474 . S
C454 C456 1.285 . S
C454 H474 0.929 . S
C455 C452 1.461 . S
C455 C454 1.474 . S
C456 C451 1.342 . S
C456 C454 1.285 . S
C456 H475 0.930 . S
C457 C460 1.436 . S
C457 C462 1.237 1_455 S
C457 C463 1.432 1_455 S
C458 C461 1.260 . S
C458 C462 1.477 1_455 S
C458 H476 0.932 . S
C459 C460 1.384 . S
C459 C461 1.479 . S
C459 H477 0.929 . S
C460 C457 1.436 . S
C460 C459 1.384 . S
C460 H478 0.928 . S
C461 C458 1.260 . S
C461 C459 1.479 . S
C462 C457 1.237 1_655 S
C462 C458 1.477 1_655 S
C462 H479 0.932 . S
C463 U446 2.882 . S
C463 C457 1.432 1_655 S
C463 O466 1.301 . S
C463 O467 1.282 . S
O464 U446 2.441 . S
O464 C450 1.249 . S
O465 U446 2.420 . S
O465 C450 1.202 . S
O466 U446 2.455 . S
O466 C463 1.301 . S
O467 U446 2.449 . S
O467 C463 1.282 . S
H468 C441 0.931 . S
H469 C443 0.929 . S
H470 C444 0.930 . S
H471 C445 0.938 . S
H472 C452 0.932 . S
H473 C453 0.930 . S
H474 C454 0.929 . S
H475 C456 0.930 . S
H476 C458 0.932 . S
H477 C459 0.929 . S
H478 C460 0.928 . S
H479 C462 0.932 . S
C480 C481 1.364 1_655 S
C480 C482 1.386 . S
C480 H496 0.965 . S
C481 C480 1.364 1_455 S
C481 C485 1.376 . S
C482 C480 1.386 . S
C482 C483 1.369 1_655 S
C482 C486 1.531 . S
C483 C482 1.369 1_455 S
C483 C484 1.410 . S
C483 C491 1.505 1_455 S
C484 C483 1.410 . S
C484 C485 1.392 . S
C484 C487 1.511 . S
C485 C481 1.376 . S
C485 C484 1.392 . S
C485 H497 0.929 . S
C486 C482 1.531 . S
C486 H498 0.960 . S
C486 H499 0.962 . S
C486 H500 0.960 . S
C487 C484 1.511 . S
C487 H501 0.961 . S
C487 H502 0.961 . S
C487 H503 0.961 . S
C488 C489 1.370 . S
C488 C490 1.363 . S
C488 H504 0.931 . S
C489 C488 1.370 . S
C489 C493 1.408 . S
C490 C488 1.363 . S
C490 C491 1.370 . S
C490 C494 1.524 . S
C491 C483 1.505 1_655 S
C491 C490 1.370 . S
C491 C492 1.401 . S
C492 C491 1.401 . S
C492 C493 1.404 . S
C492 C495 1.539 1_655 S
C493 C489 1.408 . S
C493 C492 1.404 . S
C493 H505 0.930 . S
C494 C490 1.524 . S
C494 H506 0.956 . S
C494 H507 0.961 1_655 S
C494 H508 0.961 . S
C495 C492 1.539 1_455 S
C495 H509 0.958 1_455 S
C495 H510 0.961 . S
C495 H511 0.960 . S
H496 C480 0.965 . S
H497 C485 0.929 . S
H498 C486 0.960 . S
H499 C486 0.962 . S
H500 C486 0.960 . S
H501 C487 0.961 . S
H502 C487 0.961 . S
H503 C487 0.961 . S
H504 C488 0.931 . S
H505 C493 0.930 . S
H506 C494 0.956 . S
H507 C494 0.961 1_455 S
H508 C494 0.961 . S
H509 C495 0.958 1_655 S
H510 C495 0.961 . S
H511 C495 0.960 . S
C512 C513 1.391 . S
C512 C514 1.394 . S
C512 H528 0.931 . S
C513 C512 1.391 . S
C513 C517 1.376 . S
C514 C512 1.394 . S
C514 C515 1.369 . S
C514 C518 1.531 . S
C515 C514 1.369 . S
C515 C516 1.410 1_565 S
C515 C523 1.528 . S
C516 C515 1.410 1_545 S
C516 C517 1.392 1_545 S
C516 C519 1.511 . S
C517 C513 1.376 . S
C517 C516 1.392 1_565 S
C517 H529 0.929 1_565 S
C518 C514 1.531 . S
C518 H530 0.960 . S
C518 H531 0.962 . S
C518 H532 0.960 . S
C519 C516 1.511 . S
C519 H533 0.961 . S
C519 H534 0.961 . S
C519 H535 0.961 . S
C520 C521 1.370 . S
C520 C522 1.363 . S
C520 H536 0.931 . S
C521 C520 1.370 . S
C521 C525 1.408 . S
C522 C520 1.363 . S
C522 C523 1.350 1_545 S
C522 C526 1.524 . S
C523 C515 1.528 . S
C523 C522 1.350 1_565 S
C523 C524 1.399 . S
C524 C523 1.399 . S
C524 C525 1.404 1_565 S
C524 C527 1.539 . S
C525 C521 1.408 . S
C525 C524 1.404 1_545 S
C525 H537 0.930 1_545 S
C526 C522 1.524 . S
C526 H538 0.956 . S
C526 H539 0.961 . S
C526 H540 0.961 . S
C527 C524 1.539 . S
C527 H541 0.958 . S
C527 H542 0.961 . S
C527 H543 0.960 . S
H528 C512 0.931 . S
H529 C517 0.929 1_545 S
H530 C518 0.960 . S
H531 C518 0.962 . S
H532 C518 0.960 . S
H533 C519 0.961 . S
H534 C519 0.961 . S
H535 C519 0.961 . S
H536 C520 0.931 . S
H537 C525 0.930 1_565 S
H538 C526 0.956 . S
H539 C526 0.961 . S
H540 C526 0.961 . S
H541 C527 0.958 . S
H542 C527 0.961 . S
H543 C527 0.960 . S
C544 C545 1.391 . S
C544 C546 1.394 . S
C544 H560 0.931 . S
C545 C544 1.391 . S
C545 C549 1.376 . S
C546 C544 1.394 . S
C546 C547 1.369 . S
C546 C550 1.531 . S
C547 C546 1.369 . S
C547 C548 1.410 . S
C547 C555 1.503 . S
C548 C547 1.410 . S
C548 C549 1.392 . S
C548 C551 1.511 . S
C549 C545 1.376 . S
C549 C548 1.392 . S
C549 H561 0.929 . S
C550 C546 1.531 . S
C550 H562 0.960 . S
C550 H563 0.962 . S
C550 H564 0.960 . S
C551 C548 1.511 . S
C551 H565 0.961 . S
C551 H566 0.961 . S
C551 H567 0.961 . S
C552 C553 1.370 . S
C552 C554 1.363 . S
C552 H568 0.931 . S
C553 C552 1.370 . S
C553 C557 1.408 . S
C554 C552 1.363 . S
C554 C555 1.370 . S
C554 C558 1.524 . S
C555 C547 1.503 . S
C555 C554 1.370 . S
C555 C556 1.403 . S
C556 C555 1.403 . S
C556 C557 1.404 . S
C556 C559 1.539 . S
C557 C553 1.408 . S
C557 C556 1.404 . S
C557 H569 0.930 . S
C558 C554 1.524 . S
C558 H570 0.956 . S
C558 H571 0.961 . S
C558 H572 0.961 . S
C559 C556 1.539 . S
C559 H573 0.958 . S
C559 H574 0.961 . S
C559 H575 0.960 . S
H560 C544 0.931 . S
H561 C549 0.929 . S
H562 C550 0.960 . S
H563 C550 0.962 . S
H564 C550 0.960 . S
H565 C551 0.961 . S
H566 C551 0.961 . S
H567 C551 0.961 . S
H568 C552 0.931 . S
H569 C557 0.930 . S
H570 C558 0.956 . S
H571 C558 0.961 . S
H572 C558 0.961 . S
H573 C559 0.958 . S
H574 C559 0.961 . S
H575 C559 0.960 . S
C576 C577 1.391 . S
C576 C578 1.396 1_545 S
C576 H592 0.931 1_545 S
C577 C576 1.391 . S
C577 C581 1.376 . S
C578 C576 1.396 1_565 S
C578 C579 1.361 1_565 S
C578 C582 1.536 . S
C579 C578 1.361 1_545 S
C579 C580 1.410 . S
C579 C587 1.503 . S
C580 C579 1.410 . S
C580 C581 1.392 . S
C580 C583 1.511 . S
C581 C577 1.376 . S
C581 C580 1.392 . S
C581 H593 0.929 . S
C582 C578 1.536 . S
C582 H594 0.960 . S
C582 H595 0.962 . S
C582 H596 0.960 . S
C583 C580 1.511 . S
C583 H597 0.961 . S
C583 H598 0.961 . S
C583 H599 0.961 . S
C584 C585 1.370 . S
C584 C586 1.363 . S
C584 H600 0.931 . S
C585 C584 1.370 . S
C585 C589 1.408 1_565 S
C586 C584 1.363 . S
C586 C587 1.370 1_565 S
C586 C590 1.524 . S
C587 C579 1.503 . S
C587 C586 1.370 1_545 S
C587 C588 1.403 . S
C588 C587 1.403 . S
C588 C589 1.404 . S
C588 C591 1.539 . S
C589 C585 1.408 1_545 S
C589 C588 1.404 . S
C589 H601 0.930 . S
C590 C586 1.524 . S
C590 H602 0.956 . S
C590 H603 0.961 . S
C590 H604 0.961 . S
C591 C588 1.539 . S
C591 H605 0.958 . S
C591 H606 0.961 . S
C591 H607 0.960 . S
H592 C576 0.931 1_565 S
H593 C581 0.929 . S
H594 C582 0.960 . S
H595 C582 0.962 . S
H596 C582 0.960 . S
H597 C583 0.961 . S
H598 C583 0.961 . S
H599 C583 0.961 . S
H600 C584 0.931 . S
H601 C589 0.930 . S
H602 C590 0.956 . S
H603 C590 0.961 . S
H604 C590 0.961 . S
H605 C591 0.958 . S
H606 C591 0.961 . S
H607 C591 0.960 . S
C608 C609 1.391 . S
C608 C610 1.394 . S
C608 H624 0.931 . S
C609 C608 1.391 . S
C609 C613 1.376 . S
C610 C608 1.394 . S
C610 C611 1.369 . S
C610 C614 1.531 . S
C611 C610 1.369 . S
C611 C612 1.410 . S
C611 C619 1.503 . S
C612 C611 1.410 . S
C612 C613 1.392 . S
C612 C615 1.511 . S
C613 C609 1.376 . S
C613 C612 1.392 . S
C613 H625 0.929 . S
C614 C610 1.531 . S
C614 H626 0.960 . S
C614 H627 0.962 . S
C614 H628 0.960 . S
C615 C612 1.511 . S
C615 H629 0.961 . S
C615 H630 0.961 . S
C615 H631 0.961 . S
C616 C617 1.370 . S
C616 C618 1.363 . S
C616 H632 0.931 . S
C617 C616 1.370 . S
C617 C621 1.408 . S
C618 C616 1.363 . S
C618 C619 1.370 . S
C618 C622 1.524 . S
C619 C611 1.503 . S
C619 C618 1.370 . S
C619 C620 1.403 . S
C620 C619 1.403 . S
C620 C621 1.404 . S
C620 C623 1.539 . S
C621 C617 1.408 . S
C621 C620 1.404 . S
C621 H633 0.930 . S
C622 C618 1.524 . S
C622 H634 0.956 . S
C622 H635 0.961 . S
C622 H636 0.961 . S
C623 C620 1.539 . S
C623 H637 0.958 . S
C623 H638 0.961 . S
C623 H639 0.960 . S
H624 C608 0.931 . S
H625 C613 0.929 . S
H626 C614 0.960 . S
H627 C614 0.962 . S
H628 C614 0.960 . S
H629 C615 0.961 . S
H630 C615 0.961 . S
H631 C615 0.961 . S
H632 C616 0.931 . S
H633 C621 0.930 . S
H634 C622 0.956 . S
H635 C622 0.961 . S
H636 C622 0.961 . S
H637 C623 0.958 . S
H638 C623 0.961 . S
H639 C623 0.960 . S
C640 C641 1.391 . S
C640 C642 1.394 . S
C640 H656 0.931 . S
C641 C640 1.391 . S
C641 C645 1.342 1_655 S
C642 C640 1.394 . S
C642 C643 1.369 . S
C642 C646 1.531 . S
C643 C642 1.369 . S
C643 C644 1.410 1_655 S
C643 C651 1.503 1_655 S
C644 C643 1.410 1_455 S
C644 C645 1.421 . S
C644 C647 1.511 . S
C645 C641 1.342 1_455 S
C645 C644 1.421 . S
C645 H657 0.935 . S
C646 C642 1.531 . S
C646 H658 0.960 . S
C646 H659 0.962 . S
C646 H660 0.960 . S
C647 C644 1.511 . S
C647 H661 0.961 . S
C647 H662 0.961 . S
C647 H663 0.961 . S
C648 C649 1.370 . S
C648 C650 1.363 . S
C648 H664 0.931 . S
C649 C648 1.370 . S
C649 C653 1.408 . S
C650 C648 1.363 . S
C650 C651 1.370 . S
C650 C654 1.524 . S
C651 C643 1.503 1_455 S
C651 C650 1.370 . S
C651 C652 1.403 1_455 S
C652 C651 1.403 1_655 S
C652 C653 1.404 1_655 S
C652 C655 1.539 . S
C653 C649 1.408 . S
C653 C652 1.404 1_455 S
C653 H665 0.930 . S
C654 C650 1.524 . S
C654 H666 0.956 . S
C654 H667 0.961 . S
C654 H668 0.961 . S
C655 C652 1.539 . S
C655 H669 0.958 . S
C655 H670 0.961 . S
C655 H671 0.960 . S
H656 C640 0.931 . S
H657 C645 0.935 . S
H658 C646 0.960 . S
H659 C646 0.962 . S
H660 C646 0.960 . S
H661 C647 0.961 . S
H662 C647 0.961 . S
H663 C647 0.961 . S
H664 C648 0.931 . S
H665 C653 0.930 . S
H666 C654 0.956 . S
H667 C654 0.961 . S
H668 C654 0.961 . S
H669 C655 0.958 . S
H670 C655 0.961 . S
H671 C655 0.960 . S
C672 C673 1.391 . S
C672 C674 1.394 . S
C672 H688 0.931 . S
C673 C672 1.391 . S
C673 C677 1.376 . S
C674 C672 1.394 . S
C674 C675 1.369 . S
C674 C678 1.549 . S
C675 C674 1.369 . S
C675 C676 1.410 . S
C675 C683 1.503 . S
C676 C675 1.410 . S
C676 C677 1.392 . S
C676 C679 1.511 . S
C677 C673 1.376 . S
C677 C676 1.392 . S
C677 H689 0.929 . S
C678 C674 1.549 . S
C678 H690 0.966 . S
C678 H691 0.939 1_455 S
C678 H692 0.960 . S
C679 C676 1.511 . S
C679 H693 0.961 . S
C679 H694 0.961 . S
C679 H695 0.961 . S
C680 C681 1.370 . S
C680 C682 1.363 . S
C680 H696 0.931 . S
C681 C680 1.370 . S
C681 C685 1.408 1_655 S
C682 C680 1.363 . S
C682 C683 1.370 1_655 S
C682 C686 1.524 . S
C683 C675 1.503 . S
C683 C682 1.370 1_455 S
C683 C684 1.403 . S
C684 C683 1.403 . S
C684 C685 1.404 . S
C684 C687 1.539 . S
C685 C681 1.408 1_455 S
C685 C684 1.404 . S
C685 H697 0.930 . S
C686 C682 1.524 . S
C686 H698 0.956 . S
C686 H699 0.961 . S
C686 H700 0.961 . S
C687 C684 1.539 . S
C687 H701 0.958 . S
C687 H702 0.961 . S
C687 H703 0.960 . S
H688 C672 0.931 . S
H689 C677 0.929 . S
H690 C678 0.966 . S
H691 C678 0.939 1_655 S
H692 C678 0.960 . S
H693 C679 0.961 . S
H694 C679 0.961 . S
H695 C679 0.961 . S
H696 C680 0.931 . S
H697 C685 0.930 . S
H698 C686 0.956 . S
H699 C686 0.961 . S
H700 C686 0.961 . S
H701 C687 0.958 . S
H702 C687 0.961 . S
H703 C687 0.960 . S
C704 C705 1.391 . S
C704 C706 1.394 . S
C704 H720 0.931 . S
C705 C704 1.391 . S
C705 C709 1.376 . S
C706 C704 1.394 . S
C706 C707 1.369 . S
C706 C710 1.531 . S
C707 C706 1.369 . S
C707 C708 1.410 1_565 S
C707 C715 1.503 1_565 S
C708 C707 1.410 1_545 S
C708 C709 1.389 1_545 S
C708 C711 1.514 . S
C709 C705 1.376 . S
C709 C708 1.389 1_565 S
C709 H721 0.929 . S
C710 C706 1.531 . S
C710 H722 0.960 . S
C710 H723 0.962 . S
C710 H724 0.960 . S
C711 C708 1.514 . S
C711 H725 0.961 . S
C711 H726 0.961 . S
C711 H727 0.961 . S
C712 C713 1.370 . S
C712 C714 1.363 . S
C712 H728 0.931 . S
C713 C712 1.370 . S
C713 C717 1.408 1_545 S
C714 C712 1.363 . S
C714 C715 1.370 . S
C714 C718 1.524 . S
C715 C707 1.503 1_545 S
C715 C714 1.370 . S
C715 C716 1.403 1_545 S
C716 C715 1.403 1_565 S
C716 C717 1.404 . S
C716 C719 1.539 . S
C717 C713 1.408 1_565 S
C717 C716 1.404 . S
C717 H729 0.930 . S
C718 C714 1.524 . S
C718 H730 0.956 . S
C718 H731 0.961 . S
C718 H732 0.961 . S
C719 C716 1.539 . S
C719 H733 0.958 . S
C719 H734 0.961 . S
C719 H735 0.960 . S
H720 C704 0.931 . S
H721 C709 0.929 . S
H722 C710 0.960 . S
H723 C710 0.962 . S
H724 C710 0.960 . S
H725 C711 0.961 . S
H726 C711 0.961 . S
H727 C711 0.961 . S
H728 C712 0.931 . S
H729 C717 0.930 . S
H730 C718 0.956 . S
H731 C718 0.961 . S
H732 C718 0.961 . S
H733 C719 0.958 . S
H734 C719 0.961 . S
H735 C719 0.960 . S
C736 C737 1.391 . S
C736 C738 1.394 . S
C736 H752 0.931 . S
C737 C736 1.391 . S
C737 C741 1.376 . S
C738 C736 1.394 . S
C738 C739 1.369 . S
C738 C742 1.531 . S
C739 C738 1.369 . S
C739 C740 1.410 . S
C739 C747 1.503 . S
C740 C739 1.410 . S
C740 C741 1.392 . S
C740 C743 1.511 . S
C741 C737 1.376 . S
C741 C740 1.392 . S
C741 H753 0.929 . S
C742 C738 1.531 . S
C742 H754 0.960 . S
C742 H755 0.962 . S
C742 H756 0.960 . S
C743 C740 1.511 . S
C743 H757 0.961 . S
C743 H758 0.961 . S
C743 H759 0.961 . S
C744 C745 1.370 . S
C744 C746 1.363 . S
C744 H760 0.931 . S
C745 C744 1.370 . S
C745 C749 1.408 . S
C746 C744 1.363 . S
C746 C747 1.370 . S
C746 C750 1.524 . S
C747 C739 1.503 . S
C747 C746 1.370 . S
C747 C748 1.403 . S
C748 C747 1.403 . S
C748 C749 1.404 . S
C748 C751 1.539 . S
C749 C745 1.408 . S
C749 C748 1.404 . S
C749 H761 0.930 . S
C750 C746 1.524 . S
C750 H762 0.956 . S
C750 H763 0.961 . S
C750 H764 0.961 . S
C751 C748 1.539 . S
C751 H765 0.958 . S
C751 H766 0.961 . S
C751 H767 0.960 . S
H752 C736 0.931 . S
H753 C741 0.929 . S
H754 C742 0.960 . S
H755 C742 0.962 . S
H756 C742 0.960 . S
H757 C743 0.961 . S
H758 C743 0.961 . S
H759 C743 0.961 . S
H760 C744 0.931 . S
H761 C749 0.930 . S
H762 C750 0.956 . S
H763 C750 0.961 . S
H764 C750 0.961 . S
H765 C751 0.958 . S
H766 C751 0.961 . S
H767 C751 0.960 . S
C768 C769 1.391 . S
C768 C770 1.394 . S
C768 H784 0.931 . S
C769 C768 1.391 . S
C769 C773 1.376 . S
C770 C768 1.394 . S
C770 C771 1.369 1_655 S
C770 C774 1.531 . S
C771 C770 1.369 1_455 S
C771 C772 1.410 . S
C771 C779 1.503 . S
C772 C771 1.410 . S
C772 C773 1.392 1_455 S
C772 C775 1.511 . S
C773 C769 1.376 . S
C773 C772 1.392 1_655 S
C773 H785 0.929 . S
C774 C770 1.531 . S
C774 H786 0.960 1_655 S
C774 H787 0.962 . S
C774 H788 0.960 . S
C775 C772 1.511 . S
C775 H789 0.961 . S
C775 H790 0.961 . S
C775 H791 0.961 . S
C776 C777 1.366 . S
C776 C778 1.364 1_455 S
C776 H792 0.934 1_455 S
C777 C776 1.366 . S
C777 C781 1.408 . S
C778 C776 1.364 1_655 S
C778 C779 1.370 1_655 S
C778 C782 1.524 . S
C779 C771 1.503 . S
C779 C778 1.370 1_455 S
C779 C780 1.403 . S
C780 C779 1.403 . S
C780 C781 1.404 . S
C780 C783 1.539 . S
C781 C777 1.408 . S
C781 C780 1.404 . S
C781 H793 0.930 . S
C782 C778 1.524 . S
C782 H794 0.956 . S
C782 H795 0.961 . S
C782 H796 0.961 . S
C783 C780 1.539 . S
C783 H797 0.958 . S
C783 H798 0.961 . S
C783 H799 0.960 . S
H784 C768 0.931 . S
H785 C773 0.929 . S
H786 C774 0.960 1_455 S
H787 C774 0.962 . S
H788 C774 0.960 . S
H789 C775 0.961 . S
H790 C775 0.961 . S
H791 C775 0.961 . S
H792 C776 0.934 1_655 S
H793 C781 0.930 . S
H794 C782 0.956 . S
H795 C782 0.961 . S
H796 C782 0.961 . S
H797 C783 0.958 . S
H798 C783 0.961 . S
H799 C783 0.960 . S
C800 C801 1.391 1_565 S
C800 C802 1.394 . S
C800 H816 0.931 . S
C801 C800 1.391 1_545 S
C801 C805 1.376 . S
C802 C800 1.394 . S
C802 C803 1.367 1_565 S
C802 C806 1.531 . S
C803 C802 1.367 1_545 S
C803 C804 1.416 . S
C803 C811 1.500 1_545 S
C804 C803 1.416 . S
C804 C805 1.392 . S
C804 C807 1.511 . S
C805 C801 1.376 . S
C805 C804 1.392 . S
C805 H817 0.929 . S
C806 C802 1.531 . S
C806 H818 0.960 . S
C806 H819 0.962 . S
C806 H820 0.960 . S
C807 C804 1.511 . S
C807 H821 0.961 . S
C807 H822 0.961 . S
C807 H823 0.961 . S
C808 C809 1.370 . S
C808 C810 1.363 1_565 S
C808 H824 0.931 1_565 S
C809 C808 1.370 . S
C809 C813 1.408 . S
C810 C808 1.363 1_545 S
C810 C811 1.370 1_545 S
C810 C814 1.524 . S
C811 C803 1.500 1_565 S
C811 C810 1.370 1_565 S
C811 C812 1.403 . S
C812 C811 1.403 . S
C812 C813 1.404 . S
C812 C815 1.539 . S
C813 C809 1.408 . S
C813 C812 1.404 . S
C813 H825 0.930 . S
C814 C810 1.524 . S
C814 H826 0.956 . S
C814 H827 0.961 . S
C814 H828 0.961 . S
C815 C812 1.539 . S
C815 H829 0.958 . S
C815 H830 0.961 . S
C815 H831 0.960 . S
H816 C800 0.931 . S
H817 C805 0.929 . S
H818 C806 0.960 . S
H819 C806 0.962 . S
H820 C806 0.960 . S
H821 C807 0.961 . S
H822 C807 0.961 . S
H823 C807 0.961 . S
H824 C808 0.931 1_545 S
H825 C813 0.930 . S
H826 C814 0.956 . S
H827 C814 0.961 . S
H828 C814 0.961 . S
H829 C815 0.958 . S
H830 C815 0.961 . S
H831 C815 0.960 . S
C832 C833 1.391 . S
C832 C834 1.394 . S
C832 H848 0.931 . S
C833 C832 1.391 . S
C833 C837 1.376 . S
C834 C832 1.394 . S
C834 C835 1.369 . S
C834 C838 1.531 . S
C835 C834 1.369 . S
C835 C836 1.410 . S
C835 C843 1.503 . S
C836 C835 1.410 . S
C836 C837 1.392 . S
C836 C839 1.511 . S
C837 C833 1.376 . S
C837 C836 1.392 . S
C837 H849 0.929 . S
C838 C834 1.531 . S
C838 H850 0.960 . S
C838 H851 0.962 . S
C838 H852 0.960 . S
C839 C836 1.511 . S
C839 H853 0.961 . S
C839 H854 0.961 . S
C839 H855 0.961 . S
C840 C841 1.370 . S
C840 C842 1.363 . S
C840 H856 0.931 . S
C841 C840 1.370 . S
C841 C845 1.408 . S
C842 C840 1.363 . S
C842 C843 1.370 . S
C842 C846 1.524 . S
C843 C835 1.503 . S
C843 C842 1.370 . S
C843 C844 1.403 . S
C844 C843 1.403 . S
C844 C845 1.404 . S
C844 C847 1.539 . S
C845 C841 1.408 . S
C845 C844 1.404 . S
C845 H857 0.930 . S
C846 C842 1.524 . S
C846 H858 0.956 . S
C846 H859 0.961 . S
C846 H860 0.961 . S
C847 C844 1.539 . S
C847 H861 0.958 . S
C847 H862 0.961 . S
C847 H863 0.960 . S
H848 C832 0.931 . S
H849 C837 0.929 . S
H850 C838 0.960 . S
H851 C838 0.962 . S
H852 C838 0.960 . S
H853 C839 0.961 . S
H854 C839 0.961 . S
H855 C839 0.961 . S
H856 C840 0.931 . S
H857 C845 0.930 . S
H858 C846 0.956 . S
H859 C846 0.961 . S
H860 C846 0.961 . S
H861 C847 0.958 . S
H862 C847 0.961 . S
H863 C847 0.960 . S
C864 C865 1.391 . S
C864 C866 1.394 . S
C864 H880 0.931 . S
C865 C864 1.391 . S
C865 C869 1.376 1_556 S
C866 C864 1.394 . S
C866 C867 1.369 . S
C866 C870 1.531 . S
C867 C866 1.369 . S
C867 C868 1.410 1_556 S
C867 C875 1.506 . S
C868 C867 1.410 1_554 S
C868 C869 1.392 . S
C868 C871 1.511 . S
C869 C865 1.376 1_554 S
C869 C868 1.392 . S
C869 H881 0.929 . S
C870 C866 1.531 . S
C870 H882 0.960 . S
C870 H883 0.962 . S
C870 H884 0.960 . S
C871 C868 1.511 . S
C871 H885 0.961 . S
C871 H886 0.961 . S
C871 H887 0.961 . S
C872 C873 1.385 . S
C872 C874 1.356 1_554 S
C872 H888 0.919 1_554 S
C873 C872 1.385 . S
C873 C877 1.408 . S
C874 C872 1.356 1_556 S
C874 C875 1.372 . S
C874 C878 1.524 . S
C875 C867 1.506 . S
C875 C874 1.372 . S
C875 C876 1.399 1_556 S
C876 C875 1.399 1_554 S
C876 C877 1.404 . S
C876 C879 1.539 . S
C877 C873 1.408 . S
C877 C876 1.404 . S
C877 H889 0.930 . S
C878 C874 1.524 . S
C878 H890 0.956 . S
C878 H891 1.011 . S
C878 H892 0.961 . S
C879 C876 1.539 . S
C879 H893 0.901 1_554 S
C879 H894 0.961 . S
C879 H895 0.960 . S
H880 C864 0.931 . S
H881 C869 0.929 . S
H882 C870 0.960 . S
H883 C870 0.962 . S
H884 C870 0.960 . S
H885 C871 0.961 . S
H886 C871 0.961 . S
H887 C871 0.961 . S
H888 C872 0.919 1_556 S
H889 C877 0.930 . S
H890 C878 0.956 . S
H891 C878 1.011 . S
H892 C878 0.961 . S
H893 C879 0.901 1_556 S
H894 C879 0.961 . S
H895 C879 0.960 . S
C896 C897 1.391 . S
C896 C898 1.394 . S
C896 H912 0.931 . S
C897 C896 1.391 . S
C897 C901 1.376 . S
C898 C896 1.394 . S
C898 C899 1.369 . S
C898 C902 1.531 . S
C899 C898 1.369 . S
C899 C900 1.410 . S
C899 C907 1.503 . S
C900 C899 1.410 . S
C900 C901 1.392 . S
C900 C903 1.511 . S
C901 C897 1.376 . S
C901 C900 1.392 . S
C901 H913 0.929 . S
C902 C898 1.531 . S
C902 H914 0.960 . S
C902 H915 0.962 . S
C902 H916 0.960 . S
C903 C900 1.511 . S
C903 H917 0.961 . S
C903 H918 0.961 . S
C903 H919 0.961 . S
C904 C905 1.370 . S
C904 C906 1.363 . S
C904 H920 0.931 . S
C905 C904 1.370 . S
C905 C909 1.408 . S
C906 C904 1.363 . S
C906 C907 1.370 . S
C906 C910 1.524 . S
C907 C899 1.503 . S
C907 C906 1.370 . S
C907 C908 1.403 . S
C908 C907 1.403 . S
C908 C909 1.404 . S
C908 C911 1.539 . S
C909 C905 1.408 . S
C909 C908 1.404 . S
C909 H921 0.930 . S
C910 C906 1.524 . S
C910 H922 0.956 . S
C910 H923 0.961 . S
C910 H924 0.961 . S
C911 C908 1.539 . S
C911 H925 0.958 . S
C911 H926 0.961 . S
C911 H927 0.960 . S
H912 C896 0.931 . S
H913 C901 0.929 . S
H914 C902 0.960 . S
H915 C902 0.962 . S
H916 C902 0.960 . S
H917 C903 0.961 . S
H918 C903 0.961 . S
H919 C903 0.961 . S
H920 C904 0.931 . S
H921 C909 0.930 . S
H922 C910 0.956 . S
H923 C910 0.961 . S
H924 C910 0.961 . S
H925 C911 0.958 . S
H926 C911 0.961 . S
H927 C911 0.960 . S
C928 C929 1.391 . S
C928 C930 1.394 . S
C928 H944 0.931 . S
C929 C928 1.391 . S
C929 C933 1.376 . S
C930 C928 1.394 . S
C930 C931 1.369 . S
C930 C934 1.531 . S
C931 C930 1.369 . S
C931 C932 1.410 . S
C931 C939 1.503 . S
C932 C931 1.410 . S
C932 C933 1.392 . S
C932 C935 1.511 . S
C933 C929 1.376 . S
C933 C932 1.392 . S
C933 H945 0.929 . S
C934 C930 1.531 . S
C934 H946 0.960 . S
C934 H947 0.962 . S
C934 H948 0.960 . S
C935 C932 1.511 . S
C935 H949 0.961 . S
C935 H950 0.961 . S
C935 H951 0.961 . S
C936 C937 1.370 . S
C936 C938 1.363 . S
C936 H952 0.931 . S
C937 C936 1.370 . S
C937 C941 1.408 . S
C938 C936 1.363 . S
C938 C939 1.370 . S
C938 C942 1.524 . S
C939 C931 1.503 . S
C939 C938 1.370 . S
C939 C940 1.403 . S
C940 C939 1.403 . S
C940 C941 1.404 . S
C940 C943 1.539 . S
C941 C937 1.408 . S
C941 C940 1.404 . S
C941 H953 0.930 . S
C942 C938 1.524 . S
C942 H954 0.956 . S
C942 H955 0.961 . S
C942 H956 0.961 . S
C943 C940 1.539 . S
C943 H957 0.958 . S
C943 H958 0.961 . S
C943 H959 0.960 . S
H944 C928 0.931 . S
H945 C933 0.929 . S
H946 C934 0.960 . S
H947 C934 0.962 . S
H948 C934 0.960 . S
H949 C935 0.961 . S
H950 C935 0.961 . S
H951 C935 0.961 . S
H952 C936 0.931 . S
H953 C941 0.930 . S
H954 C942 0.956 . S
H955 C942 0.961 . S
H956 C942 0.961 . S
H957 C943 0.958 . S
H958 C943 0.961 . S
H959 C943 0.960 . S
C960 C961 1.391 . S
C960 C962 1.394 . S
C960 H976 0.931 . S
C961 C960 1.391 . S
C961 C965 1.376 . S
C962 C960 1.394 . S
C962 C963 1.369 . S
C962 C966 1.531 . S
C963 C962 1.369 . S
C963 C964 1.394 1_554 S
C963 C971 1.503 . S
C964 C963 1.394 1_556 S
C964 C965 1.387 1_556 S
C964 C967 1.533 . S
C965 C961 1.376 . S
C965 C964 1.387 1_554 S
C965 H977 0.929 1_554 S
C966 C962 1.531 . S
C966 H978 0.960 . S
C966 H979 0.962 . S
C966 H980 0.960 . S
C967 C964 1.533 . S
C967 H981 0.961 . S
C967 H982 0.961 . S
C967 H983 0.961 . S
C968 C969 1.370 . S
C968 C970 1.363 . S
C968 H984 0.931 . S
C969 C968 1.370 . S
C969 C973 1.408 1_556 S
C970 C968 1.363 . S
C970 C971 1.370 1_556 S
C970 C974 1.524 . S
C971 C963 1.503 . S
C971 C970 1.370 1_554 S
C971 C972 1.403 . S
C972 C971 1.403 . S
C972 C973 1.404 . S
C972 C975 1.539 . S
C973 C969 1.408 1_554 S
C973 C972 1.404 . S
C973 H985 0.930 . S
C974 C970 1.524 . S
C974 H986 0.956 . S
C974 H987 0.961 . S
C974 H988 0.961 . S
C975 C972 1.539 . S
C975 H989 0.958 . S
C975 H990 0.961 . S
C975 H991 0.960 . S
H976 C960 0.931 . S
H977 C965 0.929 1_556 S
H978 C966 0.960 . S
H979 C966 0.962 . S
H980 C966 0.960 . S
H981 C967 0.961 . S
H982 C967 0.961 . S
H983 C967 0.961 . S
H984 C968 0.931 . S
H985 C973 0.930 . S
H986 C974 0.956 . S
H987 C974 0.961 . S
H988 C974 0.961 . S
H989 C975 0.958 . S
H990 C975 0.961 . S
H991 C975 0.960 . S
C992 C993 1.391 . S
C992 C994 1.394 . S
C992 H1008 0.931 . S
C993 C992 1.391 . S
C993 C997 1.376 . S
C994 C992 1.394 . S
C994 C995 1.369 . S
C994 C998 1.531 . S
C995 C994 1.369 . S
C995 C996 1.410 . S
C995 C1003 1.503 . S
C996 C995 1.410 . S
C996 C997 1.392 . S
C996 C999 1.511 . S
C997 C993 1.376 . S
C997 C996 1.392 . S
C997 H1009 0.929 . S
C998 C994 1.531 . S
C998 H1010 0.960 . S
C998 H1011 0.962 . S
C998 H1012 0.960 . S
C999 C996 1.511 . S
C999 H1013 0.961 . S
C999 H1014 0.961 . S
C999 H1015 0.961 . S
C1000 C1001 1.370 . S
C1000 C1002 1.363 . S
C1000 H1016 0.931 . S
C1001 C1000 1.370 . S
C1001 C1005 1.408 . S
C1002 C1000 1.363 . S
C1002 C1003 1.370 . S
C1002 C1006 1.524 . S
C1003 C995 1.503 . S
C1003 C1002 1.370 . S
C1003 C1004 1.403 . S
C1004 C1003 1.403 . S
C1004 C1005 1.404 . S
C1004 C1007 1.539 . S
C1005 C1001 1.408 . S
C1005 C1004 1.404 . S
C1005 H1017 0.930 . S
C1006 C1002 1.524 . S
C1006 H1018 0.956 . S
C1006 H1019 0.961 . S
C1006 H1020 0.961 . S
C1007 C1004 1.539 . S
C1007 H1021 0.958 . S
C1007 H1022 0.961 . S
C1007 H1023 0.960 . S
H1008 C992 0.931 . S
H1009 C997 0.929 . S
H1010 C998 0.960 . S
H1011 C998 0.962 . S
H1012 C998 0.960 . S
H1013 C999 0.961 . S
H1014 C999 0.961 . S
H1015 C999 0.961 . S
H1016 C1000 0.931 . S
H1017 C1005 0.930 . S
H1018 C1006 0.956 . S
H1019 C1006 0.961 . S
H1020 C1006 0.961 . S
H1021 C1007 0.958 . S
H1022 C1007 0.961 . S
H1023 C1007 0.960 . S
C1024 C1025 1.391 . S
C1024 C1026 1.394 . S
C1024 H1040 0.931 . S
C1025 C1024 1.391 . S
C1025 C1029 1.376 . S
C1026 C1024 1.394 . S
C1026 C1027 1.369 . S
C1026 C1030 1.531 . S
C1027 C1026 1.369 . S
C1027 C1028 1.410 . S
C1027 C1035 1.503 . S
C1028 C1027 1.410 . S
C1028 C1029 1.392 . S
C1028 C1031 1.511 . S
C1029 C1025 1.376 . S
C1029 C1028 1.392 . S
C1029 H1041 0.929 . S
C1030 C1026 1.531 . S
C1030 H1042 0.960 . S
C1030 H1043 0.962 . S
C1030 H1044 0.960 . S
C1031 C1028 1.511 . S
C1031 H1045 0.961 . S
C1031 H1046 0.961 . S
C1031 H1047 0.961 . S
C1032 C1033 1.370 . S
C1032 C1034 1.363 . S
C1032 H1048 0.931 . S
C1033 C1032 1.370 . S
C1033 C1037 1.408 . S
C1034 C1032 1.363 . S
C1034 C1035 1.370 . S
C1034 C1038 1.524 . S
C1035 C1027 1.503 . S
C1035 C1034 1.370 . S
C1035 C1036 1.403 . S
C1036 C1035 1.403 . S
C1036 C1037 1.404 . S
C1036 C1039 1.539 . S
C1037 C1033 1.408 . S
C1037 C1036 1.404 . S
C1037 H1049 0.930 . S
C1038 C1034 1.524 . S
C1038 H1050 0.956 . S
C1038 H1051 0.961 . S
C1038 H1052 0.961 . S
C1039 C1036 1.539 . S
C1039 H1053 0.958 . S
C1039 H1054 0.961 . S
C1039 H1055 0.960 . S
H1040 C1024 0.931 . S
H1041 C1029 0.929 . S
H1042 C1030 0.960 . S
H1043 C1030 0.962 . S
H1044 C1030 0.960 . S
H1045 C1031 0.961 . S
H1046 C1031 0.961 . S
H1047 C1031 0.961 . S
H1048 C1032 0.931 . S
H1049 C1037 0.930 . S
H1050 C1038 0.956 . S
H1051 C1038 0.961 . S
H1052 C1038 0.961 . S
H1053 C1039 0.958 . S
H1054 C1039 0.961 . S
H1055 C1039 0.960 . S
C481 C141 2.228 . S
C489 C21 2.215 . S
C513 C61 2.195 . S
C521 C181 2.190 . S
C545 C202 2.315 . S
C553 C101 2.179 . S
C577 C261 2.227 . S
C585 C381 2.195 . S
C609 C421 2.181 . S
C617 C301 2.214 . S
C641 C322 2.329 . S
C649 C461 2.168 . S
C673 C442 2.186 . S
C681 C2 2.150 . S
C705 C42 2.211 . S
C713 C242 2.181 . S
C737 C82 2.190 . S
C745 C282 2.152 . S
C769 C341 2.331 . S
C777 C122 2.205 . S
C801 C162 2.167 . S
C809 C362 2.202 . S
C833 C402 2.191 . S
C841 C221 2.350 . S
C865 C415 2.139 . S
C873 C15 2.128 . S
C897 C455 2.131 . S
C905 C55 2.112 . S
C929 C95 2.100 . S
C937 C255 2.110 . S
C961 C135 2.116 . S
C969 C295 2.136 . S
C993 C175 2.137 . S
C1001 C335 2.154 . S
C1025 C215 2.165 . S
C1033 C375 2.129 . S
