# Generated by pormake.
# Topology vmi, (6)-cn, num edge types: 1
# Building blocks:
#     Node 0, Type 0, BuildingBlock: IZENUY_clean_sbu_0, # of connection points: 6
#     Node 1, Type 0, BuildingBlock: IZENUY_clean_sbu_0, # of connection points: 6
#     Node 2, Type 0, BuildingBlock: IZENUY_clean_sbu_0, # of connection points: 6
#     Node 3, Type 0, BuildingBlock: IZENUY_clean_sbu_0, # of connection points: 6
#     Node 4, Type 0, BuildingBlock: IZENUY_clean_sbu_0, # of connection points: 6
#     Node 5, Type 0, BuildingBlock: IZENUY_clean_sbu_0, # of connection points: 6
#     Node 6, Type 0, BuildingBlock: IZENUY_clean_sbu_0, # of connection points: 6
#     Node 7, Type 0, BuildingBlock: IZENUY_clean_sbu_0, # of connection points: 6
#     Edge 8, Type (0, 0), BuildingBlock: XUDNAN_clean_linker_2, # of connection points: 2
#     Edge 9, Type (0, 0), BuildingBlock: XUDNAN_clean_linker_2, # of connection points: 2
#     Edge 10, Type (0, 0), BuildingBlock: XUDNAN_clean_linker_2, # of connection points: 2
#     Edge 11, Type (0, 0), BuildingBlock: XUDNAN_clean_linker_2, # of connection points: 2
#     Edge 12, Type (0, 0), BuildingBlock: XUDNAN_clean_linker_2, # of connection points: 2
#     Edge 13, Type (0, 0), BuildingBlock: XUDNAN_clean_linker_2, # of connection points: 2
#     Edge 14, Type (0, 0), BuildingBlock: XUDNAN_clean_linker_2, # of connection points: 2
#     Edge 15, Type (0, 0), BuildingBlock: XUDNAN_clean_linker_2, # of connection points: 2
#     Edge 16, Type (0, 0), BuildingBlock: XUDNAN_clean_linker_2, # of connection points: 2
#     Edge 17, Type (0, 0), BuildingBlock: XUDNAN_clean_linker_2, # of connection points: 2
#     Edge 18, Type (0, 0), BuildingBlock: XUDNAN_clean_linker_2, # of connection points: 2
#     Edge 19, Type (0, 0), BuildingBlock: XUDNAN_clean_linker_2, # of connection points: 2
#     Edge 20, Type (0, 0), BuildingBlock: XUDNAN_clean_linker_2, # of connection points: 2
#     Edge 21, Type (0, 0), BuildingBlock: XUDNAN_clean_linker_2, # of connection points: 2
#     Edge 22, Type (0, 0), BuildingBlock: XUDNAN_clean_linker_2, # of connection points: 2
#     Edge 23, Type (0, 0), BuildingBlock: XUDNAN_clean_linker_2, # of connection points: 2
#     Edge 24, Type (0, 0), BuildingBlock: XUDNAN_clean_linker_2, # of connection points: 2
#     Edge 25, Type (0, 0), BuildingBlock: XUDNAN_clean_linker_2, # of connection points: 2
#     Edge 26, Type (0, 0), BuildingBlock: XUDNAN_clean_linker_2, # of connection points: 2
#     Edge 27, Type (0, 0), BuildingBlock: XUDNAN_clean_linker_2, # of connection points: 2
#     Edge 28, Type (0, 0), BuildingBlock: XUDNAN_clean_linker_2, # of connection points: 2
#     Edge 29, Type (0, 0), BuildingBlock: XUDNAN_clean_linker_2, # of connection points: 2
#     Edge 30, Type (0, 0), BuildingBlock: XUDNAN_clean_linker_2, # of connection points: 2
#     Edge 31, Type (0, 0), BuildingBlock: XUDNAN_clean_linker_2, # of connection points: 2
# Relax obj value: 0.332
# Max RMSD: 0.290
# Mean RMSD: 0.290
data_MOF--net-vmi--node1-IZENUY_clean_sbu_0--edge1-XUDNAN_clean_linker_2
_symmetry_space_group_name_H-M    P1
_symmetry_Int_Tables_number       1
_symmetry_cell_setting            triclinic
loop_
_symmetry_equiv_pos_as_xyz
'x, y, z'
_cell_length_a     27.301307
_cell_length_b     44.683149
_cell_length_c     29.563261
_cell_angle_alpha  89.953857
_cell_angle_beta   110.20815
_cell_angle_gamma 90.035655
loop_
_atom_site_label
_atom_site_type_symbol
_atom_site_fract_x
_atom_site_fract_y
_atom_site_fract_z
_atom_type_partial_charge
Fe0 Fe 0.18092 0.05389 0.24517 0.0
Fe1 Fe 0.14663 0.11155 0.18611 0.0
O2 O 0.19655 0.08963 0.22791 0.0
Fe3 Fe 0.26156 0.10284 0.25178 0.0
O4 O 0.28815 0.07022 0.23207 0.0
O5 O 0.24506 0.03677 0.25724 0.0
O6 O 0.16286 0.04068 0.18357 0.0
C7 C 0.12785 0.0529 0.14853 0.0
C8 C 0.2413 0.07702 0.33223 0.0
O9 O 0.11137 0.07896 0.15249 0.0
C10 C 0.21119 0.15602 0.24882 0.0
O11 O 0.11363 0.06328 0.23669 0.0
O12 O 0.10671 0.11181 0.22491 0.0
O13 O 0.27284 0.08696 0.31247 0.0
O14 O 0.19801 0.06564 0.30725 0.0
C15 C 0.22788 0.11836 0.152 0.0
O16 O 0.17458 0.14858 0.21052 0.0
O17 O 0.24167 0.13652 0.27398 0.0
C18 C 0.08942 0.08747 0.23558 0.0
O19 O 0.18088 0.11177 0.14404 0.0
O20 O 0.26025 0.12087 0.19477 0.0
C21 C 0.28202 0.04364 0.24297 0.0
Fe22 Fe 0.36155 0.11986 0.80576 0.0
Fe23 Fe 0.24872 0.10516 0.74612 0.0
O24 O 0.31473 0.09343 0.77279 0.0
Fe25 Fe 0.33193 0.05589 0.76612 0.0
O26 O 0.37957 0.05249 0.82824 0.0
O27 O 0.37997 0.09748 0.85906 0.0
O28 O 0.31558 0.13834 0.82991 0.0
C29 C 0.27652 0.12701 0.83777 0.0
C30 C 0.41961 0.08438 0.761 0.0
O31 O 0.24467 0.11036 0.80625 0.0
C32 C 0.26881 0.07614 0.67314 0.0
O33 O 0.34614 0.14497 0.75436 0.0
O34 O 0.26293 0.14511 0.74207 0.0
O35 O 0.38259 0.06638 0.74275 0.0
O36 O 0.41605 0.10492 0.78924 0.0
C37 C 0.23488 0.04555 0.77024 0.0
O38 O 0.25332 0.10007 0.68692 0.0
O39 O 0.28784 0.05454 0.70227 0.0
C40 C 0.30275 0.1582 0.73913 0.0
O41 O 0.21907 0.06807 0.74351 0.0
O42 O 0.2831 0.04098 0.78948 0.0
C43 C 0.3923 0.0703 0.86399 0.0
Fe44 Fe 0.83158 0.96812 0.75227 0.0
Fe45 Fe 0.74713 0.92025 0.73761 0.0
O46 O 0.81174 0.93295 0.76779 0.0
Fe47 Fe 0.85524 0.91051 0.81305 0.0
O48 O 0.86479 0.9397 0.8568 0.0
O49 O 0.87689 0.97709 0.81373 0.0
O50 O 0.78033 0.98745 0.76715 0.0
C51 C 0.73232 0.98194 0.74721 0.0
C52 C 0.92111 0.93675 0.76573 0.0
O53 O 0.71804 0.95784 0.72386 0.0
C54 C 0.80447 0.86581 0.75385 0.0
O55 O 0.79134 0.96427 0.68773 0.0
O56 O 0.76024 0.91835 0.68197 0.0
O57 O 0.91425 0.92184 0.79972 0.0
O58 O 0.88413 0.95156 0.73688 0.0
C59 C 0.76035 0.90793 0.8312 0.0
O60 O 0.76249 0.88022 0.74566 0.0
O61 O 0.84776 0.87892 0.77251 0.0
C62 C 0.77734 0.93999 0.66431 0.0
O63 O 0.73312 0.92138 0.79314 0.0
O64 O 0.80431 0.89658 0.83526 0.0
C65 C 0.88381 0.96492 0.85424 0.0
Fe66 Fe 0.75645 0.92125 0.23826 0.0
Fe67 Fe 0.63538 0.9185 0.19264 0.0
O68 O 0.69358 0.9366 0.2293 0.0
Fe69 Fe 0.68787 0.9714 0.25618 0.0
O70 O 0.75123 0.98666 0.26107 0.0
O71 O 0.78059 0.95573 0.21985 0.0
O72 O 0.74009 0.90899 0.17492 0.0
C73 C 0.69909 0.91218 0.13802 0.0
C74 C 0.75768 0.94135 0.33102 0.0
O75 O 0.65597 0.91915 0.14154 0.0
C76 C 0.59861 0.94046 0.25977 0.0
O77 O 0.74069 0.88467 0.25672 0.0
O78 O 0.6599 0.88031 0.20719 0.0
O79 O 0.71495 0.95536 0.31504 0.0
O80 O 0.78095 0.93123 0.30336 0.0
C81 C 0.61992 0.97898 0.16494 0.0
O82 O 0.60858 0.91678 0.24134 0.0
O83 O 0.62329 0.96411 0.25846 0.0
C84 C 0.70174 0.86865 0.23478 0.0
O85 O 0.60121 0.95356 0.16902 0.0
O86 O 0.66042 0.9888 0.19732 0.0
C87 C 0.781 0.9812 0.23798 0.0
Fe88 Fe 0.65634 0.61176 0.69103 0.0
Fe89 Fe 0.7712 0.60172 0.75059 0.0
O90 O 0.70584 0.58895 0.73076 0.0
Fe91 Fe 0.69079 0.55386 0.75092 0.0
O92 O 0.63967 0.54482 0.69324 0.0
O93 O 0.6389 0.58286 0.64532 0.0
O94 O 0.69896 0.62725 0.66083 0.0
C95 C 0.73934 0.61646 0.65511 0.0
C96 C 0.60419 0.58522 0.74985 0.0
O97 O 0.77188 0.60138 0.6886 0.0
C98 C 0.75969 0.58161 0.83426 0.0
O99 O 0.67084 0.64292 0.73405 0.0
O100 O 0.7548 0.64129 0.74648 0.0
O101 O 0.64354 0.57032 0.77443 0.0
O102 O 0.60414 0.59941 0.71282 0.0
C103 C 0.78465 0.53929 0.74304 0.0
O104 O 0.77181 0.60306 0.8122 0.0
O105 O 0.7392 0.55784 0.81226 0.0
C106 C 0.71574 0.6547 0.75018 0.0
O107 O 0.80137 0.56469 0.75998 0.0
O108 O 0.73648 0.53371 0.72915 0.0
C109 C 0.62646 0.55635 0.65146 0.0
Fe110 Fe 0.8791 0.61528 0.30662 0.0
Fe111 Fe 0.76239 0.60366 0.25075 0.0
O112 O 0.82779 0.59106 0.27238 0.0
Fe113 Fe 0.84333 0.55382 0.26096 0.0
O114 O 0.86794 0.5456 0.32572 0.0
O115 O 0.91907 0.58495 0.34155 0.0
O116 O 0.85085 0.61792 0.35347 0.0
C117 C 0.8039 0.62352 0.34816 0.0
C118 C 0.92609 0.58765 0.25052 0.0
O119 O 0.76848 0.62424 0.30667 0.0
C120 C 0.77739 0.57314 0.17209 0.0
O121 O 0.84774 0.65093 0.28008 0.0
O122 O 0.7782 0.63609 0.22195 0.0
O123 O 0.90783 0.56361 0.26088 0.0
O124 O 0.91162 0.61283 0.26163 0.0
C125 C 0.74526 0.54523 0.27122 0.0
O126 O 0.74757 0.58493 0.19205 0.0
O127 O 0.81989 0.56067 0.19653 0.0
C128 C 0.80843 0.65677 0.24328 0.0
O129 O 0.73861 0.5726 0.27685 0.0
O130 O 0.78161 0.5365 0.25752 0.0
C131 C 0.90351 0.56115 0.3553 0.0
Fe132 Fe 0.33501 0.47248 0.25799 0.0
Fe133 Fe 0.26032 0.41896 0.25017 0.0
O134 O 0.32293 0.436 0.27634 0.0
Fe135 Fe 0.37466 0.41747 0.32179 0.0
O136 O 0.40305 0.4519 0.35337 0.0
O137 O 0.34696 0.48742 0.31824 0.0
O138 O 0.26891 0.48665 0.24072 0.0
C139 C 0.23038 0.4783 0.25125 0.0
C140 C 0.43041 0.44301 0.27149 0.0
O141 O 0.2256 0.45141 0.26163 0.0
C142 C 0.32032 0.36786 0.26497 0.0
O143 O 0.32377 0.45936 0.19765 0.0
O144 O 0.25364 0.43132 0.18886 0.0
O145 O 0.41734 0.41846 0.28551 0.0
O146 O 0.40407 0.4663 0.27061 0.0
C147 C 0.29023 0.40675 0.35106 0.0
O148 O 0.28577 0.38389 0.2358 0.0
O149 O 0.35493 0.37952 0.3007 0.0
C150 C 0.28579 0.44368 0.17209 0.0
O151 O 0.25937 0.40405 0.3078 0.0
O152 O 0.33684 0.41541 0.36115 0.0
C153 C 0.38144 0.47667 0.35509 0.0
Fe154 Fe 0.26357 0.42498 0.74752 0.0
Fe155 Fe 0.14496 0.41534 0.69669 0.0
O156 O 0.1984 0.4374 0.7331 0.0
Fe157 Fe 0.18607 0.47249 0.7551 0.0
O158 O 0.24854 0.49016 0.75995 0.0
O159 O 0.28367 0.45862 0.72398 0.0
O160 O 0.25278 0.40802 0.68771 0.0
C161 C 0.21398 0.40863 0.64856 0.0
C162 C 0.25706 0.44778 0.83509 0.0
O163 O 0.16908 0.4156 0.64764 0.0
C164 C 0.1003 0.43743 0.75833 0.0
O165 O 0.25026 0.39056 0.77247 0.0
O166 O 0.17602 0.37848 0.71713 0.0
O167 O 0.21264 0.45948 0.81617 0.0
O168 O 0.28419 0.43935 0.81 0.0
C169 C 0.1195 0.47465 0.66256 0.0
O170 O 0.11502 0.41386 0.74313 0.0
O171 O 0.12161 0.46223 0.75591 0.0
C172 C 0.21782 0.37102 0.75048 0.0
O173 O 0.10568 0.44807 0.66769 0.0
O174 O 0.15823 0.48675 0.69423 0.0
C175 C 0.28151 0.48444 0.73998 0.0
H176 H 0.57203 0.98786 0.30292 0.0
H177 H 0.51121 0.90362 0.23322 0.0
H178 H 0.42224 0.91903 0.22841 0.0
H179 H 0.47748 1.00143 0.36598 0.0
H180 H 0.47544 0.04083 0.3523 0.0
H181 H 0.53431 0.01977 0.36117 0.0
H182 H 0.53389 0.03754 0.27756 0.0
H183 H 0.4744 0.05794 0.26769 0.0
H184 H 0.47763 0.03005 0.22478 0.0
H185 H 0.33798 0.94722 0.22283 0.0
H186 H 0.26868 0.98477 0.21601 0.0
H187 H 0.38694 0.052 0.27899 0.0
C188 C 0.54042 0.97206 0.28811 0.0
C189 C 0.54874 0.94442 0.26867 0.0
C190 C 0.50602 0.92469 0.24905 0.0
C191 C 0.45528 0.93341 0.24587 0.0
C192 C 0.44817 0.96187 0.26229 0.0
C193 C 0.48992 0.98077 0.28327 0.0
C194 C 0.47235 1.01167 0.29188 0.0
C195 C 0.49099 0.01883 0.34605 0.0
C196 C 0.49065 0.03569 0.2638 0.0
C197 C 0.41395 1.00762 0.27154 0.0
C198 C 0.40046 0.97862 0.25566 0.0
C199 C 0.34832 0.9699 0.2353 0.0
C200 C 0.30929 0.99133 0.23137 0.0
C201 C 0.32276 0.02124 0.24632 0.0
C202 C 0.3757 0.02937 0.26658 0.0
H203 H 0.9503 0.97681 0.70956 0.0
H204 H 0.01446 0.9136 0.82671 0.0
H205 H 0.10331 0.93227 0.83791 0.0
H206 H 0.05857 0.97585 0.66212 0.0
H207 H 0.05283 0.01546 0.64982 0.0
H208 H 0.99597 0.99399 0.64702 0.0
H209 H 0.97884 0.03017 0.70837 0.0
H210 H 0.03596 0.0515 0.71195 0.0
H211 H 0.02931 0.0362 0.76597 0.0
H212 H 0.18539 0.96159 0.84036 0.0
H213 H 0.25117 0.99782 0.83316 0.0
H214 H 0.1306 0.04276 0.71715 0.0
C215 C 0.98298 0.96615 0.73673 0.0
C216 C 0.97509 0.94338 0.76686 0.0
C217 C 0.01928 0.93075 0.80267 0.0
C218 C 0.06998 0.94133 0.80945 0.0
C219 C 0.07597 0.96462 0.78022 0.0
C220 C 0.03349 0.9767 0.74438 0.0
C221 C 0.04924 1.0031 0.7203 0.0
C222 C 0.03853 0.99671 0.66663 0.0
C223 C 0.02171 0.03194 0.72708 0.0
C224 C 0.1072 1.00433 0.74845 0.0
C225 C 0.12222 0.98184 0.78259 0.0
C226 C 0.17395 0.97912 0.81346 0.0
C227 C 0.21108 0.99983 0.80917 0.0
C228 C 0.19623 0.02321 0.77464 0.0
C229 C 0.14347 0.02524 0.74401 0.0
H230 H 0.6256 0.97658 0.70852 0.0
H231 H 0.74792 0.03725 0.7912 0.0
H232 H 0.68089 0.07263 0.79751 0.0
H233 H 0.532 0.03366 0.64254 0.0
H234 H 0.47668 1.01272 0.6454 0.0
H235 H 0.53421 0.99334 0.64451 0.0
H236 H 0.54086 0.96588 0.7237 0.0
H237 H 0.48329 0.98503 0.72467 0.0
H238 H 0.54293 0.98748 0.77581 0.0
H239 H 0.59936 0.09999 0.79926 0.0
H240 H 0.51206 0.11572 0.79815 0.0
H241 H 0.44402 0.03724 0.71312 0.0
C242 C 0.63848 0.99748 0.7274 0.0
C243 C 0.69227 1.00413 0.74908 0.0
C244 C 0.70708 0.03163 0.77401 0.0
C245 C 0.66922 0.05192 0.77772 0.0
C246 C 0.61656 0.04454 0.75616 0.0
C247 C 0.60128 0.01795 0.73142 0.0
C248 C 0.54245 0.01447 0.71359 0.0
C249 C 0.52002 0.0135 0.65822 0.0
C250 C 0.52647 0.98657 0.73578 0.0
C251 C 0.52689 0.04302 0.73273 0.0
C252 C 0.57005 0.06022 0.75696 0.0
C253 C 0.5653 0.08681 0.77988 0.0
C254 C 0.51543 0.09565 0.77893 0.0
C255 C 0.47078 0.07794 0.75527 0.0
C256 C 0.47695 0.05163 0.73103 0.0
H257 H 0.84794 0.98099 0.18596 0.0
H258 H 0.80172 0.03416 0.28734 0.0
H259 H 0.86827 0.07181 0.28934 0.0
H260 H 0.98174 0.99253 0.23886 0.0
H261 H 0.99438 0.99474 0.183 0.0
H262 H 0.93937 0.97371 0.18582 0.0
H263 H 0.87806 1.00513 0.11516 0.0
H264 H 0.93307 0.02652 0.11261 0.0
H265 H 0.87799 0.04535 0.12007 0.0
H266 H 0.94771 0.10106 0.28794 0.0
H267 H 0.03298 0.11759 0.28334 0.0
H268 H 0.02299 0.0472 0.17981 0.0
C269 C 0.85128 1.00075 0.20802 0.0
C270 C 0.81946 1.00446 0.23646 0.0
C271 C 0.82542 0.03068 0.26504 0.0
C272 C 0.86308 0.05237 0.26634 0.0
C273 C 0.89419 0.04792 0.2383 0.0
C274 C 0.88835 0.02284 0.20934 0.0
C275 C 0.92878 0.02242 0.18496 0.0
C276 C 0.96309 0.99419 0.19904 0.0
C277 C 0.90291 0.02502 0.12994 0.0
C278 C 0.95933 0.05045 0.20617 0.0
C279 C 0.9387 0.06517 0.23649 0.0
C280 C 0.96363 0.0901 0.26346 0.0
C281 C 0.01177 0.09954 0.26048 0.0
C282 C 0.03411 0.08389 0.23094 0.0
C283 C 1.00639 0.05983 0.2023 0.0
H284 H 0.07202 0.47734 0.81308 0.0
H285 H 0.01209 0.40336 0.71494 0.0
H286 H 0.92181 0.41789 0.70691 0.0
H287 H 0.96697 0.47896 0.86894 0.0
H288 H 0.96872 0.51928 0.87047 0.0
H289 H 0.02728 0.49842 0.87709 0.0
H290 H 0.03809 0.52823 0.8059 0.0
H291 H 0.97908 0.54861 0.79812 0.0
H292 H 0.98599 0.528 0.74828 0.0
H293 H 0.83717 0.44668 0.69914 0.0
H294 H 0.76943 0.48459 0.6959 0.0
H295 H 0.88811 0.54009 0.79625 0.0
C296 C 0.04001 0.46335 0.79162 0.0
C297 C 0.04909 0.43901 0.76515 0.0
C298 C 1.00615 0.42168 0.73644 0.0
C299 C 0.95467 0.42999 0.73134 0.0
C300 C 0.947 0.45545 0.75556 0.0
C301 C 0.98885 0.4715 0.78585 0.0
C302 C 0.97131 0.49995 0.80331 0.0
C303 C 0.98433 0.49909 0.85821 0.0
C304 C 0.99501 0.52781 0.78796 0.0
C305 C 0.91317 0.49812 0.77688 0.0
C306 C 0.89937 0.47218 0.75004 0.0
C307 C 0.84766 0.46681 0.72068 0.0
C308 C 0.80944 0.48848 0.71889 0.0
C309 C 0.82337 0.51539 0.74562 0.0
C310 C 0.87594 0.51986 0.77519 0.0
H311 H 0.64082 0.55408 0.24356 0.0
H312 H 0.76043 0.48707 0.30326 0.0
H313 H 0.69242 0.45045 0.3048 0.0
H314 H 0.55757 0.53442 0.30814 0.0
H315 H 0.49869 0.5415 0.25777 0.0
H316 H 0.55753 0.56151 0.26288 0.0
H317 H 0.55022 0.54316 0.17744 0.0
H318 H 0.49177 0.52266 0.17252 0.0
H319 H 0.5465 0.50359 0.1648 0.0
H320 H 0.60844 0.42249 0.30476 0.0
H321 H 0.5195 0.40694 0.30104 0.0
H322 H 0.45829 0.49122 0.23146 0.0
C323 C 0.65276 0.53176 0.25732 0.0
C324 C 0.70572 0.52345 0.27401 0.0
C325 C 0.71984 0.49385 0.29064 0.0
C326 C 0.68153 0.47293 0.2915 0.0
C327 C 0.6293 0.48183 0.27437 0.0
C328 C 0.61516 0.51053 0.25708 0.0
C329 C 0.55687 0.51479 0.23981 0.0
C330 C 0.54181 0.5395 0.2689 0.0
C331 C 0.53508 0.52143 0.18542 0.0
C332 C 0.54018 0.48427 0.2509 0.0
C333 C 0.58207 0.46541 0.27117 0.0
C334 C 0.57531 0.43696 0.28811 0.0
C335 C 0.52468 0.42816 0.28557 0.0
C336 C 0.48181 0.44777 0.2659 0.0
C337 C 0.48999 0.47554 0.24669 0.0
H338 H 0.9448 0.54194 0.20002 0.0
H339 H 0.01536 0.62271 0.27576 0.0
H340 H 0.10195 0.60508 0.27674 0.0
H341 H 0.03501 0.49556 0.27198 0.0
H342 H 0.03516 0.46864 0.22664 0.0
H343 H 0.97786 0.49074 0.2189 0.0
H344 H 0.97852 0.51057 0.13678 0.0
H345 H 0.03493 0.4877 0.14328 0.0
H346 H 0.03703 0.52737 0.133 0.0
H347 H 0.18209 0.57464 0.27975 0.0
H348 H 0.24756 0.53556 0.2834 0.0
H349 H 0.12359 0.47233 0.21537 0.0
C350 C 0.97816 0.55659 0.21497 0.0
C351 C 0.97334 0.58388 0.23735 0.0
C352 C 0.01794 0.60211 0.25744 0.0
C353 C 0.06732 0.59203 0.25858 0.0
C354 C 0.07108 0.56377 0.23959 0.0
C355 C 0.02738 0.54647 0.21771 0.0
C356 C 0.04169 0.5153 0.20632 0.0
C357 C 0.02121 0.49116 0.23254 0.0
C358 C 0.02188 0.50993 0.15159 0.0
C359 C 0.10053 0.51723 0.22649 0.0
C360 C 0.11682 0.54556 0.24447 0.0
C361 C 0.16959 0.55253 0.26546 0.0
C362 C 0.20644 0.53016 0.26759 0.0
C363 C 0.19046 0.50092 0.2501 0.0
C364 C 0.13679 0.4944 0.22953 0.0
H365 H 0.53353 0.54718 0.69249 0.0
H366 H 0.56182 0.6042 0.81706 0.0
H367 H 0.47748 0.58767 0.82383 0.0
H368 H 0.392 0.55402 0.64116 0.0
H369 H 0.38322 0.51514 0.62396 0.0
H370 H 0.44224 0.53432 0.6267 0.0
H371 H 0.49655 0.49351 0.68556 0.0
H372 H 0.43736 0.47472 0.68287 0.0
H373 H 0.48373 0.48594 0.74029 0.0
H374 H 0.39023 0.56373 0.81681 0.0
H375 H 0.31339 0.53115 0.80319 0.0
H376 H 0.3469 0.48652 0.68685 0.0
C377 C 0.52155 0.55638 0.72079 0.0
C378 C 0.55339 0.57723 0.75382 0.0
C379 C 0.53737 0.58849 0.79112 0.0
C380 C 0.48963 0.57923 0.79507 0.0
C381 C 0.45914 0.55837 0.76189 0.0
C382 C 0.47493 0.54683 0.72582 0.0
C383 C 0.4377 0.52286 0.69722 0.0
C384 C 0.41228 0.53215 0.64412 0.0
C385 C 0.4655 0.49247 0.70179 0.0
C386 C 0.39828 0.52256 0.72281 0.0
C387 C 0.41081 0.54354 0.75946 0.0
C388 C 0.38019 0.54725 0.78824 0.0
C389 C 0.33641 0.52869 0.78004 0.0
C390 C 0.324 0.50622 0.74392 0.0
C391 C 0.35525 0.50346 0.71469 0.0
H392 H 0.05378 0.07289 0.06528 0.0
H393 H 0.14026 0.99347 0.13277 0.0
H394 H 0.09044 0.96373 0.06155 0.0
H395 H 0.93196 0.03844 0.01458 0.0
H396 H 0.91181 0.05969 0.95932 0.0
H397 H 0.95729 0.0756 0.01351 0.0
H398 H 0.0237 0.08472 0.97005 0.0
H399 H 0.97846 0.06894 0.91547 0.0
H400 H 0.04352 0.0539 0.94103 0.0
H401 H 0.02726 0.94198 0.98846 0.0
H402 H 0.95553 0.9288 0.91443 0.0
H403 H 0.90983 0.02221 0.8912 0.0
C404 C 0.0627 0.0493 0.06489 0.0
C405 C 0.10078 0.03543 0.1047 0.0
C406 C 0.1113 1.00455 0.10275 0.0
C407 C 0.08328 0.9875 0.06244 0.0
C408 C 0.04542 1.00177 0.0243 0.0
C409 C 0.03532 0.03197 0.02483 0.0
C410 C 0.99097 0.04142 0.97979 0.0
C411 C 0.94531 0.05455 0.99258 0.0
C412 C 0.01033 0.06355 0.9498 0.0
C413 C 0.97664 1.01153 0.95449 0.0
C414 C 0.00894 0.98911 0.98097 0.0
C415 C 1.00208 0.95932 0.96712 0.0
C416 C 0.96091 0.95209 0.92522 0.0
C417 C 0.927 0.97453 0.89741 0.0
C418 C 0.93544 1.00474 0.91173 0.0
H419 H 0.55815 0.96043 0.07586 0.0
H420 H 0.61634 0.04012 0.16156 0.0
H421 H 0.56349 0.07156 0.09329 0.0
H422 H 0.55883 0.99208 0.96269 0.0
H423 H 0.50056 0.97252 0.92696 0.0
H424 H 0.54307 0.95634 0.98248 0.0
H425 H 0.46519 0.95233 0.01324 0.0
H426 H 0.4225 0.96873 0.95802 0.0
H427 H 0.42813 0.9854 0.01511 0.0
H428 H 0.5015 0.09366 0.01925 0.0
H429 H 0.44004 0.1069 0.93979 0.0
H430 H 0.42432 0.01297 0.89842 0.0
C431 C 0.55968 0.98453 0.08017 0.0
C432 C 0.59076 0.998 0.12395 0.0
C433 C 0.59269 0.0295 0.12823 0.0
C434 C 0.56274 0.04745 0.0898 0.0
C435 C 0.53198 0.03344 0.04735 0.0
C436 C 0.53077 1.00276 0.04193 0.0
C437 C 0.49519 0.99352 0.99201 0.0
C438 C 0.52627 0.97768 0.9644 0.0
C439 C 0.45008 0.97383 0.99479 0.0
C440 C 0.47579 0.02388 0.97042 0.0
C441 C 0.49743 0.04644 0.00332 0.0
C442 C 0.48468 0.07629 0.99297 0.0
C443 C 0.44936 0.08347 0.94754 0.0
C444 C 0.42726 0.06095 0.91244 0.0
C445 C 0.44066 0.03068 0.92423 0.0
H446 H 0.59627 0.5697 0.5545 0.0
H447 H 0.56813 0.50765 0.65609 0.0
H448 H 0.49228 0.48731 0.59136 0.0
H449 H 0.46287 0.58332 0.4792 0.0
H450 H 0.47559 0.5823 0.42331 0.0
H451 H 0.52601 0.59417 0.47796 0.0
H452 H 0.58863 0.55359 0.46671 0.0
H453 H 0.53894 0.54223 0.41141 0.0
H454 H 0.5674 0.51513 0.45836 0.0
H455 H 0.41907 0.47503 0.51842 0.0
H456 H 0.36498 0.46045 0.43561 0.0
H457 H 0.44415 0.52635 0.37806 0.0
C458 C 0.57419 0.55178 0.56305 0.0
C459 C 0.58711 0.54094 0.61077 0.0
C460 C 0.55828 0.51684 0.62015 0.0
C461 C 0.51487 0.50526 0.58369 0.0
C462 C 0.5017 0.51741 0.53768 0.0
C463 C 0.53152 0.53927 0.52666 0.0
C464 C 0.51192 0.54582 0.47295 0.0
C465 C 0.49298 0.57834 0.46278 0.0
C466 C 0.55422 0.53876 0.45107 0.0
C467 C 0.46662 0.52402 0.45566 0.0
C468 C 0.46071 0.50864 0.49405 0.0
C469 C 0.42292 0.4867 0.48783 0.0
C470 C 0.39225 0.47882 0.44089 0.0
C471 C 0.4 0.4927 0.40096 0.0
C472 C 0.43646 0.51621 0.40823 0.0
H473 H 0.05139 0.45427 0.57664 0.0
H474 H 0.11223 0.53558 0.65683 0.0
H475 H 0.05548 0.56568 0.58903 0.0
H476 H 0.04839 0.48173 0.46388 0.0
H477 H 0.9892 0.46258 0.42919 0.0
H478 H 0.03061 0.44718 0.48573 0.0
H479 H 0.95246 0.44658 0.5165 0.0
H480 H 0.91083 0.46215 0.46004 0.0
H481 H 0.917 0.4807 0.51586 0.0
H482 H 0.99734 0.58682 0.51304 0.0
H483 H 0.94509 0.59891 0.42941 0.0
H484 H 0.92112 0.50425 0.39565 0.0
C485 C 0.0522 0.47841 0.5801 0.0
C486 C 0.08587 0.49267 0.62203 0.0
C487 C 0.08676 0.52426 0.62499 0.0
C488 C 0.05439 0.5415 0.58688 0.0
C489 C 0.02168 0.52677 0.54611 0.0
C490 C 0.02051 0.49599 0.54215 0.0
C491 C 0.98467 0.48602 0.49273 0.0
C492 C 0.01504 0.46834 0.46634 0.0
C493 C 0.93849 0.46778 0.49653 0.0
C494 C 0.96681 0.51611 0.46915 0.0
C495 C 0.98819 0.53918 0.50112 0.0
C496 C 0.9801 0.56902 0.48774 0.0
C497 C 0.95052 0.57559 0.44004 0.0
C498 C 0.92925 0.55247 0.40607 0.0
C499 C 0.93643 0.5223 0.42105 0.0
H500 H 0.20696 0.10171 0.87658 0.0
H501 H 0.33539 0.16491 0.90773 0.0
H502 H 0.33676 0.16982 0.99087 0.0
H503 H 0.14148 0.13881 0.9519 0.0
H504 H 0.12233 0.10383 0.9713 0.0
H505 H 0.12916 0.10654 0.91296 0.0
H506 H 0.19413 0.06215 0.93496 0.0
H507 H 0.18783 0.05957 0.99348 0.0
H508 H 0.25139 0.06426 0.98855 0.0
H509 H 0.33004 0.16472 0.0732 0.0
H510 H 0.30825 0.15375 0.14632 0.0
H511 H 0.18256 0.09572 0.06153 0.0
C512 C 0.23454 0.11708 0.90055 0.0
C513 C 0.27093 0.13293 0.88525 0.0
C514 C 0.30693 0.1525 0.91822 0.0
C515 C 0.30823 0.15543 0.96577 0.0
C516 C 0.27296 0.13891 0.98009 0.0
C517 C 0.23617 0.12049 0.94833 0.0
C518 C 0.20332 0.10488 0.97344 0.0
C519 C 0.14566 0.11408 0.95107 0.0
C520 C 0.20957 0.07069 0.97255 0.0
C521 C 0.22786 0.1172 0.02412 0.0
C522 C 0.26821 0.13662 0.02735 0.0
C523 C 0.29805 0.14982 0.07104 0.0
C524 C 0.2857 0.14336 0.11243 0.0
C525 C 0.24353 0.12416 0.10956 0.0
C526 C 0.21461 0.11086 0.06476 0.0
H527 H 0.81815 0.902 0.92649 0.0
H528 H 0.65872 0.90804 0.82674 0.0
H529 H 0.62657 0.90572 0.8952 0.0
H530 H 0.79392 0.85235 0.0153 0.0
H531 H 0.83945 0.8717 0.06594 0.0
H532 H 0.84997 0.87081 0.00903 0.0
H533 H 0.85357 0.92876 0.00847 0.0
H534 H 0.843 0.92986 0.06528 0.0
H535 H 0.7998 0.94993 0.01414 0.0
H536 H 0.612 0.90525 0.97277 0.0
H537 H 0.6143 0.90902 0.05593 0.0
H538 H 0.78397 0.9053 0.1076 0.0
C539 C 0.77642 0.90219 0.91907 0.0
C540 C 0.74071 0.90474 0.87141 0.0
C541 C 0.68654 0.90588 0.86302 0.0
C542 C 0.66801 0.90448 0.90159 0.0
C543 C 0.70426 0.90225 0.94815 0.0
C544 C 0.75732 0.90129 0.9572 0.0
C545 C 0.78792 0.90128 0.01091 0.0
C546 C 0.81968 0.8723 0.02619 0.0
C547 C 0.82314 0.92911 0.02554 0.0
C548 C 0.74363 0.90256 0.03066 0.0
C549 C 0.69584 0.90281 0.99362 0.0
C550 C 0.64909 0.90489 0.00212 0.0
C551 C 0.65103 0.9071 0.04973 0.0
C552 C 0.69948 0.90746 0.08861 0.0
C553 C 0.74641 0.90481 0.07883 0.0
H554 H 0.84996 0.59898 0.43752 0.0
H555 H 0.72599 0.65915 0.35651 0.0
H556 H 0.70152 0.66638 0.42891 0.0
H557 H 0.77763 0.56265 0.50036 0.0
H558 H 0.83185 0.5582 0.55593 0.0
H559 H 0.84322 0.55992 0.49951 0.0
H560 H 0.90715 0.60401 0.53128 0.0
H561 H 0.89632 0.60243 0.58802 0.0
H562 H 0.88577 0.63694 0.55439 0.0
H563 H 0.68923 0.6662 0.50789 0.0
H564 H 0.68376 0.65617 0.58727 0.0
H565 H 0.81329 0.59365 0.61829 0.0
C566 C 0.81836 0.61416 0.43537 0.0
C567 C 0.79032 0.62896 0.39169 0.0
C568 C 0.74808 0.64781 0.38969 0.0
C569 C 0.73412 0.65211 0.43065 0.0
C570 C 0.76244 0.63711 0.47306 0.0
C571 C 0.80338 0.6183 0.47571 0.0
C572 C 0.82477 0.60317 0.52475 0.0
C573 C 0.81899 0.56896 0.51982 0.0
C574 C 0.8819 0.61219 0.55117 0.0
C575 C 0.78899 0.61626 0.54919 0.0
C576 C 0.75397 0.63607 0.51867 0.0
C577 C 0.7164 0.65077 0.53211 0.0
C578 C 0.71371 0.64479 0.57754 0.0
C579 C 0.74804 0.62396 0.6094 0.0
C580 C 0.78674 0.6098 0.5951 0.0
H581 H 0.30257 0.40886 0.62368 0.0
H582 H 0.13643 0.38958 0.56833 0.0
H583 H 0.14056 0.38105 0.48777 0.0
H584 H 0.30612 0.45021 0.5265 0.0
H585 H 0.36793 0.43613 0.52641 0.0
H586 H 0.35398 0.43649 0.58149 0.0
H587 H 0.3735 0.37952 0.59091 0.0
H588 H 0.38725 0.37958 0.53549 0.0
H589 H 0.33882 0.35444 0.54273 0.0
H590 H 0.15897 0.3813 0.41174 0.0
H591 H 0.1917 0.38954 0.34478 0.0
H592 H 0.34617 0.40783 0.44815 0.0
C593 C 0.2675 0.40199 0.59487 0.0
C594 C 0.21928 0.39994 0.60231 0.0
C595 C 0.17387 0.39148 0.56349 0.0
C596 C 0.17577 0.38636 0.51755 0.0
C597 C 0.22344 0.38951 0.51092 0.0
C598 C 0.26865 0.39682 0.54846 0.0
C599 C 0.31369 0.40129 0.5304 0.0
C600 C 0.33669 0.43296 0.54192 0.0
C601 C 0.3558 0.37727 0.55111 0.0
C602 C 0.28598 0.39696 0.47673 0.0
C603 C 0.23417 0.38962 0.46643 0.0
C604 C 0.19973 0.38653 0.41927 0.0
C605 C 0.21865 0.39138 0.38146 0.0
C606 C 0.27144 0.39946 0.39108 0.0
C607 C 0.30559 0.40171 0.43947 0.0
H608 H 0.18435 0.05679 0.38713 0.0
H609 H 0.33176 0.09872 0.39853 0.0
H610 H 0.35547 0.10092 0.48693 0.0
H611 H 0.16012 0.09959 0.47852 0.0
H612 H 0.13233 0.06899 0.5013 0.0
H613 H 0.12779 0.06938 0.43908 0.0
H614 H 0.17195 0.0173 0.44975 0.0
H615 H 0.17664 0.01673 0.51206 0.0
H616 H 0.23442 1.01185 0.49651 0.0
H617 H 0.36213 0.10026 0.57357 0.0
H618 H 0.35092 0.09715 0.65292 0.0
H619 H 0.19954 0.05563 0.58641 0.0
C620 C 0.22184 0.06624 0.40816 0.0
C621 C 0.25629 0.07749 0.38564 0.0
C622 C 0.30475 0.08984 0.41471 0.0
C623 C 0.3186 0.09118 0.46504 0.0
C624 C 0.28368 0.08001 0.48592 0.0
C625 C 0.23632 0.06774 0.45847 0.0
C626 C 0.20537 0.05798 0.4899 0.0
C627 C 0.15333 0.07501 0.47639 0.0
C628 C 0.19659 0.02394 0.48687 0.0
C629 C 0.2424 0.06712 0.53929 0.0
C630 C 0.28751 0.0796 0.53608 0.0
C631 C 0.3272 0.09033 0.57654 0.0
C632 C 0.32057 0.08843 0.62139 0.0
C633 C 0.27474 0.07589 0.62551 0.0
C634 C 0.23515 0.06501 0.58404 0.0
H635 H 0.76649 0.98196 0.59338 0.0
H636 H 0.80309 0.88859 0.62952 0.0
H637 H 0.81605 0.88072 0.5518 0.0
H638 H 0.68997 0.96817 0.47238 0.0
H639 H 0.70954 1.00168 0.44919 0.0
H640 H 0.71033 1.00074 0.51023 0.0
H641 H 0.80793 0.01619 0.54062 0.0
H642 H 0.80755 0.01672 0.47952 0.0
H643 H 0.85431 0.99394 0.52428 0.0
H644 H 0.82062 0.88219 0.4684 0.0
H645 H 0.80334 0.89133 0.38146 0.0
H646 H 0.75909 0.98264 0.39829 0.0
C647 C 0.77789 0.96001 0.58505 0.0
C648 C 0.78398 0.93592 0.61731 0.0
C649 C 0.79795 0.90732 0.605 0.0
C650 C 0.80598 0.90269 0.56123 0.0
C651 C 0.79946 0.92684 0.52994 0.0
C652 C 0.78495 0.95483 0.54096 0.0
C653 C 0.77455 0.97607 0.49882 0.0
C654 C 0.71773 0.98731 0.48164 0.0
C655 C 0.81342 1.00228 0.51159 0.0
C656 C 0.78431 0.95546 0.46218 0.0
C657 C 0.80001 0.92738 0.48114 0.0
C658 C 0.80884 0.90419 0.45321 0.0
C659 C 0.79936 0.90957 0.40406 0.0
C660 C 0.78028 0.93766 0.38361 0.0
C661 C 0.77419 0.96103 0.41336 0.0
H662 H 0.79248 0.54133 0.90973 0.0
H663 H 0.73221 0.63118 0.87188 0.0
H664 H 0.72556 0.63729 0.95258 0.0
H665 H 0.71768 0.52073 0.98256 0.0
H666 H 0.76998 0.50163 0.02805 0.0
H667 H 0.76966 0.50372 0.96709 0.0
H668 H 0.86163 0.52785 0.9972 0.0
H669 H 0.86258 0.52538 0.05833 0.0
H670 H 0.87284 0.56095 0.03422 0.0
H671 H 0.71823 0.63215 0.03416 0.0
H672 H 0.72726 0.62039 0.11816 0.0
H673 H 0.80193 0.53617 0.10806 0.0
C674 C 0.77848 0.56235 0.91883 0.0
C675 C 0.76278 0.58582 0.88473 0.0
C676 C 0.74485 0.61308 0.89773 0.0
C677 C 0.74049 0.61664 0.94328 0.0
C678 C 0.75543 0.59298 0.97588 0.0
C679 C 0.77555 0.56669 0.96491 0.0
C680 C 0.79154 0.54553 0.00781 0.0
C681 C 0.76034 0.51616 0.99563 0.0
C682 C 0.85066 0.53959 0.02543 0.0
C683 C 0.77639 0.56386 0.04417 0.0
C684 C 0.75465 0.59088 0.02451 0.0
C685 C 0.73575 0.61121 0.05018 0.0
C686 C 0.74059 0.60419 0.09774 0.0
C687 C 0.76518 0.57736 0.11963 0.0
C688 C 0.78294 0.55684 0.09224 0.0
H689 H 0.25864 0.48812 0.90415 0.0
H690 H 0.29354 0.39582 0.88228 0.0
H691 H 0.30429 0.38438 0.96725 0.0
H692 H 0.35287 0.49323 0.03034 0.0
H693 H 0.3101 0.51758 0.04811 0.0
H694 H 0.30977 0.51845 0.98706 0.0
H695 H 0.21009 0.50852 0.95615 0.0
H696 H 0.21029 0.50675 0.01703 0.0
H697 H 0.18526 0.47576 0.97663 0.0
H698 H 0.2976 0.38182 0.05028 0.0
H699 H 0.29267 0.39036 0.13149 0.0
H700 H 0.2704 0.48523 0.10116 0.0
C701 C 0.27021 0.46576 0.91787 0.0
C702 C 0.27578 0.44283 0.8873 0.0
C703 C 0.29014 0.4137 0.90575 0.0
C704 C 0.29574 0.40699 0.95367 0.0
C705 C 0.288 0.42988 0.98254 0.0
C706 C 0.27728 0.45891 0.96581 0.0
C707 C 0.27068 0.47942 0.00401 0.0
C708 C 0.31341 0.50359 0.01823 0.0
C709 C 0.21582 0.49342 0.98744 0.0
C710 C 0.27781 0.45725 0.04443 0.0
C711 C 0.28702 0.4287 0.03113 0.0
C712 C 0.29143 0.40415 0.06142 0.0
C713 C 0.28799 0.4091 0.10707 0.0
C714 C 0.28104 0.43836 0.12192 0.0
C715 C 0.27574 0.46268 0.09027 0.0
H716 H 0.17662 0.20745 0.19239 0.0
H717 H 0.28241 0.17711 0.33162 0.0
H718 H 0.32344 0.22657 0.3465 0.0
H719 H 0.26553 0.25386 0.16165 0.0
H720 H 0.22068 0.28402 0.13604 0.0
H721 H 0.19654 0.24641 0.13534 0.0
H722 H 0.13484 0.26391 0.17972 0.0
H723 H 0.15791 0.30169 0.17955 0.0
H724 H 0.16135 0.28425 0.23556 0.0
H725 H 0.36065 0.27618 0.34342 0.0
H726 H 0.37951 0.32862 0.33209 0.0
H727 H 0.24589 0.33142 0.1988 0.0
C728 C 0.2075 0.21146 0.22648 0.0
C729 C 0.22644 0.18798 0.26054 0.0
C730 C 0.26724 0.19434 0.3046 0.0
C731 C 0.29119 0.22244 0.31342 0.0
C732 C 0.27348 0.24449 0.27839 0.0
C733 C 0.23154 0.23989 0.2365 0.0
C734 C 0.21997 0.26829 0.20595 0.0
C735 C 0.22604 0.2628 0.15683 0.0
C736 C 0.16527 0.28025 0.19985 0.0
C737 C 0.26247 0.28918 0.23709 0.0
C738 C 0.29328 0.27452 0.27817 0.0
C739 C 0.33625 0.28815 0.31185 0.0
C740 C 0.34686 0.31806 0.30475 0.0
C741 C 0.31408 0.3346 0.26471 0.0
C742 C 0.27182 0.31959 0.2298 0.0
H743 H 0.21822 0.19462 0.69533 0.0
H744 H 0.38378 0.19671 0.77955 0.0
H745 H 0.37771 0.2507 0.79299 0.0
H746 H 0.21606 0.26998 0.63898 0.0
H747 H 0.15178 0.27832 0.63979 0.0
H748 H 0.1699 0.24016 0.63372 0.0
H749 H 0.14504 0.2256 0.70781 0.0
H750 H 0.12822 0.26384 0.71496 0.0
H751 H 0.17586 0.2446 0.76433 0.0
H752 H 0.35173 0.30162 0.8082 0.0
H753 H 0.31321 0.35102 0.80796 0.0
H754 H 0.16514 0.31912 0.70723 0.0
C755 C 0.25348 0.20666 0.71538 0.0
C756 C 0.30153 0.19135 0.73638 0.0
C757 C 0.3467 0.20785 0.76268 0.0
C758 C 0.34352 0.23852 0.77098 0.0
C759 C 0.29518 0.25257 0.75183 0.0
C760 C 0.25128 0.23755 0.72313 0.0
C761 C 0.20434 0.2584 0.70662 0.0
C762 C 0.18435 0.26193 0.6515 0.0
C763 C 0.1608 0.24744 0.72451 0.0
C764 C 0.22859 0.28725 0.73159 0.0
C765 C 0.28081 0.28301 0.75808 0.0
C766 C 0.31124 0.30547 0.78665 0.0
C767 C 0.28857 0.33351 0.78647 0.0
C768 C 0.23603 0.33936 0.75701 0.0
C769 C 0.20536 0.31557 0.72993 0.0
H770 H 0.66573 0.70518 0.70248 0.0
H771 H 0.78959 0.67449 0.83039 0.0
H772 H 0.82687 0.72531 0.84393 0.0
H773 H 0.74028 0.7515 0.6599 0.0
H774 H 0.69399 0.7816 0.63899 0.0
H775 H 0.67128 0.74409 0.64221 0.0
H776 H 0.62084 0.76167 0.69721 0.0
H777 H 0.64178 0.79947 0.69272 0.0
H778 H 0.65465 0.7826 0.7511 0.0
H779 H 0.85935 0.7763 0.83588 0.0
H780 H 0.87379 0.8289 0.81839 0.0
H781 H 0.72697 0.82857 0.69831 0.0
C782 C 0.69899 0.70965 0.73466 0.0
C783 C 0.72437 0.68612 0.76596 0.0
C784 C 0.7692 0.69241 0.80659 0.0
C785 C 0.79099 0.72111 0.81425 0.0
C786 C 0.76715 0.74343 0.78119 0.0
C787 C 0.72117 0.73845 0.74313 0.0
C788 C 0.70482 0.76638 0.71225 0.0
C789 C 0.70246 0.76052 0.66027 0.0
C790 C 0.65242 0.77824 0.71341 0.0
C791 C 0.74942 0.78739 0.73827 0.0
C792 C 0.78525 0.77348 0.77752 0.0
C793 C 0.8311 0.78767 0.80576 0.0
C794 C 0.83938 0.81742 0.79509 0.0
C795 C 0.80162 0.83282 0.75693 0.0
C796 C 0.75656 0.81732 0.72765 0.0
H797 H 0.84978 0.70936 0.29231 0.0
H798 H 0.7243 0.67562 0.16754 0.0
H799 H 0.68293 0.72517 0.15521 0.0
H800 H 0.77321 0.7567 0.33685 0.0
H801 H 0.81953 0.78702 0.35447 0.0
H802 H 0.84206 0.74924 0.3532 0.0
H803 H 0.89013 0.76522 0.29536 0.0
H804 H 0.86869 0.80318 0.29727 0.0
H805 H 0.85456 0.78448 0.24016 0.0
H806 H 0.64979 0.77625 0.1606 0.0
H807 H 0.63476 0.8292 0.17358 0.0
H808 H 0.78356 0.83276 0.29146 0.0
C809 C 0.81428 0.71256 0.26172 0.0
C810 C 0.79036 0.68827 0.23108 0.0
C811 C 0.74357 0.69359 0.19172 0.0
C812 C 0.71946 0.72172 0.18449 0.0
C813 C 0.74276 0.74471 0.21639 0.0
C814 C 0.78979 0.74082 0.25347 0.0
C815 C 0.80641 0.76973 0.28195 0.0
C816 C 0.81054 0.7654 0.33475 0.0
C817 C 0.85801 0.78134 0.27846 0.0
C818 C 0.76103 0.79022 0.25534 0.0
C819 C 0.72454 0.77503 0.21813 0.0
C820 C 0.67842 0.78853 0.18922 0.0
C821 C 0.67006 0.81869 0.19725 0.0
C822 C 0.70791 0.83547 0.23352 0.0
C823 C 0.75375 0.82072 0.26345 0.0
loop_
_geom_bond_atom_site_label_1
_geom_bond_atom_site_label_2
_geom_bond_distance
_geom_bond_site_symmetry_2
_ccdc_geom_bond_type
Fe0 O2 1.918 . S
Fe0 O5 1.997 . S
Fe0 O6 2.002 . S
Fe0 O11 1.976 . S
Fe0 O14 1.996 . S
Fe1 O2 1.918 . S
Fe1 O9 1.997 . S
Fe1 O12 1.996 . S
Fe1 O16 1.976 . S
Fe1 O19 2.002 . S
O2 Fe0 1.918 . S
O2 Fe1 1.918 . S
O2 Fe3 1.918 . S
Fe3 O2 1.918 . S
Fe3 O4 2.002 . S
Fe3 O13 1.976 . S
Fe3 O17 1.996 . S
Fe3 O20 1.997 . S
O4 Fe3 2.002 . S
O4 C21 1.295 . S
O5 Fe0 1.997 . S
O5 C21 1.235 . S
O6 Fe0 2.002 . S
O6 C7 1.295 . S
C7 O6 1.295 . S
C7 O9 1.235 . S
C8 O13 1.287 . S
C8 O14 1.255 . S
O9 Fe1 1.997 . S
O9 C7 1.235 . S
C10 O16 1.287 . S
C10 O17 1.255 . S
O11 Fe0 1.976 . S
O11 C18 1.287 . S
O12 Fe1 1.996 . S
O12 C18 1.255 . S
O13 Fe3 1.976 . S
O13 C8 1.287 . S
O14 Fe0 1.996 . S
O14 C8 1.255 . S
C15 O19 1.295 . S
C15 O20 1.235 . S
O16 Fe1 1.976 . S
O16 C10 1.287 . S
O17 Fe3 1.996 . S
O17 C10 1.255 . S
C18 O11 1.287 . S
C18 O12 1.255 . S
O19 Fe1 2.002 . S
O19 C15 1.295 . S
O20 Fe3 1.997 . S
O20 C15 1.235 . S
C21 O4 1.295 . S
C21 O5 1.235 . S
Fe22 O24 1.918 . S
Fe22 O27 1.997 . S
Fe22 O28 2.002 . S
Fe22 O33 1.976 . S
Fe22 O36 1.996 . S
Fe23 O24 1.918 . S
Fe23 O31 1.997 . S
Fe23 O34 1.996 . S
Fe23 O38 1.976 . S
Fe23 O41 2.002 . S
O24 Fe22 1.918 . S
O24 Fe23 1.918 . S
O24 Fe25 1.918 . S
Fe25 O24 1.918 . S
Fe25 O26 2.002 . S
Fe25 O35 1.976 . S
Fe25 O39 1.996 . S
Fe25 O42 1.997 . S
O26 Fe25 2.002 . S
O26 C43 1.295 . S
O27 Fe22 1.997 . S
O27 C43 1.235 . S
O28 Fe22 2.002 . S
O28 C29 1.295 . S
C29 O28 1.295 . S
C29 O31 1.235 . S
C30 O35 1.287 . S
C30 O36 1.255 . S
O31 Fe23 1.997 . S
O31 C29 1.235 . S
C32 O38 1.287 . S
C32 O39 1.255 . S
O33 Fe22 1.976 . S
O33 C40 1.287 . S
O34 Fe23 1.996 . S
O34 C40 1.255 . S
O35 Fe25 1.976 . S
O35 C30 1.287 . S
O36 Fe22 1.996 . S
O36 C30 1.255 . S
C37 O41 1.295 . S
C37 O42 1.235 . S
O38 Fe23 1.976 . S
O38 C32 1.287 . S
O39 Fe25 1.996 . S
O39 C32 1.255 . S
C40 O33 1.287 . S
C40 O34 1.255 . S
O41 Fe23 2.002 . S
O41 C37 1.295 . S
O42 Fe25 1.997 . S
O42 C37 1.235 . S
C43 O26 1.295 . S
C43 O27 1.235 . S
Fe44 O46 1.918 . S
Fe44 O49 1.997 . S
Fe44 O50 2.002 . S
Fe44 O55 1.976 . S
Fe44 O58 1.996 . S
Fe45 O46 1.918 . S
Fe45 O53 1.997 . S
Fe45 O56 1.996 . S
Fe45 O60 1.976 . S
Fe45 O63 2.002 . S
O46 Fe44 1.918 . S
O46 Fe45 1.918 . S
O46 Fe47 1.918 . S
Fe47 O46 1.918 . S
Fe47 O48 2.002 . S
Fe47 O57 1.976 . S
Fe47 O61 1.996 . S
Fe47 O64 1.997 . S
O48 Fe47 2.002 . S
O48 C65 1.295 . S
O49 Fe44 1.997 . S
O49 C65 1.235 . S
O50 Fe44 2.002 . S
O50 C51 1.295 . S
C51 O50 1.295 . S
C51 O53 1.235 . S
C52 O57 1.287 . S
C52 O58 1.255 . S
O53 Fe45 1.997 . S
O53 C51 1.235 . S
C54 O60 1.287 . S
C54 O61 1.255 . S
O55 Fe44 1.976 . S
O55 C62 1.287 . S
O56 Fe45 1.996 . S
O56 C62 1.255 . S
O57 Fe47 1.976 . S
O57 C52 1.287 . S
O58 Fe44 1.996 . S
O58 C52 1.255 . S
C59 O63 1.295 . S
C59 O64 1.235 . S
O60 Fe45 1.976 . S
O60 C54 1.287 . S
O61 Fe47 1.996 . S
O61 C54 1.255 . S
C62 O55 1.287 . S
C62 O56 1.255 . S
O63 Fe45 2.002 . S
O63 C59 1.295 . S
O64 Fe47 1.997 . S
O64 C59 1.235 . S
C65 O48 1.295 . S
C65 O49 1.235 . S
Fe66 O68 1.918 . S
Fe66 O71 1.997 . S
Fe66 O72 2.002 . S
Fe66 O77 1.976 . S
Fe66 O80 1.996 . S
Fe67 O68 1.918 . S
Fe67 O75 1.997 . S
Fe67 O78 1.996 . S
Fe67 O82 1.976 . S
Fe67 O85 2.002 . S
O68 Fe66 1.918 . S
O68 Fe67 1.918 . S
O68 Fe69 1.918 . S
Fe69 O68 1.918 . S
Fe69 O70 2.002 . S
Fe69 O79 1.976 . S
Fe69 O83 1.996 . S
Fe69 O86 1.997 . S
O70 Fe69 2.002 . S
O70 C87 1.295 . S
O71 Fe66 1.997 . S
O71 C87 1.235 . S
O72 Fe66 2.002 . S
O72 C73 1.295 . S
C73 O72 1.295 . S
C73 O75 1.235 . S
C74 O79 1.287 . S
C74 O80 1.255 . S
O75 Fe67 1.997 . S
O75 C73 1.235 . S
C76 O82 1.287 . S
C76 O83 1.255 . S
O77 Fe66 1.976 . S
O77 C84 1.287 . S
O78 Fe67 1.996 . S
O78 C84 1.255 . S
O79 Fe69 1.976 . S
O79 C74 1.287 . S
O80 Fe66 1.996 . S
O80 C74 1.255 . S
C81 O85 1.295 . S
C81 O86 1.235 . S
O82 Fe67 1.976 . S
O82 C76 1.287 . S
O83 Fe69 1.996 . S
O83 C76 1.255 . S
C84 O77 1.287 . S
C84 O78 1.255 . S
O85 Fe67 2.002 . S
O85 C81 1.295 . S
O86 Fe69 1.997 . S
O86 C81 1.235 . S
C87 O70 1.295 . S
C87 O71 1.235 . S
Fe88 O90 1.918 . S
Fe88 O93 1.997 . S
Fe88 O94 2.002 . S
Fe88 O99 1.976 . S
Fe88 O102 1.996 . S
Fe89 O90 1.918 . S
Fe89 O97 1.997 . S
Fe89 O100 1.996 . S
Fe89 O104 1.976 . S
Fe89 O107 2.002 . S
O90 Fe88 1.918 . S
O90 Fe89 1.918 . S
O90 Fe91 1.918 . S
Fe91 O90 1.918 . S
Fe91 O92 2.002 . S
Fe91 O101 1.976 . S
Fe91 O105 1.996 . S
Fe91 O108 1.997 . S
O92 Fe91 2.002 . S
O92 C109 1.295 . S
O93 Fe88 1.997 . S
O93 C109 1.235 . S
O94 Fe88 2.002 . S
O94 C95 1.295 . S
C95 O94 1.295 . S
C95 O97 1.235 . S
C96 O101 1.287 . S
C96 O102 1.255 . S
O97 Fe89 1.997 . S
O97 C95 1.235 . S
C98 O104 1.287 . S
C98 O105 1.255 . S
O99 Fe88 1.976 . S
O99 C106 1.287 . S
O100 Fe89 1.996 . S
O100 C106 1.255 . S
O101 Fe91 1.976 . S
O101 C96 1.287 . S
O102 Fe88 1.996 . S
O102 C96 1.255 . S
C103 O107 1.295 . S
C103 O108 1.235 . S
O104 Fe89 1.976 . S
O104 C98 1.287 . S
O105 Fe91 1.996 . S
O105 C98 1.255 . S
C106 O99 1.287 . S
C106 O100 1.255 . S
O107 Fe89 2.002 . S
O107 C103 1.295 . S
O108 Fe91 1.997 . S
O108 C103 1.235 . S
C109 O92 1.295 . S
C109 O93 1.235 . S
Fe110 O112 1.918 . S
Fe110 O115 1.997 . S
Fe110 O116 2.002 . S
Fe110 O121 1.976 . S
Fe110 O124 1.996 . S
Fe111 O112 1.918 . S
Fe111 O119 1.997 . S
Fe111 O122 1.996 . S
Fe111 O126 1.976 . S
Fe111 O129 2.002 . S
O112 Fe110 1.918 . S
O112 Fe111 1.918 . S
O112 Fe113 1.918 . S
Fe113 O112 1.918 . S
Fe113 O114 2.002 . S
Fe113 O123 1.976 . S
Fe113 O127 1.996 . S
Fe113 O130 1.997 . S
O114 Fe113 2.002 . S
O114 C131 1.295 . S
O115 Fe110 1.997 . S
O115 C131 1.235 . S
O116 Fe110 2.002 . S
O116 C117 1.295 . S
C117 O116 1.295 . S
C117 O119 1.235 . S
C118 O123 1.287 . S
C118 O124 1.255 . S
O119 Fe111 1.997 . S
O119 C117 1.235 . S
C120 O126 1.287 . S
C120 O127 1.255 . S
O121 Fe110 1.976 . S
O121 C128 1.287 . S
O122 Fe111 1.996 . S
O122 C128 1.255 . S
O123 Fe113 1.976 . S
O123 C118 1.287 . S
O124 Fe110 1.996 . S
O124 C118 1.255 . S
C125 O129 1.295 . S
C125 O130 1.235 . S
O126 Fe111 1.976 . S
O126 C120 1.287 . S
O127 Fe113 1.996 . S
O127 C120 1.255 . S
C128 O121 1.287 . S
C128 O122 1.255 . S
O129 Fe111 2.002 . S
O129 C125 1.295 . S
O130 Fe113 1.997 . S
O130 C125 1.235 . S
C131 O114 1.295 . S
C131 O115 1.235 . S
Fe132 O134 1.918 . S
Fe132 O137 1.997 . S
Fe132 O138 2.002 . S
Fe132 O143 1.976 . S
Fe132 O146 1.996 . S
Fe133 O134 1.918 . S
Fe133 O141 1.997 . S
Fe133 O144 1.996 . S
Fe133 O148 1.976 . S
Fe133 O151 2.002 . S
O134 Fe132 1.918 . S
O134 Fe133 1.918 . S
O134 Fe135 1.918 . S
Fe135 O134 1.918 . S
Fe135 O136 2.002 . S
Fe135 O145 1.976 . S
Fe135 O149 1.996 . S
Fe135 O152 1.997 . S
O136 Fe135 2.002 . S
O136 C153 1.295 . S
O137 Fe132 1.997 . S
O137 C153 1.235 . S
O138 Fe132 2.002 . S
O138 C139 1.295 . S
C139 O138 1.295 . S
C139 O141 1.235 . S
C140 O145 1.287 . S
C140 O146 1.255 . S
O141 Fe133 1.997 . S
O141 C139 1.235 . S
C142 O148 1.287 . S
C142 O149 1.255 . S
O143 Fe132 1.976 . S
O143 C150 1.287 . S
O144 Fe133 1.996 . S
O144 C150 1.255 . S
O145 Fe135 1.976 . S
O145 C140 1.287 . S
O146 Fe132 1.996 . S
O146 C140 1.255 . S
C147 O151 1.295 . S
C147 O152 1.235 . S
O148 Fe133 1.976 . S
O148 C142 1.287 . S
O149 Fe135 1.996 . S
O149 C142 1.255 . S
C150 O143 1.287 . S
C150 O144 1.255 . S
O151 Fe133 2.002 . S
O151 C147 1.295 . S
O152 Fe135 1.997 . S
O152 C147 1.235 . S
C153 O136 1.295 . S
C153 O137 1.235 . S
Fe154 O156 1.918 . S
Fe154 O159 1.997 . S
Fe154 O160 2.002 . S
Fe154 O165 1.976 . S
Fe154 O168 1.996 . S
Fe155 O156 1.918 . S
Fe155 O163 1.997 . S
Fe155 O166 1.996 . S
Fe155 O170 1.976 . S
Fe155 O173 2.002 . S
O156 Fe154 1.918 . S
O156 Fe155 1.918 . S
O156 Fe157 1.918 . S
Fe157 O156 1.918 . S
Fe157 O158 2.002 . S
Fe157 O167 1.976 . S
Fe157 O171 1.996 . S
Fe157 O174 1.997 . S
O158 Fe157 2.002 . S
O158 C175 1.295 . S
O159 Fe154 1.997 . S
O159 C175 1.235 . S
O160 Fe154 2.002 . S
O160 C161 1.295 . S
C161 O160 1.295 . S
C161 O163 1.235 . S
C162 O167 1.287 . S
C162 O168 1.255 . S
O163 Fe155 1.997 . S
O163 C161 1.235 . S
C164 O170 1.287 . S
C164 O171 1.255 . S
O165 Fe154 1.976 . S
O165 C172 1.287 . S
O166 Fe155 1.996 . S
O166 C172 1.255 . S
O167 Fe157 1.976 . S
O167 C162 1.287 . S
O168 Fe154 1.996 . S
O168 C162 1.255 . S
C169 O173 1.295 . S
C169 O174 1.235 . S
O170 Fe155 1.976 . S
O170 C164 1.287 . S
O171 Fe157 1.996 . S
O171 C164 1.255 . S
C172 O165 1.287 . S
C172 O166 1.255 . S
O173 Fe155 2.002 . S
O173 C169 1.295 . S
O174 Fe157 1.997 . S
O174 C169 1.235 . S
C175 O158 1.295 . S
C175 O159 1.235 . S
H176 C188 0.930 . S
H177 C190 0.930 . S
H178 C191 0.930 . S
H179 C195 0.959 . S
H180 C195 0.959 . S
H181 C195 0.961 . S
H182 C196 0.960 . S
H183 C196 0.961 . S
H184 C196 0.959 . S
H185 C199 0.929 . S
H186 C200 0.931 . S
H187 C202 0.930 . S
C188 H176 0.930 . S
C188 C189 1.399 . S
C188 C193 1.399 . S
C189 C188 1.399 . S
C189 C190 1.376 . S
C190 H177 0.930 . S
C190 C189 1.376 . S
C190 C191 1.388 . S
C191 H178 0.930 . S
C191 C190 1.388 . S
C191 C192 1.390 . S
C192 C191 1.390 . S
C192 C193 1.394 . S
C192 C198 1.465 . S
C193 C188 1.399 . S
C193 C192 1.394 . S
C193 C194 1.516 1_565 S
C194 C193 1.516 1_545 S
C194 C195 1.502 . S
C194 C196 1.561 . S
C194 C197 1.526 . S
C195 H179 0.959 . S
C195 H180 0.959 . S
C195 H181 0.961 . S
C195 C194 1.502 . S
C196 H182 0.960 . S
C196 H183 0.961 . S
C196 H184 0.959 . S
C196 C194 1.561 . S
C197 C194 1.526 . S
C197 C198 1.396 1_545 S
C197 C202 1.390 . S
C198 C192 1.465 . S
C198 C197 1.396 1_565 S
C198 C199 1.399 . S
C199 H185 0.929 . S
C199 C198 1.399 . S
C199 C200 1.385 . S
C200 H186 0.931 . S
C200 C199 1.385 . S
C200 C201 1.389 1_565 S
C201 C200 1.389 1_545 S
C201 C202 1.387 . S
C202 H187 0.930 . S
C202 C197 1.390 . S
C202 C201 1.387 . S
H203 C215 0.930 . S
H204 C217 0.930 . S
H205 C218 0.930 . S
H206 C222 0.959 . S
H207 C222 0.959 1_545 S
H208 C222 0.961 1_655 S
H209 C223 0.960 1_655 S
H210 C223 0.961 . S
H211 C223 0.959 . S
H212 C226 0.929 . S
H213 C227 0.931 . S
H214 C229 0.930 . S
C215 H203 0.930 . S
C215 C216 1.399 . S
C215 C220 1.399 1_655 S
C216 C215 1.399 . S
C216 C217 1.376 1_655 S
C217 H204 0.930 . S
C217 C216 1.376 1_455 S
C217 C218 1.388 . S
C218 H205 0.930 . S
C218 C217 1.388 . S
C218 C219 1.390 . S
C219 C218 1.390 . S
C219 C220 1.394 . S
C219 C225 1.465 . S
C220 C215 1.399 1_455 S
C220 C219 1.394 . S
C220 C221 1.516 . S
C221 C220 1.516 . S
C221 C222 1.502 . S
C221 C223 1.561 1_565 S
C221 C224 1.527 . S
C222 H206 0.959 . S
C222 H207 0.959 1_565 S
C222 H208 0.961 1_455 S
C222 C221 1.502 . S
C223 H209 0.960 1_455 S
C223 H210 0.961 . S
C223 H211 0.959 . S
C223 C221 1.561 1_545 S
C224 C221 1.527 . S
C224 C225 1.419 . S
C224 C229 1.370 1_565 S
C225 C219 1.465 . S
C225 C224 1.419 . S
C225 C226 1.399 . S
C226 H212 0.929 . S
C226 C225 1.399 . S
C226 C227 1.385 . S
C227 H213 0.931 . S
C227 C226 1.385 . S
C227 C228 1.389 1_565 S
C228 C227 1.389 1_545 S
C228 C229 1.387 . S
C229 H214 0.930 . S
C229 C224 1.370 1_545 S
C229 C228 1.387 . S
H230 C242 0.930 . S
H231 C244 0.930 . S
H232 C245 0.930 . S
H233 C249 0.959 . S
H234 C249 0.959 . S
H235 C249 0.961 . S
H236 C250 0.960 . S
H237 C250 0.961 . S
H238 C250 0.959 . S
H239 C253 0.929 . S
H240 C254 0.931 . S
H241 C256 0.930 . S
C242 H230 0.930 . S
C242 C243 1.399 . S
C242 C247 1.399 1_565 S
C243 C242 1.399 . S
C243 C244 1.376 1_565 S
C244 H231 0.930 . S
C244 C243 1.376 1_545 S
C244 C245 1.388 . S
C245 H232 0.930 . S
C245 C244 1.388 . S
C245 C246 1.390 . S
C246 C245 1.390 . S
C246 C247 1.394 . S
C246 C252 1.465 . S
C247 C242 1.399 1_545 S
C247 C246 1.394 . S
C247 C248 1.516 . S
C248 C247 1.516 . S
C248 C249 1.502 1_545 S
C248 C250 1.561 . S
C248 C251 1.526 . S
C249 H233 0.959 . S
C249 H234 0.959 . S
C249 H235 0.961 . S
C249 C248 1.502 1_565 S
C250 H236 0.960 . S
C250 H237 0.961 . S
C250 H238 0.959 . S
C250 C248 1.561 . S
C251 C248 1.526 . S
C251 C252 1.396 . S
C251 C256 1.390 . S
C252 C246 1.465 . S
C252 C251 1.396 . S
C252 C253 1.399 . S
C253 H239 0.929 . S
C253 C252 1.399 . S
C253 C254 1.385 . S
C254 H240 0.931 . S
C254 C253 1.385 . S
C254 C255 1.389 . S
C255 C254 1.389 . S
C255 C256 1.387 . S
C256 H241 0.930 . S
C256 C251 1.390 . S
C256 C255 1.387 . S
H257 C269 0.930 . S
H258 C271 0.930 . S
H259 C272 0.930 . S
H260 C276 0.959 . S
H261 C276 0.959 1_455 S
H262 C276 0.961 . S
H263 C277 0.960 . S
H264 C277 0.961 . S
H265 C277 0.959 . S
H266 C280 0.929 . S
H267 C281 0.931 . S
H268 C283 0.930 . S
C269 H257 0.930 . S
C269 C270 1.399 . S
C269 C274 1.422 . S
C270 C269 1.399 . S
C270 C271 1.376 1_565 S
C271 H258 0.930 . S
C271 C270 1.376 1_545 S
C271 C272 1.388 . S
C272 H259 0.930 . S
C272 C271 1.388 . S
C272 C273 1.390 . S
C273 C272 1.390 . S
C273 C274 1.361 1_545 S
C273 C279 1.465 . S
C274 C269 1.422 . S
C274 C273 1.361 1_565 S
C274 C275 1.521 . S
C275 C274 1.521 . S
C275 C276 1.502 . S
C275 C277 1.561 . S
C275 C278 1.526 1_565 S
C276 H260 0.959 . S
C276 H261 0.959 1_655 S
C276 H262 0.961 . S
C276 C275 1.502 . S
C277 H263 0.960 . S
C277 H264 0.961 . S
C277 H265 0.959 . S
C277 C275 1.561 . S
C278 C275 1.526 1_545 S
C278 C279 1.396 . S
C278 C283 1.390 1_655 S
C279 C273 1.465 . S
C279 C278 1.396 . S
C279 C280 1.399 . S
C280 H266 0.929 . S
C280 C279 1.399 . S
C280 C281 1.385 . S
C281 H267 0.931 . S
C281 C280 1.385 . S
C281 C282 1.389 1_655 S
C282 C281 1.389 1_455 S
C282 C283 1.387 . S
C283 H268 0.930 . S
C283 C278 1.390 1_455 S
C283 C282 1.387 . S
H284 C296 0.930 . S
H285 C298 0.930 1_455 S
H286 C299 0.930 . S
H287 C303 0.959 . S
H288 C303 0.959 . S
H289 C303 0.961 . S
H290 C304 0.960 . S
H291 C304 0.961 . S
H292 C304 0.959 . S
H293 C307 0.929 . S
H294 C308 0.931 . S
H295 C310 0.930 . S
C296 H284 0.930 . S
C296 C297 1.399 . S
C296 C301 1.399 1_455 S
C297 C296 1.399 . S
C297 C298 1.376 1_455 S
C298 H285 0.930 1_655 S
C298 C297 1.376 1_655 S
C298 C299 1.388 . S
C299 H286 0.930 . S
C299 C298 1.388 . S
C299 C300 1.390 . S
C300 C299 1.390 . S
C300 C301 1.394 . S
C300 C306 1.465 . S
C301 C296 1.399 1_655 S
C301 C300 1.394 . S
C301 C302 1.516 . S
C302 C301 1.516 . S
C302 C303 1.502 . S
C302 C304 1.561 . S
C302 C305 1.526 . S
C303 H287 0.959 . S
C303 H288 0.959 . S
C303 H289 0.961 . S
C303 C302 1.502 . S
C304 H290 0.960 . S
C304 H291 0.961 . S
C304 H292 0.959 . S
C304 C302 1.561 . S
C305 C302 1.526 . S
C305 C306 1.396 . S
C305 C310 1.390 . S
C306 C300 1.465 . S
C306 C305 1.396 . S
C306 C307 1.399 . S
C307 H293 0.929 . S
C307 C306 1.399 . S
C307 C308 1.385 . S
C308 H294 0.931 . S
C308 C307 1.385 . S
C308 C309 1.389 . S
C309 C308 1.389 . S
C309 C310 1.387 . S
C310 H295 0.930 . S
C310 C305 1.390 . S
C310 C309 1.387 . S
H311 C323 0.930 . S
H312 C325 0.930 . S
H313 C326 0.930 . S
H314 C330 0.959 . S
H315 C330 0.959 . S
H316 C330 0.961 . S
H317 C331 0.960 . S
H318 C331 0.961 . S
H319 C331 0.959 . S
H320 C334 0.929 . S
H321 C335 0.931 . S
H322 C337 0.930 . S
C323 H311 0.930 . S
C323 C324 1.399 . S
C323 C328 1.399 . S
C324 C323 1.399 . S
C324 C325 1.376 . S
C325 H312 0.930 . S
C325 C324 1.376 . S
C325 C326 1.388 . S
C326 H313 0.930 . S
C326 C325 1.388 . S
C326 C327 1.390 . S
C327 C326 1.390 . S
C327 C328 1.394 . S
C327 C333 1.465 . S
C328 C323 1.399 . S
C328 C327 1.394 . S
C328 C329 1.516 . S
C329 C328 1.516 . S
C329 C330 1.502 . S
C329 C331 1.561 . S
C329 C332 1.526 . S
C330 H314 0.959 . S
C330 H315 0.959 . S
C330 H316 0.961 . S
C330 C329 1.502 . S
C331 H317 0.960 . S
C331 H318 0.961 . S
C331 H319 0.959 . S
C331 C329 1.561 . S
C332 C329 1.526 . S
C332 C333 1.396 . S
C332 C337 1.390 . S
C333 C327 1.465 . S
C333 C332 1.396 . S
C333 C334 1.399 . S
C334 H320 0.929 . S
C334 C333 1.399 . S
C334 C335 1.385 . S
C335 H321 0.931 . S
C335 C334 1.385 . S
C335 C336 1.389 . S
C336 C335 1.389 . S
C336 C337 1.387 . S
C337 H322 0.930 . S
C337 C332 1.390 . S
C337 C336 1.387 . S
H338 C350 0.930 . S
H339 C352 0.930 . S
H340 C353 0.930 . S
H341 C357 0.959 . S
H342 C357 0.959 . S
H343 C357 0.961 . S
H344 C358 0.960 . S
H345 C358 0.961 . S
H346 C358 0.959 . S
H347 C361 0.929 . S
H348 C362 0.931 . S
H349 C364 0.930 . S
C350 H338 0.930 . S
C350 C351 1.399 1_455 S
C350 C355 1.399 . S
C351 C350 1.399 1_655 S
C351 C352 1.376 . S
C352 H339 0.930 . S
C352 C351 1.376 . S
C352 C353 1.388 1_655 S
C353 H340 0.930 . S
C353 C352 1.388 1_455 S
C353 C354 1.390 . S
C354 C353 1.390 . S
C354 C355 1.394 . S
C354 C360 1.465 . S
C355 C350 1.399 . S
C355 C354 1.394 . S
C355 C356 1.516 . S
C356 C355 1.516 . S
C356 C357 1.502 . S
C356 C358 1.561 . S
C356 C359 1.526 . S
C357 H341 0.959 . S
C357 H342 0.959 . S
C357 H343 0.961 . S
C357 C356 1.502 . S
C358 H344 0.960 . S
C358 H345 0.961 . S
C358 H346 0.959 . S
C358 C356 1.561 . S
C359 C356 1.526 . S
C359 C360 1.396 . S
C359 C364 1.390 . S
C360 C354 1.465 . S
C360 C359 1.396 . S
C360 C361 1.399 . S
C361 H347 0.929 . S
C361 C360 1.399 . S
C361 C362 1.385 . S
C362 H348 0.931 . S
C362 C361 1.385 . S
C362 C363 1.389 . S
C363 C362 1.389 . S
C363 C364 1.387 . S
C364 H349 0.930 . S
C364 C359 1.390 . S
C364 C363 1.387 . S
H365 C377 0.930 . S
H366 C379 0.930 . S
H367 C380 0.930 . S
H368 C384 0.959 . S
H369 C384 0.959 . S
H370 C384 0.961 . S
H371 C385 0.960 . S
H372 C385 0.961 . S
H373 C385 0.959 . S
H374 C388 0.929 . S
H375 C389 0.931 . S
H376 C391 0.930 . S
C377 H365 0.930 . S
C377 C378 1.399 . S
C377 C382 1.399 . S
C378 C377 1.399 . S
C378 C379 1.376 . S
C379 H366 0.930 . S
C379 C378 1.376 . S
C379 C380 1.388 . S
C380 H367 0.930 . S
C380 C379 1.388 . S
C380 C381 1.390 . S
C381 C380 1.390 . S
C381 C382 1.394 . S
C381 C387 1.465 . S
C382 C377 1.399 . S
C382 C381 1.394 . S
C382 C383 1.516 . S
C383 C382 1.516 . S
C383 C384 1.502 . S
C383 C385 1.561 . S
C383 C386 1.526 . S
C384 H368 0.959 . S
C384 H369 0.959 . S
C384 H370 0.961 . S
C384 C383 1.502 . S
C385 H371 0.960 . S
C385 H372 0.961 . S
C385 H373 0.959 . S
C385 C383 1.561 . S
C386 C383 1.526 . S
C386 C387 1.396 . S
C386 C391 1.390 . S
C387 C381 1.465 . S
C387 C386 1.396 . S
C387 C388 1.399 . S
C388 H374 0.929 . S
C388 C387 1.399 . S
C388 C389 1.385 . S
C389 H375 0.931 . S
C389 C388 1.385 . S
C389 C390 1.389 . S
C390 C389 1.389 . S
C390 C391 1.387 . S
C391 H376 0.930 . S
C391 C386 1.390 . S
C391 C390 1.387 . S
H392 C404 0.930 . S
H393 C406 0.930 . S
H394 C407 0.930 . S
H395 C411 0.959 . S
H396 C411 0.959 1_556 S
H397 C411 0.961 . S
H398 C412 0.960 . S
H399 C412 0.961 1_655 S
H400 C412 0.959 . S
H401 C415 0.929 . S
H402 C416 0.931 . S
H403 C418 0.930 . S
C404 H392 0.930 . S
C404 C405 1.399 . S
C404 C409 1.399 . S
C405 C404 1.399 . S
C405 C406 1.376 1_545 S
C406 H393 0.930 . S
C406 C405 1.376 1_565 S
C406 C407 1.388 . S
C407 H394 0.930 . S
C407 C406 1.388 . S
C407 C408 1.390 . S
C408 C407 1.390 . S
C408 C409 1.394 1_565 S
C408 C414 1.465 1_454 S
C409 C404 1.399 . S
C409 C408 1.394 1_545 S
C409 C410 1.516 1_454 S
C410 C409 1.516 1_656 S
C410 C411 1.502 1_556 S
C410 C412 1.561 1_655 S
C410 C413 1.526 . S
C411 H395 0.959 . S
C411 H396 0.959 1_554 S
C411 H397 0.961 . S
C411 C410 1.502 1_554 S
C412 H398 0.960 . S
C412 H399 0.961 1_455 S
C412 H400 0.959 . S
C412 C410 1.561 1_455 S
C413 C410 1.526 . S
C413 C414 1.396 1_545 S
C413 C418 1.390 . S
C414 C408 1.465 1_656 S
C414 C413 1.396 1_565 S
C414 C415 1.399 . S
C415 H401 0.929 . S
C415 C414 1.399 . S
C415 C416 1.385 . S
C416 H402 0.931 . S
C416 C415 1.385 . S
C416 C417 1.389 . S
C417 C416 1.389 . S
C417 C418 1.387 1_565 S
C418 H403 0.930 . S
C418 C413 1.390 . S
C418 C417 1.387 1_545 S
H419 C431 0.930 . S
H420 C433 0.930 . S
H421 C434 0.930 . S
H422 C438 0.959 . S
H423 C438 0.959 . S
H424 C438 0.961 . S
H425 C439 0.960 . S
H426 C439 0.961 . S
H427 C439 0.959 . S
H428 C442 0.929 1_554 S
H429 C443 0.931 . S
H430 C445 0.930 . S
C431 H419 0.930 . S
C431 C432 1.399 . S
C431 C436 1.399 . S
C432 C431 1.399 . S
C432 C433 1.376 1_565 S
C433 H420 0.930 . S
C433 C432 1.376 1_545 S
C433 C434 1.388 . S
C434 H421 0.930 . S
C434 C433 1.388 . S
C434 C435 1.390 . S
C435 C434 1.390 . S
C435 C436 1.394 1_545 S
C435 C441 1.465 1_554 S
C436 C431 1.399 . S
C436 C435 1.394 1_565 S
C436 C437 1.516 1_554 S
C437 C436 1.516 1_556 S
C437 C438 1.502 . S
C437 C439 1.561 . S
C437 C440 1.526 . S
C438 H422 0.959 . S
C438 H423 0.959 . S
C438 H424 0.961 . S
C438 C437 1.502 . S
C439 H425 0.960 . S
C439 H426 0.961 . S
C439 H427 0.959 . S
C439 C437 1.561 . S
C440 C437 1.526 . S
C440 C441 1.396 1_565 S
C440 C445 1.390 . S
C441 C435 1.465 1_556 S
C441 C440 1.396 1_545 S
C441 C442 1.399 . S
C442 H428 0.929 1_556 S
C442 C441 1.399 . S
C442 C443 1.385 . S
C443 H429 0.931 . S
C443 C442 1.385 . S
C443 C444 1.389 . S
C444 C443 1.389 . S
C444 C445 1.387 1_545 S
C445 H430 0.930 . S
C445 C440 1.390 . S
C445 C444 1.387 1_565 S
H446 C458 0.930 . S
H447 C460 0.930 . S
H448 C461 0.930 . S
H449 C465 0.959 . S
H450 C465 0.959 . S
H451 C465 0.961 . S
H452 C466 0.960 . S
H453 C466 0.961 . S
H454 C466 0.959 . S
H455 C469 0.929 . S
H456 C470 0.931 . S
H457 C472 0.930 . S
C458 H446 0.930 . S
C458 C459 1.399 . S
C458 C463 1.399 . S
C459 C458 1.399 . S
C459 C460 1.376 . S
C460 H447 0.930 . S
C460 C459 1.376 . S
C460 C461 1.388 . S
C461 H448 0.930 . S
C461 C460 1.388 . S
C461 C462 1.390 . S
C462 C461 1.390 . S
C462 C463 1.394 . S
C462 C468 1.465 . S
C463 C458 1.399 . S
C463 C462 1.394 . S
C463 C464 1.516 . S
C464 C463 1.516 . S
C464 C465 1.502 . S
C464 C466 1.561 . S
C464 C467 1.526 . S
C465 H449 0.959 . S
C465 H450 0.959 . S
C465 H451 0.961 . S
C465 C464 1.502 . S
C466 H452 0.960 . S
C466 H453 0.961 . S
C466 H454 0.959 . S
C466 C464 1.561 . S
C467 C464 1.526 . S
C467 C468 1.396 . S
C467 C472 1.390 . S
C468 C462 1.465 . S
C468 C467 1.396 . S
C468 C469 1.399 . S
C469 H455 0.929 . S
C469 C468 1.399 . S
C469 C470 1.385 . S
C470 H456 0.931 . S
C470 C469 1.385 . S
C470 C471 1.389 . S
C471 C470 1.389 . S
C471 C472 1.387 . S
C472 H457 0.930 . S
C472 C467 1.390 . S
C472 C471 1.387 . S
H473 C485 0.930 . S
H474 C487 0.930 . S
H475 C488 0.930 . S
H476 C492 0.959 . S
H477 C492 0.959 . S
H478 C492 0.961 . S
H479 C493 0.960 1_455 S
H480 C493 0.961 . S
H481 C493 0.959 . S
H482 C496 0.929 . S
H483 C497 0.931 . S
H484 C499 0.930 . S
C485 H473 0.930 . S
C485 C486 1.399 . S
C485 C490 1.399 . S
C486 C485 1.399 . S
C486 C487 1.376 . S
C487 H474 0.930 . S
C487 C486 1.376 . S
C487 C488 1.388 . S
C488 H475 0.930 . S
C488 C487 1.388 . S
C488 C489 1.390 . S
C489 C488 1.390 . S
C489 C490 1.394 . S
C489 C495 1.465 1_455 S
C490 C485 1.399 . S
C490 C489 1.394 . S
C490 C491 1.516 . S
C491 C490 1.516 . S
C491 C492 1.502 . S
C491 C493 1.561 1_455 S
C491 C494 1.526 1_455 S
C492 H476 0.959 . S
C492 H477 0.959 . S
C492 H478 0.961 . S
C492 C491 1.502 . S
C493 H479 0.960 1_655 S
C493 H480 0.961 . S
C493 H481 0.959 . S
C493 C491 1.561 1_655 S
C494 C491 1.526 1_655 S
C494 C495 1.396 . S
C494 C499 1.390 . S
C495 C489 1.465 1_655 S
C495 C494 1.396 . S
C495 C496 1.399 . S
C496 H482 0.929 . S
C496 C495 1.399 . S
C496 C497 1.385 . S
C497 H483 0.931 . S
C497 C496 1.385 . S
C497 C498 1.389 . S
C498 C497 1.389 . S
C498 C499 1.387 . S
C499 H484 0.930 . S
C499 C494 1.390 . S
C499 C498 1.387 . S
H500 C512 0.930 . S
H501 C514 0.930 . S
H502 C515 0.930 . S
H503 C519 0.959 . S
H504 C519 0.959 . S
H505 C519 0.961 . S
H506 C520 0.960 1_556 S
H507 C520 0.961 . S
H508 C520 0.959 . S
H509 C523 0.929 . S
H510 C524 0.931 . S
H511 C526 0.930 . S
C512 H500 0.930 . S
C512 C513 1.399 . S
C512 C517 1.399 . S
C513 C512 1.399 . S
C513 C514 1.376 . S
C514 H501 0.930 . S
C514 C513 1.376 . S
C514 C515 1.388 . S
C515 H502 0.930 . S
C515 C514 1.388 . S
C515 C516 1.390 . S
C516 C515 1.390 . S
C516 C517 1.394 . S
C516 C522 1.465 1_556 S
C517 C512 1.399 . S
C517 C516 1.394 . S
C517 C518 1.516 . S
C518 C517 1.516 . S
C518 C519 1.502 . S
C518 C520 1.561 1_556 S
C518 C521 1.526 1_556 S
C519 H503 0.959 . S
C519 H504 0.959 . S
C519 H505 0.961 . S
C519 C518 1.502 . S
C520 H506 0.960 1_554 S
C520 H507 0.961 . S
C520 H508 0.959 . S
C520 C518 1.561 1_554 S
C521 C518 1.526 1_554 S
C521 C522 1.396 . S
C521 C526 1.390 . S
C522 C516 1.465 1_554 S
C522 C521 1.396 . S
C522 C523 1.399 . S
C523 H509 0.929 . S
C523 C522 1.399 . S
C523 C524 1.385 . S
C524 H510 0.931 . S
C524 C523 1.385 . S
C524 C525 1.389 . S
C525 C524 1.389 . S
C525 C526 1.387 . S
C526 H511 0.930 . S
C526 C521 1.390 . S
C526 C525 1.387 . S
H527 C539 0.930 . S
H528 C541 0.930 . S
H529 C542 0.930 . S
H530 C546 0.959 . S
H531 C546 0.959 . S
H532 C546 0.961 . S
H533 C547 0.960 . S
H534 C547 0.961 1_554 S
H535 C547 0.959 . S
H536 C550 0.929 . S
H537 C551 0.931 . S
H538 C553 0.930 . S
C539 H527 0.930 . S
C539 C540 1.399 . S
C539 C544 1.399 . S
C540 C539 1.399 . S
C540 C541 1.376 . S
C541 H528 0.930 . S
C541 C540 1.376 . S
C541 C542 1.388 . S
C542 H529 0.930 . S
C542 C541 1.388 . S
C542 C543 1.390 . S
C543 C542 1.390 . S
C543 C544 1.394 . S
C543 C549 1.465 1_556 S
C544 C539 1.399 . S
C544 C543 1.394 . S
C544 C545 1.516 1_556 S
C545 C544 1.516 1_554 S
C545 C546 1.502 . S
C545 C547 1.561 1_554 S
C545 C548 1.526 . S
C546 H530 0.959 . S
C546 H531 0.959 . S
C546 H532 0.961 . S
C546 C545 1.502 . S
C547 H533 0.960 . S
C547 H534 0.961 1_556 S
C547 H535 0.959 . S
C547 C545 1.561 1_556 S
C548 C545 1.526 . S
C548 C549 1.396 . S
C548 C553 1.390 . S
C549 C543 1.465 1_554 S
C549 C548 1.396 . S
C549 C550 1.399 . S
C550 H536 0.929 . S
C550 C549 1.399 . S
C550 C551 1.385 . S
C551 H537 0.931 . S
C551 C550 1.385 . S
C551 C552 1.389 . S
C552 C551 1.389 . S
C552 C553 1.387 . S
C553 H538 0.930 . S
C553 C548 1.390 . S
C553 C552 1.387 . S
H554 C566 0.930 . S
H555 C568 0.930 . S
H556 C569 0.930 . S
H557 C573 0.959 . S
H558 C573 0.959 . S
H559 C573 0.961 . S
H560 C574 0.960 . S
H561 C574 0.961 . S
H562 C574 0.959 . S
H563 C577 0.929 . S
H564 C578 0.931 . S
H565 C580 0.930 . S
C566 H554 0.930 . S
C566 C567 1.399 . S
C566 C571 1.399 . S
C567 C566 1.399 . S
C567 C568 1.376 . S
C568 H555 0.930 . S
C568 C567 1.376 . S
C568 C569 1.388 . S
C569 H556 0.930 . S
C569 C568 1.388 . S
C569 C570 1.390 . S
C570 C569 1.390 . S
C570 C571 1.394 . S
C570 C576 1.465 . S
C571 C566 1.399 . S
C571 C570 1.394 . S
C571 C572 1.516 . S
C572 C571 1.516 . S
C572 C573 1.502 . S
C572 C574 1.561 . S
C572 C575 1.526 . S
C573 H557 0.959 . S
C573 H558 0.959 . S
C573 H559 0.961 . S
C573 C572 1.502 . S
C574 H560 0.960 . S
C574 H561 0.961 . S
C574 H562 0.959 . S
C574 C572 1.561 . S
C575 C572 1.526 . S
C575 C576 1.396 . S
C575 C580 1.390 . S
C576 C570 1.465 . S
C576 C575 1.396 . S
C576 C577 1.399 . S
C577 H563 0.929 . S
C577 C576 1.399 . S
C577 C578 1.385 . S
C578 H564 0.931 . S
C578 C577 1.385 . S
C578 C579 1.389 . S
C579 C578 1.389 . S
C579 C580 1.387 . S
C580 H565 0.930 . S
C580 C575 1.390 . S
C580 C579 1.387 . S
H581 C593 0.930 . S
H582 C595 0.930 . S
H583 C596 0.930 . S
H584 C600 0.959 . S
H585 C600 0.959 . S
H586 C600 0.961 . S
H587 C601 0.960 . S
H588 C601 0.961 . S
H589 C601 0.959 . S
H590 C604 0.929 . S
H591 C605 0.931 . S
H592 C607 0.930 . S
C593 H581 0.930 . S
C593 C594 1.399 . S
C593 C598 1.399 . S
C594 C593 1.399 . S
C594 C595 1.376 . S
C595 H582 0.930 . S
C595 C594 1.376 . S
C595 C596 1.388 . S
C596 H583 0.930 . S
C596 C595 1.388 . S
C596 C597 1.390 . S
C597 C596 1.390 . S
C597 C598 1.394 . S
C597 C603 1.465 . S
C598 C593 1.399 . S
C598 C597 1.394 . S
C598 C599 1.516 . S
C599 C598 1.516 . S
C599 C600 1.502 . S
C599 C601 1.561 . S
C599 C602 1.526 . S
C600 H584 0.959 . S
C600 H585 0.959 . S
C600 H586 0.961 . S
C600 C599 1.502 . S
C601 H587 0.960 . S
C601 H588 0.961 . S
C601 H589 0.959 . S
C601 C599 1.561 . S
C602 C599 1.526 . S
C602 C603 1.396 . S
C602 C607 1.390 . S
C603 C597 1.465 . S
C603 C602 1.396 . S
C603 C604 1.399 . S
C604 H590 0.929 . S
C604 C603 1.399 . S
C604 C605 1.385 . S
C605 H591 0.931 . S
C605 C604 1.385 . S
C605 C606 1.389 . S
C606 C605 1.389 . S
C606 C607 1.387 . S
C607 H592 0.930 . S
C607 C602 1.390 . S
C607 C606 1.387 . S
H608 C620 0.930 . S
H609 C622 0.930 . S
H610 C623 0.930 . S
H611 C627 0.959 . S
H612 C627 0.959 . S
H613 C627 0.961 . S
H614 C628 0.960 . S
H615 C628 0.974 . S
H616 C628 0.959 . S
H617 C631 0.929 . S
H618 C632 0.931 . S
H619 C634 0.930 . S
C620 H608 0.930 . S
C620 C621 1.399 . S
C620 C625 1.399 . S
C621 C620 1.399 . S
C621 C622 1.376 . S
C622 H609 0.930 . S
C622 C621 1.376 . S
C622 C623 1.388 . S
C623 H610 0.930 . S
C623 C622 1.388 . S
C623 C624 1.390 . S
C624 C623 1.390 . S
C624 C625 1.394 . S
C624 C630 1.465 . S
C625 C620 1.399 . S
C625 C624 1.394 . S
C625 C626 1.516 . S
C626 C625 1.516 . S
C626 C627 1.502 . S
C626 C628 1.561 . S
C626 C629 1.526 . S
C627 H611 0.959 . S
C627 H612 0.959 . S
C627 H613 0.961 . S
C627 C626 1.502 . S
C628 H614 0.960 . S
C628 H615 0.974 . S
C628 H616 0.959 . S
C628 C626 1.561 . S
C629 C626 1.526 . S
C629 C630 1.396 . S
C629 C634 1.390 . S
C630 C624 1.465 . S
C630 C629 1.396 . S
C630 C631 1.399 . S
C631 H617 0.929 . S
C631 C630 1.399 . S
C631 C632 1.385 . S
C632 H618 0.931 . S
C632 C631 1.385 . S
C632 C633 1.389 . S
C633 C632 1.389 . S
C633 C634 1.387 . S
C634 H619 0.930 . S
C634 C629 1.390 . S
C634 C633 1.387 . S
H635 C647 0.930 . S
H636 C649 0.930 . S
H637 C650 0.930 . S
H638 C654 0.959 . S
H639 C654 0.959 . S
H640 C654 0.961 . S
H641 C655 0.960 . S
H642 C655 0.984 . S
H643 C655 0.959 . S
H644 C658 0.929 . S
H645 C659 0.931 . S
H646 C661 0.930 . S
C647 H635 0.930 . S
C647 C648 1.399 . S
C647 C652 1.399 . S
C648 C647 1.399 . S
C648 C649 1.376 . S
C649 H636 0.930 . S
C649 C648 1.376 . S
C649 C650 1.388 . S
C650 H637 0.930 . S
C650 C649 1.388 . S
C650 C651 1.390 . S
C651 C650 1.390 . S
C651 C652 1.394 . S
C651 C657 1.465 . S
C652 C647 1.399 . S
C652 C651 1.394 . S
C652 C653 1.516 . S
C653 C652 1.516 . S
C653 C654 1.502 . S
C653 C655 1.561 . S
C653 C656 1.526 . S
C654 H638 0.959 . S
C654 H639 0.959 . S
C654 H640 0.961 . S
C654 C653 1.502 . S
C655 H641 0.960 . S
C655 H642 0.984 . S
C655 H643 0.959 . S
C655 C653 1.561 . S
C656 C653 1.526 . S
C656 C657 1.396 . S
C656 C661 1.390 . S
C657 C651 1.465 . S
C657 C656 1.396 . S
C657 C658 1.399 . S
C658 H644 0.929 . S
C658 C657 1.399 . S
C658 C659 1.385 . S
C659 H645 0.931 . S
C659 C658 1.385 . S
C659 C660 1.389 . S
C660 C659 1.389 . S
C660 C661 1.387 . S
C661 H646 0.930 . S
C661 C656 1.390 . S
C661 C660 1.387 . S
H662 C674 0.930 . S
H663 C676 0.930 . S
H664 C677 0.930 . S
H665 C681 0.959 . S
H666 C681 0.959 1_554 S
H667 C681 0.961 . S
H668 C682 0.960 1_556 S
H669 C682 0.961 . S
H670 C682 0.959 . S
H671 C685 0.929 . S
H672 C686 0.931 . S
H673 C688 0.930 . S
C674 H662 0.930 . S
C674 C675 1.399 . S
C674 C679 1.399 . S
C675 C674 1.399 . S
C675 C676 1.376 . S
C676 H663 0.930 . S
C676 C675 1.376 . S
C676 C677 1.388 . S
C677 H664 0.930 . S
C677 C676 1.388 . S
C677 C678 1.390 . S
C678 C677 1.390 . S
C678 C679 1.394 . S
C678 C684 1.465 1_556 S
C679 C674 1.399 . S
C679 C678 1.394 . S
C679 C680 1.516 . S
C680 C679 1.516 . S
C680 C681 1.502 . S
C680 C682 1.561 1_556 S
C680 C683 1.526 1_556 S
C681 H665 0.959 . S
C681 H666 0.959 1_556 S
C681 H667 0.961 . S
C681 C680 1.502 . S
C682 H668 0.960 1_554 S
C682 H669 0.961 . S
C682 H670 0.959 . S
C682 C680 1.561 1_554 S
C683 C680 1.526 1_554 S
C683 C684 1.396 . S
C683 C688 1.390 . S
C684 C678 1.465 1_554 S
C684 C683 1.396 . S
C684 C685 1.399 . S
C685 H671 0.929 . S
C685 C684 1.399 . S
C685 C686 1.385 . S
C686 H672 0.931 . S
C686 C685 1.385 . S
C686 C687 1.389 . S
C687 C686 1.389 . S
C687 C688 1.387 . S
C688 H673 0.930 . S
C688 C683 1.390 . S
C688 C687 1.387 . S
H689 C701 0.930 . S
H690 C703 0.930 . S
H691 C704 0.930 . S
H692 C708 0.959 . S
H693 C708 0.959 . S
H694 C708 0.961 1_556 S
H695 C709 0.960 . S
H696 C709 0.961 1_554 S
H697 C709 0.959 . S
H698 C712 0.929 . S
H699 C713 0.931 . S
H700 C715 0.930 . S
C701 H689 0.930 . S
C701 C702 1.399 . S
C701 C706 1.399 . S
C702 C701 1.399 . S
C702 C703 1.376 . S
C703 H690 0.930 . S
C703 C702 1.376 . S
C703 C704 1.388 . S
C704 H691 0.930 . S
C704 C703 1.388 . S
C704 C705 1.390 . S
C705 C704 1.390 . S
C705 C706 1.394 . S
C705 C711 1.465 1_556 S
C706 C701 1.399 . S
C706 C705 1.394 . S
C706 C707 1.516 1_556 S
C707 C706 1.516 1_554 S
C707 C708 1.502 . S
C707 C709 1.561 1_554 S
C707 C710 1.526 . S
C708 H692 0.959 . S
C708 H693 0.959 . S
C708 H694 0.961 1_554 S
C708 C707 1.502 . S
C709 H695 0.960 . S
C709 H696 0.961 1_556 S
C709 H697 0.959 . S
C709 C707 1.561 1_556 S
C710 C707 1.526 . S
C710 C711 1.396 . S
C710 C715 1.390 . S
C711 C705 1.465 1_554 S
C711 C710 1.396 . S
C711 C712 1.399 . S
C712 H698 0.929 . S
C712 C711 1.399 . S
C712 C713 1.385 . S
C713 H699 0.931 . S
C713 C712 1.385 . S
C713 C714 1.389 . S
C714 C713 1.389 . S
C714 C715 1.387 . S
C715 H700 0.930 . S
C715 C710 1.390 . S
C715 C714 1.387 . S
H716 C728 0.930 . S
H717 C730 0.930 . S
H718 C731 0.930 . S
H719 C735 0.959 . S
H720 C735 0.959 . S
H721 C735 0.961 . S
H722 C736 0.960 . S
H723 C736 0.961 . S
H724 C736 0.959 . S
H725 C739 0.929 . S
H726 C740 0.931 . S
H727 C742 0.930 . S
C728 H716 0.930 . S
C728 C729 1.399 . S
C728 C733 1.399 . S
C729 C728 1.399 . S
C729 C730 1.376 . S
C730 H717 0.930 . S
C730 C729 1.376 . S
C730 C731 1.388 . S
C731 H718 0.930 . S
C731 C730 1.388 . S
C731 C732 1.390 . S
C732 C731 1.390 . S
C732 C733 1.394 . S
C732 C738 1.465 . S
C733 C728 1.399 . S
C733 C732 1.394 . S
C733 C734 1.516 . S
C734 C733 1.516 . S
C734 C735 1.502 . S
C734 C736 1.561 . S
C734 C737 1.526 . S
C735 H719 0.959 . S
C735 H720 0.959 . S
C735 H721 0.961 . S
C735 C734 1.502 . S
C736 H722 0.960 . S
C736 H723 0.961 . S
C736 H724 0.959 . S
C736 C734 1.561 . S
C737 C734 1.526 . S
C737 C738 1.396 . S
C737 C742 1.390 . S
C738 C732 1.465 . S
C738 C737 1.396 . S
C738 C739 1.399 . S
C739 H725 0.929 . S
C739 C738 1.399 . S
C739 C740 1.385 . S
C740 H726 0.931 . S
C740 C739 1.385 . S
C740 C741 1.389 . S
C741 C740 1.389 . S
C741 C742 1.387 . S
C742 H727 0.930 . S
C742 C737 1.390 . S
C742 C741 1.387 . S
H743 C755 0.930 . S
H744 C757 0.930 . S
H745 C758 0.930 . S
H746 C762 0.959 . S
H747 C762 0.959 . S
H748 C762 0.961 . S
H749 C763 0.960 . S
H750 C763 0.961 . S
H751 C763 0.959 . S
H752 C766 0.929 . S
H753 C767 0.931 . S
H754 C769 0.930 . S
C755 H743 0.930 . S
C755 C756 1.399 . S
C755 C760 1.399 . S
C756 C755 1.399 . S
C756 C757 1.376 . S
C757 H744 0.930 . S
C757 C756 1.376 . S
C757 C758 1.388 . S
C758 H745 0.930 . S
C758 C757 1.388 . S
C758 C759 1.390 . S
C759 C758 1.390 . S
C759 C760 1.394 . S
C759 C765 1.465 . S
C760 C755 1.399 . S
C760 C759 1.394 . S
C760 C761 1.516 . S
C761 C760 1.516 . S
C761 C762 1.502 . S
C761 C763 1.561 . S
C761 C764 1.526 . S
C762 H746 0.959 . S
C762 H747 0.959 . S
C762 H748 0.961 . S
C762 C761 1.502 . S
C763 H749 0.960 . S
C763 H750 0.961 . S
C763 H751 0.959 . S
C763 C761 1.561 . S
C764 C761 1.526 . S
C764 C765 1.396 . S
C764 C769 1.390 . S
C765 C759 1.465 . S
C765 C764 1.396 . S
C765 C766 1.399 . S
C766 H752 0.929 . S
C766 C765 1.399 . S
C766 C767 1.385 . S
C767 H753 0.931 . S
C767 C766 1.385 . S
C767 C768 1.389 . S
C768 C767 1.389 . S
C768 C769 1.387 . S
C769 H754 0.930 . S
C769 C764 1.390 . S
C769 C768 1.387 . S
H770 C782 0.930 . S
H771 C784 0.930 . S
H772 C785 0.930 . S
H773 C789 0.959 . S
H774 C789 0.959 . S
H775 C789 0.961 . S
H776 C790 0.960 . S
H777 C790 0.961 . S
H778 C790 0.959 . S
H779 C793 0.929 . S
H780 C794 0.931 . S
H781 C796 0.930 . S
C782 H770 0.930 . S
C782 C783 1.399 . S
C782 C787 1.399 . S
C783 C782 1.399 . S
C783 C784 1.376 . S
C784 H771 0.930 . S
C784 C783 1.376 . S
C784 C785 1.388 . S
C785 H772 0.930 . S
C785 C784 1.388 . S
C785 C786 1.390 . S
C786 C785 1.390 . S
C786 C787 1.394 . S
C786 C792 1.465 . S
C787 C782 1.399 . S
C787 C786 1.394 . S
C787 C788 1.516 . S
C788 C787 1.516 . S
C788 C789 1.502 . S
C788 C790 1.561 . S
C788 C791 1.526 . S
C789 H773 0.959 . S
C789 H774 0.959 . S
C789 H775 0.961 . S
C789 C788 1.502 . S
C790 H776 0.960 . S
C790 H777 0.961 . S
C790 H778 0.959 . S
C790 C788 1.561 . S
C791 C788 1.526 . S
C791 C792 1.396 . S
C791 C796 1.390 . S
C792 C786 1.465 . S
C792 C791 1.396 . S
C792 C793 1.399 . S
C793 H779 0.929 . S
C793 C792 1.399 . S
C793 C794 1.385 . S
C794 H780 0.931 . S
C794 C793 1.385 . S
C794 C795 1.389 . S
C795 C794 1.389 . S
C795 C796 1.387 . S
C796 H781 0.930 . S
C796 C791 1.390 . S
C796 C795 1.387 . S
H797 C809 0.930 . S
H798 C811 0.930 . S
H799 C812 0.930 . S
H800 C816 0.959 . S
H801 C816 0.959 . S
H802 C816 0.961 . S
H803 C817 0.960 . S
H804 C817 0.961 . S
H805 C817 0.959 . S
H806 C820 0.929 . S
H807 C821 0.931 . S
H808 C823 0.930 . S
C809 H797 0.930 . S
C809 C810 1.399 . S
C809 C814 1.399 . S
C810 C809 1.399 . S
C810 C811 1.376 . S
C811 H798 0.930 . S
C811 C810 1.376 . S
C811 C812 1.388 . S
C812 H799 0.930 . S
C812 C811 1.388 . S
C812 C813 1.390 . S
C813 C812 1.390 . S
C813 C814 1.394 . S
C813 C819 1.465 . S
C814 C809 1.399 . S
C814 C813 1.394 . S
C814 C815 1.516 . S
C815 C814 1.516 . S
C815 C816 1.502 . S
C815 C817 1.561 . S
C815 C818 1.526 . S
C816 H800 0.959 . S
C816 H801 0.959 . S
C816 H802 0.961 . S
C816 C815 1.502 . S
C817 H803 0.960 . S
C817 H804 0.961 . S
C817 H805 0.959 . S
C817 C815 1.561 . S
C818 C815 1.526 . S
C818 C819 1.396 . S
C818 C823 1.390 . S
C819 C813 1.465 . S
C819 C818 1.396 . S
C819 C820 1.399 . S
C820 H806 0.929 . S
C820 C819 1.399 . S
C820 C821 1.385 . S
C821 H807 0.931 . S
C821 C820 1.385 . S
C821 C822 1.389 . S
C822 C821 1.389 . S
C822 C823 1.387 . S
C823 H808 0.930 . S
C823 C818 1.390 . S
C823 C822 1.387 . S
C189 C76 1.359 . S
C201 C21 1.403 . S
C216 C52 1.332 . S
C228 C37 1.400 . S
C243 C51 1.409 . S
C255 C30 1.389 . S
C270 C87 1.414 . S
C282 C18 1.389 . S
C297 C164 1.376 . S
C309 C103 1.400 . S
C324 C125 1.396 . S
C336 C140 1.314 . S
C351 C118 1.319 . S
C363 C139 1.402 . S
C378 C96 1.354 . S
C390 C175 1.400 . S
C405 C7 1.198 . S
C417 C65 1.088 . S
C432 C81 1.137 . S
C444 C43 1.141 . S
C459 C109 1.195 . S
C471 C153 1.097 . S
C486 C169 1.142 . S
C498 C131 1.136 . S
C513 C29 0.979 . S
C525 C15 1.011 . S
C540 C59 1.009 . S
C552 C73 0.993 . S
C567 C117 0.988 . S
C579 C95 0.961 . S
C594 C161 0.964 . S
C606 C147 0.985 . S
C621 C8 1.378 . S
C633 C32 1.343 . S
C648 C62 1.356 . S
C660 C74 1.388 . S
C675 C98 1.377 . S
C687 C120 1.346 . S
C702 C162 1.358 . S
C714 C150 1.386 . S
C729 C10 1.687 . S
C741 C142 1.634 . S
C756 C40 1.689 . S
C768 C172 1.629 . S
C783 C106 1.687 . S
C795 C54 1.634 . S
C810 C128 1.688 . S
C822 C84 1.631 . S
