# Generated by pormake.
# Topology uot, (4)-cn, num edge types: 1
# Building blocks:
#     Node 0, Type 0, BuildingBlock: ICAMEG_clean_sbu_1, # of connection points: 4
#     Node 1, Type 0, BuildingBlock: ICAMEG_clean_sbu_1, # of connection points: 4
#     Node 2, Type 0, BuildingBlock: ICAMEG_clean_sbu_1, # of connection points: 4
#     Node 3, Type 0, BuildingBlock: ICAMEG_clean_sbu_1, # of connection points: 4
#     Node 4, Type 0, BuildingBlock: ICAMEG_clean_sbu_1, # of connection points: 4
#     Node 5, Type 0, BuildingBlock: ICAMEG_clean_sbu_1, # of connection points: 4
#     Node 6, Type 0, BuildingBlock: ICAMEG_clean_sbu_1, # of connection points: 4
#     Node 7, Type 0, BuildingBlock: ICAMEG_clean_sbu_1, # of connection points: 4
#     Node 8, Type 0, BuildingBlock: ICAMEG_clean_sbu_1, # of connection points: 4
#     Node 9, Type 0, BuildingBlock: ICAMEG_clean_sbu_1, # of connection points: 4
#     Node 10, Type 0, BuildingBlock: ICAMEG_clean_sbu_1, # of connection points: 4
#     Node 11, Type 0, BuildingBlock: ICAMEG_clean_sbu_1, # of connection points: 4
#     Node 12, Type 0, BuildingBlock: ICAMEG_clean_sbu_1, # of connection points: 4
#     Node 13, Type 0, BuildingBlock: ICAMEG_clean_sbu_1, # of connection points: 4
#     Node 14, Type 0, BuildingBlock: ICAMEG_clean_sbu_1, # of connection points: 4
#     Node 15, Type 0, BuildingBlock: ICAMEG_clean_sbu_1, # of connection points: 4
#     Edge 16, Type (0, 0), BuildingBlock: OJICUG_clean_linker_0, # of connection points: 2
#     Edge 17, Type (0, 0), BuildingBlock: OJICUG_clean_linker_0, # of connection points: 2
#     Edge 18, Type (0, 0), BuildingBlock: OJICUG_clean_linker_0, # of connection points: 2
#     Edge 19, Type (0, 0), BuildingBlock: OJICUG_clean_linker_0, # of connection points: 2
#     Edge 20, Type (0, 0), BuildingBlock: OJICUG_clean_linker_0, # of connection points: 2
#     Edge 21, Type (0, 0), BuildingBlock: OJICUG_clean_linker_0, # of connection points: 2
#     Edge 22, Type (0, 0), BuildingBlock: OJICUG_clean_linker_0, # of connection points: 2
#     Edge 23, Type (0, 0), BuildingBlock: OJICUG_clean_linker_0, # of connection points: 2
#     Edge 24, Type (0, 0), BuildingBlock: OJICUG_clean_linker_0, # of connection points: 2
#     Edge 25, Type (0, 0), BuildingBlock: OJICUG_clean_linker_0, # of connection points: 2
#     Edge 26, Type (0, 0), BuildingBlock: OJICUG_clean_linker_0, # of connection points: 2
#     Edge 27, Type (0, 0), BuildingBlock: OJICUG_clean_linker_0, # of connection points: 2
#     Edge 28, Type (0, 0), BuildingBlock: OJICUG_clean_linker_0, # of connection points: 2
#     Edge 29, Type (0, 0), BuildingBlock: OJICUG_clean_linker_0, # of connection points: 2
#     Edge 30, Type (0, 0), BuildingBlock: OJICUG_clean_linker_0, # of connection points: 2
#     Edge 31, Type (0, 0), BuildingBlock: OJICUG_clean_linker_0, # of connection points: 2
#     Edge 32, Type (0, 0), BuildingBlock: OJICUG_clean_linker_0, # of connection points: 2
#     Edge 33, Type (0, 0), BuildingBlock: OJICUG_clean_linker_0, # of connection points: 2
#     Edge 34, Type (0, 0), BuildingBlock: OJICUG_clean_linker_0, # of connection points: 2
#     Edge 35, Type (0, 0), BuildingBlock: OJICUG_clean_linker_0, # of connection points: 2
#     Edge 36, Type (0, 0), BuildingBlock: OJICUG_clean_linker_0, # of connection points: 2
#     Edge 37, Type (0, 0), BuildingBlock: OJICUG_clean_linker_0, # of connection points: 2
#     Edge 38, Type (0, 0), BuildingBlock: OJICUG_clean_linker_0, # of connection points: 2
#     Edge 39, Type (0, 0), BuildingBlock: OJICUG_clean_linker_0, # of connection points: 2
#     Edge 40, Type (0, 0), BuildingBlock: OJICUG_clean_linker_0, # of connection points: 2
#     Edge 41, Type (0, 0), BuildingBlock: OJICUG_clean_linker_0, # of connection points: 2
#     Edge 42, Type (0, 0), BuildingBlock: OJICUG_clean_linker_0, # of connection points: 2
#     Edge 43, Type (0, 0), BuildingBlock: OJICUG_clean_linker_0, # of connection points: 2
#     Edge 44, Type (0, 0), BuildingBlock: OJICUG_clean_linker_0, # of connection points: 2
#     Edge 45, Type (0, 0), BuildingBlock: OJICUG_clean_linker_0, # of connection points: 2
#     Edge 46, Type (0, 0), BuildingBlock: OJICUG_clean_linker_0, # of connection points: 2
#     Edge 47, Type (0, 0), BuildingBlock: OJICUG_clean_linker_0, # of connection points: 2
# Relax obj value: 0.031
# Max RMSD: 0.054
# Mean RMSD: 0.054
data_MOF--net-uot--node1-ICAMEG_clean_sbu_1--edge1-OJICUG_clean_linker_0
_symmetry_space_group_name_H-M    P1
_symmetry_Int_Tables_number       1
_symmetry_cell_setting            triclinic
loop_
_symmetry_equiv_pos_as_xyz
'x, y, z'
_cell_length_a     35.02566
_cell_length_b     35.025053
_cell_length_c     34.587837
_cell_angle_alpha  89.994047
_cell_angle_beta   89.998481
_cell_angle_gamma 90.00256
loop_
_atom_site_label
_atom_site_type_symbol
_atom_site_fract_x
_atom_site_fract_y
_atom_site_fract_z
_atom_type_partial_charge
Co0 Co 0.14709 0.45207 0.36355 0.0
Co1 Co 0.20873 0.42992 0.29127 0.0
O2 O 0.19575 0.43101 0.34629 0.0
C3 C 0.20098 0.49055 0.42035 0.0
O4 O 0.22231 0.50514 0.39283 0.0
C5 C 0.23251 0.35211 0.31754 0.0
O6 O 0.19856 0.34675 0.33272 0.0
O7 O 0.1627 0.39834 0.28112 0.0
O8 O 0.12012 0.4317 0.31614 0.0
H9 H 0.18077 0.43615 0.14885 0.0
H10 H 0.19175 0.39895 0.41254 0.0
O11 O 0.17183 0.47049 0.41216 0.0
H12 H 0.0632 0.3422 0.40377 0.0
H13 H 0.05568 0.50013 0.46422 0.0
H14 H 0.08514 0.49518 0.32494 0.0
H15 H 0.07762 0.40337 0.37167 0.0
H16 H 0.1073 0.45876 0.43991 0.0
O17 O 0.24041 0.38329 0.30038 0.0
H18 H 0.16524 0.43974 0.21826 0.0
H19 H 0.28015 0.41364 0.24724 0.0
H20 H 0.03311 0.5367 0.34799 0.0
H21 H 0.17856 0.33789 0.44551 0.0
H22 H 0.01965 0.54106 0.41832 0.0
H23 H 0.11391 0.30905 0.44111 0.0
O24 O 0.1589 0.50101 0.33652 0.0
H25 H 0.32603 0.46847 0.36516 0.0
H26 H 0.24187 0.50008 0.25542 0.0
H27 H 0.29722 0.54128 0.26965 0.0
H28 H 0.3398 0.5255 0.32481 0.0
H29 H 0.27018 0.42822 0.3501 0.0
H30 H 0.29687 0.40945 0.17811 0.0
H31 H 0.24702 0.42091 0.12836 0.0
O32 O 0.17787 0.4768 0.28004 0.0
C33 C 0.12838 0.40696 0.29009 0.0
C34 C 0.20278 0.43125 0.17025 0.0
C35 C 0.26792 0.41621 0.18667 0.0
N36 N 0.22182 0.42729 0.23681 0.0
C37 C 0.19418 0.43337 0.20962 0.0
C38 C 0.25827 0.41855 0.22578 0.0
C39 C 0.23994 0.42265 0.15877 0.0
C40 C 0.16355 0.38657 0.41051 0.0
N41 N 0.13557 0.40448 0.3898 0.0
C42 C 0.15625 0.352 0.42924 0.0
C43 C 0.11998 0.33582 0.42674 0.0
C44 C 0.09153 0.35437 0.40576 0.0
C45 C 0.0999 0.38889 0.38741 0.0
C46 C 0.06189 0.49909 0.43358 0.0
C47 C 0.07841 0.49567 0.35541 0.0
C48 C 0.09094 0.47554 0.4196 0.0
N49 N 0.09969 0.475 0.38108 0.0
C50 C 0.04919 0.51959 0.36834 0.0
C51 C 0.04163 0.52198 0.40781 0.0
C52 C 0.16429 0.50401 0.30023 0.0
C53 C 0.30776 0.47557 0.34097 0.0
C54 C 0.2602 0.49308 0.27955 0.0
C55 C 0.29155 0.51647 0.28741 0.0
C56 C 0.31544 0.5076 0.31835 0.0
N57 N 0.25293 0.46164 0.30179 0.0
C58 C 0.27617 0.45282 0.33223 0.0
Co59 Co 0.45182 0.8567 0.64726 0.0
Co60 Co 0.42961 0.79501 0.71947 0.0
O61 O 0.43066 0.80806 0.66446 0.0
C62 C 0.49026 0.80288 0.59039 0.0
O63 O 0.50487 0.78157 0.61791 0.0
C64 C 0.35177 0.77132 0.69322 0.0
O65 O 0.34639 0.80529 0.67808 0.0
O66 O 0.3981 0.84107 0.72971 0.0
O67 O 0.43155 0.88363 0.69473 0.0
H68 H 0.436 0.82277 0.86192 0.0
H69 H 0.39855 0.81225 0.59823 0.0
O70 O 0.47015 0.832 0.59859 0.0
H71 H 0.3421 0.94091 0.60731 0.0
H72 H 0.50006 0.94817 0.54671 0.0
H73 H 0.49504 0.91851 0.68595 0.0
H74 H 0.40326 0.92629 0.63932 0.0
H75 H 0.45858 0.8966 0.57094 0.0
O76 O 0.38295 0.7634 0.71036 0.0
H77 H 0.43957 0.83839 0.79253 0.0
H78 H 0.41326 0.72355 0.76342 0.0
H79 H 0.53666 0.9705 0.66297 0.0
H80 H 0.33749 0.82564 0.56536 0.0
H81 H 0.54105 0.98406 0.59266 0.0
H82 H 0.3088 0.89034 0.56991 0.0
O83 O 0.50074 0.84473 0.67421 0.0
H84 H 0.46794 0.67777 0.64538 0.0
H85 H 0.49974 0.76172 0.75521 0.0
H86 H 0.54085 0.70634 0.74087 0.0
H87 H 0.52498 0.66386 0.68566 0.0
H88 H 0.42778 0.73365 0.66055 0.0
H89 H 0.40909 0.70675 0.83254 0.0
H90 H 0.42067 0.75652 0.88234 0.0
O91 O 0.47654 0.82579 0.7307 0.0
C92 C 0.40681 0.87539 0.72079 0.0
C93 C 0.43105 0.80079 0.8405 0.0
C94 C 0.41589 0.7357 0.82401 0.0
N95 N 0.427 0.78185 0.77392 0.0
C96 C 0.43315 0.80944 0.80114 0.0
C97 C 0.41822 0.7454 0.78491 0.0
C98 C 0.4224 0.76363 0.85193 0.0
C99 C 0.38624 0.84047 0.60033 0.0
N100 N 0.40423 0.86837 0.62107 0.0
C101 C 0.35167 0.84789 0.58165 0.0
C102 C 0.33557 0.88419 0.58423 0.0
C103 C 0.35421 0.91255 0.60525 0.0
C104 C 0.38873 0.90408 0.62354 0.0
C105 C 0.49901 0.94192 0.57734 0.0
C106 C 0.49555 0.92528 0.65548 0.0
C107 C 0.47539 0.91289 0.59128 0.0
N108 N 0.47484 0.90408 0.62979 0.0
C109 C 0.51952 0.95448 0.6426 0.0
C110 C 0.52193 0.9621 0.60314 0.0
C111 C 0.50376 0.83933 0.71048 0.0
C112 C 0.47509 0.696 0.66959 0.0
C113 C 0.4927 0.74344 0.73107 0.0
C114 C 0.51605 0.71207 0.72314 0.0
C115 C 0.50711 0.68824 0.69217 0.0
N116 N 0.46126 0.75078 0.70886 0.0
C117 C 0.45239 0.7276 0.67839 0.0
Co118 Co 0.85652 0.55164 0.36322 0.0
Co119 Co 0.7947 0.57383 0.29112 0.0
O120 O 0.80786 0.5728 0.34609 0.0
C121 C 0.80279 0.51315 0.42013 0.0
O122 O 0.78146 0.49853 0.39263 0.0
C123 C 0.77109 0.6517 0.31735 0.0
O124 O 0.80511 0.65709 0.33236 0.0
O125 O 0.84074 0.60533 0.28074 0.0
O126 O 0.88337 0.57194 0.31571 0.0
H127 H 0.82208 0.56735 0.14859 0.0
H128 H 0.81211 0.60489 0.41229 0.0
O129 O 0.83189 0.53328 0.41191 0.0
H130 H 0.94078 0.66131 0.40318 0.0
H131 H 0.94814 0.50328 0.46356 0.0
H132 H 0.9183 0.50852 0.32437 0.0
H133 H 0.92613 0.60018 0.37114 0.0
H134 H 0.89651 0.54477 0.43947 0.0
O135 O 0.76311 0.6205 0.30028 0.0
H136 H 0.83789 0.56386 0.21794 0.0
H137 H 0.72313 0.59014 0.24735 0.0
H138 H 0.97036 0.46692 0.3472 0.0
H139 H 0.82552 0.66592 0.44519 0.0
H140 H 0.984 0.46241 0.41748 0.0
H141 H 0.89023 0.6946 0.44063 0.0
O142 O 0.84453 0.50272 0.33627 0.0
H143 H 0.67765 0.53551 0.36555 0.0
H144 H 0.76133 0.50365 0.25551 0.0
H145 H 0.70601 0.46252 0.27005 0.0
H146 H 0.66367 0.47842 0.32537 0.0
H147 H 0.73347 0.57569 0.35018 0.0
H148 H 0.70613 0.59423 0.17829 0.0
H149 H 0.75577 0.58263 0.12835 0.0
O150 O 0.82546 0.5269 0.27982 0.0
C151 C 0.87508 0.59666 0.28963 0.0
C152 C 0.80016 0.57232 0.17007 0.0
C153 C 0.7351 0.58745 0.18674 0.0
N154 N 0.7814 0.57641 0.2367 0.0
C155 C 0.80892 0.57025 0.2094 0.0
C156 C 0.74492 0.58517 0.22581 0.0
C157 C 0.76296 0.58093 0.15873 0.0
C158 C 0.84033 0.6172 0.41018 0.0
N159 N 0.86822 0.59921 0.38941 0.0
C160 C 0.84776 0.65176 0.42887 0.0
C161 C 0.88406 0.66784 0.42629 0.0
C162 C 0.91242 0.64921 0.40524 0.0
C163 C 0.90392 0.61471 0.38693 0.0
C164 C 0.94185 0.50439 0.43294 0.0
C165 C 0.92511 0.50797 0.35483 0.0
C166 C 0.91279 0.52801 0.41908 0.0
N167 N 0.90393 0.52863 0.38059 0.0
C168 C 0.95435 0.48401 0.36763 0.0
C169 C 0.96202 0.48153 0.40707 0.0
C170 C 0.83906 0.49969 0.30001 0.0
C171 C 0.69582 0.52835 0.3413 0.0
C172 C 0.7431 0.51071 0.2797 0.0
C173 C 0.71177 0.48735 0.28774 0.0
C174 C 0.68802 0.4963 0.31877 0.0
N175 N 0.75049 0.54217 0.30186 0.0
C176 C 0.72739 0.55106 0.33238 0.0
Co177 Co 0.55157 0.1469 0.64708 0.0
Co178 Co 0.57403 0.20865 0.71915 0.0
O179 O 0.57283 0.19554 0.66416 0.0
C180 C 0.51328 0.20084 0.5902 0.0
O181 O 0.49893 0.22235 0.6177 0.0
C182 C 0.65187 0.23224 0.69276 0.0
O183 O 0.65724 0.19824 0.67773 0.0
O184 O 0.60553 0.16258 0.72935 0.0
O185 O 0.57195 0.12 0.69454 0.0
H186 H 0.56804 0.18103 0.86165 0.0
H187 H 0.60479 0.19124 0.59789 0.0
O188 O 0.53315 0.17156 0.59843 0.0
H189 H 0.66103 0.06248 0.60688 0.0
H190 H 0.50288 0.05537 0.54684 0.0
H191 H 0.50842 0.08518 0.68601 0.0
H192 H 0.59999 0.07722 0.63906 0.0
H193 H 0.54451 0.10692 0.57085 0.0
O194 O 0.62069 0.24021 0.70987 0.0
H195 H 0.56425 0.16535 0.79229 0.0
H196 H 0.59054 0.28014 0.76297 0.0
H197 H 0.46667 0.0332 0.66326 0.0
H198 H 0.66573 0.17773 0.56485 0.0
H199 H 0.46202 0.01956 0.59298 0.0
H200 H 0.69432 0.11298 0.56935 0.0
O201 O 0.50273 0.15896 0.67415 0.0
H202 H 0.53562 0.32587 0.64505 0.0
H203 H 0.50401 0.24202 0.75504 0.0
H204 H 0.46291 0.29743 0.74075 0.0
H205 H 0.47869 0.33986 0.68546 0.0
H206 H 0.57576 0.26996 0.66016 0.0
H207 H 0.59493 0.29701 0.83204 0.0
H208 H 0.58347 0.2473 0.88194 0.0
O209 O 0.52711 0.17791 0.73056 0.0
C210 C 0.59678 0.12826 0.7205 0.0
C211 C 0.57294 0.20299 0.84019 0.0
C212 C 0.58809 0.26806 0.82357 0.0
N213 N 0.57679 0.22186 0.77357 0.0
C214 C 0.57071 0.1943 0.80085 0.0
C215 C 0.58563 0.25832 0.78449 0.0
C216 C 0.58165 0.24016 0.85155 0.0
C217 C 0.61706 0.163 0.59997 0.0
N218 N 0.59907 0.13514 0.62078 0.0
C219 C 0.65156 0.15552 0.5812 0.0
C220 C 0.6676 0.11919 0.58375 0.0
C221 C 0.64897 0.09086 0.60484 0.0
C222 C 0.61452 0.09941 0.62323 0.0
C223 C 0.50405 0.06166 0.57745 0.0
C224 C 0.5078 0.07837 0.65556 0.0
C225 C 0.52775 0.09067 0.59126 0.0
N226 N 0.52845 0.09952 0.62976 0.0
C227 C 0.48376 0.04918 0.6428 0.0
C228 C 0.4812 0.04152 0.60337 0.0
C229 C 0.49982 0.16439 0.71043 0.0
C230 C 0.52851 0.30767 0.66929 0.0
C231 C 0.511 0.26028 0.73086 0.0
C232 C 0.48767 0.29166 0.72296 0.0
C233 C 0.49655 0.31547 0.69195 0.0
N234 N 0.54238 0.25289 0.70857 0.0
C235 C 0.55121 0.27604 0.67806 0.0
Co236 Co 0.15184 0.55324 0.64408 0.0
Co237 Co 0.21202 0.57548 0.71819 0.0
O238 O 0.20019 0.57408 0.66272 0.0
C239 C 0.21004 0.53301 0.58112 0.0
O240 O 0.23802 0.55209 0.59733 0.0
C241 C 0.23566 0.65333 0.69231 0.0
O242 O 0.20173 0.65843 0.67701 0.0
O243 O 0.16599 0.60712 0.72749 0.0
O244 O 0.12393 0.57568 0.68999 0.0
H245 H 0.18176 0.5691 0.86016 0.0
H246 H 0.19897 0.60978 0.5992 0.0
O247 O 0.1773 0.53066 0.59716 0.0
H248 H 0.06785 0.66022 0.59707 0.0
H249 H 0.06161 0.50436 0.54251 0.0
H250 H 0.08772 0.51294 0.68231 0.0
H251 H 0.08228 0.60007 0.63071 0.0
H252 H 0.11456 0.54406 0.56673 0.0
O253 O 0.24379 0.62215 0.70939 0.0
H254 H 0.1674 0.56524 0.79053 0.0
H255 H 0.28252 0.59241 0.76341 0.0
H256 H 0.03435 0.4731 0.6593 0.0
H257 H 0.18575 0.66954 0.56478 0.0
H258 H 0.02236 0.46704 0.5888 0.0
H259 H 0.11975 0.69536 0.5635 0.0
O260 O 0.16199 0.50486 0.67252 0.0
H261 H 0.33222 0.53765 0.64874 0.0
H262 H 0.24358 0.50481 0.7544 0.0
H263 H 0.29937 0.46368 0.74197 0.0
H264 H 0.34421 0.48005 0.68885 0.0
H265 H 0.2759 0.57783 0.66199 0.0
H266 H 0.29806 0.59685 0.8328 0.0
H267 H 0.24751 0.58501 0.88173 0.0
O268 O 0.18066 0.52881 0.72918 0.0
C269 C 0.13187 0.59936 0.71715 0.0
C270 C 0.20407 0.57421 0.83913 0.0
C271 C 0.26932 0.58984 0.82377 0.0
N272 N 0.22413 0.57833 0.77288 0.0
C273 C 0.19613 0.57196 0.79963 0.0
C274 C 0.26032 0.58737 0.78451 0.0
C275 C 0.24095 0.58318 0.85121 0.0
C276 C 0.17007 0.62 0.59822 0.0
N277 N 0.14134 0.60047 0.61621 0.0
C278 C 0.16279 0.65427 0.57891 0.0
C279 C 0.12579 0.66881 0.57829 0.0
C280 C 0.09669 0.64912 0.59711 0.0
C281 C 0.10507 0.61496 0.61613 0.0
C282 C 0.06703 0.50626 0.57325 0.0
C283 C 0.08174 0.51166 0.6517 0.0
C284 C 0.09687 0.52883 0.58718 0.0
N285 N 0.10452 0.53053 0.62593 0.0
C286 C 0.0517 0.48875 0.63881 0.0
C287 C 0.04492 0.48544 0.59926 0.0
C288 C 0.16675 0.50192 0.70882 0.0
C289 C 0.3129 0.53021 0.67197 0.0
C290 C 0.26279 0.51199 0.73105 0.0
C291 C 0.29442 0.48866 0.72425 0.0
C292 C 0.31959 0.49788 0.69446 0.0
N293 N 0.25642 0.54365 0.70884 0.0
C294 C 0.28098 0.55288 0.67963 0.0
Co295 Co 0.5533 0.85196 0.36662 0.0
Co296 Co 0.57535 0.79162 0.29258 0.0
O297 O 0.57407 0.80355 0.34803 0.0
C298 C 0.53304 0.79387 0.42969 0.0
O299 O 0.55204 0.76583 0.41349 0.0
C300 C 0.65325 0.76795 0.31833 0.0
O301 O 0.65842 0.80191 0.33354 0.0
O302 O 0.60701 0.83763 0.28311 0.0
O303 O 0.57569 0.87977 0.32061 0.0
H304 H 0.56872 0.82162 0.15055 0.0
H305 H 0.6098 0.80484 0.41153 0.0
O306 O 0.53076 0.82659 0.41362 0.0
H307 H 0.6605 0.93589 0.41323 0.0
H308 H 0.50471 0.94241 0.46813 0.0
H309 H 0.513 0.91605 0.32835 0.0
H310 H 0.60026 0.92148 0.37974 0.0
H311 H 0.54431 0.88938 0.44392 0.0
O312 O 0.62202 0.75983 0.30134 0.0
H313 H 0.56502 0.83612 0.22017 0.0
H314 H 0.59213 0.72102 0.24746 0.0
H315 H 0.47326 0.9695 0.35135 0.0
H316 H 0.66964 0.81804 0.44582 0.0
H317 H 0.46734 0.98161 0.42184 0.0
H318 H 0.6956 0.88401 0.44688 0.0
O319 O 0.50487 0.8418 0.33829 0.0
H320 H 0.53756 0.67159 0.36236 0.0
H321 H 0.50458 0.76005 0.25659 0.0
H322 H 0.46342 0.70432 0.26923 0.0
H323 H 0.47987 0.65958 0.32241 0.0
H324 H 0.57777 0.72785 0.3489 0.0
H325 H 0.59641 0.70534 0.1781 0.0
H326 H 0.58452 0.75581 0.12909 0.0
O327 O 0.52869 0.823 0.28162 0.0
C328 C 0.5993 0.87177 0.29341 0.0
C329 C 0.57385 0.79935 0.17162 0.0
C330 C 0.58945 0.73411 0.18708 0.0
N331 N 0.57809 0.77941 0.2379 0.0
C332 C 0.5717 0.80737 0.21111 0.0
C333 C 0.58706 0.74319 0.22633 0.0
C334 C 0.58276 0.76243 0.1596 0.0
C335 C 0.62009 0.83373 0.41242 0.0
N336 N 0.60059 0.86245 0.39438 0.0
C337 C 0.6544 0.841 0.43165 0.0
C338 C 0.66901 0.87797 0.43215 0.0
C339 C 0.64934 0.90707 0.41329 0.0
C340 C 0.61514 0.8987 0.39435 0.0
C341 C 0.50655 0.93694 0.43739 0.0
C342 C 0.51178 0.92208 0.35896 0.0
C343 C 0.52906 0.90705 0.42346 0.0
N344 N 0.53068 0.89933 0.38473 0.0
C345 C 0.48893 0.95216 0.37183 0.0
C346 C 0.4857 0.95901 0.41138 0.0
C347 C 0.50184 0.83697 0.30201 0.0
C348 C 0.53009 0.69087 0.33911 0.0
C349 C 0.5118 0.74088 0.27996 0.0
C350 C 0.48845 0.70928 0.28689 0.0
C351 C 0.49771 0.68417 0.3167 0.0
N352 N 0.54351 0.74727 0.30208 0.0
C353 C 0.55278 0.72275 0.33132 0.0
Co354 Co 0.85208 0.45008 0.64387 0.0
Co355 Co 0.79171 0.42796 0.71787 0.0
O356 O 0.80368 0.42928 0.66243 0.0
C357 C 0.79397 0.47032 0.58083 0.0
O358 O 0.76596 0.45131 0.59706 0.0
C359 C 0.76811 0.35008 0.69202 0.0
O360 O 0.80208 0.34496 0.67681 0.0
O361 O 0.83773 0.39633 0.72735 0.0
O362 O 0.87988 0.4277 0.68989 0.0
H363 H 0.8216 0.43456 0.85992 0.0
H364 H 0.80504 0.39358 0.59888 0.0
O365 O 0.82671 0.47262 0.59687 0.0
H366 H 0.93611 0.34295 0.5973 0.0
H367 H 0.94256 0.49875 0.54241 0.0
H368 H 0.91612 0.49042 0.68217 0.0
H369 H 0.92163 0.40317 0.6308 0.0
H370 H 0.88953 0.45912 0.56659 0.0
O371 O 0.75997 0.38128 0.70907 0.0
H372 H 0.83615 0.4383 0.79031 0.0
H373 H 0.7211 0.41109 0.76294 0.0
H374 H 0.96957 0.53019 0.6592 0.0
H375 H 0.8183 0.33376 0.56459 0.0
H376 H 0.98173 0.53613 0.58872 0.0
H377 H 0.88428 0.30784 0.56358 0.0
O378 O 0.84187 0.4985 0.67221 0.0
H379 H 0.67168 0.46566 0.64806 0.0
H380 H 0.76008 0.4987 0.75386 0.0
H381 H 0.70433 0.53982 0.7412 0.0
H382 H 0.65961 0.52334 0.68801 0.0
H383 H 0.72796 0.4255 0.66153 0.0
H384 H 0.70537 0.40677 0.83229 0.0
H385 H 0.75579 0.41869 0.88133 0.0
O386 O 0.82305 0.47464 0.72886 0.0
C387 C 0.87188 0.40408 0.71708 0.0
C388 C 0.79935 0.42942 0.83883 0.0
C389 C 0.73414 0.41377 0.82333 0.0
N390 N 0.77947 0.42518 0.77254 0.0
C391 C 0.8074 0.4316 0.79935 0.0
C392 C 0.74324 0.41617 0.78409 0.0
C393 C 0.76243 0.42047 0.85083 0.0
C394 C 0.83393 0.38331 0.59802 0.0
N395 N 0.86262 0.40281 0.6161 0.0
C396 C 0.84124 0.34901 0.57878 0.0
C397 C 0.87822 0.33442 0.57832 0.0
C398 C 0.90728 0.35409 0.59721 0.0
C399 C 0.89888 0.38828 0.61616 0.0
C400 C 0.93707 0.49691 0.57314 0.0
C401 C 0.92217 0.49165 0.65157 0.0
C402 C 0.90718 0.47438 0.58705 0.0
N403 N 0.89945 0.47275 0.62578 0.0
C404 C 0.95225 0.51452 0.63871 0.0
C405 C 0.95912 0.51776 0.59916 0.0
C406 C 0.83702 0.5015 0.70849 0.0
C407 C 0.69095 0.47315 0.67131 0.0
C408 C 0.74092 0.49147 0.73048 0.0
C409 C 0.70931 0.5148 0.72354 0.0
C410 C 0.68421 0.50552 0.69372 0.0
N411 N 0.74734 0.45977 0.70835 0.0
C412 C 0.72284 0.45048 0.67911 0.0
Co413 Co 0.45033 0.15186 0.36646 0.0
Co414 Co 0.42817 0.21211 0.29236 0.0
O415 O 0.42956 0.20026 0.34783 0.0
C416 C 0.47071 0.20999 0.42945 0.0
O417 O 0.4517 0.23804 0.41326 0.0
C418 C 0.35036 0.23587 0.31828 0.0
O419 O 0.34525 0.20195 0.33361 0.0
O420 O 0.39646 0.1661 0.28305 0.0
O421 O 0.42784 0.124 0.32054 0.0
H422 H 0.43449 0.18187 0.15038 0.0
H423 H 0.39392 0.19907 0.41138 0.0
O424 O 0.47296 0.17727 0.41338 0.0
H425 H 0.34319 0.06805 0.41345 0.0
H426 H 0.49906 0.06152 0.46802 0.0
H427 H 0.49054 0.08771 0.32821 0.0
H428 H 0.40337 0.08238 0.37981 0.0
H429 H 0.45943 0.11453 0.4438 0.0
O430 O 0.38154 0.24394 0.30117 0.0
H431 H 0.43833 0.16749 0.22002 0.0
H432 H 0.41133 0.28264 0.24715 0.0
H433 H 0.5303 0.03428 0.35123 0.0
H434 H 0.33414 0.18596 0.44581 0.0
H435 H 0.53635 0.02225 0.42172 0.0
H436 H 0.30817 0.12 0.44706 0.0
O437 O 0.49871 0.16196 0.33802 0.0
H438 H 0.46618 0.33222 0.36185 0.0
H439 H 0.49887 0.24359 0.25615 0.0
H440 H 0.54008 0.29932 0.26859 0.0
H441 H 0.52379 0.34415 0.32173 0.0
H442 H 0.42592 0.27596 0.34859 0.0
H443 H 0.40691 0.29821 0.17776 0.0
H444 H 0.41867 0.24765 0.12882 0.0
O445 O 0.47479 0.18069 0.28137 0.0
C446 C 0.40417 0.13197 0.29338 0.0
C447 C 0.42941 0.20418 0.17142 0.0
C448 C 0.41389 0.26945 0.18679 0.0
N449 N 0.42532 0.22423 0.23767 0.0
C450 C 0.43165 0.19623 0.21092 0.0
C451 C 0.41635 0.26044 0.22605 0.0
C452 C 0.4205 0.24108 0.15935 0.0
C453 C 0.38363 0.1702 0.41235 0.0
N454 N 0.40308 0.14143 0.39433 0.0
C455 C 0.34935 0.16297 0.43166 0.0
C456 C 0.33473 0.126 0.43226 0.0
C457 C 0.35435 0.09687 0.41343 0.0
C458 C 0.38852 0.10519 0.3944 0.0
C459 C 0.49717 0.06696 0.43727 0.0
C460 C 0.49181 0.08171 0.35883 0.0
C461 C 0.47465 0.09683 0.42335 0.0
N462 N 0.47296 0.1045 0.3846 0.0
C463 C 0.51467 0.05164 0.37171 0.0
C464 C 0.51797 0.04485 0.41126 0.0
C465 C 0.50167 0.16674 0.30172 0.0
C466 C 0.47359 0.3129 0.33861 0.0
C467 C 0.49172 0.2628 0.2795 0.0
C468 C 0.51509 0.2944 0.28632 0.0
C469 C 0.50592 0.31956 0.31611 0.0
N470 N 0.46006 0.25646 0.30171 0.0
C471 C 0.45087 0.28102 0.33094 0.0
Co472 Co 0.65177 0.9505 0.86648 0.0
Co473 Co 0.71206 0.92822 0.79247 0.0
O474 O 0.70014 0.92962 0.84792 0.0
C475 C 0.7099 0.97072 0.92951 0.0
O476 O 0.73789 0.95164 0.91332 0.0
C477 C 0.73562 0.85034 0.81835 0.0
O478 O 0.70165 0.84525 0.83358 0.0
O479 O 0.66603 0.8966 0.7831 0.0
O480 O 0.62393 0.92806 0.82052 0.0
H481 H 0.68204 0.9346 0.65044 0.0
H482 H 0.69879 0.89395 0.91146 0.0
O483 O 0.67718 0.97307 0.91344 0.0
H484 H 0.56762 0.84358 0.91337 0.0
H485 H 0.56141 0.99951 0.96787 0.0
H486 H 0.58775 0.9908 0.82811 0.0
H487 H 0.58216 0.90372 0.87974 0.0
H488 H 0.61437 0.95975 0.94377 0.0
O489 O 0.74379 0.88153 0.80132 0.0
H490 H 0.66757 0.93846 0.72005 0.0
H491 H 0.78263 0.91127 0.74736 0.0
H492 H 0.53436 0.03069 0.85101 0.0
H493 H 0.68547 0.83421 0.94587 0.0
H494 H 0.52226 0.03682 0.92148 0.0
H495 H 0.61945 0.80842 0.94704 0.0
O496 O 0.66201 0.99886 0.83806 0.0
H497 H 0.83217 0.96599 0.86211 0.0
H498 H 0.74371 0.99888 0.75632 0.0
H499 H 0.7995 0.04 0.76885 0.0
H500 H 0.84424 0.02359 0.82203 0.0
H501 H 0.77585 0.92583 0.84876 0.0
H502 H 0.79829 0.90682 0.678 0.0
H503 H 0.74783 0.91867 0.62899 0.0
O504 O 0.68074 0.97489 0.78143 0.0
C505 C 0.63189 0.90438 0.79338 0.0
C506 C 0.70431 0.92949 0.67151 0.0
C507 C 0.76954 0.91385 0.68698 0.0
N508 N 0.72426 0.92536 0.7378 0.0
C509 C 0.69631 0.93174 0.711 0.0
C510 C 0.76047 0.91632 0.72623 0.0
C511 C 0.74121 0.92051 0.6595 0.0
C512 C 0.66988 0.88374 0.91239 0.0
N513 N 0.64119 0.90328 0.89434 0.0
C514 C 0.66254 0.84948 0.9317 0.0
C515 C 0.62553 0.83496 0.93225 0.0
C516 C 0.59647 0.85467 0.91338 0.0
C517 C 0.60491 0.88881 0.89437 0.0
C518 C 0.56688 0.99758 0.93714 0.0
C519 C 0.58172 0.99211 0.85872 0.0
C520 C 0.59673 0.97498 0.92327 0.0
N521 N 0.60444 0.97325 0.88454 0.0
C522 C 0.55168 0.01505 0.87154 0.0
C523 C 0.54484 0.0184 0.91107 0.0
C524 C 0.6668 1.0018 0.80176 0.0
C525 C 0.81289 0.97344 0.83886 0.0
C526 C 0.76288 0.99169 0.7797 0.0
C527 C 0.79451 0.01501 0.78656 0.0
C528 C 0.81963 0.00577 0.81638 0.0
N529 N 0.75646 0.96003 0.80189 0.0
C530 C 0.78097 0.95078 0.83114 0.0
Co531 Co 0.95061 0.35178 0.14417 0.0
Co532 Co 0.92836 0.29149 0.21821 0.0
O533 O 0.9298 0.30338 0.16275 0.0
C534 C 0.971 0.29364 0.08121 0.0
O535 O 0.95196 0.26562 0.09741 0.0
C536 C 0.85055 0.26784 0.19224 0.0
O537 O 0.84548 0.30178 0.17695 0.0
O538 O 0.89668 0.3375 0.22753 0.0
O539 O 0.92808 0.37963 0.19008 0.0
H540 H 0.93459 0.3216 0.36022 0.0
H541 H 0.8942 0.30462 0.09918 0.0
O542 O 0.97328 0.32637 0.09726 0.0
H543 H 0.84363 0.4357 0.09704 0.0
H544 H 0.99964 0.4421 0.04273 0.0
H545 H 0.99079 0.41589 0.18251 0.0
H546 H 0.90374 0.42131 0.13076 0.0
H547 H 0.95989 0.38913 0.06685 0.0
O548 O 0.88172 0.2597 0.20934 0.0
H549 H 0.9385 0.33604 0.29061 0.0
H550 H 0.91145 0.22093 0.26335 0.0
H551 H 0.03066 0.46929 0.1596 0.0
H552 H 0.83449 0.3178 0.06467 0.0
H553 H 0.03687 0.48132 0.08912 0.0
H554 H 0.8086 0.38378 0.06338 0.0
O555 O 0.99896 0.34164 0.17265 0.0
H556 H 0.96634 0.17139 0.14868 0.0
H557 H 0.99903 0.25996 0.25444 0.0
H558 H 0.04022 0.20422 0.24198 0.0
H559 H 0.02392 0.15942 0.18882 0.0
H560 H 0.9261 0.22767 0.16196 0.0
H561 H 0.90696 0.2053 0.33272 0.0
H562 H 0.91871 0.25581 0.38171 0.0
O563 O 0.975 0.32289 0.22927 0.0
C564 C 0.90439 0.37163 0.21721 0.0
C565 C 0.92952 0.29931 0.33916 0.0
C566 C 0.91396 0.23406 0.32372 0.0
N567 N 0.92547 0.27932 0.27289 0.0
C568 C 0.93179 0.3073 0.29967 0.0
C569 C 0.91646 0.24311 0.28447 0.0
C570 C 0.92057 0.26241 0.35119 0.0
C571 C 0.88394 0.33351 0.0982 0.0
N572 N 0.90341 0.36225 0.11624 0.0
C573 C 0.8497 0.34077 0.07884 0.0
C574 C 0.83513 0.37776 0.07822 0.0
C575 C 0.85476 0.40687 0.09708 0.0
C576 C 0.88889 0.39851 0.11615 0.0
C577 C 0.99768 0.43666 0.07347 0.0
C578 C 0.99212 0.42189 0.1519 0.0
C579 C 0.97508 0.40681 0.08734 0.0
N580 N 0.97331 0.39913 0.12608 0.0
C581 C 0.01505 0.45194 0.13907 0.0
C582 C 0.01845 0.45874 0.09953 0.0
C583 C 0.00189 0.33686 0.20894 0.0
C584 C 0.97375 0.1907 0.17193 0.0
C585 C 0.99188 0.24077 0.23107 0.0
C586 C 0.01524 0.20916 0.22425 0.0
C587 C 0.00606 0.18402 0.19444 0.0
N588 N 0.96024 0.24713 0.20885 0.0
C589 C 0.95104 0.22259 0.17961 0.0
Co590 Co 0.352 0.05337 0.86682 0.0
Co591 Co 0.29167 0.07543 0.79276 0.0
O592 O 0.30359 0.07409 0.84821 0.0
C593 C 0.29385 0.03298 0.92978 0.0
O594 O 0.26582 0.05195 0.91352 0.0
C595 C 0.26804 0.15328 0.81861 0.0
O596 O 0.30199 0.15838 0.83386 0.0
O597 O 0.33766 0.1071 0.78333 0.0
O598 O 0.37983 0.07583 0.82086 0.0
H599 H 0.32167 0.06889 0.65074 0.0
H600 H 0.30479 0.10974 0.91179 0.0
O601 O 0.32661 0.03075 0.91377 0.0
H602 H 0.43575 0.16064 0.91358 0.0
H603 H 0.44244 0.00487 0.96839 0.0
H604 H 0.41617 0.01315 0.82859 0.0
H605 H 0.42144 0.10042 0.88001 0.0
H606 H 0.38936 0.04438 0.94415 0.0
O607 O 0.2599 0.12209 0.80156 0.0
H608 H 0.33616 0.06514 0.72035 0.0
H609 H 0.22108 0.09226 0.74765 0.0
H610 H 0.46967 0.97349 0.85164 0.0
H611 H 0.31789 0.16956 0.94615 0.0
H612 H 0.48175 0.96758 0.92213 0.0
H613 H 0.38381 0.19561 0.94726 0.0
O614 O 0.34194 0.00495 0.83843 0.0
H615 H 0.1716 0.0376 0.86245 0.0
H616 H 0.26013 0.00467 0.75674 0.0
H617 H 0.2044 0.96349 0.76933 0.0
H618 H 0.15961 0.97992 0.82248 0.0
H619 H 0.22786 0.07782 0.84904 0.0
H620 H 0.2054 0.09658 0.67828 0.0
H621 H 0.25586 0.08472 0.62928 0.0
O622 O 0.32305 0.02878 0.78179 0.0
C623 C 0.37181 0.09943 0.79365 0.0
C624 C 0.2994 0.07401 0.67181 0.0
C625 C 0.23416 0.08961 0.68727 0.0
N626 N 0.27946 0.07821 0.73809 0.0
C627 C 0.30741 0.07183 0.7113 0.0
C628 C 0.24324 0.0872 0.72652 0.0
C629 C 0.26248 0.08293 0.65979 0.0
C630 C 0.33366 0.12007 0.9127 0.0
N631 N 0.36241 0.10064 0.89464 0.0
C632 C 0.34087 0.15437 0.93198 0.0
C633 C 0.37782 0.16904 0.93249 0.0
C634 C 0.40695 0.14944 0.91362 0.0
C635 C 0.39864 0.11525 0.89464 0.0
C636 C 0.43699 0.0067 0.93765 0.0
C637 C 0.42218 0.01193 0.85921 0.0
C638 C 0.40707 0.02916 0.92371 0.0
N639 N 0.39939 0.03079 0.88497 0.0
C640 C 0.45229 0.98913 0.87211 0.0
C641 C 0.45912 0.9859 0.91166 0.0
C642 C 0.33708 0.00195 0.80214 0.0
C643 C 0.1909 0.03014 0.83921 0.0
C644 C 0.24094 0.01187 0.7801 0.0
C645 C 0.20934 0.98852 0.78699 0.0
C646 C 0.18421 0.99777 0.81679 0.0
N647 N 0.24731 0.04357 0.80223 0.0
C648 C 0.22278 0.05284 0.83146 0.0
Co649 Co 0.05319 0.65172 0.14383 0.0
Co650 Co 0.075 0.71214 0.21791 0.0
O651 O 0.07381 0.70018 0.16247 0.0
C652 C 0.03277 0.7098 0.0808 0.0
O653 O 0.05166 0.73789 0.09703 0.0
C654 C 0.15291 0.73579 0.19226 0.0
O655 O 0.15804 0.70184 0.17702 0.0
O656 O 0.10667 0.66617 0.22749 0.0
O657 O 0.07562 0.62395 0.18984 0.0
H658 H 0.06804 0.6823 0.35995 0.0
H659 H 0.10955 0.69905 0.09895 0.0
O660 O 0.03061 0.67705 0.09683 0.0
H661 H 0.16074 0.5682 0.09728 0.0
H662 H 0.00507 0.56118 0.04218 0.0
H663 H 0.01301 0.58749 0.18199 0.0
H664 H 0.10041 0.58238 0.13072 0.0
H665 H 0.04445 0.61433 0.0665 0.0
O666 O 0.12167 0.74394 0.20921 0.0
H667 H 0.06456 0.66771 0.29034 0.0
H668 H 0.09161 0.7828 0.26298 0.0
H669 H 0.97348 0.53392 0.15888 0.0
H670 H 0.16947 0.68609 0.06472 0.0
H671 H 0.96773 0.52183 0.08837 0.0
H672 H 0.19567 0.62023 0.06367 0.0
O673 O 0.0047 0.66169 0.17212 0.0
H674 H 0.03731 0.83211 0.14795 0.0
H675 H 0.0041 0.74367 0.25368 0.0
H676 H 0.96292 0.79935 0.24088 0.0
H677 H 0.97948 0.84408 0.18773 0.0
H678 H 0.07753 0.7759 0.16157 0.0
H679 H 0.09567 0.79858 0.33234 0.0
H680 H 0.08369 0.74815 0.38138 0.0
O681 O 0.02835 0.68074 0.22879 0.0
C682 C 0.0991 0.63201 0.21714 0.0
C683 C 0.0732 0.70455 0.33887 0.0
C684 C 0.08877 0.76979 0.32337 0.0
N685 N 0.07761 0.72441 0.27257 0.0
C686 C 0.07118 0.69648 0.29938 0.0
C687 C 0.08651 0.76066 0.28413 0.0
C688 C 0.08203 0.74149 0.35087 0.0
C689 C 0.11995 0.67021 0.09807 0.0
N690 N 0.10054 0.64141 0.11609 0.0
C691 C 0.1543 0.66307 0.07886 0.0
C692 C 0.16905 0.62616 0.07838 0.0
C693 C 0.14947 0.59698 0.09722 0.0
C694 C 0.11523 0.60522 0.11613 0.0
C695 C 0.00683 0.56664 0.07293 0.0
C696 C 0.01187 0.58147 0.15138 0.0
C697 C 0.02921 0.59659 0.08691 0.0
N698 N 0.03074 0.60429 0.12565 0.0
C699 C 0.98913 0.55132 0.13844 0.0
C700 C 0.986 0.54448 0.09888 0.0
C701 C 1.0016 0.66661 0.20839 0.0
C702 C 0.02979 0.81283 0.1712 0.0
C703 C 0.01136 0.76284 0.23032 0.0
C704 C 0.98801 0.79441 0.2233 0.0
C705 C 0.99733 0.81951 0.1935 0.0
N706 N 0.04314 0.75647 0.20829 0.0
C707 C 0.05248 0.78098 0.17907 0.0
Co708 Co 0.64704 0.05183 0.14707 0.0
Co709 Co 0.70864 0.07402 0.21934 0.0
O710 O 0.69567 0.07294 0.16432 0.0
C711 C 0.70089 0.01334 0.09024 0.0
O712 O 0.72218 0.99871 0.11776 0.0
C713 C 0.73247 0.15182 0.19306 0.0
O714 O 0.69853 0.15722 0.17787 0.0
O715 O 0.6626 0.10558 0.22949 0.0
O716 O 0.62006 0.07214 0.19449 0.0
H717 H 0.68066 0.06776 0.36175 0.0
H718 H 0.69161 0.10503 0.09807 0.0
O719 O 0.67177 0.03345 0.09844 0.0
H720 H 0.56301 0.16162 0.10694 0.0
H721 H 0.55564 0.00369 0.04642 0.0
H722 H 0.58513 0.00865 0.18569 0.0
H723 H 0.57751 0.10046 0.13901 0.0
H724 H 0.60723 0.04512 0.07071 0.0
O725 O 0.74032 0.12065 0.21024 0.0
H726 H 0.66515 0.06416 0.29234 0.0
H727 H 0.78006 0.09033 0.26338 0.0
H728 H 0.53314 0.96708 0.16264 0.0
H729 H 0.67834 0.16607 0.06513 0.0
H730 H 0.51967 0.96271 0.09232 0.0
H731 H 0.61367 0.19485 0.06958 0.0
O732 O 0.65891 0.0029 0.17407 0.0
H733 H 0.82595 0.03551 0.14544 0.0
H734 H 0.74182 0.00388 0.25519 0.0
H735 H 0.79717 0.9627 0.24097 0.0
H736 H 0.83975 0.97849 0.18579 0.0
H737 H 0.77009 0.07574 0.1605 0.0
H738 H 0.79675 0.09454 0.33251 0.0
H739 H 0.7469 0.08305 0.38225 0.0
O740 O 0.6778 0.02712 0.23057 0.0
C741 C 0.62828 0.0969 0.22054 0.0
C742 C 0.70268 0.07268 0.34036 0.0
C743 C 0.76782 0.08776 0.32395 0.0
N744 N 0.72173 0.07665 0.2738 0.0
C745 C 0.69409 0.07055 0.30099 0.0
C746 C 0.75817 0.08541 0.28484 0.0
C747 C 0.73983 0.0813 0.35184 0.0
C748 C 0.6634 0.11737 0.10012 0.0
N749 N 0.63545 0.09942 0.12084 0.0
C750 C 0.65606 0.15194 0.08141 0.0
C751 C 0.61977 0.16807 0.08393 0.0
C752 C 0.59135 0.14948 0.10493 0.0
C753 C 0.59977 0.11497 0.12326 0.0
C754 C 0.56186 0.00473 0.07705 0.0
C755 C 0.5784 0.00816 0.15521 0.0
C756 C 0.59089 0.02832 0.09103 0.0
N757 N 0.59965 0.02886 0.12955 0.0
C758 C 0.5492 0.98422 0.14229 0.0
C759 C 0.54162 0.98182 0.10283 0.0
C760 C 0.66428 0.9999 0.21036 0.0
C761 C 0.80768 0.0284 0.16963 0.0
C762 C 0.76014 0.01088 0.23107 0.0
C763 C 0.79149 0.9875 0.2232 0.0
C764 C 0.81538 0.99639 0.19225 0.0
N765 N 0.75286 0.04231 0.20882 0.0
C766 C 0.77609 0.05114 0.17837 0.0
Co767 Co 0.05181 0.35662 0.86355 0.0
Co768 Co 0.07414 0.29495 0.79138 0.0
O769 O 0.07301 0.308 0.84638 0.0
C770 C 0.01352 0.30269 0.92044 0.0
O771 O 0.99906 0.28125 0.89295 0.0
C772 C 0.15196 0.27127 0.81771 0.0
O773 O 0.15733 0.30524 0.83283 0.0
O774 O 0.10564 0.34102 0.78118 0.0
O775 O 0.07211 0.38357 0.81608 0.0
H776 H 0.06794 0.32273 0.64892 0.0
H777 H 0.10506 0.31222 0.91263 0.0
O778 O 0.03345 0.33193 0.91221 0.0
H779 H 0.16142 0.44093 0.90359 0.0
H780 H 0.00341 0.44808 0.96401 0.0
H781 H 0.00857 0.4184 0.82479 0.0
H782 H 0.1003 0.42626 0.87152 0.0
H783 H 0.04495 0.39654 0.93983 0.0
O784 O 0.12079 0.26336 0.80055 0.0
H785 H 0.06427 0.33833 0.71831 0.0
H786 H 0.09056 0.2235 0.74745 0.0
H787 H 0.96689 0.47036 0.84771 0.0
H788 H 0.16607 0.32565 0.94557 0.0
H789 H 0.96243 0.48392 0.91801 0.0
H790 H 0.19472 0.39038 0.94104 0.0
O791 O 0.00291 0.34462 0.83654 0.0
H792 H 0.03576 0.17766 0.8654 0.0
H793 H 0.00405 0.26164 0.75555 0.0
H794 H 0.96295 0.20623 0.76983 0.0
H795 H 0.97878 0.16374 0.82505 0.0
H796 H 0.07591 0.23357 0.8503 0.0
H797 H 0.09483 0.20672 0.67834 0.0
H798 H 0.08332 0.25649 0.62853 0.0
O799 O 0.02721 0.32571 0.78008 0.0
C800 C 0.0969 0.37534 0.79007 0.0
C801 C 0.07286 0.30075 0.67035 0.0
C802 C 0.08801 0.23566 0.68686 0.0
N803 N 0.07681 0.2818 0.73694 0.0
C804 C 0.0707 0.30939 0.7097 0.0
C805 C 0.08562 0.24535 0.72596 0.0
C806 C 0.08154 0.26359 0.65893 0.0
C807 C 0.11735 0.34045 0.91054 0.0
N808 N 0.09936 0.36834 0.88977 0.0
C809 C 0.1519 0.34789 0.92925 0.0
C810 C 0.16797 0.38421 0.92669 0.0
C811 C 0.14933 0.41256 0.90564 0.0
C812 C 0.11484 0.40405 0.88731 0.0
C813 C 0.0045 0.44182 0.93339 0.0
C814 C 0.00803 0.42517 0.85525 0.0
C815 C 0.02815 0.41281 0.91948 0.0
N816 N 0.02874 0.404 0.88097 0.0
C817 C 0.98403 0.45436 0.8681 0.0
C818 C 0.98158 0.46198 0.90755 0.0
C819 C 0.99995 0.33922 0.80026 0.0
C820 C 0.02863 0.1959 0.84119 0.0
C821 C 0.01107 0.24335 0.7797 0.0
C822 C 0.98773 0.21197 0.78759 0.0
C823 C 0.99664 0.18813 0.81857 0.0
N824 N 0.04248 0.2507 0.80195 0.0
C825 C 0.05133 0.22752 0.83242 0.0
Co826 Co 0.35642 0.95179 0.1474 0.0
Co827 Co 0.2948 0.92959 0.21965 0.0
O828 O 0.30779 0.93065 0.16464 0.0
C829 C 0.30261 0.99024 0.0905 0.0
O830 O 0.28131 0.0049 0.11799 0.0
C831 C 0.27103 0.85177 0.1934 0.0
O832 O 0.30498 0.84638 0.17823 0.0
O833 O 0.34086 0.89806 0.22984 0.0
O834 O 0.38338 0.93154 0.19486 0.0
H835 H 0.32271 0.93594 0.36208 0.0
H836 H 0.31194 0.89851 0.09843 0.0
O837 O 0.33171 0.97011 0.09873 0.0
H838 H 0.44061 0.84207 0.10741 0.0
H839 H 0.44786 1.00003 0.04682 0.0
H840 H 0.41825 0.99502 0.18606 0.0
H841 H 0.42602 0.90324 0.13941 0.0
H842 H 0.3963 0.95854 0.07107 0.0
O843 O 0.26315 0.88294 0.21057 0.0
H844 H 0.33825 0.93952 0.29267 0.0
H845 H 0.22338 0.91325 0.26368 0.0
H846 H 0.47024 0.03663 0.16306 0.0
H847 H 0.32529 0.83745 0.06557 0.0
H848 H 0.48376 0.04103 0.09275 0.0
H849 H 0.39 0.80875 0.07007 0.0
O850 O 0.34447 1.00073 0.17434 0.0
H851 H 0.1775 0.96799 0.14568 0.0
H852 H 0.26156 0.99972 0.25545 0.0
H853 H 0.20618 0.04085 0.24118 0.0
H854 H 0.16364 0.02501 0.186 0.0
H855 H 0.23338 0.92781 0.16079 0.0
H856 H 0.20666 0.90906 0.33281 0.0
H857 H 0.25648 0.92061 0.38256 0.0
O858 O 0.3256 0.97652 0.23086 0.0
C859 C 0.37517 0.90677 0.2209 0.0
C860 C 0.30071 0.931 0.34068 0.0
C861 C 0.23559 0.91586 0.32425 0.0
N862 N 0.28169 0.92698 0.27412 0.0
C863 C 0.30932 0.93311 0.30131 0.0
C864 C 0.24525 0.9182 0.28515 0.0
C865 C 0.26356 0.92235 0.35215 0.0
C866 C 0.34016 0.8862 0.10051 0.0
N867 N 0.36808 0.9042 0.12122 0.0
C868 C 0.34756 0.85162 0.08184 0.0
C869 C 0.38386 0.83553 0.08439 0.0
C870 C 0.41225 0.85418 0.10538 0.0
C871 C 0.40378 0.8887 0.12367 0.0
C872 C 0.44161 0.99897 0.07745 0.0
C873 C 0.42501 0.99552 0.15559 0.0
C874 C 0.4126 0.97536 0.0914 0.0
N875 N 0.4038 0.9748 0.12991 0.0
C876 C 0.45421 0.01948 0.1427 0.0
C877 C 0.46181 0.0219 0.10324 0.0
C878 C 0.33909 0.00375 0.21062 0.0
C879 C 0.19575 0.97512 0.16988 0.0
C880 C 0.24325 0.99269 0.23132 0.0
C881 C 0.21189 0.01605 0.22343 0.0
C882 C 0.18802 0.00714 0.19248 0.0
N883 N 0.25057 0.96126 0.20909 0.0
C884 C 0.22736 0.95241 0.17864 0.0
Co885 Co 0.95175 0.64689 0.86319 0.0
Co886 Co 0.92943 0.70855 0.79101 0.0
O887 O 0.93052 0.69551 0.84602 0.0
C888 C 0.99004 0.70079 0.92009 0.0
O889 O 0.00452 0.72221 0.89259 0.0
C890 C 0.85159 0.73223 0.81731 0.0
O891 O 0.8462 0.69827 0.83244 0.0
O892 O 0.89794 0.66247 0.78081 0.0
O893 O 0.93149 0.61995 0.81572 0.0
H894 H 0.93572 0.68078 0.64856 0.0
H895 H 0.89841 0.69124 0.91224 0.0
O896 O 0.97006 0.67158 0.91186 0.0
H897 H 0.84219 0.56247 0.90318 0.0
H898 H 1.00022 0.55542 0.96363 0.0
H899 H 0.99501 0.58516 0.82442 0.0
H900 H 0.90332 0.5772 0.87115 0.0
H901 H 0.95864 0.60695 0.93948 0.0
O902 O 0.88276 0.74014 0.80015 0.0
H903 H 0.93936 0.66518 0.71795 0.0
H904 H 0.913 0.78 0.74705 0.0
H905 H 0.03671 0.53321 0.84731 0.0
H906 H 0.8374 0.67774 0.94513 0.0
H907 H 0.0412 0.51962 0.91761 0.0
H908 H 0.80881 0.61298 0.9406 0.0
O909 O 1.00064 0.65895 0.83623 0.0
H910 H 0.96774 0.82584 0.86504 0.0
H911 H 0.99951 0.74189 0.7552 0.0
H912 H 0.04059 0.79731 0.76949 0.0
H913 H 0.02473 0.83979 0.8247 0.0
H914 H 0.92761 0.76992 0.84992 0.0
H915 H 0.90876 0.79678 0.67794 0.0
H916 H 0.92032 0.74701 0.62814 0.0
O917 O 0.97637 0.6778 0.77974 0.0
C918 C 0.9067 0.62816 0.7897 0.0
C919 C 0.93077 0.70275 0.66998 0.0
C920 C 0.91559 0.76784 0.68647 0.0
N921 N 0.92678 0.7217 0.73656 0.0
C922 C 0.93292 0.69411 0.70933 0.0
C923 C 0.91796 0.75815 0.72557 0.0
C924 C 0.92209 0.73991 0.65854 0.0
C925 C 0.88615 0.66299 0.91014 0.0
N926 N 0.90419 0.63513 0.88939 0.0
C927 C 0.8516 0.65552 0.92883 0.0
C928 C 0.83557 0.61919 0.92626 0.0
C929 C 0.85425 0.59085 0.90523 0.0
C930 C 0.88875 0.59939 0.88693 0.0
C931 C 0.99912 0.5617 0.93301 0.0
C932 C 0.99556 0.57837 0.85488 0.0
C933 C 0.97545 0.5907 0.91911 0.0
N934 N 0.97484 0.59953 0.88061 0.0
C935 C 0.01957 0.54919 0.86772 0.0
C936 C 0.02204 0.54155 0.90716 0.0
C937 C 0.00363 0.66434 0.79995 0.0
C938 C 0.97488 0.80761 0.84083 0.0
C939 C 0.99248 0.76017 0.77935 0.0
C940 C 0.01581 0.79156 0.78725 0.0
C941 C 0.00688 0.81539 0.81822 0.0
N942 N 0.96107 0.75281 0.80159 0.0
C943 C 0.9522 0.77598 0.83206 0.0
C944 C 0.29885 0.32971 0.30437 0.0
C945 C 0.26235 0.32209 0.31942 0.0
H946 H 0.35476 0.30897 0.29241 0.0
C947 C 0.25511 0.28582 0.33535 0.0
H948 H 0.3057 0.35733 0.29209 0.0
C949 C 0.28368 0.25766 0.33554 0.0
C950 C 0.31995 0.26533 0.31981 0.0
H951 H 0.22733 0.27907 0.34728 0.0
H952 H 0.27725 0.22987 0.34761 0.0
C953 C 0.32716 0.30181 0.30455 0.0
C954 C 0.28548 0.74871 0.67544 0.0
C955 C 0.32177 0.74146 0.69129 0.0
H956 H 0.22953 0.72653 0.66319 0.0
C957 C 0.32946 0.70492 0.70621 0.0
H958 H 0.27868 0.77652 0.6636 0.0
C959 C 0.3016 0.67658 0.70598 0.0
C960 C 0.26508 0.68379 0.69081 0.0
H961 H 0.3571 0.69806 0.71842 0.0
H962 H 0.3088 0.64895 0.71802 0.0
C963 C 0.25735 0.72009 0.6752 0.0
C964 C 0.67634 0.70192 0.30484 0.0
C965 C 0.68366 0.73849 0.31983 0.0
H966 H 0.69771 0.64634 0.29253 0.0
C967 C 0.72004 0.74623 0.33526 0.0
H968 H 0.64866 0.6947 0.29295 0.0
C969 C 0.74862 0.71807 0.33501 0.0
C970 C 0.74126 0.68173 0.31932 0.0
H971 H 0.72656 0.77409 0.34712 0.0
H972 H 0.77648 0.72489 0.34668 0.0
C973 C 0.70465 0.67402 0.30459 0.0
C974 C 0.67418 0.29867 0.70557 0.0
C975 C 0.6819 0.26208 0.69081 0.0
H976 H 0.69485 0.35464 0.71731 0.0
C977 C 0.71825 0.25474 0.67515 0.0
H978 H 0.64649 0.3056 0.71762 0.0
C979 C 0.74641 0.28332 0.67496 0.0
C980 C 0.73866 0.31967 0.69044 0.0
H981 H 0.72507 0.22688 0.66345 0.0
H982 H 0.77429 0.27681 0.66312 0.0
C983 C 0.70208 0.32697 0.70539 0.0
C984 C 0.80155 0.82706 0.80474 0.0
C985 C 0.76501 0.81986 0.81984 0.0
H986 H 0.85704 0.80555 0.79232 0.0
C987 C 0.75721 0.78352 0.83536 0.0
H988 H 0.8088 0.85471 0.79277 0.0
C989 C 0.78531 0.75488 0.83509 0.0
C990 C 0.82162 0.76213 0.81929 0.0
H991 H 0.72937 0.77709 0.84731 0.0
H992 H 0.77846 0.72705 0.84684 0.0
C993 C 0.82938 0.79869 0.80447 0.0
C994 C 0.75517 0.21808 0.17526 0.0
C995 C 0.76236 0.1818 0.19115 0.0
H996 H 0.77741 0.27401 0.16301 0.0
C997 C 0.79887 0.17408 0.20613 0.0
H998 H 0.72738 0.2249 0.16338 0.0
C999 C 0.82724 0.20192 0.20592 0.0
C1000 C 0.82008 0.23843 0.19071 0.0
H1001 H 0.80569 0.14644 0.21836 0.0
H1002 H 0.85484 0.1947 0.218 0.0
C1003 C 0.78381 0.24618 0.17504 0.0
C1004 C 0.17423 0.20485 0.80479 0.0
C1005 C 0.18195 0.2414 0.81966 0.0
H1006 H 0.19486 0.14887 0.79302 0.0
C1007 C 0.21826 0.24866 0.83546 0.0
H1008 H 0.14657 0.19798 0.79263 0.0
C1009 C 0.24638 0.22005 0.8357 0.0
C1010 C 0.23862 0.18373 0.82013 0.0
H1011 H 0.22508 0.27648 0.84725 0.0
H1012 H 0.27422 0.22649 0.84766 0.0
C1013 C 0.20208 0.17651 0.80502 0.0
C1014 C 0.24835 0.78552 0.17554 0.0
C1015 C 0.24114 0.8218 0.19144 0.0
H1016 H 0.22612 0.72962 0.16321 0.0
C1017 C 0.2046 0.82951 0.20635 0.0
H1018 H 0.27616 0.7787 0.16372 0.0
C1019 C 0.17623 0.80168 0.20606 0.0
C1020 C 0.1834 0.76518 0.19084 0.0
H1021 H 0.19777 0.85714 0.21859 0.0
H1022 H 0.1486 0.8089 0.21809 0.0
C1023 C 0.21971 0.75743 0.17525 0.0
C1024 C 0.1347 0.53286 0.24172 0.0
C1025 C 0.14909 0.53762 0.27934 0.0
H1026 H 0.10695 0.55827 0.19331 0.0
C1027 C 0.14736 0.57392 0.2965 0.0
H1028 H 0.135 0.50512 0.22788 0.0
C1029 C 0.13201 0.60496 0.27604 0.0
C1030 C 0.11706 0.59993 0.23853 0.0
H1031 H 0.15809 0.57833 0.32553 0.0
H1032 H 0.13118 0.63267 0.28989 0.0
C1033 C 0.11846 0.56343 0.22183 0.0
C1034 C 0.57372 0.85592 0.71423 0.0
C1035 C 0.53739 0.85448 0.73134 0.0
H1036 H 0.63253 0.87184 0.72085 0.0
C1037 C 0.53262 0.86914 0.76885 0.0
H1038 H 0.57813 0.84499 0.68528 0.0
C1039 C 0.56322 0.88535 0.78869 0.0
C1040 C 0.59977 0.88646 0.77205 0.0
H1041 H 0.50484 0.86906 0.78263 0.0
H1042 H 0.55807 0.89708 0.81713 0.0
C1043 C 0.60479 0.87125 0.73465 0.0
C1044 C 0.88508 0.44024 0.22178 0.0
C1045 C 0.88637 0.40374 0.2385 0.0
H1046 H 0.86859 0.49858 0.22776 0.0
C1047 C 0.87124 0.39872 0.27593 0.0
H1048 H 0.89674 0.44538 0.19331 0.0
C1049 C 0.85584 0.42978 0.29632 0.0
C1050 C 0.85424 0.46608 0.27915 0.0
H1051 H 0.87196 0.37101 0.28978 0.0
H1052 H 0.84498 0.42538 0.3253 0.0
C1053 C 0.86879 0.47083 0.24159 0.0
C1054 C 0.42988 0.14771 0.7143 0.0
C1055 C 0.46621 0.1493 0.73139 0.0
H1056 H 0.3711 0.13169 0.72099 0.0
C1057 C 0.47101 0.13483 0.76898 0.0
H1058 H 0.42544 0.15851 0.6853 0.0
C1059 C 0.44043 0.11864 0.7889 0.0
C1060 C 0.4039 0.11737 0.77225 0.0
H1061 H 0.49878 0.13503 0.78276 0.0
H1062 H 0.44561 0.10705 0.81739 0.0
C1063 C 0.39884 0.13241 0.73479 0.0
C1064 C 0.13103 0.47483 0.76443 0.0
C1065 C 0.1501 0.46884 0.72926 0.0
H1066 H 0.09807 0.45073 0.81002 0.0
C1067 C 0.15136 0.43185 0.71368 0.0
H1068 H 0.12885 0.50322 0.77669 0.0
C1069 C 0.13463 0.40118 0.7336 0.0
C1070 C 0.1153 0.40728 0.7688 0.0
H1071 H 0.16562 0.4266 0.68639 0.0
H1072 H 0.13636 0.37286 0.72115 0.0
C1073 C 0.11333 0.44462 0.78358 0.0
C1074 C 0.44445 0.89033 0.2273 0.0
C1075 C 0.40713 0.88838 0.24214 0.0
H1076 H 0.50305 0.87482 0.23412 0.0
C1077 C 0.40108 0.86907 0.27737 0.0
H1078 H 0.45054 0.90559 0.20085 0.0
C1079 C 0.43177 0.85234 0.29725 0.0
C1080 C 0.46874 0.8536 0.28161 0.0
H1081 H 0.37277 0.86735 0.28986 0.0
H1082 H 0.42656 0.83811 0.32455 0.0
C1083 C 0.47468 0.87265 0.24642 0.0
C1084 C 0.87269 0.52863 0.76408 0.0
C1085 C 0.85362 0.5346 0.72891 0.0
H1086 H 0.90562 0.55277 0.80967 0.0
C1087 C 0.85232 0.57159 0.71331 0.0
H1088 H 0.8749 0.50025 0.77635 0.0
C1089 C 0.86901 0.60227 0.73323 0.0
C1090 C 0.88834 0.5962 0.76844 0.0
H1091 H 0.83806 0.57681 0.68603 0.0
H1092 H 0.86725 0.63059 0.72077 0.0
C1093 C 0.89035 0.55887 0.78323 0.0
C1094 C 0.60241 0.13457 0.27703 0.0
C1095 C 0.59633 0.11531 0.24178 0.0
H1096 H 0.57695 0.16548 0.32425 0.0
C1097 C 0.55902 0.11343 0.22693 0.0
H1098 H 0.63071 0.13624 0.28953 0.0
C1099 C 0.5288 0.13112 0.24607 0.0
C1100 C 0.53476 0.15011 0.28129 0.0
H1101 H 0.55292 0.09823 0.20045 0.0
H1102 H 0.50043 0.129 0.23376 0.0
C1103 C 0.57173 0.1513 0.29693 0.0
C1104 C 0.65138 0.07185 0.79686 0.0
C1105 C 0.65014 0.03484 0.78129 0.0
H1106 H 0.63631 0.13081 0.78937 0.0
C1107 C 0.63104 0.02881 0.74616 0.0
H1108 H 0.66565 0.07712 0.82413 0.0
C1109 C 0.61329 0.059 0.72701 0.0
C1110 C 0.61523 0.09634 0.74177 0.0
H1111 H 0.62887 1.00042 0.73391 0.0
H1112 H 0.598 0.05285 0.70059 0.0
C1113 C 0.6346 0.10248 0.77694 0.0
C1114 C 0.10255 0.36924 0.23362 0.0
C1115 C 0.09645 0.38847 0.26887 0.0
H1116 H 0.07715 0.33828 0.1864 0.0
C1117 C 0.05915 0.39025 0.28375 0.0
H1118 H 0.13085 0.36765 0.2211 0.0
C1119 C 0.02896 0.37247 0.26463 0.0
C1120 C 0.03494 0.35352 0.2294 0.0
H1121 H 0.05303 0.40543 0.31024 0.0
H1122 H 1.00059 0.37452 0.27696 0.0
C1123 C 0.07192 0.35243 0.21373 0.0
C1124 C 0.35251 0.93189 0.79731 0.0
C1125 C 0.35372 0.96888 0.78169 0.0
H1126 H 0.36753 0.87291 0.78982 0.0
C1127 C 0.3727 0.97487 0.74648 0.0
H1128 H 0.33833 0.92665 0.82462 0.0
C1129 C 0.39036 0.94466 0.72729 0.0
C1130 C 0.38845 0.90733 0.7421 0.0
H1131 H 0.37483 0.00325 0.73419 0.0
H1132 H 0.40555 0.95078 0.70081 0.0
C1133 C 0.36921 0.90123 0.77736 0.0
C1134 C 0.94432 0.61322 0.28316 0.0
C1135 C 0.907 0.61506 0.26833 0.0
H1136 H 0.00288 0.62886 0.27632 0.0
C1137 C 0.9009 0.63429 0.23306 0.0
H1138 H 0.95044 0.59803 0.30965 0.0
C1139 C 0.93155 0.65104 0.21314 0.0
C1140 C 0.96853 0.64991 0.22879 0.0
H1141 H 0.87259 0.63592 0.22058 0.0
H1142 H 0.92631 0.66522 0.18581 0.0
C1143 C 0.97451 0.63094 0.26401 0.0
C1144 C 0.64763 0.92993 0.21414 0.0
C1145 C 0.64912 0.96627 0.23123 0.0
H1146 H 0.6317 0.87112 0.2208 0.0
C1147 C 0.63453 0.97104 0.26878 0.0
H1148 H 0.65851 0.92551 0.18517 0.0
C1149 C 0.61835 0.94044 0.28866 0.0
C1150 C 0.6172 0.90389 0.27202 0.0
H1151 H 0.63465 0.99881 0.28255 0.0
H1152 H 0.60668 0.9456 0.31712 0.0
C1153 C 0.63233 0.89886 0.2346 0.0
C1154 C 0.89892 0.37105 0.77591 0.0
C1155 C 0.90398 0.3862 0.73849 0.0
H1156 H 0.92553 0.34489 0.82536 0.0
C1157 C 0.94055 0.38509 0.7219 0.0
H1158 H 0.87116 0.37165 0.78967 0.0
C1159 C 0.97114 0.36894 0.74181 0.0
C1160 C 0.96634 0.35434 0.77934 0.0
H1161 H 0.94573 0.39677 0.69345 0.0
H1162 H 0.99893 0.36885 0.72807 0.0
C1163 C 0.92998 0.35578 0.7964 0.0
C1164 C 0.37105 0.10481 0.23467 0.0
C1165 C 0.38621 0.09983 0.2721 0.0
H1166 H 0.34482 0.07809 0.18532 0.0
C1167 C 0.38504 0.06332 0.2888 0.0
H1168 H 0.37168 0.13253 0.22083 0.0
C1169 C 0.36883 0.03269 0.269 0.0
C1170 C 0.35423 0.03741 0.23145 0.0
H1171 H 0.39674 0.0582 0.31726 0.0
H1172 H 0.36871 0.00494 0.28282 0.0
C1173 C 0.35572 0.07372 0.21429 0.0
C1174 C 0.0632 0.61844 0.72174 0.0
C1175 C 0.09972 0.61729 0.73844 0.0
H1176 H 0.00482 0.63474 0.72774 0.0
C1177 C 0.1047 0.63246 0.77586 0.0
H1178 H 0.05809 0.60675 0.69328 0.0
C1179 C 0.0736 0.64777 0.79625 0.0
C1180 C 0.03729 0.64923 0.77909 0.0
H1181 H 0.13242 0.63184 0.7897 0.0
H1182 H 0.07797 0.65866 0.82522 0.0
C1183 C 0.03257 0.63464 0.74155 0.0
C1184 C 0.18913 0.48901 0.52893 0.0
C1185 C 0.21358 0.51834 0.5411 0.0
H1186 H 0.1668 0.45682 0.48197 0.0
C1187 C 0.23727 0.53618 0.5136 0.0
H1188 H 0.17072 0.47451 0.54941 0.0
C1189 C 0.23462 0.52639 0.47422 0.0
C1190 C 0.20841 0.49846 0.46193 0.0
H1191 H 0.25625 0.55909 0.52216 0.0
H1192 H 0.25186 0.54171 0.45337 0.0
C1193 C 0.18676 0.47905 0.49005 0.0
C1194 C 0.48903 0.8149 0.48182 0.0
C1195 C 0.5183 0.79036 0.46968 0.0
H1196 H 0.45679 0.83726 0.52873 0.0
C1197 C 0.53601 0.76659 0.4972 0.0
H1198 H 0.47463 0.83337 0.46134 0.0
C1199 C 0.52613 0.76923 0.53656 0.0
C1200 C 0.49825 0.7955 0.54882 0.0
H1201 H 0.55887 0.74755 0.48867 0.0
H1202 H 0.54135 0.75191 0.55742 0.0
C1203 C 0.47898 0.81725 0.52069 0.0
C1204 C 0.76922 0.47723 0.474 0.0
C1205 C 0.79546 0.50514 0.4617 0.0
H1206 H 0.74762 0.44447 0.5219 0.0
C1207 C 0.81723 0.52442 0.48982 0.0
H1208 H 0.75189 0.46201 0.45315 0.0
C1209 C 0.81493 0.51436 0.52869 0.0
C1210 C 0.79042 0.48506 0.54084 0.0
H1211 H 0.83722 0.54663 0.48175 0.0
H1212 H 0.83341 0.52877 0.54915 0.0
C1213 C 0.76663 0.46735 0.51336 0.0
C1214 C 0.51459 0.18882 0.48164 0.0
C1215 C 0.48542 0.21347 0.46946 0.0
H1216 H 0.54667 0.16631 0.5286 0.0
C1217 C 0.46777 0.23731 0.49695 0.0
H1218 H 0.52895 0.17029 0.46117 0.0
C1219 C 0.47759 0.23463 0.53632 0.0
C1220 C 0.50535 0.20824 0.54863 0.0
H1221 H 0.445 0.25644 0.48839 0.0
H1222 H 0.46242 0.25201 0.55716 0.0
C1223 C 0.52457 0.18641 0.52052 0.0
C1224 C 0.73451 0.97746 0.03639 0.0
C1225 C 0.70829 0.00539 0.04867 0.0
H1226 H 0.75614 0.94473 0.98848 0.0
C1227 C 0.68661 0.02475 0.02054 0.0
H1228 H 0.75177 0.96218 0.05724 0.0
C1229 C 0.68896 0.01474 0.98166 0.0
C1230 C 0.71343 0.98542 0.96951 0.0
H1231 H 0.66664 0.04698 0.0286 0.0
H1232 H 0.67053 0.02921 0.96118 0.0
C1233 C 0.73715 0.96763 0.99702 0.0
C1234 C 0.9778 0.26897 0.97435 0.0
C1235 C 0.00561 0.2953 0.96202 0.0
H1236 H 0.94518 0.24723 0.02229 0.0
C1237 C 0.02489 0.31709 0.99012 0.0
H1238 H 0.96259 0.25162 0.95351 0.0
C1239 C 0.01492 0.31471 0.02901 0.0
C1240 C 0.9857 0.29013 0.0412 0.0
H1241 H 0.04703 0.33714 0.98203 0.0
H1242 H 0.02932 0.33322 0.04946 0.0
C1243 C 0.968 0.26631 0.01372 0.0
C1244 C 0.26648 0.03598 0.99724 0.0
C1245 C 0.29028 0.01825 0.96976 0.0
H1246 H 0.25172 0.04135 0.05743 0.0
C1247 C 0.31477 0.98896 0.98194 0.0
H1248 H 0.24747 0.05885 0.98867 0.0
C1249 C 0.31705 0.97891 0.02082 0.0
C1250 C 0.29528 0.99821 0.04892 0.0
H1251 H 0.33326 0.97454 0.96149 0.0
H1252 H 0.33703 0.9567 0.0289 0.0
C1253 C 0.26905 0.02611 0.0366 0.0
C1254 C 0.97882 0.6863 0.98977 0.0
C1255 C 0.998 0.70816 0.96166 0.0
H1256 H 0.97452 0.6701 0.04911 0.0
C1257 C 0.02578 0.73453 0.97396 0.0
H1258 H 0.9567 0.66621 0.98171 0.0
C1259 C 0.03564 0.73716 0.01332 0.0
C1260 C 0.01803 0.71329 0.04081 0.0
H1261 H 0.04093 0.75193 0.95311 0.0
H1262 H 0.05843 0.75629 0.02187 0.0
C1263 C 0.98885 0.68865 0.02864 0.0
loop_
_geom_bond_atom_site_label_1
_geom_bond_atom_site_label_2
_geom_bond_distance
_geom_bond_site_symmetry_2
_ccdc_geom_bond_type
Co0 O2 2.143 . S
Co0 O8 2.074 . S
Co0 O11 2.093 . S
Co0 O24 2.097 . S
Co0 N41 2.151 . S
Co0 N49 2.214 . S
Co1 O2 2.160 . S
Co1 O7 2.058 . S
Co1 O17 2.057 . S
Co1 O32 2.037 . S
Co1 N36 2.145 . S
Co1 N57 2.257 . S
O2 Co0 2.143 . S
O2 Co1 2.160 . S
C3 O4 1.278 . S
C3 O11 1.224 . S
O4 C3 1.278 . S
C5 O6 1.245 . S
C5 O17 1.232 . S
O6 C5 1.245 . S
O7 Co1 2.058 . S
O7 C33 1.269 . S
O8 Co0 2.074 . S
O8 C33 1.257 . S
H9 C34 0.930 . S
H10 C40 0.930 . S
O11 Co0 2.093 . S
O11 C3 1.224 . S
H12 C44 0.929 . S
H13 C46 0.930 . S
H14 C47 0.930 . S
H15 C45 0.929 . S
H16 C48 0.928 . S
O17 Co1 2.057 . S
O17 C5 1.232 . S
H18 C37 0.929 . S
H19 C38 0.929 . S
H20 C50 0.931 . S
H21 C42 0.929 . S
H22 C51 0.930 1_655 S
H23 C43 0.931 . S
O24 Co0 2.097 . S
O24 C52 1.214 . S
H25 C53 0.929 . S
H26 C54 0.929 . S
H27 C55 0.930 . S
H28 C56 0.929 . S
H29 C58 0.930 . S
H30 C35 0.930 . S
H31 C39 0.930 . S
O32 Co1 2.037 . S
O32 C52 1.234 . S
C33 O7 1.269 . S
C33 O8 1.257 . S
C34 H9 0.930 . S
C34 C37 1.388 . S
C34 C39 1.418 . S
C35 H30 0.930 . S
C35 C38 1.404 . S
C35 C39 1.353 . S
N36 Co1 2.145 . S
N36 C37 1.397 . S
N36 C38 1.334 . S
C37 H18 0.929 . S
C37 C34 1.388 . S
C37 N36 1.397 . S
C38 H19 0.929 . S
C38 C35 1.404 . S
C38 N36 1.334 . S
C39 H31 0.930 . S
C39 C34 1.418 . S
C39 C35 1.353 . S
C40 H10 0.930 . S
C40 N41 1.330 . S
C40 C42 1.446 . S
N41 Co0 2.151 . S
N41 C40 1.330 . S
N41 C45 1.418 . S
C42 H21 0.929 . S
C42 C40 1.446 . S
C42 C43 1.332 . S
C43 H23 0.931 . S
C43 C42 1.332 . S
C43 C44 1.267 . S
C44 H12 0.929 . S
C44 C43 1.267 . S
C44 C45 1.251 . S
C45 H15 0.929 . S
C45 N41 1.418 . S
C45 C44 1.251 . S
C46 H13 0.930 . S
C46 C48 1.406 . S
C46 C51 1.261 . S
C47 H14 0.930 . S
C47 N49 1.325 . S
C47 C50 1.357 . S
C48 H16 0.928 . S
C48 C46 1.406 . S
C48 N49 1.261 . S
N49 Co0 2.214 . S
N49 C47 1.325 . S
N49 C48 1.261 . S
C50 H20 0.931 . S
C50 C47 1.357 . S
C50 C51 1.312 . S
C51 H22 0.930 1_455 S
C51 C46 1.261 . S
C51 C50 1.312 . S
C52 O24 1.214 . S
C52 O32 1.234 . S
C53 H25 0.929 . S
C53 C56 1.391 . S
C53 C58 1.391 . S
C54 H26 0.929 . S
C54 C55 1.390 . S
C54 N57 1.391 . S
C55 H27 0.930 . S
C55 C54 1.390 . S
C55 C56 1.392 . S
C56 H28 0.929 . S
C56 C53 1.391 . S
C56 C55 1.392 . S
N57 Co1 2.257 . S
N57 C54 1.391 . S
N57 C58 1.388 . S
C58 H29 0.930 . S
C58 C53 1.391 . S
C58 N57 1.388 . S
Co59 O61 2.143 . S
Co59 O67 2.074 . S
Co59 O70 2.093 . S
Co59 O83 2.097 . S
Co59 N100 2.151 . S
Co59 N108 2.214 . S
Co60 O61 2.160 . S
Co60 O66 2.058 . S
Co60 O76 2.057 . S
Co60 O91 2.037 . S
Co60 N95 2.145 . S
Co60 N116 2.257 . S
O61 Co59 2.143 . S
O61 Co60 2.160 . S
C62 O63 1.278 . S
C62 O70 1.224 . S
O63 C62 1.278 . S
C64 O65 1.245 . S
C64 O76 1.232 . S
O65 C64 1.245 . S
O66 Co60 2.058 . S
O66 C92 1.269 . S
O67 Co59 2.074 . S
O67 C92 1.257 . S
H68 C93 0.930 . S
H69 C99 0.930 . S
O70 Co59 2.093 . S
O70 C62 1.224 . S
H71 C103 0.929 . S
H72 C105 0.930 . S
H73 C106 0.930 . S
H74 C104 0.929 . S
H75 C107 0.928 . S
O76 Co60 2.057 . S
O76 C64 1.232 . S
H77 C96 0.929 . S
H78 C97 0.929 . S
H79 C109 0.931 . S
H80 C101 0.929 . S
H81 C110 0.930 1_545 S
H82 C102 0.931 . S
O83 Co59 2.097 . S
O83 C111 1.214 . S
H84 C112 0.929 . S
H85 C113 0.929 . S
H86 C114 0.930 . S
H87 C115 0.929 . S
H88 C117 0.930 . S
H89 C94 0.930 . S
H90 C98 0.930 . S
O91 Co60 2.037 . S
O91 C111 1.234 . S
C92 O66 1.269 . S
C92 O67 1.257 . S
C93 H68 0.930 . S
C93 C96 1.388 . S
C93 C98 1.418 . S
C94 H89 0.930 . S
C94 C97 1.404 . S
C94 C98 1.353 . S
N95 Co60 2.145 . S
N95 C96 1.397 . S
N95 C97 1.334 . S
C96 H77 0.929 . S
C96 C93 1.388 . S
C96 N95 1.397 . S
C97 H78 0.929 . S
C97 C94 1.404 . S
C97 N95 1.334 . S
C98 H90 0.930 . S
C98 C93 1.418 . S
C98 C94 1.353 . S
C99 H69 0.930 . S
C99 N100 1.330 . S
C99 C101 1.446 . S
N100 Co59 2.151 . S
N100 C99 1.330 . S
N100 C104 1.418 . S
C101 H80 0.929 . S
C101 C99 1.446 . S
C101 C102 1.332 . S
C102 H82 0.931 . S
C102 C101 1.332 . S
C102 C103 1.267 . S
C103 H71 0.929 . S
C103 C102 1.267 . S
C103 C104 1.251 . S
C104 H74 0.929 . S
C104 N100 1.418 . S
C104 C103 1.251 . S
C105 H72 0.930 . S
C105 C107 1.406 . S
C105 C110 1.261 . S
C106 H73 0.930 . S
C106 N108 1.325 . S
C106 C109 1.357 . S
C107 H75 0.928 . S
C107 C105 1.406 . S
C107 N108 1.261 . S
N108 Co59 2.214 . S
N108 C106 1.325 . S
N108 C107 1.261 . S
C109 H79 0.931 . S
C109 C106 1.357 . S
C109 C110 1.312 . S
C110 H81 0.930 1_565 S
C110 C105 1.261 . S
C110 C109 1.312 . S
C111 O83 1.214 . S
C111 O91 1.234 . S
C112 H84 0.929 . S
C112 C115 1.391 . S
C112 C117 1.391 . S
C113 H85 0.929 . S
C113 C114 1.390 . S
C113 N116 1.391 . S
C114 H86 0.930 . S
C114 C113 1.390 . S
C114 C115 1.392 . S
C115 H87 0.929 . S
C115 C112 1.391 . S
C115 C114 1.392 . S
N116 Co60 2.257 . S
N116 C113 1.391 . S
N116 C117 1.388 . S
C117 H88 0.930 . S
C117 C112 1.391 . S
C117 N116 1.388 . S
Co118 O120 2.143 . S
Co118 O126 2.074 . S
Co118 O129 2.093 . S
Co118 O142 2.097 . S
Co118 N159 2.151 . S
Co118 N167 2.214 . S
Co119 O120 2.160 . S
Co119 O125 2.058 . S
Co119 O135 2.057 . S
Co119 O150 2.037 . S
Co119 N154 2.145 . S
Co119 N175 2.257 . S
O120 Co118 2.143 . S
O120 Co119 2.160 . S
C121 O122 1.278 . S
C121 O129 1.224 . S
O122 C121 1.278 . S
C123 O124 1.245 . S
C123 O135 1.232 . S
O124 C123 1.245 . S
O125 Co119 2.058 . S
O125 C151 1.269 . S
O126 Co118 2.074 . S
O126 C151 1.257 . S
H127 C152 0.930 . S
H128 C158 0.930 . S
O129 Co118 2.093 . S
O129 C121 1.224 . S
H130 C162 0.929 . S
H131 C164 0.930 . S
H132 C165 0.930 . S
H133 C163 0.929 . S
H134 C166 0.928 . S
O135 Co119 2.057 . S
O135 C123 1.232 . S
H136 C155 0.929 . S
H137 C156 0.929 . S
H138 C168 0.931 . S
H139 C160 0.929 . S
H140 C169 0.930 1_455 S
H141 C161 0.931 . S
O142 Co118 2.097 . S
O142 C170 1.214 . S
H143 C171 0.929 . S
H144 C172 0.929 . S
H145 C173 0.930 . S
H146 C174 0.929 . S
H147 C176 0.930 . S
H148 C153 0.930 . S
H149 C157 0.930 . S
O150 Co119 2.037 . S
O150 C170 1.234 . S
C151 O125 1.269 . S
C151 O126 1.257 . S
C152 H127 0.930 . S
C152 C155 1.388 . S
C152 C157 1.418 . S
C153 H148 0.930 . S
C153 C156 1.404 . S
C153 C157 1.353 . S
N154 Co119 2.145 . S
N154 C155 1.397 . S
N154 C156 1.334 . S
C155 H136 0.929 . S
C155 C152 1.388 . S
C155 N154 1.397 . S
C156 H137 0.929 . S
C156 C153 1.404 . S
C156 N154 1.334 . S
C157 H149 0.930 . S
C157 C152 1.418 . S
C157 C153 1.353 . S
C158 H128 0.930 . S
C158 N159 1.330 . S
C158 C160 1.446 . S
N159 Co118 2.151 . S
N159 C158 1.330 . S
N159 C163 1.418 . S
C160 H139 0.929 . S
C160 C158 1.446 . S
C160 C161 1.332 . S
C161 H141 0.931 . S
C161 C160 1.332 . S
C161 C162 1.267 . S
C162 H130 0.929 . S
C162 C161 1.267 . S
C162 C163 1.251 . S
C163 H133 0.929 . S
C163 N159 1.418 . S
C163 C162 1.251 . S
C164 H131 0.930 . S
C164 C166 1.406 . S
C164 C169 1.261 . S
C165 H132 0.930 . S
C165 N167 1.325 . S
C165 C168 1.357 . S
C166 H134 0.928 . S
C166 C164 1.406 . S
C166 N167 1.261 . S
N167 Co118 2.214 . S
N167 C165 1.325 . S
N167 C166 1.261 . S
C168 H138 0.931 . S
C168 C165 1.357 . S
C168 C169 1.312 . S
C169 H140 0.930 1_655 S
C169 C164 1.261 . S
C169 C168 1.312 . S
C170 O142 1.214 . S
C170 O150 1.234 . S
C171 H143 0.929 . S
C171 C174 1.391 . S
C171 C176 1.391 . S
C172 H144 0.929 . S
C172 C173 1.390 . S
C172 N175 1.391 . S
C173 H145 0.930 . S
C173 C172 1.390 . S
C173 C174 1.392 . S
C174 H146 0.929 . S
C174 C171 1.391 . S
C174 C173 1.392 . S
N175 Co119 2.257 . S
N175 C172 1.391 . S
N175 C176 1.388 . S
C176 H147 0.930 . S
C176 C171 1.391 . S
C176 N175 1.388 . S
Co177 O179 2.143 . S
Co177 O185 2.074 . S
Co177 O188 2.093 . S
Co177 O201 2.097 . S
Co177 N218 2.151 . S
Co177 N226 2.214 . S
Co178 O179 2.160 . S
Co178 O184 2.058 . S
Co178 O194 2.057 . S
Co178 O209 2.037 . S
Co178 N213 2.145 . S
Co178 N234 2.257 . S
O179 Co177 2.143 . S
O179 Co178 2.160 . S
C180 O181 1.278 . S
C180 O188 1.224 . S
O181 C180 1.278 . S
C182 O183 1.245 . S
C182 O194 1.232 . S
O183 C182 1.245 . S
O184 Co178 2.058 . S
O184 C210 1.269 . S
O185 Co177 2.074 . S
O185 C210 1.257 . S
H186 C211 0.930 . S
H187 C217 0.930 . S
O188 Co177 2.093 . S
O188 C180 1.224 . S
H189 C221 0.929 . S
H190 C223 0.930 . S
H191 C224 0.930 . S
H192 C222 0.929 . S
H193 C225 0.928 . S
O194 Co178 2.057 . S
O194 C182 1.232 . S
H195 C214 0.929 . S
H196 C215 0.929 . S
H197 C227 0.931 . S
H198 C219 0.929 . S
H199 C228 0.930 1_565 S
H200 C220 0.931 . S
O201 Co177 2.097 . S
O201 C229 1.214 . S
H202 C230 0.929 . S
H203 C231 0.929 . S
H204 C232 0.930 . S
H205 C233 0.929 . S
H206 C235 0.930 . S
H207 C212 0.930 . S
H208 C216 0.930 . S
O209 Co178 2.037 . S
O209 C229 1.234 . S
C210 O184 1.269 . S
C210 O185 1.257 . S
C211 H186 0.930 . S
C211 C214 1.388 . S
C211 C216 1.418 . S
C212 H207 0.930 . S
C212 C215 1.404 . S
C212 C216 1.353 . S
N213 Co178 2.145 . S
N213 C214 1.397 . S
N213 C215 1.334 . S
C214 H195 0.929 . S
C214 C211 1.388 . S
C214 N213 1.397 . S
C215 H196 0.929 . S
C215 C212 1.404 . S
C215 N213 1.334 . S
C216 H208 0.930 . S
C216 C211 1.418 . S
C216 C212 1.353 . S
C217 H187 0.930 . S
C217 N218 1.330 . S
C217 C219 1.446 . S
N218 Co177 2.151 . S
N218 C217 1.330 . S
N218 C222 1.418 . S
C219 H198 0.929 . S
C219 C217 1.446 . S
C219 C220 1.332 . S
C220 H200 0.931 . S
C220 C219 1.332 . S
C220 C221 1.267 . S
C221 H189 0.929 . S
C221 C220 1.267 . S
C221 C222 1.251 . S
C222 H192 0.929 . S
C222 N218 1.418 . S
C222 C221 1.251 . S
C223 H190 0.930 . S
C223 C225 1.406 . S
C223 C228 1.261 . S
C224 H191 0.930 . S
C224 N226 1.325 . S
C224 C227 1.357 . S
C225 H193 0.928 . S
C225 C223 1.406 . S
C225 N226 1.261 . S
N226 Co177 2.214 . S
N226 C224 1.325 . S
N226 C225 1.261 . S
C227 H197 0.931 . S
C227 C224 1.357 . S
C227 C228 1.312 . S
C228 H199 0.930 1_545 S
C228 C223 1.261 . S
C228 C227 1.312 . S
C229 O201 1.214 . S
C229 O209 1.234 . S
C230 H202 0.929 . S
C230 C233 1.391 . S
C230 C235 1.391 . S
C231 H203 0.929 . S
C231 C232 1.390 . S
C231 N234 1.391 . S
C232 H204 0.930 . S
C232 C231 1.390 . S
C232 C233 1.392 . S
C233 H205 0.929 . S
C233 C230 1.391 . S
C233 C232 1.392 . S
N234 Co178 2.257 . S
N234 C231 1.391 . S
N234 C235 1.388 . S
C235 H206 0.930 . S
C235 C230 1.391 . S
C235 N234 1.388 . S
Co236 O238 2.143 . S
Co236 O244 2.074 . S
Co236 O247 2.093 . S
Co236 O260 2.097 . S
Co236 N277 2.151 . S
Co236 N285 2.214 . S
Co237 O238 2.160 . S
Co237 O243 2.058 . S
Co237 O253 2.057 . S
Co237 O268 2.037 . S
Co237 N272 2.145 . S
Co237 N293 2.257 . S
O238 Co236 2.143 . S
O238 Co237 2.160 . S
C239 O240 1.278 . S
C239 O247 1.224 . S
O240 C239 1.278 . S
C241 O242 1.245 . S
C241 O253 1.232 . S
O242 C241 1.245 . S
O243 Co237 2.058 . S
O243 C269 1.269 . S
O244 Co236 2.074 . S
O244 C269 1.257 . S
H245 C270 0.930 . S
H246 C276 0.930 . S
O247 Co236 2.093 . S
O247 C239 1.224 . S
H248 C280 0.929 . S
H249 C282 0.930 . S
H250 C283 0.930 . S
H251 C281 0.929 . S
H252 C284 0.928 . S
O253 Co237 2.057 . S
O253 C241 1.232 . S
H254 C273 0.929 . S
H255 C274 0.929 . S
H256 C286 0.931 . S
H257 C278 0.929 . S
H258 C287 0.930 1_655 S
H259 C279 0.931 . S
O260 Co236 2.097 . S
O260 C288 1.214 . S
H261 C289 0.929 . S
H262 C290 0.929 . S
H263 C291 0.930 . S
H264 C292 0.929 . S
H265 C294 0.930 . S
H266 C271 0.930 . S
H267 C275 0.930 . S
O268 Co237 2.037 . S
O268 C288 1.234 . S
C269 O243 1.269 . S
C269 O244 1.257 . S
C270 H245 0.930 . S
C270 C273 1.388 . S
C270 C275 1.418 . S
C271 H266 0.930 . S
C271 C274 1.404 . S
C271 C275 1.353 . S
N272 Co237 2.145 . S
N272 C273 1.397 . S
N272 C274 1.334 . S
C273 H254 0.929 . S
C273 C270 1.388 . S
C273 N272 1.397 . S
C274 H255 0.929 . S
C274 C271 1.404 . S
C274 N272 1.334 . S
C275 H267 0.930 . S
C275 C270 1.418 . S
C275 C271 1.353 . S
C276 H246 0.930 . S
C276 N277 1.330 . S
C276 C278 1.446 . S
N277 Co236 2.151 . S
N277 C276 1.330 . S
N277 C281 1.418 . S
C278 H257 0.929 . S
C278 C276 1.446 . S
C278 C279 1.332 . S
C279 H259 0.931 . S
C279 C278 1.332 . S
C279 C280 1.267 . S
C280 H248 0.929 . S
C280 C279 1.267 . S
C280 C281 1.251 . S
C281 H251 0.929 . S
C281 N277 1.418 . S
C281 C280 1.251 . S
C282 H249 0.930 . S
C282 C284 1.406 . S
C282 C287 1.261 . S
C283 H250 0.930 . S
C283 N285 1.325 . S
C283 C286 1.357 . S
C284 H252 0.928 . S
C284 C282 1.406 . S
C284 N285 1.261 . S
N285 Co236 2.214 . S
N285 C283 1.325 . S
N285 C284 1.261 . S
C286 H256 0.931 . S
C286 C283 1.357 . S
C286 C287 1.312 . S
C287 H258 0.930 1_455 S
C287 C282 1.261 . S
C287 C286 1.312 . S
C288 O260 1.214 . S
C288 O268 1.234 . S
C289 H261 0.929 . S
C289 C292 1.391 . S
C289 C294 1.391 . S
C290 H262 0.929 . S
C290 C291 1.390 . S
C290 N293 1.391 . S
C291 H263 0.930 . S
C291 C290 1.390 . S
C291 C292 1.392 . S
C292 H264 0.929 . S
C292 C289 1.391 . S
C292 C291 1.392 . S
N293 Co237 2.257 . S
N293 C290 1.391 . S
N293 C294 1.388 . S
C294 H265 0.930 . S
C294 C289 1.391 . S
C294 N293 1.388 . S
Co295 O297 2.143 . S
Co295 O303 2.074 . S
Co295 O306 2.093 . S
Co295 O319 2.097 . S
Co295 N336 2.151 . S
Co295 N344 2.214 . S
Co296 O297 2.160 . S
Co296 O302 2.058 . S
Co296 O312 2.057 . S
Co296 O327 2.037 . S
Co296 N331 2.145 . S
Co296 N352 2.257 . S
O297 Co295 2.143 . S
O297 Co296 2.160 . S
C298 O299 1.278 . S
C298 O306 1.224 . S
O299 C298 1.278 . S
C300 O301 1.245 . S
C300 O312 1.232 . S
O301 C300 1.245 . S
O302 Co296 2.058 . S
O302 C328 1.269 . S
O303 Co295 2.074 . S
O303 C328 1.257 . S
H304 C329 0.930 . S
H305 C335 0.930 . S
O306 Co295 2.093 . S
O306 C298 1.224 . S
H307 C339 0.929 . S
H308 C341 0.930 . S
H309 C342 0.930 . S
H310 C340 0.929 . S
H311 C343 0.928 . S
O312 Co296 2.057 . S
O312 C300 1.232 . S
H313 C332 0.929 . S
H314 C333 0.929 . S
H315 C345 0.931 . S
H316 C337 0.929 . S
H317 C346 0.930 1_545 S
H318 C338 0.931 . S
O319 Co295 2.097 . S
O319 C347 1.214 . S
H320 C348 0.929 . S
H321 C349 0.929 . S
H322 C350 0.930 . S
H323 C351 0.929 . S
H324 C353 0.930 . S
H325 C330 0.930 . S
H326 C334 0.930 . S
O327 Co296 2.037 . S
O327 C347 1.234 . S
C328 O302 1.269 . S
C328 O303 1.257 . S
C329 H304 0.930 . S
C329 C332 1.388 . S
C329 C334 1.418 . S
C330 H325 0.930 . S
C330 C333 1.404 . S
C330 C334 1.353 . S
N331 Co296 2.145 . S
N331 C332 1.397 . S
N331 C333 1.334 . S
C332 H313 0.929 . S
C332 C329 1.388 . S
C332 N331 1.397 . S
C333 H314 0.929 . S
C333 C330 1.404 . S
C333 N331 1.334 . S
C334 H326 0.930 . S
C334 C329 1.418 . S
C334 C330 1.353 . S
C335 H305 0.930 . S
C335 N336 1.330 . S
C335 C337 1.446 . S
N336 Co295 2.151 . S
N336 C335 1.330 . S
N336 C340 1.418 . S
C337 H316 0.929 . S
C337 C335 1.446 . S
C337 C338 1.332 . S
C338 H318 0.931 . S
C338 C337 1.332 . S
C338 C339 1.267 . S
C339 H307 0.929 . S
C339 C338 1.267 . S
C339 C340 1.251 . S
C340 H310 0.929 . S
C340 N336 1.418 . S
C340 C339 1.251 . S
C341 H308 0.930 . S
C341 C343 1.406 . S
C341 C346 1.261 . S
C342 H309 0.930 . S
C342 N344 1.325 . S
C342 C345 1.357 . S
C343 H311 0.928 . S
C343 C341 1.406 . S
C343 N344 1.261 . S
N344 Co295 2.214 . S
N344 C342 1.325 . S
N344 C343 1.261 . S
C345 H315 0.931 . S
C345 C342 1.357 . S
C345 C346 1.312 . S
C346 H317 0.930 1_565 S
C346 C341 1.261 . S
C346 C345 1.312 . S
C347 O319 1.214 . S
C347 O327 1.234 . S
C348 H320 0.929 . S
C348 C351 1.391 . S
C348 C353 1.391 . S
C349 H321 0.929 . S
C349 C350 1.390 . S
C349 N352 1.391 . S
C350 H322 0.930 . S
C350 C349 1.390 . S
C350 C351 1.392 . S
C351 H323 0.929 . S
C351 C348 1.391 . S
C351 C350 1.392 . S
N352 Co296 2.257 . S
N352 C349 1.391 . S
N352 C353 1.388 . S
C353 H324 0.930 . S
C353 C348 1.391 . S
C353 N352 1.388 . S
Co354 O356 2.143 . S
Co354 O362 2.074 . S
Co354 O365 2.093 . S
Co354 O378 2.097 . S
Co354 N395 2.151 . S
Co354 N403 2.214 . S
Co355 O356 2.160 . S
Co355 O361 2.058 . S
Co355 O371 2.057 . S
Co355 O386 2.037 . S
Co355 N390 2.145 . S
Co355 N411 2.257 . S
O356 Co354 2.143 . S
O356 Co355 2.160 . S
C357 O358 1.278 . S
C357 O365 1.224 . S
O358 C357 1.278 . S
C359 O360 1.245 . S
C359 O371 1.232 . S
O360 C359 1.245 . S
O361 Co355 2.058 . S
O361 C387 1.269 . S
O362 Co354 2.074 . S
O362 C387 1.257 . S
H363 C388 0.930 . S
H364 C394 0.930 . S
O365 Co354 2.093 . S
O365 C357 1.224 . S
H366 C398 0.929 . S
H367 C400 0.930 . S
H368 C401 0.930 . S
H369 C399 0.929 . S
H370 C402 0.928 . S
O371 Co355 2.057 . S
O371 C359 1.232 . S
H372 C391 0.929 . S
H373 C392 0.929 . S
H374 C404 0.931 . S
H375 C396 0.929 . S
H376 C405 0.930 1_455 S
H377 C397 0.931 . S
O378 Co354 2.097 . S
O378 C406 1.214 . S
H379 C407 0.929 . S
H380 C408 0.929 . S
H381 C409 0.930 . S
H382 C410 0.929 . S
H383 C412 0.930 . S
H384 C389 0.930 . S
H385 C393 0.930 . S
O386 Co355 2.037 . S
O386 C406 1.234 . S
C387 O361 1.269 . S
C387 O362 1.257 . S
C388 H363 0.930 . S
C388 C391 1.388 . S
C388 C393 1.418 . S
C389 H384 0.930 . S
C389 C392 1.404 . S
C389 C393 1.353 . S
N390 Co355 2.145 . S
N390 C391 1.397 . S
N390 C392 1.334 . S
C391 H372 0.929 . S
C391 C388 1.388 . S
C391 N390 1.397 . S
C392 H373 0.929 . S
C392 C389 1.404 . S
C392 N390 1.334 . S
C393 H385 0.930 . S
C393 C388 1.418 . S
C393 C389 1.353 . S
C394 H364 0.930 . S
C394 N395 1.330 . S
C394 C396 1.446 . S
N395 Co354 2.151 . S
N395 C394 1.330 . S
N395 C399 1.418 . S
C396 H375 0.929 . S
C396 C394 1.446 . S
C396 C397 1.332 . S
C397 H377 0.931 . S
C397 C396 1.332 . S
C397 C398 1.267 . S
C398 H366 0.929 . S
C398 C397 1.267 . S
C398 C399 1.251 . S
C399 H369 0.929 . S
C399 N395 1.418 . S
C399 C398 1.251 . S
C400 H367 0.930 . S
C400 C402 1.406 . S
C400 C405 1.261 . S
C401 H368 0.930 . S
C401 N403 1.325 . S
C401 C404 1.357 . S
C402 H370 0.928 . S
C402 C400 1.406 . S
C402 N403 1.261 . S
N403 Co354 2.214 . S
N403 C401 1.325 . S
N403 C402 1.261 . S
C404 H374 0.931 . S
C404 C401 1.357 . S
C404 C405 1.312 . S
C405 H376 0.930 1_655 S
C405 C400 1.261 . S
C405 C404 1.312 . S
C406 O378 1.214 . S
C406 O386 1.234 . S
C407 H379 0.929 . S
C407 C410 1.391 . S
C407 C412 1.391 . S
C408 H380 0.929 . S
C408 C409 1.390 . S
C408 N411 1.391 . S
C409 H381 0.930 . S
C409 C408 1.390 . S
C409 C410 1.392 . S
C410 H382 0.929 . S
C410 C407 1.391 . S
C410 C409 1.392 . S
N411 Co355 2.257 . S
N411 C408 1.391 . S
N411 C412 1.388 . S
C412 H383 0.930 . S
C412 C407 1.391 . S
C412 N411 1.388 . S
Co413 O415 2.143 . S
Co413 O421 2.074 . S
Co413 O424 2.093 . S
Co413 O437 2.097 . S
Co413 N454 2.151 . S
Co413 N462 2.214 . S
Co414 O415 2.160 . S
Co414 O420 2.058 . S
Co414 O430 2.057 . S
Co414 O445 2.037 . S
Co414 N449 2.145 . S
Co414 N470 2.257 . S
O415 Co413 2.143 . S
O415 Co414 2.160 . S
C416 O417 1.278 . S
C416 O424 1.224 . S
O417 C416 1.278 . S
C418 O419 1.245 . S
C418 O430 1.232 . S
O419 C418 1.245 . S
O420 Co414 2.058 . S
O420 C446 1.269 . S
O421 Co413 2.074 . S
O421 C446 1.257 . S
H422 C447 0.930 . S
H423 C453 0.930 . S
O424 Co413 2.093 . S
O424 C416 1.224 . S
H425 C457 0.929 . S
H426 C459 0.930 . S
H427 C460 0.930 . S
H428 C458 0.929 . S
H429 C461 0.928 . S
O430 Co414 2.057 . S
O430 C418 1.232 . S
H431 C450 0.929 . S
H432 C451 0.929 . S
H433 C463 0.931 . S
H434 C455 0.929 . S
H435 C464 0.930 1_565 S
H436 C456 0.931 . S
O437 Co413 2.097 . S
O437 C465 1.214 . S
H438 C466 0.929 . S
H439 C467 0.929 . S
H440 C468 0.930 . S
H441 C469 0.929 . S
H442 C471 0.930 . S
H443 C448 0.930 . S
H444 C452 0.930 . S
O445 Co414 2.037 . S
O445 C465 1.234 . S
C446 O420 1.269 . S
C446 O421 1.257 . S
C447 H422 0.930 . S
C447 C450 1.388 . S
C447 C452 1.418 . S
C448 H443 0.930 . S
C448 C451 1.404 . S
C448 C452 1.353 . S
N449 Co414 2.145 . S
N449 C450 1.397 . S
N449 C451 1.334 . S
C450 H431 0.929 . S
C450 C447 1.388 . S
C450 N449 1.397 . S
C451 H432 0.929 . S
C451 C448 1.404 . S
C451 N449 1.334 . S
C452 H444 0.930 . S
C452 C447 1.418 . S
C452 C448 1.353 . S
C453 H423 0.930 . S
C453 N454 1.330 . S
C453 C455 1.446 . S
N454 Co413 2.151 . S
N454 C453 1.330 . S
N454 C458 1.418 . S
C455 H434 0.929 . S
C455 C453 1.446 . S
C455 C456 1.332 . S
C456 H436 0.931 . S
C456 C455 1.332 . S
C456 C457 1.267 . S
C457 H425 0.929 . S
C457 C456 1.267 . S
C457 C458 1.251 . S
C458 H428 0.929 . S
C458 N454 1.418 . S
C458 C457 1.251 . S
C459 H426 0.930 . S
C459 C461 1.406 . S
C459 C464 1.261 . S
C460 H427 0.930 . S
C460 N462 1.325 . S
C460 C463 1.357 . S
C461 H429 0.928 . S
C461 C459 1.406 . S
C461 N462 1.261 . S
N462 Co413 2.214 . S
N462 C460 1.325 . S
N462 C461 1.261 . S
C463 H433 0.931 . S
C463 C460 1.357 . S
C463 C464 1.312 . S
C464 H435 0.930 1_545 S
C464 C459 1.261 . S
C464 C463 1.312 . S
C465 O437 1.214 . S
C465 O445 1.234 . S
C466 H438 0.929 . S
C466 C469 1.391 . S
C466 C471 1.391 . S
C467 H439 0.929 . S
C467 C468 1.390 . S
C467 N470 1.391 . S
C468 H440 0.930 . S
C468 C467 1.390 . S
C468 C469 1.392 . S
C469 H441 0.929 . S
C469 C466 1.391 . S
C469 C468 1.392 . S
N470 Co414 2.257 . S
N470 C467 1.391 . S
N470 C471 1.388 . S
C471 H442 0.930 . S
C471 C466 1.391 . S
C471 N470 1.388 . S
Co472 O474 2.143 . S
Co472 O480 2.074 . S
Co472 O483 2.093 . S
Co472 O496 2.097 1_565 S
Co472 N513 2.151 . S
Co472 N521 2.214 . S
Co473 O474 2.160 . S
Co473 O479 2.058 . S
Co473 O489 2.057 . S
Co473 O504 2.037 . S
Co473 N508 2.145 . S
Co473 N529 2.257 . S
O474 Co472 2.143 . S
O474 Co473 2.160 . S
C475 O476 1.278 . S
C475 O483 1.224 . S
O476 C475 1.278 . S
C477 O478 1.245 . S
C477 O489 1.232 . S
O478 C477 1.245 . S
O479 Co473 2.058 . S
O479 C505 1.269 . S
O480 Co472 2.074 . S
O480 C505 1.257 . S
H481 C506 0.930 . S
H482 C512 0.930 . S
O483 Co472 2.093 . S
O483 C475 1.224 . S
H484 C516 0.929 . S
H485 C518 0.930 . S
H486 C519 0.930 . S
H487 C517 0.929 . S
H488 C520 0.928 . S
O489 Co473 2.057 . S
O489 C477 1.232 . S
H490 C509 0.929 . S
H491 C510 0.929 . S
H492 C522 0.933 . S
H493 C514 0.929 . S
H494 C523 0.940 . S
H495 C515 0.931 . S
O496 Co472 2.097 1_545 S
O496 C524 1.214 . S
H497 C525 0.929 . S
H498 C526 0.929 . S
H499 C527 0.930 . S
H500 C528 0.929 . S
H501 C530 0.930 . S
H502 C507 0.930 . S
H503 C511 0.930 . S
O504 Co473 2.037 . S
O504 C524 1.234 1_565 S
C505 O479 1.269 . S
C505 O480 1.257 . S
C506 H481 0.930 . S
C506 C509 1.388 . S
C506 C511 1.418 . S
C507 H502 0.930 . S
C507 C510 1.404 . S
C507 C511 1.353 . S
N508 Co473 2.145 . S
N508 C509 1.397 . S
N508 C510 1.334 . S
C509 H490 0.929 . S
C509 C506 1.388 . S
C509 N508 1.397 . S
C510 H491 0.929 . S
C510 C507 1.404 . S
C510 N508 1.334 . S
C511 H503 0.930 . S
C511 C506 1.418 . S
C511 C507 1.353 . S
C512 H482 0.930 . S
C512 N513 1.330 . S
C512 C514 1.446 . S
N513 Co472 2.151 . S
N513 C512 1.330 . S
N513 C517 1.418 . S
C514 H493 0.929 . S
C514 C512 1.446 . S
C514 C515 1.332 . S
C515 H495 0.931 . S
C515 C514 1.332 . S
C515 C516 1.267 . S
C516 H484 0.929 . S
C516 C515 1.267 . S
C516 C517 1.251 . S
C517 H487 0.929 . S
C517 N513 1.418 . S
C517 C516 1.251 . S
C518 H485 0.930 . S
C518 C520 1.406 . S
C518 C523 1.252 1_565 S
C519 H486 0.930 . S
C519 N521 1.325 . S
C519 C522 1.355 1_565 S
C520 H488 0.928 . S
C520 C518 1.406 . S
C520 N521 1.261 . S
N521 Co472 2.214 . S
N521 C519 1.325 . S
N521 C520 1.261 . S
C522 H492 0.933 . S
C522 C519 1.355 1_545 S
C522 C523 1.312 . S
C523 H494 0.940 . S
C523 C518 1.252 1_545 S
C523 C522 1.312 . S
C524 O496 1.214 . S
C524 O504 1.234 1_545 S
C525 H497 0.929 . S
C525 C528 1.391 1_565 S
C525 C530 1.391 . S
C526 H498 0.929 . S
C526 C527 1.390 . S
C526 N529 1.391 1_545 S
C527 H499 0.930 . S
C527 C526 1.390 . S
C527 C528 1.392 . S
C528 H500 0.929 . S
C528 C525 1.391 1_545 S
C528 C527 1.392 . S
N529 Co473 2.257 . S
N529 C526 1.391 1_565 S
N529 C530 1.388 . S
C530 H501 0.930 . S
C530 C525 1.391 . S
C530 N529 1.388 . S
Co531 O533 2.143 . S
Co531 O539 2.074 . S
Co531 O542 2.093 . S
Co531 O555 2.097 1_655 S
Co531 N572 2.151 . S
Co531 N580 2.214 . S
Co532 O533 2.160 . S
Co532 O538 2.058 . S
Co532 O548 2.057 . S
Co532 O563 2.037 . S
Co532 N567 2.145 . S
Co532 N588 2.257 . S
O533 Co531 2.143 . S
O533 Co532 2.160 . S
C534 O535 1.278 . S
C534 O542 1.224 . S
O535 C534 1.278 . S
C536 O537 1.245 . S
C536 O548 1.232 . S
O537 C536 1.245 . S
O538 Co532 2.058 . S
O538 C564 1.269 . S
O539 Co531 2.074 . S
O539 C564 1.257 . S
H540 C565 0.930 . S
H541 C571 0.930 . S
O542 Co531 2.093 . S
O542 C534 1.224 . S
H543 C575 0.929 . S
H544 C577 0.930 . S
H545 C578 0.930 . S
H546 C576 0.929 . S
H547 C579 0.928 . S
O548 Co532 2.057 . S
O548 C536 1.232 . S
H549 C568 0.929 . S
H550 C569 0.929 . S
H551 C581 0.933 . S
H552 C573 0.929 . S
H553 C582 0.940 . S
H554 C574 0.931 . S
O555 Co531 2.097 1_455 S
O555 C583 1.214 . S
H556 C584 0.929 . S
H557 C585 0.929 . S
H558 C586 0.930 . S
H559 C587 0.929 . S
H560 C589 0.930 . S
H561 C566 0.930 . S
H562 C570 0.930 . S
O563 Co532 2.037 . S
O563 C583 1.234 1_655 S
C564 O538 1.269 . S
C564 O539 1.257 . S
C565 H540 0.930 . S
C565 C568 1.388 . S
C565 C570 1.418 . S
C566 H561 0.930 . S
C566 C569 1.404 . S
C566 C570 1.353 . S
N567 Co532 2.145 . S
N567 C568 1.397 . S
N567 C569 1.334 . S
C568 H549 0.929 . S
C568 C565 1.388 . S
C568 N567 1.397 . S
C569 H550 0.929 . S
C569 C566 1.404 . S
C569 N567 1.334 . S
C570 H562 0.930 . S
C570 C565 1.418 . S
C570 C566 1.353 . S
C571 H541 0.930 . S
C571 N572 1.330 . S
C571 C573 1.446 . S
N572 Co531 2.151 . S
N572 C571 1.330 . S
N572 C576 1.418 . S
C573 H552 0.929 . S
C573 C571 1.446 . S
C573 C574 1.332 . S
C574 H554 0.931 . S
C574 C573 1.332 . S
C574 C575 1.267 . S
C575 H543 0.929 . S
C575 C574 1.267 . S
C575 C576 1.251 . S
C576 H546 0.929 . S
C576 N572 1.418 . S
C576 C575 1.251 . S
C577 H544 0.930 . S
C577 C579 1.406 . S
C577 C582 1.252 1_655 S
C578 H545 0.930 . S
C578 N580 1.325 . S
C578 C581 1.355 1_655 S
C579 H547 0.928 . S
C579 C577 1.406 . S
C579 N580 1.261 . S
N580 Co531 2.214 . S
N580 C578 1.325 . S
N580 C579 1.261 . S
C581 H551 0.933 . S
C581 C578 1.355 1_455 S
C581 C582 1.312 . S
C582 H553 0.940 . S
C582 C577 1.252 1_455 S
C582 C581 1.312 . S
C583 O555 1.214 . S
C583 O563 1.234 1_455 S
C584 H556 0.929 . S
C584 C587 1.391 1_655 S
C584 C589 1.391 . S
C585 H557 0.929 . S
C585 C586 1.390 . S
C585 N588 1.391 1_455 S
C586 H558 0.930 . S
C586 C585 1.390 . S
C586 C587 1.392 . S
C587 H559 0.929 . S
C587 C584 1.391 1_455 S
C587 C586 1.392 . S
N588 Co532 2.257 . S
N588 C585 1.391 1_655 S
N588 C589 1.388 . S
C589 H560 0.930 . S
C589 C584 1.391 . S
C589 N588 1.388 . S
Co590 O592 2.143 . S
Co590 O598 2.074 . S
Co590 O601 2.093 . S
Co590 O614 2.097 1_545 S
Co590 N631 2.151 . S
Co590 N639 2.214 . S
Co591 O592 2.160 . S
Co591 O597 2.058 . S
Co591 O607 2.057 . S
Co591 O622 2.037 . S
Co591 N626 2.145 . S
Co591 N647 2.257 . S
O592 Co590 2.143 . S
O592 Co591 2.160 . S
C593 O594 1.278 . S
C593 O601 1.224 . S
O594 C593 1.278 . S
C595 O596 1.245 . S
C595 O607 1.232 . S
O596 C595 1.245 . S
O597 Co591 2.058 . S
O597 C623 1.269 . S
O598 Co590 2.074 . S
O598 C623 1.257 . S
H599 C624 0.930 . S
H600 C630 0.930 . S
O601 Co590 2.093 . S
O601 C593 1.224 . S
H602 C634 0.929 . S
H603 C636 0.930 . S
H604 C637 0.930 . S
H605 C635 0.929 . S
H606 C638 0.928 . S
O607 Co591 2.057 . S
O607 C595 1.232 . S
H608 C627 0.929 . S
H609 C628 0.929 . S
H610 C640 0.933 . S
H611 C632 0.929 . S
H612 C641 0.940 . S
H613 C633 0.931 . S
O614 Co590 2.097 1_565 S
O614 C642 1.214 . S
H615 C643 0.929 . S
H616 C644 0.929 . S
H617 C645 0.930 . S
H618 C646 0.929 . S
H619 C648 0.930 . S
H620 C625 0.930 . S
H621 C629 0.930 . S
O622 Co591 2.037 . S
O622 C642 1.234 1_545 S
C623 O597 1.269 . S
C623 O598 1.257 . S
C624 H599 0.930 . S
C624 C627 1.388 . S
C624 C629 1.418 . S
C625 H620 0.930 . S
C625 C628 1.404 . S
C625 C629 1.353 . S
N626 Co591 2.145 . S
N626 C627 1.397 . S
N626 C628 1.334 . S
C627 H608 0.929 . S
C627 C624 1.388 . S
C627 N626 1.397 . S
C628 H609 0.929 . S
C628 C625 1.404 . S
C628 N626 1.334 . S
C629 H621 0.930 . S
C629 C624 1.418 . S
C629 C625 1.353 . S
C630 H600 0.930 . S
C630 N631 1.330 . S
C630 C632 1.446 . S
N631 Co590 2.151 . S
N631 C630 1.330 . S
N631 C635 1.418 . S
C632 H611 0.929 . S
C632 C630 1.446 . S
C632 C633 1.332 . S
C633 H613 0.931 . S
C633 C632 1.332 . S
C633 C634 1.267 . S
C634 H602 0.929 . S
C634 C633 1.267 . S
C634 C635 1.251 . S
C635 H605 0.929 . S
C635 N631 1.418 . S
C635 C634 1.251 . S
C636 H603 0.930 . S
C636 C638 1.406 . S
C636 C641 1.252 1_545 S
C637 H604 0.930 . S
C637 N639 1.325 . S
C637 C640 1.355 1_545 S
C638 H606 0.928 . S
C638 C636 1.406 . S
C638 N639 1.261 . S
N639 Co590 2.214 . S
N639 C637 1.325 . S
N639 C638 1.261 . S
C640 H610 0.933 . S
C640 C637 1.355 1_565 S
C640 C641 1.312 . S
C641 H612 0.940 . S
C641 C636 1.252 1_565 S
C641 C640 1.312 . S
C642 O614 1.214 . S
C642 O622 1.234 1_565 S
C643 H615 0.929 . S
C643 C646 1.391 1_545 S
C643 C648 1.391 . S
C644 H616 0.929 . S
C644 C645 1.390 . S
C644 N647 1.391 1_565 S
C645 H617 0.930 . S
C645 C644 1.390 . S
C645 C646 1.392 . S
C646 H618 0.929 . S
C646 C643 1.391 1_565 S
C646 C645 1.392 . S
N647 Co591 2.257 . S
N647 C644 1.391 1_545 S
N647 C648 1.388 . S
C648 H619 0.930 . S
C648 C643 1.391 . S
C648 N647 1.388 . S
Co649 O651 2.143 . S
Co649 O657 2.074 . S
Co649 O660 2.093 . S
Co649 O673 2.097 1_455 S
Co649 N690 2.151 . S
Co649 N698 2.214 . S
Co650 O651 2.160 . S
Co650 O656 2.058 . S
Co650 O666 2.057 . S
Co650 O681 2.037 . S
Co650 N685 2.145 . S
Co650 N706 2.257 . S
O651 Co649 2.143 . S
O651 Co650 2.160 . S
C652 O653 1.278 . S
C652 O660 1.224 . S
O653 C652 1.278 . S
C654 O655 1.245 . S
C654 O666 1.232 . S
O655 C654 1.245 . S
O656 Co650 2.058 . S
O656 C682 1.269 . S
O657 Co649 2.074 . S
O657 C682 1.257 . S
H658 C683 0.930 . S
H659 C689 0.930 . S
O660 Co649 2.093 . S
O660 C652 1.224 . S
H661 C693 0.929 . S
H662 C695 0.930 . S
H663 C696 0.930 . S
H664 C694 0.929 . S
H665 C697 0.928 . S
O666 Co650 2.057 . S
O666 C654 1.232 . S
H667 C686 0.929 . S
H668 C687 0.929 . S
H669 C699 0.933 . S
H670 C691 0.929 . S
H671 C700 0.940 . S
H672 C692 0.931 . S
O673 Co649 2.097 1_655 S
O673 C701 1.214 . S
H674 C702 0.929 . S
H675 C703 0.929 . S
H676 C704 0.930 . S
H677 C705 0.929 . S
H678 C707 0.930 . S
H679 C684 0.930 . S
H680 C688 0.930 . S
O681 Co650 2.037 . S
O681 C701 1.234 1_455 S
C682 O656 1.269 . S
C682 O657 1.257 . S
C683 H658 0.930 . S
C683 C686 1.388 . S
C683 C688 1.418 . S
C684 H679 0.930 . S
C684 C687 1.404 . S
C684 C688 1.353 . S
N685 Co650 2.145 . S
N685 C686 1.397 . S
N685 C687 1.334 . S
C686 H667 0.929 . S
C686 C683 1.388 . S
C686 N685 1.397 . S
C687 H668 0.929 . S
C687 C684 1.404 . S
C687 N685 1.334 . S
C688 H680 0.930 . S
C688 C683 1.418 . S
C688 C684 1.353 . S
C689 H659 0.930 . S
C689 N690 1.330 . S
C689 C691 1.446 . S
N690 Co649 2.151 . S
N690 C689 1.330 . S
N690 C694 1.418 . S
C691 H670 0.929 . S
C691 C689 1.446 . S
C691 C692 1.332 . S
C692 H672 0.931 . S
C692 C691 1.332 . S
C692 C693 1.267 . S
C693 H661 0.929 . S
C693 C692 1.267 . S
C693 C694 1.251 . S
C694 H664 0.929 . S
C694 N690 1.418 . S
C694 C693 1.251 . S
C695 H662 0.930 . S
C695 C697 1.406 . S
C695 C700 1.252 1_455 S
C696 H663 0.930 . S
C696 N698 1.325 . S
C696 C699 1.355 1_455 S
C697 H665 0.928 . S
C697 C695 1.406 . S
C697 N698 1.261 . S
N698 Co649 2.214 . S
N698 C696 1.325 . S
N698 C697 1.261 . S
C699 H669 0.933 . S
C699 C696 1.355 1_655 S
C699 C700 1.312 . S
C700 H671 0.940 . S
C700 C695 1.252 1_655 S
C700 C699 1.312 . S
C701 O673 1.214 . S
C701 O681 1.234 1_655 S
C702 H674 0.929 . S
C702 C705 1.391 1_455 S
C702 C707 1.391 . S
C703 H675 0.929 . S
C703 C704 1.390 . S
C703 N706 1.391 1_655 S
C704 H676 0.930 . S
C704 C703 1.390 . S
C704 C705 1.392 . S
C705 H677 0.929 . S
C705 C702 1.391 1_655 S
C705 C704 1.392 . S
N706 Co650 2.257 . S
N706 C703 1.391 1_455 S
N706 C707 1.388 . S
C707 H678 0.930 . S
C707 C702 1.391 . S
C707 N706 1.388 . S
Co708 O710 2.143 . S
Co708 O716 2.074 . S
Co708 O719 2.093 . S
Co708 O732 2.097 1_545 S
Co708 N749 2.151 . S
Co708 N757 2.214 . S
Co709 O710 2.160 . S
Co709 O715 2.058 . S
Co709 O725 2.057 . S
Co709 O740 2.037 . S
Co709 N744 2.145 . S
Co709 N765 2.257 . S
O710 Co708 2.143 . S
O710 Co709 2.160 . S
C711 O712 1.278 . S
C711 O719 1.224 . S
O712 C711 1.278 . S
C713 O714 1.245 . S
C713 O725 1.232 . S
O714 C713 1.245 . S
O715 Co709 2.058 . S
O715 C741 1.269 . S
O716 Co708 2.074 . S
O716 C741 1.257 . S
H717 C742 0.930 . S
H718 C748 0.930 . S
O719 Co708 2.093 . S
O719 C711 1.224 . S
H720 C752 0.929 . S
H721 C754 0.930 . S
H722 C755 0.930 . S
H723 C753 0.929 . S
H724 C756 0.928 . S
O725 Co709 2.057 . S
O725 C713 1.232 . S
H726 C745 0.929 . S
H727 C746 0.929 . S
H728 C758 0.933 . S
H729 C750 0.929 . S
H730 C759 0.940 . S
H731 C751 0.931 . S
O732 Co708 2.097 1_565 S
O732 C760 1.214 . S
H733 C761 0.929 . S
H734 C762 0.929 . S
H735 C763 0.930 . S
H736 C764 0.929 . S
H737 C766 0.930 . S
H738 C743 0.930 . S
H739 C747 0.930 . S
O740 Co709 2.037 . S
O740 C760 1.234 1_545 S
C741 O715 1.269 . S
C741 O716 1.257 . S
C742 H717 0.930 . S
C742 C745 1.388 . S
C742 C747 1.418 . S
C743 H738 0.930 . S
C743 C746 1.404 . S
C743 C747 1.353 . S
N744 Co709 2.145 . S
N744 C745 1.397 . S
N744 C746 1.334 . S
C745 H726 0.929 . S
C745 C742 1.388 . S
C745 N744 1.397 . S
C746 H727 0.929 . S
C746 C743 1.404 . S
C746 N744 1.334 . S
C747 H739 0.930 . S
C747 C742 1.418 . S
C747 C743 1.353 . S
C748 H718 0.930 . S
C748 N749 1.330 . S
C748 C750 1.446 . S
N749 Co708 2.151 . S
N749 C748 1.330 . S
N749 C753 1.418 . S
C750 H729 0.929 . S
C750 C748 1.446 . S
C750 C751 1.332 . S
C751 H731 0.931 . S
C751 C750 1.332 . S
C751 C752 1.267 . S
C752 H720 0.929 . S
C752 C751 1.267 . S
C752 C753 1.251 . S
C753 H723 0.929 . S
C753 N749 1.418 . S
C753 C752 1.251 . S
C754 H721 0.930 . S
C754 C756 1.406 . S
C754 C759 1.252 1_545 S
C755 H722 0.930 . S
C755 N757 1.325 . S
C755 C758 1.355 1_545 S
C756 H724 0.928 . S
C756 C754 1.406 . S
C756 N757 1.261 . S
N757 Co708 2.214 . S
N757 C755 1.325 . S
N757 C756 1.261 . S
C758 H728 0.933 . S
C758 C755 1.355 1_565 S
C758 C759 1.312 . S
C759 H730 0.940 . S
C759 C754 1.252 1_565 S
C759 C758 1.312 . S
C760 O732 1.214 . S
C760 O740 1.234 1_565 S
C761 H733 0.929 . S
C761 C764 1.391 1_545 S
C761 C766 1.391 . S
C762 H734 0.929 . S
C762 C763 1.390 . S
C762 N765 1.391 1_565 S
C763 H735 0.930 . S
C763 C762 1.390 . S
C763 C764 1.392 . S
C764 H736 0.929 . S
C764 C761 1.391 1_565 S
C764 C763 1.392 . S
N765 Co709 2.257 . S
N765 C762 1.391 1_545 S
N765 C766 1.388 . S
C766 H737 0.930 . S
C766 C761 1.391 . S
C766 N765 1.388 . S
Co767 O769 2.143 . S
Co767 O775 2.074 . S
Co767 O778 2.093 . S
Co767 O791 2.097 1_455 S
Co767 N808 2.151 . S
Co767 N816 2.214 . S
Co768 O769 2.160 . S
Co768 O774 2.058 . S
Co768 O784 2.057 . S
Co768 O799 2.037 . S
Co768 N803 2.145 . S
Co768 N824 2.257 . S
O769 Co767 2.143 . S
O769 Co768 2.160 . S
C770 O771 1.278 . S
C770 O778 1.224 . S
O771 C770 1.278 . S
C772 O773 1.245 . S
C772 O784 1.232 . S
O773 C772 1.245 . S
O774 Co768 2.058 . S
O774 C800 1.269 . S
O775 Co767 2.074 . S
O775 C800 1.257 . S
H776 C801 0.930 . S
H777 C807 0.930 . S
O778 Co767 2.093 . S
O778 C770 1.224 . S
H779 C811 0.929 . S
H780 C813 0.930 . S
H781 C814 0.930 . S
H782 C812 0.929 . S
H783 C815 0.928 . S
O784 Co768 2.057 . S
O784 C772 1.232 . S
H785 C804 0.929 . S
H786 C805 0.929 . S
H787 C817 0.933 . S
H788 C809 0.929 . S
H789 C818 0.940 . S
H790 C810 0.931 . S
O791 Co767 2.097 1_655 S
O791 C819 1.214 . S
H792 C820 0.929 . S
H793 C821 0.929 . S
H794 C822 0.930 . S
H795 C823 0.929 . S
H796 C825 0.930 . S
H797 C802 0.930 . S
H798 C806 0.930 . S
O799 Co768 2.037 . S
O799 C819 1.234 1_455 S
C800 O774 1.269 . S
C800 O775 1.257 . S
C801 H776 0.930 . S
C801 C804 1.388 . S
C801 C806 1.418 . S
C802 H797 0.930 . S
C802 C805 1.404 . S
C802 C806 1.353 . S
N803 Co768 2.145 . S
N803 C804 1.397 . S
N803 C805 1.334 . S
C804 H785 0.929 . S
C804 C801 1.388 . S
C804 N803 1.397 . S
C805 H786 0.929 . S
C805 C802 1.404 . S
C805 N803 1.334 . S
C806 H798 0.930 . S
C806 C801 1.418 . S
C806 C802 1.353 . S
C807 H777 0.930 . S
C807 N808 1.330 . S
C807 C809 1.446 . S
N808 Co767 2.151 . S
N808 C807 1.330 . S
N808 C812 1.418 . S
C809 H788 0.929 . S
C809 C807 1.446 . S
C809 C810 1.332 . S
C810 H790 0.931 . S
C810 C809 1.332 . S
C810 C811 1.267 . S
C811 H779 0.929 . S
C811 C810 1.267 . S
C811 C812 1.251 . S
C812 H782 0.929 . S
C812 N808 1.418 . S
C812 C811 1.251 . S
C813 H780 0.930 . S
C813 C815 1.406 . S
C813 C818 1.252 1_455 S
C814 H781 0.930 . S
C814 N816 1.325 . S
C814 C817 1.355 1_455 S
C815 H783 0.928 . S
C815 C813 1.406 . S
C815 N816 1.261 . S
N816 Co767 2.214 . S
N816 C814 1.325 . S
N816 C815 1.261 . S
C817 H787 0.933 . S
C817 C814 1.355 1_655 S
C817 C818 1.312 . S
C818 H789 0.940 . S
C818 C813 1.252 1_655 S
C818 C817 1.312 . S
C819 O791 1.214 . S
C819 O799 1.234 1_655 S
C820 H792 0.929 . S
C820 C823 1.391 1_455 S
C820 C825 1.391 . S
C821 H793 0.929 . S
C821 C822 1.390 . S
C821 N824 1.391 1_655 S
C822 H794 0.930 . S
C822 C821 1.390 . S
C822 C823 1.392 . S
C823 H795 0.929 . S
C823 C820 1.391 1_655 S
C823 C822 1.392 . S
N824 Co768 2.257 . S
N824 C821 1.391 1_455 S
N824 C825 1.388 . S
C825 H796 0.930 . S
C825 C820 1.391 . S
C825 N824 1.388 . S
Co826 O828 2.143 . S
Co826 O834 2.074 . S
Co826 O837 2.093 . S
Co826 O850 2.097 1_565 S
Co826 N867 2.151 . S
Co826 N875 2.214 . S
Co827 O828 2.160 . S
Co827 O833 2.058 . S
Co827 O843 2.057 . S
Co827 O858 2.037 . S
Co827 N862 2.145 . S
Co827 N883 2.257 . S
O828 Co826 2.143 . S
O828 Co827 2.160 . S
C829 O830 1.278 . S
C829 O837 1.224 . S
O830 C829 1.278 . S
C831 O832 1.245 . S
C831 O843 1.232 . S
O832 C831 1.245 . S
O833 Co827 2.058 . S
O833 C859 1.269 . S
O834 Co826 2.074 . S
O834 C859 1.257 . S
H835 C860 0.930 . S
H836 C866 0.930 . S
O837 Co826 2.093 . S
O837 C829 1.224 . S
H838 C870 0.929 . S
H839 C872 0.930 . S
H840 C873 0.930 . S
H841 C871 0.929 . S
H842 C874 0.928 . S
O843 Co827 2.057 . S
O843 C831 1.232 . S
H844 C863 0.929 . S
H845 C864 0.929 . S
H846 C876 0.933 . S
H847 C868 0.929 . S
H848 C877 0.940 . S
H849 C869 0.931 . S
O850 Co826 2.097 1_545 S
O850 C878 1.214 . S
H851 C879 0.929 . S
H852 C880 0.929 . S
H853 C881 0.930 . S
H854 C882 0.929 . S
H855 C884 0.930 . S
H856 C861 0.930 . S
H857 C865 0.930 . S
O858 Co827 2.037 . S
O858 C878 1.234 1_565 S
C859 O833 1.269 . S
C859 O834 1.257 . S
C860 H835 0.930 . S
C860 C863 1.388 . S
C860 C865 1.418 . S
C861 H856 0.930 . S
C861 C864 1.404 . S
C861 C865 1.353 . S
N862 Co827 2.145 . S
N862 C863 1.397 . S
N862 C864 1.334 . S
C863 H844 0.929 . S
C863 C860 1.388 . S
C863 N862 1.397 . S
C864 H845 0.929 . S
C864 C861 1.404 . S
C864 N862 1.334 . S
C865 H857 0.930 . S
C865 C860 1.418 . S
C865 C861 1.353 . S
C866 H836 0.930 . S
C866 N867 1.330 . S
C866 C868 1.446 . S
N867 Co826 2.151 . S
N867 C866 1.330 . S
N867 C871 1.418 . S
C868 H847 0.929 . S
C868 C866 1.446 . S
C868 C869 1.332 . S
C869 H849 0.931 . S
C869 C868 1.332 . S
C869 C870 1.267 . S
C870 H838 0.929 . S
C870 C869 1.267 . S
C870 C871 1.251 . S
C871 H841 0.929 . S
C871 N867 1.418 . S
C871 C870 1.251 . S
C872 H839 0.930 . S
C872 C874 1.406 . S
C872 C877 1.252 1_565 S
C873 H840 0.930 . S
C873 N875 1.325 . S
C873 C876 1.355 1_565 S
C874 H842 0.928 . S
C874 C872 1.406 . S
C874 N875 1.261 . S
N875 Co826 2.214 . S
N875 C873 1.325 . S
N875 C874 1.261 . S
C876 H846 0.933 . S
C876 C873 1.355 1_545 S
C876 C877 1.312 . S
C877 H848 0.940 . S
C877 C872 1.252 1_545 S
C877 C876 1.312 . S
C878 O850 1.214 . S
C878 O858 1.234 1_545 S
C879 H851 0.929 . S
C879 C882 1.391 1_565 S
C879 C884 1.391 . S
C880 H852 0.929 . S
C880 C881 1.390 . S
C880 N883 1.391 1_545 S
C881 H853 0.930 . S
C881 C880 1.390 . S
C881 C882 1.392 . S
C882 H854 0.929 . S
C882 C879 1.391 1_545 S
C882 C881 1.392 . S
N883 Co827 2.257 . S
N883 C880 1.391 1_565 S
N883 C884 1.388 . S
C884 H855 0.930 . S
C884 C879 1.391 . S
C884 N883 1.388 . S
Co885 O887 2.143 . S
Co885 O893 2.074 . S
Co885 O896 2.093 . S
Co885 O909 2.097 1_655 S
Co885 N926 2.151 . S
Co885 N934 2.214 . S
Co886 O887 2.160 . S
Co886 O892 2.058 . S
Co886 O902 2.057 . S
Co886 O917 2.037 . S
Co886 N921 2.145 . S
Co886 N942 2.257 . S
O887 Co885 2.143 . S
O887 Co886 2.160 . S
C888 O889 1.278 . S
C888 O896 1.224 . S
O889 C888 1.278 . S
C890 O891 1.245 . S
C890 O902 1.232 . S
O891 C890 1.245 . S
O892 Co886 2.058 . S
O892 C918 1.269 . S
O893 Co885 2.074 . S
O893 C918 1.257 . S
H894 C919 0.930 . S
H895 C925 0.930 . S
O896 Co885 2.093 . S
O896 C888 1.224 . S
H897 C929 0.929 . S
H898 C931 0.930 . S
H899 C932 0.930 . S
H900 C930 0.929 . S
H901 C933 0.928 . S
O902 Co886 2.057 . S
O902 C890 1.232 . S
H903 C922 0.929 . S
H904 C923 0.929 . S
H905 C935 0.933 . S
H906 C927 0.929 . S
H907 C936 0.940 . S
H908 C928 0.931 . S
O909 Co885 2.097 1_455 S
O909 C937 1.214 . S
H910 C938 0.929 . S
H911 C939 0.929 . S
H912 C940 0.930 . S
H913 C941 0.929 . S
H914 C943 0.930 . S
H915 C920 0.930 . S
H916 C924 0.930 . S
O917 Co886 2.037 . S
O917 C937 1.234 1_655 S
C918 O892 1.269 . S
C918 O893 1.257 . S
C919 H894 0.930 . S
C919 C922 1.388 . S
C919 C924 1.418 . S
C920 H915 0.930 . S
C920 C923 1.404 . S
C920 C924 1.353 . S
N921 Co886 2.145 . S
N921 C922 1.397 . S
N921 C923 1.334 . S
C922 H903 0.929 . S
C922 C919 1.388 . S
C922 N921 1.397 . S
C923 H904 0.929 . S
C923 C920 1.404 . S
C923 N921 1.334 . S
C924 H916 0.930 . S
C924 C919 1.418 . S
C924 C920 1.353 . S
C925 H895 0.930 . S
C925 N926 1.330 . S
C925 C927 1.446 . S
N926 Co885 2.151 . S
N926 C925 1.330 . S
N926 C930 1.418 . S
C927 H906 0.929 . S
C927 C925 1.446 . S
C927 C928 1.332 . S
C928 H908 0.931 . S
C928 C927 1.332 . S
C928 C929 1.267 . S
C929 H897 0.929 . S
C929 C928 1.267 . S
C929 C930 1.251 . S
C930 H900 0.929 . S
C930 N926 1.418 . S
C930 C929 1.251 . S
C931 H898 0.930 . S
C931 C933 1.406 . S
C931 C936 1.252 1_655 S
C932 H899 0.930 . S
C932 N934 1.325 . S
C932 C935 1.355 1_655 S
C933 H901 0.928 . S
C933 C931 1.406 . S
C933 N934 1.261 . S
N934 Co885 2.214 . S
N934 C932 1.325 . S
N934 C933 1.261 . S
C935 H905 0.933 . S
C935 C932 1.355 1_455 S
C935 C936 1.312 . S
C936 H907 0.940 . S
C936 C931 1.252 1_455 S
C936 C935 1.312 . S
C937 O909 1.214 . S
C937 O917 1.234 1_455 S
C938 H910 0.929 . S
C938 C941 1.391 1_655 S
C938 C943 1.391 . S
C939 H911 0.929 . S
C939 C940 1.390 . S
C939 N942 1.391 1_455 S
C940 H912 0.930 . S
C940 C939 1.390 . S
C940 C941 1.392 . S
C941 H913 0.929 . S
C941 C938 1.391 1_455 S
C941 C940 1.392 . S
N942 Co886 2.257 . S
N942 C939 1.391 1_655 S
N942 C943 1.388 . S
C943 H914 0.930 . S
C943 C938 1.391 . S
C943 N942 1.388 . S
C944 C945 1.387 . S
C944 H948 0.950 . S
C944 C953 1.390 . S
C945 C944 1.387 . S
C945 C947 1.387 . S
H946 C953 0.950 . S
C947 C945 1.387 . S
C947 C949 1.390 . S
C947 H951 0.950 . S
H948 C944 0.950 . S
C949 C947 1.390 . S
C949 C950 1.387 . S
C949 H952 0.950 . S
C950 C949 1.387 . S
C950 C953 1.387 . S
H951 C947 0.950 . S
H952 C949 0.950 . S
C953 C944 1.390 . S
C953 H946 0.950 . S
C953 C950 1.387 . S
C954 C955 1.387 . S
C954 H958 0.950 . S
C954 C963 1.390 . S
C955 C954 1.387 . S
C955 C957 1.387 . S
H956 C963 0.950 . S
C957 C955 1.387 . S
C957 C959 1.390 . S
C957 H961 0.950 . S
H958 C954 0.950 . S
C959 C957 1.390 . S
C959 C960 1.387 . S
C959 H962 0.950 . S
C960 C959 1.387 . S
C960 C963 1.387 . S
H961 C957 0.950 . S
H962 C959 0.950 . S
C963 C954 1.390 . S
C963 H956 0.950 . S
C963 C960 1.387 . S
C964 C965 1.387 . S
C964 H968 0.950 . S
C964 C973 1.390 . S
C965 C964 1.387 . S
C965 C967 1.387 . S
H966 C973 0.950 . S
C967 C965 1.387 . S
C967 C969 1.390 . S
C967 H971 0.950 . S
H968 C964 0.950 . S
C969 C967 1.390 . S
C969 C970 1.387 . S
C969 H972 0.950 . S
C970 C969 1.387 . S
C970 C973 1.387 . S
H971 C967 0.950 . S
H972 C969 0.950 . S
C973 C964 1.390 . S
C973 H966 0.950 . S
C973 C970 1.387 . S
C974 C975 1.387 . S
C974 H978 0.950 . S
C974 C983 1.390 . S
C975 C974 1.387 . S
C975 C977 1.387 . S
H976 C983 0.950 . S
C977 C975 1.387 . S
C977 C979 1.390 . S
C977 H981 0.950 . S
H978 C974 0.950 . S
C979 C977 1.390 . S
C979 C980 1.387 . S
C979 H982 0.950 . S
C980 C979 1.387 . S
C980 C983 1.387 . S
H981 C977 0.950 . S
H982 C979 0.950 . S
C983 C974 1.390 . S
C983 H976 0.950 . S
C983 C980 1.387 . S
C984 C985 1.387 . S
C984 H988 0.950 . S
C984 C993 1.390 . S
C985 C984 1.387 . S
C985 C987 1.387 . S
H986 C993 0.950 . S
C987 C985 1.387 . S
C987 C989 1.390 . S
C987 H991 0.950 . S
H988 C984 0.950 . S
C989 C987 1.390 . S
C989 C990 1.387 . S
C989 H992 0.950 . S
C990 C989 1.387 . S
C990 C993 1.387 . S
H991 C987 0.950 . S
H992 C989 0.950 . S
C993 C984 1.390 . S
C993 H986 0.950 . S
C993 C990 1.387 . S
C994 C995 1.387 . S
C994 H998 0.950 . S
C994 C1003 1.390 . S
C995 C994 1.387 . S
C995 C997 1.387 . S
H996 C1003 0.950 . S
C997 C995 1.387 . S
C997 C999 1.390 . S
C997 H1001 0.950 . S
H998 C994 0.950 . S
C999 C997 1.390 . S
C999 C1000 1.387 . S
C999 H1002 0.950 . S
C1000 C999 1.387 . S
C1000 C1003 1.387 . S
H1001 C997 0.950 . S
H1002 C999 0.950 . S
C1003 C994 1.390 . S
C1003 H996 0.950 . S
C1003 C1000 1.387 . S
C1004 C1005 1.387 . S
C1004 H1008 0.950 . S
C1004 C1013 1.390 . S
C1005 C1004 1.387 . S
C1005 C1007 1.387 . S
H1006 C1013 0.950 . S
C1007 C1005 1.387 . S
C1007 C1009 1.390 . S
C1007 H1011 0.950 . S
H1008 C1004 0.950 . S
C1009 C1007 1.390 . S
C1009 C1010 1.387 . S
C1009 H1012 0.950 . S
C1010 C1009 1.387 . S
C1010 C1013 1.387 . S
H1011 C1007 0.950 . S
H1012 C1009 0.950 . S
C1013 C1004 1.390 . S
C1013 H1006 0.950 . S
C1013 C1010 1.387 . S
C1014 C1015 1.387 . S
C1014 H1018 0.950 . S
C1014 C1023 1.390 . S
C1015 C1014 1.387 . S
C1015 C1017 1.387 . S
H1016 C1023 0.950 . S
C1017 C1015 1.387 . S
C1017 C1019 1.390 . S
C1017 H1021 0.950 . S
H1018 C1014 0.950 . S
C1019 C1017 1.390 . S
C1019 C1020 1.387 . S
C1019 H1022 0.950 . S
C1020 C1019 1.387 . S
C1020 C1023 1.387 . S
H1021 C1017 0.950 . S
H1022 C1019 0.950 . S
C1023 C1014 1.390 . S
C1023 H1016 0.950 . S
C1023 C1020 1.387 . S
C1024 C1025 1.387 . S
C1024 H1028 0.950 . S
C1024 C1033 1.390 . S
C1025 C1024 1.387 . S
C1025 C1027 1.387 . S
H1026 C1033 0.950 . S
C1027 C1025 1.387 . S
C1027 C1029 1.390 . S
C1027 H1031 0.950 . S
H1028 C1024 0.950 . S
C1029 C1027 1.390 . S
C1029 C1030 1.387 . S
C1029 H1032 0.950 . S
C1030 C1029 1.387 . S
C1030 C1033 1.387 . S
H1031 C1027 0.950 . S
H1032 C1029 0.950 . S
C1033 C1024 1.390 . S
C1033 H1026 0.950 . S
C1033 C1030 1.387 . S
C1034 C1035 1.387 . S
C1034 H1038 0.950 . S
C1034 C1043 1.390 . S
C1035 C1034 1.387 . S
C1035 C1037 1.387 . S
H1036 C1043 0.950 . S
C1037 C1035 1.387 . S
C1037 C1039 1.390 . S
C1037 H1041 0.950 . S
H1038 C1034 0.950 . S
C1039 C1037 1.390 . S
C1039 C1040 1.387 . S
C1039 H1042 0.950 . S
C1040 C1039 1.387 . S
C1040 C1043 1.387 . S
H1041 C1037 0.950 . S
H1042 C1039 0.950 . S
C1043 C1034 1.390 . S
C1043 H1036 0.950 . S
C1043 C1040 1.387 . S
C1044 C1045 1.387 . S
C1044 H1048 0.950 . S
C1044 C1053 1.390 . S
C1045 C1044 1.387 . S
C1045 C1047 1.387 . S
H1046 C1053 0.950 . S
C1047 C1045 1.387 . S
C1047 C1049 1.390 . S
C1047 H1051 0.950 . S
H1048 C1044 0.950 . S
C1049 C1047 1.390 . S
C1049 C1050 1.387 . S
C1049 H1052 0.950 . S
C1050 C1049 1.387 . S
C1050 C1053 1.387 . S
H1051 C1047 0.950 . S
H1052 C1049 0.950 . S
C1053 C1044 1.390 . S
C1053 H1046 0.950 . S
C1053 C1050 1.387 . S
C1054 C1055 1.387 . S
C1054 H1058 0.950 . S
C1054 C1063 1.390 . S
C1055 C1054 1.387 . S
C1055 C1057 1.387 . S
H1056 C1063 0.950 . S
C1057 C1055 1.387 . S
C1057 C1059 1.390 . S
C1057 H1061 0.950 . S
H1058 C1054 0.950 . S
C1059 C1057 1.390 . S
C1059 C1060 1.387 . S
C1059 H1062 0.950 . S
C1060 C1059 1.387 . S
C1060 C1063 1.387 . S
H1061 C1057 0.950 . S
H1062 C1059 0.950 . S
C1063 C1054 1.390 . S
C1063 H1056 0.950 . S
C1063 C1060 1.387 . S
C1064 C1065 1.387 . S
C1064 H1068 0.950 . S
C1064 C1073 1.390 . S
C1065 C1064 1.387 . S
C1065 C1067 1.387 . S
H1066 C1073 0.950 . S
C1067 C1065 1.387 . S
C1067 C1069 1.390 . S
C1067 H1071 0.950 . S
H1068 C1064 0.950 . S
C1069 C1067 1.390 . S
C1069 C1070 1.387 . S
C1069 H1072 0.950 . S
C1070 C1069 1.387 . S
C1070 C1073 1.387 . S
H1071 C1067 0.950 . S
H1072 C1069 0.950 . S
C1073 C1064 1.390 . S
C1073 H1066 0.950 . S
C1073 C1070 1.387 . S
C1074 C1075 1.387 . S
C1074 H1078 0.950 . S
C1074 C1083 1.390 . S
C1075 C1074 1.387 . S
C1075 C1077 1.387 . S
H1076 C1083 0.950 . S
C1077 C1075 1.387 . S
C1077 C1079 1.390 . S
C1077 H1081 0.950 . S
H1078 C1074 0.950 . S
C1079 C1077 1.390 . S
C1079 C1080 1.387 . S
C1079 H1082 0.950 . S
C1080 C1079 1.387 . S
C1080 C1083 1.387 . S
H1081 C1077 0.950 . S
H1082 C1079 0.950 . S
C1083 C1074 1.390 . S
C1083 H1076 0.950 . S
C1083 C1080 1.387 . S
C1084 C1085 1.387 . S
C1084 H1088 0.950 . S
C1084 C1093 1.390 . S
C1085 C1084 1.387 . S
C1085 C1087 1.387 . S
H1086 C1093 0.950 . S
C1087 C1085 1.387 . S
C1087 C1089 1.390 . S
C1087 H1091 0.950 . S
H1088 C1084 0.950 . S
C1089 C1087 1.390 . S
C1089 C1090 1.387 . S
C1089 H1092 0.950 . S
C1090 C1089 1.387 . S
C1090 C1093 1.387 . S
H1091 C1087 0.950 . S
H1092 C1089 0.950 . S
C1093 C1084 1.390 . S
C1093 H1086 0.950 . S
C1093 C1090 1.387 . S
C1094 C1095 1.387 . S
C1094 H1098 0.950 . S
C1094 C1103 1.390 . S
C1095 C1094 1.387 . S
C1095 C1097 1.387 . S
H1096 C1103 0.950 . S
C1097 C1095 1.387 . S
C1097 C1099 1.390 . S
C1097 H1101 0.950 . S
H1098 C1094 0.950 . S
C1099 C1097 1.390 . S
C1099 C1100 1.387 . S
C1099 H1102 0.950 . S
C1100 C1099 1.387 . S
C1100 C1103 1.387 . S
H1101 C1097 0.950 . S
H1102 C1099 0.950 . S
C1103 C1094 1.390 . S
C1103 H1096 0.950 . S
C1103 C1100 1.387 . S
C1104 C1105 1.387 . S
C1104 H1108 0.950 . S
C1104 C1113 1.390 . S
C1105 C1104 1.387 . S
C1105 C1107 1.387 . S
H1106 C1113 0.950 . S
C1107 C1105 1.387 . S
C1107 C1109 1.390 . S
C1107 H1111 0.950 . S
H1108 C1104 0.950 . S
C1109 C1107 1.390 . S
C1109 C1110 1.387 . S
C1109 H1112 0.950 . S
C1110 C1109 1.387 . S
C1110 C1113 1.387 . S
H1111 C1107 0.950 . S
H1112 C1109 0.950 . S
C1113 C1104 1.390 . S
C1113 H1106 0.950 . S
C1113 C1110 1.387 . S
C1114 C1115 1.387 . S
C1114 H1118 0.950 . S
C1114 C1123 1.390 . S
C1115 C1114 1.387 . S
C1115 C1117 1.387 . S
H1116 C1123 0.950 . S
C1117 C1115 1.387 . S
C1117 C1119 1.390 . S
C1117 H1121 0.950 . S
H1118 C1114 0.950 . S
C1119 C1117 1.390 . S
C1119 C1120 1.387 . S
C1119 H1122 0.950 . S
C1120 C1119 1.387 . S
C1120 C1123 1.387 . S
H1121 C1117 0.950 . S
H1122 C1119 0.950 . S
C1123 C1114 1.390 . S
C1123 H1116 0.950 . S
C1123 C1120 1.387 . S
C1124 C1125 1.387 . S
C1124 H1128 0.950 . S
C1124 C1133 1.390 . S
C1125 C1124 1.387 . S
C1125 C1127 1.387 . S
H1126 C1133 0.950 . S
C1127 C1125 1.387 . S
C1127 C1129 1.390 . S
C1127 H1131 0.950 . S
H1128 C1124 0.950 . S
C1129 C1127 1.390 . S
C1129 C1130 1.387 . S
C1129 H1132 0.950 . S
C1130 C1129 1.387 . S
C1130 C1133 1.387 . S
H1131 C1127 0.950 . S
H1132 C1129 0.950 . S
C1133 C1124 1.390 . S
C1133 H1126 0.950 . S
C1133 C1130 1.387 . S
C1134 C1135 1.387 . S
C1134 H1138 0.950 . S
C1134 C1143 1.390 . S
C1135 C1134 1.387 . S
C1135 C1137 1.387 . S
H1136 C1143 0.950 . S
C1137 C1135 1.387 . S
C1137 C1139 1.390 . S
C1137 H1141 0.950 . S
H1138 C1134 0.950 . S
C1139 C1137 1.390 . S
C1139 C1140 1.387 . S
C1139 H1142 0.950 . S
C1140 C1139 1.387 . S
C1140 C1143 1.387 . S
H1141 C1137 0.950 . S
H1142 C1139 0.950 . S
C1143 C1134 1.390 . S
C1143 H1136 0.950 . S
C1143 C1140 1.387 . S
C1144 C1145 1.387 . S
C1144 H1148 0.950 . S
C1144 C1153 1.390 . S
C1145 C1144 1.387 . S
C1145 C1147 1.387 . S
H1146 C1153 0.950 . S
C1147 C1145 1.387 . S
C1147 C1149 1.390 . S
C1147 H1151 0.950 . S
H1148 C1144 0.950 . S
C1149 C1147 1.390 . S
C1149 C1150 1.387 . S
C1149 H1152 0.950 . S
C1150 C1149 1.387 . S
C1150 C1153 1.387 . S
H1151 C1147 0.950 . S
H1152 C1149 0.950 . S
C1153 C1144 1.390 . S
C1153 H1146 0.950 . S
C1153 C1150 1.387 . S
C1154 C1155 1.387 . S
C1154 H1158 0.950 . S
C1154 C1163 1.390 . S
C1155 C1154 1.387 . S
C1155 C1157 1.387 . S
H1156 C1163 0.950 . S
C1157 C1155 1.387 . S
C1157 C1159 1.390 . S
C1157 H1161 0.950 . S
H1158 C1154 0.950 . S
C1159 C1157 1.390 . S
C1159 C1160 1.387 . S
C1159 H1162 0.950 . S
C1160 C1159 1.387 . S
C1160 C1163 1.387 . S
H1161 C1157 0.950 . S
H1162 C1159 0.950 . S
C1163 C1154 1.390 . S
C1163 H1156 0.950 . S
C1163 C1160 1.387 . S
C1164 C1165 1.387 . S
C1164 H1168 0.950 . S
C1164 C1173 1.390 . S
C1165 C1164 1.387 . S
C1165 C1167 1.387 . S
H1166 C1173 0.950 . S
C1167 C1165 1.387 . S
C1167 C1169 1.390 . S
C1167 H1171 0.950 . S
H1168 C1164 0.950 . S
C1169 C1167 1.390 . S
C1169 C1170 1.387 . S
C1169 H1172 0.950 . S
C1170 C1169 1.387 . S
C1170 C1173 1.387 . S
H1171 C1167 0.950 . S
H1172 C1169 0.950 . S
C1173 C1164 1.390 . S
C1173 H1166 0.950 . S
C1173 C1170 1.387 . S
C1174 C1175 1.387 . S
C1174 H1178 0.950 . S
C1174 C1183 1.390 . S
C1175 C1174 1.387 . S
C1175 C1177 1.387 . S
H1176 C1183 0.950 . S
C1177 C1175 1.387 . S
C1177 C1179 1.390 . S
C1177 H1181 0.950 . S
H1178 C1174 0.950 . S
C1179 C1177 1.390 . S
C1179 C1180 1.387 . S
C1179 H1182 0.950 . S
C1180 C1179 1.387 . S
C1180 C1183 1.387 . S
H1181 C1177 0.950 . S
H1182 C1179 0.950 . S
C1183 C1174 1.390 . S
C1183 H1176 0.950 . S
C1183 C1180 1.387 . S
C1184 C1185 1.387 . S
C1184 H1188 0.950 . S
C1184 C1193 1.390 . S
C1185 C1184 1.387 . S
C1185 C1187 1.387 . S
H1186 C1193 0.950 . S
C1187 C1185 1.387 . S
C1187 C1189 1.390 . S
C1187 H1191 0.950 . S
H1188 C1184 0.950 . S
C1189 C1187 1.390 . S
C1189 C1190 1.387 . S
C1189 H1192 0.950 . S
C1190 C1189 1.387 . S
C1190 C1193 1.387 . S
H1191 C1187 0.950 . S
H1192 C1189 0.950 . S
C1193 C1184 1.390 . S
C1193 H1186 0.950 . S
C1193 C1190 1.387 . S
C1194 C1195 1.387 . S
C1194 H1198 0.950 . S
C1194 C1203 1.390 . S
C1195 C1194 1.387 . S
C1195 C1197 1.387 . S
H1196 C1203 0.950 . S
C1197 C1195 1.387 . S
C1197 C1199 1.390 . S
C1197 H1201 0.950 . S
H1198 C1194 0.950 . S
C1199 C1197 1.390 . S
C1199 C1200 1.387 . S
C1199 H1202 0.950 . S
C1200 C1199 1.387 . S
C1200 C1203 1.387 . S
H1201 C1197 0.950 . S
H1202 C1199 0.950 . S
C1203 C1194 1.390 . S
C1203 H1196 0.950 . S
C1203 C1200 1.387 . S
C1204 C1205 1.387 . S
C1204 H1208 0.950 . S
C1204 C1213 1.390 . S
C1205 C1204 1.387 . S
C1205 C1207 1.387 . S
H1206 C1213 0.950 . S
C1207 C1205 1.387 . S
C1207 C1209 1.390 . S
C1207 H1211 0.950 . S
H1208 C1204 0.950 . S
C1209 C1207 1.390 . S
C1209 C1210 1.387 . S
C1209 H1212 0.950 . S
C1210 C1209 1.387 . S
C1210 C1213 1.387 . S
H1211 C1207 0.950 . S
H1212 C1209 0.950 . S
C1213 C1204 1.390 . S
C1213 H1206 0.950 . S
C1213 C1210 1.387 . S
C1214 C1215 1.387 . S
C1214 H1218 0.950 . S
C1214 C1223 1.390 . S
C1215 C1214 1.387 . S
C1215 C1217 1.387 . S
H1216 C1223 0.950 . S
C1217 C1215 1.387 . S
C1217 C1219 1.390 . S
C1217 H1221 0.950 . S
H1218 C1214 0.950 . S
C1219 C1217 1.390 . S
C1219 C1220 1.387 . S
C1219 H1222 0.950 . S
C1220 C1219 1.387 . S
C1220 C1223 1.387 . S
H1221 C1217 0.950 . S
H1222 C1219 0.950 . S
C1223 C1214 1.390 . S
C1223 H1216 0.950 . S
C1223 C1220 1.387 . S
C1224 C1225 1.387 . S
C1224 H1228 0.950 . S
C1224 C1233 1.390 1_544 S
C1225 C1224 1.387 . S
C1225 C1227 1.387 . S
H1226 C1233 0.950 . S
C1227 C1225 1.387 . S
C1227 C1229 1.390 1_544 S
C1227 H1231 0.950 . S
H1228 C1224 0.950 . S
C1229 C1227 1.390 1_566 S
C1229 C1230 1.387 . S
C1229 H1232 0.950 . S
C1230 C1229 1.387 . S
C1230 C1233 1.387 . S
H1231 C1227 0.950 . S
H1232 C1229 0.950 . S
C1233 C1224 1.390 1_566 S
C1233 H1226 0.950 . S
C1233 C1230 1.387 . S
C1234 C1235 1.387 . S
C1234 H1238 0.950 . S
C1234 C1243 1.390 1_456 S
C1235 C1234 1.387 . S
C1235 C1237 1.387 . S
H1236 C1243 0.950 . S
C1237 C1235 1.387 . S
C1237 C1239 1.390 1_456 S
C1237 H1241 0.950 . S
H1238 C1234 0.950 . S
C1239 C1237 1.390 1_654 S
C1239 C1240 1.387 . S
C1239 H1242 0.950 . S
C1240 C1239 1.387 . S
C1240 C1243 1.387 . S
H1241 C1237 0.950 . S
H1242 C1239 0.950 . S
C1243 C1234 1.390 1_654 S
C1243 H1236 0.950 . S
C1243 C1240 1.387 . S
C1244 C1245 1.387 . S
C1244 H1248 0.950 . S
C1244 C1253 1.390 1_546 S
C1245 C1244 1.387 . S
C1245 C1247 1.387 . S
H1246 C1253 0.950 . S
C1247 C1245 1.387 . S
C1247 C1249 1.390 1_546 S
C1247 H1251 0.950 . S
H1248 C1244 0.950 . S
C1249 C1247 1.390 1_564 S
C1249 C1250 1.387 . S
C1249 H1252 0.950 . S
C1250 C1249 1.387 . S
C1250 C1253 1.387 . S
H1251 C1247 0.950 . S
H1252 C1249 0.950 . S
C1253 C1244 1.390 1_564 S
C1253 H1246 0.950 . S
C1253 C1250 1.387 . S
C1254 C1255 1.387 . S
C1254 H1258 0.950 . S
C1254 C1263 1.390 1_656 S
C1255 C1254 1.387 . S
C1255 C1257 1.387 . S
H1256 C1263 0.950 . S
C1257 C1255 1.387 . S
C1257 C1259 1.390 1_656 S
C1257 H1261 0.950 . S
H1258 C1254 0.950 . S
C1259 C1257 1.390 1_454 S
C1259 C1260 1.387 . S
C1259 H1262 0.950 . S
C1260 C1259 1.387 . S
C1260 C1263 1.387 . S
H1261 C1257 0.950 . S
H1262 C1259 0.950 . S
C1263 C1254 1.390 1_454 S
C1263 H1256 0.950 . S
C1263 C1260 1.387 . S
C945 C5 1.409 . S
C950 C418 1.409 . S
C955 C64 1.409 . S
C960 C241 1.409 . S
C965 C300 1.409 . S
C970 C123 1.409 . S
C975 C182 1.409 . S
C980 C359 1.409 . S
C985 C477 1.409 . S
C990 C890 1.409 . S
C995 C713 1.409 . S
C1000 C536 1.409 . S
C1005 C772 1.409 . S
C1010 C595 1.409 . S
C1015 C831 1.409 . S
C1020 C654 1.409 . S
C1025 C52 1.531 . S
C1030 C682 1.530 . S
C1035 C111 1.531 . S
C1040 C505 1.530 . S
C1045 C564 1.530 . S
C1050 C170 1.531 . S
C1055 C229 1.531 . S
C1060 C623 1.530 . S
C1065 C288 1.531 . S
C1070 C800 1.530 . S
C1075 C859 1.530 . S
C1080 C347 1.531 . S
C1085 C406 1.531 . S
C1090 C918 1.530 . S
C1095 C741 1.530 . S
C1100 C465 1.531 . S
C1105 C524 1.530 . S
C1110 C210 1.530 . S
C1115 C33 1.530 . S
C1120 C583 1.531 . S
C1125 C642 1.531 . S
C1130 C92 1.530 . S
C1135 C151 1.530 . S
C1140 C701 1.531 . S
C1145 C760 1.530 . S
C1150 C328 1.530 . S
C1155 C387 1.530 . S
C1160 C819 1.531 . S
C1165 C446 1.530 . S
C1170 C878 1.530 . S
C1175 C269 1.530 . S
C1180 C937 1.530 . S
C1185 C239 1.612 . S
C1190 C3 1.612 . S
C1195 C298 1.612 . S
C1200 C62 1.612 . S
C1205 C121 1.612 . S
C1210 C357 1.612 . S
C1215 C416 1.612 . S
C1220 C180 1.612 . S
C1225 C711 1.612 . S
C1230 C475 1.612 . S
C1235 C770 1.612 . S
C1240 C534 1.612 . S
C1245 C593 1.612 . S
C1250 C829 1.612 . S
C1255 C888 1.612 . S
C1260 C652 1.612 . S
