# Generated by pormake.
# Topology zft, (5)-cn, num edge types: 1
# Building blocks:
#     Node 0, Type 0, BuildingBlock: BEQFEK_clean_sbu_0, # of connection points: 5
#     Node 1, Type 0, BuildingBlock: BEQFEK_clean_sbu_0, # of connection points: 5
#     Node 2, Type 0, BuildingBlock: BEQFEK_clean_sbu_0, # of connection points: 5
#     Node 3, Type 0, BuildingBlock: BEQFEK_clean_sbu_0, # of connection points: 5
#     Node 4, Type 0, BuildingBlock: BEQFEK_clean_sbu_0, # of connection points: 5
#     Node 5, Type 0, BuildingBlock: BEQFEK_clean_sbu_0, # of connection points: 5
#     Node 6, Type 0, BuildingBlock: BEQFEK_clean_sbu_0, # of connection points: 5
#     Node 7, Type 0, BuildingBlock: BEQFEK_clean_sbu_0, # of connection points: 5
#     Edge 8, Type (0, 0), BuildingBlock: MIFKUJ_clean_linker_0, # of connection points: 2
#     Edge 9, Type (0, 0), BuildingBlock: MIFKUJ_clean_linker_0, # of connection points: 2
#     Edge 10, Type (0, 0), BuildingBlock: MIFKUJ_clean_linker_0, # of connection points: 2
#     Edge 11, Type (0, 0), BuildingBlock: MIFKUJ_clean_linker_0, # of connection points: 2
#     Edge 12, Type (0, 0), BuildingBlock: MIFKUJ_clean_linker_0, # of connection points: 2
#     Edge 13, Type (0, 0), BuildingBlock: MIFKUJ_clean_linker_0, # of connection points: 2
#     Edge 14, Type (0, 0), BuildingBlock: MIFKUJ_clean_linker_0, # of connection points: 2
#     Edge 15, Type (0, 0), BuildingBlock: MIFKUJ_clean_linker_0, # of connection points: 2
#     Edge 16, Type (0, 0), BuildingBlock: MIFKUJ_clean_linker_0, # of connection points: 2
#     Edge 17, Type (0, 0), BuildingBlock: MIFKUJ_clean_linker_0, # of connection points: 2
#     Edge 18, Type (0, 0), BuildingBlock: MIFKUJ_clean_linker_0, # of connection points: 2
#     Edge 19, Type (0, 0), BuildingBlock: MIFKUJ_clean_linker_0, # of connection points: 2
#     Edge 20, Type (0, 0), BuildingBlock: MIFKUJ_clean_linker_0, # of connection points: 2
#     Edge 21, Type (0, 0), BuildingBlock: MIFKUJ_clean_linker_0, # of connection points: 2
#     Edge 22, Type (0, 0), BuildingBlock: MIFKUJ_clean_linker_0, # of connection points: 2
#     Edge 23, Type (0, 0), BuildingBlock: MIFKUJ_clean_linker_0, # of connection points: 2
#     Edge 24, Type (0, 0), BuildingBlock: MIFKUJ_clean_linker_0, # of connection points: 2
#     Edge 25, Type (0, 0), BuildingBlock: MIFKUJ_clean_linker_0, # of connection points: 2
#     Edge 26, Type (0, 0), BuildingBlock: MIFKUJ_clean_linker_0, # of connection points: 2
#     Edge 27, Type (0, 0), BuildingBlock: MIFKUJ_clean_linker_0, # of connection points: 2
# Relax obj value: 0.057
# Max RMSD: 0.119
# Mean RMSD: 0.119
data_MOF--net-zft--node1-BEQFEK_clean_sbu_0--edge1-MIFKUJ_clean_linker_0
_symmetry_space_group_name_H-M    P1
_symmetry_Int_Tables_number       1
_symmetry_cell_setting            triclinic
loop_
_symmetry_equiv_pos_as_xyz
'x, y, z'
_cell_length_a     35.498349
_cell_length_b     35.496408
_cell_length_c     69.898462
_cell_angle_alpha  90.018769
_cell_angle_beta   90.030125
_cell_angle_gamma 89.984737
loop_
_atom_site_label
_atom_site_type_symbol
_atom_site_fract_x
_atom_site_fract_y
_atom_site_fract_z
_atom_type_partial_charge
Co0 Co 0.06173 0.28042 0.18842 0.0
Co1 Co 0.12616 0.33377 0.17406 0.0
C2 C 0.05142 0.3311 0.15446 0.0
O3 O 0.03927 0.30586 0.16584 0.0
O4 O 0.08442 0.34475 0.15612 0.0
C5 C 0.98781 0.26126 0.20192 0.0
O6 O 0.97804 0.29347 0.1941 0.0
C7 C 0.1658 0.40166 0.16103 0.0
C8 C 0.22522 0.38659 0.16669 0.0
C9 C 0.20248 0.41476 0.1593 0.0
N10 N 0.16688 0.36743 0.16922 0.0
N11 N 0.20244 0.35865 0.17264 0.0
C12 C 0.13058 0.41887 0.15313 0.0
H13 H 0.12192 0.40268 0.14029 0.0
H14 H 0.10764 0.41673 0.16385 0.0
H15 H 0.13443 0.44861 0.14883 0.0
C16 C 0.07559 0.32314 0.22432 0.0
N17 N 0.08277 0.31566 0.20578 0.0
N18 N 0.10926 0.33863 0.19964 0.0
C19 C 0.1192 0.36198 0.21398 0.0
C20 C 0.09825 0.35285 0.23005 0.0
C21 C 0.04672 0.30302 0.23609 0.0
H22 H 0.05052 0.27214 0.23459 0.0
H23 H 0.01825 0.31035 0.23072 0.0
H24 H 0.04852 0.31093 0.25142 0.0
O25 O 0.10042 0.24453 0.17965 0.0
O26 O 0.1457 0.28222 0.16911 0.0
H27 H 0.1761 0.37846 0.2086 0.0
H28 H 0.15245 0.40754 0.22601 0.0
C29 C 0.14888 0.39178 0.21242 0.0
H30 H 0.14121 0.41171 0.20084 0.0
H31 H 0.21118 0.33327 0.17872 0.0
O32 O 0.02199 0.25072 0.20116 0.0
C33 C 0.13263 0.24932 0.17205 0.0
Co34 Co 0.21813 0.56077 0.43866 0.0
Co35 Co 0.16779 0.62766 0.42416 0.0
C36 C 0.16931 0.55263 0.40417 0.0
O37 O 0.19219 0.53848 0.41622 0.0
O38 O 0.15823 0.5866 0.40562 0.0
C39 C 0.23551 0.48655 0.4526 0.0
O40 O 0.20275 0.47752 0.44514 0.0
C41 C 0.09804 0.66771 0.41332 0.0
C42 C 0.11841 0.72645 0.41182 0.0
C43 C 0.0868 0.70425 0.40891 0.0
N44 N 0.13453 0.6685 0.41856 0.0
N45 N 0.14638 0.70375 0.41779 0.0
C46 C 0.07536 0.63233 0.41147 0.0
H47 H 0.09345 0.60705 0.41234 0.0
H48 H 0.05482 0.63078 0.42338 0.0
H49 H 0.0595 0.63234 0.39778 0.0
C50 C 0.17598 0.57671 0.47449 0.0
N51 N 0.18332 0.58309 0.45585 0.0
N52 N 0.16193 0.61092 0.44975 0.0
C53 C 0.14018 0.62303 0.4643 0.0
C54 C 0.14832 0.60171 0.48041 0.0
C55 C 0.19444 0.54656 0.48616 0.0
H56 H 0.18674 0.51866 0.48019 0.0
H57 H 0.18556 0.54752 0.50135 0.0
H58 H 0.22549 0.54956 0.48525 0.0
O59 O 0.25527 0.59865 0.42978 0.0
O60 O 0.21958 0.64623 0.41998 0.0
H61 H 0.10372 0.66462 0.47747 0.0
H62 H 0.08933 0.64817 0.45415 0.0
C63 C 0.11388 0.65591 0.46313 0.0
H64 H 0.12839 0.68005 0.4563 0.0
H65 H 0.17388 0.71218 0.42087 0.0
O66 O 0.24695 0.52041 0.45155 0.0
C67 C 0.25185 0.63154 0.42269 0.0
Co68 Co 0.93445 0.71634 0.68855 0.0
Co69 Co 0.86996 0.66537 0.67191 0.0
C70 C 0.94619 0.66836 0.65371 0.0
O71 O 0.95835 0.69168 0.66612 0.0
O72 O 0.91259 0.65586 0.65433 0.0
C73 C 0.00746 0.73355 0.70408 0.0
O74 O 0.01683 0.70034 0.69727 0.0
C75 C 0.82942 0.5996 0.65644 0.0
C76 C 0.77058 0.61304 0.66426 0.0
C77 C 0.79272 0.5862 0.65529 0.0
N78 N 0.82893 0.63261 0.66588 0.0
N79 N 0.79369 0.64049 0.67048 0.0
C80 C 0.86406 0.58358 0.64734 0.0
H81 H 0.8749 0.60409 0.63676 0.0
H82 H 0.88614 0.57951 0.6584 0.0
H83 H 0.85867 0.55677 0.63974 0.0
C84 C 0.91785 0.67111 0.72326 0.0
N85 N 0.91195 0.68017 0.70478 0.0
N86 N 0.88508 0.65858 0.6978 0.0
C87 C 0.87324 0.6349 0.71162 0.0
C88 C 0.89352 0.64216 0.72818 0.0
C89 C 0.94498 0.69105 0.73615 0.0
H90 H 0.94306 0.72189 0.73382 0.0
H91 H 0.97404 0.6819 0.73263 0.0
H92 H 0.93932 0.68476 0.75143 0.0
O93 O 0.89655 0.75343 0.67977 0.0
O94 O 0.85168 0.71727 0.66741 0.0
H95 H 0.81623 0.61785 0.70705 0.0
H96 H 0.84353 0.58478 0.72097 0.0
C97 C 0.84437 0.60468 0.70874 0.0
H98 H 0.85088 0.58871 0.69553 0.0
H99 H 0.78541 0.66473 0.67782 0.0
O100 O 0.97381 0.74515 0.70216 0.0
C101 C 0.86498 0.74965 0.67134 0.0
Co102 Co 0.78037 0.43515 0.93869 0.0
Co103 Co 0.83208 0.36964 0.92379 0.0
C104 C 0.82807 0.4436 0.90347 0.0
O105 O 0.80412 0.45636 0.9154 0.0
O106 O 0.84177 0.41058 0.90511 0.0
C107 C 0.76198 0.50971 0.95212 0.0
O108 O 0.79416 0.51932 0.94424 0.0
C109 C 0.89762 0.32782 0.90915 0.0
C110 C 0.88646 0.27044 0.92004 0.0
C111 C 0.91195 0.2915 0.90956 0.0
N112 N 0.86498 0.32822 0.91888 0.0
N113 N 0.85836 0.29378 0.92525 0.0
C114 C 0.91592 0.36215 0.90094 0.0
H115 H 0.91062 0.3868 0.91032 0.0
H116 H 0.94675 0.35811 0.89927 0.0
H117 H 0.90346 0.36802 0.88669 0.0
C118 C 0.82574 0.42242 0.97381 0.0
N119 N 0.8169 0.41465 0.95547 0.0
N120 N 0.83884 0.38739 0.94923 0.0
C121 C 0.8626 0.37721 0.96336 0.0
C122 C 0.85499 0.39897 0.9794 0.0
C123 C 0.80513 0.45029 0.986 0.0
H124 H 0.77435 0.44733 0.98375 0.0
H125 H 0.81346 0.47919 0.9817 0.0
H126 H 0.81157 0.44635 0.0014 0.0
O127 O 0.74369 0.3964 0.93084 0.0
O128 O 0.78006 0.35051 0.91977 0.0
H129 H 0.88028 0.31991 0.96092 0.0
H130 H 0.91344 0.3497 0.97335 0.0
C131 C 0.8931 0.34838 0.96132 0.0
H132 H 0.90849 0.35302 0.94773 0.0
H133 H 0.83484 0.28633 0.93336 0.0
O134 O 0.7514 0.47553 0.95147 0.0
C135 C 0.74755 0.36406 0.92323 0.0
Co136 Co 0.56229 0.21397 0.56044 0.0
Co137 Co 0.63052 0.16574 0.57485 0.0
C138 C 0.55628 0.1663 0.59548 0.0
O139 O 0.54137 0.18848 0.58332 0.0
O140 O 0.5904 0.15568 0.59388 0.0
C141 C 0.48746 0.23064 0.54656 0.0
O142 O 0.47846 0.19759 0.55368 0.0
C143 C 0.67159 0.0995 0.58852 0.0
C144 C 0.73069 0.11501 0.58251 0.0
C145 C 0.70843 0.08686 0.5903 0.0
N146 N 0.67215 0.13364 0.58023 0.0
N147 N 0.70755 0.14279 0.57669 0.0
C148 C 0.63615 0.07865 0.59324 0.0
H149 H 0.61313 0.08734 0.58344 0.0
H150 H 0.64046 0.04776 0.59214 0.0
H151 H 0.62756 0.08561 0.60809 0.0
C152 C 0.57642 0.16919 0.52517 0.0
N153 N 0.58418 0.17855 0.54344 0.0
N154 N 0.61281 0.15819 0.5495 0.0
C155 C 0.62419 0.13526 0.53526 0.0
C156 C 0.60147 0.14144 0.5194 0.0
C157 C 0.5468 0.1878 0.51321 0.0
H158 H 0.54812 0.21877 0.5152 0.0
H159 H 0.51865 0.17798 0.51795 0.0
H160 H 0.55031 0.18113 0.49781 0.0
O161 O 0.59982 0.25214 0.56864 0.0
O162 O 0.64842 0.21792 0.57842 0.0
H163 H 0.68232 0.12208 0.53955 0.0
H164 H 0.65793 0.08918 0.52413 0.0
C165 C 0.65536 0.10708 0.53708 0.0
H166 H 0.64993 0.0887 0.54958 0.0
H167 H 0.71589 0.16804 0.57033 0.0
O168 O 0.52127 0.24213 0.54778 0.0
C169 C 0.63296 0.24975 0.57552 0.0
Co170 Co 0.28066 0.06365 0.81028 0.0
Co171 Co 0.33101 0.12972 0.82576 0.0
C172 C 0.32798 0.05425 0.84523 0.0
O173 O 0.30551 0.04062 0.83283 0.0
O174 O 0.33945 0.08816 0.84415 0.0
C175 C 0.26221 0.98979 0.79618 0.0
O176 O 0.29427 0.97993 0.80414 0.0
C177 C 0.40048 0.1695 0.83759 0.0
C178 C 0.38029 0.22836 0.83842 0.0
C179 C 0.41164 0.20611 0.8419 0.0
N180 N 0.36426 0.17031 0.83185 0.0
N181 N 0.35253 0.20563 0.83225 0.0
C182 C 0.42297 0.13411 0.83995 0.0
H183 H 0.40479 0.10888 0.83924 0.0
H184 H 0.44381 0.13198 0.8282 0.0
H185 H 0.43849 0.13463 0.85374 0.0
C186 C 0.32548 0.07881 0.77525 0.0
N187 N 0.31652 0.08579 0.79364 0.0
N188 N 0.33784 0.11335 0.80011 0.0
C189 C 0.36113 0.12471 0.78603 0.0
C190 C 0.35417 0.1031 0.76987 0.0
C191 C 0.30799 0.04831 0.76342 0.0
H192 H 0.31493 0.02061 0.76984 0.0
H193 H 0.31829 0.04865 0.74846 0.0
H194 H 0.2769 0.05152 0.76354 0.0
O195 O 0.24358 0.10164 0.81913 0.0
O196 O 0.27921 0.14858 0.82971 0.0
H197 H 0.3994 0.16544 0.77353 0.0
H198 H 0.41213 0.14825 0.79695 0.0
C199 C 0.38826 0.15682 0.7877 0.0
H200 H 0.37409 0.18129 0.79443 0.0
H201 H 0.32526 0.21412 0.82871 0.0
O202 O 0.2517 0.02398 0.79694 0.0
C203 C 0.24695 0.1342 0.82661 0.0
Co204 Co 0.43293 0.78116 0.0606 0.0
Co205 Co 0.3675 0.83142 0.07645 0.0
C206 C 0.44313 0.82859 0.09558 0.0
O207 O 0.45638 0.80587 0.08318 0.0
O208 O 0.4093 0.84032 0.09458 0.0
C209 C 0.5061 0.76388 0.04515 0.0
O210 O 0.51548 0.79709 0.05194 0.0
C211 C 0.33082 0.90052 0.08936 0.0
C212 C 0.27051 0.88545 0.08774 0.0
C213 C 0.29483 0.91443 0.0927 0.0
N214 N 0.32777 0.86504 0.08286 0.0
N215 N 0.29169 0.85614 0.08196 0.0
C216 C 0.36753 0.92096 0.09104 0.0
H217 H 0.38838 0.90905 0.08087 0.0
H218 H 0.3638 0.95149 0.08819 0.0
H219 H 0.37872 0.91733 0.10575 0.0
C220 C 0.41647 0.82592 0.02552 0.0
N221 N 0.41049 0.81717 0.04404 0.0
N222 N 0.38325 0.83857 0.05078 0.0
C223 C 0.37122 0.86179 0.03681 0.0
C224 C 0.39191 0.8546 0.02038 0.0
C225 C 0.44603 0.808 0.01326 0.0
H226 H 0.44342 0.7769 0.01405 0.0
H227 H 0.4742 0.81591 0.0188 0.0
H228 H 0.44402 0.81718 0.99814 0.0
O229 O 0.39483 0.74398 0.06935 0.0
O230 O 0.3483 0.77981 0.08023 0.0
H231 H 0.31449 0.87407 0.04507 0.0
H232 H 0.33077 0.90117 0.02489 0.0
C233 C 0.3391 0.88883 0.03884 0.0
H234 H 0.34738 0.91185 0.0487 0.0
H235 H 0.28154 0.83005 0.07738 0.0
O236 O 0.47247 0.75224 0.0471 0.0
C237 C 0.36233 0.74748 0.07688 0.0
Co238 Co 0.71895 0.93275 0.31084 0.0
Co239 Co 0.66654 0.86814 0.32555 0.0
C240 C 0.66771 0.94346 0.34456 0.0
O241 O 0.69285 0.95559 0.33313 0.0
O242 O 0.65457 0.91022 0.34311 0.0
C243 C 0.73641 0.00631 0.29649 0.0
O244 O 0.70266 0.01484 0.30287 0.0
C245 C 0.59756 0.82954 0.33728 0.0
C246 C 0.61449 0.76972 0.3357 0.0
C247 C 0.58471 0.79314 0.34055 0.0
N248 N 0.63327 0.8276 0.33101 0.0
N249 N 0.64322 0.79179 0.33006 0.0
C250 C 0.57603 0.86562 0.33898 0.0
H251 H 0.58774 0.88711 0.3291 0.0
H252 H 0.54575 0.86108 0.33575 0.0
H253 H 0.57867 0.8764 0.35381 0.0
C254 C 0.67687 0.91711 0.27482 0.0
N255 N 0.68429 0.91062 0.29345 0.0
N256 N 0.66199 0.88365 0.29968 0.0
C257 C 0.63938 0.87243 0.28528 0.0
C258 C 0.64801 0.8933 0.2691 0.0
C259 C 0.69596 0.94664 0.26303 0.0
H260 H 0.68717 0.97484 0.26819 0.0
H261 H 0.68857 0.94424 0.24766 0.0
H262 H 0.72693 0.94429 0.26477 0.0
O263 O 0.75537 0.89482 0.32011 0.0
O264 O 0.71812 0.84954 0.33104 0.0
H265 H 0.59885 0.83399 0.27265 0.0
H266 H 0.58789 0.8504 0.29647 0.0
C267 C 0.61095 0.84143 0.28679 0.0
H268 H 0.62441 0.81606 0.29302 0.0
H269 H 0.66975 0.78244 0.32572 0.0
O270 O 0.74846 0.97277 0.29821 0.0
C271 C 0.75088 0.86291 0.32809 0.0
H272 H 0.07806 0.42434 0.23875 0.0
H273 H 0.08465 0.45633 0.26966 0.0
H274 H 0.12997 0.35442 0.29433 0.0
H275 H 0.12202 0.32213 0.26349 0.0
H276 H 0.08552 0.38854 0.31937 0.0
H277 H 0.18732 0.42595 0.27875 0.0
H278 H 0.21621 0.45068 0.24925 0.0
H279 H 0.15994 0.55652 0.25754 0.0
H280 H 0.13013 0.53217 0.28692 0.0
H281 H 0.18347 0.47801 0.39694 0.0
H282 H 0.1662 0.4421 0.36836 0.0
H283 H 0.10976 0.53969 0.34534 0.0
H284 H 0.12677 0.57582 0.37378 0.0
H285 H 0.15957 0.5071 0.3199 0.0
H286 H 0.05889 0.46807 0.36155 0.0
H287 H 0.03175 0.44179 0.39114 0.0
H288 H 0.08983 0.33742 0.38136 0.0
H289 H 0.11776 0.36328 0.35183 0.0
C290 C 0.08901 0.40884 0.25089 0.0
C291 C 0.09978 0.37107 0.24893 0.0
C292 C 0.09292 0.42705 0.26847 0.0
C293 C 0.1085 0.40796 0.28421 0.0
C294 C 0.11799 0.36971 0.28238 0.0
C295 C 0.11358 0.35135 0.26483 0.0
C296 C 0.11651 0.4284 0.30227 0.0
C297 C 0.10206 0.41423 0.31952 0.0
C298 C 0.1378 0.46215 0.30244 0.0
C299 C 0.15622 0.47711 0.28495 0.0
C300 C 0.18092 0.45442 0.27422 0.0
C301 C 0.19747 0.46837 0.25752 0.0
C302 C 0.18986 0.50512 0.2515 0.0
C303 C 0.16577 0.52804 0.26221 0.0
C304 C 0.14905 0.51418 0.27889 0.0
C305 C 0.16709 0.49177 0.38588 0.0
C306 C 0.15667 0.52986 0.38761 0.0
C307 C 0.15715 0.47115 0.3696 0.0
C308 C 0.13665 0.48827 0.35479 0.0
C309 C 0.12564 0.52603 0.35662 0.0
C310 C 0.13534 0.54658 0.37292 0.0
C311 C 0.12828 0.46745 0.33694 0.0
C312 C 0.1429 0.48148 0.31973 0.0
C313 C 0.1076 0.43339 0.33687 0.0
C314 C 0.09071 0.41775 0.35458 0.0
C315 C 0.06613 0.43963 0.36579 0.0
C316 C 0.05055 0.42478 0.38254 0.0
C317 C 0.05914 0.38799 0.38815 0.0
C318 C 0.08324 0.36593 0.377 0.0
C319 C 0.09892 0.38066 0.36025 0.0
H320 H 0.04705 0.37655 0.40112 0.0
H321 H 0.20268 0.51587 0.23856 0.0
H322 H 0.02273 0.6767 0.6509 0.0
H323 H 0.06277 0.66095 0.62355 0.0
H324 H 0.96561 0.6197 0.5929 0.0
H325 H 0.9257 0.63465 0.62019 0.0
H326 H 0.02345 0.57456 0.58708 0.0
H327 H 0.00233 0.70895 0.58526 0.0
H328 H 0.00345 0.77362 0.59817 0.0
H329 H 0.12361 0.76728 0.60453 0.0
H330 H 0.12313 0.70235 0.59187 0.0
H331 H 0.07466 0.59421 0.48971 0.0
H332 H 0.04593 0.60129 0.52143 0.0
H333 H 0.15521 0.625 0.54568 0.0
H334 H 0.18398 0.61774 0.51388 0.0
H335 H 0.09855 0.67618 0.55675 0.0
H336 H 0.11895 0.54319 0.55455 0.0
H337 H 0.11609 0.47956 0.54049 0.0
H338 H 0.99521 0.48421 0.54058 0.0
H339 H 0.99734 0.54816 0.55437 0.0
C340 C 0.00995 0.66403 0.63837 0.0
C341 C 0.97099 0.65695 0.63772 0.0
C342 C 0.03286 0.65514 0.62274 0.0
C343 C 0.0171 0.63958 0.60608 0.0
C344 C 0.97841 0.63159 0.60562 0.0
C345 C 0.9556 0.64015 0.62126 0.0
C346 C 0.04039 0.63276 0.58881 0.0
C347 C 0.03968 0.59685 0.58039 0.0
C348 C 0.0623 0.6616 0.58032 0.0
C349 C 0.06264 0.70067 0.58783 0.0
C350 C 0.02896 0.72126 0.58955 0.0
C351 C 0.02948 0.75797 0.59679 0.0
C352 C 0.06356 0.77451 0.60222 0.0
C353 C 0.09722 0.75441 0.60035 0.0
C354 C 0.09684 0.71767 0.59314 0.0
C355 C 0.09243 0.60076 0.50187 0.0
C356 C 0.13139 0.60523 0.49956 0.0
C357 C 0.07612 0.60466 0.51993 0.0
C358 C 0.09856 0.61332 0.53588 0.0
C359 C 0.13751 0.61814 0.53353 0.0
C360 C 0.15388 0.61386 0.51548 0.0
C361 C 0.08093 0.61826 0.55489 0.0
C362 C 0.08272 0.65379 0.5636 0.0
C363 C 0.05974 0.58919 0.56355 0.0
C364 C 0.05832 0.55062 0.55536 0.0
C365 C 0.09175 0.53078 0.55143 0.0
C366 C 0.09026 0.49463 0.54353 0.0
C367 C 0.05549 0.47788 0.53961 0.0
C368 C 0.02213 0.49723 0.54362 0.0
C369 C 0.02346 0.53342 0.5515 0.0
H370 H 0.0544 0.44989 0.53349 0.0
H371 H 0.06391 0.80293 0.60783 0.0
H372 H 0.89148 0.43843 0.88137 0.0
H373 H 0.90596 0.47423 0.85228 0.0
H374 H 0.80196 0.53581 0.85833 0.0
H375 H 0.78759 0.50081 0.88758 0.0
H376 H 0.81726 0.49854 0.82073 0.0
H377 H 0.87228 0.58212 0.86803 0.0
H378 H 0.91428 0.5971 0.89509 0.0
H379 H 0.0102 0.56265 0.86201 0.0
H380 H 0.96865 0.54693 0.83483 0.0
H381 H 0.83002 0.6366 0.74946 0.0
H382 H 0.82219 0.60413 0.78009 0.0
H383 H 0.93979 0.57301 0.77939 0.0
H384 H 0.94777 0.60666 0.74896 0.0
H385 H 0.92042 0.59199 0.81419 0.0
H386 H 0.87003 0.51005 0.76693 0.0
H387 H 0.83104 0.4914 0.73931 0.0
H388 H 0.73062 0.51607 0.77115 0.0
H389 H 0.76903 0.53551 0.79888 0.0
C390 C 0.87185 0.45978 0.87657 0.0
C391 C 0.83836 0.46675 0.88671 0.0
C392 C 0.88021 0.48022 0.86002 0.0
C393 C 0.85494 0.5075 0.85323 0.0
C394 C 0.82173 0.5148 0.8634 0.0
C395 C 0.81369 0.49492 0.88013 0.0
C396 C 0.86237 0.52749 0.8351 0.0
C397 C 0.83948 0.51933 0.8193 0.0
C398 C 0.89233 0.55339 0.83319 0.0
C399 C 0.91731 0.56294 0.84949 0.0
C400 C 0.90228 0.57737 0.8666 0.0
C401 C 0.92602 0.58608 0.88194 0.0
C402 C 0.96488 0.58071 0.88029 0.0
C403 C 0.98009 0.56673 0.86328 0.0
C404 C 0.95646 0.55794 0.8479 0.0
C405 C 0.85412 0.62286 0.75594 0.0
C406 C 0.88937 0.62369 0.74694 0.0
C407 C 0.84966 0.60423 0.77336 0.0
C408 C 0.88024 0.58545 0.78186 0.0
C409 C 0.91578 0.58716 0.77307 0.0
C410 C 0.92033 0.60626 0.75573 0.0
C411 C 0.87482 0.56363 0.79975 0.0
C412 C 0.89818 0.5712 0.81551 0.0
C413 C 0.84573 0.53653 0.80153 0.0
C414 C 0.82245 0.52457 0.78494 0.0
C415 C 0.83964 0.51177 0.768 0.0
C416 C 0.81764 0.50103 0.75233 0.0
C417 C 0.77838 0.50262 0.75346 0.0
C418 C 0.76104 0.51489 0.77029 0.0
C419 C 0.78291 0.52575 0.786 0.0
H420 H 0.7614 0.49427 0.74131 0.0
H421 H 0.98321 0.58749 0.89218 0.0
H422 H 0.86145 0.33701 0.00182 0.0
H423 H 0.89216 0.33227 0.03315 0.0
H424 H 0.91992 0.45052 0.03085 0.0
H425 H 0.88896 0.4553 0.99944 0.0
H426 H 0.9809 0.40296 0.04144 0.0
H427 H 0.85289 0.42629 0.05927 0.0
H428 H 0.78419 0.41625 0.05867 0.0
H429 H 0.79937 0.30341 0.07941 0.0
H430 H 0.86825 0.31256 0.07984 0.0
H431 H 0.05238 0.39896 0.13606 0.0
H432 H 0.01577 0.4174 0.10795 0.0
H433 H 0.96101 0.30881 0.10799 0.0
H434 H 0.99634 0.29098 0.13658 0.0
H435 H 0.91216 0.35933 0.09912 0.0
H436 H 0.03915 0.33245 0.078 0.0
H437 H 0.10821 0.34021 0.07793 0.0
H438 H 0.09565 0.45668 0.0626 0.0
H439 H 0.02646 0.44971 0.06282 0.0
C440 C 0.87411 0.36192 0.00806 0.0
C441 C 0.87299 0.39649 0.99837 0.0
C442 C 0.89144 0.35926 0.02593 0.0
C443 C 0.90806 0.39112 0.03432 0.0
C444 C 0.90716 0.42568 0.02459 0.0
C445 C 0.88943 0.42842 0.00677 0.0
C446 C 0.9269 0.38787 0.05314 0.0
C447 C 0.96584 0.39408 0.05417 0.0
C448 C 0.90723 0.37556 0.06956 0.0
C449 C 0.86578 0.37003 0.06944 0.0
C450 C 0.84161 0.39923 0.06356 0.0
C451 C 0.80263 0.39371 0.06327 0.0
C452 C 0.78743 0.35919 0.06896 0.0
C453 C 0.81119 0.33013 0.07499 0.0
C454 C 0.8502 0.33548 0.07528 0.0
C455 C 0.03242 0.37913 0.1301 0.0
C456 C 0.02752 0.34338 0.13835 0.0
C457 C 0.01158 0.38964 0.114 0.0
C458 C 0.98625 0.36417 0.10555 0.0
C459 C 0.98045 0.32893 0.11419 0.0
C460 C 0.00069 0.31872 0.13052 0.0
C461 C 0.9665 0.37356 0.08742 0.0
C462 C 0.92729 0.36856 0.08648 0.0
C463 C 0.98604 0.38658 0.07101 0.0
C464 C 0.02764 0.39065 0.07063 0.0
C465 C 0.05112 0.35976 0.07472 0.0
C466 C 0.09028 0.36402 0.07465 0.0
C467 C 0.1063 0.39895 0.07033 0.0
C468 C 0.08319 0.42966 0.06599 0.0
C469 C 0.04401 0.42557 0.06607 0.0
H470 H 0.13662 0.40221 0.0703 0.0
H471 H 0.75723 0.35498 0.06873 0.0
H472 H 0.66168 0.13988 0.49553 0.0
H473 H 0.66617 0.10878 0.46425 0.0
H474 H 0.55125 0.07072 0.46967 0.0
H475 H 0.5467 0.1021 0.50096 0.0
H476 H 0.60285 0.01384 0.45846 0.0
H477 H 0.56687 0.13865 0.44021 0.0
H478 H 0.57103 0.20797 0.43997 0.0
H479 H 0.68246 0.20155 0.41632 0.0
H480 H 0.67921 0.13213 0.41671 0.0
H481 H 0.602 0.93869 0.36478 0.0
H482 H 0.58373 0.97547 0.39285 0.0
H483 H 0.68758 0.03828 0.38908 0.0
H484 H 0.70511 0.00276 0.36052 0.0
H485 H 0.63432 0.08362 0.39908 0.0
H486 H 0.67401 0.9603 0.42048 0.0
H487 H 0.67222 0.89085 0.42138 0.0
H488 H 0.55689 0.89417 0.43981 0.0
H489 H 0.55788 0.96368 0.4388 0.0
C490 C 0.63745 0.12488 0.48997 0.0
C491 C 0.6039 0.12316 0.5005 0.0
C492 C 0.63995 0.10733 0.47214 0.0
C493 C 0.60895 0.08768 0.46464 0.0
C494 C 0.57541 0.08582 0.47522 0.0
C495 C 0.5728 0.10375 0.49298 0.0
C496 C 0.61206 0.06844 0.44592 0.0
C497 C 0.60908 0.02908 0.44538 0.0
C498 C 0.62093 0.08839 0.42902 0.0
C499 C 0.6229 0.13016 0.42864 0.0
C500 C 0.59239 0.152 0.43511 0.0
C501 C 0.59456 0.19132 0.43492 0.0
C502 C 0.62702 0.20915 0.42817 0.0
C503 C 0.65735 0.18769 0.42156 0.0
C504 C 0.65534 0.14836 0.42175 0.0
C505 C 0.62077 0.96054 0.36986 0.0
C506 C 0.65515 0.96758 0.36057 0.0
C507 C 0.61039 0.98145 0.38596 0.0
C508 C 0.63469 0.00907 0.39338 0.0
C509 C 0.66839 0.01705 0.38368 0.0
C510 C 0.67843 0.99667 0.36737 0.0
C511 C 0.62587 0.02878 0.4116 0.0
C512 C 0.62776 0.0683 0.41208 0.0
C513 C 0.61638 0.00891 0.42852 0.0
C514 C 0.61591 0.96716 0.42937 0.0
C515 C 0.64822 0.94621 0.42462 0.0
C516 C 0.64735 0.90684 0.42516 0.0
C517 C 0.61442 0.88811 0.43059 0.0
C518 C 0.58235 0.90872 0.43557 0.0
C519 C 0.58306 0.94809 0.43503 0.0
H520 H 0.61379 0.85763 0.43098 0.0
H521 H 0.62865 0.2396 0.42803 0.0
H522 H 0.42874 0.09371 0.76332 0.0
H523 H 0.46211 0.09988 0.7328 0.0
H524 H 0.3569 0.12451 0.70441 0.0
H525 H 0.32344 0.11732 0.73495 0.0
H526 H 0.39905 0.07985 0.68264 0.0
H527 H 0.41808 0.19455 0.71716 0.0
H528 H 0.43586 0.2336 0.7449 0.0
H529 H 0.54932 0.19216 0.7416 0.0
H530 H 0.53205 0.15231 0.71403 0.0
H531 H 0.48029 0.17316 0.60129 0.0
H532 H 0.44497 0.15746 0.63029 0.0
H533 H 0.54699 0.11744 0.65694 0.0
H534 H 0.58251 0.13271 0.62803 0.0
H535 H 0.50602 0.16957 0.67916 0.0
H536 H 0.48525 0.0553 0.64367 0.0
H537 H 0.46579 0.0178 0.61567 0.0
H538 H 0.35352 0.06198 0.62011 0.0
H539 H 0.37246 0.10019 0.648 0.0
C540 C 0.41287 0.10021 0.75049 0.0
C541 C 0.37374 0.10517 0.75132 0.0
C542 C 0.43186 0.10384 0.73312 0.0
C543 C 0.41206 0.11326 0.71638 0.0
C544 C 0.37272 0.11726 0.71715 0.0
C545 C 0.35368 0.11324 0.73452 0.0
C546 C 0.4326 0.12009 0.69823 0.0
C547 C 0.42214 0.0998 0.68182 0.0
C548 C 0.46304 0.14581 0.69722 0.0
C549 C 0.47367 0.17016 0.71363 0.0
C550 C 0.44676 0.19356 0.72242 0.0
C551 C 0.45675 0.21586 0.73811 0.0
C552 C 0.49368 0.2153 0.74504 0.0
C553 C 0.52072 0.19252 0.73624 0.0
C554 C 0.51085 0.17008 0.72058 0.0
C555 C 0.49516 0.16069 0.61326 0.0
C556 C 0.53424 0.15428 0.61237 0.0
C557 C 0.47492 0.15165 0.62977 0.0
C558 C 0.49343 0.13628 0.6457 0.0
C559 C 0.53226 0.12931 0.64477 0.0
C560 C 0.55245 0.13793 0.62821 0.0
C561 C 0.47264 0.12914 0.66367 0.0
C562 C 0.48298 0.14956 0.68003 0.0
C563 C 0.44186 0.10393 0.66454 0.0
C564 C 0.43038 0.08091 0.64781 0.0
C565 C 0.4565 0.05729 0.63858 0.0
C566 C 0.44555 0.03585 0.62274 0.0
C567 C 0.40847 0.03759 0.61608 0.0
C568 C 0.38224 0.0607 0.62527 0.0
C569 C 0.39306 0.08223 0.64111 0.0
H570 H 0.40004 0.02096 0.60383 0.0
H571 H 0.50136 0.23258 0.75719 0.0
H572 H 0.37478 0.82252 0.98614 0.0
H573 H 0.36643 0.85446 0.9553 0.0
H574 H 0.39264 0.96097 0.98203 0.0
H575 H 0.40018 0.92901 0.0129 0.0
H576 H 0.33326 0.96809 0.95995 0.0
H577 H 0.45627 0.91386 0.9529 0.0
H578 H 0.50341 0.86283 0.95305 0.0
H579 H 0.44239 0.8051 0.90882 0.0
H580 H 0.39454 0.85553 0.90861 0.0
H581 H 0.36476 0.07748 0.87746 0.0
H582 H 0.37814 0.0407 0.90617 0.0
H583 H 0.33056 0.94196 0.87958 0.0
H584 H 0.31664 0.97862 0.85072 0.0
H585 H 0.40003 0.92946 0.90073 0.0
H586 H 0.27705 0.98453 0.90821 0.0
H587 H 0.23113 0.03667 0.90791 0.0
H588 H 0.29424 0.09399 0.95151 0.0
H589 H 0.34088 0.04242 0.95185 0.0
C590 C 0.37905 0.85269 0.98528 0.0
C591 C 0.38834 0.87345 0.00169 0.0
C592 C 0.37437 0.87089 0.96772 0.0
C593 C 0.37937 0.91007 0.9663 0.0
C594 C 0.38868 0.93074 0.98278 0.0
C595 C 0.39307 0.91256 0.00035 0.0
C596 C 0.37386 0.92976 0.94779 0.0
C597 C 0.34828 0.9599 0.94709 0.0
C598 C 0.39274 0.91853 0.93087 0.0
C599 C 0.42161 0.88829 0.93088 0.0
C600 C 0.45274 0.89014 0.9433 0.0
C601 C 0.47961 0.86134 0.94339 0.0
C602 C 0.47584 0.83069 0.93099 0.0
C603 C 0.44524 0.82883 0.91844 0.0
C604 C 0.41825 0.85752 0.91832 0.0
C605 C 0.35744 0.04786 0.87759 0.0
C606 C 0.33929 0.03106 0.86185 0.0
C607 C 0.36509 0.02693 0.89402 0.0
C608 C 0.35501 0.98879 0.89499 0.0
C609 C 0.33848 0.97142 0.87905 0.0
C610 C 0.33042 0.99244 0.86264 0.0
C611 C 0.35986 0.9678 0.91308 0.0
C612 C 0.38513 0.93747 0.91366 0.0
C613 C 0.34088 0.97892 0.92994 0.0
C614 C 0.31266 0.00978 0.92992 0.0
C615 C 0.28131 0.00839 0.91762 0.0
C616 C 0.25512 0.03782 0.91746 0.0
C617 C 0.25982 0.06867 0.92965 0.0
C618 C 0.29066 0.07009 0.94206 0.0
C619 C 0.31697 0.04076 0.94225 0.0
H620 H 0.23952 0.09142 0.9295 0.0
H621 H 0.49668 0.80843 0.93107 0.0
H622 H 0.57469 0.90729 0.26129 0.0
H623 H 0.54233 0.90031 0.23053 0.0
H624 H 0.64698 0.86661 0.20412 0.0
H625 H 0.67953 0.8747 0.23489 0.0
H626 H 0.60788 0.91085 0.1805 0.0
H627 H 0.58195 0.80157 0.21801 0.0
H628 H 0.56169 0.76666 0.2467 0.0
H629 H 0.45062 0.81354 0.24155 0.0
H630 H 0.47042 0.84931 0.21302 0.0
H631 H 0.5188 0.81684 0.10092 0.0
H632 H 0.55615 0.83195 0.12939 0.0
H633 H 0.45802 0.88054 0.15609 0.0
H634 H 0.42055 0.8659 0.12776 0.0
H635 H 0.49573 0.82745 0.1789 0.0
H636 H 0.52382 0.93715 0.14086 0.0
H637 H 0.54571 0.9706 0.11202 0.0
H638 H 0.65464 0.91912 0.11759 0.0
H639 H 0.63321 0.88492 0.14632 0.0
C640 C 0.59069 0.89873 0.24883 0.0
C641 C 0.62937 0.89136 0.2503 0.0
C642 C 0.57227 0.89462 0.23132 0.0
C643 C 0.59212 0.88227 0.21509 0.0
C644 C 0.63112 0.87609 0.21645 0.0
C645 C 0.64964 0.88062 0.23396 0.0
C646 C 0.57178 0.87441 0.19698 0.0
C647 C 0.58366 0.89224 0.18009 0.0
C648 C 0.53997 0.85035 0.19648 0.0
C649 C 0.52777 0.82839 0.21347 0.0
C650 C 0.55327 0.80463 0.22307 0.0
C651 C 0.54186 0.78468 0.2393 0.0
C652 C 0.50491 0.78794 0.24597 0.0
C653 C 0.47925 0.81108 0.23638 0.0
C654 C 0.49054 0.83119 0.22017 0.0
C655 C 0.50524 0.83104 0.11278 0.0
C656 C 0.46665 0.84003 0.11209 0.0
C657 C 0.52665 0.83974 0.129 0.0
C658 C 0.50978 0.85735 0.1448 0.0
C659 C 0.47149 0.86689 0.14403 0.0
C660 C 0.45018 0.85858 0.12779 0.0
C661 C 0.5315 0.86429 0.16253 0.0
C662 C 0.51997 0.84606 0.17933 0.0
C663 C 0.56383 0.88756 0.16286 0.0
C664 C 0.57678 0.90816 0.14562 0.0
C665 C 0.55233 0.93269 0.13583 0.0
C666 C 0.56468 0.95184 0.11953 0.0
C667 C 0.60151 0.94691 0.11295 0.0
C668 C 0.6261 0.92288 0.12269 0.0
C669 C 0.61388 0.90362 0.13899 0.0
H670 H 0.61102 0.96177 0.10032 0.0
H671 H 0.49614 0.77248 0.25854 0.0
H672 H 0.32982 0.95743 0.12018 0.0
H673 H 0.30811 0.01716 0.13356 0.0
H674 H 0.21022 0.01349 0.09701 0.0
H675 H 0.23254 0.95439 0.08304 0.0
H676 H 0.23842 0.0838 0.09883 0.0
H677 H 0.205 0.98508 0.14308 0.0
H678 H 0.21763 0.93089 0.16421 0.0
H679 H 0.2927 0.99859 0.19797 0.0
H680 H 0.28088 0.05307 0.17687 0.0
H681 H 0.11338 0.17511 0.1757 0.0
H682 H 0.14653 0.1205 0.16288 0.0
H683 H 0.23439 0.19291 0.14137 0.0
H684 H 0.20114 0.24796 0.15393 0.0
H685 H 0.21461 0.08974 0.16873 0.0
H686 H 0.26293 0.15736 0.09798 0.0
H687 H 0.24478 0.20939 0.07643 0.0
H688 H 0.12987 0.19996 0.09499 0.0
H689 H 0.14726 0.14759 0.11643 0.0
C690 C 0.30428 0.96984 0.11457 0.0
C691 C 0.28323 0.95156 0.10028 0.0
C692 C 0.29163 0.00375 0.12243 0.0
C693 C 0.25746 0.01966 0.11634 0.0
C694 C 0.23675 0.00178 0.10185 0.0
C695 C 0.24941 0.96793 0.09398 0.0
C696 C 0.24228 0.054 0.12561 0.0
C697 C 0.23347 0.08521 0.11413 0.0
C698 C 0.2354 0.05566 0.14554 0.0
C699 C 0.24237 0.02301 0.15829 0.0
C700 C 0.22441 0.98832 0.15493 0.0
C701 C 0.23139 0.95757 0.16691 0.0
C702 C 0.25604 0.96126 0.18239 0.0
C703 C 0.27367 0.99575 0.18596 0.0
C704 C 0.26683 0.02658 0.174 0.0
C705 C 0.13988 0.17951 0.16837 0.0
C706 C 0.1544 0.216 0.16569 0.0
C707 C 0.15887 0.1482 0.16111 0.0
C708 C 0.19268 0.15269 0.151 0.0
C709 C 0.20805 0.18889 0.14891 0.0
C710 C 0.18904 0.2203 0.15615 0.0
C711 C 0.21075 0.11954 0.14196 0.0
C712 C 0.2201 0.08855 0.15348 0.0
C713 C 0.21743 0.11782 0.12202 0.0
C714 C 0.20651 0.14888 0.10896 0.0
C715 C 0.23378 0.16634 0.0974 0.0
C716 C 0.22363 0.19588 0.08522 0.0
C717 C 0.18622 0.20806 0.0844 0.0
C718 C 0.15886 0.19061 0.09569 0.0
C719 C 0.16886 0.16102 0.10788 0.0
H720 H 0.17843 0.23097 0.07497 0.0
H721 H 0.2614 0.93742 0.19165 0.0
H722 H 0.54068 0.82762 0.36781 0.0
H723 H 0.48225 0.80421 0.38169 0.0
H724 H 0.48968 0.70446 0.34661 0.0
H725 H 0.5473 0.72868 0.33192 0.0
H726 H 0.41869 0.72902 0.34823 0.0
H727 H 0.51859 0.704 0.39341 0.0
H728 H 0.57222 0.72174 0.41398 0.0
H729 H 0.50109 0.79729 0.44557 0.0
H730 H 0.44712 0.78029 0.42503 0.0
H731 H 0.32563 0.6106 0.42702 0.0
H732 H 0.38124 0.64193 0.41397 0.0
H733 H 0.31107 0.73038 0.39117 0.0
H734 H 0.25523 0.69926 0.40405 0.0
H735 H 0.41301 0.71211 0.41868 0.0
H736 H 0.34524 0.75169 0.34646 0.0
H737 H 0.29354 0.73049 0.32543 0.0
H738 H 0.30411 0.61807 0.34747 0.0
H739 H 0.35618 0.63849 0.36841 0.0
C740 C 0.52933 0.80134 0.36255 0.0
C741 C 0.54821 0.78039 0.34843 0.0
C742 C 0.49619 0.78766 0.37077 0.0
C743 C 0.48179 0.75245 0.3653 0.0
C744 C 0.50026 0.73176 0.351 0.0
C745 C 0.53326 0.74552 0.3427 0.0
C746 C 0.44821 0.73645 0.37491 0.0
C747 C 0.4174 0.7255 0.36364 0.0
C748 C 0.4467 0.73145 0.395 0.0
C749 C 0.47892 0.74111 0.40759 0.0
C750 C 0.51444 0.72452 0.40469 0.0
C751 C 0.54489 0.73443 0.41635 0.0
C752 C 0.54009 0.76069 0.43104 0.0
C753 C 0.50478 0.77697 0.43417 0.0
C754 C 0.47424 0.76718 0.42254 0.0
C755 C 0.32199 0.6369 0.41939 0.0
C756 C 0.2859 0.65221 0.41643 0.0
C757 C 0.35384 0.65482 0.41201 0.0
C758 C 0.35016 0.6882 0.40143 0.0
C759 C 0.31441 0.70438 0.39911 0.0
C760 C 0.28255 0.68656 0.40652 0.0
C761 C 0.3835 0.70492 0.39199 0.0
C762 C 0.41422 0.71599 0.40329 0.0
C763 C 0.38519 0.7095 0.3719 0.0
C764 C 0.3543 0.69675 0.35915 0.0
C765 C 0.3366 0.72243 0.34676 0.0
C766 C 0.30723 0.71055 0.33486 0.0
C767 C 0.29546 0.67299 0.33517 0.0
C768 C 0.31315 0.64719 0.3473 0.0
C769 C 0.34256 0.65891 0.35921 0.0
H770 H 0.2727 0.66386 0.32596 0.0
H771 H 0.56371 0.76838 0.44003 0.0
H772 H 0.7673 0.04432 0.57815 0.0
H773 H 0.79155 0.98616 0.59239 0.0
H774 H 0.7067 0.9926 0.63646 0.0
H775 H 0.6824 0.05061 0.62227 0.0
H776 H 0.82175 0.97204 0.62586 0.0
H777 H 0.68059 0.90386 0.64956 0.0
H778 H 0.61409 0.9023 0.63929 0.0
H779 H 0.64726 0.92773 0.58166 0.0
H780 H 0.71395 0.92888 0.59152 0.0
H781 H 0.86841 0.82065 0.68633 0.0
H782 H 0.83813 0.87756 0.67397 0.0
H783 H 0.78709 0.81231 0.62872 0.0
H784 H 0.81558 0.75514 0.64166 0.0
H785 H 0.73977 0.86194 0.63918 0.0
H786 H 0.87131 0.86607 0.62278 0.0
H787 H 0.93962 0.86472 0.62929 0.0
H788 H 0.92892 0.96234 0.66518 0.0
H789 H 0.86046 0.96399 0.65906 0.0
C790 C 0.75374 0.03316 0.59082 0.0
C791 C 0.72238 0.05142 0.59882 0.0
C792 C 0.76764 3e-05 0.59896 0.0
C793 C 0.7506 0.98473 0.61533 0.0
C794 C 0.71973 0.00339 0.62357 0.0
C795 C 0.7057 0.03641 0.61537 0.0
C796 C 0.76552 0.94957 0.62392 0.0
C797 C 0.80382 0.94796 0.62878 0.0
C798 C 0.74226 0.91796 0.62746 0.0
C799 C 0.70223 0.91688 0.62134 0.0
C800 C 0.67369 0.90899 0.63469 0.0
C801 C 0.63596 0.90819 0.62894 0.0
C802 C 0.62644 0.91505 0.60985 0.0
C803 C 0.65465 0.92258 0.59646 0.0
C804 C 0.69241 0.92335 0.60212 0.0
C805 C 0.8504 0.81846 0.67387 0.0
C806 C 0.84456 0.78356 0.66487 0.0
C807 C 0.83327 0.851 0.66674 0.0
C808 C 0.81103 0.84943 0.65011 0.0
C809 C 0.80416 0.81433 0.64153 0.0
C810 C 0.82053 0.78166 0.64892 0.0
C811 C 0.79606 0.88438 0.6412 0.0
C812 C 0.7577 0.88603 0.63632 0.0
C813 C 0.81954 0.91562 0.63708 0.0
C814 C 0.86075 0.91494 0.64059 0.0
C815 C 0.88352 0.88713 0.63213 0.0
C816 C 0.92225 0.88632 0.63575 0.0
C817 C 0.93858 0.91338 0.64767 0.0
C818 C 0.91623 0.94138 0.65596 0.0
C819 C 0.87747 0.94229 0.65241 0.0
H820 H 0.96856 0.91269 0.65047 0.0
H821 H 0.59722 0.91445 0.60544 0.0
H822 H 0.42053 0.26299 0.86737 0.0
H823 H 0.47897 0.28663 0.88133 0.0
H824 H 0.54233 0.20442 0.84927 0.0
H825 H 0.48406 0.18122 0.83484 0.0
H826 H 0.56512 0.20947 0.88745 0.0
H827 H 0.54291 0.29179 0.83444 0.0
H828 H 0.50601 0.33478 0.81404 0.0
H829 H 0.49274 0.41119 0.8612 0.0
H830 H 0.52912 0.36835 0.88198 0.0
H831 H 0.74408 0.29825 0.90274 0.0
H832 H 0.68788 0.2679 0.88968 0.0
H833 H 0.61796 0.35202 0.91659 0.0
H834 H 0.67389 0.38289 0.92944 0.0
H835 H 0.60009 0.34395 0.87985 0.0
H836 H 0.62138 0.26098 0.9331 0.0
H837 H 0.65811 0.21781 0.9535 0.0
H838 H 0.67339 0.14269 0.90596 0.0
H839 H 0.63716 0.18569 0.8852 0.0
C840 C 0.44689 0.24993 0.86325 0.0
C841 C 0.44749 0.21967 0.85028 0.0
C842 C 0.48024 0.26345 0.87127 0.0
C843 C 0.51494 0.24726 0.86632 0.0
C844 C 0.51575 0.21701 0.85341 0.0
C845 C 0.48233 0.20353 0.84531 0.0
C846 C 0.55031 0.26246 0.87448 0.0
C847 C 0.57314 0.23873 0.88558 0.0
C848 C 0.56027 0.30078 0.87228 0.0
C849 C 0.53845 0.32667 0.85981 0.0
C850 C 0.53186 0.3176 0.84051 0.0
C851 C 0.51108 0.34197 0.82887 0.0
C852 C 0.49696 0.37565 0.83633 0.0
C853 C 0.50366 0.38507 0.85544 0.0
C854 C 0.52439 0.36077 0.86716 0.0
C855 C 0.71673 0.31004 0.90609 0.0
C856 C 0.71354 0.34315 0.91706 0.0
C857 C 0.68461 0.29257 0.89866 0.0
C858 C 0.64872 0.30765 0.9022 0.0
C859 C 0.6454 0.33999 0.91362 0.0
C860 C 0.67744 0.35754 0.921 0.0
C861 C 0.61473 0.29116 0.89313 0.0
C862 C 0.59218 0.31467 0.88174 0.0
C863 C 0.60511 0.25265 0.89509 0.0
C864 C 0.62689 0.22676 0.90755 0.0
C865 C 0.63285 0.23541 0.92695 0.0
C866 C 0.65352 0.21094 0.93859 0.0
C867 C 0.66817 0.17758 0.93102 0.0
C868 C 0.66208 0.16857 0.9118 0.0
C869 C 0.64145 0.19297 0.9001 0.0
H870 H 0.68416 0.15867 0.94005 0.0
H871 H 0.48089 0.39449 0.82729 0.0
H872 H 0.60897 0.32277 0.57199 0.0
H873 H 0.6399 0.37947 0.58401 0.0
H874 H 0.73307 0.31243 0.60429 0.0
H875 H 0.70225 0.25546 0.59248 0.0
H876 H 0.70769 0.3601 0.63152 0.0
H877 H 0.74345 0.36863 0.5656 0.0
H878 H 0.7332 0.3696 0.53071 0.0
H879 H 0.66269 0.46726 0.53641 0.0
H880 H 0.67209 0.46658 0.57138 0.0
H881 H 0.82214 0.51512 0.65789 0.0
H882 H 0.79859 0.45782 0.64256 0.0
H883 H 0.70563 0.52067 0.61874 0.0
H884 H 0.73031 0.57844 0.63324 0.0
H885 H 0.73383 0.47408 0.59268 0.0
H886 H 0.69541 0.46403 0.65849 0.0
H887 H 0.70507 0.46339 0.69343 0.0
H888 H 0.7795 0.36861 0.688 0.0
H889 H 0.77068 0.36902 0.65298 0.0
C890 C 0.63622 0.32006 0.57883 0.0
C891 C 0.65305 0.28451 0.58131 0.0
C892 C 0.65392 0.35255 0.58564 0.0
C893 C 0.68887 0.35016 0.59496 0.0
C894 C 0.70609 0.31486 0.59715 0.0
C895 C 0.68845 0.28235 0.59033 0.0
C896 C 0.70653 0.38428 0.60326 0.0
C897 C 0.714 0.38482 0.62298 0.0
C898 C 0.71385 0.4168 0.59218 0.0
C899 C 0.70821 0.41734 0.57114 0.0
C900 C 0.72551 0.39014 0.55944 0.0
C901 C 0.7199 0.39067 0.53964 0.0
C902 C 0.69724 0.41842 0.53135 0.0
C903 C 0.68021 0.44576 0.54285 0.0
C904 C 0.6857 0.44534 0.56266 0.0
C905 C 0.79724 0.51685 0.64897 0.0
C906 C 0.77862 0.55134 0.64625 0.0
C907 C 0.78345 0.484 0.64049 0.0
C908 C 0.75022 0.48491 0.62957 0.0
C909 C 0.73141 0.51934 0.62701 0.0
C910 C 0.74539 0.55223 0.63537 0.0
C911 C 0.7348 0.44997 0.62096 0.0
C912 C 0.7277 0.44929 0.6012 0.0
C913 C 0.72766 0.41733 0.63202 0.0
C914 C 0.73267 0.4168 0.65309 0.0
C915 C 0.71403 0.44321 0.66473 0.0
C916 C 0.71933 0.44287 0.68455 0.0
C917 C 0.74297 0.41605 0.69293 0.0
C918 C 0.76124 0.38941 0.6815 0.0
C919 C 0.75608 0.38966 0.66166 0.0
H920 H 0.74706 0.41585 0.70827 0.0
H921 H 0.69293 0.41878 0.51603 0.0
H922 H 0.24335 0.19855 0.84811 0.0
H923 H 0.18726 0.22773 0.86187 0.0
H924 H 0.11726 0.14565 0.83341 0.0
H925 H 0.17323 0.1157 0.81996 0.0
H926 H 0.12587 0.26061 0.84914 0.0
H927 H 0.04619 0.11979 0.86228 0.0
H928 H 0.06108 0.05304 0.86865 0.0
H929 H 0.1682 0.08494 0.89217 0.0
H930 H 0.15374 0.15185 0.88618 0.0
H931 H 0.93721 0.30271 0.87323 0.0
H932 H 0.99493 0.27796 0.85881 0.0
H933 H 0.02363 0.22421 0.91231 0.0
H934 H 0.96493 0.24753 0.92639 0.0
H935 H 0.03878 0.17862 0.88584 0.0
H936 H 0.06713 0.30833 0.89556 0.0
H937 H 0.05738 0.377 0.89351 0.0
H938 H 0.06247 0.37123 0.8322 0.0
H939 H 0.07169 0.30241 0.83387 0.0
C940 C 0.21601 0.18687 0.84462 0.0
C941 C 0.21282 0.15448 0.83311 0.0
C942 C 0.18396 0.20367 0.85247 0.0
C943 C 0.14814 0.18849 0.84894 0.0
C944 C 0.14471 0.15737 0.83665 0.0
C945 C 0.17674 0.14036 0.82891 0.0
C946 C 0.11454 0.2041 0.85876 0.0
C947 C 0.10676 0.24273 0.85715 0.0
C948 C 0.09029 0.18098 0.86972 0.0
C949 C 0.09901 0.14079 0.87358 0.0
C950 C 0.07285 0.11255 0.86887 0.0
C951 C 0.08123 0.07469 0.87241 0.0
C952 C 0.11561 0.06475 0.88075 0.0
C953 C 0.14164 0.09266 0.88564 0.0
C954 C 0.13339 0.13055 0.88215 0.0
C955 C 0.95607 0.28583 0.88189 0.0
C956 C 0.94709 0.27737 0.90095 0.0
C957 C 0.98908 0.27179 0.87369 0.0
C958 C 0.01413 0.2498 0.88456 0.0
C959 C 0.00486 0.24113 0.90361 0.0
C960 C 0.97145 0.25451 0.91167 0.0
C961 C 0.04956 0.23517 0.876 0.0
C962 C 0.05776 0.19664 0.87784 0.0
C963 C 0.07496 0.25872 0.86591 0.0
C964 C 0.06977 0.30016 0.86484 0.0
C965 C 0.06593 0.32167 0.88163 0.0
C966 C 0.06052 0.36062 0.88054 0.0
C967 C 0.05922 0.37845 0.86273 0.0
C968 C 0.06344 0.35737 0.84598 0.0
C969 C 0.06879 0.3184 0.84699 0.0
H970 H 0.05502 0.40861 0.86192 0.0
H971 H 0.12205 0.03542 0.88346 0.0
H972 H 0.29552 0.74425 0.0963 0.0
H973 H 0.26382 0.68829 0.10865 0.0
H974 H 0.34945 0.61773 0.08353 0.0
H975 H 0.38146 0.67355 0.07104 0.0
H976 H 0.27593 0.58874 0.07938 0.0
H977 H 0.35652 0.63951 0.12907 0.0
H978 H 0.37992 0.68975 0.15036 0.0
H979 H 0.26955 0.70203 0.1747 0.0
H980 H 0.24538 0.6522 0.15334 0.0
H981 H 0.25873 0.42163 0.13338 0.0
H982 H 0.28147 0.47934 0.11808 0.0
H983 H 0.1998 0.54427 0.14979 0.0
H984 H 0.17791 0.48664 0.1656 0.0
H985 H 0.26676 0.57789 0.15003 0.0
H986 H 0.1859 0.52566 0.10275 0.0
H987 H 0.16021 0.47627 0.08167 0.0
H988 H 0.26653 0.468 0.0527 0.0
H989 H 0.29309 0.51695 0.07383 0.0
C990 C 0.30749 0.71685 0.09321 0.0
C991 C 0.34128 0.71343 0.08283 0.0
C992 C 0.28932 0.68491 0.10031 0.0
C993 C 0.30457 0.64899 0.09717 0.0
C994 C 0.33731 0.64527 0.08611 0.0
C995 C 0.35562 0.67722 0.07906 0.0
C996 C 0.28765 0.61549 0.10638 0.0
C997 C 0.27421 0.58612 0.09482 0.0
C998 C 0.28446 0.61272 0.12651 0.0
C999 C 0.29907 0.64241 0.13948 0.0
C1000 C 0.33719 0.65312 0.13886 0.0
C1001 C 0.3506 0.68149 0.15096 0.0
C1002 C 0.32622 0.69914 0.16384 0.0
C1003 C 0.28839 0.68837 0.1647 0.0
C1004 C 0.27483 0.66006 0.15261 0.0
C1005 C 0.24566 0.44826 0.13703 0.0
C1006 C 0.21592 0.44972 0.15022 0.0
C1007 C 0.25845 0.48112 0.12821 0.0
C1008 C 0.24174 0.51598 0.13249 0.0
C1009 C 0.21273 0.51759 0.1461 0.0
C1010 C 0.19997 0.48469 0.15494 0.0
C1011 C 0.25529 0.55081 0.12306 0.0
C1012 C 0.26816 0.58049 0.13458 0.0
C1013 C 0.25753 0.55398 0.10289 0.0
C1014 C 0.2416 0.52478 0.09 0.0
C1015 C 0.20391 0.51313 0.09198 0.0
C1016 C 0.18916 0.48523 0.08 0.0
C1017 C 0.21174 0.46895 0.06588 0.0
C1018 C 0.24908 0.48062 0.06366 0.0
C1019 C 0.26399 0.50847 0.07563 0.0
H1020 H 0.20027 0.44734 0.05662 0.0
H1021 H 0.33665 0.7211 0.17319 0.0
H1022 H 0.82513 0.88001 0.32225 0.0
H1023 H 0.88013 0.84751 0.33516 0.0
H1024 H 0.80777 0.76578 0.36222 0.0
H1025 H 0.75241 0.79821 0.34944 0.0
H1026 H 0.86073 0.79382 0.38676 0.0
H1027 H 0.85836 0.74049 0.32398 0.0
H1028 H 0.85548 0.74107 0.28874 0.0
H1029 H 0.95853 0.80424 0.28656 0.0
H1030 H 0.96175 0.8045 0.32181 0.0
H1031 H 0.01458 0.67964 0.41663 0.0
H1032 H 0.95618 0.70119 0.40187 0.0
H1033 H 0.0184 0.78326 0.36913 0.0
H1034 H 0.07717 0.76041 0.38308 0.0
H1035 H 0.96784 0.74949 0.34713 0.0
H1036 H 0.96782 0.80729 0.40954 0.0
H1037 H 0.97072 0.80819 0.44479 0.0
H1038 H 0.87231 0.7381 0.44762 0.0
H1039 H 0.86912 0.73638 0.41236 0.0
C1040 C 0.82083 0.85495 0.33081 0.0
C1041 C 0.78432 0.84177 0.33483 0.0
C1042 C 0.85234 0.83632 0.33812 0.0
C1043 C 0.84801 0.8041 0.34954 0.0
C1044 C 0.81168 0.79058 0.35341 0.0
C1045 C 0.78011 0.8091 0.34604 0.0
C1046 C 0.88143 0.78564 0.3581 0.0
C1047 C 0.88389 0.78347 0.3781 0.0
C1048 C 0.91191 0.77295 0.34678 0.0
C1049 C 0.91012 0.77277 0.32556 0.0
C1050 C 0.88025 0.75477 0.316 0.0
C1051 C 0.87859 0.7549 0.29602 0.0
C1052 C 0.90676 0.77275 0.28542 0.0
C1053 C 0.93671 0.79044 0.29478 0.0
C1054 C 0.93849 0.79042 0.31477 0.0
C1055 C 0.01606 0.70156 0.40595 0.0
C1056 C 0.05072 0.71762 0.40068 0.0
C1057 C 0.98248 0.71434 0.39775 0.0
C1058 C 0.98288 0.74395 0.38443 0.0
C1059 C 0.01741 0.76026 0.3793 0.0
C1060 C 0.05095 0.74734 0.3874 0.0
C1061 C 0.94743 0.75816 0.37582 0.0
C1062 C 0.94456 0.75953 0.3558 0.0
C1063 C 0.91664 0.77028 0.38713 0.0
C1064 C 0.91848 0.77136 0.40832 0.0
C1065 C 0.94698 0.79182 0.41768 0.0
C1066 C 0.94864 0.79253 0.43766 0.0
C1067 C 0.92178 0.77312 0.44844 0.0
C1068 C 0.89314 0.75306 0.43926 0.0
C1069 C 0.89137 0.75223 0.41928 0.0
H1070 H 0.92312 0.77371 0.46391 0.0
H1071 H 0.90543 0.77282 0.26995 0.0
H1072 H 0.71637 0.0777 0.28567 0.0
H1073 H 0.75628 0.12514 0.27027 0.0
H1074 H 0.84986 0.04763 0.27109 0.0
H1075 H 0.81033 0.00014 0.28639 0.0
H1076 H 0.86879 0.11949 0.28376 0.0
H1077 H 0.80348 0.06078 0.23086 0.0
H1078 H 0.74724 0.0403 0.21295 0.0
H1079 H 0.70921 0.15493 0.20932 0.0
H1080 H 0.76501 0.17603 0.22747 0.0
H1081 H 0.99882 0.19235 0.21823 0.0
H1082 H 0.95291 0.15363 0.23507 0.0
H1083 H 0.86753 0.23815 0.22566 0.0
H1084 H 0.91331 0.27697 0.20838 0.0
H1085 H 0.84046 0.16874 0.21889 0.0
H1086 H 0.90793 0.22859 0.26935 0.0
H1087 H 0.96394 0.24967 0.28726 0.0
H1088 H 0.99711 0.13464 0.29608 0.0
H1089 H 0.94159 0.11285 0.27795 0.0
C1090 C 0.74545 0.07079 0.28258 0.0
C1091 C 0.76019 0.03516 0.28722 0.0
C1092 C 0.76815 0.09786 0.27375 0.0
C1093 C 0.80593 0.08976 0.26951 0.0
C1094 C 0.82077 0.0544 0.27429 0.0
C1095 C 0.79808 0.02726 0.28296 0.0
C1096 C 0.83022 0.11795 0.26 0.0
C1097 C 0.86281 0.13009 0.26952 0.0
C1098 C 0.82164 0.13257 0.24169 0.0
C1099 C 0.78818 0.11993 0.23072 0.0
C1100 C 0.78295 0.08158 0.2264 0.0
C1101 C 0.75119 0.06987 0.21617 0.0
C1102 C 0.72461 0.09629 0.21005 0.0
C1103 C 0.72979 0.13449 0.2141 0.0
C1104 C 0.76149 0.14635 0.22435 0.0
C1105 C 0.9703 0.2028 0.21972 0.0
C1106 C 0.95974 0.23783 0.21202 0.0
C1107 C 0.94412 0.18068 0.22944 0.0
C1108 C 0.90696 0.19328 0.23188 0.0
C1109 C 0.89612 0.22799 0.224 0.0
C1110 C 0.92232 0.25015 0.21417 0.0
C1111 C 0.87953 0.16979 0.24249 0.0
C1112 C 0.8463 0.15855 0.23322 0.0
C1113 C 0.8874 0.15614 0.2611 0.0
C1114 C 0.92071 0.1691 0.27216 0.0
C1115 C 0.9273 0.20778 0.27499 0.0
C1116 C 0.95895 0.21986 0.2852 0.0
C1117 C 0.9841 0.19351 0.29277 0.0
C1118 C 0.97761 0.15502 0.29019 0.0
C1119 C 0.94603 0.14279 0.27997 0.0
H1120 H 0.00859 0.20292 0.30067 0.0
H1121 H 0.70004 0.08717 0.20213 0.0
H1122 H 0.41376 0.2133 0.5387 0.0
H1123 H 0.36653 0.25389 0.52352 0.0
H1124 H 0.44902 0.34246 0.51828 0.0
H1125 H 0.49621 0.30236 0.53338 0.0
H1126 H 0.38148 0.36781 0.53266 0.0
H1127 H 0.42601 0.29059 0.48021 0.0
H1128 H 0.43901 0.23041 0.46386 0.0
H1129 H 0.3217 0.20142 0.46665 0.0
H1130 H 0.3081 0.26125 0.48328 0.0
H1131 H 0.30725 0.49443 0.46594 0.0
H1132 H 0.34533 0.44784 0.48271 0.0
H1133 H 0.25419 0.36774 0.47915 0.0
H1134 H 0.21605 0.41411 0.46185 0.0
H1135 H 0.31963 0.33449 0.47126 0.0
H1136 H 0.2736 0.41351 0.52116 0.0
H1137 H 0.25986 0.47346 0.53756 0.0
H1138 H 0.3781 0.49832 0.5404 0.0
H1139 H 0.39255 0.43879 0.52374 0.0
C1140 C 0.42182 0.24141 0.53429 0.0
C1141 C 0.45873 0.2546 0.53724 0.0
C1142 C 0.39485 0.26449 0.52559 0.0
C1143 C 0.40437 0.3011 0.51974 0.0
C1144 C 0.44111 0.31433 0.52274 0.0
C1145 C 0.46807 0.29128 0.53132 0.0
C1146 C 0.37625 0.32598 0.51051 0.0
C1147 C 0.36812 0.36069 0.51917 0.0
C1148 C 0.35797 0.31605 0.49324 0.0
C1149 C 0.36611 0.28018 0.48318 0.0
C1150 C 0.40304 0.27124 0.47749 0.0
C1151 C 0.41051 0.23722 0.46814 0.0
C1152 C 0.38122 0.21205 0.46427 0.0
C1153 C 0.34438 0.22091 0.46969 0.0
C1154 C 0.33677 0.25487 0.47907 0.0
C1155 C 0.29521 0.46693 0.46872 0.0
C1156 C 0.25854 0.45803 0.46264 0.0
C1157 C 0.31699 0.44036 0.4784 0.0
C1158 C 0.30237 0.40452 0.48249 0.0
C1159 C 0.26596 0.39529 0.47621 0.0
C1160 C 0.24419 0.42183 0.46636 0.0
C1161 C 0.32545 0.37679 0.4932 0.0
C1162 C 0.33258 0.3415 0.48487 0.0
C1163 C 0.34267 0.38608 0.51086 0.0
C1164 C 0.33413 0.42177 0.52107 0.0
C1165 C 0.29667 0.43187 0.52517 0.0
C1166 C 0.28875 0.46577 0.53453 0.0
C1167 C 0.31808 0.48971 0.53999 0.0
C1168 C 0.3554 0.47975 0.53615 0.0
C1169 C 0.36348 0.44591 0.52677 0.0
H1170 H 0.31189 0.51595 0.54723 0.0
H1171 H 0.38705 0.18573 0.45703 0.0
H1172 H 0.08066 0.7162 0.71294 0.0
H1173 H 0.12752 0.75724 0.72806 0.0
H1174 H 0.04516 0.8463 0.73174 0.0
H1175 H 0.9983 0.80571 0.71666 0.0
H1176 H 0.1131 0.87065 0.71739 0.0
H1177 H 0.06745 0.79671 0.77064 0.0
H1178 H 0.05361 0.73765 0.78782 0.0
H1179 H 0.17062 0.7072 0.78584 0.0
H1180 H 0.18508 0.76588 0.7684 0.0
H1181 H 0.19103 0.99931 0.78233 0.0
H1182 H 0.15172 0.95306 0.76605 0.0
H1183 H 0.24052 0.87054 0.77076 0.0
H1184 H 0.27983 0.91657 0.7876 0.0
H1185 H 0.17465 0.83962 0.77916 0.0
H1186 H 0.2217 0.91493 0.72802 0.0
H1187 H 0.23636 0.97358 0.71067 0.0
H1188 H 0.11859 0.00061 0.70784 0.0
H1189 H 0.10324 0.94239 0.72544 0.0
C1190 C 0.07252 0.74449 0.71701 0.0
C1191 C 0.03576 0.75769 0.7136 0.0
C1192 C 0.09928 0.76784 0.72569 0.0
C1193 C 0.08971 0.80473 0.73106 0.0
C1194 C 0.0531 0.81794 0.72765 0.0
C1195 C 0.02633 0.79462 0.71909 0.0
C1196 C 0.11779 0.82993 0.74009 0.0
C1197 C 0.12635 0.86407 0.73098 0.0
C1198 C 0.13593 0.82066 0.75748 0.0
C1199 C 0.12727 0.78546 0.76802 0.0
C1200 C 0.09018 0.77726 0.77372 0.0
C1201 C 0.08223 0.74389 0.78353 0.0
C1202 C 0.1112 0.71863 0.78787 0.0
C1203 C 0.1482 0.72675 0.78244 0.0
C1204 C 0.15629 0.76007 0.7726 0.0
C1205 C 0.2023 0.97137 0.77988 0.0
C1206 C 0.23863 0.96165 0.78618 0.0
C1207 C 0.17983 0.94498 0.77048 0.0
C1208 C 0.19341 0.90852 0.76688 0.0
C1209 C 0.22954 0.89857 0.77332 0.0
C1210 C 0.25198 0.92492 0.7829 0.0
C1211 C 0.16949 0.88079 0.75665 0.0
C1212 C 0.16174 0.84613 0.76548 0.0
C1213 C 0.15226 0.88946 0.73891 0.0
C1214 C 0.16135 0.9244 0.72818 0.0
C1215 C 0.19894 0.9335 0.72381 0.0
C1216 C 0.20737 0.96666 0.71392 0.0
C1217 C 0.17843 0.99084 0.70819 0.0
C1218 C 0.14098 0.98186 0.7123 0.0
C1219 C 0.13239 0.94876 0.72222 0.0
H1220 H 0.18502 0.0165 0.70053 0.0
H1221 H 0.10499 0.69281 0.79547 0.0
H1222 H 0.69359 0.49868 0.96901 0.0
H1223 H 0.65287 0.54572 0.98379 0.0
H1224 H 0.73453 0.63228 0.97141 0.0
H1225 H 0.77581 0.58519 0.95663 0.0
H1226 H 0.70558 0.63771 0.00808 0.0
H1227 H 0.65796 0.62599 0.94418 0.0
H1228 H 0.63484 0.59188 0.91577 0.0
H1229 H 0.54248 0.54767 0.94844 0.0
H1230 H 0.56536 0.5811 0.97713 0.0
H1231 H 0.57616 0.78427 0.03243 0.0
H1232 H 0.62191 0.74483 0.01554 0.0
H1233 H 0.54531 0.65063 0.01866 0.0
H1234 H 0.49914 0.6901 0.03494 0.0
H1235 H 0.57462 0.65385 0.98461 0.0
H1236 H 0.62397 0.66047 0.04887 0.0
H1237 H 0.64707 0.69253 0.0779 0.0
H1238 H 0.73562 0.74431 0.04538 0.0
H1239 H 0.71274 0.7129 0.01609 0.0
C1240 C 0.703 0.52769 0.96942 0.0
C1241 C 0.73787 0.53823 0.96152 0.0
C1242 C 0.67961 0.55457 0.97783 0.0
C1243 C 0.69047 0.59254 0.97845 0.0
C1244 C 0.7256 0.60311 0.97099 0.0
C1245 C 0.74907 0.57619 0.96251 0.0
C1246 C 0.66486 0.62103 0.98687 0.0
C1247 C 0.67713 0.64177 0.00278 0.0
C1248 C 0.62758 0.62573 0.98013 0.0
C1249 C 0.61355 0.60584 0.96284 0.0
C1250 C 0.63287 0.60879 0.94534 0.0
C1251 C 0.61978 0.58961 0.92919 0.0
C1252 C 0.58725 0.56756 0.93031 0.0
C1253 C 0.56769 0.56474 0.94759 0.0
C1254 C 0.58068 0.58384 0.9638 0.0
C1255 C 0.56912 0.75514 0.02952 0.0
C1256 C 0.53408 0.74027 0.03506 0.0
C1257 C 0.59535 0.73259 0.01994 0.0
C1258 C 0.58726 0.69461 0.01603 0.0
C1259 C 0.55219 0.67985 0.02149 0.0
C1260 C 0.52584 0.70244 0.03085 0.0
C1261 C 0.61497 0.67005 0.00614 0.0
C1262 C 0.60314 0.65008 0.98988 0.0
C1263 C 0.65254 0.66589 0.01266 0.0
C1264 C 0.66639 0.68467 0.03026 0.0
C1265 C 0.6482 0.67892 0.04789 0.0
C1266 C 0.66128 0.69693 0.06439 0.0
C1267 C 0.69273 0.72053 0.06348 0.0
C1268 C 0.71123 0.72607 0.04606 0.0
C1269 C 0.69823 0.70816 0.02951 0.0
H1270 H 0.70281 0.73445 0.07627 0.0
H1271 H 0.57717 0.55272 0.91779 0.0
loop_
_geom_bond_atom_site_label_1
_geom_bond_atom_site_label_2
_geom_bond_distance
_geom_bond_site_symmetry_2
_ccdc_geom_bond_type
Co0 O3 1.970 . S
Co0 N17 1.989 . S
Co0 O25 1.967 . S
Co0 O32 1.920 . S
Co1 O4 1.966 . S
Co1 N10 2.022 . S
Co1 N18 1.993 . S
Co1 O26 1.941 . S
C2 O3 1.258 . S
C2 O4 1.263 . S
O3 Co0 1.970 . S
O3 C2 1.258 . S
O4 Co1 1.966 . S
O4 C2 1.263 . S
C5 O6 1.235 1_455 S
C5 O32 1.289 . S
O6 C5 1.235 1_655 S
C7 C9 1.400 . S
C7 N10 1.351 . S
C7 C12 1.501 . S
C8 C9 1.387 . S
C8 N11 1.341 . S
C9 C7 1.400 . S
C9 C8 1.387 . S
N10 Co1 2.022 . S
N10 C7 1.351 . S
N10 N11 1.365 . S
N11 C8 1.341 . S
N11 N10 1.365 . S
N11 H31 0.862 . S
C12 C7 1.501 . S
C12 H13 0.961 . S
C12 H14 0.961 . S
C12 H15 0.960 . S
H13 C12 0.961 . S
H14 C12 0.961 . S
H15 C12 0.960 . S
C16 N17 1.342 . S
C16 C20 1.401 . S
C16 C21 1.499 . S
N17 Co0 1.989 . S
N17 C16 1.342 . S
N17 N18 1.388 . S
N18 Co1 1.993 . S
N18 N17 1.388 . S
N18 C19 1.346 . S
C19 N18 1.346 . S
C19 C20 1.396 . S
C19 C29 1.510 . S
C20 C16 1.401 . S
C20 C19 1.396 . S
C21 C16 1.499 . S
C21 H22 0.959 . S
C21 H23 0.960 . S
C21 H24 0.961 . S
H22 C21 0.959 . S
H23 C21 0.960 . S
H24 C21 0.961 . S
O25 Co0 1.967 . S
O25 C33 1.258 . S
O26 Co1 1.941 . S
O26 C33 1.266 . S
H27 C29 0.959 . S
H28 C29 0.961 . S
C29 C19 1.510 . S
C29 H27 0.959 . S
C29 H28 0.961 . S
C29 H30 0.960 . S
H30 C29 0.960 . S
H31 N11 0.862 . S
O32 Co0 1.920 . S
O32 C5 1.289 . S
C33 O25 1.258 . S
C33 O26 1.266 . S
Co34 O37 1.970 . S
Co34 N51 1.989 . S
Co34 O59 1.967 . S
Co34 O66 1.920 . S
Co35 O38 1.966 . S
Co35 N44 2.022 . S
Co35 N52 1.993 . S
Co35 O60 1.941 . S
C36 O37 1.258 . S
C36 O38 1.263 . S
O37 Co34 1.970 . S
O37 C36 1.258 . S
O38 Co35 1.966 . S
O38 C36 1.263 . S
C39 O40 1.235 . S
C39 O66 1.289 . S
O40 C39 1.235 . S
C41 C43 1.400 . S
C41 N44 1.351 . S
C41 C46 1.501 . S
C42 C43 1.387 . S
C42 N45 1.341 . S
C43 C41 1.400 . S
C43 C42 1.387 . S
N44 Co35 2.022 . S
N44 C41 1.351 . S
N44 N45 1.365 . S
N45 C42 1.341 . S
N45 N44 1.365 . S
N45 H65 0.862 . S
C46 C41 1.501 . S
C46 H47 0.961 . S
C46 H48 0.961 . S
C46 H49 0.960 . S
H47 C46 0.961 . S
H48 C46 0.961 . S
H49 C46 0.960 . S
C50 N51 1.342 . S
C50 C54 1.401 . S
C50 C55 1.499 . S
N51 Co34 1.989 . S
N51 C50 1.342 . S
N51 N52 1.388 . S
N52 Co35 1.993 . S
N52 N51 1.388 . S
N52 C53 1.346 . S
C53 N52 1.346 . S
C53 C54 1.396 . S
C53 C63 1.510 . S
C54 C50 1.401 . S
C54 C53 1.396 . S
C55 C50 1.499 . S
C55 H56 0.959 . S
C55 H57 0.960 . S
C55 H58 0.961 . S
H56 C55 0.959 . S
H57 C55 0.960 . S
H58 C55 0.961 . S
O59 Co34 1.967 . S
O59 C67 1.258 . S
O60 Co35 1.941 . S
O60 C67 1.266 . S
H61 C63 0.959 . S
H62 C63 0.961 . S
C63 C53 1.510 . S
C63 H61 0.959 . S
C63 H62 0.961 . S
C63 H64 0.960 . S
H64 C63 0.960 . S
H65 N45 0.862 . S
O66 Co34 1.920 . S
O66 C39 1.289 . S
C67 O59 1.258 . S
C67 O60 1.266 . S
Co68 O71 1.970 . S
Co68 N85 1.989 . S
Co68 O93 1.967 . S
Co68 O100 1.920 . S
Co69 O72 1.966 . S
Co69 N78 2.022 . S
Co69 N86 1.993 . S
Co69 O94 1.941 . S
C70 O71 1.258 . S
C70 O72 1.263 . S
O71 Co68 1.970 . S
O71 C70 1.258 . S
O72 Co69 1.966 . S
O72 C70 1.263 . S
C73 O74 1.235 1_655 S
C73 O100 1.289 . S
O74 C73 1.235 1_455 S
C75 C77 1.400 . S
C75 N78 1.351 . S
C75 C80 1.501 . S
C76 C77 1.387 . S
C76 N79 1.341 . S
C77 C75 1.400 . S
C77 C76 1.387 . S
N78 Co69 2.022 . S
N78 C75 1.351 . S
N78 N79 1.365 . S
N79 C76 1.341 . S
N79 N78 1.365 . S
N79 H99 0.862 . S
C80 C75 1.501 . S
C80 H81 0.961 . S
C80 H82 0.961 . S
C80 H83 0.960 . S
H81 C80 0.961 . S
H82 C80 0.961 . S
H83 C80 0.960 . S
C84 N85 1.342 . S
C84 C88 1.401 . S
C84 C89 1.499 . S
N85 Co68 1.989 . S
N85 C84 1.342 . S
N85 N86 1.388 . S
N86 Co69 1.993 . S
N86 N85 1.388 . S
N86 C87 1.346 . S
C87 N86 1.346 . S
C87 C88 1.396 . S
C87 C97 1.510 . S
C88 C84 1.401 . S
C88 C87 1.396 . S
C89 C84 1.499 . S
C89 H90 0.959 . S
C89 H91 0.960 . S
C89 H92 0.961 . S
H90 C89 0.959 . S
H91 C89 0.960 . S
H92 C89 0.961 . S
O93 Co68 1.967 . S
O93 C101 1.258 . S
O94 Co69 1.941 . S
O94 C101 1.266 . S
H95 C97 0.959 . S
H96 C97 0.961 . S
C97 C87 1.510 . S
C97 H95 0.959 . S
C97 H96 0.961 . S
C97 H98 0.960 . S
H98 C97 0.960 . S
H99 N79 0.862 . S
O100 Co68 1.920 . S
O100 C73 1.289 . S
C101 O93 1.258 . S
C101 O94 1.266 . S
Co102 O105 1.970 . S
Co102 N119 1.989 . S
Co102 O127 1.967 . S
Co102 O134 1.920 . S
Co103 O106 1.966 . S
Co103 N112 2.022 . S
Co103 N120 1.993 . S
Co103 O128 1.941 . S
C104 O105 1.258 . S
C104 O106 1.263 . S
O105 Co102 1.970 . S
O105 C104 1.258 . S
O106 Co103 1.966 . S
O106 C104 1.263 . S
C107 O108 1.235 . S
C107 O134 1.289 . S
O108 C107 1.235 . S
C109 C111 1.400 . S
C109 N112 1.351 . S
C109 C114 1.501 . S
C110 C111 1.387 . S
C110 N113 1.341 . S
C111 C109 1.400 . S
C111 C110 1.387 . S
N112 Co103 2.022 . S
N112 C109 1.351 . S
N112 N113 1.365 . S
N113 C110 1.341 . S
N113 N112 1.365 . S
N113 H133 0.862 . S
C114 C109 1.501 . S
C114 H115 0.961 . S
C114 H116 0.961 . S
C114 H117 0.960 . S
H115 C114 0.961 . S
H116 C114 0.961 . S
H117 C114 0.960 . S
C118 N119 1.342 . S
C118 C122 1.401 . S
C118 C123 1.499 . S
N119 Co102 1.989 . S
N119 C118 1.342 . S
N119 N120 1.388 . S
N120 Co103 1.993 . S
N120 N119 1.388 . S
N120 C121 1.346 . S
C121 N120 1.346 . S
C121 C122 1.396 . S
C121 C131 1.510 . S
C122 C118 1.401 . S
C122 C121 1.396 . S
C123 C118 1.499 . S
C123 H124 0.959 . S
C123 H125 0.960 . S
C123 H126 0.961 . S
H124 C123 0.959 . S
H125 C123 0.960 . S
H126 C123 0.961 . S
O127 Co102 1.967 . S
O127 C135 1.258 . S
O128 Co103 1.941 . S
O128 C135 1.266 . S
H129 C131 0.959 . S
H130 C131 0.961 . S
C131 C121 1.510 . S
C131 H129 0.959 . S
C131 H130 0.961 . S
C131 H132 0.960 . S
H132 C131 0.960 . S
H133 N113 0.862 . S
O134 Co102 1.920 . S
O134 C107 1.289 . S
C135 O127 1.258 . S
C135 O128 1.266 . S
Co136 O139 1.970 . S
Co136 N153 1.989 . S
Co136 O161 1.967 . S
Co136 O168 1.920 . S
Co137 O140 1.966 . S
Co137 N146 2.022 . S
Co137 N154 1.993 . S
Co137 O162 1.941 . S
C138 O139 1.258 . S
C138 O140 1.263 . S
O139 Co136 1.970 . S
O139 C138 1.258 . S
O140 Co137 1.966 . S
O140 C138 1.263 . S
C141 O142 1.235 . S
C141 O168 1.289 . S
O142 C141 1.235 . S
C143 C145 1.400 . S
C143 N146 1.351 . S
C143 C148 1.501 . S
C144 C145 1.387 . S
C144 N147 1.341 . S
C145 C143 1.400 . S
C145 C144 1.387 . S
N146 Co137 2.022 . S
N146 C143 1.351 . S
N146 N147 1.365 . S
N147 C144 1.341 . S
N147 N146 1.365 . S
N147 H167 0.862 . S
C148 C143 1.501 . S
C148 H149 0.961 . S
C148 H150 0.961 . S
C148 H151 0.960 . S
H149 C148 0.961 . S
H150 C148 0.961 . S
H151 C148 0.960 . S
C152 N153 1.342 . S
C152 C156 1.401 . S
C152 C157 1.499 . S
N153 Co136 1.989 . S
N153 C152 1.342 . S
N153 N154 1.388 . S
N154 Co137 1.993 . S
N154 N153 1.388 . S
N154 C155 1.346 . S
C155 N154 1.346 . S
C155 C156 1.396 . S
C155 C165 1.510 . S
C156 C152 1.401 . S
C156 C155 1.396 . S
C157 C152 1.499 . S
C157 H158 0.959 . S
C157 H159 0.960 . S
C157 H160 0.961 . S
H158 C157 0.959 . S
H159 C157 0.960 . S
H160 C157 0.961 . S
O161 Co136 1.967 . S
O161 C169 1.258 . S
O162 Co137 1.941 . S
O162 C169 1.266 . S
H163 C165 0.959 . S
H164 C165 0.961 . S
C165 C155 1.510 . S
C165 H163 0.959 . S
C165 H164 0.961 . S
C165 H166 0.960 . S
H166 C165 0.960 . S
H167 N147 0.862 . S
O168 Co136 1.920 . S
O168 C141 1.289 . S
C169 O161 1.258 . S
C169 O162 1.266 . S
Co170 O173 1.970 . S
Co170 N187 1.989 . S
Co170 O195 1.967 . S
Co170 O202 1.920 . S
Co171 O174 1.966 . S
Co171 N180 2.022 . S
Co171 N188 1.993 . S
Co171 O196 1.941 . S
C172 O173 1.258 . S
C172 O174 1.263 . S
O173 Co170 1.970 . S
O173 C172 1.258 . S
O174 Co171 1.966 . S
O174 C172 1.263 . S
C175 O176 1.235 1_545 S
C175 O202 1.289 . S
O176 C175 1.235 1_565 S
C177 C179 1.400 . S
C177 N180 1.351 . S
C177 C182 1.501 . S
C178 C179 1.387 . S
C178 N181 1.341 . S
C179 C177 1.400 . S
C179 C178 1.387 . S
N180 Co171 2.022 . S
N180 C177 1.351 . S
N180 N181 1.365 . S
N181 C178 1.341 . S
N181 N180 1.365 . S
N181 H201 0.862 . S
C182 C177 1.501 . S
C182 H183 0.961 . S
C182 H184 0.961 . S
C182 H185 0.960 . S
H183 C182 0.961 . S
H184 C182 0.961 . S
H185 C182 0.960 . S
C186 N187 1.342 . S
C186 C190 1.401 . S
C186 C191 1.499 . S
N187 Co170 1.989 . S
N187 C186 1.342 . S
N187 N188 1.388 . S
N188 Co171 1.993 . S
N188 N187 1.388 . S
N188 C189 1.346 . S
C189 N188 1.346 . S
C189 C190 1.396 . S
C189 C199 1.510 . S
C190 C186 1.401 . S
C190 C189 1.396 . S
C191 C186 1.499 . S
C191 H192 0.959 . S
C191 H193 0.960 . S
C191 H194 0.961 . S
H192 C191 0.959 . S
H193 C191 0.960 . S
H194 C191 0.961 . S
O195 Co170 1.967 . S
O195 C203 1.258 . S
O196 Co171 1.941 . S
O196 C203 1.266 . S
H197 C199 0.959 . S
H198 C199 0.961 . S
C199 C189 1.510 . S
C199 H197 0.959 . S
C199 H198 0.961 . S
C199 H200 0.960 . S
H200 C199 0.960 . S
H201 N181 0.862 . S
O202 Co170 1.920 . S
O202 C175 1.289 . S
C203 O195 1.258 . S
C203 O196 1.266 . S
Co204 O207 1.970 . S
Co204 N221 1.989 . S
Co204 O229 1.967 . S
Co204 O236 1.920 . S
Co205 O208 1.966 . S
Co205 N214 2.022 . S
Co205 N222 1.993 . S
Co205 O230 1.941 . S
C206 O207 1.258 . S
C206 O208 1.263 . S
O207 Co204 1.970 . S
O207 C206 1.258 . S
O208 Co205 1.966 . S
O208 C206 1.263 . S
C209 O210 1.235 . S
C209 O236 1.289 . S
O210 C209 1.235 . S
C211 C213 1.400 . S
C211 N214 1.351 . S
C211 C216 1.501 . S
C212 C213 1.387 . S
C212 N215 1.341 . S
C213 C211 1.400 . S
C213 C212 1.387 . S
N214 Co205 2.022 . S
N214 C211 1.351 . S
N214 N215 1.365 . S
N215 C212 1.341 . S
N215 N214 1.365 . S
N215 H235 0.862 . S
C216 C211 1.501 . S
C216 H217 0.961 . S
C216 H218 0.961 . S
C216 H219 0.960 . S
H217 C216 0.961 . S
H218 C216 0.961 . S
H219 C216 0.960 . S
C220 N221 1.342 . S
C220 C224 1.401 . S
C220 C225 1.499 . S
N221 Co204 1.989 . S
N221 C220 1.342 . S
N221 N222 1.388 . S
N222 Co205 1.993 . S
N222 N221 1.388 . S
N222 C223 1.346 . S
C223 N222 1.346 . S
C223 C224 1.396 . S
C223 C233 1.510 . S
C224 C220 1.401 . S
C224 C223 1.396 . S
C225 C220 1.499 . S
C225 H226 0.959 . S
C225 H227 0.960 . S
C225 H228 0.961 . S
H226 C225 0.959 . S
H227 C225 0.960 . S
H228 C225 0.961 . S
O229 Co204 1.967 . S
O229 C237 1.258 . S
O230 Co205 1.941 . S
O230 C237 1.266 . S
H231 C233 0.959 . S
H232 C233 0.961 . S
C233 C223 1.510 . S
C233 H231 0.959 . S
C233 H232 0.961 . S
C233 H234 0.960 . S
H234 C233 0.960 . S
H235 N215 0.862 . S
O236 Co204 1.920 . S
O236 C209 1.289 . S
C237 O229 1.258 . S
C237 O230 1.266 . S
Co238 O241 1.970 . S
Co238 N255 1.989 . S
Co238 O263 1.967 . S
Co238 O270 1.920 . S
Co239 O242 1.966 . S
Co239 N248 2.022 . S
Co239 N256 1.993 . S
Co239 O264 1.941 . S
C240 O241 1.258 . S
C240 O242 1.263 . S
O241 Co238 1.970 . S
O241 C240 1.258 . S
O242 Co239 1.966 . S
O242 C240 1.263 . S
C243 O244 1.235 1_565 S
C243 O270 1.289 . S
O244 C243 1.235 1_545 S
C245 C247 1.400 . S
C245 N248 1.351 . S
C245 C250 1.501 . S
C246 C247 1.387 . S
C246 N249 1.341 . S
C247 C245 1.400 . S
C247 C246 1.387 . S
N248 Co239 2.022 . S
N248 C245 1.351 . S
N248 N249 1.365 . S
N249 C246 1.341 . S
N249 N248 1.365 . S
N249 H269 0.862 . S
C250 C245 1.501 . S
C250 H251 0.961 . S
C250 H252 0.961 . S
C250 H253 0.960 . S
H251 C250 0.961 . S
H252 C250 0.961 . S
H253 C250 0.960 . S
C254 N255 1.342 . S
C254 C258 1.401 . S
C254 C259 1.499 . S
N255 Co238 1.989 . S
N255 C254 1.342 . S
N255 N256 1.388 . S
N256 Co239 1.993 . S
N256 N255 1.388 . S
N256 C257 1.346 . S
C257 N256 1.346 . S
C257 C258 1.396 . S
C257 C267 1.510 . S
C258 C254 1.401 . S
C258 C257 1.396 . S
C259 C254 1.499 . S
C259 H260 0.959 . S
C259 H261 0.960 . S
C259 H262 0.961 . S
H260 C259 0.959 . S
H261 C259 0.960 . S
H262 C259 0.961 . S
O263 Co238 1.967 . S
O263 C271 1.258 . S
O264 Co239 1.941 . S
O264 C271 1.266 . S
H265 C267 0.959 . S
H266 C267 0.961 . S
C267 C257 1.510 . S
C267 H265 0.959 . S
C267 H266 0.961 . S
C267 H268 0.960 . S
H268 C267 0.960 . S
H269 N249 0.862 . S
O270 Co238 1.920 . S
O270 C243 1.289 . S
C271 O263 1.258 . S
C271 O264 1.266 . S
H272 C290 0.951 . S
H273 C292 0.951 . S
H274 C294 0.950 . S
H275 C295 0.950 . S
H276 C297 0.950 . S
H277 C300 0.950 . S
H278 C301 0.950 . S
H279 C303 0.950 . S
H280 C304 0.950 . S
H281 C305 0.951 . S
H282 C307 0.951 . S
H283 C309 0.950 . S
H284 C310 0.950 . S
H285 C312 0.950 . S
H286 C315 0.950 . S
H287 C316 0.950 . S
H288 C318 0.950 . S
H289 C319 0.950 . S
C290 H272 0.951 . S
C290 C291 1.366 . S
C290 C292 1.388 . S
C291 C290 1.366 . S
C291 C295 1.385 . S
C292 H273 0.951 . S
C292 C290 1.388 . S
C292 C293 1.366 . S
C293 C292 1.366 . S
C293 C294 1.414 . S
C293 C296 1.499 . S
C294 H274 0.950 . S
C294 C293 1.414 . S
C294 C295 1.374 . S
C295 H275 0.950 . S
C295 C291 1.385 . S
C295 C294 1.374 . S
C296 C293 1.499 . S
C296 C297 1.373 . S
C296 C298 1.389 . S
C297 H276 0.950 . S
C297 C296 1.373 . S
C297 C313 1.377 . S
C298 C296 1.389 . S
C298 C299 1.524 . S
C298 C312 1.377 . S
C299 C298 1.524 . S
C299 C300 1.397 . S
C299 C304 1.363 . S
C300 H277 0.950 . S
C300 C299 1.397 . S
C300 C301 1.334 . S
C301 H278 0.950 . S
C301 C300 1.334 . S
C301 C302 1.287 . S
C302 C301 1.287 . S
C302 C303 1.524 . S
C302 H321 0.913 . S
C303 H279 0.950 . S
C303 C302 1.524 . S
C303 C304 1.415 . S
C304 H280 0.950 . S
C304 C299 1.363 . S
C304 C303 1.415 . S
C305 H281 0.951 . S
C305 C306 1.366 . S
C305 C307 1.388 . S
C306 C305 1.366 . S
C306 C310 1.385 . S
C307 H282 0.951 . S
C307 C305 1.388 . S
C307 C308 1.366 . S
C308 C307 1.366 . S
C308 C309 1.414 . S
C308 C311 1.499 . S
C309 H283 0.950 . S
C309 C308 1.414 . S
C309 C310 1.374 . S
C310 H284 0.950 . S
C310 C306 1.385 . S
C310 C309 1.374 . S
C311 C308 1.499 . S
C311 C312 1.373 . S
C311 C313 1.389 . S
C312 H285 0.950 . S
C312 C298 1.377 . S
C312 C311 1.373 . S
C313 C297 1.377 . S
C313 C311 1.389 . S
C313 C314 1.524 . S
C314 C313 1.524 . S
C314 C315 1.397 . S
C314 C319 1.363 . S
C315 H286 0.950 . S
C315 C314 1.397 . S
C315 C316 1.334 . S
C316 H287 0.950 . S
C316 C315 1.334 . S
C316 C317 1.287 . S
C317 C316 1.287 . S
C317 C318 1.524 . S
C317 H320 0.999 . S
C318 H288 0.950 . S
C318 C317 1.524 . S
C318 C319 1.415 . S
C319 H289 0.950 . S
C319 C314 1.363 . S
C319 C318 1.415 . S
H320 C317 0.999 . S
H321 C302 0.913 . S
H322 C340 0.956 . S
H323 C342 0.951 . S
H324 C344 0.950 . S
H325 C345 0.950 . S
H326 C347 0.950 1_655 S
H327 C350 0.950 . S
H328 C351 0.950 . S
H329 C353 0.950 . S
H330 C354 0.950 . S
H331 C355 0.951 . S
H332 C357 0.951 . S
H333 C359 0.950 . S
H334 C360 0.950 . S
H335 C362 0.950 . S
H336 C365 0.950 . S
H337 C366 0.950 . S
H338 C368 0.950 . S
H339 C369 0.950 . S
C340 H322 0.956 . S
C340 C341 1.357 1_455 S
C340 C342 1.392 . S
C341 C340 1.357 1_655 S
C341 C345 1.385 . S
C342 H323 0.951 . S
C342 C340 1.392 . S
C342 C343 1.355 1_455 S
C343 C342 1.355 1_655 S
C343 C344 1.436 . S
C343 C346 1.489 1_655 S
C344 H324 0.950 . S
C344 C343 1.436 . S
C344 C345 1.374 . S
C345 H325 0.950 . S
C345 C341 1.385 . S
C345 C344 1.374 . S
C346 C343 1.489 1_455 S
C346 C347 1.373 . S
C346 C348 1.389 . S
C347 H326 0.950 1_455 S
C347 C346 1.373 . S
C347 C363 1.377 . S
C348 C346 1.389 . S
C348 C349 1.524 . S
C348 C362 1.377 . S
C349 C348 1.524 . S
C349 C350 1.397 . S
C349 C354 1.363 . S
C350 H327 0.950 . S
C350 C349 1.397 . S
C350 C351 1.334 . S
C351 H328 0.950 . S
C351 C350 1.334 . S
C351 C352 1.287 . S
C352 C351 1.287 . S
C352 C353 1.524 . S
C352 H371 0.913 . S
C353 H329 0.950 . S
C353 C352 1.524 . S
C353 C354 1.415 . S
C354 H330 0.950 . S
C354 C349 1.363 . S
C354 C353 1.415 . S
C355 H331 0.951 . S
C355 C356 1.366 . S
C355 C357 1.388 . S
C356 C355 1.366 . S
C356 C360 1.385 . S
C357 H332 0.951 . S
C357 C355 1.388 . S
C357 C358 1.366 . S
C358 C357 1.366 . S
C358 C359 1.414 . S
C358 C361 1.499 . S
C359 H333 0.950 . S
C359 C358 1.414 . S
C359 C360 1.374 . S
C360 H334 0.950 . S
C360 C356 1.385 . S
C360 C359 1.374 . S
C361 C358 1.499 . S
C361 C362 1.373 . S
C361 C363 1.389 . S
C362 H335 0.950 . S
C362 C348 1.377 . S
C362 C361 1.373 . S
C363 C347 1.377 . S
C363 C361 1.389 . S
C363 C364 1.524 . S
C364 C363 1.524 . S
C364 C365 1.397 . S
C364 C369 1.363 1_455 S
C365 H336 0.950 . S
C365 C364 1.397 . S
C365 C366 1.334 . S
C366 H337 0.950 . S
C366 C365 1.334 . S
C366 C367 1.287 1_455 S
C367 C366 1.287 1_655 S
C367 C368 1.524 . S
C367 H370 0.999 . S
C368 H338 0.950 . S
C368 C367 1.524 . S
C368 C369 1.415 . S
C369 H339 0.950 . S
C369 C364 1.363 1_655 S
C369 C368 1.415 . S
H370 C367 0.999 . S
H371 C352 0.913 . S
H372 C390 0.951 . S
H373 C392 0.951 . S
H374 C394 0.950 . S
H375 C395 0.950 . S
H376 C397 0.950 . S
H377 C400 0.950 . S
H378 C401 0.950 . S
H379 C403 0.950 . S
H380 C404 0.950 . S
H381 C405 0.951 . S
H382 C407 0.951 . S
H383 C409 0.950 . S
H384 C410 0.950 . S
H385 C412 0.950 . S
H386 C415 0.950 . S
H387 C416 0.950 . S
H388 C418 0.950 . S
H389 C419 0.950 . S
C390 H372 0.951 . S
C390 C391 1.366 . S
C390 C392 1.388 . S
C391 C390 1.366 . S
C391 C395 1.385 . S
C392 H373 0.951 . S
C392 C390 1.388 . S
C392 C393 1.366 . S
C393 C392 1.366 . S
C393 C394 1.414 . S
C393 C396 1.499 . S
C394 H374 0.950 . S
C394 C393 1.414 . S
C394 C395 1.374 . S
C395 H375 0.950 . S
C395 C391 1.385 . S
C395 C394 1.374 . S
C396 C393 1.499 . S
C396 C397 1.373 . S
C396 C398 1.389 . S
C397 H376 0.950 . S
C397 C396 1.373 . S
C397 C413 1.377 . S
C398 C396 1.389 . S
C398 C399 1.524 . S
C398 C412 1.377 . S
C399 C398 1.524 . S
C399 C400 1.397 . S
C399 C404 1.363 . S
C400 H377 0.950 . S
C400 C399 1.397 . S
C400 C401 1.334 . S
C401 H378 0.950 . S
C401 C400 1.334 . S
C401 C402 1.287 . S
C402 C401 1.287 . S
C402 C403 1.524 . S
C402 H421 0.913 . S
C403 H379 0.950 . S
C403 C402 1.524 . S
C403 C404 1.415 . S
C404 H380 0.950 . S
C404 C399 1.363 . S
C404 C403 1.415 . S
C405 H381 0.951 . S
C405 C406 1.366 . S
C405 C407 1.388 . S
C406 C405 1.366 . S
C406 C410 1.385 . S
C407 H382 0.951 . S
C407 C405 1.388 . S
C407 C408 1.366 . S
C408 C407 1.366 . S
C408 C409 1.414 . S
C408 C411 1.499 . S
C409 H383 0.950 . S
C409 C408 1.414 . S
C409 C410 1.374 . S
C410 H384 0.950 . S
C410 C406 1.385 . S
C410 C409 1.374 . S
C411 C408 1.499 . S
C411 C412 1.373 . S
C411 C413 1.389 . S
C412 H385 0.950 . S
C412 C398 1.377 . S
C412 C411 1.373 . S
C413 C397 1.377 . S
C413 C411 1.389 . S
C413 C414 1.524 . S
C414 C413 1.524 . S
C414 C415 1.397 . S
C414 C419 1.363 . S
C415 H386 0.950 . S
C415 C414 1.397 . S
C415 C416 1.334 . S
C416 H387 0.950 . S
C416 C415 1.334 . S
C416 C417 1.287 . S
C417 C416 1.287 . S
C417 C418 1.524 . S
C417 H420 0.999 . S
C418 H388 0.950 . S
C418 C417 1.524 . S
C418 C419 1.415 . S
C419 H389 0.950 . S
C419 C414 1.363 . S
C419 C418 1.415 . S
H420 C417 0.999 . S
H421 C402 0.913 . S
H422 C440 0.951 1_556 S
H423 C442 0.951 . S
H424 C444 0.950 . S
H425 C445 0.950 1_556 S
H426 C447 0.950 . S
H427 C450 0.950 . S
H428 C451 0.950 . S
H429 C453 0.950 . S
H430 C454 0.950 . S
H431 C455 0.951 . S
H432 C457 0.951 . S
H433 C459 0.967 . S
H434 C460 0.950 . S
H435 C462 0.950 . S
H436 C465 0.950 . S
H437 C466 0.950 . S
H438 C468 0.950 . S
H439 C469 0.950 . S
C440 H422 0.951 1_554 S
C440 C441 1.366 1_554 S
C440 C442 1.388 . S
C441 C440 1.366 1_556 S
C441 C445 1.385 1_556 S
C442 H423 0.951 . S
C442 C440 1.388 . S
C442 C443 1.366 . S
C443 C442 1.366 . S
C443 C444 1.414 . S
C443 C446 1.499 . S
C444 H424 0.950 . S
C444 C443 1.414 . S
C444 C445 1.374 . S
C445 H425 0.950 1_554 S
C445 C441 1.385 1_554 S
C445 C444 1.374 . S
C446 C443 1.499 . S
C446 C447 1.373 . S
C446 C448 1.389 . S
C447 H426 0.950 . S
C447 C446 1.373 . S
C447 C463 1.377 . S
C448 C446 1.389 . S
C448 C449 1.524 . S
C448 C462 1.377 . S
C449 C448 1.524 . S
C449 C450 1.397 . S
C449 C454 1.363 . S
C450 H427 0.950 . S
C450 C449 1.397 . S
C450 C451 1.334 . S
C451 H428 0.950 . S
C451 C450 1.334 . S
C451 C452 1.287 . S
C452 C451 1.287 . S
C452 C453 1.524 . S
C452 H471 0.913 . S
C453 H429 0.950 . S
C453 C452 1.524 . S
C453 C454 1.415 . S
C454 H430 0.950 . S
C454 C449 1.363 . S
C454 C453 1.415 . S
C455 H431 0.951 . S
C455 C456 1.366 . S
C455 C457 1.388 . S
C456 C455 1.366 . S
C456 C460 1.385 . S
C457 H432 0.951 . S
C457 C455 1.388 . S
C457 C458 1.379 . S
C458 C457 1.379 . S
C458 C459 1.412 1_455 S
C458 C461 1.486 1_455 S
C459 H433 0.967 . S
C459 C458 1.412 1_655 S
C459 C460 1.359 1_655 S
C460 H434 0.950 . S
C460 C456 1.385 . S
C460 C459 1.359 1_455 S
C461 C458 1.486 1_655 S
C461 C462 1.373 . S
C461 C463 1.389 . S
C462 H435 0.950 . S
C462 C448 1.377 . S
C462 C461 1.373 . S
C463 C447 1.377 . S
C463 C461 1.389 . S
C463 C464 1.524 1_655 S
C464 C463 1.524 1_455 S
C464 C465 1.397 . S
C464 C469 1.363 . S
C465 H436 0.950 . S
C465 C464 1.397 . S
C465 C466 1.334 . S
C466 H437 0.950 . S
C466 C465 1.334 . S
C466 C467 1.287 . S
C467 C466 1.287 . S
C467 C468 1.524 . S
C467 H470 0.999 . S
C468 H438 0.950 . S
C468 C467 1.524 . S
C468 C469 1.415 . S
C469 H439 0.950 . S
C469 C464 1.363 . S
C469 C468 1.415 . S
H470 C467 0.999 . S
H471 C452 0.913 . S
H472 C490 0.951 . S
H473 C492 0.951 . S
H474 C494 0.950 . S
H475 C495 0.950 . S
H476 C497 0.950 . S
H477 C500 0.950 . S
H478 C501 0.950 . S
H479 C503 0.950 . S
H480 C504 0.950 . S
H481 C505 0.951 . S
H482 C507 0.951 . S
H483 C509 0.950 . S
H484 C510 0.950 . S
H485 C512 0.950 . S
H486 C515 0.950 . S
H487 C516 0.950 . S
H488 C518 0.950 . S
H489 C519 0.950 . S
C490 H472 0.951 . S
C490 C491 1.366 . S
C490 C492 1.388 . S
C491 C490 1.366 . S
C491 C495 1.385 . S
C492 H473 0.951 . S
C492 C490 1.388 . S
C492 C493 1.366 . S
C493 C492 1.366 . S
C493 C494 1.414 . S
C493 C496 1.499 . S
C494 H474 0.950 . S
C494 C493 1.414 . S
C494 C495 1.374 . S
C495 H475 0.950 . S
C495 C491 1.385 . S
C495 C494 1.374 . S
C496 C493 1.499 . S
C496 C497 1.373 . S
C496 C498 1.389 . S
C497 H476 0.950 . S
C497 C496 1.373 . S
C497 C513 1.362 1_545 S
C498 C496 1.389 . S
C498 C499 1.524 . S
C498 C512 1.377 . S
C499 C498 1.524 . S
C499 C500 1.397 . S
C499 C504 1.363 . S
C500 H477 0.950 . S
C500 C499 1.397 . S
C500 C501 1.334 . S
C501 H478 0.950 . S
C501 C500 1.334 . S
C501 C502 1.287 . S
C502 C501 1.287 . S
C502 C503 1.524 . S
C502 H521 0.913 . S
C503 H479 0.950 . S
C503 C502 1.524 . S
C503 C504 1.415 . S
C504 H480 0.950 . S
C504 C499 1.363 . S
C504 C503 1.415 . S
C505 H481 0.951 . S
C505 C506 1.366 . S
C505 C507 1.388 . S
C506 C505 1.366 . S
C506 C510 1.385 . S
C507 H482 0.951 . S
C507 C505 1.388 . S
C507 C508 1.366 . S
C508 C507 1.366 . S
C508 C509 1.414 1_565 S
C508 C511 1.499 1_565 S
C509 H483 0.950 . S
C509 C508 1.414 1_545 S
C509 C510 1.374 1_545 S
C510 H484 0.950 . S
C510 C506 1.385 . S
C510 C509 1.374 1_565 S
C511 C508 1.499 1_545 S
C511 C512 1.373 . S
C511 C513 1.375 1_545 S
C512 H485 0.950 . S
C512 C498 1.377 . S
C512 C511 1.373 . S
C513 C497 1.362 1_565 S
C513 C511 1.375 1_565 S
C513 C514 1.554 . S
C514 C513 1.554 . S
C514 C515 1.397 . S
C514 C519 1.363 . S
C515 H486 0.950 . S
C515 C514 1.397 . S
C515 C516 1.334 . S
C516 H487 0.950 . S
C516 C515 1.334 . S
C516 C517 1.287 . S
C517 C516 1.287 . S
C517 C518 1.524 . S
C517 H520 0.999 . S
C518 H488 0.950 . S
C518 C517 1.524 . S
C518 C519 1.415 . S
C519 H489 0.950 . S
C519 C514 1.363 . S
C519 C518 1.415 . S
H520 C517 0.999 . S
H521 C502 0.913 . S
H522 C540 0.951 . S
H523 C542 0.951 . S
H524 C544 0.950 . S
H525 C545 0.950 . S
H526 C547 0.950 . S
H527 C550 0.950 . S
H528 C551 0.950 . S
H529 C553 0.950 . S
H530 C554 0.950 . S
H531 C555 0.951 . S
H532 C557 0.951 . S
H533 C559 0.950 . S
H534 C560 0.950 . S
H535 C562 0.950 . S
H536 C565 0.950 . S
H537 C566 0.950 . S
H538 C568 0.950 1_565 S
H539 C569 0.950 . S
C540 H522 0.951 . S
C540 C541 1.366 . S
C540 C542 1.388 . S
C541 C540 1.366 . S
C541 C545 1.385 . S
C542 H523 0.951 . S
C542 C540 1.388 . S
C542 C543 1.366 . S
C543 C542 1.366 . S
C543 C544 1.414 . S
C543 C546 1.499 . S
C544 H524 0.950 . S
C544 C543 1.414 . S
C544 C545 1.374 . S
C545 H525 0.950 . S
C545 C541 1.385 . S
C545 C544 1.374 . S
C546 C543 1.499 . S
C546 C547 1.373 . S
C546 C548 1.389 . S
C547 H526 0.950 . S
C547 C546 1.373 . S
C547 C563 1.377 . S
C548 C546 1.389 . S
C548 C549 1.524 . S
C548 C562 1.377 . S
C549 C548 1.524 . S
C549 C550 1.397 . S
C549 C554 1.363 . S
C550 H527 0.950 . S
C550 C549 1.397 . S
C550 C551 1.334 . S
C551 H528 0.950 . S
C551 C550 1.334 . S
C551 C552 1.287 . S
C552 C551 1.287 . S
C552 C553 1.524 . S
C552 H571 0.913 . S
C553 H529 0.950 . S
C553 C552 1.524 . S
C553 C554 1.415 . S
C554 H530 0.950 . S
C554 C549 1.363 . S
C554 C553 1.415 . S
C555 H531 0.951 . S
C555 C556 1.366 . S
C555 C557 1.388 . S
C556 C555 1.366 . S
C556 C560 1.385 . S
C557 H532 0.951 . S
C557 C555 1.388 . S
C557 C558 1.366 . S
C558 C557 1.366 . S
C558 C559 1.414 . S
C558 C561 1.499 . S
C559 H533 0.950 . S
C559 C558 1.414 . S
C559 C560 1.374 . S
C560 H534 0.950 . S
C560 C556 1.385 . S
C560 C559 1.374 . S
C561 C558 1.499 . S
C561 C562 1.373 . S
C561 C563 1.389 . S
C562 H535 0.950 . S
C562 C548 1.377 . S
C562 C561 1.373 . S
C563 C547 1.377 . S
C563 C561 1.389 . S
C563 C564 1.524 . S
C564 C563 1.524 . S
C564 C565 1.397 . S
C564 C569 1.363 . S
C565 H536 0.950 . S
C565 C564 1.397 . S
C565 C566 1.334 . S
C566 H537 0.950 . S
C566 C565 1.334 . S
C566 C567 1.287 . S
C567 C566 1.287 . S
C567 C568 1.524 . S
C567 H570 0.999 1_545 S
C568 H538 0.950 1_545 S
C568 C567 1.524 . S
C568 C569 1.415 . S
C569 H539 0.950 . S
C569 C564 1.363 . S
C569 C568 1.415 . S
H570 C567 0.999 1_565 S
H571 C552 0.913 . S
H572 C590 0.951 . S
H573 C592 0.951 . S
H574 C594 0.950 . S
H575 C595 0.950 . S
H576 C597 0.950 . S
H577 C600 0.950 . S
H578 C601 0.950 . S
H579 C603 0.950 . S
H580 C604 0.950 . S
H581 C605 0.951 . S
H582 C607 0.951 . S
H583 C609 0.950 . S
H584 C610 0.950 . S
H585 C612 0.950 . S
H586 C615 0.948 1_565 S
H587 C616 0.950 . S
H588 C618 0.950 . S
H589 C619 0.950 . S
C590 H572 0.951 . S
C590 C591 1.366 1_556 S
C590 C592 1.388 . S
C591 C590 1.366 1_554 S
C591 C595 1.385 . S
C592 H573 0.951 . S
C592 C590 1.388 . S
C592 C593 1.366 . S
C593 C592 1.366 . S
C593 C594 1.414 . S
C593 C596 1.499 . S
C594 H574 0.950 . S
C594 C593 1.414 . S
C594 C595 1.374 1_556 S
C595 H575 0.950 . S
C595 C591 1.385 . S
C595 C594 1.374 1_554 S
C596 C593 1.499 . S
C596 C597 1.373 . S
C596 C598 1.389 . S
C597 H576 0.950 . S
C597 C596 1.373 . S
C597 C613 1.377 . S
C598 C596 1.389 . S
C598 C599 1.524 . S
C598 C612 1.377 . S
C599 C598 1.524 . S
C599 C600 1.397 . S
C599 C604 1.363 . S
C600 H577 0.950 . S
C600 C599 1.397 . S
C600 C601 1.334 . S
C601 H578 0.950 . S
C601 C600 1.334 . S
C601 C602 1.287 . S
C602 C601 1.287 . S
C602 C603 1.524 . S
C602 H621 0.913 . S
C603 H579 0.950 . S
C603 C602 1.524 . S
C603 C604 1.415 . S
C604 H580 0.950 . S
C604 C599 1.363 . S
C604 C603 1.415 . S
C605 H581 0.951 . S
C605 C606 1.366 . S
C605 C607 1.388 . S
C606 C605 1.366 . S
C606 C610 1.385 1_545 S
C607 H582 0.951 . S
C607 C605 1.388 . S
C607 C608 1.349 1_545 S
C608 C607 1.349 1_565 S
C608 C609 1.422 . S
C608 C611 1.507 . S
C609 H583 0.950 . S
C609 C608 1.422 . S
C609 C610 1.374 . S
C610 H584 0.950 . S
C610 C606 1.385 1_565 S
C610 C609 1.374 . S
C611 C608 1.507 . S
C611 C612 1.373 . S
C611 C613 1.389 . S
C612 H585 0.950 . S
C612 C598 1.377 . S
C612 C611 1.373 . S
C613 C597 1.377 . S
C613 C611 1.389 . S
C613 C614 1.524 1_565 S
C614 C613 1.524 1_545 S
C614 C615 1.397 . S
C614 C619 1.363 . S
C615 H586 0.948 1_545 S
C615 C614 1.397 . S
C615 C616 1.334 . S
C616 H587 0.950 . S
C616 C615 1.334 . S
C616 C617 1.287 . S
C617 C616 1.287 . S
C617 C618 1.524 . S
C617 H620 0.999 . S
C618 H588 0.950 . S
C618 C617 1.524 . S
C618 C619 1.415 . S
C619 H589 0.950 . S
C619 C614 1.363 . S
C619 C618 1.415 . S
H620 C617 0.999 . S
H621 C602 0.913 . S
H622 C640 0.951 . S
H623 C642 0.951 . S
H624 C644 0.950 . S
H625 C645 0.950 . S
H626 C647 0.950 . S
H627 C650 0.950 . S
H628 C651 0.950 . S
H629 C653 0.950 . S
H630 C654 0.950 . S
H631 C655 0.951 . S
H632 C657 0.951 . S
H633 C659 0.950 . S
H634 C660 0.950 . S
H635 C662 0.950 . S
H636 C665 0.950 . S
H637 C666 0.950 . S
H638 C668 0.950 . S
H639 C669 0.950 . S
C640 H622 0.951 . S
C640 C641 1.366 . S
C640 C642 1.388 . S
C641 C640 1.366 . S
C641 C645 1.385 . S
C642 H623 0.951 . S
C642 C640 1.388 . S
C642 C643 1.366 . S
C643 C642 1.366 . S
C643 C644 1.414 . S
C643 C646 1.499 . S
C644 H624 0.950 . S
C644 C643 1.414 . S
C644 C645 1.374 . S
C645 H625 0.950 . S
C645 C641 1.385 . S
C645 C644 1.374 . S
C646 C643 1.499 . S
C646 C647 1.373 . S
C646 C648 1.389 . S
C647 H626 0.950 . S
C647 C646 1.373 . S
C647 C663 1.377 . S
C648 C646 1.389 . S
C648 C649 1.524 . S
C648 C662 1.377 . S
C649 C648 1.524 . S
C649 C650 1.397 . S
C649 C654 1.363 . S
C650 H627 0.950 . S
C650 C649 1.397 . S
C650 C651 1.334 . S
C651 H628 0.950 . S
C651 C650 1.334 . S
C651 C652 1.287 . S
C652 C651 1.287 . S
C652 C653 1.524 . S
C652 H671 0.913 . S
C653 H629 0.950 . S
C653 C652 1.524 . S
C653 C654 1.415 . S
C654 H630 0.950 . S
C654 C649 1.363 . S
C654 C653 1.415 . S
C655 H631 0.951 . S
C655 C656 1.366 . S
C655 C657 1.388 . S
C656 C655 1.366 . S
C656 C660 1.385 . S
C657 H632 0.951 . S
C657 C655 1.388 . S
C657 C658 1.366 . S
C658 C657 1.366 . S
C658 C659 1.414 . S
C658 C661 1.499 . S
C659 H633 0.950 . S
C659 C658 1.414 . S
C659 C660 1.374 . S
C660 H634 0.950 . S
C660 C656 1.385 . S
C660 C659 1.374 . S
C661 C658 1.499 . S
C661 C662 1.373 . S
C661 C663 1.389 . S
C662 H635 0.950 . S
C662 C648 1.377 . S
C662 C661 1.373 . S
C663 C647 1.377 . S
C663 C661 1.389 . S
C663 C664 1.524 . S
C664 C663 1.524 . S
C664 C665 1.397 . S
C664 C669 1.363 . S
C665 H636 0.950 . S
C665 C664 1.397 . S
C665 C666 1.334 . S
C666 H637 0.950 . S
C666 C665 1.334 . S
C666 C667 1.287 . S
C667 C666 1.287 . S
C667 C668 1.524 . S
C667 H670 0.999 1_565 S
C668 H638 0.950 . S
C668 C667 1.524 . S
C668 C669 1.415 . S
C669 H639 0.950 . S
C669 C664 1.363 . S
C669 C668 1.415 . S
H670 C667 0.999 1_545 S
H671 C652 0.913 . S
H672 C690 0.951 1_565 S
H673 C692 0.951 . S
H674 C694 0.950 . S
H675 C695 0.950 1_565 S
H676 C697 0.950 . S
H677 C700 0.950 . S
H678 C701 0.950 . S
H679 C703 0.950 . S
H680 C704 0.950 . S
H681 C705 0.951 . S
H682 C707 0.951 . S
H683 C709 0.950 . S
H684 C710 0.950 . S
H685 C712 0.950 . S
H686 C715 0.950 . S
H687 C716 0.950 . S
H688 C718 0.950 . S
H689 C719 0.950 . S
C690 H672 0.951 1_545 S
C690 C691 1.366 1_545 S
C690 C692 1.388 . S
C691 C690 1.366 1_565 S
C691 C695 1.385 1_565 S
C692 H673 0.951 . S
C692 C690 1.388 . S
C692 C693 1.366 . S
C693 C692 1.366 . S
C693 C694 1.414 . S
C693 C696 1.499 . S
C694 H674 0.950 . S
C694 C693 1.414 . S
C694 C695 1.374 . S
C695 H675 0.950 1_545 S
C695 C691 1.385 1_545 S
C695 C694 1.374 . S
C696 C693 1.499 . S
C696 C697 1.373 . S
C696 C698 1.389 . S
C697 H676 0.950 . S
C697 C696 1.373 . S
C697 C713 1.377 . S
C698 C696 1.389 . S
C698 C699 1.524 . S
C698 C712 1.377 . S
C699 C698 1.524 . S
C699 C700 1.397 . S
C699 C704 1.363 . S
C700 H677 0.950 . S
C700 C699 1.397 . S
C700 C701 1.334 1_545 S
C701 H678 0.950 . S
C701 C700 1.334 1_565 S
C701 C702 1.287 . S
C702 C701 1.287 . S
C702 C703 1.524 1_565 S
C702 H721 0.913 . S
C703 H679 0.950 . S
C703 C702 1.524 1_545 S
C703 C704 1.415 . S
C704 H680 0.950 . S
C704 C699 1.363 . S
C704 C703 1.415 . S
C705 H681 0.951 . S
C705 C706 1.366 . S
C705 C707 1.388 . S
C706 C705 1.366 . S
C706 C710 1.385 . S
C707 H682 0.951 . S
C707 C705 1.388 . S
C707 C708 1.366 . S
C708 C707 1.366 . S
C708 C709 1.414 . S
C708 C711 1.499 . S
C709 H683 0.950 . S
C709 C708 1.414 . S
C709 C710 1.374 . S
C710 H684 0.950 . S
C710 C706 1.385 . S
C710 C709 1.374 . S
C711 C708 1.499 . S
C711 C712 1.373 . S
C711 C713 1.389 . S
C712 H685 0.950 . S
C712 C698 1.377 . S
C712 C711 1.373 . S
C713 C697 1.377 . S
C713 C711 1.389 . S
C713 C714 1.524 . S
C714 C713 1.524 . S
C714 C715 1.397 . S
C714 C719 1.363 . S
C715 H686 0.950 . S
C715 C714 1.397 . S
C715 C716 1.334 . S
C716 H687 0.950 . S
C716 C715 1.334 . S
C716 C717 1.287 . S
C717 C716 1.287 . S
C717 C718 1.524 . S
C717 H720 0.999 . S
C718 H688 0.950 . S
C718 C717 1.524 . S
C718 C719 1.415 . S
C719 H689 0.950 . S
C719 C714 1.363 . S
C719 C718 1.415 . S
H720 C717 0.999 . S
H721 C702 0.913 . S
H722 C740 0.951 . S
H723 C742 0.951 . S
H724 C744 0.950 . S
H725 C745 0.950 . S
H726 C747 0.950 . S
H727 C750 0.950 . S
H728 C751 0.950 . S
H729 C753 0.950 . S
H730 C754 0.950 . S
H731 C755 0.951 . S
H732 C757 0.951 . S
H733 C759 0.950 . S
H734 C760 0.950 . S
H735 C762 0.950 . S
H736 C765 0.950 . S
H737 C766 0.950 . S
H738 C768 0.950 . S
H739 C769 0.950 . S
C740 H722 0.951 . S
C740 C741 1.366 . S
C740 C742 1.388 . S
C741 C740 1.366 . S
C741 C745 1.385 . S
C742 H723 0.951 . S
C742 C740 1.388 . S
C742 C743 1.366 . S
C743 C742 1.366 . S
C743 C744 1.414 . S
C743 C746 1.499 . S
C744 H724 0.950 . S
C744 C743 1.414 . S
C744 C745 1.374 . S
C745 H725 0.950 . S
C745 C741 1.385 . S
C745 C744 1.374 . S
C746 C743 1.499 . S
C746 C747 1.373 . S
C746 C748 1.389 . S
C747 H726 0.950 . S
C747 C746 1.373 . S
C747 C763 1.377 . S
C748 C746 1.389 . S
C748 C749 1.524 . S
C748 C762 1.377 . S
C749 C748 1.524 . S
C749 C750 1.397 . S
C749 C754 1.363 . S
C750 H727 0.950 . S
C750 C749 1.397 . S
C750 C751 1.334 . S
C751 H728 0.950 . S
C751 C750 1.334 . S
C751 C752 1.287 . S
C752 C751 1.287 . S
C752 C753 1.524 . S
C752 H771 0.913 . S
C753 H729 0.950 . S
C753 C752 1.524 . S
C753 C754 1.415 . S
C754 H730 0.950 . S
C754 C749 1.363 . S
C754 C753 1.415 . S
C755 H731 0.951 . S
C755 C756 1.366 . S
C755 C757 1.388 . S
C756 C755 1.366 . S
C756 C760 1.385 . S
C757 H732 0.951 . S
C757 C755 1.388 . S
C757 C758 1.366 . S
C758 C757 1.366 . S
C758 C759 1.414 . S
C758 C761 1.499 . S
C759 H733 0.950 . S
C759 C758 1.414 . S
C759 C760 1.374 . S
C760 H734 0.950 . S
C760 C756 1.385 . S
C760 C759 1.374 . S
C761 C758 1.499 . S
C761 C762 1.373 . S
C761 C763 1.389 . S
C762 H735 0.950 . S
C762 C748 1.377 . S
C762 C761 1.373 . S
C763 C747 1.377 . S
C763 C761 1.389 . S
C763 C764 1.524 . S
C764 C763 1.524 . S
C764 C765 1.397 . S
C764 C769 1.363 . S
C765 H736 0.950 . S
C765 C764 1.397 . S
C765 C766 1.334 . S
C766 H737 0.950 . S
C766 C765 1.334 . S
C766 C767 1.287 . S
C767 C766 1.287 . S
C767 C768 1.524 . S
C767 H770 0.999 . S
C768 H738 0.950 . S
C768 C767 1.524 . S
C768 C769 1.415 . S
C769 H739 0.950 . S
C769 C764 1.363 . S
C769 C768 1.415 . S
H770 C767 0.999 . S
H771 C752 0.913 . S
H772 C790 0.951 . S
H773 C792 0.951 . S
H774 C794 0.950 . S
H775 C795 0.950 . S
H776 C797 0.950 . S
H777 C800 0.950 . S
H778 C801 0.950 . S
H779 C803 0.950 . S
H780 C804 0.950 . S
H781 C805 0.951 . S
H782 C807 0.951 . S
H783 C809 0.950 . S
H784 C810 0.950 . S
H785 C812 0.950 . S
H786 C815 0.950 . S
H787 C816 0.950 . S
H788 C818 0.950 . S
H789 C819 0.950 . S
C790 H772 0.951 . S
C790 C791 1.366 1_565 S
C790 C792 1.388 . S
C791 C790 1.366 1_545 S
C791 C795 1.385 . S
C792 H773 0.951 . S
C792 C790 1.388 . S
C792 C793 1.366 . S
C793 C792 1.366 . S
C793 C794 1.414 . S
C793 C796 1.499 . S
C794 H774 0.950 . S
C794 C793 1.414 . S
C794 C795 1.374 1_565 S
C795 H775 0.950 . S
C795 C791 1.385 . S
C795 C794 1.374 1_545 S
C796 C793 1.499 . S
C796 C797 1.373 . S
C796 C798 1.389 . S
C797 H776 0.950 . S
C797 C796 1.373 . S
C797 C813 1.377 . S
C798 C796 1.389 . S
C798 C799 1.524 . S
C798 C812 1.377 . S
C799 C798 1.524 . S
C799 C800 1.397 . S
C799 C804 1.363 . S
C800 H777 0.950 . S
C800 C799 1.397 . S
C800 C801 1.334 . S
C801 H778 0.950 . S
C801 C800 1.334 . S
C801 C802 1.287 . S
C802 C801 1.287 . S
C802 C803 1.524 . S
C802 H821 0.913 . S
C803 H779 0.950 . S
C803 C802 1.524 . S
C803 C804 1.415 . S
C804 H780 0.950 . S
C804 C799 1.363 . S
C804 C803 1.415 . S
C805 H781 0.951 . S
C805 C806 1.366 . S
C805 C807 1.388 . S
C806 C805 1.366 . S
C806 C810 1.385 . S
C807 H782 0.951 . S
C807 C805 1.388 . S
C807 C808 1.366 . S
C808 C807 1.366 . S
C808 C809 1.414 . S
C808 C811 1.499 . S
C809 H783 0.950 . S
C809 C808 1.414 . S
C809 C810 1.374 . S
C810 H784 0.950 . S
C810 C806 1.385 . S
C810 C809 1.374 . S
C811 C808 1.499 . S
C811 C812 1.373 . S
C811 C813 1.389 . S
C812 H785 0.950 . S
C812 C798 1.377 . S
C812 C811 1.373 . S
C813 C797 1.377 . S
C813 C811 1.389 . S
C813 C814 1.524 . S
C814 C813 1.524 . S
C814 C815 1.397 . S
C814 C819 1.363 . S
C815 H786 0.950 . S
C815 C814 1.397 . S
C815 C816 1.334 . S
C816 H787 0.950 . S
C816 C815 1.334 . S
C816 C817 1.287 . S
C817 C816 1.287 . S
C817 C818 1.524 . S
C817 H820 0.999 . S
C818 H788 0.950 . S
C818 C817 1.524 . S
C818 C819 1.415 . S
C819 H789 0.950 . S
C819 C814 1.363 . S
C819 C818 1.415 . S
H820 C817 0.999 . S
H821 C802 0.913 . S
H822 C840 0.951 . S
H823 C842 0.951 . S
H824 C844 0.950 . S
H825 C845 0.950 . S
H826 C847 0.950 . S
H827 C850 0.950 . S
H828 C851 0.950 . S
H829 C853 0.950 . S
H830 C854 0.950 . S
H831 C855 0.951 . S
H832 C857 0.951 . S
H833 C859 0.950 . S
H834 C860 0.950 . S
H835 C862 0.950 . S
H836 C865 0.950 . S
H837 C866 0.950 . S
H838 C868 0.950 . S
H839 C869 0.950 . S
C840 H822 0.951 . S
C840 C841 1.366 . S
C840 C842 1.388 . S
C841 C840 1.366 . S
C841 C845 1.385 . S
C842 H823 0.951 . S
C842 C840 1.388 . S
C842 C843 1.366 . S
C843 C842 1.366 . S
C843 C844 1.414 . S
C843 C846 1.499 . S
C844 H824 0.950 . S
C844 C843 1.414 . S
C844 C845 1.374 . S
C845 H825 0.950 . S
C845 C841 1.385 . S
C845 C844 1.374 . S
C846 C843 1.499 . S
C846 C847 1.373 . S
C846 C848 1.389 . S
C847 H826 0.950 . S
C847 C846 1.373 . S
C847 C863 1.377 . S
C848 C846 1.389 . S
C848 C849 1.524 . S
C848 C862 1.377 . S
C849 C848 1.524 . S
C849 C850 1.397 . S
C849 C854 1.363 . S
C850 H827 0.950 . S
C850 C849 1.397 . S
C850 C851 1.334 . S
C851 H828 0.950 . S
C851 C850 1.334 . S
C851 C852 1.287 . S
C852 C851 1.287 . S
C852 C853 1.524 . S
C852 H871 0.913 . S
C853 H829 0.950 . S
C853 C852 1.524 . S
C853 C854 1.415 . S
C854 H830 0.950 . S
C854 C849 1.363 . S
C854 C853 1.415 . S
C855 H831 0.951 . S
C855 C856 1.366 . S
C855 C857 1.388 . S
C856 C855 1.366 . S
C856 C860 1.385 . S
C857 H832 0.951 . S
C857 C855 1.388 . S
C857 C858 1.366 . S
C858 C857 1.366 . S
C858 C859 1.414 . S
C858 C861 1.499 . S
C859 H833 0.950 . S
C859 C858 1.414 . S
C859 C860 1.374 . S
C860 H834 0.950 . S
C860 C856 1.385 . S
C860 C859 1.374 . S
C861 C858 1.499 . S
C861 C862 1.373 . S
C861 C863 1.389 . S
C862 H835 0.950 . S
C862 C848 1.377 . S
C862 C861 1.373 . S
C863 C847 1.377 . S
C863 C861 1.389 . S
C863 C864 1.524 . S
C864 C863 1.524 . S
C864 C865 1.397 . S
C864 C869 1.363 . S
C865 H836 0.950 . S
C865 C864 1.397 . S
C865 C866 1.334 . S
C866 H837 0.950 . S
C866 C865 1.334 . S
C866 C867 1.287 . S
C867 C866 1.287 . S
C867 C868 1.524 . S
C867 H870 0.999 . S
C868 H838 0.950 . S
C868 C867 1.524 . S
C868 C869 1.415 . S
C869 H839 0.950 . S
C869 C864 1.363 . S
C869 C868 1.415 . S
H870 C867 0.999 . S
H871 C852 0.913 . S
H872 C890 0.951 . S
H873 C892 0.951 . S
H874 C894 0.950 . S
H875 C895 0.950 . S
H876 C897 0.950 . S
H877 C900 0.950 . S
H878 C901 0.950 . S
H879 C903 0.950 . S
H880 C904 0.950 . S
H881 C905 0.951 . S
H882 C907 0.951 . S
H883 C909 0.950 . S
H884 C910 0.950 . S
H885 C912 0.950 . S
H886 C915 0.950 . S
H887 C916 0.950 . S
H888 C918 0.950 . S
H889 C919 0.950 . S
C890 H872 0.951 . S
C890 C891 1.366 . S
C890 C892 1.388 . S
C891 C890 1.366 . S
C891 C895 1.385 . S
C892 H873 0.951 . S
C892 C890 1.388 . S
C892 C893 1.366 . S
C893 C892 1.366 . S
C893 C894 1.414 . S
C893 C896 1.499 . S
C894 H874 0.950 . S
C894 C893 1.414 . S
C894 C895 1.374 . S
C895 H875 0.950 . S
C895 C891 1.385 . S
C895 C894 1.374 . S
C896 C893 1.499 . S
C896 C897 1.373 . S
C896 C898 1.389 . S
C897 H876 0.950 . S
C897 C896 1.373 . S
C897 C913 1.377 . S
C898 C896 1.389 . S
C898 C899 1.524 . S
C898 C912 1.377 . S
C899 C898 1.524 . S
C899 C900 1.397 . S
C899 C904 1.363 . S
C900 H877 0.950 . S
C900 C899 1.397 . S
C900 C901 1.334 . S
C901 H878 0.950 . S
C901 C900 1.334 . S
C901 C902 1.287 . S
C902 C901 1.287 . S
C902 C903 1.524 . S
C902 H921 0.913 . S
C903 H879 0.950 . S
C903 C902 1.524 . S
C903 C904 1.415 . S
C904 H880 0.950 . S
C904 C899 1.363 . S
C904 C903 1.415 . S
C905 H881 0.951 . S
C905 C906 1.366 . S
C905 C907 1.388 . S
C906 C905 1.366 . S
C906 C910 1.385 . S
C907 H882 0.951 . S
C907 C905 1.388 . S
C907 C908 1.366 . S
C908 C907 1.366 . S
C908 C909 1.414 . S
C908 C911 1.499 . S
C909 H883 0.950 . S
C909 C908 1.414 . S
C909 C910 1.374 . S
C910 H884 0.950 . S
C910 C906 1.385 . S
C910 C909 1.374 . S
C911 C908 1.499 . S
C911 C912 1.373 . S
C911 C913 1.389 . S
C912 H885 0.950 . S
C912 C898 1.377 . S
C912 C911 1.373 . S
C913 C897 1.377 . S
C913 C911 1.389 . S
C913 C914 1.524 . S
C914 C913 1.524 . S
C914 C915 1.397 . S
C914 C919 1.363 . S
C915 H886 0.950 . S
C915 C914 1.397 . S
C915 C916 1.334 . S
C916 H887 0.950 . S
C916 C915 1.334 . S
C916 C917 1.287 . S
C917 C916 1.287 . S
C917 C918 1.524 . S
C917 H920 0.999 . S
C918 H888 0.950 . S
C918 C917 1.524 . S
C918 C919 1.415 . S
C919 H889 0.950 . S
C919 C914 1.363 . S
C919 C918 1.415 . S
H920 C917 0.999 . S
H921 C902 0.913 . S
H922 C940 0.951 . S
H923 C942 0.951 . S
H924 C944 0.950 . S
H925 C945 0.950 . S
H926 C947 0.950 . S
H927 C950 0.950 . S
H928 C951 0.950 . S
H929 C953 0.950 . S
H930 C954 0.950 . S
H931 C955 0.951 . S
H932 C957 0.951 . S
H933 C959 0.950 . S
H934 C960 0.950 . S
H935 C962 0.950 . S
H936 C965 0.950 . S
H937 C966 0.950 . S
H938 C968 0.950 . S
H939 C969 0.950 . S
C940 H922 0.951 . S
C940 C941 1.366 . S
C940 C942 1.388 . S
C941 C940 1.366 . S
C941 C945 1.385 . S
C942 H923 0.951 . S
C942 C940 1.388 . S
C942 C943 1.366 . S
C943 C942 1.366 . S
C943 C944 1.414 . S
C943 C946 1.499 . S
C944 H924 0.950 . S
C944 C943 1.414 . S
C944 C945 1.374 . S
C945 H925 0.950 . S
C945 C941 1.385 . S
C945 C944 1.374 . S
C946 C943 1.499 . S
C946 C947 1.373 . S
C946 C948 1.389 . S
C947 H926 0.950 . S
C947 C946 1.373 . S
C947 C963 1.377 . S
C948 C946 1.389 . S
C948 C949 1.524 . S
C948 C962 1.377 . S
C949 C948 1.524 . S
C949 C950 1.397 . S
C949 C954 1.363 . S
C950 H927 0.950 . S
C950 C949 1.397 . S
C950 C951 1.334 . S
C951 H928 0.950 . S
C951 C950 1.334 . S
C951 C952 1.287 . S
C952 C951 1.287 . S
C952 C953 1.524 . S
C952 H971 0.913 . S
C953 H929 0.950 . S
C953 C952 1.524 . S
C953 C954 1.415 . S
C954 H930 0.950 . S
C954 C949 1.363 . S
C954 C953 1.415 . S
C955 H931 0.951 . S
C955 C956 1.366 . S
C955 C957 1.388 1_655 S
C956 C955 1.366 . S
C956 C960 1.385 1_655 S
C957 H932 0.951 . S
C957 C955 1.388 1_455 S
C957 C958 1.366 . S
C958 C957 1.366 . S
C958 C959 1.414 . S
C958 C961 1.499 . S
C959 H933 0.950 . S
C959 C958 1.414 . S
C959 C960 1.374 . S
C960 H934 0.950 . S
C960 C956 1.385 1_455 S
C960 C959 1.374 . S
C961 C958 1.499 . S
C961 C962 1.373 . S
C961 C963 1.389 . S
C962 H935 0.950 . S
C962 C948 1.377 . S
C962 C961 1.373 . S
C963 C947 1.377 . S
C963 C961 1.389 . S
C963 C964 1.524 . S
C964 C963 1.524 . S
C964 C965 1.397 . S
C964 C969 1.363 . S
C965 H936 0.950 . S
C965 C964 1.397 . S
C965 C966 1.334 . S
C966 H937 0.950 . S
C966 C965 1.334 . S
C966 C967 1.287 . S
C967 C966 1.287 . S
C967 C968 1.524 . S
C967 H970 0.999 . S
C968 H938 0.950 . S
C968 C967 1.524 . S
C968 C969 1.415 . S
C969 H939 0.950 . S
C969 C964 1.363 . S
C969 C968 1.415 . S
H970 C967 0.999 . S
H971 C952 0.913 . S
H972 C990 0.951 . S
H973 C992 0.951 . S
H974 C994 0.950 . S
H975 C995 0.950 . S
H976 C997 0.950 . S
H977 C1000 0.950 . S
H978 C1001 0.950 . S
H979 C1003 0.950 . S
H980 C1004 0.950 . S
H981 C1005 0.951 . S
H982 C1007 0.951 . S
H983 C1009 0.950 . S
H984 C1010 0.950 . S
H985 C1012 0.950 . S
H986 C1015 0.950 . S
H987 C1016 0.950 . S
H988 C1018 0.950 . S
H989 C1019 0.950 . S
C990 H972 0.951 . S
C990 C991 1.366 . S
C990 C992 1.388 . S
C991 C990 1.366 . S
C991 C995 1.385 . S
C992 H973 0.951 . S
C992 C990 1.388 . S
C992 C993 1.366 . S
C993 C992 1.366 . S
C993 C994 1.414 . S
C993 C996 1.499 . S
C994 H974 0.950 . S
C994 C993 1.414 . S
C994 C995 1.374 . S
C995 H975 0.950 . S
C995 C991 1.385 . S
C995 C994 1.374 . S
C996 C993 1.499 . S
C996 C997 1.373 . S
C996 C998 1.389 . S
C997 H976 0.950 . S
C997 C996 1.373 . S
C997 C1013 1.377 . S
C998 C996 1.389 . S
C998 C999 1.524 . S
C998 C1012 1.377 . S
C999 C998 1.524 . S
C999 C1000 1.397 . S
C999 C1004 1.363 . S
C1000 H977 0.950 . S
C1000 C999 1.397 . S
C1000 C1001 1.334 . S
C1001 H978 0.950 . S
C1001 C1000 1.334 . S
C1001 C1002 1.287 . S
C1002 C1001 1.287 . S
C1002 C1003 1.524 . S
C1002 H1021 0.913 . S
C1003 H979 0.950 . S
C1003 C1002 1.524 . S
C1003 C1004 1.415 . S
C1004 H980 0.950 . S
C1004 C999 1.363 . S
C1004 C1003 1.415 . S
C1005 H981 0.951 . S
C1005 C1006 1.366 . S
C1005 C1007 1.388 . S
C1006 C1005 1.366 . S
C1006 C1010 1.385 . S
C1007 H982 0.951 . S
C1007 C1005 1.388 . S
C1007 C1008 1.366 . S
C1008 C1007 1.366 . S
C1008 C1009 1.414 . S
C1008 C1011 1.499 . S
C1009 H983 0.950 . S
C1009 C1008 1.414 . S
C1009 C1010 1.374 . S
C1010 H984 0.950 . S
C1010 C1006 1.385 . S
C1010 C1009 1.374 . S
C1011 C1008 1.499 . S
C1011 C1012 1.373 . S
C1011 C1013 1.389 . S
C1012 H985 0.950 . S
C1012 C998 1.377 . S
C1012 C1011 1.373 . S
C1013 C997 1.377 . S
C1013 C1011 1.389 . S
C1013 C1014 1.524 . S
C1014 C1013 1.524 . S
C1014 C1015 1.397 . S
C1014 C1019 1.363 . S
C1015 H986 0.950 . S
C1015 C1014 1.397 . S
C1015 C1016 1.334 . S
C1016 H987 0.950 . S
C1016 C1015 1.334 . S
C1016 C1017 1.287 . S
C1017 C1016 1.287 . S
C1017 C1018 1.524 . S
C1017 H1020 0.999 . S
C1018 H988 0.950 . S
C1018 C1017 1.524 . S
C1018 C1019 1.415 . S
C1019 H989 0.950 . S
C1019 C1014 1.363 . S
C1019 C1018 1.415 . S
H1020 C1017 0.999 . S
H1021 C1002 0.913 . S
H1022 C1040 0.951 . S
H1023 C1042 0.951 . S
H1024 C1044 0.950 . S
H1025 C1045 0.950 . S
H1026 C1047 0.950 . S
H1027 C1050 0.950 . S
H1028 C1051 0.950 . S
H1029 C1053 0.950 . S
H1030 C1054 0.950 . S
H1031 C1055 0.951 . S
H1032 C1057 0.951 . S
H1033 C1059 0.950 . S
H1034 C1060 0.950 . S
H1035 C1062 0.950 . S
H1036 C1065 0.950 . S
H1037 C1066 0.950 . S
H1038 C1068 0.950 . S
H1039 C1069 0.950 . S
C1040 H1022 0.951 . S
C1040 C1041 1.366 . S
C1040 C1042 1.388 . S
C1041 C1040 1.366 . S
C1041 C1045 1.385 . S
C1042 H1023 0.951 . S
C1042 C1040 1.388 . S
C1042 C1043 1.366 . S
C1043 C1042 1.366 . S
C1043 C1044 1.414 . S
C1043 C1046 1.499 . S
C1044 H1024 0.950 . S
C1044 C1043 1.414 . S
C1044 C1045 1.374 . S
C1045 H1025 0.950 . S
C1045 C1041 1.385 . S
C1045 C1044 1.374 . S
C1046 C1043 1.499 . S
C1046 C1047 1.373 . S
C1046 C1048 1.389 . S
C1047 H1026 0.950 . S
C1047 C1046 1.373 . S
C1047 C1063 1.377 . S
C1048 C1046 1.389 . S
C1048 C1049 1.524 . S
C1048 C1062 1.377 . S
C1049 C1048 1.524 . S
C1049 C1050 1.397 . S
C1049 C1054 1.363 . S
C1050 H1027 0.950 . S
C1050 C1049 1.397 . S
C1050 C1051 1.334 . S
C1051 H1028 0.950 . S
C1051 C1050 1.334 . S
C1051 C1052 1.287 . S
C1052 C1051 1.287 . S
C1052 C1053 1.524 . S
C1052 H1071 0.913 . S
C1053 H1029 0.950 . S
C1053 C1052 1.524 . S
C1053 C1054 1.415 . S
C1054 H1030 0.950 . S
C1054 C1049 1.363 . S
C1054 C1053 1.415 . S
C1055 H1031 0.951 . S
C1055 C1056 1.366 1_655 S
C1055 C1057 1.388 . S
C1056 C1055 1.366 1_455 S
C1056 C1060 1.385 . S
C1057 H1032 0.951 . S
C1057 C1055 1.388 . S
C1057 C1058 1.366 . S
C1058 C1057 1.366 . S
C1058 C1059 1.414 . S
C1058 C1061 1.499 . S
C1059 H1033 0.950 . S
C1059 C1058 1.414 . S
C1059 C1060 1.374 1_655 S
C1060 H1034 0.950 . S
C1060 C1056 1.385 . S
C1060 C1059 1.374 1_455 S
C1061 C1058 1.499 . S
C1061 C1062 1.373 . S
C1061 C1063 1.389 . S
C1062 H1035 0.950 . S
C1062 C1048 1.377 . S
C1062 C1061 1.373 . S
C1063 C1047 1.377 . S
C1063 C1061 1.389 . S
C1063 C1064 1.524 . S
C1064 C1063 1.524 . S
C1064 C1065 1.397 . S
C1064 C1069 1.363 . S
C1065 H1036 0.950 . S
C1065 C1064 1.397 . S
C1065 C1066 1.334 . S
C1066 H1037 0.950 . S
C1066 C1065 1.334 . S
C1066 C1067 1.287 . S
C1067 C1066 1.287 . S
C1067 C1068 1.524 . S
C1067 H1070 0.999 . S
C1068 H1038 0.950 . S
C1068 C1067 1.524 . S
C1068 C1069 1.415 . S
C1069 H1039 0.950 . S
C1069 C1064 1.363 . S
C1069 C1068 1.415 . S
H1070 C1067 0.999 . S
H1071 C1052 0.913 . S
H1072 C1090 0.951 . S
H1073 C1092 0.951 . S
H1074 C1094 0.950 . S
H1075 C1095 0.950 1_565 S
H1076 C1097 0.950 . S
H1077 C1100 0.950 . S
H1078 C1101 0.950 . S
H1079 C1103 0.950 . S
H1080 C1104 0.950 . S
H1081 C1105 0.951 1_455 S
H1082 C1107 0.951 . S
H1083 C1109 0.950 . S
H1084 C1110 0.950 . S
H1085 C1112 0.950 . S
H1086 C1115 0.950 . S
H1087 C1116 0.950 . S
H1088 C1118 0.950 . S
H1089 C1119 0.950 . S
C1090 H1072 0.951 . S
C1090 C1091 1.366 . S
C1090 C1092 1.388 . S
C1091 C1090 1.366 . S
C1091 C1095 1.385 . S
C1092 H1073 0.951 . S
C1092 C1090 1.388 . S
C1092 C1093 1.366 . S
C1093 C1092 1.366 . S
C1093 C1094 1.414 . S
C1093 C1096 1.499 . S
C1094 H1074 0.950 . S
C1094 C1093 1.414 . S
C1094 C1095 1.374 . S
C1095 H1075 0.950 1_545 S
C1095 C1091 1.385 . S
C1095 C1094 1.374 . S
C1096 C1093 1.499 . S
C1096 C1097 1.373 . S
C1096 C1098 1.389 . S
C1097 H1076 0.950 . S
C1097 C1096 1.373 . S
C1097 C1113 1.377 . S
C1098 C1096 1.389 . S
C1098 C1099 1.524 . S
C1098 C1112 1.377 . S
C1099 C1098 1.524 . S
C1099 C1100 1.397 . S
C1099 C1104 1.363 . S
C1100 H1077 0.950 . S
C1100 C1099 1.397 . S
C1100 C1101 1.334 . S
C1101 H1078 0.950 . S
C1101 C1100 1.334 . S
C1101 C1102 1.287 . S
C1102 C1101 1.287 . S
C1102 C1103 1.524 . S
C1102 H1121 0.913 . S
C1103 H1079 0.950 . S
C1103 C1102 1.524 . S
C1103 C1104 1.415 . S
C1104 H1080 0.950 . S
C1104 C1099 1.363 . S
C1104 C1103 1.415 . S
C1105 H1081 0.951 1_655 S
C1105 C1106 1.366 . S
C1105 C1107 1.388 . S
C1106 C1105 1.366 . S
C1106 C1110 1.385 . S
C1107 H1082 0.951 . S
C1107 C1105 1.388 . S
C1107 C1108 1.366 . S
C1108 C1107 1.366 . S
C1108 C1109 1.414 . S
C1108 C1111 1.499 . S
C1109 H1083 0.950 . S
C1109 C1108 1.414 . S
C1109 C1110 1.374 . S
C1110 H1084 0.950 . S
C1110 C1106 1.385 . S
C1110 C1109 1.374 . S
C1111 C1108 1.499 . S
C1111 C1112 1.373 . S
C1111 C1113 1.389 . S
C1112 H1085 0.950 . S
C1112 C1098 1.377 . S
C1112 C1111 1.373 . S
C1113 C1097 1.377 . S
C1113 C1111 1.389 . S
C1113 C1114 1.524 . S
C1114 C1113 1.524 . S
C1114 C1115 1.397 . S
C1114 C1119 1.363 . S
C1115 H1086 0.950 . S
C1115 C1114 1.397 . S
C1115 C1116 1.334 . S
C1116 H1087 0.950 . S
C1116 C1115 1.334 . S
C1116 C1117 1.287 . S
C1117 C1116 1.287 . S
C1117 C1118 1.524 . S
C1117 H1120 0.999 . S
C1118 H1088 0.950 . S
C1118 C1117 1.524 . S
C1118 C1119 1.415 . S
C1119 H1089 0.950 . S
C1119 C1114 1.363 . S
C1119 C1118 1.415 . S
H1120 C1117 0.999 . S
H1121 C1102 0.913 . S
H1122 C1140 0.951 . S
H1123 C1142 0.951 . S
H1124 C1144 0.950 . S
H1125 C1145 0.950 . S
H1126 C1147 0.950 . S
H1127 C1150 0.950 . S
H1128 C1151 0.950 . S
H1129 C1153 0.950 . S
H1130 C1154 0.950 . S
H1131 C1155 0.951 . S
H1132 C1157 0.951 . S
H1133 C1159 0.950 . S
H1134 C1160 0.950 . S
H1135 C1162 0.950 . S
H1136 C1165 0.950 . S
H1137 C1166 0.950 . S
H1138 C1168 0.950 . S
H1139 C1169 0.950 . S
C1140 H1122 0.951 . S
C1140 C1141 1.366 . S
C1140 C1142 1.388 . S
C1141 C1140 1.366 . S
C1141 C1145 1.385 . S
C1142 H1123 0.951 . S
C1142 C1140 1.388 . S
C1142 C1143 1.366 . S
C1143 C1142 1.366 . S
C1143 C1144 1.414 . S
C1143 C1146 1.499 . S
C1144 H1124 0.950 . S
C1144 C1143 1.414 . S
C1144 C1145 1.374 . S
C1145 H1125 0.950 . S
C1145 C1141 1.385 . S
C1145 C1144 1.374 . S
C1146 C1143 1.499 . S
C1146 C1147 1.373 . S
C1146 C1148 1.389 . S
C1147 H1126 0.950 . S
C1147 C1146 1.373 . S
C1147 C1163 1.377 . S
C1148 C1146 1.389 . S
C1148 C1149 1.524 . S
C1148 C1162 1.377 . S
C1149 C1148 1.524 . S
C1149 C1150 1.397 . S
C1149 C1154 1.363 . S
C1150 H1127 0.950 . S
C1150 C1149 1.397 . S
C1150 C1151 1.334 . S
C1151 H1128 0.950 . S
C1151 C1150 1.334 . S
C1151 C1152 1.287 . S
C1152 C1151 1.287 . S
C1152 C1153 1.524 . S
C1152 H1171 0.913 . S
C1153 H1129 0.950 . S
C1153 C1152 1.524 . S
C1153 C1154 1.415 . S
C1154 H1130 0.950 . S
C1154 C1149 1.363 . S
C1154 C1153 1.415 . S
C1155 H1131 0.951 . S
C1155 C1156 1.366 . S
C1155 C1157 1.388 . S
C1156 C1155 1.366 . S
C1156 C1160 1.385 . S
C1157 H1132 0.951 . S
C1157 C1155 1.388 . S
C1157 C1158 1.366 . S
C1158 C1157 1.366 . S
C1158 C1159 1.414 . S
C1158 C1161 1.499 . S
C1159 H1133 0.950 . S
C1159 C1158 1.414 . S
C1159 C1160 1.374 . S
C1160 H1134 0.950 . S
C1160 C1156 1.385 . S
C1160 C1159 1.374 . S
C1161 C1158 1.499 . S
C1161 C1162 1.373 . S
C1161 C1163 1.389 . S
C1162 H1135 0.950 . S
C1162 C1148 1.377 . S
C1162 C1161 1.373 . S
C1163 C1147 1.377 . S
C1163 C1161 1.389 . S
C1163 C1164 1.524 . S
C1164 C1163 1.524 . S
C1164 C1165 1.397 . S
C1164 C1169 1.363 . S
C1165 H1136 0.950 . S
C1165 C1164 1.397 . S
C1165 C1166 1.334 . S
C1166 H1137 0.950 . S
C1166 C1165 1.334 . S
C1166 C1167 1.287 . S
C1167 C1166 1.287 . S
C1167 C1168 1.524 . S
C1167 H1170 0.999 . S
C1168 H1138 0.950 . S
C1168 C1167 1.524 . S
C1168 C1169 1.415 . S
C1169 H1139 0.950 . S
C1169 C1164 1.363 . S
C1169 C1168 1.415 . S
H1170 C1167 0.999 . S
H1171 C1152 0.913 . S
H1172 C1190 0.951 . S
H1173 C1192 0.951 . S
H1174 C1194 0.950 . S
H1175 C1195 0.950 1_655 S
H1176 C1197 0.950 . S
H1177 C1200 0.950 . S
H1178 C1201 0.950 . S
H1179 C1203 0.950 . S
H1180 C1204 0.950 . S
H1181 C1205 0.951 1_545 S
H1182 C1207 0.951 . S
H1183 C1209 0.950 . S
H1184 C1210 0.950 . S
H1185 C1212 0.950 . S
H1186 C1215 0.950 . S
H1187 C1216 0.941 1_545 S
H1188 C1218 0.950 . S
H1189 C1219 0.950 . S
C1190 H1172 0.951 . S
C1190 C1191 1.366 . S
C1190 C1192 1.388 . S
C1191 C1190 1.366 . S
C1191 C1195 1.385 . S
C1192 H1173 0.951 . S
C1192 C1190 1.388 . S
C1192 C1193 1.366 . S
C1193 C1192 1.366 . S
C1193 C1194 1.414 . S
C1193 C1196 1.499 . S
C1194 H1174 0.950 . S
C1194 C1193 1.414 . S
C1194 C1195 1.374 . S
C1195 H1175 0.950 1_455 S
C1195 C1191 1.385 . S
C1195 C1194 1.374 . S
C1196 C1193 1.499 . S
C1196 C1197 1.373 . S
C1196 C1198 1.389 . S
C1197 H1176 0.950 . S
C1197 C1196 1.373 . S
C1197 C1213 1.377 . S
C1198 C1196 1.389 . S
C1198 C1199 1.524 . S
C1198 C1212 1.377 . S
C1199 C1198 1.524 . S
C1199 C1200 1.397 . S
C1199 C1204 1.363 . S
C1200 H1177 0.950 . S
C1200 C1199 1.397 . S
C1200 C1201 1.334 . S
C1201 H1178 0.950 . S
C1201 C1200 1.334 . S
C1201 C1202 1.287 . S
C1202 C1201 1.287 . S
C1202 C1203 1.524 . S
C1202 H1221 0.913 . S
C1203 H1179 0.950 . S
C1203 C1202 1.524 . S
C1203 C1204 1.415 . S
C1204 H1180 0.950 . S
C1204 C1199 1.363 . S
C1204 C1203 1.415 . S
C1205 H1181 0.951 1_565 S
C1205 C1206 1.366 . S
C1205 C1207 1.388 . S
C1206 C1205 1.366 . S
C1206 C1210 1.385 . S
C1207 H1182 0.951 . S
C1207 C1205 1.388 . S
C1207 C1208 1.366 . S
C1208 C1207 1.366 . S
C1208 C1209 1.414 . S
C1208 C1211 1.499 . S
C1209 H1183 0.950 . S
C1209 C1208 1.414 . S
C1209 C1210 1.374 . S
C1210 H1184 0.950 . S
C1210 C1206 1.385 . S
C1210 C1209 1.374 . S
C1211 C1208 1.499 . S
C1211 C1212 1.373 . S
C1211 C1213 1.389 . S
C1212 H1185 0.950 . S
C1212 C1198 1.377 . S
C1212 C1211 1.373 . S
C1213 C1197 1.377 . S
C1213 C1211 1.389 . S
C1213 C1214 1.524 . S
C1214 C1213 1.524 . S
C1214 C1215 1.397 . S
C1214 C1219 1.363 . S
C1215 H1186 0.950 . S
C1215 C1214 1.397 . S
C1215 C1216 1.354 . S
C1216 H1187 0.941 1_565 S
C1216 C1215 1.354 . S
C1216 C1217 1.276 1_565 S
C1217 C1216 1.276 1_545 S
C1217 C1218 1.524 . S
C1217 H1220 0.999 . S
C1218 H1188 0.950 . S
C1218 C1217 1.524 . S
C1218 C1219 1.415 1_545 S
C1219 H1189 0.950 . S
C1219 C1214 1.363 . S
C1219 C1218 1.415 1_565 S
H1220 C1217 0.999 . S
H1221 C1202 0.913 . S
H1222 C1240 0.951 . S
H1223 C1242 0.951 . S
H1224 C1244 0.950 . S
H1225 C1245 0.950 . S
H1226 C1247 0.950 . S
H1227 C1250 0.950 . S
H1228 C1251 0.950 . S
H1229 C1253 0.950 . S
H1230 C1254 0.950 1_554 S
H1231 C1255 0.951 . S
H1232 C1257 0.951 . S
H1233 C1259 0.950 . S
H1234 C1260 0.950 . S
H1235 C1262 0.950 . S
H1236 C1265 0.950 . S
H1237 C1266 0.950 . S
H1238 C1268 0.950 . S
H1239 C1269 0.950 1_556 S
C1240 H1222 0.951 . S
C1240 C1241 1.366 . S
C1240 C1242 1.388 . S
C1241 C1240 1.366 . S
C1241 C1245 1.385 . S
C1242 H1223 0.951 . S
C1242 C1240 1.388 . S
C1242 C1243 1.366 . S
C1243 C1242 1.366 . S
C1243 C1244 1.414 . S
C1243 C1246 1.499 . S
C1244 H1224 0.950 . S
C1244 C1243 1.414 . S
C1244 C1245 1.374 . S
C1245 H1225 0.950 . S
C1245 C1241 1.385 . S
C1245 C1244 1.374 . S
C1246 C1243 1.499 . S
C1246 C1247 1.373 . S
C1246 C1248 1.389 . S
C1247 H1226 0.950 . S
C1247 C1246 1.373 . S
C1247 C1263 1.377 1_556 S
C1248 C1246 1.389 . S
C1248 C1249 1.524 . S
C1248 C1262 1.377 1_556 S
C1249 C1248 1.524 . S
C1249 C1250 1.397 . S
C1249 C1254 1.363 . S
C1250 H1227 0.950 . S
C1250 C1249 1.397 . S
C1250 C1251 1.334 . S
C1251 H1228 0.950 . S
C1251 C1250 1.334 . S
C1251 C1252 1.287 . S
C1252 C1251 1.287 . S
C1252 C1253 1.524 . S
C1252 H1271 0.913 . S
C1253 H1229 0.950 . S
C1253 C1252 1.524 . S
C1253 C1254 1.415 . S
C1254 H1230 0.950 1_556 S
C1254 C1249 1.363 . S
C1254 C1253 1.415 . S
C1255 H1231 0.951 . S
C1255 C1256 1.366 . S
C1255 C1257 1.388 . S
C1256 C1255 1.366 . S
C1256 C1260 1.385 . S
C1257 H1232 0.951 . S
C1257 C1255 1.388 . S
C1257 C1258 1.366 . S
C1258 C1257 1.366 . S
C1258 C1259 1.414 . S
C1258 C1261 1.499 . S
C1259 H1233 0.950 . S
C1259 C1258 1.414 . S
C1259 C1260 1.374 . S
C1260 H1234 0.950 . S
C1260 C1256 1.385 . S
C1260 C1259 1.374 . S
C1261 C1258 1.499 . S
C1261 C1262 1.373 . S
C1261 C1263 1.389 . S
C1262 H1235 0.950 . S
C1262 C1248 1.377 1_554 S
C1262 C1261 1.373 . S
C1263 C1247 1.377 1_554 S
C1263 C1261 1.389 . S
C1263 C1264 1.524 . S
C1264 C1263 1.524 . S
C1264 C1265 1.397 . S
C1264 C1269 1.363 . S
C1265 H1236 0.950 . S
C1265 C1264 1.397 . S
C1265 C1266 1.334 . S
C1266 H1237 0.950 . S
C1266 C1265 1.334 . S
C1266 C1267 1.287 . S
C1267 C1266 1.287 . S
C1267 C1268 1.524 . S
C1267 H1270 0.999 . S
C1268 H1238 0.950 . S
C1268 C1267 1.524 . S
C1268 C1269 1.415 . S
C1269 H1239 0.950 1_554 S
C1269 C1264 1.363 . S
C1269 C1268 1.415 . S
H1270 C1267 0.999 . S
H1271 C1252 0.913 . S
C291 C20 1.236 . S
C306 C36 1.238 . S
C341 C70 1.238 . S
C356 C54 1.236 . S
C391 C104 1.238 . S
C406 C88 1.236 . S
C441 C122 1.236 . S
C456 C2 1.238 . S
C491 C156 1.236 . S
C506 C240 1.238 . S
C541 C190 1.236 . S
C556 C138 1.238 . S
C591 C224 1.236 . S
C606 C172 1.238 . S
C641 C258 1.236 . S
C656 C206 1.238 . S
C691 C213 1.326 . S
C706 C33 1.363 . S
C741 C247 1.326 . S
C756 C67 1.362 . S
C791 C145 1.324 . S
C806 C101 1.362 . S
C841 C179 1.325 . S
C856 C135 1.362 . S
C891 C169 1.362 . S
C906 C77 1.325 . S
C941 C203 1.363 . S
C956 C111 1.325 . S
C991 C237 1.363 . S
C1006 C9 1.325 . S
C1041 C271 1.362 . S
C1056 C43 1.325 . S
C1091 C243 1.737 1_545 S
C1106 C5 1.737 1_655 S
C1141 C141 1.737 . S
C1156 C39 1.737 . S
C1191 C73 1.737 1_455 S
C1206 C175 1.737 1_565 S
C1241 C107 1.737 . S
C1256 C209 1.737 . S
