# Generated by pormake.
# Topology vbj, (5)-cn, num edge types: 1
# Building blocks:
#     Node 0, Type 0, BuildingBlock: XOMCOT_clean_sbu_0, # of connection points: 5
#     Node 1, Type 0, BuildingBlock: XOMCOT_clean_sbu_0, # of connection points: 5
#     Node 2, Type 0, BuildingBlock: XOMCOT_clean_sbu_0, # of connection points: 5
#     Node 3, Type 0, BuildingBlock: XOMCOT_clean_sbu_0, # of connection points: 5
#     Node 4, Type 0, BuildingBlock: XOMCOT_clean_sbu_0, # of connection points: 5
#     Node 5, Type 0, BuildingBlock: XOMCOT_clean_sbu_0, # of connection points: 5
#     Node 6, Type 0, BuildingBlock: XOMCOT_clean_sbu_0, # of connection points: 5
#     Node 7, Type 0, BuildingBlock: XOMCOT_clean_sbu_0, # of connection points: 5
#     Node 8, Type 0, BuildingBlock: XOMCOT_clean_sbu_0, # of connection points: 5
#     Node 9, Type 0, BuildingBlock: XOMCOT_clean_sbu_0, # of connection points: 5
#     Node 10, Type 0, BuildingBlock: XOMCOT_clean_sbu_0, # of connection points: 5
#     Node 11, Type 0, BuildingBlock: XOMCOT_clean_sbu_0, # of connection points: 5
#     Node 12, Type 0, BuildingBlock: XOMCOT_clean_sbu_0, # of connection points: 5
#     Node 13, Type 0, BuildingBlock: XOMCOT_clean_sbu_0, # of connection points: 5
#     Node 14, Type 0, BuildingBlock: XOMCOT_clean_sbu_0, # of connection points: 5
#     Node 15, Type 0, BuildingBlock: XOMCOT_clean_sbu_0, # of connection points: 5
#     Edge 16, Type (0, 0), BuildingBlock: CIFDUS_clean_linker_0, # of connection points: 2
#     Edge 17, Type (0, 0), BuildingBlock: CIFDUS_clean_linker_0, # of connection points: 2
#     Edge 18, Type (0, 0), BuildingBlock: CIFDUS_clean_linker_0, # of connection points: 2
#     Edge 19, Type (0, 0), BuildingBlock: CIFDUS_clean_linker_0, # of connection points: 2
#     Edge 20, Type (0, 0), BuildingBlock: CIFDUS_clean_linker_0, # of connection points: 2
#     Edge 21, Type (0, 0), BuildingBlock: CIFDUS_clean_linker_0, # of connection points: 2
#     Edge 22, Type (0, 0), BuildingBlock: CIFDUS_clean_linker_0, # of connection points: 2
#     Edge 23, Type (0, 0), BuildingBlock: CIFDUS_clean_linker_0, # of connection points: 2
#     Edge 24, Type (0, 0), BuildingBlock: CIFDUS_clean_linker_0, # of connection points: 2
#     Edge 25, Type (0, 0), BuildingBlock: CIFDUS_clean_linker_0, # of connection points: 2
#     Edge 26, Type (0, 0), BuildingBlock: CIFDUS_clean_linker_0, # of connection points: 2
#     Edge 27, Type (0, 0), BuildingBlock: CIFDUS_clean_linker_0, # of connection points: 2
#     Edge 28, Type (0, 0), BuildingBlock: CIFDUS_clean_linker_0, # of connection points: 2
#     Edge 29, Type (0, 0), BuildingBlock: CIFDUS_clean_linker_0, # of connection points: 2
#     Edge 30, Type (0, 0), BuildingBlock: CIFDUS_clean_linker_0, # of connection points: 2
#     Edge 31, Type (0, 0), BuildingBlock: CIFDUS_clean_linker_0, # of connection points: 2
#     Edge 32, Type (0, 0), BuildingBlock: CIFDUS_clean_linker_0, # of connection points: 2
#     Edge 33, Type (0, 0), BuildingBlock: CIFDUS_clean_linker_0, # of connection points: 2
#     Edge 34, Type (0, 0), BuildingBlock: CIFDUS_clean_linker_0, # of connection points: 2
#     Edge 35, Type (0, 0), BuildingBlock: CIFDUS_clean_linker_0, # of connection points: 2
#     Edge 36, Type (0, 0), BuildingBlock: CIFDUS_clean_linker_0, # of connection points: 2
#     Edge 37, Type (0, 0), BuildingBlock: CIFDUS_clean_linker_0, # of connection points: 2
#     Edge 38, Type (0, 0), BuildingBlock: CIFDUS_clean_linker_0, # of connection points: 2
#     Edge 39, Type (0, 0), BuildingBlock: CIFDUS_clean_linker_0, # of connection points: 2
#     Edge 40, Type (0, 0), BuildingBlock: CIFDUS_clean_linker_0, # of connection points: 2
#     Edge 41, Type (0, 0), BuildingBlock: CIFDUS_clean_linker_0, # of connection points: 2
#     Edge 42, Type (0, 0), BuildingBlock: CIFDUS_clean_linker_0, # of connection points: 2
#     Edge 43, Type (0, 0), BuildingBlock: CIFDUS_clean_linker_0, # of connection points: 2
#     Edge 44, Type (0, 0), BuildingBlock: CIFDUS_clean_linker_0, # of connection points: 2
#     Edge 45, Type (0, 0), BuildingBlock: CIFDUS_clean_linker_0, # of connection points: 2
#     Edge 46, Type (0, 0), BuildingBlock: CIFDUS_clean_linker_0, # of connection points: 2
#     Edge 47, Type (0, 0), BuildingBlock: CIFDUS_clean_linker_0, # of connection points: 2
#     Edge 48, Type (0, 0), BuildingBlock: CIFDUS_clean_linker_0, # of connection points: 2
#     Edge 49, Type (0, 0), BuildingBlock: CIFDUS_clean_linker_0, # of connection points: 2
#     Edge 50, Type (0, 0), BuildingBlock: CIFDUS_clean_linker_0, # of connection points: 2
#     Edge 51, Type (0, 0), BuildingBlock: CIFDUS_clean_linker_0, # of connection points: 2
#     Edge 52, Type (0, 0), BuildingBlock: CIFDUS_clean_linker_0, # of connection points: 2
#     Edge 53, Type (0, 0), BuildingBlock: CIFDUS_clean_linker_0, # of connection points: 2
#     Edge 54, Type (0, 0), BuildingBlock: CIFDUS_clean_linker_0, # of connection points: 2
#     Edge 55, Type (0, 0), BuildingBlock: CIFDUS_clean_linker_0, # of connection points: 2
# Relax obj value: 0.088
# Max RMSD: 0.163
# Mean RMSD: 0.156
data_MOF--net-vbj--node1-XOMCOT_clean_sbu_0--edge1-CIFDUS_clean_linker_0
_symmetry_space_group_name_H-M    P1
_symmetry_Int_Tables_number       1
_symmetry_cell_setting            triclinic
loop_
_symmetry_equiv_pos_as_xyz
'x, y, z'
_cell_length_a     22.232684
_cell_length_b     59.237607
_cell_length_c     45.10329
_cell_angle_alpha  89.257568
_cell_angle_beta   90.246039
_cell_angle_gamma 90.180987
loop_
_atom_site_label
_atom_site_type_symbol
_atom_site_fract_x
_atom_site_fract_y
_atom_site_fract_z
_atom_type_partial_charge
Co0 Co 0.096 0.13705 0.07158 0.0
C1 C 0.14593 0.09073 0.07543 0.0
C2 C 0.10393 0.09693 0.03338 0.0
C3 C 0.13423 0.07664 0.03224 0.0
N4 N 0.10993 0.10563 0.06076 0.0
N5 N 0.16125 0.0729 0.05863 0.0
H6 H 0.16479 0.09363 0.09709 0.0
H7 H 0.08301 0.10557 0.01477 0.0
C8 C 0.97645 0.12328 0.04264 0.0
O9 O 0.98218 0.10212 0.05121 0.0
N10 N 0.08506 0.16841 0.0823 0.0
C11 C 0.1162 0.17936 0.10347 0.0
C12 C 0.09997 0.20178 0.10293 0.0
C13 C 0.04973 0.18432 0.06932 0.0
N14 N 0.05833 0.20481 0.08151 0.0
C15 C 0.10097 0.1226 0.13209 0.0
C16 C 0.98026 0.12666 0.14504 0.0
C17 C 0.02087 0.12154 0.16801 0.0
C18 C 0.08165 0.11923 0.16111 0.0
C19 C 1.00168 0.1302 0.11608 0.0
N20 N 0.06155 0.12797 0.10977 0.0
H21 H 0.1486 0.12188 0.12816 0.0
H22 H 0.97019 0.13582 0.09938 0.0
H23 H 0.14895 0.17163 0.11816 0.0
H24 H 0.01936 0.18121 0.05103 0.0
O25 O 0.17981 0.13877 0.0832 0.0
O26 O 0.14425 0.14676 0.03826 0.0
O27 O 0.01521 0.13812 0.05034 0.0
C28 C 0.19021 0.14508 0.05608 0.0
H29 H 0.14028 0.06646 0.01272 0.0
H30 H 0.11665 0.21482 0.11745 0.0
H31 H 0.93297 0.12905 0.14969 0.0
H32 H 0.11452 0.11542 0.17826 0.0
Co33 Co 0.44901 0.9037 0.06434 0.0
C34 C 0.38164 0.94649 0.07428 0.0
C35 C 0.47572 0.95292 0.06875 0.0
C36 C 0.44591 0.97334 0.0698 0.0
N37 N 0.43541 0.93593 0.07147 0.0
N38 N 0.38659 0.96923 0.07285 0.0
H39 H 0.33892 0.93785 0.07608 0.0
H40 H 0.52317 0.95082 0.06454 0.0
C41 C 0.57831 0.89707 0.05106 0.0
O42 O 0.57789 0.88057 0.07082 0.0
N43 N 0.46139 0.87171 0.05554 0.0
C44 C 0.47509 0.86459 0.02811 0.0
C45 C 0.48305 0.84165 0.02868 0.0
C46 C 0.46057 0.85259 0.07248 0.0
N47 N 0.47391 0.83392 0.05657 0.0
C48 C 0.43925 0.88926 0.12542 0.0
C49 C 0.54016 0.91174 0.14568 0.0
C50 C 0.50397 0.9002 0.16626 0.0
C51 C 0.45331 0.8886 0.15576 0.0
C52 C 0.52517 0.91161 0.11554 0.0
N53 N 0.47574 0.90016 0.10553 0.0
H54 H 0.39818 0.88131 0.11798 0.0
H55 H 0.55242 0.92151 0.10051 0.0
H56 H 0.48089 0.87555 0.00896 0.0
H57 H 0.45113 0.85217 0.09585 0.0
O58 O 0.3634 0.89779 0.06894 0.0
O59 O 0.4092 0.90718 0.02693 0.0
O60 O 0.53278 0.91013 0.04868 0.0
C61 C 0.35948 0.90239 0.04063 0.0
H62 H 0.4659 0.98986 0.06644 0.0
H63 H 0.49669 0.83165 0.01 0.0
H64 H 0.57918 0.92122 0.15291 0.0
H65 H 0.42326 0.87998 0.17102 0.0
Co66 Co 0.55786 0.90346 0.44684 0.0
C67 C 0.51287 0.85564 0.43913 0.0
C68 C 0.5705 0.86035 0.4769 0.0
C69 C 0.55401 0.83808 0.47605 0.0
N70 N 0.54494 0.87145 0.45389 0.0
N71 N 0.51776 0.83499 0.45238 0.0
H72 H 0.48688 0.85911 0.41926 0.0
H73 H 0.6 0.86798 0.49308 0.0
C74 C 0.69248 0.90283 0.43538 0.0
O75 O 0.68789 0.91632 0.41213 0.0
N76 N 0.57316 0.936 0.44164 0.0
C77 C 0.53509 0.95211 0.43159 0.0
C78 C 0.56318 0.97287 0.43274 0.0
C79 C 0.62262 0.94767 0.45042 0.0
N80 N 0.61866 0.9701 0.4444 0.0
C81 C 0.5146 0.90955 0.38729 0.0
C82 C 0.59184 0.88 0.35996 0.0
C83 C 0.55074 0.89228 0.34245 0.0
C84 C 0.51144 0.907 0.35662 0.0
C85 C 0.59426 0.88341 0.39072 0.0
N86 N 0.55738 0.89874 0.40392 0.0
H87 H 0.48114 0.91977 0.39768 0.0
H88 H 0.62504 0.87337 0.40393 0.0
H89 H 0.48906 0.94943 0.42484 0.0
H90 H 0.66016 0.94006 0.462 0.0
O91 O 0.47303 0.90896 0.45252 0.0
O92 O 0.54133 0.90851 0.48842 0.0
O93 O 0.64628 0.89718 0.45044 0.0
C94 C 0.48507 0.91044 0.4807 0.0
H95 H 0.56915 0.82499 0.49126 0.0
H96 H 0.5439 0.98875 0.42543 0.0
H97 H 0.62202 0.86799 0.34998 0.0
H98 H 0.47721 0.91606 0.34416 0.0
Co99 Co 0.90419 0.14197 0.44058 0.0
C100 C 0.8317 0.09949 0.44682 0.0
C101 C 0.92122 0.09515 0.46362 0.0
C102 C 0.89082 0.07492 0.46644 0.0
N103 N 0.88418 0.11072 0.45143 0.0
N104 N 0.8344 0.07758 0.45583 0.0
H105 H 0.79272 0.10698 0.43629 0.0
H106 H 0.96763 0.09794 0.46975 0.0
C107 C 0.99717 0.14317 0.48776 0.0
O108 O 0.95428 0.15068 0.50486 0.0
N109 N 0.92333 0.1729 0.42916 0.0
C110 C 0.91337 0.18211 0.40214 0.0
C111 C 0.92929 0.20453 0.4026 0.0
C112 C 0.94443 0.19 0.44589 0.0
N113 N 0.94864 0.20966 0.43015 0.0
C114 C 0.89557 0.12417 0.38235 0.0
C115 C 0.01326 0.13251 0.36611 0.0
C116 C 0.97149 0.12668 0.34391 0.0
C117 C 0.91228 0.12178 0.35272 0.0
C118 C 0.99427 0.13533 0.39535 0.0
N119 N 0.93562 0.13178 0.40294 0.0
H120 H 0.84917 0.12131 0.38832 0.0
H121 H 0.0262 0.14166 0.41132 0.0
H122 H 0.89513 0.1732 0.38335 0.0
H123 H 0.95494 0.18821 0.46921 0.0
O124 O 0.82122 0.14742 0.42876 0.0
O125 O 0.85859 0.15283 0.47365 0.0
O126 O 0.98572 0.13875 0.46057 0.0
C127 C 0.81265 0.15375 0.45588 0.0
H128 H 0.90914 0.05947 0.47573 0.0
H129 H 0.927 0.21606 0.38385 0.0
H130 H 0.05997 0.13577 0.36091 0.0
H131 H 0.87786 0.1174 0.33676 0.0
Co132 Co 0.90531 0.8913 0.88089 0.0
C133 C 0.95173 0.84338 0.88291 0.0
C134 C 0.86605 0.84684 0.86159 0.0
C135 C 0.88282 0.82455 0.86057 0.0
N136 N 0.9093 0.85876 0.87549 0.0
N137 N 0.93681 0.82239 0.87401 0.0
H138 H 0.99184 0.84695 0.89529 0.0
H139 H 0.8249 0.85391 0.85267 0.0
C140 C 0.82422 0.87174 0.92669 0.0
O141 O 0.86569 0.85621 0.93032 0.0
N142 N 0.89846 0.92343 0.88519 0.0
C143 C 0.94268 0.93901 0.88509 0.0
C144 C 0.91686 0.96006 0.88755 0.0
C145 C 0.84676 0.93499 0.88774 0.0
N146 N 0.85665 0.95739 0.88931 0.0
C147 C 0.01779 0.88632 0.91017 0.0
C148 C 0.9832 0.90005 0.96587 0.0
C149 C 0.04358 0.89482 0.96071 0.0
C150 C 0.06042 0.88771 0.93254 0.0
C151 C 0.94146 0.89838 0.94257 0.0
N152 N 0.95859 0.89068 0.91536 0.0
H153 H 0.03299 0.88166 0.88843 0.0
H154 H 0.89621 0.90425 0.94619 0.0
H155 H 0.99011 0.93534 0.88313 0.0
H156 H 0.80264 0.92722 0.8876 0.0
O157 O 0.96652 0.89558 0.85136 0.0
O158 O 0.86968 0.89389 0.84099 0.0
O159 O 0.83125 0.88717 0.90681 0.0
C160 C 0.92486 0.89581 0.83135 0.0
H161 H 0.85748 0.81113 0.85027 0.0
H162 H 0.94047 0.97606 0.8881 0.0
H163 H 0.96906 0.90634 0.98717 0.0
H164 H 0.10683 0.88373 0.92758 0.0
Co165 Co 0.60602 0.13163 0.88485 0.0
C166 C 0.56551 0.17997 0.88661 0.0
C167 C 0.65682 0.17635 0.87271 0.0
C168 C 0.64323 0.199 0.87307 0.0
N169 N 0.60852 0.16439 0.88187 0.0
N170 N 0.58573 0.20126 0.88194 0.0
H171 H 0.51981 0.1761 0.89237 0.0
H172 H 0.69943 0.16906 0.86653 0.0
C173 C 0.70779 0.1442 0.92586 0.0
O174 O 0.67514 0.16131 0.93458 0.0
N175 N 0.60671 0.09922 0.88681 0.0
C176 C 0.56233 0.08456 0.89358 0.0
C177 C 0.58552 0.06294 0.89255 0.0
C178 C 0.6555 0.0866 0.88157 0.0
N179 N 0.6442 0.06434 0.88493 0.0
C180 C 0.50469 0.13859 0.9214 0.0
C181 C 0.55276 0.12529 0.9753 0.0
C182 C 0.49425 0.1341 0.97418 0.0
C183 C 0.46999 0.13999 0.94658 0.0
C184 C 0.58651 0.12412 0.94902 0.0
N185 N 0.56357 0.13224 0.92273 0.0
H186 H 0.48295 0.14263 0.9007 0.0
H187 H 0.63025 0.1163 0.94993 0.0
H188 H 0.51673 0.08922 0.899 0.0
H189 H 0.69886 0.09375 0.87595 0.0
O190 O 0.53594 0.13083 0.86003 0.0
O191 O 0.62799 0.13038 0.84242 0.0
O192 O 0.68805 0.13138 0.90525 0.0
C193 C 0.57009 0.13014 0.83709 0.0
H194 H 0.67377 0.21267 0.86761 0.0
H195 H 0.56094 0.04746 0.89687 0.0
H196 H 0.57203 0.11937 0.99607 0.0
H197 H 0.42361 0.14533 0.94423 0.0
Co198 Co 0.40386 0.13709 0.62342 0.0
C199 C 0.4491 0.18462 0.6225 0.0
C200 C 0.35387 0.18262 0.62973 0.0
C201 C 0.37095 0.20498 0.6301 0.0
N202 N 0.40271 0.16986 0.62476 0.0
N203 N 0.43085 0.2063 0.62558 0.0
H204 H 0.4951 0.17955 0.61863 0.0
H205 H 0.30898 0.17611 0.63339 0.0
C206 C 0.30207 0.12827 0.58175 0.0
O207 O 0.3394 0.11514 0.56752 0.0
N208 N 0.40311 0.10383 0.62374 0.0
C209 C 0.44991 0.08991 0.62959 0.0
C210 C 0.42999 0.06793 0.63059 0.0
C211 C 0.35453 0.08982 0.62348 0.0
N212 N 0.36997 0.06783 0.62663 0.0
C213 C 0.49028 0.12729 0.57865 0.0
C214 C 0.4497 0.15821 0.53672 0.0
C215 C 0.50225 0.14605 0.53142 0.0
C216 C 0.52186 0.1302 0.55242 0.0
C217 C 0.41838 0.15438 0.56322 0.0
N218 N 0.43879 0.13899 0.58387 0.0
H219 H 0.50998 0.11672 0.59545 0.0
H220 H 0.37906 0.16445 0.56767 0.0
H221 H 0.49545 0.09519 0.63435 0.0
H222 H 0.30853 0.09547 0.62165 0.0
O223 O 0.47838 0.13717 0.6452 0.0
O224 O 0.38864 0.13593 0.66613 0.0
O225 O 0.31903 0.13759 0.60598 0.0
C226 C 0.44718 0.1364 0.66936 0.0
H227 H 0.34162 0.21911 0.63435 0.0
H228 H 0.45736 0.05317 0.63504 0.0
H229 H 0.43451 0.1711 0.5212 0.0
H230 H 0.56372 0.12119 0.5494 0.0
Co231 Co 0.10077 0.90095 0.62157 0.0
C232 C 0.06861 0.85177 0.61939 0.0
C233 C 0.16373 0.8578 0.61662 0.0
C234 C 0.15365 0.83492 0.61517 0.0
N235 N 0.11056 0.86843 0.61899 0.0
N236 N 0.09395 0.83106 0.61693 0.0
H237 H 0.02075 0.85474 0.62113 0.0
H238 H 0.20714 0.86607 0.61622 0.0
C239 C 0.18242 0.91949 0.57532 0.0
O240 O 0.13713 0.93277 0.56829 0.0
N241 N 0.09414 0.93381 0.62541 0.0
C242 C 0.04532 0.94693 0.62932 0.0
C243 C 0.06362 0.969 0.63288 0.0
C244 C 0.1414 0.94813 0.62846 0.0
N245 N 0.12424 0.96982 0.6321 0.0
C246 C 0.99382 0.90724 0.5866 0.0
C247 C 0.03895 0.89124 0.53386 0.0
C248 C 0.98115 0.90041 0.5344 0.0
C249 C 0.95797 0.9079 0.56123 0.0
C250 C 0.07334 0.89083 0.55994 0.0
N251 N 0.05217 0.90029 0.58541 0.0
H252 H 0.97381 0.91171 0.60733 0.0
H253 H 0.11724 0.88308 0.55954 0.0
H254 H 0.99947 0.94117 0.63089 0.0
H255 H 0.18771 0.94263 0.6285 0.0
O256 O 0.03651 0.89674 0.64962 0.0
O257 O 0.13251 0.90004 0.66194 0.0
O258 O 0.17745 0.90559 0.59729 0.0
C259 C 0.07667 0.89765 0.67046 0.0
H260 H 0.18787 0.82203 0.61356 0.0
H261 H 0.03416 0.98327 0.63587 0.0
H262 H 0.05704 0.88435 0.51365 0.0
H263 H 0.91214 0.91398 0.56262 0.0
Co264 Co 0.58714 0.63618 0.07672 0.0
C265 C 0.64925 0.59139 0.0784 0.0
C266 C 0.59079 0.59465 0.04084 0.0
C267 C 0.62234 0.57476 0.03851 0.0
N268 N 0.60608 0.60491 0.06637 0.0
N269 N 0.65949 0.57277 0.06207 0.0
H270 H 0.67575 0.59566 0.0976 0.0
H271 H 0.56176 0.60179 0.02391 0.0
C272 C 0.46855 0.61776 0.05671 0.0
O273 O 0.47912 0.60067 0.07486 0.0
N274 N 0.57128 0.66733 0.0869 0.0
C275 C 0.58984 0.67692 0.11223 0.0
C276 C 0.57445 0.69932 0.11165 0.0
C277 C 0.54495 0.68417 0.07101 0.0
N278 N 0.54603 0.70406 0.08578 0.0
C279 C 0.59053 0.61924 0.13673 0.0
C280 C 0.47445 0.63105 0.15126 0.0
C281 C 0.51301 0.62347 0.17405 0.0
C282 C 0.57164 0.61723 0.16617 0.0
C283 C 0.49573 0.63344 0.12226 0.0
N284 N 0.55292 0.62719 0.11501 0.0
H285 H 0.63714 0.61615 0.1321 0.0
H286 H 0.46694 0.64158 0.10608 0.0
H287 H 0.61432 0.66828 0.12974 0.0
H288 H 0.52618 0.68189 0.04908 0.0
O289 O 0.66994 0.64022 0.08888 0.0
O290 O 0.63473 0.64614 0.04337 0.0
O291 O 0.50633 0.63411 0.05526 0.0
C292 C 0.68062 0.64574 0.06141 0.0
H293 H 0.62115 0.56347 0.01984 0.0
H294 H 0.58563 0.71131 0.1287 0.0
H295 H 0.42863 0.63599 0.15577 0.0
H296 H 0.6043 0.61212 0.18278 0.0
Co297 Co 0.93587 0.40032 0.07858 0.0
C298 C 0.87175 0.44454 0.07245 0.0
C299 C 0.9672 0.44909 0.0708 0.0
C300 C 0.93996 0.47001 0.06843 0.0
N301 N 0.92434 0.43297 0.07299 0.0
N302 N 0.87982 0.46707 0.06928 0.0
H303 H 0.82802 0.43686 0.07522 0.0
H304 H 0.01508 0.44602 0.07129 0.0
C305 C 0.06332 0.39052 0.05581 0.0
O306 O 0.06522 0.37033 0.06796 0.0
N307 N 0.94377 0.36783 0.08521 0.0
C308 C 0.92797 0.35737 0.11077 0.0
C309 C 0.93346 0.33446 0.10763 0.0
C310 C 0.95603 0.35083 0.0663 0.0
N311 N 0.95171 0.33033 0.07983 0.0
C312 C 0.92582 0.41641 0.13755 0.0
C313 C 0.03576 0.40102 0.15824 0.0
C314 C 0.9967 0.41153 0.17802 0.0
C315 C 0.94134 0.41951 0.16725 0.0
C316 C 0.01865 0.39841 0.12865 0.0
N317 N 0.96406 0.40586 0.11869 0.0
H318 H 0.88235 0.42209 0.12975 0.0
H319 H 0.04875 0.38976 0.11424 0.0
H320 H 0.91318 0.36584 0.13053 0.0
H321 H 0.96943 0.35339 0.04344 0.0
O322 O 0.85052 0.39644 0.086 0.0
O323 O 0.89467 0.39509 0.04194 0.0
O324 O 0.01951 0.40396 0.06069 0.0
C325 C 0.84552 0.39418 0.05738 0.0
H326 H 0.96273 0.4861 0.06593 0.0
H327 H 0.92702 0.32179 0.12486 0.0
H328 H 0.0791 0.39473 0.16559 0.0
H329 H 0.90944 0.42749 0.18184 0.0
Co330 Co 0.07463 0.40577 0.45594 0.0
C331 C 0.04014 0.35731 0.44805 0.0
C332 C 0.11641 0.36163 0.47677 0.0
C333 C 0.10376 0.33897 0.47502 0.0
N334 N 0.0769 0.37314 0.45977 0.0
N335 N 0.0556 0.33612 0.45707 0.0
H336 H 1.00254 0.36133 0.43364 0.0
H337 H 0.15189 0.3692 0.4898 0.0
C338 C 0.20479 0.41571 0.44186 0.0
O339 O 0.18919 0.42914 0.41974 0.0
N340 N 0.07335 0.43896 0.45345 0.0
C341 C 0.02711 0.4524 0.44514 0.0
C342 C 0.04453 0.47467 0.44704 0.0
C343 C 0.11691 0.45361 0.46208 0.0
N344 N 0.10141 0.47548 0.45743 0.0
C345 C 0.02606 0.41148 0.39758 0.0
C346 C 0.1158 0.38955 0.36725 0.0
C347 C 0.06879 0.39973 0.35111 0.0
C348 C 0.02288 0.4103 0.36684 0.0
C349 C 0.11708 0.3911 0.39824 0.0
N350 N 0.07425 0.40312 0.41289 0.0
H351 H 0.98854 0.41859 0.40904 0.0
H352 H 0.15247 0.38258 0.41041 0.0
H353 H 0.98273 0.44674 0.43892 0.0
H354 H 0.15871 0.44852 0.47239 0.0
O355 O 0.98927 0.40512 0.46218 0.0
O356 O 0.05739 0.40757 0.49803 0.0
O357 O 0.16506 0.40593 0.45792 0.0
C358 C 1.00086 0.40639 0.49037 0.0
H359 H 0.12891 0.32566 0.48599 0.0
H360 H 0.0173 0.48912 0.44093 0.0
H361 H 0.15143 0.38063 0.35612 0.0
H362 H 0.98386 0.41723 0.35555 0.0
Co363 Co 0.39815 0.63873 0.44509 0.0
C364 C 0.33882 0.59376 0.45548 0.0
C365 C 0.42954 0.59434 0.47179 0.0
C366 C 0.40662 0.57295 0.47585 0.0
N367 N 0.38721 0.60757 0.45901 0.0
N368 N 0.34968 0.57247 0.46547 0.0
H369 H 0.2974 0.59885 0.44469 0.0
H370 H 0.47493 0.59939 0.47711 0.0
C371 C 0.49392 0.64538 0.48974 0.0
O372 O 0.45045 0.65253 0.50675 0.0
N373 N 0.40853 0.66954 0.43078 0.0
C374 C 0.39104 0.67752 0.40403 0.0
C375 C 0.40054 0.70049 0.40295 0.0
C376 C 0.42795 0.6878 0.44573 0.0
N377 N 0.4237 0.70705 0.42921 0.0
C378 C 0.38897 0.61702 0.38925 0.0
C379 C 0.50294 0.62801 0.36918 0.0
C380 C 0.46196 0.6179 0.34974 0.0
C381 C 0.40472 0.6121 0.36011 0.0
C382 C 0.48502 0.63303 0.39807 0.0
N383 N 0.42835 0.62778 0.40761 0.0
H384 H 0.34399 0.61309 0.39664 0.0
H385 H 0.51576 0.64218 0.41213 0.0
H386 H 0.37102 0.66743 0.38676 0.0
H387 H 0.4439 0.68702 0.46835 0.0
O388 O 0.31264 0.6409 0.43533 0.0
O389 O 0.3538 0.64971 0.47834 0.0
O390 O 0.48206 0.63926 0.46316 0.0
C391 C 0.30598 0.64857 0.46198 0.0
H392 H 0.43061 0.55872 0.4854 0.0
H393 H 0.38908 0.71154 0.38451 0.0
H394 H 0.54731 0.63298 0.36165 0.0
H395 H 0.37193 0.60438 0.34554 0.0
Co396 Co 0.40679 0.39043 0.88582 0.0
C397 C 0.45258 0.3437 0.88512 0.0
C398 C 0.35616 0.3448 0.88778 0.0
C399 C 0.37376 0.32257 0.88723 0.0
N400 N 0.40558 0.35795 0.88667 0.0
N401 N 0.4343 0.32193 0.88549 0.0
H402 H 0.49901 0.34915 0.88376 0.0
H403 H 0.31042 0.35091 0.88838 0.0
C404 C 0.31741 0.40374 0.93195 0.0
O405 O 0.35385 0.42034 0.93904 0.0
N406 N 0.40571 0.42322 0.88406 0.0
C407 C 0.44995 0.43854 0.88824 0.0
C408 C 0.42623 0.45987 0.88492 0.0
C409 C 0.35642 0.43553 0.87726 0.0
N410 N 0.36735 0.45792 0.87817 0.0
C411 C 0.51734 0.39524 0.91671 0.0
C412 C 0.48077 0.37969 0.97175 0.0
C413 C 0.54031 0.38708 0.96803 0.0
C414 C 0.55853 0.39414 0.93973 0.0
C415 C 0.44075 0.38068 0.9476 0.0
N416 N 0.45838 0.38975 0.9209 0.0
H417 H 0.53387 0.40032 0.89524 0.0
H418 H 0.39631 0.37365 0.95039 0.0
H419 H 0.4963 0.43497 0.89327 0.0
H420 H 0.31273 0.42813 0.87292 0.0
O421 O 0.46931 0.39008 0.85671 0.0
O422 O 0.37252 0.39019 0.84567 0.0
O423 O 0.33105 0.39044 0.91082 0.0
C424 C 0.42816 0.39008 0.83643 0.0
H425 H 0.3442 0.30802 0.88723 0.0
H426 H 0.45057 0.4756 0.88727 0.0
H427 H 0.46531 0.37321 0.99295 0.0
H428 H 0.60489 0.39857 0.9351 0.0
Co429 Co 0.11362 0.63281 0.88817 0.0
C430 C 0.06805 0.67967 0.88809 0.0
C431 C 0.16416 0.6781 0.884 0.0
C432 C 0.14694 0.70032 0.88241 0.0
N433 N 0.11478 0.66525 0.88768 0.0
N434 N 0.08645 0.70137 0.88506 0.0
H435 H 0.02181 0.67423 0.89043 0.0
H436 H 0.20937 0.67167 0.88176 0.0
C437 C 0.19772 0.62213 0.93801 0.0
O438 O 0.15522 0.60829 0.94726 0.0
N439 N 0.11586 0.59988 0.88714 0.0
C440 C 0.0733 0.58505 0.87823 0.0
C441 C 0.09815 0.56378 0.87691 0.0
C442 C 0.16663 0.58746 0.88908 0.0
N443 N 0.15692 0.56538 0.88398 0.0
C444 C 0.00791 0.62315 0.92144 0.0
C445 C 0.03022 0.65279 0.96707 0.0
C446 C 0.97302 0.64315 0.96413 0.0
C447 C 0.96275 0.62765 0.94165 0.0
C448 C 0.07467 0.64776 0.9462 0.0
N449 N 0.06289 0.63331 0.92337 0.0
H450 H 0.99614 0.61312 0.90272 0.0
H451 H 0.11695 0.65678 0.94714 0.0
H452 H 0.02829 0.58927 0.87109 0.0
H453 H 0.21085 0.59462 0.89244 0.0
O454 O 0.04913 0.63327 0.85979 0.0
O455 O 0.14516 0.63341 0.84752 0.0
O456 O 0.19023 0.63316 0.91355 0.0
C457 C 0.08881 0.63387 0.83894 0.0
H458 H 0.1769 0.71446 0.87858 0.0
H459 H 0.07496 0.54849 0.87058 0.0
H460 H 0.03918 0.66515 0.98402 0.0
H461 H 0.91866 0.62015 0.93855 0.0
Co462 Co 0.88819 0.64734 0.63401 0.0
C463 C 0.92929 0.69614 0.63334 0.0
C464 C 0.83447 0.69152 0.64024 0.0
C465 C 0.84712 0.71415 0.64129 0.0
N466 N 0.88558 0.68012 0.6352 0.0
N467 N 0.90667 0.71722 0.63712 0.0
H468 H 0.9764 0.69243 0.63 0.0
H469 H 0.79077 0.68382 0.64341 0.0
C470 C 0.79509 0.638 0.58752 0.0
O471 O 0.83443 0.62453 0.57526 0.0
N472 N 0.88653 0.61412 0.6344 0.0
C473 C 0.93058 0.59954 0.64228 0.0
C474 C 0.90697 0.57804 0.64458 0.0
C475 C 0.83616 0.60114 0.63387 0.0
N476 N 0.84729 0.57897 0.63918 0.0
C477 C 0.98483 0.63734 0.59495 0.0
C478 C 0.94872 0.66457 0.54791 0.0
C479 C 1.00123 0.6518 0.54554 0.0
C480 C 0.01936 0.6382 0.56939 0.0
C481 C 0.91489 0.66304 0.57402 0.0
N482 N 0.93218 0.64893 0.5968 0.0
H483 H 1.00201 0.62801 0.61364 0.0
H484 H 0.87508 0.67333 0.57605 0.0
H485 H 0.97602 0.60413 0.64828 0.0
H486 H 0.79162 0.60797 0.63104 0.0
O487 O 0.95678 0.64722 0.66033 0.0
O488 O 0.86211 0.64615 0.67522 0.0
O489 O 0.8081 0.64784 0.61194 0.0
C490 C 0.91926 0.64618 0.68223 0.0
H491 H 0.81461 0.7274 0.64481 0.0
H492 H 0.93167 0.56314 0.65139 0.0
H493 H 0.93482 0.67588 0.53013 0.0
H494 H 0.06123 0.62889 0.56865 0.0
Co495 Co 0.61037 0.39753 0.62881 0.0
C496 C 0.56387 0.35011 0.62563 0.0
C497 C 0.66028 0.35188 0.62659 0.0
C498 C 0.64333 0.32957 0.62529 0.0
N499 N 0.61063 0.36478 0.6266 0.0
N500 N 0.58261 0.32831 0.62477 0.0
H501 H 0.51732 0.35536 0.62584 0.0
H502 H 0.70588 0.35824 0.6275 0.0
C503 C 0.69472 0.41095 0.58144 0.0
O504 O 0.6526 0.42528 0.57325 0.0
N505 N 0.61344 0.43057 0.63273 0.0
C506 C 0.57046 0.44465 0.6426 0.0
C507 C 0.59467 0.46592 0.64613 0.0
C508 C 0.66405 0.44344 0.63247 0.0
N509 N 0.65377 0.46524 0.63957 0.0
C510 C 0.5109 0.41117 0.59168 0.0
C511 C 0.53971 0.38448 0.54394 0.0
C512 C 0.48788 0.39774 0.54268 0.0
C513 C 0.47375 0.4113 0.56676 0.0
C514 C 0.5766 0.38529 0.56906 0.0
N515 N 0.56249 0.39879 0.59246 0.0
H516 H 0.4964 0.42026 0.61074 0.0
H517 H 0.61614 0.37473 0.5699 0.0
H518 H 0.5254 0.43975 0.64886 0.0
H519 H 0.70815 0.43677 0.62811 0.0
O520 O 0.54472 0.39586 0.65622 0.0
O521 O 0.641 0.39517 0.66919 0.0
O522 O 0.68766 0.39862 0.60476 0.0
C523 C 0.58455 0.39466 0.67724 0.0
H524 H 0.67388 0.31543 0.62443 0.0
H525 H 0.57084 0.48043 0.65434 0.0
H526 H 0.55101 0.37338 0.52591 0.0
H527 H 0.43259 0.42106 0.56691 0.0
H528 H 0.42537 0.16956 0.988 0.0
H529 H 0.4733 0.1027 0.01843 0.0
H530 H 0.38555 0.10195 0.05124 0.0
H531 H 0.28539 0.11748 0.06344 0.0
H532 H 0.2307 0.18115 0.02488 0.0
H533 H 0.33006 0.18599 1.00247 0.0
C534 C 0.41716 0.15498 1.00226 0.0
C535 C 0.45487 0.13604 1.00043 0.0
C536 C 0.36441 0.15396 0.01893 0.0
C537 C 0.44482 0.11747 0.01944 0.0
C538 C 0.39415 0.11692 0.03781 0.0
C539 C 0.29603 0.13255 0.05056 0.0
C540 C 0.25154 0.14898 0.04556 0.0
C541 C 0.35207 0.13458 0.03652 0.0
C542 C 0.26465 0.16833 0.02866 0.0
C543 C 0.32128 0.17109 0.01599 0.0
H544 H 0.14341 0.9194 0.95386 0.0
H545 H 0.05029 0.87733 0.01738 0.0
H546 H 0.13976 0.87715 0.04972 0.0
H547 H 0.24879 0.88568 0.05665 0.0
H548 H 0.34038 0.92567 0.98988 0.0
H549 H 0.24755 0.92976 0.96194 0.0
C550 C 0.14256 0.91041 0.97498 0.0
C551 C 0.09111 0.89817 0.98319 0.0
C552 C 0.1943 0.90968 0.99256 0.0
C553 C 0.08973 0.88688 0.01073 0.0
C554 C 0.14099 0.8866 0.02899 0.0
C555 C 0.24806 0.89533 0.03605 0.0
C556 C 0.30154 0.90497 0.02504 0.0
C557 C 0.19427 0.89735 0.01963 0.0
C558 C 0.30012 0.91765 0.99851 0.0
C559 C 0.24697 0.92015 0.98257 0.0
H560 H 0.79609 0.92749 0.43552 0.0
H561 H 0.71993 0.86365 0.46335 0.0
H562 H 0.80898 0.85554 0.49335 0.0
H563 H 0.90055 0.86926 0.51777 0.0
H564 H 0.97404 0.93409 0.49323 0.0
H565 H 0.89469 0.93925 0.45574 0.0
C566 C 0.79996 0.91157 0.44751 0.0
C567 C 0.7516 0.89624 0.44747 0.0
C568 C 0.8505 0.90737 0.46562 0.0
C569 C 0.75662 0.87574 0.46328 0.0
C570 C 0.80736 0.87113 0.48052 0.0
C571 C 0.89992 0.88416 0.50351 0.0
C572 C 0.94268 0.90121 0.50781 0.0
C573 C 0.8534 0.8872 0.48278 0.0
C574 C 0.94152 0.9207 0.48983 0.0
C575 C 0.89603 0.92368 0.46862 0.0
H576 H 0.70411 0.13788 0.43791 0.0
H577 H 0.7889 0.1835 0.49912 0.0
H578 H 0.69294 0.18938 0.52394 0.0
H579 H 0.59039 0.17636 0.53357 0.0
H580 H 0.5086 0.12704 0.47687 0.0
H581 H 0.59691 0.12805 0.44437 0.0
C582 C 0.70097 0.14953 0.4562 0.0
C583 C 0.75314 0.16015 0.46693 0.0
C584 C 0.64615 0.15204 0.47116 0.0
C585 C 0.74914 0.17502 0.49078 0.0
C586 C 0.69439 0.17838 0.50494 0.0
C587 C 0.59121 0.16658 0.51338 0.0
C588 C 0.54337 0.15193 0.50713 0.0
C589 C 0.64328 0.16629 0.49607 0.0
C590 C 0.54485 0.13874 0.48157 0.0
C591 C 0.59558 0.13911 0.46331 0.0
H592 H 0.75287 0.90809 0.9406 0.0
H593 H 0.78788 0.83844 0.96415 0.0
H594 H 0.71827 0.84073 1.00538 0.0
H595 H 0.64904 0.86225 0.03548 0.0
H596 H 0.60897 0.93144 0.01224 0.0
H597 H 0.67934 0.92967 0.97051 0.0
C598 C 0.74457 0.89335 0.95452 0.0
C599 C 0.7758 0.87311 0.9492 0.0
C600 C 0.70433 0.89478 0.9786 0.0
C601 C 0.7648 0.85425 0.96769 0.0
C602 C 0.72509 0.85554 0.99142 0.0
C603 C 0.65616 0.8771 0.02159 0.0
C604 C 0.62448 0.89707 0.02733 0.0
C605 C 0.69525 0.87576 0.99732 0.0
C606 C 0.63328 0.91592 0.00852 0.0
C607 C 0.67326 0.91486 0.98455 0.0
H608 H 0.76709 0.1688 0.9676 0.0
H609 H 0.76853 0.10393 0.92519 0.0
H610 H 0.84962 0.09139 0.95822 0.0
H611 H 0.91926 0.09854 1.00015 0.0
H612 H 0.91972 0.16394 0.04102 0.0
H613 H 0.8388 0.17643 0.00793 0.0
C614 C 0.78536 0.15196 0.96538 0.0
C615 C 0.76145 0.13738 0.94382 0.0
C616 C 0.83216 0.14484 0.98448 0.0
C617 C 0.78609 0.11563 0.94136 0.0
C618 C 0.83231 0.10836 0.96042 0.0
C619 C 0.90127 0.11546 1.00192 0.0
C620 C 0.92535 0.13023 0.0232 0.0
C621 C 0.85536 0.12273 0.98229 0.0
C622 C 0.90225 0.15225 0.02483 0.0
C623 C 0.85589 0.15941 1.00589 0.0
H624 H 0.03742 0.15487 0.54263 0.0
H625 H 0.09377 0.12236 0.4623 0.0
H626 H 0.19222 0.11466 0.48458 0.0
H627 H 0.26185 0.11686 0.52689 0.0
H628 H 0.20649 0.15006 0.60687 0.0
H629 H 0.10784 0.1577 0.58466 0.0
C630 C 0.07116 0.1461 0.52991 0.0
C631 C 0.05792 0.13915 0.50076 0.0
C632 C 0.12776 0.14178 0.54285 0.0
C633 C 0.10256 0.12794 0.48468 0.0
C634 C 0.15887 0.12348 0.49746 0.0
C635 C 0.22822 0.12569 0.5396 0.0
C636 C 0.24162 0.13272 0.56869 0.0
C637 C 0.17186 0.13024 0.52656 0.0
C638 C 0.19749 0.14437 0.58456 0.0
C639 C 0.14106 0.14877 0.57183 0.0
H640 H 0.30018 0.90824 0.58758 0.0
H641 H 0.18096 0.92946 0.51684 0.0
H642 H 0.26361 0.92904 0.48178 0.0
H643 H 0.3693 0.92232 0.47057 0.0
H644 H 0.49151 0.90269 0.54066 0.0
H645 H 0.40889 0.90307 0.57645 0.0
C646 C 0.29254 0.91273 0.56449 0.0
C647 C 0.23443 0.91886 0.55489 0.0
C648 C 0.34093 0.91288 0.54427 0.0
C649 C 0.22525 0.92483 0.52493 0.0
C650 C 0.27251 0.92456 0.50476 0.0
C651 C 0.37798 0.91824 0.49371 0.0
C652 C 0.43641 0.91245 0.50289 0.0
C653 C 0.33048 0.91863 0.51413 0.0
C654 C 0.44693 0.90732 0.53301 0.0
C655 C 0.39961 0.90742 0.55348 0.0
H656 H 0.7152 0.66488 0.00945 0.0
H657 H 0.78478 0.63263 0.08864 0.0
H658 H 0.88532 0.63166 0.06693 0.0
H659 H 0.95042 0.63561 0.02268 0.0
H660 H 0.87898 0.66709 0.94348 0.0
H661 H 0.78265 0.67312 0.96797 0.0
C662 C 0.75261 0.65799 0.02212 0.0
C663 C 0.74258 0.64865 0.05041 0.0
C664 C 0.81 0.65729 0.00941 0.0
C665 C 0.79145 0.63995 0.06676 0.0
C666 C 0.8489 0.63927 0.05431 0.0
C667 C 0.91411 0.64433 0.01124 0.0
C668 C 0.92117 0.65088 0.98146 0.0
C669 C 0.85836 0.64729 0.0253 0.0
C670 C 0.87402 0.66195 0.9665 0.0
C671 C 0.81898 0.66527 0.9804 0.0
H672 H 0.7455 0.36717 0.06219 0.0
H673 H 0.81694 0.42661 0.01857 0.0
H674 H 0.72261 0.43221 0.99208 0.0
H675 H 0.62416 0.41883 0.97819 0.0
H676 H 0.5574 0.35544 0.01299 0.0
H677 H 0.64378 0.35313 0.047 0.0
C678 C 0.73979 0.38131 0.04695 0.0
C679 C 0.78743 0.39657 0.0423 0.0
C680 C 0.68624 0.38373 0.03039 0.0
C681 C 0.78051 0.41473 0.02238 0.0
C682 C 0.72668 0.41797 1.0073 0.0
C683 C 0.62848 0.40438 0.99306 0.0
C684 C 0.5852 0.38709 0.99251 0.0
C685 C 0.67989 0.40234 0.01066 0.0
C686 C 0.59021 0.36899 0.01287 0.0
C687 C 0.63998 0.36752 0.03205 0.0
H688 H 0.25993 0.37943 0.46577 0.0
H689 H 0.29034 0.44882 0.43994 0.0
H690 H 0.38616 0.44882 0.46692 0.0
H691 H 0.45329 0.43045 0.50386 0.0
H692 H 0.42412 0.36066 0.5279 0.0
H693 H 0.33608 0.35919 0.4952 0.0
C694 C 0.28827 0.39438 0.46558 0.0
C695 C 0.26784 0.41426 0.45162 0.0
C696 C 0.34316 0.39416 0.48091 0.0
C697 C 0.30507 0.43343 0.45089 0.0
C698 C 0.35966 0.43345 0.4664 0.0
C699 C 0.42836 0.41483 0.50121 0.0
C700 C 0.44435 0.39572 0.51819 0.0
C701 C 0.37797 0.41415 0.4824 0.0
C702 C 0.41235 0.37548 0.51481 0.0
C703 C 0.36192 0.3747 0.49634 0.0
H704 H 0.19477 0.63122 0.45034 0.0
H705 H 0.28795 0.68216 0.50043 0.0
H706 H 0.19572 0.69107 0.52678 0.0
H707 H 0.09375 0.68026 0.54113 0.0
H708 H 1.00221 0.62694 0.49523 0.0
H709 H 0.0875 0.62328 0.46121 0.0
C710 C 0.19419 0.6446 0.46653 0.0
C711 C 0.24781 0.65589 0.47375 0.0
C712 C 0.14127 0.64911 0.48238 0.0
C713 C 0.24711 0.67308 0.49488 0.0
C714 C 0.19447 0.6782 0.50991 0.0
C715 C 0.09187 0.66846 0.52293 0.0
C716 C 0.04211 0.65411 0.52018 0.0
C717 C 0.14196 0.66577 0.50463 0.0
C718 C 0.04005 0.63839 0.49719 0.0
C719 C 0.08903 0.63614 0.47807 0.0
H720 H 0.25838 0.43203 0.96892 0.0
H721 H 0.26253 0.36288 0.94005 0.0
H722 H 0.18597 0.35271 0.97654 0.0
H723 H 0.12 0.36312 0.01769 0.0
H724 H 0.11017 0.43257 0.04462 0.0
H725 H 0.18704 0.44298 0.00803 0.0
C726 C 0.24217 0.41477 0.97049 0.0
C727 C 0.26631 0.39823 0.95182 0.0
C728 C 0.1976 0.40906 0.99139 0.0
C729 C 0.24448 0.37598 0.95395 0.0
C730 C 0.20099 0.37011 0.97499 0.0
C731 C 0.13503 0.38052 0.01567 0.0
C732 C 0.11028 0.39701 0.03414 0.0
C733 C 0.17777 0.38644 0.99404 0.0
C734 C 0.12891 0.41957 0.03078 0.0
C735 C 0.17275 0.42551 0.00985 0.0
H736 H 0.22597 0.59881 0.98815 0.0
H737 H 0.29428 0.6511 0.92986 0.0
H738 H 0.38335 0.65514 0.96181 0.0
H739 H 0.44228 0.64341 1.00667 0.0
H740 H 0.37111 0.59063 0.06354 0.0
H741 H 0.28283 0.58743 0.03193 0.0
C742 C 0.26017 0.61114 0.98226 0.0
C743 C 0.25315 0.62461 0.9565 0.0
C744 C 0.31093 0.61337 1.00067 0.0
C745 C 0.29839 0.64043 0.94944 0.0
C746 C 0.34931 0.64279 0.96779 0.0
C747 C 0.40721 0.63134 0.01222 0.0
C748 C 0.41366 0.61728 0.0376 0.0
C749 C 0.35612 0.62934 0.99356 0.0
C750 C 0.36782 0.60162 0.04423 0.0
C751 C 0.31711 0.59974 0.02611 0.0
H752 H 0.53242 0.66092 0.54284 0.0
H753 H 0.59347 0.62495 0.46603 0.0
H754 H 0.69205 0.61955 0.48958 0.0
H755 H 0.75969 0.6242 0.53262 0.0
H756 H 0.69759 0.66045 0.60905 0.0
H757 H 0.60029 0.66647 0.58494 0.0
C758 C 0.56721 0.65193 0.53109 0.0
C759 C 0.5553 0.64327 0.50268 0.0
C760 C 0.62347 0.64883 0.5448 0.0
C761 C 0.60131 0.63183 0.48785 0.0
C762 C 0.65762 0.62867 0.50138 0.0
C763 C 0.72488 0.63339 0.54407 0.0
C764 C 0.73597 0.64172 0.57278 0.0
C765 C 0.669 0.63692 0.52997 0.0
C766 C 0.6904 0.65378 0.58706 0.0
C767 C 0.6347 0.65725 0.57326 0.0
H768 H 0.88243 0.40838 0.47832 0.0
H769 H 0.00792 0.40392 0.55131 0.0
H770 H 0.92395 0.40329 0.58653 0.0
H771 H 0.81362 0.405 0.59632 0.0
H772 H 0.69148 0.41116 0.52209 0.0
H773 H 0.77525 0.40981 0.48762 0.0
C774 C 0.89165 0.40722 0.50193 0.0
C775 C 0.95131 0.40622 0.51218 0.0
C776 C 0.84354 0.40705 0.52184 0.0
C777 C 0.9623 0.4048 0.54286 0.0
C778 C 0.91431 0.40438 0.56298 0.0
C779 C 0.80571 0.40578 0.57259 0.0
C780 C 0.74666 0.40817 0.56167 0.0
C781 C 0.85458 0.40556 0.55272 0.0
C782 C 0.73667 0.40946 0.53094 0.0
C783 C 0.78448 0.4087 0.51121 0.0
H784 H 0.16046 0.02931 0.04201 0.0
H785 H 0.26443 0.07846 0.08987 0.0
H786 H 0.34345 0.05059 0.09898 0.0
H787 H 0.38475 1.01225 0.09221 0.0
H788 H 0.27927 0.96279 0.04558 0.0
H789 H 0.19952 0.99045 0.03736 0.0
C790 C 0.20038 0.03384 0.0545 0.0
C791 C 0.20634 0.05596 0.06526 0.0
C792 C 0.24555 1.01758 0.05993 0.0
C793 C 0.2582 0.06153 0.08164 0.0
C794 C 0.30367 0.04561 0.0867 0.0
C795 C 0.34421 1.00756 0.08033 0.0
C796 C 0.33816 0.98541 0.06962 0.0
C797 C 0.29807 0.02359 0.07583 0.0
C798 C 0.28498 0.97956 0.05446 0.0
C799 C 0.23941 0.99545 0.04954 0.0
H800 H 0.60368 1.01566 0.44719 0.0
H801 H 0.73926 0.96363 0.44991 0.0
H802 H 0.81759 0.99222 0.45414 0.0
H803 H 0.84855 0.03205 0.45533 0.0
H804 H 0.71345 0.08422 0.45245 0.0
H805 H 0.63466 0.05558 0.44917 0.0
C806 C 0.65026 1.01047 0.44855 0.0
C807 C 0.66488 0.98726 0.44822 0.0
C808 C 0.6956 0.02712 0.45064 0.0
C809 C 0.72594 0.98116 0.45049 0.0
C810 C 0.7711 0.99759 0.45268 0.0
C811 C 0.80195 0.03726 0.4543 0.0
C812 C 0.78753 0.06048 0.45408 0.0
C813 C 0.75655 0.02063 0.45262 0.0
C814 C 0.72648 0.06664 0.45224 0.0
C815 C 0.68115 0.0502 0.45056 0.0
H816 H 0.63951 0.02266 0.91025 0.0
H817 H 0.74633 0.06516 0.85234 0.0
H818 H 0.82266 0.03602 0.84957 0.0
H819 H 0.85988 0.99843 0.86357 0.0
H820 H 0.75218 0.95506 0.91955 0.0
H821 H 0.67509 0.98435 0.92275 0.0
C822 C 0.67906 0.02547 0.89675 0.0
C823 C 0.68717 0.04629 0.88187 0.0
C824 C 0.7228 1.00844 0.8949 0.0
C825 C 0.7392 0.04959 0.86463 0.0
C826 C 0.78292 0.03284 0.86284 0.0
C827 C 0.81972 0.99551 0.87663 0.0
C828 C 0.81179 0.97474 0.89142 0.0
C829 C 0.77545 1.01229 0.87806 0.0
C830 C 0.75903 0.97093 0.90784 0.0
C831 C 0.71508 0.98767 0.90972 0.0
H832 H 0.23943 0.97423 0.61322 0.0
H833 H 0.09564 1.01081 0.65483 0.0
H834 H 0.15814 0.04466 0.65597 0.0
H835 H 0.25454 0.06413 0.64544 0.0
H836 H 0.39874 0.02692 0.60548 0.0
H837 H 0.33572 0.99316 0.60392 0.0
C838 C 0.22175 0.98944 0.62295 0.0
C839 C 0.16241 0.98971 0.63388 0.0
C840 C 0.25828 1.0089 0.62387 0.0
C841 C 0.14058 1.00994 0.64586 0.0
C842 C 0.17652 0.02939 0.64666 0.0
C843 C 0.27196 0.04867 0.63626 0.0
C844 C 0.33147 0.04811 0.62565 0.0
C845 C 0.23543 0.02913 0.63564 0.0
C846 C 0.35349 0.02779 0.61413 0.0
C847 C 0.31733 1.00847 0.61311 0.0
H848 H 0.88542 0.51079 0.08648 0.0
H849 H 0.7688 0.46185 0.0455 0.0
H850 H 0.69008 0.49015 0.04002 0.0
H851 H 0.65397 0.52904 0.04633 0.0
H852 H 0.76941 0.57813 0.0877 0.0
H853 H 0.84829 0.54973 0.09367 0.0
C854 C 0.8429 0.50636 0.07624 0.0
C855 C 0.83335 0.4841 0.06643 0.0
C856 C 0.79727 0.52281 0.0733 0.0
C857 C 0.77745 0.47867 0.05356 0.0
C858 C 0.73233 0.49493 0.05027 0.0
C859 C 0.69645 0.53354 0.05658 0.0
C860 C 0.70547 0.55575 0.06656 0.0
C861 C 0.74169 0.51707 0.06 0.0
C862 C 0.76067 0.56116 0.08016 0.0
C863 C 0.80609 0.54492 0.0834 0.0
H864 H 0.2276 0.5709 0.46719 0.0
H865 H 0.38523 0.52916 0.45932 0.0
H866 H 0.32249 0.49546 0.45745 0.0
H867 H 0.22294 0.47763 0.45713 0.0
H868 H 0.06444 0.51881 0.46517 0.0
H869 H 0.127 0.55268 0.4676 0.0
C870 C 0.24812 0.55445 0.46489 0.0
C871 C 0.3113 0.5527 0.4636 0.0
C872 C 0.21151 0.53491 0.46383 0.0
C873 C 0.33699 0.53112 0.46088 0.0
C874 C 0.30104 0.51176 0.45965 0.0
C875 C 0.20194 0.49392 0.45978 0.0
C876 C 0.13876 0.49544 0.46086 0.0
C877 C 0.23828 0.51342 0.46117 0.0
C878 C 0.11273 0.51695 0.46389 0.0
C879 C 0.1486 0.53642 0.46538 0.0
H880 H 0.37027 0.498 0.90539 0.0
H881 H 0.26631 0.45809 0.84439 0.0
H882 H 0.19099 0.48803 0.84067 0.0
H883 H 0.15487 0.52564 0.85489 0.0
H884 H 0.25874 0.56484 0.91695 0.0
H885 H 0.33442 0.53531 0.91961 0.0
C886 C 0.33157 0.49597 0.89098 0.0
C887 C 0.32407 0.47588 0.87511 0.0
C888 C 0.28844 0.51317 0.88908 0.0
C889 C 0.27291 0.47332 0.85702 0.0
C890 C 0.22994 0.49046 0.85481 0.0
C891 C 0.1938 0.52767 0.86914 0.0
C892 C 0.2011 0.54759 0.88549 0.0
C893 C 0.2371 0.51044 0.87086 0.0
C894 C 0.25233 0.54995 0.90365 0.0
C895 C 0.29556 0.53297 0.90537 0.0
H896 H 0.87101 0.53391 0.63867 0.0
H897 H 0.72451 0.58162 0.64189 0.0
H898 H 0.65256 0.55077 0.64209 0.0
H899 H 0.6301 0.51024 0.64079 0.0
H900 H 0.77659 0.46247 0.64016 0.0
H901 H 0.84866 0.49334 0.63959 0.0
C902 C 0.82352 0.53774 0.63978 0.0
C903 C 0.80418 0.56043 0.64017 0.0
C904 C 0.78172 0.51977 0.64027 0.0
C905 C 0.74179 0.56462 0.64116 0.0
C906 C 0.70012 0.54685 0.64144 0.0
C907 C 0.67766 0.50641 0.64092 0.0
C908 C 0.69698 0.48372 0.64043 0.0
C909 C 0.71949 0.52436 0.64094 0.0
C910 C 0.75938 0.47951 0.64012 0.0
C911 C 0.80108 0.49726 0.63996 0.0
H912 H 0.89507 0.29035 0.08327 0.0
H913 H 0.0606 0.32223 0.05645 0.0
H914 H 0.10871 0.28522 0.05231 0.0
H915 H 0.1067 0.24399 0.06294 0.0
H916 H 0.93981 0.21193 0.08701 0.0
H917 H 0.88852 0.2486 0.08547 0.0
C918 C 0.94113 0.28904 0.07569 0.0
C919 C 0.97441 0.3089 0.07021 0.0
C920 C 0.96823 0.26769 0.07332 0.0
C921 C 0.03408 0.30715 0.06047 0.0
C922 C 0.06169 0.286 0.05844 0.0
C923 C 0.05883 0.24513 0.06715 0.0
C924 C 0.02682 0.2255 0.07525 0.0
C925 C 0.02976 0.26621 0.06579 0.0
C926 C 0.96489 0.22691 0.08063 0.0
C927 C 0.93584 0.24785 0.07991 0.0
H928 H 0.47577 0.7959 0.0233 0.0
H929 H 0.48883 0.81899 0.11361 0.0
H930 H 0.50741 0.78048 0.13061 0.0
H931 H 0.52494 0.74068 0.11986 0.0
H932 H 0.52013 0.71799 0.02924 0.0
H933 H 0.49293 0.75595 0.01256 0.0
C934 C 0.48315 0.79274 0.04671 0.0
C935 C 0.48132 0.81076 0.06697 0.0
C936 C 0.49538 0.77051 0.05637 0.0
C937 C 0.48946 0.80577 0.09732 0.0
C938 C 0.50054 0.78364 0.10712 0.0
C939 C 0.51868 0.74389 0.09639 0.0
C940 C 0.52567 0.72621 0.07591 0.0
C941 C 0.50449 0.76595 0.08681 0.0
C942 C 0.51512 0.73096 0.04568 0.0
C943 C 0.49986 0.75281 0.03605 0.0
H944 H 0.48711 0.79995 0.48773 0.0
H945 H 0.49473 0.82139 0.39614 0.0
H946 H 0.46505 0.7834 0.38063 0.0
H947 H 0.44335 0.74357 0.39326 0.0
H948 H 0.43575 0.72273 0.48536 0.0
H949 H 0.4611 0.76085 0.50038 0.0
C950 C 0.48242 0.79634 0.46435 0.0
C951 C 0.49375 0.81348 0.44312 0.0
C952 C 0.46631 0.77445 0.45567 0.0
C953 C 0.48596 0.8086 0.41294 0.0
C954 C 0.46952 0.78681 0.40409 0.0
C955 C 0.44647 0.7473 0.41665 0.0
C956 C 0.43792 0.72993 0.43804 0.0
C957 C 0.46047 0.7695 0.42527 0.0
C958 C 0.44306 0.73536 0.46824 0.0
C959 C 0.45711 0.75732 0.47693 0.0
H960 H 0.06531 0.29602 0.48657 0.0
H961 H 0.98262 0.32759 0.40984 0.0
H962 H 0.93961 0.29134 0.39566 0.0
H963 H 0.92814 0.25058 0.40406 0.0
H964 H 0.01644 0.21867 0.47904 0.0
H965 H 0.05439 0.25526 0.49479 0.0
C966 C 0.03848 0.2951 0.46655 0.0
C967 C 0.02794 0.31477 0.44924 0.0
C968 C 0.01473 0.27406 0.45816 0.0
C969 C 0.99144 0.31299 0.42381 0.0
C970 C 0.96703 0.29215 0.41555 0.0
C971 C 0.95614 0.25142 0.4237 0.0
C972 C 0.96947 0.23155 0.44012 0.0
C973 C 0.97889 0.27254 0.43239 0.0
C974 C 0.00475 0.23345 0.46595 0.0
C975 C 0.02689 0.25445 0.47493 0.0
H976 H 0.89668 0.77921 0.87184 0.0
H977 H 0.05705 0.81945 0.88443 0.0
H978 H 0.11635 0.78542 0.89081 0.0
H979 H 0.12357 0.74449 0.8919 0.0
H980 H 0.96546 0.70391 0.87517 0.0
H981 H 0.90464 0.73792 0.87155 0.0
C982 C 0.94464 0.78063 0.87568 0.0
C983 C 0.97188 0.80207 0.87775 0.0
C984 C 0.97909 0.7609 0.87868 0.0
C985 C 0.03418 0.80336 0.88324 0.0
C986 C 0.06846 0.78383 0.88669 0.0
C987 C 0.07604 0.74291 0.88709 0.0
C988 C 0.04972 0.72144 0.88365 0.0
C989 C 0.04144 0.76255 0.8843 0.0
C990 C 0.9874 0.72003 0.87821 0.0
C991 C 0.95242 0.73955 0.87592 0.0
H992 H 0.61064 0.24254 0.85826 0.0
H993 H 0.48613 0.20703 0.91567 0.0
H994 H 0.42854 0.24139 0.92176 0.0
H995 H 0.41265 0.28153 0.91076 0.0
H996 H 0.53824 0.31765 0.85507 0.0
H997 H 0.59734 0.28322 0.84912 0.0
C998 C 0.57135 0.24228 0.87235 0.0
C999 C 0.55266 0.22195 0.88609 0.0
C1000 C 0.53875 0.2623 0.87628 0.0
C1001 C 0.50111 0.22212 0.90413 0.0
C1002 C 0.46824 0.24189 0.9079 0.0
C1003 C 0.45284 0.28181 0.89724 0.0
C1004 C 0.47087 0.30203 0.88324 0.0
C1005 C 0.48641 0.26201 0.89395 0.0
C1006 C 0.52372 0.30232 0.86626 0.0
C1007 C 0.55725 0.28261 0.8627 0.0
H1008 H 0.39523 0.24883 0.61152 0.0
H1009 H 0.54899 0.20989 0.64022 0.0
H1010 H 0.60942 0.24432 0.64261 0.0
H1011 H 0.61789 0.28543 0.63807 0.0
H1012 H 0.46485 0.32452 0.60841 0.0
H1013 H 0.40453 0.29013 0.60586 0.0
C1014 C 0.44185 0.24783 0.61847 0.0
C1015 C 0.46727 0.22664 0.62576 0.0
C1016 C 0.4764 0.26779 0.61995 0.0
C1017 C 0.52821 0.2258 0.63417 0.0
C1018 C 0.56275 0.24555 0.63576 0.0
C1019 C 0.57163 0.2866 0.63068 0.0
C1020 C 0.54645 0.30786 0.62344 0.0
C1021 C 0.53726 0.26665 0.62882 0.0
C1022 C 0.48572 0.30865 0.61451 0.0
C1023 C 0.45113 0.28889 0.61283 0.0
H1024 H 0.00636 0.72994 0.60635 0.0
H1025 H 0.87596 0.75358 0.66918 0.0
H1026 H 0.92015 0.79119 0.66735 0.0
H1027 H 0.9957 0.81792 0.64778 0.0
H1028 H 0.12821 0.79449 0.58607 0.0
H1029 H 0.08395 0.75665 0.5876 0.0
C1030 C 0.98814 0.74326 0.61985 0.0
C1031 C 0.93735 0.73885 0.6376 0.0
C1032 C 0.01403 0.76511 0.61877 0.0
C1033 C 0.9142 0.75647 0.65484 0.0
C1034 C 0.9396 0.77807 0.65391 0.0
C1035 C 0.01442 0.80458 0.63446 0.0
C1036 C 0.06511 0.80911 0.6168 0.0
C1037 C 0.98915 0.7827 0.63575 0.0
C1038 C 0.08945 0.79146 0.60003 0.0
C1039 C 0.06411 0.76978 0.60087 0.0
H1040 H 0.06683 0.14507 0.21358 0.0
H1041 H 0.93254 0.09509 0.19276 0.0
H1042 H 0.90701 0.09136 0.24555 0.0
H1043 H 0.92546 0.1017 0.29761 0.0
H1044 H 0.0544 0.15445 0.31684 0.0
H1045 H 0.08089 0.15697 0.26488 0.0
C1046 C 0.03192 0.13336 0.22065 0.0
C1047 C 1.00184 0.12024 0.19947 0.0
C1048 C 0.0173 0.13151 0.25081 0.0
C1049 C 0.95611 0.1054 0.20874 0.0
C1050 C 0.94185 0.10319 0.2389 0.0
C1051 C 0.95887 0.11397 0.29058 0.0
C1052 C 0.98831 0.12757 0.31174 0.0
C1053 C 0.97245 0.11609 0.26018 0.0
C1054 C 0.0321 0.14311 0.3017 0.0
C1055 C 0.04684 0.14487 0.27173 0.0
H1056 H 0.51281 0.86609 0.20764 0.0
H1057 H 0.52235 0.93849 0.19743 0.0
H1058 H 0.5393 0.94237 0.25066 0.0
H1059 H 0.54872 0.92538 0.3004 0.0
H1060 H 0.54341 0.85302 0.31114 0.0
H1061 H 0.52829 0.84885 0.25758 0.0
C1062 C 0.51871 0.88267 0.21716 0.0
C1063 C 0.5162 0.90199 0.19863 0.0
C1064 C 0.52939 0.88477 0.24787 0.0
C1065 C 0.52449 0.92337 0.21118 0.0
C1066 C 0.534 0.92561 0.24163 0.0
C1067 C 0.54445 0.9087 0.29097 0.0
C1068 C 0.54684 0.88954 0.30972 0.0
C1069 C 0.5362 0.90646 0.26021 0.0
C1070 C 0.54205 0.86801 0.29716 0.0
C1071 C 0.53303 0.86565 0.26656 0.0
H1072 H 0.03739 0.89879 0.80908 0.0
H1073 H 0.85129 0.89475 0.78198 0.0
H1074 H 0.88239 0.89466 0.72981 0.0
H1075 H 0.96272 0.89533 0.69217 0.0
H1076 H 0.14853 0.8992 0.71989 0.0
H1077 H 0.11707 0.89956 0.77181 0.0
C1078 C 1.00334 0.89797 0.79183 0.0
C1079 C 0.94187 0.89683 0.7995 0.0
C1080 C 0.02162 0.89774 0.76206 0.0
C1081 C 0.89873 0.89573 0.77675 0.0
C1082 C 0.9166 0.8956 0.74694 0.0
C1083 C 0.99646 0.89618 0.70955 0.0
C1084 C 0.05812 0.89716 0.70209 0.0
C1085 C 0.97795 0.8965 0.73936 0.0
C1086 C 0.10098 0.89836 0.72494 0.0
C1087 C 0.08294 0.89862 0.75463 0.0
H1088 H 0.62082 0.13708 0.78167 0.0
H1089 H 0.45325 0.12136 0.82545 0.0
H1090 H 0.40029 0.12224 0.77838 0.0
H1091 H 0.39965 0.12811 0.7244 0.0
H1092 H 0.56632 0.14345 0.67984 0.0
H1093 H 0.62043 0.14215 0.72694 0.0
C1094 C 0.57291 0.13367 0.78081 0.0
C1095 C 0.54141 0.12926 0.80723 0.0
C1096 C 0.5419 0.13428 0.75333 0.0
C1097 C 0.47903 0.12497 0.8056 0.0
C1098 C 0.44831 0.12546 0.7786 0.0
C1099 C 0.44773 0.13122 0.72503 0.0
C1100 C 0.47855 0.13592 0.69857 0.0
C1101 C 0.47901 0.13029 0.75229 0.0
C1102 C 0.54114 0.13977 0.69984 0.0
C1103 C 0.57238 0.13902 0.72684 0.0
H1104 H 0.41663 0.64177 0.30378 0.0
H1105 H 0.54066 0.58831 0.32528 0.0
H1106 H 0.56462 0.58415 0.27249 0.0
H1107 H 0.55038 0.59608 0.22047 0.0
H1108 H 0.43403 0.6527 0.20036 0.0
H1109 H 0.40565 0.65472 0.25206 0.0
C1110 C 0.44876 0.62919 0.29675 0.0
C1111 C 0.47673 0.61527 0.31807 0.0
C1112 C 0.46317 0.62731 0.2666 0.0
C1113 C 0.51873 0.59916 0.30904 0.0
C1114 C 0.53226 0.59679 0.27894 0.0
C1115 C 0.51931 0.60906 0.22725 0.0
C1116 C 0.49419 0.62402 0.20594 0.0
C1117 C 0.50492 0.61087 0.2575 0.0
C1118 C 0.45311 0.64042 0.21562 0.0
C1119 C 0.43727 0.64185 0.24546 0.0
H1120 H 0.03483 0.43338 0.31329 0.0
H1121 H 0.09556 0.36425 0.3149 0.0
H1122 H 0.08214 0.36229 0.26114 0.0
H1123 H 0.04626 0.37941 0.21425 0.0
H1124 H 0.98231 0.44813 0.21336 0.0
H1125 H 1.0026 0.45087 0.26646 0.0
C1126 C 0.04496 0.41783 0.30192 0.0
C1127 C 0.06568 0.39893 0.31818 0.0
C1128 C 0.03594 0.41668 0.27119 0.0
C1129 C 0.07996 0.37911 0.30296 0.0
C1130 C 0.07183 0.37792 0.27224 0.0
C1131 C 0.03758 0.39509 0.22561 0.0
C1132 C 0.01256 0.41352 0.2099 0.0
C1133 C 0.04898 0.39649 0.2562 0.0
C1134 C 1.00081 0.43361 0.22502 0.0
C1135 C 0.01264 0.43522 0.25533 0.0
H1136 H 0.54134 0.38912 0.81518 0.0
H1137 H 0.35586 0.39168 0.78666 0.0
H1138 H 0.38855 0.39303 0.73474 0.0
H1139 H 0.47 0.39405 0.69787 0.0
H1140 H 0.65517 0.39183 0.72701 0.0
H1141 H 0.62213 0.38979 0.77866 0.0
C1142 C 0.50779 0.38994 0.79768 0.0
C1143 C 0.44607 0.39032 0.80481 0.0
C1144 C 0.52693 0.39081 0.76811 0.0
C1145 C 0.4035 0.39135 0.78178 0.0
C1146 C 0.42225 0.39215 0.75214 0.0
C1147 C 0.50325 0.39308 0.71549 0.0
C1148 C 0.56514 0.39311 0.70858 0.0
C1149 C 0.48387 0.39198 0.74509 0.0
C1150 C 0.60744 0.39185 0.7317 0.0
C1151 C 0.58851 0.39069 0.76121 0.0
H1152 H 0.97393 0.63594 0.81928 0.0
H1153 H 0.15707 0.63636 0.78794 0.0
H1154 H 0.12037 0.64046 0.73669 0.0
H1155 H 0.0359 0.64403 0.70104 0.0
H1156 H 0.85331 0.64365 0.73325 0.0
H1157 H 0.89042 0.63952 0.78415 0.0
C1158 C 0.00614 0.63687 0.80132 0.0
C1159 C 0.06841 0.63578 0.80753 0.0
C1160 C 0.98471 0.63932 0.77211 0.0
C1161 C 0.10907 0.63708 0.78384 0.0
C1162 C 0.08801 0.63947 0.75456 0.0
C1163 C 1.00413 0.64311 0.71919 0.0
C1164 C 0.94167 0.64421 0.71327 0.0
C1165 C 0.02589 0.64065 0.74845 0.0
C1166 C 0.90138 0.6429 0.7371 0.0
C1167 C 0.92265 0.6405 0.76622 0.0
loop_
_geom_bond_atom_site_label_1
_geom_bond_atom_site_label_2
_geom_bond_distance
_geom_bond_site_symmetry_2
_ccdc_geom_bond_type
Co0 N4 2.148 . S
Co0 N10 2.128 . S
Co0 N20 2.194 . S
Co0 O25 2.351 . S
Co0 O26 2.155 . S
Co0 O27 2.096 . S
C1 N4 1.301 . S
C1 N5 1.328 . S
C1 H6 0.930 . S
C2 C3 1.333 . S
C2 N4 1.317 . S
C2 H7 0.930 . S
C3 C2 1.333 . S
C3 N5 1.350 . S
C3 H29 0.931 . S
N4 Co0 2.148 . S
N4 C1 1.301 . S
N4 C2 1.317 . S
N5 C1 1.328 . S
N5 C3 1.350 . S
H6 C1 0.930 . S
H7 C2 0.930 . S
C8 O9 1.224 . S
C8 O27 1.247 1_655 S
O9 C8 1.224 . S
N10 Co0 2.128 . S
N10 C11 1.355 . S
N10 C13 1.311 . S
C11 N10 1.355 . S
C11 C12 1.363 . S
C11 H23 0.929 . S
C12 C11 1.363 . S
C12 N14 1.375 . S
C12 H30 0.931 . S
C13 N10 1.311 . S
C13 N14 1.347 . S
C13 H24 0.929 1_455 S
N14 C12 1.375 . S
N14 C13 1.347 . S
C15 C18 1.365 . S
C15 N20 1.328 . S
C15 H21 0.929 . S
C16 C17 1.362 . S
C16 C19 1.378 . S
C16 H31 0.929 1_455 S
C17 C16 1.362 . S
C17 C18 1.366 . S
C18 C15 1.365 . S
C18 C17 1.366 . S
C18 H32 0.930 . S
C19 C16 1.378 . S
C19 N20 1.315 . S
C19 H22 0.930 1_455 S
N20 Co0 2.194 . S
N20 C15 1.328 . S
N20 C19 1.315 . S
H21 C15 0.929 . S
H22 C19 0.930 1_655 S
H23 C11 0.929 . S
H24 C13 0.929 1_655 S
O25 Co0 2.351 . S
O25 C28 1.244 . S
O26 Co0 2.155 . S
O26 C28 1.240 . S
O27 Co0 2.096 . S
O27 C8 1.247 1_455 S
C28 O25 1.244 . S
C28 O26 1.240 . S
H29 C3 0.931 . S
H30 C12 0.931 . S
H31 C16 0.929 1_655 S
H32 C18 0.930 . S
Co33 N37 2.148 . S
Co33 N43 2.128 . S
Co33 N53 2.194 . S
Co33 O58 2.351 . S
Co33 O59 2.155 . S
Co33 O60 2.096 . S
C34 N37 1.301 . S
C34 N38 1.328 . S
C34 H39 0.930 . S
C35 C36 1.333 . S
C35 N37 1.317 . S
C35 H40 0.930 . S
C36 C35 1.333 . S
C36 N38 1.350 . S
C36 H62 0.931 . S
N37 Co33 2.148 . S
N37 C34 1.301 . S
N37 C35 1.317 . S
N38 C34 1.328 . S
N38 C36 1.350 . S
H39 C34 0.930 . S
H40 C35 0.930 . S
C41 O42 1.224 . S
C41 O60 1.247 . S
O42 C41 1.224 . S
N43 Co33 2.128 . S
N43 C44 1.355 . S
N43 C46 1.311 . S
C44 N43 1.355 . S
C44 C45 1.363 . S
C44 H56 0.929 . S
C45 C44 1.363 . S
C45 N47 1.375 . S
C45 H63 0.931 . S
C46 N43 1.311 . S
C46 N47 1.347 . S
C46 H57 0.929 . S
N47 C45 1.375 . S
N47 C46 1.347 . S
C48 C51 1.365 . S
C48 N53 1.328 . S
C48 H54 0.929 . S
C49 C50 1.362 . S
C49 C52 1.378 . S
C49 H64 0.929 . S
C50 C49 1.362 . S
C50 C51 1.366 . S
C51 C48 1.365 . S
C51 C50 1.366 . S
C51 H65 0.930 . S
C52 C49 1.378 . S
C52 N53 1.315 . S
C52 H55 0.930 . S
N53 Co33 2.194 . S
N53 C48 1.328 . S
N53 C52 1.315 . S
H54 C48 0.929 . S
H55 C52 0.930 . S
H56 C44 0.929 . S
H57 C46 0.929 . S
O58 Co33 2.351 . S
O58 C61 1.244 . S
O59 Co33 2.155 . S
O59 C61 1.240 . S
O60 Co33 2.096 . S
O60 C41 1.247 . S
C61 O58 1.244 . S
C61 O59 1.240 . S
H62 C36 0.931 . S
H63 C45 0.931 . S
H64 C49 0.929 . S
H65 C51 0.930 . S
Co66 N70 2.148 . S
Co66 N76 2.128 . S
Co66 N86 2.194 . S
Co66 O91 2.351 . S
Co66 O92 2.155 . S
Co66 O93 2.096 . S
C67 N70 1.301 . S
C67 N71 1.328 . S
C67 H72 0.930 . S
C68 C69 1.333 . S
C68 N70 1.317 . S
C68 H73 0.930 . S
C69 C68 1.333 . S
C69 N71 1.350 . S
C69 H95 0.931 . S
N70 Co66 2.148 . S
N70 C67 1.301 . S
N70 C68 1.317 . S
N71 C67 1.328 . S
N71 C69 1.350 . S
H72 C67 0.930 . S
H73 C68 0.930 . S
C74 O75 1.224 . S
C74 O93 1.247 . S
O75 C74 1.224 . S
N76 Co66 2.128 . S
N76 C77 1.355 . S
N76 C79 1.311 . S
C77 N76 1.355 . S
C77 C78 1.363 . S
C77 H89 0.929 . S
C78 C77 1.363 . S
C78 N80 1.375 . S
C78 H96 0.931 . S
C79 N76 1.311 . S
C79 N80 1.347 . S
C79 H90 0.929 . S
N80 C78 1.375 . S
N80 C79 1.347 . S
C81 C84 1.365 . S
C81 N86 1.328 . S
C81 H87 0.929 . S
C82 C83 1.362 . S
C82 C85 1.378 . S
C82 H97 0.929 . S
C83 C82 1.362 . S
C83 C84 1.366 . S
C84 C81 1.365 . S
C84 C83 1.366 . S
C84 H98 0.930 . S
C85 C82 1.378 . S
C85 N86 1.315 . S
C85 H88 0.930 . S
N86 Co66 2.194 . S
N86 C81 1.328 . S
N86 C85 1.315 . S
H87 C81 0.929 . S
H88 C85 0.930 . S
H89 C77 0.929 . S
H90 C79 0.929 . S
O91 Co66 2.351 . S
O91 C94 1.244 . S
O92 Co66 2.155 . S
O92 C94 1.240 . S
O93 Co66 2.096 . S
O93 C74 1.247 . S
C94 O91 1.244 . S
C94 O92 1.240 . S
H95 C69 0.931 . S
H96 C78 0.931 . S
H97 C82 0.929 . S
H98 C84 0.930 . S
Co99 N103 2.148 . S
Co99 N109 2.128 . S
Co99 N119 2.194 . S
Co99 O124 2.351 . S
Co99 O125 2.155 . S
Co99 O126 2.096 . S
C100 N103 1.301 . S
C100 N104 1.328 . S
C100 H105 0.930 . S
C101 C102 1.333 . S
C101 N103 1.317 . S
C101 H106 0.930 . S
C102 C101 1.333 . S
C102 N104 1.350 . S
C102 H128 0.931 . S
N103 Co99 2.148 . S
N103 C100 1.301 . S
N103 C101 1.317 . S
N104 C100 1.328 . S
N104 C102 1.350 . S
H105 C100 0.930 . S
H106 C101 0.930 . S
C107 O108 1.224 . S
C107 O126 1.247 1_455 S
O108 C107 1.224 . S
N109 Co99 2.128 . S
N109 C110 1.355 . S
N109 C112 1.311 . S
C110 N109 1.355 . S
C110 C111 1.363 . S
C110 H122 0.929 . S
C111 C110 1.363 . S
C111 N113 1.375 . S
C111 H129 0.931 . S
C112 N109 1.311 . S
C112 N113 1.347 . S
C112 H123 0.929 1_655 S
N113 C111 1.375 . S
N113 C112 1.347 . S
C114 C117 1.365 . S
C114 N119 1.328 . S
C114 H120 0.929 . S
C115 C116 1.369 . S
C115 C118 1.379 . S
C115 H130 0.921 1_655 S
C116 C115 1.369 . S
C116 C117 1.366 . S
C117 C114 1.365 . S
C117 C116 1.366 . S
C117 H131 0.930 . S
C118 C115 1.379 . S
C118 N119 1.315 . S
C118 H121 0.930 1_655 S
N119 Co99 2.194 . S
N119 C114 1.328 . S
N119 C118 1.315 . S
H120 C114 0.929 . S
H121 C118 0.930 1_455 S
H122 C110 0.929 . S
H123 C112 0.929 1_455 S
O124 Co99 2.351 . S
O124 C127 1.244 . S
O125 Co99 2.155 . S
O125 C127 1.240 . S
O126 Co99 2.096 . S
O126 C107 1.247 1_655 S
C127 O124 1.244 . S
C127 O125 1.240 . S
H128 C102 0.931 . S
H129 C111 0.931 . S
H130 C115 0.921 1_455 S
H131 C117 0.930 . S
Co132 N136 2.148 . S
Co132 N142 2.128 . S
Co132 N152 2.194 . S
Co132 O157 2.351 . S
Co132 O158 2.155 . S
Co132 O159 2.096 . S
C133 N136 1.301 . S
C133 N137 1.328 . S
C133 H138 0.930 . S
C134 C135 1.333 . S
C134 N136 1.317 . S
C134 H139 0.930 . S
C135 C134 1.333 . S
C135 N137 1.350 . S
C135 H161 0.931 . S
N136 Co132 2.148 . S
N136 C133 1.301 . S
N136 C134 1.317 . S
N137 C133 1.328 . S
N137 C135 1.350 . S
H138 C133 0.930 . S
H139 C134 0.930 . S
C140 O141 1.224 . S
C140 O159 1.247 . S
O141 C140 1.224 . S
N142 Co132 2.128 . S
N142 C143 1.355 . S
N142 C145 1.311 . S
C143 N142 1.355 . S
C143 C144 1.363 . S
C143 H155 0.929 . S
C144 C143 1.363 . S
C144 N146 1.375 . S
C144 H162 0.931 . S
C145 N142 1.311 . S
C145 N146 1.347 . S
C145 H156 0.929 . S
N146 C144 1.375 . S
N146 C145 1.347 . S
C147 C150 1.365 . S
C147 N152 1.328 1_455 S
C147 H153 0.929 . S
C148 C149 1.362 . S
C148 C151 1.378 1_455 S
C148 H163 0.929 . S
C149 C148 1.362 . S
C149 C150 1.366 . S
C150 C147 1.365 . S
C150 C149 1.366 . S
C150 H164 0.930 . S
C151 C148 1.378 1_655 S
C151 N152 1.315 . S
C151 H154 0.930 . S
N152 Co132 2.194 . S
N152 C147 1.328 1_655 S
N152 C151 1.315 . S
H153 C147 0.929 . S
H154 C151 0.930 . S
H155 C143 0.929 . S
H156 C145 0.929 . S
O157 Co132 2.351 . S
O157 C160 1.244 . S
O158 Co132 2.155 . S
O158 C160 1.240 . S
O159 Co132 2.096 . S
O159 C140 1.247 . S
C160 O157 1.244 . S
C160 O158 1.240 . S
H161 C135 0.931 . S
H162 C144 0.931 . S
H163 C148 0.929 . S
H164 C150 0.930 . S
Co165 N169 2.148 . S
Co165 N175 2.128 . S
Co165 N185 2.194 . S
Co165 O190 2.351 . S
Co165 O191 2.155 . S
Co165 O192 2.096 . S
C166 N169 1.301 . S
C166 N170 1.328 . S
C166 H171 0.930 . S
C167 C168 1.333 . S
C167 N169 1.317 . S
C167 H172 0.930 . S
C168 C167 1.333 . S
C168 N170 1.350 . S
C168 H194 0.931 . S
N169 Co165 2.148 . S
N169 C166 1.301 . S
N169 C167 1.317 . S
N170 C166 1.328 . S
N170 C168 1.350 . S
H171 C166 0.930 . S
H172 C167 0.930 . S
C173 O174 1.224 . S
C173 O192 1.247 . S
O174 C173 1.224 . S
N175 Co165 2.128 . S
N175 C176 1.355 . S
N175 C178 1.311 . S
C176 N175 1.355 . S
C176 C177 1.363 . S
C176 H188 0.929 . S
C177 C176 1.363 . S
C177 N179 1.375 . S
C177 H195 0.931 . S
C178 N175 1.311 . S
C178 N179 1.347 . S
C178 H189 0.929 . S
N179 C177 1.375 . S
N179 C178 1.347 . S
C180 C183 1.365 . S
C180 N185 1.328 . S
C180 H186 0.929 . S
C181 C182 1.362 . S
C181 C184 1.378 . S
C181 H196 0.929 . S
C182 C181 1.362 . S
C182 C183 1.366 . S
C183 C180 1.365 . S
C183 C182 1.366 . S
C183 H197 0.930 . S
C184 C181 1.378 . S
C184 N185 1.315 . S
C184 H187 0.930 . S
N185 Co165 2.194 . S
N185 C180 1.328 . S
N185 C184 1.315 . S
H186 C180 0.929 . S
H187 C184 0.930 . S
H188 C176 0.929 . S
H189 C178 0.929 . S
O190 Co165 2.351 . S
O190 C193 1.244 . S
O191 Co165 2.155 . S
O191 C193 1.240 . S
O192 Co165 2.096 . S
O192 C173 1.247 . S
C193 O190 1.244 . S
C193 O191 1.240 . S
H194 C168 0.931 . S
H195 C177 0.931 . S
H196 C181 0.929 . S
H197 C183 0.930 . S
Co198 N202 2.148 . S
Co198 N208 2.128 . S
Co198 N218 2.194 . S
Co198 O223 2.351 . S
Co198 O224 2.155 . S
Co198 O225 2.096 . S
C199 N202 1.301 . S
C199 N203 1.328 . S
C199 H204 0.930 . S
C200 C201 1.333 . S
C200 N202 1.317 . S
C200 H205 0.930 . S
C201 C200 1.333 . S
C201 N203 1.350 . S
C201 H227 0.931 . S
N202 Co198 2.148 . S
N202 C199 1.301 . S
N202 C200 1.317 . S
N203 C199 1.328 . S
N203 C201 1.350 . S
H204 C199 0.930 . S
H205 C200 0.930 . S
C206 O207 1.224 . S
C206 O225 1.247 . S
O207 C206 1.224 . S
N208 Co198 2.128 . S
N208 C209 1.355 . S
N208 C211 1.311 . S
C209 N208 1.355 . S
C209 C210 1.363 . S
C209 H221 0.929 . S
C210 C209 1.363 . S
C210 N212 1.375 . S
C210 H228 0.931 . S
C211 N208 1.311 . S
C211 N212 1.347 . S
C211 H222 0.929 . S
N212 C210 1.375 . S
N212 C211 1.347 . S
C213 C216 1.365 . S
C213 N218 1.328 . S
C213 H219 0.929 . S
C214 C215 1.362 . S
C214 C217 1.378 . S
C214 H229 0.929 . S
C215 C214 1.362 . S
C215 C216 1.366 . S
C216 C213 1.365 . S
C216 C215 1.366 . S
C216 H230 0.930 . S
C217 C214 1.378 . S
C217 N218 1.315 . S
C217 H220 0.930 . S
N218 Co198 2.194 . S
N218 C213 1.328 . S
N218 C217 1.315 . S
H219 C213 0.929 . S
H220 C217 0.930 . S
H221 C209 0.929 . S
H222 C211 0.929 . S
O223 Co198 2.351 . S
O223 C226 1.244 . S
O224 Co198 2.155 . S
O224 C226 1.240 . S
O225 Co198 2.096 . S
O225 C206 1.247 . S
C226 O223 1.244 . S
C226 O224 1.240 . S
H227 C201 0.931 . S
H228 C210 0.931 . S
H229 C214 0.929 . S
H230 C216 0.930 . S
Co231 N235 2.148 . S
Co231 N241 2.128 . S
Co231 N251 2.194 . S
Co231 O256 2.351 . S
Co231 O257 2.155 . S
Co231 O258 2.096 . S
C232 N235 1.301 . S
C232 N236 1.328 . S
C232 H237 0.930 . S
C233 C234 1.333 . S
C233 N235 1.317 . S
C233 H238 0.930 . S
C234 C233 1.333 . S
C234 N236 1.350 . S
C234 H260 0.931 . S
N235 Co231 2.148 . S
N235 C232 1.301 . S
N235 C233 1.317 . S
N236 C232 1.328 . S
N236 C234 1.350 . S
H237 C232 0.930 . S
H238 C233 0.930 . S
C239 O240 1.224 . S
C239 O258 1.247 . S
O240 C239 1.224 . S
N241 Co231 2.128 . S
N241 C242 1.355 . S
N241 C244 1.311 . S
C242 N241 1.355 . S
C242 C243 1.363 . S
C242 H254 0.929 . S
C243 C242 1.363 . S
C243 N245 1.375 . S
C243 H261 0.931 . S
C244 N241 1.311 . S
C244 N245 1.347 . S
C244 H255 0.929 . S
N245 C243 1.375 . S
N245 C244 1.347 . S
C246 C249 1.365 . S
C246 N251 1.328 1_655 S
C246 H252 0.929 . S
C247 C248 1.362 . S
C247 C250 1.378 1_655 S
C247 H262 0.929 . S
C248 C247 1.362 . S
C248 C249 1.366 . S
C249 C246 1.365 . S
C249 C248 1.366 . S
C249 H263 0.930 . S
C250 C247 1.378 1_455 S
C250 N251 1.315 . S
C250 H253 0.930 . S
N251 Co231 2.194 . S
N251 C246 1.328 1_455 S
N251 C250 1.315 . S
H252 C246 0.929 . S
H253 C250 0.930 . S
H254 C242 0.929 . S
H255 C244 0.929 . S
O256 Co231 2.351 . S
O256 C259 1.244 . S
O257 Co231 2.155 . S
O257 C259 1.240 . S
O258 Co231 2.096 . S
O258 C239 1.247 . S
C259 O256 1.244 . S
C259 O257 1.240 . S
H260 C234 0.931 . S
H261 C243 0.931 . S
H262 C247 0.929 . S
H263 C249 0.930 . S
Co264 N268 2.148 . S
Co264 N274 2.128 . S
Co264 N284 2.194 . S
Co264 O289 2.351 . S
Co264 O290 2.155 . S
Co264 O291 2.096 . S
C265 N268 1.301 . S
C265 N269 1.328 . S
C265 H270 0.930 . S
C266 C267 1.333 . S
C266 N268 1.317 . S
C266 H271 0.930 . S
C267 C266 1.333 . S
C267 N269 1.350 . S
C267 H293 0.931 . S
N268 Co264 2.148 . S
N268 C265 1.301 . S
N268 C266 1.317 . S
N269 C265 1.328 . S
N269 C267 1.350 . S
H270 C265 0.930 . S
H271 C266 0.930 . S
C272 O273 1.224 . S
C272 O291 1.247 . S
O273 C272 1.224 . S
N274 Co264 2.128 . S
N274 C275 1.355 . S
N274 C277 1.311 . S
C275 N274 1.355 . S
C275 C276 1.363 . S
C275 H287 0.929 . S
C276 C275 1.363 . S
C276 N278 1.375 . S
C276 H294 0.931 . S
C277 N274 1.311 . S
C277 N278 1.347 . S
C277 H288 0.929 . S
N278 C276 1.375 . S
N278 C277 1.347 . S
C279 C282 1.365 . S
C279 N284 1.328 . S
C279 H285 0.929 . S
C280 C281 1.362 . S
C280 C283 1.378 . S
C280 H295 0.929 . S
C281 C280 1.362 . S
C281 C282 1.366 . S
C282 C279 1.365 . S
C282 C281 1.366 . S
C282 H296 0.930 . S
C283 C280 1.378 . S
C283 N284 1.315 . S
C283 H286 0.930 . S
N284 Co264 2.194 . S
N284 C279 1.328 . S
N284 C283 1.315 . S
H285 C279 0.929 . S
H286 C283 0.930 . S
H287 C275 0.929 . S
H288 C277 0.929 . S
O289 Co264 2.351 . S
O289 C292 1.244 . S
O290 Co264 2.155 . S
O290 C292 1.240 . S
O291 Co264 2.096 . S
O291 C272 1.247 . S
C292 O289 1.244 . S
C292 O290 1.240 . S
H293 C267 0.931 . S
H294 C276 0.931 . S
H295 C280 0.929 . S
H296 C282 0.930 . S
Co297 N301 2.148 . S
Co297 N307 2.128 . S
Co297 N317 2.194 . S
Co297 O322 2.351 . S
Co297 O323 2.155 . S
Co297 O324 2.096 . S
C298 N301 1.301 . S
C298 N302 1.328 . S
C298 H303 0.930 . S
C299 C300 1.333 . S
C299 N301 1.317 . S
C299 H304 0.930 . S
C300 C299 1.333 . S
C300 N302 1.350 . S
C300 H326 0.931 . S
N301 Co297 2.148 . S
N301 C298 1.301 . S
N301 C299 1.317 . S
N302 C298 1.328 . S
N302 C300 1.350 . S
H303 C298 0.930 . S
H304 C299 0.930 . S
C305 O306 1.224 . S
C305 O324 1.247 1_455 S
O306 C305 1.224 . S
N307 Co297 2.128 . S
N307 C308 1.355 . S
N307 C310 1.311 . S
C308 N307 1.355 . S
C308 C309 1.363 . S
C308 H320 0.929 . S
C309 C308 1.363 . S
C309 N311 1.375 . S
C309 H327 0.931 . S
C310 N307 1.311 . S
C310 N311 1.347 . S
C310 H321 0.929 1_655 S
N311 C309 1.375 . S
N311 C310 1.347 . S
C312 C315 1.365 . S
C312 N317 1.328 . S
C312 H318 0.929 . S
C313 C314 1.362 . S
C313 C316 1.378 . S
C313 H328 0.929 1_655 S
C314 C313 1.362 . S
C314 C315 1.366 . S
C315 C312 1.365 . S
C315 C314 1.366 . S
C315 H329 0.930 . S
C316 C313 1.378 . S
C316 N317 1.315 . S
C316 H319 0.930 1_655 S
N317 Co297 2.194 . S
N317 C312 1.328 . S
N317 C316 1.315 . S
H318 C312 0.929 . S
H319 C316 0.930 1_455 S
H320 C308 0.929 . S
H321 C310 0.929 1_455 S
O322 Co297 2.351 . S
O322 C325 1.244 . S
O323 Co297 2.155 . S
O323 C325 1.240 . S
O324 Co297 2.096 . S
O324 C305 1.247 1_655 S
C325 O322 1.244 . S
C325 O323 1.240 . S
H326 C300 0.931 . S
H327 C309 0.931 . S
H328 C313 0.929 1_455 S
H329 C315 0.930 . S
Co330 N334 2.148 . S
Co330 N340 2.128 . S
Co330 N350 2.194 . S
Co330 O355 2.351 1_455 S
Co330 O356 2.155 . S
Co330 O357 2.096 . S
C331 N334 1.301 . S
C331 N335 1.328 . S
C331 H336 0.930 1_455 S
C332 C333 1.333 . S
C332 N334 1.317 . S
C332 H337 0.930 . S
C333 C332 1.333 . S
C333 N335 1.350 . S
C333 H359 0.931 . S
N334 Co330 2.148 . S
N334 C331 1.301 . S
N334 C332 1.317 . S
N335 C331 1.328 . S
N335 C333 1.350 . S
H336 C331 0.930 1_655 S
H337 C332 0.930 . S
C338 O339 1.224 . S
C338 O357 1.247 . S
O339 C338 1.224 . S
N340 Co330 2.128 . S
N340 C341 1.355 . S
N340 C343 1.311 . S
C341 N340 1.355 . S
C341 C342 1.363 . S
C341 H353 0.929 . S
C342 C341 1.363 . S
C342 N344 1.375 . S
C342 H360 0.931 . S
C343 N340 1.311 . S
C343 N344 1.347 . S
C343 H354 0.929 . S
N344 C342 1.375 . S
N344 C343 1.347 . S
C345 C348 1.366 . S
C345 N350 1.328 . S
C345 H351 0.929 1_455 S
C346 C347 1.362 . S
C346 C349 1.378 . S
C346 H361 0.929 . S
C347 C346 1.362 . S
C347 C348 1.369 . S
C348 C345 1.366 . S
C348 C347 1.369 . S
C348 H362 0.927 1_455 S
C349 C346 1.378 . S
C349 N350 1.315 . S
C349 H352 0.930 . S
N350 Co330 2.194 . S
N350 C345 1.328 . S
N350 C349 1.315 . S
H351 C345 0.929 1_655 S
H352 C349 0.930 . S
H353 C341 0.929 . S
H354 C343 0.929 . S
O355 Co330 2.351 1_655 S
O355 C358 1.244 . S
O356 Co330 2.155 . S
O356 C358 1.240 1_455 S
O357 Co330 2.096 . S
O357 C338 1.247 . S
C358 O355 1.244 . S
C358 O356 1.240 1_655 S
H359 C333 0.931 . S
H360 C342 0.931 . S
H361 C346 0.929 . S
H362 C348 0.927 1_655 S
Co363 N367 2.148 . S
Co363 N373 2.128 . S
Co363 N383 2.194 . S
Co363 O388 2.351 . S
Co363 O389 2.155 . S
Co363 O390 2.096 . S
C364 N367 1.301 . S
C364 N368 1.328 . S
C364 H369 0.930 . S
C365 C366 1.333 . S
C365 N367 1.317 . S
C365 H370 0.930 . S
C366 C365 1.333 . S
C366 N368 1.350 . S
C366 H392 0.931 . S
N367 Co363 2.148 . S
N367 C364 1.301 . S
N367 C365 1.317 . S
N368 C364 1.328 . S
N368 C366 1.350 . S
H369 C364 0.930 . S
H370 C365 0.930 . S
C371 O372 1.224 . S
C371 O390 1.247 . S
O372 C371 1.224 . S
N373 Co363 2.128 . S
N373 C374 1.355 . S
N373 C376 1.311 . S
C374 N373 1.355 . S
C374 C375 1.363 . S
C374 H386 0.929 . S
C375 C374 1.363 . S
C375 N377 1.375 . S
C375 H393 0.931 . S
C376 N373 1.311 . S
C376 N377 1.347 . S
C376 H387 0.929 . S
N377 C375 1.375 . S
N377 C376 1.347 . S
C378 C381 1.365 . S
C378 N383 1.328 . S
C378 H384 0.929 . S
C379 C380 1.362 . S
C379 C382 1.378 . S
C379 H394 0.929 . S
C380 C379 1.362 . S
C380 C381 1.366 . S
C381 C378 1.365 . S
C381 C380 1.366 . S
C381 H395 0.930 . S
C382 C379 1.378 . S
C382 N383 1.315 . S
C382 H385 0.930 . S
N383 Co363 2.194 . S
N383 C378 1.328 . S
N383 C382 1.315 . S
H384 C378 0.929 . S
H385 C382 0.930 . S
H386 C374 0.929 . S
H387 C376 0.929 . S
O388 Co363 2.351 . S
O388 C391 1.244 . S
O389 Co363 2.155 . S
O389 C391 1.240 . S
O390 Co363 2.096 . S
O390 C371 1.247 . S
C391 O388 1.244 . S
C391 O389 1.240 . S
H392 C366 0.931 . S
H393 C375 0.931 . S
H394 C379 0.929 . S
H395 C381 0.930 . S
Co396 N400 2.148 . S
Co396 N406 2.128 . S
Co396 N416 2.194 . S
Co396 O421 2.351 . S
Co396 O422 2.155 . S
Co396 O423 2.096 . S
C397 N400 1.301 . S
C397 N401 1.328 . S
C397 H402 0.930 . S
C398 C399 1.333 . S
C398 N400 1.317 . S
C398 H403 0.930 . S
C399 C398 1.333 . S
C399 N401 1.350 . S
C399 H425 0.931 . S
N400 Co396 2.148 . S
N400 C397 1.301 . S
N400 C398 1.317 . S
N401 C397 1.328 . S
N401 C399 1.350 . S
H402 C397 0.930 . S
H403 C398 0.930 . S
C404 O405 1.224 . S
C404 O423 1.247 . S
O405 C404 1.224 . S
N406 Co396 2.128 . S
N406 C407 1.355 . S
N406 C409 1.311 . S
C407 N406 1.355 . S
C407 C408 1.363 . S
C407 H419 0.929 . S
C408 C407 1.363 . S
C408 N410 1.375 . S
C408 H426 0.931 . S
C409 N406 1.311 . S
C409 N410 1.347 . S
C409 H420 0.929 . S
N410 C408 1.375 . S
N410 C409 1.347 . S
C411 C414 1.365 . S
C411 N416 1.328 . S
C411 H417 0.929 . S
C412 C413 1.362 . S
C412 C415 1.378 . S
C412 H427 0.929 . S
C413 C412 1.362 . S
C413 C414 1.366 . S
C414 C411 1.365 . S
C414 C413 1.366 . S
C414 H428 0.930 . S
C415 C412 1.378 . S
C415 N416 1.315 . S
C415 H418 0.930 . S
N416 Co396 2.194 . S
N416 C411 1.328 . S
N416 C415 1.315 . S
H417 C411 0.929 . S
H418 C415 0.930 . S
H419 C407 0.929 . S
H420 C409 0.929 . S
O421 Co396 2.351 . S
O421 C424 1.244 . S
O422 Co396 2.155 . S
O422 C424 1.240 . S
O423 Co396 2.096 . S
O423 C404 1.247 . S
C424 O421 1.244 . S
C424 O422 1.240 . S
H425 C399 0.931 . S
H426 C408 0.931 . S
H427 C412 0.929 . S
H428 C414 0.930 . S
Co429 N433 2.148 . S
Co429 N439 2.128 . S
Co429 N449 2.194 . S
Co429 O454 2.351 . S
Co429 O455 2.155 . S
Co429 O456 2.096 . S
C430 N433 1.301 . S
C430 N434 1.328 . S
C430 H435 0.930 . S
C431 C432 1.333 . S
C431 N433 1.317 . S
C431 H436 0.930 . S
C432 C431 1.333 . S
C432 N434 1.350 . S
C432 H458 0.931 . S
N433 Co429 2.148 . S
N433 C430 1.301 . S
N433 C431 1.317 . S
N434 C430 1.328 . S
N434 C432 1.350 . S
H435 C430 0.930 . S
H436 C431 0.930 . S
C437 O438 1.224 . S
C437 O456 1.247 . S
O438 C437 1.224 . S
N439 Co429 2.128 . S
N439 C440 1.355 . S
N439 C442 1.311 . S
C440 N439 1.355 . S
C440 C441 1.363 . S
C440 H452 0.929 . S
C441 C440 1.363 . S
C441 N443 1.375 . S
C441 H459 0.931 . S
C442 N439 1.311 . S
C442 N443 1.347 . S
C442 H453 0.929 . S
N443 C441 1.375 . S
N443 C442 1.347 . S
C444 C447 1.365 . S
C444 N449 1.328 1_655 S
C444 H450 0.929 . S
C445 C446 1.362 . S
C445 C448 1.378 1_655 S
C445 H460 0.929 . S
C446 C445 1.362 . S
C446 C447 1.366 . S
C447 C444 1.365 . S
C447 C446 1.366 . S
C447 H461 0.930 . S
C448 C445 1.378 1_455 S
C448 N449 1.315 . S
C448 H451 0.930 . S
N449 Co429 2.194 . S
N449 C444 1.328 1_455 S
N449 C448 1.315 . S
H450 C444 0.929 . S
H451 C448 0.930 . S
H452 C440 0.929 . S
H453 C442 0.929 . S
O454 Co429 2.351 . S
O454 C457 1.244 . S
O455 Co429 2.155 . S
O455 C457 1.240 . S
O456 Co429 2.096 . S
O456 C437 1.247 . S
C457 O454 1.244 . S
C457 O455 1.240 . S
H458 C432 0.931 . S
H459 C441 0.931 . S
H460 C445 0.929 . S
H461 C447 0.930 . S
Co462 N466 2.148 . S
Co462 N472 2.128 . S
Co462 N482 2.194 . S
Co462 O487 2.351 . S
Co462 O488 2.155 . S
Co462 O489 2.096 . S
C463 N466 1.301 . S
C463 N467 1.328 . S
C463 H468 0.930 . S
C464 C465 1.333 . S
C464 N466 1.317 . S
C464 H469 0.930 . S
C465 C464 1.333 . S
C465 N467 1.350 . S
C465 H491 0.931 . S
N466 Co462 2.148 . S
N466 C463 1.301 . S
N466 C464 1.317 . S
N467 C463 1.328 . S
N467 C465 1.350 . S
H468 C463 0.930 . S
H469 C464 0.930 . S
C470 O471 1.224 . S
C470 O489 1.247 . S
O471 C470 1.224 . S
N472 Co462 2.128 . S
N472 C473 1.355 . S
N472 C475 1.311 . S
C473 N472 1.355 . S
C473 C474 1.363 . S
C473 H485 0.929 . S
C474 C473 1.363 . S
C474 N476 1.375 . S
C474 H492 0.931 . S
C475 N472 1.311 . S
C475 N476 1.347 . S
C475 H486 0.929 . S
N476 C474 1.375 . S
N476 C475 1.347 . S
C477 C480 1.365 . S
C477 N482 1.328 1_455 S
C477 H483 0.929 . S
C478 C479 1.362 . S
C478 C481 1.378 1_455 S
C478 H493 0.929 . S
C479 C478 1.362 . S
C479 C480 1.366 . S
C480 C477 1.365 . S
C480 C479 1.366 . S
C480 H494 0.930 . S
C481 C478 1.378 1_655 S
C481 N482 1.315 . S
C481 H484 0.930 . S
N482 Co462 2.194 . S
N482 C477 1.328 1_655 S
N482 C481 1.315 . S
H483 C477 0.929 . S
H484 C481 0.930 . S
H485 C473 0.929 . S
H486 C475 0.929 . S
O487 Co462 2.351 . S
O487 C490 1.244 . S
O488 Co462 2.155 . S
O488 C490 1.240 . S
O489 Co462 2.096 . S
O489 C470 1.247 . S
C490 O487 1.244 . S
C490 O488 1.240 . S
H491 C465 0.931 . S
H492 C474 0.931 . S
H493 C478 0.929 . S
H494 C480 0.930 . S
Co495 N499 2.148 . S
Co495 N505 2.128 . S
Co495 N515 2.194 . S
Co495 O520 2.351 . S
Co495 O521 2.155 . S
Co495 O522 2.096 . S
C496 N499 1.301 . S
C496 N500 1.328 . S
C496 H501 0.930 . S
C497 C498 1.333 . S
C497 N499 1.317 . S
C497 H502 0.930 . S
C498 C497 1.333 . S
C498 N500 1.350 . S
C498 H524 0.931 . S
N499 Co495 2.148 . S
N499 C496 1.301 . S
N499 C497 1.317 . S
N500 C496 1.328 . S
N500 C498 1.350 . S
H501 C496 0.930 . S
H502 C497 0.930 . S
C503 O504 1.224 . S
C503 O522 1.247 . S
O504 C503 1.224 . S
N505 Co495 2.128 . S
N505 C506 1.355 . S
N505 C508 1.311 . S
C506 N505 1.355 . S
C506 C507 1.363 . S
C506 H518 0.929 . S
C507 C506 1.363 . S
C507 N509 1.375 . S
C507 H525 0.931 . S
C508 N505 1.311 . S
C508 N509 1.347 . S
C508 H519 0.929 . S
N509 C507 1.375 . S
N509 C508 1.347 . S
C510 C513 1.365 . S
C510 N515 1.328 . S
C510 H516 0.929 . S
C511 C512 1.362 . S
C511 C514 1.378 . S
C511 H526 0.929 . S
C512 C511 1.362 . S
C512 C513 1.366 . S
C513 C510 1.365 . S
C513 C512 1.366 . S
C513 H527 0.930 . S
C514 C511 1.378 . S
C514 N515 1.315 . S
C514 H517 0.930 . S
N515 Co495 2.194 . S
N515 C510 1.328 . S
N515 C514 1.315 . S
H516 C510 0.929 . S
H517 C514 0.930 . S
H518 C506 0.929 . S
H519 C508 0.929 . S
O520 Co495 2.351 . S
O520 C523 1.244 . S
O521 Co495 2.155 . S
O521 C523 1.240 . S
O522 Co495 2.096 . S
O522 C503 1.247 . S
C523 O520 1.244 . S
C523 O521 1.240 . S
H524 C498 0.931 . S
H525 C507 0.931 . S
H526 C511 0.929 . S
H527 C513 0.930 . S
H528 C534 0.930 . S
H529 C537 0.930 . S
H530 C538 0.930 . S
H531 C539 0.930 1_556 S
H532 C542 0.930 . S
H533 C543 0.930 . S
C534 H528 0.930 . S
C534 C535 1.355 . S
C534 C536 1.415 1_556 S
C535 C534 1.355 . S
C535 C537 1.419 . S
C536 C534 1.415 1_554 S
C536 C541 1.425 1_554 S
C536 C543 1.409 . S
C537 H529 0.930 . S
C537 C535 1.419 . S
C537 C538 1.362 . S
C538 H530 0.930 . S
C538 C537 1.362 . S
C538 C541 1.409 . S
C539 H531 0.930 1_554 S
C539 C540 1.355 . S
C539 C541 1.415 1_554 S
C540 C539 1.355 . S
C540 C542 1.419 . S
C541 C536 1.425 1_556 S
C541 C538 1.409 . S
C541 C539 1.415 1_556 S
C542 H532 0.930 . S
C542 C540 1.419 . S
C542 C543 1.362 . S
C543 H533 0.930 . S
C543 C536 1.409 . S
C543 C542 1.362 . S
H544 C550 0.930 . S
H545 C553 0.930 . S
H546 C554 0.930 . S
H547 C555 0.930 . S
H548 C558 0.930 . S
H549 C559 0.930 . S
C550 H544 0.930 . S
C550 C551 1.355 . S
C550 C552 1.415 . S
C551 C550 1.355 . S
C551 C553 1.419 . S
C552 C550 1.415 . S
C552 C557 1.425 1_556 S
C552 C559 1.409 . S
C553 H545 0.930 . S
C553 C551 1.419 . S
C553 C554 1.362 1_556 S
C554 H546 0.930 . S
C554 C553 1.362 1_554 S
C554 C557 1.409 . S
C555 H547 0.930 . S
C555 C556 1.355 . S
C555 C557 1.415 . S
C556 C555 1.355 . S
C556 C558 1.419 . S
C557 C552 1.425 1_554 S
C557 C554 1.409 . S
C557 C555 1.415 . S
C558 H548 0.930 . S
C558 C556 1.419 . S
C558 C559 1.362 1_554 S
C559 H549 0.930 . S
C559 C552 1.409 . S
C559 C558 1.362 1_556 S
H560 C566 0.930 . S
H561 C569 0.930 . S
H562 C570 0.930 . S
H563 C571 0.930 . S
H564 C574 0.930 . S
H565 C575 0.930 . S
C566 H560 0.930 . S
C566 C567 1.355 . S
C566 C568 1.415 . S
C567 C566 1.355 . S
C567 C569 1.419 . S
C568 C566 1.415 . S
C568 C573 1.425 . S
C568 C575 1.409 . S
C569 H561 0.930 . S
C569 C567 1.419 . S
C569 C570 1.362 . S
C570 H562 0.930 . S
C570 C569 1.362 . S
C570 C573 1.409 . S
C571 H563 0.930 . S
C571 C572 1.355 . S
C571 C573 1.415 . S
C572 C571 1.355 . S
C572 C574 1.419 . S
C573 C568 1.425 . S
C573 C570 1.409 . S
C573 C571 1.415 . S
C574 H564 0.930 . S
C574 C572 1.419 . S
C574 C575 1.362 . S
C575 H565 0.930 . S
C575 C568 1.409 . S
C575 C574 1.362 . S
H576 C582 0.930 . S
H577 C585 0.930 . S
H578 C586 0.930 . S
H579 C587 0.930 . S
H580 C590 0.930 . S
H581 C591 0.930 . S
C582 H576 0.930 . S
C582 C583 1.355 . S
C582 C584 1.415 . S
C583 C582 1.355 . S
C583 C585 1.419 . S
C584 C582 1.415 . S
C584 C589 1.425 . S
C584 C591 1.409 . S
C585 H577 0.930 . S
C585 C583 1.419 . S
C585 C586 1.362 . S
C586 H578 0.930 . S
C586 C585 1.362 . S
C586 C589 1.409 . S
C587 H579 0.930 . S
C587 C588 1.355 . S
C587 C589 1.415 . S
C588 C587 1.355 . S
C588 C590 1.419 . S
C589 C584 1.425 . S
C589 C586 1.409 . S
C589 C587 1.415 . S
C590 H580 0.930 . S
C590 C588 1.419 . S
C590 C591 1.362 . S
C591 H581 0.930 . S
C591 C584 1.409 . S
C591 C590 1.362 . S
H592 C598 0.930 . S
H593 C601 0.930 . S
H594 C602 0.930 1_554 S
H595 C603 0.930 . S
H596 C606 0.930 . S
H597 C607 0.930 . S
C598 H592 0.930 . S
C598 C599 1.355 . S
C598 C600 1.415 . S
C599 C598 1.355 . S
C599 C601 1.419 . S
C600 C598 1.415 . S
C600 C605 1.425 . S
C600 C607 1.409 . S
C601 H593 0.930 . S
C601 C599 1.419 . S
C601 C602 1.362 . S
C602 H594 0.930 1_556 S
C602 C601 1.362 . S
C602 C605 1.409 . S
C603 H595 0.930 . S
C603 C604 1.355 . S
C603 C605 1.415 1_554 S
C604 C603 1.355 . S
C604 C606 1.419 1_554 S
C605 C600 1.425 . S
C605 C602 1.409 . S
C605 C603 1.415 1_556 S
C606 H596 0.930 . S
C606 C604 1.419 1_556 S
C606 C607 1.362 . S
C607 H597 0.930 . S
C607 C600 1.409 . S
C607 C606 1.362 . S
H608 C614 0.930 . S
H609 C617 0.930 . S
H610 C618 0.930 . S
H611 C619 0.929 1_554 S
H612 C622 0.930 . S
H613 C623 0.930 . S
C614 H608 0.930 . S
C614 C615 1.355 . S
C614 C616 1.415 . S
C615 C614 1.355 . S
C615 C617 1.419 . S
C616 C614 1.415 . S
C616 C621 1.425 . S
C616 C623 1.409 . S
C617 H609 0.930 . S
C617 C615 1.419 . S
C617 C618 1.362 . S
C618 H610 0.930 . S
C618 C617 1.362 . S
C618 C621 1.409 . S
C619 H611 0.929 1_556 S
C619 C620 1.354 1_556 S
C619 C621 1.415 . S
C620 C619 1.354 1_554 S
C620 C622 1.419 . S
C621 C616 1.425 . S
C621 C618 1.409 . S
C621 C619 1.415 . S
C622 H612 0.930 . S
C622 C620 1.419 . S
C622 C623 1.362 1_554 S
C623 H613 0.930 . S
C623 C616 1.409 . S
C623 C622 1.362 1_556 S
H624 C630 0.930 . S
H625 C633 0.930 . S
H626 C634 0.930 . S
H627 C635 0.930 . S
H628 C638 0.930 . S
H629 C639 0.930 . S
C630 H624 0.930 . S
C630 C631 1.355 . S
C630 C632 1.415 . S
C631 C630 1.355 . S
C631 C633 1.419 . S
C632 C630 1.415 . S
C632 C637 1.425 . S
C632 C639 1.409 . S
C633 H625 0.930 . S
C633 C631 1.419 . S
C633 C634 1.362 . S
C634 H626 0.930 . S
C634 C633 1.362 . S
C634 C637 1.409 . S
C635 H627 0.930 . S
C635 C636 1.355 . S
C635 C637 1.415 . S
C636 C635 1.355 . S
C636 C638 1.419 . S
C637 C632 1.425 . S
C637 C634 1.409 . S
C637 C635 1.415 . S
C638 H628 0.930 . S
C638 C636 1.419 . S
C638 C639 1.362 . S
C639 H629 0.930 . S
C639 C632 1.409 . S
C639 C638 1.362 . S
H640 C646 0.930 . S
H641 C649 0.930 . S
H642 C650 0.930 . S
H643 C651 0.930 . S
H644 C654 0.930 . S
H645 C655 0.930 . S
C646 H640 0.930 . S
C646 C647 1.355 . S
C646 C648 1.415 . S
C647 C646 1.355 . S
C647 C649 1.419 . S
C648 C646 1.415 . S
C648 C653 1.425 . S
C648 C655 1.409 . S
C649 H641 0.930 . S
C649 C647 1.419 . S
C649 C650 1.362 . S
C650 H642 0.930 . S
C650 C649 1.362 . S
C650 C653 1.409 . S
C651 H643 0.930 . S
C651 C652 1.355 . S
C651 C653 1.415 . S
C652 C651 1.355 . S
C652 C654 1.419 . S
C653 C648 1.425 . S
C653 C650 1.409 . S
C653 C651 1.415 . S
C654 H644 0.930 . S
C654 C652 1.419 . S
C654 C655 1.362 . S
C655 H645 0.930 . S
C655 C648 1.409 . S
C655 C654 1.362 . S
H656 C662 0.930 . S
H657 C665 0.930 . S
H658 C666 0.930 . S
H659 C667 0.930 . S
H660 C670 0.930 . S
H661 C671 0.930 . S
C662 H656 0.930 . S
C662 C663 1.355 . S
C662 C664 1.415 1_554 S
C663 C662 1.355 . S
C663 C665 1.419 . S
C664 C662 1.415 1_556 S
C664 C669 1.425 . S
C664 C671 1.409 . S
C665 H657 0.930 . S
C665 C663 1.419 . S
C665 C666 1.362 . S
C666 H658 0.930 . S
C666 C665 1.362 . S
C666 C669 1.409 1_554 S
C667 H659 0.930 . S
C667 C668 1.355 . S
C667 C669 1.415 . S
C668 C667 1.355 . S
C668 C670 1.419 . S
C669 C664 1.425 . S
C669 C666 1.409 1_556 S
C669 C667 1.415 . S
C670 H660 0.930 . S
C670 C668 1.419 . S
C670 C671 1.362 . S
C671 H661 0.930 . S
C671 C664 1.409 . S
C671 C670 1.362 . S
H672 C678 0.930 . S
H673 C681 0.930 . S
H674 C682 0.930 . S
H675 C683 0.930 . S
H676 C686 0.930 . S
H677 C687 0.930 . S
C678 H672 0.930 . S
C678 C679 1.355 . S
C678 C680 1.415 1_554 S
C679 C678 1.355 . S
C679 C681 1.419 . S
C680 C678 1.415 1_556 S
C680 C685 1.425 . S
C680 C687 1.409 . S
C681 H673 0.930 . S
C681 C679 1.419 . S
C681 C682 1.362 . S
C682 H674 0.930 . S
C682 C681 1.362 . S
C682 C685 1.409 1_554 S
C683 H675 0.930 . S
C683 C684 1.355 . S
C683 C685 1.415 . S
C684 C683 1.355 . S
C684 C686 1.419 . S
C685 C680 1.425 . S
C685 C682 1.409 1_556 S
C685 C683 1.415 . S
C686 H676 0.930 . S
C686 C684 1.419 . S
C686 C687 1.362 . S
C687 H677 0.930 . S
C687 C680 1.409 . S
C687 C686 1.362 . S
H688 C694 0.930 . S
H689 C697 0.930 . S
H690 C698 0.930 . S
H691 C699 0.930 . S
H692 C702 0.930 . S
H693 C703 0.930 . S
C694 H688 0.930 . S
C694 C695 1.355 . S
C694 C696 1.415 . S
C695 C694 1.355 . S
C695 C697 1.419 . S
C696 C694 1.415 . S
C696 C701 1.425 . S
C696 C703 1.409 . S
C697 H689 0.930 . S
C697 C695 1.419 . S
C697 C698 1.362 . S
C698 H690 0.930 . S
C698 C697 1.362 . S
C698 C701 1.409 . S
C699 H691 0.930 . S
C699 C700 1.355 . S
C699 C701 1.415 . S
C700 C699 1.355 . S
C700 C702 1.419 . S
C701 C696 1.425 . S
C701 C698 1.409 . S
C701 C699 1.415 . S
C702 H692 0.930 . S
C702 C700 1.419 . S
C702 C703 1.362 . S
C703 H693 0.930 . S
C703 C696 1.409 . S
C703 C702 1.362 . S
H704 C710 0.930 . S
H705 C713 0.930 . S
H706 C714 0.930 . S
H707 C715 0.930 . S
H708 C718 0.930 . S
H709 C719 0.930 . S
C710 H704 0.930 . S
C710 C711 1.355 . S
C710 C712 1.415 . S
C711 C710 1.355 . S
C711 C713 1.419 . S
C712 C710 1.415 . S
C712 C717 1.425 . S
C712 C719 1.409 . S
C713 H705 0.930 . S
C713 C711 1.419 . S
C713 C714 1.362 . S
C714 H706 0.930 . S
C714 C713 1.362 . S
C714 C717 1.409 . S
C715 H707 0.930 . S
C715 C716 1.355 . S
C715 C717 1.415 . S
C716 C715 1.355 . S
C716 C718 1.419 . S
C717 C712 1.425 . S
C717 C714 1.409 . S
C717 C715 1.415 . S
C718 H708 0.930 . S
C718 C716 1.419 . S
C718 C719 1.362 . S
C719 H709 0.930 . S
C719 C712 1.409 . S
C719 C718 1.362 . S
H720 C726 0.930 . S
H721 C729 0.930 . S
H722 C730 0.930 . S
H723 C731 0.930 . S
H724 C734 0.935 . S
H725 C735 0.930 . S
C726 H720 0.930 . S
C726 C727 1.355 . S
C726 C728 1.415 . S
C727 C726 1.355 . S
C727 C729 1.419 . S
C728 C726 1.415 . S
C728 C733 1.425 . S
C728 C735 1.409 . S
C729 H721 0.930 . S
C729 C727 1.419 . S
C729 C730 1.362 . S
C730 H722 0.930 . S
C730 C729 1.362 . S
C730 C733 1.409 . S
C731 H723 0.930 . S
C731 C732 1.355 . S
C731 C733 1.415 1_554 S
C732 C731 1.355 . S
C732 C734 1.426 . S
C733 C728 1.425 . S
C733 C730 1.409 . S
C733 C731 1.415 1_556 S
C734 H724 0.935 . S
C734 C732 1.426 . S
C734 C735 1.351 1_554 S
C735 H725 0.930 . S
C735 C728 1.409 . S
C735 C734 1.351 1_556 S
H736 C742 0.930 . S
H737 C745 0.930 . S
H738 C746 0.930 . S
H739 C747 0.930 . S
H740 C750 0.930 . S
H741 C751 0.930 . S
C742 H736 0.930 . S
C742 C743 1.355 . S
C742 C744 1.415 . S
C743 C742 1.355 . S
C743 C745 1.419 . S
C744 C742 1.415 . S
C744 C749 1.425 . S
C744 C751 1.409 1_556 S
C745 H737 0.930 . S
C745 C743 1.419 . S
C745 C746 1.362 . S
C746 H738 0.930 . S
C746 C745 1.362 . S
C746 C749 1.409 . S
C747 H739 0.930 . S
C747 C748 1.355 1_556 S
C747 C749 1.415 . S
C748 C747 1.355 1_554 S
C748 C750 1.419 . S
C749 C744 1.425 . S
C749 C746 1.409 . S
C749 C747 1.415 . S
C750 H740 0.930 . S
C750 C748 1.419 . S
C750 C751 1.362 . S
C751 H741 0.930 . S
C751 C744 1.409 1_554 S
C751 C750 1.362 . S
H752 C758 0.930 . S
H753 C761 0.930 . S
H754 C762 0.930 . S
H755 C763 0.930 . S
H756 C766 0.930 . S
H757 C767 0.930 . S
C758 H752 0.930 . S
C758 C759 1.355 . S
C758 C760 1.415 . S
C759 C758 1.355 . S
C759 C761 1.419 . S
C760 C758 1.415 . S
C760 C765 1.425 . S
C760 C767 1.409 . S
C761 H753 0.930 . S
C761 C759 1.419 . S
C761 C762 1.362 . S
C762 H754 0.930 . S
C762 C761 1.362 . S
C762 C765 1.409 . S
C763 H755 0.930 . S
C763 C764 1.355 . S
C763 C765 1.415 . S
C764 C763 1.355 . S
C764 C766 1.419 . S
C765 C760 1.425 . S
C765 C762 1.409 . S
C765 C763 1.415 . S
C766 H756 0.930 . S
C766 C764 1.419 . S
C766 C767 1.362 . S
C767 H757 0.930 . S
C767 C760 1.409 . S
C767 C766 1.362 . S
H768 C774 0.930 . S
H769 C777 0.930 . S
H770 C778 0.930 . S
H771 C779 0.930 . S
H772 C782 0.930 . S
H773 C783 0.930 . S
C774 H768 0.930 . S
C774 C775 1.355 . S
C774 C776 1.415 . S
C775 C774 1.355 . S
C775 C777 1.419 . S
C776 C774 1.415 . S
C776 C781 1.425 . S
C776 C783 1.409 . S
C777 H769 0.930 . S
C777 C775 1.419 . S
C777 C778 1.362 . S
C778 H770 0.930 . S
C778 C777 1.362 . S
C778 C781 1.409 . S
C779 H771 0.930 . S
C779 C780 1.355 . S
C779 C781 1.415 . S
C780 C779 1.355 . S
C780 C782 1.419 . S
C781 C776 1.425 . S
C781 C778 1.409 . S
C781 C779 1.415 . S
C782 H772 0.930 . S
C782 C780 1.419 . S
C782 C783 1.362 . S
C783 H773 0.930 . S
C783 C776 1.409 . S
C783 C782 1.362 . S
H784 C790 0.930 . S
H785 C793 0.930 . S
H786 C794 0.930 . S
H787 C795 0.930 . S
H788 C798 0.930 . S
H789 C799 0.930 . S
C790 H784 0.930 . S
C790 C791 1.355 . S
C790 C792 1.415 1_545 S
C791 C790 1.355 . S
C791 C793 1.419 . S
C792 C790 1.415 1_565 S
C792 C797 1.425 1_565 S
C792 C799 1.409 . S
C793 H785 0.930 . S
C793 C791 1.419 . S
C793 C794 1.362 . S
C794 H786 0.930 . S
C794 C793 1.362 . S
C794 C797 1.409 . S
C795 H787 0.930 . S
C795 C796 1.355 . S
C795 C797 1.415 1_565 S
C796 C795 1.355 . S
C796 C798 1.419 . S
C797 C792 1.425 1_545 S
C797 C794 1.409 . S
C797 C795 1.415 1_545 S
C798 H788 0.930 . S
C798 C796 1.419 . S
C798 C799 1.362 . S
C799 H789 0.930 . S
C799 C792 1.409 . S
C799 C798 1.362 . S
H800 C806 0.930 . S
H801 C809 0.930 . S
H802 C810 0.930 . S
H803 C811 0.930 . S
H804 C814 0.930 . S
H805 C815 0.930 . S
C806 H800 0.930 . S
C806 C807 1.355 . S
C806 C808 1.415 1_565 S
C807 C806 1.355 . S
C807 C809 1.419 . S
C808 C806 1.415 1_545 S
C808 C813 1.425 1_545 S
C808 C815 1.409 . S
C809 H801 0.930 . S
C809 C807 1.419 . S
C809 C810 1.362 . S
C810 H802 0.930 . S
C810 C809 1.362 . S
C810 C813 1.409 . S
C811 H803 0.930 . S
C811 C812 1.355 . S
C811 C813 1.415 1_545 S
C812 C811 1.355 . S
C812 C814 1.419 . S
C813 C808 1.425 1_565 S
C813 C810 1.409 . S
C813 C811 1.415 1_565 S
C814 H804 0.930 . S
C814 C812 1.419 . S
C814 C815 1.362 . S
C815 H805 0.930 . S
C815 C808 1.409 . S
C815 C814 1.362 . S
H816 C822 0.930 . S
H817 C825 0.930 . S
H818 C826 0.930 . S
H819 C827 0.930 . S
H820 C830 0.930 . S
H821 C831 0.930 . S
C822 H816 0.930 . S
C822 C823 1.355 . S
C822 C824 1.415 1_545 S
C823 C822 1.355 . S
C823 C825 1.419 . S
C824 C822 1.415 1_565 S
C824 C829 1.425 1_565 S
C824 C831 1.409 . S
C825 H817 0.930 . S
C825 C823 1.419 . S
C825 C826 1.362 . S
C826 H818 0.930 . S
C826 C825 1.362 . S
C826 C829 1.409 . S
C827 H819 0.930 . S
C827 C828 1.355 . S
C827 C829 1.415 1_565 S
C828 C827 1.355 . S
C828 C830 1.419 . S
C829 C824 1.425 1_545 S
C829 C826 1.409 . S
C829 C827 1.415 1_545 S
C830 H820 0.930 . S
C830 C828 1.419 . S
C830 C831 1.362 . S
C831 H821 0.930 . S
C831 C824 1.409 . S
C831 C830 1.362 . S
H832 C838 0.930 . S
H833 C841 0.930 . S
H834 C842 0.930 . S
H835 C843 0.930 . S
H836 C846 0.930 . S
H837 C847 0.930 1_565 S
C838 H832 0.930 . S
C838 C839 1.355 . S
C838 C840 1.415 . S
C839 C838 1.355 . S
C839 C841 1.419 . S
C840 C838 1.415 . S
C840 C845 1.425 1_565 S
C840 C847 1.409 1_565 S
C841 H833 0.930 . S
C841 C839 1.419 . S
C841 C842 1.362 1_565 S
C842 H834 0.930 . S
C842 C841 1.362 1_545 S
C842 C845 1.409 . S
C843 H835 0.930 . S
C843 C844 1.355 . S
C843 C845 1.415 . S
C844 C843 1.355 . S
C844 C846 1.419 . S
C845 C840 1.425 1_545 S
C845 C842 1.409 . S
C845 C843 1.415 . S
C846 H836 0.930 . S
C846 C844 1.419 . S
C846 C847 1.362 . S
C847 H837 0.930 1_545 S
C847 C840 1.409 1_545 S
C847 C846 1.362 . S
H848 C854 0.930 . S
H849 C857 0.930 . S
H850 C858 0.930 . S
H851 C859 0.930 . S
H852 C862 0.930 . S
H853 C863 0.930 . S
C854 H848 0.930 . S
C854 C855 1.355 . S
C854 C856 1.415 . S
C855 C854 1.355 . S
C855 C857 1.419 . S
C856 C854 1.415 . S
C856 C861 1.425 . S
C856 C863 1.409 . S
C857 H849 0.930 . S
C857 C855 1.419 . S
C857 C858 1.362 . S
C858 H850 0.930 . S
C858 C857 1.362 . S
C858 C861 1.409 . S
C859 H851 0.930 . S
C859 C860 1.355 . S
C859 C861 1.415 . S
C860 C859 1.355 . S
C860 C862 1.419 . S
C861 C856 1.425 . S
C861 C858 1.409 . S
C861 C859 1.415 . S
C862 H852 0.930 . S
C862 C860 1.419 . S
C862 C863 1.362 . S
C863 H853 0.930 . S
C863 C856 1.409 . S
C863 C862 1.362 . S
H864 C870 0.930 . S
H865 C873 0.930 . S
H866 C874 0.930 . S
H867 C875 0.930 . S
H868 C878 0.930 . S
H869 C879 0.930 . S
C870 H864 0.930 . S
C870 C871 1.355 . S
C870 C872 1.415 . S
C871 C870 1.355 . S
C871 C873 1.419 . S
C872 C870 1.415 . S
C872 C877 1.425 . S
C872 C879 1.409 . S
C873 H865 0.930 . S
C873 C871 1.419 . S
C873 C874 1.362 . S
C874 H866 0.930 . S
C874 C873 1.362 . S
C874 C877 1.409 . S
C875 H867 0.930 . S
C875 C876 1.355 . S
C875 C877 1.415 . S
C876 C875 1.355 . S
C876 C878 1.419 . S
C877 C872 1.425 . S
C877 C874 1.409 . S
C877 C875 1.415 . S
C878 H868 0.930 . S
C878 C876 1.419 . S
C878 C879 1.362 . S
C879 H869 0.930 . S
C879 C872 1.409 . S
C879 C878 1.362 . S
H880 C886 0.930 . S
H881 C889 0.930 . S
H882 C890 0.930 . S
H883 C891 0.930 . S
H884 C894 0.930 . S
H885 C895 0.930 . S
C886 H880 0.930 . S
C886 C887 1.355 . S
C886 C888 1.415 . S
C887 C886 1.355 . S
C887 C889 1.419 . S
C888 C886 1.415 . S
C888 C893 1.425 . S
C888 C895 1.409 . S
C889 H881 0.930 . S
C889 C887 1.419 . S
C889 C890 1.362 . S
C890 H882 0.930 . S
C890 C889 1.362 . S
C890 C893 1.409 . S
C891 H883 0.930 . S
C891 C892 1.355 . S
C891 C893 1.415 . S
C892 C891 1.355 . S
C892 C894 1.419 . S
C893 C888 1.425 . S
C893 C890 1.409 . S
C893 C891 1.415 . S
C894 H884 0.930 . S
C894 C892 1.419 . S
C894 C895 1.362 . S
C895 H885 0.930 . S
C895 C888 1.409 . S
C895 C894 1.362 . S
H896 C902 0.930 . S
H897 C905 0.930 . S
H898 C906 0.930 . S
H899 C907 0.930 . S
H900 C910 0.930 . S
H901 C911 0.930 . S
C902 H896 0.930 . S
C902 C903 1.355 . S
C902 C904 1.415 . S
C903 C902 1.355 . S
C903 C905 1.419 . S
C904 C902 1.415 . S
C904 C909 1.425 . S
C904 C911 1.409 . S
C905 H897 0.930 . S
C905 C903 1.419 . S
C905 C906 1.362 . S
C906 H898 0.930 . S
C906 C905 1.362 . S
C906 C909 1.409 . S
C907 H899 0.930 . S
C907 C908 1.355 . S
C907 C909 1.415 . S
C908 C907 1.355 . S
C908 C910 1.419 . S
C909 C904 1.425 . S
C909 C906 1.409 . S
C909 C907 1.415 . S
C910 H900 0.930 . S
C910 C908 1.419 . S
C910 C911 1.362 . S
C911 H901 0.930 . S
C911 C904 1.409 . S
C911 C910 1.362 . S
H912 C918 0.930 . S
H913 C921 0.930 . S
H914 C922 0.930 . S
H915 C923 0.930 . S
H916 C926 0.930 . S
H917 C927 0.930 . S
C918 H912 0.930 . S
C918 C919 1.357 . S
C918 C920 1.415 . S
C919 C918 1.357 . S
C919 C921 1.417 1_655 S
C920 C918 1.415 . S
C920 C925 1.425 1_655 S
C920 C927 1.409 . S
C921 H913 0.930 . S
C921 C919 1.417 1_455 S
C921 C922 1.362 . S
C922 H914 0.930 . S
C922 C921 1.362 . S
C922 C925 1.409 . S
C923 H915 0.930 . S
C923 C924 1.356 . S
C923 C925 1.415 . S
C924 C923 1.356 . S
C924 C926 1.417 1_455 S
C925 C920 1.425 1_455 S
C925 C922 1.409 . S
C925 C923 1.415 . S
C926 H916 0.930 . S
C926 C924 1.417 1_655 S
C926 C927 1.362 . S
C927 H917 0.930 . S
C927 C920 1.409 . S
C927 C926 1.362 . S
H928 C934 0.930 . S
H929 C937 0.930 . S
H930 C938 0.930 . S
H931 C939 0.930 . S
H932 C942 0.930 . S
H933 C943 0.930 . S
C934 H928 0.930 . S
C934 C935 1.355 . S
C934 C936 1.415 . S
C935 C934 1.355 . S
C935 C937 1.419 . S
C936 C934 1.415 . S
C936 C941 1.425 . S
C936 C943 1.409 . S
C937 H929 0.930 . S
C937 C935 1.419 . S
C937 C938 1.362 . S
C938 H930 0.930 . S
C938 C937 1.362 . S
C938 C941 1.409 . S
C939 H931 0.930 . S
C939 C940 1.355 . S
C939 C941 1.415 . S
C940 C939 1.355 . S
C940 C942 1.419 . S
C941 C936 1.425 . S
C941 C938 1.409 . S
C941 C939 1.415 . S
C942 H932 0.930 . S
C942 C940 1.419 . S
C942 C943 1.362 . S
C943 H933 0.930 . S
C943 C936 1.409 . S
C943 C942 1.362 . S
H944 C950 0.930 . S
H945 C953 0.930 . S
H946 C954 0.930 . S
H947 C955 0.930 . S
H948 C958 0.930 . S
H949 C959 0.930 . S
C950 H944 0.930 . S
C950 C951 1.355 . S
C950 C952 1.415 . S
C951 C950 1.355 . S
C951 C953 1.419 . S
C952 C950 1.415 . S
C952 C957 1.425 . S
C952 C959 1.409 . S
C953 H945 0.930 . S
C953 C951 1.419 . S
C953 C954 1.362 . S
C954 H946 0.930 . S
C954 C953 1.362 . S
C954 C957 1.409 . S
C955 H947 0.930 . S
C955 C956 1.355 . S
C955 C957 1.415 . S
C956 C955 1.355 . S
C956 C958 1.419 . S
C957 C952 1.425 . S
C957 C954 1.409 . S
C957 C955 1.415 . S
C958 H948 0.930 . S
C958 C956 1.419 . S
C958 C959 1.362 . S
C959 H949 0.930 . S
C959 C952 1.409 . S
C959 C958 1.362 . S
H960 C966 0.930 . S
H961 C969 0.930 . S
H962 C970 0.930 . S
H963 C971 0.930 . S
H964 C974 0.930 . S
H965 C975 0.930 . S
C966 H960 0.930 . S
C966 C967 1.355 1_455 S
C966 C968 1.415 . S
C967 C966 1.355 1_655 S
C967 C969 1.419 . S
C968 C966 1.415 . S
C968 C973 1.425 1_455 S
C968 C975 1.409 . S
C969 H961 0.930 . S
C969 C967 1.419 . S
C969 C970 1.362 . S
C970 H962 0.930 . S
C970 C969 1.362 . S
C970 C973 1.409 . S
C971 H963 0.930 . S
C971 C972 1.355 1_655 S
C971 C973 1.415 . S
C972 C971 1.355 1_455 S
C972 C974 1.419 . S
C973 C968 1.425 1_655 S
C973 C970 1.409 . S
C973 C971 1.415 . S
C974 H964 0.930 . S
C974 C972 1.419 . S
C974 C975 1.362 . S
C975 H965 0.930 . S
C975 C968 1.409 . S
C975 C974 1.362 . S
H976 C982 0.930 . S
H977 C985 0.930 . S
H978 C986 0.930 . S
H979 C987 0.930 . S
H980 C990 0.930 . S
H981 C991 0.930 . S
C982 H976 0.930 . S
C982 C983 1.355 . S
C982 C984 1.415 . S
C983 C982 1.355 . S
C983 C985 1.419 1_655 S
C984 C982 1.415 . S
C984 C989 1.425 1_655 S
C984 C991 1.409 . S
C985 H977 0.930 . S
C985 C983 1.419 1_455 S
C985 C986 1.362 . S
C986 H978 0.930 . S
C986 C985 1.362 . S
C986 C989 1.409 . S
C987 H979 0.930 . S
C987 C988 1.355 . S
C987 C989 1.415 . S
C988 C987 1.355 . S
C988 C990 1.419 1_455 S
C989 C984 1.425 1_455 S
C989 C986 1.409 . S
C989 C987 1.415 . S
C990 H980 0.930 . S
C990 C988 1.419 1_655 S
C990 C991 1.362 . S
C991 H981 0.930 . S
C991 C984 1.409 . S
C991 C990 1.362 . S
H992 C998 0.930 . S
H993 C1001 0.930 . S
H994 C1002 0.930 . S
H995 C1003 0.930 . S
H996 C1006 0.930 . S
H997 C1007 0.930 . S
C998 H992 0.930 . S
C998 C999 1.355 . S
C998 C1000 1.415 . S
C999 C998 1.355 . S
C999 C1001 1.419 . S
C1000 C998 1.415 . S
C1000 C1005 1.425 . S
C1000 C1007 1.409 . S
C1001 H993 0.930 . S
C1001 C999 1.419 . S
C1001 C1002 1.362 . S
C1002 H994 0.930 . S
C1002 C1001 1.362 . S
C1002 C1005 1.409 . S
C1003 H995 0.930 . S
C1003 C1004 1.355 . S
C1003 C1005 1.415 . S
C1004 C1003 1.355 . S
C1004 C1006 1.419 . S
C1005 C1000 1.425 . S
C1005 C1002 1.409 . S
C1005 C1003 1.415 . S
C1006 H996 0.930 . S
C1006 C1004 1.419 . S
C1006 C1007 1.362 . S
C1007 H997 0.930 . S
C1007 C1000 1.409 . S
C1007 C1006 1.362 . S
H1008 C1014 0.930 . S
H1009 C1017 0.930 . S
H1010 C1018 0.930 . S
H1011 C1019 0.930 . S
H1012 C1022 0.930 . S
H1013 C1023 0.930 . S
C1014 H1008 0.930 . S
C1014 C1015 1.355 . S
C1014 C1016 1.415 . S
C1015 C1014 1.355 . S
C1015 C1017 1.419 . S
C1016 C1014 1.415 . S
C1016 C1021 1.425 . S
C1016 C1023 1.409 . S
C1017 H1009 0.930 . S
C1017 C1015 1.419 . S
C1017 C1018 1.362 . S
C1018 H1010 0.930 . S
C1018 C1017 1.362 . S
C1018 C1021 1.409 . S
C1019 H1011 0.930 . S
C1019 C1020 1.355 . S
C1019 C1021 1.415 . S
C1020 C1019 1.355 . S
C1020 C1022 1.419 . S
C1021 C1016 1.425 . S
C1021 C1018 1.409 . S
C1021 C1019 1.415 . S
C1022 H1012 0.930 . S
C1022 C1020 1.419 . S
C1022 C1023 1.362 . S
C1023 H1013 0.930 . S
C1023 C1016 1.409 . S
C1023 C1022 1.362 . S
H1024 C1030 0.930 . S
H1025 C1033 0.930 . S
H1026 C1034 0.930 . S
H1027 C1035 0.930 . S
H1028 C1038 0.930 . S
H1029 C1039 0.930 . S
C1030 H1024 0.930 . S
C1030 C1031 1.355 1_455 S
C1030 C1032 1.415 . S
C1031 C1030 1.355 1_655 S
C1031 C1033 1.419 . S
C1032 C1030 1.415 . S
C1032 C1037 1.425 1_455 S
C1032 C1039 1.409 . S
C1033 H1025 0.930 . S
C1033 C1031 1.419 . S
C1033 C1034 1.362 . S
C1034 H1026 0.930 . S
C1034 C1033 1.362 . S
C1034 C1037 1.409 . S
C1035 H1027 0.930 . S
C1035 C1036 1.355 1_655 S
C1035 C1037 1.415 . S
C1036 C1035 1.355 1_455 S
C1036 C1038 1.419 . S
C1037 C1032 1.425 1_655 S
C1037 C1034 1.409 . S
C1037 C1035 1.415 . S
C1038 H1028 0.930 . S
C1038 C1036 1.419 . S
C1038 C1039 1.362 . S
C1039 H1029 0.930 . S
C1039 C1032 1.409 . S
C1039 C1038 1.362 . S
H1040 C1046 0.930 . S
H1041 C1049 0.930 . S
H1042 C1050 0.930 . S
H1043 C1051 0.926 1_455 S
H1044 C1054 0.930 . S
H1045 C1055 0.930 . S
C1046 H1040 0.930 . S
C1046 C1047 1.355 . S
C1046 C1048 1.415 1_455 S
C1047 C1046 1.355 . S
C1047 C1049 1.419 . S
C1048 C1046 1.415 1_655 S
C1048 C1053 1.425 1_655 S
C1048 C1055 1.409 . S
C1049 H1041 0.930 . S
C1049 C1047 1.419 . S
C1049 C1050 1.362 . S
C1050 H1042 0.930 . S
C1050 C1049 1.362 . S
C1050 C1053 1.409 . S
C1051 H1043 0.926 1_655 S
C1051 C1052 1.355 . S
C1051 C1053 1.415 1_655 S
C1052 C1051 1.355 . S
C1052 C1054 1.419 . S
C1053 C1048 1.425 1_455 S
C1053 C1050 1.409 . S
C1053 C1051 1.415 1_455 S
C1054 H1044 0.930 . S
C1054 C1052 1.419 . S
C1054 C1055 1.362 . S
C1055 H1045 0.930 . S
C1055 C1048 1.409 . S
C1055 C1054 1.362 . S
H1056 C1062 0.930 . S
H1057 C1065 0.930 . S
H1058 C1066 0.930 . S
H1059 C1067 0.930 . S
H1060 C1070 0.930 . S
H1061 C1071 0.930 . S
C1062 H1056 0.930 . S
C1062 C1063 1.355 . S
C1062 C1064 1.415 . S
C1063 C1062 1.355 . S
C1063 C1065 1.419 . S
C1064 C1062 1.415 . S
C1064 C1069 1.425 . S
C1064 C1071 1.409 . S
C1065 H1057 0.930 . S
C1065 C1063 1.419 . S
C1065 C1066 1.362 . S
C1066 H1058 0.930 . S
C1066 C1065 1.362 . S
C1066 C1069 1.409 . S
C1067 H1059 0.930 . S
C1067 C1068 1.355 . S
C1067 C1069 1.415 . S
C1068 C1067 1.355 . S
C1068 C1070 1.419 . S
C1069 C1064 1.425 . S
C1069 C1066 1.409 . S
C1069 C1067 1.415 . S
C1070 H1060 0.930 . S
C1070 C1068 1.419 . S
C1070 C1071 1.362 . S
C1071 H1061 0.930 . S
C1071 C1064 1.409 . S
C1071 C1070 1.362 . S
H1072 C1078 0.930 1_455 S
H1073 C1081 0.930 . S
H1074 C1082 0.930 . S
H1075 C1083 0.930 1_655 S
H1076 C1086 0.930 . S
H1077 C1087 0.930 . S
C1078 H1072 0.930 1_655 S
C1078 C1079 1.355 . S
C1078 C1080 1.415 1_655 S
C1079 C1078 1.355 . S
C1079 C1081 1.419 . S
C1080 C1078 1.415 1_455 S
C1080 C1085 1.425 1_455 S
C1080 C1087 1.409 . S
C1081 H1073 0.930 . S
C1081 C1079 1.419 . S
C1081 C1082 1.362 . S
C1082 H1074 0.930 . S
C1082 C1081 1.362 . S
C1082 C1085 1.409 . S
C1083 H1075 0.930 1_455 S
C1083 C1084 1.355 . S
C1083 C1085 1.415 1_455 S
C1084 C1083 1.355 . S
C1084 C1086 1.419 . S
C1085 C1080 1.425 1_655 S
C1085 C1082 1.409 . S
C1085 C1083 1.415 1_655 S
C1086 H1076 0.930 . S
C1086 C1084 1.419 . S
C1086 C1087 1.362 . S
C1087 H1077 0.930 . S
C1087 C1080 1.409 . S
C1087 C1086 1.362 . S
H1088 C1094 0.930 . S
H1089 C1097 0.930 . S
H1090 C1098 0.930 . S
H1091 C1099 0.930 . S
H1092 C1102 0.930 . S
H1093 C1103 0.930 . S
C1094 H1088 0.930 . S
C1094 C1095 1.355 . S
C1094 C1096 1.415 . S
C1095 C1094 1.355 . S
C1095 C1097 1.419 . S
C1096 C1094 1.415 . S
C1096 C1101 1.425 . S
C1096 C1103 1.409 . S
C1097 H1089 0.930 . S
C1097 C1095 1.419 . S
C1097 C1098 1.362 . S
C1098 H1090 0.930 . S
C1098 C1097 1.362 . S
C1098 C1101 1.409 . S
C1099 H1091 0.930 . S
C1099 C1100 1.355 . S
C1099 C1101 1.415 . S
C1100 C1099 1.355 . S
C1100 C1102 1.419 . S
C1101 C1096 1.425 . S
C1101 C1098 1.409 . S
C1101 C1099 1.415 . S
C1102 H1092 0.930 . S
C1102 C1100 1.419 . S
C1102 C1103 1.362 . S
C1103 H1093 0.930 . S
C1103 C1096 1.409 . S
C1103 C1102 1.362 . S
H1104 C1110 0.930 . S
H1105 C1113 0.930 . S
H1106 C1114 0.930 . S
H1107 C1115 0.930 . S
H1108 C1118 0.930 . S
H1109 C1119 0.930 . S
C1110 H1104 0.930 . S
C1110 C1111 1.355 . S
C1110 C1112 1.415 . S
C1111 C1110 1.355 . S
C1111 C1113 1.419 . S
C1112 C1110 1.415 . S
C1112 C1117 1.425 . S
C1112 C1119 1.409 . S
C1113 H1105 0.930 . S
C1113 C1111 1.419 . S
C1113 C1114 1.362 . S
C1114 H1106 0.930 . S
C1114 C1113 1.362 . S
C1114 C1117 1.409 . S
C1115 H1107 0.930 . S
C1115 C1116 1.355 . S
C1115 C1117 1.415 . S
C1116 C1115 1.355 . S
C1116 C1118 1.419 . S
C1117 C1112 1.425 . S
C1117 C1114 1.409 . S
C1117 C1115 1.415 . S
C1118 H1108 0.930 . S
C1118 C1116 1.419 . S
C1118 C1119 1.362 . S
C1119 H1109 0.930 . S
C1119 C1112 1.409 . S
C1119 C1118 1.362 . S
H1120 C1126 0.930 . S
H1121 C1129 0.930 . S
H1122 C1130 0.930 . S
H1123 C1131 0.930 . S
H1124 C1134 0.930 . S
H1125 C1135 0.930 . S
C1126 H1120 0.930 . S
C1126 C1127 1.355 . S
C1126 C1128 1.415 . S
C1127 C1126 1.355 . S
C1127 C1129 1.419 . S
C1128 C1126 1.415 . S
C1128 C1133 1.424 1_455 S
C1128 C1135 1.409 1_455 S
C1129 H1121 0.930 . S
C1129 C1127 1.419 . S
C1129 C1130 1.362 . S
C1130 H1122 0.930 . S
C1130 C1129 1.362 . S
C1130 C1133 1.406 1_455 S
C1131 H1123 0.930 . S
C1131 C1132 1.355 . S
C1131 C1133 1.420 . S
C1132 C1131 1.355 . S
C1132 C1134 1.419 . S
C1133 C1128 1.424 1_655 S
C1133 C1130 1.406 1_655 S
C1133 C1131 1.420 . S
C1134 H1124 0.930 . S
C1134 C1132 1.419 . S
C1134 C1135 1.362 . S
C1135 H1125 0.930 . S
C1135 C1128 1.409 1_655 S
C1135 C1134 1.362 . S
H1136 C1142 0.930 . S
H1137 C1145 0.930 . S
H1138 C1146 0.930 . S
H1139 C1147 0.930 . S
H1140 C1150 0.930 . S
H1141 C1151 0.930 . S
C1142 H1136 0.930 . S
C1142 C1143 1.355 . S
C1142 C1144 1.415 . S
C1143 C1142 1.355 . S
C1143 C1145 1.419 . S
C1144 C1142 1.415 . S
C1144 C1149 1.425 . S
C1144 C1151 1.409 . S
C1145 H1137 0.930 . S
C1145 C1143 1.419 . S
C1145 C1146 1.362 . S
C1146 H1138 0.930 . S
C1146 C1145 1.362 . S
C1146 C1149 1.409 . S
C1147 H1139 0.930 . S
C1147 C1148 1.355 . S
C1147 C1149 1.415 . S
C1148 C1147 1.355 . S
C1148 C1150 1.419 . S
C1149 C1144 1.425 . S
C1149 C1146 1.409 . S
C1149 C1147 1.415 . S
C1150 H1140 0.930 . S
C1150 C1148 1.419 . S
C1150 C1151 1.362 . S
C1151 H1141 0.930 . S
C1151 C1144 1.409 . S
C1151 C1150 1.362 . S
H1152 C1158 0.930 . S
H1153 C1161 0.930 . S
H1154 C1162 0.930 . S
H1155 C1163 0.930 . S
H1156 C1166 0.930 . S
H1157 C1167 0.930 . S
C1158 H1152 0.930 . S
C1158 C1159 1.355 . S
C1158 C1160 1.415 1_455 S
C1159 C1158 1.355 . S
C1159 C1161 1.419 . S
C1160 C1158 1.415 1_655 S
C1160 C1165 1.425 1_655 S
C1160 C1167 1.409 . S
C1161 H1153 0.930 . S
C1161 C1159 1.419 . S
C1161 C1162 1.362 . S
C1162 H1154 0.930 . S
C1162 C1161 1.362 . S
C1162 C1165 1.409 . S
C1163 H1155 0.930 . S
C1163 C1164 1.355 . S
C1163 C1165 1.415 1_655 S
C1164 C1163 1.355 . S
C1164 C1166 1.419 . S
C1165 C1160 1.425 1_455 S
C1165 C1162 1.409 . S
C1165 C1163 1.415 1_455 S
C1166 H1156 0.930 . S
C1166 C1164 1.419 . S
C1166 C1167 1.362 . S
C1167 H1157 0.930 . S
C1167 C1160 1.409 . S
C1167 C1166 1.362 . S
C535 C182 0.952 . S
C540 C28 0.962 . S
C551 C149 0.886 . S
C556 C61 0.896 . S
C567 C74 0.927 . S
C572 C248 0.936 . S
C583 C127 0.953 . S
C588 C215 0.970 . S
C599 C140 1.331 . S
C604 C41 1.366 . S
C615 C173 1.364 . S
C620 C8 1.378 . S
C631 C107 1.371 . S
C636 C206 1.337 . S
C647 C239 1.320 . S
C652 C94 1.345 . S
C663 C292 0.900 . S
C668 C446 0.880 . S
C679 C325 0.900 . S
C684 C413 0.883 . S
C695 C338 0.920 . S
C700 C512 0.923 . S
C711 C391 0.949 . S
C716 C479 0.970 . S
C727 C404 1.359 . S
C732 C305 1.387 . S
C743 C437 1.392 . S
C748 C272 1.396 . S
C759 C371 1.386 . S
C764 C470 1.366 . S
C775 C358 1.349 . S
C780 C503 1.326 . S
C791 N5 1.750 . S
C796 N38 1.757 . S
C807 N80 1.772 . S
C812 N104 1.767 . S
C823 N179 1.714 . S
C828 N146 1.710 . S
C839 N245 1.682 . S
C844 N212 1.710 . S
C855 N302 1.765 . S
C860 N269 1.783 . S
C871 N368 1.787 . S
C876 N344 1.789 . S
C887 N410 1.699 . S
C892 N443 1.725 . S
C903 N476 1.699 . S
C908 N509 1.694 . S
C919 N311 1.691 . S
C924 N14 1.718 . S
C935 N47 1.670 . S
C940 N278 1.686 . S
C951 N71 1.736 . S
C956 N377 1.736 . S
C967 N335 1.730 1_655 S
C972 N113 1.731 1_455 S
C983 N137 1.376 . S
C988 N434 1.400 . S
C999 N170 1.379 . S
C1004 N401 1.400 . S
C1015 N203 1.433 . S
C1020 N500 1.397 . S
C1031 N467 1.390 . S
C1036 N236 1.382 . S
C1047 C17 1.528 . S
C1052 C116 1.534 . S
C1063 C50 1.523 . S
C1068 C83 1.511 . S
C1079 C160 1.605 . S
C1084 C259 1.602 . S
C1095 C193 1.568 . S
C1100 C226 1.565 . S
C1111 C380 1.513 . S
C1116 C281 1.523 . S
C1127 C347 1.504 . S
C1132 C314 1.518 . S
C1143 C424 1.599 . S
C1148 C523 1.585 . S
C1159 C457 1.579 . S
C1164 C490 1.596 . S
