# Generated by pormake.
# Topology crs, (6)-cn, num edge types: 1
# Building blocks:
#     Node 0, Type 0, BuildingBlock: BETDEL_clean_sbu_0, # of connection points: 6
#     Node 1, Type 0, BuildingBlock: BETDEL_clean_sbu_0, # of connection points: 6
#     Node 2, Type 0, BuildingBlock: BETDEL_clean_sbu_0, # of connection points: 6
#     Node 3, Type 0, BuildingBlock: BETDEL_clean_sbu_0, # of connection points: 6
#     Node 4, Type 0, BuildingBlock: BETDEL_clean_sbu_0, # of connection points: 6
#     Node 5, Type 0, BuildingBlock: BETDEL_clean_sbu_0, # of connection points: 6
#     Node 6, Type 0, BuildingBlock: BETDEL_clean_sbu_0, # of connection points: 6
#     Node 7, Type 0, BuildingBlock: BETDEL_clean_sbu_0, # of connection points: 6
#     Node 8, Type 0, BuildingBlock: BETDEL_clean_sbu_0, # of connection points: 6
#     Node 9, Type 0, BuildingBlock: BETDEL_clean_sbu_0, # of connection points: 6
#     Node 10, Type 0, BuildingBlock: BETDEL_clean_sbu_0, # of connection points: 6
#     Node 11, Type 0, BuildingBlock: BETDEL_clean_sbu_0, # of connection points: 6
#     Node 12, Type 0, BuildingBlock: BETDEL_clean_sbu_0, # of connection points: 6
#     Node 13, Type 0, BuildingBlock: BETDEL_clean_sbu_0, # of connection points: 6
#     Node 14, Type 0, BuildingBlock: BETDEL_clean_sbu_0, # of connection points: 6
#     Node 15, Type 0, BuildingBlock: BETDEL_clean_sbu_0, # of connection points: 6
#     Edge 16, Type (0, 0), BuildingBlock: KIFKEQ_clean_linker_1, # of connection points: 2
#     Edge 17, Type (0, 0), BuildingBlock: KIFKEQ_clean_linker_1, # of connection points: 2
#     Edge 18, Type (0, 0), BuildingBlock: KIFKEQ_clean_linker_1, # of connection points: 2
#     Edge 19, Type (0, 0), BuildingBlock: KIFKEQ_clean_linker_1, # of connection points: 2
#     Edge 20, Type (0, 0), BuildingBlock: KIFKEQ_clean_linker_1, # of connection points: 2
#     Edge 21, Type (0, 0), BuildingBlock: KIFKEQ_clean_linker_1, # of connection points: 2
#     Edge 22, Type (0, 0), BuildingBlock: KIFKEQ_clean_linker_1, # of connection points: 2
#     Edge 23, Type (0, 0), BuildingBlock: KIFKEQ_clean_linker_1, # of connection points: 2
#     Edge 24, Type (0, 0), BuildingBlock: KIFKEQ_clean_linker_1, # of connection points: 2
#     Edge 25, Type (0, 0), BuildingBlock: KIFKEQ_clean_linker_1, # of connection points: 2
#     Edge 26, Type (0, 0), BuildingBlock: KIFKEQ_clean_linker_1, # of connection points: 2
#     Edge 27, Type (0, 0), BuildingBlock: KIFKEQ_clean_linker_1, # of connection points: 2
#     Edge 28, Type (0, 0), BuildingBlock: KIFKEQ_clean_linker_1, # of connection points: 2
#     Edge 29, Type (0, 0), BuildingBlock: KIFKEQ_clean_linker_1, # of connection points: 2
#     Edge 30, Type (0, 0), BuildingBlock: KIFKEQ_clean_linker_1, # of connection points: 2
#     Edge 31, Type (0, 0), BuildingBlock: KIFKEQ_clean_linker_1, # of connection points: 2
#     Edge 32, Type (0, 0), BuildingBlock: KIFKEQ_clean_linker_1, # of connection points: 2
#     Edge 33, Type (0, 0), BuildingBlock: KIFKEQ_clean_linker_1, # of connection points: 2
#     Edge 34, Type (0, 0), BuildingBlock: KIFKEQ_clean_linker_1, # of connection points: 2
#     Edge 35, Type (0, 0), BuildingBlock: KIFKEQ_clean_linker_1, # of connection points: 2
#     Edge 36, Type (0, 0), BuildingBlock: KIFKEQ_clean_linker_1, # of connection points: 2
#     Edge 37, Type (0, 0), BuildingBlock: KIFKEQ_clean_linker_1, # of connection points: 2
#     Edge 38, Type (0, 0), BuildingBlock: KIFKEQ_clean_linker_1, # of connection points: 2
#     Edge 39, Type (0, 0), BuildingBlock: KIFKEQ_clean_linker_1, # of connection points: 2
#     Edge 40, Type (0, 0), BuildingBlock: KIFKEQ_clean_linker_1, # of connection points: 2
#     Edge 41, Type (0, 0), BuildingBlock: KIFKEQ_clean_linker_1, # of connection points: 2
#     Edge 42, Type (0, 0), BuildingBlock: KIFKEQ_clean_linker_1, # of connection points: 2
#     Edge 43, Type (0, 0), BuildingBlock: KIFKEQ_clean_linker_1, # of connection points: 2
#     Edge 44, Type (0, 0), BuildingBlock: KIFKEQ_clean_linker_1, # of connection points: 2
#     Edge 45, Type (0, 0), BuildingBlock: KIFKEQ_clean_linker_1, # of connection points: 2
#     Edge 46, Type (0, 0), BuildingBlock: KIFKEQ_clean_linker_1, # of connection points: 2
#     Edge 47, Type (0, 0), BuildingBlock: KIFKEQ_clean_linker_1, # of connection points: 2
#     Edge 48, Type (0, 0), BuildingBlock: KIFKEQ_clean_linker_1, # of connection points: 2
#     Edge 49, Type (0, 0), BuildingBlock: KIFKEQ_clean_linker_1, # of connection points: 2
#     Edge 50, Type (0, 0), BuildingBlock: KIFKEQ_clean_linker_1, # of connection points: 2
#     Edge 51, Type (0, 0), BuildingBlock: KIFKEQ_clean_linker_1, # of connection points: 2
#     Edge 52, Type (0, 0), BuildingBlock: KIFKEQ_clean_linker_1, # of connection points: 2
#     Edge 53, Type (0, 0), BuildingBlock: KIFKEQ_clean_linker_1, # of connection points: 2
#     Edge 54, Type (0, 0), BuildingBlock: KIFKEQ_clean_linker_1, # of connection points: 2
#     Edge 55, Type (0, 0), BuildingBlock: KIFKEQ_clean_linker_1, # of connection points: 2
#     Edge 56, Type (0, 0), BuildingBlock: KIFKEQ_clean_linker_1, # of connection points: 2
#     Edge 57, Type (0, 0), BuildingBlock: KIFKEQ_clean_linker_1, # of connection points: 2
#     Edge 58, Type (0, 0), BuildingBlock: KIFKEQ_clean_linker_1, # of connection points: 2
#     Edge 59, Type (0, 0), BuildingBlock: KIFKEQ_clean_linker_1, # of connection points: 2
#     Edge 60, Type (0, 0), BuildingBlock: KIFKEQ_clean_linker_1, # of connection points: 2
#     Edge 61, Type (0, 0), BuildingBlock: KIFKEQ_clean_linker_1, # of connection points: 2
#     Edge 62, Type (0, 0), BuildingBlock: KIFKEQ_clean_linker_1, # of connection points: 2
#     Edge 63, Type (0, 0), BuildingBlock: KIFKEQ_clean_linker_1, # of connection points: 2
# Relax obj value: 0.345
# Max RMSD: 0.299
# Mean RMSD: 0.253
data_MOF--net-crs--node1-BETDEL_clean_sbu_0--edge1-KIFKEQ_clean_linker_1
_symmetry_space_group_name_H-M    P1
_symmetry_Int_Tables_number       1
_symmetry_cell_setting            triclinic
loop_
_symmetry_equiv_pos_as_xyz
'x, y, z'
_cell_length_a     43.988497
_cell_length_b     44.424959
_cell_length_c     43.547088
_cell_angle_alpha  84.848168
_cell_angle_beta   86.189955
_cell_angle_gamma 80.15171
loop_
_atom_site_label
_atom_site_type_symbol
_atom_site_fract_x
_atom_site_fract_y
_atom_site_fract_z
_atom_type_partial_charge
Dy0 Dy 0.97744 0.96722 0.01152 0.0
C1 C 0.08916 0.01103 0.96786 0.0
C2 C 0.92173 0.95077 0.02888 0.0
Dy3 Dy 0.03213 -0.00358 0.98242 0.0
O4 O 0.94797 0.93749 0.03944 0.0
O5 O 0.92582 0.97308 0.00843 0.0
O6 O 0.00766 0.94045 0.04758 0.0
O7 O 0.01613 0.98332 0.02904 0.0
C8 C 0.02618 0.96037 0.04667 0.0
C9 C 0.98239 0.00535 0.94885 0.0
O10 O 0.04736 0.94708 0.97371 0.0
O11 O -0.00025 0.93096 0.981 0.0
O12 O 0.06648 0.01604 0.94945 0.0
O13 O 0.08059 -0.00176 0.99422 0.0
O14 O 0.00114 0.02513 0.94825 0.0
O15 O 0.9927 0.98122 0.96489 0.0
O16 O 0.96334 0.01618 0.02367 0.0
O17 O 0.0097 0.03401 0.01098 0.0
C18 C 0.02935 0.92643 0.97151 0.0
C19 C 0.98112 0.03758 0.02356 0.0
Dy20 Dy 0.00669 0.26235 0.26029 0.0
C21 C 0.97214 0.16471 0.20088 0.0
C22 C 0.0101 0.30839 0.29629 0.0
Dy23 Dy 0.98099 0.21085 0.23465 0.0
O24 O 0.0329 0.29575 0.27873 0.0
O25 O 0.98559 0.29668 0.29312 0.0
O26 O 0.05494 0.23995 0.2487 0.0
O27 O 0.02064 0.21276 0.26119 0.0
C28 C 0.04814 0.21249 0.25104 0.0
C29 C 0.93985 0.26048 0.24544 0.0
O30 O 0.97465 0.19473 0.28421 0.0
O31 O 0.98489 0.23949 0.30217 0.0
O32 O 0.95132 0.18795 0.20737 0.0
O33 O -0.00232 0.16619 0.21361 0.0
O34 O 0.93316 0.23297 0.24845 0.0
O35 O 0.96703 0.26031 0.23432 0.0
O36 O 0.00874 0.27961 0.21073 0.0
O37 O 0.00605 0.23216 0.19387 0.0
C38 C 0.97515 0.21273 0.30678 0.0
C39 C 0.01206 0.2605 0.18863 0.0
Dy40 Dy 0.74909 0.20555 0.48883 0.0
C41 C 0.77018 0.32257 0.52112 0.0
C42 C 0.73663 0.14817 0.48512 0.0
Dy43 Dy 0.76061 0.26526 0.51225 0.0
O44 O 0.74144 0.16718 0.46158 0.0
O45 O 0.7385 0.16061 0.5106 0.0
O46 O 0.74676 0.22769 0.44026 0.0
O47 O 0.73206 0.25418 0.47762 0.0
C48 C 0.73747 0.25516 0.44886 0.0
C49 C 0.77038 0.2159 0.55251 0.0
O50 O 0.70971 0.27011 0.52217 0.0
O51 O 0.70662 0.21887 0.51941 0.0
O52 O 0.76585 0.30164 0.54289 0.0
O53 O 0.7701 0.31201 0.49426 0.0
O54 O 0.76053 0.24335 0.56075 0.0
O55 O 0.77699 0.21675 0.52394 0.0
O56 O 0.79985 0.20017 0.4792 0.0
O57 O 0.80398 0.2512 0.48255 0.0
C58 C 0.69483 0.24654 0.52799 0.0
C59 C 0.81548 0.22325 0.47424 0.0
Dy60 Dy 0.71833 0.9791 0.73259 0.0
C61 C 0.81318 0.00869 0.80483 0.0
C62 C 0.67001 0.97198 0.69971 0.0
Dy63 Dy 0.76718 0.00175 0.76869 0.0
O64 O 0.69845 0.95917 0.69455 0.0
O65 O 0.66782 0.9889 0.72287 0.0
O66 O 0.74727 0.93284 0.73164 0.0
O67 O 0.76871 0.9717 0.73184 0.0
C68 C 0.7731 0.9428 0.73361 0.0
C69 C 0.7117 0.03691 0.76805 0.0
O70 O 0.77622 0.02581 0.72265 0.0
O71 O 0.73047 0.01931 0.70199 0.0
O72 O 0.78405 0.01224 0.81326 0.0
O73 O 0.81738 0.00151 0.77639 0.0
O74 O 0.73714 0.04792 0.76874 0.0
O75 O 0.71701 0.00811 0.77021 0.0
O76 O 0.70993 0.95483 0.77865 0.0
O77 O 0.75685 0.95989 0.79766 0.0
C78 C 0.75562 0.03225 0.70112 0.0
C79 C 0.7313 0.94754 0.79939 0.0
Dy80 Dy 0.5129 0.77017 0.2632 0.0
C81 C 0.4717 0.67731 0.20225 0.0
C82 C 0.53086 0.80987 0.29974 0.0
Dy83 Dy 0.48213 0.72397 0.23468 0.0
O84 O 0.53847 0.78034 0.30257 0.0
O85 O 0.51338 0.81816 0.27643 0.0
O86 O 0.55856 0.74125 0.2537 0.0
O87 O 0.51944 0.72018 0.26537 0.0
C88 C 0.54773 0.71571 0.25703 0.0
C89 C 0.44706 0.77917 0.23763 0.0
O90 O 0.46998 0.71206 0.2842 0.0
O91 O 0.47572 0.75969 0.29823 0.0
O92 O 0.45067 0.69956 0.21089 0.0
O93 O 0.49821 0.68019 0.212 0.0
O94 O 0.43615 0.75368 0.23904 0.0
O95 O 0.4758 0.77415 0.23159 0.0
O96 O 0.52698 0.78288 0.2143 0.0
O97 O 0.51301 0.73997 0.19573 0.0
C98 C 0.46538 0.73336 0.30416 0.0
C99 C 0.52676 0.76449 0.19198 0.0
Dy100 Dy 0.22604 0.71896 0.47495 0.0
C101 C 0.25088 0.83807 0.50387 0.0
C102 C 0.21186 0.66411 0.46385 0.0
Dy103 Dy 0.24253 0.77941 0.50161 0.0
O104 O 0.20219 0.68995 0.4483 0.0
O105 O 0.22879 0.66823 0.48596 0.0
O106 O 0.23103 0.74247 0.4274 0.0
O107 O 0.21581 0.76848 0.46511 0.0
C108 C 0.22346 0.76987 0.43673 0.0
C109 C 0.25777 0.7287 0.53976 0.0
O110 O 0.19237 0.78304 0.51537 0.0
O111 O 0.18455 0.73375 0.50631 0.0
O112 O 0.2403 0.82148 0.52696 0.0
O113 O 0.25715 0.82246 0.47972 0.0
O114 O 0.26307 0.75541 0.54601 0.0
O115 O 0.24604 0.73188 0.51406 0.0
O116 O 0.27709 0.71196 0.46661 0.0
O117 O 0.28493 0.76195 0.4726 0.0
C118 C 0.17553 0.76071 0.51807 0.0
C119 C 0.29447 0.7338 0.46382 0.0
Dy120 Dy 0.23607 0.48164 0.70903 0.0
C121 C 0.30323 0.52909 0.7975 0.0
C122 C 0.19449 0.46287 0.6745 0.0
Dy123 Dy 0.26565 0.50921 0.75929 0.0
O124 O 0.2227 0.46529 0.66519 0.0
O125 O 0.18913 0.47045 0.70268 0.0
O126 O 0.28279 0.46492 0.68696 0.0
O127 O 0.2778 0.46819 0.73459 0.0
C128 C 0.29715 0.46345 0.71231 0.0
C129 C 0.20445 0.52648 0.75564 0.0
O130 O 0.27643 0.54003 0.71728 0.0
O131 O 0.24243 0.52645 0.68434 0.0
O132 O 0.27423 0.52762 0.80361 0.0
O133 O 0.31178 0.51992 0.77026 0.0
O134 O 0.21838 0.52425 0.7813 0.0
O135 O 0.22415 0.52246 0.73359 0.0
O136 O 0.22445 0.45206 0.75169 0.0
O137 O 0.26106 0.4634 0.78288 0.0
C138 C 0.26267 0.54368 0.69063 0.0
C139 C 0.23963 0.4472 0.77748 0.0
Dy140 Dy 0.95963 0.4797 0.52032 0.0
C141 C 0.06756 0.52428 0.46564 0.0
C142 C 0.90287 0.46708 0.53954 0.0
Dy143 Dy 0.01214 0.50932 0.48672 0.0
O144 O 0.92882 0.45183 0.54924 0.0
O145 O 0.90799 0.48922 0.51942 0.0
O146 O -0.00655 0.44844 0.55008 0.0
O147 O 0.00212 0.4923 0.53386 0.0
C148 C 0.01336 0.46715 0.54765 0.0
C149 C 0.95842 0.52115 0.45894 0.0
O150 O 0.02246 0.46165 0.47013 0.0
O151 O 0.97546 0.44623 0.48523 0.0
O152 O 0.04087 0.53837 0.45682 0.0
O153 O 0.06407 0.50186 0.48613 0.0
O154 O 0.97817 0.54001 0.45642 0.0
O155 O 0.96995 0.4965 0.47327 0.0
O156 O 0.94829 0.52729 0.53519 0.0
O157 O -0.00521 0.54405 0.52083 0.0
C158 C 0.00288 0.44192 0.47019 0.0
C159 C 0.96686 0.54781 0.53498 0.0
Dy160 Dy 0.21576 0.22923 0.98015 0.0
C161 C 0.24959 0.33546 0.02566 0.0
C162 C 0.20725 0.17351 0.96459 0.0
Dy163 Dy 0.23872 0.28073 0.00908 0.0
O164 O 0.22476 0.17775 0.98611 0.0
O165 O 0.19414 0.19965 0.95192 0.0
O166 O 0.19063 0.26278 0.94493 0.0
O167 O 0.23117 0.27165 0.96228 0.0
C168 C 0.20899 0.28269 0.94564 0.0
C169 C 0.24773 0.22618 0.04123 0.0
O170 O 0.18753 0.2916 0.01962 0.0
O171 O 0.17392 0.24523 0.00976 0.0
O172 O 0.25373 0.30988 0.04296 0.0
O173 O 0.23956 0.33108 -0.00065 0.0
O174 O 0.26694 0.24549 0.04043 0.0
O175 O 0.22403 0.23781 0.02688 0.0
O176 O 0.26677 0.21938 0.96777 0.0
O177 O 0.28061 0.26516 0.97918 0.0
C178 C 0.16708 0.27279 0.02027 0.0
C179 C 0.28729 0.23813 0.96742 0.0
Dy180 Dy 0.22238 0.99094 0.23083 0.0
C181 C 0.33586 0.00928 0.27969 0.0
C182 C 0.16723 0.98618 0.20854 0.0
Dy183 Dy 0.28074 0.00604 0.2563 0.0
O184 O 0.18779 0.96345 0.21812 0.0
O185 O 0.17658 0.01197 0.21138 0.0
O186 O 0.2472 0.94506 0.21917 0.0
O187 O 0.27206 0.98141 0.21789 0.0
C188 C 0.27426 0.95295 0.21641 0.0
C189 C 0.2287 0.04375 0.27122 0.0
O190 O 0.28345 0.0296 0.20869 0.0
O191 O 0.23236 0.03005 0.19768 0.0
O192 O 0.31494 0.03244 0.27197 0.0
O193 O 0.32694 0.98396 0.2742 0.0
O194 O 0.25572 0.05177 0.26885 0.0
O195 O 0.23128 0.01538 0.26918 0.0
O196 O 0.21892 0.96951 0.27916 0.0
O197 O 0.27077 0.96587 0.28829 0.0
C198 C 0.25915 0.03984 0.19185 0.0
C199 C 0.24346 0.95738 0.29493 0.0
Dy200 Dy 0.50685 0.25644 0.76528 0.0
C201 C 0.44403 0.18157 0.69892 0.0
C202 C 0.52879 0.30096 0.79216 0.0
Dy203 Dy 0.47123 0.22087 0.7281 0.0
O204 O 0.53795 0.27171 0.79763 0.0
O205 O 0.50843 0.30575 0.77128 0.0
O206 O 0.52767 0.21264 0.79098 0.0
O207 O 0.51759 0.2126 0.7447 0.0
C208 C 0.52686 0.19585 0.76822 0.0
C209 C 0.45353 0.28147 0.72331 0.0
O210 O 0.45102 0.21085 0.77595 0.0
O211 O 0.46882 0.24876 0.79967 0.0
O212 O 0.43539 0.21099 0.69802 0.0
O213 O 0.46733 0.17335 0.71642 0.0
O214 O 0.45325 0.26436 0.70078 0.0
O215 O 0.46093 0.26522 0.74776 0.0
O216 O 0.52835 0.265 0.71759 0.0
O217 O 0.50997 0.22732 0.69396 0.0
C218 C 0.45199 0.22673 0.80014 0.0
C219 C 0.52732 0.24899 0.69346 0.0
Dy220 Dy 0.01704 0.75733 0.76765 0.0
C221 C 0.95101 0.69009 0.69848 0.0
C222 C 0.04266 0.78961 0.80626 0.0
Dy223 Dy 0.97557 0.72359 0.73665 0.0
O224 O 0.04554 0.76002 0.8077 0.0
O225 O 0.02602 0.80178 0.78333 0.0
O226 O 0.05875 0.72705 0.74874 0.0
O227 O 0.01786 0.70928 0.76061 0.0
C228 C 0.04473 0.70364 0.74846 0.0
C229 C 0.94734 0.77659 0.75701 0.0
O230 O 0.96782 0.70336 0.78434 0.0
O231 O 0.98473 0.74268 0.80627 0.0
O232 O 0.94797 0.71972 0.69621 0.0
O233 O 0.967 0.67867 0.72206 0.0
O234 O 0.93396 0.75278 0.7565 0.0
O235 O 0.9741 0.77193 0.74418 0.0
O236 O 0.0268 0.77591 0.71954 0.0
O237 O 0.00773 0.73761 0.69797 0.0
C238 C 0.97061 0.71842 0.80855 0.0
C239 C 0.02301 0.761 0.69547 0.0
Dy240 Dy 0.71432 0.47089 0.23086 0.0
C241 C 0.80061 0.50667 0.30857 0.0
C242 C 0.66876 0.46251 0.19487 0.0
Dy243 Dy 0.75904 0.4957 0.26926 0.0
O244 O 0.69725 0.44889 0.19245 0.0
O245 O 0.66507 0.48084 0.21697 0.0
O246 O 0.74265 0.42433 0.23556 0.0
O247 O 0.76447 0.46339 0.23389 0.0
C248 C 0.76826 0.43456 0.23792 0.0
C249 C 0.70481 0.53163 0.2617 0.0
O250 O 0.77229 0.51757 0.22339 0.0
O251 O 0.73018 0.50819 0.19827 0.0
O252 O 0.77098 0.50995 0.31433 0.0
O253 O 0.80779 0.49722 0.28119 0.0
O254 O 0.7303 0.54214 0.26358 0.0
O255 O 0.70897 0.5029 0.26632 0.0
O256 O 0.7025 0.44818 0.27692 0.0
O257 O 0.74696 0.45524 0.2994 0.0
C258 C 0.75463 0.52191 0.19934 0.0
C259 C 0.722 0.44217 0.29949 0.0
Dy260 Dy 0.73417 0.70978 0.98384 0.0
C261 C 0.77564 0.81237 0.02683 0.0
C262 C 0.71893 0.65771 0.96536 0.0
Dy263 Dy 0.76222 0.75765 0.01357 0.0
O264 O 0.71076 0.68504 0.95227 0.0
O265 O 0.73532 0.65874 0.98886 0.0
O266 O 0.70793 0.74687 0.95294 0.0
O267 O 0.75175 0.75131 0.96678 0.0
C268 C 0.72849 0.76467 0.95264 0.0
C269 C 0.76754 0.70266 0.04501 0.0
O270 O 0.71165 0.77172 0.02521 0.0
O271 O 0.69409 0.72735 0.01508 0.0
O272 O 0.77612 0.7885 0.04651 0.0
O273 O 0.76823 0.80613 8e-05 0.0
O274 O 0.78804 0.72061 0.04515 0.0
O275 O 0.7445 0.7161 0.03059 0.0
O276 O 0.78462 0.69697 0.9698 0.0
O277 O 0.80389 0.7384 0.98567 0.0
C278 C 0.6896 0.75469 0.02613 0.0
C279 C 0.8075 0.71259 0.97184 0.0
Dy280 Dy 0.46164 0.97886 0.51147 0.0
C281 C 0.57298 0.02856 0.48369 0.0
C282 C 0.40396 0.96459 0.51803 0.0
Dy283 Dy 0.51577 0.0132 0.49074 0.0
O284 O 0.42732 0.95043 0.53334 0.0
O285 O 0.41223 0.98621 0.49891 0.0
O286 O 0.49081 0.94936 0.54699 0.0
O287 O 0.49742 -0.00542 0.53425 0.0
C288 C 0.50786 0.97014 0.54958 0.0
C289 C 0.47007 0.02172 0.45189 0.0
O290 O 0.53284 0.96661 0.47329 0.0
O291 O 0.48761 0.94555 0.47986 0.0
O292 O 0.54924 0.04238 0.46878 0.0
O293 O 0.56541 0.00659 0.50282 0.0
O294 O 0.48746 0.0422 0.4545 0.0
O295 O 0.48006 -0.00248 0.46787 0.0
O296 O 0.44409 0.02548 0.52799 0.0
O297 O 0.48909 0.04687 0.52177 0.0
C298 C 0.5168 0.94453 0.46954 0.0
C299 C 0.45977 0.04778 0.53168 0.0
Dy300 Dy 0.45946 0.48002 0.00872 0.0
C301 C 0.57298 0.51939 0.96434 0.0
C302 C 0.40358 0.46503 0.02821 0.0
Dy303 Dy 0.51461 0.50855 0.97886 0.0
O304 O 0.43014 0.44928 0.03541 0.0
O305 O 0.40742 0.48916 0.01015 0.0
O306 O 0.49234 0.4464 0.03794 0.0
O307 O 0.5017 0.49024 0.02455 0.0
C308 C 0.51233 0.46481 0.03786 0.0
C309 C 0.46174 0.5259 0.95058 0.0
O310 O 0.5245 0.46101 0.96274 0.0
O311 O 0.47513 0.44911 0.97097 0.0
O312 O 0.55002 0.52723 0.94637 0.0
O313 O 0.56394 0.50591 0.99015 0.0
O314 O 0.48276 0.54334 0.95035 0.0
O315 O 0.47153 0.49963 0.96302 0.0
O316 O 0.45043 0.52647 0.02794 0.0
O317 O 0.49693 0.54317 0.0125 0.0
C318 C 0.50378 0.44345 0.95877 0.0
C319 C 0.46974 0.54648 0.02806 0.0
H320 H 0.93132 0.04561 0.06519 0.0
H321 H 0.0113 0.08515 0.03003 0.0
H322 H 0.92594 0.07701 0.10913 0.0
H323 H 0.00583 0.11616 0.07392 0.0
H324 H 0.92051 0.16059 0.17139 0.0
H325 H 0.91799 0.13292 0.12565 0.0
H326 H 0.01511 0.09593 0.13038 0.0
H327 H 0.01763 0.1234 0.17599 0.0
C328 C 0.94718 0.06159 0.06628 0.0
C329 C 0.97213 0.06241 0.04442 0.0
C330 C 0.94413 0.07944 0.09152 0.0
C331 C 0.96603 0.09822 0.09523 0.0
C332 C 0.98915 0.10119 0.07191 0.0
C333 C 0.99208 0.0836 0.04666 0.0
C334 C 0.94114 0.14608 0.16291 0.0
C335 C 0.96931 0.14415 0.17702 0.0
C336 C 0.93969 0.13039 0.13678 0.0
C337 C 0.96648 0.1129 0.12425 0.0
C338 C -0.00573 0.10985 0.13928 0.0
C339 C -0.00435 0.12525 0.16552 0.0
H340 H 0.8511 0.2655 0.45068 0.0
H341 H 0.84873 0.16818 0.45967 0.0
H342 H 0.89669 0.25682 0.41579 0.0
H343 H 0.89467 0.1595 0.42515 0.0
H344 H 0.93484 0.17272 0.32251 0.0
H345 H 0.90191 0.17111 0.36963 0.0
H346 H 0.95081 0.23433 0.40789 0.0
H347 H 0.98338 0.23636 0.3606 0.0
C348 C 0.86073 0.24219 0.44583 0.0
C349 C 0.846 0.21763 0.45756 0.0
C350 C 0.88701 0.23716 0.42595 0.0
C351 C 0.89914 0.20745 0.41751 0.0
C352 C 0.88557 0.18268 0.43086 0.0
C353 C 0.85928 0.1877 0.45068 0.0
C354 C 0.93921 0.18549 0.34134 0.0
C355 C 0.96127 0.20509 0.33764 0.0
C356 C 0.92035 0.18457 0.36841 0.0
C357 C 0.9234 0.20309 0.39225 0.0
C358 C 0.94747 0.22036 0.38965 0.0
C359 C 0.9662 0.22138 0.36259 0.0
H360 H 0.7104 0.06715 0.66782 0.0
H361 H 0.80886 0.05282 0.67905 0.0
H362 H 0.71516 0.11048 0.63024 0.0
H363 H 0.81353 0.09606 0.64074 0.0
H364 H 0.80135 0.15821 0.54405 0.0
H365 H 0.79921 0.11153 0.57856 0.0
H366 H 0.73474 0.16389 0.64066 0.0
H367 H 0.73745 0.21044 0.60684 0.0
C368 C 0.73314 0.07289 0.66188 0.0
C369 C 0.75929 0.0566 0.67641 0.0
C370 C 0.73578 0.09775 0.64049 0.0
C371 C 0.76467 0.10645 0.63276 0.0
C372 C 0.79104 0.08957 0.64632 0.0
C373 C 0.78833 0.065 0.66826 0.0
C374 C 0.78691 0.15964 0.56519 0.0
C375 C 0.76968 0.18781 0.57297 0.0
C376 C 0.78575 0.13308 0.58484 0.0
C377 C 0.76678 0.13431 0.61209 0.0
C378 C 0.74943 0.16245 0.61967 0.0
C379 C 0.7511 0.18902 0.60044 0.0
H380 H 0.96667 0.04917 0.90205 0.0
H381 H 0.94124 0.96632 0.94854 0.0
H382 H 0.92548 0.05142 0.86618 0.0
H383 H 0.89957 0.96924 0.91345 0.0
H384 H 0.8077 0.01015 0.86696 0.0
H385 H 0.84867 0.01071 0.90205 0.0
H386 H 0.91485 0.01255 0.82443 0.0
H387 H 0.87386 0.01128 0.78915 0.0
C388 C 0.95209 0.03167 0.90477 0.0
C389 C 0.95688 0.0077 0.92815 0.0
C390 C 0.92872 0.03291 0.88423 0.0
C391 C 0.9095 0.01054 0.88725 0.0
C392 C 0.91403 0.98685 0.91089 0.0
C393 C 0.93775 0.98525 0.93097 0.0
C394 C 0.83096 0.01082 0.85738 0.0
C395 C 0.83776 0.01061 0.82544 0.0
C396 C 0.85432 0.01106 0.87743 0.0
C397 C 0.88472 0.01167 0.8658 0.0
C398 C 0.89145 0.01225 0.8338 0.0
C399 C 0.86813 0.01142 0.81373 0.0
H400 H 0.06009 0.0049 0.05196 0.0
H401 H 0.03569 0.92182 0.09883 0.0
H402 H 0.09005 0.0113 0.09498 0.0
H403 H 0.06432 0.92908 0.14299 0.0
H404 H 0.12358 0.03103 0.1832 0.0
H405 H 0.08572 0.02442 0.14679 0.0
H406 H 0.11551 0.92623 0.15729 0.0
H407 H 0.15193 0.93287 0.19453 0.0
C408 C 0.06132 0.98789 0.07145 0.0
C409 C 0.04604 0.9626 0.07189 0.0
C410 C 0.07796 -0.00811 0.09643 0.0
C411 C 0.0793 0.97091 0.12266 0.0
C412 C 0.064 0.94552 0.12304 0.0
C413 C 0.04766 0.9413 0.09777 0.0
C414 C 0.12137 0.00808 0.17819 0.0
C415 C 0.14079 0.98249 0.19127 0.0
C416 C 0.09999 0.00425 0.15715 0.0
C417 C 0.09805 0.97481 0.14862 0.0
C418 C 0.11619 0.94919 0.16339 0.0
C419 C 0.13722 0.95301 0.18465 0.0
H420 H 0.96241 0.40665 0.45531 0.0
H421 H 0.05588 0.42343 0.43466 0.0
H422 H 0.96757 0.37351 0.41407 0.0
H423 H 0.06185 0.3881 0.3938 0.0
H424 H 0.04346 0.35494 0.29878 0.0
H425 H 0.04565 0.38455 0.34336 0.0
H426 H 0.98922 0.32664 0.39803 0.0
H427 H 0.98506 0.29942 0.3532 0.0
C428 C 0.98449 0.40261 0.44249 0.0
C429 C 0.00873 0.41781 0.44831 0.0
C430 C 0.98755 0.38327 0.41877 0.0
C431 C 0.01523 0.37785 0.40055 0.0
C432 C 0.04005 0.39207 0.4071 0.0
C433 C 0.03677 0.41203 0.43071 0.0
C434 C 0.03146 0.34895 0.32041 0.0
C435 C 0.01337 0.32571 0.32257 0.0
C436 C 0.03297 0.36555 0.34602 0.0
C437 C 0.0171 0.3584 0.37423 0.0
C438 C 0.00075 0.33366 0.37649 0.0
C439 C -0.00159 0.31795 0.35083 0.0
H440 H 0.66409 0.299 0.5517 0.0
H441 H 0.65903 0.2032 0.54664 0.0
H442 H 0.61949 0.30364 0.58839 0.0
H443 H 0.61508 0.20775 0.58362 0.0
H444 H 0.52544 0.22679 0.63745 0.0
H445 H 0.56157 0.23033 0.59307 0.0
H446 H 0.61165 0.28471 0.64237 0.0
H447 H 0.57502 0.28179 0.68665 0.0
C448 C 0.65324 0.27905 0.55805 0.0
C449 C 0.66525 0.25066 0.54642 0.0
C450 C 0.62783 0.28169 0.57921 0.0
C451 C 0.61395 0.25603 0.58908 0.0
C452 C 0.62503 0.22806 0.57624 0.0
C453 C 0.65037 0.22541 0.55512 0.0
C454 C 0.54399 0.23975 0.63877 0.0
C455 C 0.54766 0.25366 0.66574 0.0
C456 C 0.5647 0.24173 0.61333 0.0
C457 C 0.58961 0.25753 0.61433 0.0
C458 C 0.59249 0.27261 0.64078 0.0
C459 C 0.57164 0.27076 0.66624 0.0
H460 H 0.6943 0.90375 0.80174 0.0
H461 H 0.76073 0.93666 0.85339 0.0
H462 H 0.69255 0.86106 0.84064 0.0
H463 H 0.75807 0.89478 0.89296 0.0
H464 H 0.77604 0.7956 0.93527 0.0
H465 H 0.77486 0.84146 0.89992 0.0
H466 H 0.67676 0.84545 0.89162 0.0
H467 H 0.67843 0.79881 0.92606 0.0
C468 C 0.70807 0.90219 0.82171 0.0
C469 C 0.72777 0.92345 0.82441 0.0
C470 C 0.707 0.87777 0.84413 0.0
C471 C 0.72531 0.8743 0.86995 0.0
C472 C 0.74416 0.89629 0.8731 0.0
C473 C 0.74553 0.92045 0.8505 0.0
C474 C 0.75422 0.80647 0.92603 0.0
C475 C 0.72735 0.79367 0.93321 0.0
C476 C 0.75345 0.83287 0.90589 0.0
C477 C 0.7257 0.84721 0.89276 0.0
C478 C 0.69865 0.83474 0.90078 0.0
C479 C 0.69952 0.80815 0.92066 0.0
H480 H 0.11284 0.25375 0.01154 0.0
H481 H 0.15399 0.30994 0.06737 0.0
H482 H 0.06648 0.25924 0.04585 0.0
H483 H 0.10882 0.31383 0.10277 0.0
H484 H 0.02736 0.31635 0.16698 0.0
H485 H 0.05704 0.32769 0.11921 0.0
H486 H 0.05783 0.23543 0.09425 0.0
H487 H 0.0272 0.22487 0.14055 0.0
C488 C 0.11176 0.26758 0.03097 0.0
C489 C 0.13712 0.28095 0.03717 0.0
C490 C 0.08531 0.27061 0.05076 0.0
C491 C 0.08413 0.28627 0.07764 0.0
C492 C 0.10862 0.30174 0.0823 0.0
C493 C 0.13473 0.29934 0.06207 0.0
C494 C 0.0333 0.29882 0.15085 0.0
C495 C 0.02539 0.26955 0.15784 0.0
C496 C 0.05046 0.30524 0.12354 0.0
C497 C 0.06032 0.28239 0.10294 0.0
C498 C 0.05046 0.25386 0.10913 0.0
C499 C 0.03306 0.24763 0.13608 0.0
H500 H 0.74598 0.43335 0.35634 0.0
H501 H 0.69074 0.39431 0.29703 0.0
H502 H 0.74645 0.38865 0.39336 0.0
H503 H 0.69147 0.34941 0.33408 0.0
H504 H 0.74377 0.25982 0.38602 0.0
H505 H 0.73557 0.30651 0.35117 0.0
H506 H 0.71012 0.36051 0.42934 0.0
H507 H 0.71769 0.31376 0.46416 0.0
C508 C 0.73353 0.41544 0.35144 0.0
C509 C 0.71829 0.41737 0.32378 0.0
C510 C 0.73375 0.38989 0.37268 0.0
C511 C 0.71915 0.3655 0.36649 0.0
C512 C 0.7031 0.36781 0.33929 0.0
C513 C 0.70245 0.39363 0.31825 0.0
C514 C 0.73621 0.28165 0.39571 0.0
C515 C 0.73164 0.28323 0.42778 0.0
C516 C 0.73135 0.30832 0.37578 0.0
C517 C 0.7222 0.33711 0.38757 0.0
C518 C 0.71736 0.33864 0.41966 0.0
C519 C 0.72176 0.31192 0.43955 0.0
H520 H 0.53273 0.01721 0.56698 0.0
H521 H 0.53518 0.91953 0.58417 0.0
H522 H 0.57024 0.01557 0.606 0.0
H523 H 0.57328 0.91788 0.62333 0.0
H524 H 0.67054 0.93135 0.65667 0.0
H525 H 0.6297 0.92884 0.62199 0.0
H526 H 0.5715 0.00355 0.665 0.0
H527 H 0.61229 0.0059 0.69992 0.0
C528 C 0.54134 -0.00464 0.57912 0.0
C529 C 0.53111 0.96845 0.57266 0.0
C530 C 0.5626 -0.0055 0.6016 0.0
C531 C 0.57434 0.96667 0.61779 0.0
C532 C 0.56446 0.93962 0.6111 0.0
C533 C 0.54276 0.94055 0.58881 0.0
C534 C 0.64886 0.94698 0.65892 0.0
C535 C 0.64449 0.96894 0.68075 0.0
C536 C 0.62551 0.9454 0.63924 0.0
C537 C 0.59761 0.96606 0.64083 0.0
C538 C 0.59295 0.98751 0.66324 0.0
C539 C 0.61616 0.9888 0.68322 0.0
H540 H 0.07874 0.92133 0.93002 0.0
H541 H 0.00585 0.87362 0.96982 0.0
H542 H 0.09074 0.88461 0.89075 0.0
H543 H 0.01849 0.83654 0.9308 0.0
H544 H 0.04399 0.85073 0.80436 0.0
H545 H 0.04992 0.87987 0.84807 0.0
H546 H 0.06552 0.7959 0.90711 0.0
H547 H 0.06043 0.76664 0.86327 0.0
C548 C 0.06594 0.90247 0.93103 0.0
C549 C 0.04107 0.90051 0.95275 0.0
C550 C 0.07281 0.88158 0.90849 0.0
C551 C 0.05541 0.85804 0.90782 0.0
C552 C 0.03231 0.85449 0.93106 0.0
C553 C 0.02501 0.87574 0.95325 0.0
C554 C 0.04955 0.83851 0.82647 0.0
C555 C 0.05159 0.8066 0.83062 0.0
C556 C 0.05306 0.85508 0.85137 0.0
C557 C 0.05809 0.83996 0.88078 0.0
C558 C 0.06168 0.80792 0.88457 0.0
C559 C 0.05881 0.79129 0.85953 0.0
H560 H 0.11295 0.03301 0.9128 0.0
H561 H 0.12952 0.01796 0.01 0.0
H562 H 0.15311 0.06508 0.90542 0.0
H563 H 0.16823 0.05119 0.00323 0.0
H564 H 0.23194 0.11695 0.98999 0.0
H565 H 0.21424 0.06857 0.98434 0.0
H566 H 0.14851 0.11563 0.91919 0.0
H567 H 0.16711 0.16313 0.92396 0.0
C568 C 0.12568 0.0361 0.93243 0.0
C569 C 0.11782 0.02374 0.96205 0.0
C570 C 0.14854 0.05455 0.92829 0.0
C571 C 0.16328 0.06147 0.95386 0.0
C572 C 0.15751 0.04638 0.98294 0.0
C573 C 0.13509 0.02748 0.98694 0.0
C574 C 0.21425 0.11659 0.97392 0.0
C575 C 0.20043 0.14369 0.95779 0.0
C576 C 0.20406 0.08897 0.97073 0.0
C577 C 0.17967 0.0882 0.95162 0.0
C578 C 0.16758 0.11509 0.93383 0.0
C579 C 0.17796 0.14251 0.93681 0.0
H580 H 0.69687 0.57205 0.21211 0.0
H581 H 0.64872 0.53537 0.29256 0.0
H582 H 0.6531 0.61302 0.20375 0.0
H583 H 0.60554 0.57774 0.28581 0.0
H584 H 0.53041 0.65898 0.266 0.0
H585 H 0.56352 0.60937 0.2596 0.0
H586 H 0.64062 0.65635 0.23206 0.0
H587 H 0.60754 0.70515 0.23717 0.0
C588 C 0.67651 0.57257 0.22764 0.0
C589 C 0.67597 0.5511 0.25312 0.0
C590 C 0.65158 0.5961 0.22307 0.0
C591 C 0.62627 0.59926 0.24471 0.0
C592 C 0.62464 0.57602 0.2687 0.0
C593 C 0.64934 0.55184 0.2727 0.0
C594 C 0.55436 0.65846 0.25812 0.0
C595 C 0.56655 0.68574 0.25216 0.0
C596 C 0.5733 0.63015 0.25455 0.0
C597 C 0.60469 0.62882 0.24509 0.0
C598 C 0.61644 0.65636 0.2386 0.0
C599 C 0.59756 0.68444 0.24194 0.0
H600 H 0.27421 0.87409 0.45784 0.0
H601 H 0.24934 0.86851 0.55557 0.0
H602 H 0.30302 0.91501 0.46425 0.0
H603 H 0.27791 0.90991 0.56201 0.0
H604 H 0.38288 0.92261 0.55929 0.0
H605 H 0.33518 0.90212 0.55789 0.0
H606 H 0.30806 0.9662 0.47995 0.0
H607 H 0.35617 0.98661 0.4813 0.0
C608 C 0.27407 0.88239 0.48051 0.0
C609 C 0.26037 0.86776 0.50636 0.0
C610 C 0.29034 0.906 0.48417 0.0
C611 C 0.29315 0.9152 0.51376 0.0
C612 C 0.27647 0.90285 0.53905 0.0
C613 C 0.26012 0.87926 0.53536 0.0
C614 C 0.36641 0.93273 0.5423 0.0
C615 C 0.37326 0.95574 0.5201 0.0
C616 C 0.33892 0.92128 0.5417 0.0
C617 C 0.31793 0.93257 0.51874 0.0
C618 C 0.32393 0.95704 0.49777 0.0
C619 C 0.3514 0.96864 0.49853 0.0
H620 H 0.0975 0.68902 0.71377 0.0
H621 H 0.02805 0.64915 0.77058 0.0
H622 H 0.12887 0.63837 0.71092 0.0
H623 H 0.0599 0.5983 0.76831 0.0
H624 H 0.16084 0.54492 0.80043 0.0
H625 H 0.11393 0.58257 0.79321 0.0
H626 H 0.13047 0.58306 0.69433 0.0
H627 H 0.17717 0.54514 0.70147 0.0
C628 C 0.08875 0.66927 0.72511 0.0
C629 C 0.06076 0.67282 0.74274 0.0
C630 C 0.10649 0.64031 0.72327 0.0
C631 C 0.0967 0.61457 0.73945 0.0
C632 C 0.06781 0.61788 0.75565 0.0
C633 C 0.04972 0.64686 0.75696 0.0
C634 C 0.15389 0.55236 0.77719 0.0
C635 C 0.1729 0.54287 0.75153 0.0
C636 C 0.12697 0.57369 0.77305 0.0
C637 C 0.11897 0.58587 0.74322 0.0
C638 C 0.1364 0.57409 0.71753 0.0
C639 C 0.1631 0.55253 0.72166 0.0
H640 H 0.78742 0.36568 0.47828 0.0
H641 H 0.76886 0.34699 0.57614 0.0
H642 H 0.80924 0.41044 0.48837 0.0
H643 H 0.79007 0.3922 0.58631 0.0
H644 H 0.88884 0.42214 0.58153 0.0
H645 H 0.84521 0.39532 0.58098 0.0
H646 H 0.80617 0.461 0.50881 0.0
H647 H 0.85027 0.48775 0.50926 0.0
C648 C 0.78722 0.37172 0.50186 0.0
C649 C 0.77731 0.35263 0.5265 0.0
C650 C 0.79939 0.39752 0.50767 0.0
C651 C 0.80169 0.40456 0.53821 0.0
C652 C 0.78896 0.38702 0.56261 0.0
C653 C 0.77693 0.36117 0.55679 0.0
C654 C 0.87042 0.4314 0.5663 0.0
C655 C 0.87307 0.45652 0.54504 0.0
C656 C 0.84527 0.41621 0.5661 0.0
C657 C 0.82249 0.42586 0.5445 0.0
C658 C 0.82362 0.4529 0.5254 0.0
C659 C 0.84876 0.46822 0.52575 0.0
H660 H 0.33435 0.96318 0.21554 0.0
H661 H 0.27852 0.89227 0.2141 0.0
H662 H 0.3812 0.92385 0.21632 0.0
H663 H 0.32436 0.85364 0.21516 0.0
H664 H 0.40672 0.78989 0.19283 0.0
H665 H 0.36905 0.83594 0.18206 0.0
H666 H 0.40518 0.87987 0.25306 0.0
H667 H 0.44415 0.83372 0.26276 0.0
C668 C 0.33217 0.9393 0.2152 0.0
C669 C 0.30296 0.93065 0.21477 0.0
C670 C 0.35883 0.91689 0.21572 0.0
C671 C 0.35643 0.88574 0.21543 0.0
C672 C 0.3271 0.87746 0.21466 0.0
C673 C 0.30076 0.89962 0.21426 0.0
C674 C 0.4069 0.80963 0.2057 0.0
C675 C 0.42768 0.8084 0.22893 0.0
C676 C 0.38541 0.83593 0.19959 0.0
C677 C 0.38376 0.86121 0.21721 0.0
C678 C 0.406 0.86073 0.23911 0.0
C679 C 0.42806 0.8344 0.24482 0.0
H680 H 0.34445 0.45596 0.66879 0.0
H681 H 0.31999 0.43185 0.76435 0.0
H682 H 0.39228 0.41907 0.67238 0.0
H683 H 0.3661 0.3935 0.76753 0.0
H684 H 0.44633 0.32055 0.76945 0.0
H685 H 0.41798 0.37293 0.76746 0.0
H686 H 0.40003 0.36669 0.67183 0.0
H687 H 0.43004 0.31581 0.67346 0.0
C688 C 0.34958 0.44297 0.69063 0.0
C689 C 0.32838 0.4461 0.71605 0.0
C690 C 0.37681 0.42169 0.69271 0.0
C691 C 0.38272 0.40248 0.71995 0.0
C692 C 0.36264 0.40778 0.74616 0.0
C693 C 0.3359 0.42965 0.74429 0.0
C694 C 0.437 0.33089 0.74786 0.0
C695 C 0.43997 0.31412 0.72172 0.0
C696 C 0.42054 0.36079 0.74672 0.0
C697 C 0.4062 0.37409 0.71962 0.0
C698 C 0.41097 0.3577 0.69304 0.0
C699 C 0.42787 0.32819 0.69405 0.0
H700 H 0.13895 0.71823 0.53824 0.0
H701 H 0.14665 0.81354 0.54239 0.0
H702 H 0.09697 0.72347 0.57753 0.0
H703 H 0.10413 0.81885 0.58133 0.0
H704 H 0.06868 0.79587 0.68315 0.0
H705 H 0.10038 0.79996 0.63541 0.0
H706 H 0.04464 0.74641 0.59194 0.0
H707 H 0.01337 0.74174 0.63981 0.0
C708 C 0.13122 0.74051 0.54694 0.0
C709 C 0.14649 0.76533 0.53746 0.0
C710 C 0.107 0.74355 0.56942 0.0
C711 C 0.09743 0.77153 0.58279 0.0
C712 C 0.11137 0.79687 0.57186 0.0
C713 C 0.13564 0.79382 0.54943 0.0
C714 C 0.06282 0.78549 0.66324 0.0
C715 C 0.03885 0.76809 0.6654 0.0
C716 C 0.0809 0.78794 0.6358 0.0
C717 C 0.07522 0.77319 0.60999 0.0
C718 C 0.04995 0.75752 0.6116 0.0
C719 C 0.032 0.75495 0.63903 0.0
H720 H 0.29011 0.91627 0.32037 0.0
H721 H 0.19068 0.94188 0.32433 0.0
H722 H 0.28558 0.8718 0.35655 0.0
H723 H 0.18632 0.89743 0.36082 0.0
H724 H 0.19716 0.82813 0.44817 0.0
H725 H 0.2024 0.8755 0.4162 0.0
H726 H 0.26237 0.8229 0.3507 0.0
H727 H 0.2569 0.77564 0.38245 0.0
C728 C 0.26732 0.91272 0.32933 0.0
C729 C 0.24073 0.93256 0.31944 0.0
C730 C 0.26476 0.88715 0.34987 0.0
C731 C 0.23561 0.88116 0.36129 0.0
C732 C 0.20907 0.90164 0.35243 0.0
C733 C 0.21159 0.92699 0.33149 0.0
C734 C 0.21142 0.8268 0.42692 0.0
C735 C 0.22657 0.79835 0.41764 0.0
C736 C 0.21435 0.8538 0.40867 0.0
C737 C 0.23284 0.85278 0.38109 0.0
C738 C 0.24821 0.82431 0.37202 0.0
C739 C 0.24491 0.79731 0.39002 0.0
H740 H 0.94886 0.62916 0.70256 0.0
H741 H 0.93808 0.71059 0.63947 0.0
H742 H 0.94607 0.5979 0.65968 0.0
H743 H 0.93609 0.67917 0.59647 0.0
H744 H -0.00588 0.59846 0.53765 0.0
H745 H 0.98264 0.63636 0.57604 0.0
H746 H 0.90769 0.59208 0.61607 0.0
H747 H 0.91855 0.55456 0.5777 0.0
C748 C 0.94523 0.64035 0.67964 0.0
C749 C 0.94372 0.67212 0.67417 0.0
C750 C 0.94359 0.62256 0.65519 0.0
C751 C 0.94103 0.63629 0.62494 0.0
C752 C 0.93815 0.66821 0.61967 0.0
C753 C 0.93912 0.68609 0.64422 0.0
C754 C 0.97482 0.59718 0.55424 0.0
C755 C 0.9575 0.57334 0.55484 0.0
C756 C 0.96817 0.61893 0.57603 0.0
C757 C 0.94441 0.61685 0.59891 0.0
C758 C 0.92617 0.59397 0.59863 0.0
C759 C 0.93246 0.57256 0.57661 0.0
H760 H 0.31257 0.69237 0.42119 0.0
H761 H 0.34477 0.76106 0.46893 0.0
H762 H 0.35874 0.68833 0.38713 0.0
H763 H 0.39208 0.75578 0.43601 0.0
H764 H 0.4393 0.77728 0.34174 0.0
H765 H 0.4029 0.77273 0.38514 0.0
H766 H 0.41192 0.67537 0.37597 0.0
H767 H 0.44754 0.6804 0.33102 0.0
C768 C 0.33003 0.70592 0.42501 0.0
C769 C 0.32491 0.7274 0.44735 0.0
C770 C 0.35669 0.70347 0.40556 0.0
C771 C 0.37904 0.72208 0.40842 0.0
C772 C 0.37496 0.74174 0.43253 0.0
C773 C 0.34796 0.74467 0.45154 0.0
C774 C 0.43387 0.75478 0.34912 0.0
C775 C 0.44603 0.72924 0.33271 0.0
C776 C 0.41312 0.75209 0.37436 0.0
C777 C 0.40432 0.72366 0.38421 0.0
C778 C 0.41773 0.69774 0.3687 0.0
C779 C 0.43822 0.70055 0.34303 0.0
H780 H 0.22601 0.05076 0.1402 0.0
H781 H 0.2966 0.0832 0.18629 0.0
H782 H 0.22565 0.09315 0.10068 0.0
H783 H 0.29506 0.12672 0.14795 0.0
H784 H 0.30022 0.19398 0.06517 0.0
H785 H 0.30581 0.14613 0.098 0.0
H786 H 0.20793 0.14521 0.09388 0.0
H787 H 0.20306 0.19194 0.05959 0.0
C788 C 0.24151 0.067 0.14181 0.0
C789 C 0.26132 0.06371 0.1663 0.0
C790 C 0.24111 0.09153 0.11931 0.0
C791 C 0.26001 0.11381 0.12115 0.0
C792 C 0.28047 0.10992 0.14531 0.0
C793 C 0.28132 0.08498 0.16745 0.0
C794 C 0.28004 0.18328 0.07115 0.0
C795 C 0.25121 0.19664 0.06004 0.0
C796 C 0.28314 0.15596 0.09016 0.0
C797 C 0.25731 0.14168 0.09896 0.0
C798 C 0.22852 0.15503 0.08729 0.0
C799 C 0.22559 0.18203 0.06781 0.0
H800 H 0.81759 0.67936 0.92152 0.0
H801 H 0.86399 0.72513 0.98322 0.0
H802 H 0.86319 0.67418 0.88661 0.0
H803 H 0.91043 0.71854 0.9491 0.0
H804 H 0.95604 0.75342 0.85722 0.0
H805 H 0.92196 0.74439 0.90173 0.0
H806 H 0.91491 0.65559 0.87201 0.0
H807 H 0.94814 0.66543 0.82638 0.0
C808 C 0.83796 0.68736 0.92813 0.0
C809 C 0.8371 0.70319 0.95471 0.0
C810 C 0.86427 0.68424 0.90817 0.0
C811 C 0.8904 0.69648 0.9147 0.0
C812 C 0.89042 0.70966 0.94289 0.0
C813 C 0.8639 0.71329 0.96254 0.0
C814 C 0.94771 0.73171 0.86042 0.0
C815 C 0.95436 0.71035 0.83805 0.0
C816 C 0.92828 0.72637 0.88619 0.0
C817 C 0.91538 0.69931 0.89044 0.0
C818 C 0.92389 0.67696 0.86913 0.0
C819 C 0.94302 0.68252 0.84306 0.0
H820 H 0.2582 0.54609 0.62873 0.0
H821 H 0.27807 0.59887 0.70126 0.0
H822 H 0.26102 0.58958 0.59124 0.0
H823 H 0.2794 0.6432 0.66398 0.0
H824 H 0.29865 0.713 0.58503 0.0
H825 H 0.30434 0.66678 0.62068 0.0
H826 H 0.22982 0.6366 0.57816 0.0
H827 H 0.2251 0.68215 0.54234 0.0
C828 C 0.2632 0.56709 0.63662 0.0
C829 C 0.26766 0.56924 0.6679 0.0
C830 C 0.26459 0.59213 0.61518 0.0
C831 C 0.26986 0.62017 0.62459 0.0
C832 C 0.27553 0.62193 0.6558 0.0
C833 C 0.27467 0.59659 0.67722 0.0
C834 C 0.28383 0.69617 0.58325 0.0
C835 C 0.26193 0.7006 0.56059 0.0
C836 C 0.2869 0.66983 0.60375 0.0
C837 C 0.26774 0.64773 0.60221 0.0
C838 C 0.24565 0.65255 0.57953 0.0
C839 C 0.24291 0.67863 0.55888 0.0
H840 H 0.37891 0.96276 0.30329 0.0
H841 H 0.35058 0.06097 0.29871 0.0
H842 H 0.41515 0.96631 0.34248 0.0
H843 H 0.38543 0.06451 0.33863 0.0
H844 H 0.4627 0.06377 0.40213 0.0
H845 H 0.43596 0.06015 0.35557 0.0
H846 H 0.40846 0.97555 0.39555 0.0
H847 H 0.43648 0.97846 0.44108 0.0
C848 C 0.38084 0.9851 0.31033 0.0
C849 C 0.36183 0.01154 0.29835 0.0
C850 C 0.40128 0.98716 0.33298 0.0
C851 C 0.4027 0.01564 0.34418 0.0
C852 C 0.38511 0.04225 0.3305 0.0
C853 C 0.365 0.04021 0.30768 0.0
C854 C 0.45076 0.04454 0.40091 0.0
C855 C 0.45137 0.02153 0.42523 0.0
C856 C 0.4355 0.0424 0.37426 0.0
C857 C 0.42028 0.0174 0.37167 0.0
C858 C 0.42056 -0.00529 0.39637 0.0
C859 C 0.43612 -0.00334 0.42275 0.0
H860 H 0.7899 0.83011 0.08172 0.0
H861 H 0.78503 0.85876 0.98453 0.0
H862 H 0.8163 0.87289 0.08894 0.0
H863 H 0.81257 0.90035 0.9912 0.0
H864 H 0.91236 0.90347 0.06978 0.0
H865 H 0.86804 0.87748 0.07489 0.0
H866 H 0.82024 0.94651 0.01048 0.0
H867 H 0.86566 0.97195 0.00451 0.0
C868 C 0.79408 0.84587 0.06205 0.0
C869 C 0.78616 0.84089 0.03249 0.0
C870 C 0.80924 0.87028 0.06611 0.0
C871 C 0.81718 0.88969 0.04055 0.0
C872 C 0.80673 0.8861 0.01148 0.0
C873 C 0.7912 0.862 0.00755 0.0
C874 C 0.89215 0.91344 0.05718 0.0
C875 C 0.89255 0.93926 0.03627 0.0
C876 C 0.8665 0.89873 0.06037 0.0
C877 C 0.8406 0.90968 0.04281 0.0
C878 C 0.84005 0.93717 0.02388 0.0
C879 C 0.86593 0.9518 0.02054 0.0
H880 H 0.71684 0.11158 0.53284 0.0
H881 H 0.72819 0.1213 0.43336 0.0
H882 H 0.68374 0.0735 0.52954 0.0
H883 H 0.69574 0.08242 0.42997 0.0
H884 H 0.59162 0.07172 0.44241 0.0
H885 H 0.64006 0.09124 0.44023 0.0
H886 H 0.67225 0.02495 0.51485 0.0
H887 H 0.62312 0.00569 0.51729 0.0
C888 C 0.71311 0.10473 0.51031 0.0
C889 C 0.72429 0.1198 0.48331 0.0
C890 C 0.69433 0.08274 0.5084 0.0
C891 C 0.68664 0.07547 0.47944 0.0
C892 C 0.70078 0.08811 0.45257 0.0
C893 C 0.7194 0.11024 0.45449 0.0
C894 C 0.60923 0.06102 0.45801 0.0
C895 C 0.60363 0.03757 0.48027 0.0
C896 C 0.63717 0.07191 0.45653 0.0
C897 C 0.66002 0.05957 0.47735 0.0
C898 C 0.65497 0.03498 0.49864 0.0
C899 C 0.62694 0.024 0.50004 0.0
H900 H 0.82631 0.43591 0.21278 0.0
H901 H 0.77384 0.38864 0.28273 0.0
H902 H 0.8711 0.39549 0.2201 0.0
H903 H 0.81895 0.34971 0.29221 0.0
H904 H 0.87889 0.2636 0.2599 0.0
H905 H 0.84031 0.30905 0.26391 0.0
H906 H 0.91156 0.36574 0.24767 0.0
H907 H 0.95015 0.31967 0.24179 0.0
C908 C 0.82487 0.41737 0.23048 0.0
C909 C 0.79682 0.41474 0.24678 0.0
C910 C 0.85049 0.39431 0.23488 0.0
C911 C 0.8484 0.36884 0.25622 0.0
C912 C 0.82105 0.3683 0.27476 0.0
C913 C 0.79529 0.3907 0.26959 0.0
C914 C 0.88633 0.28576 0.25739 0.0
C915 C 0.91734 0.28824 0.25033 0.0
C916 C 0.86425 0.31192 0.26008 0.0
C917 C 0.87277 0.34123 0.25635 0.0
C918 C 0.90413 0.34359 0.25033 0.0
C919 C 0.92623 0.31727 0.24713 0.0
H920 H 0.07609 0.57149 0.42442 0.0
H921 H 0.12424 0.50292 0.48865 0.0
H922 H 0.12005 0.59781 0.41873 0.0
H923 H 0.16944 0.52867 0.48203 0.0
H924 H 0.19588 0.64658 0.41011 0.0
H925 H 0.17063 0.603 0.40354 0.0
H926 H 0.17886 0.57434 0.50071 0.0
H927 H 0.20608 0.61668 0.50643 0.0
C928 C 0.09658 0.56154 0.4366 0.0
C929 C 0.09668 0.53559 0.45737 0.0
C930 C 0.12206 0.57645 0.43311 0.0
C931 C 0.14834 0.56558 0.45018 0.0
C932 C 0.14937 0.53797 0.46899 0.0
C933 C 0.12363 0.52312 0.47264 0.0
C934 C 0.19298 0.63036 0.42976 0.0
C935 C 0.20217 0.6351 0.45888 0.0
C936 C 0.17845 0.6055 0.42609 0.0
C937 C 0.17184 0.58564 0.45177 0.0
C938 C 0.1836 0.589 0.48035 0.0
C939 C 0.19895 0.61343 0.48378 0.0
H940 H 0.6991 0.09453 0.74122 0.0
H941 H 0.65579 0.02126 0.78698 0.0
H942 H 0.64863 0.12742 0.73819 0.0
H943 H 0.60514 0.05475 0.78484 0.0
H944 H 0.54808 0.15559 0.81582 0.0
H945 H 0.58932 0.11112 0.81264 0.0
H946 H 0.59233 0.12492 0.71322 0.0
H947 H 0.55057 0.1688 0.71622 0.0
C948 C 0.6787 0.0855 0.75048 0.0
C949 C 0.68112 0.05564 0.76459 0.0
C950 C 0.64992 0.10415 0.74852 0.0
C951 C 0.62324 0.09341 0.76121 0.0
C952 C 0.62551 0.06332 0.77482 0.0
C953 C 0.65432 0.04432 0.77606 0.0
C954 C 0.55692 0.1485 0.79332 0.0
C955 C 0.54655 0.16575 0.76631 0.0
C956 C 0.58032 0.12306 0.79151 0.0
C957 C 0.59389 0.11495 0.7627 0.0
C958 C 0.58208 0.1309 0.73564 0.0
C959 C 0.55826 0.15593 0.73741 0.0
H960 H 0.73128 0.5304 0.14192 0.0
H961 H 0.79117 0.56591 0.19923 0.0
H962 H 0.73712 0.57135 0.102 0.0
H963 H 0.796 0.60755 0.15999 0.0
H964 H 0.81567 0.66994 0.07635 0.0
H965 H 0.8157 0.62335 0.11069 0.0
H966 H 0.71997 0.62429 0.09281 0.0
H967 H 0.72056 0.66997 0.0576 0.0
C968 C 0.74582 0.54687 0.14596 0.0
C969 C 0.76072 0.54487 0.17381 0.0
C970 C 0.74897 0.57055 0.12314 0.0
C971 C 0.76679 0.59308 0.12776 0.0
C972 C 0.78243 0.59047 0.1553 0.0
C973 C 0.77956 0.56659 0.17795 0.0
C974 C 0.79477 0.65994 0.07962 0.0
C975 C 0.76809 0.6736 0.06447 0.0
C976 C 0.79469 0.63334 0.09945 0.0
C977 C 0.76778 0.62001 0.1048 0.0
C978 C 0.74129 0.63349 0.089 0.0
C979 C 0.74151 0.65987 0.06895 0.0
H980 H 0.91718 0.48216 0.46043 0.0
H981 H 0.94231 0.56386 0.4111 0.0
H982 H 0.87714 0.48227 0.42431 0.0
H983 H 0.90279 0.56317 0.37404 0.0
H984 H 0.86128 0.51194 0.297 0.0
H985 H 0.89791 0.51968 0.33454 0.0
H986 H 0.82595 0.52083 0.40701 0.0
H987 H 0.78925 0.51379 0.36957 0.0
C988 C 0.91376 0.50045 0.4422 0.0
C989 C 0.93255 0.52321 0.43874 0.0
C990 C 0.89098 0.5004 0.42148 0.0
C991 C 0.88708 0.5227 0.39652 0.0
C992 C 0.90555 0.54573 0.39316 0.0
C993 C 0.92795 0.54619 0.41437 0.0
C994 C 0.85333 0.51412 0.3209 0.0
C995 C 0.8226 0.51218 0.33053 0.0
C996 C 0.87414 0.51874 0.34223 0.0
C997 C 0.86455 0.52089 0.37348 0.0
C998 C 0.83376 0.51922 0.38299 0.0
C999 C 0.81287 0.5152 0.36162 0.0
H1000 H 0.19734 0.46358 0.61187 0.0
H1001 H 0.13809 0.44872 0.69297 0.0
H1002 H 0.15507 0.46045 0.57901 0.0
H1003 H 0.09607 0.44498 0.66011 0.0
H1004 H 0.03595 0.41811 0.58673 0.0
H1005 H 0.0824 0.4119 0.61643 0.0
H1006 H 0.10207 0.49888 0.57487 0.0
H1007 H 0.05528 0.50564 0.5462 0.0
C1008 C 0.1755 0.45899 0.6226 0.0
C1009 C 0.17078 0.45656 0.65486 0.0
C1010 C 0.15138 0.45729 0.60386 0.0
C1011 C 0.12243 0.45255 0.61713 0.0
C1012 C 0.11828 0.44843 0.64938 0.0
C1013 C 0.14221 0.45069 0.66812 0.0
C1014 C 0.05036 0.43575 0.58383 0.0
C1015 C 0.0422 0.46227 0.56406 0.0
C1016 C 0.07684 0.43218 0.60076 0.0
C1017 C 0.0958 0.4548 0.59766 0.0
C1018 C 0.08804 0.4809 0.57727 0.0
C1019 C 0.0613 0.48476 0.56088 0.0
H1020 H 0.54115 0.7252 0.14702 0.0
H1021 H 0.55142 0.81555 0.16982 0.0
H1022 H 0.5752 0.72979 0.10192 0.0
H1023 H 0.58467 0.82097 0.12312 0.0
H1024 H 0.68056 0.7923 0.07289 0.0
H1025 H 0.63554 0.80109 0.10814 0.0
H1026 H 0.5869 0.75045 0.05287 0.0
H1027 H 0.63302 0.73997 0.01873 0.0
C1028 C 0.55007 0.74648 0.14196 0.0
C1029 C 0.54394 0.76985 0.16229 0.0
C1030 C 0.56946 0.74927 0.11571 0.0
C1031 C 0.58292 0.77574 0.10875 0.0
C1032 C 0.57521 0.8 0.12807 0.0
C1033 C 0.55607 0.79698 0.15476 0.0
C1034 C 0.66005 0.78351 0.06798 0.0
C1035 C 0.66041 0.76489 0.04353 0.0
C1036 C 0.63403 0.78877 0.0881 0.0
C1037 C 0.60764 0.776 0.08378 0.0
C1038 C 0.60714 0.75981 0.0575 0.0
C1039 C 0.63346 0.75391 0.03782 0.0
H1040 H 0.67184 0.42048 0.15256 0.0
H1041 H 0.61206 0.49754 0.19008 0.0
H1042 H 0.63377 0.41815 0.11459 0.0
H1043 H 0.57426 0.49538 0.15196 0.0
H1044 H 0.5373 0.41308 0.07268 0.0
H1045 H 0.57519 0.40976 0.11247 0.0
H1046 H 0.57982 0.50583 0.09208 0.0
H1047 H 0.54264 0.50915 0.05257 0.0
C1048 C 0.65042 0.43667 0.15284 0.0
C1049 C 0.64484 0.45932 0.174 0.0
C1050 C 0.62869 0.43523 0.13128 0.0
C1051 C 0.60133 0.45671 0.13035 0.0
C1052 C 0.59537 0.47874 0.15215 0.0
C1053 C 0.61688 0.47992 0.17395 0.0
C1054 C 0.54675 0.4333 0.07657 0.0
C1055 C 0.53706 0.46134 0.05966 0.0
C1056 C 0.5683 0.43142 0.09923 0.0
C1057 C 0.57993 0.45767 0.10548 0.0
C1058 C 0.57078 0.48541 0.08798 0.0
C1059 C 0.5497 0.4872 0.06521 0.0
H1060 H 0.34658 0.49055 0.00812 0.0
H1061 H 0.39417 0.41538 0.06577 0.0
H1062 H 0.29971 0.46729 0.01443 0.0
H1063 H 0.34827 0.39173 0.07131 0.0
H1064 H 0.25721 0.3842 0.98546 0.0
H1065 H 0.28757 0.42358 0.99279 0.0
H1066 H 0.2965 0.38978 0.08861 0.0
H1067 H 0.26726 0.34936 0.08065 0.0
C1068 C 0.34678 0.46939 0.02262 0.0
C1069 C 0.37397 0.45445 0.03611 0.0
C1070 C 0.32005 0.45601 0.02614 0.0
C1071 C 0.32025 0.42748 0.04312 0.0
C1072 C 0.34697 0.41387 0.05841 0.0
C1073 C 0.3735 0.42726 0.05497 0.0
C1074 C 0.265 0.38572 0.00828 0.0
C1075 C 0.26064 0.36343 0.03232 0.0
C1076 C 0.28223 0.40847 0.01259 0.0
C1077 C 0.29507 0.40945 0.04116 0.0
C1078 C 0.28763 0.38913 0.06611 0.0
C1079 C 0.2708 0.36609 0.06163 0.0
H1080 H 0.04423 0.15525 0.27802 0.0
H1081 H 0.1047 0.20766 0.22224 0.0
H1082 H 0.08663 0.11182 0.28317 0.0
H1083 H 0.14652 0.16413 0.22612 0.0
H1084 H 0.22316 0.1045 0.27502 0.0
H1085 H 0.17743 0.14297 0.26854 0.0
H1086 H 0.12342 0.07211 0.25832 0.0
H1087 H 0.16956 0.0331 0.26654 0.0
C1088 C 0.06643 0.15717 0.26635 0.0
C1089 C 0.07161 0.18483 0.25027 0.0
C1090 C 0.09061 0.13233 0.26918 0.0
C1091 C 0.12007 0.13485 0.25566 0.0
C1092 C 0.12434 0.16185 0.23764 0.0
C1093 C 0.10041 0.18669 0.23522 0.0
C1094 C 0.20149 0.09706 0.27165 0.0
C1095 C 0.1999 0.06595 0.27059 0.0
C1096 C 0.17534 0.11913 0.26758 0.0
C1097 C 0.14701 0.11064 0.26196 0.0
C1098 C 0.14502 0.07933 0.26234 0.0
C1099 C 0.17135 0.05707 0.26683 0.0
H1100 H 0.17384 0.29866 0.89542 0.0
H1101 H 0.24835 0.32379 0.94187 0.0
H1102 H 0.18066 0.3375 0.8534 0.0
H1103 H 0.25342 0.36426 0.90175 0.0
H1104 H 0.28186 0.41034 0.81217 0.0
H1105 H 0.27305 0.37053 0.85202 0.0
H1106 H 0.17533 0.38907 0.83573 0.0
H1107 H 0.18491 0.42761 0.79414 0.0
C1108 C 0.19117 0.31302 0.89699 0.0
C1109 C 0.21046 0.30835 0.92199 0.0
C1110 C 0.195 0.33543 0.87299 0.0
C1111 C 0.21785 0.35398 0.87384 0.0
C1112 C 0.23617 0.34997 0.89967 0.0
C1113 C 0.23286 0.32712 0.92314 0.0
C1114 C 0.25855 0.40569 0.81703 0.0
C1115 C 0.23402 0.42203 0.8003 0.0
C1116 C 0.25336 0.38308 0.84013 0.0
C1117 C 0.22332 0.37686 0.84774 0.0
C1118 C 0.19882 0.39294 0.83045 0.0
C1119 C 0.20421 0.4151 0.80669 0.0
H1120 H 0.33126 0.27437 0.95339 0.0
H1121 H 0.30973 0.18526 0.93973 0.0
H1122 H 0.37464 0.26615 0.91611 0.0
H1123 H 0.35393 0.17667 0.90286 0.0
H1124 H 0.40033 0.19958 0.80572 0.0
H1125 H 0.3645 0.19725 0.85076 0.0
H1126 H 0.42445 0.23833 0.9032 0.0
H1127 H 0.45959 0.2416 0.85796 0.0
C1128 C 0.33621 0.25269 0.94301 0.0
C1129 C 0.31675 0.23067 0.94923 0.0
C1130 C 0.36127 0.24788 0.92168 0.0
C1131 C 0.3676 0.22083 0.90627 0.0
C1132 C 0.3493 0.19797 0.91393 0.0
C1133 C 0.32409 0.20285 0.9352 0.0
C1134 C 0.40602 0.20769 0.82701 0.0
C1135 C 0.43241 0.22128 0.82819 0.0
C1136 C 0.38561 0.20619 0.8529 0.0
C1137 C 0.39145 0.21795 0.88049 0.0
C1138 C 0.41893 0.22971 0.88211 0.0
C1139 C 0.43908 0.23152 0.8562 0.0
H1140 H 0.41631 0.49193 0.94902 0.0
H1141 H 0.44834 0.57322 0.90642 0.0
H1142 H 0.37527 0.49896 0.91278 0.0
H1143 H 0.40765 0.57965 0.8693 0.0
H1144 H 0.2903 0.53572 0.85852 0.0
H1145 H 0.3266 0.5402 0.89735 0.0
H1146 H 0.39933 0.54268 0.82603 0.0
H1147 H 0.36311 0.53762 0.78711 0.0
C1148 C 0.41422 0.51159 0.93225 0.0
C1149 C 0.43532 0.53213 0.93061 0.0
C1150 C 0.39077 0.5156 0.91152 0.0
C1151 C 0.3884 0.53986 0.88837 0.0
C1152 C 0.40912 0.56078 0.887 0.0
C1153 C 0.43224 0.55714 0.90823 0.0
C1154 C 0.31391 0.53773 0.85108 0.0
C1155 C 0.32406 0.5361 0.81993 0.0
C1156 C 0.33461 0.54024 0.87327 0.0
C1157 C 0.36564 0.5417 0.86457 0.0
C1158 C 0.37541 0.54182 0.8332 0.0
C1159 C 0.35479 0.53879 0.81102 0.0
H1160 H 0.67713 0.6558 0.92318 0.0
H1161 H 0.73449 0.59865 0.98957 0.0
H1162 H 0.64979 0.61407 0.91718 0.0
H1163 H 0.70823 0.55576 0.98237 0.0
H1164 H 0.61562 0.51924 0.00632 0.0
H1165 H 0.65961 0.54581 0.00031 0.0
H1166 H 0.64372 0.56643 0.90305 0.0
H1167 H 0.59822 0.54134 0.90985 0.0
C1168 C 0.6845 0.63388 0.93578 0.0
C1169 C 0.70734 0.63053 0.95734 0.0
C1170 C 0.66905 0.60971 0.9321 0.0
C1171 C 0.67643 0.5815 0.94963 0.0
C1172 C 0.7014 0.57738 0.96908 0.0
C1173 C 0.71656 0.60183 0.97312 0.0
C1174 C 0.62195 0.52892 0.98353 0.0
C1175 C 0.60324 0.52902 0.95869 0.0
C1176 C 0.64744 0.54394 0.97995 0.0
C1177 C 0.65496 0.5589 0.95127 0.0
C1178 C 0.63803 0.55599 0.92567 0.0
C1179 C 0.6121 0.54151 0.92945 0.0
H1180 H 0.90328 0.78932 0.80185 0.0
H1181 H 0.95122 0.83121 0.72419 0.0
H1182 H 0.86439 0.83547 0.80331 0.0
H1183 H 0.91137 0.87702 0.72448 0.0
H1184 H 0.83139 0.95717 0.73435 0.0
H1185 H 0.87884 0.92177 0.748 0.0
H1186 H 0.82585 0.84791 0.76509 0.0
H1187 H 0.77926 0.88287 0.75222 0.0
C1188 C 0.90579 0.80881 0.78558 0.0
C1189 C 0.92965 0.80678 0.76257 0.0
C1190 C 0.88355 0.83513 0.7863 0.0
C1191 C 0.88434 0.85944 0.7634 0.0
C1192 C 0.91012 0.85864 0.74238 0.0
C1193 C 0.93285 0.83243 0.74212 0.0
C1194 C 0.8301 0.93341 0.74143 0.0
C1195 C 0.80184 0.92262 0.74216 0.0
C1196 C 0.85713 0.91322 0.74917 0.0
C1197 C 0.85601 0.88216 0.75802 0.0
C1198 C 0.82748 0.87181 0.75915 0.0
C1199 C 0.80077 0.89177 0.75132 0.0
H1200 H 0.41093 0.20042 0.64837 0.0
H1201 H 0.45627 0.11931 0.69982 0.0
H1202 H 0.40551 0.1698 0.60571 0.0
H1203 H 0.44984 0.08858 0.65745 0.0
H1204 H 0.47317 0.10528 0.53308 0.0
H1205 H 0.45881 0.13927 0.57476 0.0
H1206 H 0.40343 0.07576 0.62086 0.0
H1207 H 0.41687 0.04214 0.57882 0.0
C1208 C 0.41875 0.17588 0.65099 0.0
C1209 C 0.43427 0.16213 0.67717 0.0
C1210 C 0.41566 0.15849 0.6266 0.0
C1211 C 0.4273 0.12704 0.6285 0.0
C1212 C 0.44048 0.11283 0.65573 0.0
C1213 C 0.44421 0.13035 0.67985 0.0
C1214 C 0.45716 0.09907 0.55161 0.0
C1215 C 0.44622 0.07111 0.55281 0.0
C1216 C 0.4489 0.1185 0.57533 0.0
C1217 C 0.43014 0.10988 0.60083 0.0
C1218 C 0.41783 0.08277 0.60128 0.0
C1219 C 0.42547 0.0637 0.57718 0.0
H1220 H 0.50065 0.36026 0.79049 0.0
H1221 H 0.56635 0.29349 0.84067 0.0
H1222 H 0.49812 0.39473 0.83148 0.0
H1223 H 0.56399 0.32836 0.88167 0.0
H1224 H 0.46352 0.4162 0.93058 0.0
H1225 H 0.47494 0.38333 0.88809 0.0
H1226 H 0.57229 0.38537 0.89232 0.0
H1227 H 0.56097 0.41883 0.93491 0.0
C1228 C 0.51523 0.35334 0.80984 0.0
C1229 C 0.53347 0.32415 0.81263 0.0
C1230 C 0.5136 0.37295 0.83336 0.0
C1231 C 0.53047 0.36385 0.85983 0.0
C1232 C 0.55075 0.33577 0.86144 0.0
C1233 C 0.55212 0.31592 0.83802 0.0
C1234 C 0.48742 0.4094 0.92282 0.0
C1235 C 0.51134 0.42022 0.93604 0.0
C1236 C 0.49389 0.39084 0.89829 0.0
C1237 C 0.52441 0.38235 0.88674 0.0
C1238 C 0.54856 0.39184 0.9008 0.0
C1239 C 0.54205 0.41089 0.92512 0.0
H1240 H 0.55958 0.792 0.35292 0.0
H1241 H 0.5167 0.87241 0.29868 0.0
H1242 H 0.56393 0.82334 0.39513 0.0
H1243 H 0.52169 0.90394 0.34099 0.0
H1244 H 0.55505 0.95201 0.41877 0.0
H1245 H 0.56528 0.91894 0.37592 0.0
H1246 H 0.51578 0.8532 0.42726 0.0
H1247 H 0.50482 0.88652 0.46975 0.0
C1248 C 0.55169 0.8165 0.34977 0.0
C1249 C 0.53754 0.82984 0.3227 0.0
C1250 C 0.55421 0.83433 0.37392 0.0
C1251 C 0.54311 0.86588 0.37119 0.0
C1252 C 0.53064 0.87961 0.34342 0.0
C1253 C 0.52767 0.86164 0.31935 0.0
C1254 C 0.54717 0.93007 0.42126 0.0
C1255 C 0.52919 0.92169 0.44753 0.0
C1256 C 0.55278 0.91138 0.39666 0.0
C1257 C 0.54117 0.88375 0.3984 0.0
C1258 C 0.52509 0.87438 0.42554 0.0
C1259 C 0.51886 0.89337 0.4498 0.0
H1260 H 0.5031 0.59168 0.03431 0.0
H1261 H 0.42327 0.55416 0.07352 0.0
H1262 H 0.50051 0.6228 0.07779 0.0
H1263 H 0.4208 0.58569 0.11719 0.0
H1264 H 0.51592 0.635 0.17728 0.0
H1265 H 0.5114 0.60526 0.1339 0.0
H1266 H 0.41403 0.64201 0.132 0.0
H1267 H 0.41856 0.67199 0.17564 0.0
C1268 C 0.48465 0.59042 0.05189 0.0
C1269 C 0.46368 0.57003 0.05064 0.0
C1270 C 0.48334 0.60812 0.07691 0.0
C1271 C 0.46092 0.60603 0.10113 0.0
C1272 C 0.43842 0.58753 0.09884 0.0
C1273 C 0.43982 0.56957 0.0738 0.0
C1274 C 0.49346 0.63639 0.16792 0.0
C1275 C 0.46763 0.65588 0.1796 0.0
C1276 C 0.49092 0.6196 0.14295 0.0
C1277 C 0.46248 0.62185 0.12931 0.0
C1278 C 0.43621 0.64 0.14209 0.0
C1279 C 0.43881 0.65706 0.16701 0.0
loop_
_geom_bond_atom_site_label_1
_geom_bond_atom_site_label_2
_geom_bond_distance
_geom_bond_site_symmetry_2
_ccdc_geom_bond_type
Dy0 O4 2.398 . S
Dy0 O5 2.484 1_554 S
Dy0 O6 2.403 1_655 S
Dy0 O7 2.664 1_655 S
Dy0 O11 2.326 1_654 S
Dy0 O15 2.310 1_564 S
Dy0 O16 2.351 1_565 S
C1 O12 1.185 . S
C1 O13 1.341 1_556 S
C2 O4 1.185 . S
C2 O5 1.346 1_554 S
Dy3 O7 2.310 1_546 S
Dy3 O10 2.351 1_545 S
Dy3 O12 2.398 . S
Dy3 O13 2.479 1_556 S
Dy3 O14 2.403 1_455 S
Dy3 O15 2.664 1_455 S
Dy3 O17 2.326 1_456 S
O4 Dy0 2.398 . S
O4 C2 1.185 . S
O5 Dy0 2.484 1_556 S
O5 C2 1.346 1_556 S
O6 Dy0 2.403 1_455 S
O6 C8 1.254 . S
O7 Dy0 2.664 1_455 S
O7 Dy3 2.310 1_564 S
O7 C8 1.268 . S
C8 O6 1.254 . S
C8 O7 1.268 . S
C9 O14 1.254 . S
C9 O15 1.268 . S
O10 Dy3 2.351 1_565 S
O10 C18 1.249 . S
O11 Dy0 2.326 1_456 S
O11 C18 1.267 . S
O12 C1 1.185 . S
O12 Dy3 2.398 . S
O13 C1 1.341 1_554 S
O13 Dy3 2.479 1_554 S
O14 Dy3 2.403 1_655 S
O14 C9 1.254 . S
O15 Dy0 2.310 1_546 S
O15 Dy3 2.664 1_655 S
O15 C9 1.268 . S
O16 Dy0 2.351 1_545 S
O16 C19 1.249 . S
O17 Dy3 2.326 1_654 S
O17 C19 1.267 . S
C18 O10 1.249 . S
C18 O11 1.267 . S
C19 O16 1.249 . S
C19 O17 1.267 . S
Dy20 O24 2.398 . S
Dy20 O25 2.491 1_455 S
Dy20 O26 2.403 . S
Dy20 O27 2.664 . S
Dy20 O31 2.326 1_455 S
Dy20 O35 2.310 1_455 S
Dy20 O36 2.351 . S
C21 O32 1.185 . S
C21 O33 1.355 1_655 S
C22 O24 1.185 . S
C22 O25 1.355 1_455 S
Dy23 O27 2.310 1_655 S
Dy23 O30 2.351 . S
Dy23 O32 2.398 . S
Dy23 O33 2.491 1_655 S
Dy23 O34 2.403 . S
Dy23 O35 2.664 . S
Dy23 O37 2.326 1_655 S
O24 Dy20 2.398 . S
O24 C22 1.185 . S
O25 Dy20 2.491 1_655 S
O25 C22 1.355 1_655 S
O26 Dy20 2.403 . S
O26 C28 1.254 . S
O27 Dy20 2.664 . S
O27 Dy23 2.310 1_455 S
O27 C28 1.268 . S
C28 O26 1.254 . S
C28 O27 1.268 . S
C29 O34 1.254 . S
C29 O35 1.268 . S
O30 Dy23 2.351 . S
O30 C38 1.249 . S
O31 Dy20 2.326 1_655 S
O31 C38 1.267 . S
O32 C21 1.185 . S
O32 Dy23 2.398 . S
O33 C21 1.355 1_455 S
O33 Dy23 2.491 1_455 S
O34 Dy23 2.403 . S
O34 C29 1.254 . S
O35 Dy20 2.310 1_655 S
O35 Dy23 2.664 . S
O35 C29 1.268 . S
O36 Dy20 2.351 . S
O36 C39 1.249 . S
O37 Dy23 2.326 1_455 S
O37 C39 1.267 . S
C38 O30 1.249 . S
C38 O31 1.267 . S
C39 O36 1.249 . S
C39 O37 1.267 . S
Dy40 O44 2.398 . S
Dy40 O45 2.491 . S
Dy40 O46 2.403 . S
Dy40 O47 2.664 . S
Dy40 O51 2.326 . S
Dy40 O55 2.310 . S
Dy40 O56 2.351 . S
C41 O52 1.185 . S
C41 O53 1.355 . S
C42 O44 1.185 . S
C42 O45 1.355 . S
Dy43 O47 2.310 . S
Dy43 O50 2.351 . S
Dy43 O52 2.398 . S
Dy43 O53 2.491 . S
Dy43 O54 2.403 . S
Dy43 O55 2.664 . S
Dy43 O57 2.326 . S
O44 Dy40 2.398 . S
O44 C42 1.185 . S
O45 Dy40 2.491 . S
O45 C42 1.355 . S
O46 Dy40 2.403 . S
O46 C48 1.254 . S
O47 Dy40 2.664 . S
O47 Dy43 2.310 . S
O47 C48 1.268 . S
C48 O46 1.254 . S
C48 O47 1.268 . S
C49 O54 1.254 . S
C49 O55 1.268 . S
O50 Dy43 2.351 . S
O50 C58 1.249 . S
O51 Dy40 2.326 . S
O51 C58 1.267 . S
O52 C41 1.185 . S
O52 Dy43 2.398 . S
O53 C41 1.355 . S
O53 Dy43 2.491 . S
O54 Dy43 2.403 . S
O54 C49 1.254 . S
O55 Dy40 2.310 . S
O55 Dy43 2.664 . S
O55 C49 1.268 . S
O56 Dy40 2.351 . S
O56 C59 1.249 . S
O57 Dy43 2.326 . S
O57 C59 1.267 . S
C58 O50 1.249 . S
C58 O51 1.267 . S
C59 O56 1.249 . S
C59 O57 1.267 . S
Dy60 O64 2.398 . S
Dy60 O65 2.491 1_565 S
Dy60 O66 2.403 . S
Dy60 O67 2.664 . S
Dy60 O71 2.326 1_565 S
Dy60 O75 2.310 1_565 S
Dy60 O76 2.351 . S
C61 O72 1.185 . S
C61 O73 1.355 1_545 S
C62 O64 1.185 . S
C62 O65 1.355 1_565 S
Dy63 O67 2.310 1_545 S
Dy63 O70 2.351 . S
Dy63 O72 2.398 . S
Dy63 O73 2.491 1_545 S
Dy63 O74 2.403 . S
Dy63 O75 2.664 . S
Dy63 O77 2.326 1_545 S
O64 Dy60 2.398 . S
O64 C62 1.185 . S
O65 Dy60 2.491 1_545 S
O65 C62 1.355 1_545 S
O66 Dy60 2.403 . S
O66 C68 1.254 . S
O67 Dy60 2.664 . S
O67 Dy63 2.310 1_565 S
O67 C68 1.268 . S
C68 O66 1.254 . S
C68 O67 1.268 . S
C69 O74 1.254 . S
C69 O75 1.268 . S
O70 Dy63 2.351 . S
O70 C78 1.249 . S
O71 Dy60 2.326 1_545 S
O71 C78 1.267 . S
O72 C61 1.185 . S
O72 Dy63 2.398 . S
O73 C61 1.355 1_565 S
O73 Dy63 2.491 1_565 S
O74 Dy63 2.403 . S
O74 C69 1.254 . S
O75 Dy60 2.310 1_545 S
O75 Dy63 2.664 . S
O75 C69 1.268 . S
O76 Dy60 2.351 . S
O76 C79 1.249 . S
O77 Dy63 2.326 1_565 S
O77 C79 1.267 . S
C78 O70 1.249 . S
C78 O71 1.267 . S
C79 O76 1.249 . S
C79 O77 1.267 . S
Dy80 O84 2.398 . S
Dy80 O85 2.491 . S
Dy80 O86 2.403 . S
Dy80 O87 2.664 . S
Dy80 O91 2.326 . S
Dy80 O95 2.310 . S
Dy80 O96 2.351 . S
C81 O92 1.185 . S
C81 O93 1.355 . S
C82 O84 1.185 . S
C82 O85 1.355 . S
Dy83 O87 2.310 . S
Dy83 O90 2.351 . S
Dy83 O92 2.398 . S
Dy83 O93 2.491 . S
Dy83 O94 2.403 . S
Dy83 O95 2.664 . S
Dy83 O97 2.326 . S
O84 Dy80 2.398 . S
O84 C82 1.185 . S
O85 Dy80 2.491 . S
O85 C82 1.355 . S
O86 Dy80 2.403 . S
O86 C88 1.254 . S
O87 Dy80 2.664 . S
O87 Dy83 2.310 . S
O87 C88 1.268 . S
C88 O86 1.254 . S
C88 O87 1.268 . S
C89 O94 1.254 . S
C89 O95 1.268 . S
O90 Dy83 2.351 . S
O90 C98 1.249 . S
O91 Dy80 2.326 . S
O91 C98 1.267 . S
O92 C81 1.185 . S
O92 Dy83 2.398 . S
O93 C81 1.355 . S
O93 Dy83 2.491 . S
O94 Dy83 2.403 . S
O94 C89 1.254 . S
O95 Dy80 2.310 . S
O95 Dy83 2.664 . S
O95 C89 1.268 . S
O96 Dy80 2.351 . S
O96 C99 1.249 . S
O97 Dy83 2.326 . S
O97 C99 1.267 . S
C98 O90 1.249 . S
C98 O91 1.267 . S
C99 O96 1.249 . S
C99 O97 1.267 . S
Dy100 O104 2.398 . S
Dy100 O105 2.491 . S
Dy100 O106 2.403 . S
Dy100 O107 2.664 . S
Dy100 O111 2.326 . S
Dy100 O115 2.310 . S
Dy100 O116 2.351 . S
C101 O112 1.185 . S
C101 O113 1.355 . S
C102 O104 1.185 . S
C102 O105 1.355 . S
Dy103 O107 2.310 . S
Dy103 O110 2.351 . S
Dy103 O112 2.398 . S
Dy103 O113 2.491 . S
Dy103 O114 2.403 . S
Dy103 O115 2.664 . S
Dy103 O117 2.326 . S
O104 Dy100 2.398 . S
O104 C102 1.185 . S
O105 Dy100 2.491 . S
O105 C102 1.355 . S
O106 Dy100 2.403 . S
O106 C108 1.254 . S
O107 Dy100 2.664 . S
O107 Dy103 2.310 . S
O107 C108 1.268 . S
C108 O106 1.254 . S
C108 O107 1.268 . S
C109 O114 1.254 . S
C109 O115 1.268 . S
O110 Dy103 2.351 . S
O110 C118 1.249 . S
O111 Dy100 2.326 . S
O111 C118 1.267 . S
O112 C101 1.185 . S
O112 Dy103 2.398 . S
O113 C101 1.355 . S
O113 Dy103 2.491 . S
O114 Dy103 2.403 . S
O114 C109 1.254 . S
O115 Dy100 2.310 . S
O115 Dy103 2.664 . S
O115 C109 1.268 . S
O116 Dy100 2.351 . S
O116 C119 1.249 . S
O117 Dy103 2.326 . S
O117 C119 1.267 . S
C118 O110 1.249 . S
C118 O111 1.267 . S
C119 O116 1.249 . S
C119 O117 1.267 . S
Dy120 O124 2.398 . S
Dy120 O125 2.491 . S
Dy120 O126 2.403 . S
Dy120 O127 2.664 . S
Dy120 O131 2.326 . S
Dy120 O135 2.310 . S
Dy120 O136 2.351 . S
C121 O132 1.185 . S
C121 O133 1.355 . S
C122 O124 1.185 . S
C122 O125 1.355 . S
Dy123 O127 2.310 . S
Dy123 O130 2.351 . S
Dy123 O132 2.398 . S
Dy123 O133 2.491 . S
Dy123 O134 2.403 . S
Dy123 O135 2.664 . S
Dy123 O137 2.326 . S
O124 Dy120 2.398 . S
O124 C122 1.185 . S
O125 Dy120 2.491 . S
O125 C122 1.355 . S
O126 Dy120 2.403 . S
O126 C128 1.254 . S
O127 Dy120 2.664 . S
O127 Dy123 2.310 . S
O127 C128 1.268 . S
C128 O126 1.254 . S
C128 O127 1.268 . S
C129 O134 1.254 . S
C129 O135 1.268 . S
O130 Dy123 2.351 . S
O130 C138 1.249 . S
O131 Dy120 2.326 . S
O131 C138 1.267 . S
O132 C121 1.185 . S
O132 Dy123 2.398 . S
O133 C121 1.355 . S
O133 Dy123 2.491 . S
O134 Dy123 2.403 . S
O134 C129 1.254 . S
O135 Dy120 2.310 . S
O135 Dy123 2.664 . S
O135 C129 1.268 . S
O136 Dy120 2.351 . S
O136 C139 1.249 . S
O137 Dy123 2.326 . S
O137 C139 1.267 . S
C138 O130 1.249 . S
C138 O131 1.267 . S
C139 O136 1.249 . S
C139 O137 1.267 . S
Dy140 O144 2.398 . S
Dy140 O145 2.491 . S
Dy140 O146 2.403 1_655 S
Dy140 O147 2.664 1_655 S
Dy140 O151 2.326 1_655 S
Dy140 O155 2.310 . S
Dy140 O156 2.351 . S
C141 O152 1.185 . S
C141 O153 1.355 . S
C142 O144 1.185 . S
C142 O145 1.355 . S
Dy143 O147 2.310 . S
Dy143 O150 2.351 . S
Dy143 O152 2.398 . S
Dy143 O153 2.491 . S
Dy143 O154 2.403 1_455 S
Dy143 O155 2.664 1_455 S
Dy143 O157 2.326 1_455 S
O144 Dy140 2.398 . S
O144 C142 1.185 . S
O145 Dy140 2.491 . S
O145 C142 1.355 . S
O146 Dy140 2.403 1_455 S
O146 C148 1.254 . S
O147 Dy140 2.664 1_455 S
O147 Dy143 2.310 . S
O147 C148 1.268 . S
C148 O146 1.254 . S
C148 O147 1.268 . S
C149 O154 1.254 . S
C149 O155 1.268 . S
O150 Dy143 2.351 . S
O150 C158 1.249 . S
O151 Dy140 2.326 1_455 S
O151 C158 1.267 . S
O152 C141 1.185 . S
O152 Dy143 2.398 . S
O153 C141 1.355 . S
O153 Dy143 2.491 . S
O154 Dy143 2.403 1_655 S
O154 C149 1.254 . S
O155 Dy140 2.310 . S
O155 Dy143 2.664 1_655 S
O155 C149 1.268 . S
O156 Dy140 2.351 . S
O156 C159 1.249 . S
O157 Dy143 2.326 1_655 S
O157 C159 1.267 . S
C158 O150 1.249 . S
C158 O151 1.267 . S
C159 O156 1.249 . S
C159 O157 1.267 . S
Dy160 O164 2.398 . S
Dy160 O165 2.491 1_556 S
Dy160 O166 2.403 . S
Dy160 O167 2.664 . S
Dy160 O171 2.326 1_556 S
Dy160 O175 2.310 1_556 S
Dy160 O176 2.351 . S
C161 O172 1.185 . S
C161 O173 1.355 1_554 S
C162 O164 1.185 . S
C162 O165 1.355 1_556 S
Dy163 O167 2.310 1_554 S
Dy163 O170 2.351 . S
Dy163 O172 2.398 . S
Dy163 O173 2.491 1_554 S
Dy163 O174 2.403 . S
Dy163 O175 2.664 . S
Dy163 O177 2.326 1_554 S
O164 Dy160 2.398 . S
O164 C162 1.185 . S
O165 Dy160 2.491 1_554 S
O165 C162 1.355 1_554 S
O166 Dy160 2.403 . S
O166 C168 1.254 . S
O167 Dy160 2.664 . S
O167 Dy163 2.310 1_556 S
O167 C168 1.268 . S
C168 O166 1.254 . S
C168 O167 1.268 . S
C169 O174 1.254 . S
C169 O175 1.268 . S
O170 Dy163 2.351 . S
O170 C178 1.249 . S
O171 Dy160 2.326 1_554 S
O171 C178 1.267 . S
O172 C161 1.185 . S
O172 Dy163 2.398 . S
O173 C161 1.355 1_556 S
O173 Dy163 2.491 1_556 S
O174 Dy163 2.403 . S
O174 C169 1.254 . S
O175 Dy160 2.310 1_554 S
O175 Dy163 2.664 . S
O175 C169 1.268 . S
O176 Dy160 2.351 . S
O176 C179 1.249 . S
O177 Dy163 2.326 1_556 S
O177 C179 1.267 . S
C178 O170 1.249 . S
C178 O171 1.267 . S
C179 O176 1.249 . S
C179 O177 1.267 . S
Dy180 O184 2.398 . S
Dy180 O185 2.491 1_565 S
Dy180 O186 2.403 . S
Dy180 O187 2.664 . S
Dy180 O191 2.326 1_565 S
Dy180 O195 2.310 1_565 S
Dy180 O196 2.351 . S
C181 O192 1.185 . S
C181 O193 1.355 1_545 S
C182 O184 1.185 . S
C182 O185 1.355 1_565 S
Dy183 O187 2.310 1_545 S
Dy183 O190 2.351 . S
Dy183 O192 2.398 . S
Dy183 O193 2.491 1_545 S
Dy183 O194 2.403 . S
Dy183 O195 2.664 . S
Dy183 O197 2.326 1_545 S
O184 Dy180 2.398 . S
O184 C182 1.185 . S
O185 Dy180 2.491 1_545 S
O185 C182 1.355 1_545 S
O186 Dy180 2.403 . S
O186 C188 1.254 . S
O187 Dy180 2.664 . S
O187 Dy183 2.310 1_565 S
O187 C188 1.268 . S
C188 O186 1.254 . S
C188 O187 1.268 . S
C189 O194 1.254 . S
C189 O195 1.268 . S
O190 Dy183 2.351 . S
O190 C198 1.249 . S
O191 Dy180 2.326 1_545 S
O191 C198 1.267 . S
O192 C181 1.185 . S
O192 Dy183 2.398 . S
O193 C181 1.355 1_565 S
O193 Dy183 2.491 1_565 S
O194 Dy183 2.403 . S
O194 C189 1.254 . S
O195 Dy180 2.310 1_545 S
O195 Dy183 2.664 . S
O195 C189 1.268 . S
O196 Dy180 2.351 . S
O196 C199 1.249 . S
O197 Dy183 2.326 1_565 S
O197 C199 1.267 . S
C198 O190 1.249 . S
C198 O191 1.267 . S
C199 O196 1.249 . S
C199 O197 1.267 . S
Dy200 O204 2.398 . S
Dy200 O205 2.491 . S
Dy200 O206 2.403 . S
Dy200 O207 2.664 . S
Dy200 O211 2.326 . S
Dy200 O215 2.310 . S
Dy200 O216 2.351 . S
C201 O212 1.185 . S
C201 O213 1.355 . S
C202 O204 1.185 . S
C202 O205 1.355 . S
Dy203 O207 2.310 . S
Dy203 O210 2.351 . S
Dy203 O212 2.398 . S
Dy203 O213 2.491 . S
Dy203 O214 2.403 . S
Dy203 O215 2.664 . S
Dy203 O217 2.326 . S
O204 Dy200 2.398 . S
O204 C202 1.185 . S
O205 Dy200 2.491 . S
O205 C202 1.355 . S
O206 Dy200 2.403 . S
O206 C208 1.254 . S
O207 Dy200 2.664 . S
O207 Dy203 2.310 . S
O207 C208 1.268 . S
C208 O206 1.254 . S
C208 O207 1.268 . S
C209 O214 1.254 . S
C209 O215 1.268 . S
O210 Dy203 2.351 . S
O210 C218 1.249 . S
O211 Dy200 2.326 . S
O211 C218 1.267 . S
O212 C201 1.185 . S
O212 Dy203 2.398 . S
O213 C201 1.355 . S
O213 Dy203 2.491 . S
O214 Dy203 2.403 . S
O214 C209 1.254 . S
O215 Dy200 2.310 . S
O215 Dy203 2.664 . S
O215 C209 1.268 . S
O216 Dy200 2.351 . S
O216 C219 1.249 . S
O217 Dy203 2.326 . S
O217 C219 1.267 . S
C218 O210 1.249 . S
C218 O211 1.267 . S
C219 O216 1.249 . S
C219 O217 1.267 . S
Dy220 O224 2.398 . S
Dy220 O225 2.491 1_455 S
Dy220 O226 2.403 . S
Dy220 O227 2.664 . S
Dy220 O231 2.326 1_455 S
Dy220 O235 2.310 1_455 S
Dy220 O236 2.351 . S
C221 O232 1.185 . S
C221 O233 1.355 1_655 S
C222 O224 1.185 . S
C222 O225 1.355 1_455 S
Dy223 O227 2.310 1_655 S
Dy223 O230 2.351 . S
Dy223 O232 2.398 . S
Dy223 O233 2.491 1_655 S
Dy223 O234 2.403 . S
Dy223 O235 2.664 . S
Dy223 O237 2.326 1_655 S
O224 Dy220 2.398 . S
O224 C222 1.185 . S
O225 Dy220 2.491 1_655 S
O225 C222 1.355 1_655 S
O226 Dy220 2.403 . S
O226 C228 1.254 . S
O227 Dy220 2.664 . S
O227 Dy223 2.310 1_455 S
O227 C228 1.268 . S
C228 O226 1.254 . S
C228 O227 1.268 . S
C229 O234 1.254 . S
C229 O235 1.268 . S
O230 Dy223 2.351 . S
O230 C238 1.249 . S
O231 Dy220 2.326 1_655 S
O231 C238 1.267 . S
O232 C221 1.185 . S
O232 Dy223 2.398 . S
O233 C221 1.355 1_455 S
O233 Dy223 2.491 1_455 S
O234 Dy223 2.403 . S
O234 C229 1.254 . S
O235 Dy220 2.310 1_655 S
O235 Dy223 2.664 . S
O235 C229 1.268 . S
O236 Dy220 2.351 . S
O236 C239 1.249 . S
O237 Dy223 2.326 1_455 S
O237 C239 1.267 . S
C238 O230 1.249 . S
C238 O231 1.267 . S
C239 O236 1.249 . S
C239 O237 1.267 . S
Dy240 O244 2.398 . S
Dy240 O245 2.491 . S
Dy240 O246 2.403 . S
Dy240 O247 2.664 . S
Dy240 O251 2.326 . S
Dy240 O255 2.310 . S
Dy240 O256 2.351 . S
C241 O252 1.185 . S
C241 O253 1.355 . S
C242 O244 1.185 . S
C242 O245 1.355 . S
Dy243 O247 2.310 . S
Dy243 O250 2.351 . S
Dy243 O252 2.398 . S
Dy243 O253 2.491 . S
Dy243 O254 2.403 . S
Dy243 O255 2.664 . S
Dy243 O257 2.326 . S
O244 Dy240 2.398 . S
O244 C242 1.185 . S
O245 Dy240 2.491 . S
O245 C242 1.355 . S
O246 Dy240 2.403 . S
O246 C248 1.254 . S
O247 Dy240 2.664 . S
O247 Dy243 2.310 . S
O247 C248 1.268 . S
C248 O246 1.254 . S
C248 O247 1.268 . S
C249 O254 1.254 . S
C249 O255 1.268 . S
O250 Dy243 2.351 . S
O250 C258 1.249 . S
O251 Dy240 2.326 . S
O251 C258 1.267 . S
O252 C241 1.185 . S
O252 Dy243 2.398 . S
O253 C241 1.355 . S
O253 Dy243 2.491 . S
O254 Dy243 2.403 . S
O254 C249 1.254 . S
O255 Dy240 2.310 . S
O255 Dy243 2.664 . S
O255 C249 1.268 . S
O256 Dy240 2.351 . S
O256 C259 1.249 . S
O257 Dy243 2.326 . S
O257 C259 1.267 . S
C258 O250 1.249 . S
C258 O251 1.267 . S
C259 O256 1.249 . S
C259 O257 1.267 . S
Dy260 O264 2.398 . S
Dy260 O265 2.491 1_556 S
Dy260 O266 2.403 . S
Dy260 O267 2.664 . S
Dy260 O271 2.326 1_556 S
Dy260 O275 2.310 1_556 S
Dy260 O276 2.351 . S
C261 O272 1.185 . S
C261 O273 1.355 1_554 S
C262 O264 1.185 . S
C262 O265 1.355 1_556 S
Dy263 O267 2.310 1_554 S
Dy263 O270 2.351 . S
Dy263 O272 2.398 . S
Dy263 O273 2.491 1_554 S
Dy263 O274 2.403 . S
Dy263 O275 2.664 . S
Dy263 O277 2.326 1_554 S
O264 Dy260 2.398 . S
O264 C262 1.185 . S
O265 Dy260 2.491 1_554 S
O265 C262 1.355 1_554 S
O266 Dy260 2.403 . S
O266 C268 1.254 . S
O267 Dy260 2.664 . S
O267 Dy263 2.310 1_556 S
O267 C268 1.268 . S
C268 O266 1.254 . S
C268 O267 1.268 . S
C269 O274 1.254 . S
C269 O275 1.268 . S
O270 Dy263 2.351 . S
O270 C278 1.249 . S
O271 Dy260 2.326 1_554 S
O271 C278 1.267 . S
O272 C261 1.185 . S
O272 Dy263 2.398 . S
O273 C261 1.355 1_556 S
O273 Dy263 2.491 1_556 S
O274 Dy263 2.403 . S
O274 C269 1.254 . S
O275 Dy260 2.310 1_554 S
O275 Dy263 2.664 . S
O275 C269 1.268 . S
O276 Dy260 2.351 . S
O276 C279 1.249 . S
O277 Dy263 2.326 1_556 S
O277 C279 1.267 . S
C278 O270 1.249 . S
C278 O271 1.267 . S
C279 O276 1.249 . S
C279 O277 1.267 . S
Dy280 O284 2.398 . S
Dy280 O285 2.491 . S
Dy280 O286 2.403 . S
Dy280 O287 2.664 . S
Dy280 O291 2.326 . S
Dy280 O295 2.310 1_565 S
Dy280 O296 2.351 1_565 S
C281 O292 1.185 . S
C281 O293 1.355 . S
C282 O284 1.185 . S
C282 O285 1.355 . S
Dy283 O287 2.310 1_545 S
Dy283 O290 2.351 1_545 S
Dy283 O292 2.398 . S
Dy283 O293 2.491 . S
Dy283 O294 2.403 . S
Dy283 O295 2.664 . S
Dy283 O297 2.326 . S
O284 Dy280 2.398 . S
O284 C282 1.185 . S
O285 Dy280 2.491 . S
O285 C282 1.355 . S
O286 Dy280 2.403 . S
O286 C288 1.254 . S
O287 Dy280 2.664 . S
O287 Dy283 2.310 1_565 S
O287 C288 1.268 . S
C288 O286 1.254 . S
C288 O287 1.268 . S
C289 O294 1.254 . S
C289 O295 1.268 . S
O290 Dy283 2.351 1_565 S
O290 C298 1.249 . S
O291 Dy280 2.326 . S
O291 C298 1.267 . S
O292 C281 1.185 . S
O292 Dy283 2.398 . S
O293 C281 1.355 . S
O293 Dy283 2.491 . S
O294 Dy283 2.403 . S
O294 C289 1.254 . S
O295 Dy280 2.310 1_545 S
O295 Dy283 2.664 . S
O295 C289 1.268 . S
O296 Dy280 2.351 1_545 S
O296 C299 1.249 . S
O297 Dy283 2.326 . S
O297 C299 1.267 . S
C298 O290 1.249 . S
C298 O291 1.267 . S
C299 O296 1.249 . S
C299 O297 1.267 . S
Dy300 O304 2.398 . S
Dy300 O305 2.484 1_554 S
Dy300 O306 2.403 . S
Dy300 O307 2.664 . S
Dy300 O311 2.326 1_554 S
Dy300 O315 2.310 1_554 S
Dy300 O316 2.351 . S
C301 O312 1.185 . S
C301 O313 1.341 1_556 S
C302 O304 1.185 . S
C302 O305 1.346 1_554 S
Dy303 O307 2.310 1_556 S
Dy303 O310 2.351 . S
Dy303 O312 2.398 . S
Dy303 O313 2.479 1_556 S
Dy303 O314 2.403 . S
Dy303 O315 2.664 . S
Dy303 O317 2.326 1_556 S
O304 Dy300 2.398 . S
O304 C302 1.185 . S
O305 Dy300 2.484 1_556 S
O305 C302 1.346 1_556 S
O306 Dy300 2.403 . S
O306 C308 1.254 . S
O307 Dy300 2.664 . S
O307 Dy303 2.310 1_554 S
O307 C308 1.268 . S
C308 O306 1.254 . S
C308 O307 1.268 . S
C309 O314 1.254 . S
C309 O315 1.268 . S
O310 Dy303 2.351 . S
O310 C318 1.249 . S
O311 Dy300 2.326 1_556 S
O311 C318 1.267 . S
O312 C301 1.185 . S
O312 Dy303 2.398 . S
O313 C301 1.341 1_554 S
O313 Dy303 2.479 1_554 S
O314 Dy303 2.403 . S
O314 C309 1.254 . S
O315 Dy300 2.310 1_556 S
O315 Dy303 2.664 . S
O315 C309 1.268 . S
O316 Dy300 2.351 . S
O316 C319 1.249 . S
O317 Dy303 2.326 1_554 S
O317 C319 1.267 . S
C318 O310 1.249 . S
C318 O311 1.267 . S
C319 O316 1.249 . S
C319 O317 1.267 . S
H320 C328 0.950 . S
H321 C333 0.950 . S
H322 C330 0.950 . S
H323 C332 0.950 . S
H324 C334 0.950 . S
H325 C336 0.950 . S
H326 C338 0.950 . S
H327 C339 0.950 . S
C328 H320 0.950 . S
C328 C329 1.386 1_455 S
C328 C330 1.391 . S
C329 C328 1.386 1_655 S
C329 C333 1.393 . S
C330 H322 0.950 . S
C330 C328 1.391 . S
C330 C331 1.400 1_455 S
C331 C330 1.400 1_655 S
C331 C332 1.398 . S
C331 C337 1.491 . S
C332 H323 0.950 . S
C332 C331 1.398 . S
C332 C333 1.391 . S
C333 H321 0.950 . S
C333 C329 1.393 . S
C333 C332 1.391 . S
C334 H324 0.950 . S
C334 C335 1.386 . S
C334 C336 1.391 . S
C335 C334 1.386 . S
C335 C339 1.393 1_655 S
C336 H325 0.950 . S
C336 C334 1.391 . S
C336 C337 1.400 . S
C337 C331 1.491 . S
C337 C336 1.400 . S
C337 C338 1.398 1_655 S
C338 H326 0.950 . S
C338 C337 1.398 1_455 S
C338 C339 1.391 . S
C339 H327 0.950 . S
C339 C335 1.393 1_455 S
C339 C338 1.391 . S
H340 C348 0.950 . S
H341 C353 0.950 . S
H342 C350 0.950 . S
H343 C352 0.950 . S
H344 C354 0.950 . S
H345 C356 0.950 . S
H346 C358 0.950 . S
H347 C359 0.950 . S
C348 H340 0.950 . S
C348 C349 1.386 . S
C348 C350 1.391 . S
C349 C348 1.386 . S
C349 C353 1.393 . S
C350 H342 0.950 . S
C350 C348 1.391 . S
C350 C351 1.400 . S
C351 C350 1.400 . S
C351 C352 1.398 . S
C351 C357 1.491 . S
C352 H343 0.950 . S
C352 C351 1.398 . S
C352 C353 1.391 . S
C353 H341 0.950 . S
C353 C349 1.393 . S
C353 C352 1.391 . S
C354 H344 0.950 . S
C354 C355 1.386 . S
C354 C356 1.391 . S
C355 C354 1.386 . S
C355 C359 1.393 . S
C356 H345 0.950 . S
C356 C354 1.391 . S
C356 C357 1.400 . S
C357 C351 1.491 . S
C357 C356 1.400 . S
C357 C358 1.398 . S
C358 H346 0.950 . S
C358 C357 1.398 . S
C358 C359 1.391 . S
C359 H347 0.950 . S
C359 C355 1.393 . S
C359 C358 1.391 . S
H360 C368 0.950 . S
H361 C373 0.950 . S
H362 C370 0.950 . S
H363 C372 0.950 . S
H364 C374 0.950 . S
H365 C376 0.950 . S
H366 C378 0.950 . S
H367 C379 0.950 . S
C368 H360 0.950 . S
C368 C369 1.386 . S
C368 C370 1.391 . S
C369 C368 1.386 . S
C369 C373 1.393 . S
C370 H362 0.950 . S
C370 C368 1.391 . S
C370 C371 1.400 . S
C371 C370 1.400 . S
C371 C372 1.398 . S
C371 C377 1.491 . S
C372 H363 0.950 . S
C372 C371 1.398 . S
C372 C373 1.391 . S
C373 H361 0.950 . S
C373 C369 1.393 . S
C373 C372 1.391 . S
C374 H364 0.950 . S
C374 C375 1.386 . S
C374 C376 1.391 . S
C375 C374 1.386 . S
C375 C379 1.393 . S
C376 H365 0.950 . S
C376 C374 1.391 . S
C376 C377 1.400 . S
C377 C371 1.491 . S
C377 C376 1.400 . S
C377 C378 1.398 . S
C378 H366 0.950 . S
C378 C377 1.398 . S
C378 C379 1.391 . S
C379 H367 0.950 . S
C379 C375 1.393 . S
C379 C378 1.391 . S
H380 C388 0.950 . S
H381 C393 0.950 . S
H382 C390 0.950 1_565 S
H383 C392 0.950 . S
H384 C394 0.950 . S
H385 C396 0.950 . S
H386 C398 0.950 1_565 S
H387 C399 0.950 . S
C388 H380 0.950 . S
C388 C389 1.386 . S
C388 C390 1.391 . S
C389 C388 1.386 . S
C389 C393 1.393 . S
C390 H382 0.950 1_545 S
C390 C388 1.391 . S
C390 C391 1.400 . S
C391 C390 1.400 . S
C391 C392 1.398 . S
C391 C397 1.491 . S
C392 H383 0.950 . S
C392 C391 1.398 . S
C392 C393 1.391 . S
C393 H381 0.950 . S
C393 C389 1.393 . S
C393 C392 1.391 . S
C394 H384 0.950 . S
C394 C395 1.386 . S
C394 C396 1.391 . S
C395 C394 1.386 . S
C395 C399 1.393 1_545 S
C396 H385 0.950 . S
C396 C394 1.391 . S
C396 C397 1.400 . S
C397 C391 1.491 . S
C397 C396 1.400 . S
C397 C398 1.398 . S
C398 H386 0.950 1_545 S
C398 C397 1.398 . S
C398 C399 1.391 1_545 S
C399 H387 0.950 . S
C399 C395 1.393 1_565 S
C399 C398 1.391 1_565 S
H400 C408 0.950 . S
H401 C413 0.950 . S
H402 C410 0.950 . S
H403 C412 0.950 . S
H404 C414 0.950 . S
H405 C416 0.950 . S
H406 C418 0.950 . S
H407 C419 0.950 . S
C408 H400 0.950 . S
C408 C409 1.386 . S
C408 C410 1.391 . S
C409 C408 1.386 . S
C409 C413 1.393 . S
C410 H402 0.950 . S
C410 C408 1.391 . S
C410 C411 1.400 . S
C411 C410 1.400 . S
C411 C412 1.398 . S
C411 C417 1.491 . S
C412 H403 0.950 . S
C412 C411 1.398 . S
C412 C413 1.391 . S
C413 H401 0.950 . S
C413 C409 1.393 . S
C413 C412 1.391 . S
C414 H404 0.950 . S
C414 C415 1.386 . S
C414 C416 1.391 . S
C415 C414 1.386 . S
C415 C419 1.393 . S
C416 H405 0.950 . S
C416 C414 1.391 . S
C416 C417 1.400 . S
C417 C411 1.491 . S
C417 C416 1.400 . S
C417 C418 1.398 . S
C418 H406 0.950 . S
C418 C417 1.398 . S
C418 C419 1.391 . S
C419 H407 0.950 . S
C419 C415 1.393 . S
C419 C418 1.391 . S
H420 C428 0.950 . S
H421 C433 0.950 . S
H422 C430 0.950 . S
H423 C432 0.950 . S
H424 C434 0.950 . S
H425 C436 0.950 . S
H426 C438 0.950 . S
H427 C439 0.950 . S
C428 H420 0.950 . S
C428 C429 1.386 1_655 S
C428 C430 1.391 . S
C429 C428 1.386 1_455 S
C429 C433 1.393 . S
C430 H422 0.950 . S
C430 C428 1.391 . S
C430 C431 1.400 1_655 S
C431 C430 1.400 1_455 S
C431 C432 1.398 . S
C431 C437 1.491 . S
C432 H423 0.950 . S
C432 C431 1.398 . S
C432 C433 1.391 . S
C433 H421 0.950 . S
C433 C429 1.393 . S
C433 C432 1.391 . S
C434 H424 0.950 . S
C434 C435 1.386 . S
C434 C436 1.391 . S
C435 C434 1.386 . S
C435 C439 1.393 1_455 S
C436 H425 0.950 . S
C436 C434 1.391 . S
C436 C437 1.400 . S
C437 C431 1.491 . S
C437 C436 1.400 . S
C437 C438 1.398 1_455 S
C438 H426 0.950 . S
C438 C437 1.398 1_655 S
C438 C439 1.391 . S
C439 H427 0.950 . S
C439 C435 1.393 1_655 S
C439 C438 1.391 . S
H440 C448 0.950 . S
H441 C453 0.950 . S
H442 C450 0.950 . S
H443 C452 0.950 . S
H444 C454 0.950 . S
H445 C456 0.950 . S
H446 C458 0.950 . S
H447 C459 0.950 . S
C448 H440 0.950 . S
C448 C449 1.386 . S
C448 C450 1.391 . S
C449 C448 1.386 . S
C449 C453 1.393 . S
C450 H442 0.950 . S
C450 C448 1.391 . S
C450 C451 1.400 . S
C451 C450 1.400 . S
C451 C452 1.398 . S
C451 C457 1.491 . S
C452 H443 0.950 . S
C452 C451 1.398 . S
C452 C453 1.391 . S
C453 H441 0.950 . S
C453 C449 1.393 . S
C453 C452 1.391 . S
C454 H444 0.950 . S
C454 C455 1.386 . S
C454 C456 1.391 . S
C455 C454 1.386 . S
C455 C459 1.393 . S
C456 H445 0.950 . S
C456 C454 1.391 . S
C456 C457 1.400 . S
C457 C451 1.491 . S
C457 C456 1.400 . S
C457 C458 1.398 . S
C458 H446 0.950 . S
C458 C457 1.398 . S
C458 C459 1.391 . S
C459 H447 0.950 . S
C459 C455 1.393 . S
C459 C458 1.391 . S
H460 C468 0.950 . S
H461 C473 0.950 . S
H462 C470 0.950 . S
H463 C472 0.950 . S
H464 C474 0.950 . S
H465 C476 0.950 . S
H466 C478 0.950 . S
H467 C479 0.950 . S
C468 H460 0.950 . S
C468 C469 1.386 . S
C468 C470 1.391 . S
C469 C468 1.386 . S
C469 C473 1.393 . S
C470 H462 0.950 . S
C470 C468 1.391 . S
C470 C471 1.400 . S
C471 C470 1.400 . S
C471 C472 1.398 . S
C471 C477 1.491 . S
C472 H463 0.950 . S
C472 C471 1.398 . S
C472 C473 1.391 . S
C473 H461 0.950 . S
C473 C469 1.393 . S
C473 C472 1.391 . S
C474 H464 0.950 . S
C474 C475 1.386 . S
C474 C476 1.391 . S
C475 C474 1.386 . S
C475 C479 1.393 . S
C476 H465 0.950 . S
C476 C474 1.391 . S
C476 C477 1.400 . S
C477 C471 1.491 . S
C477 C476 1.400 . S
C477 C478 1.398 . S
C478 H466 0.950 . S
C478 C477 1.398 . S
C478 C479 1.391 . S
C479 H467 0.950 . S
C479 C475 1.393 . S
C479 C478 1.391 . S
H480 C488 0.950 . S
H481 C493 0.950 . S
H482 C490 0.950 . S
H483 C492 0.950 . S
H484 C494 0.950 . S
H485 C496 0.950 . S
H486 C498 0.950 . S
H487 C499 0.950 . S
C488 H480 0.950 . S
C488 C489 1.386 . S
C488 C490 1.391 . S
C489 C488 1.386 . S
C489 C493 1.393 . S
C490 H482 0.950 . S
C490 C488 1.391 . S
C490 C491 1.400 . S
C491 C490 1.400 . S
C491 C492 1.398 . S
C491 C497 1.491 . S
C492 H483 0.950 . S
C492 C491 1.398 . S
C492 C493 1.391 . S
C493 H481 0.950 . S
C493 C489 1.393 . S
C493 C492 1.391 . S
C494 H484 0.950 . S
C494 C495 1.386 . S
C494 C496 1.391 . S
C495 C494 1.386 . S
C495 C499 1.393 . S
C496 H485 0.950 . S
C496 C494 1.391 . S
C496 C497 1.400 . S
C497 C491 1.491 . S
C497 C496 1.400 . S
C497 C498 1.398 . S
C498 H486 0.950 . S
C498 C497 1.398 . S
C498 C499 1.391 . S
C499 H487 0.950 . S
C499 C495 1.393 . S
C499 C498 1.391 . S
H500 C508 0.950 . S
H501 C513 0.950 . S
H502 C510 0.950 . S
H503 C512 0.950 . S
H504 C514 0.950 . S
H505 C516 0.950 . S
H506 C518 0.950 . S
H507 C519 0.950 . S
C508 H500 0.950 . S
C508 C509 1.386 . S
C508 C510 1.391 . S
C509 C508 1.386 . S
C509 C513 1.393 . S
C510 H502 0.950 . S
C510 C508 1.391 . S
C510 C511 1.400 . S
C511 C510 1.400 . S
C511 C512 1.398 . S
C511 C517 1.491 . S
C512 H503 0.950 . S
C512 C511 1.398 . S
C512 C513 1.391 . S
C513 H501 0.950 . S
C513 C509 1.393 . S
C513 C512 1.391 . S
C514 H504 0.950 . S
C514 C515 1.386 . S
C514 C516 1.391 . S
C515 C514 1.386 . S
C515 C519 1.393 . S
C516 H505 0.950 . S
C516 C514 1.391 . S
C516 C517 1.400 . S
C517 C511 1.491 . S
C517 C516 1.400 . S
C517 C518 1.398 . S
C518 H506 0.950 . S
C518 C517 1.398 . S
C518 C519 1.391 . S
C519 H507 0.950 . S
C519 C515 1.393 . S
C519 C518 1.391 . S
H520 C528 0.972 . S
H521 C533 0.950 . S
H522 C530 0.950 . S
H523 C532 0.950 . S
H524 C534 0.950 . S
H525 C536 0.950 . S
H526 C538 0.950 . S
H527 C539 0.950 . S
C528 H520 0.972 . S
C528 C529 1.354 1_545 S
C528 C530 1.401 . S
C529 C528 1.354 1_565 S
C529 C533 1.393 . S
C530 H522 0.950 . S
C530 C528 1.401 . S
C530 C531 1.400 1_545 S
C531 C530 1.400 1_565 S
C531 C532 1.398 . S
C531 C537 1.491 . S
C532 H523 0.950 . S
C532 C531 1.398 . S
C532 C533 1.391 . S
C533 H521 0.950 . S
C533 C529 1.393 . S
C533 C532 1.391 . S
C534 H524 0.950 . S
C534 C535 1.386 . S
C534 C536 1.391 . S
C535 C534 1.386 . S
C535 C539 1.393 1_565 S
C536 H525 0.950 . S
C536 C534 1.391 . S
C536 C537 1.400 . S
C537 C531 1.491 . S
C537 C536 1.400 . S
C537 C538 1.398 1_565 S
C538 H526 0.950 . S
C538 C537 1.398 1_545 S
C538 C539 1.391 . S
C539 H527 0.950 . S
C539 C535 1.393 1_545 S
C539 C538 1.391 . S
H540 C548 0.950 . S
H541 C553 0.950 . S
H542 C550 0.950 . S
H543 C552 0.950 . S
H544 C554 0.950 . S
H545 C556 0.950 1_655 S
H546 C558 0.950 . S
H547 C559 0.950 . S
C548 H540 0.950 . S
C548 C549 1.386 . S
C548 C550 1.391 . S
C549 C548 1.386 . S
C549 C553 1.393 . S
C550 H542 0.950 . S
C550 C548 1.391 . S
C550 C551 1.400 . S
C551 C550 1.400 . S
C551 C552 1.398 . S
C551 C557 1.491 . S
C552 H543 0.950 . S
C552 C551 1.398 . S
C552 C553 1.391 . S
C553 H541 0.950 . S
C553 C549 1.393 . S
C553 C552 1.391 . S
C554 H544 0.950 . S
C554 C555 1.385 1_655 S
C554 C556 1.391 1_655 S
C555 C554 1.385 1_455 S
C555 C559 1.393 . S
C556 H545 0.950 1_455 S
C556 C554 1.391 1_455 S
C556 C557 1.400 . S
C557 C551 1.491 . S
C557 C556 1.400 . S
C557 C558 1.398 . S
C558 H546 0.950 . S
C558 C557 1.398 . S
C558 C559 1.391 . S
C559 H547 0.950 . S
C559 C555 1.393 . S
C559 C558 1.391 . S
H560 C568 0.950 . S
H561 C573 0.950 . S
H562 C570 0.950 . S
H563 C572 0.950 . S
H564 C574 0.950 . S
H565 C576 0.950 . S
H566 C578 0.950 . S
H567 C579 0.950 . S
C568 H560 0.950 . S
C568 C569 1.386 . S
C568 C570 1.391 . S
C569 C568 1.386 . S
C569 C573 1.393 . S
C570 H562 0.950 . S
C570 C568 1.391 . S
C570 C571 1.400 . S
C571 C570 1.400 . S
C571 C572 1.398 . S
C571 C577 1.491 . S
C572 H563 0.950 . S
C572 C571 1.398 . S
C572 C573 1.391 . S
C573 H561 0.950 . S
C573 C569 1.393 . S
C573 C572 1.391 . S
C574 H564 0.950 . S
C574 C575 1.386 . S
C574 C576 1.391 . S
C575 C574 1.386 . S
C575 C579 1.393 . S
C576 H565 0.950 . S
C576 C574 1.391 . S
C576 C577 1.400 . S
C577 C571 1.491 . S
C577 C576 1.400 . S
C577 C578 1.398 . S
C578 H566 0.950 . S
C578 C577 1.398 . S
C578 C579 1.391 . S
C579 H567 0.950 . S
C579 C575 1.393 . S
C579 C578 1.391 . S
H580 C588 0.950 . S
H581 C593 0.950 . S
H582 C590 0.950 . S
H583 C592 0.950 . S
H584 C594 0.950 . S
H585 C596 0.950 . S
H586 C598 0.950 . S
H587 C599 0.950 . S
C588 H580 0.950 . S
C588 C589 1.386 . S
C588 C590 1.391 . S
C589 C588 1.386 . S
C589 C593 1.393 . S
C590 H582 0.950 . S
C590 C588 1.391 . S
C590 C591 1.400 . S
C591 C590 1.400 . S
C591 C592 1.398 . S
C591 C597 1.491 . S
C592 H583 0.950 . S
C592 C591 1.398 . S
C592 C593 1.391 . S
C593 H581 0.950 . S
C593 C589 1.393 . S
C593 C592 1.391 . S
C594 H584 0.950 . S
C594 C595 1.386 . S
C594 C596 1.391 . S
C595 C594 1.386 . S
C595 C599 1.393 . S
C596 H585 0.950 . S
C596 C594 1.391 . S
C596 C597 1.400 . S
C597 C591 1.491 . S
C597 C596 1.400 . S
C597 C598 1.398 . S
C598 H586 0.950 . S
C598 C597 1.398 . S
C598 C599 1.391 . S
C599 H587 0.950 . S
C599 C595 1.393 . S
C599 C598 1.391 . S
H600 C608 0.950 . S
H601 C613 0.950 . S
H602 C610 0.950 . S
H603 C612 0.950 . S
H604 C614 0.950 . S
H605 C616 0.950 . S
H606 C618 0.950 . S
H607 C619 0.950 . S
C608 H600 0.950 . S
C608 C609 1.386 . S
C608 C610 1.391 . S
C609 C608 1.386 . S
C609 C613 1.393 . S
C610 H602 0.950 . S
C610 C608 1.391 . S
C610 C611 1.400 . S
C611 C610 1.400 . S
C611 C612 1.398 . S
C611 C617 1.491 . S
C612 H603 0.950 . S
C612 C611 1.398 . S
C612 C613 1.391 . S
C613 H601 0.950 . S
C613 C609 1.393 . S
C613 C612 1.391 . S
C614 H604 0.950 . S
C614 C615 1.386 . S
C614 C616 1.391 . S
C615 C614 1.386 . S
C615 C619 1.393 . S
C616 H605 0.950 . S
C616 C614 1.391 . S
C616 C617 1.400 . S
C617 C611 1.491 . S
C617 C616 1.400 . S
C617 C618 1.398 . S
C618 H606 0.950 . S
C618 C617 1.398 . S
C618 C619 1.391 . S
C619 H607 0.950 . S
C619 C615 1.393 . S
C619 C618 1.391 . S
H620 C628 0.950 . S
H621 C633 0.950 . S
H622 C630 0.950 . S
H623 C632 0.950 . S
H624 C634 0.950 . S
H625 C636 0.950 . S
H626 C638 0.950 . S
H627 C639 0.950 . S
C628 H620 0.950 . S
C628 C629 1.386 . S
C628 C630 1.391 . S
C629 C628 1.386 . S
C629 C633 1.393 . S
C630 H622 0.950 . S
C630 C628 1.391 . S
C630 C631 1.400 . S
C631 C630 1.400 . S
C631 C632 1.398 . S
C631 C637 1.491 . S
C632 H623 0.950 . S
C632 C631 1.398 . S
C632 C633 1.391 . S
C633 H621 0.950 . S
C633 C629 1.393 . S
C633 C632 1.391 . S
C634 H624 0.950 . S
C634 C635 1.386 . S
C634 C636 1.391 . S
C635 C634 1.386 . S
C635 C639 1.393 . S
C636 H625 0.950 . S
C636 C634 1.391 . S
C636 C637 1.400 . S
C637 C631 1.491 . S
C637 C636 1.400 . S
C637 C638 1.398 . S
C638 H626 0.950 . S
C638 C637 1.398 . S
C638 C639 1.391 . S
C639 H627 0.950 . S
C639 C635 1.393 . S
C639 C638 1.391 . S
H640 C648 0.950 . S
H641 C653 0.950 . S
H642 C650 0.950 . S
H643 C652 0.950 . S
H644 C654 0.950 . S
H645 C656 0.950 . S
H646 C658 0.950 . S
H647 C659 0.950 . S
C648 H640 0.950 . S
C648 C649 1.386 . S
C648 C650 1.391 . S
C649 C648 1.386 . S
C649 C653 1.393 . S
C650 H642 0.950 . S
C650 C648 1.391 . S
C650 C651 1.400 . S
C651 C650 1.400 . S
C651 C652 1.398 . S
C651 C657 1.491 . S
C652 H643 0.950 . S
C652 C651 1.398 . S
C652 C653 1.391 . S
C653 H641 0.950 . S
C653 C649 1.393 . S
C653 C652 1.391 . S
C654 H644 0.950 . S
C654 C655 1.386 . S
C654 C656 1.391 . S
C655 C654 1.386 . S
C655 C659 1.393 . S
C656 H645 0.950 . S
C656 C654 1.391 . S
C656 C657 1.400 . S
C657 C651 1.491 . S
C657 C656 1.400 . S
C657 C658 1.398 . S
C658 H646 0.950 . S
C658 C657 1.398 . S
C658 C659 1.391 . S
C659 H647 0.950 . S
C659 C655 1.393 . S
C659 C658 1.391 . S
H660 C668 0.950 . S
H661 C673 0.950 . S
H662 C670 0.950 . S
H663 C672 0.950 . S
H664 C674 0.950 . S
H665 C676 0.950 . S
H666 C678 0.950 . S
H667 C679 0.950 . S
C668 H660 0.950 . S
C668 C669 1.386 . S
C668 C670 1.391 . S
C669 C668 1.386 . S
C669 C673 1.393 . S
C670 H662 0.950 . S
C670 C668 1.391 . S
C670 C671 1.400 . S
C671 C670 1.400 . S
C671 C672 1.398 . S
C671 C677 1.491 . S
C672 H663 0.950 . S
C672 C671 1.398 . S
C672 C673 1.391 . S
C673 H661 0.950 . S
C673 C669 1.393 . S
C673 C672 1.391 . S
C674 H664 0.950 . S
C674 C675 1.386 . S
C674 C676 1.391 . S
C675 C674 1.386 . S
C675 C679 1.393 . S
C676 H665 0.950 . S
C676 C674 1.391 . S
C676 C677 1.400 . S
C677 C671 1.491 . S
C677 C676 1.400 . S
C677 C678 1.398 . S
C678 H666 0.950 . S
C678 C677 1.398 . S
C678 C679 1.391 . S
C679 H667 0.950 . S
C679 C675 1.393 . S
C679 C678 1.391 . S
H680 C688 0.950 . S
H681 C693 0.950 . S
H682 C690 0.950 . S
H683 C692 0.950 . S
H684 C694 0.950 . S
H685 C696 0.950 . S
H686 C698 0.950 . S
H687 C699 0.950 . S
C688 H680 0.950 . S
C688 C689 1.386 . S
C688 C690 1.391 . S
C689 C688 1.386 . S
C689 C693 1.393 . S
C690 H682 0.950 . S
C690 C688 1.391 . S
C690 C691 1.400 . S
C691 C690 1.400 . S
C691 C692 1.398 . S
C691 C697 1.491 . S
C692 H683 0.950 . S
C692 C691 1.398 . S
C692 C693 1.391 . S
C693 H681 0.950 . S
C693 C689 1.393 . S
C693 C692 1.391 . S
C694 H684 0.950 . S
C694 C695 1.386 . S
C694 C696 1.391 . S
C695 C694 1.386 . S
C695 C699 1.393 . S
C696 H685 0.950 . S
C696 C694 1.391 . S
C696 C697 1.400 . S
C697 C691 1.491 . S
C697 C696 1.400 . S
C697 C698 1.398 . S
C698 H686 0.950 . S
C698 C697 1.398 . S
C698 C699 1.391 . S
C699 H687 0.950 . S
C699 C695 1.393 . S
C699 C698 1.391 . S
H700 C708 0.950 . S
H701 C713 0.950 . S
H702 C710 0.950 . S
H703 C712 0.950 . S
H704 C714 0.950 . S
H705 C716 0.950 . S
H706 C718 0.950 . S
H707 C719 0.950 . S
C708 H700 0.950 . S
C708 C709 1.386 . S
C708 C710 1.391 . S
C709 C708 1.386 . S
C709 C713 1.393 . S
C710 H702 0.950 . S
C710 C708 1.391 . S
C710 C711 1.400 . S
C711 C710 1.400 . S
C711 C712 1.398 . S
C711 C717 1.491 . S
C712 H703 0.950 . S
C712 C711 1.398 . S
C712 C713 1.391 . S
C713 H701 0.950 . S
C713 C709 1.393 . S
C713 C712 1.391 . S
C714 H704 0.950 . S
C714 C715 1.386 . S
C714 C716 1.391 . S
C715 C714 1.386 . S
C715 C719 1.393 . S
C716 H705 0.950 . S
C716 C714 1.391 . S
C716 C717 1.400 . S
C717 C711 1.491 . S
C717 C716 1.400 . S
C717 C718 1.398 . S
C718 H706 0.950 . S
C718 C717 1.398 . S
C718 C719 1.391 . S
C719 H707 0.950 . S
C719 C715 1.393 . S
C719 C718 1.391 . S
H720 C728 0.950 . S
H721 C733 0.950 . S
H722 C730 0.950 . S
H723 C732 0.950 . S
H724 C734 0.950 . S
H725 C736 0.950 . S
H726 C738 0.950 . S
H727 C739 0.950 . S
C728 H720 0.950 . S
C728 C729 1.386 . S
C728 C730 1.391 . S
C729 C728 1.386 . S
C729 C733 1.393 . S
C730 H722 0.950 . S
C730 C728 1.391 . S
C730 C731 1.400 . S
C731 C730 1.400 . S
C731 C732 1.398 . S
C731 C737 1.491 . S
C732 H723 0.950 . S
C732 C731 1.398 . S
C732 C733 1.391 . S
C733 H721 0.950 . S
C733 C729 1.393 . S
C733 C732 1.391 . S
C734 H724 0.950 . S
C734 C735 1.386 . S
C734 C736 1.391 . S
C735 C734 1.386 . S
C735 C739 1.393 . S
C736 H725 0.950 . S
C736 C734 1.391 . S
C736 C737 1.400 . S
C737 C731 1.491 . S
C737 C736 1.400 . S
C737 C738 1.398 . S
C738 H726 0.950 . S
C738 C737 1.398 . S
C738 C739 1.391 . S
C739 H727 0.950 . S
C739 C735 1.393 . S
C739 C738 1.391 . S
H740 C748 0.950 . S
H741 C753 0.950 . S
H742 C750 0.950 . S
H743 C752 0.950 . S
H744 C754 0.950 . S
H745 C756 0.950 . S
H746 C758 0.950 . S
H747 C759 0.950 . S
C748 H740 0.950 . S
C748 C749 1.386 . S
C748 C750 1.391 . S
C749 C748 1.386 . S
C749 C753 1.393 1_655 S
C750 H742 0.950 . S
C750 C748 1.391 . S
C750 C751 1.400 . S
C751 C750 1.400 . S
C751 C752 1.398 1_655 S
C751 C757 1.491 . S
C752 H743 0.950 . S
C752 C751 1.398 1_455 S
C752 C753 1.391 . S
C753 H741 0.950 . S
C753 C749 1.393 1_455 S
C753 C752 1.391 . S
C754 H744 0.950 . S
C754 C755 1.386 1_455 S
C754 C756 1.391 . S
C755 C754 1.386 1_655 S
C755 C759 1.393 . S
C756 H745 0.950 . S
C756 C754 1.391 . S
C756 C757 1.400 1_455 S
C757 C751 1.491 . S
C757 C756 1.400 1_655 S
C757 C758 1.398 . S
C758 H746 0.950 . S
C758 C757 1.398 . S
C758 C759 1.391 . S
C759 H747 0.950 . S
C759 C755 1.393 . S
C759 C758 1.391 . S
H760 C768 0.950 . S
H761 C773 0.950 . S
H762 C770 0.950 . S
H763 C772 0.950 . S
H764 C774 0.950 . S
H765 C776 0.950 . S
H766 C778 0.950 . S
H767 C779 0.950 . S
C768 H760 0.950 . S
C768 C769 1.386 . S
C768 C770 1.391 . S
C769 C768 1.386 . S
C769 C773 1.393 . S
C770 H762 0.950 . S
C770 C768 1.391 . S
C770 C771 1.400 . S
C771 C770 1.400 . S
C771 C772 1.398 . S
C771 C777 1.491 . S
C772 H763 0.950 . S
C772 C771 1.398 . S
C772 C773 1.391 . S
C773 H761 0.950 . S
C773 C769 1.393 . S
C773 C772 1.391 . S
C774 H764 0.950 . S
C774 C775 1.386 . S
C774 C776 1.391 . S
C775 C774 1.386 . S
C775 C779 1.393 . S
C776 H765 0.950 . S
C776 C774 1.391 . S
C776 C777 1.400 . S
C777 C771 1.491 . S
C777 C776 1.400 . S
C777 C778 1.398 . S
C778 H766 0.950 . S
C778 C777 1.398 . S
C778 C779 1.391 . S
C779 H767 0.950 . S
C779 C775 1.393 . S
C779 C778 1.391 . S
H780 C788 0.950 . S
H781 C793 0.950 . S
H782 C790 0.950 . S
H783 C792 0.950 . S
H784 C794 0.950 . S
H785 C796 0.950 . S
H786 C798 0.950 . S
H787 C799 0.950 . S
C788 H780 0.950 . S
C788 C789 1.386 . S
C788 C790 1.391 . S
C789 C788 1.386 . S
C789 C793 1.393 . S
C790 H782 0.950 . S
C790 C788 1.391 . S
C790 C791 1.400 . S
C791 C790 1.400 . S
C791 C792 1.398 . S
C791 C797 1.491 . S
C792 H783 0.950 . S
C792 C791 1.398 . S
C792 C793 1.391 . S
C793 H781 0.950 . S
C793 C789 1.393 . S
C793 C792 1.391 . S
C794 H784 0.950 . S
C794 C795 1.386 . S
C794 C796 1.391 . S
C795 C794 1.386 . S
C795 C799 1.393 . S
C796 H785 0.950 . S
C796 C794 1.391 . S
C796 C797 1.400 . S
C797 C791 1.491 . S
C797 C796 1.400 . S
C797 C798 1.398 . S
C798 H786 0.950 . S
C798 C797 1.398 . S
C798 C799 1.391 . S
C799 H787 0.950 . S
C799 C795 1.393 . S
C799 C798 1.391 . S
H800 C808 0.950 . S
H801 C813 0.950 . S
H802 C810 0.950 . S
H803 C812 0.950 . S
H804 C814 0.950 . S
H805 C816 0.950 . S
H806 C818 0.950 . S
H807 C819 0.950 . S
C808 H800 0.950 . S
C808 C809 1.386 . S
C808 C810 1.391 . S
C809 C808 1.386 . S
C809 C813 1.393 . S
C810 H802 0.950 . S
C810 C808 1.391 . S
C810 C811 1.400 . S
C811 C810 1.400 . S
C811 C812 1.398 . S
C811 C817 1.491 . S
C812 H803 0.950 . S
C812 C811 1.398 . S
C812 C813 1.391 . S
C813 H801 0.950 . S
C813 C809 1.393 . S
C813 C812 1.391 . S
C814 H804 0.950 . S
C814 C815 1.386 . S
C814 C816 1.391 . S
C815 C814 1.386 . S
C815 C819 1.393 . S
C816 H805 0.950 . S
C816 C814 1.391 . S
C816 C817 1.400 . S
C817 C811 1.491 . S
C817 C816 1.400 . S
C817 C818 1.398 . S
C818 H806 0.950 . S
C818 C817 1.398 . S
C818 C819 1.391 . S
C819 H807 0.950 . S
C819 C815 1.393 . S
C819 C818 1.391 . S
H820 C828 0.950 . S
H821 C833 0.950 . S
H822 C830 0.950 . S
H823 C832 0.950 . S
H824 C834 0.950 . S
H825 C836 0.950 . S
H826 C838 0.950 . S
H827 C839 0.950 . S
C828 H820 0.950 . S
C828 C829 1.386 . S
C828 C830 1.391 . S
C829 C828 1.386 . S
C829 C833 1.393 . S
C830 H822 0.950 . S
C830 C828 1.391 . S
C830 C831 1.400 . S
C831 C830 1.400 . S
C831 C832 1.398 . S
C831 C837 1.491 . S
C832 H823 0.950 . S
C832 C831 1.398 . S
C832 C833 1.391 . S
C833 H821 0.950 . S
C833 C829 1.393 . S
C833 C832 1.391 . S
C834 H824 0.950 . S
C834 C835 1.386 . S
C834 C836 1.391 . S
C835 C834 1.386 . S
C835 C839 1.393 . S
C836 H825 0.950 . S
C836 C834 1.391 . S
C836 C837 1.400 . S
C837 C831 1.491 . S
C837 C836 1.400 . S
C837 C838 1.398 . S
C838 H826 0.950 . S
C838 C837 1.398 . S
C838 C839 1.391 . S
C839 H827 0.950 . S
C839 C835 1.393 . S
C839 C838 1.391 . S
H840 C848 0.950 . S
H841 C853 0.950 . S
H842 C850 0.950 . S
H843 C852 0.950 . S
H844 C854 0.950 . S
H845 C856 0.950 . S
H846 C858 0.950 . S
H847 C859 0.950 1_565 S
C848 H840 0.950 . S
C848 C849 1.386 1_565 S
C848 C850 1.391 . S
C849 C848 1.386 1_545 S
C849 C853 1.393 . S
C850 H842 0.950 . S
C850 C848 1.391 . S
C850 C851 1.400 1_565 S
C851 C850 1.400 1_545 S
C851 C852 1.398 . S
C851 C857 1.491 . S
C852 H843 0.950 . S
C852 C851 1.398 . S
C852 C853 1.391 . S
C853 H841 0.950 . S
C853 C849 1.393 . S
C853 C852 1.391 . S
C854 H844 0.950 . S
C854 C855 1.386 . S
C854 C856 1.391 . S
C855 C854 1.386 . S
C855 C859 1.392 . S
C856 H845 0.950 . S
C856 C854 1.391 . S
C856 C857 1.400 . S
C857 C851 1.491 . S
C857 C856 1.400 . S
C857 C858 1.398 1_545 S
C858 H846 0.950 . S
C858 C857 1.398 1_565 S
C858 C859 1.391 1_565 S
C859 H847 0.950 1_545 S
C859 C855 1.392 . S
C859 C858 1.391 1_545 S
H860 C868 0.950 . S
H861 C873 0.935 1_556 S
H862 C870 0.950 . S
H863 C872 0.950 1_556 S
H864 C874 0.950 1_556 S
H865 C876 0.950 1_556 S
H866 C878 0.950 . S
H867 C879 0.950 . S
C868 H860 0.950 . S
C868 C869 1.386 . S
C868 C870 1.391 . S
C869 C868 1.386 . S
C869 C873 1.404 . S
C870 H862 0.950 . S
C870 C868 1.391 . S
C870 C871 1.400 . S
C871 C870 1.400 . S
C871 C872 1.398 . S
C871 C877 1.491 . S
C872 H863 0.950 1_554 S
C872 C871 1.398 . S
C872 C873 1.396 . S
C873 H861 0.935 1_554 S
C873 C869 1.404 . S
C873 C872 1.396 . S
C874 H864 0.950 1_554 S
C874 C875 1.386 . S
C874 C876 1.391 . S
C875 C874 1.386 . S
C875 C879 1.393 . S
C876 H865 0.950 1_554 S
C876 C874 1.391 . S
C876 C877 1.400 . S
C877 C871 1.491 . S
C877 C876 1.400 . S
C877 C878 1.398 . S
C878 H866 0.950 . S
C878 C877 1.398 . S
C878 C879 1.391 . S
C879 H867 0.950 . S
C879 C875 1.393 . S
C879 C878 1.391 . S
H880 C888 0.950 . S
H881 C893 0.950 . S
H882 C890 0.950 . S
H883 C892 0.950 . S
H884 C894 0.950 . S
H885 C896 0.950 . S
H886 C898 0.950 . S
H887 C899 0.950 . S
C888 H880 0.950 . S
C888 C889 1.386 . S
C888 C890 1.391 . S
C889 C888 1.386 . S
C889 C893 1.393 . S
C890 H882 0.950 . S
C890 C888 1.391 . S
C890 C891 1.400 . S
C891 C890 1.400 . S
C891 C892 1.398 . S
C891 C897 1.491 . S
C892 H883 0.950 . S
C892 C891 1.398 . S
C892 C893 1.391 . S
C893 H881 0.950 . S
C893 C889 1.393 . S
C893 C892 1.391 . S
C894 H884 0.950 . S
C894 C895 1.386 . S
C894 C896 1.391 . S
C895 C894 1.386 . S
C895 C899 1.393 . S
C896 H885 0.950 . S
C896 C894 1.391 . S
C896 C897 1.400 . S
C897 C891 1.491 . S
C897 C896 1.400 . S
C897 C898 1.398 . S
C898 H886 0.950 . S
C898 C897 1.398 . S
C898 C899 1.391 . S
C899 H887 0.950 . S
C899 C895 1.393 . S
C899 C898 1.391 . S
H900 C908 0.950 . S
H901 C913 0.950 . S
H902 C910 0.950 . S
H903 C912 0.950 . S
H904 C914 0.950 . S
H905 C916 0.950 . S
H906 C918 0.950 . S
H907 C919 0.950 . S
C908 H900 0.950 . S
C908 C909 1.386 . S
C908 C910 1.391 . S
C909 C908 1.386 . S
C909 C913 1.393 . S
C910 H902 0.950 . S
C910 C908 1.391 . S
C910 C911 1.400 . S
C911 C910 1.400 . S
C911 C912 1.398 . S
C911 C917 1.491 . S
C912 H903 0.950 . S
C912 C911 1.398 . S
C912 C913 1.391 . S
C913 H901 0.950 . S
C913 C909 1.393 . S
C913 C912 1.391 . S
C914 H904 0.950 . S
C914 C915 1.386 . S
C914 C916 1.391 . S
C915 C914 1.386 . S
C915 C919 1.393 . S
C916 H905 0.950 . S
C916 C914 1.391 . S
C916 C917 1.400 . S
C917 C911 1.491 . S
C917 C916 1.400 . S
C917 C918 1.398 . S
C918 H906 0.950 . S
C918 C917 1.398 . S
C918 C919 1.391 . S
C919 H907 0.950 . S
C919 C915 1.393 . S
C919 C918 1.391 . S
H920 C928 0.950 . S
H921 C933 0.950 . S
H922 C930 0.950 . S
H923 C932 0.950 . S
H924 C934 0.950 . S
H925 C936 0.950 . S
H926 C938 0.950 . S
H927 C939 0.950 . S
C928 H920 0.950 . S
C928 C929 1.386 . S
C928 C930 1.391 . S
C929 C928 1.386 . S
C929 C933 1.393 . S
C930 H922 0.950 . S
C930 C928 1.391 . S
C930 C931 1.400 . S
C931 C930 1.400 . S
C931 C932 1.398 . S
C931 C937 1.491 . S
C932 H923 0.950 . S
C932 C931 1.398 . S
C932 C933 1.391 . S
C933 H921 0.950 . S
C933 C929 1.393 . S
C933 C932 1.391 . S
C934 H924 0.950 . S
C934 C935 1.386 . S
C934 C936 1.391 . S
C935 C934 1.386 . S
C935 C939 1.393 . S
C936 H925 0.950 . S
C936 C934 1.391 . S
C936 C937 1.400 . S
C937 C931 1.491 . S
C937 C936 1.400 . S
C937 C938 1.398 . S
C938 H926 0.950 . S
C938 C937 1.398 . S
C938 C939 1.391 . S
C939 H927 0.950 . S
C939 C935 1.393 . S
C939 C938 1.391 . S
H940 C948 0.950 . S
H941 C953 0.950 . S
H942 C950 0.950 . S
H943 C952 0.950 . S
H944 C954 0.950 . S
H945 C956 0.950 . S
H946 C958 0.950 . S
H947 C959 0.950 . S
C948 H940 0.950 . S
C948 C949 1.386 . S
C948 C950 1.391 . S
C949 C948 1.386 . S
C949 C953 1.393 . S
C950 H942 0.950 . S
C950 C948 1.391 . S
C950 C951 1.400 . S
C951 C950 1.400 . S
C951 C952 1.398 . S
C951 C957 1.491 . S
C952 H943 0.950 . S
C952 C951 1.398 . S
C952 C953 1.391 . S
C953 H941 0.950 . S
C953 C949 1.393 . S
C953 C952 1.391 . S
C954 H944 0.950 . S
C954 C955 1.386 . S
C954 C956 1.391 . S
C955 C954 1.386 . S
C955 C959 1.393 . S
C956 H945 0.950 . S
C956 C954 1.391 . S
C956 C957 1.400 . S
C957 C951 1.491 . S
C957 C956 1.400 . S
C957 C958 1.398 . S
C958 H946 0.950 . S
C958 C957 1.398 . S
C958 C959 1.391 . S
C959 H947 0.950 . S
C959 C955 1.393 . S
C959 C958 1.391 . S
H960 C968 0.950 . S
H961 C973 0.950 . S
H962 C970 0.950 . S
H963 C972 0.950 . S
H964 C974 0.950 . S
H965 C976 0.950 . S
H966 C978 0.950 . S
H967 C979 0.950 . S
C968 H960 0.950 . S
C968 C969 1.386 . S
C968 C970 1.391 . S
C969 C968 1.386 . S
C969 C973 1.393 . S
C970 H962 0.950 . S
C970 C968 1.391 . S
C970 C971 1.400 . S
C971 C970 1.400 . S
C971 C972 1.398 . S
C971 C977 1.491 . S
C972 H963 0.950 . S
C972 C971 1.398 . S
C972 C973 1.391 . S
C973 H961 0.950 . S
C973 C969 1.393 . S
C973 C972 1.391 . S
C974 H964 0.950 . S
C974 C975 1.386 . S
C974 C976 1.391 . S
C975 C974 1.386 . S
C975 C979 1.393 . S
C976 H965 0.950 . S
C976 C974 1.391 . S
C976 C977 1.400 . S
C977 C971 1.491 . S
C977 C976 1.400 . S
C977 C978 1.398 . S
C978 H966 0.950 . S
C978 C977 1.398 . S
C978 C979 1.391 . S
C979 H967 0.950 . S
C979 C975 1.393 . S
C979 C978 1.391 . S
H980 C988 0.950 . S
H981 C993 0.950 . S
H982 C990 0.950 . S
H983 C992 0.950 . S
H984 C994 0.950 . S
H985 C996 0.950 . S
H986 C998 0.950 . S
H987 C999 0.950 . S
C988 H980 0.950 . S
C988 C989 1.386 . S
C988 C990 1.391 . S
C989 C988 1.386 . S
C989 C993 1.393 . S
C990 H982 0.950 . S
C990 C988 1.391 . S
C990 C991 1.400 . S
C991 C990 1.400 . S
C991 C992 1.398 . S
C991 C997 1.491 . S
C992 H983 0.950 . S
C992 C991 1.398 . S
C992 C993 1.391 . S
C993 H981 0.950 . S
C993 C989 1.393 . S
C993 C992 1.391 . S
C994 H984 0.950 . S
C994 C995 1.386 . S
C994 C996 1.391 . S
C995 C994 1.386 . S
C995 C999 1.393 . S
C996 H985 0.950 . S
C996 C994 1.391 . S
C996 C997 1.400 . S
C997 C991 1.491 . S
C997 C996 1.400 . S
C997 C998 1.398 . S
C998 H986 0.950 . S
C998 C997 1.398 . S
C998 C999 1.391 . S
C999 H987 0.950 . S
C999 C995 1.393 . S
C999 C998 1.391 . S
H1000 C1008 0.950 . S
H1001 C1013 0.950 . S
H1002 C1010 0.950 . S
H1003 C1012 0.950 . S
H1004 C1014 0.950 . S
H1005 C1016 0.950 . S
H1006 C1018 0.950 . S
H1007 C1019 0.950 . S
C1008 H1000 0.950 . S
C1008 C1009 1.386 . S
C1008 C1010 1.391 . S
C1009 C1008 1.386 . S
C1009 C1013 1.393 . S
C1010 H1002 0.950 . S
C1010 C1008 1.391 . S
C1010 C1011 1.400 . S
C1011 C1010 1.400 . S
C1011 C1012 1.398 . S
C1011 C1017 1.491 . S
C1012 H1003 0.950 . S
C1012 C1011 1.398 . S
C1012 C1013 1.391 . S
C1013 H1001 0.950 . S
C1013 C1009 1.393 . S
C1013 C1012 1.391 . S
C1014 H1004 0.950 . S
C1014 C1015 1.386 . S
C1014 C1016 1.391 . S
C1015 C1014 1.386 . S
C1015 C1019 1.393 . S
C1016 H1005 0.950 . S
C1016 C1014 1.391 . S
C1016 C1017 1.400 . S
C1017 C1011 1.491 . S
C1017 C1016 1.400 . S
C1017 C1018 1.398 . S
C1018 H1006 0.950 . S
C1018 C1017 1.398 . S
C1018 C1019 1.391 . S
C1019 H1007 0.950 . S
C1019 C1015 1.393 . S
C1019 C1018 1.391 . S
H1020 C1028 0.950 . S
H1021 C1033 0.950 . S
H1022 C1030 0.950 . S
H1023 C1032 0.950 . S
H1024 C1034 0.950 . S
H1025 C1036 0.950 . S
H1026 C1038 0.950 . S
H1027 C1039 0.950 . S
C1028 H1020 0.950 . S
C1028 C1029 1.386 . S
C1028 C1030 1.391 . S
C1029 C1028 1.386 . S
C1029 C1033 1.393 . S
C1030 H1022 0.950 . S
C1030 C1028 1.391 . S
C1030 C1031 1.400 . S
C1031 C1030 1.400 . S
C1031 C1032 1.398 . S
C1031 C1037 1.491 . S
C1032 H1023 0.950 . S
C1032 C1031 1.398 . S
C1032 C1033 1.391 . S
C1033 H1021 0.950 . S
C1033 C1029 1.393 . S
C1033 C1032 1.391 . S
C1034 H1024 0.950 . S
C1034 C1035 1.386 . S
C1034 C1036 1.391 . S
C1035 C1034 1.386 . S
C1035 C1039 1.393 . S
C1036 H1025 0.950 . S
C1036 C1034 1.391 . S
C1036 C1037 1.400 . S
C1037 C1031 1.491 . S
C1037 C1036 1.400 . S
C1037 C1038 1.398 . S
C1038 H1026 0.950 . S
C1038 C1037 1.398 . S
C1038 C1039 1.391 . S
C1039 H1027 0.950 . S
C1039 C1035 1.393 . S
C1039 C1038 1.391 . S
H1040 C1048 0.950 . S
H1041 C1053 0.950 . S
H1042 C1050 0.950 . S
H1043 C1052 0.950 . S
H1044 C1054 0.950 . S
H1045 C1056 0.950 . S
H1046 C1058 0.950 . S
H1047 C1059 0.950 . S
C1048 H1040 0.950 . S
C1048 C1049 1.386 . S
C1048 C1050 1.391 . S
C1049 C1048 1.386 . S
C1049 C1053 1.393 . S
C1050 H1042 0.950 . S
C1050 C1048 1.391 . S
C1050 C1051 1.400 . S
C1051 C1050 1.400 . S
C1051 C1052 1.398 . S
C1051 C1057 1.491 . S
C1052 H1043 0.950 . S
C1052 C1051 1.398 . S
C1052 C1053 1.391 . S
C1053 H1041 0.950 . S
C1053 C1049 1.393 . S
C1053 C1052 1.391 . S
C1054 H1044 0.950 . S
C1054 C1055 1.386 . S
C1054 C1056 1.391 . S
C1055 C1054 1.386 . S
C1055 C1059 1.393 . S
C1056 H1045 0.950 . S
C1056 C1054 1.391 . S
C1056 C1057 1.400 . S
C1057 C1051 1.491 . S
C1057 C1056 1.400 . S
C1057 C1058 1.398 . S
C1058 H1046 0.950 . S
C1058 C1057 1.398 . S
C1058 C1059 1.391 . S
C1059 H1047 0.950 . S
C1059 C1055 1.393 . S
C1059 C1058 1.391 . S
H1060 C1068 0.950 . S
H1061 C1073 0.950 . S
H1062 C1070 0.950 . S
H1063 C1072 0.950 . S
H1064 C1074 0.950 . S
H1065 C1076 0.950 . S
H1066 C1078 0.950 . S
H1067 C1079 0.950 . S
C1068 H1060 0.950 . S
C1068 C1069 1.386 . S
C1068 C1070 1.391 . S
C1069 C1068 1.386 . S
C1069 C1073 1.393 . S
C1070 H1062 0.950 . S
C1070 C1068 1.391 . S
C1070 C1071 1.400 . S
C1071 C1070 1.400 . S
C1071 C1072 1.398 . S
C1071 C1077 1.491 . S
C1072 H1063 0.950 . S
C1072 C1071 1.398 . S
C1072 C1073 1.391 . S
C1073 H1061 0.950 . S
C1073 C1069 1.393 . S
C1073 C1072 1.391 . S
C1074 H1064 0.950 . S
C1074 C1075 1.386 . S
C1074 C1076 1.391 . S
C1075 C1074 1.386 . S
C1075 C1079 1.393 . S
C1076 H1065 0.950 . S
C1076 C1074 1.391 . S
C1076 C1077 1.400 . S
C1077 C1071 1.491 . S
C1077 C1076 1.400 . S
C1077 C1078 1.398 . S
C1078 H1066 0.950 . S
C1078 C1077 1.398 . S
C1078 C1079 1.391 . S
C1079 H1067 0.950 . S
C1079 C1075 1.393 . S
C1079 C1078 1.391 . S
H1080 C1088 0.950 . S
H1081 C1093 0.950 . S
H1082 C1090 0.950 . S
H1083 C1092 0.950 . S
H1084 C1094 0.950 . S
H1085 C1096 0.950 . S
H1086 C1098 0.950 . S
H1087 C1099 0.950 . S
C1088 H1080 0.950 . S
C1088 C1089 1.386 . S
C1088 C1090 1.391 . S
C1089 C1088 1.386 . S
C1089 C1093 1.393 . S
C1090 H1082 0.950 . S
C1090 C1088 1.391 . S
C1090 C1091 1.400 . S
C1091 C1090 1.400 . S
C1091 C1092 1.398 . S
C1091 C1097 1.491 . S
C1092 H1083 0.950 . S
C1092 C1091 1.398 . S
C1092 C1093 1.391 . S
C1093 H1081 0.950 . S
C1093 C1089 1.393 . S
C1093 C1092 1.391 . S
C1094 H1084 0.950 . S
C1094 C1095 1.386 . S
C1094 C1096 1.391 . S
C1095 C1094 1.386 . S
C1095 C1099 1.393 . S
C1096 H1085 0.950 . S
C1096 C1094 1.391 . S
C1096 C1097 1.400 . S
C1097 C1091 1.491 . S
C1097 C1096 1.400 . S
C1097 C1098 1.398 . S
C1098 H1086 0.950 . S
C1098 C1097 1.398 . S
C1098 C1099 1.391 . S
C1099 H1087 0.950 . S
C1099 C1095 1.393 . S
C1099 C1098 1.391 . S
H1100 C1108 0.950 . S
H1101 C1113 0.950 . S
H1102 C1110 0.950 . S
H1103 C1112 0.950 . S
H1104 C1114 0.950 . S
H1105 C1116 0.950 . S
H1106 C1118 0.950 . S
H1107 C1119 0.950 . S
C1108 H1100 0.950 . S
C1108 C1109 1.386 . S
C1108 C1110 1.391 . S
C1109 C1108 1.386 . S
C1109 C1113 1.393 . S
C1110 H1102 0.950 . S
C1110 C1108 1.391 . S
C1110 C1111 1.400 . S
C1111 C1110 1.400 . S
C1111 C1112 1.398 . S
C1111 C1117 1.491 . S
C1112 H1103 0.950 . S
C1112 C1111 1.398 . S
C1112 C1113 1.391 . S
C1113 H1101 0.950 . S
C1113 C1109 1.393 . S
C1113 C1112 1.391 . S
C1114 H1104 0.950 . S
C1114 C1115 1.386 . S
C1114 C1116 1.391 . S
C1115 C1114 1.386 . S
C1115 C1119 1.393 . S
C1116 H1105 0.950 . S
C1116 C1114 1.391 . S
C1116 C1117 1.400 . S
C1117 C1111 1.491 . S
C1117 C1116 1.400 . S
C1117 C1118 1.398 . S
C1118 H1106 0.950 . S
C1118 C1117 1.398 . S
C1118 C1119 1.391 . S
C1119 H1107 0.950 . S
C1119 C1115 1.393 . S
C1119 C1118 1.391 . S
H1120 C1128 0.950 . S
H1121 C1133 0.950 . S
H1122 C1130 0.950 . S
H1123 C1132 0.950 . S
H1124 C1134 0.950 . S
H1125 C1136 0.950 . S
H1126 C1138 0.950 . S
H1127 C1139 0.950 . S
C1128 H1120 0.950 . S
C1128 C1129 1.386 . S
C1128 C1130 1.391 . S
C1129 C1128 1.386 . S
C1129 C1133 1.393 . S
C1130 H1122 0.950 . S
C1130 C1128 1.391 . S
C1130 C1131 1.400 . S
C1131 C1130 1.400 . S
C1131 C1132 1.398 . S
C1131 C1137 1.491 . S
C1132 H1123 0.950 . S
C1132 C1131 1.398 . S
C1132 C1133 1.391 . S
C1133 H1121 0.950 . S
C1133 C1129 1.393 . S
C1133 C1132 1.391 . S
C1134 H1124 0.950 . S
C1134 C1135 1.386 . S
C1134 C1136 1.391 . S
C1135 C1134 1.386 . S
C1135 C1139 1.393 . S
C1136 H1125 0.950 . S
C1136 C1134 1.391 . S
C1136 C1137 1.400 . S
C1137 C1131 1.491 . S
C1137 C1136 1.400 . S
C1137 C1138 1.398 . S
C1138 H1126 0.950 . S
C1138 C1137 1.398 . S
C1138 C1139 1.391 . S
C1139 H1127 0.950 . S
C1139 C1135 1.393 . S
C1139 C1138 1.391 . S
H1140 C1148 0.950 . S
H1141 C1153 0.950 . S
H1142 C1150 0.950 . S
H1143 C1152 0.950 . S
H1144 C1154 0.950 . S
H1145 C1156 0.950 . S
H1146 C1158 0.950 . S
H1147 C1159 0.950 . S
C1148 H1140 0.950 . S
C1148 C1149 1.386 . S
C1148 C1150 1.391 . S
C1149 C1148 1.386 . S
C1149 C1153 1.393 . S
C1150 H1142 0.950 . S
C1150 C1148 1.391 . S
C1150 C1151 1.400 . S
C1151 C1150 1.400 . S
C1151 C1152 1.398 . S
C1151 C1157 1.491 . S
C1152 H1143 0.950 . S
C1152 C1151 1.398 . S
C1152 C1153 1.391 . S
C1153 H1141 0.950 . S
C1153 C1149 1.393 . S
C1153 C1152 1.391 . S
C1154 H1144 0.950 . S
C1154 C1155 1.386 . S
C1154 C1156 1.391 . S
C1155 C1154 1.386 . S
C1155 C1159 1.393 . S
C1156 H1145 0.950 . S
C1156 C1154 1.391 . S
C1156 C1157 1.400 . S
C1157 C1151 1.491 . S
C1157 C1156 1.400 . S
C1157 C1158 1.398 . S
C1158 H1146 0.950 . S
C1158 C1157 1.398 . S
C1158 C1159 1.391 . S
C1159 H1147 0.950 . S
C1159 C1155 1.393 . S
C1159 C1158 1.391 . S
H1160 C1168 0.950 . S
H1161 C1173 0.950 . S
H1162 C1170 0.950 . S
H1163 C1172 0.949 1_554 S
H1164 C1174 0.950 1_554 S
H1165 C1176 0.950 1_554 S
H1166 C1178 0.950 . S
H1167 C1179 0.950 . S
C1168 H1160 0.950 . S
C1168 C1169 1.386 . S
C1168 C1170 1.391 . S
C1169 C1168 1.386 . S
C1169 C1173 1.393 1_556 S
C1170 H1162 0.950 . S
C1170 C1168 1.391 . S
C1170 C1171 1.400 . S
C1171 C1170 1.400 . S
C1171 C1172 1.400 . S
C1171 C1177 1.491 . S
C1172 H1163 0.949 1_556 S
C1172 C1171 1.400 . S
C1172 C1173 1.390 1_556 S
C1173 H1161 0.950 . S
C1173 C1169 1.393 1_554 S
C1173 C1172 1.390 1_554 S
C1174 H1164 0.950 1_556 S
C1174 C1175 1.386 . S
C1174 C1176 1.391 . S
C1175 C1174 1.386 . S
C1175 C1179 1.393 . S
C1176 H1165 0.950 1_556 S
C1176 C1174 1.391 . S
C1176 C1177 1.400 . S
C1177 C1171 1.491 . S
C1177 C1176 1.400 . S
C1177 C1178 1.398 . S
C1178 H1166 0.950 . S
C1178 C1177 1.398 . S
C1178 C1179 1.391 . S
C1179 H1167 0.950 . S
C1179 C1175 1.393 . S
C1179 C1178 1.391 . S
H1180 C1188 0.950 . S
H1181 C1193 0.950 . S
H1182 C1190 0.950 . S
H1183 C1192 0.950 . S
H1184 C1194 0.950 . S
H1185 C1196 0.950 . S
H1186 C1198 0.950 . S
H1187 C1199 0.950 . S
C1188 H1180 0.950 . S
C1188 C1189 1.386 . S
C1188 C1190 1.391 . S
C1189 C1188 1.386 . S
C1189 C1193 1.393 . S
C1190 H1182 0.950 . S
C1190 C1188 1.391 . S
C1190 C1191 1.400 . S
C1191 C1190 1.400 . S
C1191 C1192 1.398 . S
C1191 C1197 1.491 . S
C1192 H1183 0.950 . S
C1192 C1191 1.398 . S
C1192 C1193 1.391 . S
C1193 H1181 0.950 . S
C1193 C1189 1.393 . S
C1193 C1192 1.391 . S
C1194 H1184 0.950 . S
C1194 C1195 1.386 . S
C1194 C1196 1.391 . S
C1195 C1194 1.386 . S
C1195 C1199 1.393 . S
C1196 H1185 0.950 . S
C1196 C1194 1.391 . S
C1196 C1197 1.400 . S
C1197 C1191 1.491 . S
C1197 C1196 1.400 . S
C1197 C1198 1.398 . S
C1198 H1186 0.950 . S
C1198 C1197 1.398 . S
C1198 C1199 1.391 . S
C1199 H1187 0.950 . S
C1199 C1195 1.393 . S
C1199 C1198 1.391 . S
H1200 C1208 0.950 . S
H1201 C1213 0.950 . S
H1202 C1210 0.950 . S
H1203 C1212 0.950 . S
H1204 C1214 0.950 . S
H1205 C1216 0.950 . S
H1206 C1218 0.950 . S
H1207 C1219 0.950 . S
C1208 H1200 0.950 . S
C1208 C1209 1.386 . S
C1208 C1210 1.391 . S
C1209 C1208 1.386 . S
C1209 C1213 1.393 . S
C1210 H1202 0.950 . S
C1210 C1208 1.391 . S
C1210 C1211 1.400 . S
C1211 C1210 1.400 . S
C1211 C1212 1.398 . S
C1211 C1217 1.491 . S
C1212 H1203 0.950 . S
C1212 C1211 1.398 . S
C1212 C1213 1.391 . S
C1213 H1201 0.950 . S
C1213 C1209 1.393 . S
C1213 C1212 1.391 . S
C1214 H1204 0.950 . S
C1214 C1215 1.386 . S
C1214 C1216 1.391 . S
C1215 C1214 1.386 . S
C1215 C1219 1.393 . S
C1216 H1205 0.950 . S
C1216 C1214 1.391 . S
C1216 C1217 1.400 . S
C1217 C1211 1.491 . S
C1217 C1216 1.400 . S
C1217 C1218 1.398 . S
C1218 H1206 0.950 . S
C1218 C1217 1.398 . S
C1218 C1219 1.391 . S
C1219 H1207 0.950 . S
C1219 C1215 1.393 . S
C1219 C1218 1.391 . S
H1220 C1228 0.950 . S
H1221 C1233 0.950 . S
H1222 C1230 0.950 . S
H1223 C1232 0.950 . S
H1224 C1234 0.950 . S
H1225 C1236 0.950 . S
H1226 C1238 0.950 . S
H1227 C1239 0.950 . S
C1228 H1220 0.950 . S
C1228 C1229 1.386 . S
C1228 C1230 1.391 . S
C1229 C1228 1.386 . S
C1229 C1233 1.393 . S
C1230 H1222 0.950 . S
C1230 C1228 1.391 . S
C1230 C1231 1.400 . S
C1231 C1230 1.400 . S
C1231 C1232 1.398 . S
C1231 C1237 1.491 . S
C1232 H1223 0.950 . S
C1232 C1231 1.398 . S
C1232 C1233 1.391 . S
C1233 H1221 0.950 . S
C1233 C1229 1.393 . S
C1233 C1232 1.391 . S
C1234 H1224 0.950 . S
C1234 C1235 1.386 . S
C1234 C1236 1.391 . S
C1235 C1234 1.386 . S
C1235 C1239 1.393 . S
C1236 H1225 0.950 . S
C1236 C1234 1.391 . S
C1236 C1237 1.400 . S
C1237 C1231 1.491 . S
C1237 C1236 1.400 . S
C1237 C1238 1.398 . S
C1238 H1226 0.950 . S
C1238 C1237 1.398 . S
C1238 C1239 1.391 . S
C1239 H1227 0.950 . S
C1239 C1235 1.393 . S
C1239 C1238 1.391 . S
H1240 C1248 0.950 . S
H1241 C1253 0.950 . S
H1242 C1250 0.950 . S
H1243 C1252 0.950 . S
H1244 C1254 0.950 . S
H1245 C1256 0.950 . S
H1246 C1258 0.950 . S
H1247 C1259 0.950 . S
C1248 H1240 0.950 . S
C1248 C1249 1.386 . S
C1248 C1250 1.391 . S
C1249 C1248 1.386 . S
C1249 C1253 1.393 . S
C1250 H1242 0.950 . S
C1250 C1248 1.391 . S
C1250 C1251 1.400 . S
C1251 C1250 1.400 . S
C1251 C1252 1.398 . S
C1251 C1257 1.491 . S
C1252 H1243 0.950 . S
C1252 C1251 1.398 . S
C1252 C1253 1.391 . S
C1253 H1241 0.950 . S
C1253 C1249 1.393 . S
C1253 C1252 1.391 . S
C1254 H1244 0.950 . S
C1254 C1255 1.386 . S
C1254 C1256 1.391 . S
C1255 C1254 1.386 . S
C1255 C1259 1.393 . S
C1256 H1245 0.950 . S
C1256 C1254 1.391 . S
C1256 C1257 1.400 . S
C1257 C1251 1.491 . S
C1257 C1256 1.400 . S
C1257 C1258 1.398 . S
C1258 H1246 0.950 . S
C1258 C1257 1.398 . S
C1258 C1259 1.391 . S
C1259 H1247 0.950 . S
C1259 C1255 1.393 . S
C1259 C1258 1.391 . S
H1260 C1268 0.950 . S
H1261 C1273 0.950 . S
H1262 C1270 0.950 . S
H1263 C1272 0.950 . S
H1264 C1274 0.950 . S
H1265 C1276 0.950 . S
H1266 C1278 0.950 . S
H1267 C1279 0.950 . S
C1268 H1260 0.950 . S
C1268 C1269 1.386 . S
C1268 C1270 1.391 . S
C1269 C1268 1.386 . S
C1269 C1273 1.393 . S
C1270 H1262 0.950 . S
C1270 C1268 1.391 . S
C1270 C1271 1.400 . S
C1271 C1270 1.400 . S
C1271 C1272 1.398 . S
C1271 C1277 1.491 . S
C1272 H1263 0.950 . S
C1272 C1271 1.398 . S
C1272 C1273 1.391 . S
C1273 H1261 0.950 . S
C1273 C1269 1.393 . S
C1273 C1272 1.391 . S
C1274 H1264 0.950 . S
C1274 C1275 1.386 . S
C1274 C1276 1.391 . S
C1275 C1274 1.386 . S
C1275 C1279 1.393 . S
C1276 H1265 0.950 . S
C1276 C1274 1.391 . S
C1276 C1277 1.400 . S
C1277 C1271 1.491 . S
C1277 C1276 1.400 . S
C1277 C1278 1.398 . S
C1278 H1266 0.950 . S
C1278 C1277 1.398 . S
C1278 C1279 1.391 . S
C1279 H1267 0.950 . S
C1279 C1275 1.393 . S
C1279 C1278 1.391 . S
C329 C19 0.955 . S
C335 C21 0.925 . S
C349 C59 1.257 . S
C355 C38 1.261 . S
C369 C78 1.397 . S
C375 C49 1.383 . S
C389 C9 1.049 . S
C395 C61 1.027 . S
C409 C8 1.040 . S
C415 C182 1.030 . S
C429 C158 0.954 . S
C435 C22 0.956 . S
C449 C58 1.259 . S
C455 C219 1.258 . S
C469 C79 1.402 . S
C475 C268 1.393 . S
C489 C178 1.256 . S
C495 C39 1.258 . S
C509 C259 1.402 . S
C515 C48 1.369 . S
C529 C288 1.041 . S
C535 C62 1.059 . S
C549 C18 0.956 . S
C555 C222 0.945 . S
C569 C1 0.414 . S
C575 C162 0.413 . S
C589 C249 1.131 . S
C595 C88 1.110 . S
C609 C101 0.417 . S
C615 C282 0.431 . S
C629 C228 1.112 . S
C635 C129 1.129 . S
C649 C41 0.404 . S
C655 C142 0.434 . S
C669 C188 1.106 . S
C675 C89 1.135 . S
C689 C128 1.126 . S
C695 C209 1.113 . S
C709 C118 1.257 . S
C715 C239 1.258 . S
C729 C199 1.410 . S
C735 C108 1.379 . S
C749 C221 0.954 . S
C755 C159 0.953 . S
C769 C119 1.260 . S
C775 C98 1.253 . S
C789 C198 1.403 . S
C795 C169 1.390 . S
C809 C279 1.259 . S
C815 C238 1.254 . S
C829 C138 1.407 . S
C835 C109 1.389 . S
C849 C181 1.026 . S
C855 C289 1.055 . S
C869 C261 0.429 . S
C875 C2 0.402 . S
C889 C42 0.459 . S
C895 C281 0.385 . S
C909 C248 1.107 . S
C915 C29 1.134 . S
C929 C141 0.387 . S
C935 C102 0.453 . S
C949 C69 1.128 . S
C955 C208 1.112 . S
C969 C258 1.401 . S
C975 C269 1.391 . S
C989 C149 1.052 . S
C995 C241 1.060 . S
C1009 C122 1.033 . S
C1015 C148 1.039 . S
C1029 C99 1.256 . S
C1035 C278 1.257 . S
C1049 C242 1.030 . S
C1055 C308 1.041 . S
C1069 C302 0.421 . S
C1075 C161 0.406 . S
C1089 C28 1.108 . S
C1095 C189 1.132 . S
C1109 C168 1.385 . S
C1115 C139 1.398 . S
C1129 C179 1.256 . S
C1135 C218 1.262 . S
C1149 C309 1.059 . S
C1155 C121 1.029 . S
C1169 C262 0.399 . S
C1175 C301 0.430 . S
C1189 C229 1.134 . S
C1195 C68 1.106 . S
C1209 C201 0.948 . S
C1215 C299 0.952 . S
C1229 C202 0.956 . S
C1235 C318 0.955 . S
C1249 C82 0.925 . S
C1255 C298 0.954 . S
C1269 C319 0.954 . S
C1275 C81 0.955 . S
