# Generated by pormake.
# Topology yfb, (5)-cn, num edge types: 1
# Building blocks:
#     Node 0, Type 0, BuildingBlock: BEQFEK_clean_sbu_0, # of connection points: 5
#     Node 1, Type 0, BuildingBlock: BEQFEK_clean_sbu_0, # of connection points: 5
#     Node 2, Type 0, BuildingBlock: BEQFEK_clean_sbu_0, # of connection points: 5
#     Node 3, Type 0, BuildingBlock: BEQFEK_clean_sbu_0, # of connection points: 5
#     Node 4, Type 0, BuildingBlock: BEQFEK_clean_sbu_0, # of connection points: 5
#     Node 5, Type 0, BuildingBlock: BEQFEK_clean_sbu_0, # of connection points: 5
#     Node 6, Type 0, BuildingBlock: BEQFEK_clean_sbu_0, # of connection points: 5
#     Node 7, Type 0, BuildingBlock: BEQFEK_clean_sbu_0, # of connection points: 5
#     Node 8, Type 0, BuildingBlock: BEQFEK_clean_sbu_0, # of connection points: 5
#     Node 9, Type 0, BuildingBlock: BEQFEK_clean_sbu_0, # of connection points: 5
#     Node 10, Type 0, BuildingBlock: BEQFEK_clean_sbu_0, # of connection points: 5
#     Node 11, Type 0, BuildingBlock: BEQFEK_clean_sbu_0, # of connection points: 5
#     Node 12, Type 0, BuildingBlock: BEQFEK_clean_sbu_0, # of connection points: 5
#     Node 13, Type 0, BuildingBlock: BEQFEK_clean_sbu_0, # of connection points: 5
#     Node 14, Type 0, BuildingBlock: BEQFEK_clean_sbu_0, # of connection points: 5
#     Node 15, Type 0, BuildingBlock: BEQFEK_clean_sbu_0, # of connection points: 5
#     Edge 16, Type (0, 0), BuildingBlock: AJUNOK_clean_linker_0, # of connection points: 2
#     Edge 17, Type (0, 0), BuildingBlock: AJUNOK_clean_linker_0, # of connection points: 2
#     Edge 18, Type (0, 0), BuildingBlock: AJUNOK_clean_linker_0, # of connection points: 2
#     Edge 19, Type (0, 0), BuildingBlock: AJUNOK_clean_linker_0, # of connection points: 2
#     Edge 20, Type (0, 0), BuildingBlock: AJUNOK_clean_linker_0, # of connection points: 2
#     Edge 21, Type (0, 0), BuildingBlock: AJUNOK_clean_linker_0, # of connection points: 2
#     Edge 22, Type (0, 0), BuildingBlock: AJUNOK_clean_linker_0, # of connection points: 2
#     Edge 23, Type (0, 0), BuildingBlock: AJUNOK_clean_linker_0, # of connection points: 2
#     Edge 24, Type (0, 0), BuildingBlock: AJUNOK_clean_linker_0, # of connection points: 2
#     Edge 25, Type (0, 0), BuildingBlock: AJUNOK_clean_linker_0, # of connection points: 2
#     Edge 26, Type (0, 0), BuildingBlock: AJUNOK_clean_linker_0, # of connection points: 2
#     Edge 27, Type (0, 0), BuildingBlock: AJUNOK_clean_linker_0, # of connection points: 2
#     Edge 28, Type (0, 0), BuildingBlock: AJUNOK_clean_linker_0, # of connection points: 2
#     Edge 29, Type (0, 0), BuildingBlock: AJUNOK_clean_linker_0, # of connection points: 2
#     Edge 30, Type (0, 0), BuildingBlock: AJUNOK_clean_linker_0, # of connection points: 2
#     Edge 31, Type (0, 0), BuildingBlock: AJUNOK_clean_linker_0, # of connection points: 2
#     Edge 32, Type (0, 0), BuildingBlock: AJUNOK_clean_linker_0, # of connection points: 2
#     Edge 33, Type (0, 0), BuildingBlock: AJUNOK_clean_linker_0, # of connection points: 2
#     Edge 34, Type (0, 0), BuildingBlock: AJUNOK_clean_linker_0, # of connection points: 2
#     Edge 35, Type (0, 0), BuildingBlock: AJUNOK_clean_linker_0, # of connection points: 2
#     Edge 36, Type (0, 0), BuildingBlock: AJUNOK_clean_linker_0, # of connection points: 2
#     Edge 37, Type (0, 0), BuildingBlock: AJUNOK_clean_linker_0, # of connection points: 2
#     Edge 38, Type (0, 0), BuildingBlock: AJUNOK_clean_linker_0, # of connection points: 2
#     Edge 39, Type (0, 0), BuildingBlock: AJUNOK_clean_linker_0, # of connection points: 2
#     Edge 40, Type (0, 0), BuildingBlock: AJUNOK_clean_linker_0, # of connection points: 2
#     Edge 41, Type (0, 0), BuildingBlock: AJUNOK_clean_linker_0, # of connection points: 2
#     Edge 42, Type (0, 0), BuildingBlock: AJUNOK_clean_linker_0, # of connection points: 2
#     Edge 43, Type (0, 0), BuildingBlock: AJUNOK_clean_linker_0, # of connection points: 2
#     Edge 44, Type (0, 0), BuildingBlock: AJUNOK_clean_linker_0, # of connection points: 2
#     Edge 45, Type (0, 0), BuildingBlock: AJUNOK_clean_linker_0, # of connection points: 2
#     Edge 46, Type (0, 0), BuildingBlock: AJUNOK_clean_linker_0, # of connection points: 2
#     Edge 47, Type (0, 0), BuildingBlock: AJUNOK_clean_linker_0, # of connection points: 2
#     Edge 48, Type (0, 0), BuildingBlock: AJUNOK_clean_linker_0, # of connection points: 2
#     Edge 49, Type (0, 0), BuildingBlock: AJUNOK_clean_linker_0, # of connection points: 2
#     Edge 50, Type (0, 0), BuildingBlock: AJUNOK_clean_linker_0, # of connection points: 2
#     Edge 51, Type (0, 0), BuildingBlock: AJUNOK_clean_linker_0, # of connection points: 2
#     Edge 52, Type (0, 0), BuildingBlock: AJUNOK_clean_linker_0, # of connection points: 2
#     Edge 53, Type (0, 0), BuildingBlock: AJUNOK_clean_linker_0, # of connection points: 2
#     Edge 54, Type (0, 0), BuildingBlock: AJUNOK_clean_linker_0, # of connection points: 2
#     Edge 55, Type (0, 0), BuildingBlock: AJUNOK_clean_linker_0, # of connection points: 2
# Relax obj value: 0.646
# Max RMSD: 0.213
# Mean RMSD: 0.213
data_MOF--net-yfb--node1-BEQFEK_clean_sbu_0--edge1-AJUNOK_clean_linker_0
_symmetry_space_group_name_H-M    P1
_symmetry_Int_Tables_number       1
_symmetry_cell_setting            triclinic
loop_
_symmetry_equiv_pos_as_xyz
'x, y, z'
_cell_length_a     36.753114
_cell_length_b     36.741913
_cell_length_c     31.792094
_cell_angle_alpha  90.017688
_cell_angle_beta   90.099932
_cell_angle_gamma 90.034541
loop_
_atom_site_label
_atom_site_type_symbol
_atom_site_fract_x
_atom_site_fract_y
_atom_site_fract_z
_atom_type_partial_charge
Co0 Co 0.70192 0.13679 0.15207 0.0
Co1 Co 0.66886 0.07372 0.10056 0.0
C2 C 0.64247 0.15391 0.09634 0.0
O3 O 0.66222 0.16457 0.12659 0.0
O4 O 0.64378 0.12089 0.08425 0.0
C5 C 0.71251 0.19508 0.20995 0.0
O6 O 0.67679 0.19629 0.21048 0.0
C7 C 0.59911 0.03944 0.08366 0.0
C8 C 0.61203 0.996 0.03823 0.0
C9 C 0.58314 0.01358 0.0576 0.0
N10 N 0.63556 0.0372 0.07997 0.0
N11 N 0.64314 0.01078 0.05316 0.0
C12 C 0.58025 0.06973 0.10634 0.0
H13 H 0.57376 0.09167 0.08353 0.0
H14 H 0.59814 0.081 0.13132 0.0
H15 H 0.55433 0.06047 0.12042 0.0
C16 C 0.69929 0.08557 0.22068 0.0
N17 N 0.687 0.09556 0.1825 0.0
N18 N 0.67982 0.06646 0.15995 0.0
C19 C 0.69037 0.03689 0.18242 0.0
C20 C 0.70314 0.04803 0.22197 0.0
C21 C 0.71429 0.11177 0.25233 0.0
H22 H 0.74163 0.12094 0.24215 0.0
H23 H 0.69597 0.13554 0.25496 0.0
H24 H 0.71672 0.09919 0.28385 0.0
O25 O 0.73751 0.12178 0.10721 0.0
O26 O 0.71566 0.07559 0.06928 0.0
H27 H 0.69935 0.97911 0.18842 0.0
H28 H 0.66974 0.99286 0.14531 0.0
C29 C 0.69449 0.99986 0.16365 0.0
H30 H 0.71787 1.00004 0.1416 0.0
H31 H 0.66938 1.00428 0.04317 0.0
O32 O 0.72829 0.17088 0.18811 0.0
C33 C 0.74082 0.09854 0.07752 0.0
Co34 Co 0.38098 0.70444 0.15314 0.0
Co35 Co 0.44463 0.67261 0.10162 0.0
C36 C 0.36501 0.64461 0.09742 0.0
O37 O 0.35393 0.66434 0.12743 0.0
O38 O 0.39802 0.64643 0.08549 0.0
C39 C 0.32214 0.71394 0.21059 0.0
O40 O 0.32106 0.6782 0.21058 0.0
C41 C 0.4804 0.60372 0.08445 0.0
C42 C 0.51828 0.61704 1.03304 0.0
C43 C 0.50343 0.58794 0.05498 0.0
N44 N 0.4813 0.64019 0.07985 0.0
N45 N 0.50453 0.648 0.04948 0.0
C46 C 0.4537 0.58436 0.11201 0.0
H47 H 0.43923 0.6039 0.13268 0.0
H48 H 0.46795 0.56409 0.13189 0.0
H49 H 0.43373 0.56955 0.09212 0.0
C50 C 0.43206 0.70115 0.22223 0.0
N51 N 0.42251 0.68995 0.18346 0.0
N52 N 0.45183 0.68309 0.16125 0.0
C53 C 0.48118 0.69278 0.18472 0.0
C54 C 0.46961 0.70448 0.22448 0.0
C55 C 0.40546 0.71515 0.25392 0.0
H56 H 0.3961 0.74261 0.24439 0.0
H57 H 0.38182 0.69655 0.25557 0.0
H58 H 0.41762 0.71694 0.28572 0.0
O59 O 0.39513 0.74055 0.10845 0.0
O60 O 0.44161 0.71966 0.07058 0.0
H61 H 0.52098 0.7241 0.15222 0.0
H62 H 0.53927 0.69491 0.19257 0.0
C63 C 0.5186 0.69691 0.16716 0.0
H64 H 0.52361 0.67592 0.14276 0.0
H65 H 0.50902 0.67419 0.03791 0.0
O66 O 0.34649 0.73009 0.18935 0.0
C67 C 0.41823 0.74439 0.07877 0.0
Co68 Co 0.81254 0.37719 0.15509 0.0
Co69 Co 0.84638 0.44129 0.10609 0.0
C70 C 0.87177 0.36093 0.09927 0.0
O71 O 0.85241 0.34962 0.12945 0.0
O72 O 0.87042 0.39421 0.08828 0.0
C73 C 0.80181 0.31807 0.21135 0.0
O74 O 0.83753 0.31652 0.21155 0.0
C75 C 0.91698 0.47287 0.08741 0.0
C76 C 0.90475 0.52345 0.05306 0.0
C77 C 0.93335 0.50129 0.06575 0.0
N78 N 0.88063 0.47754 0.087 0.0
N79 N 0.87347 0.50806 0.0666 0.0
C80 C 0.93565 0.442 0.10926 0.0
H81 H 0.91873 0.43201 0.13576 0.0
H82 H 0.96274 0.4506 0.12117 0.0
H83 H 0.93962 0.41931 0.08669 0.0
C84 C 0.81472 0.42722 0.22527 0.0
N85 N 0.82716 0.41781 0.18697 0.0
N86 N 0.83536 0.44723 0.16554 0.0
C87 C 0.82559 0.47655 0.18887 0.0
C88 C 0.81214 0.46483 0.22781 0.0
C89 C 0.79847 0.40075 0.25572 0.0
H90 H 0.7711 0.39246 0.24453 0.0
H91 H 0.81617 0.37652 0.2582 0.0
H92 H 0.79574 0.41267 0.28754 0.0
O93 O 0.77754 0.3931 0.10981 0.0
O94 O 0.79971 0.44055 0.07433 0.0
H95 H 0.80181 0.51481 0.14655 0.0
H96 H 0.81619 0.53421 0.19631 0.0
C97 C 0.82307 0.51419 0.17139 0.0
H98 H 0.84931 0.52163 0.15647 0.0
H99 H 0.84727 0.5178 0.06079 0.0
O100 O 0.78596 0.34255 0.18998 0.0
C101 C 0.77461 0.41712 0.08089 0.0
Co102 Co 0.13939 0.81225 0.15489 0.0
Co103 Co 0.07638 0.84542 0.1034 0.0
C104 C 0.15644 0.87182 0.09952 0.0
O105 O 0.16714 0.85197 0.1296 0.0
O106 O 0.12351 0.87032 0.0872 0.0
C107 C 0.19816 0.80208 0.21201 0.0
O108 O 0.19968 0.83781 0.21182 0.0
C109 C 0.04452 0.91556 0.08405 0.0
C110 C 0.99841 0.90301 0.04209 0.0
C111 C 0.01859 0.93175 0.05831 0.0
N112 N 0.04052 0.87914 0.08236 0.0
N113 N 0.01263 0.87179 0.05745 0.0
C114 C 0.07237 0.93432 0.11079 0.0
H115 H 0.07823 0.9178 0.13924 0.0
H116 H 0.06287 0.96185 0.12006 0.0
H117 H 0.09806 0.93723 0.0929 0.0
C118 C 0.08826 0.81443 0.22328 0.0
N119 N 0.09825 0.8272 0.18535 0.0
N120 N 0.06917 0.83447 0.16279 0.0
C121 C 0.03962 0.82348 0.18494 0.0
C122 C 0.05075 0.81031 0.2243 0.0
C123 C 0.11446 0.79895 0.25463 0.0
H124 H 0.12323 0.77156 0.24414 0.0
H125 H 0.13847 0.81699 0.25732 0.0
H126 H 0.10203 0.79644 0.2862 0.0
O127 O 0.12419 0.77664 0.11 0.0
O128 O 0.07804 0.79862 0.0721 0.0
H129 H 1.00318 0.79596 0.14349 0.0
H130 H 0.98191 0.81392 0.1904 0.0
C131 C 1.00271 0.81917 0.16585 0.0
H132 H 0.99561 0.844 0.14777 0.0
H133 H 1.00429 0.84552 0.04948 0.0
O134 O 0.17368 0.78604 0.19077 0.0
C135 C 0.10087 0.77339 0.08033 0.0
Co136 Co 0.70194 0.37736 0.41777 0.0
Co137 Co 0.6705 0.44037 0.47006 0.0
C138 C 0.64352 0.36028 0.47426 0.0
O139 O 0.6624 0.34973 0.44336 0.0
O140 O 0.64575 0.39308 0.487 0.0
C141 C 0.71111 0.31926 0.35972 0.0
O142 O 0.67539 0.31777 0.36036 0.0
C143 C 0.60074 0.47259 0.49076 0.0
C144 C 0.61411 0.52179 0.52723 0.0
C145 C 0.58504 0.50054 0.51383 0.0
N146 N 0.63716 0.47664 0.49103 0.0
N147 N 0.64502 0.50634 0.51271 0.0
C148 C 0.58135 0.44275 0.46777 0.0
H149 H 0.59797 0.43322 0.44081 0.0
H150 H 0.55441 0.45224 0.45638 0.0
H151 H 0.57698 0.4195 0.48943 0.0
C152 C 0.69865 0.42852 0.34921 0.0
N153 N 0.68688 0.41861 0.38761 0.0
N154 N 0.68053 0.44771 0.41042 0.0
C155 C 0.69119 0.4772 0.38788 0.0
C156 C 0.70302 0.46601 0.34803 0.0
C157 C 0.7128 0.40218 0.31723 0.0
H158 H 0.74029 0.39286 0.32673 0.0
H159 H 0.69424 0.37854 0.31505 0.0
H160 H 0.71475 0.4146 0.28559 0.0
O161 O 0.7383 0.3921 0.46212 0.0
O162 O 0.71788 0.43864 0.50037 0.0
H163 H 0.7202 0.51356 0.428 0.0
H164 H 0.70078 0.53488 0.38186 0.0
C165 C 0.69627 0.51411 0.40667 0.0
H166 H 0.67208 0.52135 0.42575 0.0
H167 H 0.67143 0.51542 0.51872 0.0
O168 O 0.72744 0.34332 0.38127 0.0
C169 C 0.74259 0.41538 0.49164 0.0
Co170 Co 0.13945 0.70064 0.4162 0.0
Co171 Co 0.0758 0.66705 0.46596 0.0
C172 C 0.15581 0.64076 0.47171 0.0
O173 O 0.16669 0.66082 0.44194 0.0
O174 O 0.12272 0.64193 0.48349 0.0
C175 C 0.19841 0.70999 0.35966 0.0
O176 O 0.19938 0.67424 0.35993 0.0
C177 C 0.04109 0.59737 0.48211 0.0
C178 C 0.99724 0.61051 0.52683 0.0
C179 C 0.01491 0.58152 0.50775 0.0
N180 N 0.03893 0.63385 0.48577 0.0
N181 N 0.01227 0.64156 0.51215 0.0
C182 C 0.07155 0.57837 0.45991 0.0
H183 H 0.09306 0.57152 0.48313 0.0
H184 H 0.08334 0.59631 0.43538 0.0
H185 H 0.06225 0.55263 0.44534 0.0
C186 C 0.08938 0.69771 0.34615 0.0
N187 N 0.09878 0.68582 0.38471 0.0
N188 N 0.0694 0.67794 0.40634 0.0
C189 C 0.04009 0.68751 0.3828 0.0
C190 C 0.05179 0.70032 0.34355 0.0
C191 C 0.11594 0.71334 0.31537 0.0
H192 H 0.1247 0.74066 0.3262 0.0
H193 H 0.13989 0.69525 0.31304 0.0
H194 H 0.10405 0.71602 0.28353 0.0
O195 O 0.12406 0.73616 0.46102 0.0
O196 O 0.07721 0.71392 0.49733 0.0
H197 H 1.0009 0.71498 0.42052 0.0
H198 H 0.98215 0.69308 0.37441 0.0
C199 C 1.00247 0.69052 0.40012 0.0
H200 H 0.99629 0.66637 0.41981 0.0
H201 H 1.00576 0.66784 0.52205 0.0
O202 O 0.17425 0.72644 0.38084 0.0
C203 C 0.10038 0.73914 0.49024 0.0
Co204 Co 0.80968 0.13752 0.41596 0.0
Co205 Co 0.84393 0.07446 0.46642 0.0
C206 C 0.87005 0.15473 0.47028 0.0
O207 O 0.84963 0.1653 0.44063 0.0
O208 O 0.869 0.12176 0.48257 0.0
C209 C 0.79906 0.19578 0.35866 0.0
O210 O 0.83479 0.19656 0.35791 0.0
C211 C 0.9142 0.04222 0.48574 0.0
C212 C 0.90124 0.99274 0.52183 0.0
C213 C 0.93018 0.01407 0.50832 0.0
N214 N 0.87777 0.03818 0.48643 0.0
N215 N 0.87018 0.00832 0.50788 0.0
C216 C 0.93328 0.07219 0.46275 0.0
H217 H 0.91634 0.08182 0.43603 0.0
H218 H 0.9601 0.0628 0.45097 0.0
H219 H 0.93786 0.09536 0.48452 0.0
C220 C 0.81278 0.08691 0.34648 0.0
N221 N 0.82442 0.09659 0.38505 0.0
N222 N 0.83253 0.06739 0.40695 0.0
C223 C 0.82337 0.03786 0.38352 0.0
C224 C 0.81062 0.04928 0.34408 0.0
C225 C 0.7973 0.11321 0.31527 0.0
H226 H 0.76999 0.12211 0.32583 0.0
H227 H 0.81544 0.13713 0.31271 0.0
H228 H 0.79471 0.10102 0.28358 0.0
O229 O 0.77487 0.12241 0.46149 0.0
O230 O 0.79741 0.07612 0.49859 0.0
H231 H 0.79841 0.99883 0.4238 0.0
H232 H 0.81649 0.97994 0.37556 0.0
C233 C 0.82115 1.00019 0.40094 0.0
H234 H 0.84663 0.99372 0.41814 0.0
H235 H 0.84384 0.99918 0.5141 0.0
O236 O 0.78306 0.17168 0.38045 0.0
C237 C 0.77209 0.09908 0.49114 0.0
Co238 Co 0.38036 0.80774 0.41894 0.0
Co239 Co 0.44221 0.84343 0.47028 0.0
C240 C 0.36159 0.86813 0.47263 0.0
O241 O 0.35162 0.84709 0.44329 0.0
O242 O 0.39448 0.86794 0.48528 0.0
C243 C 0.32291 0.7969 0.36077 0.0
O244 O 0.32228 0.83264 0.3601 0.0
C245 C 0.47301 0.91417 0.48971 0.0
C246 C 0.51916 0.90229 0.53185 0.0
C247 C 0.49867 0.93073 0.51555 0.0
N248 N 0.47746 0.87781 0.49144 0.0
N249 N 0.50538 0.87087 0.51645 0.0
C250 C 0.44505 0.93253 0.4628 0.0
H251 H 0.43954 0.91591 0.43431 0.0
H252 H 0.45425 0.96019 0.45359 0.0
H253 H 0.41923 0.93509 0.48053 0.0
C254 C 0.43153 0.81186 0.35036 0.0
N255 N 0.42129 0.82355 0.38865 0.0
N256 N 0.45016 0.83203 0.41101 0.0
C257 C 0.48001 0.82289 0.38825 0.0
C258 C 0.46916 0.80977 0.34873 0.0
C259 C 0.40578 0.79609 0.31871 0.0
H260 H 0.39705 0.76867 0.32916 0.0
H261 H 0.38173 0.81398 0.31562 0.0
H262 H 0.41849 0.79369 0.2873 0.0
O263 O 0.39569 0.77301 0.46465 0.0
O264 O 0.4408 0.79704 0.50259 0.0
H265 H 0.51878 0.79692 0.42809 0.0
H266 H 0.53812 0.8174 0.38147 0.0
C267 C 0.51739 0.82065 0.40656 0.0
H268 H 0.52311 0.84546 0.42535 0.0
H269 H 0.51404 0.84472 0.52444 0.0
O270 O 0.3468 0.78079 0.38283 0.0
C271 C 0.41869 0.77104 0.49477 0.0
Co272 Co 0.31235 0.87808 0.91669 0.0
Co273 Co 0.3452 0.94266 0.96594 0.0
C274 C 0.37283 0.86311 0.97199 0.0
O275 O 0.3529 0.85148 0.94237 0.0
O276 O 0.37127 0.89638 0.98304 0.0
C277 C 0.30275 0.81852 0.86047 0.0
O278 O 0.33849 0.81738 0.86063 0.0
C279 C 0.41404 0.97869 0.98235 0.0
C280 C 0.40048 0.0183 1.03197 0.0
C281 C 0.42966 1.0026 1.01105 0.0
N282 N 0.37756 0.9799 0.98643 0.0
N283 N 0.3696 1.00418 1.01567 0.0
C284 C 0.43348 0.95095 0.95629 0.0
H285 H 0.41423 0.93679 0.9349 0.0
H286 H 0.45503 0.96416 0.93731 0.0
H287 H 0.44674 0.93078 0.97731 0.0
C288 C 0.31348 0.92838 0.84673 0.0
N289 N 0.32602 0.91919 0.88508 0.0
N290 N 0.33388 0.94875 0.90651 0.0
C291 C 0.32375 0.9779 0.88308 0.0
C292 C 0.31045 0.96595 0.84409 0.0
C293 C 0.29767 0.90163 0.81623 0.0
H294 H 0.27046 0.89287 0.82734 0.0
H295 H 0.31576 0.87767 0.81384 0.0
H296 H 0.29474 0.91349 0.7844 0.0
O297 O 0.27699 0.89279 0.96192 0.0
O298 O 0.29875 0.94023 0.99774 0.0
H299 H 0.2973 0.01665 0.92245 0.0
H300 H 0.31642 0.03571 0.8749 0.0
C301 C 0.32069 0.01555 0.90044 0.0
H302 H 0.34562 0.02235 0.91855 0.0
H303 H 0.34334 0.00914 1.02669 0.0
O304 O 0.28652 0.84291 0.88155 0.0
C305 C 0.27396 0.91652 0.99111 0.0
Co306 Co 0.63798 0.31406 0.9183 0.0
Co307 Co 0.57525 0.34754 0.96966 0.0
C308 C 0.6554 0.37372 0.97383 0.0
O309 O 0.66579 0.35352 0.94395 0.0
O310 O 0.62247 0.37268 0.9862 0.0
C311 C 0.69647 0.30407 0.86112 0.0
O312 O 0.69752 0.33981 0.86094 0.0
C313 C 0.54088 0.41749 0.98534 0.0
C314 C 0.49775 0.40509 1.03126 0.0
C315 C 0.51514 0.43377 1.0112 0.0
N316 N 0.53876 0.38106 0.9898 0.0
N317 N 0.51252 0.3738 1.01692 0.0
C318 C 0.57095 0.43612 0.96204 0.0
H319 H 0.58242 0.41773 0.93773 0.0
H320 H 0.56136 0.46154 0.94701 0.0
H321 H 0.59281 0.44349 0.98463 0.0
C322 C 0.58701 0.31666 0.84964 0.0
N323 N 0.59705 0.32932 0.88766 0.0
N324 N 0.56801 0.33649 0.9102 0.0
C325 C 0.53844 0.3255 0.88796 0.0
C326 C 0.54951 0.31247 0.84855 0.0
C327 C 0.61318 0.3014 0.8182 0.0
H328 H 0.62217 0.27404 0.82856 0.0
H329 H 0.63705 0.31962 0.8155 0.0
H330 H 0.60063 0.29887 0.78663 0.0
O331 O 0.62252 0.27831 0.96276 0.0
O332 O 0.57676 0.30054 1.00089 0.0
H333 H 0.50214 0.29787 0.92931 0.0
H334 H 0.48075 0.31576 0.88236 0.0
C335 C 0.50157 0.32107 0.90696 0.0
H336 H 0.4944 0.34589 0.92503 0.0
H337 H 0.50613 0.34768 1.02749 0.0
O338 O 0.67218 0.28793 0.88245 0.0
C339 C 0.59929 0.27509 0.99242 0.0
Co340 Co 0.20468 0.6363 0.91933 0.0
Co341 Co 0.17253 0.57357 0.97198 0.0
C342 C 0.14599 0.65371 0.97548 0.0
O343 O 0.16526 0.66436 0.9449 0.0
O344 O 0.14781 0.62081 0.98775 0.0
C345 C 0.21479 0.69439 0.86106 0.0
O346 O 0.17906 0.69553 0.86079 0.0
C347 C 0.10252 0.54237 0.99284 0.0
C348 C 0.11519 0.49641 1.03487 0.0
C349 C 0.08646 0.51675 1.01899 0.0
N350 N 0.1389 0.53807 0.99393 0.0
N351 N 0.14633 0.51028 1.0189 0.0
C352 C 0.0836 0.57027 0.96638 0.0
H353 H 0.09994 0.57626 0.93787 0.0
H354 H 0.05604 0.5607 0.95722 0.0
H355 H 0.08067 0.59588 0.98449 0.0
C356 C 0.20138 0.58448 0.85145 0.0
N357 N 0.18932 0.59474 0.88958 0.0
N358 N 0.18266 0.5658 0.91256 0.0
C359 C 0.19343 0.53612 0.89047 0.0
C360 C 0.20577 0.54699 0.8507 0.0
C361 C 0.21588 0.61053 0.81941 0.0
H362 H 0.24332 0.61982 0.82916 0.0
H363 H 0.19747 0.63425 0.81687 0.0
H364 H 0.21795 0.59775 0.78795 0.0
O365 O 0.24082 0.6216 0.96392 0.0
O366 O 0.21968 0.57562 1.00259 0.0
H367 H 0.22223 0.50016 0.93123 0.0
H368 H 0.20288 0.47837 0.88531 0.0
C369 C 0.19835 0.49942 0.90981 0.0
H370 H 0.1741 0.49244 0.92894 0.0
H371 H 0.17262 0.50176 1.02649 0.0
O372 O 0.23075 0.67017 0.88275 0.0
C373 C 0.24466 0.59856 0.99374 0.0
Co374 Co 0.87699 0.20305 0.91672 0.0
Co375 Co 0.94045 0.17034 0.96793 0.0
C376 C 0.86027 0.14366 0.97223 0.0
O377 O 0.84935 0.16303 0.9418 0.0
O378 O 0.89329 0.14546 0.98423 0.0
C379 C 0.81874 0.21417 0.85864 0.0
O380 O 0.81668 0.17846 0.85818 0.0
C381 C 0.97266 0.10035 0.98861 0.0
C382 C 0.02241 0.11382 1.02406 0.0
C383 C 1.00094 0.0847 1.01127 0.0
N384 N 0.97676 0.1368 0.98855 0.0
N385 N 1.00677 0.14469 1.00963 0.0
C386 C 0.94254 0.08089 0.96621 0.0
H387 H 0.93276 0.09736 0.93919 0.0
H388 H 0.95182 0.05385 0.95495 0.0
H389 H 0.91952 0.07671 0.98823 0.0
C390 C 0.92808 0.20034 0.84774 0.0
N391 N 0.91829 0.18859 0.88619 0.0
N392 N 0.94747 0.18107 0.90845 0.0
C393 C 0.97701 0.19066 0.8854 0.0
C394 C 0.96569 0.20313 0.84583 0.0
C395 C 0.90184 0.21558 0.81628 0.0
H396 H 0.89297 0.24299 0.82659 0.0
H397 H 0.87791 0.19743 0.81376 0.0
H398 H 0.91413 0.21798 0.78465 0.0
O399 O 0.89178 0.23843 0.96196 0.0
O400 O 0.93858 0.21726 0.99932 0.0
H401 H 0.0151 0.21646 0.92633 0.0
H402 H 0.03482 0.19885 0.8783 0.0
C403 C 0.01445 0.19371 0.90336 0.0
H404 H 0.02133 0.16836 0.92056 0.0
H405 H 0.016 0.17112 1.01526 0.0
O406 O 0.84301 0.22956 0.8808 0.0
C407 C 0.91517 0.24207 0.99148 0.0
Co408 Co 0.3114 0.63698 0.65608 0.0
Co409 Co 0.34577 0.57351 0.60652 0.0
C410 C 0.37205 0.6537 0.60207 0.0
O411 O 0.35144 0.6648 0.63124 0.0
O412 O 0.37105 0.62049 0.59074 0.0
C413 C 0.30031 0.69552 0.71321 0.0
O414 O 0.33603 0.69665 0.71425 0.0
C415 C 0.41594 0.54183 0.58763 0.0
C416 C 0.40357 0.49638 0.54468 0.0
C417 C 0.4322 0.51639 0.5614 0.0
N418 N 0.37955 0.53773 0.58576 0.0
N419 N 0.37231 0.51023 0.56026 0.0
C420 C 0.43461 0.56943 0.61479 0.0
H421 H 0.41796 0.57508 0.64316 0.0
H422 H 0.46207 0.55979 0.62416 0.0
H423 H 0.43769 0.59528 0.59717 0.0
C424 C 0.31471 0.58659 0.72605 0.0
N425 N 0.32615 0.59604 0.68738 0.0
N426 N 0.33462 0.5667 0.6659 0.0
C427 C 0.32595 0.5373 0.68972 0.0
C428 C 0.31311 0.54895 0.72896 0.0
C429 C 0.29899 0.61299 0.75694 0.0
H430 H 0.27161 0.6216 0.74616 0.0
H431 H 0.31694 0.63707 0.75936 0.0
H432 H 0.2965 0.60102 0.78873 0.0
O433 O 0.27651 0.62182 0.61039 0.0
O434 O 0.29933 0.57519 0.57421 0.0
H435 H 0.29867 0.49636 0.65418 0.0
H436 H 0.32379 0.47926 0.69884 0.0
C437 C 0.32404 0.49942 0.67283 0.0
H438 H 0.34742 0.4943 0.65161 0.0
H439 H 0.34608 0.50203 0.55192 0.0
O440 O 0.28463 0.6712 0.69135 0.0
C441 C 0.27402 0.5983 0.58089 0.0
Co442 Co 0.879 0.3122 0.65198 0.0
Co443 Co 0.94302 0.34428 0.60149 0.0
C444 C 0.86342 0.37202 0.59638 0.0
O445 O 0.85215 0.35258 0.62655 0.0
O446 O 0.89649 0.37015 0.58473 0.0
C447 C 0.82042 0.30282 0.70956 0.0
O448 O 0.81971 0.33857 0.71006 0.0
C449 C 0.97899 0.41299 0.58397 0.0
C450 C 0.01836 0.39883 0.53438 0.0
C451 C 1.00284 0.42828 0.55503 0.0
N452 N 0.98007 0.37646 0.58026 0.0
N453 N 1.00419 0.36815 0.55102 0.0
C454 C 0.95148 0.43276 0.61 0.0
H455 H 0.93717 0.41369 0.6314 0.0
H456 H 0.96491 0.4542 0.62902 0.0
H457 H 0.93143 0.4462 0.58898 0.0
C458 C 0.92995 0.31395 0.72131 0.0
N459 N 0.92043 0.32613 0.68291 0.0
N460 N 0.94978 0.33337 0.66094 0.0
C461 C 0.97909 0.32304 0.68404 0.0
C462 C 0.96748 0.31034 0.72338 0.0
C463 C 0.90338 0.29902 0.75252 0.0
H464 H 0.89392 0.27185 0.74197 0.0
H465 H 0.87984 0.31762 0.75513 0.0
H466 H 0.91566 0.29622 0.78418 0.0
O467 O 0.89301 0.27644 0.60672 0.0
O468 O 0.94014 0.29762 0.57008 0.0
H469 H 0.01688 0.29538 0.64458 0.0
H470 H 0.03688 0.31505 0.69139 0.0
C471 C 0.01642 0.31916 0.6661 0.0
H472 H 0.02329 0.34369 0.64735 0.0
H473 H 0.00906 0.34175 0.5403 0.0
O474 O 0.84433 0.2866 0.68776 0.0
C475 C 0.91636 0.27303 0.57722 0.0
Co476 Co 0.20244 0.87628 0.65206 0.0
Co477 Co 0.16966 0.93899 0.60005 0.0
C478 C 0.14291 0.8589 0.59689 0.0
O479 O 0.16255 0.84844 0.62728 0.0
O480 O 0.14464 0.89169 0.58414 0.0
C481 C 0.21182 0.81856 0.7105 0.0
O482 O 0.17609 0.8172 0.70986 0.0
C483 C 0.09966 0.97095 0.58039 0.0
C484 C 0.11221 0.01612 0.5372 0.0
C485 C 0.08347 0.99646 0.55412 0.0
N486 N 0.13608 0.97469 0.57837 0.0
N487 N 0.14344 1.00201 0.55271 0.0
C488 C 0.08094 0.9437 0.60787 0.0
H489 H 0.09759 0.93832 0.63637 0.0
H490 H 0.0535 0.95349 0.61704 0.0
H491 H 0.07784 0.91766 0.5906 0.0
C492 C 0.19932 0.92779 0.72056 0.0
N493 N 0.18766 0.91775 0.68211 0.0
N494 N 0.18044 0.94678 0.6595 0.0
C495 C 0.19039 0.97644 0.68227 0.0
C496 C 0.20265 0.96537 0.72203 0.0
C497 C 0.21399 0.90167 0.7525 0.0
H498 H 0.24137 0.89237 0.74266 0.0
H499 H 0.19554 0.87798 0.75504 0.0
H500 H 0.21629 0.91422 0.78405 0.0
O501 O 0.23809 0.89043 0.60672 0.0
O502 O 0.21642 0.93668 0.56884 0.0
H503 H 0.22018 0.01495 0.64597 0.0
H504 H 0.19496 0.03457 0.68904 0.0
C505 C 0.19432 0.01361 0.66387 0.0
H506 H 0.17162 0.01907 0.6417 0.0
H507 H 0.1697 0.01001 0.54434 0.0
O508 O 0.22819 0.84241 0.68872 0.0
C509 C 0.24134 0.91342 0.57675 0.0
Co510 Co 0.63884 0.20288 0.65603 0.0
Co511 Co 0.57461 0.16985 0.60629 0.0
C512 C 0.65477 0.14353 0.60018 0.0
O513 O 0.66623 0.1628 0.63046 0.0
O514 O 0.62155 0.14529 0.58905 0.0
C515 C 0.69766 0.2137 0.71324 0.0
O516 O 0.69932 0.17798 0.71367 0.0
C517 C 0.54264 0.09966 0.58607 0.0
C518 C 0.49287 0.11272 0.55049 0.0
C519 C 0.51454 0.08378 0.56329 0.0
N520 N 0.53827 0.13607 0.58617 0.0
N521 N 0.50824 0.14372 0.56502 0.0
C522 C 0.57295 0.08048 0.60838 0.0
H523 H 0.58271 0.09708 0.63532 0.0
H524 H 0.56386 0.05339 0.61973 0.0
H525 H 0.59593 0.07642 0.58629 0.0
C526 C 0.58856 0.20046 0.72598 0.0
N527 N 0.59789 0.18853 0.68744 0.0
N528 N 0.56843 0.18066 0.66581 0.0
C529 C 0.53917 0.19016 0.68935 0.0
C530 C 0.55096 0.20298 0.7286 0.0
C531 C 0.61515 0.21615 0.7568 0.0
H532 H 0.62385 0.24347 0.74595 0.0
H533 H 0.63912 0.19808 0.75922 0.0
H534 H 0.60328 0.21887 0.7886 0.0
O535 O 0.62358 0.23812 0.61075 0.0
O536 O 0.57605 0.21662 0.57481 0.0
H537 H 0.50021 0.21599 0.64961 0.0
H538 H 0.48135 0.19736 0.69756 0.0
C539 C 0.50146 0.19289 0.67206 0.0
H540 H 0.49471 0.1677 0.65444 0.0
H541 H 0.49888 0.17007 0.55931 0.0
O542 O 0.67336 0.22934 0.69136 0.0
C543 C 0.59976 0.24142 0.58164 0.0
C544 C 0.72139 0.02631 0.29353 0.0
C545 C 0.72995 0.03001 0.25056 0.0
C546 C 0.74881 0.0266 0.32463 0.0
C547 C 0.78576 0.03049 0.3138 0.0
H548 H 0.69325 0.02774 0.30348 0.0
H549 H 0.74072 0.0283 0.35732 0.0
S550 S 0.82279 0.03459 0.20564 0.0
N551 N 0.77828 0.03243 0.19879 0.0
N552 N 0.82958 0.0325 0.25698 0.0
C553 C 0.79479 0.02925 0.27087 0.0
C554 C 0.76693 0.02917 0.23927 0.0
C555 C 0.49109 0.79347 0.27676 0.0
C556 C 0.48807 0.78409 0.31959 0.0
C557 C 0.49092 0.76657 0.24507 0.0
C558 C 0.4879 0.72936 0.25515 0.0
H559 H 0.48888 0.82174 0.26743 0.0
H560 H 0.48865 0.77519 0.21258 0.0
S561 S 0.48614 0.69039 0.36255 0.0
N562 N 0.48744 0.73483 0.37032 0.0
N563 N 0.4876 0.68453 0.31104 0.0
C564 C 0.48988 0.71962 0.29786 0.0
C565 C 0.48987 0.74695 0.33005 0.0
C566 C 0.76631 0.48539 0.33051 0.0
C567 C 0.72935 0.48389 0.31884 0.0
C568 C 0.79409 0.48508 0.29996 0.0
C569 C 0.78586 0.48312 0.25672 0.0
H570 H 0.77388 0.48234 0.36328 0.0
H571 H 0.82199 0.48187 0.31037 0.0
S572 S 0.69349 0.48511 0.20994 0.0
N573 N 0.68619 0.486 0.2612 0.0
N574 N 0.73813 0.48493 0.20399 0.0
C575 C 0.74914 0.48629 0.24478 0.0
C576 C 0.72093 0.48682 0.27583 0.0
C577 C 0.02942 0.76256 0.32559 0.0
C578 C 0.0334 0.72583 0.31375 0.0
C579 C 0.02912 0.79057 0.29527 0.0
C580 C 0.0329 0.78283 0.25209 0.0
H581 H 0.03099 0.77002 0.35851 0.0
H582 H 0.03043 0.81853 0.306 0.0
S583 S 0.0378 0.69086 0.20461 0.0
N584 N 0.03563 0.68309 0.25573 0.0
N585 N 0.03558 0.7355 0.19899 0.0
C586 C 0.03222 0.74607 0.23976 0.0
C587 C 0.03231 0.7176 0.27057 0.0
C588 C 0.2928 0.9861 0.77172 0.0
C589 C 0.28417 0.98391 0.81481 0.0
C590 C 0.26534 0.98603 0.74067 0.0
C591 C 0.22828 0.98386 0.75166 0.0
H592 H 0.32085 0.98336 0.7618 0.0
H593 H 0.2733 0.98316 0.70804 0.0
S594 S 0.19131 0.98418 0.85994 0.0
N595 N 0.23588 0.98477 0.86668 0.0
N596 N 0.18451 0.98506 0.80856 0.0
C597 C 0.21938 0.98655 0.79454 0.0
C598 C 0.24728 0.98643 0.8261 0.0
C599 C 0.52778 0.29291 0.77745 0.0
C600 C 0.53169 0.28502 0.82059 0.0
C601 C 0.52826 0.26503 0.74695 0.0
C602 C 0.53254 0.22828 0.75857 0.0
H603 H 0.52888 0.32092 0.7669 0.0
H604 H 0.52972 0.27264 0.71407 0.0
S605 S 0.5373 0.19289 0.86749 0.0
N606 N 0.53477 0.23748 0.87339 0.0
N607 N 0.53514 0.18531 0.81631 0.0
C608 C 0.53156 0.21987 0.80169 0.0
C609 C 0.53129 0.2482 0.83268 0.0
C610 C 0.25175 0.52534 0.74851 0.0
C611 C 0.28862 0.53006 0.75941 0.0
C612 C 0.22435 0.52482 0.77952 0.0
C613 C 0.23288 0.52913 0.82246 0.0
H614 H 0.24362 0.52654 0.71577 0.0
H615 H 0.19619 0.52561 0.76947 0.0
S616 S 0.32564 0.53591 0.86761 0.0
N617 N 0.33243 0.53345 0.81633 0.0
N618 N 0.28118 0.53298 0.87435 0.0
C619 C 0.26986 0.5291 0.83389 0.0
C620 C 0.2977 0.52941 0.80238 0.0
C621 C 0.98758 0.26529 0.82669 0.0
C622 C 0.98435 0.22825 0.81586 0.0
C623 C 0.98812 0.29262 0.79554 0.0
C624 C 0.98529 0.28384 0.7525 0.0
H625 H 0.98523 0.27347 0.85932 0.0
H626 H 0.98618 0.32078 0.80537 0.0
S627 S 0.98278 0.19076 0.70775 0.0
N628 N 0.98393 0.18419 0.75915 0.0
N629 N 0.98447 0.23529 0.70083 0.0
C630 C 0.98677 0.24683 0.74134 0.0
C631 C 0.98643 0.21908 0.77301 0.0
C632 C 0.49573 0.01184 0.99303 0.0
C633 C 0.46868 1.0053 1.02338 0.0
C634 C 0.53273 0.01397 1.0043 0.0
C635 C 0.54401 0.00984 0.04636 0.0
H636 H 0.48823 0.01599 0.96043 0.0
H637 H 0.5526 0.01956 0.98001 0.0
S638 S 0.48438 0.98889 0.13711 0.0
N639 N 0.45605 0.99281 0.09697 0.0
N640 N 0.52546 0.99617 0.11788 0.0
C641 C 0.51735 1.00254 0.07683 0.0
C642 C 0.47972 1.00056 0.06543 0.0
C643 C 0.51563 0.48496 0.0635 0.0
C644 C 0.51133 0.47308 1.02168 0.0
C645 C 0.51328 0.52209 0.0741 0.0
C646 C 0.50629 0.54873 0.04332 0.0
H647 H 0.52151 0.46544 0.08812 0.0
H648 H 0.51766 0.53 0.10652 0.0
S649 S 0.48934 0.5314 0.92998 0.0
N650 N 0.49711 0.49062 0.94991 0.0
N651 N 0.49325 0.56027 0.96957 0.0
C652 C 0.5014 0.53708 1.0015 0.0
C653 C 0.50365 0.4993 0.99077 0.0
C654 C 0.02993 0.47953 1.02929 0.0
C655 C 0.0475 0.51348 1.03122 0.0
C656 C 0.99309 0.47578 0.04047 0.0
C657 C 0.97251 0.50575 0.05461 0.0
H658 H 0.0446 0.45579 1.01836 0.0
H659 H 0.98053 0.44929 0.03717 0.0
S660 S 1.00684 0.5998 0.06951 0.0
N661 N 0.04227 0.57707 0.05144 0.0
N662 N 0.97308 0.57015 0.07168 0.0
C663 C 0.98995 0.53972 0.05724 0.0
C664 C 0.02745 0.54353 0.04594 0.0
C665 C 0.97626 0.02448 0.03638 0.0
C666 C 1.006 0.04569 1.02284 0.0
C667 C 0.98057 0.98771 0.04768 0.0
C668 C 0.01487 0.97081 0.0465 0.0
H669 H 0.94948 0.03648 0.03898 0.0
H670 H 0.95695 0.97253 0.05801 0.0
S671 S 0.10088 0.0134 1.01011 0.0
N672 N 0.07062 0.04652 1.00728 0.0
N673 N 0.07862 0.97745 1.02768 0.0
C674 C 0.04473 0.99154 1.03248 0.0
C675 C 0.04034 0.02898 1.02107 0.0
C676 C 0.48844 0.47901 0.55029 0.0
C677 C 0.47122 0.51316 0.54945 0.0
C678 C 0.52519 0.47515 0.53886 0.0
C679 C 0.54605 0.50522 0.52554 0.0
H680 H 0.47351 0.45516 0.56045 0.0
H681 H 0.53744 0.44846 0.54119 0.0
S682 S 0.51278 0.5999 0.51367 0.0
N683 N 0.47713 0.57713 0.53114 0.0
N684 N 0.54621 0.56998 0.51053 0.0
C685 C 0.52902 0.53942 0.52411 0.0
C686 C 0.49159 0.54334 0.53563 0.0
C687 C 0.01225 0.49446 0.57275 0.0
C688 C 1.00587 0.46723 0.54248 0.0
C689 C 0.01465 0.53138 0.56129 0.0
C690 C 0.01101 0.54243 0.5191 0.0
H691 H 0.01608 0.48717 0.60545 0.0
H692 H 0.02005 0.55139 0.58556 0.0
S693 S 0.99087 0.48228 0.42836 0.0
N694 N 0.9942 0.45419 0.46875 0.0
N695 N 0.99811 0.52347 0.44746 0.0
C696 C 1.00397 0.51559 0.48867 0.0
C697 C 1.00168 0.47803 0.50028 0.0
C698 C 0.99083 0.03894 0.532 0.0
C699 C 0.96933 0.00906 0.51937 0.0
C700 C 0.02767 0.03462 0.54303 0.0
C701 C 0.04435 1.00021 0.5425 0.0
H702 H 0.97902 0.06583 0.53418 0.0
H703 H 0.04308 0.05835 0.55269 0.0
S704 S 1.00098 0.91374 0.50854 0.0
N705 N 0.96801 0.94414 0.50531 0.0
N706 N 0.0372 0.93613 0.52522 0.0
C707 C 0.02334 0.97021 0.52934 0.0
C708 C 0.98584 0.97459 0.5182 0.0
C709 C 0.53602 0.98714 0.52649 0.0
C710 C 0.50189 0.96985 0.52738 0.0
C711 C 0.53991 0.02392 0.53798 0.0
C712 C 0.5099 0.04476 0.55144 0.0
H713 H 0.55985 0.97224 0.51627 0.0
H714 H 0.56659 0.03622 0.53558 0.0
S715 S 0.41526 0.01142 0.56324 0.0
N716 N 0.43797 0.97575 0.54571 0.0
N717 N 0.44519 0.04485 0.56647 0.0
C718 C 0.47571 0.02768 0.55285 0.0
C719 C 0.47176 0.99023 0.54125 0.0
C720 C 0.60392 0.24564 0.06326 0.0
C721 C 0.60152 0.24218 1.01931 0.0
C722 C 0.61476 0.2161 0.08851 0.0
C723 C 0.62286 0.1818 0.07085 0.0
H724 H 0.59997 0.27196 0.07794 0.0
H725 H 0.61855 0.22069 0.1219 0.0
S726 S 0.61531 0.15765 0.95768 0.0
N727 N 0.60452 0.20124 0.95953 0.0
N728 N 0.62368 0.1455 1.00676 0.0
C729 C 0.61746 0.17736 1.02724 0.0
C730 C 0.6072 0.20763 1.00153 0.0
C731 C 0.27411 0.60404 0.06449 0.0
C732 C 0.27756 0.60162 1.02056 0.0
C733 C 0.30344 0.61556 0.0897 0.0
C734 C 0.33753 0.62433 0.07201 0.0
H735 H 0.24791 0.59958 0.07918 0.0
H736 H 0.29882 0.61933 0.12306 0.0
S737 S 0.36171 0.61694 0.9589 0.0
N738 N 0.31835 0.60528 0.96077 0.0
N739 N 0.37375 0.62571 1.00795 0.0
C740 C 0.34204 0.61891 1.02843 0.0
C741 C 0.31196 0.60797 1.00275 0.0
C742 C 0.9122 0.27089 0.06293 0.0
C743 C 0.91221 0.27465 1.0189 0.0
C744 C 0.90125 0.29977 0.08915 0.0
C745 C 0.89079 0.33373 0.07236 0.0
H746 H 0.91824 0.24476 0.07709 0.0
H747 H 0.89945 0.29494 0.1227 0.0
S748 S 0.89033 0.3585 0.95908 0.0
N749 N 0.90359 0.31557 0.9598 0.0
N750 N 0.88426 0.37005 1.00877 0.0
C751 C 0.89341 0.33853 1.0285 0.0
C752 C 0.90372 0.30892 1.00186 0.0
C753 C 0.20781 0.90503 1.00365 0.0
C754 C 0.24243 0.91344 1.01995 0.0
C755 C 0.17902 0.89481 1.03017 0.0
C756 C 0.18407 0.8915 0.07395 0.0
H757 H 0.20334 0.90492 0.96995 0.0
H758 H 0.15342 0.88694 1.01586 0.0
S759 S 0.26879 0.9133 0.13255 0.0
N760 N 0.27935 0.92071 0.0828 0.0
N761 N 0.22574 0.90036 0.13259 0.0
C762 C 0.21804 0.90178 0.0908 0.0
C763 C 0.24709 0.91303 0.06383 0.0
C764 C 0.62223 0.33672 0.54392 0.0
C765 C 0.62413 0.3325 0.49995 0.0
C766 C 0.61221 0.3076 0.57011 0.0
C767 C 0.60264 0.27343 0.55334 0.0
H768 H 0.63104 0.36188 0.55853 0.0
H769 H 0.6134 0.31142 0.60388 0.0
S770 S 0.59896 0.24935 0.44016 0.0
N771 N 0.61272 0.29216 0.44069 0.0
N772 N 0.59283 0.23792 0.48989 0.0
C773 C 0.60169 0.26965 0.50936 0.0
C774 C 0.6127 0.29904 0.48269 0.0
C775 C 0.17875 0.61909 0.54155 0.0
C776 C 0.18348 0.62144 0.49768 0.0
C777 C 0.20775 0.60949 0.5682 0.0
C778 C 0.24231 0.60083 0.55202 0.0
H779 H 0.15325 0.62727 0.55574 0.0
H780 H 0.20348 0.61031 0.60191 0.0
S781 S 0.26787 0.59873 0.43927 0.0
N782 N 0.22479 0.61152 0.43911 0.0
N783 N 0.27879 0.59238 0.48916 0.0
C784 C 0.24665 0.60034 0.5081 0.0
C785 C 0.21738 0.61092 0.48097 0.0
C786 C 0.89426 0.17775 0.53903 0.0
C787 C 0.89003 0.18259 0.49533 0.0
C788 C 0.90485 0.20673 0.56521 0.0
C789 C 0.9127 0.24135 0.5486 0.0
H790 H 0.88686 0.15215 0.5536 0.0
H791 H 0.90549 0.20241 0.59892 0.0
S792 S 0.90969 0.26739 0.43599 0.0
N793 N 0.89718 0.22419 0.43639 0.0
N794 N 0.91816 0.27815 0.4855 0.0
C795 C 0.91124 0.24586 0.50474 0.0
C796 C 0.89965 0.21662 0.47814 0.0
C797 C 0.33737 0.89233 0.5407 0.0
C798 C 0.3332 0.88789 0.49695 0.0
C799 C 0.3079 0.90264 0.56617 0.0
C800 C 0.27344 0.91003 0.54878 0.0
H801 H 0.36283 0.88528 0.55586 0.0
H802 H 0.31174 0.90344 0.59996 0.0
S803 S 0.24919 0.90651 0.4356 0.0
N804 N 0.29246 0.89443 0.43705 0.0
N805 N 0.23758 0.91498 0.48482 0.0
C806 C 0.26961 0.90842 0.50483 0.0
C807 C 0.29936 0.89707 0.47895 0.0
C808 C 0.41408 0.77321 1.00744 0.0
C809 C 0.41491 0.77699 0.05146 0.0
C810 C 0.40274 0.80209 0.98145 0.0
C811 C 0.39267 0.8361 0.99844 0.0
H812 H 0.41974 0.74703 0.99318 0.0
H813 H 0.40022 0.7972 0.94797 0.0
S814 S 0.39478 0.86105 0.11166 0.0
N815 N 0.40775 0.81804 0.1107 0.0
N816 N 0.38771 0.87257 0.06211 0.0
C817 C 0.39625 0.84096 0.04222 0.0
C818 C 0.40695 0.81133 0.06865 0.0
C819 C 0.7081 0.40699 0.06897 0.0
C820 C 0.74273 0.41465 0.05234 0.0
C821 C 0.67889 0.39705 0.04279 0.0
C822 C 0.68347 0.39331 0.99901 0.0
H823 H 0.70396 0.40718 0.10271 0.0
H824 H 0.6533 0.38968 0.05737 0.0
S825 S 0.76816 0.41289 0.93957 0.0
N826 N 0.77926 0.42058 0.98915 0.0
N827 N 0.72484 0.40086 0.93998 0.0
C828 C 0.7175 0.40285 0.98181 0.0
C829 C 0.747 0.41376 1.00844 0.0
C830 C 0.10743 0.74521 1.00918 0.0
C831 C 0.10355 0.74094 0.05286 0.0
C832 C 0.11881 0.71607 0.98371 0.0
C833 C 0.12604 0.68139 1.00087 0.0
H834 H 0.10423 0.77184 0.99502 0.0
H835 H 0.12369 0.72126 0.95066 0.0
S836 S 0.11406 0.65513 0.11289 0.0
N837 N 0.10399 0.69891 0.11167 0.0
N838 N 0.12404 0.6438 0.06397 0.0
C839 C 0.11906 0.67615 0.04406 0.0
C840 C 0.10826 0.70604 0.07002 0.0
C841 C 0.76917 0.10431 1.00631 0.0
C842 C 0.77331 0.10137 0.05014 0.0
C843 C 0.79825 0.11567 0.98074 0.0
C844 C 0.83275 0.12378 0.99794 0.0
H845 H 0.74267 0.10036 0.99204 0.0
H846 H 0.79315 0.1198 0.94751 0.0
S847 S 0.85862 0.11488 0.11052 0.0
N848 N 0.81506 0.10388 0.10924 0.0
N849 N 0.87 0.12397 0.06139 0.0
C850 C 0.83786 0.11786 0.04137 0.0
C851 C 0.80805 0.10708 0.06741 0.0
C852 C 0.40948 0.74522 0.56663 0.0
C853 C 0.41603 0.73949 0.5236 0.0
C854 C 0.39771 0.71662 0.59269 0.0
C855 C 0.39266 0.68107 0.57685 0.0
H856 H 0.41085 0.77247 0.57958 0.0
H857 H 0.39073 0.72289 0.62498 0.0
S858 S 0.41229 0.65113 0.46754 0.0
N859 N 0.4206 0.69531 0.46718 0.0
N860 N 0.39985 0.64125 0.51611 0.0
C861 C 0.4024 0.67451 0.53462 0.0
C862 C 0.41361 0.70381 0.50798 0.0
C863 C 0.77324 0.41332 0.56215 0.0
C864 C 0.77584 0.41249 0.51803 0.0
C865 C 0.80266 0.40253 0.58767 0.0
C866 C 0.83605 0.39141 0.57002 0.0
H867 H 0.74756 0.41986 0.57702 0.0
H868 H 0.79867 0.40126 0.62139 0.0
S869 S 0.85793 0.38891 0.45604 0.0
N870 N 0.81518 0.4026 0.45782 0.0
N871 N 0.87068 0.38351 0.50547 0.0
C872 C 0.83977 0.39329 0.52598 0.0
C873 C 0.8096 0.40346 0.50007 0.0
C874 C 0.11195 0.80554 0.50137 0.0
C875 C 0.10279 0.77136 0.51833 0.0
C876 C 0.12159 0.83493 0.5274 0.0
C877 C 0.12349 0.83096 0.57141 0.0
H878 H 0.11316 0.80918 0.46758 0.0
H879 H 0.13019 0.86008 0.51267 0.0
S880 S 0.09899 0.748 0.63169 0.0
N881 N 0.09311 0.73617 0.582 0.0
N882 N 0.11236 0.79093 0.63091 0.0
C883 C 0.11236 0.79752 0.58886 0.0
C884 C 0.10172 0.76785 0.56233 0.0
C885 C 0.71638 0.11504 0.58967 0.0
C886 C 0.68176 0.12398 0.57342 0.0
C887 C 0.74489 0.10378 0.56318 0.0
C888 C 0.74008 0.10184 0.51934 0.0
H889 H 0.722 0.11838 0.62291 0.0
H890 H 0.77152 0.09911 0.57679 0.0
S891 S 0.65419 0.11843 0.46109 0.0
N892 N 0.64369 0.12643 0.51071 0.0
N893 N 0.69752 0.10657 0.46117 0.0
C894 C 0.70519 0.10856 0.50296 0.0
C895 C 0.67595 0.11921 0.52992 0.0
C896 C 0.79517 0.25245 0.22744 0.0
C897 C 0.78003 0.28748 0.22712 0.0
C898 C 0.77271 0.22178 0.22712 0.0
C899 C 0.73457 0.2254 0.22645 0.0
H900 H 0.8242 0.24858 0.22368 0.0
H901 H 0.78531 0.19531 0.22349 0.0
S902 S 0.68275 0.31106 0.24099 0.0
N903 N 0.72566 0.32403 0.23766 0.0
N904 N 0.6832 0.26625 0.23693 0.0
C905 C 0.7195 0.26003 0.23322 0.0
C906 C 0.7424 0.29125 0.23346 0.0
C907 C 0.26389 0.79597 0.22802 0.0
C908 C 0.22899 0.78047 0.22761 0.0
C909 C 0.29475 0.77383 0.2277 0.0
C910 C 0.29153 0.73565 0.2269 0.0
H911 H 0.26749 0.82507 0.22439 0.0
H912 H 0.32109 0.78675 0.2242 0.0
S913 S 0.20635 0.68282 0.24079 0.0
N914 N 0.19298 0.72563 0.23768 0.0
N915 N 0.25114 0.68378 0.23694 0.0
C916 C 0.25703 0.72018 0.23346 0.0
C917 C 0.22559 0.74275 0.23371 0.0
C918 C 0.71704 0.25393 0.34188 0.0
C919 C 0.73253 0.28882 0.343 0.0
C920 C 0.7392 0.22309 0.34159 0.0
C921 C 0.77736 0.2264 0.34248 0.0
H922 H 0.68797 0.25024 0.34554 0.0
H923 H 0.72635 0.19667 0.34466 0.0
S924 S 0.83011 0.31181 0.33029 0.0
N925 N 0.7873 0.32508 0.33352 0.0
N926 N 0.82919 0.26695 0.33326 0.0
C927 C 0.7928 0.26098 0.3365 0.0
C928 C 0.77021 0.29238 0.33681 0.0
C929 C 0.29515 0.73717 0.34362 0.0
C930 C 0.29225 0.77538 0.34421 0.0
C931 C 0.26407 0.7153 0.34336 0.0
C932 C 0.22934 0.73113 0.34367 0.0
H933 H 0.32137 0.72408 0.34733 0.0
H934 H 0.26738 0.6862 0.34724 0.0
S935 S 0.20761 0.82891 0.32988 0.0
N936 N 0.2524 0.82756 0.3338 0.0
N937 N 0.19383 0.78623 0.33316 0.0
C938 C 0.22629 0.76884 0.33725 0.0
C939 C 0.25793 0.79113 0.33743 0.0
C940 C 0.29693 0.75272 0.84469 0.0
C941 C 0.28138 0.78759 0.84468 0.0
C942 C 0.27483 0.72179 0.84473 0.0
C943 C 0.23664 0.72495 0.84482 0.0
H944 H 0.32597 0.74921 0.84888 0.0
H945 H 0.28772 0.69549 0.8486 0.0
S946 S 0.18395 0.80998 0.82934 0.0
N947 N 0.22667 0.82346 0.83329 0.0
N948 N 0.18489 0.76519 0.83348 0.0
C949 C 0.22123 0.7594 0.83777 0.0
C950 C 0.24376 0.79089 0.83782 0.0
C951 C 0.75345 0.2216 0.84121 0.0
C952 C 0.78859 0.23649 0.84263 0.0
C953 C 0.72297 0.24425 0.84218 0.0
C954 C 0.72687 0.28232 0.84456 0.0
H955 H 0.74932 0.19249 0.84376 0.0
H956 H 0.69637 0.23173 0.84487 0.0
S957 S 0.813 0.33409 0.83371 0.0
N958 N 0.8256 0.29098 0.83491 0.0
N959 N 0.76818 0.33378 0.83733 0.0
C960 C 0.76165 0.2974 0.83903 0.0
C961 C 0.79267 0.27431 0.83792 0.0
C962 C 0.24008 0.72252 0.7291 0.0
C963 C 0.27824 0.726 0.72907 0.0
C964 C 0.21778 0.75326 0.72837 0.0
C965 C 0.23313 0.78822 0.72766 0.0
H966 H 0.2274 0.69605 0.72566 0.0
H967 H 0.18879 0.74945 0.72401 0.0
S968 S 0.33034 0.81164 0.74301 0.0
N969 N 0.3297 0.76678 0.73984 0.0
N970 N 0.28754 0.82472 0.73862 0.0
C971 C 0.27068 0.79194 0.73475 0.0
C972 C 0.29341 0.76065 0.73556 0.0
C973 C 0.79378 0.24308 0.72861 0.0
C974 C 0.79012 0.28119 0.72662 0.0
C975 C 0.76316 0.22061 0.72982 0.0
C976 C 0.72812 0.23572 0.72906 0.0
H977 H 0.82025 0.23042 0.72536 0.0
H978 H 0.76705 0.1915 0.72689 0.0
S979 S 0.70454 0.33335 0.7397 0.0
N980 N 0.7493 0.33283 0.73528 0.0
N981 N 0.6916 0.29034 0.73808 0.0
C982 C 0.72436 0.27351 0.73428 0.0
C983 C 0.75553 0.29643 0.73295 0.0
loop_
_geom_bond_atom_site_label_1
_geom_bond_atom_site_label_2
_geom_bond_distance
_geom_bond_site_symmetry_2
_ccdc_geom_bond_type
Co0 O3 1.970 . S
Co0 N17 1.989 . S
Co0 O25 1.967 . S
Co0 O32 1.920 . S
Co1 O4 1.966 . S
Co1 N10 2.022 . S
Co1 N18 1.993 . S
Co1 O26 1.941 . S
C2 O3 1.258 . S
C2 O4 1.263 . S
O3 Co0 1.970 . S
O3 C2 1.258 . S
O4 Co1 1.966 . S
O4 C2 1.263 . S
C5 O6 1.235 . S
C5 O32 1.289 . S
O6 C5 1.235 . S
C7 C9 1.400 1_545 S
C7 N10 1.351 . S
C7 C12 1.501 . S
C8 C9 1.387 . S
C8 N11 1.341 . S
C9 C7 1.400 1_565 S
C9 C8 1.387 . S
N10 Co1 2.022 . S
N10 C7 1.351 . S
N10 N11 1.365 1_545 S
N11 C8 1.341 . S
N11 N10 1.365 1_565 S
N11 H31 0.862 . S
C12 C7 1.501 . S
C12 H13 0.961 . S
C12 H14 0.961 . S
C12 H15 0.960 . S
H13 C12 0.961 . S
H14 C12 0.961 . S
H15 C12 0.960 . S
C16 N17 1.342 . S
C16 C20 1.401 . S
C16 C21 1.499 . S
N17 Co0 1.989 . S
N17 C16 1.342 . S
N17 N18 1.388 . S
N18 Co1 1.993 . S
N18 N17 1.388 . S
N18 C19 1.346 . S
C19 N18 1.346 . S
C19 C20 1.396 . S
C19 C29 1.510 . S
C20 C16 1.401 . S
C20 C19 1.396 . S
C21 C16 1.499 . S
C21 H22 0.959 . S
C21 H23 0.960 . S
C21 H24 0.961 . S
H22 C21 0.959 . S
H23 C21 0.960 . S
H24 C21 0.961 . S
O25 Co0 1.967 . S
O25 C33 1.258 . S
O26 Co1 1.941 . S
O26 C33 1.266 . S
H27 C29 0.959 . S
H28 C29 0.961 . S
C29 C19 1.510 . S
C29 H27 0.959 . S
C29 H28 0.961 . S
C29 H30 0.960 . S
H30 C29 0.960 . S
H31 N11 0.862 . S
O32 Co0 1.920 . S
O32 C5 1.289 . S
C33 O25 1.258 . S
C33 O26 1.266 . S
Co34 O37 1.970 . S
Co34 N51 1.989 . S
Co34 O59 1.967 . S
Co34 O66 1.920 . S
Co35 O38 1.966 . S
Co35 N44 2.022 . S
Co35 N52 1.993 . S
Co35 O60 1.941 . S
C36 O37 1.258 . S
C36 O38 1.263 . S
O37 Co34 1.970 . S
O37 C36 1.258 . S
O38 Co35 1.966 . S
O38 C36 1.263 . S
C39 O40 1.235 . S
C39 O66 1.289 . S
O40 C39 1.235 . S
C41 C43 1.400 . S
C41 N44 1.351 . S
C41 C46 1.501 . S
C42 C43 1.387 . S
C42 N45 1.341 . S
C43 C41 1.400 . S
C43 C42 1.387 . S
N44 Co35 2.022 . S
N44 C41 1.351 . S
N44 N45 1.365 . S
N45 C42 1.341 . S
N45 N44 1.365 . S
N45 H65 0.862 . S
C46 C41 1.501 . S
C46 H47 0.961 . S
C46 H48 0.961 . S
C46 H49 0.960 . S
H47 C46 0.961 . S
H48 C46 0.961 . S
H49 C46 0.960 . S
C50 N51 1.342 . S
C50 C54 1.401 . S
C50 C55 1.499 . S
N51 Co34 1.989 . S
N51 C50 1.342 . S
N51 N52 1.388 . S
N52 Co35 1.993 . S
N52 N51 1.388 . S
N52 C53 1.346 . S
C53 N52 1.346 . S
C53 C54 1.396 . S
C53 C63 1.510 . S
C54 C50 1.401 . S
C54 C53 1.396 . S
C55 C50 1.499 . S
C55 H56 0.959 . S
C55 H57 0.960 . S
C55 H58 0.961 . S
H56 C55 0.959 . S
H57 C55 0.960 . S
H58 C55 0.961 . S
O59 Co34 1.967 . S
O59 C67 1.258 . S
O60 Co35 1.941 . S
O60 C67 1.266 . S
H61 C63 0.959 . S
H62 C63 0.961 . S
C63 C53 1.510 . S
C63 H61 0.959 . S
C63 H62 0.961 . S
C63 H64 0.960 . S
H64 C63 0.960 . S
H65 N45 0.862 . S
O66 Co34 1.920 . S
O66 C39 1.289 . S
C67 O59 1.258 . S
C67 O60 1.266 . S
Co68 O71 1.970 . S
Co68 N85 1.989 . S
Co68 O93 1.967 . S
Co68 O100 1.920 . S
Co69 O72 1.966 . S
Co69 N78 2.022 . S
Co69 N86 1.993 . S
Co69 O94 1.941 . S
C70 O71 1.258 . S
C70 O72 1.263 . S
O71 Co68 1.970 . S
O71 C70 1.258 . S
O72 Co69 1.966 . S
O72 C70 1.263 . S
C73 O74 1.235 . S
C73 O100 1.289 . S
O74 C73 1.235 . S
C75 C77 1.400 . S
C75 N78 1.351 . S
C75 C80 1.501 . S
C76 C77 1.387 . S
C76 N79 1.341 . S
C77 C75 1.400 . S
C77 C76 1.387 . S
N78 Co69 2.022 . S
N78 C75 1.351 . S
N78 N79 1.365 . S
N79 C76 1.341 . S
N79 N78 1.365 . S
N79 H99 0.862 . S
C80 C75 1.501 . S
C80 H81 0.961 . S
C80 H82 0.961 . S
C80 H83 0.960 . S
H81 C80 0.961 . S
H82 C80 0.961 . S
H83 C80 0.960 . S
C84 N85 1.342 . S
C84 C88 1.401 . S
C84 C89 1.499 . S
N85 Co68 1.989 . S
N85 C84 1.342 . S
N85 N86 1.388 . S
N86 Co69 1.993 . S
N86 N85 1.388 . S
N86 C87 1.346 . S
C87 N86 1.346 . S
C87 C88 1.396 . S
C87 C97 1.510 . S
C88 C84 1.401 . S
C88 C87 1.396 . S
C89 C84 1.499 . S
C89 H90 0.959 . S
C89 H91 0.960 . S
C89 H92 0.961 . S
H90 C89 0.959 . S
H91 C89 0.960 . S
H92 C89 0.961 . S
O93 Co68 1.967 . S
O93 C101 1.258 . S
O94 Co69 1.941 . S
O94 C101 1.266 . S
H95 C97 0.959 . S
H96 C97 0.961 . S
C97 C87 1.510 . S
C97 H95 0.959 . S
C97 H96 0.961 . S
C97 H98 0.960 . S
H98 C97 0.960 . S
H99 N79 0.862 . S
O100 Co68 1.920 . S
O100 C73 1.289 . S
C101 O93 1.258 . S
C101 O94 1.266 . S
Co102 O105 1.970 . S
Co102 N119 1.989 . S
Co102 O127 1.967 . S
Co102 O134 1.920 . S
Co103 O106 1.966 . S
Co103 N112 2.022 . S
Co103 N120 1.993 . S
Co103 O128 1.941 . S
C104 O105 1.258 . S
C104 O106 1.263 . S
O105 Co102 1.970 . S
O105 C104 1.258 . S
O106 Co103 1.966 . S
O106 C104 1.263 . S
C107 O108 1.235 . S
C107 O134 1.289 . S
O108 C107 1.235 . S
C109 C111 1.400 1_455 S
C109 N112 1.351 . S
C109 C114 1.501 . S
C110 C111 1.387 . S
C110 N113 1.341 . S
C111 C109 1.400 1_655 S
C111 C110 1.387 . S
N112 Co103 2.022 . S
N112 C109 1.351 . S
N112 N113 1.365 1_455 S
N113 C110 1.341 . S
N113 N112 1.365 1_655 S
N113 H133 0.862 . S
C114 C109 1.501 . S
C114 H115 0.961 . S
C114 H116 0.961 . S
C114 H117 0.960 . S
H115 C114 0.961 . S
H116 C114 0.961 . S
H117 C114 0.960 . S
C118 N119 1.342 . S
C118 C122 1.401 . S
C118 C123 1.499 . S
N119 Co102 1.989 . S
N119 C118 1.342 . S
N119 N120 1.388 . S
N120 Co103 1.993 . S
N120 N119 1.388 . S
N120 C121 1.346 . S
C121 N120 1.346 . S
C121 C122 1.396 . S
C121 C131 1.510 . S
C122 C118 1.401 . S
C122 C121 1.396 . S
C123 C118 1.499 . S
C123 H124 0.959 . S
C123 H125 0.960 . S
C123 H126 0.961 . S
H124 C123 0.959 . S
H125 C123 0.960 . S
H126 C123 0.961 . S
O127 Co102 1.967 . S
O127 C135 1.258 . S
O128 Co103 1.941 . S
O128 C135 1.266 . S
H129 C131 0.959 . S
H130 C131 0.961 . S
C131 C121 1.510 . S
C131 H129 0.959 . S
C131 H130 0.961 . S
C131 H132 0.960 . S
H132 C131 0.960 . S
H133 N113 0.862 . S
O134 Co102 1.920 . S
O134 C107 1.289 . S
C135 O127 1.258 . S
C135 O128 1.266 . S
Co136 O139 1.970 . S
Co136 N153 1.989 . S
Co136 O161 1.967 . S
Co136 O168 1.920 . S
Co137 O140 1.966 . S
Co137 N146 2.022 . S
Co137 N154 1.993 . S
Co137 O162 1.941 . S
C138 O139 1.258 . S
C138 O140 1.263 . S
O139 Co136 1.970 . S
O139 C138 1.258 . S
O140 Co137 1.966 . S
O140 C138 1.263 . S
C141 O142 1.235 . S
C141 O168 1.289 . S
O142 C141 1.235 . S
C143 C145 1.400 . S
C143 N146 1.351 . S
C143 C148 1.501 . S
C144 C145 1.387 . S
C144 N147 1.341 . S
C145 C143 1.400 . S
C145 C144 1.387 . S
N146 Co137 2.022 . S
N146 C143 1.351 . S
N146 N147 1.365 . S
N147 C144 1.341 . S
N147 N146 1.365 . S
N147 H167 0.862 . S
C148 C143 1.501 . S
C148 H149 0.961 . S
C148 H150 0.961 . S
C148 H151 0.960 . S
H149 C148 0.961 . S
H150 C148 0.961 . S
H151 C148 0.960 . S
C152 N153 1.342 . S
C152 C156 1.401 . S
C152 C157 1.499 . S
N153 Co136 1.989 . S
N153 C152 1.342 . S
N153 N154 1.388 . S
N154 Co137 1.993 . S
N154 N153 1.388 . S
N154 C155 1.346 . S
C155 N154 1.346 . S
C155 C156 1.396 . S
C155 C165 1.510 . S
C156 C152 1.401 . S
C156 C155 1.396 . S
C157 C152 1.499 . S
C157 H158 0.959 . S
C157 H159 0.960 . S
C157 H160 0.961 . S
H158 C157 0.959 . S
H159 C157 0.960 . S
H160 C157 0.961 . S
O161 Co136 1.967 . S
O161 C169 1.258 . S
O162 Co137 1.941 . S
O162 C169 1.266 . S
H163 C165 0.959 . S
H164 C165 0.961 . S
C165 C155 1.510 . S
C165 H163 0.959 . S
C165 H164 0.961 . S
C165 H166 0.960 . S
H166 C165 0.960 . S
H167 N147 0.862 . S
O168 Co136 1.920 . S
O168 C141 1.289 . S
C169 O161 1.258 . S
C169 O162 1.266 . S
Co170 O173 1.970 . S
Co170 N187 1.989 . S
Co170 O195 1.967 . S
Co170 O202 1.920 . S
Co171 O174 1.966 . S
Co171 N180 2.022 . S
Co171 N188 1.993 . S
Co171 O196 1.941 . S
C172 O173 1.258 . S
C172 O174 1.263 . S
O173 Co170 1.970 . S
O173 C172 1.258 . S
O174 Co171 1.966 . S
O174 C172 1.263 . S
C175 O176 1.235 . S
C175 O202 1.289 . S
O176 C175 1.235 . S
C177 C179 1.400 1_455 S
C177 N180 1.351 . S
C177 C182 1.501 . S
C178 C179 1.387 . S
C178 N181 1.341 . S
C179 C177 1.400 1_655 S
C179 C178 1.387 . S
N180 Co171 2.022 . S
N180 C177 1.351 . S
N180 N181 1.365 1_455 S
N181 C178 1.341 . S
N181 N180 1.365 1_655 S
N181 H201 0.862 . S
C182 C177 1.501 . S
C182 H183 0.961 . S
C182 H184 0.961 . S
C182 H185 0.960 . S
H183 C182 0.961 . S
H184 C182 0.961 . S
H185 C182 0.960 . S
C186 N187 1.342 . S
C186 C190 1.401 . S
C186 C191 1.499 . S
N187 Co170 1.989 . S
N187 C186 1.342 . S
N187 N188 1.388 . S
N188 Co171 1.993 . S
N188 N187 1.388 . S
N188 C189 1.346 . S
C189 N188 1.346 . S
C189 C190 1.396 . S
C189 C199 1.510 . S
C190 C186 1.401 . S
C190 C189 1.396 . S
C191 C186 1.499 . S
C191 H192 0.959 . S
C191 H193 0.960 . S
C191 H194 0.961 . S
H192 C191 0.959 . S
H193 C191 0.960 . S
H194 C191 0.961 . S
O195 Co170 1.967 . S
O195 C203 1.258 . S
O196 Co171 1.941 . S
O196 C203 1.266 . S
H197 C199 0.959 . S
H198 C199 0.961 . S
C199 C189 1.510 . S
C199 H197 0.959 . S
C199 H198 0.961 . S
C199 H200 0.960 . S
H200 C199 0.960 . S
H201 N181 0.862 . S
O202 Co170 1.920 . S
O202 C175 1.289 . S
C203 O195 1.258 . S
C203 O196 1.266 . S
Co204 O207 1.970 . S
Co204 N221 1.989 . S
Co204 O229 1.967 . S
Co204 O236 1.920 . S
Co205 O208 1.966 . S
Co205 N214 2.022 . S
Co205 N222 1.993 . S
Co205 O230 1.941 . S
C206 O207 1.258 . S
C206 O208 1.263 . S
O207 Co204 1.970 . S
O207 C206 1.258 . S
O208 Co205 1.966 . S
O208 C206 1.263 . S
C209 O210 1.235 . S
C209 O236 1.289 . S
O210 C209 1.235 . S
C211 C213 1.400 1_545 S
C211 N214 1.351 . S
C211 C216 1.501 . S
C212 C213 1.387 . S
C212 N215 1.341 . S
C213 C211 1.400 1_565 S
C213 C212 1.387 . S
N214 Co205 2.022 . S
N214 C211 1.351 . S
N214 N215 1.365 1_545 S
N215 C212 1.341 . S
N215 N214 1.365 1_565 S
N215 H235 0.862 . S
C216 C211 1.501 . S
C216 H217 0.961 . S
C216 H218 0.961 . S
C216 H219 0.960 . S
H217 C216 0.961 . S
H218 C216 0.961 . S
H219 C216 0.960 . S
C220 N221 1.342 . S
C220 C224 1.401 . S
C220 C225 1.499 . S
N221 Co204 1.989 . S
N221 C220 1.342 . S
N221 N222 1.388 . S
N222 Co205 1.993 . S
N222 N221 1.388 . S
N222 C223 1.346 . S
C223 N222 1.346 . S
C223 C224 1.396 . S
C223 C233 1.510 . S
C224 C220 1.401 . S
C224 C223 1.396 . S
C225 C220 1.499 . S
C225 H226 0.959 . S
C225 H227 0.960 . S
C225 H228 0.961 . S
H226 C225 0.959 . S
H227 C225 0.960 . S
H228 C225 0.961 . S
O229 Co204 1.967 . S
O229 C237 1.258 . S
O230 Co205 1.941 . S
O230 C237 1.266 . S
H231 C233 0.959 . S
H232 C233 0.961 . S
C233 C223 1.510 . S
C233 H231 0.959 . S
C233 H232 0.961 . S
C233 H234 0.960 . S
H234 C233 0.960 . S
H235 N215 0.862 . S
O236 Co204 1.920 . S
O236 C209 1.289 . S
C237 O229 1.258 . S
C237 O230 1.266 . S
Co238 O241 1.970 . S
Co238 N255 1.989 . S
Co238 O263 1.967 . S
Co238 O270 1.920 . S
Co239 O242 1.966 . S
Co239 N248 2.022 . S
Co239 N256 1.993 . S
Co239 O264 1.941 . S
C240 O241 1.258 . S
C240 O242 1.263 . S
O241 Co238 1.970 . S
O241 C240 1.258 . S
O242 Co239 1.966 . S
O242 C240 1.263 . S
C243 O244 1.235 . S
C243 O270 1.289 . S
O244 C243 1.235 . S
C245 C247 1.400 . S
C245 N248 1.351 . S
C245 C250 1.501 . S
C246 C247 1.387 . S
C246 N249 1.341 . S
C247 C245 1.400 . S
C247 C246 1.387 . S
N248 Co239 2.022 . S
N248 C245 1.351 . S
N248 N249 1.365 . S
N249 C246 1.341 . S
N249 N248 1.365 . S
N249 H269 0.862 . S
C250 C245 1.501 . S
C250 H251 0.961 . S
C250 H252 0.961 . S
C250 H253 0.960 . S
H251 C250 0.961 . S
H252 C250 0.961 . S
H253 C250 0.960 . S
C254 N255 1.342 . S
C254 C258 1.401 . S
C254 C259 1.499 . S
N255 Co238 1.989 . S
N255 C254 1.342 . S
N255 N256 1.388 . S
N256 Co239 1.993 . S
N256 N255 1.388 . S
N256 C257 1.346 . S
C257 N256 1.346 . S
C257 C258 1.396 . S
C257 C267 1.510 . S
C258 C254 1.401 . S
C258 C257 1.396 . S
C259 C254 1.499 . S
C259 H260 0.959 . S
C259 H261 0.960 . S
C259 H262 0.961 . S
H260 C259 0.959 . S
H261 C259 0.960 . S
H262 C259 0.961 . S
O263 Co238 1.967 . S
O263 C271 1.258 . S
O264 Co239 1.941 . S
O264 C271 1.266 . S
H265 C267 0.959 . S
H266 C267 0.961 . S
C267 C257 1.510 . S
C267 H265 0.959 . S
C267 H266 0.961 . S
C267 H268 0.960 . S
H268 C267 0.960 . S
H269 N249 0.862 . S
O270 Co238 1.920 . S
O270 C243 1.289 . S
C271 O263 1.258 . S
C271 O264 1.266 . S
Co272 O275 1.970 . S
Co272 N289 1.989 . S
Co272 O297 1.967 . S
Co272 O304 1.920 . S
Co273 O276 1.966 . S
Co273 N282 2.022 . S
Co273 N290 1.993 . S
Co273 O298 1.941 . S
C274 O275 1.258 . S
C274 O276 1.263 . S
O275 Co272 1.970 . S
O275 C274 1.258 . S
O276 Co273 1.966 . S
O276 C274 1.263 . S
C277 O278 1.235 . S
C277 O304 1.289 . S
O278 C277 1.235 . S
C279 C281 1.400 1_565 S
C279 N282 1.351 . S
C279 C284 1.501 . S
C280 C281 1.387 . S
C280 N283 1.341 . S
C281 C279 1.400 1_545 S
C281 C280 1.387 . S
N282 Co273 2.022 . S
N282 C279 1.351 . S
N282 N283 1.365 1_565 S
N283 C280 1.341 . S
N283 N282 1.365 1_545 S
N283 H303 0.862 . S
C284 C279 1.501 . S
C284 H285 0.961 . S
C284 H286 0.961 . S
C284 H287 0.960 . S
H285 C284 0.961 . S
H286 C284 0.961 . S
H287 C284 0.960 . S
C288 N289 1.342 . S
C288 C292 1.401 . S
C288 C293 1.499 . S
N289 Co272 1.989 . S
N289 C288 1.342 . S
N289 N290 1.388 . S
N290 Co273 1.993 . S
N290 N289 1.388 . S
N290 C291 1.346 . S
C291 N290 1.346 . S
C291 C292 1.396 . S
C291 C301 1.510 . S
C292 C288 1.401 . S
C292 C291 1.396 . S
C293 C288 1.499 . S
C293 H294 0.959 . S
C293 H295 0.960 . S
C293 H296 0.961 . S
H294 C293 0.959 . S
H295 C293 0.960 . S
H296 C293 0.961 . S
O297 Co272 1.967 . S
O297 C305 1.258 . S
O298 Co273 1.941 . S
O298 C305 1.266 . S
H299 C301 0.959 . S
H300 C301 0.961 . S
C301 C291 1.510 . S
C301 H299 0.959 . S
C301 H300 0.961 . S
C301 H302 0.960 . S
H302 C301 0.960 . S
H303 N283 0.862 . S
O304 Co272 1.920 . S
O304 C277 1.289 . S
C305 O297 1.258 . S
C305 O298 1.266 . S
Co306 O309 1.970 . S
Co306 N323 1.989 . S
Co306 O331 1.967 . S
Co306 O338 1.920 . S
Co307 O310 1.966 . S
Co307 N316 2.022 . S
Co307 N324 1.993 . S
Co307 O332 1.941 . S
C308 O309 1.258 . S
C308 O310 1.263 . S
O309 Co306 1.970 . S
O309 C308 1.258 . S
O310 Co307 1.966 . S
O310 C308 1.263 . S
C311 O312 1.235 . S
C311 O338 1.289 . S
O312 C311 1.235 . S
C313 C315 1.400 . S
C313 N316 1.351 . S
C313 C318 1.501 . S
C314 C315 1.387 . S
C314 N317 1.341 . S
C315 C313 1.400 . S
C315 C314 1.387 . S
N316 Co307 2.022 . S
N316 C313 1.351 . S
N316 N317 1.365 . S
N317 C314 1.341 . S
N317 N316 1.365 . S
N317 H337 0.862 . S
C318 C313 1.501 . S
C318 H319 0.961 . S
C318 H320 0.961 . S
C318 H321 0.960 . S
H319 C318 0.961 . S
H320 C318 0.961 . S
H321 C318 0.960 . S
C322 N323 1.342 . S
C322 C326 1.401 . S
C322 C327 1.499 . S
N323 Co306 1.989 . S
N323 C322 1.342 . S
N323 N324 1.388 . S
N324 Co307 1.993 . S
N324 N323 1.388 . S
N324 C325 1.346 . S
C325 N324 1.346 . S
C325 C326 1.396 . S
C325 C335 1.510 . S
C326 C322 1.401 . S
C326 C325 1.396 . S
C327 C322 1.499 . S
C327 H328 0.959 . S
C327 H329 0.960 . S
C327 H330 0.961 . S
H328 C327 0.959 . S
H329 C327 0.960 . S
H330 C327 0.961 . S
O331 Co306 1.967 . S
O331 C339 1.258 . S
O332 Co307 1.941 . S
O332 C339 1.266 . S
H333 C335 0.959 . S
H334 C335 0.961 . S
C335 C325 1.510 . S
C335 H333 0.959 . S
C335 H334 0.961 . S
C335 H336 0.960 . S
H336 C335 0.960 . S
H337 N317 0.862 . S
O338 Co306 1.920 . S
O338 C311 1.289 . S
C339 O331 1.258 . S
C339 O332 1.266 . S
Co340 O343 1.970 . S
Co340 N357 1.989 . S
Co340 O365 1.967 . S
Co340 O372 1.920 . S
Co341 O344 1.966 . S
Co341 N350 2.022 . S
Co341 N358 1.993 . S
Co341 O366 1.941 . S
C342 O343 1.258 . S
C342 O344 1.263 . S
O343 Co340 1.970 . S
O343 C342 1.258 . S
O344 Co341 1.966 . S
O344 C342 1.263 . S
C345 O346 1.235 . S
C345 O372 1.289 . S
O346 C345 1.235 . S
C347 C349 1.400 . S
C347 N350 1.351 . S
C347 C352 1.501 . S
C348 C349 1.387 . S
C348 N351 1.341 . S
C349 C347 1.400 . S
C349 C348 1.387 . S
N350 Co341 2.022 . S
N350 C347 1.351 . S
N350 N351 1.365 . S
N351 C348 1.341 . S
N351 N350 1.365 . S
N351 H371 0.862 . S
C352 C347 1.501 . S
C352 H353 0.961 . S
C352 H354 0.961 . S
C352 H355 0.960 . S
H353 C352 0.961 . S
H354 C352 0.961 . S
H355 C352 0.960 . S
C356 N357 1.342 . S
C356 C360 1.401 . S
C356 C361 1.499 . S
N357 Co340 1.989 . S
N357 C356 1.342 . S
N357 N358 1.388 . S
N358 Co341 1.993 . S
N358 N357 1.388 . S
N358 C359 1.346 . S
C359 N358 1.346 . S
C359 C360 1.396 . S
C359 C369 1.510 . S
C360 C356 1.401 . S
C360 C359 1.396 . S
C361 C356 1.499 . S
C361 H362 0.959 . S
C361 H363 0.960 . S
C361 H364 0.961 . S
H362 C361 0.959 . S
H363 C361 0.960 . S
H364 C361 0.961 . S
O365 Co340 1.967 . S
O365 C373 1.258 . S
O366 Co341 1.941 . S
O366 C373 1.266 . S
H367 C369 0.959 . S
H368 C369 0.961 . S
C369 C359 1.510 . S
C369 H367 0.959 . S
C369 H368 0.961 . S
C369 H370 0.960 . S
H370 C369 0.960 . S
H371 N351 0.862 . S
O372 Co340 1.920 . S
O372 C345 1.289 . S
C373 O365 1.258 . S
C373 O366 1.266 . S
Co374 O377 1.970 . S
Co374 N391 1.989 . S
Co374 O399 1.967 . S
Co374 O406 1.920 . S
Co375 O378 1.966 . S
Co375 N384 2.022 . S
Co375 N392 1.993 . S
Co375 O400 1.941 . S
C376 O377 1.258 . S
C376 O378 1.263 . S
O377 Co374 1.970 . S
O377 C376 1.258 . S
O378 Co375 1.966 . S
O378 C376 1.263 . S
C379 O380 1.235 . S
C379 O406 1.289 . S
O380 C379 1.235 . S
C381 C383 1.400 1_655 S
C381 N384 1.351 . S
C381 C386 1.501 . S
C382 C383 1.387 . S
C382 N385 1.341 . S
C383 C381 1.400 1_455 S
C383 C382 1.387 . S
N384 Co375 2.022 . S
N384 C381 1.351 . S
N384 N385 1.365 1_655 S
N385 C382 1.341 . S
N385 N384 1.365 1_455 S
N385 H405 0.862 . S
C386 C381 1.501 . S
C386 H387 0.961 . S
C386 H388 0.961 . S
C386 H389 0.960 . S
H387 C386 0.961 . S
H388 C386 0.961 . S
H389 C386 0.960 . S
C390 N391 1.342 . S
C390 C394 1.401 . S
C390 C395 1.499 . S
N391 Co374 1.989 . S
N391 C390 1.342 . S
N391 N392 1.388 . S
N392 Co375 1.993 . S
N392 N391 1.388 . S
N392 C393 1.346 . S
C393 N392 1.346 . S
C393 C394 1.396 . S
C393 C403 1.510 . S
C394 C390 1.401 . S
C394 C393 1.396 . S
C395 C390 1.499 . S
C395 H396 0.959 . S
C395 H397 0.960 . S
C395 H398 0.961 . S
H396 C395 0.959 . S
H397 C395 0.960 . S
H398 C395 0.961 . S
O399 Co374 1.967 . S
O399 C407 1.258 . S
O400 Co375 1.941 . S
O400 C407 1.266 . S
H401 C403 0.959 . S
H402 C403 0.961 . S
C403 C393 1.510 . S
C403 H401 0.959 . S
C403 H402 0.961 . S
C403 H404 0.960 . S
H404 C403 0.960 . S
H405 N385 0.862 . S
O406 Co374 1.920 . S
O406 C379 1.289 . S
C407 O399 1.258 . S
C407 O400 1.266 . S
Co408 O411 1.970 . S
Co408 N425 1.989 . S
Co408 O433 1.967 . S
Co408 O440 1.920 . S
Co409 O412 1.966 . S
Co409 N418 2.022 . S
Co409 N426 1.993 . S
Co409 O434 1.941 . S
C410 O411 1.258 . S
C410 O412 1.263 . S
O411 Co408 1.970 . S
O411 C410 1.258 . S
O412 Co409 1.966 . S
O412 C410 1.263 . S
C413 O414 1.235 . S
C413 O440 1.289 . S
O414 C413 1.235 . S
C415 C417 1.400 . S
C415 N418 1.351 . S
C415 C420 1.501 . S
C416 C417 1.387 . S
C416 N419 1.341 . S
C417 C415 1.400 . S
C417 C416 1.387 . S
N418 Co409 2.022 . S
N418 C415 1.351 . S
N418 N419 1.365 . S
N419 C416 1.341 . S
N419 N418 1.365 . S
N419 H439 0.862 . S
C420 C415 1.501 . S
C420 H421 0.961 . S
C420 H422 0.961 . S
C420 H423 0.960 . S
H421 C420 0.961 . S
H422 C420 0.961 . S
H423 C420 0.960 . S
C424 N425 1.342 . S
C424 C428 1.401 . S
C424 C429 1.499 . S
N425 Co408 1.989 . S
N425 C424 1.342 . S
N425 N426 1.388 . S
N426 Co409 1.993 . S
N426 N425 1.388 . S
N426 C427 1.346 . S
C427 N426 1.346 . S
C427 C428 1.396 . S
C427 C437 1.510 . S
C428 C424 1.401 . S
C428 C427 1.396 . S
C429 C424 1.499 . S
C429 H430 0.959 . S
C429 H431 0.960 . S
C429 H432 0.961 . S
H430 C429 0.959 . S
H431 C429 0.960 . S
H432 C429 0.961 . S
O433 Co408 1.967 . S
O433 C441 1.258 . S
O434 Co409 1.941 . S
O434 C441 1.266 . S
H435 C437 0.959 . S
H436 C437 0.961 . S
C437 C427 1.510 . S
C437 H435 0.959 . S
C437 H436 0.961 . S
C437 H438 0.960 . S
H438 C437 0.960 . S
H439 N419 0.862 . S
O440 Co408 1.920 . S
O440 C413 1.289 . S
C441 O433 1.258 . S
C441 O434 1.266 . S
Co442 O445 1.970 . S
Co442 N459 1.989 . S
Co442 O467 1.967 . S
Co442 O474 1.920 . S
Co443 O446 1.966 . S
Co443 N452 2.022 . S
Co443 N460 1.993 . S
Co443 O468 1.941 . S
C444 O445 1.258 . S
C444 O446 1.263 . S
O445 Co442 1.970 . S
O445 C444 1.258 . S
O446 Co443 1.966 . S
O446 C444 1.263 . S
C447 O448 1.235 . S
C447 O474 1.289 . S
O448 C447 1.235 . S
C449 C451 1.400 1_655 S
C449 N452 1.351 . S
C449 C454 1.501 . S
C450 C451 1.387 . S
C450 N453 1.341 . S
C451 C449 1.400 1_455 S
C451 C450 1.387 . S
N452 Co443 2.022 . S
N452 C449 1.351 . S
N452 N453 1.365 1_655 S
N453 C450 1.341 . S
N453 N452 1.365 1_455 S
N453 H473 0.862 . S
C454 C449 1.501 . S
C454 H455 0.961 . S
C454 H456 0.961 . S
C454 H457 0.960 . S
H455 C454 0.961 . S
H456 C454 0.961 . S
H457 C454 0.960 . S
C458 N459 1.342 . S
C458 C462 1.401 . S
C458 C463 1.499 . S
N459 Co442 1.989 . S
N459 C458 1.342 . S
N459 N460 1.388 . S
N460 Co443 1.993 . S
N460 N459 1.388 . S
N460 C461 1.346 . S
C461 N460 1.346 . S
C461 C462 1.396 . S
C461 C471 1.510 . S
C462 C458 1.401 . S
C462 C461 1.396 . S
C463 C458 1.499 . S
C463 H464 0.959 . S
C463 H465 0.960 . S
C463 H466 0.961 . S
H464 C463 0.959 . S
H465 C463 0.960 . S
H466 C463 0.961 . S
O467 Co442 1.967 . S
O467 C475 1.258 . S
O468 Co443 1.941 . S
O468 C475 1.266 . S
H469 C471 0.959 . S
H470 C471 0.961 . S
C471 C461 1.510 . S
C471 H469 0.959 . S
C471 H470 0.961 . S
C471 H472 0.960 . S
H472 C471 0.960 . S
H473 N453 0.862 . S
O474 Co442 1.920 . S
O474 C447 1.289 . S
C475 O467 1.258 . S
C475 O468 1.266 . S
Co476 O479 1.970 . S
Co476 N493 1.989 . S
Co476 O501 1.967 . S
Co476 O508 1.920 . S
Co477 O480 1.966 . S
Co477 N486 2.022 . S
Co477 N494 1.993 . S
Co477 O502 1.941 . S
C478 O479 1.258 . S
C478 O480 1.263 . S
O479 Co476 1.970 . S
O479 C478 1.258 . S
O480 Co477 1.966 . S
O480 C478 1.263 . S
C481 O482 1.235 . S
C481 O508 1.289 . S
O482 C481 1.235 . S
C483 C485 1.400 1_565 S
C483 N486 1.351 . S
C483 C488 1.501 . S
C484 C485 1.387 . S
C484 N487 1.341 . S
C485 C483 1.400 1_545 S
C485 C484 1.387 . S
N486 Co477 2.022 . S
N486 C483 1.351 . S
N486 N487 1.365 1_565 S
N487 C484 1.341 . S
N487 N486 1.365 1_545 S
N487 H507 0.862 . S
C488 C483 1.501 . S
C488 H489 0.961 . S
C488 H490 0.961 . S
C488 H491 0.960 . S
H489 C488 0.961 . S
H490 C488 0.961 . S
H491 C488 0.960 . S
C492 N493 1.342 . S
C492 C496 1.401 . S
C492 C497 1.499 . S
N493 Co476 1.989 . S
N493 C492 1.342 . S
N493 N494 1.388 . S
N494 Co477 1.993 . S
N494 N493 1.388 . S
N494 C495 1.346 . S
C495 N494 1.346 . S
C495 C496 1.396 . S
C495 C505 1.510 . S
C496 C492 1.401 . S
C496 C495 1.396 . S
C497 C492 1.499 . S
C497 H498 0.959 . S
C497 H499 0.960 . S
C497 H500 0.961 . S
H498 C497 0.959 . S
H499 C497 0.960 . S
H500 C497 0.961 . S
O501 Co476 1.967 . S
O501 C509 1.258 . S
O502 Co477 1.941 . S
O502 C509 1.266 . S
H503 C505 0.959 . S
H504 C505 0.961 . S
C505 C495 1.510 . S
C505 H503 0.959 . S
C505 H504 0.961 . S
C505 H506 0.960 . S
H506 C505 0.960 . S
H507 N487 0.862 . S
O508 Co476 1.920 . S
O508 C481 1.289 . S
C509 O501 1.258 . S
C509 O502 1.266 . S
Co510 O513 1.970 . S
Co510 N527 1.989 . S
Co510 O535 1.967 . S
Co510 O542 1.920 . S
Co511 O514 1.966 . S
Co511 N520 2.022 . S
Co511 N528 1.993 . S
Co511 O536 1.941 . S
C512 O513 1.258 . S
C512 O514 1.263 . S
O513 Co510 1.970 . S
O513 C512 1.258 . S
O514 Co511 1.966 . S
O514 C512 1.263 . S
C515 O516 1.235 . S
C515 O542 1.289 . S
O516 C515 1.235 . S
C517 C519 1.400 . S
C517 N520 1.351 . S
C517 C522 1.501 . S
C518 C519 1.387 . S
C518 N521 1.341 . S
C519 C517 1.400 . S
C519 C518 1.387 . S
N520 Co511 2.022 . S
N520 C517 1.351 . S
N520 N521 1.365 . S
N521 C518 1.341 . S
N521 N520 1.365 . S
N521 H541 0.862 . S
C522 C517 1.501 . S
C522 H523 0.961 . S
C522 H524 0.961 . S
C522 H525 0.960 . S
H523 C522 0.961 . S
H524 C522 0.961 . S
H525 C522 0.960 . S
C526 N527 1.342 . S
C526 C530 1.401 . S
C526 C531 1.499 . S
N527 Co510 1.989 . S
N527 C526 1.342 . S
N527 N528 1.388 . S
N528 Co511 1.993 . S
N528 N527 1.388 . S
N528 C529 1.346 . S
C529 N528 1.346 . S
C529 C530 1.396 . S
C529 C539 1.510 . S
C530 C526 1.401 . S
C530 C529 1.396 . S
C531 C526 1.499 . S
C531 H532 0.959 . S
C531 H533 0.960 . S
C531 H534 0.961 . S
H532 C531 0.959 . S
H533 C531 0.960 . S
H534 C531 0.961 . S
O535 Co510 1.967 . S
O535 C543 1.258 . S
O536 Co511 1.941 . S
O536 C543 1.266 . S
H537 C539 0.959 . S
H538 C539 0.961 . S
C539 C529 1.510 . S
C539 H537 0.959 . S
C539 H538 0.961 . S
C539 H540 0.960 . S
H540 C539 0.960 . S
H541 N521 0.862 . S
O542 Co510 1.920 . S
O542 C515 1.289 . S
C543 O535 1.258 . S
C543 O536 1.266 . S
C544 C545 1.369 . S
C544 C546 1.419 . S
C544 H548 0.930 . S
C545 C544 1.369 . S
C545 C554 1.429 . S
C546 C544 1.419 . S
C546 C547 1.363 . S
C546 H549 0.929 . S
C547 C546 1.363 . S
C547 C553 1.428 . S
H548 C544 0.930 . S
H549 C546 0.929 . S
S550 N551 1.613 . S
S550 N552 1.610 . S
N551 S550 1.613 . S
N551 C554 1.350 . S
N552 S550 1.610 . S
N552 C553 1.351 . S
C553 C547 1.428 . S
C553 N552 1.351 . S
C553 C554 1.434 . S
C554 C545 1.429 . S
C554 N551 1.350 . S
C554 C553 1.434 . S
C555 C556 1.369 . S
C555 C557 1.419 . S
C555 H559 0.930 . S
C556 C555 1.369 . S
C556 C565 1.429 . S
C557 C555 1.419 . S
C557 C558 1.363 . S
C557 H560 0.929 . S
C558 C557 1.363 . S
C558 C564 1.428 . S
H559 C555 0.930 . S
H560 C557 0.929 . S
S561 N562 1.613 . S
S561 N563 1.610 . S
N562 S561 1.613 . S
N562 C565 1.350 . S
N563 S561 1.610 . S
N563 C564 1.351 . S
C564 C558 1.428 . S
C564 N563 1.351 . S
C564 C565 1.434 . S
C565 C556 1.429 . S
C565 N562 1.350 . S
C565 C564 1.434 . S
C566 C567 1.369 . S
C566 C568 1.419 . S
C566 H570 0.930 . S
C567 C566 1.369 . S
C567 C576 1.429 . S
C568 C566 1.419 . S
C568 C569 1.363 . S
C568 H571 0.929 . S
C569 C568 1.363 . S
C569 C575 1.428 . S
H570 C566 0.930 . S
H571 C568 0.929 . S
S572 N573 1.613 . S
S572 N574 1.610 . S
N573 S572 1.613 . S
N573 C576 1.350 . S
N574 S572 1.610 . S
N574 C575 1.351 . S
C575 C569 1.428 . S
C575 N574 1.351 . S
C575 C576 1.434 . S
C576 C567 1.429 . S
C576 N573 1.350 . S
C576 C575 1.434 . S
C577 C578 1.369 . S
C577 C579 1.419 . S
C577 H581 0.930 . S
C578 C577 1.369 . S
C578 C587 1.429 . S
C579 C577 1.419 . S
C579 C580 1.363 . S
C579 H582 0.929 . S
C580 C579 1.363 . S
C580 C586 1.428 . S
H581 C577 0.930 . S
H582 C579 0.929 . S
S583 N584 1.613 . S
S583 N585 1.610 . S
N584 S583 1.613 . S
N584 C587 1.350 . S
N585 S583 1.610 . S
N585 C586 1.351 . S
C586 C580 1.428 . S
C586 N585 1.351 . S
C586 C587 1.434 . S
C587 C578 1.429 . S
C587 N584 1.350 . S
C587 C586 1.434 . S
C588 C589 1.369 . S
C588 C590 1.419 . S
C588 H592 0.930 . S
C589 C588 1.369 . S
C589 C598 1.429 . S
C590 C588 1.419 . S
C590 C591 1.363 . S
C590 H593 0.929 . S
C591 C590 1.363 . S
C591 C597 1.428 . S
H592 C588 0.930 . S
H593 C590 0.929 . S
S594 N595 1.613 . S
S594 N596 1.610 . S
N595 S594 1.613 . S
N595 C598 1.350 . S
N596 S594 1.610 . S
N596 C597 1.351 . S
C597 C591 1.428 . S
C597 N596 1.351 . S
C597 C598 1.434 . S
C598 C589 1.429 . S
C598 N595 1.350 . S
C598 C597 1.434 . S
C599 C600 1.369 . S
C599 C601 1.419 . S
C599 H603 0.930 . S
C600 C599 1.369 . S
C600 C609 1.429 . S
C601 C599 1.419 . S
C601 C602 1.363 . S
C601 H604 0.929 . S
C602 C601 1.363 . S
C602 C608 1.428 . S
H603 C599 0.930 . S
H604 C601 0.929 . S
S605 N606 1.613 . S
S605 N607 1.610 . S
N606 S605 1.613 . S
N606 C609 1.350 . S
N607 S605 1.610 . S
N607 C608 1.351 . S
C608 C602 1.428 . S
C608 N607 1.351 . S
C608 C609 1.434 . S
C609 C600 1.429 . S
C609 N606 1.350 . S
C609 C608 1.434 . S
C610 C611 1.369 . S
C610 C612 1.419 . S
C610 H614 0.930 . S
C611 C610 1.369 . S
C611 C620 1.429 . S
C612 C610 1.419 . S
C612 C613 1.363 . S
C612 H615 0.929 . S
C613 C612 1.363 . S
C613 C619 1.428 . S
H614 C610 0.930 . S
H615 C612 0.929 . S
S616 N617 1.613 . S
S616 N618 1.610 . S
N617 S616 1.613 . S
N617 C620 1.350 . S
N618 S616 1.610 . S
N618 C619 1.351 . S
C619 C613 1.428 . S
C619 N618 1.351 . S
C619 C620 1.434 . S
C620 C611 1.429 . S
C620 N617 1.350 . S
C620 C619 1.434 . S
C621 C622 1.369 . S
C621 C623 1.419 . S
C621 H625 0.930 . S
C622 C621 1.369 . S
C622 C631 1.429 . S
C623 C621 1.419 . S
C623 C624 1.363 . S
C623 H626 0.929 . S
C624 C623 1.363 . S
C624 C630 1.428 . S
H625 C621 0.930 . S
H626 C623 0.929 . S
S627 N628 1.613 . S
S627 N629 1.610 . S
N628 S627 1.613 . S
N628 C631 1.350 . S
N629 S627 1.610 . S
N629 C630 1.351 . S
C630 C624 1.428 . S
C630 N629 1.351 . S
C630 C631 1.434 . S
C631 C622 1.429 . S
C631 N628 1.350 . S
C631 C630 1.434 . S
C632 C633 1.369 1_565 S
C632 C634 1.419 . S
C632 H636 0.930 . S
C633 C632 1.369 1_545 S
C633 C642 1.429 1_556 S
C634 C632 1.419 . S
C634 C635 1.363 1_556 S
C634 H637 0.929 . S
C635 C634 1.363 1_554 S
C635 C641 1.428 1_565 S
H636 C632 0.930 . S
H637 C634 0.929 . S
S638 N639 1.613 . S
S638 N640 1.610 . S
N639 S638 1.613 . S
N639 C642 1.350 . S
N640 S638 1.610 . S
N640 C641 1.351 . S
C641 C635 1.428 1_545 S
C641 N640 1.351 . S
C641 C642 1.434 . S
C642 C633 1.429 1_554 S
C642 N639 1.350 . S
C642 C641 1.434 . S
C643 C644 1.369 1_554 S
C643 C645 1.419 . S
C643 H647 0.930 . S
C644 C643 1.369 1_556 S
C644 C653 1.429 . S
C645 C643 1.419 . S
C645 C646 1.363 . S
C645 H648 0.929 . S
C646 C645 1.363 . S
C646 C652 1.428 1_554 S
H647 C643 0.930 . S
H648 C645 0.929 . S
S649 N650 1.613 . S
S649 N651 1.610 . S
N650 S649 1.613 . S
N650 C653 1.350 . S
N651 S649 1.610 . S
N651 C652 1.351 . S
C652 C646 1.428 1_556 S
C652 N651 1.351 . S
C652 C653 1.434 . S
C653 C644 1.429 . S
C653 N650 1.350 . S
C653 C652 1.434 . S
C654 C655 1.369 1_655 S
C654 C656 1.419 . S
C654 H658 0.930 . S
C655 C654 1.369 1_455 S
C655 C664 1.429 1_556 S
C656 C654 1.419 . S
C656 C657 1.363 1_556 S
C656 H659 0.929 . S
C657 C656 1.363 1_554 S
C657 C663 1.428 1_655 S
H658 C654 0.930 . S
H659 C656 0.929 . S
S660 N661 1.613 . S
S660 N662 1.610 . S
N661 S660 1.613 . S
N661 C664 1.350 . S
N662 S660 1.610 . S
N662 C663 1.351 . S
C663 C657 1.428 1_455 S
C663 N662 1.351 . S
C663 C664 1.434 . S
C664 C655 1.429 1_554 S
C664 N661 1.350 . S
C664 C663 1.434 . S
C665 C666 1.369 1_654 S
C665 C667 1.421 1_545 S
C665 H669 0.930 . S
C666 C665 1.369 1_456 S
C666 C675 1.429 1_545 S
C667 C665 1.421 1_565 S
C667 C668 1.361 . S
C667 H670 0.929 1_565 S
C668 C667 1.361 . S
C668 C674 1.428 1_654 S
H669 C665 0.930 . S
H670 C667 0.929 1_545 S
S671 N672 1.613 . S
S671 N673 1.610 . S
N672 S671 1.613 . S
N672 C675 1.350 . S
N673 S671 1.610 . S
N673 C674 1.351 . S
C674 C668 1.428 1_456 S
C674 N673 1.351 . S
C674 C675 1.434 . S
C675 C666 1.429 1_565 S
C675 N672 1.350 . S
C675 C674 1.434 . S
C676 C677 1.369 . S
C676 C678 1.419 . S
C676 H680 0.930 . S
C677 C676 1.369 . S
C677 C686 1.429 . S
C678 C676 1.419 . S
C678 C679 1.363 . S
C678 H681 0.929 . S
C679 C678 1.363 . S
C679 C685 1.428 . S
H680 C676 0.930 . S
H681 C678 0.929 . S
S682 N683 1.613 . S
S682 N684 1.610 . S
N683 S682 1.613 . S
N683 C686 1.350 . S
N684 S682 1.610 . S
N684 C685 1.351 . S
C685 C679 1.428 . S
C685 N684 1.351 . S
C685 C686 1.434 . S
C686 C677 1.429 . S
C686 N683 1.350 . S
C686 C685 1.434 . S
C687 C688 1.369 1_655 S
C687 C689 1.419 . S
C687 H691 0.930 . S
C688 C687 1.369 1_455 S
C688 C697 1.429 . S
C689 C687 1.419 . S
C689 C690 1.363 . S
C689 H692 0.929 . S
C690 C689 1.363 . S
C690 C696 1.428 1_655 S
H691 C687 0.930 . S
H692 C689 0.929 . S
S693 N694 1.613 . S
S693 N695 1.610 . S
N694 S693 1.613 . S
N694 C697 1.350 . S
N695 S693 1.610 . S
N695 C696 1.351 . S
C696 C690 1.428 1_455 S
C696 N695 1.351 . S
C696 C697 1.434 . S
C697 C688 1.429 . S
C697 N694 1.350 . S
C697 C696 1.434 . S
C698 C699 1.369 1_545 S
C698 C700 1.419 . S
C698 H702 0.930 . S
C699 C698 1.369 1_565 S
C699 C708 1.429 1_655 S
C700 C698 1.419 . S
C700 C701 1.363 1_655 S
C700 H703 0.929 . S
C701 C700 1.363 1_455 S
C701 C707 1.428 1_545 S
H702 C698 0.930 . S
H703 C700 0.929 . S
S704 N705 1.613 . S
S704 N706 1.610 . S
N705 S704 1.613 . S
N705 C708 1.350 . S
N706 S704 1.610 . S
N706 C707 1.351 . S
C707 C701 1.428 1_565 S
C707 N706 1.351 . S
C707 C708 1.434 . S
C708 C699 1.429 1_455 S
C708 N705 1.350 . S
C708 C707 1.434 . S
C709 C710 1.368 1_545 S
C709 C711 1.419 . S
C709 H713 0.930 . S
C710 C709 1.368 1_565 S
C710 C719 1.429 . S
C711 C709 1.419 . S
C711 C712 1.363 . S
C711 H714 0.929 . S
C712 C711 1.363 . S
C712 C718 1.428 1_545 S
H713 C709 0.930 . S
H714 C711 0.929 . S
S715 N716 1.613 . S
S715 N717 1.610 . S
N716 S715 1.613 . S
N716 C719 1.350 . S
N717 S715 1.610 . S
N717 C718 1.351 . S
C718 C712 1.428 1_565 S
C718 N717 1.351 . S
C718 C719 1.434 . S
C719 C710 1.429 . S
C719 N716 1.350 . S
C719 C718 1.434 . S
C720 C721 1.369 1_554 S
C720 C722 1.419 . S
C720 H724 0.930 . S
C721 C720 1.369 1_556 S
C721 C730 1.429 . S
C722 C720 1.419 . S
C722 C723 1.363 . S
C722 H725 0.929 . S
C723 C722 1.363 . S
C723 C729 1.428 1_554 S
H724 C720 0.930 . S
H725 C722 0.929 . S
S726 N727 1.613 . S
S726 N728 1.610 . S
N727 S726 1.613 . S
N727 C730 1.350 . S
N728 S726 1.610 . S
N728 C729 1.351 . S
C729 C723 1.428 1_556 S
C729 N728 1.351 . S
C729 C730 1.434 . S
C730 C721 1.429 . S
C730 N727 1.350 . S
C730 C729 1.434 . S
C731 C732 1.369 1_554 S
C731 C733 1.419 . S
C731 H735 0.930 . S
C732 C731 1.369 1_556 S
C732 C741 1.429 . S
C733 C731 1.419 . S
C733 C734 1.363 . S
C733 H736 0.929 . S
C734 C733 1.363 . S
C734 C740 1.428 1_554 S
H735 C731 0.930 . S
H736 C733 0.929 . S
S737 N738 1.613 . S
S737 N739 1.610 . S
N738 S737 1.613 . S
N738 C741 1.350 . S
N739 S737 1.610 . S
N739 C740 1.351 . S
C740 C734 1.428 1_556 S
C740 N739 1.351 . S
C740 C741 1.434 . S
C741 C732 1.429 . S
C741 N738 1.350 . S
C741 C740 1.434 . S
C742 C743 1.369 1_554 S
C742 C744 1.419 . S
C742 H746 0.930 . S
C743 C742 1.369 1_556 S
C743 C752 1.429 . S
C744 C742 1.419 . S
C744 C745 1.363 . S
C744 H747 0.929 . S
C745 C744 1.363 . S
C745 C751 1.428 1_554 S
H746 C742 0.930 . S
H747 C744 0.929 . S
S748 N749 1.613 . S
S748 N750 1.610 . S
N749 S748 1.613 . S
N749 C752 1.350 . S
N750 S748 1.610 . S
N750 C751 1.351 . S
C751 C745 1.428 1_556 S
C751 N750 1.351 . S
C751 C752 1.434 . S
C752 C743 1.429 . S
C752 N749 1.350 . S
C752 C751 1.434 . S
C753 C754 1.369 . S
C753 C755 1.419 . S
C753 H757 0.930 . S
C754 C753 1.369 . S
C754 C763 1.429 1_556 S
C755 C753 1.419 . S
C755 C756 1.363 1_556 S
C755 H758 0.929 . S
C756 C755 1.363 1_554 S
C756 C762 1.428 . S
H757 C753 0.930 . S
H758 C755 0.929 . S
S759 N760 1.613 . S
S759 N761 1.610 . S
N760 S759 1.613 . S
N760 C763 1.350 . S
N761 S759 1.610 . S
N761 C762 1.351 . S
C762 C756 1.428 . S
C762 N761 1.351 . S
C762 C763 1.434 . S
C763 C754 1.429 1_554 S
C763 N760 1.350 . S
C763 C762 1.434 . S
C764 C765 1.369 . S
C764 C766 1.419 . S
C764 H768 0.930 . S
C765 C764 1.369 . S
C765 C774 1.429 . S
C766 C764 1.419 . S
C766 C767 1.363 . S
C766 H769 0.929 . S
C767 C766 1.363 . S
C767 C773 1.428 . S
H768 C764 0.930 . S
H769 C766 0.929 . S
S770 N771 1.613 . S
S770 N772 1.610 . S
N771 S770 1.613 . S
N771 C774 1.350 . S
N772 S770 1.610 . S
N772 C773 1.351 . S
C773 C767 1.428 . S
C773 N772 1.351 . S
C773 C774 1.434 . S
C774 C765 1.429 . S
C774 N771 1.350 . S
C774 C773 1.434 . S
C775 C776 1.369 . S
C775 C777 1.419 . S
C775 H779 0.930 . S
C776 C775 1.369 . S
C776 C785 1.429 . S
C777 C775 1.419 . S
C777 C778 1.363 . S
C777 H780 0.929 . S
C778 C777 1.363 . S
C778 C784 1.428 . S
H779 C775 0.930 . S
H780 C777 0.929 . S
S781 N782 1.613 . S
S781 N783 1.610 . S
N782 S781 1.613 . S
N782 C785 1.350 . S
N783 S781 1.610 . S
N783 C784 1.351 . S
C784 C778 1.428 . S
C784 N783 1.351 . S
C784 C785 1.434 . S
C785 C776 1.429 . S
C785 N782 1.350 . S
C785 C784 1.434 . S
C786 C787 1.369 . S
C786 C788 1.419 . S
C786 H790 0.930 . S
C787 C786 1.369 . S
C787 C796 1.429 . S
C788 C786 1.419 . S
C788 C789 1.363 . S
C788 H791 0.929 . S
C789 C788 1.363 . S
C789 C795 1.428 . S
H790 C786 0.930 . S
H791 C788 0.929 . S
S792 N793 1.613 . S
S792 N794 1.610 . S
N793 S792 1.613 . S
N793 C796 1.350 . S
N794 S792 1.610 . S
N794 C795 1.351 . S
C795 C789 1.428 . S
C795 N794 1.351 . S
C795 C796 1.434 . S
C796 C787 1.429 . S
C796 N793 1.350 . S
C796 C795 1.434 . S
C797 C798 1.369 . S
C797 C799 1.419 . S
C797 H801 0.930 . S
C798 C797 1.369 . S
C798 C807 1.429 . S
C799 C797 1.419 . S
C799 C800 1.363 . S
C799 H802 0.929 . S
C800 C799 1.363 . S
C800 C806 1.428 . S
H801 C797 0.930 . S
H802 C799 0.929 . S
S803 N804 1.613 . S
S803 N805 1.610 . S
N804 S803 1.613 . S
N804 C807 1.350 . S
N805 S803 1.610 . S
N805 C806 1.351 . S
C806 C800 1.428 . S
C806 N805 1.351 . S
C806 C807 1.434 . S
C807 C798 1.429 . S
C807 N804 1.350 . S
C807 C806 1.434 . S
C808 C809 1.369 1_556 S
C808 C810 1.419 . S
C808 H812 0.930 . S
C809 C808 1.369 1_554 S
C809 C818 1.429 . S
C810 C808 1.419 . S
C810 C811 1.363 . S
C810 H813 0.929 . S
C811 C810 1.363 . S
C811 C817 1.428 1_556 S
H812 C808 0.930 . S
H813 C810 0.929 . S
S814 N815 1.613 . S
S814 N816 1.610 . S
N815 S814 1.613 . S
N815 C818 1.350 . S
N816 S814 1.610 . S
N816 C817 1.351 . S
C817 C811 1.428 1_554 S
C817 N816 1.351 . S
C817 C818 1.434 . S
C818 C809 1.429 . S
C818 N815 1.350 . S
C818 C817 1.434 . S
C819 C820 1.369 . S
C819 C821 1.419 . S
C819 H823 0.930 . S
C820 C819 1.369 . S
C820 C829 1.429 1_554 S
C821 C819 1.419 . S
C821 C822 1.363 1_554 S
C821 H824 0.929 . S
C822 C821 1.363 1_556 S
C822 C828 1.428 . S
H823 C819 0.930 . S
H824 C821 0.929 . S
S825 N826 1.613 . S
S825 N827 1.610 . S
N826 S825 1.613 . S
N826 C829 1.350 . S
N827 S825 1.610 . S
N827 C828 1.351 . S
C828 C822 1.428 . S
C828 N827 1.351 . S
C828 C829 1.434 . S
C829 C820 1.429 1_556 S
C829 N826 1.350 . S
C829 C828 1.434 . S
C830 C831 1.369 1_556 S
C830 C832 1.419 . S
C830 H834 0.930 . S
C831 C830 1.369 1_554 S
C831 C840 1.429 . S
C832 C830 1.419 . S
C832 C833 1.363 . S
C832 H835 0.929 . S
C833 C832 1.363 . S
C833 C839 1.428 1_556 S
H834 C830 0.930 . S
H835 C832 0.929 . S
S836 N837 1.613 . S
S836 N838 1.610 . S
N837 S836 1.613 . S
N837 C840 1.350 . S
N838 S836 1.610 . S
N838 C839 1.351 . S
C839 C833 1.428 1_554 S
C839 N838 1.351 . S
C839 C840 1.434 . S
C840 C831 1.429 . S
C840 N837 1.350 . S
C840 C839 1.434 . S
C841 C842 1.369 . S
C841 C843 1.419 1_554 S
C841 H845 0.930 . S
C842 C841 1.369 . S
C842 C851 1.429 1_554 S
C843 C841 1.419 1_556 S
C843 C844 1.363 . S
C843 H846 0.929 . S
C844 C843 1.363 . S
C844 C850 1.428 . S
H845 C841 0.930 . S
H846 C843 0.929 . S
S847 N848 1.613 . S
S847 N849 1.610 . S
N848 S847 1.613 . S
N848 C851 1.350 . S
N849 S847 1.610 . S
N849 C850 1.351 . S
C850 C844 1.428 . S
C850 N849 1.351 . S
C850 C851 1.434 . S
C851 C842 1.429 1_556 S
C851 N848 1.350 . S
C851 C850 1.434 . S
C852 C853 1.369 . S
C852 C854 1.419 . S
C852 H856 0.930 . S
C853 C852 1.369 . S
C853 C862 1.429 . S
C854 C852 1.419 . S
C854 C855 1.363 . S
C854 H857 0.929 . S
C855 C854 1.363 . S
C855 C861 1.428 . S
H856 C852 0.930 . S
H857 C854 0.929 . S
S858 N859 1.613 . S
S858 N860 1.610 . S
N859 S858 1.613 . S
N859 C862 1.350 . S
N860 S858 1.610 . S
N860 C861 1.351 . S
C861 C855 1.428 . S
C861 N860 1.351 . S
C861 C862 1.434 . S
C862 C853 1.429 . S
C862 N859 1.350 . S
C862 C861 1.434 . S
C863 C864 1.369 . S
C863 C865 1.419 . S
C863 H867 0.930 . S
C864 C863 1.369 . S
C864 C873 1.429 . S
C865 C863 1.419 . S
C865 C866 1.363 . S
C865 H868 0.929 . S
C866 C865 1.363 . S
C866 C872 1.428 . S
H867 C863 0.930 . S
H868 C865 0.929 . S
S869 N870 1.613 . S
S869 N871 1.610 . S
N870 S869 1.613 . S
N870 C873 1.350 . S
N871 S869 1.610 . S
N871 C872 1.351 . S
C872 C866 1.428 . S
C872 N871 1.351 . S
C872 C873 1.434 . S
C873 C864 1.429 . S
C873 N870 1.350 . S
C873 C872 1.434 . S
C874 C875 1.369 . S
C874 C876 1.419 . S
C874 H878 0.930 . S
C875 C874 1.369 . S
C875 C884 1.429 . S
C876 C874 1.419 . S
C876 C877 1.363 . S
C876 H879 0.929 . S
C877 C876 1.363 . S
C877 C883 1.428 . S
H878 C874 0.930 . S
H879 C876 0.929 . S
S880 N881 1.613 . S
S880 N882 1.610 . S
N881 S880 1.613 . S
N881 C884 1.350 . S
N882 S880 1.610 . S
N882 C883 1.351 . S
C883 C877 1.428 . S
C883 N882 1.351 . S
C883 C884 1.434 . S
C884 C875 1.429 . S
C884 N881 1.350 . S
C884 C883 1.434 . S
C885 C886 1.369 . S
C885 C887 1.419 . S
C885 H889 0.930 . S
C886 C885 1.369 . S
C886 C895 1.429 . S
C887 C885 1.419 . S
C887 C888 1.363 . S
C887 H890 0.929 . S
C888 C887 1.363 . S
C888 C894 1.428 . S
H889 C885 0.930 . S
H890 C887 0.929 . S
S891 N892 1.613 . S
S891 N893 1.610 . S
N892 S891 1.613 . S
N892 C895 1.350 . S
N893 S891 1.610 . S
N893 C894 1.351 . S
C894 C888 1.428 . S
C894 N893 1.351 . S
C894 C895 1.434 . S
C895 C886 1.429 . S
C895 N892 1.350 . S
C895 C894 1.434 . S
C896 C897 1.369 . S
C896 C898 1.419 . S
C896 H900 0.930 . S
C897 C896 1.369 . S
C897 C906 1.429 . S
C898 C896 1.419 . S
C898 C899 1.363 . S
C898 H901 0.929 . S
C899 C898 1.363 . S
C899 C905 1.428 . S
H900 C896 0.930 . S
H901 C898 0.929 . S
S902 N903 1.613 . S
S902 N904 1.610 . S
N903 S902 1.613 . S
N903 C906 1.350 . S
N904 S902 1.610 . S
N904 C905 1.351 . S
C905 C899 1.428 . S
C905 N904 1.351 . S
C905 C906 1.434 . S
C906 C897 1.429 . S
C906 N903 1.350 . S
C906 C905 1.434 . S
C907 C908 1.369 . S
C907 C909 1.419 . S
C907 H911 0.930 . S
C908 C907 1.369 . S
C908 C917 1.429 . S
C909 C907 1.419 . S
C909 C910 1.363 . S
C909 H912 0.929 . S
C910 C909 1.363 . S
C910 C916 1.428 . S
H911 C907 0.930 . S
H912 C909 0.929 . S
S913 N914 1.613 . S
S913 N915 1.610 . S
N914 S913 1.613 . S
N914 C917 1.350 . S
N915 S913 1.610 . S
N915 C916 1.351 . S
C916 C910 1.428 . S
C916 N915 1.351 . S
C916 C917 1.434 . S
C917 C908 1.429 . S
C917 N914 1.350 . S
C917 C916 1.434 . S
C918 C919 1.369 . S
C918 C920 1.419 . S
C918 H922 0.930 . S
C919 C918 1.369 . S
C919 C928 1.429 . S
C920 C918 1.419 . S
C920 C921 1.363 . S
C920 H923 0.929 . S
C921 C920 1.363 . S
C921 C927 1.428 . S
H922 C918 0.930 . S
H923 C920 0.929 . S
S924 N925 1.613 . S
S924 N926 1.610 . S
N925 S924 1.613 . S
N925 C928 1.350 . S
N926 S924 1.610 . S
N926 C927 1.351 . S
C927 C921 1.428 . S
C927 N926 1.351 . S
C927 C928 1.434 . S
C928 C919 1.429 . S
C928 N925 1.350 . S
C928 C927 1.434 . S
C929 C930 1.369 . S
C929 C931 1.419 . S
C929 H933 0.930 . S
C930 C929 1.369 . S
C930 C939 1.429 . S
C931 C929 1.419 . S
C931 C932 1.363 . S
C931 H934 0.929 . S
C932 C931 1.363 . S
C932 C938 1.428 . S
H933 C929 0.930 . S
H934 C931 0.929 . S
S935 N936 1.613 . S
S935 N937 1.610 . S
N936 S935 1.613 . S
N936 C939 1.350 . S
N937 S935 1.610 . S
N937 C938 1.351 . S
C938 C932 1.428 . S
C938 N937 1.351 . S
C938 C939 1.434 . S
C939 C930 1.429 . S
C939 N936 1.350 . S
C939 C938 1.434 . S
C940 C941 1.369 . S
C940 C942 1.419 . S
C940 H944 0.930 . S
C941 C940 1.369 . S
C941 C950 1.429 . S
C942 C940 1.419 . S
C942 C943 1.363 . S
C942 H945 0.929 . S
C943 C942 1.363 . S
C943 C949 1.428 . S
H944 C940 0.930 . S
H945 C942 0.929 . S
S946 N947 1.613 . S
S946 N948 1.610 . S
N947 S946 1.613 . S
N947 C950 1.350 . S
N948 S946 1.610 . S
N948 C949 1.351 . S
C949 C943 1.428 . S
C949 N948 1.351 . S
C949 C950 1.434 . S
C950 C941 1.429 . S
C950 N947 1.350 . S
C950 C949 1.434 . S
C951 C952 1.369 . S
C951 C953 1.419 . S
C951 H955 0.930 . S
C952 C951 1.369 . S
C952 C961 1.429 . S
C953 C951 1.419 . S
C953 C954 1.363 . S
C953 H956 0.929 . S
C954 C953 1.363 . S
C954 C960 1.428 . S
H955 C951 0.930 . S
H956 C953 0.929 . S
S957 N958 1.613 . S
S957 N959 1.610 . S
N958 S957 1.613 . S
N958 C961 1.350 . S
N959 S957 1.610 . S
N959 C960 1.351 . S
C960 C954 1.428 . S
C960 N959 1.351 . S
C960 C961 1.434 . S
C961 C952 1.429 . S
C961 N958 1.350 . S
C961 C960 1.434 . S
C962 C963 1.369 . S
C962 C964 1.419 . S
C962 H966 0.930 . S
C963 C962 1.369 . S
C963 C972 1.429 . S
C964 C962 1.419 . S
C964 C965 1.363 . S
C964 H967 0.929 . S
C965 C964 1.363 . S
C965 C971 1.428 . S
H966 C962 0.930 . S
H967 C964 0.929 . S
S968 N969 1.613 . S
S968 N970 1.610 . S
N969 S968 1.613 . S
N969 C972 1.350 . S
N970 S968 1.610 . S
N970 C971 1.351 . S
C971 C965 1.428 . S
C971 N970 1.351 . S
C971 C972 1.434 . S
C972 C963 1.429 . S
C972 N969 1.350 . S
C972 C971 1.434 . S
C973 C974 1.369 . S
C973 C975 1.419 . S
C973 H977 0.930 . S
C974 C973 1.369 . S
C974 C983 1.429 . S
C975 C973 1.419 . S
C975 C976 1.363 . S
C975 H978 0.929 . S
C976 C975 1.363 . S
C976 C982 1.428 . S
H977 C973 0.930 . S
H978 C975 0.929 . S
S979 N980 1.613 . S
S979 N981 1.610 . S
N980 S979 1.613 . S
N980 C983 1.350 . S
N981 S979 1.610 . S
N981 C982 1.351 . S
C982 C976 1.428 . S
C982 N981 1.351 . S
C982 C983 1.434 . S
C983 C974 1.429 . S
C983 N980 1.350 . S
C983 C982 1.434 . S
C545 C20 1.772 . S
C547 C224 1.780 . S
C556 C258 1.777 . S
C558 C54 1.782 . S
C567 C156 1.780 . S
C569 C88 1.774 . S
C578 C190 1.782 . S
C580 C122 1.774 . S
C589 C292 1.773 . S
C591 C496 1.781 . S
C600 C326 1.773 . S
C602 C530 1.781 . S
C611 C428 1.783 . S
C613 C360 1.776 . S
C622 C394 1.781 . S
C624 C462 1.774 . S
C633 C281 2.580 . S
C635 C9 2.577 . S
C644 C315 2.579 . S
C646 C43 2.577 . S
C655 C349 2.575 . S
C657 C77 2.581 . S
C666 C383 2.582 . S
C668 C111 2.575 . S
C677 C417 2.575 . S
C679 C145 2.581 . S
C688 C451 2.580 . S
C690 C179 2.577 . S
C699 C213 2.582 . S
C701 C485 2.575 . S
C710 C247 2.575 . S
C712 C519 2.581 . S
C721 C339 1.215 . S
C723 C2 1.286 . S
C732 C373 1.212 . S
C734 C36 1.285 . S
C743 C407 1.214 . S
C745 C70 1.286 . S
C754 C305 1.219 . S
C756 C104 1.279 . S
C765 C138 1.279 . S
C767 C543 1.215 . S
C776 C172 1.280 . S
C778 C441 1.223 . S
C787 C206 1.280 . S
C789 C475 1.223 . S
C798 C240 1.278 . S
C800 C509 1.217 . S
C809 C67 1.218 . S
C811 C274 1.286 . S
C820 C101 1.220 . S
C822 C308 1.279 . S
C831 C135 1.213 . S
C833 C342 1.286 . S
C842 C33 1.223 . S
C844 C376 1.285 . S
C853 C271 1.218 . S
C855 C410 1.286 . S
C864 C169 1.219 . S
C866 C444 1.286 . S
C875 C203 1.225 . S
C877 C478 1.280 . S
C886 C512 1.287 . S
C888 C237 1.219 . S
C897 C73 0.605 . S
C899 C5 0.586 . S
C908 C107 0.602 . S
C910 C39 0.588 . S
C919 C141 0.607 . S
C921 C209 0.579 . S
C930 C243 0.579 . S
C932 C175 0.604 . S
C941 C277 0.599 . S
C943 C345 0.581 . S
C952 C379 0.583 . S
C954 C311 0.591 . S
C963 C413 0.596 . S
C965 C481 0.595 . S
C974 C447 0.596 . S
C976 C515 0.595 . S
