# Generated by pormake.
# Topology wli, (5)-cn, num edge types: 1
# Building blocks:
#     Node 0, Type 0, BuildingBlock: BEQFEK_clean_sbu_0, # of connection points: 5
#     Node 1, Type 0, BuildingBlock: BEQFEK_clean_sbu_0, # of connection points: 5
#     Node 2, Type 0, BuildingBlock: BEQFEK_clean_sbu_0, # of connection points: 5
#     Node 3, Type 0, BuildingBlock: BEQFEK_clean_sbu_0, # of connection points: 5
#     Node 4, Type 0, BuildingBlock: BEQFEK_clean_sbu_0, # of connection points: 5
#     Node 5, Type 0, BuildingBlock: BEQFEK_clean_sbu_0, # of connection points: 5
#     Edge 6, Type (0, 0), BuildingBlock: KIFKEQ_clean_linker_1, # of connection points: 2
#     Edge 7, Type (0, 0), BuildingBlock: KIFKEQ_clean_linker_1, # of connection points: 2
#     Edge 8, Type (0, 0), BuildingBlock: KIFKEQ_clean_linker_1, # of connection points: 2
#     Edge 9, Type (0, 0), BuildingBlock: KIFKEQ_clean_linker_1, # of connection points: 2
#     Edge 10, Type (0, 0), BuildingBlock: KIFKEQ_clean_linker_1, # of connection points: 2
#     Edge 11, Type (0, 0), BuildingBlock: KIFKEQ_clean_linker_1, # of connection points: 2
#     Edge 12, Type (0, 0), BuildingBlock: KIFKEQ_clean_linker_1, # of connection points: 2
#     Edge 13, Type (0, 0), BuildingBlock: KIFKEQ_clean_linker_1, # of connection points: 2
#     Edge 14, Type (0, 0), BuildingBlock: KIFKEQ_clean_linker_1, # of connection points: 2
#     Edge 15, Type (0, 0), BuildingBlock: KIFKEQ_clean_linker_1, # of connection points: 2
#     Edge 16, Type (0, 0), BuildingBlock: KIFKEQ_clean_linker_1, # of connection points: 2
#     Edge 17, Type (0, 0), BuildingBlock: KIFKEQ_clean_linker_1, # of connection points: 2
#     Edge 18, Type (0, 0), BuildingBlock: KIFKEQ_clean_linker_1, # of connection points: 2
#     Edge 19, Type (0, 0), BuildingBlock: KIFKEQ_clean_linker_1, # of connection points: 2
#     Edge 20, Type (0, 0), BuildingBlock: KIFKEQ_clean_linker_1, # of connection points: 2
# Relax obj value: 0.166
# Max RMSD: 0.120
# Mean RMSD: 0.120
data_MOF--net-wli--node1-BEQFEK_clean_sbu_0--edge1-KIFKEQ_clean_linker_1
_symmetry_space_group_name_H-M    P1
_symmetry_Int_Tables_number       1
_symmetry_cell_setting            triclinic
loop_
_symmetry_equiv_pos_as_xyz
'x, y, z'
_cell_length_a     37.239485
_cell_length_b     37.243698
_cell_length_c     28.674619
_cell_angle_alpha  89.935846
_cell_angle_beta   90.064346
_cell_angle_gamma 120.02003
loop_
_atom_site_label
_atom_site_type_symbol
_atom_site_fract_x
_atom_site_fract_y
_atom_site_fract_z
_atom_type_partial_charge
Co0 Co 0.20314 0.43527 0.99112 0.0
Co1 Co 0.13209 0.37073 0.05643 0.0
C2 C 0.20218 0.35878 0.02634 0.0
O3 O 0.21829 0.39252 0.00342 0.0
O4 O 0.16849 0.34582 0.04902 0.0
C5 C 0.28702 0.48914 0.96298 0.0
O6 O 0.29433 0.46743 0.99378 0.0
C7 C 0.09082 0.32816 0.14418 0.0
C8 C 0.02529 0.30623 0.12655 0.0
C9 C 0.05087 0.30794 0.16267 0.0
N10 N 0.08865 0.33819 0.09956 0.0
N11 N 0.04932 0.32438 0.08912 0.0
C12 C 0.13078 0.34112 0.16909 0.0
H13 H 0.15724 0.3658 0.14925 0.0
H14 H 0.12992 0.35225 0.20474 0.0
H15 H 0.13543 0.31403 0.17219 0.0
C16 C 0.2083 0.49282 0.06503 0.0
N17 N 0.19239 0.45422 0.04775 0.0
N18 N 0.16196 0.4279 0.0748 0.0
C19 C 0.1568 0.44939 0.10955 0.0
C20 C 0.18621 0.49117 0.1047 0.0
C21 C 0.24435 0.53028 0.04391 0.0
H22 H 0.27036 0.52424 0.03913 0.0
H23 H 0.25528 0.55815 0.06617 0.0
H24 H 0.2354 0.53628 0.00909 0.0
O25 O 0.15356 0.41226 0.94981 0.0
O26 O 0.10445 0.3664 0.99642 0.0
H27 H 0.115 0.45561 0.15688 0.0
H28 H 0.12858 0.4172 0.17274 0.0
C29 C 0.12117 0.43142 0.14302 0.0
H30 H 0.09276 0.40732 0.12554 0.0
H31 H 0.03898 0.32862 0.05686 0.0
O32 O 0.24996 0.48126 0.95675 0.0
C33 C 0.11599 0.38448 0.95712 0.0
Co34 Co 0.57967 0.77448 0.65464 0.0
Co35 Co 0.64403 0.77191 0.72424 0.0
C36 C 0.65666 0.85204 0.68755 0.0
O37 O 0.62382 0.83271 0.66319 0.0
O38 O 0.66832 0.83285 0.71497 0.0
C39 C 0.52126 0.79981 0.63143 0.0
O40 O 0.53712 0.82309 0.66862 0.0
C41 C 0.69159 0.77794 0.81086 0.0
C42 C 0.70149 0.7248 0.80008 0.0
C43 C 0.70809 0.75555 0.83173 0.0
N44 N 0.67525 0.76046 0.76929 0.0
N45 N 0.68186 0.72909 0.76297 0.0
C46 C 0.69249 0.816 0.82924 0.0
H47 H 0.69288 0.83574 0.80009 0.0
H48 H 0.6643 0.80701 0.85031 0.0
H49 H 0.72007 0.83396 0.85178 0.0
C50 C 0.52143 0.72256 0.72881 0.0
N51 N 0.56022 0.7465 0.71233 0.0
N52 N 0.58687 0.7454 0.74172 0.0
C53 C 0.5657 0.72064 0.77792 0.0
C54 C 0.5236 0.70547 0.77098 0.0
C55 C 0.48297 0.71255 0.7021 0.0
H56 H 0.48732 0.70836 0.66466 0.0
H57 H 0.47694 0.73874 0.70539 0.0
H58 H 0.45561 0.68398 0.71541 0.0
O59 O 0.60206 0.74637 0.61638 0.0
O60 O 0.64921 0.74736 0.66468 0.0
H61 H 0.60092 0.69419 0.80485 0.0
H62 H 0.5624 0.69198 0.845 0.0
C63 C 0.58531 0.71093 0.81789 0.0
H64 H 0.60891 0.74019 0.83418 0.0
H65 H 0.67202 0.70988 0.7337 0.0
O66 O 0.53448 0.77568 0.61921 0.0
C67 C 0.63087 0.73843 0.62528 0.0
Co68 Co 0.24304 0.81609 0.31848 0.0
Co69 Co 0.24725 0.88383 0.38716 0.0
C70 C 0.16645 0.8176 0.35084 0.0
O71 O 0.18536 0.8039 0.32616 0.0
O72 O 0.186 0.84786 0.37888 0.0
C73 C 0.2121 0.7319 0.29252 0.0
O74 O 0.1853 0.72551 0.32578 0.0
C75 C 0.24652 0.92583 0.47496 0.0
C76 C 0.29377 0.99042 0.45798 0.0
C77 C 0.26847 0.96561 0.49368 0.0
N78 N 0.259 0.92729 0.43059 0.0
N79 N 0.28663 0.96614 0.42053 0.0
C80 C 0.21718 0.88651 0.49962 0.0
H81 H 0.2134 0.85921 0.47984 0.0
H82 H 0.22842 0.88636 0.53545 0.0
H83 H 0.18646 0.88439 0.50237 0.0
C84 C 0.29236 0.8071 0.39394 0.0
N85 N 0.27024 0.82375 0.37677 0.0
N86 N 0.27337 0.8529 0.40528 0.0
C87 C 0.29843 0.85621 0.44113 0.0
C88 C 0.31095 0.82707 0.43534 0.0
C89 C 0.2954 0.77269 0.37083 0.0
H90 H 0.26388 0.74537 0.36747 0.0
H91 H 0.31468 0.7632 0.39099 0.0
H92 H 0.30839 0.78249 0.33526 0.0
O93 O 0.27303 0.86656 0.27976 0.0
O94 O 0.27175 0.91268 0.32759 0.0
H95 H 0.34365 0.89455 0.49315 0.0
H96 H 0.29113 0.88174 0.50469 0.0
C97 C 0.31462 0.89003 0.47689 0.0
H98 H 0.32102 0.91961 0.46062 0.0
H99 H 0.30197 0.97587 0.38862 0.0
O100 O 0.24056 0.7688 0.28374 0.0
C101 C 0.28117 0.9034 0.28854 0.0
Co102 Co 0.43526 0.2098 0.00519 0.0
Co103 Co 0.37286 0.13901 0.93827 0.0
C104 C 0.35866 0.20769 0.96998 0.0
O105 O 0.39258 0.22488 0.99258 0.0
O106 O 0.34648 0.174 0.94758 0.0
C107 C 0.47341 0.27577 0.07105 0.0
O108 O 0.43468 0.26321 0.0822 0.0
C109 C 0.3322 0.10129 0.84879 0.0
C110 C 0.31163 0.03529 0.86165 0.0
C111 C 0.31308 0.06239 0.82752 0.0
N112 N 0.34214 0.09712 0.8928 0.0
N113 N 0.32928 0.05752 0.90039 0.0
C114 C 0.33982 0.14166 0.82881 0.0
H115 H 0.34095 0.16256 0.85698 0.0
H116 H 0.37022 0.15724 0.81077 0.0
H117 H 0.31519 0.13655 0.80341 0.0
C118 C 0.49463 0.21643 0.93364 0.0
N119 N 0.45543 0.20055 0.94887 0.0
N120 N 0.43013 0.17032 0.921 0.0
C121 C 0.45289 0.16526 0.88769 0.0
C122 C 0.49451 0.19447 0.89455 0.0
C123 C 0.53152 0.25122 0.9572 0.0
H124 H 0.53701 0.24006 0.99089 0.0
H125 H 0.52521 0.27676 0.96466 0.0
H126 H 0.55976 0.26344 0.93528 0.0
O127 O 0.41229 0.15938 0.04534 0.0
O128 O 0.36863 0.11003 0.99721 0.0
H129 H 0.41336 0.10059 0.87287 0.0
H130 H 0.46107 0.12467 0.84016 0.0
C131 C 0.4361 0.12932 0.85467 0.0
H132 H 0.42016 0.13507 0.82542 0.0
H133 H 0.33348 0.04578 0.9317 0.0
O134 O 0.48095 0.2567 0.0393 0.0
C135 C 0.38583 0.1215 0.03699 0.0
Co136 Co 0.81229 0.23955 0.674 0.0
Co137 Co 0.87934 0.24152 0.60548 0.0
C138 C 0.81232 0.16178 0.64373 0.0
O139 O 0.79849 0.18124 0.66719 0.0
O140 O 0.84317 0.18074 0.61631 0.0
C141 C 0.74734 0.21406 0.74051 0.0
O142 O 0.76177 0.19008 0.75451 0.0
C143 C 0.91958 0.23389 0.51941 0.0
C144 C 0.98224 0.28847 0.5272 0.0
C145 C 0.95759 0.25667 0.49676 0.0
N146 N 0.92163 0.25227 0.56054 0.0
N147 N 0.95943 0.28438 0.56523 0.0
C148 C 0.88217 0.19495 0.50305 0.0
H149 H 0.86553 0.17483 0.53317 0.0
H150 H 0.86058 0.20277 0.48509 0.0
H151 H 0.89111 0.17772 0.47854 0.0
C152 C 0.80524 0.28951 0.59871 0.0
N153 N 0.82038 0.26599 0.61557 0.0
N154 N 0.8483 0.26715 0.58654 0.0
C155 C 0.85185 0.29174 0.55014 0.0
C156 C 0.82467 0.30667 0.55664 0.0
C157 C 0.77661 0.2992 0.62543 0.0
H158 H 0.78876 0.30902 0.66131 0.0
H159 H 0.74578 0.27071 0.62821 0.0
H160 H 0.77301 0.32405 0.60863 0.0
O161 O 0.86298 0.26919 0.7122 0.0
O162 O 0.90916 0.26778 0.66435 0.0
H163 H 0.91394 0.31903 0.52439 0.0
H164 H 0.87789 0.32106 0.48359 0.0
C165 C 0.88177 0.30205 0.51074 0.0
H166 H 0.8767 0.27305 0.4943 0.0
H167 H 0.96924 0.30445 0.59376 0.0
O168 O 0.76502 0.23881 0.70671 0.0
C169 C 0.89988 0.27751 0.70329 0.0
Co170 Co 0.78006 0.58314 0.34299 0.0
Co171 Co 0.77521 0.64615 0.27348 0.0
C172 C 0.85643 0.66032 0.31029 0.0
O173 O 0.8379 0.62763 0.33491 0.0
O174 O 0.83646 0.67103 0.28286 0.0
C175 C 0.81018 0.53006 0.37242 0.0
O176 O 0.83908 0.55181 0.34156 0.0
C177 C 0.7791 0.68652 0.1829 0.0
C178 C 0.73807 0.71225 0.1969 0.0
C179 C 0.7618 0.70828 0.16231 0.0
N180 N 0.76557 0.67763 0.22725 0.0
N181 N 0.74137 0.69344 0.2354 0.0
C182 C 0.80958 0.67613 0.16195 0.0
H183 H 0.82811 0.67218 0.18967 0.0
H184 H 0.79281 0.64655 0.14247 0.0
H185 H 0.83041 0.70078 0.13727 0.0
C186 C 0.72825 0.52402 0.27022 0.0
N187 N 0.75231 0.56322 0.28527 0.0
N188 N 0.74841 0.5888 0.25674 0.0
C189 C 0.72072 0.56633 0.22316 0.0
C190 C 0.70731 0.52459 0.23046 0.0
C191 C 0.72422 0.48671 0.29483 0.0
H192 H 0.71052 0.4842 0.32986 0.0
H193 H 0.75544 0.49044 0.29952 0.0
H194 H 0.70487 0.45775 0.27498 0.0
O195 O 0.75115 0.60522 0.38073 0.0
O196 O 0.75034 0.65156 0.33249 0.0
H197 H 0.69812 0.60782 0.20687 0.0
H198 H 0.6716 0.55892 0.1766 0.0
C199 C 0.70217 0.58347 0.18968 0.0
H200 H 0.72315 0.59729 0.15943 0.0
H201 H 0.72652 0.69084 0.2671 0.0
O202 O 0.78096 0.53785 0.37869 0.0
C203 C 0.7421 0.6333 0.37192 0.0
H204 H 0.16156 0.64923 0.30973 0.0
H205 H 0.25647 0.73457 0.21534 0.0
H206 H 0.15579 0.5909 0.26491 0.0
H207 H 0.25072 0.67614 0.17069 0.0
H208 H 0.19001 0.56205 0.07337 0.0
H209 H 0.19756 0.62052 0.11959 0.0
H210 H 0.19768 0.55718 0.24584 0.0
H211 H 0.19074 0.4989 0.19928 0.0
C212 C 0.18128 0.65556 0.27952 0.0
C213 C 0.20939 0.69655 0.26601 0.0
C214 C 0.17811 0.62213 0.25402 0.0
C215 C 0.20273 0.62897 0.21426 0.0
C216 C 0.23102 0.66994 0.20091 0.0
C217 C 0.23445 0.70338 0.22663 0.0
C218 C 0.1922 0.56094 0.11097 0.0
C219 C 0.19034 0.52632 0.13284 0.0
C220 C 0.19647 0.59433 0.1374 0.0
C221 C 0.19845 0.59352 0.18631 0.0
C222 C 0.19597 0.55855 0.20822 0.0
C223 C 0.19205 0.52528 0.18168 0.0
H224 H 0.45902 0.71126 0.80667 0.0
H225 H 0.50924 0.62933 0.79746 0.0
H226 H 0.40142 0.65982 0.85401 0.0
H227 H 0.45175 0.57769 0.84424 0.0
H228 H 0.36942 0.51432 0.96942 0.0
H229 H 0.42623 0.5674 0.92364 0.0
H230 H 0.33972 0.59133 0.8485 0.0
H231 H 0.28284 0.53874 0.89508 0.0
C232 C 0.45754 0.68213 0.81479 0.0
C233 C 0.48864 0.6743 0.79915 0.0
C234 C 0.42459 0.65265 0.84166 0.0
C235 C 0.42214 0.61475 0.8532 0.0
C236 C 0.45314 0.60687 0.83683 0.0
C237 C 0.486 0.63633 0.81002 0.0
C238 C 0.36247 0.53096 0.94326 0.0
C239 C 0.32156 0.52219 0.93582 0.0
C240 C 0.39504 0.56124 0.91679 0.0
C241 C 0.3875 0.58344 0.8822 0.0
C242 C 0.34664 0.57507 0.87518 0.0
C243 C 0.31402 0.54477 0.90171 0.0
H244 H 0.30815 0.81502 0.52914 0.0
H245 H 0.38133 0.82825 0.40705 0.0
H246 H 0.35798 0.80714 0.57765 0.0
H247 H 0.43103 0.82012 0.45518 0.0
H248 H 0.48684 0.76101 0.54888 0.0
H249 H 0.43496 0.76641 0.50217 0.0
H250 H 0.43079 0.84943 0.60423 0.0
H251 H 0.48241 0.84381 0.65123 0.0
C252 C 0.33491 0.81615 0.5128 0.0
C253 C 0.34075 0.82167 0.46443 0.0
C254 C 0.36345 0.81178 0.54047 0.0
C255 C 0.39832 0.81278 0.52019 0.0
C256 C 0.4041 0.81846 0.47172 0.0
C257 C 0.3757 0.82306 0.44417 0.0
C258 C 0.47477 0.7803 0.56148 0.0
C259 C 0.48887 0.80208 0.60374 0.0
C260 C 0.44521 0.78356 0.53457 0.0
C261 C 0.42888 0.80845 0.54944 0.0
C262 C 0.4425 0.82971 0.59205 0.0
C263 C 0.47225 0.82665 0.61884 0.0
H264 H 0.55916 0.19215 0.9353 0.0
H265 H 0.51138 0.20115 0.8014 0.0
H266 H 0.62035 0.1975 0.89768 0.0
H267 H 0.57221 0.20528 0.76314 0.0
H268 H 0.70877 0.25824 0.71925 0.0
H269 H 0.64714 0.25297 0.75578 0.0
H270 H 0.63958 0.15743 0.84769 0.0
H271 H 0.7015 0.16319 0.81188 0.0
C272 C 0.56192 0.19537 0.89773 0.0
C273 C 0.53095 0.19673 0.87118 0.0
C274 C 0.5967 0.19798 0.87611 0.0
C275 C 0.6012 0.20183 0.82739 0.0
C276 C 0.56992 0.20285 0.80078 0.0
C277 C 0.53503 0.20019 0.82252 0.0
C278 C 0.694 0.23617 0.74733 0.0
C279 C 0.71016 0.21125 0.76278 0.0
C280 C 0.65851 0.23295 0.76802 0.0
C281 C 0.63845 0.20479 0.80466 0.0
C282 C 0.6546 0.17983 0.81998 0.0
C283 C 0.69003 0.18302 0.7993 0.0
H284 H 0.75506 0.47849 0.4381 0.0
H285 H 0.8678 0.50544 0.36623 0.0
H286 H 0.75804 0.42407 0.48246 0.0
H287 H 0.87027 0.4506 0.40983 0.0
H288 H 0.88742 0.38342 0.53395 0.0
H289 H 0.88321 0.43697 0.4891 0.0
H290 H 0.75107 0.3556 0.4731 0.0
H291 H 0.75558 0.30218 0.51849 0.0
C292 C 0.78036 0.4727 0.43161 0.0
C293 C 0.8113 0.49644 0.39878 0.0
C294 C 0.78192 0.44134 0.45683 0.0
C295 C 0.81446 0.43307 0.44978 0.0
C296 C 0.84514 0.45659 0.41661 0.0
C297 C 0.84358 0.4879 0.39143 0.0
C298 C 0.85761 0.37699 0.52042 0.0
C299 C 0.82188 0.33872 0.52909 0.0
C300 C 0.85515 0.40755 0.49472 0.0
C301 C 0.81683 0.40048 0.47728 0.0
C302 C 0.78098 0.36216 0.48639 0.0
C303 C 0.78351 0.33156 0.51211 0.0
H304 H 0.55669 0.31128 0.05432 0.0
H305 H 0.46788 0.32338 0.13996 0.0
H306 H 0.61312 0.37191 0.09229 0.0
H307 H 0.52423 0.38432 0.17728 0.0
H308 H 0.63767 0.46181 0.26958 0.0
H309 H 0.58142 0.40157 0.23074 0.0
H310 H 0.64255 0.44739 0.09807 0.0
H311 H 0.69945 0.50722 0.13756 0.0
C312 C 0.54918 0.3269 0.08117 0.0
C313 C 0.50776 0.31239 0.09422 0.0
C314 C 0.58152 0.36182 0.10268 0.0
C315 C 0.57318 0.38294 0.1378 0.0
C316 C 0.53175 0.36844 0.15077 0.0
C317 C 0.49942 0.33359 0.12922 0.0
C318 C 0.63914 0.4587 0.23217 0.0
C319 C 0.67299 0.48864 0.20651 0.0
C320 C 0.60679 0.4245 0.20985 0.0
C321 C 0.60754 0.41963 0.16131 0.0
C322 C 0.64133 0.44996 0.13558 0.0
C323 C 0.6737 0.48427 0.15801 0.0
H324 H 0.892 0.30103 0.7914 0.0
H325 H 0.98177 0.29993 0.69672 0.0
H326 H 0.94499 0.33092 0.85185 0.0
H327 H 0.0344 0.32903 0.75751 0.0
H328 H 0.12802 0.41302 0.86688 0.0
H329 H 0.07628 0.39121 0.8048 0.0
H330 H 0.98211 0.30617 0.89997 0.0
H331 H 0.03324 0.32826 0.96194 0.0
C332 C 0.92302 0.30726 0.78338 0.0
C333 C 0.93252 0.29779 0.73928 0.0
C334 C 0.95334 0.32422 0.81812 0.0
C335 C 0.99381 0.3321 0.80954 0.0
C336 C 0.00362 0.32371 0.76507 0.0
C337 C 0.97332 0.30674 0.73033 0.0
C338 C 0.09623 0.38984 0.87459 0.0
C339 C 0.08485 0.37235 0.91939 0.0
C340 C 0.06665 0.37723 0.83898 0.0
C341 C 0.0251 0.34702 0.84751 0.0
C342 C 0.01371 0.32997 0.89242 0.0
C343 C 0.04318 0.34245 0.9279 0.0
H344 H 0.72283 0.60398 0.46136 0.0
H345 H 0.7173 0.69101 0.36578 0.0
H346 H 0.69315 0.62648 0.52257 0.0
H347 H 0.6883 0.71386 0.42726 0.0
H348 H 0.60165 0.71815 0.53592 0.0
H349 H 0.62575 0.68991 0.47479 0.0
H350 H 0.71495 0.68862 0.57021 0.0
H351 H 0.69049 0.71618 0.63163 0.0
C352 C 0.71523 0.62783 0.45332 0.0
C353 C 0.72259 0.64577 0.40865 0.0
C354 C 0.69843 0.64086 0.48851 0.0
C355 C 0.6885 0.67202 0.47979 0.0
C356 C 0.69518 0.68945 0.43493 0.0
C357 C 0.71205 0.6765 0.39976 0.0
C358 C 0.62623 0.71163 0.54401 0.0
C359 C 0.64422 0.71959 0.58868 0.0
C360 C 0.64018 0.69565 0.50887 0.0
C361 C 0.67234 0.68718 0.51763 0.0
C362 C 0.6898 0.69439 0.56251 0.0
C363 C 0.67592 0.71044 0.59764 0.0
H364 H 0.33205 0.03824 0.03037 0.0
H365 H 0.41321 0.13305 0.12763 0.0
H366 H 0.31056 0.9864 0.09153 0.0
H367 H 0.39214 0.08067 0.1888 0.0
H368 H 0.30575 0.89637 0.20053 0.0
H369 H 0.33525 0.94975 0.14033 0.0
H370 H 0.32997 0.03742 0.23458 0.0
H371 H 0.30137 0.98457 0.29495 0.0
C372 C 0.3456 0.04804 0.06472 0.0
C373 C 0.37423 0.08992 0.07412 0.0
C374 C 0.33348 0.01817 0.09971 0.0
C375 C 0.34968 0.02938 0.145 0.0
C376 C 0.37878 0.07114 0.15434 0.0
C377 C 0.39097 0.10111 0.11924 0.0
C378 C 0.31115 0.92711 0.20853 0.0
C379 C 0.30096 0.93608 0.25251 0.0
C380 C 0.32789 0.95764 0.17396 0.0
C381 C 0.3348 0.99777 0.18263 0.0
C382 C 0.32552 0.00698 0.22695 0.0
C383 C 0.30882 0.97651 0.26148 0.0
H384 H 0.38118 0.28727 0.95111 0.0
H385 H 0.27784 0.17113 0.99659 0.0
H386 H 0.34123 0.32162 0.96455 0.0
H387 H 0.23849 0.20578 0.01424 0.0
H388 H 0.16644 0.27592 0.0091 0.0
H389 H 0.20207 0.23751 0.99154 0.0
H390 H 0.31962 0.34718 0.02289 0.0
H391 H 0.28392 0.38575 0.03633 0.0
C392 C 0.3497 0.26917 0.96396 0.0
C393 C 0.33235 0.22668 0.97254 0.0
C394 C 0.3269 0.28891 0.97253 0.0
C395 C 0.2867 0.26692 0.99174 0.0
C396 C 0.26904 0.2239 0.9991 0.0
C397 C 0.29152 0.20391 0.98905 0.0
C398 C 0.19986 0.2914 0.01264 0.0
C399 C 0.22256 0.33368 0.0239 0.0
C400 C 0.22043 0.26946 0.00262 0.0
C401 C 0.26408 0.2892 0.0048 0.0
C402 C 0.28626 0.33105 0.01889 0.0
C403 C 0.26582 0.35316 0.02744 0.0
H404 H 0.81297 0.10444 0.5842 0.0
H405 H 0.76749 0.11662 0.71844 0.0
H406 H 0.77821 0.02906 0.59528 0.0
H407 H 0.73363 0.04177 0.72961 0.0
H408 H 0.71406 0.90893 0.74814 0.0
H409 H 0.7552 0.98439 0.73759 0.0
H410 H 0.69903 0.97267 0.60259 0.0
H411 H 0.65755 0.89783 0.61322 0.0
C412 C 0.79588 0.09111 0.61611 0.0
C413 C 0.79268 0.1164 0.65025 0.0
C414 C 0.77601 0.04808 0.62241 0.0
C415 C 0.75343 0.02978 0.66338 0.0
C416 C 0.75115 0.05516 0.69794 0.0
C417 C 0.77025 0.09795 0.69128 0.0
C418 C 0.71063 0.92252 0.71622 0.0
C419 C 0.68237 0.8975 0.68169 0.0
C420 C 0.73408 0.96558 0.71023 0.0
C421 C 0.73033 0.98416 0.66918 0.0
C422 C 0.70277 0.95906 0.63433 0.0
C423 C 0.6788 0.91626 0.64068 0.0
H424 H 0.10971 0.81762 0.41201 0.0
H425 H 0.12058 0.77437 0.27582 0.0
H426 H 0.03418 0.78307 0.40187 0.0
H427 H 0.04569 0.74074 0.26564 0.0
H428 H 0.9123 0.71879 0.24968 0.0
H429 H 0.98777 0.76098 0.25962 0.0
H430 H 0.97801 0.70449 0.39399 0.0
H431 H 0.90322 0.66207 0.384 0.0
C432 C 0.09606 0.80111 0.37987 0.0
C433 C 0.12103 0.79843 0.34492 0.0
C434 C 0.05296 0.78136 0.3741 0.0
C435 C 0.03426 0.75942 0.33289 0.0
C436 C 0.05935 0.75777 0.29752 0.0
C437 C 0.10219 0.77674 0.30361 0.0
C438 C 0.92632 0.71555 0.28135 0.0
C439 C 0.90186 0.6869 0.31585 0.0
C440 C 0.96939 0.73961 0.28701 0.0
C441 C 0.98855 0.73606 0.3277 0.0
C442 C 0.96397 0.70816 0.36256 0.0
C443 C 0.92119 0.68361 0.35655 0.0
H444 H 0.03445 0.27928 0.46377 0.0
H445 H 0.90789 0.23156 0.41865 0.0
H446 H 0.05665 0.28735 0.3826 0.0
H447 H 0.92954 0.23708 0.33803 0.0
H448 H 0.98928 0.31263 0.2069 0.0
H449 H 0.96577 0.29412 0.28671 0.0
H450 H 0.05635 0.25557 0.30889 0.0
H451 H 0.08026 0.27467 0.2285 0.0
C452 C 0.01118 0.26934 0.43658 0.0
C453 C 0.96928 0.25415 0.44792 0.0
C454 C 0.02389 0.27373 0.39002 0.0
C455 C 0.99495 0.26315 0.35367 0.0
C456 C 0.95277 0.24608 0.36511 0.0
C457 C 0.94014 0.24201 0.41162 0.0
C458 C 0.0041 0.3 0.22866 0.0
C459 C 0.03708 0.29574 0.2115 0.0
C460 C 0.9904 0.28907 0.27445 0.0
C461 C 0.00896 0.27307 0.30432 0.0
C462 C 0.0417 0.26829 0.28702 0.0
C463 C 0.05559 0.27946 0.24102 0.0
H464 H 0.68194 0.77417 0.91298 0.0
H465 H 0.76901 0.7402 0.85899 0.0
H466 H 0.70191 0.76836 0.99214 0.0
H467 H 0.78934 0.73458 0.93842 0.0
H468 H 0.76375 0.66881 0.08223 0.0
H469 H 0.75753 0.68685 0.00232 0.0
H470 H 0.75505 0.79527 0.05129 0.0
H471 H 0.76108 0.77692 0.1315 0.0
C472 C 0.70645 0.76697 0.91789 0.0
C473 C 0.72438 0.75834 0.8796 0.0
C474 C 0.71779 0.76336 0.96345 0.0
C475 C 0.74721 0.75088 0.97179 0.0
C476 C 0.76618 0.74369 0.93335 0.0
C477 C 0.75474 0.74719 0.88784 0.0
C478 C 0.76332 0.69722 0.07598 0.0
C479 C 0.76361 0.72178 0.11326 0.0
C480 C 0.7595 0.70752 0.03001 0.0
C481 C 0.75572 0.74254 0.02024 0.0
C482 C 0.75733 0.7678 0.05752 0.0
C483 C 0.76103 0.75742 0.10347 0.0
H484 H 0.3466 0.10945 0.74813 0.0
H485 H 0.25343 0.98754 0.79462 0.0
H486 H 0.33061 0.08717 0.66789 0.0
H487 H 0.23953 0.96418 0.71387 0.0
H488 H 0.20581 0.94208 0.55849 0.0
H489 H 0.21248 0.96714 0.63871 0.0
H490 H 0.34467 0.04526 0.61878 0.0
H491 H 0.33772 0.02106 0.53912 0.0
C492 C 0.3219 0.07822 0.74148 0.0
C493 C 0.30071 0.05063 0.77815 0.0
C494 C 0.31336 0.06505 0.69516 0.0
C495 C 0.28411 0.02367 0.68422 0.0
C496 C 0.26197 0.99637 0.72082 0.0
C497 C 0.27019 0.00971 0.76719 0.0
C498 C 0.23624 0.96432 0.57153 0.0
C499 C 0.27127 0.97939 0.54263 0.0
C500 C 0.2401 0.97881 0.61743 0.0
C501 C 0.27909 0.00855 0.63524 0.0
C502 C 0.31398 0.02324 0.60611 0.0
C503 C 0.31006 0.0091 0.5604 0.0
loop_
_geom_bond_atom_site_label_1
_geom_bond_atom_site_label_2
_geom_bond_distance
_geom_bond_site_symmetry_2
_ccdc_geom_bond_type
Co0 O3 1.970 . S
Co0 N17 1.989 1_556 S
Co0 O25 1.967 . S
Co0 O32 1.920 . S
Co1 O4 1.966 . S
Co1 N10 2.022 . S
Co1 N18 1.993 . S
Co1 O26 1.941 1_554 S
C2 O3 1.258 1_554 S
C2 O4 1.263 . S
O3 Co0 1.970 . S
O3 C2 1.258 1_556 S
O4 Co1 1.966 . S
O4 C2 1.263 . S
C5 O6 1.235 . S
C5 O32 1.289 . S
O6 C5 1.235 . S
C7 C9 1.400 . S
C7 N10 1.351 . S
C7 C12 1.501 . S
C8 C9 1.387 . S
C8 N11 1.341 . S
C9 C7 1.400 . S
C9 C8 1.387 . S
N10 Co1 2.022 . S
N10 C7 1.351 . S
N10 N11 1.365 . S
N11 C8 1.341 . S
N11 N10 1.365 . S
N11 H31 0.862 . S
C12 C7 1.501 . S
C12 H13 0.961 . S
C12 H14 0.961 . S
C12 H15 0.960 . S
H13 C12 0.961 . S
H14 C12 0.961 . S
H15 C12 0.960 . S
C16 N17 1.342 . S
C16 C20 1.401 . S
C16 C21 1.499 . S
N17 Co0 1.989 1_554 S
N17 C16 1.342 . S
N17 N18 1.388 . S
N18 Co1 1.993 . S
N18 N17 1.388 . S
N18 C19 1.346 . S
C19 N18 1.346 . S
C19 C20 1.396 . S
C19 C29 1.510 . S
C20 C16 1.401 . S
C20 C19 1.396 . S
C21 C16 1.499 . S
C21 H22 0.959 1_554 S
C21 H23 0.960 . S
C21 H24 0.960 1_554 S
H22 C21 0.959 1_556 S
H23 C21 0.960 . S
H24 C21 0.960 1_556 S
O25 Co0 1.967 . S
O25 C33 1.258 . S
O26 Co1 1.941 1_556 S
O26 C33 1.266 . S
H27 C29 0.959 . S
H28 C29 0.961 . S
C29 C19 1.510 . S
C29 H27 0.959 . S
C29 H28 0.961 . S
C29 H30 0.960 . S
H30 C29 0.960 . S
H31 N11 0.862 . S
O32 Co0 1.920 . S
O32 C5 1.289 . S
C33 O25 1.258 . S
C33 O26 1.266 . S
Co34 O37 1.970 . S
Co34 N51 1.989 . S
Co34 O59 1.967 . S
Co34 O66 1.920 . S
Co35 O38 1.966 . S
Co35 N44 2.022 . S
Co35 N52 1.993 . S
Co35 O60 1.941 . S
C36 O37 1.258 . S
C36 O38 1.263 . S
O37 Co34 1.970 . S
O37 C36 1.258 . S
O38 Co35 1.966 . S
O38 C36 1.263 . S
C39 O40 1.235 . S
C39 O66 1.289 . S
O40 C39 1.235 . S
C41 C43 1.400 . S
C41 N44 1.351 . S
C41 C46 1.501 . S
C42 C43 1.387 . S
C42 N45 1.341 . S
C43 C41 1.400 . S
C43 C42 1.387 . S
N44 Co35 2.022 . S
N44 C41 1.351 . S
N44 N45 1.365 . S
N45 C42 1.341 . S
N45 N44 1.365 . S
N45 H65 0.862 . S
C46 C41 1.501 . S
C46 H47 0.961 . S
C46 H48 0.961 . S
C46 H49 0.960 . S
H47 C46 0.961 . S
H48 C46 0.961 . S
H49 C46 0.960 . S
C50 N51 1.342 . S
C50 C54 1.401 . S
C50 C55 1.499 . S
N51 Co34 1.989 . S
N51 C50 1.342 . S
N51 N52 1.388 . S
N52 Co35 1.993 . S
N52 N51 1.388 . S
N52 C53 1.346 . S
C53 N52 1.346 . S
C53 C54 1.396 . S
C53 C63 1.510 . S
C54 C50 1.401 . S
C54 C53 1.396 . S
C55 C50 1.499 . S
C55 H56 0.959 . S
C55 H57 0.960 . S
C55 H58 0.961 . S
H56 C55 0.959 . S
H57 C55 0.960 . S
H58 C55 0.961 . S
O59 Co34 1.967 . S
O59 C67 1.258 . S
O60 Co35 1.941 . S
O60 C67 1.266 . S
H61 C63 0.959 . S
H62 C63 0.961 . S
C63 C53 1.510 . S
C63 H61 0.959 . S
C63 H62 0.961 . S
C63 H64 0.960 . S
H64 C63 0.960 . S
H65 N45 0.862 . S
O66 Co34 1.920 . S
O66 C39 1.289 . S
C67 O59 1.258 . S
C67 O60 1.266 . S
Co68 O71 1.970 . S
Co68 N85 1.989 . S
Co68 O93 1.967 . S
Co68 O100 1.920 . S
Co69 O72 1.966 . S
Co69 N78 2.022 . S
Co69 N86 1.993 . S
Co69 O94 1.941 . S
C70 O71 1.258 . S
C70 O72 1.263 . S
O71 Co68 1.970 . S
O71 C70 1.258 . S
O72 Co69 1.966 . S
O72 C70 1.263 . S
C73 O74 1.235 . S
C73 O100 1.289 . S
O74 C73 1.235 . S
C75 C77 1.400 . S
C75 N78 1.351 . S
C75 C80 1.501 . S
C76 C77 1.387 . S
C76 N79 1.341 . S
C77 C75 1.400 . S
C77 C76 1.387 . S
N78 Co69 2.022 . S
N78 C75 1.351 . S
N78 N79 1.365 . S
N79 C76 1.341 . S
N79 N78 1.365 . S
N79 H99 0.862 . S
C80 C75 1.501 . S
C80 H81 0.961 . S
C80 H82 0.961 . S
C80 H83 0.960 . S
H81 C80 0.961 . S
H82 C80 0.961 . S
H83 C80 0.960 . S
C84 N85 1.342 . S
C84 C88 1.401 . S
C84 C89 1.499 . S
N85 Co68 1.989 . S
N85 C84 1.342 . S
N85 N86 1.388 . S
N86 Co69 1.993 . S
N86 N85 1.388 . S
N86 C87 1.346 . S
C87 N86 1.346 . S
C87 C88 1.396 . S
C87 C97 1.510 . S
C88 C84 1.401 . S
C88 C87 1.396 . S
C89 C84 1.499 . S
C89 H90 0.959 . S
C89 H91 0.960 . S
C89 H92 0.961 . S
H90 C89 0.959 . S
H91 C89 0.960 . S
H92 C89 0.961 . S
O93 Co68 1.967 . S
O93 C101 1.258 . S
O94 Co69 1.941 . S
O94 C101 1.266 . S
H95 C97 0.959 . S
H96 C97 0.961 . S
C97 C87 1.510 . S
C97 H95 0.959 . S
C97 H96 0.961 . S
C97 H98 0.960 . S
H98 C97 0.960 . S
H99 N79 0.862 . S
O100 Co68 1.920 . S
O100 C73 1.289 . S
C101 O93 1.258 . S
C101 O94 1.266 . S
Co102 O105 1.970 . S
Co102 N119 1.989 1_554 S
Co102 O127 1.967 . S
Co102 O134 1.920 . S
Co103 O106 1.966 . S
Co103 N112 2.022 . S
Co103 N120 1.993 . S
Co103 O128 1.941 1_556 S
C104 O105 1.258 1_556 S
C104 O106 1.263 . S
O105 Co102 1.970 . S
O105 C104 1.258 1_554 S
O106 Co103 1.966 . S
O106 C104 1.263 . S
C107 O108 1.235 . S
C107 O134 1.289 . S
O108 C107 1.235 . S
C109 C111 1.400 . S
C109 N112 1.351 . S
C109 C114 1.501 . S
C110 C111 1.387 . S
C110 N113 1.341 . S
C111 C109 1.400 . S
C111 C110 1.387 . S
N112 Co103 2.022 . S
N112 C109 1.351 . S
N112 N113 1.365 . S
N113 C110 1.341 . S
N113 N112 1.365 . S
N113 H133 0.862 . S
C114 C109 1.501 . S
C114 H115 0.961 . S
C114 H116 0.961 . S
C114 H117 0.960 . S
H115 C114 0.961 . S
H116 C114 0.961 . S
H117 C114 0.960 . S
C118 N119 1.342 . S
C118 C122 1.401 . S
C118 C123 1.499 . S
N119 Co102 1.989 1_556 S
N119 C118 1.342 . S
N119 N120 1.388 . S
N120 Co103 1.993 . S
N120 N119 1.388 . S
N120 C121 1.346 . S
C121 N120 1.346 . S
C121 C122 1.396 . S
C121 C131 1.510 . S
C122 C118 1.401 . S
C122 C121 1.396 . S
C123 C118 1.499 . S
C123 H124 0.959 1_556 S
C123 H125 0.960 . S
C123 H126 0.960 1_556 S
H124 C123 0.959 1_554 S
H125 C123 0.960 . S
H126 C123 0.960 1_554 S
O127 Co102 1.967 . S
O127 C135 1.258 . S
O128 Co103 1.941 1_554 S
O128 C135 1.266 . S
H129 C131 0.959 . S
H130 C131 0.961 . S
C131 C121 1.510 . S
C131 H129 0.959 . S
C131 H130 0.961 . S
C131 H132 0.960 . S
H132 C131 0.960 . S
H133 N113 0.862 . S
O134 Co102 1.920 . S
O134 C107 1.289 . S
C135 O127 1.258 . S
C135 O128 1.266 . S
Co136 O139 1.970 . S
Co136 N153 1.989 . S
Co136 O161 1.967 . S
Co136 O168 1.920 . S
Co137 O140 1.966 . S
Co137 N146 2.022 . S
Co137 N154 1.993 . S
Co137 O162 1.941 . S
C138 O139 1.258 . S
C138 O140 1.263 . S
O139 Co136 1.970 . S
O139 C138 1.258 . S
O140 Co137 1.966 . S
O140 C138 1.263 . S
C141 O142 1.235 . S
C141 O168 1.289 . S
O142 C141 1.235 . S
C143 C145 1.400 . S
C143 N146 1.351 . S
C143 C148 1.501 . S
C144 C145 1.387 . S
C144 N147 1.341 . S
C145 C143 1.400 . S
C145 C144 1.387 . S
N146 Co137 2.022 . S
N146 C143 1.351 . S
N146 N147 1.365 . S
N147 C144 1.341 . S
N147 N146 1.365 . S
N147 H167 0.862 . S
C148 C143 1.501 . S
C148 H149 0.961 . S
C148 H150 0.961 . S
C148 H151 0.960 . S
H149 C148 0.961 . S
H150 C148 0.961 . S
H151 C148 0.960 . S
C152 N153 1.342 . S
C152 C156 1.401 . S
C152 C157 1.499 . S
N153 Co136 1.989 . S
N153 C152 1.342 . S
N153 N154 1.388 . S
N154 Co137 1.993 . S
N154 N153 1.388 . S
N154 C155 1.346 . S
C155 N154 1.346 . S
C155 C156 1.396 . S
C155 C165 1.510 . S
C156 C152 1.401 . S
C156 C155 1.396 . S
C157 C152 1.499 . S
C157 H158 0.959 . S
C157 H159 0.960 . S
C157 H160 0.961 . S
H158 C157 0.959 . S
H159 C157 0.960 . S
H160 C157 0.961 . S
O161 Co136 1.967 . S
O161 C169 1.258 . S
O162 Co137 1.941 . S
O162 C169 1.266 . S
H163 C165 0.959 . S
H164 C165 0.961 . S
C165 C155 1.510 . S
C165 H163 0.959 . S
C165 H164 0.961 . S
C165 H166 0.960 . S
H166 C165 0.960 . S
H167 N147 0.862 . S
O168 Co136 1.920 . S
O168 C141 1.289 . S
C169 O161 1.258 . S
C169 O162 1.266 . S
Co170 O173 1.970 . S
Co170 N187 1.989 . S
Co170 O195 1.967 . S
Co170 O202 1.920 . S
Co171 O174 1.966 . S
Co171 N180 2.022 . S
Co171 N188 1.993 . S
Co171 O196 1.941 . S
C172 O173 1.258 . S
C172 O174 1.263 . S
O173 Co170 1.970 . S
O173 C172 1.258 . S
O174 Co171 1.966 . S
O174 C172 1.263 . S
C175 O176 1.235 . S
C175 O202 1.289 . S
O176 C175 1.235 . S
C177 C179 1.400 . S
C177 N180 1.351 . S
C177 C182 1.501 . S
C178 C179 1.387 . S
C178 N181 1.341 . S
C179 C177 1.400 . S
C179 C178 1.387 . S
N180 Co171 2.022 . S
N180 C177 1.351 . S
N180 N181 1.365 . S
N181 C178 1.341 . S
N181 N180 1.365 . S
N181 H201 0.862 . S
C182 C177 1.501 . S
C182 H183 0.961 . S
C182 H184 0.961 . S
C182 H185 0.960 . S
H183 C182 0.961 . S
H184 C182 0.961 . S
H185 C182 0.960 . S
C186 N187 1.342 . S
C186 C190 1.401 . S
C186 C191 1.499 . S
N187 Co170 1.989 . S
N187 C186 1.342 . S
N187 N188 1.388 . S
N188 Co171 1.993 . S
N188 N187 1.388 . S
N188 C189 1.346 . S
C189 N188 1.346 . S
C189 C190 1.396 . S
C189 C199 1.510 . S
C190 C186 1.401 . S
C190 C189 1.396 . S
C191 C186 1.499 . S
C191 H192 0.959 . S
C191 H193 0.960 . S
C191 H194 0.961 . S
H192 C191 0.959 . S
H193 C191 0.960 . S
H194 C191 0.961 . S
O195 Co170 1.967 . S
O195 C203 1.258 . S
O196 Co171 1.941 . S
O196 C203 1.266 . S
H197 C199 0.959 . S
H198 C199 0.961 . S
C199 C189 1.510 . S
C199 H197 0.959 . S
C199 H198 0.961 . S
C199 H200 0.960 . S
H200 C199 0.960 . S
H201 N181 0.862 . S
O202 Co170 1.920 . S
O202 C175 1.289 . S
C203 O195 1.258 . S
C203 O196 1.266 . S
H204 C212 0.950 . S
H205 C217 0.950 . S
H206 C214 0.950 . S
H207 C216 0.950 . S
H208 C218 0.950 . S
H209 C220 0.950 . S
H210 C222 0.950 . S
H211 C223 0.950 . S
C212 H204 0.950 . S
C212 C213 1.386 . S
C212 C214 1.391 . S
C213 C212 1.386 . S
C213 C217 1.393 . S
C214 H206 0.950 . S
C214 C212 1.391 . S
C214 C215 1.400 . S
C215 C214 1.400 . S
C215 C216 1.398 . S
C215 C221 1.491 . S
C216 H207 0.950 . S
C216 C215 1.398 . S
C216 C217 1.391 . S
C217 H205 0.950 . S
C217 C213 1.393 . S
C217 C216 1.391 . S
C218 H208 0.950 . S
C218 C219 1.386 . S
C218 C220 1.391 . S
C219 C218 1.386 . S
C219 C223 1.393 . S
C220 H209 0.950 . S
C220 C218 1.391 . S
C220 C221 1.400 . S
C221 C215 1.491 . S
C221 C220 1.400 . S
C221 C222 1.398 . S
C222 H210 0.950 . S
C222 C221 1.398 . S
C222 C223 1.391 . S
C223 H211 0.950 . S
C223 C219 1.393 . S
C223 C222 1.391 . S
H224 C232 0.950 . S
H225 C237 0.950 . S
H226 C234 0.950 . S
H227 C236 0.950 . S
H228 C238 0.950 . S
H229 C240 0.950 . S
H230 C242 0.950 . S
H231 C243 0.950 . S
C232 H224 0.950 . S
C232 C233 1.386 . S
C232 C234 1.391 . S
C233 C232 1.386 . S
C233 C237 1.393 . S
C234 H226 0.950 . S
C234 C232 1.391 . S
C234 C235 1.400 . S
C235 C234 1.400 . S
C235 C236 1.398 . S
C235 C241 1.491 . S
C236 H227 0.950 . S
C236 C235 1.398 . S
C236 C237 1.391 . S
C237 H225 0.950 . S
C237 C233 1.393 . S
C237 C236 1.391 . S
C238 H228 0.950 . S
C238 C239 1.386 . S
C238 C240 1.391 . S
C239 C238 1.386 . S
C239 C243 1.393 . S
C240 H229 0.950 . S
C240 C238 1.391 . S
C240 C241 1.400 . S
C241 C235 1.491 . S
C241 C240 1.400 . S
C241 C242 1.398 . S
C242 H230 0.950 . S
C242 C241 1.398 . S
C242 C243 1.391 . S
C243 H231 0.950 . S
C243 C239 1.393 . S
C243 C242 1.391 . S
H244 C252 0.950 . S
H245 C257 0.950 . S
H246 C254 0.950 . S
H247 C256 0.950 . S
H248 C258 0.950 . S
H249 C260 0.950 . S
H250 C262 0.950 . S
H251 C263 0.950 . S
C252 H244 0.950 . S
C252 C253 1.386 . S
C252 C254 1.391 . S
C253 C252 1.386 . S
C253 C257 1.393 . S
C254 H246 0.950 . S
C254 C252 1.391 . S
C254 C255 1.400 . S
C255 C254 1.400 . S
C255 C256 1.398 . S
C255 C261 1.491 . S
C256 H247 0.950 . S
C256 C255 1.398 . S
C256 C257 1.391 . S
C257 H245 0.950 . S
C257 C253 1.393 . S
C257 C256 1.391 . S
C258 H248 0.950 . S
C258 C259 1.386 . S
C258 C260 1.391 . S
C259 C258 1.386 . S
C259 C263 1.393 . S
C260 H249 0.950 . S
C260 C258 1.391 . S
C260 C261 1.400 . S
C261 C255 1.491 . S
C261 C260 1.400 . S
C261 C262 1.398 . S
C262 H250 0.950 . S
C262 C261 1.398 . S
C262 C263 1.391 . S
C263 H251 0.950 . S
C263 C259 1.393 . S
C263 C262 1.391 . S
H264 C272 0.950 . S
H265 C277 0.950 . S
H266 C274 0.950 . S
H267 C276 0.950 . S
H268 C278 0.950 . S
H269 C280 0.950 . S
H270 C282 0.950 . S
H271 C283 0.950 . S
C272 H264 0.950 . S
C272 C273 1.386 . S
C272 C274 1.391 . S
C273 C272 1.386 . S
C273 C277 1.393 . S
C274 H266 0.950 . S
C274 C272 1.391 . S
C274 C275 1.400 . S
C275 C274 1.400 . S
C275 C276 1.398 . S
C275 C281 1.491 . S
C276 H267 0.950 . S
C276 C275 1.398 . S
C276 C277 1.391 . S
C277 H265 0.950 . S
C277 C273 1.393 . S
C277 C276 1.391 . S
C278 H268 0.950 . S
C278 C279 1.386 . S
C278 C280 1.391 . S
C279 C278 1.386 . S
C279 C283 1.393 . S
C280 H269 0.950 . S
C280 C278 1.391 . S
C280 C281 1.400 . S
C281 C275 1.491 . S
C281 C280 1.400 . S
C281 C282 1.398 . S
C282 H270 0.950 . S
C282 C281 1.398 . S
C282 C283 1.391 . S
C283 H271 0.950 . S
C283 C279 1.393 . S
C283 C282 1.391 . S
H284 C292 0.950 . S
H285 C297 0.950 . S
H286 C294 0.950 . S
H287 C296 0.950 . S
H288 C298 0.950 . S
H289 C300 0.950 . S
H290 C302 0.950 . S
H291 C303 0.950 . S
C292 H284 0.950 . S
C292 C293 1.386 . S
C292 C294 1.391 . S
C293 C292 1.386 . S
C293 C297 1.393 . S
C294 H286 0.950 . S
C294 C292 1.391 . S
C294 C295 1.400 . S
C295 C294 1.400 . S
C295 C296 1.398 . S
C295 C301 1.491 . S
C296 H287 0.950 . S
C296 C295 1.398 . S
C296 C297 1.391 . S
C297 H285 0.950 . S
C297 C293 1.393 . S
C297 C296 1.391 . S
C298 H288 0.950 . S
C298 C299 1.386 . S
C298 C300 1.391 . S
C299 C298 1.386 . S
C299 C303 1.393 . S
C300 H289 0.950 . S
C300 C298 1.391 . S
C300 C301 1.400 . S
C301 C295 1.491 . S
C301 C300 1.400 . S
C301 C302 1.398 . S
C302 H290 0.950 . S
C302 C301 1.398 . S
C302 C303 1.391 . S
C303 H291 0.950 . S
C303 C299 1.393 . S
C303 C302 1.391 . S
H304 C312 0.950 . S
H305 C317 0.950 . S
H306 C314 0.950 . S
H307 C316 0.950 . S
H308 C318 0.950 . S
H309 C320 0.950 . S
H310 C322 0.950 . S
H311 C323 0.950 . S
C312 H304 0.950 . S
C312 C313 1.386 . S
C312 C314 1.391 . S
C313 C312 1.386 . S
C313 C317 1.393 . S
C314 H306 0.950 . S
C314 C312 1.391 . S
C314 C315 1.400 . S
C315 C314 1.400 . S
C315 C316 1.398 . S
C315 C321 1.491 . S
C316 H307 0.950 . S
C316 C315 1.398 . S
C316 C317 1.391 . S
C317 H305 0.950 . S
C317 C313 1.393 . S
C317 C316 1.391 . S
C318 H308 0.950 . S
C318 C319 1.386 . S
C318 C320 1.391 . S
C319 C318 1.386 . S
C319 C323 1.393 . S
C320 H309 0.950 . S
C320 C318 1.391 . S
C320 C321 1.400 . S
C321 C315 1.491 . S
C321 C320 1.400 . S
C321 C322 1.398 . S
C322 H310 0.950 . S
C322 C321 1.398 . S
C322 C323 1.391 . S
C323 H311 0.950 . S
C323 C319 1.393 . S
C323 C322 1.391 . S
H324 C332 0.950 . S
H325 C337 0.950 . S
H326 C334 0.950 . S
H327 C336 0.950 . S
H328 C338 0.950 . S
H329 C340 0.950 . S
H330 C342 0.950 1_655 S
H331 C343 0.950 . S
C332 H324 0.950 . S
C332 C333 1.386 . S
C332 C334 1.391 . S
C333 C332 1.386 . S
C333 C337 1.393 . S
C334 H326 0.950 . S
C334 C332 1.391 . S
C334 C335 1.400 . S
C335 C334 1.400 . S
C335 C336 1.398 1_655 S
C335 C341 1.491 1_655 S
C336 H327 0.950 . S
C336 C335 1.398 1_455 S
C336 C337 1.391 1_455 S
C337 H325 0.950 . S
C337 C333 1.393 . S
C337 C336 1.391 1_655 S
C338 H328 0.950 . S
C338 C339 1.386 . S
C338 C340 1.391 . S
C339 C338 1.386 . S
C339 C343 1.393 . S
C340 H329 0.950 . S
C340 C338 1.391 . S
C340 C341 1.400 . S
C341 C335 1.491 1_455 S
C341 C340 1.400 . S
C341 C342 1.398 . S
C342 H330 0.950 1_455 S
C342 C341 1.398 . S
C342 C343 1.391 . S
C343 H331 0.950 . S
C343 C339 1.393 . S
C343 C342 1.391 . S
H344 C352 0.950 . S
H345 C357 0.950 . S
H346 C354 0.950 . S
H347 C356 0.950 . S
H348 C358 0.950 . S
H349 C360 0.950 . S
H350 C362 0.950 . S
H351 C363 0.950 . S
C352 H344 0.950 . S
C352 C353 1.386 . S
C352 C354 1.391 . S
C353 C352 1.386 . S
C353 C357 1.393 . S
C354 H346 0.950 . S
C354 C352 1.391 . S
C354 C355 1.400 . S
C355 C354 1.400 . S
C355 C356 1.398 . S
C355 C361 1.491 . S
C356 H347 0.950 . S
C356 C355 1.398 . S
C356 C357 1.391 . S
C357 H345 0.950 . S
C357 C353 1.393 . S
C357 C356 1.391 . S
C358 H348 0.950 . S
C358 C359 1.386 . S
C358 C360 1.391 . S
C359 C358 1.386 . S
C359 C363 1.393 . S
C360 H349 0.950 . S
C360 C358 1.391 . S
C360 C361 1.400 . S
C361 C355 1.491 . S
C361 C360 1.400 . S
C361 C362 1.398 . S
C362 H350 0.950 . S
C362 C361 1.398 . S
C362 C363 1.391 . S
C363 H351 0.950 . S
C363 C359 1.393 . S
C363 C362 1.391 . S
H364 C372 0.950 . S
H365 C377 0.950 . S
H366 C374 0.950 . S
H367 C376 0.950 . S
H368 C378 0.950 . S
H369 C380 0.950 1_545 S
H370 C382 0.950 . S
H371 C383 0.950 . S
C372 H364 0.950 . S
C372 C373 1.386 . S
C372 C374 1.391 . S
C373 C372 1.386 . S
C373 C377 1.393 . S
C374 H366 0.950 . S
C374 C372 1.391 . S
C374 C375 1.400 . S
C375 C374 1.400 . S
C375 C376 1.398 . S
C375 C381 1.491 1_545 S
C376 H367 0.950 . S
C376 C375 1.398 . S
C376 C377 1.391 . S
C377 H365 0.950 . S
C377 C373 1.393 . S
C377 C376 1.391 . S
C378 H368 0.950 . S
C378 C379 1.386 . S
C378 C380 1.391 . S
C379 C378 1.386 . S
C379 C383 1.393 . S
C380 H369 0.950 1_565 S
C380 C378 1.391 . S
C380 C381 1.400 . S
C381 C375 1.491 1_565 S
C381 C380 1.400 . S
C381 C382 1.398 . S
C382 H370 0.950 . S
C382 C381 1.398 . S
C382 C383 1.391 . S
C383 H371 0.950 . S
C383 C379 1.393 . S
C383 C382 1.391 . S
H384 C392 0.950 . S
H385 C397 0.949 1_554 S
H386 C394 0.950 . S
H387 C396 0.950 . S
H388 C398 0.950 . S
H389 C400 0.950 . S
H390 C402 0.950 . S
H391 C403 0.949 1_556 S
C392 H384 0.950 . S
C392 C393 1.386 . S
C392 C394 1.391 . S
C393 C392 1.386 . S
C393 C397 1.394 . S
C394 H386 0.950 . S
C394 C392 1.391 . S
C394 C395 1.400 . S
C395 C394 1.400 . S
C395 C396 1.398 1_556 S
C395 C401 1.491 1_556 S
C396 H387 0.950 . S
C396 C395 1.398 1_554 S
C396 C397 1.390 1_554 S
C397 H385 0.949 1_556 S
C397 C393 1.394 . S
C397 C396 1.390 1_556 S
C398 H388 0.950 . S
C398 C399 1.386 . S
C398 C400 1.391 . S
C399 C398 1.386 . S
C399 C403 1.394 . S
C400 H389 0.950 . S
C400 C398 1.391 . S
C400 C401 1.400 . S
C401 C395 1.491 1_554 S
C401 C400 1.400 . S
C401 C402 1.398 1_554 S
C402 H390 0.950 . S
C402 C401 1.398 1_556 S
C402 C403 1.390 1_556 S
C403 H391 0.949 1_554 S
C403 C399 1.394 . S
C403 C402 1.390 1_554 S
H404 C412 0.950 . S
H405 C417 0.950 . S
H406 C414 0.950 . S
H407 C416 0.950 . S
H408 C418 0.950 . S
H409 C420 0.950 . S
H410 C422 0.950 . S
H411 C423 0.950 . S
C412 H404 0.950 . S
C412 C413 1.386 . S
C412 C414 1.391 . S
C413 C412 1.386 . S
C413 C417 1.393 . S
C414 H406 0.950 . S
C414 C412 1.391 . S
C414 C415 1.400 . S
C415 C414 1.400 . S
C415 C416 1.398 . S
C415 C421 1.491 1_545 S
C416 H407 0.950 . S
C416 C415 1.398 . S
C416 C417 1.391 . S
C417 H405 0.950 . S
C417 C413 1.393 . S
C417 C416 1.391 . S
C418 H408 0.950 . S
C418 C419 1.386 . S
C418 C420 1.391 . S
C419 C418 1.386 . S
C419 C423 1.393 . S
C420 H409 0.950 . S
C420 C418 1.391 . S
C420 C421 1.400 . S
C421 C415 1.491 1_565 S
C421 C420 1.400 . S
C421 C422 1.398 . S
C422 H410 0.950 . S
C422 C421 1.398 . S
C422 C423 1.391 . S
C423 H411 0.950 . S
C423 C419 1.393 . S
C423 C422 1.391 . S
H424 C432 0.950 . S
H425 C437 0.950 . S
H426 C434 0.950 . S
H427 C436 0.950 . S
H428 C438 0.950 . S
H429 C440 0.950 . S
H430 C442 0.950 . S
H431 C443 0.950 . S
C432 H424 0.950 . S
C432 C433 1.386 . S
C432 C434 1.391 . S
C433 C432 1.386 . S
C433 C437 1.393 . S
C434 H426 0.950 . S
C434 C432 1.391 . S
C434 C435 1.400 . S
C435 C434 1.400 . S
C435 C436 1.398 . S
C435 C441 1.491 1_455 S
C436 H427 0.950 . S
C436 C435 1.398 . S
C436 C437 1.391 . S
C437 H425 0.950 . S
C437 C433 1.393 . S
C437 C436 1.391 . S
C438 H428 0.950 . S
C438 C439 1.386 . S
C438 C440 1.391 . S
C439 C438 1.386 . S
C439 C443 1.393 . S
C440 H429 0.950 . S
C440 C438 1.391 . S
C440 C441 1.400 . S
C441 C435 1.491 1_655 S
C441 C440 1.400 . S
C441 C442 1.398 . S
C442 H430 0.950 . S
C442 C441 1.398 . S
C442 C443 1.391 . S
C443 H431 0.950 . S
C443 C439 1.393 . S
C443 C442 1.391 . S
H444 C452 0.950 1_455 S
H445 C457 0.950 . S
H446 C454 0.950 . S
H447 C456 0.950 . S
H448 C458 0.950 . S
H449 C460 0.919 1_655 S
H450 C462 0.950 . S
H451 C463 0.950 . S
C452 H444 0.950 1_655 S
C452 C453 1.386 . S
C452 C454 1.391 1_655 S
C453 C452 1.386 . S
C453 C457 1.393 . S
C454 H446 0.950 . S
C454 C452 1.391 1_455 S
C454 C455 1.400 1_455 S
C455 C454 1.400 1_655 S
C455 C456 1.398 . S
C455 C461 1.491 1_655 S
C456 H447 0.950 . S
C456 C455 1.398 . S
C456 C457 1.391 . S
C457 H445 0.950 . S
C457 C453 1.393 . S
C457 C456 1.391 . S
C458 H448 0.950 . S
C458 C459 1.386 . S
C458 C460 1.403 . S
C459 C458 1.386 . S
C459 C463 1.393 . S
C460 H449 0.919 1_455 S
C460 C458 1.403 . S
C460 C461 1.419 . S
C461 C455 1.491 1_455 S
C461 C460 1.419 . S
C461 C462 1.398 . S
C462 H450 0.950 . S
C462 C461 1.398 . S
C462 C463 1.391 . S
C463 H451 0.950 . S
C463 C459 1.393 . S
C463 C462 1.391 . S
H464 C472 0.950 . S
H465 C477 0.950 . S
H466 C474 0.950 . S
H467 C476 0.950 . S
H468 C478 0.950 . S
H469 C480 0.950 . S
H470 C482 0.950 . S
H471 C483 0.950 . S
C472 H464 0.950 . S
C472 C473 1.386 . S
C472 C474 1.391 . S
C473 C472 1.386 . S
C473 C477 1.393 . S
C474 H466 0.950 . S
C474 C472 1.391 . S
C474 C475 1.400 . S
C475 C474 1.400 . S
C475 C476 1.398 . S
C475 C481 1.491 1_556 S
C476 H467 0.950 . S
C476 C475 1.398 . S
C476 C477 1.391 . S
C477 H465 0.950 . S
C477 C473 1.393 . S
C477 C476 1.391 . S
C478 H468 0.950 . S
C478 C479 1.386 . S
C478 C480 1.391 . S
C479 C478 1.386 . S
C479 C483 1.393 . S
C480 H469 0.950 . S
C480 C478 1.391 . S
C480 C481 1.400 . S
C481 C475 1.491 1_554 S
C481 C480 1.400 . S
C481 C482 1.398 . S
C482 H470 0.950 . S
C482 C481 1.398 . S
C482 C483 1.391 . S
C483 H471 0.950 . S
C483 C479 1.393 . S
C483 C482 1.391 . S
H484 C492 0.950 . S
H485 C497 0.950 . S
H486 C494 0.950 . S
H487 C496 0.950 1_565 S
H488 C498 0.950 . S
H489 C500 0.950 . S
H490 C502 0.950 . S
H491 C503 0.948 . S
C492 H484 0.950 . S
C492 C493 1.386 . S
C492 C494 1.391 . S
C493 C492 1.386 . S
C493 C497 1.393 . S
C494 H486 0.950 . S
C494 C492 1.391 . S
C494 C495 1.400 . S
C495 C494 1.400 . S
C495 C496 1.398 . S
C495 C501 1.484 1_545 S
C496 H487 0.950 1_545 S
C496 C495 1.398 . S
C496 C497 1.391 . S
C497 H485 0.950 . S
C497 C493 1.393 . S
C497 C496 1.391 . S
C498 H488 0.950 . S
C498 C499 1.386 . S
C498 C500 1.391 . S
C499 C498 1.386 . S
C499 C503 1.393 . S
C500 H489 0.950 . S
C500 C498 1.391 . S
C500 C501 1.405 . S
C501 C495 1.484 1_565 S
C501 C500 1.405 . S
C501 C502 1.401 1_565 S
C502 H490 0.950 . S
C502 C501 1.401 1_545 S
C502 C503 1.391 1_545 S
C503 H491 0.948 . S
C503 C499 1.393 . S
C503 C502 1.391 1_565 S
C213 C73 1.568 . S
C219 C20 1.593 . S
C233 C54 1.597 . S
C239 C5 1.566 . S
C253 C88 1.594 . S
C259 C39 1.564 . S
C273 C122 1.595 . S
C279 C141 1.575 . S
C293 C175 1.562 . S
C299 C156 1.597 . S
C313 C107 1.561 . S
C319 C190 1.595 . S
C333 C169 1.166 . S
C339 C33 1.165 . S
C353 C203 1.162 . S
C359 C67 1.161 . S
C373 C135 1.162 . S
C379 C101 1.162 . S
C393 C104 1.508 . S
C399 C2 1.503 . S
C413 C138 1.505 . S
C419 C36 1.497 . S
C433 C70 1.509 . S
C439 C172 1.499 . S
C453 C145 1.399 . S
C459 C9 1.383 . S
C473 C43 1.379 . S
C479 C179 1.399 . S
C493 C111 1.371 . S
C499 C77 1.382 . S
