# Generated by pormake.
# Topology lcy-a, (4)-cn, num edge types: 1
# Building blocks:
#     Node 0, Type 0, BuildingBlock: CEKHIL_clean_sbu_0, # of connection points: 4
#     Node 1, Type 0, BuildingBlock: CEKHIL_clean_sbu_0, # of connection points: 4
#     Node 2, Type 0, BuildingBlock: CEKHIL_clean_sbu_0, # of connection points: 4
#     Node 3, Type 0, BuildingBlock: CEKHIL_clean_sbu_0, # of connection points: 4
#     Node 4, Type 0, BuildingBlock: CEKHIL_clean_sbu_0, # of connection points: 4
#     Node 5, Type 0, BuildingBlock: CEKHIL_clean_sbu_0, # of connection points: 4
#     Node 6, Type 0, BuildingBlock: CEKHIL_clean_sbu_0, # of connection points: 4
#     Node 7, Type 0, BuildingBlock: CEKHIL_clean_sbu_0, # of connection points: 4
#     Node 8, Type 0, BuildingBlock: CEKHIL_clean_sbu_0, # of connection points: 4
#     Node 9, Type 0, BuildingBlock: CEKHIL_clean_sbu_0, # of connection points: 4
#     Node 10, Type 0, BuildingBlock: CEKHIL_clean_sbu_0, # of connection points: 4
#     Node 11, Type 0, BuildingBlock: CEKHIL_clean_sbu_0, # of connection points: 4
#     Node 12, Type 0, BuildingBlock: CEKHIL_clean_sbu_0, # of connection points: 4
#     Node 13, Type 0, BuildingBlock: CEKHIL_clean_sbu_0, # of connection points: 4
#     Node 14, Type 0, BuildingBlock: CEKHIL_clean_sbu_0, # of connection points: 4
#     Node 15, Type 0, BuildingBlock: CEKHIL_clean_sbu_0, # of connection points: 4
#     Node 16, Type 0, BuildingBlock: CEKHIL_clean_sbu_0, # of connection points: 4
#     Node 17, Type 0, BuildingBlock: CEKHIL_clean_sbu_0, # of connection points: 4
#     Node 18, Type 0, BuildingBlock: CEKHIL_clean_sbu_0, # of connection points: 4
#     Node 19, Type 0, BuildingBlock: CEKHIL_clean_sbu_0, # of connection points: 4
#     Node 20, Type 0, BuildingBlock: CEKHIL_clean_sbu_0, # of connection points: 4
#     Node 21, Type 0, BuildingBlock: CEKHIL_clean_sbu_0, # of connection points: 4
#     Node 22, Type 0, BuildingBlock: CEKHIL_clean_sbu_0, # of connection points: 4
#     Node 23, Type 0, BuildingBlock: CEKHIL_clean_sbu_0, # of connection points: 4
#     Edge 24, Type (0, 0), BuildingBlock: AJUNOK_clean_linker_0, # of connection points: 2
#     Edge 25, Type (0, 0), BuildingBlock: AJUNOK_clean_linker_0, # of connection points: 2
#     Edge 26, Type (0, 0), BuildingBlock: AJUNOK_clean_linker_0, # of connection points: 2
#     Edge 27, Type (0, 0), BuildingBlock: AJUNOK_clean_linker_0, # of connection points: 2
#     Edge 28, Type (0, 0), BuildingBlock: AJUNOK_clean_linker_0, # of connection points: 2
#     Edge 29, Type (0, 0), BuildingBlock: AJUNOK_clean_linker_0, # of connection points: 2
#     Edge 30, Type (0, 0), BuildingBlock: AJUNOK_clean_linker_0, # of connection points: 2
#     Edge 31, Type (0, 0), BuildingBlock: AJUNOK_clean_linker_0, # of connection points: 2
#     Edge 32, Type (0, 0), BuildingBlock: AJUNOK_clean_linker_0, # of connection points: 2
#     Edge 33, Type (0, 0), BuildingBlock: AJUNOK_clean_linker_0, # of connection points: 2
#     Edge 34, Type (0, 0), BuildingBlock: AJUNOK_clean_linker_0, # of connection points: 2
#     Edge 35, Type (0, 0), BuildingBlock: AJUNOK_clean_linker_0, # of connection points: 2
#     Edge 36, Type (0, 0), BuildingBlock: AJUNOK_clean_linker_0, # of connection points: 2
#     Edge 37, Type (0, 0), BuildingBlock: AJUNOK_clean_linker_0, # of connection points: 2
#     Edge 38, Type (0, 0), BuildingBlock: AJUNOK_clean_linker_0, # of connection points: 2
#     Edge 39, Type (0, 0), BuildingBlock: AJUNOK_clean_linker_0, # of connection points: 2
#     Edge 40, Type (0, 0), BuildingBlock: AJUNOK_clean_linker_0, # of connection points: 2
#     Edge 41, Type (0, 0), BuildingBlock: AJUNOK_clean_linker_0, # of connection points: 2
#     Edge 42, Type (0, 0), BuildingBlock: AJUNOK_clean_linker_0, # of connection points: 2
#     Edge 43, Type (0, 0), BuildingBlock: AJUNOK_clean_linker_0, # of connection points: 2
#     Edge 44, Type (0, 0), BuildingBlock: AJUNOK_clean_linker_0, # of connection points: 2
#     Edge 45, Type (0, 0), BuildingBlock: AJUNOK_clean_linker_0, # of connection points: 2
#     Edge 46, Type (0, 0), BuildingBlock: AJUNOK_clean_linker_0, # of connection points: 2
#     Edge 47, Type (0, 0), BuildingBlock: AJUNOK_clean_linker_0, # of connection points: 2
#     Edge 48, Type (0, 0), BuildingBlock: AJUNOK_clean_linker_0, # of connection points: 2
#     Edge 49, Type (0, 0), BuildingBlock: AJUNOK_clean_linker_0, # of connection points: 2
#     Edge 50, Type (0, 0), BuildingBlock: AJUNOK_clean_linker_0, # of connection points: 2
#     Edge 51, Type (0, 0), BuildingBlock: AJUNOK_clean_linker_0, # of connection points: 2
#     Edge 52, Type (0, 0), BuildingBlock: AJUNOK_clean_linker_0, # of connection points: 2
#     Edge 53, Type (0, 0), BuildingBlock: AJUNOK_clean_linker_0, # of connection points: 2
#     Edge 54, Type (0, 0), BuildingBlock: AJUNOK_clean_linker_0, # of connection points: 2
#     Edge 55, Type (0, 0), BuildingBlock: AJUNOK_clean_linker_0, # of connection points: 2
#     Edge 56, Type (0, 0), BuildingBlock: AJUNOK_clean_linker_0, # of connection points: 2
#     Edge 57, Type (0, 0), BuildingBlock: AJUNOK_clean_linker_0, # of connection points: 2
#     Edge 58, Type (0, 0), BuildingBlock: AJUNOK_clean_linker_0, # of connection points: 2
#     Edge 59, Type (0, 0), BuildingBlock: AJUNOK_clean_linker_0, # of connection points: 2
#     Edge 60, Type (0, 0), BuildingBlock: AJUNOK_clean_linker_0, # of connection points: 2
#     Edge 61, Type (0, 0), BuildingBlock: AJUNOK_clean_linker_0, # of connection points: 2
#     Edge 62, Type (0, 0), BuildingBlock: AJUNOK_clean_linker_0, # of connection points: 2
#     Edge 63, Type (0, 0), BuildingBlock: AJUNOK_clean_linker_0, # of connection points: 2
#     Edge 64, Type (0, 0), BuildingBlock: AJUNOK_clean_linker_0, # of connection points: 2
#     Edge 65, Type (0, 0), BuildingBlock: AJUNOK_clean_linker_0, # of connection points: 2
#     Edge 66, Type (0, 0), BuildingBlock: AJUNOK_clean_linker_0, # of connection points: 2
#     Edge 67, Type (0, 0), BuildingBlock: AJUNOK_clean_linker_0, # of connection points: 2
#     Edge 68, Type (0, 0), BuildingBlock: AJUNOK_clean_linker_0, # of connection points: 2
#     Edge 69, Type (0, 0), BuildingBlock: AJUNOK_clean_linker_0, # of connection points: 2
#     Edge 70, Type (0, 0), BuildingBlock: AJUNOK_clean_linker_0, # of connection points: 2
#     Edge 71, Type (0, 0), BuildingBlock: AJUNOK_clean_linker_0, # of connection points: 2
# Relax obj value: 0.419
# Max RMSD: 0.181
# Mean RMSD: 0.181
data_MOF--net-lcy-a--node1-CEKHIL_clean_sbu_0--edge1-AJUNOK_clean_linker_0
_symmetry_space_group_name_H-M    P1
_symmetry_Int_Tables_number       1
_symmetry_cell_setting            triclinic
loop_
_symmetry_equiv_pos_as_xyz
'x, y, z'
_cell_length_a     41.51093
_cell_length_b     41.473282
_cell_length_c     41.534845
_cell_angle_alpha  90.115299
_cell_angle_beta   90.170938
_cell_angle_gamma 90.422415
loop_
_atom_site_label
_atom_site_type_symbol
_atom_site_fract_x
_atom_site_fract_y
_atom_site_fract_z
_atom_type_partial_charge
Co0 Co 0.216 0.26575 0.41356 0.0
O1 O 0.1985 0.23264 0.44091 0.0
O2 O 0.17012 0.26412 0.40856 0.0
C3 C 0.25794 0.23914 0.39222 0.0
O4 O 0.22456 0.30091 0.38089 0.0
Co5 Co 0.28419 0.29458 0.42541 0.0
O6 O 0.27543 0.31957 0.38547 0.0
C7 C 0.23273 0.30706 0.47104 0.0
C8 C 0.17047 0.24131 0.42993 0.0
C9 C 0.24804 0.31878 0.37147 0.0
O10 O 0.2119 0.29848 0.44956 0.0
O11 O 0.2628 0.30144 0.46795 0.0
O12 O 0.22901 0.23418 0.3809 0.0
O13 O 0.25928 0.25564 0.41847 0.0
Co14 Co 0.98027 0.97919 0.67569 0.0
O15 O 0.01381 0.96202 0.70266 0.0
O16 O 0.98452 0.93407 0.66744 0.0
C17 C 0.00448 0.0242 0.65742 0.0
O18 O 0.94533 0.98742 0.64288 0.0
Co19 Co 0.94697 0.04408 0.69104 0.0
O20 O 0.92225 0.03572 0.65059 0.0
C21 C 0.93421 0.98817 0.73132 0.0
C22 C 0.00702 0.93439 0.68921 0.0
C23 C 0.92542 0.00949 0.63486 0.0
O24 O 0.94685 0.96993 0.70976 0.0
O25 O 0.9376 0.01884 0.73102 0.0
O26 O 0.01157 -0.00371 0.64501 0.0
O27 O 0.98769 0.02298 0.68348 0.0
Co28 Co 0.26433 0.72337 0.9171 0.0
O29 O 0.28236 0.75834 0.94198 0.0
O30 O 0.30988 0.72586 0.90993 0.0
C31 C 0.22107 0.74743 0.89562 0.0
O32 O 0.25461 0.68621 0.88675 0.0
Co33 Co 0.19747 0.69422 0.93441 0.0
O34 O 0.20434 0.66728 0.89529 0.0
C35 C 0.25241 0.68219 0.97621 0.0
C36 C 0.30997 0.75001 0.9299 0.0
C37 C 0.2308 0.66752 0.87972 0.0
O38 O 0.27136 0.6924 0.95392 0.0
O39 O 0.22197 0.68662 0.97525 0.0
O40 O 0.24952 0.7527 0.88357 0.0
O41 O 0.22092 0.73297 0.92309 0.0
Co42 Co 0.52162 0.01295 0.16823 0.0
O43 O 0.48889 0.02641 0.19808 0.0
O44 O 0.51485 0.05837 0.16402 0.0
C45 C 0.49732 0.96822 0.14845 0.0
O46 O 0.55499 0.00886 0.13302 0.0
Co47 Co 0.55766 0.94797 0.17579 0.0
O48 O 0.57775 0.95976 0.13394 0.0
C49 C 0.56959 0.00067 0.22136 0.0
C50 C 0.49349 0.05525 0.18661 0.0
C51 C 0.57376 0.98745 0.12132 0.0
O52 O 0.55637 0.0207 0.20179 0.0
O53 O 0.56773 0.97009 0.21755 0.0
O54 O 0.48912 -0.00347 0.13781 0.0
O55 O 0.51621 0.9686 0.17306 0.0
Co56 Co 0.7243 0.21795 0.56015 0.0
O57 O 0.70878 0.25137 0.53231 0.0
O58 O 0.67853 0.22176 0.56495 0.0
C59 C 0.76741 0.24323 0.58168 0.0
O60 O 0.73126 0.18269 0.59302 0.0
Co61 Co 0.79102 0.18678 0.54801 0.0
O62 O 0.78081 0.16161 0.58752 0.0
C63 C 0.73739 0.17182 0.505 0.0
C64 C 0.68034 0.24447 0.54349 0.0
C65 C 0.75369 0.16341 0.60177 0.0
O66 O 0.71782 0.18457 0.52522 0.0
O67 O 0.76793 0.17573 0.50701 0.0
O68 O 0.73866 0.24941 0.59234 0.0
O69 O 0.76822 0.22651 0.5555 0.0
Co70 Co 0.00544 0.46968 0.82438 0.0
O71 O 0.96948 0.45286 0.80013 0.0
O72 O 0.00062 0.42449 0.83281 0.0
C73 C 0.98386 0.5151 0.84433 0.0
O74 O 0.04342 0.47809 0.85402 0.0
Co75 Co 0.03805 0.53422 0.80454 0.0
O76 O 0.06645 0.52599 0.84236 0.0
C77 C 0.04538 0.47778 0.76418 0.0
C78 C 0.97669 0.42506 0.8126 0.0
C79 C 0.06461 0.50023 0.85904 0.0
O80 O 0.03567 0.45997 0.78761 0.0
O81 O 0.04108 0.50826 0.76396 0.0
O82 O 0.97724 0.48742 0.85761 0.0
O83 O -0.00175 0.51333 0.81695 0.0
Co84 Co 0.76997 0.76709 0.07023 0.0
O85 O 0.78809 0.73556 0.04157 0.0
O86 O 0.81541 0.76425 0.0777 0.0
C87 C 0.72603 0.73979 0.08705 0.0
O88 O 0.76081 0.80013 0.10477 0.0
Co89 Co 0.7032 0.79802 0.05763 0.0
O90 O 0.71113 0.8208 0.09924 0.0
C91 C 0.75754 0.81375 0.01613 0.0
C92 C 0.81567 0.74291 0.05481 0.0
C93 C 0.73785 0.8183 0.11421 0.0
O94 O 0.7771 0.80225 0.03725 0.0
O95 O 0.72715 0.80856 0.01721 0.0
O96 O 0.75409 0.73364 0.09968 0.0
O97 O 0.7267 0.75823 0.0622 0.0
Co98 Co 0.47216 0.52494 0.32746 0.0
O99 O 0.50601 0.53956 0.29973 0.0
O100 O 0.47407 0.57135 0.32809 0.0
C101 C 0.49886 0.48533 0.35281 0.0
O102 O 0.43591 0.51889 0.3596 0.0
Co103 Co 0.44498 0.45528 0.32006 0.0
O104 O 0.41908 0.46713 0.35852 0.0
C105 C 0.43094 0.50351 0.27094 0.0
C106 C 0.49748 0.56861 0.30752 0.0
C107 C 0.41841 0.49559 0.37023 0.0
O108 O 0.44052 0.52594 0.29028 0.0
O109 O 0.43588 0.47361 0.27645 0.0
O110 O 0.50254 0.51507 0.36232 0.0
O111 O 0.48301 0.4815 0.32643 0.0
Co112 Co 0.41632 0.2158 0.26219 0.0
O113 O 0.44517 0.19854 0.23049 0.0
O114 O 0.41158 0.16977 0.26052 0.0
C115 C 0.39614 0.2576 0.23445 0.0
O116 O 0.38211 0.22423 0.29575 0.0
Co117 Co 0.42676 0.28452 0.29057 0.0
O118 O 0.38591 0.27529 0.31403 0.0
C119 C 0.47147 0.23335 0.30622 0.0
C120 C 0.43383 0.17038 0.2386 0.0
C121 C 0.37201 0.24776 0.313 0.0
O122 O 0.45063 0.21219 0.29672 0.0
O123 O 0.46902 0.26322 0.29916 0.0
O124 O 0.38497 0.22862 0.22916 0.0
O125 O 0.42169 0.25902 0.25195 0.0
Co126 Co 0.01172 0.1791 0.52188 0.0
O127 O 0.02579 0.20593 0.48675 0.0
O128 O 0.05714 0.17427 0.51601 0.0
C129 C 0.96751 0.15681 0.49916 0.0
O130 O 0.00692 0.14696 0.55817 0.0
Co131 Co 0.94679 0.19008 0.55675 0.0
O132 O 0.95838 0.15086 0.58171 0.0
C133 C -0.00045 0.23602 0.56563 0.0
C134 C 0.05443 0.19473 0.49256 0.0
C135 C 0.98575 0.13745 0.57855 0.0
O136 O 0.01928 0.21543 0.55367 0.0
O137 O 0.96898 0.23265 0.56318 0.0
O138 O -0.00404 0.1459 0.4921 0.0
O139 O 0.96742 0.18317 0.51565 0.0
Co140 Co 0.06684 0.76659 0.7627 0.0
O141 O 0.04066 0.78604 0.72977 0.0
O142 O 0.07685 0.81155 0.76005 0.0
C143 C 0.08335 0.72195 0.73695 0.0
O144 O 0.0993 0.75602 0.79727 0.0
Co145 Co 0.0495 0.70087 0.79381 0.0
O146 O 0.09039 0.70696 0.81854 0.0
C147 C 0.01061 0.7572 0.80792 0.0
C148 C 0.05516 0.81293 0.73757 0.0
C149 C 0.10684 0.73294 0.81623 0.0
O150 O 0.03287 0.77548 0.79629 0.0
O151 O 0.01007 0.72671 0.80322 0.0
O152 O 0.09699 0.74965 0.73089 0.0
O153 O 0.05738 0.72344 0.75382 0.0
Co154 Co 0.47371 0.81875 0.00802 0.0
O155 O 0.45704 0.79284 0.97322 0.0
O156 O 0.42793 0.82425 0.00491 0.0
C157 C 0.51683 0.84097 0.98383 0.0
O158 O 0.4818 0.84982 0.0449 0.0
Co159 Co 0.54094 0.80437 0.03773 0.0
O160 O 0.53192 0.84309 0.06461 0.0
C161 C 0.48711 0.76096 0.05063 0.0
C162 C 0.4289 0.80392 0.98108 0.0
C163 C 0.50488 0.85753 0.06412 0.0
O164 O 0.46744 0.78205 0.03943 0.0
O165 O 0.51754 0.76289 0.04617 0.0
O166 O 0.48824 0.85254 0.97847 0.0
O167 O 0.51731 0.81386 -0.00113 0.0
Co168 Co 0.91669 0.26436 0.72331 0.0
O169 O 0.9414 0.27991 0.75947 0.0
O170 O 0.90803 0.30923 0.73 0.0
C171 C 0.89767 0.21799 0.74425 0.0
O172 O 0.88606 0.25721 0.68583 0.0
Co173 Co 0.93493 0.20119 0.68787 0.0
O174 O 0.89546 0.20946 0.66191 0.0
C175 C 0.97602 0.25791 0.682 0.0
C176 C 0.92824 0.30773 0.75388 0.0
C177 C 0.8793 0.23533 0.6649 0.0
O178 O 0.953 0.27551 0.69279 0.0
O179 O 0.97563 0.22719 0.68453 0.0
O180 O 0.88421 0.24526 0.75167 0.0
O181 O 0.92446 0.22053 0.72885 0.0
Co182 Co 0.97695 0.67656 0.97179 0.0
O183 O 0.96209 0.70473 0.00548 0.0
O184 O 0.93131 0.67187 0.9763 0.0
C185 C 0.0202 0.65505 -0.0038 0.0
O186 O 0.98245 0.64295 0.93694 0.0
Co187 Co 0.04309 0.68628 0.9385 0.0
O188 O 0.03208 0.64542 0.91546 0.0
C189 C 0.99129 0.73206 0.92689 0.0
C190 C 0.93347 0.69337 -0.00103 0.0
C191 C 0.00438 0.63221 0.91816 0.0
O192 O 0.97089 0.71175 0.93867 0.0
O193 O 0.02175 0.72852 0.92976 0.0
O194 O 0.99142 0.64447 0.00305 0.0
O195 O 0.02108 0.68098 0.97916 0.0
Co196 Co 0.56655 0.72589 0.21653 0.0
O197 O 0.53762 0.71074 0.24962 0.0
O198 O 0.57103 0.68035 0.22143 0.0
C199 C 0.58753 0.76956 0.24142 0.0
O200 O 0.60084 0.73163 0.1824 0.0
Co201 Co 0.55709 0.79183 0.18282 0.0
O202 O 0.59746 0.7807 0.15966 0.0
C203 C 0.51209 0.7391 0.16999 0.0
C204 C 0.54909 0.68224 0.24354 0.0
C205 C 0.61096 0.75338 0.16292 0.0
O206 O 0.53221 0.71913 0.18239 0.0
O207 O 0.5152 0.76964 0.17313 0.0
O208 O 0.59787 0.7409 0.24861 0.0
O209 O 0.56205 0.77007 0.22362 0.0
Co210 Co 0.51695 0.32046 0.47276 0.0
O211 O 0.53479 0.29062 0.50342 0.0
O212 O 0.56285 0.32468 0.47324 0.0
C213 C 0.47639 0.34001 0.50293 0.0
O214 O 0.50873 0.35554 0.44007 0.0
Co215 Co 0.44719 0.31518 0.44586 0.0
O216 O 0.45564 0.36007 0.43054 0.0
C217 C 0.497 0.26942 0.42454 0.0
C218 C 0.56275 0.30201 0.49472 0.0
C219 C 0.48451 0.37051 0.42835 0.0
O220 O 0.51929 0.28688 0.43755 0.0
O221 O 0.46691 0.27474 0.42851 0.0
O222 O 0.50559 0.35102 0.50701 0.0
O223 O 0.47384 0.31555 0.48401 0.0
Co224 Co 0.26996 0.41868 0.21593 0.0
O225 O 0.23863 0.44817 0.19881 0.0
O226 O 0.26761 0.4138 0.1702 0.0
C227 C 0.24212 0.39893 0.25804 0.0
O228 O 0.30265 0.38364 0.22376 0.0
Co229 Co 0.3 0.42749 0.28395 0.0
O230 O 0.322 0.38603 0.27439 0.0
C231 C 0.31587 0.4727 0.23269 0.0
C232 C 0.24606 0.43631 0.17077 0.0
C233 C 0.31995 0.37263 0.24679 0.0
O234 O 0.30529 0.45236 0.21162 0.0
O235 O 0.31022 0.46964 0.26278 0.0
O236 O 0.23624 0.38811 0.22913 0.0
O237 O 0.26054 0.42399 0.25936 0.0
Co238 Co 0.76588 0.06037 0.75674 0.0
O239 O 0.73254 0.03232 0.77282 0.0
O240 O 0.76184 0.06637 0.80222 0.0
C241 C 0.74112 0.08059 0.71309 0.0
O242 O 0.80081 0.09377 0.74953 0.0
Co243 Co 0.79823 0.04752 0.69074 0.0
O244 O 0.82272 0.08793 0.70036 0.0
C245 C 0.81265 0.00558 0.74508 0.0
C246 C 0.73942 0.04438 0.80098 0.0
C247 C 0.82033 0.10256 0.72728 0.0
O248 O 0.79929 0.02597 0.76412 0.0
O249 O 0.80984 0.00724 0.71444 0.0
O250 O 0.73442 0.09173 0.74159 0.0
O251 O 0.75794 0.05455 0.71284 0.0
Co252 Co 0.17326 0.51762 0.01108 0.0
O253 O 0.20145 0.4842 0.02578 0.0
O254 O 0.16894 0.51281 0.05681 0.0
C255 C 0.1518 0.4929 0.96764 0.0
O256 O 0.14009 0.55272 0.00501 0.0
Co257 Co 0.18475 0.55047 0.94496 0.0
O258 O 0.14505 0.57481 0.95576 0.0
C259 C 0.22893 0.56333 -0.00186 0.0
C260 C 0.19071 0.49056 0.05446 0.0
C261 C 0.13099 0.57229 0.98292 0.0
O262 O 0.20838 0.55099 0.01777 0.0
O263 O 0.22638 0.56009 0.9676 0.0
O264 O 0.14108 0.48614 -0.0037 0.0
O265 O 0.17775 0.51012 0.96708 0.0
Co266 Co 0.72726 0.91973 0.26993 0.0
O267 O 0.76181 0.94491 0.28841 0.0
O268 O 0.72778 0.91399 0.3157 0.0
C269 C 0.75306 0.89687 0.22839 0.0
O270 O 0.69026 0.88919 0.26017 0.0
Co271 Co 0.70112 0.93377 0.20123 0.0
O272 O 0.67384 0.89476 0.20881 0.0
C273 C 0.68699 0.97819 0.2535 0.0
C274 C 0.75236 0.93353 0.31602 0.0
C275 C 0.6727 0.88071 0.23609 0.0
O276 O 0.69637 0.95705 0.27412 0.0
O277 O 0.69327 0.97581 0.22347 0.0
O278 O 0.75679 0.88542 0.25731 0.0
O279 O 0.73874 0.92428 0.22687 0.0
Co280 Co 0.31722 0.46893 0.524 0.0
O281 O 0.28711 0.49973 0.54076 0.0
O282 O 0.32125 0.47091 0.56987 0.0
C283 C 0.33688 0.49767 0.48228 0.0
O284 O 0.35256 0.43637 0.51657 0.0
Co285 Co 0.30963 0.43936 0.45569 0.0
O286 O 0.35084 0.41724 0.46585 0.0
C287 C 0.26389 0.42255 0.50623 0.0
C288 C 0.29826 0.49195 0.569 0.0
C289 C 0.36377 0.41904 0.49368 0.0
O290 O 0.28373 0.4334 0.52762 0.0
O291 O 0.26744 0.42811 0.47617 0.0
O292 O 0.34755 0.50321 0.51132 0.0
O293 O 0.3123 0.47867 0.4806 0.0
Co294 Co 0.20863 0.55926 0.72667 0.0
O295 O 0.24206 0.53053 0.71289 0.0
O296 O 0.21351 0.56229 0.68096 0.0
C297 C 0.23341 0.58213 0.76928 0.0
O298 O 0.17409 0.59312 0.73128 0.0
Co299 Co 0.1753 0.55148 0.79303 0.0
O300 O 0.15268 0.59193 0.781 0.0
C301 C 0.16273 0.50448 0.74195 0.0
C302 C 0.23604 0.54092 0.68397 0.0
C303 C 0.1554 0.60435 0.75306 0.0
O304 O 0.17516 0.52397 0.72127 0.0
O305 O 0.16542 0.50887 0.77234 0.0
O306 O 0.24028 0.5917 0.74026 0.0
O307 O 0.21594 0.55635 0.77089 0.0
Co308 Co 0.67189 0.97331 0.96782 0.0
O309 O 0.69899 0.00563 0.94831 0.0
O310 O 0.66679 0.97164 0.92208 0.0
C311 C 0.65054 0.0029 0.00779 0.0
O312 O 0.63936 0.93841 0.97802 0.0
Co313 Co 0.68158 0.9494 0.03795 0.0
O314 O 0.64076 0.9248 0.0304 0.0
C315 C 0.72783 0.93159 0.98786 0.0
C316 C 0.68767 -0.00495 0.92096 0.0
C317 C 0.62838 0.92295 0.00233 0.0
O318 O 0.70792 0.94075 0.9659 0.0
O319 O 0.72369 0.93779 0.01776 0.0
O320 O 0.63904 0.00525 0.97868 0.0
O321 O 0.67663 0.98654 0.0104 0.0
Co322 Co 0.82171 0.01164 0.47874 0.0
O323 O 0.79677 0.97567 0.46297 0.0
O324 O 0.82767 0.00755 0.43316 0.0
C325 C 0.84445 0.98969 0.52255 0.0
O326 O 0.85166 0.04977 0.48605 0.0
Co327 Co 0.80509 0.0429 0.5446 0.0
O328 O 0.84323 0.07078 0.53537 0.0
C329 C 0.76228 0.05241 0.48988 0.0
C330 C 0.80766 0.98336 0.43464 0.0
C331 C 0.85831 0.06992 0.50866 0.0
O332 O 0.78431 0.0416 0.47111 0.0
O333 O 0.76384 0.04958 0.5205 0.0
O334 O 0.85602 0.98354 0.49411 0.0
O335 O 0.81679 0.00363 0.52261 0.0
C336 C 0.11373 0.19416 0.48353 0.0
C337 C 0.08314 0.20533 0.47431 0.0
C338 C 0.1417 0.20513 0.46829 0.0
C339 C 0.14024 0.2277 0.44314 0.0
H340 H 0.11629 0.17726 0.50321 0.0
H341 H 0.16468 0.19636 0.47687 0.0
S342 S 0.06584 0.26262 0.40804 0.0
N343 N 0.05285 0.23884 0.43713 0.0
N344 N 0.10546 0.25947 0.40833 0.0
C345 C 0.10972 0.23822 0.43282 0.0
C346 C 0.08116 0.22705 0.44844 0.0
C347 C 0.00952 0.87441 0.68852 0.0
C348 C 0.02222 0.904 0.69957 0.0
C349 C 0.02105 0.84505 0.70015 0.0
C350 C 0.04586 0.84411 0.7232 0.0
H351 H 0.98976 0.87378 0.67141 0.0
H352 H 0.00982 0.82299 0.69159 0.0
S353 S 0.08965 0.91481 0.75749 0.0
N354 N 0.06257 0.93057 0.73311 0.0
N355 N 0.08451 0.87539 0.75492 0.0
C356 C 0.05984 0.8735 0.73337 0.0
C357 C 0.04796 0.90346 0.72159 0.0
C358 C 0.34018 0.78796 0.96584 0.0
C359 C 0.34039 0.76588 0.94011 0.0
C360 C 0.3689 0.80094 0.97818 0.0
C361 C 0.39895 0.79236 0.96528 0.0
H362 H 0.31776 0.79461 0.97725 0.0
H363 H 0.36747 0.81712 -0.00137 0.0
S364 S 0.41248 0.73825 0.89538 0.0
N365 N 0.37306 0.73798 0.90038 0.0
N366 N 0.42702 0.76238 0.92363 0.0
C367 C 0.39945 0.77143 0.93859 0.0
C368 C 0.37016 0.75821 0.92601 0.0
C369 C 0.48438 0.11458 0.18754 0.0
C370 C 0.47633 0.08375 0.19923 0.0
C371 C 0.47002 0.14232 0.2 0.0
C372 C 0.4469 0.14037 0.22459 0.0
H373 H 0.50236 0.11752 0.1689 0.0
H374 H 0.47746 0.16548 0.19048 0.0
S375 S 0.41622 0.06525 0.26268 0.0
N376 N 0.44294 0.05277 0.23616 0.0
N377 N 0.41578 0.10492 0.25957 0.0
C378 C 0.43801 0.10963 0.23602 0.0
C379 C 0.45275 0.08132 0.22338 0.0
C380 C 0.62071 0.25184 0.54398 0.0
C381 C 0.65102 0.26072 0.53162 0.0
C382 C 0.59234 0.26564 0.53223 0.0
C383 C 0.59319 0.28893 0.5077 0.0
H384 H 0.61871 0.23375 0.56267 0.0
H385 H 0.5696 0.25773 0.54229 0.0
S386 S 0.66653 0.32109 0.4675 0.0
N387 N 0.68024 0.29471 0.49378 0.0
N388 N 0.62702 0.3207 0.4717 0.0
C389 C 0.6234 0.29843 0.49544 0.0
C390 C 0.65229 0.28433 0.50738 0.0
C391 C 0.92812 0.36746 0.76071 0.0
C392 C 0.93748 0.33702 0.77216 0.0
C393 C 0.93961 0.39587 0.77505 0.0
C394 C 0.96088 0.39495 0.80144 0.0
H395 H 0.91276 0.3695 0.73969 0.0
H396 H 0.93276 0.41867 0.76447 0.0
S397 S 0.98892 0.32135 0.84359 0.0
N398 N 0.9665 0.30761 0.81359 0.0
N399 N 0.98807 0.36102 0.84068 0.0
C400 C 0.96881 0.36468 0.81442 0.0
C401 C 0.95715 0.33571 0.79974 0.0
C402 C 0.84539 0.70537 0.01877 0.0
C403 C 0.8462 0.72911 0.04295 0.0
C404 C 0.8738 0.69354 0.00532 0.0
C405 C 0.90419 0.70504 0.01539 0.0
H406 H 0.82262 0.69615 0.00972 0.0
H407 H 0.87176 0.67562 0.98639 0.0
S408 S 0.9197 0.76609 0.07913 0.0
N409 N 0.88008 0.76288 0.0774 0.0
N410 N 0.93348 0.74065 0.05194 0.0
C411 C 0.90546 0.7282 0.04014 0.0
C412 C 0.87646 0.7402 0.05396 0.0
C413 C 0.51551 0.65583 0.28609 0.0
C414 C 0.53729 0.65305 0.26036 0.0
C415 C 0.50327 0.62843 0.30167 0.0
C416 C 0.51233 0.59722 0.29212 0.0
H417 H 0.50763 0.67933 0.29414 0.0
H418 H 0.48628 0.63179 0.32113 0.0
S419 S 0.56878 0.57674 0.22603 0.0
N420 N 0.56755 0.61648 0.22611 0.0
N421 N 0.54464 0.56516 0.25535 0.0
C422 C 0.53442 0.59411 0.26667 0.0
C423 C 0.54684 0.62198 0.25081 0.0
C424 C 0.20608 0.47077 0.14219 0.0
C425 C 0.23138 0.44847 0.1407 0.0
C426 C 0.1926 0.48362 0.11412 0.0
C427 C 0.20393 0.47476 0.08348 0.0
H428 H 0.19676 0.47863 0.16519 0.0
H429 H 0.17342 0.50104 0.11659 0.0
S430 S 0.26942 0.41673 0.06634 0.0
N431 N 0.26695 0.41759 0.10597 0.0
N432 N 0.24162 0.4418 0.0533 0.0
C433 C 0.22889 0.45206 0.08159 0.0
C434 C 0.24258 0.43894 0.1102 0.0
C435 C 0.72082 0.03418 0.88955 0.0
C436 C 0.69885 0.00825 0.88986 0.0
C437 C 0.73312 0.04613 0.8606 0.0
C438 C 0.724 0.03261 0.8308 0.0
H439 H 0.72896 0.04514 0.91184 0.0
H440 H 0.75036 0.06585 0.86174 0.0
S441 S 0.66621 0.96499 0.81827 0.0
N442 N 0.66766 0.96993 0.85768 0.0
N443 N 0.6909 0.99244 0.80328 0.0
C444 C 0.70149 0.00711 0.83065 0.0
C445 C 0.68891 -0.00507 0.86019 0.0
C446 C 0.79255 0.96703 0.34616 0.0
C447 C 0.76807 0.94343 0.34655 0.0
C448 C 0.80608 0.97882 0.37478 0.0
C449 C 0.79568 0.96748 0.40495 0.0
H450 H 0.80084 0.97715 0.32361 0.0
H451 H 0.82421 -0.00234 0.37315 0.0
S452 S 0.73439 0.90347 0.41915 0.0
N453 N 0.73555 0.9074 0.37963 0.0
N454 N 0.76099 0.92962 0.43343 0.0
C455 C 0.77221 0.94285 0.40569 0.0
C456 C 0.75839 0.93084 0.3765 0.0
C457 C 0.24509 0.54034 0.62469 0.0
C458 C 0.25338 0.52879 0.65542 0.0
C459 C 0.26016 0.5287 0.59698 0.0
C460 C 0.28419 0.50509 0.59889 0.0
H461 H 0.22652 0.55834 0.62183 0.0
H462 H 0.25262 0.53811 0.57387 0.0
S463 S 0.31531 0.46732 0.67374 0.0
N464 N 0.28762 0.49276 0.68625 0.0
N465 N 0.31605 0.47086 0.63418 0.0
C466 C 0.29312 0.49365 0.62953 0.0
C467 C 0.27769 0.50548 0.6578 0.0
C468 C 0.21534 0.39024 0.49313 0.0
C469 C 0.24172 0.39563 0.51397 0.0
C470 C 0.20683 0.35887 0.48357 0.0
C471 C 0.22466 0.33242 0.49466 0.0
H472 H 0.20492 0.41026 0.4801 0.0
H473 H 0.19031 0.35608 0.46349 0.0
S474 S 0.2847 0.33334 0.56076 0.0
N475 N 0.27712 0.37177 0.55393 0.0
N476 N 0.261 0.31278 0.53602 0.0
C477 C 0.24508 0.33725 0.52135 0.0
C478 C 0.25374 0.36914 0.53109 0.0
C479 C 0.88428 0.95588 0.73365 0.0
C480 C 0.90646 0.97588 0.75 0.0
C481 C 0.85111 0.96091 0.73707 0.0
C482 C 0.83966 0.98574 0.7571 0.0
H483 H 0.89217 0.94056 0.71408 0.0
H484 H 0.83496 0.94912 0.72012 0.0
S485 S 0.88796 0.03154 0.81708 0.0
N486 N 0.91476 0.0115 0.79577 0.0
N487 N 0.85238 0.02074 0.80259 0.0
C488 C 0.86128 -0.00081 0.77963 0.0
C489 C 0.89501 0.99421 0.77599 0.0
C490 C 0.28253 0.63174 0.98319 0.0
C491 C 0.26326 0.65568 -0.0027 0.0
C492 C 0.27593 0.59908 0.98898 0.0
C493 C 0.25023 0.58994 0.00915 0.0
H494 H 0.29848 0.63768 0.96343 0.0
H495 H 0.28713 0.58135 0.9735 0.0
S496 S 0.20585 0.64389 0.06432 0.0
N497 N 0.22743 0.66844 0.04155 0.0
N498 N 0.21521 0.60701 0.05276 0.0
C499 C 0.23752 0.61354 0.02975 0.0
C500 C 0.24409 0.64675 0.0237 0.0
C501 C 0.62032 0.03042 0.23062 0.0
C502 C 0.59518 0.01173 0.24361 0.0
C503 C 0.65235 0.02453 0.23962 0.0
C504 C 0.65972 -0.00035 0.26152 0.0
H505 H 0.61603 0.04542 0.20973 0.0
H506 H 0.67132 0.03541 0.22533 0.0
S507 S 0.60109 0.95615 0.31294 0.0
N508 N 0.57869 0.97674 0.2874 0.0
N509 N 0.63881 0.96574 0.30451 0.0
C510 C 0.63438 0.98728 0.28031 0.0
C511 C 0.60186 0.99322 0.27109 0.0
C512 C 0.74668 0.13346 0.46044 0.0
C513 C 0.72655 0.14375 0.48565 0.0
C514 C 0.75355 0.10066 0.45648 0.0
C515 C 0.74048 0.07773 0.47779 0.0
H516 H 0.76143 0.15086 0.44766 0.0
H517 H 0.77329 0.09429 0.44074 0.0
S518 S 0.67387 0.09127 0.53516 0.0
N519 N 0.68395 0.12771 0.52256 0.0
N520 N 0.69725 0.06606 0.51534 0.0
C521 C 0.71409 0.08706 0.49666 0.0
C522 C 0.70691 0.12039 0.50051 0.0
C523 C 0.12885 0.45656 0.75323 0.0
C524 C 0.13708 0.48161 0.73185 0.0
C525 C 0.09646 0.44869 0.75887 0.0
C526 C 0.0719 0.46619 0.74356 0.0
H527 H 0.14684 0.447 0.76951 0.0
H528 H 0.091 0.43355 0.77941 0.0
S529 S 0.08196 0.52058 0.67374 0.0
N530 N 0.11906 0.51362 0.6863 0.0
N531 N 0.05813 0.49899 0.69724 0.0
C532 C 0.0803 0.48427 0.71621 0.0
C533 C 0.11324 0.49217 0.71032 0.0
C534 C 0.7403 0.87998 0.96104 0.0
C535 C 0.7509 0.90551 0.9808 0.0
C536 C 0.74856 0.84813 0.9685 0.0
C537 C 0.7675 0.8413 -0.00416 0.0
H538 H 0.72147 0.8838 0.94335 0.0
H539 H 0.73575 0.82881 0.95624 0.0
S540 S 0.81295 0.90093 0.04486 0.0
N541 N 0.79026 0.92287 0.02075 0.0
N542 N 0.80568 0.86299 0.03489 0.0
C543 C 0.78442 0.86698 0.0103 0.0
C544 C 0.776 0.89936 0.00273 0.0
C545 C 0.37024 0.47986 0.21059 0.0
C546 C 0.34323 0.49418 0.22488 0.0
C547 C 0.40135 0.4878 0.22139 0.0
C548 C 0.40598 0.51039 0.24642 0.0
H549 H 0.36733 0.45872 0.19544 0.0
H550 H 0.42111 0.47264 0.21383 0.0
S551 S 0.34384 0.56449 0.27989 0.0
N552 N 0.32367 0.53931 0.25632 0.0
N553 N 0.38214 0.55458 0.27641 0.0
C554 C 0.3799 0.53013 0.25467 0.0
C555 C 0.34827 0.5219 0.24381 0.0
C556 C 0.48372 0.22094 0.39212 0.0
C557 C 0.50498 0.24687 0.39823 0.0
C558 C 0.47756 0.21061 0.36053 0.0
C559 C 0.49209 0.22652 0.33441 0.0
H560 H 0.46838 0.21185 0.41117 0.0
H561 H 0.45747 0.19424 0.35657 0.0
S562 S 0.55887 0.28607 0.33893 0.0
N563 N 0.54785 0.28069 0.37673 0.0
N564 N 0.53598 0.26146 0.3173 0.0
C565 C 0.51848 0.24703 0.3409 0.0
C566 C 0.52492 0.25739 0.37305 0.0
C567 C 0.98963 0.28355 0.60007 0.0
C568 C 0.01057 0.25842 0.59129 0.0
C569 C 0.98314 0.28975 0.63261 0.0
C570 C -0.00249 0.27083 0.65669 0.0
H571 H 0.97394 0.29416 0.58215 0.0
H572 H 0.96265 0.30476 0.63824 0.0
S573 S 0.06686 0.21635 0.64596 0.0
N574 N 0.05534 0.22527 0.60895 0.0
N575 N 0.04307 0.23698 0.67011 0.0
C576 C 0.02488 0.25298 0.64818 0.0
C577 C 0.03149 0.24666 0.61511 0.0
C578 C 0.95968 0.7423 0.87764 0.0
C579 C 0.98098 0.75438 0.9012 0.0
C580 C 0.96475 0.74943 0.84505 0.0
C581 C 0.99129 0.76857 0.83559 0.0
H582 H 0.94286 0.72309 0.88348 0.0
H583 H 0.95157 0.73543 0.82724 0.0
S584 S 0.0421 0.81875 0.88967 0.0
N585 N 0.02043 0.79599 0.91413 0.0
N586 N 0.02997 0.80946 0.85287 0.0
C587 C 0.00658 0.78735 0.85941 0.0
C588 C 0.00146 0.78007 0.89253 0.0
C589 C 0.50444 0.70899 0.1193 0.0
C590 C 0.49083 0.72846 0.14336 0.0
C591 C 0.49751 0.71477 0.08676 0.0
C592 C 0.47695 0.74017 0.07779 0.0
H593 H 0.52445 0.69333 0.12496 0.0
H594 H 0.51243 0.70324 0.0688 0.0
S595 S 0.4239 0.78596 0.13267 0.0
N596 N 0.44739 0.7649 0.1568 0.0
N597 N 0.4341 0.77565 0.09567 0.0
C598 C 0.45723 0.75344 0.10181 0.0
C599 C 0.46439 0.74765 0.13488 0.0
C600 C 0.25166 0.37189 0.34427 0.0
C601 C 0.24306 0.33921 0.34302 0.0
C602 C 0.24871 0.39148 0.31708 0.0
C603 C 0.238 0.37891 0.2873 0.0
H604 H 0.26099 0.38235 0.36637 0.0
H605 H 0.25616 0.41648 0.31923 0.0
S606 S 0.21141 0.29459 0.27215 0.0
N607 N 0.22182 0.29512 0.31056 0.0
N608 N 0.21737 0.33168 0.25884 0.0
C609 C 0.22824 0.34637 0.28609 0.0
C610 C 0.23063 0.32655 0.31409 0.0
C611 C 0.85231 0.00251 0.58079 0.0
C612 C 0.8653 0.99113 0.55158 0.0
C613 C 0.87199 0.00902 0.6075 0.0
C614 C 0.90526 0.00366 0.60623 0.0
H615 H 0.82678 0.00717 0.58293 0.0
H616 H 0.86105 0.01798 0.6294 0.0
S617 S 0.95156 0.97384 0.53622 0.0
N618 N 0.91389 0.97477 0.52336 0.0
N619 N 0.95062 0.98616 0.57403 0.0
C620 C 0.91858 0.99155 0.57765 0.0
C621 C 0.89865 0.9854 0.55024 0.0
C622 C 0.22526 0.59279 0.82775 0.0
C623 C 0.23684 0.60352 0.79772 0.0
C624 C 0.22352 0.6136 0.85424 0.0
C625 C 0.23403 0.64571 0.85193 0.0
H626 H 0.21659 0.56831 0.83069 0.0
H627 H 0.2138 0.6045 0.87668 0.0
S628 S 0.26688 0.68598 0.77938 0.0
N629 N 0.25926 0.64865 0.76755 0.0
N630 N 0.25678 0.68748 0.81778 0.0
C631 C 0.24665 0.65662 0.82251 0.0
C632 C 0.24792 0.63557 0.79531 0.0
C633 C 0.57803 -0.00238 0.06232 0.0
C634 C 0.5927 -0.00408 0.0928 0.0
C635 C 0.59658 0.0029 0.03455 0.0
C636 C 0.63025 0.00681 0.03666 0.0
H637 H 0.55235 0.99339 0.05983 0.0
H638 H 0.58477 0.00184 0.01128 0.0
S639 S 0.67889 0.00912 0.11179 0.0
N640 N 0.64177 0.00175 0.12407 0.0
N641 N 0.6767 0.01228 0.07221 0.0
C642 C 0.64461 0.00746 0.06741 0.0
C643 C 0.62582 0.00174 0.09544 0.0
C644 C 0.75678 0.10981 0.6283 0.0
C645 C 0.74769 0.14228 0.62959 0.0
C646 C 0.75238 0.08952 0.65483 0.0
C647 C 0.73951 0.10115 0.68397 0.0
H648 H 0.76749 0.10003 0.60664 0.0
H649 H 0.76018 0.06476 0.65271 0.0
S650 S 0.71125 0.18456 0.69906 0.0
N651 N 0.72414 0.18514 0.66149 0.0
N652 N 0.71667 0.14731 0.71188 0.0
C653 C 0.72946 0.13348 0.68517 0.0
C654 C 0.73344 0.154 0.65788 0.0
C655 C 0.09824 0.48187 0.9418 0.0
C656 C 0.13103 0.49015 0.93867 0.0
C657 C 0.07698 0.48436 0.91562 0.0
C658 C 0.08771 0.49569 0.8856 0.0
H659 H 0.0886 0.47457 0.9649 0.0
H660 H 0.05175 0.47858 0.91922 0.0
S661 S 0.17171 0.51617 0.86337 0.0
N662 N 0.17373 0.50648 0.90185 0.0
N663 N 0.1334 0.5123 0.85319 0.0
C664 C 0.12054 0.50267 0.88169 0.0
C665 C 0.14232 0.49953 0.90808 0.0
C666 C 0.74803 0.89021 0.16905 0.0
C667 C 0.75389 0.87609 0.19936 0.0
C668 C 0.74251 0.8713 0.14163 0.0
C669 C 0.74328 0.8376 0.14338 0.0
H670 H 0.74669 0.91617 0.16661 0.0
H671 H 0.73763 0.8831 0.11889 0.0
S672 S 0.75828 0.78831 0.21606 0.0
N673 N 0.76045 0.82595 0.22905 0.0
N674 N 0.75108 0.79052 0.177 0.0
C675 C 0.75021 0.82302 0.17303 0.0
C676 C 0.75537 0.84224 0.20116 0.0
C677 C 0.34523 0.49091 0.4234 0.0
C678 C 0.35638 0.50358 0.45298 0.0
C679 C 0.36524 0.48935 0.39648 0.0
C680 C 0.39675 0.50159 0.39759 0.0
H681 H 0.32129 0.48061 0.42126 0.0
H682 H 0.35617 0.47785 0.37478 0.0
S683 S 0.43618 0.54193 0.46719 0.0
N684 N 0.40024 0.53134 0.48071 0.0
N685 N 0.43728 0.53016 0.42919 0.0
C686 C 0.40742 0.51691 0.42596 0.0
C687 C 0.38732 0.51758 0.45388 0.0
C688 C 0.31692 0.24726 0.38499 0.0
C689 C 0.28732 0.23616 0.37222 0.0
C690 C 0.34418 0.25089 0.36562 0.0
C691 C 0.34326 0.24245 0.33298 0.0
H692 H 0.31895 0.25437 0.41001 0.0
H693 H 0.36613 0.26046 0.37627 0.0
S694 S 0.27313 0.20947 0.28801 0.0
N695 N 0.25943 0.21524 0.32487 0.0
N696 N 0.31142 0.22058 0.2888 0.0
C697 C 0.31457 0.22955 0.32013 0.0
C698 C 0.28642 0.22664 0.33969 0.0
C699 C 0.99137 0.08243 0.65083 0.0
C700 C 0.0049 0.05413 0.63792 0.0
C701 C 0.98531 0.10935 0.63152 0.0
C702 C 0.99345 0.10937 0.59878 0.0
H703 H 0.98428 0.08349 0.67587 0.0
H704 H 0.97404 0.13025 0.64227 0.0
S705 S 0.03143 0.04267 0.55342 0.0
N706 N 0.02755 0.02856 0.59037 0.0
N707 N 0.01708 0.07968 0.55436 0.0
C708 C 0.0085 0.08202 0.58583 0.0
C709 C 0.01412 0.05431 0.60535 0.0
C710 C 0.16218 0.73678 0.88858 0.0
C711 C 0.19167 0.74726 0.87525 0.0
C712 C 0.13493 0.73149 0.86925 0.0
C713 C 0.13598 0.7372 0.83603 0.0
H714 H 0.16021 0.73191 0.91409 0.0
H715 H 0.1128 0.72325 0.88043 0.0
S716 S 0.20657 0.76494 0.78892 0.0
N717 N 0.2199 0.76312 0.82637 0.0
N718 N 0.16828 0.75401 0.79034 0.0
C719 C 0.16488 0.74837 0.82238 0.0
C720 C 0.19281 0.7533 0.84193 0.0
C721 C 0.48474 0.94059 0.09607 0.0
C722 C 0.49422 0.93862 0.12857 0.0
C723 C 0.48728 0.91384 0.07546 0.0
C724 C 0.49986 0.8845 0.08659 0.0
H725 H 0.47656 0.96322 0.08611 0.0
H726 H 0.48064 0.91653 0.05037 0.0
S727 S 0.52371 0.8652 0.17027 0.0
N728 N 0.51293 0.90342 0.17162 0.0
N729 N 0.51886 0.85386 0.13243 0.0
C730 C 0.50795 0.8817 0.1192 0.0
C731 C 0.50475 0.90858 0.14034 0.0
C732 C 0.8261 0.23457 0.5908 0.0
C733 C 0.79641 0.24589 0.60248 0.0
C734 C 0.85288 0.2314 0.61108 0.0
C735 C 0.85125 0.24025 0.64365 0.0
H736 H 0.82849 0.22713 0.56595 0.0
H737 H 0.87498 0.22182 0.60121 0.0
S738 S 0.77998 0.27264 0.68614 0.0
N739 N 0.76743 0.26686 0.6488 0.0
N740 N 0.81816 0.26177 0.68669 0.0
C741 C 0.82225 0.25291 0.65545 0.0
C742 C 0.79475 0.25561 0.6349 0.0
C743 C -0.00203 0.57357 0.8486 0.0
C744 C 0.98487 0.54563 0.86301 0.0
C745 C 0.00442 0.60146 0.86661 0.0
C746 C -0.0029 0.60283 0.89949 0.0
H747 H 0.00422 0.57373 0.82333 0.0
H748 H 0.01513 0.62213 0.8547 0.0
S749 S 0.9613 0.53741 0.94877 0.0
N750 N 0.96414 0.52168 0.91233 0.0
N751 N 0.97525 0.57467 0.94585 0.0
C752 C 0.98284 0.57572 0.91406 0.0
C753 C 0.97687 0.54702 0.89588 0.0
C754 C 0.6684 0.73677 0.15758 0.0
C755 C 0.63927 0.74612 0.1431 0.0
C756 C 0.69629 0.73234 0.13904 0.0
C757 C 0.69565 0.73664 0.10543 0.0
H758 H 0.66998 0.73434 0.18351 0.0
H759 H 0.71872 0.72718 0.1513 0.0
S760 S 0.62346 0.75534 0.05594 0.0
N761 N 0.61033 0.75599 0.0934 0.0
N762 N 0.66212 0.74649 0.05824 0.0
C763 C 0.66588 0.74354 0.09063 0.0
C764 C 0.63784 0.74869 0.10956 0.0
C765 C 0.4864 0.4586 0.40489 0.0
C766 C 0.50176 0.45774 0.37476 0.0
C767 C 0.48064 0.43013 0.42224 0.0
C768 C 0.49096 0.40023 0.41032 0.0
H769 H 0.47701 0.48103 0.41412 0.0
H770 H 0.46774 0.43143 0.44484 0.0
S771 S 0.53491 0.38558 0.33435 0.0
N772 N 0.52842 0.42485 0.3346 0.0
N773 N 0.51929 0.3716 0.36814 0.0
C774 C 0.50802 0.39933 0.38128 0.0
C775 C 0.51303 0.42808 0.36324 0.0
C776 C 0.39077 0.31697 0.23881 0.0
C777 C 0.37628 0.28697 0.23142 0.0
C778 C 0.37233 0.3446 0.24373 0.0
C779 C 0.33877 0.34347 0.24057 0.0
H780 H 0.4166 0.31893 0.24224 0.0
H781 H 0.38437 0.36694 0.25029 0.0
S782 S 0.28881 0.27214 0.21936 0.0
N783 N 0.32609 0.25842 0.21987 0.0
N784 N 0.29152 0.31098 0.22793 0.0
C785 C 0.32392 0.3143 0.23148 0.0
C786 C 0.34267 0.28587 0.22705 0.0
C787 C 0.82722 0.15932 0.7459 0.0
C788 C 0.8408 0.131 0.73342 0.0
C789 C 0.84609 0.18708 0.75086 0.0
C790 C 0.8793 0.18722 0.74403 0.0
H791 H 0.80163 0.16033 0.75086 0.0
H792 H 0.83434 0.20881 0.75908 0.0
S793 S 0.92689 0.11721 0.71544 0.0
N794 N 0.88945 0.1036 0.71692 0.0
N795 N 0.92542 0.15513 0.72752 0.0
C796 C 0.89338 0.15828 0.73333 0.0
C797 C 0.874 0.13033 0.72761 0.0
C798 C 0.07855 0.6462 0.98603 0.0
C799 C 0.04903 0.63421 -0.0021 0.0
C800 C 0.10499 0.62601 0.98148 0.0
C801 C 0.10325 0.59321 0.98943 0.0
H802 H 0.08104 0.67124 0.97905 0.0
H803 H 0.12692 0.63611 0.97146 0.0
S804 S 0.03262 0.54983 0.023 0.0
N805 N 0.02021 0.58731 0.01856 0.0
N806 N 0.0705 0.54959 0.01094 0.0
C807 C 0.07457 0.58106 0.00276 0.0
C808 C 0.04733 0.60152 0.00686 0.0
C809 C 0.61965 0.85391 0.22661 0.0
C810 C 0.6506 0.85305 0.24015 0.0
C811 C 0.5987 0.82745 0.22914 0.0
C812 C 0.60827 0.7987 0.2444 0.0
H813 H 0.61155 0.87518 0.21391 0.0
H814 H 0.57516 0.82937 0.21812 0.0
S815 S 0.68676 0.78494 0.28493 0.0
N816 N 0.6895 0.82206 0.27083 0.0
N817 N 0.65053 0.77175 0.2746 0.0
C818 C 0.63892 0.79793 0.25888 0.0
C819 C 0.66002 0.82521 0.25691 0.0
C820 C 0.42248 0.41312 0.50537 0.0
C821 C 0.39196 0.399 0.50051 0.0
C822 C 0.44997 0.39385 0.50911 0.0
C823 C 0.44751 0.35997 0.5084 0.0
H824 H 0.42529 0.4391 0.50474 0.0
H825 H 0.47335 0.40554 0.51047 0.0
S826 S 0.37187 0.31198 0.50163 0.0
N827 N 0.36014 0.34982 0.4987 0.0
N828 N 0.41136 0.31347 0.5065 0.0
C829 C 0.4166 0.34587 0.50605 0.0
C830 C 0.3889 0.36543 0.50179 0.0
C831 C 0.10393 0.63466 0.75224 0.0
C832 C 0.13696 0.63356 0.74557 0.0
C833 C 0.08634 0.6628 0.74683 0.0
C834 C 0.10133 0.69121 0.73546 0.0
H835 H 0.09166 0.6137 0.76197 0.0
H836 H 0.06098 0.66257 0.75288 0.0
S837 S 0.18762 0.70008 0.7137 0.0
N838 N 0.18402 0.66232 0.72577 0.0
N839 N 0.15127 0.71576 0.71659 0.0
C840 C 0.13428 0.68999 0.72772 0.0
C841 C 0.15205 0.66104 0.73265 0.0
C842 C 0.54292 0.89554 0.98576 0.0
C843 C 0.54591 0.86178 0.98404 0.0
C844 C 0.56984 0.9153 0.99191 0.0
C845 C 0.60041 0.90188 -0.00314 0.0
H846 H 0.51952 0.90672 0.98356 0.0
H847 H 0.56665 0.94117 0.99338 0.0
S848 S 0.62198 0.81573 0.99117 0.0
N849 N 0.58264 0.81626 0.98504 0.0
N850 N 0.63295 0.85364 -0.00296 0.0
C851 C 0.60403 0.8685 -0.00594 0.0
C852 C 0.57681 0.84838 0.98751 0.0
C853 C 0.91458 0.0822 0.49147 0.0
C854 C 0.88495 0.09293 0.50358 0.0
C855 C 0.94093 0.10338 0.4886 0.0
C856 C 0.9383 0.1361 0.49725 0.0
H857 H 0.91778 0.05701 0.48537 0.0
H858 H 0.96374 0.09375 0.48063 0.0
S859 S 0.86405 0.17671 0.52564 0.0
N860 N 0.85342 0.13849 0.52159 0.0
N861 N 0.90229 0.17874 0.51497 0.0
C862 C 0.90805 0.14739 0.50751 0.0
C863 C 0.88154 0.12567 0.51106 0.0
loop_
_geom_bond_atom_site_label_1
_geom_bond_atom_site_label_2
_geom_bond_distance
_geom_bond_site_symmetry_2
_ccdc_geom_bond_type
Co0 O1 2.216 . S
Co0 O2 2.091 . S
Co0 O4 2.004 . S
Co0 O10 2.021 . S
Co0 O12 2.137 . S
Co0 O13 2.244 . S
O1 Co0 2.216 . S
O1 C8 1.247 . S
O2 Co0 2.091 . S
O2 C8 1.261 . S
C3 O12 1.247 . S
C3 O13 1.272 . S
O4 Co0 2.004 . S
O4 C9 1.259 . S
Co5 O6 2.061 . S
Co5 O11 2.052 . S
Co5 O13 2.135 . S
O6 Co5 2.061 . S
O6 C9 1.235 . S
C7 O10 1.238 . S
C7 O11 1.241 . S
C8 O1 1.247 . S
C8 O2 1.261 . S
C9 O4 1.259 . S
C9 O6 1.235 . S
O10 Co0 2.021 . S
O10 C7 1.238 . S
O11 Co5 2.052 . S
O11 C7 1.241 . S
O12 Co0 2.137 . S
O12 C3 1.247 . S
O13 Co0 2.244 . S
O13 C3 1.272 . S
O13 Co5 2.135 . S
Co14 O15 2.216 . S
Co14 O16 2.091 . S
Co14 O18 2.004 . S
Co14 O24 2.021 . S
Co14 O26 2.137 . S
Co14 O27 2.244 . S
O15 Co14 2.216 . S
O15 C22 1.247 . S
O16 Co14 2.091 . S
O16 C22 1.261 . S
C17 O26 1.247 . S
C17 O27 1.272 . S
O18 Co14 2.004 . S
O18 C23 1.259 . S
Co19 O20 2.061 1_545 S
Co19 O25 2.052 1_545 S
Co19 O27 2.135 1_545 S
O20 Co19 2.061 1_565 S
O20 C23 1.235 . S
C21 O24 1.238 . S
C21 O25 1.241 . S
C22 O15 1.247 . S
C22 O16 1.261 . S
C23 O18 1.259 . S
C23 O20 1.235 . S
O24 Co14 2.021 . S
O24 C21 1.238 . S
O25 Co19 2.052 1_565 S
O25 C21 1.241 . S
O26 Co14 2.137 . S
O26 C17 1.247 . S
O27 Co14 2.244 . S
O27 C17 1.272 . S
O27 Co19 2.135 1_565 S
Co28 O29 2.216 . S
Co28 O30 2.091 . S
Co28 O32 2.004 . S
Co28 O38 2.021 . S
Co28 O40 2.137 . S
Co28 O41 2.244 . S
O29 Co28 2.216 . S
O29 C36 1.247 . S
O30 Co28 2.091 . S
O30 C36 1.261 . S
C31 O40 1.247 . S
C31 O41 1.272 . S
O32 Co28 2.004 . S
O32 C37 1.259 . S
Co33 O34 2.061 . S
Co33 O39 2.052 . S
Co33 O41 2.135 . S
O34 Co33 2.061 . S
O34 C37 1.235 . S
C35 O38 1.238 . S
C35 O39 1.241 . S
C36 O29 1.247 . S
C36 O30 1.261 . S
C37 O32 1.259 . S
C37 O34 1.235 . S
O38 Co28 2.021 . S
O38 C35 1.238 . S
O39 Co33 2.052 . S
O39 C35 1.241 . S
O40 Co28 2.137 . S
O40 C31 1.247 . S
O41 Co28 2.244 . S
O41 C31 1.272 . S
O41 Co33 2.135 . S
Co42 O43 2.216 . S
Co42 O44 2.091 . S
Co42 O46 2.004 . S
Co42 O52 2.021 . S
Co42 O54 2.137 . S
Co42 O55 2.244 . S
O43 Co42 2.216 . S
O43 C50 1.247 . S
O44 Co42 2.091 . S
O44 C50 1.261 . S
C45 O54 1.247 . S
C45 O55 1.272 . S
O46 Co42 2.004 . S
O46 C51 1.259 . S
Co47 O48 2.061 1_565 S
Co47 O53 2.052 1_565 S
Co47 O55 2.135 1_565 S
O48 Co47 2.061 1_545 S
O48 C51 1.235 . S
C49 O52 1.238 . S
C49 O53 1.241 . S
C50 O43 1.247 . S
C50 O44 1.261 . S
C51 O46 1.259 . S
C51 O48 1.235 . S
O52 Co42 2.021 . S
O52 C49 1.238 . S
O53 Co47 2.052 1_545 S
O53 C49 1.241 . S
O54 Co42 2.137 . S
O54 C45 1.247 . S
O55 Co42 2.244 . S
O55 C45 1.272 . S
O55 Co47 2.135 1_545 S
Co56 O57 2.216 . S
Co56 O58 2.091 . S
Co56 O60 2.004 . S
Co56 O66 2.021 . S
Co56 O68 2.137 . S
Co56 O69 2.244 . S
O57 Co56 2.216 . S
O57 C64 1.247 . S
O58 Co56 2.091 . S
O58 C64 1.261 . S
C59 O68 1.247 . S
C59 O69 1.272 . S
O60 Co56 2.004 . S
O60 C65 1.259 . S
Co61 O62 2.061 . S
Co61 O67 2.052 . S
Co61 O69 2.135 . S
O62 Co61 2.061 . S
O62 C65 1.235 . S
C63 O66 1.238 . S
C63 O67 1.241 . S
C64 O57 1.247 . S
C64 O58 1.261 . S
C65 O60 1.259 . S
C65 O62 1.235 . S
O66 Co56 2.021 . S
O66 C63 1.238 . S
O67 Co61 2.052 . S
O67 C63 1.241 . S
O68 Co56 2.137 . S
O68 C59 1.247 . S
O69 Co56 2.244 . S
O69 C59 1.272 . S
O69 Co61 2.135 . S
Co70 O71 2.216 . S
Co70 O72 2.091 . S
Co70 O74 2.004 . S
Co70 O80 2.021 . S
Co70 O82 2.137 . S
Co70 O83 2.244 . S
O71 Co70 2.216 . S
O71 C78 1.247 . S
O72 Co70 2.091 . S
O72 C78 1.261 . S
C73 O82 1.247 . S
C73 O83 1.272 . S
O74 Co70 2.004 . S
O74 C79 1.259 . S
Co75 O76 2.061 . S
Co75 O81 2.052 . S
Co75 O83 2.135 . S
O76 Co75 2.061 . S
O76 C79 1.235 . S
C77 O80 1.238 . S
C77 O81 1.241 . S
C78 O71 1.247 . S
C78 O72 1.261 . S
C79 O74 1.259 . S
C79 O76 1.235 . S
O80 Co70 2.021 . S
O80 C77 1.238 . S
O81 Co75 2.052 . S
O81 C77 1.241 . S
O82 Co70 2.137 . S
O82 C73 1.247 . S
O83 Co70 2.244 . S
O83 C73 1.272 . S
O83 Co75 2.135 . S
Co84 O85 2.216 . S
Co84 O86 2.091 . S
Co84 O88 2.004 . S
Co84 O94 2.021 . S
Co84 O96 2.137 . S
Co84 O97 2.244 . S
O85 Co84 2.216 . S
O85 C92 1.247 . S
O86 Co84 2.091 . S
O86 C92 1.261 . S
C87 O96 1.247 . S
C87 O97 1.272 . S
O88 Co84 2.004 . S
O88 C93 1.259 . S
Co89 O90 2.061 . S
Co89 O95 2.052 . S
Co89 O97 2.135 . S
O90 Co89 2.061 . S
O90 C93 1.235 . S
C91 O94 1.238 . S
C91 O95 1.241 . S
C92 O85 1.247 . S
C92 O86 1.261 . S
C93 O88 1.259 . S
C93 O90 1.235 . S
O94 Co84 2.021 . S
O94 C91 1.238 . S
O95 Co89 2.052 . S
O95 C91 1.241 . S
O96 Co84 2.137 . S
O96 C87 1.247 . S
O97 Co84 2.244 . S
O97 C87 1.272 . S
O97 Co89 2.135 . S
Co98 O99 2.216 . S
Co98 O100 2.091 . S
Co98 O102 2.004 . S
Co98 O108 2.021 . S
Co98 O110 2.137 . S
Co98 O111 2.244 . S
O99 Co98 2.216 . S
O99 C106 1.247 . S
O100 Co98 2.091 . S
O100 C106 1.261 . S
C101 O110 1.247 . S
C101 O111 1.272 . S
O102 Co98 2.004 . S
O102 C107 1.259 . S
Co103 O104 2.061 . S
Co103 O109 2.052 . S
Co103 O111 2.135 . S
O104 Co103 2.061 . S
O104 C107 1.235 . S
C105 O108 1.238 . S
C105 O109 1.241 . S
C106 O99 1.247 . S
C106 O100 1.261 . S
C107 O102 1.259 . S
C107 O104 1.235 . S
O108 Co98 2.021 . S
O108 C105 1.238 . S
O109 Co103 2.052 . S
O109 C105 1.241 . S
O110 Co98 2.137 . S
O110 C101 1.247 . S
O111 Co98 2.244 . S
O111 C101 1.272 . S
O111 Co103 2.135 . S
Co112 O113 2.216 . S
Co112 O114 2.091 . S
Co112 O116 2.004 . S
Co112 O122 2.021 . S
Co112 O124 2.137 . S
Co112 O125 2.244 . S
O113 Co112 2.216 . S
O113 C120 1.247 . S
O114 Co112 2.091 . S
O114 C120 1.261 . S
C115 O124 1.247 . S
C115 O125 1.272 . S
O116 Co112 2.004 . S
O116 C121 1.259 . S
Co117 O118 2.061 . S
Co117 O123 2.052 . S
Co117 O125 2.135 . S
O118 Co117 2.061 . S
O118 C121 1.235 . S
C119 O122 1.238 . S
C119 O123 1.241 . S
C120 O113 1.247 . S
C120 O114 1.261 . S
C121 O116 1.259 . S
C121 O118 1.235 . S
O122 Co112 2.021 . S
O122 C119 1.238 . S
O123 Co117 2.052 . S
O123 C119 1.241 . S
O124 Co112 2.137 . S
O124 C115 1.247 . S
O125 Co112 2.244 . S
O125 C115 1.272 . S
O125 Co117 2.135 . S
Co126 O127 2.216 . S
Co126 O128 2.091 . S
Co126 O130 2.004 . S
Co126 O136 2.021 . S
Co126 O138 2.137 . S
Co126 O139 2.244 . S
O127 Co126 2.216 . S
O127 C134 1.247 . S
O128 Co126 2.091 . S
O128 C134 1.261 . S
C129 O138 1.247 . S
C129 O139 1.272 . S
O130 Co126 2.004 . S
O130 C135 1.259 . S
Co131 O132 2.061 1_655 S
Co131 O137 2.052 1_655 S
Co131 O139 2.135 1_655 S
O132 Co131 2.061 1_455 S
O132 C135 1.235 . S
C133 O136 1.238 . S
C133 O137 1.241 . S
C134 O127 1.247 . S
C134 O128 1.261 . S
C135 O130 1.259 . S
C135 O132 1.235 . S
O136 Co126 2.021 . S
O136 C133 1.238 . S
O137 Co131 2.052 1_455 S
O137 C133 1.241 . S
O138 Co126 2.137 . S
O138 C129 1.247 . S
O139 Co126 2.244 . S
O139 C129 1.272 . S
O139 Co131 2.135 1_455 S
Co140 O141 2.216 . S
Co140 O142 2.091 . S
Co140 O144 2.004 . S
Co140 O150 2.021 . S
Co140 O152 2.137 . S
Co140 O153 2.244 . S
O141 Co140 2.216 . S
O141 C148 1.247 . S
O142 Co140 2.091 . S
O142 C148 1.261 . S
C143 O152 1.247 . S
C143 O153 1.272 . S
O144 Co140 2.004 . S
O144 C149 1.259 . S
Co145 O146 2.061 . S
Co145 O151 2.052 . S
Co145 O153 2.135 . S
O146 Co145 2.061 . S
O146 C149 1.235 . S
C147 O150 1.238 . S
C147 O151 1.241 . S
C148 O141 1.247 . S
C148 O142 1.261 . S
C149 O144 1.259 . S
C149 O146 1.235 . S
O150 Co140 2.021 . S
O150 C147 1.238 . S
O151 Co145 2.052 . S
O151 C147 1.241 . S
O152 Co140 2.137 . S
O152 C143 1.247 . S
O153 Co140 2.244 . S
O153 C143 1.272 . S
O153 Co145 2.135 . S
Co154 O155 2.216 . S
Co154 O156 2.091 . S
Co154 O158 2.004 . S
Co154 O164 2.021 . S
Co154 O166 2.137 . S
Co154 O167 2.244 . S
O155 Co154 2.216 . S
O155 C162 1.247 . S
O156 Co154 2.091 . S
O156 C162 1.261 . S
C157 O166 1.247 . S
C157 O167 1.272 . S
O158 Co154 2.004 . S
O158 C163 1.259 . S
Co159 O160 2.061 . S
Co159 O165 2.052 . S
Co159 O167 2.135 . S
O160 Co159 2.061 . S
O160 C163 1.235 . S
C161 O164 1.238 . S
C161 O165 1.241 . S
C162 O155 1.247 . S
C162 O156 1.261 . S
C163 O158 1.259 . S
C163 O160 1.235 . S
O164 Co154 2.021 . S
O164 C161 1.238 . S
O165 Co159 2.052 . S
O165 C161 1.241 . S
O166 Co154 2.137 . S
O166 C157 1.247 . S
O167 Co154 2.244 . S
O167 C157 1.272 . S
O167 Co159 2.135 . S
Co168 O169 2.216 . S
Co168 O170 2.091 . S
Co168 O172 2.004 . S
Co168 O178 2.021 . S
Co168 O180 2.137 . S
Co168 O181 2.244 . S
O169 Co168 2.216 . S
O169 C176 1.247 . S
O170 Co168 2.091 . S
O170 C176 1.261 . S
C171 O180 1.247 . S
C171 O181 1.272 . S
O172 Co168 2.004 . S
O172 C177 1.259 . S
Co173 O174 2.061 . S
Co173 O179 2.052 . S
Co173 O181 2.135 . S
O174 Co173 2.061 . S
O174 C177 1.235 . S
C175 O178 1.238 . S
C175 O179 1.241 . S
C176 O169 1.247 . S
C176 O170 1.261 . S
C177 O172 1.259 . S
C177 O174 1.235 . S
O178 Co168 2.021 . S
O178 C175 1.238 . S
O179 Co173 2.052 . S
O179 C175 1.241 . S
O180 Co168 2.137 . S
O180 C171 1.247 . S
O181 Co168 2.244 . S
O181 C171 1.272 . S
O181 Co173 2.135 . S
Co182 O183 2.216 . S
Co182 O184 2.091 . S
Co182 O186 2.004 . S
Co182 O192 2.021 . S
Co182 O194 2.137 . S
Co182 O195 2.244 . S
O183 Co182 2.216 . S
O183 C190 1.247 . S
O184 Co182 2.091 . S
O184 C190 1.261 . S
C185 O194 1.247 . S
C185 O195 1.272 . S
O186 Co182 2.004 . S
O186 C191 1.259 . S
Co187 O188 2.061 1_455 S
Co187 O193 2.052 1_455 S
Co187 O195 2.135 1_455 S
O188 Co187 2.061 1_655 S
O188 C191 1.235 . S
C189 O192 1.238 . S
C189 O193 1.241 . S
C190 O183 1.247 . S
C190 O184 1.261 . S
C191 O186 1.259 . S
C191 O188 1.235 . S
O192 Co182 2.021 . S
O192 C189 1.238 . S
O193 Co187 2.052 1_655 S
O193 C189 1.241 . S
O194 Co182 2.137 . S
O194 C185 1.247 . S
O195 Co182 2.244 . S
O195 C185 1.272 . S
O195 Co187 2.135 1_655 S
Co196 O197 2.216 . S
Co196 O198 2.091 . S
Co196 O200 2.004 . S
Co196 O206 2.021 . S
Co196 O208 2.137 . S
Co196 O209 2.244 . S
O197 Co196 2.216 . S
O197 C204 1.247 . S
O198 Co196 2.091 . S
O198 C204 1.261 . S
C199 O208 1.247 . S
C199 O209 1.272 . S
O200 Co196 2.004 . S
O200 C205 1.259 . S
Co201 O202 2.061 . S
Co201 O207 2.052 . S
Co201 O209 2.135 . S
O202 Co201 2.061 . S
O202 C205 1.235 . S
C203 O206 1.238 . S
C203 O207 1.241 . S
C204 O197 1.247 . S
C204 O198 1.261 . S
C205 O200 1.259 . S
C205 O202 1.235 . S
O206 Co196 2.021 . S
O206 C203 1.238 . S
O207 Co201 2.052 . S
O207 C203 1.241 . S
O208 Co196 2.137 . S
O208 C199 1.247 . S
O209 Co196 2.244 . S
O209 C199 1.272 . S
O209 Co201 2.135 . S
Co210 O211 2.216 . S
Co210 O212 2.091 . S
Co210 O214 2.004 . S
Co210 O220 2.021 . S
Co210 O222 2.137 . S
Co210 O223 2.244 . S
O211 Co210 2.216 . S
O211 C218 1.247 . S
O212 Co210 2.091 . S
O212 C218 1.261 . S
C213 O222 1.247 . S
C213 O223 1.272 . S
O214 Co210 2.004 . S
O214 C219 1.259 . S
Co215 O216 2.061 . S
Co215 O221 2.052 . S
Co215 O223 2.135 . S
O216 Co215 2.061 . S
O216 C219 1.235 . S
C217 O220 1.238 . S
C217 O221 1.241 . S
C218 O211 1.247 . S
C218 O212 1.261 . S
C219 O214 1.259 . S
C219 O216 1.235 . S
O220 Co210 2.021 . S
O220 C217 1.238 . S
O221 Co215 2.052 . S
O221 C217 1.241 . S
O222 Co210 2.137 . S
O222 C213 1.247 . S
O223 Co210 2.244 . S
O223 C213 1.272 . S
O223 Co215 2.135 . S
Co224 O225 2.216 . S
Co224 O226 2.091 . S
Co224 O228 2.004 . S
Co224 O234 2.021 . S
Co224 O236 2.137 . S
Co224 O237 2.244 . S
O225 Co224 2.216 . S
O225 C232 1.247 . S
O226 Co224 2.091 . S
O226 C232 1.261 . S
C227 O236 1.247 . S
C227 O237 1.272 . S
O228 Co224 2.004 . S
O228 C233 1.259 . S
Co229 O230 2.061 . S
Co229 O235 2.052 . S
Co229 O237 2.135 . S
O230 Co229 2.061 . S
O230 C233 1.235 . S
C231 O234 1.238 . S
C231 O235 1.241 . S
C232 O225 1.247 . S
C232 O226 1.261 . S
C233 O228 1.259 . S
C233 O230 1.235 . S
O234 Co224 2.021 . S
O234 C231 1.238 . S
O235 Co229 2.052 . S
O235 C231 1.241 . S
O236 Co224 2.137 . S
O236 C227 1.247 . S
O237 Co224 2.244 . S
O237 C227 1.272 . S
O237 Co229 2.135 . S
Co238 O239 2.216 . S
Co238 O240 2.091 . S
Co238 O242 2.004 . S
Co238 O248 2.021 . S
Co238 O250 2.137 . S
Co238 O251 2.244 . S
O239 Co238 2.216 . S
O239 C246 1.247 . S
O240 Co238 2.091 . S
O240 C246 1.261 . S
C241 O250 1.247 . S
C241 O251 1.272 . S
O242 Co238 2.004 . S
O242 C247 1.259 . S
Co243 O244 2.061 . S
Co243 O249 2.052 . S
Co243 O251 2.135 . S
O244 Co243 2.061 . S
O244 C247 1.235 . S
C245 O248 1.238 . S
C245 O249 1.241 . S
C246 O239 1.247 . S
C246 O240 1.261 . S
C247 O242 1.259 . S
C247 O244 1.235 . S
O248 Co238 2.021 . S
O248 C245 1.238 . S
O249 Co243 2.052 . S
O249 C245 1.241 . S
O250 Co238 2.137 . S
O250 C241 1.247 . S
O251 Co238 2.244 . S
O251 C241 1.272 . S
O251 Co243 2.135 . S
Co252 O253 2.216 . S
Co252 O254 2.091 . S
Co252 O256 2.004 . S
Co252 O262 2.021 . S
Co252 O264 2.137 . S
Co252 O265 2.244 . S
O253 Co252 2.216 . S
O253 C260 1.247 . S
O254 Co252 2.091 . S
O254 C260 1.261 . S
C255 O264 1.247 . S
C255 O265 1.272 . S
O256 Co252 2.004 . S
O256 C261 1.259 . S
Co257 O258 2.061 1_556 S
Co257 O263 2.052 1_556 S
Co257 O265 2.135 1_556 S
O258 Co257 2.061 1_554 S
O258 C261 1.235 . S
C259 O262 1.238 . S
C259 O263 1.241 . S
C260 O253 1.247 . S
C260 O254 1.261 . S
C261 O256 1.259 . S
C261 O258 1.235 . S
O262 Co252 2.021 . S
O262 C259 1.238 . S
O263 Co257 2.052 1_554 S
O263 C259 1.241 . S
O264 Co252 2.137 . S
O264 C255 1.247 . S
O265 Co252 2.244 . S
O265 C255 1.272 . S
O265 Co257 2.135 1_554 S
Co266 O267 2.216 . S
Co266 O268 2.091 . S
Co266 O270 2.004 . S
Co266 O276 2.021 . S
Co266 O278 2.137 . S
Co266 O279 2.244 . S
O267 Co266 2.216 . S
O267 C274 1.247 . S
O268 Co266 2.091 . S
O268 C274 1.261 . S
C269 O278 1.247 . S
C269 O279 1.272 . S
O270 Co266 2.004 . S
O270 C275 1.259 . S
Co271 O272 2.061 . S
Co271 O277 2.052 . S
Co271 O279 2.135 . S
O272 Co271 2.061 . S
O272 C275 1.235 . S
C273 O276 1.238 . S
C273 O277 1.241 . S
C274 O267 1.247 . S
C274 O268 1.261 . S
C275 O270 1.259 . S
C275 O272 1.235 . S
O276 Co266 2.021 . S
O276 C273 1.238 . S
O277 Co271 2.052 . S
O277 C273 1.241 . S
O278 Co266 2.137 . S
O278 C269 1.247 . S
O279 Co266 2.244 . S
O279 C269 1.272 . S
O279 Co271 2.135 . S
Co280 O281 2.216 . S
Co280 O282 2.091 . S
Co280 O284 2.004 . S
Co280 O290 2.021 . S
Co280 O292 2.137 . S
Co280 O293 2.244 . S
O281 Co280 2.216 . S
O281 C288 1.247 . S
O282 Co280 2.091 . S
O282 C288 1.261 . S
C283 O292 1.247 . S
C283 O293 1.272 . S
O284 Co280 2.004 . S
O284 C289 1.259 . S
Co285 O286 2.061 . S
Co285 O291 2.052 . S
Co285 O293 2.135 . S
O286 Co285 2.061 . S
O286 C289 1.235 . S
C287 O290 1.238 . S
C287 O291 1.241 . S
C288 O281 1.247 . S
C288 O282 1.261 . S
C289 O284 1.259 . S
C289 O286 1.235 . S
O290 Co280 2.021 . S
O290 C287 1.238 . S
O291 Co285 2.052 . S
O291 C287 1.241 . S
O292 Co280 2.137 . S
O292 C283 1.247 . S
O293 Co280 2.244 . S
O293 C283 1.272 . S
O293 Co285 2.135 . S
Co294 O295 2.216 . S
Co294 O296 2.091 . S
Co294 O298 2.004 . S
Co294 O304 2.021 . S
Co294 O306 2.137 . S
Co294 O307 2.244 . S
O295 Co294 2.216 . S
O295 C302 1.247 . S
O296 Co294 2.091 . S
O296 C302 1.261 . S
C297 O306 1.247 . S
C297 O307 1.272 . S
O298 Co294 2.004 . S
O298 C303 1.259 . S
Co299 O300 2.061 . S
Co299 O305 2.052 . S
Co299 O307 2.135 . S
O300 Co299 2.061 . S
O300 C303 1.235 . S
C301 O304 1.238 . S
C301 O305 1.241 . S
C302 O295 1.247 . S
C302 O296 1.261 . S
C303 O298 1.259 . S
C303 O300 1.235 . S
O304 Co294 2.021 . S
O304 C301 1.238 . S
O305 Co299 2.052 . S
O305 C301 1.241 . S
O306 Co294 2.137 . S
O306 C297 1.247 . S
O307 Co294 2.244 . S
O307 C297 1.272 . S
O307 Co299 2.135 . S
Co308 O309 2.216 . S
Co308 O310 2.091 . S
Co308 O312 2.004 . S
Co308 O318 2.021 . S
Co308 O320 2.137 . S
Co308 O321 2.244 . S
O309 Co308 2.216 . S
O309 C316 1.247 . S
O310 Co308 2.091 . S
O310 C316 1.261 . S
C311 O320 1.247 . S
C311 O321 1.272 . S
O312 Co308 2.004 . S
O312 C317 1.259 . S
Co313 O314 2.061 1_554 S
Co313 O319 2.052 1_554 S
Co313 O321 2.135 1_554 S
O314 Co313 2.061 1_556 S
O314 C317 1.235 . S
C315 O318 1.238 . S
C315 O319 1.241 . S
C316 O309 1.247 . S
C316 O310 1.261 . S
C317 O312 1.259 . S
C317 O314 1.235 . S
O318 Co308 2.021 . S
O318 C315 1.238 . S
O319 Co313 2.052 1_556 S
O319 C315 1.241 . S
O320 Co308 2.137 . S
O320 C311 1.247 . S
O321 Co308 2.244 . S
O321 C311 1.272 . S
O321 Co313 2.135 1_556 S
Co322 O323 2.216 . S
Co322 O324 2.091 . S
Co322 O326 2.004 . S
Co322 O332 2.021 . S
Co322 O334 2.137 . S
Co322 O335 2.244 . S
O323 Co322 2.216 . S
O323 C330 1.247 . S
O324 Co322 2.091 . S
O324 C330 1.261 . S
C325 O334 1.247 . S
C325 O335 1.272 . S
O326 Co322 2.004 . S
O326 C331 1.259 . S
Co327 O328 2.061 . S
Co327 O333 2.052 . S
Co327 O335 2.135 . S
O328 Co327 2.061 . S
O328 C331 1.235 . S
C329 O332 1.238 . S
C329 O333 1.241 . S
C330 O323 1.247 . S
C330 O324 1.261 . S
C331 O326 1.259 . S
C331 O328 1.235 . S
O332 Co322 2.021 . S
O332 C329 1.238 . S
O333 Co327 2.052 . S
O333 C329 1.241 . S
O334 Co322 2.137 . S
O334 C325 1.247 . S
O335 Co322 2.244 . S
O335 C325 1.272 . S
O335 Co327 2.135 . S
C336 C337 1.369 . S
C336 C338 1.419 . S
C336 H340 0.930 . S
C337 C336 1.369 . S
C337 C346 1.429 . S
C338 C336 1.419 . S
C338 C339 1.363 . S
C338 H341 0.929 . S
C339 C338 1.363 . S
C339 C345 1.428 . S
H340 C336 0.930 . S
H341 C338 0.929 . S
S342 N343 1.613 . S
S342 N344 1.610 . S
N343 S342 1.613 . S
N343 C346 1.350 . S
N344 S342 1.610 . S
N344 C345 1.351 . S
C345 C339 1.428 . S
C345 N344 1.351 . S
C345 C346 1.434 . S
C346 C337 1.429 . S
C346 N343 1.350 . S
C346 C345 1.434 . S
C347 C348 1.373 . S
C347 C349 1.419 . S
C347 H351 0.930 1_455 S
C348 C347 1.373 . S
C348 C357 1.451 . S
C349 C347 1.419 . S
C349 C350 1.363 . S
C349 H352 0.929 . S
C350 C349 1.363 . S
C350 C356 1.428 . S
H351 C347 0.930 1_655 S
H352 C349 0.929 . S
S353 N354 1.613 . S
S353 N355 1.610 . S
N354 S353 1.613 . S
N354 C357 1.350 . S
N355 S353 1.610 . S
N355 C356 1.351 . S
C356 C350 1.428 . S
C356 N355 1.351 . S
C356 C357 1.434 . S
C357 C348 1.451 . S
C357 N354 1.350 . S
C357 C356 1.434 . S
C358 C359 1.369 . S
C358 C360 1.419 1_556 S
C358 H362 0.930 . S
C359 C358 1.369 . S
C359 C368 1.429 . S
C360 C358 1.419 1_554 S
C360 C361 1.357 1_554 S
C360 H363 0.929 . S
C361 C360 1.357 1_556 S
C361 C367 1.459 . S
H362 C358 0.930 . S
H363 C360 0.929 . S
S364 N365 1.613 . S
S364 N366 1.610 . S
N365 S364 1.613 . S
N365 C368 1.350 . S
N366 S364 1.610 . S
N366 C367 1.351 . S
C367 C361 1.459 . S
C367 N366 1.351 . S
C367 C368 1.434 . S
C368 C359 1.429 . S
C368 N365 1.350 . S
C368 C367 1.434 . S
C369 C370 1.369 . S
C369 C371 1.419 . S
C369 H373 0.930 . S
C370 C369 1.369 . S
C370 C379 1.429 . S
C371 C369 1.419 . S
C371 C372 1.363 . S
C371 H374 0.929 . S
C372 C371 1.363 . S
C372 C378 1.428 . S
H373 C369 0.930 . S
H374 C371 0.929 . S
S375 N376 1.613 . S
S375 N377 1.610 . S
N376 S375 1.613 . S
N376 C379 1.350 . S
N377 S375 1.610 . S
N377 C378 1.351 . S
C378 C372 1.428 . S
C378 N377 1.351 . S
C378 C379 1.434 . S
C379 C370 1.429 . S
C379 N376 1.350 . S
C379 C378 1.434 . S
C380 C381 1.369 . S
C380 C382 1.419 . S
C380 H384 0.930 . S
C381 C380 1.369 . S
C381 C390 1.429 . S
C382 C380 1.419 . S
C382 C383 1.363 . S
C382 H385 0.929 . S
C383 C382 1.363 . S
C383 C389 1.428 . S
H384 C380 0.930 . S
H385 C382 0.929 . S
S386 N387 1.613 . S
S386 N388 1.610 . S
N387 S386 1.613 . S
N387 C390 1.350 . S
N388 S386 1.610 . S
N388 C389 1.351 . S
C389 C383 1.428 . S
C389 N388 1.351 . S
C389 C390 1.434 . S
C390 C381 1.429 . S
C390 N387 1.350 . S
C390 C389 1.434 . S
C391 C392 1.369 . S
C391 C393 1.419 . S
C391 H395 0.930 . S
C392 C391 1.369 . S
C392 C401 1.429 . S
C393 C391 1.419 . S
C393 C394 1.378 . S
C393 H396 0.929 . S
C394 C393 1.378 . S
C394 C400 1.425 1_655 S
H395 C391 0.930 . S
H396 C393 0.929 . S
S397 N398 1.613 1_455 S
S397 N399 1.610 . S
N398 S397 1.613 1_655 S
N398 C401 1.350 . S
N399 S397 1.610 . S
N399 C400 1.351 . S
C400 C394 1.425 1_455 S
C400 N399 1.351 . S
C400 C401 1.434 1_455 S
C401 C392 1.429 . S
C401 N398 1.350 . S
C401 C400 1.434 1_655 S
C402 C403 1.369 . S
C402 C404 1.419 . S
C402 H406 0.930 . S
C403 C402 1.369 . S
C403 C412 1.429 . S
C404 C402 1.419 . S
C404 C405 1.376 . S
C404 H407 0.929 . S
C405 C404 1.376 . S
C405 C411 1.428 . S
H406 C402 0.930 . S
H407 C404 0.929 . S
S408 N409 1.613 1_556 S
S408 N410 1.610 . S
N409 S408 1.613 1_554 S
N409 C412 1.350 . S
N410 S408 1.610 . S
N410 C411 1.352 1_556 S
C411 C405 1.428 . S
C411 N410 1.352 1_554 S
C411 C412 1.433 . S
C412 C403 1.429 . S
C412 N409 1.350 . S
C412 C411 1.433 . S
C413 C414 1.369 . S
C413 C415 1.419 . S
C413 H417 0.930 . S
C414 C413 1.369 . S
C414 C423 1.429 . S
C415 C413 1.419 . S
C415 C416 1.363 . S
C415 H418 0.929 . S
C416 C415 1.363 . S
C416 C422 1.428 . S
H417 C413 0.930 . S
H418 C415 0.929 . S
S419 N420 1.613 . S
S419 N421 1.610 . S
N420 S419 1.613 . S
N420 C423 1.350 . S
N421 S419 1.610 . S
N421 C422 1.351 . S
C422 C416 1.428 . S
C422 N421 1.351 . S
C422 C423 1.434 . S
C423 C414 1.429 . S
C423 N420 1.350 . S
C423 C422 1.434 . S
C424 C425 1.369 . S
C424 C426 1.419 . S
C424 H428 0.930 . S
C425 C424 1.369 . S
C425 C434 1.429 . S
C426 C424 1.419 . S
C426 C427 1.363 . S
C426 H429 0.929 . S
C427 C426 1.363 . S
C427 C433 1.428 . S
H428 C424 0.930 . S
H429 C426 0.929 . S
S430 N431 1.613 . S
S430 N432 1.610 . S
N431 S430 1.613 . S
N431 C434 1.350 . S
N432 S430 1.610 . S
N432 C433 1.351 . S
C433 C427 1.428 . S
C433 N432 1.351 . S
C433 C434 1.434 . S
C434 C425 1.429 . S
C434 N431 1.350 . S
C434 C433 1.434 . S
C435 C436 1.382 . S
C435 C437 1.419 . S
C435 H439 0.930 . S
C436 C435 1.382 . S
C436 C445 1.425 1_545 S
C437 C435 1.419 . S
C437 C438 1.363 . S
C437 H440 0.929 . S
C438 C437 1.363 . S
C438 C444 1.428 . S
H439 C435 0.930 . S
H440 C437 0.929 . S
S441 N442 1.613 . S
S441 N443 1.610 1_565 S
N442 S441 1.613 . S
N442 C445 1.350 . S
N443 S441 1.610 1_545 S
N443 C444 1.351 . S
C444 C438 1.428 . S
C444 N443 1.351 . S
C444 C445 1.434 1_545 S
C445 C436 1.425 1_565 S
C445 N442 1.350 . S
C445 C444 1.434 1_565 S
C446 C447 1.369 . S
C446 C448 1.419 1_565 S
C446 H450 0.930 . S
C447 C446 1.369 . S
C447 C456 1.429 . S
C448 C446 1.419 1_545 S
C448 C449 1.356 1_545 S
C448 H451 0.929 . S
C449 C448 1.356 1_565 S
C449 C455 1.462 . S
H450 C446 0.930 . S
H451 C448 0.929 . S
S452 N453 1.613 . S
S452 N454 1.610 . S
N453 S452 1.613 . S
N453 C456 1.350 . S
N454 S452 1.610 . S
N454 C455 1.351 . S
C455 C449 1.462 . S
C455 N454 1.351 . S
C455 C456 1.434 . S
C456 C447 1.429 . S
C456 N453 1.350 . S
C456 C455 1.434 . S
C457 C458 1.369 . S
C457 C459 1.419 . S
C457 H461 0.930 . S
C458 C457 1.369 . S
C458 C467 1.429 . S
C459 C457 1.419 . S
C459 C460 1.363 . S
C459 H462 0.929 . S
C460 C459 1.363 . S
C460 C466 1.428 . S
H461 C457 0.930 . S
H462 C459 0.929 . S
S463 N464 1.613 . S
S463 N465 1.610 . S
N464 S463 1.613 . S
N464 C467 1.350 . S
N465 S463 1.610 . S
N465 C466 1.351 . S
C466 C460 1.428 . S
C466 N465 1.351 . S
C466 C467 1.434 . S
C467 C458 1.429 . S
C467 N464 1.350 . S
C467 C466 1.434 . S
C468 C469 1.369 . S
C468 C470 1.419 . S
C468 H472 0.930 . S
C469 C468 1.369 . S
C469 C478 1.429 . S
C470 C468 1.419 . S
C470 C471 1.363 . S
C470 H473 0.929 . S
C471 C470 1.363 . S
C471 C477 1.428 . S
H472 C468 0.930 . S
H473 C470 0.929 . S
S474 N475 1.613 . S
S474 N476 1.610 . S
N475 S474 1.613 . S
N475 C478 1.350 . S
N476 S474 1.610 . S
N476 C477 1.351 . S
C477 C471 1.428 . S
C477 N476 1.351 . S
C477 C478 1.434 . S
C478 C469 1.429 . S
C478 N475 1.350 . S
C478 C477 1.434 . S
C479 C480 1.369 . S
C479 C481 1.419 1_565 S
C479 H483 0.930 . S
C480 C479 1.369 . S
C480 C489 1.413 1_565 S
C481 C479 1.419 1_545 S
C481 C482 1.363 . S
C481 H484 0.929 . S
C482 C481 1.363 . S
C482 C488 1.428 . S
H483 C479 0.930 . S
H484 C481 0.929 . S
S485 N486 1.613 1_545 S
S485 N487 1.610 . S
N486 S485 1.613 1_565 S
N486 C489 1.346 1_565 S
N487 S485 1.610 . S
N487 C488 1.351 . S
C488 C482 1.428 . S
C488 N487 1.351 . S
C488 C489 1.456 . S
C489 C480 1.413 1_545 S
C489 N486 1.346 1_545 S
C489 C488 1.456 . S
C490 C491 1.369 . S
C490 C492 1.419 1_556 S
C490 H494 0.930 . S
C491 C490 1.369 . S
C491 C500 1.429 . S
C492 C490 1.419 1_554 S
C492 C493 1.363 . S
C492 H495 0.929 . S
C493 C492 1.363 . S
C493 C499 1.428 . S
H494 C490 0.930 . S
H495 C492 0.929 . S
S496 N497 1.613 1_554 S
S496 N498 1.610 . S
N497 S496 1.613 1_556 S
N497 C500 1.350 . S
N498 S496 1.610 . S
N498 C499 1.351 . S
C499 C493 1.428 . S
C499 N498 1.351 . S
C499 C500 1.434 1_554 S
C500 C491 1.429 . S
C500 N497 1.350 . S
C500 C499 1.434 1_556 S
C501 C502 1.369 . S
C501 C503 1.418 1_545 S
C501 H505 0.930 . S
C502 C501 1.369 . S
C502 C511 1.429 1_545 S
C503 C501 1.418 1_565 S
C503 C504 1.365 . S
C503 H506 0.929 1_565 S
C504 C503 1.365 . S
C504 C510 1.428 . S
H505 C501 0.930 . S
H506 C503 0.929 1_545 S
S507 N508 1.613 . S
S507 N509 1.610 . S
N508 S507 1.613 . S
N508 C511 1.350 . S
N509 S507 1.610 . S
N509 C510 1.351 . S
C510 C504 1.428 . S
C510 N509 1.351 . S
C510 C511 1.434 . S
C511 C502 1.429 1_565 S
C511 N508 1.350 . S
C511 C510 1.434 . S
C512 C513 1.369 . S
C512 C514 1.419 . S
C512 H516 0.930 . S
C513 C512 1.369 . S
C513 C522 1.429 . S
C514 C512 1.419 . S
C514 C515 1.363 . S
C514 H517 0.929 . S
C515 C514 1.363 . S
C515 C521 1.428 . S
H516 C512 0.930 . S
H517 C514 0.929 . S
S518 N519 1.613 . S
S518 N520 1.610 . S
N519 S518 1.613 . S
N519 C522 1.350 . S
N520 S518 1.610 . S
N520 C521 1.351 . S
C521 C515 1.428 . S
C521 N520 1.351 . S
C521 C522 1.434 . S
C522 C513 1.429 . S
C522 N519 1.350 . S
C522 C521 1.434 . S
C523 C524 1.369 . S
C523 C525 1.419 . S
C523 H527 0.930 . S
C524 C523 1.369 . S
C524 C533 1.429 . S
C525 C523 1.419 . S
C525 C526 1.363 . S
C525 H528 0.929 . S
C526 C525 1.363 . S
C526 C532 1.428 . S
H527 C523 0.930 . S
H528 C525 0.929 . S
S529 N530 1.613 . S
S529 N531 1.610 . S
N530 S529 1.613 . S
N530 C533 1.350 . S
N531 S529 1.610 . S
N531 C532 1.351 . S
C532 C526 1.428 . S
C532 N531 1.351 . S
C532 C533 1.434 . S
C533 C524 1.429 . S
C533 N530 1.350 . S
C533 C532 1.434 . S
C534 C535 1.387 . S
C534 C536 1.394 1_556 S
C534 H538 0.938 . S
C535 C534 1.387 . S
C535 C544 1.429 . S
C536 C534 1.394 1_554 S
C536 C537 1.363 . S
C536 H539 0.929 . S
C537 C536 1.363 . S
C537 C543 1.428 . S
H538 C534 0.938 . S
H539 C536 0.929 . S
S540 N541 1.613 . S
S540 N542 1.610 1_556 S
N541 S540 1.613 . S
N541 C544 1.350 . S
N542 S540 1.610 1_554 S
N542 C543 1.351 . S
C543 C537 1.428 . S
C543 N542 1.351 . S
C543 C544 1.434 1_554 S
C544 C535 1.429 . S
C544 N541 1.350 . S
C544 C543 1.434 1_556 S
C545 C546 1.369 . S
C545 C547 1.419 . S
C545 H549 0.930 . S
C546 C545 1.369 . S
C546 C555 1.429 . S
C547 C545 1.419 . S
C547 C548 1.363 . S
C547 H550 0.929 . S
C548 C547 1.363 . S
C548 C554 1.428 . S
H549 C545 0.930 . S
H550 C547 0.929 . S
S551 N552 1.613 . S
S551 N553 1.610 . S
N552 S551 1.613 . S
N552 C555 1.350 . S
N553 S551 1.610 . S
N553 C554 1.351 . S
C554 C548 1.428 . S
C554 N553 1.351 . S
C554 C555 1.434 . S
C555 C546 1.429 . S
C555 N552 1.350 . S
C555 C554 1.434 . S
C556 C557 1.369 . S
C556 C558 1.419 . S
C556 H560 0.930 . S
C557 C556 1.369 . S
C557 C566 1.429 . S
C558 C556 1.419 . S
C558 C559 1.363 . S
C558 H561 0.929 . S
C559 C558 1.363 . S
C559 C565 1.428 . S
H560 C556 0.930 . S
H561 C558 0.929 . S
S562 N563 1.613 . S
S562 N564 1.610 . S
N563 S562 1.613 . S
N563 C566 1.350 . S
N564 S562 1.610 . S
N564 C565 1.351 . S
C565 C559 1.428 . S
C565 N564 1.351 . S
C565 C566 1.434 . S
C566 C557 1.429 . S
C566 N563 1.350 . S
C566 C565 1.434 . S
C567 C568 1.369 . S
C567 C569 1.419 1_455 S
C567 H571 0.930 . S
C568 C567 1.369 . S
C568 C577 1.429 . S
C569 C567 1.419 1_655 S
C569 C570 1.363 . S
C569 H572 0.929 . S
C570 C569 1.363 . S
C570 C576 1.428 . S
H571 C567 0.930 . S
H572 C569 0.929 . S
S573 N574 1.613 1_655 S
S573 N575 1.610 . S
N574 S573 1.613 1_455 S
N574 C577 1.350 . S
N575 S573 1.610 . S
N575 C576 1.351 . S
C576 C570 1.428 . S
C576 N575 1.351 . S
C576 C577 1.434 1_655 S
C577 C568 1.429 . S
C577 N574 1.350 . S
C577 C576 1.434 1_455 S
C578 C579 1.369 . S
C578 C580 1.440 . S
C578 H582 0.930 . S
C579 C578 1.369 . S
C579 C588 1.429 1_655 S
C580 C578 1.440 . S
C580 C581 1.332 1_655 S
C580 H583 0.940 . S
C581 C580 1.332 1_455 S
C581 C587 1.428 . S
H582 C578 0.930 . S
H583 C580 0.940 . S
S584 N585 1.613 . S
S584 N586 1.610 . S
N585 S584 1.613 . S
N585 C588 1.350 . S
N586 S584 1.610 . S
N586 C587 1.351 . S
C587 C581 1.428 . S
C587 N586 1.351 . S
C587 C588 1.434 . S
C588 C579 1.429 1_455 S
C588 N585 1.350 . S
C588 C587 1.434 . S
C589 C590 1.369 . S
C589 C591 1.419 . S
C589 H593 0.930 . S
C590 C589 1.369 . S
C590 C599 1.429 . S
C591 C589 1.419 . S
C591 C592 1.363 . S
C591 H594 0.929 . S
C592 C591 1.363 . S
C592 C598 1.428 . S
H593 C589 0.930 . S
H594 C591 0.929 . S
S595 N596 1.613 . S
S595 N597 1.610 . S
N596 S595 1.613 . S
N596 C599 1.350 . S
N597 S595 1.610 . S
N597 C598 1.351 . S
C598 C592 1.428 . S
C598 N597 1.351 . S
C598 C599 1.434 . S
C599 C590 1.429 . S
C599 N596 1.350 . S
C599 C598 1.434 . S
C600 C601 1.369 . S
C600 C602 1.419 . S
C600 H604 0.930 . S
C601 C600 1.369 . S
C601 C610 1.429 . S
C602 C600 1.419 . S
C602 C603 1.363 . S
C602 H605 0.929 . S
C603 C602 1.363 . S
C603 C609 1.428 . S
H604 C600 0.930 . S
H605 C602 0.929 . S
S606 N607 1.613 . S
S606 N608 1.610 . S
N607 S606 1.613 . S
N607 C610 1.350 . S
N608 S606 1.610 . S
N608 C609 1.351 . S
C609 C603 1.428 . S
C609 N608 1.351 . S
C609 C610 1.434 . S
C610 C601 1.429 . S
C610 N607 1.350 . S
C610 C609 1.434 . S
C611 C612 1.369 . S
C611 C613 1.419 . S
C611 H615 0.930 . S
C612 C611 1.369 . S
C612 C621 1.429 1_565 S
C613 C611 1.419 . S
C613 C614 1.363 . S
C613 H616 0.929 . S
C614 C613 1.363 . S
C614 C620 1.428 . S
H615 C611 0.930 . S
H616 C613 0.929 . S
S617 N618 1.613 . S
S617 N619 1.610 . S
N618 S617 1.613 . S
N618 C621 1.350 . S
N619 S617 1.610 . S
N619 C620 1.351 1_545 S
C620 C614 1.428 . S
C620 N619 1.351 1_565 S
C620 C621 1.434 1_565 S
C621 C612 1.429 1_545 S
C621 N618 1.350 . S
C621 C620 1.434 1_545 S
C622 C623 1.369 . S
C622 C624 1.419 . S
C622 H626 0.930 . S
C623 C622 1.369 . S
C623 C632 1.429 . S
C624 C622 1.419 . S
C624 C625 1.363 . S
C624 H627 0.929 . S
C625 C624 1.363 . S
C625 C631 1.428 . S
H626 C622 0.930 . S
H627 C624 0.929 . S
S628 N629 1.613 . S
S628 N630 1.610 . S
N629 S628 1.613 . S
N629 C632 1.350 . S
N630 S628 1.610 . S
N630 C631 1.351 . S
C631 C625 1.428 . S
C631 N630 1.351 . S
C631 C632 1.434 . S
C632 C623 1.429 . S
C632 N629 1.350 . S
C632 C631 1.434 . S
C633 C634 1.369 . S
C633 C635 1.419 1_545 S
C633 H637 0.930 . S
C634 C633 1.369 . S
C634 C643 1.429 . S
C635 C633 1.419 1_565 S
C635 C636 1.363 1_565 S
C635 H638 0.929 . S
C636 C635 1.363 1_545 S
C636 C642 1.428 . S
H637 C633 0.930 . S
H638 C635 0.929 . S
S639 N640 1.613 1_556 S
S639 N641 1.610 . S
N640 S639 1.613 1_554 S
N640 C643 1.350 . S
N641 S639 1.610 . S
N641 C642 1.351 1_556 S
C642 C636 1.428 . S
C642 N641 1.351 1_554 S
C642 C643 1.434 . S
C643 C634 1.429 . S
C643 N640 1.350 . S
C643 C642 1.434 . S
C644 C645 1.369 . S
C644 C646 1.419 . S
C644 H648 0.930 . S
C645 C644 1.369 . S
C645 C654 1.429 . S
C646 C644 1.419 . S
C646 C647 1.363 . S
C646 H649 0.929 . S
C647 C646 1.363 . S
C647 C653 1.428 . S
H648 C644 0.930 . S
H649 C646 0.929 . S
S650 N651 1.613 . S
S650 N652 1.610 . S
N651 S650 1.613 . S
N651 C654 1.350 . S
N652 S650 1.610 . S
N652 C653 1.351 . S
C653 C647 1.428 . S
C653 N652 1.351 . S
C653 C654 1.434 . S
C654 C645 1.429 . S
C654 N651 1.350 . S
C654 C653 1.434 . S
C655 C656 1.369 . S
C655 C657 1.419 . S
C655 H659 0.930 . S
C656 C655 1.369 . S
C656 C665 1.429 . S
C657 C655 1.419 . S
C657 C658 1.363 . S
C657 H660 0.929 . S
C658 C657 1.363 . S
C658 C664 1.428 . S
H659 C655 0.930 . S
H660 C657 0.929 . S
S661 N662 1.613 . S
S661 N663 1.610 . S
N662 S661 1.613 . S
N662 C665 1.350 . S
N663 S661 1.610 . S
N663 C664 1.351 . S
C664 C658 1.428 . S
C664 N663 1.351 . S
C664 C665 1.434 . S
C665 C656 1.429 . S
C665 N662 1.350 . S
C665 C664 1.434 . S
C666 C667 1.369 . S
C666 C668 1.419 . S
C666 H670 0.930 . S
C667 C666 1.369 . S
C667 C676 1.429 . S
C668 C666 1.419 . S
C668 C669 1.363 . S
C668 H671 0.929 . S
C669 C668 1.363 . S
C669 C675 1.428 . S
H670 C666 0.930 . S
H671 C668 0.929 . S
S672 N673 1.613 . S
S672 N674 1.610 . S
N673 S672 1.613 . S
N673 C676 1.350 . S
N674 S672 1.610 . S
N674 C675 1.351 . S
C675 C669 1.428 . S
C675 N674 1.351 . S
C675 C676 1.434 . S
C676 C667 1.429 . S
C676 N673 1.350 . S
C676 C675 1.434 . S
C677 C678 1.369 . S
C677 C679 1.419 . S
C677 H681 0.930 . S
C678 C677 1.369 . S
C678 C687 1.429 . S
C679 C677 1.419 . S
C679 C680 1.363 . S
C679 H682 0.929 . S
C680 C679 1.363 . S
C680 C686 1.428 . S
H681 C677 0.930 . S
H682 C679 0.929 . S
S683 N684 1.613 . S
S683 N685 1.610 . S
N684 S683 1.613 . S
N684 C687 1.350 . S
N685 S683 1.610 . S
N685 C686 1.351 . S
C686 C680 1.428 . S
C686 N685 1.351 . S
C686 C687 1.434 . S
C687 C678 1.429 . S
C687 N684 1.350 . S
C687 C686 1.434 . S
C688 C689 1.369 . S
C688 C690 1.419 . S
C688 H692 0.930 . S
C689 C688 1.369 . S
C689 C698 1.429 . S
C690 C688 1.419 . S
C690 C691 1.363 . S
C690 H693 0.929 . S
C691 C690 1.363 . S
C691 C697 1.428 . S
H692 C688 0.930 . S
H693 C690 0.929 . S
S694 N695 1.613 . S
S694 N696 1.610 . S
N695 S694 1.613 . S
N695 C698 1.350 . S
N696 S694 1.610 . S
N696 C697 1.351 . S
C697 C691 1.428 . S
C697 N696 1.351 . S
C697 C698 1.434 . S
C698 C689 1.429 . S
C698 N695 1.350 . S
C698 C697 1.434 . S
C699 C700 1.369 . S
C699 C701 1.419 . S
C699 H703 0.930 1_455 S
C700 C699 1.369 . S
C700 C709 1.429 . S
C701 C699 1.419 . S
C701 C702 1.363 . S
C701 H704 0.929 . S
C702 C701 1.363 . S
C702 C708 1.428 . S
H703 C699 0.930 1_655 S
H704 C701 0.929 . S
S705 N706 1.613 . S
S705 N707 1.610 1_565 S
N706 S705 1.613 . S
N706 C709 1.350 1_565 S
N707 S705 1.610 1_545 S
N707 C708 1.351 . S
C708 C702 1.428 . S
C708 N707 1.351 . S
C708 C709 1.434 . S
C709 C700 1.429 . S
C709 N706 1.350 1_545 S
C709 C708 1.434 . S
C710 C711 1.369 . S
C710 C712 1.419 . S
C710 H714 0.930 . S
C711 C710 1.369 . S
C711 C720 1.429 . S
C712 C710 1.419 . S
C712 C713 1.363 . S
C712 H715 0.929 . S
C713 C712 1.363 . S
C713 C719 1.428 . S
H714 C710 0.930 . S
H715 C712 0.929 . S
S716 N717 1.613 . S
S716 N718 1.610 . S
N717 S716 1.613 . S
N717 C720 1.350 . S
N718 S716 1.610 . S
N718 C719 1.351 . S
C719 C713 1.428 . S
C719 N718 1.351 . S
C719 C720 1.434 . S
C720 C711 1.429 . S
C720 N717 1.350 . S
C720 C719 1.434 . S
C721 C722 1.369 . S
C721 C723 1.419 . S
C721 H725 0.930 1_565 S
C722 C721 1.369 . S
C722 C731 1.429 . S
C723 C721 1.419 . S
C723 C724 1.363 . S
C723 H726 0.929 . S
C724 C723 1.363 . S
C724 C730 1.428 . S
H725 C721 0.930 1_545 S
H726 C723 0.929 . S
S727 N728 1.613 . S
S727 N729 1.610 . S
N728 S727 1.613 . S
N728 C731 1.350 . S
N729 S727 1.610 . S
N729 C730 1.351 . S
C730 C724 1.428 . S
C730 N729 1.351 . S
C730 C731 1.434 . S
C731 C722 1.429 . S
C731 N728 1.350 . S
C731 C730 1.434 . S
C732 C733 1.369 . S
C732 C734 1.419 . S
C732 H736 0.930 . S
C733 C732 1.369 . S
C733 C742 1.429 . S
C734 C732 1.419 . S
C734 C735 1.363 . S
C734 H737 0.929 . S
C735 C734 1.363 . S
C735 C741 1.428 . S
H736 C732 0.930 . S
H737 C734 0.929 . S
S738 N739 1.613 . S
S738 N740 1.610 . S
N739 S738 1.613 . S
N739 C742 1.350 . S
N740 S738 1.610 . S
N740 C741 1.351 . S
C741 C735 1.428 . S
C741 N740 1.351 . S
C741 C742 1.434 . S
C742 C733 1.429 . S
C742 N739 1.350 . S
C742 C741 1.434 . S
C743 C744 1.369 . S
C743 C745 1.419 . S
C743 H747 0.930 . S
C744 C743 1.369 . S
C744 C753 1.429 1_655 S
C745 C743 1.419 . S
C745 C746 1.363 . S
C745 H748 0.929 . S
C746 C745 1.363 . S
C746 C752 1.428 . S
H747 C743 0.930 . S
H748 C745 0.929 . S
S749 N750 1.613 . S
S749 N751 1.610 . S
N750 S749 1.613 . S
N750 C753 1.350 . S
N751 S749 1.610 . S
N751 C752 1.351 1_455 S
C752 C746 1.428 . S
C752 N751 1.351 1_655 S
C752 C753 1.434 1_655 S
C753 C744 1.429 1_455 S
C753 N750 1.350 . S
C753 C752 1.434 1_455 S
C754 C755 1.369 . S
C754 C756 1.419 . S
C754 H758 0.930 . S
C755 C754 1.369 . S
C755 C764 1.429 . S
C756 C754 1.419 . S
C756 C757 1.363 . S
C756 H759 0.929 . S
C757 C756 1.363 . S
C757 C763 1.428 . S
H758 C754 0.930 . S
H759 C756 0.929 . S
S760 N761 1.613 . S
S760 N762 1.610 . S
N761 S760 1.613 . S
N761 C764 1.350 . S
N762 S760 1.610 . S
N762 C763 1.351 . S
C763 C757 1.428 . S
C763 N762 1.351 . S
C763 C764 1.434 . S
C764 C755 1.429 . S
C764 N761 1.350 . S
C764 C763 1.434 . S
C765 C766 1.369 . S
C765 C767 1.419 . S
C765 H769 0.930 . S
C766 C765 1.369 . S
C766 C775 1.429 . S
C767 C765 1.419 . S
C767 C768 1.363 . S
C767 H770 0.929 . S
C768 C767 1.363 . S
C768 C774 1.428 . S
H769 C765 0.930 . S
H770 C767 0.929 . S
S771 N772 1.613 . S
S771 N773 1.610 . S
N772 S771 1.613 . S
N772 C775 1.350 . S
N773 S771 1.610 . S
N773 C774 1.351 . S
C774 C768 1.428 . S
C774 N773 1.351 . S
C774 C775 1.434 . S
C775 C766 1.429 . S
C775 N772 1.350 . S
C775 C774 1.434 . S
C776 C777 1.369 . S
C776 C778 1.419 . S
C776 H780 0.930 . S
C777 C776 1.369 . S
C777 C786 1.429 . S
C778 C776 1.419 . S
C778 C779 1.363 . S
C778 H781 0.929 . S
C779 C778 1.363 . S
C779 C785 1.428 . S
H780 C776 0.930 . S
H781 C778 0.929 . S
S782 N783 1.613 . S
S782 N784 1.610 . S
N783 S782 1.613 . S
N783 C786 1.350 . S
N784 S782 1.610 . S
N784 C785 1.351 . S
C785 C779 1.428 . S
C785 N784 1.351 . S
C785 C786 1.434 . S
C786 C777 1.429 . S
C786 N783 1.350 . S
C786 C785 1.434 . S
C787 C788 1.369 . S
C787 C789 1.419 . S
C787 H791 0.930 . S
C788 C787 1.369 . S
C788 C797 1.429 . S
C789 C787 1.419 . S
C789 C790 1.363 . S
C789 H792 0.929 . S
C790 C789 1.363 . S
C790 C796 1.428 . S
H791 C787 0.930 . S
H792 C789 0.929 . S
S793 N794 1.613 . S
S793 N795 1.610 . S
N794 S793 1.613 . S
N794 C797 1.350 . S
N795 S793 1.610 . S
N795 C796 1.351 . S
C796 C790 1.428 . S
C796 N795 1.351 . S
C796 C797 1.434 . S
C797 C788 1.429 . S
C797 N794 1.350 . S
C797 C796 1.434 . S
C798 C799 1.369 . S
C798 C800 1.419 . S
C798 H802 0.930 1_554 S
C799 C798 1.369 . S
C799 C808 1.429 . S
C800 C798 1.419 . S
C800 C801 1.363 . S
C800 H803 0.929 . S
C801 C800 1.363 . S
C801 C807 1.428 . S
H802 C798 0.930 1_556 S
H803 C800 0.929 . S
S804 N805 1.613 . S
S804 N806 1.610 1_655 S
N805 S804 1.613 . S
N805 C808 1.350 1_655 S
N806 S804 1.610 1_455 S
N806 C807 1.351 . S
C807 C801 1.428 . S
C807 N806 1.351 . S
C807 C808 1.434 . S
C808 C799 1.429 . S
C808 N805 1.350 1_455 S
C808 C807 1.434 . S
C809 C810 1.369 . S
C809 C811 1.419 . S
C809 H813 0.930 . S
C810 C809 1.369 . S
C810 C819 1.429 . S
C811 C809 1.419 . S
C811 C812 1.363 . S
C811 H814 0.929 . S
C812 C811 1.363 . S
C812 C818 1.428 . S
H813 C809 0.930 . S
H814 C811 0.929 . S
S815 N816 1.613 . S
S815 N817 1.610 . S
N816 S815 1.613 . S
N816 C819 1.350 . S
N817 S815 1.610 . S
N817 C818 1.351 . S
C818 C812 1.428 . S
C818 N817 1.351 . S
C818 C819 1.434 . S
C819 C810 1.429 . S
C819 N816 1.350 . S
C819 C818 1.434 . S
C820 C821 1.369 . S
C820 C822 1.419 . S
C820 H824 0.930 . S
C821 C820 1.369 . S
C821 C830 1.429 . S
C822 C820 1.419 . S
C822 C823 1.363 . S
C822 H825 0.929 . S
C823 C822 1.363 . S
C823 C829 1.428 . S
H824 C820 0.930 . S
H825 C822 0.929 . S
S826 N827 1.613 . S
S826 N828 1.610 . S
N827 S826 1.613 . S
N827 C830 1.350 . S
N828 S826 1.610 . S
N828 C829 1.351 . S
C829 C823 1.428 . S
C829 N828 1.351 . S
C829 C830 1.434 . S
C830 C821 1.429 . S
C830 N827 1.350 . S
C830 C829 1.434 . S
C831 C832 1.369 . S
C831 C833 1.419 . S
C831 H835 0.930 . S
C832 C831 1.369 . S
C832 C841 1.429 . S
C833 C831 1.419 . S
C833 C834 1.363 . S
C833 H836 0.929 . S
C834 C833 1.363 . S
C834 C840 1.428 . S
H835 C831 0.930 . S
H836 C833 0.929 . S
S837 N838 1.613 . S
S837 N839 1.610 . S
N838 S837 1.613 . S
N838 C841 1.350 . S
N839 S837 1.610 . S
N839 C840 1.351 . S
C840 C834 1.428 . S
C840 N839 1.351 . S
C840 C841 1.434 . S
C841 C832 1.429 . S
C841 N838 1.350 . S
C841 C840 1.434 . S
C842 C843 1.374 . S
C842 C844 1.426 . S
C842 H846 0.917 1_556 S
C843 C842 1.374 . S
C843 C852 1.429 . S
C844 C842 1.426 . S
C844 C845 1.363 . S
C844 H847 0.929 . S
C845 C844 1.363 . S
C845 C851 1.428 . S
H846 C842 0.917 1_554 S
H847 C844 0.929 . S
S848 N849 1.613 . S
S848 N850 1.610 . S
N849 S848 1.613 . S
N849 C852 1.350 . S
N850 S848 1.610 . S
N850 C851 1.351 . S
C851 C845 1.428 . S
C851 N850 1.351 . S
C851 C852 1.434 . S
C852 C843 1.429 . S
C852 N849 1.350 . S
C852 C851 1.434 . S
C853 C854 1.369 . S
C853 C855 1.419 . S
C853 H857 0.930 . S
C854 C853 1.369 . S
C854 C863 1.429 . S
C855 C853 1.419 . S
C855 C856 1.363 . S
C855 H858 0.929 1_655 S
C856 C855 1.363 . S
C856 C862 1.428 . S
H857 C853 0.930 . S
H858 C855 0.929 1_455 S
S859 N860 1.613 . S
S859 N861 1.610 . S
N860 S859 1.613 . S
N860 C863 1.350 . S
N861 S859 1.610 . S
N861 C862 1.351 . S
C862 C856 1.428 . S
C862 N861 1.351 . S
C862 C863 1.434 . S
C863 C854 1.429 . S
C863 N860 1.350 . S
C863 C862 1.434 . S
C337 C134 1.354 . S
C339 C8 1.355 . S
C348 C22 1.330 1_455 S
C350 C148 1.358 . S
C359 C36 1.359 . S
C361 C162 1.332 1_556 S
C370 C50 1.350 . S
C372 C120 1.359 . S
C381 C64 1.351 . S
C383 C218 1.358 . S
C392 C176 1.354 . S
C394 C78 1.347 1_655 S
C403 C92 1.357 . S
C405 C190 1.344 1_554 S
C414 C204 1.359 . S
C416 C106 1.352 . S
C425 C232 1.354 . S
C427 C260 1.356 . S
C436 C316 1.347 1_545 S
C438 C246 1.356 . S
C447 C274 1.356 . S
C449 C330 1.333 1_565 S
C458 C302 1.354 . S
C460 C288 1.355 . S
C469 C287 1.719 . S
C471 C7 1.715 . S
C480 C21 1.714 . S
C482 C245 1.718 . S
C491 C35 1.714 . S
C493 C259 1.718 . S
C502 C49 1.710 . S
C504 C273 1.714 . S
C513 C63 1.714 . S
C515 C329 1.711 . S
C524 C301 1.711 . S
C526 C77 1.710 . S
C535 C315 1.717 . S
C537 C91 1.719 . S
C546 C231 1.711 . S
C548 C105 1.716 . S
C557 C217 1.719 . S
C559 C119 1.714 . S
C568 C133 1.714 . S
C570 C175 1.711 . S
C579 C189 1.709 . S
C581 C147 1.714 . S
C590 C203 1.714 . S
C592 C161 1.718 . S
C601 C9 1.225 . S
C603 C227 1.367 . S
C612 C325 1.364 1_565 S
C614 C23 1.218 . S
C623 C297 1.367 . S
C625 C37 1.228 . S
C634 C51 1.232 . S
C636 C311 1.366 1_544 S
C645 C65 1.224 . S
C647 C241 1.366 . S
C656 C255 1.362 1_556 S
C658 C79 1.230 . S
C667 C269 1.364 . S
C669 C93 1.218 . S
C678 C283 1.363 . S
C680 C107 1.218 . S
C689 C3 1.367 . S
C691 C121 1.229 . S
C700 C17 1.367 1_445 S
C702 C135 1.229 . S
C711 C31 1.367 . S
C713 C149 1.229 . S
C722 C45 1.361 1_565 S
C724 C163 1.223 . S
C733 C59 1.364 . S
C735 C177 1.218 . S
C744 C73 1.363 1_655 S
C746 C191 1.219 . S
C755 C205 1.233 . S
C757 C87 1.365 . S
C766 C101 1.364 . S
C768 C219 1.232 . S
C777 C115 1.367 . S
C779 C233 1.226 . S
C788 C247 1.232 . S
C790 C171 1.366 . S
C799 C185 1.367 1_454 S
C801 C261 1.229 . S
C810 C275 1.231 . S
C812 C199 1.366 . S
C821 C289 1.227 . S
C823 C213 1.362 . S
C832 C303 1.217 . S
C834 C143 1.365 . S
C843 C157 1.363 1_556 S
C845 C317 1.232 . S
C854 C331 1.222 . S
C856 C129 1.362 1_655 S
