# Generated by pormake.
# Topology ukb, (4)-cn, num edge types: 1
# Building blocks:
#     Node 0, Type 0, BuildingBlock: KUFVIS_clean_sbu_0, # of connection points: 4
#     Node 1, Type 0, BuildingBlock: KUFVIS_clean_sbu_0, # of connection points: 4
#     Node 2, Type 0, BuildingBlock: KUFVIS_clean_sbu_0, # of connection points: 4
#     Node 3, Type 0, BuildingBlock: KUFVIS_clean_sbu_0, # of connection points: 4
#     Node 4, Type 0, BuildingBlock: KUFVIS_clean_sbu_0, # of connection points: 4
#     Node 5, Type 0, BuildingBlock: KUFVIS_clean_sbu_0, # of connection points: 4
#     Node 6, Type 0, BuildingBlock: KUFVIS_clean_sbu_0, # of connection points: 4
#     Node 7, Type 0, BuildingBlock: KUFVIS_clean_sbu_0, # of connection points: 4
#     Node 8, Type 0, BuildingBlock: KUFVIS_clean_sbu_0, # of connection points: 4
#     Node 9, Type 0, BuildingBlock: KUFVIS_clean_sbu_0, # of connection points: 4
#     Node 10, Type 0, BuildingBlock: KUFVIS_clean_sbu_0, # of connection points: 4
#     Node 11, Type 0, BuildingBlock: KUFVIS_clean_sbu_0, # of connection points: 4
#     Node 12, Type 0, BuildingBlock: KUFVIS_clean_sbu_0, # of connection points: 4
#     Node 13, Type 0, BuildingBlock: KUFVIS_clean_sbu_0, # of connection points: 4
#     Node 14, Type 0, BuildingBlock: KUFVIS_clean_sbu_0, # of connection points: 4
#     Node 15, Type 0, BuildingBlock: KUFVIS_clean_sbu_0, # of connection points: 4
#     Edge 16, Type (0, 0), BuildingBlock: XUDNAN_clean_linker_2, # of connection points: 2
#     Edge 17, Type (0, 0), BuildingBlock: XUDNAN_clean_linker_2, # of connection points: 2
#     Edge 18, Type (0, 0), BuildingBlock: XUDNAN_clean_linker_2, # of connection points: 2
#     Edge 19, Type (0, 0), BuildingBlock: XUDNAN_clean_linker_2, # of connection points: 2
#     Edge 20, Type (0, 0), BuildingBlock: XUDNAN_clean_linker_2, # of connection points: 2
#     Edge 21, Type (0, 0), BuildingBlock: XUDNAN_clean_linker_2, # of connection points: 2
#     Edge 22, Type (0, 0), BuildingBlock: XUDNAN_clean_linker_2, # of connection points: 2
#     Edge 23, Type (0, 0), BuildingBlock: XUDNAN_clean_linker_2, # of connection points: 2
#     Edge 24, Type (0, 0), BuildingBlock: XUDNAN_clean_linker_2, # of connection points: 2
#     Edge 25, Type (0, 0), BuildingBlock: XUDNAN_clean_linker_2, # of connection points: 2
#     Edge 26, Type (0, 0), BuildingBlock: XUDNAN_clean_linker_2, # of connection points: 2
#     Edge 27, Type (0, 0), BuildingBlock: XUDNAN_clean_linker_2, # of connection points: 2
#     Edge 28, Type (0, 0), BuildingBlock: XUDNAN_clean_linker_2, # of connection points: 2
#     Edge 29, Type (0, 0), BuildingBlock: XUDNAN_clean_linker_2, # of connection points: 2
#     Edge 30, Type (0, 0), BuildingBlock: XUDNAN_clean_linker_2, # of connection points: 2
#     Edge 31, Type (0, 0), BuildingBlock: XUDNAN_clean_linker_2, # of connection points: 2
#     Edge 32, Type (0, 0), BuildingBlock: XUDNAN_clean_linker_2, # of connection points: 2
#     Edge 33, Type (0, 0), BuildingBlock: XUDNAN_clean_linker_2, # of connection points: 2
#     Edge 34, Type (0, 0), BuildingBlock: XUDNAN_clean_linker_2, # of connection points: 2
#     Edge 35, Type (0, 0), BuildingBlock: XUDNAN_clean_linker_2, # of connection points: 2
#     Edge 36, Type (0, 0), BuildingBlock: XUDNAN_clean_linker_2, # of connection points: 2
#     Edge 37, Type (0, 0), BuildingBlock: XUDNAN_clean_linker_2, # of connection points: 2
#     Edge 38, Type (0, 0), BuildingBlock: XUDNAN_clean_linker_2, # of connection points: 2
#     Edge 39, Type (0, 0), BuildingBlock: XUDNAN_clean_linker_2, # of connection points: 2
#     Edge 40, Type (0, 0), BuildingBlock: XUDNAN_clean_linker_2, # of connection points: 2
#     Edge 41, Type (0, 0), BuildingBlock: XUDNAN_clean_linker_2, # of connection points: 2
#     Edge 42, Type (0, 0), BuildingBlock: XUDNAN_clean_linker_2, # of connection points: 2
#     Edge 43, Type (0, 0), BuildingBlock: XUDNAN_clean_linker_2, # of connection points: 2
#     Edge 44, Type (0, 0), BuildingBlock: XUDNAN_clean_linker_2, # of connection points: 2
#     Edge 45, Type (0, 0), BuildingBlock: XUDNAN_clean_linker_2, # of connection points: 2
#     Edge 46, Type (0, 0), BuildingBlock: XUDNAN_clean_linker_2, # of connection points: 2
#     Edge 47, Type (0, 0), BuildingBlock: XUDNAN_clean_linker_2, # of connection points: 2
# Relax obj value: 0.089
# Max RMSD: 0.069
# Mean RMSD: 0.069
data_MOF--net-ukb--node1-KUFVIS_clean_sbu_0--edge1-XUDNAN_clean_linker_2
_symmetry_space_group_name_H-M    P1
_symmetry_Int_Tables_number       1
_symmetry_cell_setting            triclinic
loop_
_symmetry_equiv_pos_as_xyz
'x, y, z'
_cell_length_a     43.409039
_cell_length_b     43.352346
_cell_length_c     38.14853
_cell_angle_alpha  89.983215
_cell_angle_beta   89.991098
_cell_angle_gamma 89.979967
loop_
_atom_site_label
_atom_site_type_symbol
_atom_site_fract_x
_atom_site_fract_y
_atom_site_fract_z
_atom_type_partial_charge
Mn0 Mn 0.53351 0.18936 0.18864 0.0
Mn1 Mn 0.60037 0.19786 0.14426 0.0
C2 C 0.57813 0.16624 0.20895 0.0
C3 C 0.48771 0.16375 0.20079 0.0
C4 C 0.57416 0.24738 0.19114 0.0
O5 O 0.51853 0.20434 0.14086 0.0
O6 O 0.5648 0.20977 0.11466 0.0
C7 C 0.59 0.14797 0.09264 0.0
N8 N 0.6077 0.16101 0.11809 0.0
C9 C 0.64587 0.12102 0.11273 0.0
C10 C 0.62813 0.10723 0.08632 0.0
C11 C 0.60004 0.12073 0.0763 0.0
C12 C 0.63467 0.14812 0.12807 0.0
H13 H 0.56837 0.15825 0.08494 0.0
C14 C 0.53539 0.2119 0.11485 0.0
O15 O 0.49129 0.19265 0.20859 0.0
O16 O 0.51015 0.15013 0.18446 0.0
N17 N 0.63697 0.18744 0.16946 0.0
C18 C 0.65124 0.20366 0.19537 0.0
C19 C 0.67982 0.19352 0.20809 0.0
C20 C 0.69338 0.16673 0.19421 0.0
C21 C 0.67851 0.15073 0.16714 0.0
C22 C 0.65037 0.16235 0.15498 0.0
H23 H 0.64099 0.2243 0.20609 0.0
O24 O 0.55551 0.17197 0.23019 0.0
O25 O 0.57407 0.17421 0.1764 0.0
O26 O 0.54992 0.23255 0.19972 0.0
O27 O 0.59493 0.23644 0.17096 0.0
C28 C 0.69042 0.12367 0.15181 0.0
C29 C 0.67404 0.10875 0.12473 0.0
H30 H 0.63576 0.08619 0.07369 0.0
H31 H 0.58616 0.11016 0.05603 0.0
H32 H 0.69139 0.20636 0.22852 0.0
H33 H 0.71526 0.15875 0.20442 0.0
H34 H 0.71202 0.11401 0.16085 0.0
H35 H 0.68328 0.0878 0.11338 0.0
Mn36 Mn 0.32282 0.53439 0.68466 0.0
Mn37 Mn 0.31402 0.60368 0.64516 0.0
C38 C 0.34247 0.5782 0.711 0.0
C39 C 0.34852 0.48808 0.69409 0.0
C40 C 0.26507 0.57582 0.69067 0.0
O41 O 0.30937 0.5216 0.6356 0.0
O42 O 0.30042 0.56913 0.61503 0.0
C43 C 0.36272 0.5918 0.59255 0.0
N44 N 0.35053 0.60999 0.61815 0.0
C45 C 0.38943 0.64864 0.60909 0.0
C46 C 0.40239 0.63037 0.58259 0.0
C47 C 0.38911 0.60171 0.57448 0.0
C48 C 0.36371 0.6371 0.62696 0.0
H49 H 0.35234 0.56996 0.58588 0.0
C50 C 0.29938 0.53983 0.61211 0.0
O51 O 0.31935 0.49094 0.70074 0.0
O52 O 0.3625 0.51169 0.68045 0.0
N53 N 0.32528 0.64061 0.66936 0.0
C54 C 0.30802 0.65689 0.69282 0.0
C55 C 0.31757 0.68645 0.70313 0.0
C56 C 0.34378 0.69972 0.68777 0.0
C57 C 0.36015 0.68331 0.66214 0.0
C58 C 0.35001 0.65359 0.65363 0.0
H59 H 0.28708 0.64736 0.70361 0.0
O60 O 0.33784 0.55316 0.72873 0.0
O61 O 0.33718 0.57672 0.67731 0.0
O62 O 0.27892 0.55005 0.69535 0.0
O63 O 0.27654 0.5983 0.67332 0.0
C64 C 0.38561 0.69567 0.64398 0.0
C65 C 0.40056 0.67814 0.61791 0.0
H66 H 0.42241 0.6382 0.56815 0.0
H67 H 0.39895 0.58747 0.55404 0.0
H68 H 0.30441 0.69922 0.72238 0.0
H69 H 0.35078 0.72275 0.69537 0.0
H70 H 0.39393 0.71863 0.64994 0.0
H71 H 0.42024 0.68781 0.60434 0.0
Mn72 Mn 0.96391 0.30811 0.19137 0.0
Mn73 Mn 0.90272 0.31642 0.13774 0.0
C74 C 0.92062 0.3342 0.2107 0.0
C75 C 0.0104 0.32841 0.21148 0.0
C76 C 0.91714 0.25696 0.17702 0.0
O77 O 0.98164 0.29666 0.1436 0.0
O78 O 0.94017 0.30681 0.11005 0.0
C79 C 0.92258 0.37323 0.10111 0.0
N80 N 0.90124 0.35777 0.12048 0.0
C81 C 0.86706 0.40148 0.1201 0.0
C82 C 0.88858 0.41781 0.09991 0.0
C83 C 0.91649 0.40364 0.09046 0.0
C84 C 0.87439 0.37123 0.12987 0.0
H85 H 0.94411 0.36246 0.09391 0.0
C86 C 0.96835 0.29872 0.11387 0.0
O87 O 0.00426 0.29923 0.21538 0.0
O88 O 0.99053 0.34483 0.1945 0.0
N89 N 0.86468 0.32592 0.16066 0.0
C90 C 0.8468 0.3073 0.181 0.0
C91 C 0.8181 0.318 0.19275 0.0
C92 C 0.8081 0.34776 0.18362 0.0
C93 C 0.82674 0.36638 0.16235 0.0
C94 C 0.85488 0.35423 0.15085 0.0
H95 H 0.85434 0.28443 0.18817 0.0
O96 O 0.94032 0.32323 0.23295 0.0
O97 O 0.92709 0.33005 0.17778 0.0
O98 O 0.94108 0.2664 0.19345 0.0
O99 O 0.90214 0.27366 0.15526 0.0
C100 C 0.81867 0.39662 0.15239 0.0
C101 C 0.83886 0.41419 0.13137 0.0
H102 H 0.88402 0.44131 0.09175 0.0
H103 H 0.93328 0.41615 0.07503 0.0
H104 H 0.80372 0.30333 0.20884 0.0
H105 H 0.78609 0.35608 0.19311 0.0
H106 H 0.79714 0.4067 0.16107 0.0
H107 H 0.83257 0.43755 0.12424 0.0
Mn108 Mn 0.18076 0.9688 0.68301 0.0
Mn109 Mn 0.17064 0.90432 0.63442 0.0
C110 C 0.15738 0.92614 0.7082 0.0
C111 C 0.16224 0.01716 0.69957 0.0
C112 C 0.23048 0.91893 0.67181 0.0
O113 O 0.19099 0.98395 0.63393 0.0
O114 O 0.18272 0.93987 0.60496 0.0
C115 C 0.11534 0.92753 0.59755 0.0
N116 N 0.12933 0.9054 0.61728 0.0
C117 C 0.08449 0.87297 0.61469 0.0
C118 C 0.06959 0.89536 0.59427 0.0
C119 C 0.08502 0.92287 0.58589 0.0
C120 C 0.11438 0.87932 0.62644 0.0
H121 H 0.12728 0.94853 0.59065 0.0
C122 C 0.19033 0.96829 0.60581 0.0
O123 O 0.19135 0.01057 0.70249 0.0
O124 O 0.14457 0.99631 0.68598 0.0
N125 N 0.15897 0.8668 0.65726 0.0
C126 C 0.1775 0.84638 0.67443 0.0
C127 C 0.16591 0.81736 0.684 0.0
C128 C 0.13591 0.80897 0.67427 0.0
C129 C 0.11772 0.82972 0.6551 0.0
C130 C 0.13027 0.85862 0.64705 0.0
H131 H 0.20093 0.85227 0.68098 0.0
O132 O 0.16766 0.94861 0.72721 0.0
O133 O 0.15884 0.93021 0.67431 0.0
O134 O 0.22236 0.94511 0.68473 0.0
O135 O 0.2129 0.90222 0.65265 0.0
C136 C 0.08792 0.82254 0.64288 0.0
C137 C 0.07112 0.84434 0.62321 0.0
H138 H 0.0464 0.8916 0.58472 0.0
H139 H 0.0737 0.94027 0.57013 0.0
H140 H 0.18027 0.80131 0.69833 0.0
H141 H 0.12722 0.78635 0.6812 0.0
H142 H 0.07766 0.80033 0.64861 0.0
H143 H 0.04815 0.83864 0.61423 0.0
Mn144 Mn 0.53722 0.31285 0.80964 0.0
Mn145 Mn 0.60333 0.30661 0.85581 0.0
C146 C 0.58223 0.33469 0.78847 0.0
C147 C 0.49176 0.33845 0.79581 0.0
C148 C 0.57649 0.25438 0.81265 0.0
O149 O 0.5219 0.29982 0.85812 0.0
O150 O 0.56733 0.30002 0.88685 0.0
C151 C 0.59566 0.36195 0.90046 0.0
N152 N 0.61274 0.34532 0.87723 0.0
C153 C 0.65338 0.38305 0.8783 0.0
C154 C 0.63642 0.40036 0.90264 0.0
C155 C 0.60738 0.38982 0.91364 0.0
C156 C 0.64054 0.35542 0.86617 0.0
H157 H 0.57321 0.3541 0.90868 0.0
C158 C 0.53798 0.29698 0.88598 0.0
O159 O 0.49507 0.30921 0.78948 0.0
O160 O 0.5142 0.35238 0.81173 0.0
N161 N 0.6402 0.31272 0.82922 0.0
C162 C 0.65305 0.2939 0.80463 0.0
C163 C 0.68202 0.3013 0.79065 0.0
C164 C 0.69747 0.32795 0.80202 0.0
C165 C 0.68388 0.34685 0.82749 0.0
C166 C 0.65522 0.338 0.84097 0.0
H167 H 0.64138 0.27331 0.79588 0.0
O168 O 0.55968 0.32845 0.76735 0.0
O169 O 0.57773 0.32817 0.8213 0.0
O170 O 0.55347 0.26943 0.80095 0.0
O171 O 0.59612 0.26577 0.83399 0.0
C172 C 0.69753 0.37427 0.83981 0.0
C173 C 0.68223 0.39242 0.86511 0.0
H174 H 0.64532 0.42194 0.91274 0.0
H175 H 0.59402 0.40319 0.93216 0.0
H176 H 0.69242 0.28648 0.77112 0.0
H177 H 0.71972 0.33373 0.79097 0.0
H178 H 0.71959 0.3818 0.82969 0.0
H179 H 0.69273 0.41368 0.874 0.0
Mn180 Mn 0.18252 0.52542 0.31119 0.0
Mn181 Mn 0.18953 0.59572 0.3492 0.0
C182 C 0.16227 0.5686 0.28337 0.0
C183 C 0.15697 0.47853 0.30413 0.0
C184 C 0.24052 0.56586 0.3071 0.0
O185 O 0.19604 0.51423 0.36083 0.0
O186 O 0.19846 0.56213 0.38274 0.0
C187 C 0.1367 0.58916 0.39764 0.0
N188 N 0.15177 0.60539 0.37234 0.0
C189 C 0.11717 0.64831 0.37859 0.0
C190 C 0.10126 0.63213 0.40479 0.0
C191 C 0.11088 0.60228 0.41409 0.0
C192 C 0.14198 0.63356 0.3622 0.0
H193 H 0.14448 0.56651 0.4054 0.0
C194 C 0.20094 0.53292 0.38592 0.0
O195 O 0.18603 0.48134 0.29686 0.0
O196 O 0.14302 0.50265 0.31659 0.0
N197 N 0.18196 0.63173 0.32153 0.0
C198 C 0.20067 0.64486 0.29699 0.0
C199 C 0.19401 0.67459 0.2845 0.0
C200 C 0.16928 0.69125 0.2988 0.0
C201 C 0.15134 0.67794 0.32536 0.0
C202 C 0.15823 0.64771 0.33565 0.0
H203 H 0.22054 0.63271 0.287 0.0
O204 O 0.16727 0.54319 0.26643 0.0
O205 O 0.16761 0.56785 0.31702 0.0
O206 O 0.22618 0.54088 0.30003 0.0
O207 O 0.22896 0.58769 0.32538 0.0
C208 C 0.12737 0.69376 0.34265 0.0
C209 C 0.1099 0.67876 0.36874 0.0
H210 H 0.08178 0.64247 0.41809 0.0
H211 H 0.09877 0.58964 0.43431 0.0
H212 H 0.20835 0.68491 0.26447 0.0
H213 H 0.16461 0.71444 0.28963 0.0
H214 H 0.12181 0.71732 0.3356 0.0
H215 H 0.09114 0.69097 0.38132 0.0
Mn216 Mn 0.97362 0.19068 0.81455 0.0
Mn217 Mn 0.91142 0.18491 0.8673 0.0
C218 C 0.93117 0.16273 0.79631 0.0
C219 C 0.02114 0.16989 0.79794 0.0
C220 C 0.92467 0.2413 0.82237 0.0
O221 O 0.99029 0.20577 0.86136 0.0
O222 O 0.94773 0.19916 0.89433 0.0
C223 C 0.93375 0.1326 0.9102 0.0
N224 N 0.91182 0.14524 0.88911 0.0
C225 C 0.87995 0.10004 0.89397 0.0
C226 C 0.9021 0.0866 0.91595 0.0
C227 C 0.92916 0.10292 0.92401 0.0
C228 C 0.88584 0.12965 0.88094 0.0
H229 H 0.9546 0.14507 0.91637 0.0
C230 C 0.97592 0.20698 0.89042 0.0
O231 O 0.01445 0.19849 0.79082 0.0
O232 O 0.00103 0.1545 0.81574 0.0
N233 N 0.87405 0.17168 0.84547 0.0
C234 C 0.85496 0.18803 0.82406 0.0
C235 C 0.82661 0.17528 0.81404 0.0
C236 C 0.81823 0.14576 0.82584 0.0
C237 C 0.83797 0.12963 0.84845 0.0
C238 C 0.8656 0.14386 0.85827 0.0
H239 H 0.8612 0.21074 0.81491 0.0
O240 O 0.95135 0.17236 0.77385 0.0
O241 O 0.9368 0.16899 0.82906 0.0
O242 O 0.94974 0.23175 0.80818 0.0
O243 O 0.90935 0.22558 0.84478 0.0
C244 C 0.83136 0.09998 0.86157 0.0
C245 C 0.85241 0.08513 0.88418 0.0
H246 H 0.89865 0.0637 0.92663 0.0
H247 H 0.94642 0.09263 0.94082 0.0
H248 H 0.81117 0.18831 0.79742 0.0
H249 H 0.79652 0.13582 0.8176 0.0
H250 H 0.81027 0.08829 0.85425 0.0
H251 H 0.84722 0.06222 0.89384 0.0
Mn252 Mn 0.31805 0.96848 0.31314 0.0
Mn253 Mn 0.31097 0.90077 0.35642 0.0
C254 C 0.33778 0.924 0.28867 0.0
C255 C 0.34319 0.01461 0.30108 0.0
C256 C 0.26096 0.92576 0.31039 0.0
O257 O 0.3051 0.98302 0.36167 0.0
O258 O 0.29662 0.93625 0.38468 0.0
C259 C 0.35987 0.91626 0.40754 0.0
N260 N 0.34802 0.89671 0.38307 0.0
C261 C 0.38904 0.86033 0.39234 0.0
C262 C 0.40168 0.88003 0.41769 0.0
C263 C 0.38712 0.90822 0.42515 0.0
C264 C 0.36233 0.87 0.37492 0.0
H265 H 0.3486 0.93779 0.41366 0.0
C266 C 0.2953 0.96562 0.38602 0.0
O267 O 0.31397 0.0113 0.29498 0.0
O268 O 0.35749 0.99162 0.31561 0.0
N269 N 0.32302 0.86314 0.33417 0.0
C270 C 0.30571 0.84506 0.31256 0.0
C271 C 0.31633 0.81557 0.30334 0.0
C272 C 0.34377 0.80428 0.31794 0.0
C273 C 0.36018 0.82248 0.34191 0.0
C274 C 0.3488 0.85196 0.34949 0.0
H275 H 0.28395 0.85313 0.30235 0.0
O276 O 0.33266 0.94826 0.26976 0.0
O277 O 0.33304 0.92676 0.32236 0.0
O278 O 0.2742 0.95165 0.30427 0.0
O279 O 0.27315 0.9041 0.32849 0.0
C280 C 0.38682 0.8121 0.35945 0.0
C281 C 0.40152 0.8312 0.38423 0.0
H282 H 0.42241 0.87366 0.43174 0.0
H283 H 0.3967 0.92355 0.4447 0.0
H284 H 0.30313 0.8014 0.28548 0.0
H285 H 0.35165 0.78133 0.31117 0.0
H286 H 0.39615 0.7894 0.35414 0.0
H287 H 0.42204 0.823 0.39744 0.0
Mn288 Mn 0.46028 0.81954 0.81213 0.0
Mn289 Mn 0.39646 0.82682 0.86235 0.0
C290 C 0.41634 0.84122 0.78815 0.0
C291 C 0.5075 0.83949 0.79412 0.0
C292 C 0.41353 0.76741 0.82523 0.0
O293 O 0.47674 0.81035 0.86088 0.0
O294 O 0.43309 0.81702 0.89123 0.0
C295 C 0.41664 0.88359 0.8987 0.0
N296 N 0.39524 0.86822 0.87931 0.0
C297 C 0.35977 0.91067 0.8832 0.0
C298 C 0.38139 0.92697 0.90327 0.0
C299 C 0.41005 0.91346 0.9108 0.0
C300 C 0.36802 0.88137 0.87095 0.0
H301 H 0.43849 0.87306 0.90504 0.0
C302 C 0.46178 0.8107 0.88951 0.0
O303 O 0.50174 0.81015 0.79168 0.0
O304 O 0.4864 0.85672 0.808 0.0
N305 N 0.35818 0.83618 0.83992 0.0
C306 C 0.33911 0.81663 0.82224 0.0
C307 C 0.30946 0.82653 0.81278 0.0
C308 C 0.29909 0.8558 0.8232 0.0
C309 C 0.31852 0.87494 0.8429 0.0
C310 C 0.34819 0.86422 0.85057 0.0
H311 H 0.34654 0.79367 0.81526 0.0
O312 O 0.43865 0.83153 0.76851 0.0
O313 O 0.42111 0.83999 0.82193 0.0
O314 O 0.4387 0.77694 0.81127 0.0
O315 O 0.39637 0.78423 0.84474 0.0
C316 C 0.30936 0.90398 0.8559 0.0
C317 C 0.33015 0.92205 0.87551 0.0
H318 H 0.37616 0.94979 0.91319 0.0
H319 H 0.42685 0.92586 0.9263 0.0
H320 H 0.29444 0.81141 0.79806 0.0
H321 H 0.27601 0.86316 0.81636 0.0
H322 H 0.28646 0.91277 0.85064 0.0
H323 H 0.32296 0.94449 0.88495 0.0
Mn324 Mn 0.6851 0.47946 0.3108 0.0
Mn325 Mn 0.68848 0.41158 0.35425 0.0
C326 C 0.66104 0.43609 0.28788 0.0
C327 C 0.66106 0.52667 0.30084 0.0
C328 C 0.74134 0.43726 0.31103 0.0
O329 O 0.69988 0.49238 0.35951 0.0
O330 O 0.69676 0.44627 0.38648 0.0
C331 C 0.63389 0.42023 0.39974 0.0
N332 N 0.64961 0.40317 0.3757 0.0
C333 C 0.61072 0.36363 0.37635 0.0
C334 C 0.59421 0.38066 0.40134 0.0
C335 C 0.6058 0.40914 0.41297 0.0
C336 C 0.63851 0.37592 0.36404 0.0
H337 H 0.6427 0.44216 0.40866 0.0
C338 C 0.70173 0.47536 0.38673 0.0
O339 O 0.68984 0.52251 0.29284 0.0
O340 O 0.6468 0.5039 0.31577 0.0
N341 N 0.68089 0.37554 0.32669 0.0
C342 C 0.69961 0.36205 0.30247 0.0
C343 C 0.69169 0.33315 0.28867 0.0
C344 C 0.66447 0.31849 0.29962 0.0
C345 C 0.64578 0.33262 0.32491 0.0
C346 C 0.6553 0.36108 0.33842 0.0
H347 H 0.72065 0.37305 0.29404 0.0
O348 O 0.6676 0.45933 0.26784 0.0
O349 O 0.66814 0.43911 0.32077 0.0
O350 O 0.72753 0.46139 0.30006 0.0
O351 O 0.72916 0.4179 0.33217 0.0
C352 C 0.61812 0.31957 0.33729 0.0
C353 C 0.6005 0.33515 0.36285 0.0
H354 H 0.57254 0.3722 0.4116 0.0
H355 H 0.59312 0.4225 0.43211 0.0
H356 H 0.7066 0.32217 0.26967 0.0
H357 H 0.65823 0.29635 0.28855 0.0
H358 H 0.61005 0.29769 0.3271 0.0
H359 H 0.57909 0.32507 0.37187 0.0
Mn360 Mn 0.03599 0.68823 0.81432 0.0
Mn361 Mn 0.0955 0.68197 0.8708 0.0
C362 C 0.07978 0.66191 0.79787 0.0
C363 C 0.99031 0.66836 0.79194 0.0
C364 C 0.085 0.73859 0.82612 0.0
O365 O 0.01603 0.70082 0.86024 0.0
O366 O 0.05812 0.69819 0.8945 0.0
C367 C 0.06811 0.63145 0.91275 0.0
N368 N 0.09191 0.64274 0.89332 0.0
C369 C 0.12126 0.59623 0.90177 0.0
C370 C 0.09715 0.58418 0.92206 0.0
C371 C 0.07043 0.60185 0.92747 0.0
C372 C 0.11758 0.62582 0.88767 0.0
H373 H 0.04752 0.64492 0.91694 0.0
C374 C 0.02963 0.7042 0.88948 0.0
O375 O 0.99704 0.69738 0.78787 0.0
O376 O 0.00909 0.65181 0.81034 0.0
N377 N 0.13371 0.66674 0.85272 0.0
C378 C 0.15498 0.68181 0.83281 0.0
C379 C 0.18333 0.6676 0.82559 0.0
C380 C 0.18953 0.63799 0.83873 0.0
C381 C 0.16756 0.62316 0.85974 0.0
C382 C 0.13996 0.63876 0.8667 0.0
H383 H 0.15033 0.70447 0.82246 0.0
O384 O 0.06086 0.67247 0.77455 0.0
O385 O 0.07224 0.66629 0.83059 0.0
O386 O 0.05947 0.72982 0.81239 0.0
O387 O 0.10061 0.72211 0.84756 0.0
C388 C 0.17189 0.59347 0.87394 0.0
C389 C 0.14869 0.57995 0.8948 0.0
H390 H 0.09885 0.56136 0.93347 0.0
H391 H 0.05167 0.59267 0.94298 0.0
H392 H 0.20046 0.67956 0.81016 0.0
H393 H 0.21129 0.62696 0.83272 0.0
H394 H 0.19291 0.58077 0.86882 0.0
H395 H 0.1522 0.55702 0.90537 0.0
Mn396 Mn 0.81724 0.02496 0.31294 0.0
Mn397 Mn 0.80979 0.09383 0.35391 0.0
C398 C 0.83741 0.06891 0.28721 0.0
C399 C 0.84258 0.97828 0.30346 0.0
C400 C 0.75979 0.0671 0.30881 0.0
O401 O 0.80401 0.01179 0.36194 0.0
O402 O 0.79674 0.0591 0.38407 0.0
C403 C 0.85943 0.08137 0.40517 0.0
N404 N 0.8468 0.09982 0.38009 0.0
C405 C 0.88532 0.13877 0.38944 0.0
C406 C 0.89875 0.12024 0.41541 0.0
C407 C 0.88589 0.09128 0.42309 0.0
C408 C 0.85959 0.12721 0.37165 0.0
H409 H 0.84932 0.05933 0.41157 0.0
C410 C 0.79527 0.02977 0.38629 0.0
O411 O 0.81349 0.98145 0.2965 0.0
O412 O 0.85667 0.00186 0.31695 0.0
N413 N 0.82076 0.13088 0.32973 0.0
C414 C 0.80345 0.1471 0.30627 0.0
C415 C 0.81285 0.17674 0.29605 0.0
C416 C 0.83894 0.19015 0.31153 0.0
C417 C 0.85537 0.17377 0.33714 0.0
C418 C 0.84549 0.1439 0.34541 0.0
H419 H 0.78261 0.13744 0.29539 0.0
O420 O 0.83236 0.04417 0.26907 0.0
O421 O 0.83218 0.06701 0.32088 0.0
O422 O 0.77341 0.04141 0.3027 0.0
O423 O 0.77167 0.08893 0.32683 0.0
C424 C 0.88068 0.18625 0.35545 0.0
C425 C 0.89599 0.16855 0.38111 0.0
H426 H 0.9188 0.12808 0.42977 0.0
H427 H 0.89609 0.07684 0.44312 0.0
H428 H 0.79966 0.18947 0.2768 0.0
H429 H 0.84582 0.21324 0.30402 0.0
H430 H 0.88871 0.20937 0.34978 0.0
H431 H 0.91563 0.17828 0.39469 0.0
Mn432 Mn 0.464 0.68755 0.1821 0.0
Mn433 Mn 0.40236 0.67931 0.12895 0.0
C434 C 0.42232 0.65868 0.20037 0.0
C435 C 0.51169 0.66998 0.20143 0.0
C436 C 0.41215 0.73561 0.17413 0.0
O437 O 0.48115 0.70218 0.13537 0.0
O438 O 0.43771 0.69785 0.10364 0.0
C439 C 0.43027 0.63079 0.08453 0.0
N440 N 0.40682 0.64066 0.10542 0.0
C441 C 0.3793 0.59299 0.09755 0.0
C442 C 0.40307 0.58238 0.07577 0.0
C443 C 0.42871 0.60133 0.06932 0.0
C444 C 0.38223 0.62248 0.11211 0.0
H445 H 0.45002 0.64529 0.07955 0.0
C446 C 0.46596 0.70555 0.10713 0.0
O447 O 0.5035 0.69848 0.2065 0.0
O448 O 0.49308 0.65263 0.18375 0.0
N449 N 0.36571 0.6621 0.14871 0.0
C450 C 0.34438 0.67617 0.16948 0.0
C451 C 0.3169 0.66069 0.17763 0.0
C452 C 0.31162 0.63092 0.16446 0.0
C453 C 0.33351 0.61725 0.14234 0.0
C454 C 0.36017 0.63409 0.13449 0.0
H455 H 0.3482 0.69914 0.17951 0.0
O456 O 0.44176 0.66972 0.22284 0.0
O457 O 0.42815 0.66409 0.16741 0.0
O458 O 0.43853 0.72775 0.1864 0.0
O459 O 0.39641 0.71877 0.15322 0.0
C460 C 0.32994 0.58761 0.12776 0.0
C461 C 0.3529 0.57542 0.10554 0.0
H462 H 0.40194 0.55969 0.06395 0.0
H463 H 0.44721 0.59326 0.05265 0.0
H464 H 0.29966 0.67186 0.19365 0.0
H465 H 0.29053 0.61893 0.17116 0.0
H466 H 0.30968 0.57396 0.13358 0.0
H467 H 0.34999 0.55253 0.09465 0.0
Mn468 Mn 0.82329 0.4715 0.6829 0.0
Mn469 Mn 0.81548 0.40353 0.64014 0.0
C470 C 0.84437 0.42728 0.70682 0.0
C471 C 0.84797 0.51837 0.69256 0.0
C472 C 0.76626 0.42881 0.68733 0.0
O473 O 0.80884 0.48555 0.63487 0.0
O474 O 0.80129 0.43881 0.61133 0.0
C475 C 0.86395 0.41776 0.58803 0.0
N476 N 0.85211 0.39865 0.61297 0.0
C477 C 0.89189 0.36111 0.60279 0.0
C478 C 0.9045 0.38034 0.57694 0.0
C479 C 0.89058 0.4089 0.56972 0.0
C480 C 0.86586 0.37159 0.6209 0.0
H481 H 0.8531 0.43954 0.58206 0.0
C482 C 0.79963 0.46819 0.61024 0.0
O483 O 0.81916 0.51451 0.70049 0.0
O484 O 0.86223 0.49524 0.67823 0.0
N485 N 0.8274 0.36613 0.66299 0.0
C486 C 0.81054 0.34893 0.68596 0.0
C487 C 0.82081 0.31939 0.69546 0.0
C488 C 0.84739 0.30712 0.67981 0.0
C489 C 0.86336 0.32449 0.65467 0.0
C490 C 0.85248 0.35413 0.64696 0.0
H491 H 0.78939 0.35774 0.69703 0.0
O492 O 0.83965 0.45164 0.72573 0.0
O493 O 0.83831 0.42981 0.67337 0.0
O494 O 0.77994 0.45438 0.69382 0.0
O495 O 0.77782 0.40741 0.66837 0.0
C496 C 0.88915 0.31318 0.63624 0.0
C497 C 0.90372 0.33167 0.61074 0.0
H498 H 0.92473 0.37333 0.56234 0.0
H499 H 0.90015 0.42387 0.5498 0.0
H500 H 0.80797 0.30589 0.71432 0.0
H501 H 0.85497 0.28412 0.68678 0.0
H502 H 0.89803 0.29029 0.64154 0.0
H503 H 0.92366 0.3228 0.59696 0.0
Mn504 Mn 0.03423 0.8068 0.18723 0.0
Mn505 Mn 0.09516 0.81413 0.13301 0.0
C506 C 0.07812 0.83196 0.20635 0.0
C507 C 0.98808 0.82799 0.2074 0.0
C508 C 0.07979 0.75473 0.17205 0.0
O509 O 0.0161 0.79561 0.13962 0.0
O510 O 0.05728 0.80579 0.10562 0.0
C511 C 0.07648 0.87182 0.09734 0.0
N512 N 0.09758 0.85559 0.11625 0.0
C513 C 0.13296 0.8983 0.11586 0.0
C514 C 0.1117 0.91541 0.09615 0.0
C515 C 0.08331 0.90213 0.08694 0.0
C516 C 0.12489 0.86819 0.12542 0.0
H517 H 0.0546 0.86171 0.09032 0.0
C518 C 0.02909 0.79791 0.10975 0.0
O519 O 0.99378 0.79873 0.21142 0.0
O520 O 0.00824 0.844 0.19038 0.0
N521 N 0.13364 0.82235 0.15556 0.0
C522 C 0.15128 0.80297 0.17527 0.0
C523 C 0.18043 0.8127 0.18663 0.0
C524 C 0.19113 0.84227 0.17778 0.0
C525 C 0.17276 0.86165 0.15708 0.0
C526 C 0.14414 0.85045 0.14592 0.0
H527 H 0.14323 0.78023 0.18219 0.0
O528 O 0.05823 0.82149 0.22869 0.0
O529 O 0.07143 0.828 0.17345 0.0
O530 O 0.05638 0.76467 0.18914 0.0
O531 O 0.09474 0.7712 0.15 0.0
C532 C 0.18158 0.89173 0.14732 0.0
C533 C 0.16165 0.91008 0.12683 0.0
H534 H 0.11684 0.93883 0.08817 0.0
H535 H 0.06672 0.91525 0.07189 0.0
H536 H 0.19462 0.7974 0.20217 0.0
H537 H 0.21349 0.84985 0.187 0.0
H538 H 0.20349 0.90109 0.15574 0.0
H539 H 0.16852 0.93329 0.11984 0.0
Mn540 Mn 0.69218 0.02424 0.69354 0.0
Mn541 Mn 0.69803 0.09262 0.65163 0.0
C542 C 0.66947 0.06809 0.71714 0.0
C543 C 0.66596 0.97809 0.70274 0.0
C544 C 0.74981 0.06457 0.69474 0.0
O545 O 0.70657 0.01147 0.64453 0.0
O546 O 0.7057 0.05821 0.61874 0.0
C547 C 0.64362 0.08603 0.60541 0.0
N548 N 0.65956 0.10235 0.62991 0.0
C549 C 0.62135 0.14258 0.63007 0.0
C550 C 0.6047 0.12637 0.60452 0.0
C551 C 0.61583 0.09791 0.59225 0.0
C552 C 0.64887 0.12956 0.64221 0.0
H553 H 0.65199 0.06406 0.5961 0.0
C554 C 0.70941 0.02893 0.61776 0.0
O555 O 0.69491 0.98076 0.71085 0.0
O556 O 0.65291 0.00161 0.68795 0.0
N557 N 0.69097 0.12832 0.67995 0.0
C558 C 0.70955 0.14078 0.70501 0.0
C559 C 0.70188 0.16941 0.71975 0.0
C560 C 0.67514 0.18491 0.70872 0.0
C561 C 0.6565 0.17175 0.68275 0.0
C562 C 0.66571 0.14349 0.66842 0.0
H563 H 0.73024 0.12913 0.71345 0.0
O564 O 0.67526 0.04442 0.73683 0.0
O565 O 0.67667 0.06523 0.68427 0.0
O566 O 0.73527 0.04056 0.70481 0.0
O567 O 0.73828 0.08479 0.67413 0.0
C568 C 0.62914 0.18556 0.67053 0.0
C569 C 0.61149 0.1709 0.64434 0.0
H570 H 0.58322 0.13543 0.59437 0.0
H571 H 0.60299 0.08516 0.57274 0.0
H572 H 0.71657 0.17954 0.73956 0.0
H573 H 0.66916 0.20691 0.72033 0.0
H574 H 0.62132 0.2073 0.68134 0.0
H575 H 0.59029 0.18153 0.63547 0.0
H576 H 0.48562 0.10273 0.21692 0.0
H577 H 0.42983 0.18568 0.21481 0.0
H578 H 0.38616 0.15665 0.24062 0.0
H579 H 0.4254 0.04745 0.19799 0.0
H580 H 0.44056 0.0191 0.22797 0.0
H581 H 0.46616 0.04605 0.20695 0.0
H582 H 0.4863 0.06335 0.26782 0.0
H583 H 0.4605 0.03673 0.28904 0.0
H584 H 0.45938 0.0771 0.30024 0.0
H585 H 0.34841 0.11773 0.26592 0.0
H586 H 0.32063 0.07295 0.29112 0.0
H587 H 0.40333 0.01747 0.28147 0.0
C588 C 0.46402 0.11463 0.22129 0.0
C589 C 0.46079 0.14625 0.21338 0.0
C590 C 0.43254 0.16134 0.22042 0.0
C591 C 0.4077 0.14507 0.23509 0.0
C592 C 0.4118 0.11394 0.24311 0.0
C593 C 0.43935 0.09897 0.23666 0.0
C594 C 0.43854 0.06594 0.2494 0.0
C595 C 0.44291 0.04331 0.21875 0.0
C596 C 0.46261 0.06048 0.27835 0.0
C597 C 0.40614 0.06452 0.26385 0.0
C598 C 0.39091 0.09229 0.25967 0.0
C599 C 0.36022 0.09599 0.26965 0.0
C600 C 0.34466 0.07052 0.28396 0.0
C601 C 0.36004 0.04203 0.28872 0.0
C602 C 0.39123 0.0392 0.27885 0.0
H603 H 0.40876 0.48497 0.71338 0.0
H604 H 0.32632 0.42945 0.70196 0.0
H605 H 0.354 0.38439 0.72659 0.0
H606 H 0.46522 0.42517 0.6945 0.0
H607 H 0.49172 0.43889 0.72735 0.0
H608 H 0.46607 0.46553 0.70588 0.0
H609 H 0.44535 0.48302 0.76644 0.0
H610 H 0.47063 0.45615 0.78807 0.0
H611 H 0.42974 0.45471 0.79615 0.0
H612 H 0.39121 0.34545 0.7527 0.0
H613 H 0.43421 0.31649 0.78006 0.0
H614 H 0.49013 0.39936 0.77896 0.0
C615 C 0.39676 0.46314 0.71536 0.0
C616 C 0.36562 0.46041 0.70526 0.0
C617 C 0.35032 0.4318 0.70926 0.0
C618 C 0.36582 0.40616 0.72324 0.0
C619 C 0.39641 0.40978 0.73362 0.0
C620 C 0.41163 0.43761 0.73 0.0
C621 C 0.44381 0.43609 0.74511 0.0
C622 C 0.46814 0.44174 0.7165 0.0
C623 C 0.44758 0.45884 0.77576 0.0
C624 C 0.44439 0.40303 0.75774 0.0
C625 C 0.417 0.38807 0.75056 0.0
C626 C 0.41266 0.357 0.75871 0.0
C627 C 0.43712 0.34077 0.77427 0.0
C628 C 0.4652 0.35585 0.78206 0.0
C629 C 0.46866 0.38742 0.77396 0.0
H630 H 0.01182 0.38699 0.23476 0.0
H631 H 0.06809 0.30469 0.22676 0.0
H632 H 0.11215 0.33331 0.25302 0.0
H633 H 0.06832 0.44154 0.21324 0.0
H634 H 0.05483 0.47001 0.24406 0.0
H635 H 0.0283 0.44248 0.22586 0.0
H636 H 0.01273 0.42523 0.2885 0.0
H637 H 0.03928 0.45272 0.30694 0.0
H638 H 0.04207 0.41254 0.31869 0.0
H639 H 0.15117 0.3737 0.27523 0.0
H640 H 0.17993 0.42 0.29493 0.0
H641 H 0.09553 0.4734 0.29201 0.0
C642 C 0.0334 0.37489 0.23856 0.0
C643 C 0.03682 0.3438 0.22839 0.0
C644 C 0.06517 0.32858 0.23435 0.0
C645 C 0.0902 0.34466 0.24919 0.0
C646 C 0.08606 0.37558 0.25858 0.0
C647 C 0.05812 0.39027 0.2539 0.0
C648 C 0.05914 0.42344 0.26598 0.0
C649 C 0.05225 0.44566 0.23547 0.0
C650 C 0.037 0.42878 0.29687 0.0
C651 C 0.09232 0.42561 0.2775 0.0
C652 C 0.10766 0.3979 0.27296 0.0
C653 C 0.13918 0.39528 0.27947 0.0
C654 C 0.15533 0.42166 0.2906 0.0
C655 C 0.13982 0.45009 0.29551 0.0
C656 C 0.10786 0.4518 0.28931 0.0
H657 H 0.10858 0.02055 0.7341 0.0
H658 H 0.18484 0.07691 0.69876 0.0
H659 H 0.15812 0.12376 0.72145 0.0
H660 H 0.04817 0.07122 0.71425 0.0
H661 H 0.02611 0.06181 0.75282 0.0
H662 H 0.05186 0.03371 0.73425 0.0
H663 H 0.07993 0.02857 0.794 0.0
H664 H 0.0542 0.05663 0.81281 0.0
H665 H 0.09525 0.06255 0.81491 0.0
H666 H 0.11888 0.16504 0.7445 0.0
H667 H 0.07492 0.19454 0.76983 0.0
H668 H 0.02855 0.10835 0.79309 0.0
C669 C 0.11973 0.04276 0.73119 0.0
C670 C 0.14847 0.04536 0.7144 0.0
C671 C 0.1627 0.07462 0.71158 0.0
C672 C 0.14766 0.10125 0.7243 0.0
C673 C 0.11891 0.09786 0.74044 0.0
C674 C 0.10553 0.06911 0.74439 0.0
C675 C 0.07499 0.07089 0.76304 0.0
C676 C 0.04875 0.0587 0.73969 0.0
C677 C 0.07618 0.05365 0.79828 0.0
C678 C 0.07262 0.10525 0.76837 0.0
C679 C 0.09788 0.12073 0.75509 0.0
C680 C 0.0993 0.15299 0.75547 0.0
C681 C 0.07427 0.16957 0.76982 0.0
C682 C 0.04855 0.15375 0.7839 0.0
C683 C 0.0481 0.12123 0.78322 0.0
H684 H 0.51334 0.89755 0.76929 0.0
H685 H 0.56482 0.81307 0.7856 0.0
H686 H 0.61179 0.83847 0.76194 0.0
H687 H 0.54935 0.91752 0.68698 0.0
H688 H 0.54814 0.95833 0.69591 0.0
H689 H 0.51928 0.93323 0.71425 0.0
H690 H 0.53261 0.95284 0.77666 0.0
H691 H 0.56142 0.97804 0.75852 0.0
H692 H 0.57184 0.95059 0.79198 0.0
H693 H 0.65405 0.87572 0.74016 0.0
H694 H 0.68598 0.91929 0.71847 0.0
H695 H 0.60424 0.97655 0.71247 0.0
C696 C 0.53452 0.88436 0.76798 0.0
C697 C 0.5357 0.85353 0.77961 0.0
C698 C 0.5636 0.83682 0.77688 0.0
C699 C 0.5903 0.85106 0.76352 0.0
C700 C 0.58834 0.88171 0.75239 0.0
C701 C 0.56094 0.89791 0.75407 0.0
C702 C 0.56432 0.93027 0.73998 0.0
C703 C 0.54408 0.9351 0.70734 0.0
C704 C 0.55713 0.95434 0.76849 0.0
C705 C 0.5981 0.93014 0.73062 0.0
C706 C 0.61179 0.9021 0.73813 0.0
C707 C 0.64341 0.89756 0.73365 0.0
C708 C 0.66136 0.92237 0.72137 0.0
C709 C 0.64747 0.95105 0.71326 0.0
C710 C 0.61542 0.95468 0.71766 0.0
H711 H 0.51384 0.6138 0.23074 0.0
H712 H 0.56978 0.69472 0.21119 0.0
H713 H 0.61496 0.66804 0.23777 0.0
H714 H 0.54791 0.59518 0.31548 0.0
H715 H 0.54433 0.55424 0.3083 0.0
H716 H 0.51707 0.5804 0.28866 0.0
H717 H 0.52948 0.55784 0.22729 0.0
H718 H 0.55672 0.53166 0.2467 0.0
H719 H 0.56883 0.55731 0.21215 0.0
H720 H 0.65503 0.62895 0.26136 0.0
H721 H 0.6844 0.58394 0.28393 0.0
H722 H 0.59944 0.53188 0.29198 0.0
C723 C 0.5356 0.62598 0.23215 0.0
C724 C 0.53866 0.65604 0.21861 0.0
C725 C 0.5672 0.67156 0.22142 0.0
C726 C 0.59286 0.65658 0.23641 0.0
C727 C 0.58909 0.62656 0.24919 0.0
C728 C 0.5609 0.61179 0.24771 0.0
C729 C 0.56232 0.57979 0.26319 0.0
C730 C 0.54169 0.57727 0.29585 0.0
C731 C 0.55385 0.55522 0.23569 0.0
C732 C 0.59598 0.57826 0.27281 0.0
C733 C 0.61126 0.60529 0.26448 0.0
C734 C 0.64311 0.60797 0.26861 0.0
C735 C 0.65961 0.58234 0.28137 0.0
C736 C 0.64408 0.55467 0.29022 0.0
C737 C 0.61186 0.55296 0.28626 0.0
H738 H 0.99093 0.61116 0.7649 0.0
H739 H 0.93235 0.69137 0.77727 0.0
H740 H 0.88916 0.66275 0.74921 0.0
H741 H 0.96095 0.58822 0.67919 0.0
H742 H 0.96502 0.54773 0.68889 0.0
H743 H 0.99091 0.57527 0.70843 0.0
H744 H 0.97641 0.55509 0.77027 0.0
H745 H 0.95051 0.52755 0.75097 0.0
H746 H 0.9365 0.55439 0.78333 0.0
H747 H 0.85125 0.62223 0.72562 0.0
H748 H 0.82352 0.5758 0.70451 0.0
H749 H 0.90938 0.52473 0.7038 0.0
C750 C 0.96904 0.6228 0.76155 0.0
C751 C 0.96465 0.65324 0.77352 0.0
C752 C 0.93596 0.66797 0.76824 0.0
C753 C 0.91143 0.65189 0.75239 0.0
C754 C 0.91647 0.62155 0.7413 0.0
C755 C 0.94482 0.60746 0.74517 0.0
C756 C 0.94468 0.57478 0.73147 0.0
C757 C 0.96669 0.57131 0.70013 0.0
C758 C 0.95247 0.5516 0.76076 0.0
C759 C 0.91149 0.57211 0.72017 0.0
C760 C 0.89544 0.59921 0.72606 0.0
C761 C 0.86377 0.60116 0.72024 0.0
C762 C 0.84821 0.57471 0.70835 0.0
C763 C 0.86445 0.54691 0.70205 0.0
C764 C 0.89652 0.54588 0.70757 0.0
H765 H 0.90273 0.97452 0.28485 0.0
H766 H 0.82045 0.91911 0.29782 0.0
H767 H 0.84905 0.87294 0.27712 0.0
H768 H 0.92495 0.94023 0.20474 0.0
H769 H 0.96566 0.94303 0.21341 0.0
H770 H 0.93952 0.97044 0.23264 0.0
H771 H 0.95988 0.95666 0.29461 0.0
H772 H 0.98623 0.92931 0.27554 0.0
H773 H 0.95951 0.91702 0.30891 0.0
H774 H 0.88801 0.83259 0.25423 0.0
H775 H 0.93166 0.8038 0.22732 0.0
H776 H 0.98539 0.88809 0.22544 0.0
C777 C 0.89088 0.95254 0.28401 0.0
C778 C 0.85961 0.95014 0.29349 0.0
C779 C 0.84457 0.92125 0.29094 0.0
C780 C 0.86062 0.89496 0.27928 0.0
C781 C 0.89149 0.89821 0.26969 0.0
C782 C 0.90627 0.92644 0.27164 0.0
C783 C 0.93862 0.92472 0.25726 0.0
C784 C 0.94239 0.94585 0.22511 0.0
C785 C 0.96246 0.93237 0.28579 0.0
C786 C 0.93994 0.8911 0.24704 0.0
C787 C 0.91281 0.87589 0.25473 0.0
C788 C 0.90928 0.84438 0.24793 0.0
C789 C 0.9341 0.82821 0.23271 0.0
C790 C 0.96165 0.84382 0.22392 0.0
C791 C 0.96442 0.87558 0.23136 0.0
H792 H 0.61699 0.2907 0.1715 0.0
H793 H 0.54284 0.2741 0.24563 0.0
H794 H 0.55394 0.32384 0.27419 0.0
H795 H 0.66764 0.31666 0.22437 0.0
H796 H 0.68443 0.34974 0.20278 0.0
H797 H 0.66804 0.31876 0.17758 0.0
H798 H 0.62837 0.35011 0.14537 0.0
H799 H 0.64619 0.38402 0.16372 0.0
H800 H 0.6053 0.37807 0.16842 0.0
H801 H 0.57455 0.37362 0.29673 0.0
H802 H 0.60698 0.41742 0.31573 0.0
H803 H 0.66956 0.40041 0.22943 0.0
C804 C 0.60262 0.2978 0.19326 0.0
C805 C 0.57899 0.27846 0.20626 0.0
C806 C 0.56091 0.28855 0.235 0.0
C807 C 0.56692 0.31687 0.25131 0.0
C808 C 0.59068 0.3351 0.23818 0.0
C809 C 0.60804 0.32617 0.20957 0.0
C810 C 0.63385 0.34888 0.20245 0.0
C811 C 0.66538 0.33265 0.20186 0.0
C812 C 0.62807 0.3663 0.16795 0.0
C813 C 0.63003 0.37031 0.23357 0.0
C814 C 0.60403 0.36279 0.25274 0.0
C815 C 0.59504 0.37963 0.28209 0.0
C816 C 0.61368 0.4042 0.29287 0.0
C817 C 0.64129 0.41108 0.27492 0.0
C818 C 0.64896 0.39478 0.24412 0.0
H819 H 0.22662 0.6252 0.68228 0.0
H820 H 0.2354 0.53838 0.73829 0.0
H821 H 0.18733 0.5499 0.77051 0.0
H822 H 0.20423 0.66864 0.75052 0.0
H823 H 0.17552 0.69232 0.72939 0.0
H824 H 0.20715 0.67678 0.70452 0.0
H825 H 0.17253 0.64874 0.6609 0.0
H826 H 0.13966 0.66601 0.68206 0.0
H827 H 0.14152 0.62476 0.67652 0.0
H828 H 0.13876 0.57199 0.79782 0.0
H829 H 0.09533 0.60398 0.81955 0.0
H830 H 0.12097 0.67686 0.74763 0.0
C831 C 0.2183 0.60827 0.70088 0.0
C832 C 0.23482 0.58083 0.70767 0.0
C833 C 0.22307 0.55948 0.73245 0.0
C834 C 0.19578 0.5658 0.75088 0.0
C835 C 0.18046 0.59341 0.74398 0.0
C836 C 0.19122 0.61415 0.71934 0.0
C837 C 0.17156 0.64289 0.71795 0.0
C838 C 0.1907 0.67188 0.72613 0.0
C839 C 0.15535 0.64575 0.68224 0.0
C840 C 0.14874 0.6357 0.74672 0.0
C841 C 0.15373 0.60675 0.76087 0.0
C842 C 0.13486 0.59479 0.78717 0.0
C843 C 0.11055 0.61315 0.79961 0.0
C844 C 0.10602 0.64323 0.78632 0.0
C845 C 0.12479 0.65425 0.75895 0.0
H846 H 0.89049 0.10393 0.29147 0.0
H847 H 0.80277 0.0958 0.23796 0.0
H848 H 0.81589 0.14048 0.20079 0.0
H849 H 0.90245 0.18911 0.28883 0.0
H850 H 0.9424 0.18242 0.2804 0.0
H851 H 0.92057 0.15381 0.30391 0.0
H852 H 0.94287 0.11671 0.25406 0.0
H853 H 0.95859 0.14881 0.22989 0.0
H854 H 0.93116 0.12343 0.20935 0.0
H855 H 0.8365 0.1865 0.17179 0.0
H856 H 0.86336 0.23293 0.15208 0.0
H857 H 0.93998 0.21143 0.2214 0.0
C858 C 0.87397 0.11214 0.27235 0.0
C859 C 0.84511 0.0974 0.26827 0.0
C860 C 0.82461 0.10742 0.24185 0.0
C861 C 0.83193 0.1326 0.22057 0.0
C862 C 0.86038 0.14681 0.22517 0.0
C863 C 0.8813 0.13699 0.25013 0.0
C864 C 0.91104 0.15548 0.24754 0.0
C865 C 0.91955 0.17101 0.28235 0.0
C866 C 0.93748 0.13488 0.23443 0.0
C867 C 0.90211 0.17914 0.21997 0.0
C868 C 0.87316 0.1729 0.20674 0.0
C869 C 0.85925 0.19162 0.18181 0.0
C870 C 0.87481 0.21811 0.17086 0.0
C871 C 0.90383 0.22622 0.18536 0.0
C872 C 0.91793 0.20596 0.20971 0.0
H873 H 0.27802 0.94417 0.71175 0.0
H874 H 0.25114 0.86143 0.65493 0.0
H875 H 0.29509 0.83383 0.67946 0.0
H876 H 0.36458 0.92728 0.69935 0.0
H877 H 0.37343 0.94442 0.7412 0.0
H878 H 0.34172 0.95894 0.7155 0.0
H879 H 0.30784 0.95183 0.76873 0.0
H880 H 0.33657 0.93274 0.79493 0.0
H881 H 0.30023 0.91392 0.7853 0.0
H882 H 0.33832 0.8133 0.71269 0.0
H883 H 0.38348 0.80197 0.74959 0.0
H884 H 0.38494 0.89683 0.78563 0.0
C885 C 0.2818 0.92049 0.70384 0.0
C886 C 0.26045 0.90495 0.68198 0.0
C887 C 0.26653 0.87394 0.67212 0.0
C888 C 0.29164 0.85792 0.6858 0.0
C889 C 0.31129 0.87337 0.70845 0.0
C890 C 0.30756 0.9042 0.71644 0.0
C891 C 0.33256 0.91486 0.74158 0.0
C892 C 0.35436 0.93773 0.72331 0.0
C893 C 0.31853 0.92914 0.77471 0.0
C894 C 0.34893 0.88444 0.74888 0.0
C895 C 0.33663 0.86115 0.72848 0.0
C896 C 0.34825 0.83125 0.72882 0.0
C897 C 0.37371 0.82499 0.74996 0.0
C898 C 0.38682 0.84824 0.77118 0.0
C899 C 0.37442 0.87844 0.77064 0.0
H900 H 0.61994 0.2119 0.83394 0.0
H901 H 0.54602 0.22605 0.7588 0.0
H902 H 0.55909 0.17692 0.73035 0.0
H903 H 0.67228 0.18724 0.78202 0.0
H904 H 0.68948 0.15465 0.80409 0.0
H905 H 0.6717 0.18517 0.82882 0.0
H906 H 0.63264 0.15213 0.85999 0.0
H907 H 0.65174 0.11894 0.84156 0.0
H908 H 0.61077 0.12375 0.83614 0.0
H909 H 0.58207 0.12898 0.70703 0.0
H910 H 0.61592 0.08632 0.68807 0.0
H911 H 0.67645 0.10363 0.77618 0.0
C912 C 0.60595 0.20429 0.8121 0.0
C913 C 0.5819 0.22293 0.79872 0.0
C914 C 0.56442 0.21221 0.76978 0.0
C915 C 0.57157 0.18422 0.75346 0.0
C916 C 0.59585 0.16684 0.76674 0.0
C917 C 0.61251 0.17612 0.79574 0.0
C918 C 0.63893 0.1541 0.80305 0.0
C919 C 0.66996 0.17121 0.80447 0.0
C920 C 0.63316 0.13616 0.83721 0.0
C921 C 0.63626 0.13287 0.77156 0.0
C922 C 0.61036 0.13984 0.75199 0.0
C923 C 0.60243 0.12329 0.72206 0.0
C924 C 0.62188 0.09938 0.7113 0.0
C925 C 0.64924 0.09282 0.72989 0.0
C926 C 0.656 0.10897 0.76109 0.0
H927 H 0.38259 0.67061 0.25327 0.0
H928 H 0.40852 0.60057 0.17798 0.0
H929 H 0.36689 0.56654 0.20022 0.0
H930 H 0.36514 0.61509 0.3234 0.0
H931 H 0.33413 0.63806 0.34086 0.0
H932 H 0.36627 0.65652 0.31956 0.0
H933 H 0.32927 0.6839 0.27446 0.0
H934 H 0.29826 0.66715 0.2993 0.0
H935 H 0.30045 0.66063 0.25295 0.0
H936 H 0.31908 0.54279 0.22721 0.0
H937 H 0.271 0.52989 0.25866 0.0
H938 H 0.27917 0.61464 0.3187 0.0
C939 C 0.37928 0.64814 0.24144 0.0
C940 C 0.39747 0.63856 0.21287 0.0
C941 C 0.39367 0.60864 0.19887 0.0
C942 C 0.37041 0.58912 0.21161 0.0
C943 C 0.35192 0.59972 0.23899 0.0
C944 C 0.35642 0.62838 0.25406 0.0
C945 C 0.33393 0.63411 0.28363 0.0
C946 C 0.35089 0.63605 0.31895 0.0
C947 C 0.31439 0.66319 0.27713 0.0
C948 C 0.31474 0.60509 0.2813 0.0
C949 C 0.32569 0.58531 0.25579 0.0
C950 C 0.31057 0.55787 0.24764 0.0
C951 C 0.28326 0.55075 0.26566 0.0
C952 C 0.27125 0.57117 0.29128 0.0
C953 C 0.28771 0.59835 0.2995 0.0
H954 H 0.89753 0.39217 0.70274 0.0
H955 H 0.80887 0.39958 0.75444 0.0
H956 H 0.82148 0.35462 0.7913 0.0
H957 H 0.90917 0.30667 0.70498 0.0
H958 H 0.94905 0.31261 0.71466 0.0
H959 H 0.92827 0.34161 0.69052 0.0
H960 H 0.94917 0.37907 0.74013 0.0
H961 H 0.9648 0.34721 0.76479 0.0
H962 H 0.937 0.37259 0.78473 0.0
H963 H 0.84209 0.30958 0.82134 0.0
H964 H 0.86954 0.26465 0.84377 0.0
H965 H 0.94714 0.28536 0.77544 0.0
C966 C 0.88067 0.38367 0.72129 0.0
C967 C 0.85171 0.39834 0.72501 0.0
C968 C 0.83076 0.38798 0.75078 0.0
C969 C 0.83778 0.36262 0.77187 0.0
C970 C 0.86633 0.3485 0.76767 0.0
C971 C 0.88765 0.35853 0.74328 0.0
C972 C 0.91748 0.34018 0.74656 0.0
C973 C 0.92645 0.32443 0.71203 0.0
C974 C 0.94366 0.36101 0.75985 0.0
C975 C 0.90834 0.31668 0.77425 0.0
C976 C 0.87904 0.3227 0.78657 0.0
C977 C 0.86506 0.30453 0.81192 0.0
C978 C 0.881 0.27888 0.82443 0.0
C979 C 0.91057 0.27099 0.81118 0.0
C980 C 0.92463 0.29061 0.78612 0.0
H981 H 0.11983 0.81886 0.25724 0.0
H982 H 0.09077 0.89041 0.18528 0.0
H983 H 0.13296 0.92419 0.20633 0.0
H984 H 0.13897 0.87254 0.32784 0.0
H985 H 0.17096 0.84984 0.34335 0.0
H986 H 0.1386 0.8312 0.32272 0.0
H987 H 0.17478 0.80587 0.27488 0.0
H988 H 0.20594 0.8224 0.29968 0.0
H989 H 0.20279 0.83043 0.25372 0.0
H990 H 0.18104 0.94801 0.23197 0.0
H991 H 0.22924 0.96153 0.26283 0.0
H992 H 0.22426 0.87527 0.3206 0.0
C993 C 0.12262 0.84159 0.24587 0.0
C994 C 0.1033 0.85173 0.21856 0.0
C995 C 0.10646 0.88195 0.20516 0.0
C996 C 0.13006 0.90131 0.21721 0.0
C997 C 0.14962 0.89023 0.2433 0.0
C998 C 0.14589 0.86121 0.2578 0.0
C999 C 0.16937 0.85521 0.28629 0.0
C1000 C 0.15352 0.85202 0.32217 0.0
C1001 C 0.18932 0.82677 0.27809 0.0
C1002 C 0.18793 0.88464 0.28414 0.0
C1003 C 0.17605 0.90471 0.25948 0.0
C1004 C 0.19033 0.93268 0.25172 0.0
C1005 C 0.21771 0.94014 0.26937 0.0
C1006 C 0.23058 0.91954 0.29425 0.0
C1007 C 0.21506 0.89169 0.30194 0.0
H1008 H 0.39477 0.61451 0.70901 0.0
H1009 H 0.30591 0.60352 0.75939 0.0
H1010 H 0.31688 0.64805 0.79761 0.0
H1011 H 0.43252 0.63431 0.79313 0.0
H1012 H 0.45992 0.6605 0.77387 0.0
H1013 H 0.44578 0.62815 0.74889 0.0
H1014 H 0.42415 0.66495 0.69836 0.0
H1015 H 0.44454 0.69391 0.72293 0.0
H1016 H 0.40479 0.69975 0.71284 0.0
H1017 H 0.33527 0.69431 0.82759 0.0
H1018 H 0.36005 0.74148 0.84841 0.0
H1019 H 0.4392 0.72279 0.78173 0.0
C1020 C 0.37756 0.62207 0.72768 0.0
C1021 C 0.34897 0.6066 0.73056 0.0
C1022 C 0.32754 0.61573 0.75642 0.0
C1023 C 0.33364 0.64081 0.77829 0.0
C1024 C 0.36182 0.65579 0.77484 0.0
C1025 C 0.38365 0.64682 0.75048 0.0
C1026 C 0.4128 0.66607 0.75434 0.0
C1027 C 0.43932 0.64606 0.76839 0.0
C1028 C 0.42203 0.682 0.71997 0.0
C1029 C 0.40239 0.68929 0.78171 0.0
C1030 C 0.37331 0.68207 0.7939 0.0
C1031 C 0.35811 0.70021 0.81841 0.0
C1032 C 0.37248 0.72713 0.82997 0.0
C1033 C 0.40159 0.73624 0.81651 0.0
C1034 C 0.41705 0.71653 0.79265 0.0
H1035 H 0.87876 0.32389 0.26249 0.0
H1036 H 0.91047 0.39274 0.18859 0.0
H1037 H 0.87008 0.42879 0.20926 0.0
H1038 H 0.79654 0.33908 0.25916 0.0
H1039 H 0.79306 0.33218 0.30533 0.0
H1040 H 0.82348 0.31379 0.28102 0.0
H1041 H 0.86076 0.33849 0.32807 0.0
H1042 H 0.82925 0.35894 0.34825 0.0
H1043 H 0.86216 0.3799 0.33211 0.0
H1044 H 0.82329 0.45501 0.2341 0.0
H1045 H 0.77531 0.47094 0.2637 0.0
H1046 H 0.77653 0.38604 0.32428 0.0
C1047 C 0.87695 0.34654 0.25067 0.0
C1048 C 0.89648 0.35528 0.2229 0.0
C1049 C 0.8946 0.38538 0.20885 0.0
C1050 C 0.87204 0.40603 0.22068 0.0
C1051 C 0.85223 0.39636 0.24723 0.0
C1052 C 0.8547 0.36747 0.26239 0.0
C1053 C 0.831 0.36307 0.29107 0.0
C1054 C 0.80984 0.33536 0.28363 0.0
C1055 C 0.84674 0.35992 0.327 0.0
C1056 C 0.8137 0.39326 0.28819 0.0
C1057 C 0.82649 0.41229 0.26306 0.0
C1058 C 0.81332 0.44055 0.25425 0.0
C1059 C 0.78602 0.44936 0.27119 0.0
C1060 C 0.7721 0.42984 0.29647 0.0
C1061 C 0.78663 0.40173 0.30542 0.0
H1062 H 0.05821 0.78728 0.78962 0.0
H1063 H 0.14418 0.75712 0.8371 0.0
H1064 H 0.17063 0.8017 0.81207 0.0
H1065 H 0.08219 0.81147 0.71487 0.0
H1066 H 0.06444 0.84887 0.70831 0.0
H1067 H 0.04617 0.82017 0.73534 0.0
H1068 H 0.04449 0.8515 0.79072 0.0
H1069 H 0.05751 0.88395 0.76512 0.0
H1070 H 0.07775 0.87316 0.80452 0.0
H1071 H 0.1891 0.84666 0.77997 0.0
H1072 H 0.19841 0.8927 0.74361 0.0
H1073 H 0.10167 0.89565 0.71543 0.0
C1074 C 0.08246 0.79038 0.79523 0.0
C1075 C 0.09913 0.76812 0.81474 0.0
C1076 C 0.13081 0.77331 0.8218 0.0
C1077 C 0.14615 0.79877 0.80785 0.0
C1078 C 0.12941 0.81956 0.78778 0.0
C1079 C 0.09812 0.81641 0.78238 0.0
C1080 C 0.08601 0.84255 0.75965 0.0
C1081 C 0.06875 0.83011 0.72753 0.0
C1082 C 0.06521 0.86406 0.7813 0.0
C1083 C 0.11601 0.85872 0.75012 0.0
C1084 C 0.14045 0.84561 0.76799 0.0
C1085 C 0.17028 0.85714 0.7657 0.0
C1086 C 0.17537 0.88312 0.7449 0.0
C1087 C 0.15103 0.89673 0.72579 0.0
C1088 C 0.12084 0.88466 0.72864 0.0
H1089 H 0.61388 0.17153 0.26748 0.0
H1090 H 0.59681 0.11355 0.17714 0.0
H1091 H 0.63904 0.07867 0.19545 0.0
H1092 H 0.69733 0.16531 0.27181 0.0
H1093 H 0.69583 0.16497 0.31874 0.0
H1094 H 0.66569 0.18374 0.29437 0.0
H1095 H 0.62822 0.14784 0.33115 0.0
H1096 H 0.66031 0.12772 0.35056 0.0
H1097 H 0.63154 0.10659 0.32646 0.0
H1098 H 0.68614 0.05302 0.22087 0.0
H1099 H 0.73347 0.03764 0.25247 0.0
H1100 H 0.71798 0.11118 0.32767 0.0
C1101 C 0.61921 0.15149 0.25165 0.0
C1102 C 0.60322 0.14571 0.22018 0.0
C1103 C 0.60981 0.11883 0.20061 0.0
C1104 C 0.63347 0.09879 0.21101 0.0
C1105 C 0.64971 0.10567 0.24151 0.0
C1106 C 0.6427 0.13121 0.26177 0.0
C1107 C 0.66344 0.13315 0.2936 0.0
C1108 C 0.68156 0.16364 0.29461 0.0
C1109 C 0.64476 0.12854 0.32744 0.0
C1110 C 0.68446 0.10595 0.28678 0.0
C1111 C 0.67587 0.09004 0.25699 0.0
C1112 C 0.69285 0.06501 0.24454 0.0
C1113 C 0.71968 0.05642 0.26267 0.0
C1114 C 0.72942 0.07314 0.29257 0.0
C1115 C 0.71113 0.09781 0.305 0.0
H1116 H 0.4366 0.78134 0.21684 0.0
H1117 H 0.35464 0.75642 0.15766 0.0
H1118 H 0.32818 0.80221 0.17998 0.0
H1119 H 0.40372 0.8041 0.28915 0.0
H1120 H 0.42312 0.83968 0.3005 0.0
H1121 H 0.44265 0.81035 0.27553 0.0
H1122 H 0.45417 0.84311 0.22264 0.0
H1123 H 0.44018 0.87575 0.24724 0.0
H1124 H 0.42481 0.86767 0.20431 0.0
H1125 H 0.30977 0.84943 0.20836 0.0
H1126 H 0.29948 0.89555 0.24441 0.0
H1127 H 0.39105 0.88937 0.28918 0.0
C1128 C 0.41328 0.78579 0.20813 0.0
C1129 C 0.39779 0.765 0.18558 0.0
C1130 C 0.36719 0.77175 0.17493 0.0
C1131 C 0.35186 0.79785 0.18736 0.0
C1132 C 0.36747 0.81739 0.21006 0.0
C1133 C 0.39761 0.81213 0.21998 0.0
C1134 C 0.40839 0.83658 0.24571 0.0
C1135 C 0.4201 0.82189 0.27983 0.0
C1136 C 0.43336 0.85699 0.22897 0.0
C1137 C 0.37871 0.8547 0.25081 0.0
C1138 C 0.35593 0.84388 0.22868 0.0
C1139 C 0.32721 0.85798 0.22613 0.0
C1140 C 0.32153 0.88399 0.24672 0.0
C1141 C 0.34397 0.89489 0.27049 0.0
C1142 C 0.3731 0.88038 0.27234 0.0
H1143 H 0.72499 0.38348 0.67035 0.0
H1144 H 0.73961 0.45958 0.74249 0.0
H1145 H 0.69185 0.4455 0.77384 0.0
H1146 H 0.63868 0.3895 0.66968 0.0
H1147 H 0.63474 0.34821 0.6663 0.0
H1148 H 0.66752 0.36725 0.64698 0.0
H1149 H 0.70199 0.33047 0.68073 0.0
H1150 H 0.67114 0.31265 0.70486 0.0
H1151 H 0.70256 0.33107 0.72769 0.0
H1152 H 0.64392 0.42182 0.79881 0.0
H1153 H 0.60073 0.38845 0.81762 0.0
H1154 H 0.61895 0.32649 0.73102 0.0
C1155 C 0.71792 0.39759 0.69235 0.0
C1156 C 0.73606 0.42269 0.70392 0.0
C1157 C 0.72599 0.44042 0.73294 0.0
C1158 C 0.69888 0.43262 0.7509 0.0
C1159 C 0.68193 0.40735 0.73918 0.0
C1160 C 0.69085 0.39032 0.71032 0.0
C1161 C 0.6695 0.36323 0.7042 0.0
C1162 C 0.65155 0.3673 0.66975 0.0
C1163 C 0.68729 0.33252 0.70446 0.0
C1164 C 0.64833 0.36651 0.73552 0.0
C1165 C 0.65528 0.3927 0.75466 0.0
C1166 C 0.63842 0.40115 0.7842 0.0
C1167 C 0.61421 0.38198 0.79488 0.0
C1168 C 0.60769 0.35439 0.7766 0.0
C1169 C 0.62426 0.34706 0.74594 0.0
H1170 H 0.10958 0.60411 0.28909 0.0
H1171 H 0.19455 0.59336 0.23065 0.0
H1172 H 0.17995 0.63685 0.19237 0.0
H1173 H 0.06508 0.62133 0.20864 0.0
H1174 H 0.03889 0.64766 0.22978 0.0
H1175 H 0.05545 0.61613 0.25424 0.0
H1176 H 0.08103 0.65459 0.30124 0.0
H1177 H 0.0576 0.68218 0.27811 0.0
H1178 H 0.09788 0.68939 0.28304 0.0
H1179 H 0.1585 0.68238 0.16307 0.0
H1180 H 0.1316 0.729 0.14401 0.0
H1181 H 0.05802 0.71021 0.21842 0.0
C1182 C 0.12518 0.61145 0.26858 0.0
C1183 C 0.1537 0.59631 0.26338 0.0
C1184 C 0.17297 0.60525 0.23531 0.0
C1185 C 0.1648 0.62975 0.2134 0.0
C1186 C 0.13667 0.64434 0.21907 0.0
C1187 C 0.11692 0.63555 0.24569 0.0
C1188 C 0.08727 0.6543 0.24421 0.0
C1189 C 0.06006 0.63362 0.23358 0.0
C1190 C 0.08061 0.67097 0.27885 0.0
C1191 C 0.09508 0.67704 0.21523 0.0
C1192 C 0.12327 0.67004 0.20045 0.0
C1193 C 0.13631 0.68806 0.17427 0.0
C1194 C 0.12075 0.71469 0.16373 0.0
C1195 C 0.09265 0.72367 0.17987 0.0
C1196 C 0.07931 0.70403 0.2054 0.0
H1197 H 0.89087 0.17298 0.74322 0.0
H1198 H 0.9181 0.10524 0.82065 0.0
H1199 H 0.87683 0.07014 0.79997 0.0
H1200 H 0.80787 0.161 0.74426 0.0
H1201 H 0.80629 0.16716 0.69785 0.0
H1202 H 0.83658 0.18474 0.72309 0.0
H1203 H 0.87396 0.1573 0.67771 0.0
H1204 H 0.84217 0.13755 0.65724 0.0
H1205 H 0.87382 0.11577 0.67519 0.0
H1206 H 0.82939 0.04507 0.7744 0.0
H1207 H 0.78134 0.03053 0.744 0.0
H1208 H 0.78767 0.1136 0.68065 0.0
C1209 C 0.88789 0.15079 0.75584 0.0
C1210 C 0.9064 0.14216 0.78455 0.0
C1211 C 0.90302 0.11259 0.79963 0.0
C1212 C 0.87996 0.09247 0.78779 0.0
C1213 C 0.86118 0.1021 0.76023 0.0
C1214 C 0.86514 0.13043 0.74416 0.0
C1215 C 0.84236 0.13498 0.71457 0.0
C1216 C 0.82217 0.16371 0.72036 0.0
C1217 C 0.85908 0.13648 0.67908 0.0
C1218 C 0.82377 0.10563 0.71793 0.0
C1219 C 0.83516 0.08679 0.7441 0.0
C1220 C 0.82052 0.05939 0.75347 0.0
C1221 C 0.7932 0.05136 0.73605 0.0
C1222 C 0.78067 0.07082 0.70978 0.0
C1223 C 0.79667 0.09797 0.70028 0.0
H1224 H 0.55401 0.26452 0.08523 0.0
H1225 H 0.48704 0.1913 0.07411 0.0
H1226 H 0.47234 0.21193 0.01556 0.0
H1227 H 0.51029 0.32575 0.03477 0.0
H1228 H 0.54577 0.34032 0.01664 0.0
H1229 H 0.54533 0.32386 0.06005 0.0
H1230 H 0.58848 0.28571 0.04185 0.0
H1231 H 0.58897 0.30185 0.99859 0.0
H1232 H 0.58265 0.26107 0.00436 0.0
H1233 H 0.47282 0.23536 0.95371 0.0
H1234 H 0.48867 0.25802 0.89669 0.0
H1235 H 0.55515 0.31538 0.9506 0.0
C1236 C 0.53547 0.2535 0.07092 0.0
C1237 C 0.52147 0.22656 0.0839 0.0
C1238 C 0.49763 0.2123 0.06457 0.0
C1239 C 0.48923 0.22388 0.03138 0.0
C1240 C 0.5045 0.24999 0.01858 0.0
C1241 C 0.52682 0.26484 0.03823 0.0
C1242 C 0.54271 0.28994 0.01765 0.0
C1243 C 0.53558 0.32186 0.03321 0.0
C1244 C 0.57774 0.28426 0.01548 0.0
C1245 C 0.52731 0.28581 0.98253 0.0
C1246 C 0.50479 0.26325 0.98349 0.0
C1247 C 0.48986 0.25356 0.95294 0.0
C1248 C 0.49891 0.26657 0.92068 0.0
C1249 C 0.52302 0.28851 0.91939 0.0
C1250 C 0.53644 0.29888 0.95086 0.0
H1251 H 0.19202 0.56054 0.44855 0.0
H1252 H 0.23494 0.4806 0.40092 0.0
H1253 H 0.26082 0.46877 0.45744 0.0
H1254 H 0.25483 0.58581 0.49181 0.0
H1255 H 0.23476 0.59962 0.53009 0.0
H1256 H 0.21511 0.59771 0.48876 0.0
H1257 H 0.17262 0.56332 0.51623 0.0
H1258 H 0.19195 0.56545 0.55797 0.0
H1259 H 0.18327 0.52842 0.53891 0.0
H1260 H 0.28791 0.47091 0.51797 0.0
H1261 H 0.31213 0.48665 0.57438 0.0
H1262 H 0.25136 0.56587 0.57885 0.0
C1263 C 0.20616 0.53999 0.45018 0.0
C1264 C 0.21147 0.52145 0.42043 0.0
C1265 C 0.23028 0.4949 0.42359 0.0
C1266 C 0.24513 0.4881 0.45555 0.0
C1267 C 0.24047 0.50785 0.48404 0.0
C1268 C 0.22099 0.53303 0.48155 0.0
C1269 C 0.22191 0.55271 0.51412 0.0
C1270 C 0.23228 0.58589 0.50567 0.0
C1271 C 0.19058 0.55244 0.53292 0.0
C1272 C 0.24596 0.53558 0.53494 0.0
C1273 C 0.25614 0.5094 0.51779 0.0
C1274 C 0.27972 0.49113 0.53175 0.0
C1275 C 0.29337 0.50019 0.56371 0.0
C1276 C 0.28373 0.52757 0.58069 0.0
C1277 C 0.25936 0.54492 0.56631 0.0
H1278 H 0.95756 0.31811 0.04746 0.0
H1279 H 0.01467 0.25573 0.10792 0.0
H1280 H 0.03217 0.23083 0.05301 0.0
H1281 H 0.92869 0.26597 0.99355 0.0
H1282 H 0.92753 0.28948 0.95458 0.0
H1283 H 0.92631 0.3074 0.99689 0.0
H1284 H 0.9741 0.34047 0.98116 0.0
H1285 H 0.97534 0.32274 0.93842 0.0
H1286 H 0.00886 0.32185 0.96628 0.0
H1287 H 0.03358 0.20545 0.99319 0.0
H1288 H 0.01964 0.18365 0.93506 0.0
H1289 H 0.96193 0.26294 0.91467 0.0
C1290 C 0.97469 0.29999 0.04908 0.0
C1291 C 0.98482 0.28887 0.08185 0.0
C1292 C 0.00693 0.26488 0.08301 0.0
C1293 C 0.01695 0.25058 0.05192 0.0
C1294 C 0.00511 0.26103 0.02 0.0
C1295 C 0.98486 0.28566 0.01845 0.0
C1296 C 0.97206 0.29002 0.98195 0.0
C1297 C 0.93658 0.28807 0.98177 0.0
C1298 C 0.98328 0.32059 0.96601 0.0
C1299 C 0.98653 0.26276 0.96363 0.0
C1300 C 0.00615 0.24662 0.98559 0.0
C1301 C 0.0191 0.21846 0.97544 0.0
C1302 C 0.01118 0.20624 0.94246 0.0
C1303 C 0.99039 0.22217 0.92049 0.0
C1304 C 0.97864 0.25099 0.93083 0.0
H1305 H 0.24194 0.94503 0.41223 0.0
H1306 H 0.31164 0.01507 0.42784 0.0
H1307 H 0.28608 0.0306 0.48355 0.0
H1308 H 0.17605 0.98862 0.45257 0.0
H1309 H 0.16048 0.95359 0.47086 0.0
H1310 H 0.18112 0.9525 0.42986 0.0
H1311 H 0.2181 0.91121 0.45535 0.0
H1312 H 0.19769 0.91217 0.49622 0.0
H1313 H 0.2386 0.9193 0.49542 0.0
H1314 H 0.25741 0.03148 0.54242 0.0
H1315 H 0.22961 0.01772 0.59698 0.0
H1316 H 0.17822 0.94824 0.53994 0.0
C1317 C 0.25137 0.96419 0.42697 0.0
C1318 C 0.27866 0.97889 0.41608 0.0
C1319 C 0.29053 0.00377 0.43582 0.0
C1320 C 0.27613 0.01268 0.46738 0.0
C1321 C 0.24961 0.9969 0.47803 0.0
C1322 C 0.23716 0.97347 0.45793 0.0
C1323 C 0.21049 0.95789 0.4761 0.0
C1324 C 0.18024 0.9635 0.45616 0.0
C1325 C 0.21662 0.92311 0.48108 0.0
C1326 C 0.21079 0.97492 0.51057 0.0
C1327 C 0.23305 0.99776 0.51121 0.0
C1328 C 0.23947 0.01417 0.54186 0.0
C1329 C 0.2235 0.00628 0.57273 0.0
C1330 C 0.20172 0.98193 0.57267 0.0
C1331 C 0.19458 0.96709 0.54081 0.0
H1332 H 0.44375 0.82351 0.95601 0.0
H1333 H 0.51238 0.77291 0.8968 0.0
H1334 H 0.52855 0.74605 0.95103 0.0
H1335 H 0.48749 0.82691 0.04228 0.0
H1336 H 0.45213 0.82166 0.06632 0.0
H1337 H 0.4519 0.84225 0.02524 0.0
H1338 H 0.41011 0.80494 0.00167 0.0
H1339 H 0.41042 0.78412 0.04229 0.0
H1340 H 0.41752 0.764 0.00174 0.0
H1341 H 0.52938 0.71714 0.00918 0.0
H1342 H 0.51495 0.69044 0.06457 0.0
H1343 H 0.44527 0.75973 0.08389 0.0
C1344 C 0.46297 0.80761 0.95465 0.0
C1345 C 0.47683 0.80032 0.92225 0.0
C1346 C 0.50168 0.77914 0.92145 0.0
C1347 C 0.51098 0.76374 0.95215 0.0
C1348 C 0.49555 0.77022 0.98343 0.0
C1349 C 0.47238 0.79213 0.98486 0.0
C1350 C 0.4564 0.79216 0.02003 0.0
C1351 C 0.46235 0.82255 0.03963 0.0
C1352 C 0.42159 0.78591 0.01616 0.0
C1353 C 0.47277 0.76557 0.0375 0.0
C1354 C 0.49586 0.75357 0.01654 0.0
C1355 C 0.51193 0.72688 0.02616 0.0
C1356 C 0.50368 0.71186 0.05754 0.0
C1357 C 0.47934 0.72344 0.07828 0.0
C1358 C 0.46434 0.7509 0.06853 0.0
H1359 H 0.74746 0.44752 0.58096 0.0
H1360 H 0.81695 0.51853 0.5706 0.0
H1361 H 0.79313 0.53533 0.51441 0.0
H1362 H 0.74655 0.42409 0.49682 0.0
H1363 H 0.70571 0.41691 0.49432 0.0
H1364 H 0.72498 0.41488 0.53583 0.0
H1365 H 0.68712 0.45539 0.56135 0.0
H1366 H 0.66768 0.45758 0.51966 0.0
H1367 H 0.68262 0.4921 0.53974 0.0
H1368 H 0.76645 0.53752 0.45435 0.0
H1369 H 0.74042 0.52488 0.39824 0.0
H1370 H 0.68762 0.454 0.45122 0.0
C1371 C 0.7572 0.46711 0.56724 0.0
C1372 C 0.78396 0.48173 0.57972 0.0
C1373 C 0.79624 0.50724 0.56133 0.0
C1374 C 0.78282 0.5169 0.52953 0.0
C1375 C 0.75678 0.50127 0.5173 0.0
C1376 C 0.74388 0.47721 0.5361 0.0
C1377 C 0.71781 0.46209 0.51643 0.0
C1378 C 0.72418 0.42748 0.51049 0.0
C1379 C 0.68698 0.46711 0.53543 0.0
C1380 C 0.71908 0.48008 0.48263 0.0
C1381 C 0.74122 0.503 0.48357 0.0
C1382 C 0.74854 0.52017 0.45367 0.0
C1383 C 0.73359 0.51294 0.42194 0.0
C1384 C 0.71199 0.48852 0.42048 0.0
C1385 C 0.70389 0.47294 0.45157 0.0
H1386 H 0.03823 0.81867 0.04366 0.0
H1387 H 0.98429 0.7535 0.10397 0.0
H1388 H 0.96819 0.72775 0.04909 0.0
H1389 H 0.98724 0.81864 0.96107 0.0
H1390 H 0.02112 0.82124 0.9339 0.0
H1391 H 0.02045 0.8397 0.97626 0.0
H1392 H 0.07005 0.81011 0.99359 0.0
H1393 H 0.0707 0.79139 0.95175 0.0
H1394 H 0.07041 0.76856 0.99125 0.0
H1395 H 0.96927 0.70163 0.99006 0.0
H1396 H 0.98618 0.67938 0.93322 0.0
H1397 H 0.03938 0.76159 0.91216 0.0
C1398 C 0.02191 0.79982 0.04518 0.0
C1399 C 0.01241 0.7881 0.07791 0.0
C1400 C 0.99146 0.76312 0.07906 0.0
C1401 C 0.98225 0.74833 0.04798 0.0
C1402 C 0.9937 0.75927 0.01609 0.0
C1403 C 0.0126 0.78495 0.01453 0.0
C1404 C 0.02576 0.78953 0.97821 0.0
C1405 C 0.01286 0.81903 0.96136 0.0
C1406 C 0.0613 0.78988 0.97878 0.0
C1407 C 0.01339 0.7611 0.96021 0.0
C1408 C 0.99419 0.74428 0.98201 0.0
C1409 C 0.98334 0.71512 0.97236 0.0
C1410 C 0.99297 0.70263 0.94013 0.0
C1411 C 0.0134 0.71928 0.91842 0.0
C1412 C 0.02297 0.74904 0.92813 0.0
H1413 H 0.69471 0.05175 0.55412 0.0
H1414 H 0.74571 0.97788 0.60401 0.0
H1415 H 0.76852 0.96395 0.54639 0.0
H1416 H 0.68242 0.01345 0.46719 0.0
H1417 H 0.68748 0.0497 0.44476 0.0
H1418 H 0.6708 0.04891 0.48803 0.0
H1419 H 0.71237 0.08749 0.50943 0.0
H1420 H 0.72934 0.08816 0.46656 0.0
H1421 H 0.75253 0.07798 0.50401 0.0
H1422 H 0.79187 0.96423 0.484 0.0
H1423 H 0.81256 0.97887 0.42543 0.0
H1424 H 0.74616 0.05327 0.41961 0.0
C1425 C 0.70994 0.032 0.55286 0.0
C1426 C 0.71841 0.01585 0.58345 0.0
C1427 C 0.73863 0.99032 0.58074 0.0
C1428 C 0.75172 0.98233 0.54814 0.0
C1429 C 0.74387 0.99981 0.51864 0.0
C1430 C 0.72303 0.02387 0.52087 0.0
C1431 C 0.7207 0.04157 0.48692 0.0
C1432 C 0.68843 0.03819 0.47077 0.0
C1433 C 0.72927 0.07579 0.49207 0.0
C1434 C 0.74456 0.02477 0.46551 0.0
C1435 C 0.75737 1.0003 0.48366 0.0
C1436 C 0.78155 0.983 0.46943 0.0
C1437 C 0.79316 0.99139 0.43622 0.0
C1438 C 0.78092 0.0172 0.41828 0.0
C1439 C 0.75592 0.03342 0.43286 0.0
loop_
_geom_bond_atom_site_label_1
_geom_bond_atom_site_label_2
_geom_bond_distance
_geom_bond_site_symmetry_2
_ccdc_geom_bond_type
Mn0 O5 2.095 . S
Mn0 O15 2.162 . S
Mn0 O16 2.297 . S
Mn0 O24 2.385 . S
Mn0 O25 2.209 . S
Mn0 O26 2.094 . S
Mn1 O6 2.121 . S
Mn1 N8 2.257 . S
Mn1 N17 2.282 . S
Mn1 O25 2.215 . S
Mn1 O27 2.117 . S
C2 O24 1.234 . S
C2 O25 1.283 . S
C3 O15 1.281 . S
C3 O16 1.236 . S
C4 O26 1.240 . S
C4 O27 1.264 . S
O5 Mn0 2.095 . S
O5 C14 1.250 . S
O6 Mn1 2.121 . S
O6 C14 1.258 . S
C7 N8 1.326 . S
C7 C11 1.460 . S
C7 H13 0.929 . S
N8 Mn1 2.257 . S
N8 C7 1.326 . S
N8 C12 1.362 . S
C9 C10 1.258 . S
C9 C12 1.431 . S
C9 C29 1.449 . S
C10 C9 1.258 . S
C10 C11 1.477 . S
C10 H30 0.931 . S
C11 C7 1.460 . S
C11 C10 1.477 . S
C11 H31 0.930 . S
C12 N8 1.362 . S
C12 C9 1.431 . S
C12 C22 1.476 . S
H13 C7 0.929 . S
C14 O5 1.250 . S
C14 O6 1.258 . S
O15 Mn0 2.162 . S
O15 C3 1.281 . S
O16 Mn0 2.297 . S
O16 C3 1.236 . S
N17 Mn1 2.282 . S
N17 C18 1.328 . S
N17 C22 1.318 . S
C18 N17 1.328 . S
C18 C19 1.457 . S
C18 H23 0.929 . S
C19 C18 1.457 . S
C19 C20 1.291 . S
C19 H32 0.931 . S
C20 C19 1.291 . S
C20 C21 1.373 . S
C20 H33 0.929 . S
C21 C20 1.373 . S
C21 C22 1.396 . S
C21 C28 1.403 . S
C22 C12 1.476 . S
C22 N17 1.318 . S
C22 C21 1.396 . S
H23 C18 0.929 . S
O24 Mn0 2.385 . S
O24 C2 1.234 . S
O25 Mn0 2.209 . S
O25 Mn1 2.215 . S
O25 C2 1.283 . S
O26 Mn0 2.094 . S
O26 C4 1.240 . S
O27 Mn1 2.117 . S
O27 C4 1.264 . S
C28 C21 1.403 . S
C28 C29 1.399 . S
C28 H34 0.929 . S
C29 C9 1.449 . S
C29 C28 1.399 . S
C29 H35 0.930 . S
H30 C10 0.931 . S
H31 C11 0.930 . S
H32 C19 0.931 . S
H33 C20 0.929 . S
H34 C28 0.929 . S
H35 C29 0.930 . S
Mn36 O41 2.095 . S
Mn36 O51 2.162 . S
Mn36 O52 2.297 . S
Mn36 O60 2.385 . S
Mn36 O61 2.209 . S
Mn36 O62 2.094 . S
Mn37 O42 2.121 . S
Mn37 N44 2.257 . S
Mn37 N53 2.282 . S
Mn37 O61 2.215 . S
Mn37 O63 2.117 . S
C38 O60 1.234 . S
C38 O61 1.283 . S
C39 O51 1.281 . S
C39 O52 1.236 . S
C40 O62 1.240 . S
C40 O63 1.264 . S
O41 Mn36 2.095 . S
O41 C50 1.250 . S
O42 Mn37 2.121 . S
O42 C50 1.258 . S
C43 N44 1.326 . S
C43 C47 1.460 . S
C43 H49 0.929 . S
N44 Mn37 2.257 . S
N44 C43 1.326 . S
N44 C48 1.362 . S
C45 C46 1.258 . S
C45 C48 1.431 . S
C45 C65 1.449 . S
C46 C45 1.258 . S
C46 C47 1.477 . S
C46 H66 0.931 . S
C47 C43 1.460 . S
C47 C46 1.477 . S
C47 H67 0.930 . S
C48 N44 1.362 . S
C48 C45 1.431 . S
C48 C58 1.476 . S
H49 C43 0.929 . S
C50 O41 1.250 . S
C50 O42 1.258 . S
O51 Mn36 2.162 . S
O51 C39 1.281 . S
O52 Mn36 2.297 . S
O52 C39 1.236 . S
N53 Mn37 2.282 . S
N53 C54 1.328 . S
N53 C58 1.318 . S
C54 N53 1.328 . S
C54 C55 1.457 . S
C54 H59 0.929 . S
C55 C54 1.457 . S
C55 C56 1.291 . S
C55 H68 0.931 . S
C56 C55 1.291 . S
C56 C57 1.373 . S
C56 H69 0.929 . S
C57 C56 1.373 . S
C57 C58 1.396 . S
C57 C64 1.403 . S
C58 C48 1.476 . S
C58 N53 1.318 . S
C58 C57 1.396 . S
H59 C54 0.929 . S
O60 Mn36 2.385 . S
O60 C38 1.234 . S
O61 Mn36 2.209 . S
O61 Mn37 2.215 . S
O61 C38 1.283 . S
O62 Mn36 2.094 . S
O62 C40 1.240 . S
O63 Mn37 2.117 . S
O63 C40 1.264 . S
C64 C57 1.403 . S
C64 C65 1.399 . S
C64 H70 0.929 . S
C65 C45 1.449 . S
C65 C64 1.399 . S
C65 H71 0.930 . S
H66 C46 0.931 . S
H67 C47 0.930 . S
H68 C55 0.931 . S
H69 C56 0.929 . S
H70 C64 0.929 . S
H71 C65 0.930 . S
Mn72 O77 2.095 . S
Mn72 O87 2.162 1_655 S
Mn72 O88 2.297 1_655 S
Mn72 O96 2.385 . S
Mn72 O97 2.209 . S
Mn72 O98 2.094 . S
Mn73 O78 2.121 . S
Mn73 N80 2.257 . S
Mn73 N89 2.282 . S
Mn73 O97 2.215 . S
Mn73 O99 2.117 . S
C74 O96 1.234 . S
C74 O97 1.283 . S
C75 O87 1.281 . S
C75 O88 1.236 . S
C76 O98 1.240 . S
C76 O99 1.264 . S
O77 Mn72 2.095 . S
O77 C86 1.250 . S
O78 Mn73 2.121 . S
O78 C86 1.258 . S
C79 N80 1.326 . S
C79 C83 1.460 . S
C79 H85 0.929 . S
N80 Mn73 2.257 . S
N80 C79 1.326 . S
N80 C84 1.362 . S
C81 C82 1.258 . S
C81 C84 1.431 . S
C81 C101 1.449 . S
C82 C81 1.258 . S
C82 C83 1.477 . S
C82 H102 0.931 . S
C83 C79 1.460 . S
C83 C82 1.477 . S
C83 H103 0.930 . S
C84 N80 1.362 . S
C84 C81 1.431 . S
C84 C94 1.476 . S
H85 C79 0.929 . S
C86 O77 1.250 . S
C86 O78 1.258 . S
O87 Mn72 2.162 1_455 S
O87 C75 1.281 . S
O88 Mn72 2.297 1_455 S
O88 C75 1.236 . S
N89 Mn73 2.282 . S
N89 C90 1.328 . S
N89 C94 1.318 . S
C90 N89 1.328 . S
C90 C91 1.457 . S
C90 H95 0.929 . S
C91 C90 1.457 . S
C91 C92 1.291 . S
C91 H104 0.931 . S
C92 C91 1.291 . S
C92 C93 1.373 . S
C92 H105 0.929 . S
C93 C92 1.373 . S
C93 C94 1.396 . S
C93 C100 1.403 . S
C94 C84 1.476 . S
C94 N89 1.318 . S
C94 C93 1.396 . S
H95 C90 0.929 . S
O96 Mn72 2.385 . S
O96 C74 1.234 . S
O97 Mn72 2.209 . S
O97 Mn73 2.215 . S
O97 C74 1.283 . S
O98 Mn72 2.094 . S
O98 C76 1.240 . S
O99 Mn73 2.117 . S
O99 C76 1.264 . S
C100 C93 1.403 . S
C100 C101 1.399 . S
C100 H106 0.929 . S
C101 C81 1.449 . S
C101 C100 1.399 . S
C101 H107 0.930 . S
H102 C82 0.931 . S
H103 C83 0.930 . S
H104 C91 0.931 . S
H105 C92 0.929 . S
H106 C100 0.929 . S
H107 C101 0.930 . S
Mn108 O113 2.095 . S
Mn108 O123 2.162 1_565 S
Mn108 O124 2.297 1_565 S
Mn108 O132 2.385 . S
Mn108 O133 2.209 . S
Mn108 O134 2.094 . S
Mn109 O114 2.121 . S
Mn109 N116 2.257 . S
Mn109 N125 2.282 . S
Mn109 O133 2.215 . S
Mn109 O135 2.117 . S
C110 O132 1.234 . S
C110 O133 1.283 . S
C111 O123 1.281 . S
C111 O124 1.236 . S
C112 O134 1.240 . S
C112 O135 1.264 . S
O113 Mn108 2.095 . S
O113 C122 1.250 . S
O114 Mn109 2.121 . S
O114 C122 1.258 . S
C115 N116 1.326 . S
C115 C119 1.460 . S
C115 H121 0.929 . S
N116 Mn109 2.257 . S
N116 C115 1.326 . S
N116 C120 1.362 . S
C117 C118 1.258 . S
C117 C120 1.431 . S
C117 C137 1.449 . S
C118 C117 1.258 . S
C118 C119 1.477 . S
C118 H138 0.931 . S
C119 C115 1.460 . S
C119 C118 1.477 . S
C119 H139 0.930 . S
C120 N116 1.362 . S
C120 C117 1.431 . S
C120 C130 1.476 . S
H121 C115 0.929 . S
C122 O113 1.250 . S
C122 O114 1.258 . S
O123 Mn108 2.162 1_545 S
O123 C111 1.281 . S
O124 Mn108 2.297 1_545 S
O124 C111 1.236 . S
N125 Mn109 2.282 . S
N125 C126 1.328 . S
N125 C130 1.318 . S
C126 N125 1.328 . S
C126 C127 1.457 . S
C126 H131 0.929 . S
C127 C126 1.457 . S
C127 C128 1.291 . S
C127 H140 0.931 . S
C128 C127 1.291 . S
C128 C129 1.373 . S
C128 H141 0.929 . S
C129 C128 1.373 . S
C129 C130 1.396 . S
C129 C136 1.403 . S
C130 C120 1.476 . S
C130 N125 1.318 . S
C130 C129 1.396 . S
H131 C126 0.929 . S
O132 Mn108 2.385 . S
O132 C110 1.234 . S
O133 Mn108 2.209 . S
O133 Mn109 2.215 . S
O133 C110 1.283 . S
O134 Mn108 2.094 . S
O134 C112 1.240 . S
O135 Mn109 2.117 . S
O135 C112 1.264 . S
C136 C129 1.403 . S
C136 C137 1.399 . S
C136 H142 0.929 . S
C137 C117 1.449 . S
C137 C136 1.399 . S
C137 H143 0.930 . S
H138 C118 0.931 . S
H139 C119 0.930 . S
H140 C127 0.931 . S
H141 C128 0.929 . S
H142 C136 0.929 . S
H143 C137 0.930 . S
Mn144 O149 2.095 . S
Mn144 O159 2.162 . S
Mn144 O160 2.297 . S
Mn144 O168 2.385 . S
Mn144 O169 2.209 . S
Mn144 O170 2.094 . S
Mn145 O150 2.121 . S
Mn145 N152 2.257 . S
Mn145 N161 2.282 . S
Mn145 O169 2.215 . S
Mn145 O171 2.117 . S
C146 O168 1.234 . S
C146 O169 1.283 . S
C147 O159 1.281 . S
C147 O160 1.236 . S
C148 O170 1.240 . S
C148 O171 1.264 . S
O149 Mn144 2.095 . S
O149 C158 1.250 . S
O150 Mn145 2.121 . S
O150 C158 1.258 . S
C151 N152 1.326 . S
C151 C155 1.460 . S
C151 H157 0.929 . S
N152 Mn145 2.257 . S
N152 C151 1.326 . S
N152 C156 1.362 . S
C153 C154 1.258 . S
C153 C156 1.431 . S
C153 C173 1.449 . S
C154 C153 1.258 . S
C154 C155 1.477 . S
C154 H174 0.931 . S
C155 C151 1.460 . S
C155 C154 1.477 . S
C155 H175 0.930 . S
C156 N152 1.362 . S
C156 C153 1.431 . S
C156 C166 1.476 . S
H157 C151 0.929 . S
C158 O149 1.250 . S
C158 O150 1.258 . S
O159 Mn144 2.162 . S
O159 C147 1.281 . S
O160 Mn144 2.297 . S
O160 C147 1.236 . S
N161 Mn145 2.282 . S
N161 C162 1.328 . S
N161 C166 1.318 . S
C162 N161 1.328 . S
C162 C163 1.457 . S
C162 H167 0.929 . S
C163 C162 1.457 . S
C163 C164 1.291 . S
C163 H176 0.931 . S
C164 C163 1.291 . S
C164 C165 1.373 . S
C164 H177 0.929 . S
C165 C164 1.373 . S
C165 C166 1.396 . S
C165 C172 1.403 . S
C166 C156 1.476 . S
C166 N161 1.318 . S
C166 C165 1.396 . S
H167 C162 0.929 . S
O168 Mn144 2.385 . S
O168 C146 1.234 . S
O169 Mn144 2.209 . S
O169 Mn145 2.215 . S
O169 C146 1.283 . S
O170 Mn144 2.094 . S
O170 C148 1.240 . S
O171 Mn145 2.117 . S
O171 C148 1.264 . S
C172 C165 1.403 . S
C172 C173 1.399 . S
C172 H178 0.929 . S
C173 C153 1.449 . S
C173 C172 1.399 . S
C173 H179 0.930 . S
H174 C154 0.931 . S
H175 C155 0.930 . S
H176 C163 0.931 . S
H177 C164 0.929 . S
H178 C172 0.929 . S
H179 C173 0.930 . S
Mn180 O185 2.095 . S
Mn180 O195 2.162 . S
Mn180 O196 2.297 . S
Mn180 O204 2.385 . S
Mn180 O205 2.209 . S
Mn180 O206 2.094 . S
Mn181 O186 2.121 . S
Mn181 N188 2.257 . S
Mn181 N197 2.282 . S
Mn181 O205 2.215 . S
Mn181 O207 2.117 . S
C182 O204 1.234 . S
C182 O205 1.283 . S
C183 O195 1.281 . S
C183 O196 1.236 . S
C184 O206 1.240 . S
C184 O207 1.264 . S
O185 Mn180 2.095 . S
O185 C194 1.250 . S
O186 Mn181 2.121 . S
O186 C194 1.258 . S
C187 N188 1.326 . S
C187 C191 1.460 . S
C187 H193 0.929 . S
N188 Mn181 2.257 . S
N188 C187 1.326 . S
N188 C192 1.362 . S
C189 C190 1.258 . S
C189 C192 1.431 . S
C189 C209 1.449 . S
C190 C189 1.258 . S
C190 C191 1.477 . S
C190 H210 0.931 . S
C191 C187 1.460 . S
C191 C190 1.477 . S
C191 H211 0.930 . S
C192 N188 1.362 . S
C192 C189 1.431 . S
C192 C202 1.476 . S
H193 C187 0.929 . S
C194 O185 1.250 . S
C194 O186 1.258 . S
O195 Mn180 2.162 . S
O195 C183 1.281 . S
O196 Mn180 2.297 . S
O196 C183 1.236 . S
N197 Mn181 2.282 . S
N197 C198 1.328 . S
N197 C202 1.318 . S
C198 N197 1.328 . S
C198 C199 1.457 . S
C198 H203 0.929 . S
C199 C198 1.457 . S
C199 C200 1.291 . S
C199 H212 0.931 . S
C200 C199 1.291 . S
C200 C201 1.373 . S
C200 H213 0.929 . S
C201 C200 1.373 . S
C201 C202 1.396 . S
C201 C208 1.403 . S
C202 C192 1.476 . S
C202 N197 1.318 . S
C202 C201 1.396 . S
H203 C198 0.929 . S
O204 Mn180 2.385 . S
O204 C182 1.234 . S
O205 Mn180 2.209 . S
O205 Mn181 2.215 . S
O205 C182 1.283 . S
O206 Mn180 2.094 . S
O206 C184 1.240 . S
O207 Mn181 2.117 . S
O207 C184 1.264 . S
C208 C201 1.403 . S
C208 C209 1.399 . S
C208 H214 0.929 . S
C209 C189 1.449 . S
C209 C208 1.399 . S
C209 H215 0.930 . S
H210 C190 0.931 . S
H211 C191 0.930 . S
H212 C199 0.931 . S
H213 C200 0.929 . S
H214 C208 0.929 . S
H215 C209 0.930 . S
Mn216 O221 2.095 . S
Mn216 O231 2.162 1_655 S
Mn216 O232 2.297 1_655 S
Mn216 O240 2.385 . S
Mn216 O241 2.209 . S
Mn216 O242 2.094 . S
Mn217 O222 2.121 . S
Mn217 N224 2.257 . S
Mn217 N233 2.282 . S
Mn217 O241 2.215 . S
Mn217 O243 2.117 . S
C218 O240 1.234 . S
C218 O241 1.283 . S
C219 O231 1.281 . S
C219 O232 1.236 . S
C220 O242 1.240 . S
C220 O243 1.264 . S
O221 Mn216 2.095 . S
O221 C230 1.250 . S
O222 Mn217 2.121 . S
O222 C230 1.258 . S
C223 N224 1.326 . S
C223 C227 1.460 . S
C223 H229 0.929 . S
N224 Mn217 2.257 . S
N224 C223 1.326 . S
N224 C228 1.362 . S
C225 C226 1.258 . S
C225 C228 1.431 . S
C225 C245 1.449 . S
C226 C225 1.258 . S
C226 C227 1.477 . S
C226 H246 0.931 . S
C227 C223 1.460 . S
C227 C226 1.477 . S
C227 H247 0.930 . S
C228 N224 1.362 . S
C228 C225 1.431 . S
C228 C238 1.476 . S
H229 C223 0.929 . S
C230 O221 1.250 . S
C230 O222 1.258 . S
O231 Mn216 2.162 1_455 S
O231 C219 1.281 . S
O232 Mn216 2.297 1_455 S
O232 C219 1.236 . S
N233 Mn217 2.282 . S
N233 C234 1.328 . S
N233 C238 1.318 . S
C234 N233 1.328 . S
C234 C235 1.457 . S
C234 H239 0.929 . S
C235 C234 1.457 . S
C235 C236 1.291 . S
C235 H248 0.931 . S
C236 C235 1.291 . S
C236 C237 1.373 . S
C236 H249 0.929 . S
C237 C236 1.373 . S
C237 C238 1.396 . S
C237 C244 1.403 . S
C238 C228 1.476 . S
C238 N233 1.318 . S
C238 C237 1.396 . S
H239 C234 0.929 . S
O240 Mn216 2.385 . S
O240 C218 1.234 . S
O241 Mn216 2.209 . S
O241 Mn217 2.215 . S
O241 C218 1.283 . S
O242 Mn216 2.094 . S
O242 C220 1.240 . S
O243 Mn217 2.117 . S
O243 C220 1.264 . S
C244 C237 1.403 . S
C244 C245 1.399 . S
C244 H250 0.929 . S
C245 C225 1.449 . S
C245 C244 1.399 . S
C245 H251 0.930 . S
H246 C226 0.931 . S
H247 C227 0.930 . S
H248 C235 0.931 . S
H249 C236 0.929 . S
H250 C244 0.929 . S
H251 C245 0.930 . S
Mn252 O257 2.095 . S
Mn252 O267 2.162 1_565 S
Mn252 O268 2.297 1_565 S
Mn252 O276 2.385 . S
Mn252 O277 2.209 . S
Mn252 O278 2.094 . S
Mn253 O258 2.121 . S
Mn253 N260 2.257 . S
Mn253 N269 2.282 . S
Mn253 O277 2.215 . S
Mn253 O279 2.117 . S
C254 O276 1.234 . S
C254 O277 1.283 . S
C255 O267 1.281 . S
C255 O268 1.236 . S
C256 O278 1.240 . S
C256 O279 1.264 . S
O257 Mn252 2.095 . S
O257 C266 1.250 . S
O258 Mn253 2.121 . S
O258 C266 1.258 . S
C259 N260 1.326 . S
C259 C263 1.460 . S
C259 H265 0.929 . S
N260 Mn253 2.257 . S
N260 C259 1.326 . S
N260 C264 1.362 . S
C261 C262 1.258 . S
C261 C264 1.431 . S
C261 C281 1.449 . S
C262 C261 1.258 . S
C262 C263 1.477 . S
C262 H282 0.931 . S
C263 C259 1.460 . S
C263 C262 1.477 . S
C263 H283 0.930 . S
C264 N260 1.362 . S
C264 C261 1.431 . S
C264 C274 1.476 . S
H265 C259 0.929 . S
C266 O257 1.250 . S
C266 O258 1.258 . S
O267 Mn252 2.162 1_545 S
O267 C255 1.281 . S
O268 Mn252 2.297 1_545 S
O268 C255 1.236 . S
N269 Mn253 2.282 . S
N269 C270 1.328 . S
N269 C274 1.318 . S
C270 N269 1.328 . S
C270 C271 1.457 . S
C270 H275 0.929 . S
C271 C270 1.457 . S
C271 C272 1.291 . S
C271 H284 0.931 . S
C272 C271 1.291 . S
C272 C273 1.373 . S
C272 H285 0.929 . S
C273 C272 1.373 . S
C273 C274 1.396 . S
C273 C280 1.403 . S
C274 C264 1.476 . S
C274 N269 1.318 . S
C274 C273 1.396 . S
H275 C270 0.929 . S
O276 Mn252 2.385 . S
O276 C254 1.234 . S
O277 Mn252 2.209 . S
O277 Mn253 2.215 . S
O277 C254 1.283 . S
O278 Mn252 2.094 . S
O278 C256 1.240 . S
O279 Mn253 2.117 . S
O279 C256 1.264 . S
C280 C273 1.403 . S
C280 C281 1.399 . S
C280 H286 0.929 . S
C281 C261 1.449 . S
C281 C280 1.399 . S
C281 H287 0.930 . S
H282 C262 0.931 . S
H283 C263 0.930 . S
H284 C271 0.931 . S
H285 C272 0.929 . S
H286 C280 0.929 . S
H287 C281 0.930 . S
Mn288 O293 2.095 . S
Mn288 O303 2.162 . S
Mn288 O304 2.297 . S
Mn288 O312 2.385 . S
Mn288 O313 2.209 . S
Mn288 O314 2.094 . S
Mn289 O294 2.121 . S
Mn289 N296 2.257 . S
Mn289 N305 2.282 . S
Mn289 O313 2.215 . S
Mn289 O315 2.117 . S
C290 O312 1.234 . S
C290 O313 1.283 . S
C291 O303 1.281 . S
C291 O304 1.236 . S
C292 O314 1.240 . S
C292 O315 1.264 . S
O293 Mn288 2.095 . S
O293 C302 1.250 . S
O294 Mn289 2.121 . S
O294 C302 1.258 . S
C295 N296 1.326 . S
C295 C299 1.460 . S
C295 H301 0.929 . S
N296 Mn289 2.257 . S
N296 C295 1.326 . S
N296 C300 1.362 . S
C297 C298 1.258 . S
C297 C300 1.431 . S
C297 C317 1.449 . S
C298 C297 1.258 . S
C298 C299 1.477 . S
C298 H318 0.931 . S
C299 C295 1.460 . S
C299 C298 1.477 . S
C299 H319 0.930 . S
C300 N296 1.362 . S
C300 C297 1.431 . S
C300 C310 1.476 . S
H301 C295 0.929 . S
C302 O293 1.250 . S
C302 O294 1.258 . S
O303 Mn288 2.162 . S
O303 C291 1.281 . S
O304 Mn288 2.297 . S
O304 C291 1.236 . S
N305 Mn289 2.282 . S
N305 C306 1.328 . S
N305 C310 1.318 . S
C306 N305 1.328 . S
C306 C307 1.457 . S
C306 H311 0.929 . S
C307 C306 1.457 . S
C307 C308 1.291 . S
C307 H320 0.931 . S
C308 C307 1.291 . S
C308 C309 1.373 . S
C308 H321 0.929 . S
C309 C308 1.373 . S
C309 C310 1.396 . S
C309 C316 1.403 . S
C310 C300 1.476 . S
C310 N305 1.318 . S
C310 C309 1.396 . S
H311 C306 0.929 . S
O312 Mn288 2.385 . S
O312 C290 1.234 . S
O313 Mn288 2.209 . S
O313 Mn289 2.215 . S
O313 C290 1.283 . S
O314 Mn288 2.094 . S
O314 C292 1.240 . S
O315 Mn289 2.117 . S
O315 C292 1.264 . S
C316 C309 1.403 . S
C316 C317 1.399 . S
C316 H322 0.929 . S
C317 C297 1.449 . S
C317 C316 1.399 . S
C317 H323 0.930 . S
H318 C298 0.931 . S
H319 C299 0.930 . S
H320 C307 0.931 . S
H321 C308 0.929 . S
H322 C316 0.929 . S
H323 C317 0.930 . S
Mn324 O329 2.095 . S
Mn324 O339 2.162 . S
Mn324 O340 2.297 . S
Mn324 O348 2.385 . S
Mn324 O349 2.209 . S
Mn324 O350 2.094 . S
Mn325 O330 2.121 . S
Mn325 N332 2.257 . S
Mn325 N341 2.282 . S
Mn325 O349 2.215 . S
Mn325 O351 2.117 . S
C326 O348 1.234 . S
C326 O349 1.283 . S
C327 O339 1.281 . S
C327 O340 1.236 . S
C328 O350 1.240 . S
C328 O351 1.264 . S
O329 Mn324 2.095 . S
O329 C338 1.250 . S
O330 Mn325 2.121 . S
O330 C338 1.258 . S
C331 N332 1.326 . S
C331 C335 1.460 . S
C331 H337 0.929 . S
N332 Mn325 2.257 . S
N332 C331 1.326 . S
N332 C336 1.362 . S
C333 C334 1.258 . S
C333 C336 1.431 . S
C333 C353 1.449 . S
C334 C333 1.258 . S
C334 C335 1.477 . S
C334 H354 0.931 . S
C335 C331 1.460 . S
C335 C334 1.477 . S
C335 H355 0.930 . S
C336 N332 1.362 . S
C336 C333 1.431 . S
C336 C346 1.476 . S
H337 C331 0.929 . S
C338 O329 1.250 . S
C338 O330 1.258 . S
O339 Mn324 2.162 . S
O339 C327 1.281 . S
O340 Mn324 2.297 . S
O340 C327 1.236 . S
N341 Mn325 2.282 . S
N341 C342 1.328 . S
N341 C346 1.318 . S
C342 N341 1.328 . S
C342 C343 1.457 . S
C342 H347 0.929 . S
C343 C342 1.457 . S
C343 C344 1.291 . S
C343 H356 0.931 . S
C344 C343 1.291 . S
C344 C345 1.373 . S
C344 H357 0.929 . S
C345 C344 1.373 . S
C345 C346 1.396 . S
C345 C352 1.403 . S
C346 C336 1.476 . S
C346 N341 1.318 . S
C346 C345 1.396 . S
H347 C342 0.929 . S
O348 Mn324 2.385 . S
O348 C326 1.234 . S
O349 Mn324 2.209 . S
O349 Mn325 2.215 . S
O349 C326 1.283 . S
O350 Mn324 2.094 . S
O350 C328 1.240 . S
O351 Mn325 2.117 . S
O351 C328 1.264 . S
C352 C345 1.403 . S
C352 C353 1.399 . S
C352 H358 0.929 . S
C353 C333 1.449 . S
C353 C352 1.399 . S
C353 H359 0.930 . S
H354 C334 0.931 . S
H355 C335 0.930 . S
H356 C343 0.931 . S
H357 C344 0.929 . S
H358 C352 0.929 . S
H359 C353 0.930 . S
Mn360 O365 2.095 . S
Mn360 O375 2.162 1_455 S
Mn360 O376 2.297 1_455 S
Mn360 O384 2.385 . S
Mn360 O385 2.209 . S
Mn360 O386 2.094 . S
Mn361 O366 2.121 . S
Mn361 N368 2.257 . S
Mn361 N377 2.282 . S
Mn361 O385 2.215 . S
Mn361 O387 2.117 . S
C362 O384 1.234 . S
C362 O385 1.283 . S
C363 O375 1.281 . S
C363 O376 1.236 . S
C364 O386 1.240 . S
C364 O387 1.264 . S
O365 Mn360 2.095 . S
O365 C374 1.250 . S
O366 Mn361 2.121 . S
O366 C374 1.258 . S
C367 N368 1.326 . S
C367 C371 1.460 . S
C367 H373 0.929 . S
N368 Mn361 2.257 . S
N368 C367 1.326 . S
N368 C372 1.362 . S
C369 C370 1.258 . S
C369 C372 1.431 . S
C369 C389 1.449 . S
C370 C369 1.258 . S
C370 C371 1.477 . S
C370 H390 0.931 . S
C371 C367 1.460 . S
C371 C370 1.477 . S
C371 H391 0.930 . S
C372 N368 1.362 . S
C372 C369 1.431 . S
C372 C382 1.476 . S
H373 C367 0.929 . S
C374 O365 1.250 . S
C374 O366 1.258 . S
O375 Mn360 2.162 1_655 S
O375 C363 1.281 . S
O376 Mn360 2.297 1_655 S
O376 C363 1.236 . S
N377 Mn361 2.282 . S
N377 C378 1.328 . S
N377 C382 1.318 . S
C378 N377 1.328 . S
C378 C379 1.457 . S
C378 H383 0.929 . S
C379 C378 1.457 . S
C379 C380 1.291 . S
C379 H392 0.931 . S
C380 C379 1.291 . S
C380 C381 1.373 . S
C380 H393 0.929 . S
C381 C380 1.373 . S
C381 C382 1.396 . S
C381 C388 1.403 . S
C382 C372 1.476 . S
C382 N377 1.318 . S
C382 C381 1.396 . S
H383 C378 0.929 . S
O384 Mn360 2.385 . S
O384 C362 1.234 . S
O385 Mn360 2.209 . S
O385 Mn361 2.215 . S
O385 C362 1.283 . S
O386 Mn360 2.094 . S
O386 C364 1.240 . S
O387 Mn361 2.117 . S
O387 C364 1.264 . S
C388 C381 1.403 . S
C388 C389 1.399 . S
C388 H394 0.929 . S
C389 C369 1.449 . S
C389 C388 1.399 . S
C389 H395 0.930 . S
H390 C370 0.931 . S
H391 C371 0.930 . S
H392 C379 0.931 . S
H393 C380 0.929 . S
H394 C388 0.929 . S
H395 C389 0.930 . S
Mn396 O401 2.095 . S
Mn396 O411 2.162 1_545 S
Mn396 O412 2.297 1_545 S
Mn396 O420 2.385 . S
Mn396 O421 2.209 . S
Mn396 O422 2.094 . S
Mn397 O402 2.121 . S
Mn397 N404 2.257 . S
Mn397 N413 2.282 . S
Mn397 O421 2.215 . S
Mn397 O423 2.117 . S
C398 O420 1.234 . S
C398 O421 1.283 . S
C399 O411 1.281 . S
C399 O412 1.236 . S
C400 O422 1.240 . S
C400 O423 1.264 . S
O401 Mn396 2.095 . S
O401 C410 1.250 . S
O402 Mn397 2.121 . S
O402 C410 1.258 . S
C403 N404 1.326 . S
C403 C407 1.460 . S
C403 H409 0.929 . S
N404 Mn397 2.257 . S
N404 C403 1.326 . S
N404 C408 1.362 . S
C405 C406 1.258 . S
C405 C408 1.431 . S
C405 C425 1.449 . S
C406 C405 1.258 . S
C406 C407 1.477 . S
C406 H426 0.931 . S
C407 C403 1.460 . S
C407 C406 1.477 . S
C407 H427 0.930 . S
C408 N404 1.362 . S
C408 C405 1.431 . S
C408 C418 1.476 . S
H409 C403 0.929 . S
C410 O401 1.250 . S
C410 O402 1.258 . S
O411 Mn396 2.162 1_565 S
O411 C399 1.281 . S
O412 Mn396 2.297 1_565 S
O412 C399 1.236 . S
N413 Mn397 2.282 . S
N413 C414 1.328 . S
N413 C418 1.318 . S
C414 N413 1.328 . S
C414 C415 1.457 . S
C414 H419 0.929 . S
C415 C414 1.457 . S
C415 C416 1.291 . S
C415 H428 0.931 . S
C416 C415 1.291 . S
C416 C417 1.373 . S
C416 H429 0.929 . S
C417 C416 1.373 . S
C417 C418 1.396 . S
C417 C424 1.403 . S
C418 C408 1.476 . S
C418 N413 1.318 . S
C418 C417 1.396 . S
H419 C414 0.929 . S
O420 Mn396 2.385 . S
O420 C398 1.234 . S
O421 Mn396 2.209 . S
O421 Mn397 2.215 . S
O421 C398 1.283 . S
O422 Mn396 2.094 . S
O422 C400 1.240 . S
O423 Mn397 2.117 . S
O423 C400 1.264 . S
C424 C417 1.403 . S
C424 C425 1.399 . S
C424 H430 0.929 . S
C425 C405 1.449 . S
C425 C424 1.399 . S
C425 H431 0.930 . S
H426 C406 0.931 . S
H427 C407 0.930 . S
H428 C415 0.931 . S
H429 C416 0.929 . S
H430 C424 0.929 . S
H431 C425 0.930 . S
Mn432 O437 2.095 . S
Mn432 O447 2.162 . S
Mn432 O448 2.297 . S
Mn432 O456 2.385 . S
Mn432 O457 2.209 . S
Mn432 O458 2.094 . S
Mn433 O438 2.121 . S
Mn433 N440 2.257 . S
Mn433 N449 2.282 . S
Mn433 O457 2.215 . S
Mn433 O459 2.117 . S
C434 O456 1.234 . S
C434 O457 1.283 . S
C435 O447 1.281 . S
C435 O448 1.236 . S
C436 O458 1.240 . S
C436 O459 1.264 . S
O437 Mn432 2.095 . S
O437 C446 1.250 . S
O438 Mn433 2.121 . S
O438 C446 1.258 . S
C439 N440 1.326 . S
C439 C443 1.460 . S
C439 H445 0.929 . S
N440 Mn433 2.257 . S
N440 C439 1.326 . S
N440 C444 1.362 . S
C441 C442 1.258 . S
C441 C444 1.431 . S
C441 C461 1.449 . S
C442 C441 1.258 . S
C442 C443 1.477 . S
C442 H462 0.931 . S
C443 C439 1.460 . S
C443 C442 1.477 . S
C443 H463 0.930 . S
C444 N440 1.362 . S
C444 C441 1.431 . S
C444 C454 1.476 . S
H445 C439 0.929 . S
C446 O437 1.250 . S
C446 O438 1.258 . S
O447 Mn432 2.162 . S
O447 C435 1.281 . S
O448 Mn432 2.297 . S
O448 C435 1.236 . S
N449 Mn433 2.282 . S
N449 C450 1.328 . S
N449 C454 1.318 . S
C450 N449 1.328 . S
C450 C451 1.457 . S
C450 H455 0.929 . S
C451 C450 1.457 . S
C451 C452 1.291 . S
C451 H464 0.931 . S
C452 C451 1.291 . S
C452 C453 1.373 . S
C452 H465 0.929 . S
C453 C452 1.373 . S
C453 C454 1.396 . S
C453 C460 1.403 . S
C454 C444 1.476 . S
C454 N449 1.318 . S
C454 C453 1.396 . S
H455 C450 0.929 . S
O456 Mn432 2.385 . S
O456 C434 1.234 . S
O457 Mn432 2.209 . S
O457 Mn433 2.215 . S
O457 C434 1.283 . S
O458 Mn432 2.094 . S
O458 C436 1.240 . S
O459 Mn433 2.117 . S
O459 C436 1.264 . S
C460 C453 1.403 . S
C460 C461 1.399 . S
C460 H466 0.929 . S
C461 C441 1.449 . S
C461 C460 1.399 . S
C461 H467 0.930 . S
H462 C442 0.931 . S
H463 C443 0.930 . S
H464 C451 0.931 . S
H465 C452 0.929 . S
H466 C460 0.929 . S
H467 C461 0.930 . S
Mn468 O473 2.095 . S
Mn468 O483 2.162 . S
Mn468 O484 2.297 . S
Mn468 O492 2.385 . S
Mn468 O493 2.209 . S
Mn468 O494 2.094 . S
Mn469 O474 2.121 . S
Mn469 N476 2.257 . S
Mn469 N485 2.282 . S
Mn469 O493 2.215 . S
Mn469 O495 2.117 . S
C470 O492 1.234 . S
C470 O493 1.283 . S
C471 O483 1.281 . S
C471 O484 1.236 . S
C472 O494 1.240 . S
C472 O495 1.264 . S
O473 Mn468 2.095 . S
O473 C482 1.250 . S
O474 Mn469 2.121 . S
O474 C482 1.258 . S
C475 N476 1.326 . S
C475 C479 1.460 . S
C475 H481 0.929 . S
N476 Mn469 2.257 . S
N476 C475 1.326 . S
N476 C480 1.362 . S
C477 C478 1.258 . S
C477 C480 1.431 . S
C477 C497 1.449 . S
C478 C477 1.258 . S
C478 C479 1.477 . S
C478 H498 0.931 . S
C479 C475 1.460 . S
C479 C478 1.477 . S
C479 H499 0.930 . S
C480 N476 1.362 . S
C480 C477 1.431 . S
C480 C490 1.476 . S
H481 C475 0.929 . S
C482 O473 1.250 . S
C482 O474 1.258 . S
O483 Mn468 2.162 . S
O483 C471 1.281 . S
O484 Mn468 2.297 . S
O484 C471 1.236 . S
N485 Mn469 2.282 . S
N485 C486 1.328 . S
N485 C490 1.318 . S
C486 N485 1.328 . S
C486 C487 1.457 . S
C486 H491 0.929 . S
C487 C486 1.457 . S
C487 C488 1.291 . S
C487 H500 0.931 . S
C488 C487 1.291 . S
C488 C489 1.373 . S
C488 H501 0.929 . S
C489 C488 1.373 . S
C489 C490 1.396 . S
C489 C496 1.403 . S
C490 C480 1.476 . S
C490 N485 1.318 . S
C490 C489 1.396 . S
H491 C486 0.929 . S
O492 Mn468 2.385 . S
O492 C470 1.234 . S
O493 Mn468 2.209 . S
O493 Mn469 2.215 . S
O493 C470 1.283 . S
O494 Mn468 2.094 . S
O494 C472 1.240 . S
O495 Mn469 2.117 . S
O495 C472 1.264 . S
C496 C489 1.403 . S
C496 C497 1.399 . S
C496 H502 0.929 . S
C497 C477 1.449 . S
C497 C496 1.399 . S
C497 H503 0.930 . S
H498 C478 0.931 . S
H499 C479 0.930 . S
H500 C487 0.931 . S
H501 C488 0.929 . S
H502 C496 0.929 . S
H503 C497 0.930 . S
Mn504 O509 2.095 . S
Mn504 O519 2.162 1_455 S
Mn504 O520 2.297 1_455 S
Mn504 O528 2.385 . S
Mn504 O529 2.209 . S
Mn504 O530 2.094 . S
Mn505 O510 2.121 . S
Mn505 N512 2.257 . S
Mn505 N521 2.282 . S
Mn505 O529 2.215 . S
Mn505 O531 2.117 . S
C506 O528 1.234 . S
C506 O529 1.283 . S
C507 O519 1.281 . S
C507 O520 1.236 . S
C508 O530 1.240 . S
C508 O531 1.264 . S
O509 Mn504 2.095 . S
O509 C518 1.250 . S
O510 Mn505 2.121 . S
O510 C518 1.258 . S
C511 N512 1.326 . S
C511 C515 1.460 . S
C511 H517 0.929 . S
N512 Mn505 2.257 . S
N512 C511 1.326 . S
N512 C516 1.362 . S
C513 C514 1.258 . S
C513 C516 1.431 . S
C513 C533 1.449 . S
C514 C513 1.258 . S
C514 C515 1.477 . S
C514 H534 0.931 . S
C515 C511 1.460 . S
C515 C514 1.477 . S
C515 H535 0.930 . S
C516 N512 1.362 . S
C516 C513 1.431 . S
C516 C526 1.476 . S
H517 C511 0.929 . S
C518 O509 1.250 . S
C518 O510 1.258 . S
O519 Mn504 2.162 1_655 S
O519 C507 1.281 . S
O520 Mn504 2.297 1_655 S
O520 C507 1.236 . S
N521 Mn505 2.282 . S
N521 C522 1.328 . S
N521 C526 1.318 . S
C522 N521 1.328 . S
C522 C523 1.457 . S
C522 H527 0.929 . S
C523 C522 1.457 . S
C523 C524 1.291 . S
C523 H536 0.931 . S
C524 C523 1.291 . S
C524 C525 1.373 . S
C524 H537 0.929 . S
C525 C524 1.373 . S
C525 C526 1.396 . S
C525 C532 1.403 . S
C526 C516 1.476 . S
C526 N521 1.318 . S
C526 C525 1.396 . S
H527 C522 0.929 . S
O528 Mn504 2.385 . S
O528 C506 1.234 . S
O529 Mn504 2.209 . S
O529 Mn505 2.215 . S
O529 C506 1.283 . S
O530 Mn504 2.094 . S
O530 C508 1.240 . S
O531 Mn505 2.117 . S
O531 C508 1.264 . S
C532 C525 1.403 . S
C532 C533 1.399 . S
C532 H538 0.929 . S
C533 C513 1.449 . S
C533 C532 1.399 . S
C533 H539 0.930 . S
H534 C514 0.931 . S
H535 C515 0.930 . S
H536 C523 0.931 . S
H537 C524 0.929 . S
H538 C532 0.929 . S
H539 C533 0.930 . S
Mn540 O545 2.095 . S
Mn540 O555 2.162 1_545 S
Mn540 O556 2.297 1_545 S
Mn540 O564 2.385 . S
Mn540 O565 2.209 . S
Mn540 O566 2.094 . S
Mn541 O546 2.121 . S
Mn541 N548 2.257 . S
Mn541 N557 2.282 . S
Mn541 O565 2.215 . S
Mn541 O567 2.117 . S
C542 O564 1.234 . S
C542 O565 1.283 . S
C543 O555 1.281 . S
C543 O556 1.236 . S
C544 O566 1.240 . S
C544 O567 1.264 . S
O545 Mn540 2.095 . S
O545 C554 1.250 . S
O546 Mn541 2.121 . S
O546 C554 1.258 . S
C547 N548 1.326 . S
C547 C551 1.460 . S
C547 H553 0.929 . S
N548 Mn541 2.257 . S
N548 C547 1.326 . S
N548 C552 1.362 . S
C549 C550 1.258 . S
C549 C552 1.431 . S
C549 C569 1.449 . S
C550 C549 1.258 . S
C550 C551 1.477 . S
C550 H570 0.931 . S
C551 C547 1.460 . S
C551 C550 1.477 . S
C551 H571 0.930 . S
C552 N548 1.362 . S
C552 C549 1.431 . S
C552 C562 1.476 . S
H553 C547 0.929 . S
C554 O545 1.250 . S
C554 O546 1.258 . S
O555 Mn540 2.162 1_565 S
O555 C543 1.281 . S
O556 Mn540 2.297 1_565 S
O556 C543 1.236 . S
N557 Mn541 2.282 . S
N557 C558 1.328 . S
N557 C562 1.318 . S
C558 N557 1.328 . S
C558 C559 1.457 . S
C558 H563 0.929 . S
C559 C558 1.457 . S
C559 C560 1.291 . S
C559 H572 0.931 . S
C560 C559 1.291 . S
C560 C561 1.373 . S
C560 H573 0.929 . S
C561 C560 1.373 . S
C561 C562 1.396 . S
C561 C568 1.403 . S
C562 C552 1.476 . S
C562 N557 1.318 . S
C562 C561 1.396 . S
H563 C558 0.929 . S
O564 Mn540 2.385 . S
O564 C542 1.234 . S
O565 Mn540 2.209 . S
O565 Mn541 2.215 . S
O565 C542 1.283 . S
O566 Mn540 2.094 . S
O566 C544 1.240 . S
O567 Mn541 2.117 . S
O567 C544 1.264 . S
C568 C561 1.403 . S
C568 C569 1.399 . S
C568 H574 0.929 . S
C569 C549 1.449 . S
C569 C568 1.399 . S
C569 H575 0.930 . S
H570 C550 0.931 . S
H571 C551 0.930 . S
H572 C559 0.931 . S
H573 C560 0.929 . S
H574 C568 0.929 . S
H575 C569 0.930 . S
H576 C588 0.930 . S
H577 C590 0.930 . S
H578 C591 0.930 . S
H579 C595 0.959 . S
H580 C595 0.959 . S
H581 C595 0.961 . S
H582 C596 0.960 . S
H583 C596 0.961 . S
H584 C596 0.959 . S
H585 C599 0.929 . S
H586 C600 0.931 . S
H587 C602 0.930 . S
C588 H576 0.930 . S
C588 C589 1.399 . S
C588 C593 1.399 . S
C589 C588 1.399 . S
C589 C590 1.376 . S
C590 H577 0.930 . S
C590 C589 1.376 . S
C590 C591 1.388 . S
C591 H578 0.930 . S
C591 C590 1.388 . S
C591 C592 1.390 . S
C592 C591 1.390 . S
C592 C593 1.394 . S
C592 C598 1.465 . S
C593 C588 1.399 . S
C593 C592 1.394 . S
C593 C594 1.516 . S
C594 C593 1.516 . S
C594 C595 1.502 . S
C594 C596 1.561 . S
C594 C597 1.526 . S
C595 H579 0.959 . S
C595 H580 0.959 . S
C595 H581 0.961 . S
C595 C594 1.502 . S
C596 H582 0.960 . S
C596 H583 0.961 . S
C596 H584 0.959 . S
C596 C594 1.561 . S
C597 C594 1.526 . S
C597 C598 1.396 . S
C597 C602 1.390 . S
C598 C592 1.465 . S
C598 C597 1.396 . S
C598 C599 1.399 . S
C599 H585 0.929 . S
C599 C598 1.399 . S
C599 C600 1.385 . S
C600 H586 0.931 . S
C600 C599 1.385 . S
C600 C601 1.389 . S
C601 C600 1.389 . S
C601 C602 1.387 . S
C602 H587 0.930 . S
C602 C597 1.390 . S
C602 C601 1.387 . S
H603 C615 0.930 . S
H604 C617 0.930 . S
H605 C618 0.930 . S
H606 C622 0.959 . S
H607 C622 0.959 . S
H608 C622 0.961 . S
H609 C623 0.960 . S
H610 C623 0.961 . S
H611 C623 0.959 . S
H612 C626 0.929 . S
H613 C627 0.931 . S
H614 C629 0.930 . S
C615 H603 0.930 . S
C615 C616 1.399 . S
C615 C620 1.399 . S
C616 C615 1.399 . S
C616 C617 1.376 . S
C617 H604 0.930 . S
C617 C616 1.376 . S
C617 C618 1.388 . S
C618 H605 0.930 . S
C618 C617 1.388 . S
C618 C619 1.390 . S
C619 C618 1.390 . S
C619 C620 1.394 . S
C619 C625 1.465 . S
C620 C615 1.399 . S
C620 C619 1.394 . S
C620 C621 1.516 . S
C621 C620 1.516 . S
C621 C622 1.502 . S
C621 C623 1.561 . S
C621 C624 1.526 . S
C622 H606 0.959 . S
C622 H607 0.959 . S
C622 H608 0.961 . S
C622 C621 1.502 . S
C623 H609 0.960 . S
C623 H610 0.961 . S
C623 H611 0.959 . S
C623 C621 1.561 . S
C624 C621 1.526 . S
C624 C625 1.396 . S
C624 C629 1.390 . S
C625 C619 1.465 . S
C625 C624 1.396 . S
C625 C626 1.399 . S
C626 H612 0.929 . S
C626 C625 1.399 . S
C626 C627 1.385 . S
C627 H613 0.931 . S
C627 C626 1.385 . S
C627 C628 1.389 . S
C628 C627 1.389 . S
C628 C629 1.387 . S
C629 H614 0.930 . S
C629 C624 1.390 . S
C629 C628 1.387 . S
H630 C642 0.930 . S
H631 C644 0.930 . S
H632 C645 0.930 . S
H633 C649 0.959 . S
H634 C649 0.959 . S
H635 C649 0.961 . S
H636 C650 0.960 . S
H637 C650 0.961 . S
H638 C650 0.959 . S
H639 C653 0.929 . S
H640 C654 0.931 . S
H641 C656 0.930 . S
C642 H630 0.930 . S
C642 C643 1.399 . S
C642 C647 1.399 . S
C643 C642 1.399 . S
C643 C644 1.376 . S
C644 H631 0.930 . S
C644 C643 1.376 . S
C644 C645 1.388 . S
C645 H632 0.930 . S
C645 C644 1.388 . S
C645 C646 1.390 . S
C646 C645 1.390 . S
C646 C647 1.394 . S
C646 C652 1.465 . S
C647 C642 1.399 . S
C647 C646 1.394 . S
C647 C648 1.516 . S
C648 C647 1.516 . S
C648 C649 1.502 . S
C648 C650 1.561 . S
C648 C651 1.526 . S
C649 H633 0.959 . S
C649 H634 0.959 . S
C649 H635 0.961 . S
C649 C648 1.502 . S
C650 H636 0.960 . S
C650 H637 0.961 . S
C650 H638 0.959 . S
C650 C648 1.561 . S
C651 C648 1.526 . S
C651 C652 1.396 . S
C651 C656 1.390 . S
C652 C646 1.465 . S
C652 C651 1.396 . S
C652 C653 1.399 . S
C653 H639 0.929 . S
C653 C652 1.399 . S
C653 C654 1.385 . S
C654 H640 0.931 . S
C654 C653 1.385 . S
C654 C655 1.389 . S
C655 C654 1.389 . S
C655 C656 1.387 . S
C656 H641 0.930 . S
C656 C651 1.390 . S
C656 C655 1.387 . S
H657 C669 0.930 . S
H658 C671 0.930 . S
H659 C672 0.930 . S
H660 C676 0.959 . S
H661 C676 0.959 . S
H662 C676 0.961 . S
H663 C677 0.960 . S
H664 C677 0.961 . S
H665 C677 0.959 . S
H666 C680 0.929 . S
H667 C681 0.931 . S
H668 C683 0.930 . S
C669 H657 0.930 . S
C669 C670 1.399 . S
C669 C674 1.399 . S
C670 C669 1.399 . S
C670 C671 1.376 . S
C671 H658 0.930 . S
C671 C670 1.376 . S
C671 C672 1.388 . S
C672 H659 0.930 . S
C672 C671 1.388 . S
C672 C673 1.390 . S
C673 C672 1.390 . S
C673 C674 1.394 . S
C673 C679 1.465 . S
C674 C669 1.399 . S
C674 C673 1.394 . S
C674 C675 1.516 . S
C675 C674 1.516 . S
C675 C676 1.502 . S
C675 C677 1.561 . S
C675 C678 1.526 . S
C676 H660 0.959 . S
C676 H661 0.959 . S
C676 H662 0.961 . S
C676 C675 1.502 . S
C677 H663 0.960 . S
C677 H664 0.961 . S
C677 H665 0.959 . S
C677 C675 1.561 . S
C678 C675 1.526 . S
C678 C679 1.396 . S
C678 C683 1.390 . S
C679 C673 1.465 . S
C679 C678 1.396 . S
C679 C680 1.399 . S
C680 H666 0.929 . S
C680 C679 1.399 . S
C680 C681 1.385 . S
C681 H667 0.931 . S
C681 C680 1.385 . S
C681 C682 1.389 . S
C682 C681 1.389 . S
C682 C683 1.387 . S
C683 H668 0.930 . S
C683 C678 1.390 . S
C683 C682 1.387 . S
H684 C696 0.930 . S
H685 C698 0.930 . S
H686 C699 0.930 . S
H687 C703 0.959 . S
H688 C703 0.959 . S
H689 C703 0.961 . S
H690 C704 0.960 . S
H691 C704 0.961 . S
H692 C704 0.959 . S
H693 C707 0.929 . S
H694 C708 0.931 . S
H695 C710 0.930 . S
C696 H684 0.930 . S
C696 C697 1.399 . S
C696 C701 1.399 . S
C697 C696 1.399 . S
C697 C698 1.376 . S
C698 H685 0.930 . S
C698 C697 1.376 . S
C698 C699 1.388 . S
C699 H686 0.930 . S
C699 C698 1.388 . S
C699 C700 1.390 . S
C700 C699 1.390 . S
C700 C701 1.394 . S
C700 C706 1.465 . S
C701 C696 1.399 . S
C701 C700 1.394 . S
C701 C702 1.516 . S
C702 C701 1.516 . S
C702 C703 1.502 . S
C702 C704 1.561 . S
C702 C705 1.526 . S
C703 H687 0.959 . S
C703 H688 0.959 . S
C703 H689 0.961 . S
C703 C702 1.502 . S
C704 H690 0.960 . S
C704 H691 0.961 . S
C704 H692 0.959 . S
C704 C702 1.561 . S
C705 C702 1.526 . S
C705 C706 1.396 . S
C705 C710 1.390 . S
C706 C700 1.465 . S
C706 C705 1.396 . S
C706 C707 1.399 . S
C707 H693 0.929 . S
C707 C706 1.399 . S
C707 C708 1.385 . S
C708 H694 0.931 . S
C708 C707 1.385 . S
C708 C709 1.389 . S
C709 C708 1.389 . S
C709 C710 1.387 . S
C710 H695 0.930 . S
C710 C705 1.390 . S
C710 C709 1.387 . S
H711 C723 0.930 . S
H712 C725 0.930 . S
H713 C726 0.930 . S
H714 C730 0.959 . S
H715 C730 0.959 . S
H716 C730 0.961 . S
H717 C731 0.960 . S
H718 C731 0.961 . S
H719 C731 0.959 . S
H720 C734 0.929 . S
H721 C735 0.931 . S
H722 C737 0.930 . S
C723 H711 0.930 . S
C723 C724 1.399 . S
C723 C728 1.399 . S
C724 C723 1.399 . S
C724 C725 1.376 . S
C725 H712 0.930 . S
C725 C724 1.376 . S
C725 C726 1.388 . S
C726 H713 0.930 . S
C726 C725 1.388 . S
C726 C727 1.390 . S
C727 C726 1.390 . S
C727 C728 1.394 . S
C727 C733 1.465 . S
C728 C723 1.399 . S
C728 C727 1.394 . S
C728 C729 1.516 . S
C729 C728 1.516 . S
C729 C730 1.502 . S
C729 C731 1.561 . S
C729 C732 1.526 . S
C730 H714 0.959 . S
C730 H715 0.959 . S
C730 H716 0.961 . S
C730 C729 1.502 . S
C731 H717 0.960 . S
C731 H718 0.961 . S
C731 H719 0.959 . S
C731 C729 1.561 . S
C732 C729 1.526 . S
C732 C733 1.396 . S
C732 C737 1.390 . S
C733 C727 1.465 . S
C733 C732 1.396 . S
C733 C734 1.399 . S
C734 H720 0.929 . S
C734 C733 1.399 . S
C734 C735 1.385 . S
C735 H721 0.931 . S
C735 C734 1.385 . S
C735 C736 1.389 . S
C736 C735 1.389 . S
C736 C737 1.387 . S
C737 H722 0.930 . S
C737 C732 1.390 . S
C737 C736 1.387 . S
H738 C750 0.930 . S
H739 C752 0.930 . S
H740 C753 0.930 . S
H741 C757 0.959 . S
H742 C757 0.959 . S
H743 C757 0.961 . S
H744 C758 0.960 . S
H745 C758 0.961 . S
H746 C758 0.959 . S
H747 C761 0.929 . S
H748 C762 0.931 . S
H749 C764 0.930 . S
C750 H738 0.930 . S
C750 C751 1.399 . S
C750 C755 1.399 . S
C751 C750 1.399 . S
C751 C752 1.376 . S
C752 H739 0.930 . S
C752 C751 1.376 . S
C752 C753 1.388 . S
C753 H740 0.930 . S
C753 C752 1.388 . S
C753 C754 1.390 . S
C754 C753 1.390 . S
C754 C755 1.394 . S
C754 C760 1.465 . S
C755 C750 1.399 . S
C755 C754 1.394 . S
C755 C756 1.516 . S
C756 C755 1.516 . S
C756 C757 1.502 . S
C756 C758 1.561 . S
C756 C759 1.526 . S
C757 H741 0.959 . S
C757 H742 0.959 . S
C757 H743 0.961 . S
C757 C756 1.502 . S
C758 H744 0.960 . S
C758 H745 0.961 . S
C758 H746 0.959 . S
C758 C756 1.561 . S
C759 C756 1.526 . S
C759 C760 1.396 . S
C759 C764 1.390 . S
C760 C754 1.465 . S
C760 C759 1.396 . S
C760 C761 1.399 . S
C761 H747 0.929 . S
C761 C760 1.399 . S
C761 C762 1.385 . S
C762 H748 0.931 . S
C762 C761 1.385 . S
C762 C763 1.389 . S
C763 C762 1.389 . S
C763 C764 1.387 . S
C764 H749 0.930 . S
C764 C759 1.390 . S
C764 C763 1.387 . S
H765 C777 0.930 . S
H766 C779 0.930 . S
H767 C780 0.930 . S
H768 C784 0.959 . S
H769 C784 0.959 . S
H770 C784 0.961 . S
H771 C785 0.960 . S
H772 C785 0.961 . S
H773 C785 0.959 . S
H774 C788 0.929 . S
H775 C789 0.931 . S
H776 C791 0.930 . S
C777 H765 0.930 . S
C777 C778 1.399 . S
C777 C782 1.399 . S
C778 C777 1.399 . S
C778 C779 1.376 . S
C779 H766 0.930 . S
C779 C778 1.376 . S
C779 C780 1.388 . S
C780 H767 0.930 . S
C780 C779 1.388 . S
C780 C781 1.390 . S
C781 C780 1.390 . S
C781 C782 1.394 . S
C781 C787 1.465 . S
C782 C777 1.399 . S
C782 C781 1.394 . S
C782 C783 1.516 . S
C783 C782 1.516 . S
C783 C784 1.502 . S
C783 C785 1.561 . S
C783 C786 1.526 . S
C784 H768 0.959 . S
C784 H769 0.959 . S
C784 H770 0.961 . S
C784 C783 1.502 . S
C785 H771 0.960 . S
C785 H772 0.961 . S
C785 H773 0.959 . S
C785 C783 1.561 . S
C786 C783 1.526 . S
C786 C787 1.396 . S
C786 C791 1.390 . S
C787 C781 1.465 . S
C787 C786 1.396 . S
C787 C788 1.399 . S
C788 H774 0.929 . S
C788 C787 1.399 . S
C788 C789 1.385 . S
C789 H775 0.931 . S
C789 C788 1.385 . S
C789 C790 1.389 . S
C790 C789 1.389 . S
C790 C791 1.387 . S
C791 H776 0.930 . S
C791 C786 1.390 . S
C791 C790 1.387 . S
H792 C804 0.930 . S
H793 C806 0.930 . S
H794 C807 0.930 . S
H795 C811 0.959 . S
H796 C811 0.959 . S
H797 C811 0.961 . S
H798 C812 0.960 . S
H799 C812 0.961 . S
H800 C812 0.959 . S
H801 C815 0.929 . S
H802 C816 0.931 . S
H803 C818 0.930 . S
C804 H792 0.930 . S
C804 C805 1.399 . S
C804 C809 1.399 . S
C805 C804 1.399 . S
C805 C806 1.376 . S
C806 H793 0.930 . S
C806 C805 1.376 . S
C806 C807 1.388 . S
C807 H794 0.930 . S
C807 C806 1.388 . S
C807 C808 1.390 . S
C808 C807 1.390 . S
C808 C809 1.394 . S
C808 C814 1.465 . S
C809 C804 1.399 . S
C809 C808 1.394 . S
C809 C810 1.516 . S
C810 C809 1.516 . S
C810 C811 1.502 . S
C810 C812 1.561 . S
C810 C813 1.526 . S
C811 H795 0.959 . S
C811 H796 0.959 . S
C811 H797 0.961 . S
C811 C810 1.502 . S
C812 H798 0.960 . S
C812 H799 0.961 . S
C812 H800 0.959 . S
C812 C810 1.561 . S
C813 C810 1.526 . S
C813 C814 1.396 . S
C813 C818 1.390 . S
C814 C808 1.465 . S
C814 C813 1.396 . S
C814 C815 1.399 . S
C815 H801 0.929 . S
C815 C814 1.399 . S
C815 C816 1.385 . S
C816 H802 0.931 . S
C816 C815 1.385 . S
C816 C817 1.389 . S
C817 C816 1.389 . S
C817 C818 1.387 . S
C818 H803 0.930 . S
C818 C813 1.390 . S
C818 C817 1.387 . S
H819 C831 0.930 . S
H820 C833 0.930 . S
H821 C834 0.930 . S
H822 C838 0.959 . S
H823 C838 0.959 . S
H824 C838 0.961 . S
H825 C839 0.960 . S
H826 C839 0.961 . S
H827 C839 0.959 . S
H828 C842 0.929 . S
H829 C843 0.931 . S
H830 C845 0.930 . S
C831 H819 0.930 . S
C831 C832 1.399 . S
C831 C836 1.399 . S
C832 C831 1.399 . S
C832 C833 1.376 . S
C833 H820 0.930 . S
C833 C832 1.376 . S
C833 C834 1.388 . S
C834 H821 0.930 . S
C834 C833 1.388 . S
C834 C835 1.390 . S
C835 C834 1.390 . S
C835 C836 1.394 . S
C835 C841 1.465 . S
C836 C831 1.399 . S
C836 C835 1.394 . S
C836 C837 1.516 . S
C837 C836 1.516 . S
C837 C838 1.502 . S
C837 C839 1.561 . S
C837 C840 1.526 . S
C838 H822 0.959 . S
C838 H823 0.959 . S
C838 H824 0.961 . S
C838 C837 1.502 . S
C839 H825 0.960 . S
C839 H826 0.961 . S
C839 H827 0.959 . S
C839 C837 1.561 . S
C840 C837 1.526 . S
C840 C841 1.396 . S
C840 C845 1.390 . S
C841 C835 1.465 . S
C841 C840 1.396 . S
C841 C842 1.399 . S
C842 H828 0.929 . S
C842 C841 1.399 . S
C842 C843 1.385 . S
C843 H829 0.931 . S
C843 C842 1.385 . S
C843 C844 1.389 . S
C844 C843 1.389 . S
C844 C845 1.387 . S
C845 H830 0.930 . S
C845 C840 1.390 . S
C845 C844 1.387 . S
H846 C858 0.930 . S
H847 C860 0.930 . S
H848 C861 0.930 . S
H849 C865 0.959 . S
H850 C865 0.959 . S
H851 C865 0.961 . S
H852 C866 0.960 . S
H853 C866 0.961 . S
H854 C866 0.959 . S
H855 C869 0.929 . S
H856 C870 0.931 . S
H857 C872 0.930 . S
C858 H846 0.930 . S
C858 C859 1.399 . S
C858 C863 1.399 . S
C859 C858 1.399 . S
C859 C860 1.376 . S
C860 H847 0.930 . S
C860 C859 1.376 . S
C860 C861 1.388 . S
C861 H848 0.930 . S
C861 C860 1.388 . S
C861 C862 1.390 . S
C862 C861 1.390 . S
C862 C863 1.394 . S
C862 C868 1.465 . S
C863 C858 1.399 . S
C863 C862 1.394 . S
C863 C864 1.516 . S
C864 C863 1.516 . S
C864 C865 1.502 . S
C864 C866 1.561 . S
C864 C867 1.526 . S
C865 H849 0.959 . S
C865 H850 0.959 . S
C865 H851 0.961 . S
C865 C864 1.502 . S
C866 H852 0.960 . S
C866 H853 0.961 . S
C866 H854 0.959 . S
C866 C864 1.561 . S
C867 C864 1.526 . S
C867 C868 1.396 . S
C867 C872 1.390 . S
C868 C862 1.465 . S
C868 C867 1.396 . S
C868 C869 1.399 . S
C869 H855 0.929 . S
C869 C868 1.399 . S
C869 C870 1.385 . S
C870 H856 0.931 . S
C870 C869 1.385 . S
C870 C871 1.389 . S
C871 C870 1.389 . S
C871 C872 1.387 . S
C872 H857 0.930 . S
C872 C867 1.390 . S
C872 C871 1.387 . S
H873 C885 0.930 . S
H874 C887 0.930 . S
H875 C888 0.930 . S
H876 C892 0.959 . S
H877 C892 0.959 . S
H878 C892 0.961 . S
H879 C893 0.960 . S
H880 C893 0.961 . S
H881 C893 0.959 . S
H882 C896 0.929 . S
H883 C897 0.931 . S
H884 C899 0.930 . S
C885 H873 0.930 . S
C885 C886 1.399 . S
C885 C890 1.399 . S
C886 C885 1.399 . S
C886 C887 1.376 . S
C887 H874 0.930 . S
C887 C886 1.376 . S
C887 C888 1.388 . S
C888 H875 0.930 . S
C888 C887 1.388 . S
C888 C889 1.390 . S
C889 C888 1.390 . S
C889 C890 1.394 . S
C889 C895 1.465 . S
C890 C885 1.399 . S
C890 C889 1.394 . S
C890 C891 1.516 . S
C891 C890 1.516 . S
C891 C892 1.502 . S
C891 C893 1.561 . S
C891 C894 1.526 . S
C892 H876 0.959 . S
C892 H877 0.959 . S
C892 H878 0.961 . S
C892 C891 1.502 . S
C893 H879 0.960 . S
C893 H880 0.961 . S
C893 H881 0.959 . S
C893 C891 1.561 . S
C894 C891 1.526 . S
C894 C895 1.396 . S
C894 C899 1.390 . S
C895 C889 1.465 . S
C895 C894 1.396 . S
C895 C896 1.399 . S
C896 H882 0.929 . S
C896 C895 1.399 . S
C896 C897 1.385 . S
C897 H883 0.931 . S
C897 C896 1.385 . S
C897 C898 1.389 . S
C898 C897 1.389 . S
C898 C899 1.387 . S
C899 H884 0.930 . S
C899 C894 1.390 . S
C899 C898 1.387 . S
H900 C912 0.930 . S
H901 C914 0.930 . S
H902 C915 0.930 . S
H903 C919 0.959 . S
H904 C919 0.959 . S
H905 C919 0.961 . S
H906 C920 0.960 . S
H907 C920 0.961 . S
H908 C920 0.959 . S
H909 C923 0.929 . S
H910 C924 0.931 . S
H911 C926 0.930 . S
C912 H900 0.930 . S
C912 C913 1.399 . S
C912 C917 1.399 . S
C913 C912 1.399 . S
C913 C914 1.376 . S
C914 H901 0.930 . S
C914 C913 1.376 . S
C914 C915 1.388 . S
C915 H902 0.930 . S
C915 C914 1.388 . S
C915 C916 1.390 . S
C916 C915 1.390 . S
C916 C917 1.394 . S
C916 C922 1.465 . S
C917 C912 1.399 . S
C917 C916 1.394 . S
C917 C918 1.516 . S
C918 C917 1.516 . S
C918 C919 1.502 . S
C918 C920 1.561 . S
C918 C921 1.526 . S
C919 H903 0.959 . S
C919 H904 0.959 . S
C919 H905 0.961 . S
C919 C918 1.502 . S
C920 H906 0.960 . S
C920 H907 0.961 . S
C920 H908 0.959 . S
C920 C918 1.561 . S
C921 C918 1.526 . S
C921 C922 1.396 . S
C921 C926 1.390 . S
C922 C916 1.465 . S
C922 C921 1.396 . S
C922 C923 1.399 . S
C923 H909 0.929 . S
C923 C922 1.399 . S
C923 C924 1.385 . S
C924 H910 0.931 . S
C924 C923 1.385 . S
C924 C925 1.389 . S
C925 C924 1.389 . S
C925 C926 1.387 . S
C926 H911 0.930 . S
C926 C921 1.390 . S
C926 C925 1.387 . S
H927 C939 0.930 . S
H928 C941 0.930 . S
H929 C942 0.930 . S
H930 C946 0.959 . S
H931 C946 0.959 . S
H932 C946 0.961 . S
H933 C947 0.960 . S
H934 C947 0.961 . S
H935 C947 0.959 . S
H936 C950 0.929 . S
H937 C951 0.931 . S
H938 C953 0.930 . S
C939 H927 0.930 . S
C939 C940 1.399 . S
C939 C944 1.399 . S
C940 C939 1.399 . S
C940 C941 1.376 . S
C941 H928 0.930 . S
C941 C940 1.376 . S
C941 C942 1.388 . S
C942 H929 0.930 . S
C942 C941 1.388 . S
C942 C943 1.390 . S
C943 C942 1.390 . S
C943 C944 1.394 . S
C943 C949 1.465 . S
C944 C939 1.399 . S
C944 C943 1.394 . S
C944 C945 1.516 . S
C945 C944 1.516 . S
C945 C946 1.502 . S
C945 C947 1.561 . S
C945 C948 1.526 . S
C946 H930 0.959 . S
C946 H931 0.959 . S
C946 H932 0.961 . S
C946 C945 1.502 . S
C947 H933 0.960 . S
C947 H934 0.961 . S
C947 H935 0.959 . S
C947 C945 1.561 . S
C948 C945 1.526 . S
C948 C949 1.396 . S
C948 C953 1.390 . S
C949 C943 1.465 . S
C949 C948 1.396 . S
C949 C950 1.399 . S
C950 H936 0.929 . S
C950 C949 1.399 . S
C950 C951 1.385 . S
C951 H937 0.931 . S
C951 C950 1.385 . S
C951 C952 1.389 . S
C952 C951 1.389 . S
C952 C953 1.387 . S
C953 H938 0.930 . S
C953 C948 1.390 . S
C953 C952 1.387 . S
H954 C966 0.930 . S
H955 C968 0.930 . S
H956 C969 0.930 . S
H957 C973 0.959 . S
H958 C973 0.959 . S
H959 C973 0.961 . S
H960 C974 0.960 . S
H961 C974 0.961 . S
H962 C974 0.959 . S
H963 C977 0.929 . S
H964 C978 0.931 . S
H965 C980 0.930 . S
C966 H954 0.930 . S
C966 C967 1.399 . S
C966 C971 1.399 . S
C967 C966 1.399 . S
C967 C968 1.376 . S
C968 H955 0.930 . S
C968 C967 1.376 . S
C968 C969 1.388 . S
C969 H956 0.930 . S
C969 C968 1.388 . S
C969 C970 1.390 . S
C970 C969 1.390 . S
C970 C971 1.394 . S
C970 C976 1.465 . S
C971 C966 1.399 . S
C971 C970 1.394 . S
C971 C972 1.516 . S
C972 C971 1.516 . S
C972 C973 1.502 . S
C972 C974 1.561 . S
C972 C975 1.526 . S
C973 H957 0.959 . S
C973 H958 0.959 . S
C973 H959 0.961 . S
C973 C972 1.502 . S
C974 H960 0.960 . S
C974 H961 0.961 . S
C974 H962 0.959 . S
C974 C972 1.561 . S
C975 C972 1.526 . S
C975 C976 1.396 . S
C975 C980 1.390 . S
C976 C970 1.465 . S
C976 C975 1.396 . S
C976 C977 1.399 . S
C977 H963 0.929 . S
C977 C976 1.399 . S
C977 C978 1.385 . S
C978 H964 0.931 . S
C978 C977 1.385 . S
C978 C979 1.389 . S
C979 C978 1.389 . S
C979 C980 1.387 . S
C980 H965 0.930 . S
C980 C975 1.390 . S
C980 C979 1.387 . S
H981 C993 0.930 . S
H982 C995 0.930 . S
H983 C996 0.930 . S
H984 C1000 0.959 . S
H985 C1000 0.959 . S
H986 C1000 0.961 . S
H987 C1001 0.960 . S
H988 C1001 0.961 . S
H989 C1001 0.959 . S
H990 C1004 0.929 . S
H991 C1005 0.931 . S
H992 C1007 0.930 . S
C993 H981 0.930 . S
C993 C994 1.399 . S
C993 C998 1.399 . S
C994 C993 1.399 . S
C994 C995 1.376 . S
C995 H982 0.930 . S
C995 C994 1.376 . S
C995 C996 1.388 . S
C996 H983 0.930 . S
C996 C995 1.388 . S
C996 C997 1.390 . S
C997 C996 1.390 . S
C997 C998 1.394 . S
C997 C1003 1.465 . S
C998 C993 1.399 . S
C998 C997 1.394 . S
C998 C999 1.516 . S
C999 C998 1.516 . S
C999 C1000 1.502 . S
C999 C1001 1.561 . S
C999 C1002 1.526 . S
C1000 H984 0.959 . S
C1000 H985 0.959 . S
C1000 H986 0.961 . S
C1000 C999 1.502 . S
C1001 H987 0.960 . S
C1001 H988 0.961 . S
C1001 H989 0.959 . S
C1001 C999 1.561 . S
C1002 C999 1.526 . S
C1002 C1003 1.396 . S
C1002 C1007 1.390 . S
C1003 C997 1.465 . S
C1003 C1002 1.396 . S
C1003 C1004 1.399 . S
C1004 H990 0.929 . S
C1004 C1003 1.399 . S
C1004 C1005 1.385 . S
C1005 H991 0.931 . S
C1005 C1004 1.385 . S
C1005 C1006 1.389 . S
C1006 C1005 1.389 . S
C1006 C1007 1.387 . S
C1007 H992 0.930 . S
C1007 C1002 1.390 . S
C1007 C1006 1.387 . S
H1008 C1020 0.930 . S
H1009 C1022 0.930 . S
H1010 C1023 0.930 . S
H1011 C1027 0.959 . S
H1012 C1027 0.959 . S
H1013 C1027 0.961 . S
H1014 C1028 0.960 . S
H1015 C1028 0.961 . S
H1016 C1028 0.959 . S
H1017 C1031 0.929 . S
H1018 C1032 0.931 . S
H1019 C1034 0.930 . S
C1020 H1008 0.930 . S
C1020 C1021 1.399 . S
C1020 C1025 1.399 . S
C1021 C1020 1.399 . S
C1021 C1022 1.376 . S
C1022 H1009 0.930 . S
C1022 C1021 1.376 . S
C1022 C1023 1.388 . S
C1023 H1010 0.930 . S
C1023 C1022 1.388 . S
C1023 C1024 1.390 . S
C1024 C1023 1.390 . S
C1024 C1025 1.394 . S
C1024 C1030 1.465 . S
C1025 C1020 1.399 . S
C1025 C1024 1.394 . S
C1025 C1026 1.516 . S
C1026 C1025 1.516 . S
C1026 C1027 1.502 . S
C1026 C1028 1.561 . S
C1026 C1029 1.526 . S
C1027 H1011 0.959 . S
C1027 H1012 0.959 . S
C1027 H1013 0.961 . S
C1027 C1026 1.502 . S
C1028 H1014 0.960 . S
C1028 H1015 0.961 . S
C1028 H1016 0.959 . S
C1028 C1026 1.561 . S
C1029 C1026 1.526 . S
C1029 C1030 1.396 . S
C1029 C1034 1.390 . S
C1030 C1024 1.465 . S
C1030 C1029 1.396 . S
C1030 C1031 1.399 . S
C1031 H1017 0.929 . S
C1031 C1030 1.399 . S
C1031 C1032 1.385 . S
C1032 H1018 0.931 . S
C1032 C1031 1.385 . S
C1032 C1033 1.389 . S
C1033 C1032 1.389 . S
C1033 C1034 1.387 . S
C1034 H1019 0.930 . S
C1034 C1029 1.390 . S
C1034 C1033 1.387 . S
H1035 C1047 0.930 . S
H1036 C1049 0.930 . S
H1037 C1050 0.930 . S
H1038 C1054 0.959 . S
H1039 C1054 0.959 . S
H1040 C1054 0.961 . S
H1041 C1055 0.960 . S
H1042 C1055 0.961 . S
H1043 C1055 0.959 . S
H1044 C1058 0.929 . S
H1045 C1059 0.931 . S
H1046 C1061 0.930 . S
C1047 H1035 0.930 . S
C1047 C1048 1.399 . S
C1047 C1052 1.399 . S
C1048 C1047 1.399 . S
C1048 C1049 1.376 . S
C1049 H1036 0.930 . S
C1049 C1048 1.376 . S
C1049 C1050 1.388 . S
C1050 H1037 0.930 . S
C1050 C1049 1.388 . S
C1050 C1051 1.390 . S
C1051 C1050 1.390 . S
C1051 C1052 1.394 . S
C1051 C1057 1.465 . S
C1052 C1047 1.399 . S
C1052 C1051 1.394 . S
C1052 C1053 1.516 . S
C1053 C1052 1.516 . S
C1053 C1054 1.502 . S
C1053 C1055 1.561 . S
C1053 C1056 1.526 . S
C1054 H1038 0.959 . S
C1054 H1039 0.959 . S
C1054 H1040 0.961 . S
C1054 C1053 1.502 . S
C1055 H1041 0.960 . S
C1055 H1042 0.961 . S
C1055 H1043 0.959 . S
C1055 C1053 1.561 . S
C1056 C1053 1.526 . S
C1056 C1057 1.396 . S
C1056 C1061 1.390 . S
C1057 C1051 1.465 . S
C1057 C1056 1.396 . S
C1057 C1058 1.399 . S
C1058 H1044 0.929 . S
C1058 C1057 1.399 . S
C1058 C1059 1.385 . S
C1059 H1045 0.931 . S
C1059 C1058 1.385 . S
C1059 C1060 1.389 . S
C1060 C1059 1.389 . S
C1060 C1061 1.387 . S
C1061 H1046 0.930 . S
C1061 C1056 1.390 . S
C1061 C1060 1.387 . S
H1062 C1074 0.930 . S
H1063 C1076 0.930 . S
H1064 C1077 0.930 . S
H1065 C1081 0.959 . S
H1066 C1081 0.959 . S
H1067 C1081 0.961 . S
H1068 C1082 0.960 . S
H1069 C1082 0.961 . S
H1070 C1082 0.959 . S
H1071 C1085 0.929 . S
H1072 C1086 0.931 . S
H1073 C1088 0.930 . S
C1074 H1062 0.930 . S
C1074 C1075 1.399 . S
C1074 C1079 1.399 . S
C1075 C1074 1.399 . S
C1075 C1076 1.376 . S
C1076 H1063 0.930 . S
C1076 C1075 1.376 . S
C1076 C1077 1.388 . S
C1077 H1064 0.930 . S
C1077 C1076 1.388 . S
C1077 C1078 1.390 . S
C1078 C1077 1.390 . S
C1078 C1079 1.394 . S
C1078 C1084 1.465 . S
C1079 C1074 1.399 . S
C1079 C1078 1.394 . S
C1079 C1080 1.516 . S
C1080 C1079 1.516 . S
C1080 C1081 1.502 . S
C1080 C1082 1.561 . S
C1080 C1083 1.526 . S
C1081 H1065 0.959 . S
C1081 H1066 0.959 . S
C1081 H1067 0.961 . S
C1081 C1080 1.502 . S
C1082 H1068 0.960 . S
C1082 H1069 0.961 . S
C1082 H1070 0.959 . S
C1082 C1080 1.561 . S
C1083 C1080 1.526 . S
C1083 C1084 1.396 . S
C1083 C1088 1.390 . S
C1084 C1078 1.465 . S
C1084 C1083 1.396 . S
C1084 C1085 1.399 . S
C1085 H1071 0.929 . S
C1085 C1084 1.399 . S
C1085 C1086 1.385 . S
C1086 H1072 0.931 . S
C1086 C1085 1.385 . S
C1086 C1087 1.389 . S
C1087 C1086 1.389 . S
C1087 C1088 1.387 . S
C1088 H1073 0.930 . S
C1088 C1083 1.390 . S
C1088 C1087 1.387 . S
H1089 C1101 0.930 . S
H1090 C1103 0.930 . S
H1091 C1104 0.930 . S
H1092 C1108 0.959 . S
H1093 C1108 0.959 . S
H1094 C1108 0.961 . S
H1095 C1109 0.960 . S
H1096 C1109 0.961 . S
H1097 C1109 0.959 . S
H1098 C1112 0.929 . S
H1099 C1113 0.931 . S
H1100 C1115 0.930 . S
C1101 H1089 0.930 . S
C1101 C1102 1.399 . S
C1101 C1106 1.399 . S
C1102 C1101 1.399 . S
C1102 C1103 1.376 . S
C1103 H1090 0.930 . S
C1103 C1102 1.376 . S
C1103 C1104 1.388 . S
C1104 H1091 0.930 . S
C1104 C1103 1.388 . S
C1104 C1105 1.390 . S
C1105 C1104 1.390 . S
C1105 C1106 1.394 . S
C1105 C1111 1.465 . S
C1106 C1101 1.399 . S
C1106 C1105 1.394 . S
C1106 C1107 1.516 . S
C1107 C1106 1.516 . S
C1107 C1108 1.502 . S
C1107 C1109 1.561 . S
C1107 C1110 1.526 . S
C1108 H1092 0.959 . S
C1108 H1093 0.959 . S
C1108 H1094 0.961 . S
C1108 C1107 1.502 . S
C1109 H1095 0.960 . S
C1109 H1096 0.961 . S
C1109 H1097 0.959 . S
C1109 C1107 1.561 . S
C1110 C1107 1.526 . S
C1110 C1111 1.396 . S
C1110 C1115 1.390 . S
C1111 C1105 1.465 . S
C1111 C1110 1.396 . S
C1111 C1112 1.399 . S
C1112 H1098 0.929 . S
C1112 C1111 1.399 . S
C1112 C1113 1.385 . S
C1113 H1099 0.931 . S
C1113 C1112 1.385 . S
C1113 C1114 1.389 . S
C1114 C1113 1.389 . S
C1114 C1115 1.387 . S
C1115 H1100 0.930 . S
C1115 C1110 1.390 . S
C1115 C1114 1.387 . S
H1116 C1128 0.930 . S
H1117 C1130 0.930 . S
H1118 C1131 0.930 . S
H1119 C1135 0.959 . S
H1120 C1135 0.959 . S
H1121 C1135 0.961 . S
H1122 C1136 0.960 . S
H1123 C1136 0.961 . S
H1124 C1136 0.959 . S
H1125 C1139 0.929 . S
H1126 C1140 0.931 . S
H1127 C1142 0.930 . S
C1128 H1116 0.930 . S
C1128 C1129 1.399 . S
C1128 C1133 1.399 . S
C1129 C1128 1.399 . S
C1129 C1130 1.376 . S
C1130 H1117 0.930 . S
C1130 C1129 1.376 . S
C1130 C1131 1.388 . S
C1131 H1118 0.930 . S
C1131 C1130 1.388 . S
C1131 C1132 1.390 . S
C1132 C1131 1.390 . S
C1132 C1133 1.394 . S
C1132 C1138 1.465 . S
C1133 C1128 1.399 . S
C1133 C1132 1.394 . S
C1133 C1134 1.516 . S
C1134 C1133 1.516 . S
C1134 C1135 1.502 . S
C1134 C1136 1.561 . S
C1134 C1137 1.526 . S
C1135 H1119 0.959 . S
C1135 H1120 0.959 . S
C1135 H1121 0.961 . S
C1135 C1134 1.502 . S
C1136 H1122 0.960 . S
C1136 H1123 0.961 . S
C1136 H1124 0.959 . S
C1136 C1134 1.561 . S
C1137 C1134 1.526 . S
C1137 C1138 1.396 . S
C1137 C1142 1.390 . S
C1138 C1132 1.465 . S
C1138 C1137 1.396 . S
C1138 C1139 1.399 . S
C1139 H1125 0.929 . S
C1139 C1138 1.399 . S
C1139 C1140 1.385 . S
C1140 H1126 0.931 . S
C1140 C1139 1.385 . S
C1140 C1141 1.389 . S
C1141 C1140 1.389 . S
C1141 C1142 1.387 . S
C1142 H1127 0.930 . S
C1142 C1137 1.390 . S
C1142 C1141 1.387 . S
H1143 C1155 0.930 . S
H1144 C1157 0.930 . S
H1145 C1158 0.930 . S
H1146 C1162 0.959 . S
H1147 C1162 0.959 . S
H1148 C1162 0.961 . S
H1149 C1163 0.960 . S
H1150 C1163 0.961 . S
H1151 C1163 0.959 . S
H1152 C1166 0.929 . S
H1153 C1167 0.931 . S
H1154 C1169 0.930 . S
C1155 H1143 0.930 . S
C1155 C1156 1.399 . S
C1155 C1160 1.399 . S
C1156 C1155 1.399 . S
C1156 C1157 1.376 . S
C1157 H1144 0.930 . S
C1157 C1156 1.376 . S
C1157 C1158 1.388 . S
C1158 H1145 0.930 . S
C1158 C1157 1.388 . S
C1158 C1159 1.390 . S
C1159 C1158 1.390 . S
C1159 C1160 1.394 . S
C1159 C1165 1.465 . S
C1160 C1155 1.399 . S
C1160 C1159 1.394 . S
C1160 C1161 1.516 . S
C1161 C1160 1.516 . S
C1161 C1162 1.502 . S
C1161 C1163 1.561 . S
C1161 C1164 1.526 . S
C1162 H1146 0.959 . S
C1162 H1147 0.959 . S
C1162 H1148 0.961 . S
C1162 C1161 1.502 . S
C1163 H1149 0.960 . S
C1163 H1150 0.961 . S
C1163 H1151 0.959 . S
C1163 C1161 1.561 . S
C1164 C1161 1.526 . S
C1164 C1165 1.396 . S
C1164 C1169 1.390 . S
C1165 C1159 1.465 . S
C1165 C1164 1.396 . S
C1165 C1166 1.399 . S
C1166 H1152 0.929 . S
C1166 C1165 1.399 . S
C1166 C1167 1.385 . S
C1167 H1153 0.931 . S
C1167 C1166 1.385 . S
C1167 C1168 1.389 . S
C1168 C1167 1.389 . S
C1168 C1169 1.387 . S
C1169 H1154 0.930 . S
C1169 C1164 1.390 . S
C1169 C1168 1.387 . S
H1170 C1182 0.930 . S
H1171 C1184 0.930 . S
H1172 C1185 0.930 . S
H1173 C1189 0.959 . S
H1174 C1189 0.959 . S
H1175 C1189 0.961 . S
H1176 C1190 0.960 . S
H1177 C1190 0.961 . S
H1178 C1190 0.959 . S
H1179 C1193 0.929 . S
H1180 C1194 0.931 . S
H1181 C1196 0.930 . S
C1182 H1170 0.930 . S
C1182 C1183 1.399 . S
C1182 C1187 1.399 . S
C1183 C1182 1.399 . S
C1183 C1184 1.376 . S
C1184 H1171 0.930 . S
C1184 C1183 1.376 . S
C1184 C1185 1.388 . S
C1185 H1172 0.930 . S
C1185 C1184 1.388 . S
C1185 C1186 1.390 . S
C1186 C1185 1.390 . S
C1186 C1187 1.394 . S
C1186 C1192 1.465 . S
C1187 C1182 1.399 . S
C1187 C1186 1.394 . S
C1187 C1188 1.516 . S
C1188 C1187 1.516 . S
C1188 C1189 1.502 . S
C1188 C1190 1.561 . S
C1188 C1191 1.526 . S
C1189 H1173 0.959 . S
C1189 H1174 0.959 . S
C1189 H1175 0.961 . S
C1189 C1188 1.502 . S
C1190 H1176 0.960 . S
C1190 H1177 0.961 . S
C1190 H1178 0.959 . S
C1190 C1188 1.561 . S
C1191 C1188 1.526 . S
C1191 C1192 1.396 . S
C1191 C1196 1.390 . S
C1192 C1186 1.465 . S
C1192 C1191 1.396 . S
C1192 C1193 1.399 . S
C1193 H1179 0.929 . S
C1193 C1192 1.399 . S
C1193 C1194 1.385 . S
C1194 H1180 0.931 . S
C1194 C1193 1.385 . S
C1194 C1195 1.389 . S
C1195 C1194 1.389 . S
C1195 C1196 1.387 . S
C1196 H1181 0.930 . S
C1196 C1191 1.390 . S
C1196 C1195 1.387 . S
H1197 C1209 0.930 . S
H1198 C1211 0.930 . S
H1199 C1212 0.930 . S
H1200 C1216 0.959 . S
H1201 C1216 0.959 . S
H1202 C1216 0.961 . S
H1203 C1217 0.960 . S
H1204 C1217 0.961 . S
H1205 C1217 0.959 . S
H1206 C1220 0.929 . S
H1207 C1221 0.931 . S
H1208 C1223 0.930 . S
C1209 H1197 0.930 . S
C1209 C1210 1.399 . S
C1209 C1214 1.399 . S
C1210 C1209 1.399 . S
C1210 C1211 1.376 . S
C1211 H1198 0.930 . S
C1211 C1210 1.376 . S
C1211 C1212 1.388 . S
C1212 H1199 0.930 . S
C1212 C1211 1.388 . S
C1212 C1213 1.390 . S
C1213 C1212 1.390 . S
C1213 C1214 1.394 . S
C1213 C1219 1.465 . S
C1214 C1209 1.399 . S
C1214 C1213 1.394 . S
C1214 C1215 1.516 . S
C1215 C1214 1.516 . S
C1215 C1216 1.502 . S
C1215 C1217 1.561 . S
C1215 C1218 1.526 . S
C1216 H1200 0.959 . S
C1216 H1201 0.959 . S
C1216 H1202 0.961 . S
C1216 C1215 1.502 . S
C1217 H1203 0.960 . S
C1217 H1204 0.961 . S
C1217 H1205 0.959 . S
C1217 C1215 1.561 . S
C1218 C1215 1.526 . S
C1218 C1219 1.396 . S
C1218 C1223 1.390 . S
C1219 C1213 1.465 . S
C1219 C1218 1.396 . S
C1219 C1220 1.399 . S
C1220 H1206 0.929 . S
C1220 C1219 1.399 . S
C1220 C1221 1.385 . S
C1221 H1207 0.931 . S
C1221 C1220 1.385 . S
C1221 C1222 1.389 . S
C1222 C1221 1.389 . S
C1222 C1223 1.387 . S
C1223 H1208 0.930 . S
C1223 C1218 1.390 . S
C1223 C1222 1.387 . S
H1224 C1236 0.930 . S
H1225 C1238 0.930 . S
H1226 C1239 0.930 . S
H1227 C1243 0.959 . S
H1228 C1243 0.959 1_556 S
H1229 C1243 0.961 . S
H1230 C1244 0.960 . S
H1231 C1244 0.961 1_556 S
H1232 C1244 0.959 . S
H1233 C1247 0.929 . S
H1234 C1248 0.931 . S
H1235 C1250 0.930 . S
C1236 H1224 0.930 . S
C1236 C1237 1.399 . S
C1236 C1241 1.399 . S
C1237 C1236 1.399 . S
C1237 C1238 1.376 . S
C1238 H1225 0.930 . S
C1238 C1237 1.376 . S
C1238 C1239 1.388 . S
C1239 H1226 0.930 . S
C1239 C1238 1.388 . S
C1239 C1240 1.390 . S
C1240 C1239 1.390 . S
C1240 C1241 1.394 . S
C1240 C1246 1.465 1_554 S
C1241 C1236 1.399 . S
C1241 C1240 1.394 . S
C1241 C1242 1.516 . S
C1242 C1241 1.516 . S
C1242 C1243 1.502 . S
C1242 C1244 1.561 . S
C1242 C1245 1.526 1_554 S
C1243 H1227 0.959 . S
C1243 H1228 0.959 1_554 S
C1243 H1229 0.961 . S
C1243 C1242 1.502 . S
C1244 H1230 0.960 . S
C1244 H1231 0.961 1_554 S
C1244 H1232 0.959 . S
C1244 C1242 1.561 . S
C1245 C1242 1.526 1_556 S
C1245 C1246 1.396 . S
C1245 C1250 1.390 . S
C1246 C1240 1.465 1_556 S
C1246 C1245 1.396 . S
C1246 C1247 1.399 . S
C1247 H1233 0.929 . S
C1247 C1246 1.399 . S
C1247 C1248 1.385 . S
C1248 H1234 0.931 . S
C1248 C1247 1.385 . S
C1248 C1249 1.389 . S
C1249 C1248 1.389 . S
C1249 C1250 1.387 . S
C1250 H1235 0.930 . S
C1250 C1245 1.390 . S
C1250 C1249 1.387 . S
H1251 C1263 0.930 . S
H1252 C1265 0.930 . S
H1253 C1266 0.930 . S
H1254 C1270 0.959 . S
H1255 C1270 0.959 . S
H1256 C1270 0.961 . S
H1257 C1271 0.960 . S
H1258 C1271 0.961 . S
H1259 C1271 0.959 . S
H1260 C1274 0.929 . S
H1261 C1275 0.931 . S
H1262 C1277 0.930 . S
C1263 H1251 0.930 . S
C1263 C1264 1.399 . S
C1263 C1268 1.399 . S
C1264 C1263 1.399 . S
C1264 C1265 1.376 . S
C1265 H1252 0.930 . S
C1265 C1264 1.376 . S
C1265 C1266 1.388 . S
C1266 H1253 0.930 . S
C1266 C1265 1.388 . S
C1266 C1267 1.390 . S
C1267 C1266 1.390 . S
C1267 C1268 1.394 . S
C1267 C1273 1.465 . S
C1268 C1263 1.399 . S
C1268 C1267 1.394 . S
C1268 C1269 1.516 . S
C1269 C1268 1.516 . S
C1269 C1270 1.502 . S
C1269 C1271 1.561 . S
C1269 C1272 1.526 . S
C1270 H1254 0.959 . S
C1270 H1255 0.959 . S
C1270 H1256 0.961 . S
C1270 C1269 1.502 . S
C1271 H1257 0.960 . S
C1271 H1258 0.961 . S
C1271 H1259 0.959 . S
C1271 C1269 1.561 . S
C1272 C1269 1.526 . S
C1272 C1273 1.396 . S
C1272 C1277 1.390 . S
C1273 C1267 1.465 . S
C1273 C1272 1.396 . S
C1273 C1274 1.399 . S
C1274 H1260 0.929 . S
C1274 C1273 1.399 . S
C1274 C1275 1.385 . S
C1275 H1261 0.931 . S
C1275 C1274 1.385 . S
C1275 C1276 1.389 . S
C1276 C1275 1.389 . S
C1276 C1277 1.387 . S
C1277 H1262 0.930 . S
C1277 C1272 1.390 . S
C1277 C1276 1.387 . S
H1278 C1290 0.930 . S
H1279 C1292 0.930 . S
H1280 C1293 0.930 . S
H1281 C1297 0.959 . S
H1282 C1297 0.959 . S
H1283 C1297 0.961 1_554 S
H1284 C1298 0.960 1_554 S
H1285 C1298 0.961 . S
H1286 C1298 0.959 . S
H1287 C1301 0.929 . S
H1288 C1302 0.931 . S
H1289 C1304 0.930 . S
C1290 H1278 0.930 . S
C1290 C1291 1.399 . S
C1290 C1295 1.399 . S
C1291 C1290 1.399 . S
C1291 C1292 1.376 1_655 S
C1292 H1279 0.930 . S
C1292 C1291 1.376 1_455 S
C1292 C1293 1.388 . S
C1293 H1280 0.930 . S
C1293 C1292 1.388 . S
C1293 C1294 1.390 . S
C1294 C1293 1.390 . S
C1294 C1295 1.394 1_455 S
C1294 C1300 1.465 1_554 S
C1295 C1290 1.399 . S
C1295 C1294 1.394 1_655 S
C1295 C1296 1.516 1_554 S
C1296 C1295 1.516 1_556 S
C1296 C1297 1.502 . S
C1296 C1298 1.561 1_655 S
C1296 C1299 1.526 . S
C1297 H1281 0.959 . S
C1297 H1282 0.959 . S
C1297 H1283 0.961 1_556 S
C1297 C1296 1.502 . S
C1298 H1284 0.960 1_556 S
C1298 H1285 0.961 . S
C1298 H1286 0.959 . S
C1298 C1296 1.561 1_455 S
C1299 C1296 1.526 . S
C1299 C1300 1.396 1_655 S
C1299 C1304 1.390 . S
C1300 C1294 1.465 1_556 S
C1300 C1299 1.396 1_455 S
C1300 C1301 1.399 . S
C1301 H1287 0.929 . S
C1301 C1300 1.399 . S
C1301 C1302 1.385 . S
C1302 H1288 0.931 . S
C1302 C1301 1.385 . S
C1302 C1303 1.389 1_455 S
C1303 C1302 1.389 1_655 S
C1303 C1304 1.387 . S
C1304 H1289 0.930 . S
C1304 C1299 1.390 . S
C1304 C1303 1.387 . S
H1305 C1317 0.930 . S
H1306 C1319 0.930 . S
H1307 C1320 0.930 . S
H1308 C1324 0.959 . S
H1309 C1324 0.959 . S
H1310 C1324 0.961 . S
H1311 C1325 0.960 . S
H1312 C1325 0.961 . S
H1313 C1325 0.959 . S
H1314 C1328 0.929 . S
H1315 C1329 0.931 . S
H1316 C1331 0.930 . S
C1317 H1305 0.930 . S
C1317 C1318 1.399 . S
C1317 C1322 1.399 . S
C1318 C1317 1.399 . S
C1318 C1319 1.376 1_565 S
C1319 H1306 0.930 . S
C1319 C1318 1.376 1_545 S
C1319 C1320 1.388 . S
C1320 H1307 0.930 . S
C1320 C1319 1.388 . S
C1320 C1321 1.390 . S
C1321 C1320 1.390 . S
C1321 C1322 1.394 1_545 S
C1321 C1327 1.465 . S
C1322 C1317 1.399 . S
C1322 C1321 1.394 1_565 S
C1322 C1323 1.516 . S
C1323 C1322 1.516 . S
C1323 C1324 1.502 . S
C1323 C1325 1.561 . S
C1323 C1326 1.526 . S
C1324 H1308 0.959 . S
C1324 H1309 0.959 . S
C1324 H1310 0.961 . S
C1324 C1323 1.502 . S
C1325 H1311 0.960 . S
C1325 H1312 0.961 . S
C1325 H1313 0.959 . S
C1325 C1323 1.561 . S
C1326 C1323 1.526 . S
C1326 C1327 1.396 1_565 S
C1326 C1331 1.390 . S
C1327 C1321 1.465 . S
C1327 C1326 1.396 1_545 S
C1327 C1328 1.399 . S
C1328 H1314 0.929 . S
C1328 C1327 1.399 . S
C1328 C1329 1.385 . S
C1329 H1315 0.931 . S
C1329 C1328 1.385 . S
C1329 C1330 1.389 1_545 S
C1330 C1329 1.389 1_565 S
C1330 C1331 1.387 . S
C1331 H1316 0.930 . S
C1331 C1326 1.390 . S
C1331 C1330 1.387 . S
H1332 C1344 0.930 . S
H1333 C1346 0.930 . S
H1334 C1347 0.930 . S
H1335 C1351 0.959 . S
H1336 C1351 0.959 . S
H1337 C1351 0.961 1_556 S
H1338 C1352 0.960 1_556 S
H1339 C1352 0.961 . S
H1340 C1352 0.959 . S
H1341 C1355 0.929 . S
H1342 C1356 0.931 . S
H1343 C1358 0.930 . S
C1344 H1332 0.930 . S
C1344 C1345 1.399 . S
C1344 C1349 1.399 . S
C1345 C1344 1.399 . S
C1345 C1346 1.376 . S
C1346 H1333 0.930 . S
C1346 C1345 1.376 . S
C1346 C1347 1.388 . S
C1347 H1334 0.930 . S
C1347 C1346 1.388 . S
C1347 C1348 1.390 . S
C1348 C1347 1.390 . S
C1348 C1349 1.394 . S
C1348 C1354 1.465 1_556 S
C1349 C1344 1.399 . S
C1349 C1348 1.394 . S
C1349 C1350 1.516 1_556 S
C1350 C1349 1.516 1_554 S
C1350 C1351 1.502 . S
C1350 C1352 1.561 . S
C1350 C1353 1.526 . S
C1351 H1335 0.959 . S
C1351 H1336 0.959 . S
C1351 H1337 0.961 1_554 S
C1351 C1350 1.502 . S
C1352 H1338 0.960 1_554 S
C1352 H1339 0.961 . S
C1352 H1340 0.959 . S
C1352 C1350 1.561 . S
C1353 C1350 1.526 . S
C1353 C1354 1.396 . S
C1353 C1358 1.390 . S
C1354 C1348 1.465 1_554 S
C1354 C1353 1.396 . S
C1354 C1355 1.399 . S
C1355 H1341 0.929 . S
C1355 C1354 1.399 . S
C1355 C1356 1.385 . S
C1356 H1342 0.931 . S
C1356 C1355 1.385 . S
C1356 C1357 1.389 . S
C1357 C1356 1.389 . S
C1357 C1358 1.387 . S
C1358 H1343 0.930 . S
C1358 C1353 1.390 . S
C1358 C1357 1.387 . S
H1359 C1371 0.930 . S
H1360 C1373 0.930 . S
H1361 C1374 0.930 . S
H1362 C1378 0.959 . S
H1363 C1378 0.959 . S
H1364 C1378 0.961 . S
H1365 C1379 0.960 . S
H1366 C1379 0.961 . S
H1367 C1379 0.959 . S
H1368 C1382 0.929 . S
H1369 C1383 0.931 . S
H1370 C1385 0.930 . S
C1371 H1359 0.930 . S
C1371 C1372 1.399 . S
C1371 C1376 1.399 . S
C1372 C1371 1.399 . S
C1372 C1373 1.376 . S
C1373 H1360 0.930 . S
C1373 C1372 1.376 . S
C1373 C1374 1.388 . S
C1374 H1361 0.930 . S
C1374 C1373 1.388 . S
C1374 C1375 1.390 . S
C1375 C1374 1.390 . S
C1375 C1376 1.394 . S
C1375 C1381 1.465 . S
C1376 C1371 1.399 . S
C1376 C1375 1.394 . S
C1376 C1377 1.516 . S
C1377 C1376 1.516 . S
C1377 C1378 1.502 . S
C1377 C1379 1.561 . S
C1377 C1380 1.526 . S
C1378 H1362 0.959 . S
C1378 H1363 0.959 . S
C1378 H1364 0.961 . S
C1378 C1377 1.502 . S
C1379 H1365 0.960 . S
C1379 H1366 0.961 . S
C1379 H1367 0.959 . S
C1379 C1377 1.561 . S
C1380 C1377 1.526 . S
C1380 C1381 1.396 . S
C1380 C1385 1.390 . S
C1381 C1375 1.465 . S
C1381 C1380 1.396 . S
C1381 C1382 1.399 . S
C1382 H1368 0.929 . S
C1382 C1381 1.399 . S
C1382 C1383 1.385 . S
C1383 H1369 0.931 . S
C1383 C1382 1.385 . S
C1383 C1384 1.389 . S
C1384 C1383 1.389 . S
C1384 C1385 1.387 . S
C1385 H1370 0.930 . S
C1385 C1380 1.390 . S
C1385 C1384 1.387 . S
H1386 C1398 0.936 . S
H1387 C1400 0.930 . S
H1388 C1401 0.930 . S
H1389 C1405 0.959 . S
H1390 C1405 0.959 . S
H1391 C1405 0.961 1_554 S
H1392 C1406 0.960 1_554 S
H1393 C1406 0.961 . S
H1394 C1406 0.959 . S
H1395 C1409 0.929 . S
H1396 C1410 0.931 . S
H1397 C1412 0.930 . S
C1398 H1386 0.936 . S
C1398 C1399 1.394 1_655 S
C1398 C1403 1.397 1_655 S
C1399 C1398 1.394 1_455 S
C1399 C1400 1.376 . S
C1400 H1387 0.930 . S
C1400 C1399 1.376 . S
C1400 C1401 1.388 . S
C1401 H1388 0.930 . S
C1401 C1400 1.388 . S
C1401 C1402 1.390 . S
C1402 C1401 1.390 . S
C1402 C1403 1.394 . S
C1402 C1408 1.465 1_554 S
C1403 C1398 1.397 1_455 S
C1403 C1402 1.394 . S
C1403 C1404 1.516 1_454 S
C1404 C1403 1.516 1_656 S
C1404 C1405 1.502 . S
C1404 C1406 1.561 1_655 S
C1404 C1407 1.526 1_655 S
C1405 H1389 0.959 . S
C1405 H1390 0.959 . S
C1405 H1391 0.961 1_556 S
C1405 C1404 1.502 . S
C1406 H1392 0.960 1_556 S
C1406 H1393 0.961 . S
C1406 H1394 0.959 . S
C1406 C1404 1.561 1_455 S
C1407 C1404 1.526 1_455 S
C1407 C1408 1.396 . S
C1407 C1412 1.389 1_455 S
C1408 C1402 1.465 1_556 S
C1408 C1407 1.396 . S
C1408 C1409 1.399 . S
C1409 H1395 0.929 . S
C1409 C1408 1.399 . S
C1409 C1410 1.385 . S
C1410 H1396 0.931 . S
C1410 C1409 1.385 . S
C1410 C1411 1.389 . S
C1411 C1410 1.389 . S
C1411 C1412 1.386 1_455 S
C1412 H1397 0.930 . S
C1412 C1407 1.389 1_655 S
C1412 C1411 1.386 1_655 S
H1413 C1425 0.930 . S
H1414 C1427 0.930 . S
H1415 C1428 0.930 . S
H1416 C1432 0.959 . S
H1417 C1432 0.959 . S
H1418 C1432 0.961 . S
H1419 C1433 0.960 . S
H1420 C1433 0.961 . S
H1421 C1433 0.959 . S
H1422 C1436 0.929 . S
H1423 C1437 0.931 . S
H1424 C1439 0.930 . S
C1425 H1413 0.930 . S
C1425 C1426 1.399 . S
C1425 C1430 1.399 . S
C1426 C1425 1.399 . S
C1426 C1427 1.376 1_545 S
C1427 H1414 0.930 . S
C1427 C1426 1.376 1_565 S
C1427 C1428 1.388 . S
C1428 H1415 0.930 . S
C1428 C1427 1.388 . S
C1428 C1429 1.390 . S
C1429 C1428 1.390 . S
C1429 C1430 1.394 1_565 S
C1429 C1435 1.465 . S
C1430 C1425 1.399 . S
C1430 C1429 1.394 1_545 S
C1430 C1431 1.516 . S
C1431 C1430 1.516 . S
C1431 C1432 1.502 . S
C1431 C1433 1.561 . S
C1431 C1434 1.526 . S
C1432 H1416 0.959 . S
C1432 H1417 0.959 . S
C1432 H1418 0.961 . S
C1432 C1431 1.502 . S
C1433 H1419 0.960 . S
C1433 H1420 0.961 . S
C1433 H1421 0.959 . S
C1433 C1431 1.561 . S
C1434 C1431 1.526 . S
C1434 C1435 1.396 1_545 S
C1434 C1439 1.390 . S
C1435 C1429 1.465 . S
C1435 C1434 1.396 1_565 S
C1435 C1436 1.399 . S
C1436 H1422 0.929 . S
C1436 C1435 1.399 . S
C1436 C1437 1.385 . S
C1437 H1423 0.931 . S
C1437 C1436 1.385 . S
C1437 C1438 1.389 1_565 S
C1438 C1437 1.389 1_545 S
C1438 C1439 1.387 . S
C1439 H1424 0.930 . S
C1439 C1434 1.390 . S
C1439 C1438 1.387 . S
C589 C3 1.294 . S
C601 C255 1.291 . S
C616 C39 1.287 . S
C628 C147 1.290 . S
C643 C75 1.282 . S
C655 C183 1.286 . S
C670 C111 1.285 . S
C682 C219 1.282 . S
C697 C291 1.290 . S
C709 C543 1.293 . S
C724 C435 1.280 . S
C736 C327 1.284 . S
C751 C363 1.277 . S
C763 C471 1.281 . S
C778 C399 1.275 . S
C790 C507 1.278 . S
C805 C4 1.407 . S
C817 C326 1.450 . S
C832 C40 1.424 . S
C844 C362 1.451 . S
C859 C398 1.432 . S
C871 C76 1.405 . S
C886 C112 1.350 . S
C898 C290 1.431 . S
C913 C148 1.425 . S
C925 C542 1.451 . S
C940 C434 1.442 . S
C952 C184 1.369 . S
C967 C470 1.429 . S
C979 C220 1.393 . S
C994 C506 1.451 . S
C1006 C256 1.419 . S
C1021 C38 1.427 . S
C1033 C292 1.369 . S
C1048 C74 1.429 . S
C1060 C328 1.417 . S
C1075 C364 1.411 . S
C1087 C110 1.428 . S
C1102 C2 1.447 . S
C1114 C400 1.422 . S
C1129 C436 1.375 . S
C1141 C254 1.427 . S
C1156 C472 1.384 . S
C1168 C146 1.451 . S
C1183 C182 1.429 . S
C1195 C508 1.361 . S
C1210 C218 1.450 . S
C1222 C544 1.405 . S
C1237 C14 1.467 . S
C1249 C158 1.460 . S
C1264 C194 1.449 . S
C1276 C50 1.455 . S
C1291 C86 1.515 . S
C1303 C230 1.523 . S
C1318 C266 1.531 . S
C1330 C122 1.525 . S
C1345 C302 1.450 . S
C1357 C446 1.478 . S
C1372 C482 1.472 . S
C1384 C338 1.449 . S
C1399 C518 1.451 . S
C1411 C374 1.481 . S
C1426 C554 1.512 . S
C1438 C410 1.534 . S
