# Generated by pormake.
# Topology fee, (5)-cn, num edge types: 1
# Building blocks:
#     Node 0, Type 0, BuildingBlock: BEQFEK_clean_sbu_0, # of connection points: 5
#     Node 1, Type 0, BuildingBlock: BEQFEK_clean_sbu_0, # of connection points: 5
#     Node 2, Type 0, BuildingBlock: BEQFEK_clean_sbu_0, # of connection points: 5
#     Node 3, Type 0, BuildingBlock: BEQFEK_clean_sbu_0, # of connection points: 5
#     Edge 4, Type (0, 0), BuildingBlock: MIFKUJ_clean_linker_0, # of connection points: 2
#     Edge 5, Type (0, 0), BuildingBlock: MIFKUJ_clean_linker_0, # of connection points: 2
#     Edge 6, Type (0, 0), BuildingBlock: MIFKUJ_clean_linker_0, # of connection points: 2
#     Edge 7, Type (0, 0), BuildingBlock: MIFKUJ_clean_linker_0, # of connection points: 2
#     Edge 8, Type (0, 0), BuildingBlock: MIFKUJ_clean_linker_0, # of connection points: 2
#     Edge 9, Type (0, 0), BuildingBlock: MIFKUJ_clean_linker_0, # of connection points: 2
#     Edge 10, Type (0, 0), BuildingBlock: MIFKUJ_clean_linker_0, # of connection points: 2
#     Edge 11, Type (0, 0), BuildingBlock: MIFKUJ_clean_linker_0, # of connection points: 2
#     Edge 12, Type (0, 0), BuildingBlock: MIFKUJ_clean_linker_0, # of connection points: 2
#     Edge 13, Type (0, 0), BuildingBlock: MIFKUJ_clean_linker_0, # of connection points: 2
# Relax obj value: 0.040
# Max RMSD: 0.132
# Mean RMSD: 0.102
data_MOF--net-fee--node1-BEQFEK_clean_sbu_0--edge1-MIFKUJ_clean_linker_0
_symmetry_space_group_name_H-M    P1
_symmetry_Int_Tables_number       1
_symmetry_cell_setting            triclinic
loop_
_symmetry_equiv_pos_as_xyz
'x, y, z'
_cell_length_a     49.055012
_cell_length_b     48.879827
_cell_length_c     23.98752
_cell_angle_alpha  89.904634
_cell_angle_beta   87.948885
_cell_angle_gamma 96.000233
loop_
_atom_site_label
_atom_site_type_symbol
_atom_site_fract_x
_atom_site_fract_y
_atom_site_fract_z
_atom_type_partial_charge
Co0 Co 0.2195 0.49011 0.13439 0.0
Co1 Co 0.21797 0.48906 0.0036 0.0
C2 C 0.25275 0.53273 0.06066 0.0
O3 O 0.24517 0.52181 0.10774 0.0
O4 O 0.24344 0.52267 0.01529 0.0
C5 C 0.21363 0.51526 0.24197 0.0
O6 O 0.21264 0.5379 0.21284 0.0
C7 C 0.21721 0.49938 0.88151 0.0
C8 C 0.19599 0.45978 0.85416 0.0
C9 C 0.20814 0.48497 0.83457 0.0
N10 N 0.21041 0.4834 0.92669 0.0
N11 N 0.19777 0.45981 0.90993 0.0
C12 C 0.23436 0.52651 0.88352 0.0
H13 H 0.25291 0.52419 0.90746 0.0
H14 H 0.22254 0.54156 0.90584 0.0
H15 H 0.2409 0.53448 0.84134 0.0
C16 C 0.15952 0.49087 0.12223 0.0
N17 N 0.18522 0.49034 0.10077 0.0
N18 N 0.18468 0.4907 0.04594 0.0
C19 C 0.15863 0.49192 0.03081 0.0
C20 C 0.14185 0.49189 0.07858 0.0
C21 C 0.15194 0.48924 0.1832 0.0
H22 H 0.16447 0.47497 0.20424 0.0
H23 H 0.15621 0.50994 0.20178 0.0
H24 H 0.12987 0.48212 0.19049 0.0
O25 O 0.23587 0.45574 0.11744 0.0
O26 O 0.23618 0.45647 0.02505 0.0
H27 H 0.14801 0.47426 0.95215 0.0
H28 H 0.13025 0.5036 0.97033 0.0
C29 C 0.15017 0.49482 0.97193 0.0
H30 H 0.16598 0.50834 0.94794 0.0
H31 H 0.19066 0.44355 0.93666 0.0
O32 O 0.21585 0.49274 0.21661 0.0
C33 C 0.24177 0.44527 0.0706 0.0
Co34 Co 0.46521 0.214 0.15543 0.0
Co35 Co 0.47341 0.21177 0.0253 0.0
C36 C 0.42723 0.23882 0.07912 0.0
O37 O 0.43457 0.23292 0.12774 0.0
O38 O 0.44038 0.23188 0.03548 0.0
C39 C 0.44644 0.22289 0.26895 0.0
O40 O 0.43393 0.24273 0.24757 0.0
C41 C 0.4633 0.20378 0.90563 0.0
C42 C 0.5051 0.19894 0.8723 0.0
C43 C 0.4783 0.19975 0.85666 0.0
N44 N 0.48053 0.20533 0.94811 0.0
N45 N 0.50548 0.2025 0.92785 0.0
C46 C 0.43302 0.20488 0.9127 0.0
H47 H 0.42556 0.19616 0.95389 0.0
H48 H 0.42197 0.1934 0.87899 0.0
H49 H 0.42859 0.22666 0.91117 0.0
C50 C 0.46554 0.15388 0.14218 0.0
N51 N 0.46629 0.17941 0.12066 0.0
N52 N 0.4695 0.17823 0.06606 0.0
C53 C 0.47099 0.15184 0.05103 0.0
C54 C 0.46856 0.13554 0.09887 0.0
C55 C 0.46187 0.14735 0.20315 0.0
H56 H 0.44387 0.15688 0.22055 0.0
H57 H 0.45871 0.12486 0.21104 0.0
H58 H 0.48024 0.15634 0.22499 0.0
O59 O 0.50026 0.23764 0.14189 0.0
O60 O 0.50575 0.23545 0.04991 0.0
H61 H 0.47779 0.12047 0.98923 0.0
H62 H 0.46199 0.1498 0.96441 0.0
C63 C 0.47741 0.14302 0.99268 0.0
H64 H 0.49783 0.15307 0.97886 0.0
H65 H 0.5228 0.20307 0.95201 0.0
O66 O 0.46044 0.20854 0.23704 0.0
C67 C 0.51397 0.24424 0.09693 0.0
Co68 Co 0.77322 0.50064 0.02479 0.0
Co69 Co 0.77294 0.5001 0.1557 0.0
C70 C 0.75169 0.54575 0.09564 0.0
O71 O 0.75671 0.53404 0.04952 0.0
O72 O 0.75725 0.5353 0.14213 0.0
C73 C 0.78798 0.52448 0.91644 0.0
O74 O 0.79723 0.54631 0.94468 0.0
C75 C 0.78106 0.51125 0.27645 0.0
C76 C 0.78517 0.46905 0.30603 0.0
C77 C 0.7857 0.49605 0.32355 0.0
N78 N 0.77814 0.49392 0.23301 0.0
N79 N 0.78031 0.46874 0.25126 0.0
C80 C 0.78116 0.54177 0.27183 0.0
H81 H 0.75978 0.54711 0.27693 0.0
H82 H 0.78931 0.54897 0.22999 0.0
H83 H 0.7936 0.55238 0.30469 0.0
C84 C 0.83273 0.49706 0.03985 0.0
N85 N 0.80689 0.49841 0.0599 0.0
N86 N 0.80687 0.49919 0.11478 0.0
C87 C 0.83282 0.49897 0.13133 0.0
C88 C 0.85002 0.49756 0.08446 0.0
C89 C 0.84077 0.4968 0.97908 0.0
H90 H 0.82538 0.48331 0.95632 0.0
H91 H 0.84136 0.51798 0.96213 0.0
H92 H 0.86133 0.48974 0.97177 0.0
O93 O 0.74753 0.4677 0.04211 0.0
O94 O 0.74607 0.46902 0.13449 0.0
H95 H 0.83181 0.47994 0.21161 0.0
H96 H 0.86334 0.50079 0.19514 0.0
C97 C 0.84081 0.49925 0.191 0.0
H98 H 0.83255 0.51677 0.21279 0.0
H99 H 0.77901 0.45135 0.22592 0.0
O100 O 0.77783 0.50291 0.94248 0.0
C101 C 0.7382 0.45799 0.08902 0.0
Co102 Co 0.52273 0.77311 0.14123 0.0
Co103 Co 0.52544 0.77748 0.0102 0.0
C104 C 0.56866 0.75272 0.0692 0.0
O105 O 0.55624 0.75704 0.11538 0.0
O106 O 0.55933 0.7596 0.02284 0.0
C107 C 0.5447 0.7889 0.24646 0.0
O108 O 0.56414 0.8023 0.21495 0.0
C109 C 0.53778 0.78247 0.88791 0.0
C110 C 0.50124 0.80127 0.86126 0.0
C111 C 0.52559 0.79231 0.84168 0.0
N112 N 0.52145 0.78584 0.93314 0.0
N113 N 0.49951 0.79675 0.91665 0.0
C114 C 0.56464 0.77065 0.88948 0.0
H115 H 0.57774 0.78204 0.92035 0.0
H116 H 0.57543 0.77168 0.84793 0.0
H117 H 0.56102 0.7489 0.90362 0.0
C118 C 0.51785 0.83297 0.12938 0.0
N119 N 0.52144 0.80806 0.10795 0.0
N120 N 0.52475 0.81023 0.05332 0.0
C121 C 0.52442 0.83684 0.03862 0.0
C122 C 0.51971 0.852 0.08614 0.0
C123 C 0.51021 0.83799 0.18919 0.0
H124 H 0.49926 0.81914 0.20846 0.0
H125 H 0.52912 0.84391 0.21223 0.0
H126 H 0.497 0.85506 0.19287 0.0
O127 O 0.49022 0.74808 0.12255 0.0
O128 O 0.49282 0.75114 0.03017 0.0
H129 H 0.51034 0.8477 0.95905 0.0
H130 H 0.53939 0.86965 0.98182 0.0
C131 C 0.52996 0.848 0.98071 0.0
H132 H 0.5439 0.83545 0.95701 0.0
H133 H 0.48337 0.80127 0.94345 0.0
O134 O 0.5245 0.77548 0.22362 0.0
C135 C 0.481 0.74129 0.07505 0.0
H136 H 0.20028 0.53437 0.78625 0.0
H137 H 0.20345 0.5458 0.68634 0.0
H138 H 0.2245 0.46408 0.6492 0.0
H139 H 0.22197 0.45287 0.74865 0.0
H140 H 0.25642 0.50266 0.58853 0.0
H141 H 0.15981 0.48055 0.63592 0.0
H142 H 0.11646 0.48613 0.68789 0.0
H143 H 0.11982 0.56962 0.62991 0.0
H144 H 0.16342 0.56463 0.57817 0.0
H145 H 0.22152 0.47347 0.31312 0.0
H146 H 0.22244 0.4748 0.41465 0.0
H147 H 0.20556 0.55963 0.41265 0.0
H148 H 0.20463 0.55853 0.31048 0.0
H149 H 0.17415 0.52767 0.49374 0.0
H150 H 0.26815 0.54742 0.43643 0.0
H151 H 0.31096 0.54095 0.3834 0.0
H152 H 0.31249 0.46158 0.45952 0.0
H153 H 0.26944 0.46738 0.5124 0.0
C154 C 0.2062 0.51912 0.75675 0.0
C155 C 0.21137 0.4929 0.77509 0.0
C156 C 0.20769 0.52555 0.69975 0.0
C157 C 0.21414 0.50575 0.66036 0.0
C158 C 0.21962 0.47971 0.67886 0.0
C159 C 0.21805 0.47329 0.73561 0.0
C160 C 0.2145 0.51155 0.59964 0.0
C161 C 0.23841 0.50802 0.56777 0.0
C162 C 0.19123 0.51933 0.5728 0.0
C163 C 0.16503 0.52233 0.60378 0.0
C164 C 0.15142 0.50017 0.63466 0.0
C165 C 0.12679 0.50321 0.66399 0.0
C166 C 0.11544 0.52824 0.66236 0.0
C167 C 0.12867 0.55026 0.63124 0.0
C168 C 0.15333 0.54734 0.6019 0.0
C169 C 0.21793 0.49243 0.33412 0.0
C170 C 0.21313 0.51594 0.30367 0.0
C171 C 0.21858 0.49318 0.39218 0.0
C172 C 0.21442 0.51742 0.42105 0.0
C173 C 0.20895 0.54077 0.39104 0.0
C174 C 0.20849 0.5401 0.33273 0.0
C175 C 0.21584 0.51804 0.48262 0.0
C176 C 0.19232 0.52278 0.5146 0.0
C177 C 0.23945 0.51132 0.50963 0.0
C178 C 0.26543 0.50776 0.47809 0.0
C179 C 0.27749 0.52849 0.44155 0.0
C180 C 0.30183 0.52496 0.41156 0.0
C181 C 0.31441 0.50085 0.41801 0.0
C182 C 0.30271 0.48024 0.45455 0.0
C183 C 0.27836 0.48366 0.48459 0.0
H184 H 0.33325 0.49816 0.39476 0.0
H185 H 0.09636 0.53056 0.68508 0.0
H186 H 0.49493 0.1665 0.77488 0.0
H187 H 0.48489 0.16776 0.67587 0.0
H188 H 0.4327 0.23222 0.70765 0.0
H189 H 0.44242 0.23075 0.80695 0.0
H190 H 0.41126 0.19696 0.6301 0.0
H191 H 0.49833 0.24778 0.66063 0.0
H192 H 0.5453 0.25539 0.69492 0.0
H193 H 0.56947 0.18972 0.5918 0.0
H194 H 0.52251 0.18146 0.55747 0.0
H195 H 0.4201 0.25066 0.35026 0.0
H196 H 0.42108 0.24406 0.45132 0.0
H197 H 0.47133 0.17747 0.42636 0.0
H198 H 0.47066 0.184 0.32559 0.0
H199 H 0.49255 0.21445 0.50091 0.0
H200 H 0.4046 0.16479 0.46873 0.0
H201 H 0.35762 0.15873 0.43418 0.0
H202 H 0.33516 0.22436 0.53938 0.0
H203 H 0.38214 0.23107 0.574 0.0
C204 C 0.48098 0.18063 0.76082 0.0
C205 C 0.46929 0.19837 0.79857 0.0
C206 C 0.47532 0.18139 0.7043 0.0
C207 C 0.45839 0.2004 0.68427 0.0
C208 C 0.44577 0.21736 0.72225 0.0
C209 C 0.45122 0.2164 0.77902 0.0
C210 C 0.45537 0.20371 0.62342 0.0
C211 C 0.429 0.20108 0.60186 0.0
C212 C 0.47854 0.20882 0.58654 0.0
C213 C 0.50684 0.21384 0.6069 0.0
C214 C 0.51361 0.23483 0.64557 0.0
C215 C 0.54024 0.23928 0.66497 0.0
C216 C 0.56034 0.223 0.64566 0.0
C217 C 0.55387 0.20229 0.60678 0.0
C218 C 0.52726 0.19773 0.58731 0.0
C219 C 0.43117 0.23447 0.36627 0.0
C220 C 0.44543 0.21797 0.32989 0.0
C221 C 0.4316 0.23064 0.42402 0.0
C222 C 0.44618 0.2102 0.44628 0.0
C223 C 0.45998 0.19339 0.41001 0.0
C224 C 0.45955 0.19715 0.3524 0.0
C225 C 0.44848 0.20728 0.50737 0.0
C226 C 0.47478 0.2102 0.52906 0.0
C227 C 0.42524 0.20267 0.54418 0.0
C228 C 0.39697 0.19861 0.52354 0.0
C229 C 0.38971 0.17809 0.48415 0.0
C230 C 0.36307 0.1745 0.46462 0.0
C231 C 0.34344 0.1912 0.48446 0.0
C232 C 0.3504 0.21146 0.52399 0.0
C233 C 0.37702 0.21515 0.54362 0.0
H234 H 0.32282 0.18839 0.46929 0.0
H235 H 0.58094 0.22648 0.66072 0.0
H236 H 0.75532 0.4931 0.84695 0.0
H237 H 0.75761 0.49286 0.74522 0.0
H238 H 0.82655 0.55546 0.74493 0.0
H239 H 0.82334 0.55678 0.84712 0.0
H240 H 0.79609 0.5656 0.66385 0.0
H241 H 0.83422 0.48516 0.72387 0.0
H242 H 0.83597 0.44211 0.77677 0.0
H243 H 0.76454 0.40569 0.69554 0.0
H244 H 0.76215 0.44866 0.64268 0.0
H245 H 0.82432 0.48053 0.39099 0.0
H246 H 0.8294 0.49059 0.48997 0.0
H247 H 0.76176 0.54039 0.48629 0.0
H248 H 0.75745 0.53117 0.3864 0.0
H249 H 0.79661 0.47545 0.56945 0.0
H250 H 0.76425 0.58631 0.59239 0.0
H251 H 0.76884 0.62996 0.53942 0.0
H252 H 0.84094 0.60664 0.45295 0.0
H253 H 0.83702 0.56306 0.50593 0.0
C254 C 0.77094 0.50685 0.82519 0.0
C255 C 0.78933 0.52477 0.85487 0.0
C256 C 0.7723 0.50663 0.767 0.0
C257 C 0.79267 0.52367 0.73726 0.0
C258 C 0.81071 0.54205 0.76687 0.0
C259 C 0.80894 0.54273 0.82521 0.0
C260 C 0.79538 0.5218 0.67546 0.0
C261 C 0.79629 0.5459 0.64315 0.0
C262 C 0.79638 0.4962 0.64829 0.0
C263 C 0.79789 0.47021 0.67962 0.0
C264 C 0.8188 0.46802 0.71751 0.0
C265 C 0.81991 0.44363 0.74747 0.0
C266 C 0.80035 0.4212 0.7396 0.0
C267 C 0.77967 0.42309 0.70162 0.0
C268 C 0.77845 0.44744 0.6716 0.0
C269 C 0.81093 0.4941 0.41116 0.0
C270 C 0.79064 0.50526 0.38118 0.0
C271 C 0.81376 0.49976 0.46774 0.0
C272 C 0.79602 0.5163 0.49584 0.0
C273 C 0.77609 0.52803 0.46549 0.0
C274 C 0.7736 0.52276 0.40843 0.0
C275 C 0.79699 0.51923 0.5575 0.0
C276 C 0.79664 0.49523 0.58991 0.0
C277 C 0.7975 0.545 0.58452 0.0
C278 C 0.80015 0.57129 0.55277 0.0
C279 C 0.78114 0.59055 0.56222 0.0
C280 C 0.78362 0.61527 0.53217 0.0
C281 C 0.80511 0.62103 0.49271 0.0
C282 C 0.82424 0.60211 0.48336 0.0
C283 C 0.82187 0.57738 0.51334 0.0
H284 H 0.80699 0.64017 0.46947 0.0
H285 H 0.80123 0.40234 0.76286 0.0
H286 H 0.53185 0.74834 0.77532 0.0
H287 H 0.53999 0.74877 0.67401 0.0
H288 H 0.54879 0.83767 0.67474 0.0
H289 H 0.53868 0.83695 0.77551 0.0
H290 H 0.51894 0.82351 0.59683 0.0
H291 H 0.60448 0.79534 0.64742 0.0
H292 H 0.63649 0.76813 0.6947 0.0
H293 H 0.60308 0.6953 0.61096 0.0
H294 H 0.57058 0.72198 0.56376 0.0
H295 H 0.5719 0.82839 0.31006 0.0
H296 H 0.57334 0.8298 0.41225 0.0
H297 H 0.52305 0.75208 0.42317 0.0
H298 H 0.52078 0.75089 0.32124 0.0
H299 H 0.57764 0.76296 0.49244 0.0
H300 H 0.48878 0.79503 0.45021 0.0
H301 H 0.46097 0.82566 0.40014 0.0
H302 H 0.50787 0.89633 0.46725 0.0
H303 H 0.53623 0.86605 0.51711 0.0
C304 C 0.53604 0.76788 0.75368 0.0
C305 C 0.53493 0.79261 0.78273 0.0
C306 C 0.54083 0.76819 0.69584 0.0
C307 C 0.54542 0.79329 0.66635 0.0
C308 C 0.54525 0.81802 0.69617 0.0
C309 C 0.5397 0.81767 0.75372 0.0
C310 C 0.54828 0.79375 0.60422 0.0
C311 C 0.53222 0.81056 0.57442 0.0
C312 C 0.56538 0.7768 0.57417 0.0
C313 C 0.58492 0.76064 0.6024 0.0
C314 C 0.60382 0.77348 0.63939 0.0
C315 C 0.62207 0.75816 0.66613 0.0
C316 C 0.62178 0.72999 0.65593 0.0
C317 C 0.60327 0.71711 0.61886 0.0
C318 C 0.58494 0.73233 0.59204 0.0
C319 C 0.56123 0.81157 0.33428 0.0
C320 C 0.54614 0.78957 0.30783 0.0
C321 C 0.56211 0.8124 0.39247 0.0
C322 C 0.5484 0.79098 0.4249 0.0
C323 C 0.53384 0.76871 0.39862 0.0
C324 C 0.53243 0.76816 0.34055 0.0
C325 C 0.5482 0.79236 0.48642 0.0
C326 C 0.5647 0.77596 0.51564 0.0
C327 C 0.53211 0.81016 0.516 0.0
C328 C 0.51479 0.82831 0.48683 0.0
C329 C 0.49331 0.8171 0.45388 0.0
C330 C 0.47742 0.83439 0.42563 0.0
C331 C 0.4827 0.86293 0.43038 0.0
C332 C 0.50383 0.87422 0.46355 0.0
C333 C 0.5198 0.85701 0.49184 0.0
H334 H 0.47036 0.87627 0.4085 0.0
H335 H 0.63593 0.71817 0.67668 0.0
H336 H 0.88756 0.53639 0.12531 0.0
H337 H 0.9374 0.53558 0.12588 0.0
H338 H 0.92978 0.45795 0.03921 0.0
H339 H 0.87977 0.45832 0.04069 0.0
H340 H 0.96413 0.45648 0.1212 0.0
H341 H 0.95277 0.51885 0.97176 0.0
H342 H 0.93615 0.55906 0.92686 0.0
H343 H 0.9806 0.61286 0.04114 0.0
H344 H 0.99717 0.57291 0.08728 0.0
H345 H 0.10371 0.45739 0.02753 0.0
H346 H 0.05383 0.45869 0.03102 0.0
H347 H 0.06281 0.52901 0.13981 0.0
H348 H 0.1128 0.52764 0.13654 0.0
H349 H 0.02825 0.53466 0.04824 0.0
H350 H 0.04025 0.47105 0.19586 0.0
H351 H 0.0572 0.43026 0.23774 0.0
H352 H 0.01176 0.37802 0.12226 0.0
H353 H 0.99487 0.41857 0.07907 0.0
C354 C 0.89664 0.5192 0.10648 0.0
C355 C 0.88008 0.49748 0.08273 0.0
C356 C 0.92505 0.51881 0.10647 0.0
C357 C 0.93736 0.49687 0.08193 0.0
C358 C 0.92073 0.47512 0.05822 0.0
C359 C 0.89228 0.47542 0.05865 0.0
C360 C 0.96754 0.49641 0.08177 0.0
C361 C 0.97813 0.47342 0.10454 0.0
C362 C 0.98582 0.51878 0.06114 0.0
C363 C 0.97599 0.54286 0.03332 0.0
C364 C 0.95883 0.53924 0.9876 0.0
C365 C 0.94945 0.56199 0.96187 0.0
C366 C 0.95726 0.5885 0.98122 0.0
C367 C 0.97454 0.59231 0.02624 0.0
C368 C 0.98395 0.56963 0.05217 0.0
C369 C 0.09495 0.47307 0.05217 0.0
C370 C 0.11185 0.49241 0.08183 0.0
C371 C 0.06656 0.47374 0.05431 0.0
C372 C 0.05473 0.49387 0.08586 0.0
C373 C 0.07163 0.51332 0.1153 0.0
C374 C 0.10003 0.51245 0.11367 0.0
C375 C 0.02468 0.49474 0.08744 0.0
C376 C 0.01417 0.51778 0.06493 0.0
C377 C 0.00648 0.47233 0.10782 0.0
C378 C 0.01651 0.44789 0.13386 0.0
C379 C 0.03407 0.45089 0.17905 0.0
C380 C 0.04363 0.42781 0.20309 0.0
C381 C 0.03562 0.40157 0.18258 0.0
C382 C 0.01798 0.39836 0.13806 0.0
C383 C 0.00839 0.42139 0.11381 0.0
H384 H 0.04304 0.38371 0.20126 0.0
H385 H 0.94998 0.60608 0.96125 0.0
H386 H 0.54345 0.89142 0.1544 0.0
H387 H 0.53474 0.93989 0.15958 0.0
H388 H 0.47569 0.92631 0.03065 0.0
H389 H 0.48478 0.87813 0.02484 0.0
H390 H 0.50673 0.97263 0.01166 0.0
H391 H 0.45654 0.9306 0.17091 0.0
H392 H 0.45093 0.90344 0.25807 0.0
H393 H 0.50909 0.96151 0.33642 0.0
H394 H 0.51538 0.9888 0.24941 0.0
H395 H 0.43992 0.09305 0.04636 0.0
H396 H 0.4481 0.04438 0.04815 0.0
H397 H 0.51298 0.06311 0.16326 0.0
H398 H 0.50498 0.1118 0.16104 0.0
H399 H 0.47975 0.01478 0.1907 0.0
H400 H 0.52928 0.05686 0.03075 0.0
H401 H 0.53404 0.08408 0.94368 0.0
H402 H 0.47597 0.02545 0.86657 0.0
H403 H 0.47046 0.99813 0.9536 0.0
C404 C 0.52861 0.8989 0.12733 0.0
C405 C 0.51482 0.88124 0.08914 0.0
C406 C 0.52359 0.9265 0.13036 0.0
C407 C 0.50431 0.93666 0.09594 0.0
C408 C 0.49069 0.91896 0.0575 0.0
C409 C 0.49592 0.8915 0.05411 0.0
C410 C 0.49827 0.96572 0.09965 0.0
C411 C 0.50049 0.98171 0.05071 0.0
C412 C 0.4907 0.97776 0.15083 0.0
C413 C 0.48662 0.9616 0.20346 0.0
C414 C 0.46826 0.93749 0.20661 0.0
C415 C 0.46495 0.92208 0.256 0.0
C416 C 0.47969 0.93071 0.30271 0.0
C417 C 0.49771 0.95483 0.30018 0.0
C418 C 0.50114 0.97028 0.25085 0.0
C419 C 0.45584 0.08665 0.0721 0.0
C420 C 0.472 0.106 0.10317 0.0
C421 C 0.46046 0.05895 0.07321 0.0
C422 C 0.48134 0.05026 0.10541 0.0
C423 C 0.49678 0.06943 0.13821 0.0
C424 C 0.49221 0.09715 0.13692 0.0
C425 C 0.48796 0.02144 0.10268 0.0
C426 C 0.48595 0.00559 0.15174 0.0
C427 C 0.49561 0.00945 0.0516 0.0
C428 C 0.49926 0.02558 0.99889 0.0
C429 C 0.51737 0.04987 0.99537 0.0
C430 C 0.52021 0.06531 0.94601 0.0
C431 C 0.50527 0.05654 0.89967 0.0
C432 C 0.4875 0.03224 0.90254 0.0
C433 C 0.48452 0.01677 0.95186 0.0
H434 H 0.50749 0.06852 0.86149 0.0
H435 H 0.47711 0.91876 0.3409 0.0
H436 H 0.39278 0.25479 0.16218 0.0
H437 H 0.35739 0.28595 0.15478 0.0
H438 H 0.37341 0.29219 0.97698 0.0
H439 H 0.40919 0.26117 0.98398 0.0
H440 H 0.37291 0.34221 0.02472 0.0
H441 H 0.3145 0.2576 0.02853 0.0
H442 H 0.29605 0.21174 0.0639 0.0
H443 H 0.2717 0.24731 0.21904 0.0
H444 H 0.29036 0.29336 0.1849 0.0
H445 H 0.2627 0.42073 0.97851 0.0
H446 H 0.29046 0.38209 0.97589 0.0
H447 H 0.28258 0.3749 0.15508 0.0
H448 H 0.25471 0.4136 0.15831 0.0
H449 H 0.27733 0.32396 0.10099 0.0
H450 H 0.33873 0.40737 0.10073 0.0
H451 H 0.35735 0.45349 0.067 0.0
H452 H 0.37638 0.42004 0.90657 0.0
H453 H 0.35749 0.37375 0.93914 0.0
C454 C 0.38864 0.26251 0.12133 0.0
C455 C 0.40394 0.25554 0.07368 0.0
C456 C 0.36826 0.28023 0.11717 0.0
C457 C 0.36265 0.29125 0.06528 0.0
C458 C 0.37742 0.28387 0.01741 0.0
C459 C 0.3978 0.26607 0.0215 0.0
C460 C 0.34261 0.31183 0.06181 0.0
C461 C 0.35185 0.33802 0.04035 0.0
C462 C 0.31536 0.30658 0.08363 0.0
C463 C 0.30405 0.27892 0.10429 0.0
C464 C 0.30541 0.25562 0.07036 0.0
C465 C 0.29488 0.2296 0.09015 0.0
C466 C 0.28277 0.22661 0.14372 0.0
C467 C 0.28111 0.24966 0.17756 0.0
C468 C 0.29163 0.27573 0.15798 0.0
C469 C 0.26661 0.41081 0.01741 0.0
C470 C 0.25666 0.42043 0.06871 0.0
C471 C 0.28253 0.38875 0.01578 0.0
C472 C 0.28877 0.37587 0.06532 0.0
C473 C 0.27798 0.38463 0.1164 0.0
C474 C 0.26216 0.40681 0.11815 0.0
C475 C 0.30771 0.35421 0.06404 0.0
C476 C 0.2983 0.32794 0.08478 0.0
C477 C 0.33486 0.35937 0.04176 0.0
C478 C 0.34641 0.38715 0.02218 0.0
C479 C 0.34667 0.40988 0.05811 0.0
C480 C 0.35731 0.43605 0.03924 0.0
C481 C 0.36797 0.43971 0.98463 0.0
C482 C 0.36808 0.41718 0.94883 0.0
C483 C 0.35742 0.39097 0.96749 0.0
H484 H 0.37619 0.45998 0.97009 0.0
H485 H 0.27462 0.20644 0.15897 0.0
H486 H 0.72369 0.42254 0.00435 0.0
H487 H 0.68809 0.38364 0.00716 0.0
H488 H 0.66937 0.40035 0.18014 0.0
H489 H 0.70555 0.43867 0.17821 0.0
H490 H 0.66788 0.34701 0.16526 0.0
H491 H 0.62994 0.42105 0.07243 0.0
H492 H 0.62875 0.45733 0.00122 0.0
H493 H 0.62923 0.3969 0.87156 0.0
H494 H 0.63077 0.36029 0.942 0.0
H495 H 0.53352 0.27511 0.18504 0.0
H496 H 0.57388 0.309 0.18494 0.0
H497 H 0.59256 0.29004 0.01304 0.0
H498 H 0.552 0.25665 0.01237 0.0
H499 H 0.59482 0.34364 0.02696 0.0
H500 H 0.63077 0.26915 0.12161 0.0
H501 H 0.63123 0.2333 0.19394 0.0
H502 H 0.63348 0.29492 0.32153 0.0
H503 H 0.63268 0.33112 0.24999 0.0
C504 C 0.71206 0.41788 0.04305 0.0
C505 C 0.71731 0.43384 0.09093 0.0
C506 C 0.69165 0.39568 0.04455 0.0
C507 C 0.6757 0.38938 0.0936 0.0
C508 C 0.68136 0.40486 0.14181 0.0
C509 C 0.70201 0.42682 0.14056 0.0
C510 C 0.65269 0.36709 0.09441 0.0
C511 C 0.65174 0.34642 0.13538 0.0
C512 C 0.63189 0.36602 0.05482 0.0
C513 C 0.63073 0.38798 0.01245 0.0
C514 C 0.62997 0.41553 0.02871 0.0
C515 C 0.6292 0.43614 0.9885 0.0
C516 C 0.62898 0.42943 0.9319 0.0
C517 C 0.62944 0.40207 0.91541 0.0
C518 C 0.63023 0.38138 0.95546 0.0
C519 C 0.54637 0.27796 0.14738 0.0
C520 C 0.53947 0.26325 0.09866 0.0
C521 C 0.56951 0.29726 0.14745 0.0
C522 C 0.58637 0.30191 0.09908 0.0
C523 C 0.57982 0.28683 0.0508 0.0
C524 C 0.55662 0.26772 0.05054 0.0
C525 C 0.61002 0.32349 0.09769 0.0
C526 C 0.61103 0.34411 0.05667 0.0
C527 C 0.63075 0.32455 0.1374 0.0
C528 C 0.63143 0.30282 0.18045 0.0
C529 C 0.63117 0.27504 0.16511 0.0
C530 C 0.63153 0.25466 0.20596 0.0
C531 C 0.63232 0.26182 0.2623 0.0
C532 C 0.63284 0.2894 0.27788 0.0
C533 C 0.63247 0.30986 0.2372 0.0
H534 H 0.63258 0.24601 0.29386 0.0
H535 H 0.62841 0.44542 0.90083 0.0
H536 H 0.59824 0.7427 0.15959 0.0
H537 H 0.63509 0.71316 0.16487 0.0
H538 H 0.63157 0.69852 0.98783 0.0
H539 H 0.59476 0.72851 0.98194 0.0
H540 H 0.62991 0.65971 0.14348 0.0
H541 H 0.69432 0.68184 0.93843 0.0
H542 H 0.70895 0.72081 0.875 0.0
H543 H 0.70166 0.77744 0.01005 0.0
H544 H 0.68734 0.73881 0.07444 0.0
H545 H 0.73354 0.57101 0.00463 0.0
H546 H 0.70765 0.61081 0.00261 0.0
H547 H 0.71353 0.61911 0.18095 0.0
H548 H 0.73896 0.57864 0.18366 0.0
H549 H 0.71639 0.66344 0.02879 0.0
H550 H 0.65416 0.63984 0.23487 0.0
H551 H 0.63822 0.60019 0.29576 0.0
H552 H 0.63927 0.54607 0.15505 0.0
H553 H 0.65487 0.58543 0.09327 0.0
C554 C 0.60552 0.73354 0.12151 0.0
C555 C 0.59336 0.73775 0.07036 0.0
C556 C 0.62661 0.71664 0.12468 0.0
C557 C 0.63607 0.7036 0.07685 0.0
C558 C 0.62481 0.70863 0.02521 0.0
C559 C 0.60371 0.72571 0.02192 0.0
C560 C 0.65596 0.68296 0.08215 0.0
C561 C 0.64908 0.66083 0.11915 0.0
C562 C 0.68059 0.68402 0.04933 0.0
C563 C 0.6895 0.70742 0.01113 0.0
C564 C 0.69594 0.7026 0.95464 0.0
C565 C 0.70416 0.72464 0.91851 0.0
C566 C 0.70615 0.75159 0.93845 0.0
C567 C 0.7 0.75656 0.99461 0.0
C568 C 0.69179 0.7346 0.03092 0.0
C569 C 0.72951 0.58132 0.04353 0.0
C570 C 0.73804 0.57138 0.09447 0.0
C571 C 0.7148 0.60422 0.04219 0.0
C572 C 0.70832 0.61773 0.09165 0.0
C573 C 0.71789 0.60868 0.14234 0.0
C574 C 0.73247 0.58559 0.14382 0.0
C575 C 0.69027 0.64024 0.09008 0.0
C576 C 0.69739 0.66258 0.05362 0.0
C577 C 0.66569 0.63933 0.12306 0.0
C578 C 0.656 0.61554 0.15965 0.0
C579 C 0.65092 0.61948 0.21695 0.0
C580 C 0.64195 0.59706 0.2516 0.0
C581 C 0.63784 0.57062 0.22932 0.0
C582 C 0.64257 0.56655 0.17229 0.0
C583 C 0.6515 0.5889 0.13746 0.0
H584 H 0.63093 0.55329 0.25623 0.0
H585 H 0.7125 0.76862 0.9104 0.0
H586 H 0.45111 0.72748 0.98317 0.0
H587 H 0.41109 0.69345 0.97729 0.0
H588 H 0.41509 0.67553 0.15273 0.0
H589 H 0.45512 0.7095 0.15915 0.0
H590 H 0.40927 0.6287 0.08779 0.0
H591 H 0.36728 0.71287 0.11 0.0
H592 H 0.35931 0.76048 0.08683 0.0
H593 H 0.33377 0.73477 0.92403 0.0
H594 H 0.34197 0.68704 0.94596 0.0
H595 H 0.28144 0.55511 0.14778 0.0
H596 H 0.31906 0.59182 0.1447 0.0
H597 H 0.31029 0.60135 0.96772 0.0
H598 H 0.27239 0.56439 0.97016 0.0
H599 H 0.31883 0.65197 0.02658 0.0
H600 H 0.35923 0.56773 0.00466 0.0
H601 H 0.3667 0.51994 0.02744 0.0
H602 H 0.39541 0.54559 0.18807 0.0
H603 H 0.38769 0.5935 0.16659 0.0
C604 C 0.44346 0.71636 0.02059 0.0
C605 C 0.45632 0.72122 0.07167 0.0
C606 C 0.42053 0.697 0.01715 0.0
C607 C 0.41009 0.6821 0.06463 0.0
C608 C 0.42287 0.68684 0.11562 0.0
C609 C 0.44567 0.70634 0.11922 0.0
C610 C 0.38614 0.66115 0.06103 0.0
C611 C 0.38942 0.63384 0.07501 0.0
C612 C 0.36051 0.66777 0.04267 0.0
C613 C 0.35554 0.69644 0.0294 0.0
C614 C 0.36021 0.71741 0.06907 0.0
C615 C 0.3556 0.74441 0.0562 0.0
C616 C 0.34612 0.75067 0.00393 0.0
C617 C 0.34116 0.72991 0.96446 0.0
C618 C 0.34577 0.70287 0.97711 0.0
C619 C 0.28726 0.56508 0.10814 0.0
C620 C 0.27402 0.55659 0.05906 0.0
C621 C 0.30885 0.58604 0.10651 0.0
C622 C 0.31763 0.599 0.05589 0.0
C623 C 0.30382 0.59146 0.00714 0.0
C624 C 0.28226 0.57029 0.00862 0.0
C625 C 0.34192 0.61968 0.05413 0.0
C626 C 0.33874 0.64685 0.03904 0.0
C627 C 0.36772 0.61295 0.07125 0.0
C628 C 0.37264 0.58419 0.0842 0.0
C629 C 0.36693 0.56316 0.04503 0.0
C630 C 0.37124 0.53605 0.05767 0.0
C631 C 0.38146 0.52972 0.10922 0.0
C632 C 0.38746 0.55052 0.14817 0.0
C633 C 0.38315 0.57766 0.13577 0.0
H634 H 0.38478 0.50872 0.11893 0.0
H635 H 0.34256 0.77158 0.99405 0.0
loop_
_geom_bond_atom_site_label_1
_geom_bond_atom_site_label_2
_geom_bond_distance
_geom_bond_site_symmetry_2
_ccdc_geom_bond_type
Co0 O3 1.970 . S
Co0 N17 1.989 . S
Co0 O25 1.967 . S
Co0 O32 1.920 . S
Co1 O4 1.966 . S
Co1 N10 2.022 1_554 S
Co1 N18 1.993 . S
Co1 O26 1.941 . S
C2 O3 1.258 . S
C2 O4 1.263 . S
O3 Co0 1.970 . S
O3 C2 1.258 . S
O4 Co1 1.966 . S
O4 C2 1.263 . S
C5 O6 1.235 . S
C5 O32 1.289 . S
O6 C5 1.235 . S
C7 C9 1.400 . S
C7 N10 1.351 . S
C7 C12 1.501 . S
C8 C9 1.387 . S
C8 N11 1.341 . S
C9 C7 1.400 . S
C9 C8 1.387 . S
N10 Co1 2.022 1_556 S
N10 C7 1.351 . S
N10 N11 1.365 . S
N11 C8 1.341 . S
N11 N10 1.365 . S
N11 H31 0.862 . S
C12 C7 1.501 . S
C12 H13 0.961 . S
C12 H14 0.961 . S
C12 H15 0.960 . S
H13 C12 0.961 . S
H14 C12 0.961 . S
H15 C12 0.960 . S
C16 N17 1.342 . S
C16 C20 1.401 . S
C16 C21 1.499 . S
N17 Co0 1.989 . S
N17 C16 1.342 . S
N17 N18 1.388 . S
N18 Co1 1.993 . S
N18 N17 1.388 . S
N18 C19 1.346 . S
C19 N18 1.346 . S
C19 C20 1.396 . S
C19 C29 1.510 1_554 S
C20 C16 1.401 . S
C20 C19 1.396 . S
C21 C16 1.499 . S
C21 H22 0.959 . S
C21 H23 0.960 . S
C21 H24 0.961 . S
H22 C21 0.959 . S
H23 C21 0.960 . S
H24 C21 0.961 . S
O25 Co0 1.967 . S
O25 C33 1.258 . S
O26 Co1 1.941 . S
O26 C33 1.266 . S
H27 C29 0.959 . S
H28 C29 0.961 . S
C29 C19 1.510 1_556 S
C29 H27 0.959 . S
C29 H28 0.961 . S
C29 H30 0.960 . S
H30 C29 0.960 . S
H31 N11 0.862 . S
O32 Co0 1.920 . S
O32 C5 1.289 . S
C33 O25 1.258 . S
C33 O26 1.266 . S
Co34 O37 1.970 . S
Co34 N51 1.989 . S
Co34 O59 1.967 . S
Co34 O66 1.920 . S
Co35 O38 1.966 . S
Co35 N44 2.022 1_554 S
Co35 N52 1.993 . S
Co35 O60 1.941 . S
C36 O37 1.258 . S
C36 O38 1.263 . S
O37 Co34 1.970 . S
O37 C36 1.258 . S
O38 Co35 1.966 . S
O38 C36 1.263 . S
C39 O40 1.235 . S
C39 O66 1.289 . S
O40 C39 1.235 . S
C41 C43 1.400 . S
C41 N44 1.351 . S
C41 C46 1.501 . S
C42 C43 1.387 . S
C42 N45 1.341 . S
C43 C41 1.400 . S
C43 C42 1.387 . S
N44 Co35 2.022 1_556 S
N44 C41 1.351 . S
N44 N45 1.365 . S
N45 C42 1.341 . S
N45 N44 1.365 . S
N45 H65 0.862 . S
C46 C41 1.501 . S
C46 H47 0.961 . S
C46 H48 0.961 . S
C46 H49 0.960 . S
H47 C46 0.961 . S
H48 C46 0.961 . S
H49 C46 0.960 . S
C50 N51 1.342 . S
C50 C54 1.401 . S
C50 C55 1.499 . S
N51 Co34 1.989 . S
N51 C50 1.342 . S
N51 N52 1.388 . S
N52 Co35 1.993 . S
N52 N51 1.388 . S
N52 C53 1.346 . S
C53 N52 1.346 . S
C53 C54 1.396 . S
C53 C63 1.510 1_554 S
C54 C50 1.401 . S
C54 C53 1.396 . S
C55 C50 1.499 . S
C55 H56 0.959 . S
C55 H57 0.960 . S
C55 H58 0.961 . S
H56 C55 0.959 . S
H57 C55 0.960 . S
H58 C55 0.961 . S
O59 Co34 1.967 . S
O59 C67 1.258 . S
O60 Co35 1.941 . S
O60 C67 1.266 . S
H61 C63 0.959 . S
H62 C63 0.961 . S
C63 C53 1.510 1_556 S
C63 H61 0.959 . S
C63 H62 0.961 . S
C63 H64 0.960 . S
H64 C63 0.960 . S
H65 N45 0.862 . S
O66 Co34 1.920 . S
O66 C39 1.289 . S
C67 O59 1.258 . S
C67 O60 1.266 . S
Co68 O71 1.970 . S
Co68 N85 1.989 . S
Co68 O93 1.967 . S
Co68 O100 1.920 1_554 S
Co69 O72 1.966 . S
Co69 N78 2.022 . S
Co69 N86 1.993 . S
Co69 O94 1.941 . S
C70 O71 1.258 . S
C70 O72 1.263 . S
O71 Co68 1.970 . S
O71 C70 1.258 . S
O72 Co69 1.966 . S
O72 C70 1.263 . S
C73 O74 1.235 . S
C73 O100 1.289 . S
O74 C73 1.235 . S
C75 C77 1.400 . S
C75 N78 1.351 . S
C75 C80 1.501 . S
C76 C77 1.387 . S
C76 N79 1.341 . S
C77 C75 1.400 . S
C77 C76 1.387 . S
N78 Co69 2.022 . S
N78 C75 1.351 . S
N78 N79 1.365 . S
N79 C76 1.341 . S
N79 N78 1.365 . S
N79 H99 0.862 . S
C80 C75 1.501 . S
C80 H81 0.961 . S
C80 H82 0.961 . S
C80 H83 0.960 . S
H81 C80 0.961 . S
H82 C80 0.961 . S
H83 C80 0.960 . S
C84 N85 1.342 . S
C84 C88 1.401 . S
C84 C89 1.499 . S
N85 Co68 1.989 . S
N85 C84 1.342 . S
N85 N86 1.388 . S
N86 Co69 1.993 . S
N86 N85 1.388 . S
N86 C87 1.346 . S
C87 N86 1.346 . S
C87 C88 1.396 . S
C87 C97 1.510 . S
C88 C84 1.401 . S
C88 C87 1.396 . S
C89 C84 1.499 . S
C89 H90 0.959 1_554 S
C89 H91 0.960 1_554 S
C89 H92 0.961 1_554 S
H90 C89 0.959 1_556 S
H91 C89 0.960 1_556 S
H92 C89 0.961 1_556 S
O93 Co68 1.967 . S
O93 C101 1.258 . S
O94 Co69 1.941 . S
O94 C101 1.266 . S
H95 C97 0.959 . S
H96 C97 0.961 . S
C97 C87 1.510 . S
C97 H95 0.959 . S
C97 H96 0.961 . S
C97 H98 0.960 . S
H98 C97 0.960 . S
H99 N79 0.862 . S
O100 Co68 1.920 1_556 S
O100 C73 1.289 . S
C101 O93 1.258 . S
C101 O94 1.266 . S
Co102 O105 1.970 . S
Co102 N119 1.989 . S
Co102 O127 1.967 . S
Co102 O134 1.920 . S
Co103 O106 1.966 1_556 S
Co103 N112 2.022 . S
Co103 N120 1.993 1_556 S
Co103 O128 1.941 1_556 S
C104 O105 1.258 . S
C104 O106 1.263 . S
O105 Co102 1.970 . S
O105 C104 1.258 . S
O106 Co103 1.966 1_554 S
O106 C104 1.263 . S
C107 O108 1.235 . S
C107 O134 1.289 . S
O108 C107 1.235 . S
C109 C111 1.400 . S
C109 N112 1.351 . S
C109 C114 1.501 . S
C110 C111 1.387 . S
C110 N113 1.341 . S
C111 C109 1.400 . S
C111 C110 1.387 . S
N112 Co103 2.022 . S
N112 C109 1.351 . S
N112 N113 1.365 . S
N113 C110 1.341 . S
N113 N112 1.365 . S
N113 H133 0.862 . S
C114 C109 1.501 . S
C114 H115 0.961 . S
C114 H116 0.961 . S
C114 H117 0.960 . S
H115 C114 0.961 . S
H116 C114 0.961 . S
H117 C114 0.960 . S
C118 N119 1.342 . S
C118 C122 1.401 . S
C118 C123 1.499 . S
N119 Co102 1.989 . S
N119 C118 1.342 . S
N119 N120 1.388 . S
N120 Co103 1.993 1_554 S
N120 N119 1.388 . S
N120 C121 1.346 . S
C121 N120 1.346 . S
C121 C122 1.396 . S
C121 C131 1.510 1_554 S
C122 C118 1.401 . S
C122 C121 1.396 . S
C123 C118 1.499 . S
C123 H124 0.959 . S
C123 H125 0.960 . S
C123 H126 0.961 . S
H124 C123 0.959 . S
H125 C123 0.960 . S
H126 C123 0.961 . S
O127 Co102 1.967 . S
O127 C135 1.258 . S
O128 Co103 1.941 1_554 S
O128 C135 1.266 . S
H129 C131 0.959 . S
H130 C131 0.961 . S
C131 C121 1.510 1_556 S
C131 H129 0.959 . S
C131 H130 0.961 . S
C131 H132 0.960 . S
H132 C131 0.960 . S
H133 N113 0.862 . S
O134 Co102 1.920 . S
O134 C107 1.289 . S
C135 O127 1.258 . S
C135 O128 1.266 . S
H136 C154 0.951 . S
H137 C156 0.951 . S
H138 C158 0.950 . S
H139 C159 0.950 . S
H140 C161 0.950 . S
H141 C164 0.950 . S
H142 C165 0.950 . S
H143 C167 0.950 . S
H144 C168 0.950 . S
H145 C169 0.951 . S
H146 C171 0.951 . S
H147 C173 0.950 . S
H148 C174 0.950 . S
H149 C176 0.950 . S
H150 C179 0.950 . S
H151 C180 0.950 . S
H152 C182 0.950 . S
H153 C183 0.950 . S
C154 H136 0.951 . S
C154 C155 1.366 . S
C154 C156 1.388 . S
C155 C154 1.366 . S
C155 C159 1.385 . S
C156 H137 0.951 . S
C156 C154 1.388 . S
C156 C157 1.366 . S
C157 C156 1.366 . S
C157 C158 1.414 . S
C157 C160 1.499 . S
C158 H138 0.950 . S
C158 C157 1.414 . S
C158 C159 1.374 . S
C159 H139 0.950 . S
C159 C155 1.385 . S
C159 C158 1.374 . S
C160 C157 1.499 . S
C160 C161 1.373 . S
C160 C162 1.389 . S
C161 H140 0.950 . S
C161 C160 1.373 . S
C161 C177 1.377 . S
C162 C160 1.389 . S
C162 C163 1.524 . S
C162 C176 1.377 . S
C163 C162 1.524 . S
C163 C164 1.397 . S
C163 C168 1.363 . S
C164 H141 0.950 . S
C164 C163 1.397 . S
C164 C165 1.334 . S
C165 H142 0.950 . S
C165 C164 1.334 . S
C165 C166 1.287 . S
C166 C165 1.287 . S
C166 C167 1.524 . S
C166 H185 0.913 . S
C167 H143 0.950 . S
C167 C166 1.524 . S
C167 C168 1.415 . S
C168 H144 0.950 . S
C168 C163 1.363 . S
C168 C167 1.415 . S
C169 H145 0.951 . S
C169 C170 1.366 . S
C169 C171 1.388 . S
C170 C169 1.366 . S
C170 C174 1.385 . S
C171 H146 0.951 . S
C171 C169 1.388 . S
C171 C172 1.366 . S
C172 C171 1.366 . S
C172 C173 1.414 . S
C172 C175 1.499 . S
C173 H147 0.950 . S
C173 C172 1.414 . S
C173 C174 1.374 . S
C174 H148 0.950 . S
C174 C170 1.385 . S
C174 C173 1.374 . S
C175 C172 1.499 . S
C175 C176 1.373 . S
C175 C177 1.389 . S
C176 H149 0.950 . S
C176 C162 1.377 . S
C176 C175 1.373 . S
C177 C161 1.377 . S
C177 C175 1.389 . S
C177 C178 1.524 . S
C178 C177 1.524 . S
C178 C179 1.397 . S
C178 C183 1.363 . S
C179 H150 0.950 . S
C179 C178 1.397 . S
C179 C180 1.334 . S
C180 H151 0.950 . S
C180 C179 1.334 . S
C180 C181 1.287 . S
C181 C180 1.287 . S
C181 C182 1.524 . S
C181 H184 0.999 . S
C182 H152 0.950 . S
C182 C181 1.524 . S
C182 C183 1.415 . S
C183 H153 0.950 . S
C183 C178 1.363 . S
C183 C182 1.415 . S
H184 C181 0.999 . S
H185 C166 0.913 . S
H186 C204 0.951 . S
H187 C206 0.951 . S
H188 C208 0.950 . S
H189 C209 0.950 . S
H190 C211 0.950 . S
H191 C214 0.950 . S
H192 C215 0.950 . S
H193 C217 0.950 . S
H194 C218 0.950 . S
H195 C219 0.951 . S
H196 C221 0.951 . S
H197 C223 0.950 . S
H198 C224 0.950 . S
H199 C226 0.950 . S
H200 C229 0.950 . S
H201 C230 0.950 . S
H202 C232 0.950 . S
H203 C233 0.950 . S
C204 H186 0.951 . S
C204 C205 1.366 . S
C204 C206 1.388 . S
C205 C204 1.366 . S
C205 C209 1.385 . S
C206 H187 0.951 . S
C206 C204 1.388 . S
C206 C207 1.366 . S
C207 C206 1.366 . S
C207 C208 1.414 . S
C207 C210 1.499 . S
C208 H188 0.950 . S
C208 C207 1.414 . S
C208 C209 1.374 . S
C209 H189 0.950 . S
C209 C205 1.385 . S
C209 C208 1.374 . S
C210 C207 1.499 . S
C210 C211 1.373 . S
C210 C212 1.389 . S
C211 H190 0.950 . S
C211 C210 1.373 . S
C211 C227 1.377 . S
C212 C210 1.389 . S
C212 C213 1.524 . S
C212 C226 1.377 . S
C213 C212 1.524 . S
C213 C214 1.397 . S
C213 C218 1.363 . S
C214 H191 0.950 . S
C214 C213 1.397 . S
C214 C215 1.334 . S
C215 H192 0.950 . S
C215 C214 1.334 . S
C215 C216 1.287 . S
C216 C215 1.287 . S
C216 C217 1.524 . S
C216 H235 0.913 . S
C217 H193 0.950 . S
C217 C216 1.524 . S
C217 C218 1.415 . S
C218 H194 0.950 . S
C218 C213 1.363 . S
C218 C217 1.415 . S
C219 H195 0.951 . S
C219 C220 1.366 . S
C219 C221 1.388 . S
C220 C219 1.366 . S
C220 C224 1.385 . S
C221 H196 0.951 . S
C221 C219 1.388 . S
C221 C222 1.366 . S
C222 C221 1.366 . S
C222 C223 1.414 . S
C222 C225 1.499 . S
C223 H197 0.950 . S
C223 C222 1.414 . S
C223 C224 1.374 . S
C224 H198 0.950 . S
C224 C220 1.385 . S
C224 C223 1.374 . S
C225 C222 1.499 . S
C225 C226 1.373 . S
C225 C227 1.389 . S
C226 H199 0.950 . S
C226 C212 1.377 . S
C226 C225 1.373 . S
C227 C211 1.377 . S
C227 C225 1.389 . S
C227 C228 1.524 . S
C228 C227 1.524 . S
C228 C229 1.397 . S
C228 C233 1.363 . S
C229 H200 0.950 . S
C229 C228 1.397 . S
C229 C230 1.334 . S
C230 H201 0.950 . S
C230 C229 1.334 . S
C230 C231 1.287 . S
C231 C230 1.287 . S
C231 C232 1.524 . S
C231 H234 0.999 . S
C232 H202 0.950 . S
C232 C231 1.524 . S
C232 C233 1.415 . S
C233 H203 0.950 . S
C233 C228 1.363 . S
C233 C232 1.415 . S
H234 C231 0.999 . S
H235 C216 0.913 . S
H236 C254 0.951 . S
H237 C256 0.951 . S
H238 C258 0.950 . S
H239 C259 0.950 . S
H240 C261 0.950 . S
H241 C264 0.950 . S
H242 C265 0.950 . S
H243 C267 0.950 . S
H244 C268 0.950 . S
H245 C269 0.951 . S
H246 C271 0.951 . S
H247 C273 0.950 . S
H248 C274 0.950 . S
H249 C276 0.950 . S
H250 C279 0.950 . S
H251 C280 0.950 . S
H252 C282 0.950 . S
H253 C283 0.950 . S
C254 H236 0.951 . S
C254 C255 1.366 . S
C254 C256 1.388 . S
C255 C254 1.366 . S
C255 C259 1.385 . S
C256 H237 0.951 . S
C256 C254 1.388 . S
C256 C257 1.366 . S
C257 C256 1.366 . S
C257 C258 1.414 . S
C257 C260 1.499 . S
C258 H238 0.950 . S
C258 C257 1.414 . S
C258 C259 1.374 . S
C259 H239 0.950 . S
C259 C255 1.385 . S
C259 C258 1.374 . S
C260 C257 1.499 . S
C260 C261 1.373 . S
C260 C262 1.389 . S
C261 H240 0.950 . S
C261 C260 1.373 . S
C261 C277 1.377 . S
C262 C260 1.389 . S
C262 C263 1.524 . S
C262 C276 1.377 . S
C263 C262 1.524 . S
C263 C264 1.397 . S
C263 C268 1.363 . S
C264 H241 0.950 . S
C264 C263 1.397 . S
C264 C265 1.334 . S
C265 H242 0.950 . S
C265 C264 1.334 . S
C265 C266 1.287 . S
C266 C265 1.287 . S
C266 C267 1.524 . S
C266 H285 0.913 . S
C267 H243 0.950 . S
C267 C266 1.524 . S
C267 C268 1.415 . S
C268 H244 0.950 . S
C268 C263 1.363 . S
C268 C267 1.415 . S
C269 H245 0.951 . S
C269 C270 1.366 . S
C269 C271 1.388 . S
C270 C269 1.366 . S
C270 C274 1.385 . S
C271 H246 0.951 . S
C271 C269 1.388 . S
C271 C272 1.366 . S
C272 C271 1.366 . S
C272 C273 1.414 . S
C272 C275 1.499 . S
C273 H247 0.950 . S
C273 C272 1.414 . S
C273 C274 1.374 . S
C274 H248 0.950 . S
C274 C270 1.385 . S
C274 C273 1.374 . S
C275 C272 1.499 . S
C275 C276 1.373 . S
C275 C277 1.389 . S
C276 H249 0.950 . S
C276 C262 1.377 . S
C276 C275 1.373 . S
C277 C261 1.377 . S
C277 C275 1.389 . S
C277 C278 1.524 . S
C278 C277 1.524 . S
C278 C279 1.397 . S
C278 C283 1.363 . S
C279 H250 0.950 . S
C279 C278 1.397 . S
C279 C280 1.334 . S
C280 H251 0.950 . S
C280 C279 1.334 . S
C280 C281 1.287 . S
C281 C280 1.287 . S
C281 C282 1.524 . S
C281 H284 0.999 . S
C282 H252 0.950 . S
C282 C281 1.524 . S
C282 C283 1.415 . S
C283 H253 0.950 . S
C283 C278 1.363 . S
C283 C282 1.415 . S
H284 C281 0.999 . S
H285 C266 0.913 . S
H286 C304 0.951 . S
H287 C306 0.951 . S
H288 C308 0.950 . S
H289 C309 0.950 . S
H290 C311 0.950 . S
H291 C314 0.950 . S
H292 C315 0.950 . S
H293 C317 0.950 . S
H294 C318 0.950 . S
H295 C319 0.951 . S
H296 C321 0.951 . S
H297 C323 0.950 . S
H298 C324 0.950 . S
H299 C326 0.950 . S
H300 C329 0.950 . S
H301 C330 0.950 . S
H302 C332 0.950 . S
H303 C333 0.950 . S
C304 H286 0.951 . S
C304 C305 1.366 . S
C304 C306 1.388 . S
C305 C304 1.366 . S
C305 C309 1.385 . S
C306 H287 0.951 . S
C306 C304 1.388 . S
C306 C307 1.366 . S
C307 C306 1.366 . S
C307 C308 1.414 . S
C307 C310 1.499 . S
C308 H288 0.950 . S
C308 C307 1.414 . S
C308 C309 1.374 . S
C309 H289 0.950 . S
C309 C305 1.385 . S
C309 C308 1.374 . S
C310 C307 1.499 . S
C310 C311 1.373 . S
C310 C312 1.389 . S
C311 H290 0.950 . S
C311 C310 1.373 . S
C311 C327 1.377 . S
C312 C310 1.389 . S
C312 C313 1.524 . S
C312 C326 1.377 . S
C313 C312 1.524 . S
C313 C314 1.397 . S
C313 C318 1.363 . S
C314 H291 0.950 . S
C314 C313 1.397 . S
C314 C315 1.334 . S
C315 H292 0.950 . S
C315 C314 1.334 . S
C315 C316 1.287 . S
C316 C315 1.287 . S
C316 C317 1.524 . S
C316 H335 0.913 . S
C317 H293 0.950 . S
C317 C316 1.524 . S
C317 C318 1.415 . S
C318 H294 0.950 . S
C318 C313 1.363 . S
C318 C317 1.415 . S
C319 H295 0.951 . S
C319 C320 1.366 . S
C319 C321 1.388 . S
C320 C319 1.366 . S
C320 C324 1.385 . S
C321 H296 0.951 . S
C321 C319 1.388 . S
C321 C322 1.366 . S
C322 C321 1.366 . S
C322 C323 1.414 . S
C322 C325 1.499 . S
C323 H297 0.950 . S
C323 C322 1.414 . S
C323 C324 1.374 . S
C324 H298 0.950 . S
C324 C320 1.385 . S
C324 C323 1.374 . S
C325 C322 1.499 . S
C325 C326 1.373 . S
C325 C327 1.389 . S
C326 H299 0.950 . S
C326 C312 1.377 . S
C326 C325 1.373 . S
C327 C311 1.377 . S
C327 C325 1.389 . S
C327 C328 1.524 . S
C328 C327 1.524 . S
C328 C329 1.397 . S
C328 C333 1.363 . S
C329 H300 0.950 . S
C329 C328 1.397 . S
C329 C330 1.334 . S
C330 H301 0.950 . S
C330 C329 1.334 . S
C330 C331 1.287 . S
C331 C330 1.287 . S
C331 C332 1.524 . S
C331 H334 0.999 . S
C332 H302 0.950 . S
C332 C331 1.524 . S
C332 C333 1.415 . S
C333 H303 0.950 . S
C333 C328 1.363 . S
C333 C332 1.415 . S
H334 C331 0.999 . S
H335 C316 0.913 . S
H336 C354 0.951 . S
H337 C356 0.951 . S
H338 C358 0.950 . S
H339 C359 0.950 . S
H340 C361 0.950 . S
H341 C364 0.950 . S
H342 C365 0.950 . S
H343 C367 0.950 . S
H344 C368 0.966 . S
H345 C369 0.951 . S
H346 C371 0.951 . S
H347 C373 0.950 . S
H348 C374 0.950 . S
H349 C376 0.950 . S
H350 C379 0.950 . S
H351 C380 0.950 . S
H352 C382 0.950 . S
H353 C383 0.950 1_655 S
C354 H336 0.951 . S
C354 C355 1.366 . S
C354 C356 1.388 . S
C355 C354 1.366 . S
C355 C359 1.385 . S
C356 H337 0.951 . S
C356 C354 1.388 . S
C356 C357 1.366 . S
C357 C356 1.366 . S
C357 C358 1.414 . S
C357 C360 1.499 . S
C358 H338 0.950 . S
C358 C357 1.414 . S
C358 C359 1.374 . S
C359 H339 0.950 . S
C359 C355 1.385 . S
C359 C358 1.374 . S
C360 C357 1.499 . S
C360 C361 1.373 . S
C360 C362 1.389 . S
C361 H340 0.950 . S
C361 C360 1.373 . S
C361 C377 1.377 1_655 S
C362 C360 1.389 . S
C362 C363 1.524 . S
C362 C376 1.377 1_655 S
C363 C362 1.524 . S
C363 C364 1.397 1_554 S
C363 C368 1.363 . S
C364 H341 0.950 . S
C364 C363 1.397 1_556 S
C364 C365 1.334 . S
C365 H342 0.950 . S
C365 C364 1.334 . S
C365 C366 1.287 . S
C366 C365 1.287 . S
C366 C367 1.524 1_556 S
C366 H385 0.913 . S
C367 H343 0.950 . S
C367 C366 1.524 1_554 S
C367 C368 1.415 . S
C368 H344 0.966 . S
C368 C363 1.363 . S
C368 C367 1.415 . S
C369 H345 0.951 . S
C369 C370 1.366 . S
C369 C371 1.388 . S
C370 C369 1.366 . S
C370 C374 1.385 . S
C371 H346 0.951 . S
C371 C369 1.388 . S
C371 C372 1.366 . S
C372 C371 1.366 . S
C372 C373 1.414 . S
C372 C375 1.499 . S
C373 H347 0.950 . S
C373 C372 1.414 . S
C373 C374 1.374 . S
C374 H348 0.950 . S
C374 C370 1.385 . S
C374 C373 1.374 . S
C375 C372 1.499 . S
C375 C376 1.373 . S
C375 C377 1.389 . S
C376 H349 0.950 . S
C376 C362 1.377 1_455 S
C376 C375 1.373 . S
C377 C361 1.377 1_455 S
C377 C375 1.389 . S
C377 C378 1.524 . S
C378 C377 1.524 . S
C378 C379 1.397 . S
C378 C383 1.363 . S
C379 H350 0.950 . S
C379 C378 1.397 . S
C379 C380 1.334 . S
C380 H351 0.950 . S
C380 C379 1.334 . S
C380 C381 1.287 . S
C381 C380 1.287 . S
C381 C382 1.524 . S
C381 H384 0.999 . S
C382 H352 0.950 . S
C382 C381 1.524 . S
C382 C383 1.415 . S
C383 H353 0.950 1_455 S
C383 C378 1.363 . S
C383 C382 1.415 . S
H384 C381 0.999 . S
H385 C366 0.913 . S
H386 C404 0.951 . S
H387 C406 0.951 . S
H388 C408 0.950 1_556 S
H389 C409 0.950 1_556 S
H390 C411 0.950 1_556 S
H391 C414 0.950 . S
H392 C415 0.950 . S
H393 C417 0.950 . S
H394 C418 0.950 . S
H395 C419 0.951 1_556 S
H396 C421 0.951 1_556 S
H397 C423 0.950 . S
H398 C424 0.950 . S
H399 C426 0.950 . S
H400 C429 0.950 1_554 S
H401 C430 0.950 . S
H402 C432 0.950 . S
H403 C433 0.950 . S
C404 H386 0.951 . S
C404 C405 1.366 . S
C404 C406 1.388 . S
C405 C404 1.366 . S
C405 C409 1.385 . S
C406 H387 0.951 . S
C406 C404 1.388 . S
C406 C407 1.366 . S
C407 C406 1.366 . S
C407 C408 1.414 . S
C407 C410 1.499 . S
C408 H388 0.950 1_554 S
C408 C407 1.414 . S
C408 C409 1.374 . S
C409 H389 0.950 1_554 S
C409 C405 1.385 . S
C409 C408 1.374 . S
C410 C407 1.499 . S
C410 C411 1.373 . S
C410 C412 1.389 . S
C411 H390 0.950 1_554 S
C411 C410 1.373 . S
C411 C427 1.377 1_565 S
C412 C410 1.389 . S
C412 C413 1.524 . S
C412 C426 1.377 1_565 S
C413 C412 1.524 . S
C413 C414 1.397 . S
C413 C418 1.363 . S
C414 H391 0.950 . S
C414 C413 1.397 . S
C414 C415 1.334 . S
C415 H392 0.950 . S
C415 C414 1.334 . S
C415 C416 1.287 . S
C416 C415 1.287 . S
C416 C417 1.524 . S
C416 H435 0.913 . S
C417 H393 0.950 . S
C417 C416 1.524 . S
C417 C418 1.415 . S
C418 H394 0.950 . S
C418 C413 1.363 . S
C418 C417 1.415 . S
C419 H395 0.951 1_554 S
C419 C420 1.366 . S
C419 C421 1.388 . S
C420 C419 1.366 . S
C420 C424 1.385 . S
C421 H396 0.951 1_554 S
C421 C419 1.388 . S
C421 C422 1.366 . S
C422 C421 1.366 . S
C422 C423 1.414 . S
C422 C425 1.499 . S
C423 H397 0.950 . S
C423 C422 1.414 . S
C423 C424 1.374 . S
C424 H398 0.950 . S
C424 C420 1.385 . S
C424 C423 1.374 . S
C425 C422 1.499 . S
C425 C426 1.373 . S
C425 C427 1.389 . S
C426 H399 0.950 . S
C426 C412 1.377 1_545 S
C426 C425 1.373 . S
C427 C411 1.377 1_545 S
C427 C425 1.389 . S
C427 C428 1.524 1_554 S
C428 C427 1.524 1_556 S
C428 C429 1.397 . S
C428 C433 1.363 . S
C429 H400 0.950 1_556 S
C429 C428 1.397 . S
C429 C430 1.334 . S
C430 H401 0.950 . S
C430 C429 1.334 . S
C430 C431 1.287 . S
C431 C430 1.287 . S
C431 C432 1.524 . S
C431 H434 0.999 . S
C432 H402 0.950 . S
C432 C431 1.524 . S
C432 C433 1.415 . S
C433 H403 0.950 . S
C433 C428 1.363 . S
C433 C432 1.415 . S
H434 C431 0.999 . S
H435 C416 0.913 . S
H436 C454 0.951 . S
H437 C456 0.951 . S
H438 C458 0.950 1_556 S
H439 C459 0.950 1_556 S
H440 C461 0.950 . S
H441 C464 0.950 . S
H442 C465 0.950 . S
H443 C467 0.950 . S
H444 C468 0.950 . S
H445 C469 0.951 . S
H446 C471 0.951 . S
H447 C473 0.950 . S
H448 C474 0.950 . S
H449 C476 0.950 . S
H450 C479 0.950 . S
H451 C480 0.950 . S
H452 C482 0.950 . S
H453 C483 0.950 . S
C454 H436 0.951 . S
C454 C455 1.366 . S
C454 C456 1.388 . S
C455 C454 1.366 . S
C455 C459 1.385 . S
C456 H437 0.951 . S
C456 C454 1.388 . S
C456 C457 1.366 . S
C457 C456 1.366 . S
C457 C458 1.414 . S
C457 C460 1.499 . S
C458 H438 0.950 1_554 S
C458 C457 1.414 . S
C458 C459 1.374 . S
C459 H439 0.950 1_554 S
C459 C455 1.385 . S
C459 C458 1.374 . S
C460 C457 1.499 . S
C460 C461 1.373 . S
C460 C462 1.389 . S
C461 H440 0.950 . S
C461 C460 1.373 . S
C461 C477 1.377 . S
C462 C460 1.389 . S
C462 C463 1.524 . S
C462 C476 1.377 . S
C463 C462 1.524 . S
C463 C464 1.397 . S
C463 C468 1.363 . S
C464 H441 0.950 . S
C464 C463 1.397 . S
C464 C465 1.334 . S
C465 H442 0.950 . S
C465 C464 1.334 . S
C465 C466 1.287 . S
C466 C465 1.287 . S
C466 C467 1.524 . S
C466 H485 0.913 . S
C467 H443 0.950 . S
C467 C466 1.524 . S
C467 C468 1.415 . S
C468 H444 0.950 . S
C468 C463 1.363 . S
C468 C467 1.415 . S
C469 H445 0.951 . S
C469 C470 1.366 . S
C469 C471 1.388 . S
C470 C469 1.366 . S
C470 C474 1.385 . S
C471 H446 0.951 . S
C471 C469 1.388 . S
C471 C472 1.366 . S
C472 C471 1.366 . S
C472 C473 1.414 . S
C472 C475 1.499 . S
C473 H447 0.950 . S
C473 C472 1.414 . S
C473 C474 1.374 . S
C474 H448 0.950 . S
C474 C470 1.385 . S
C474 C473 1.374 . S
C475 C472 1.499 . S
C475 C476 1.373 . S
C475 C477 1.389 . S
C476 H449 0.950 . S
C476 C462 1.377 . S
C476 C475 1.373 . S
C477 C461 1.377 . S
C477 C475 1.389 . S
C477 C478 1.524 . S
C478 C477 1.524 . S
C478 C479 1.397 . S
C478 C483 1.363 1_554 S
C479 H450 0.950 . S
C479 C478 1.397 . S
C479 C480 1.334 . S
C480 H451 0.950 . S
C480 C479 1.334 . S
C480 C481 1.287 . S
C481 C480 1.287 . S
C481 C482 1.524 1_554 S
C481 H484 0.999 1_554 S
C482 H452 0.950 . S
C482 C481 1.524 1_556 S
C482 C483 1.415 . S
C483 H453 0.950 . S
C483 C478 1.363 1_556 S
C483 C482 1.415 . S
H484 C481 0.999 1_556 S
H485 C466 0.913 . S
H486 C504 0.951 . S
H487 C506 0.951 . S
H488 C508 0.950 . S
H489 C509 0.950 . S
H490 C511 0.950 . S
H491 C514 0.950 . S
H492 C515 0.950 . S
H493 C517 0.950 . S
H494 C518 0.950 . S
H495 C519 0.951 . S
H496 C521 0.951 . S
H497 C523 0.950 . S
H498 C524 0.950 . S
H499 C526 0.950 . S
H500 C529 0.950 . S
H501 C530 0.950 . S
H502 C532 0.950 . S
H503 C533 0.950 . S
C504 H486 0.951 . S
C504 C505 1.366 . S
C504 C506 1.388 . S
C505 C504 1.366 . S
C505 C509 1.385 . S
C506 H487 0.951 . S
C506 C504 1.388 . S
C506 C507 1.366 . S
C507 C506 1.366 . S
C507 C508 1.414 . S
C507 C510 1.499 . S
C508 H488 0.950 . S
C508 C507 1.414 . S
C508 C509 1.374 . S
C509 H489 0.950 . S
C509 C505 1.385 . S
C509 C508 1.374 . S
C510 C507 1.499 . S
C510 C511 1.373 . S
C510 C512 1.389 . S
C511 H490 0.950 . S
C511 C510 1.373 . S
C511 C527 1.377 . S
C512 C510 1.389 . S
C512 C513 1.524 1_554 S
C512 C526 1.377 . S
C513 C512 1.524 1_556 S
C513 C514 1.397 . S
C513 C518 1.363 . S
C514 H491 0.950 . S
C514 C513 1.397 . S
C514 C515 1.334 . S
C515 H492 0.950 . S
C515 C514 1.334 . S
C515 C516 1.287 . S
C516 C515 1.287 . S
C516 C517 1.524 . S
C516 H535 0.913 . S
C517 H493 0.950 . S
C517 C516 1.524 . S
C517 C518 1.415 . S
C518 H494 0.950 . S
C518 C513 1.363 . S
C518 C517 1.415 . S
C519 H495 0.951 . S
C519 C520 1.366 . S
C519 C521 1.388 . S
C520 C519 1.366 . S
C520 C524 1.385 . S
C521 H496 0.951 . S
C521 C519 1.388 . S
C521 C522 1.366 . S
C522 C521 1.366 . S
C522 C523 1.414 . S
C522 C525 1.499 . S
C523 H497 0.950 . S
C523 C522 1.414 . S
C523 C524 1.374 . S
C524 H498 0.950 . S
C524 C520 1.385 . S
C524 C523 1.374 . S
C525 C522 1.499 . S
C525 C526 1.373 . S
C525 C527 1.389 . S
C526 H499 0.950 . S
C526 C512 1.377 . S
C526 C525 1.373 . S
C527 C511 1.377 . S
C527 C525 1.389 . S
C527 C528 1.524 . S
C528 C527 1.524 . S
C528 C529 1.397 . S
C528 C533 1.363 . S
C529 H500 0.950 . S
C529 C528 1.397 . S
C529 C530 1.334 . S
C530 H501 0.950 . S
C530 C529 1.334 . S
C530 C531 1.287 . S
C531 C530 1.287 . S
C531 C532 1.524 . S
C531 H534 0.999 . S
C532 H502 0.950 . S
C532 C531 1.524 . S
C532 C533 1.415 . S
C533 H503 0.950 . S
C533 C528 1.363 . S
C533 C532 1.415 . S
H534 C531 0.999 . S
H535 C516 0.913 . S
H536 C554 0.951 . S
H537 C556 0.951 . S
H538 C558 0.950 . S
H539 C559 0.950 . S
H540 C561 0.950 . S
H541 C564 0.950 . S
H542 C565 0.950 . S
H543 C567 0.950 . S
H544 C568 0.950 . S
H545 C569 0.951 . S
H546 C571 0.951 . S
H547 C573 0.950 . S
H548 C574 0.950 . S
H549 C576 0.950 . S
H550 C579 0.950 . S
H551 C580 0.950 . S
H552 C582 0.950 . S
H553 C583 0.950 . S
C554 H536 0.951 . S
C554 C555 1.366 . S
C554 C556 1.388 . S
C555 C554 1.366 . S
C555 C559 1.385 . S
C556 H537 0.951 . S
C556 C554 1.388 . S
C556 C557 1.366 . S
C557 C556 1.366 . S
C557 C558 1.414 . S
C557 C560 1.499 . S
C558 H538 0.950 . S
C558 C557 1.414 . S
C558 C559 1.374 . S
C559 H539 0.950 . S
C559 C555 1.385 . S
C559 C558 1.374 . S
C560 C557 1.499 . S
C560 C561 1.373 . S
C560 C562 1.389 . S
C561 H540 0.950 . S
C561 C560 1.373 . S
C561 C577 1.377 . S
C562 C560 1.389 . S
C562 C563 1.524 . S
C562 C576 1.377 . S
C563 C562 1.524 . S
C563 C564 1.397 1_554 S
C563 C568 1.363 . S
C564 H541 0.950 . S
C564 C563 1.397 1_556 S
C564 C565 1.334 . S
C565 H542 0.950 . S
C565 C564 1.334 . S
C565 C566 1.287 . S
C566 C565 1.287 . S
C566 C567 1.524 . S
C566 H585 0.913 . S
C567 H543 0.950 . S
C567 C566 1.524 . S
C567 C568 1.415 1_556 S
C568 H544 0.950 . S
C568 C563 1.363 . S
C568 C567 1.415 1_554 S
C569 H545 0.951 . S
C569 C570 1.366 . S
C569 C571 1.388 . S
C570 C569 1.366 . S
C570 C574 1.385 . S
C571 H546 0.951 . S
C571 C569 1.388 . S
C571 C572 1.366 . S
C572 C571 1.366 . S
C572 C573 1.414 . S
C572 C575 1.499 . S
C573 H547 0.950 . S
C573 C572 1.414 . S
C573 C574 1.374 . S
C574 H548 0.950 . S
C574 C570 1.385 . S
C574 C573 1.374 . S
C575 C572 1.499 . S
C575 C576 1.373 . S
C575 C577 1.389 . S
C576 H549 0.950 . S
C576 C562 1.377 . S
C576 C575 1.373 . S
C577 C561 1.377 . S
C577 C575 1.389 . S
C577 C578 1.524 . S
C578 C577 1.524 . S
C578 C579 1.397 . S
C578 C583 1.363 . S
C579 H550 0.950 . S
C579 C578 1.397 . S
C579 C580 1.334 . S
C580 H551 0.950 . S
C580 C579 1.334 . S
C580 C581 1.287 . S
C581 C580 1.287 . S
C581 C582 1.524 . S
C581 H584 0.999 . S
C582 H552 0.950 . S
C582 C581 1.524 . S
C582 C583 1.415 . S
C583 H553 0.950 . S
C583 C578 1.363 . S
C583 C582 1.415 . S
H584 C581 0.999 . S
H585 C566 0.913 . S
H586 C604 0.951 . S
H587 C606 0.951 . S
H588 C608 0.950 . S
H589 C609 0.950 . S
H590 C611 0.950 . S
H591 C614 0.950 . S
H592 C615 0.950 . S
H593 C617 0.950 . S
H594 C618 0.950 . S
H595 C619 0.951 . S
H596 C621 0.951 . S
H597 C623 0.950 . S
H598 C624 0.950 . S
H599 C626 0.950 . S
H600 C629 0.950 . S
H601 C630 0.950 . S
H602 C632 0.950 . S
H603 C633 0.950 . S
C604 H586 0.951 . S
C604 C605 1.366 . S
C604 C606 1.388 . S
C605 C604 1.366 . S
C605 C609 1.385 . S
C606 H587 0.951 . S
C606 C604 1.388 . S
C606 C607 1.366 . S
C607 C606 1.366 . S
C607 C608 1.414 . S
C607 C610 1.499 . S
C608 H588 0.950 . S
C608 C607 1.414 . S
C608 C609 1.374 . S
C609 H589 0.950 . S
C609 C605 1.385 . S
C609 C608 1.374 . S
C610 C607 1.499 . S
C610 C611 1.373 . S
C610 C612 1.389 . S
C611 H590 0.950 . S
C611 C610 1.373 . S
C611 C627 1.377 . S
C612 C610 1.389 . S
C612 C613 1.524 . S
C612 C626 1.377 . S
C613 C612 1.524 . S
C613 C614 1.397 . S
C613 C618 1.363 . S
C614 H591 0.950 . S
C614 C613 1.397 . S
C614 C615 1.334 . S
C615 H592 0.950 . S
C615 C614 1.334 . S
C615 C616 1.287 . S
C616 C615 1.287 . S
C616 C617 1.524 . S
C616 H635 0.913 . S
C617 H593 0.950 . S
C617 C616 1.524 . S
C617 C618 1.415 . S
C618 H594 0.950 . S
C618 C613 1.363 . S
C618 C617 1.415 . S
C619 H595 0.951 . S
C619 C620 1.366 . S
C619 C621 1.388 . S
C620 C619 1.366 . S
C620 C624 1.385 . S
C621 H596 0.951 . S
C621 C619 1.388 . S
C621 C622 1.366 . S
C622 C621 1.366 . S
C622 C623 1.414 . S
C622 C625 1.499 . S
C623 H597 0.950 . S
C623 C622 1.414 . S
C623 C624 1.374 . S
C624 H598 0.950 . S
C624 C620 1.385 . S
C624 C623 1.374 . S
C625 C622 1.499 . S
C625 C626 1.373 . S
C625 C627 1.389 . S
C626 H599 0.950 . S
C626 C612 1.377 . S
C626 C625 1.373 . S
C627 C611 1.377 . S
C627 C625 1.389 . S
C627 C628 1.524 . S
C628 C627 1.524 . S
C628 C629 1.397 1_554 S
C628 C633 1.363 . S
C629 H600 0.950 . S
C629 C628 1.397 1_556 S
C629 C630 1.334 . S
C630 H601 0.950 . S
C630 C629 1.334 . S
C630 C631 1.287 . S
C631 C630 1.287 . S
C631 C632 1.524 1_556 S
C631 H634 0.999 . S
C632 H602 0.950 . S
C632 C631 1.524 1_554 S
C632 C633 1.415 . S
C633 H603 0.950 . S
C633 C628 1.363 . S
C633 C632 1.415 . S
H634 C631 0.999 . S
H635 C616 0.913 . S
C155 C9 1.392 . S
C170 C5 1.484 . S
C205 C43 1.397 . S
C220 C39 1.478 . S
C255 C73 1.477 . S
C270 C77 1.388 . S
C305 C111 1.386 . S
C320 C107 1.487 . S
C355 C88 1.453 . S
C370 C20 1.454 . S
C405 C122 1.454 . S
C420 C54 1.454 . S
C455 C36 1.439 . S
C470 C33 1.433 . S
C505 C101 1.450 . S
C520 C67 1.455 . S
C555 C104 1.477 . S
C570 C70 1.479 . S
C605 C135 1.493 . S
C620 C2 1.497 . S
