# Generated by pormake.
# Topology yft, (5)-cn, num edge types: 1
# Building blocks:
#     Node 0, Type 0, BuildingBlock: XOMCOT_clean_sbu_1, # of connection points: 5
#     Node 1, Type 0, BuildingBlock: XOMCOT_clean_sbu_1, # of connection points: 5
#     Node 2, Type 0, BuildingBlock: XOMCOT_clean_sbu_1, # of connection points: 5
#     Node 3, Type 0, BuildingBlock: XOMCOT_clean_sbu_1, # of connection points: 5
#     Node 4, Type 0, BuildingBlock: XOMCOT_clean_sbu_1, # of connection points: 5
#     Node 5, Type 0, BuildingBlock: XOMCOT_clean_sbu_1, # of connection points: 5
#     Node 6, Type 0, BuildingBlock: XOMCOT_clean_sbu_1, # of connection points: 5
#     Node 7, Type 0, BuildingBlock: XOMCOT_clean_sbu_1, # of connection points: 5
#     Node 8, Type 0, BuildingBlock: XOMCOT_clean_sbu_1, # of connection points: 5
#     Node 9, Type 0, BuildingBlock: XOMCOT_clean_sbu_1, # of connection points: 5
#     Node 10, Type 0, BuildingBlock: XOMCOT_clean_sbu_1, # of connection points: 5
#     Node 11, Type 0, BuildingBlock: XOMCOT_clean_sbu_1, # of connection points: 5
#     Node 12, Type 0, BuildingBlock: XOMCOT_clean_sbu_1, # of connection points: 5
#     Node 13, Type 0, BuildingBlock: XOMCOT_clean_sbu_1, # of connection points: 5
#     Node 14, Type 0, BuildingBlock: XOMCOT_clean_sbu_1, # of connection points: 5
#     Node 15, Type 0, BuildingBlock: XOMCOT_clean_sbu_1, # of connection points: 5
#     Node 16, Type 0, BuildingBlock: XOMCOT_clean_sbu_1, # of connection points: 5
#     Node 17, Type 0, BuildingBlock: XOMCOT_clean_sbu_1, # of connection points: 5
#     Node 18, Type 0, BuildingBlock: XOMCOT_clean_sbu_1, # of connection points: 5
#     Node 19, Type 0, BuildingBlock: XOMCOT_clean_sbu_1, # of connection points: 5
#     Node 20, Type 0, BuildingBlock: XOMCOT_clean_sbu_1, # of connection points: 5
#     Node 21, Type 0, BuildingBlock: XOMCOT_clean_sbu_1, # of connection points: 5
#     Node 22, Type 0, BuildingBlock: XOMCOT_clean_sbu_1, # of connection points: 5
#     Node 23, Type 0, BuildingBlock: XOMCOT_clean_sbu_1, # of connection points: 5
#     Node 24, Type 0, BuildingBlock: XOMCOT_clean_sbu_1, # of connection points: 5
#     Node 25, Type 0, BuildingBlock: XOMCOT_clean_sbu_1, # of connection points: 5
#     Node 26, Type 0, BuildingBlock: XOMCOT_clean_sbu_1, # of connection points: 5
#     Node 27, Type 0, BuildingBlock: XOMCOT_clean_sbu_1, # of connection points: 5
#     Node 28, Type 0, BuildingBlock: XOMCOT_clean_sbu_1, # of connection points: 5
#     Node 29, Type 0, BuildingBlock: XOMCOT_clean_sbu_1, # of connection points: 5
#     Node 30, Type 0, BuildingBlock: XOMCOT_clean_sbu_1, # of connection points: 5
#     Node 31, Type 0, BuildingBlock: XOMCOT_clean_sbu_1, # of connection points: 5
#     Edge 32, Type (0, 0), None
#     Edge 33, Type (0, 0), None
#     Edge 34, Type (0, 0), None
#     Edge 35, Type (0, 0), None
#     Edge 36, Type (0, 0), None
#     Edge 37, Type (0, 0), None
#     Edge 38, Type (0, 0), None
#     Edge 39, Type (0, 0), None
#     Edge 40, Type (0, 0), None
#     Edge 41, Type (0, 0), None
#     Edge 42, Type (0, 0), None
#     Edge 43, Type (0, 0), None
#     Edge 44, Type (0, 0), None
#     Edge 45, Type (0, 0), None
#     Edge 46, Type (0, 0), None
#     Edge 47, Type (0, 0), None
#     Edge 48, Type (0, 0), None
#     Edge 49, Type (0, 0), None
#     Edge 50, Type (0, 0), None
#     Edge 51, Type (0, 0), None
#     Edge 52, Type (0, 0), None
#     Edge 53, Type (0, 0), None
#     Edge 54, Type (0, 0), None
#     Edge 55, Type (0, 0), None
#     Edge 56, Type (0, 0), None
#     Edge 57, Type (0, 0), None
#     Edge 58, Type (0, 0), None
#     Edge 59, Type (0, 0), None
#     Edge 60, Type (0, 0), None
#     Edge 61, Type (0, 0), None
#     Edge 62, Type (0, 0), None
#     Edge 63, Type (0, 0), None
#     Edge 64, Type (0, 0), None
#     Edge 65, Type (0, 0), None
#     Edge 66, Type (0, 0), None
#     Edge 67, Type (0, 0), None
#     Edge 68, Type (0, 0), None
#     Edge 69, Type (0, 0), None
#     Edge 70, Type (0, 0), None
#     Edge 71, Type (0, 0), None
#     Edge 72, Type (0, 0), None
#     Edge 73, Type (0, 0), None
#     Edge 74, Type (0, 0), None
#     Edge 75, Type (0, 0), None
#     Edge 76, Type (0, 0), None
#     Edge 77, Type (0, 0), None
#     Edge 78, Type (0, 0), None
#     Edge 79, Type (0, 0), None
#     Edge 80, Type (0, 0), None
#     Edge 81, Type (0, 0), None
#     Edge 82, Type (0, 0), None
#     Edge 83, Type (0, 0), None
#     Edge 84, Type (0, 0), None
#     Edge 85, Type (0, 0), None
#     Edge 86, Type (0, 0), None
#     Edge 87, Type (0, 0), None
#     Edge 88, Type (0, 0), None
#     Edge 89, Type (0, 0), None
#     Edge 90, Type (0, 0), None
#     Edge 91, Type (0, 0), None
#     Edge 92, Type (0, 0), None
#     Edge 93, Type (0, 0), None
#     Edge 94, Type (0, 0), None
#     Edge 95, Type (0, 0), None
#     Edge 96, Type (0, 0), None
#     Edge 97, Type (0, 0), None
#     Edge 98, Type (0, 0), None
#     Edge 99, Type (0, 0), None
#     Edge 100, Type (0, 0), None
#     Edge 101, Type (0, 0), None
#     Edge 102, Type (0, 0), None
#     Edge 103, Type (0, 0), None
#     Edge 104, Type (0, 0), None
#     Edge 105, Type (0, 0), None
#     Edge 106, Type (0, 0), None
#     Edge 107, Type (0, 0), None
#     Edge 108, Type (0, 0), None
#     Edge 109, Type (0, 0), None
#     Edge 110, Type (0, 0), None
#     Edge 111, Type (0, 0), None
# Relax obj value: 0.692
# Max RMSD: 0.320
# Mean RMSD: 0.320
data_MOF--net-yft--node1-XOMCOT_clean_sbu_1--edge1-none
_symmetry_space_group_name_H-M    P1
_symmetry_Int_Tables_number       1
_symmetry_cell_setting            triclinic
loop_
_symmetry_equiv_pos_as_xyz
'x, y, z'
_cell_length_a     23.072964
_cell_length_b     23.071052
_cell_length_c     40.84276
_cell_angle_alpha  90.000005
_cell_angle_beta   89.999999
_cell_angle_gamma 89.999295
loop_
_atom_site_label
_atom_site_type_symbol
_atom_site_fract_x
_atom_site_fract_y
_atom_site_fract_z
_atom_type_partial_charge
C0 C 0.19903 0.12805 0.18131 0.0
C1 C 0.16254 0.10317 0.15841 0.0
N2 N 0.19501 0.07467 0.13641 0.0
N3 N 0.25507 0.11807 0.1732 0.0
C4 C 0.25045 0.0831 0.14614 0.0
H5 H 0.18461 0.15296 0.20204 0.0
Co6 Co 0.3258 0.15194 0.19191 0.0
C7 C 0.41691 0.12534 0.14746 0.0
O8 O 0.43398 0.1794 0.15019 0.0
N9 N 0.39696 0.18172 0.21129 0.0
C10 C 0.48567 0.17229 0.2334 0.0
C11 C 0.43519 0.14395 0.22468 0.0
C12 C 0.42528 0.23368 0.21356 0.0
N13 N 0.4786 0.22876 0.22673 0.0
O14 O 0.28564 0.19443 0.22536 0.0
H15 H 0.42799 0.0977 0.22622 0.0
H16 H 0.41106 0.27413 0.2036 0.0
O17 O 0.37125 0.1074 0.1616 0.0
C18 C 0.24931 0.23488 0.23011 0.0
O19 O 0.21758 0.25515 0.20595 0.0
N20 N 0.31936 0.21535 0.16112 0.0
C21 C 0.33764 0.30017 0.11454 0.0
C22 C 0.32551 0.24391 0.10475 0.0
C23 C 0.31567 0.20222 0.12845 0.0
C24 C 0.32135 0.27253 0.17012 0.0
C25 C 0.33132 0.3158 0.14716 0.0
H26 H 0.3129 0.15851 0.11989 0.0
H27 H 0.32147 0.28558 0.19533 0.0
H28 H 0.28699 0.06709 0.13226 0.0
H29 H 0.11587 0.10751 0.15732 0.0
H30 H 0.52497 0.15282 0.24279 0.0
H31 H 0.33059 0.2308 0.07941 0.0
H32 H 0.34077 0.35952 0.15529 0.0
C33 C 0.12266 0.949 0.43131 0.0
C34 C 0.14755 0.9125 0.40842 0.0
N35 N 0.17609 0.94498 0.38643 0.0
N36 N 0.13267 0.00504 0.42322 0.0
C37 C 0.16767 0.00042 0.39617 0.0
H38 H 0.09773 0.93457 0.45203 0.0
Co39 Co 0.0988 0.07578 0.44192 0.0
C40 C 0.12546 0.16689 0.39748 0.0
O41 O 0.07141 0.18398 0.4002 0.0
N42 N 0.06903 0.14695 0.4613 0.0
C43 C 0.07844 0.23566 0.48341 0.0
C44 C 0.10679 0.18518 0.47469 0.0
C45 C 0.01707 0.17528 0.46356 0.0
N46 N 0.02199 0.2286 0.47673 0.0
O47 O 0.05629 0.03563 0.47536 0.0
H48 H 0.15303 0.17798 0.47624 0.0
H49 H 0.97663 0.16105 0.4536 0.0
O50 O 0.14337 0.12122 0.41163 0.0
C51 C 0.01583 0.99931 0.48011 0.0
O52 O 0.99557 0.96757 0.45594 0.0
N53 N 0.03542 0.06935 0.41112 0.0
C54 C 0.95065 0.08763 0.36452 0.0
C55 C 0.00691 0.07551 0.35474 0.0
C56 C 0.04858 0.06567 0.37845 0.0
C57 C 0.97824 0.07135 0.42011 0.0
C58 C 0.93499 0.08131 0.39713 0.0
H59 H 0.09229 0.0629 0.3699 0.0
H60 H 0.96517 0.07146 0.44531 0.0
H61 H 0.1837 0.03697 0.3823 0.0
H62 H 0.14319 0.86583 0.40731 0.0
H63 H 0.09791 0.27497 0.49281 0.0
H64 H 0.02003 0.08059 0.3294 0.0
H65 H 0.89127 0.09075 0.40525 0.0
C66 C 0.30175 0.87268 0.68131 0.0
C67 C 0.33825 0.89756 0.65841 0.0
N68 N 0.30577 0.92607 0.63641 0.0
N69 N 0.24571 0.88266 0.6732 0.0
C70 C 0.25033 0.91764 0.64614 0.0
H71 H 0.31617 0.84777 0.70204 0.0
Co72 Co 0.17498 0.84879 0.69191 0.0
C73 C 0.08387 0.8754 0.64746 0.0
O74 O 0.06681 0.82134 0.65019 0.0
N75 N 0.10382 0.81902 0.71129 0.0
C76 C 0.01511 0.82844 0.7334 0.0
C77 C 0.06559 0.85678 0.72468 0.0
C78 C 0.0755 0.76706 0.71356 0.0
N79 N 0.02218 0.77198 0.72673 0.0
O80 O 0.21514 0.80631 0.72536 0.0
H81 H 0.07279 0.90303 0.72622 0.0
H82 H 0.08972 0.7266 0.7036 0.0
O83 O 0.12953 0.89333 0.6616 0.0
C84 C 0.25147 0.76586 0.73011 0.0
O85 O 0.2832 0.74559 0.70595 0.0
N86 N 0.18142 0.78538 0.66112 0.0
C87 C 0.16314 0.70057 0.61454 0.0
C88 C 0.17527 0.75682 0.60475 0.0
C89 C 0.18511 0.79851 0.62845 0.0
C90 C 0.17943 0.72821 0.67012 0.0
C91 C 0.16946 0.68494 0.64716 0.0
H92 H 0.18788 0.84222 0.61989 0.0
H93 H 0.17931 0.71515 0.69533 0.0
H94 H 0.21379 0.93365 0.63226 0.0
H95 H 0.38492 0.89322 0.65732 0.0
H96 H 0.97581 0.84791 0.74279 0.0
H97 H 0.17019 0.76993 0.5794 0.0
H98 H 0.16001 0.64122 0.65529 0.0
C99 C 0.37812 0.05174 0.93131 0.0
C100 C 0.35323 0.08823 0.90842 0.0
N101 N 0.3247 0.05575 0.88643 0.0
N102 N 0.36811 0.99569 0.92322 0.0
C103 C 0.33312 1.00031 0.89617 0.0
H104 H 0.40305 0.06616 0.95203 0.0
Co105 Co 0.40198 0.92496 0.94192 0.0
C106 C 0.37532 0.83384 0.89748 0.0
O107 O 0.42938 0.81676 0.9002 0.0
N108 N 0.43175 0.85378 0.9613 0.0
C109 C 0.42234 0.76507 0.98341 0.0
C110 C 0.39399 0.81556 0.97469 0.0
C111 C 0.48371 0.82546 0.96356 0.0
N112 N 0.4788 0.77213 0.97673 0.0
O113 O 0.44449 0.9651 0.97536 0.0
H114 H 0.34775 0.82276 0.97624 0.0
H115 H 0.52416 0.83968 0.9536 0.0
O116 O 0.35741 0.87951 0.91163 0.0
C117 C 0.48495 0.00143 0.98011 0.0
O118 O 0.50521 0.03316 0.95594 0.0
N119 N 0.46536 0.93138 0.91112 0.0
C120 C 0.55014 0.91311 0.86452 0.0
C121 C 0.49388 0.92522 0.85474 0.0
C122 C 0.4522 0.93506 0.87845 0.0
C123 C 0.52254 0.92939 0.92011 0.0
C124 C 0.56579 0.91943 0.89713 0.0
H125 H 0.4085 0.93784 0.8699 0.0
H126 H 0.53561 0.92927 0.94531 0.0
H127 H 0.31709 0.96376 0.8823 0.0
H128 H 0.35759 0.1349 0.90731 0.0
H129 H 0.40287 0.72576 0.99281 0.0
H130 H 0.48075 0.92015 0.8294 0.0
H131 H 0.60952 0.90998 0.90525 0.0
C132 C 0.19903 0.87264 0.31021 0.0
C133 C 0.16257 0.89746 0.33315 0.0
N134 N 0.1951 0.92591 0.35515 0.0
N135 N 0.25509 0.88267 0.31827 0.0
C136 C 0.2505 0.91763 0.34534 0.0
H137 H 0.18458 0.84773 0.28949 0.0
Co138 Co 0.3258 0.8488 0.29954 0.0
C139 C 0.41694 0.8754 0.34398 0.0
O140 O 0.434 0.82134 0.34125 0.0
N141 N 0.39696 0.81902 0.28015 0.0
C142 C 0.48567 0.82844 0.25804 0.0
C143 C 0.43519 0.85679 0.26676 0.0
C144 C 0.42528 0.76706 0.27788 0.0
N145 N 0.4786 0.77198 0.26471 0.0
O146 O 0.28563 0.80631 0.2661 0.0
H147 H 0.42799 0.90304 0.26522 0.0
H148 H 0.41106 0.72661 0.28784 0.0
O149 O 0.37127 0.89334 0.32984 0.0
C150 C 0.24931 0.76585 0.26136 0.0
O151 O 0.21759 0.74557 0.28552 0.0
N152 N 0.31938 0.78539 0.33034 0.0
C153 C 0.33765 0.70059 0.37692 0.0
C154 C 0.32554 0.75685 0.38671 0.0
C155 C 0.31571 0.79854 0.36301 0.0
C156 C 0.32137 0.72822 0.32134 0.0
C157 C 0.33133 0.68495 0.34431 0.0
H158 H 0.31296 0.84224 0.37157 0.0
H159 H 0.32148 0.71516 0.29613 0.0
H160 H 0.28707 0.93369 0.35918 0.0
H161 H 0.1159 0.89308 0.33428 0.0
H162 H 0.52497 0.84791 0.24865 0.0
H163 H 0.33061 0.76997 0.41206 0.0
H164 H 0.34077 0.64123 0.33618 0.0
C165 C 0.37816 0.94899 0.56021 0.0
C166 C 0.35334 0.91253 0.58314 0.0
N167 N 0.32486 0.94506 0.60513 0.0
N168 N 0.3681 0.00506 0.56825 0.0
C169 C 0.33312 0.00048 0.59531 0.0
H170 H 0.40311 0.93454 0.5395 0.0
Co171 Co 0.40197 0.07578 0.54953 0.0
C172 C 0.37532 0.16692 0.59397 0.0
O173 O 0.42938 0.18399 0.59125 0.0
N174 N 0.43175 0.14695 0.53015 0.0
C175 C 0.42234 0.23567 0.50804 0.0
C176 C 0.39399 0.18518 0.51676 0.0
C177 C 0.48371 0.17527 0.52789 0.0
N178 N 0.47879 0.2286 0.51472 0.0
O179 O 0.44449 0.03562 0.5161 0.0
H180 H 0.34775 0.17799 0.51521 0.0
H181 H 0.52415 0.16105 0.53785 0.0
O182 O 0.3574 0.12125 0.57982 0.0
C183 C 0.48496 0.99931 0.51136 0.0
O184 O 0.50524 0.96758 0.53552 0.0
N185 N 0.46535 0.06937 0.58034 0.0
C186 C 0.55012 0.08763 0.62695 0.0
C187 C 0.49385 0.07553 0.63673 0.0
C188 C 0.45219 0.0657 0.61302 0.0
C189 C 0.52253 0.07136 0.57136 0.0
C190 C 0.56578 0.08131 0.59434 0.0
H191 H 0.40848 0.06294 0.62156 0.0
H192 H 0.53561 0.07147 0.54616 0.0
H193 H 0.31704 0.03705 0.60914 0.0
H194 H 0.35774 0.86586 0.58429 0.0
H195 H 0.40287 0.27498 0.49864 0.0
H196 H 0.48072 0.0806 0.66207 0.0
H197 H 0.60951 0.09075 0.58622 0.0
C198 C 0.30175 0.12809 0.81021 0.0
C199 C 0.33822 0.10328 0.83315 0.0
N200 N 0.30569 0.07483 0.85515 0.0
N201 N 0.24569 0.11806 0.81827 0.0
C202 C 0.25028 0.0831 0.84534 0.0
H203 H 0.3162 0.153 0.78949 0.0
Co204 Co 0.17498 0.15193 0.79954 0.0
C205 C 0.08384 0.12533 0.84398 0.0
O206 O 0.06678 0.17939 0.84125 0.0
N207 N 0.10382 0.18171 0.78015 0.0
C208 C 0.01512 0.17229 0.75804 0.0
C209 C 0.06559 0.14395 0.76676 0.0
C210 C 0.0755 0.23367 0.77788 0.0
N211 N 0.02218 0.22876 0.76471 0.0
O212 O 0.21515 0.19442 0.7661 0.0
H213 H 0.07279 0.0977 0.76522 0.0
H214 H 0.08972 0.27413 0.78784 0.0
O215 O 0.12951 0.10739 0.82984 0.0
C216 C 0.25147 0.23488 0.76136 0.0
O217 O 0.28319 0.25516 0.78552 0.0
N218 N 0.1814 0.21534 0.83034 0.0
C219 C 0.16314 0.30014 0.87692 0.0
C220 C 0.17524 0.24389 0.88671 0.0
C221 C 0.18507 0.2022 0.86301 0.0
C222 C 0.17941 0.27252 0.82134 0.0
C223 C 0.16945 0.31578 0.84431 0.0
H224 H 0.18782 0.15849 0.87157 0.0
H225 H 0.17931 0.28558 0.79613 0.0
H226 H 0.21371 0.06705 0.85918 0.0
H227 H 0.38488 0.10765 0.83428 0.0
H228 H 0.97581 0.15282 0.74865 0.0
H229 H 0.17017 0.23077 0.91206 0.0
H230 H 0.16001 0.35951 0.83618 0.0
C231 C 0.12262 0.05174 0.06021 0.0
C232 C 0.14744 0.0882 0.08314 0.0
N233 N 0.17592 0.05567 0.10513 0.0
N234 N 0.13268 0.99568 0.06825 0.0
C235 C 0.16766 1.00026 0.09531 0.0
H236 H 0.09768 0.06619 0.0395 0.0
Co237 Co 0.09881 0.92495 0.04953 0.0
C238 C 0.12546 0.83382 0.09397 0.0
O239 O 0.0714 0.81674 0.09125 0.0
N240 N 0.06904 0.85378 0.03015 0.0
C241 C 0.07844 0.76507 0.00804 0.0
C242 C 0.10679 0.81555 0.01676 0.0
C243 C 0.01708 0.82546 0.02789 0.0
N244 N 0.02199 0.77213 0.01472 0.0
O245 O 0.05629 0.96511 0.0161 0.0
H246 H 0.15303 0.82275 0.01521 0.0
H247 H 0.97663 0.83969 0.03785 0.0
O248 O 0.14338 0.87949 0.07982 0.0
C249 C 0.01582 0.00143 0.01136 0.0
O250 O 0.99554 0.03315 0.03552 0.0
N251 N 0.03543 0.93136 0.08034 0.0
C252 C 0.95067 0.91311 0.12695 0.0
C253 C 0.00693 0.92521 0.13673 0.0
C254 C 0.0486 0.93504 0.11302 0.0
C255 C 0.97825 0.92938 0.07136 0.0
C256 C 0.935 0.91942 0.09434 0.0
H257 H 0.09231 0.93779 0.12156 0.0
H258 H 0.96517 0.92927 0.04616 0.0
H259 H 0.18374 0.96369 0.10914 0.0
H260 H 0.14305 0.13487 0.08429 0.0
H261 H 0.09791 0.72576 -0.00136 0.0
H262 H 0.02006 0.92013 0.16207 0.0
H263 H 0.89128 0.90998 0.08622 0.0
C264 C 0.80175 0.87269 0.81015 0.0
C265 C 0.83824 0.89757 0.83304 0.0
N266 N 0.80577 0.92607 0.85504 0.0
N267 N 0.74571 0.88266 0.81826 0.0
C268 C 0.75033 0.91763 0.84532 0.0
H269 H 0.81617 0.84778 0.78942 0.0
Co270 Co 0.67499 0.84879 0.79954 0.0
C271 C 0.58387 0.87536 0.844 0.0
O272 O 0.56682 0.82129 0.84126 0.0
N273 N 0.60382 0.81901 0.78016 0.0
C274 C 0.51512 0.82844 0.75805 0.0
C275 C 0.5656 0.85678 0.76677 0.0
C276 C 0.5755 0.76705 0.77789 0.0
N277 N 0.52218 0.77197 0.76472 0.0
O278 O 0.71514 0.80631 0.7661 0.0
H279 H 0.5728 0.90303 0.76524 0.0
H280 H 0.58972 0.72659 0.78785 0.0
O281 O 0.62953 0.89331 0.82986 0.0
C282 C 0.75147 0.76586 0.76135 0.0
O283 O 0.7832 0.74559 0.78551 0.0
N284 N 0.68143 0.78537 0.83033 0.0
C285 C 0.66315 0.70055 0.87691 0.0
C286 C 0.67528 0.7568 0.8867 0.0
C287 C 0.68512 0.7985 0.86301 0.0
C288 C 0.67943 0.72819 0.82133 0.0
C289 C 0.66946 0.68492 0.84429 0.0
H290 H 0.6879 0.8422 0.87156 0.0
H291 H 0.67931 0.71514 0.79612 0.0
H292 H 0.71379 0.93364 0.8592 0.0
H293 H 0.88492 0.89324 0.83413 0.0
H294 H 0.47581 0.84791 0.74866 0.0
H295 H 0.67022 0.76991 0.91205 0.0
H296 H 0.66 0.6412 0.83616 0.0
C297 C 0.87812 0.05174 0.56016 0.0
C298 C 0.85323 0.08823 0.58305 0.0
N299 N 0.8247 0.05574 0.60504 0.0
N300 N 0.86812 0.99569 0.56825 0.0
C301 C 0.83312 1.00031 0.5953 0.0
H302 H 0.90306 0.06616 0.53944 0.0
Co303 Co 0.90199 0.92496 0.54954 0.0
C304 C 0.87533 0.83383 0.59397 0.0
O305 O 0.92938 0.81675 0.59126 0.0
N306 N 0.93176 0.85379 0.53016 0.0
C307 C 0.92235 0.76509 0.50803 0.0
C308 C 0.89401 0.81558 0.51675 0.0
C309 C 0.98371 0.82545 0.52791 0.0
N310 N 0.9788 0.77214 0.51473 0.0
O311 O 0.94451 0.96511 0.51611 0.0
H312 H 0.84777 0.82279 0.51519 0.0
H313 H 0.02416 0.83966 0.53789 0.0
O314 O 0.85741 0.8795 0.57983 0.0
C315 C 0.98496 0.00144 0.51137 0.0
O316 O 0.00524 0.03317 0.53553 0.0
N317 N 0.96537 0.93137 0.58035 0.0
C318 C 0.05014 0.91317 0.62694 0.0
C319 C 0.99388 0.92524 0.63673 0.0
C320 C 0.95221 0.93505 0.61302 0.0
C321 C 0.02255 0.92938 0.57136 0.0
C322 C 0.0658 0.91945 0.59434 0.0
H323 H 0.9085 0.93781 0.62156 0.0
H324 H 0.03562 0.92926 0.54615 0.0
H325 H 0.81709 0.96376 0.60917 0.0
H326 H 0.85759 0.1349 0.58416 0.0
H327 H 0.90288 0.72579 0.49862 0.0
H328 H 0.98076 0.92017 0.66207 0.0
H329 H 0.10953 0.91 0.58621 0.0
C330 C 0.69903 0.12805 0.31015 0.0
C331 C 0.66254 0.10316 0.33304 0.0
N332 N 0.69501 0.07466 0.35504 0.0
N333 N 0.75507 0.11807 0.31826 0.0
C334 C 0.75045 0.0831 0.34532 0.0
H335 H 0.68461 0.15296 0.28942 0.0
Co336 Co 0.82579 0.15195 0.29954 0.0
C337 C 0.91691 0.12538 0.344 0.0
O338 O 0.93396 0.17944 0.34126 0.0
N339 N 0.89696 0.18172 0.28016 0.0
C340 C 0.98566 0.1723 0.25805 0.0
C341 C 0.93518 0.14396 0.26677 0.0
C342 C 0.92528 0.23368 0.27789 0.0
N343 N 0.9786 0.22876 0.26472 0.0
O344 O 0.78564 0.19442 0.2661 0.0
H345 H 0.92798 0.09771 0.26524 0.0
H346 H 0.91106 0.27414 0.28785 0.0
O347 O 0.87125 0.10742 0.32986 0.0
C348 C 0.74931 0.23488 0.26135 0.0
O349 O 0.71758 0.25515 0.28551 0.0
N350 N 0.81935 0.21537 0.33033 0.0
C351 C 0.83763 0.30018 0.37691 0.0
C352 C 0.8255 0.24393 0.3867 0.0
C353 C 0.81566 0.20224 0.36301 0.0
C354 C 0.82135 0.27254 0.32133 0.0
C355 C 0.83132 0.31581 0.34429 0.0
H356 H 0.81288 0.15853 0.37156 0.0
H357 H 0.82147 0.28559 0.29612 0.0
H358 H 0.787 0.0671 0.3592 0.0
H359 H 0.61587 0.10749 0.33413 0.0
H360 H 0.02497 0.15282 0.24866 0.0
H361 H 0.83056 0.23082 0.41205 0.0
H362 H 0.84078 0.35953 0.33616 0.0
C363 C 0.62266 0.949 0.06016 0.0
C364 C 0.64755 0.91251 0.08305 0.0
N365 N 0.67609 0.94499 0.10504 0.0
N366 N 0.63266 0.00505 0.06825 0.0
C367 C 0.66766 0.00043 0.0953 0.0
H368 H 0.59772 0.93457 0.03944 0.0
Co369 Co 0.59879 0.07578 0.04954 0.0
C370 C 0.62545 0.16691 0.09397 0.0
O371 O 0.5714 0.18398 0.09126 0.0
N372 N 0.56902 0.14695 0.03016 0.0
C373 C 0.57843 0.23564 0.00803 0.0
C374 C 0.60677 0.18516 0.01675 0.0
C375 C 0.51707 0.17528 0.02791 0.0
N376 N 0.52198 0.2286 0.01473 0.0
O377 O 0.55628 0.03562 0.01611 0.0
H378 H 0.65301 0.17795 0.01519 0.0
H379 H 0.47663 0.16108 0.03789 0.0
O380 O 0.64337 0.12123 0.07983 0.0
C381 C 0.51582 0.99929 0.01137 0.0
O382 O 0.49555 0.96757 0.03553 0.0
N383 N 0.53541 0.06936 0.08035 0.0
C384 C 0.45064 0.08757 0.12694 0.0
C385 C 0.5069 0.07549 0.13673 0.0
C386 C 0.54857 0.06568 0.11302 0.0
C387 C 0.47824 0.07135 0.07136 0.0
C388 C 0.43498 0.08129 0.09434 0.0
H389 H 0.59228 0.06292 0.12156 0.0
H390 H 0.46517 0.07148 0.04615 0.0
H391 H 0.68369 0.03698 0.10917 0.0
H392 H 0.64319 0.86584 0.08416 0.0
H393 H 0.5979 0.27494 -0.00138 0.0
H394 H 0.52002 0.08057 0.16207 0.0
H395 H 0.39125 0.09073 0.08621 0.0
C396 C 0.80175 0.12809 0.68125 0.0
C397 C 0.83822 0.10327 0.65832 0.0
N398 N 0.80569 0.07482 0.63632 0.0
N399 N 0.74569 0.11806 0.6732 0.0
C400 C 0.75028 0.0831 0.64613 0.0
H401 H 0.8162 0.153 0.70198 0.0
Co402 Co 0.67498 0.15194 0.69192 0.0
C403 C 0.58384 0.12537 0.64748 0.0
O404 O 0.5668 0.17944 0.65022 0.0
N405 N 0.60382 0.18172 0.71131 0.0
C406 C 0.51512 0.1723 0.73343 0.0
C407 C 0.5656 0.14395 0.72471 0.0
C408 C 0.5755 0.23368 0.71359 0.0
N409 N 0.52218 0.22876 0.72676 0.0
O410 O 0.71515 0.19442 0.72536 0.0
H411 H 0.5728 0.0977 0.72624 0.0
H412 H 0.58972 0.27414 0.70363 0.0
O413 O 0.62951 0.10741 0.66162 0.0
C414 C 0.75147 0.23488 0.73011 0.0
O415 O 0.78319 0.25516 0.70595 0.0
N416 N 0.68141 0.21535 0.66113 0.0
C417 C 0.66314 0.30016 0.61455 0.0
C418 C 0.67526 0.24391 0.60476 0.0
C419 C 0.68509 0.20222 0.62846 0.0
C420 C 0.67942 0.27253 0.67013 0.0
C421 C 0.66945 0.3158 0.64716 0.0
H422 H 0.68784 0.15851 0.6199 0.0
H423 H 0.6793 0.28559 0.69534 0.0
H424 H 0.71371 0.06705 0.63228 0.0
H425 H 0.88488 0.10763 0.65719 0.0
H426 H 0.47582 0.15282 0.74282 0.0
H427 H 0.67019 0.23079 0.57941 0.0
H428 H 0.66 0.35952 0.65529 0.0
C429 C 0.62261 0.05174 0.43124 0.0
C430 C 0.64744 0.0882 0.40831 0.0
N431 N 0.67592 0.05566 0.38633 0.0
N432 N 0.63267 0.99567 0.4232 0.0
C433 C 0.66765 1.00025 0.39614 0.0
H434 H 0.59767 0.06619 0.45196 0.0
Co435 Co 0.5988 0.92495 0.44192 0.0
C436 C 0.62545 0.83381 0.3975 0.0
O437 O 0.5714 0.81674 0.40022 0.0
N438 N 0.56902 0.85379 0.46131 0.0
C439 C 0.57843 0.76509 0.48345 0.0
C440 C 0.60678 0.81558 0.47472 0.0
C441 C 0.51707 0.82545 0.46357 0.0
N442 N 0.52198 0.77214 0.47675 0.0
O443 O 0.55628 0.96512 0.47535 0.0
H444 H 0.65302 0.82278 0.47628 0.0
H445 H 0.47663 0.83966 0.45358 0.0
O446 O 0.64337 0.87948 0.41164 0.0
C447 C 0.51582 0.00144 0.48009 0.0
O448 O 0.49552 0.03315 0.45593 0.0
N449 N 0.53542 0.93136 0.41111 0.0
C450 C 0.45066 0.91316 0.36451 0.0
C451 C 0.50692 0.92523 0.35473 0.0
C452 C 0.54859 0.93503 0.37844 0.0
C453 C 0.47824 0.92937 0.4201 0.0
C454 C 0.43499 0.91944 0.39711 0.0
H455 H 0.5923 0.93777 0.3699 0.0
H456 H 0.46517 0.92925 0.4453 0.0
H457 H 0.68373 0.96368 0.38231 0.0
H458 H 0.64305 0.13486 0.40716 0.0
H459 H 0.5979 0.72579 0.49285 0.0
H460 H 0.52005 0.92015 0.32938 0.0
H461 H 0.39126 0.91 0.40523 0.0
C462 C 0.69903 0.87265 0.18125 0.0
C463 C 0.66257 0.89747 0.15832 0.0
N464 N 0.6951 0.92591 0.13632 0.0
N465 N 0.75509 0.88267 0.1732 0.0
C466 C 0.75051 0.91763 0.14613 0.0
H467 H 0.68458 0.84774 0.20198 0.0
Co468 Co 0.8258 0.8488 0.19192 0.0
C469 C 0.91694 0.87536 0.14748 0.0
O470 O 0.93399 0.8213 0.15022 0.0
N471 N 0.89696 0.81902 0.21131 0.0
C472 C 0.98566 0.82844 0.23343 0.0
C473 C 0.93518 0.85678 0.22471 0.0
C474 C 0.92528 0.76705 0.21359 0.0
N475 N 0.9786 0.77197 0.22676 0.0
O476 O 0.78563 0.80632 0.22536 0.0
H477 H 0.92798 0.90303 0.22624 0.0
H478 H 0.91106 0.7266 0.20363 0.0
O479 O 0.87127 0.89332 0.16162 0.0
C480 C 0.74931 0.76586 0.23011 0.0
O481 O 0.71759 0.74557 0.20595 0.0
N482 N 0.81937 0.78538 0.16113 0.0
C483 C 0.83764 0.70057 0.11455 0.0
C484 C 0.82552 0.75683 0.10476 0.0
C485 C 0.81569 0.79852 0.12846 0.0
C486 C 0.82137 0.72821 0.17013 0.0
C487 C 0.83133 0.68494 0.14716 0.0
H488 H 0.81294 0.84222 0.1199 0.0
H489 H 0.82148 0.71515 0.19534 0.0
H490 H 0.78707 0.93368 0.13228 0.0
H491 H 0.6159 0.8931 0.15719 0.0
H492 H 0.02496 0.84791 0.24282 0.0
H493 H 0.83059 0.76994 0.07941 0.0
H494 H 0.84078 0.64122 0.15529 0.0
C495 C 0.87817 0.949 0.93124 0.0
C496 C 0.85334 0.91254 0.90831 0.0
N497 N 0.82486 0.94507 0.88633 0.0
N498 N 0.86811 0.00506 0.9232 0.0
C499 C 0.83313 0.00048 0.89614 0.0
H500 H 0.90311 0.93454 0.95195 0.0
Co501 Co 0.90198 0.07578 0.94192 0.0
C502 C 0.87533 0.16693 0.8975 0.0
O503 O 0.92939 0.184 0.90022 0.0
N504 N 0.93176 0.14695 0.96131 0.0
C505 C 0.92235 0.23564 0.98345 0.0
C506 C 0.89401 0.18516 0.97472 0.0
C507 C 0.98371 0.17528 0.96356 0.0
N508 N 0.9788 0.2286 0.97675 0.0
O509 O 0.9445 0.03561 0.97535 0.0
H510 H 0.84776 0.17795 0.97628 0.0
H511 H 0.02415 0.16107 0.95358 0.0
O512 O 0.85741 0.12125 0.91164 0.0
C513 C 0.98496 0.99929 0.98009 0.0
O514 O 0.00526 0.96758 0.95593 0.0
N515 N 0.96536 0.06938 0.91111 0.0
C516 C 0.05012 0.08757 0.86451 0.0
C517 C 0.99386 0.07551 0.85473 0.0
C518 C 0.95219 0.06571 0.87844 0.0
C519 C 0.02254 0.07136 0.9201 0.0
C520 C 0.06579 0.08129 0.89711 0.0
H521 H 0.90848 0.06297 0.8699 0.0
H522 H 0.03561 0.07148 0.9453 0.0
H523 H 0.81705 0.03705 0.88231 0.0
H524 H 0.85773 0.86587 0.90716 0.0
H525 H 0.90288 0.27494 0.99285 0.0
H526 H 0.98073 0.08058 0.82938 0.0
H527 H 0.10952 0.09073 0.90523 0.0
C528 C 0.69902 0.62815 0.68131 0.0
C529 C 0.66251 0.60328 0.65842 0.0
N530 N 0.69498 0.57473 0.63643 0.0
N531 N 0.75506 0.61812 0.67322 0.0
C532 C 0.75041 0.58312 0.64617 0.0
H533 H 0.68461 0.65311 0.70203 0.0
Co534 Co 0.8258 0.65198 0.69191 0.0
C535 C 0.91689 0.62526 0.64747 0.0
O536 O 0.93397 0.67932 0.65016 0.0
N537 N 0.89698 0.68176 0.71127 0.0
C538 C 0.98559 0.67232 0.73351 0.0
C539 C 0.93509 0.64401 0.72478 0.0
C540 C 0.92538 0.73368 0.71345 0.0
N541 N 0.97866 0.72874 0.72666 0.0
O542 O 0.78567 0.69453 0.72534 0.0
H543 H 0.92778 0.59779 0.72644 0.0
H544 H 0.91125 0.7741 0.7034 0.0
O545 O 0.87122 0.60737 0.66162 0.0
C546 C 0.74935 0.735 0.73008 0.0
O547 O 0.71763 0.75528 0.70592 0.0
N548 N 0.81937 0.71535 0.6611 0.0
C549 C 0.83755 0.80012 0.61449 0.0
C550 C 0.82546 0.74386 0.60471 0.0
C551 C 0.81567 0.70218 0.62843 0.0
C552 C 0.82138 0.77253 0.67008 0.0
C553 C 0.8313 0.81579 0.6471 0.0
H554 H 0.81291 0.65847 0.61989 0.0
H555 H 0.82157 0.7856 0.69529 0.0
H556 H 0.78695 0.56707 0.6323 0.0
H557 H 0.61585 0.60767 0.65731 0.0
H558 H 0.0248 0.65286 0.74303 0.0
H559 H 0.83051 0.73073 0.57937 0.0
H560 H 0.84077 0.85952 0.65522 0.0
C561 C 0.62261 0.44895 0.93128 0.0
C562 C 0.64749 0.41245 0.90839 0.0
N563 N 0.67605 0.44493 0.88641 0.0
N564 N 0.63265 0.505 0.92319 0.0
C565 C 0.66765 0.50037 0.89615 0.0
H566 H 0.59765 0.43453 0.95199 0.0
Co567 Co 0.59877 0.57574 0.94189 0.0
C568 C 0.62538 0.66682 0.89742 0.0
O569 O 0.57131 0.68388 0.90012 0.0
N570 N 0.569 0.64692 0.96125 0.0
C571 C 0.57845 0.73554 0.98348 0.0
C572 C 0.60675 0.68504 0.97474 0.0
C573 C 0.51708 0.67533 0.96345 0.0
N574 N 0.52203 0.72861 0.97665 0.0
O575 O 0.55629 0.5356 0.97534 0.0
H576 H 0.65297 0.67774 0.97638 0.0
H577 H 0.47665 0.66119 0.95341 0.0
O578 O 0.64332 0.62117 0.91158 0.0
C579 C 0.51581 0.4993 0.9801 0.0
O580 O 0.49551 0.46758 0.95595 0.0
N581 N 0.53538 0.56928 0.9111 0.0
C582 C 0.45058 0.58751 0.86451 0.0
C583 C 0.50683 0.57535 0.85472 0.0
C584 C 0.54851 0.56553 0.87843 0.0
C585 C 0.47821 0.57131 0.9201 0.0
C586 C 0.43495 0.58125 0.89713 0.0
H587 H 0.59222 0.56275 0.86988 0.0
H588 H 0.46516 0.5715 0.94531 0.0
H589 H 0.68369 0.53691 0.88228 0.0
H590 H 0.64311 0.36579 0.90728 0.0
H591 H 0.59791 0.77476 0.99299 0.0
H592 H 0.51994 0.58038 0.82938 0.0
H593 H 0.39124 0.59074 0.90526 0.0
C594 C 0.80176 0.37258 0.18131 0.0
C595 C 0.83827 0.39745 0.15842 0.0
N596 N 0.8058 0.42601 0.13643 0.0
N597 N 0.74572 0.38262 0.17322 0.0
C598 C 0.75037 0.41762 0.14617 0.0
H599 H 0.81617 0.34763 0.20203 0.0
Co600 Co 0.67499 0.34875 0.19191 0.0
C601 C 0.58389 0.37547 0.14747 0.0
O602 O 0.56681 0.32141 0.15016 0.0
N603 N 0.60381 0.31898 0.21127 0.0
C604 C 0.5152 0.32841 0.23351 0.0
C605 C 0.5657 0.35672 0.22478 0.0
C606 C 0.5754 0.26705 0.21345 0.0
N607 N 0.52212 0.272 0.22666 0.0
O608 O 0.71512 0.3062 0.22534 0.0
H609 H 0.573 0.40294 0.22644 0.0
H610 H 0.58953 0.22663 0.2034 0.0
O611 O 0.62956 0.39336 0.16162 0.0
C612 C 0.75143 0.26574 0.23008 0.0
O613 O 0.78315 0.24545 0.20592 0.0
N614 N 0.68141 0.28538 0.1611 0.0
C615 C 0.66323 0.20061 0.11449 0.0
C616 C 0.67532 0.25688 0.10471 0.0
C617 C 0.68511 0.29855 0.12843 0.0
C618 C 0.6794 0.2282 0.17008 0.0
C619 C 0.66948 0.18494 0.1471 0.0
H620 H 0.68787 0.34227 0.11989 0.0
H621 H 0.67921 0.21513 0.19529 0.0
H622 H 0.71383 0.43367 0.1323 0.0
H623 H 0.88493 0.39307 0.15731 0.0
H624 H 0.47599 0.34787 0.24303 0.0
H625 H 0.67027 0.27001 0.07937 0.0
H626 H 0.66001 0.14122 0.15522 0.0
C627 C 0.87817 0.55178 0.43128 0.0
C628 C 0.85329 0.58828 0.40839 0.0
N629 N 0.82473 0.55581 0.38641 0.0
N630 N 0.86814 0.49574 0.42319 0.0
C631 C 0.83313 0.50037 0.39615 0.0
H632 H 0.90313 0.5662 0.45199 0.0
Co633 Co 0.90201 0.425 0.44189 0.0
C634 C 0.87541 0.33391 0.39742 0.0
O635 O 0.92947 0.31686 0.40012 0.0
N636 N 0.93178 0.35382 0.46125 0.0
C637 C 0.92233 0.26519 0.48348 0.0
C638 C 0.89403 0.31569 0.47474 0.0
C639 C 0.98371 0.32541 0.46345 0.0
N640 N 0.97875 0.27212 0.47665 0.0
O641 O 0.9445 0.46513 0.47534 0.0
H642 H 0.84781 0.323 0.47638 0.0
H643 H 0.02413 0.33955 0.45341 0.0
O644 O 0.85747 0.37956 0.41158 0.0
C645 C 0.98497 0.50143 0.4801 0.0
O646 O 0.00527 0.53316 0.45595 0.0
N647 N 0.96541 0.43146 0.4111 0.0
C648 C 0.0502 0.41323 0.36451 0.0
C649 C 0.99395 0.42539 0.35472 0.0
C650 C 0.95227 0.4352 0.37843 0.0
C651 C 0.02257 0.42943 0.4201 0.0
C652 C 0.06584 0.41949 0.39713 0.0
H653 H 0.90856 0.43799 0.36988 0.0
H654 H 0.03562 0.42923 0.44531 0.0
H655 H 0.81709 0.46382 0.38228 0.0
H656 H 0.85767 0.63495 0.40728 0.0
H657 H 0.90287 0.22597 0.49299 0.0
H658 H 0.98084 0.42036 0.32938 0.0
H659 H 0.10955 0.40999 0.40526 0.0
C660 C 0.69902 0.37254 0.81021 0.0
C661 C 0.66254 0.39734 0.83314 0.0
N662 N 0.69506 0.42585 0.85512 0.0
N663 N 0.75507 0.38263 0.81825 0.0
C664 C 0.75047 0.41761 0.84531 0.0
H665 H 0.68458 0.34758 0.7895 0.0
Co666 Co 0.8258 0.34876 0.79954 0.0
C667 C 0.91691 0.37547 0.84398 0.0
O668 O 0.934 0.32142 0.84128 0.0
N669 N 0.89698 0.31898 0.78018 0.0
C670 C 0.98559 0.32841 0.75793 0.0
C671 C 0.93509 0.35672 0.76666 0.0
C672 C 0.92538 0.26705 0.77799 0.0
N673 N 0.97866 0.272 0.76478 0.0
O674 O 0.78566 0.30621 0.76612 0.0
H675 H 0.92778 0.40294 0.76501 0.0
H676 H 0.91125 0.22664 0.78805 0.0
O677 O 0.87124 0.39337 0.82982 0.0
C678 C 0.74935 0.26573 0.76138 0.0
O679 O 0.71764 0.24544 0.78554 0.0
N680 N 0.8194 0.28539 0.83036 0.0
C681 C 0.83756 0.20063 0.87698 0.0
C682 C 0.82548 0.2569 0.88675 0.0
C683 C 0.8157 0.29857 0.86303 0.0
C684 C 0.8214 0.22821 0.82138 0.0
C685 C 0.83131 0.18496 0.84436 0.0
H686 H 0.81296 0.34229 0.87157 0.0
H687 H 0.82158 0.21514 0.79617 0.0
H688 H 0.78703 0.43371 0.85914 0.0
H689 H 0.61588 0.39293 0.83429 0.0
H690 H 0.0248 0.34787 0.74841 0.0
H691 H 0.83054 0.27004 0.91209 0.0
H692 H 0.84077 0.14123 0.83625 0.0
C693 C 0.87822 0.44895 0.06024 0.0
C694 C 0.8534 0.41248 0.08317 0.0
N695 N 0.82489 0.44501 0.10515 0.0
N696 N 0.86813 0.50501 0.06828 0.0
C697 C 0.83314 0.50042 0.09533 0.0
H698 H 0.90318 0.43451 0.03953 0.0
Co699 Co 0.902 0.57575 0.04957 0.0
C700 C 0.87541 0.66685 0.09403 0.0
O701 O 0.92947 0.68389 0.09132 0.0
N702 N 0.93178 0.64692 0.0302 0.0
C703 C 0.92233 0.73555 0.00797 0.0
C704 C 0.89403 0.68504 0.01671 0.0
C705 C 0.9837 0.67532 0.028 0.0
N706 N 0.97875 0.72861 0.0148 0.0
O707 O 0.94449 0.5356 0.01612 0.0
H708 H 0.84781 0.67775 0.01507 0.0
H709 H 0.02413 0.66118 0.03804 0.0
O710 O 0.85746 0.6212 0.07987 0.0
C711 C 0.98497 0.4993 0.01136 0.0
O712 O 0.00529 0.46759 0.03552 0.0
N713 N 0.9654 0.56929 0.08036 0.0
C714 C 0.05018 0.58751 0.12696 0.0
C715 C 0.99393 0.57536 0.13674 0.0
C716 C 0.95225 0.56556 0.11304 0.0
C717 C 0.02257 0.57132 0.07137 0.0
C718 C 0.06582 0.58126 0.09435 0.0
H719 H 0.90855 0.56279 0.12159 0.0
H720 H 0.03562 0.57151 0.04616 0.0
H721 H 0.81705 0.53699 0.10916 0.0
H722 H 0.85782 0.36582 0.08432 0.0
H723 H 0.90287 0.77477 -0.00154 0.0
H724 H 0.98081 0.5804 0.16209 0.0
H725 H 0.10954 0.59074 0.08622 0.0
C726 C 0.80176 0.6282 0.31021 0.0
C727 C 0.83824 0.60339 0.33314 0.0
N728 N 0.80572 0.57489 0.35512 0.0
N729 N 0.74571 0.61811 0.31825 0.0
C730 C 0.75031 0.58312 0.34531 0.0
H731 H 0.8162 0.65315 0.2895 0.0
Co732 Co 0.67498 0.65197 0.29954 0.0
C733 C 0.58387 0.62526 0.34398 0.0
O734 O 0.56678 0.67932 0.34128 0.0
N735 N 0.60381 0.68175 0.28018 0.0
C736 C 0.5152 0.67232 0.25793 0.0
C737 C 0.5657 0.64401 0.26666 0.0
C738 C 0.5754 0.73368 0.27799 0.0
N739 N 0.52212 0.72874 0.26478 0.0
O740 O 0.71512 0.69453 0.26612 0.0
H741 H 0.573 0.59779 0.26501 0.0
H742 H 0.58953 0.7741 0.28805 0.0
O743 O 0.62954 0.60737 0.32982 0.0
C744 C 0.75143 0.735 0.26138 0.0
O745 O 0.78314 0.7553 0.28554 0.0
N746 N 0.68138 0.71534 0.33036 0.0
C747 C 0.66322 0.8001 0.37698 0.0
C748 C 0.6753 0.74383 0.38675 0.0
C749 C 0.68508 0.70216 0.36303 0.0
C750 C 0.67938 0.77252 0.32138 0.0
C751 C 0.66947 0.81578 0.34437 0.0
H752 H 0.68782 0.65845 0.37157 0.0
H753 H 0.6792 0.7856 0.29617 0.0
H754 H 0.71375 0.56703 0.35914 0.0
H755 H 0.8849 0.60781 0.33429 0.0
H756 H 0.47599 0.65287 0.24841 0.0
H757 H 0.67024 0.7307 0.41209 0.0
H758 H 0.66001 0.85951 0.33625 0.0
C759 C 0.62256 0.55178 0.56024 0.0
C760 C 0.64738 0.58825 0.58317 0.0
N761 N 0.67589 0.55572 0.60515 0.0
N762 N 0.63265 0.49572 0.56828 0.0
C763 C 0.66765 0.50031 0.59533 0.0
H764 H 0.5976 0.56623 0.53953 0.0
Co765 Co 0.59878 0.42499 0.54957 0.0
C766 C 0.62537 0.33389 0.59403 0.0
O767 O 0.57131 0.31684 0.59132 0.0
N768 N 0.569 0.35381 0.5302 0.0
C769 C 0.57845 0.26519 0.50797 0.0
C770 C 0.60675 0.31569 0.51671 0.0
C771 C 0.51708 0.32541 0.528 0.0
N772 N 0.52203 0.27212 0.5148 0.0
O773 O 0.55629 0.46514 0.51612 0.0
H774 H 0.65297 0.32299 0.51507 0.0
H775 H 0.47665 0.33955 0.53804 0.0
O776 O 0.64332 0.37954 0.57987 0.0
C777 C 0.51581 0.50143 0.51136 0.0
O778 O 0.49549 0.53315 0.53552 0.0
N779 N 0.53539 0.43144 0.58036 0.0
C780 C 0.4506 0.41322 0.62696 0.0
C781 C 0.50685 0.42537 0.63674 0.0
C782 C 0.54853 0.43517 0.61304 0.0
C783 C 0.47822 0.42941 0.57137 0.0
C784 C 0.43496 0.41948 0.59435 0.0
H785 H 0.59224 0.43794 0.62159 0.0
H786 H 0.46516 0.42923 0.54616 0.0
H787 H 0.68373 0.46374 0.60916 0.0
H788 H 0.64297 0.63491 0.58432 0.0
H789 H 0.59791 0.22597 0.49846 0.0
H790 H 0.51997 0.42034 0.66209 0.0
H791 H 0.39124 0.40999 0.58622 0.0
C792 C 0.30176 0.37258 0.31015 0.0
C793 C 0.33827 0.39746 0.33303 0.0
N794 N 0.3058 0.42602 0.35502 0.0
N795 N 0.24572 0.38261 0.31824 0.0
C796 C 0.25037 0.41762 0.34529 0.0
H797 H 0.31617 0.34763 0.28943 0.0
Co798 Co 0.17499 0.34875 0.29955 0.0
C799 C 0.08389 0.37543 0.34399 0.0
O800 O 0.06682 0.32137 0.3413 0.0
N801 N 0.10381 0.31897 0.28019 0.0
C802 C 0.0152 0.32841 0.25795 0.0
C803 C 0.0657 0.35672 0.26667 0.0
C804 C 0.0754 0.26705 0.278 0.0
N805 N 0.02212 0.27199 0.26479 0.0
O806 O 0.21512 0.30621 0.26611 0.0
H807 H 0.07301 0.40293 0.26502 0.0
H808 H 0.08953 0.22662 0.28805 0.0
O809 O 0.12956 0.39334 0.32984 0.0
C810 C 0.25143 0.26574 0.26137 0.0
O811 O 0.28315 0.24545 0.28553 0.0
N812 N 0.18142 0.28537 0.33035 0.0
C813 C 0.16324 0.20059 0.37696 0.0
C814 C 0.17534 0.25686 0.38674 0.0
C815 C 0.18513 0.29853 0.36303 0.0
C816 C 0.1794 0.22819 0.32137 0.0
C817 C 0.16948 0.18493 0.34435 0.0
H818 H 0.1879 0.34225 0.37157 0.0
H819 H 0.17921 0.21512 0.29616 0.0
H820 H 0.21383 0.43366 0.35916 0.0
H821 H 0.38493 0.39309 0.33414 0.0
H822 H 0.97599 0.34787 0.24842 0.0
H823 H 0.17029 0.26999 0.41208 0.0
H824 H 0.16 0.14121 0.33623 0.0
C825 C 0.37818 0.55178 0.06019 0.0
C826 C 0.35329 0.58827 0.08308 0.0
N827 N 0.32473 0.5558 0.10506 0.0
N828 N 0.36814 0.49573 0.06827 0.0
C829 C 0.33314 0.50036 0.09532 0.0
H830 H 0.40314 0.5662 0.03948 0.0
Co831 Co 0.40202 0.425 0.04958 0.0
C832 C 0.37541 0.3339 0.09403 0.0
O833 O 0.42948 0.31685 0.09133 0.0
N834 N 0.43179 0.35382 0.03021 0.0
C835 C 0.42234 0.26521 0.00796 0.0
C836 C 0.39404 0.31572 0.0167 0.0
C837 C 0.48371 0.3254 0.02802 0.0
N838 N 0.47876 0.27213 0.0148 0.0
O839 O 0.44451 0.46514 0.01613 0.0
H840 H 0.34783 0.32303 0.01505 0.0
H841 H 0.52413 0.33952 0.03807 0.0
O842 O 0.35747 0.37956 0.07988 0.0
C843 C 0.48498 0.50144 0.01137 0.0
O844 O 0.50529 0.53316 0.03553 0.0
N845 N 0.46541 0.43145 0.08036 0.0
C846 C 0.55021 0.41329 0.12695 0.0
C847 C 0.49396 0.42541 0.13675 0.0
C848 C 0.45227 0.43519 0.11304 0.0
C849 C 0.52258 0.42942 0.07136 0.0
C850 C 0.56585 0.41951 0.09434 0.0
H851 H 0.40857 0.43796 0.12159 0.0
H852 H 0.53562 0.42922 0.04615 0.0
H853 H 0.3171 0.46381 0.10919 0.0
H854 H 0.35767 0.63494 0.08419 0.0
H855 H 0.40288 0.226 -0.00157 0.0
H856 H 0.48085 0.42038 0.16209 0.0
H857 H 0.60956 0.41001 0.08621 0.0
C858 C 0.19902 0.62815 0.81015 0.0
C859 C 0.16251 0.60327 0.83303 0.0
N860 N 0.19498 0.57472 0.85502 0.0
N861 N 0.25506 0.61812 0.81824 0.0
C862 C 0.25042 0.58312 0.84529 0.0
H863 H 0.18461 0.6531 0.78943 0.0
Co864 Co 0.32579 0.65199 0.79955 0.0
C865 C 0.41689 0.6253 0.84399 0.0
O866 O 0.43396 0.67936 0.8413 0.0
N867 N 0.39697 0.68177 0.78019 0.0
C868 C 0.48558 0.67233 0.75795 0.0
C869 C 0.43508 0.64402 0.76667 0.0
C870 C 0.42538 0.73369 0.778 0.0
N871 N 0.47866 0.72874 0.76479 0.0
O872 O 0.28566 0.69453 0.76611 0.0
H873 H 0.42777 0.5978 0.76502 0.0
H874 H 0.41126 0.77411 0.78805 0.0
O875 O 0.37122 0.6074 0.82984 0.0
C876 C 0.24935 0.735 0.76137 0.0
O877 O 0.21763 0.75528 0.78553 0.0
N878 N 0.31937 0.71537 0.83035 0.0
C879 C 0.33754 0.80014 0.87696 0.0
C880 C 0.32544 0.74388 0.88674 0.0
C881 C 0.31565 0.7022 0.86303 0.0
C882 C 0.32138 0.77255 0.82137 0.0
C883 C 0.3313 0.8158 0.84435 0.0
H884 H 0.31288 0.65849 0.87157 0.0
H885 H 0.32157 0.78561 0.79616 0.0
H886 H 0.28695 0.56707 0.85916 0.0
H887 H 0.11585 0.60765 0.83414 0.0
H888 H 0.52479 0.65286 0.74842 0.0
H889 H 0.33049 0.73075 0.91208 0.0
H890 H 0.34078 0.85953 0.83623 0.0
C891 C 0.12261 0.44896 0.56019 0.0
C892 C 0.14749 0.41246 0.58308 0.0
N893 N 0.17605 0.44494 0.60506 0.0
N894 N 0.13264 0.505 0.56827 0.0
C895 C 0.16765 0.50037 0.59532 0.0
H896 H 0.09764 0.43453 0.53948 0.0
Co897 Co 0.09876 0.57574 0.54958 0.0
C898 C 0.12537 0.66684 0.59403 0.0
O899 O 0.07131 0.68388 0.59133 0.0
N900 N 0.06899 0.64691 0.53021 0.0
C901 C 0.07844 0.73552 0.50796 0.0
C902 C 0.10674 0.68502 0.5167 0.0
C903 C 0.01707 0.67533 0.52802 0.0
N904 N 0.02203 0.72861 0.5148 0.0
O905 O 0.05627 0.5356 0.51613 0.0
H906 H 0.15295 0.6777 0.51505 0.0
H907 H 0.97665 0.66122 0.53807 0.0
O908 O 0.14331 0.62118 0.57988 0.0
C909 C 0.0158 0.49929 0.51137 0.0
O910 O 0.99549 0.46757 0.53553 0.0
N911 N 0.03537 0.56928 0.58036 0.0
C912 C 0.95057 0.58745 0.62695 0.0
C913 C 0.00682 0.57532 0.63675 0.0
C914 C 0.04851 0.56554 0.61304 0.0
C915 C 0.9782 0.57131 0.57136 0.0
C916 C 0.93493 0.58123 0.59434 0.0
H917 H 0.09222 0.56277 0.62159 0.0
H918 H 0.96516 0.57152 0.54615 0.0
H919 H 0.18368 0.53692 0.60919 0.0
H920 H 0.14311 0.36579 0.58419 0.0
H921 H 0.0979 0.77473 0.49843 0.0
H922 H 0.01993 0.58036 0.66209 0.0
H923 H 0.89122 0.59072 0.58621 0.0
C924 C 0.30176 0.62819 0.18126 0.0
C925 C 0.33824 0.60338 0.15833 0.0
N926 N 0.30572 0.57488 0.13634 0.0
N927 N 0.24571 0.61811 0.17321 0.0
C928 C 0.25031 0.58312 0.14616 0.0
H929 H 0.3162 0.65315 0.20197 0.0
Co930 Co 0.17498 0.65198 0.19192 0.0
C931 C 0.08387 0.6253 0.14749 0.0
O932 O 0.0668 0.67936 0.15018 0.0
N933 N 0.10381 0.68176 0.21129 0.0
C934 C 0.0152 0.67233 0.23353 0.0
C935 C 0.0657 0.64402 0.22481 0.0
C936 C 0.0754 0.73369 0.21348 0.0
N937 N 0.02212 0.72874 0.22669 0.0
O938 O 0.21513 0.69452 0.22535 0.0
H939 H 0.07301 0.5978 0.22646 0.0
H940 H 0.08953 0.77411 0.20342 0.0
O941 O 0.12953 0.60739 0.16164 0.0
C942 C 0.25143 0.735 0.23009 0.0
O943 O 0.28314 0.7553 0.20592 0.0
N944 N 0.18139 0.71535 0.16111 0.0
C945 C 0.16323 0.80012 0.1145 0.0
C946 C 0.17532 0.74385 0.10472 0.0
C947 C 0.1851 0.70218 0.12844 0.0
C948 C 0.17938 0.77254 0.17009 0.0
C949 C 0.16947 0.81579 0.14711 0.0
H950 H 0.18784 0.65847 0.1199 0.0
H951 H 0.1792 0.78561 0.1953 0.0
H952 H 0.21375 0.56703 0.13232 0.0
H953 H 0.3849 0.60779 0.15718 0.0
H954 H 0.97599 0.65286 0.24306 0.0
H955 H 0.17027 0.73072 0.07938 0.0
H956 H 0.16 0.85952 0.15522 0.0
C957 C 0.12256 0.55178 0.93121 0.0
C958 C 0.14738 0.58825 0.90828 0.0
N959 N 0.17589 0.55572 0.88631 0.0
N960 N 0.13265 0.49572 0.92318 0.0
C961 C 0.16764 0.5003 0.89613 0.0
H962 H 0.09759 0.56623 0.95192 0.0
Co963 Co 0.09877 0.42499 0.94189 0.0
C964 C 0.12537 0.33388 0.89744 0.0
O965 O 0.0713 0.31683 0.90014 0.0
N966 N 0.06899 0.35382 0.96126 0.0
C967 C 0.07844 0.26521 0.98351 0.0
C968 C 0.10674 0.31571 0.97477 0.0
C969 C 0.01707 0.3254 0.96345 0.0
N970 N 0.02203 0.27212 0.97667 0.0
O971 O 0.05628 0.46515 0.97533 0.0
H972 H 0.15295 0.32302 0.97642 0.0
H973 H 0.97665 0.33952 0.9534 0.0
O974 O 0.14331 0.37953 0.91159 0.0
C975 C 0.0158 0.50144 0.98009 0.0
O976 O 0.99547 0.53315 0.95593 0.0
N977 N 0.03538 0.43143 0.91109 0.0
C978 C 0.95059 0.41328 0.8645 0.0
C979 C 0.00685 0.42539 0.85471 0.0
C980 C 0.04853 0.43516 0.87842 0.0
C981 C 0.97821 0.42941 0.92009 0.0
C982 C 0.93495 0.4195 0.89711 0.0
H983 H 0.09224 0.43792 0.86987 0.0
H984 H 0.96516 0.42921 0.9453 0.0
H985 H 0.18373 0.46374 0.88229 0.0
H986 H 0.14297 0.63491 0.90713 0.0
H987 H 0.0979 0.226 0.99304 0.0
H988 H 0.01996 0.42036 0.82936 0.0
H989 H 0.89123 0.41001 0.90524 0.0
C990 C 0.19902 0.37254 0.68126 0.0
C991 C 0.16254 0.39735 0.65833 0.0
N992 N 0.19506 0.42585 0.63634 0.0
N993 N 0.25507 0.38262 0.67321 0.0
C994 C 0.25047 0.41761 0.64616 0.0
H995 H 0.18458 0.34759 0.70197 0.0
Co996 Co 0.3258 0.34875 0.69192 0.0
C997 C 0.41691 0.37544 0.64749 0.0
O998 O 0.43398 0.32137 0.65018 0.0
N999 N 0.39697 0.31897 0.71129 0.0
C1000 C 0.48558 0.32841 0.73353 0.0
C1001 C 0.43508 0.35672 0.72481 0.0
C1002 C 0.42538 0.26705 0.71348 0.0
N1003 N 0.47866 0.27199 0.72669 0.0
O1004 O 0.28565 0.30621 0.72535 0.0
H1005 H 0.42777 0.40294 0.72646 0.0
H1006 H 0.41126 0.22663 0.70342 0.0
O1007 O 0.37125 0.39335 0.66164 0.0
C1008 C 0.24935 0.26574 0.73009 0.0
O1009 O 0.21764 0.24544 0.70592 0.0
N1010 N 0.31939 0.28538 0.66111 0.0
C1011 C 0.33755 0.20061 0.6145 0.0
C1012 C 0.32546 0.25688 0.60472 0.0
C1013 C 0.31568 0.29855 0.62844 0.0
C1014 C 0.3214 0.2282 0.67009 0.0
C1015 C 0.33131 0.18494 0.64711 0.0
H1016 H 0.31294 0.34227 0.6199 0.0
H1017 H 0.32158 0.21513 0.6953 0.0
H1018 H 0.28703 0.4337 0.63232 0.0
H1019 H 0.11588 0.39294 0.65718 0.0
H1020 H 0.52479 0.34787 0.74306 0.0
H1021 H 0.33051 0.27002 0.57938 0.0
H1022 H 0.34078 0.14122 0.65522 0.0
C1023 C 0.37822 0.44896 0.43121 0.0
C1024 C 0.3534 0.41249 0.40828 0.0
N1025 N 0.3249 0.44502 0.38631 0.0
N1026 N 0.36814 0.50502 0.42318 0.0
C1027 C 0.33314 0.50043 0.39613 0.0
H1028 H 0.40319 0.43451 0.45192 0.0
Co1029 Co 0.40201 0.57575 0.44189 0.0
C1030 C 0.37541 0.66686 0.39744 0.0
O1031 O 0.42948 0.6839 0.40014 0.0
N1032 N 0.43179 0.64692 0.46126 0.0
C1033 C 0.42234 0.73553 0.48351 0.0
C1034 C 0.39404 0.68502 0.47477 0.0
C1035 C 0.48371 0.67533 0.46345 0.0
N1036 N 0.47876 0.72861 0.47667 0.0
O1037 O 0.4445 0.53559 0.47533 0.0
H1038 H 0.34783 0.67771 0.47642 0.0
H1039 H 0.52413 0.66121 0.4534 0.0
O1040 O 0.35747 0.6212 0.41159 0.0
C1041 C 0.48498 0.49929 0.48009 0.0
O1042 O 0.50531 0.46758 0.45593 0.0
N1043 N 0.4654 0.5693 0.41109 0.0
C1044 C 0.55019 0.58745 0.3645 0.0
C1045 C 0.49394 0.57534 0.35471 0.0
C1046 C 0.45225 0.56557 0.37842 0.0
C1047 C 0.52257 0.57132 0.42009 0.0
C1048 C 0.56584 0.58124 0.39711 0.0
H1049 H 0.40855 0.56282 0.36987 0.0
H1050 H 0.53562 0.57152 0.4453 0.0
H1051 H 0.31706 0.537 0.38229 0.0
H1052 H 0.35781 0.36583 0.40713 0.0
H1053 H 0.40288 0.77474 0.49304 0.0
H1054 H 0.48082 0.58038 0.32936 0.0
H1055 H 0.60955 0.59072 0.40524 0.0
loop_
_geom_bond_atom_site_label_1
_geom_bond_atom_site_label_2
_geom_bond_distance
_geom_bond_site_symmetry_2
_ccdc_geom_bond_type
C0 C1 1.351 . S
C0 N3 1.368 . S
C0 H5 0.931 . S
C1 C0 1.351 . S
C1 N2 1.373 . S
C1 H29 0.930 . S
N2 C1 1.373 . S
N2 C4 1.340 . S
N3 C0 1.368 . S
N3 C4 1.321 . S
N3 Co6 2.135 . S
C4 N2 1.340 . S
C4 N3 1.321 . S
C4 H28 0.930 . S
H5 C0 0.931 . S
Co6 N3 2.135 . S
Co6 N9 2.121 . S
Co6 O14 2.055 . S
Co6 O17 2.039 . S
Co6 N20 2.140 . S
C7 O8 1.227 . S
C7 O17 1.265 . S
O8 C7 1.227 . S
N9 Co6 2.121 . S
N9 C11 1.375 . S
N9 C12 1.313 . S
C10 C11 1.338 . S
C10 N13 1.377 . S
C10 H30 0.930 . S
C11 N9 1.375 . S
C11 C10 1.338 . S
C11 H15 0.931 . S
C12 N9 1.313 . S
C12 N13 1.344 . S
C12 H16 0.930 . S
N13 C10 1.377 . S
N13 C12 1.344 . S
O14 Co6 2.055 . S
O14 C18 1.253 . S
H15 C11 0.931 . S
H16 C12 0.930 . S
O17 Co6 2.039 . S
O17 C7 1.265 . S
C18 O14 1.253 . S
C18 O19 1.227 . S
O19 C18 1.227 . S
N20 Co6 2.140 . S
N20 C23 1.346 . S
N20 C24 1.345 . S
C21 C22 1.387 . S
C21 C25 1.391 . S
C22 C21 1.387 . S
C22 C23 1.369 . S
C22 H31 0.929 . S
C23 N20 1.346 . S
C23 C22 1.369 . S
C23 H26 0.928 . S
C24 N20 1.345 . S
C24 C25 1.371 . S
C24 H27 0.931 . S
C25 C21 1.391 . S
C25 C24 1.371 . S
C25 H32 0.930 . S
H26 C23 0.928 . S
H27 C24 0.931 . S
H28 C4 0.930 . S
H29 C1 0.930 . S
H30 C10 0.930 . S
H31 C22 0.929 . S
H32 C25 0.930 . S
C33 C34 1.351 . S
C33 N36 1.381 . S
C33 H38 0.931 . S
C34 C33 1.351 . S
C34 N35 1.373 . S
C34 H62 0.930 . S
N35 C34 1.373 . S
N35 C37 1.340 . S
N36 C33 1.381 . S
N36 C37 1.324 . S
N36 Co39 2.122 1_565 S
C37 N35 1.340 . S
C37 N36 1.324 . S
C37 H61 0.930 1_565 S
H38 C33 0.931 . S
Co39 N36 2.122 1_545 S
Co39 N42 2.121 . S
Co39 O47 2.055 . S
Co39 O50 2.039 . S
Co39 N53 2.140 . S
C40 O41 1.227 . S
C40 O50 1.265 . S
O41 C40 1.227 . S
N42 Co39 2.121 . S
N42 C44 1.375 . S
N42 C45 1.313 . S
C43 C44 1.338 . S
C43 N46 1.377 . S
C43 H63 0.930 . S
C44 N42 1.375 . S
C44 C43 1.338 . S
C44 H48 0.931 . S
C45 N42 1.313 . S
C45 N46 1.344 . S
C45 H49 0.930 . S
N46 C43 1.377 . S
N46 C45 1.344 . S
O47 Co39 2.055 . S
O47 C51 1.253 . S
H48 C44 0.931 . S
H49 C45 0.930 . S
O50 Co39 2.039 . S
O50 C40 1.265 . S
C51 O47 1.253 . S
C51 O52 1.227 . S
O52 C51 1.227 . S
N53 Co39 2.140 . S
N53 C56 1.346 . S
N53 C57 1.345 1_455 S
C54 C55 1.387 . S
C54 C58 1.391 . S
C55 C54 1.387 . S
C55 C56 1.369 1_655 S
C55 H64 0.929 . S
C56 N53 1.346 . S
C56 C55 1.369 1_455 S
C56 H59 0.928 . S
C57 N53 1.345 1_655 S
C57 C58 1.371 . S
C57 H60 0.931 . S
C58 C54 1.391 . S
C58 C57 1.371 . S
C58 H65 0.930 . S
H59 C56 0.928 . S
H60 C57 0.931 . S
H61 C37 0.930 1_545 S
H62 C34 0.930 . S
H63 C43 0.930 . S
H64 C55 0.929 . S
H65 C58 0.930 . S
C66 C67 1.351 . S
C66 N69 1.368 . S
C66 H71 0.931 . S
C67 C66 1.351 . S
C67 N68 1.373 . S
C67 H95 0.930 . S
N68 C67 1.373 . S
N68 C70 1.340 . S
N69 C66 1.368 . S
N69 C70 1.321 . S
N69 Co72 2.135 . S
C70 N68 1.340 . S
C70 N69 1.321 . S
C70 H94 0.930 . S
H71 C66 0.931 . S
Co72 N69 2.135 . S
Co72 N75 2.121 . S
Co72 O80 2.055 . S
Co72 O83 2.039 . S
Co72 N86 2.140 . S
C73 O74 1.227 . S
C73 O83 1.265 . S
O74 C73 1.227 . S
N75 Co72 2.121 . S
N75 C77 1.375 . S
N75 C78 1.313 . S
C76 C77 1.338 1_655 S
C76 N79 1.377 1_655 S
C76 H96 0.930 . S
C77 N75 1.375 . S
C77 C76 1.338 1_455 S
C77 H81 0.931 . S
C78 N75 1.313 . S
C78 N79 1.344 . S
C78 H82 0.930 . S
N79 C76 1.377 1_455 S
N79 C78 1.344 . S
O80 Co72 2.055 . S
O80 C84 1.253 . S
H81 C77 0.931 . S
H82 C78 0.930 . S
O83 Co72 2.039 . S
O83 C73 1.265 . S
C84 O80 1.253 . S
C84 O85 1.227 . S
O85 C84 1.227 . S
N86 Co72 2.140 . S
N86 C89 1.346 . S
N86 C90 1.345 . S
C87 C88 1.387 . S
C87 C91 1.391 . S
C88 C87 1.387 . S
C88 C89 1.369 . S
C88 H97 0.929 . S
C89 N86 1.346 . S
C89 C88 1.369 . S
C89 H92 0.928 . S
C90 N86 1.345 . S
C90 C91 1.371 . S
C90 H93 0.931 . S
C91 C87 1.391 . S
C91 C90 1.371 . S
C91 H98 0.930 . S
H92 C89 0.928 . S
H93 C90 0.931 . S
H94 C70 0.930 . S
H95 C67 0.930 . S
H96 C76 0.930 . S
H97 C88 0.929 . S
H98 C91 0.930 . S
C99 C100 1.351 . S
C99 N102 1.381 . S
C99 H104 0.931 . S
C100 C99 1.351 . S
C100 N101 1.373 . S
C100 H128 0.930 . S
N101 C100 1.373 . S
N101 C103 1.340 . S
N102 C99 1.381 . S
N102 C103 1.324 . S
N102 Co105 2.122 1_545 S
C103 N101 1.340 . S
C103 N102 1.324 . S
C103 H127 0.930 1_545 S
H104 C99 0.931 . S
Co105 N102 2.122 1_565 S
Co105 N108 2.121 . S
Co105 O113 2.055 . S
Co105 O116 2.039 . S
Co105 N119 2.140 . S
C106 O107 1.227 . S
C106 O116 1.265 . S
O107 C106 1.227 . S
N108 Co105 2.121 . S
N108 C110 1.375 . S
N108 C111 1.313 . S
C109 C110 1.338 . S
C109 N112 1.377 . S
C109 H129 0.930 . S
C110 N108 1.375 . S
C110 C109 1.338 . S
C110 H114 0.931 . S
C111 N108 1.313 . S
C111 N112 1.344 . S
C111 H115 0.930 1_556 S
N112 C109 1.377 . S
N112 C111 1.344 . S
O113 Co105 2.055 . S
O113 C117 1.253 1_556 S
H114 C110 0.931 . S
H115 C111 0.930 1_554 S
O116 Co105 2.039 . S
O116 C106 1.265 . S
C117 O113 1.253 1_554 S
C117 O118 1.227 1_554 S
O118 C117 1.227 1_556 S
N119 Co105 2.140 . S
N119 C122 1.346 . S
N119 C123 1.345 . S
C120 C121 1.387 . S
C120 C124 1.391 . S
C121 C120 1.387 . S
C121 C122 1.369 . S
C121 H130 0.929 . S
C122 N119 1.346 . S
C122 C121 1.369 . S
C122 H125 0.928 . S
C123 N119 1.345 . S
C123 C124 1.371 . S
C123 H126 0.931 . S
C124 C120 1.391 . S
C124 C123 1.371 . S
C124 H131 0.930 . S
H125 C122 0.928 . S
H126 C123 0.931 . S
H127 C103 0.930 1_565 S
H128 C100 0.930 . S
H129 C109 0.930 . S
H130 C121 0.929 . S
H131 C124 0.930 . S
C132 C133 1.351 . S
C132 N135 1.368 . S
C132 H137 0.931 . S
C133 C132 1.351 . S
C133 N134 1.373 . S
C133 H161 0.930 . S
N134 C133 1.373 . S
N134 C136 1.340 . S
N135 C132 1.368 . S
N135 C136 1.321 . S
N135 Co138 2.135 . S
C136 N134 1.340 . S
C136 N135 1.321 . S
C136 H160 0.930 . S
H137 C132 0.931 . S
Co138 N135 2.135 . S
Co138 N141 2.121 . S
Co138 O146 2.055 . S
Co138 O149 2.039 . S
Co138 N152 2.140 . S
C139 O140 1.227 . S
C139 O149 1.265 . S
O140 C139 1.227 . S
N141 Co138 2.121 . S
N141 C143 1.375 . S
N141 C144 1.313 . S
C142 C143 1.338 . S
C142 N145 1.377 . S
C142 H162 0.930 . S
C143 N141 1.375 . S
C143 C142 1.338 . S
C143 H147 0.931 . S
C144 N141 1.313 . S
C144 N145 1.344 . S
C144 H148 0.930 . S
N145 C142 1.377 . S
N145 C144 1.344 . S
O146 Co138 2.055 . S
O146 C150 1.253 . S
H147 C143 0.931 . S
H148 C144 0.930 . S
O149 Co138 2.039 . S
O149 C139 1.265 . S
C150 O146 1.253 . S
C150 O151 1.227 . S
O151 C150 1.227 . S
N152 Co138 2.140 . S
N152 C155 1.346 . S
N152 C156 1.345 . S
C153 C154 1.387 . S
C153 C157 1.391 . S
C154 C153 1.387 . S
C154 C155 1.369 . S
C154 H163 0.929 . S
C155 N152 1.346 . S
C155 C154 1.369 . S
C155 H158 0.928 . S
C156 N152 1.345 . S
C156 C157 1.371 . S
C156 H159 0.931 . S
C157 C153 1.391 . S
C157 C156 1.371 . S
C157 H164 0.930 . S
H158 C155 0.928 . S
H159 C156 0.931 . S
H160 C136 0.930 . S
H161 C133 0.930 . S
H162 C142 0.930 . S
H163 C154 0.929 . S
H164 C157 0.930 . S
C165 C166 1.351 . S
C165 N168 1.381 . S
C165 H170 0.931 . S
C166 C165 1.351 . S
C166 N167 1.373 . S
C166 H194 0.930 . S
N167 C166 1.373 . S
N167 C169 1.340 . S
N168 C165 1.381 . S
N168 C169 1.324 . S
N168 Co171 2.122 1_565 S
C169 N167 1.340 . S
C169 N168 1.324 . S
C169 H193 0.930 1_565 S
H170 C165 0.931 . S
Co171 N168 2.122 1_545 S
Co171 N174 2.121 . S
Co171 O179 2.055 . S
Co171 O182 2.039 . S
Co171 N185 2.140 . S
C172 O173 1.227 . S
C172 O182 1.265 . S
O173 C172 1.227 . S
N174 Co171 2.121 . S
N174 C176 1.375 . S
N174 C177 1.313 . S
C175 C176 1.338 . S
C175 N178 1.377 . S
C175 H195 0.930 . S
C176 N174 1.375 . S
C176 C175 1.338 . S
C176 H180 0.931 . S
C177 N174 1.313 . S
C177 N178 1.344 . S
C177 H181 0.930 . S
N178 C175 1.377 . S
N178 C177 1.344 . S
O179 Co171 2.055 . S
O179 C183 1.253 . S
H180 C176 0.931 . S
H181 C177 0.930 . S
O182 Co171 2.039 . S
O182 C172 1.265 . S
C183 O179 1.253 . S
C183 O184 1.227 . S
O184 C183 1.227 . S
N185 Co171 2.140 . S
N185 C188 1.346 . S
N185 C189 1.345 . S
C186 C187 1.387 . S
C186 C190 1.391 . S
C187 C186 1.387 . S
C187 C188 1.369 . S
C187 H196 0.929 . S
C188 N185 1.346 . S
C188 C187 1.369 . S
C188 H191 0.928 . S
C189 N185 1.345 . S
C189 C190 1.371 . S
C189 H192 0.931 . S
C190 C186 1.391 . S
C190 C189 1.371 . S
C190 H197 0.930 . S
H191 C188 0.928 . S
H192 C189 0.931 . S
H193 C169 0.930 1_545 S
H194 C166 0.930 . S
H195 C175 0.930 . S
H196 C187 0.929 . S
H197 C190 0.930 . S
C198 C199 1.351 . S
C198 N201 1.368 . S
C198 H203 0.931 . S
C199 C198 1.351 . S
C199 N200 1.373 . S
C199 H227 0.930 . S
N200 C199 1.373 . S
N200 C202 1.340 . S
N201 C198 1.368 . S
N201 C202 1.321 . S
N201 Co204 2.135 . S
C202 N200 1.340 . S
C202 N201 1.321 . S
C202 H226 0.930 . S
H203 C198 0.931 . S
Co204 N201 2.135 . S
Co204 N207 2.121 . S
Co204 O212 2.055 . S
Co204 O215 2.039 . S
Co204 N218 2.140 . S
C205 O206 1.227 . S
C205 O215 1.265 . S
O206 C205 1.227 . S
N207 Co204 2.121 . S
N207 C209 1.375 . S
N207 C210 1.313 . S
C208 C209 1.338 1_655 S
C208 N211 1.377 1_655 S
C208 H228 0.930 . S
C209 N207 1.375 . S
C209 C208 1.338 1_455 S
C209 H213 0.931 . S
C210 N207 1.313 . S
C210 N211 1.344 . S
C210 H214 0.930 . S
N211 C208 1.377 1_455 S
N211 C210 1.344 . S
O212 Co204 2.055 . S
O212 C216 1.253 . S
H213 C209 0.931 . S
H214 C210 0.930 . S
O215 Co204 2.039 . S
O215 C205 1.265 . S
C216 O212 1.253 . S
C216 O217 1.227 . S
O217 C216 1.227 . S
N218 Co204 2.140 . S
N218 C221 1.346 . S
N218 C222 1.345 . S
C219 C220 1.387 . S
C219 C223 1.391 . S
C220 C219 1.387 . S
C220 C221 1.369 . S
C220 H229 0.929 . S
C221 N218 1.346 . S
C221 C220 1.369 . S
C221 H224 0.928 . S
C222 N218 1.345 . S
C222 C223 1.371 . S
C222 H225 0.931 . S
C223 C219 1.391 . S
C223 C222 1.371 . S
C223 H230 0.930 . S
H224 C221 0.928 . S
H225 C222 0.931 . S
H226 C202 0.930 . S
H227 C199 0.930 . S
H228 C208 0.930 . S
H229 C220 0.929 . S
H230 C223 0.930 . S
C231 C232 1.351 . S
C231 N234 1.381 . S
C231 H236 0.931 . S
C232 C231 1.351 . S
C232 N233 1.373 . S
C232 H260 0.930 . S
N233 C232 1.373 . S
N233 C235 1.340 . S
N234 C231 1.381 . S
N234 C235 1.324 . S
N234 Co237 2.122 1_545 S
C235 N233 1.340 . S
C235 N234 1.324 . S
C235 H259 0.930 1_545 S
H236 C231 0.931 . S
Co237 N234 2.122 1_565 S
Co237 N240 2.121 . S
Co237 O245 2.055 . S
Co237 O248 2.039 . S
Co237 N251 2.140 . S
C238 O239 1.227 . S
C238 O248 1.265 . S
O239 C238 1.227 . S
N240 Co237 2.121 . S
N240 C242 1.375 . S
N240 C243 1.313 . S
C241 C242 1.338 . S
C241 N244 1.377 . S
C241 H261 0.930 . S
C242 N240 1.375 . S
C242 C241 1.338 . S
C242 H246 0.931 . S
C243 N240 1.313 . S
C243 N244 1.344 . S
C243 H247 0.930 1_554 S
N244 C241 1.377 . S
N244 C243 1.344 . S
O245 Co237 2.055 . S
O245 C249 1.253 1_554 S
H246 C242 0.931 . S
H247 C243 0.930 1_556 S
O248 Co237 2.039 . S
O248 C238 1.265 . S
C249 O245 1.253 1_556 S
C249 O250 1.227 1_556 S
O250 C249 1.227 1_554 S
N251 Co237 2.140 . S
N251 C254 1.346 . S
N251 C255 1.345 1_455 S
C252 C253 1.387 . S
C252 C256 1.391 . S
C253 C252 1.387 . S
C253 C254 1.369 1_655 S
C253 H262 0.929 . S
C254 N251 1.346 . S
C254 C253 1.369 1_455 S
C254 H257 0.928 . S
C255 N251 1.345 1_655 S
C255 C256 1.371 . S
C255 H258 0.931 . S
C256 C252 1.391 . S
C256 C255 1.371 . S
C256 H263 0.930 . S
H257 C254 0.928 . S
H258 C255 0.931 . S
H259 C235 0.930 1_565 S
H260 C232 0.930 . S
H261 C241 0.930 . S
H262 C253 0.929 . S
H263 C256 0.930 . S
C264 C265 1.351 . S
C264 N267 1.368 . S
C264 H269 0.931 . S
C265 C264 1.351 . S
C265 N266 1.373 . S
C265 H293 0.930 . S
N266 C265 1.373 . S
N266 C268 1.340 . S
N267 C264 1.368 . S
N267 C268 1.321 . S
N267 Co270 2.135 . S
C268 N266 1.340 . S
C268 N267 1.321 . S
C268 H292 0.930 . S
H269 C264 0.931 . S
Co270 N267 2.135 . S
Co270 N273 2.121 . S
Co270 O278 2.055 . S
Co270 O281 2.039 . S
Co270 N284 2.140 . S
C271 O272 1.227 . S
C271 O281 1.265 . S
O272 C271 1.227 . S
N273 Co270 2.121 . S
N273 C275 1.375 . S
N273 C276 1.313 . S
C274 C275 1.338 . S
C274 N277 1.377 . S
C274 H294 0.930 . S
C275 N273 1.375 . S
C275 C274 1.338 . S
C275 H279 0.931 . S
C276 N273 1.313 . S
C276 N277 1.344 . S
C276 H280 0.930 . S
N277 C274 1.377 . S
N277 C276 1.344 . S
O278 Co270 2.055 . S
O278 C282 1.253 . S
H279 C275 0.931 . S
H280 C276 0.930 . S
O281 Co270 2.039 . S
O281 C271 1.265 . S
C282 O278 1.253 . S
C282 O283 1.227 . S
O283 C282 1.227 . S
N284 Co270 2.140 . S
N284 C287 1.346 . S
N284 C288 1.345 . S
C285 C286 1.387 . S
C285 C289 1.391 . S
C286 C285 1.387 . S
C286 C287 1.369 . S
C286 H295 0.929 . S
C287 N284 1.346 . S
C287 C286 1.369 . S
C287 H290 0.928 . S
C288 N284 1.345 . S
C288 C289 1.371 . S
C288 H291 0.931 . S
C289 C285 1.391 . S
C289 C288 1.371 . S
C289 H296 0.930 . S
H290 C287 0.928 . S
H291 C288 0.931 . S
H292 C268 0.930 . S
H293 C265 0.930 . S
H294 C274 0.930 . S
H295 C286 0.929 . S
H296 C289 0.930 . S
C297 C298 1.351 . S
C297 N300 1.381 . S
C297 H302 0.931 . S
C298 C297 1.351 . S
C298 N299 1.373 . S
C298 H326 0.930 . S
N299 C298 1.373 . S
N299 C301 1.340 . S
N300 C297 1.381 . S
N300 C301 1.324 . S
N300 Co303 2.122 1_545 S
C301 N299 1.340 . S
C301 N300 1.324 . S
C301 H325 0.930 1_545 S
H302 C297 0.931 . S
Co303 N300 2.122 1_565 S
Co303 N306 2.121 . S
Co303 O311 2.055 . S
Co303 O314 2.039 . S
Co303 N317 2.140 . S
C304 O305 1.227 . S
C304 O314 1.265 . S
O305 C304 1.227 . S
N306 Co303 2.121 . S
N306 C308 1.375 . S
N306 C309 1.313 . S
C307 C308 1.338 . S
C307 N310 1.377 . S
C307 H327 0.930 . S
C308 N306 1.375 . S
C308 C307 1.338 . S
C308 H312 0.931 . S
C309 N306 1.313 . S
C309 N310 1.344 . S
C309 H313 0.930 . S
N310 C307 1.377 . S
N310 C309 1.344 . S
O311 Co303 2.055 . S
O311 C315 1.253 . S
H312 C308 0.931 . S
H313 C309 0.930 . S
O314 Co303 2.039 . S
O314 C304 1.265 . S
C315 O311 1.253 . S
C315 O316 1.227 . S
O316 C315 1.227 . S
N317 Co303 2.140 . S
N317 C320 1.346 . S
N317 C321 1.345 1_655 S
C318 C319 1.387 . S
C318 C322 1.391 . S
C319 C318 1.387 . S
C319 C320 1.369 1_455 S
C319 H328 0.929 . S
C320 N317 1.346 . S
C320 C319 1.369 1_655 S
C320 H323 0.928 . S
C321 N317 1.345 1_455 S
C321 C322 1.371 . S
C321 H324 0.931 . S
C322 C318 1.391 . S
C322 C321 1.371 . S
C322 H329 0.930 . S
H323 C320 0.928 . S
H324 C321 0.931 . S
H325 C301 0.930 1_565 S
H326 C298 0.930 . S
H327 C307 0.930 . S
H328 C319 0.929 . S
H329 C322 0.930 . S
C330 C331 1.351 . S
C330 N333 1.368 . S
C330 H335 0.931 . S
C331 C330 1.351 . S
C331 N332 1.373 . S
C331 H359 0.930 . S
N332 C331 1.373 . S
N332 C334 1.340 . S
N333 C330 1.368 . S
N333 C334 1.321 . S
N333 Co336 2.135 . S
C334 N332 1.340 . S
C334 N333 1.321 . S
C334 H358 0.930 . S
H335 C330 0.931 . S
Co336 N333 2.135 . S
Co336 N339 2.121 . S
Co336 O344 2.055 . S
Co336 O347 2.039 . S
Co336 N350 2.140 . S
C337 O338 1.227 . S
C337 O347 1.265 . S
O338 C337 1.227 . S
N339 Co336 2.121 . S
N339 C341 1.375 . S
N339 C342 1.313 . S
C340 C341 1.338 1_455 S
C340 N343 1.377 1_455 S
C340 H360 0.930 . S
C341 N339 1.375 . S
C341 C340 1.338 1_655 S
C341 H345 0.931 . S
C342 N339 1.313 . S
C342 N343 1.344 . S
C342 H346 0.930 . S
N343 C340 1.377 1_655 S
N343 C342 1.344 . S
O344 Co336 2.055 . S
O344 C348 1.253 . S
H345 C341 0.931 . S
H346 C342 0.930 . S
O347 Co336 2.039 . S
O347 C337 1.265 . S
C348 O344 1.253 . S
C348 O349 1.227 . S
O349 C348 1.227 . S
N350 Co336 2.140 . S
N350 C353 1.346 . S
N350 C354 1.345 . S
C351 C352 1.387 . S
C351 C355 1.391 . S
C352 C351 1.387 . S
C352 C353 1.369 . S
C352 H361 0.929 . S
C353 N350 1.346 . S
C353 C352 1.369 . S
C353 H356 0.928 . S
C354 N350 1.345 . S
C354 C355 1.371 . S
C354 H357 0.931 . S
C355 C351 1.391 . S
C355 C354 1.371 . S
C355 H362 0.930 . S
H356 C353 0.928 . S
H357 C354 0.931 . S
H358 C334 0.930 . S
H359 C331 0.930 . S
H360 C340 0.930 . S
H361 C352 0.929 . S
H362 C355 0.930 . S
C363 C364 1.351 . S
C363 N366 1.381 . S
C363 H368 0.931 . S
C364 C363 1.351 . S
C364 N365 1.373 . S
C364 H392 0.930 . S
N365 C364 1.373 . S
N365 C367 1.340 . S
N366 C363 1.381 . S
N366 C367 1.324 . S
N366 Co369 2.122 1_565 S
C367 N365 1.340 . S
C367 N366 1.324 . S
C367 H391 0.930 1_565 S
H368 C363 0.931 . S
Co369 N366 2.122 1_545 S
Co369 N372 2.121 . S
Co369 O377 2.055 . S
Co369 O380 2.039 . S
Co369 N383 2.140 . S
C370 O371 1.227 . S
C370 O380 1.265 . S
O371 C370 1.227 . S
N372 Co369 2.121 . S
N372 C374 1.375 . S
N372 C375 1.313 . S
C373 C374 1.338 . S
C373 N376 1.377 . S
C373 H393 0.930 . S
C374 N372 1.375 . S
C374 C373 1.338 . S
C374 H378 0.931 . S
C375 N372 1.313 . S
C375 N376 1.344 . S
C375 H379 0.930 1_554 S
N376 C373 1.377 . S
N376 C375 1.344 . S
O377 Co369 2.055 . S
O377 C381 1.253 1_554 S
H378 C374 0.931 . S
H379 C375 0.930 1_556 S
O380 Co369 2.039 . S
O380 C370 1.265 . S
C381 O377 1.253 1_556 S
C381 O382 1.227 1_556 S
O382 C381 1.227 1_554 S
N383 Co369 2.140 . S
N383 C386 1.346 . S
N383 C387 1.345 . S
C384 C385 1.387 . S
C384 C388 1.391 . S
C385 C384 1.387 . S
C385 C386 1.369 . S
C385 H394 0.929 . S
C386 N383 1.346 . S
C386 C385 1.369 . S
C386 H389 0.928 . S
C387 N383 1.345 . S
C387 C388 1.371 . S
C387 H390 0.931 . S
C388 C384 1.391 . S
C388 C387 1.371 . S
C388 H395 0.930 . S
H389 C386 0.928 . S
H390 C387 0.931 . S
H391 C367 0.930 1_545 S
H392 C364 0.930 . S
H393 C373 0.930 . S
H394 C385 0.929 . S
H395 C388 0.930 . S
C396 C397 1.351 . S
C396 N399 1.368 . S
C396 H401 0.931 . S
C397 C396 1.351 . S
C397 N398 1.373 . S
C397 H425 0.930 . S
N398 C397 1.373 . S
N398 C400 1.340 . S
N399 C396 1.368 . S
N399 C400 1.321 . S
N399 Co402 2.135 . S
C400 N398 1.340 . S
C400 N399 1.321 . S
C400 H424 0.930 . S
H401 C396 0.931 . S
Co402 N399 2.135 . S
Co402 N405 2.121 . S
Co402 O410 2.055 . S
Co402 O413 2.039 . S
Co402 N416 2.140 . S
C403 O404 1.227 . S
C403 O413 1.265 . S
O404 C403 1.227 . S
N405 Co402 2.121 . S
N405 C407 1.375 . S
N405 C408 1.313 . S
C406 C407 1.338 . S
C406 N409 1.377 . S
C406 H426 0.930 . S
C407 N405 1.375 . S
C407 C406 1.338 . S
C407 H411 0.931 . S
C408 N405 1.313 . S
C408 N409 1.344 . S
C408 H412 0.930 . S
N409 C406 1.377 . S
N409 C408 1.344 . S
O410 Co402 2.055 . S
O410 C414 1.253 . S
H411 C407 0.931 . S
H412 C408 0.930 . S
O413 Co402 2.039 . S
O413 C403 1.265 . S
C414 O410 1.253 . S
C414 O415 1.227 . S
O415 C414 1.227 . S
N416 Co402 2.140 . S
N416 C419 1.346 . S
N416 C420 1.345 . S
C417 C418 1.387 . S
C417 C421 1.391 . S
C418 C417 1.387 . S
C418 C419 1.369 . S
C418 H427 0.929 . S
C419 N416 1.346 . S
C419 C418 1.369 . S
C419 H422 0.928 . S
C420 N416 1.345 . S
C420 C421 1.371 . S
C420 H423 0.931 . S
C421 C417 1.391 . S
C421 C420 1.371 . S
C421 H428 0.930 . S
H422 C419 0.928 . S
H423 C420 0.931 . S
H424 C400 0.930 . S
H425 C397 0.930 . S
H426 C406 0.930 . S
H427 C418 0.929 . S
H428 C421 0.930 . S
C429 C430 1.351 . S
C429 N432 1.381 . S
C429 H434 0.931 . S
C430 C429 1.351 . S
C430 N431 1.373 . S
C430 H458 0.930 . S
N431 C430 1.373 . S
N431 C433 1.340 . S
N432 C429 1.381 . S
N432 C433 1.324 . S
N432 Co435 2.122 1_545 S
C433 N431 1.340 . S
C433 N432 1.324 . S
C433 H457 0.930 1_545 S
H434 C429 0.931 . S
Co435 N432 2.122 1_565 S
Co435 N438 2.121 . S
Co435 O443 2.055 . S
Co435 O446 2.039 . S
Co435 N449 2.140 . S
C436 O437 1.227 . S
C436 O446 1.265 . S
O437 C436 1.227 . S
N438 Co435 2.121 . S
N438 C440 1.375 . S
N438 C441 1.313 . S
C439 C440 1.338 . S
C439 N442 1.377 . S
C439 H459 0.930 . S
C440 N438 1.375 . S
C440 C439 1.338 . S
C440 H444 0.931 . S
C441 N438 1.313 . S
C441 N442 1.344 . S
C441 H445 0.930 . S
N442 C439 1.377 . S
N442 C441 1.344 . S
O443 Co435 2.055 . S
O443 C447 1.253 . S
H444 C440 0.931 . S
H445 C441 0.930 . S
O446 Co435 2.039 . S
O446 C436 1.265 . S
C447 O443 1.253 . S
C447 O448 1.227 . S
O448 C447 1.227 . S
N449 Co435 2.140 . S
N449 C452 1.346 . S
N449 C453 1.345 . S
C450 C451 1.387 . S
C450 C454 1.391 . S
C451 C450 1.387 . S
C451 C452 1.369 . S
C451 H460 0.929 . S
C452 N449 1.346 . S
C452 C451 1.369 . S
C452 H455 0.928 . S
C453 N449 1.345 . S
C453 C454 1.371 . S
C453 H456 0.931 . S
C454 C450 1.391 . S
C454 C453 1.371 . S
C454 H461 0.930 . S
H455 C452 0.928 . S
H456 C453 0.931 . S
H457 C433 0.930 1_565 S
H458 C430 0.930 . S
H459 C439 0.930 . S
H460 C451 0.929 . S
H461 C454 0.930 . S
C462 C463 1.351 . S
C462 N465 1.368 . S
C462 H467 0.931 . S
C463 C462 1.351 . S
C463 N464 1.373 . S
C463 H491 0.930 . S
N464 C463 1.373 . S
N464 C466 1.340 . S
N465 C462 1.368 . S
N465 C466 1.321 . S
N465 Co468 2.135 . S
C466 N464 1.340 . S
C466 N465 1.321 . S
C466 H490 0.930 . S
H467 C462 0.931 . S
Co468 N465 2.135 . S
Co468 N471 2.121 . S
Co468 O476 2.055 . S
Co468 O479 2.039 . S
Co468 N482 2.140 . S
C469 O470 1.227 . S
C469 O479 1.265 . S
O470 C469 1.227 . S
N471 Co468 2.121 . S
N471 C473 1.375 . S
N471 C474 1.313 . S
C472 C473 1.338 1_455 S
C472 N475 1.377 1_455 S
C472 H492 0.930 . S
C473 N471 1.375 . S
C473 C472 1.338 1_655 S
C473 H477 0.931 . S
C474 N471 1.313 . S
C474 N475 1.344 . S
C474 H478 0.930 . S
N475 C472 1.377 1_655 S
N475 C474 1.344 . S
O476 Co468 2.055 . S
O476 C480 1.253 . S
H477 C473 0.931 . S
H478 C474 0.930 . S
O479 Co468 2.039 . S
O479 C469 1.265 . S
C480 O476 1.253 . S
C480 O481 1.227 . S
O481 C480 1.227 . S
N482 Co468 2.140 . S
N482 C485 1.346 . S
N482 C486 1.345 . S
C483 C484 1.387 . S
C483 C487 1.391 . S
C484 C483 1.387 . S
C484 C485 1.369 . S
C484 H493 0.929 . S
C485 N482 1.346 . S
C485 C484 1.369 . S
C485 H488 0.928 . S
C486 N482 1.345 . S
C486 C487 1.371 . S
C486 H489 0.931 . S
C487 C483 1.391 . S
C487 C486 1.371 . S
C487 H494 0.930 . S
H488 C485 0.928 . S
H489 C486 0.931 . S
H490 C466 0.930 . S
H491 C463 0.930 . S
H492 C472 0.930 . S
H493 C484 0.929 . S
H494 C487 0.930 . S
C495 C496 1.351 . S
C495 N498 1.381 . S
C495 H500 0.931 . S
C496 C495 1.351 . S
C496 N497 1.373 . S
C496 H524 0.930 . S
N497 C496 1.373 . S
N497 C499 1.340 . S
N498 C495 1.381 . S
N498 C499 1.324 . S
N498 Co501 2.122 1_565 S
C499 N497 1.340 . S
C499 N498 1.324 . S
C499 H523 0.930 1_565 S
H500 C495 0.931 . S
Co501 N498 2.122 1_545 S
Co501 N504 2.121 . S
Co501 O509 2.055 . S
Co501 O512 2.039 . S
Co501 N515 2.140 . S
C502 O503 1.227 . S
C502 O512 1.265 . S
O503 C502 1.227 . S
N504 Co501 2.121 . S
N504 C506 1.375 . S
N504 C507 1.313 . S
C505 C506 1.338 . S
C505 N508 1.377 . S
C505 H525 0.930 . S
C506 N504 1.375 . S
C506 C505 1.338 . S
C506 H510 0.931 . S
C507 N504 1.313 . S
C507 N508 1.344 . S
C507 H511 0.930 1_556 S
N508 C505 1.377 . S
N508 C507 1.344 . S
O509 Co501 2.055 . S
O509 C513 1.253 1_556 S
H510 C506 0.931 . S
H511 C507 0.930 1_554 S
O512 Co501 2.039 . S
O512 C502 1.265 . S
C513 O509 1.253 1_554 S
C513 O514 1.227 1_554 S
O514 C513 1.227 1_556 S
N515 Co501 2.140 . S
N515 C518 1.346 . S
N515 C519 1.345 1_655 S
C516 C517 1.387 . S
C516 C520 1.391 . S
C517 C516 1.387 . S
C517 C518 1.369 1_455 S
C517 H526 0.929 . S
C518 N515 1.346 . S
C518 C517 1.369 1_655 S
C518 H521 0.928 . S
C519 N515 1.345 1_455 S
C519 C520 1.371 . S
C519 H522 0.931 . S
C520 C516 1.391 . S
C520 C519 1.371 . S
C520 H527 0.930 . S
H521 C518 0.928 . S
H522 C519 0.931 . S
H523 C499 0.930 1_545 S
H524 C496 0.930 . S
H525 C505 0.930 . S
H526 C517 0.929 . S
H527 C520 0.930 . S
C528 C529 1.351 . S
C528 N531 1.368 . S
C528 H533 0.931 . S
C529 C528 1.351 . S
C529 N530 1.373 . S
C529 H557 0.930 . S
N530 C529 1.373 . S
N530 C532 1.340 . S
N531 C528 1.368 . S
N531 C532 1.321 . S
N531 Co534 2.135 . S
C532 N530 1.340 . S
C532 N531 1.321 . S
C532 H556 0.930 . S
H533 C528 0.931 . S
Co534 N531 2.135 . S
Co534 N537 2.121 . S
Co534 O542 2.055 . S
Co534 O545 2.039 . S
Co534 N548 2.140 . S
C535 O536 1.227 . S
C535 O545 1.265 . S
O536 C535 1.227 . S
N537 Co534 2.121 . S
N537 C539 1.375 . S
N537 C540 1.313 . S
C538 C539 1.338 1_455 S
C538 N541 1.377 1_455 S
C538 H558 0.930 . S
C539 N537 1.375 . S
C539 C538 1.338 1_655 S
C539 H543 0.931 . S
C540 N537 1.313 . S
C540 N541 1.344 . S
C540 H544 0.930 . S
N541 C538 1.377 1_655 S
N541 C540 1.344 . S
O542 Co534 2.055 . S
O542 C546 1.253 . S
H543 C539 0.931 . S
H544 C540 0.930 . S
O545 Co534 2.039 . S
O545 C535 1.265 . S
C546 O542 1.253 . S
C546 O547 1.227 . S
O547 C546 1.227 . S
N548 Co534 2.140 . S
N548 C551 1.346 . S
N548 C552 1.345 . S
C549 C550 1.387 . S
C549 C553 1.391 . S
C550 C549 1.387 . S
C550 C551 1.369 . S
C550 H559 0.929 . S
C551 N548 1.346 . S
C551 C550 1.369 . S
C551 H554 0.928 . S
C552 N548 1.345 . S
C552 C553 1.371 . S
C552 H555 0.931 . S
C553 C549 1.391 . S
C553 C552 1.371 . S
C553 H560 0.930 . S
H554 C551 0.928 . S
H555 C552 0.931 . S
H556 C532 0.930 . S
H557 C529 0.930 . S
H558 C538 0.930 . S
H559 C550 0.929 . S
H560 C553 0.930 . S
C561 C562 1.351 . S
C561 N564 1.368 . S
C561 H566 0.931 . S
C562 C561 1.351 . S
C562 N563 1.373 . S
C562 H590 0.930 . S
N563 C562 1.373 . S
N563 C565 1.340 . S
N564 C561 1.368 . S
N564 C565 1.321 . S
N564 Co567 2.135 . S
C565 N563 1.340 . S
C565 N564 1.321 . S
C565 H589 0.930 . S
H566 C561 0.931 . S
Co567 N564 2.135 . S
Co567 N570 2.121 . S
Co567 O575 2.055 . S
Co567 O578 2.039 . S
Co567 N581 2.140 . S
C568 O569 1.227 . S
C568 O578 1.265 . S
O569 C568 1.227 . S
N570 Co567 2.121 . S
N570 C572 1.375 . S
N570 C573 1.313 . S
C571 C572 1.338 . S
C571 N574 1.377 . S
C571 H591 0.930 . S
C572 N570 1.375 . S
C572 C571 1.338 . S
C572 H576 0.931 . S
C573 N570 1.313 . S
C573 N574 1.344 . S
C573 H577 0.930 1_556 S
N574 C571 1.377 . S
N574 C573 1.344 . S
O575 Co567 2.055 . S
O575 C579 1.253 1_556 S
H576 C572 0.931 . S
H577 C573 0.930 1_554 S
O578 Co567 2.039 . S
O578 C568 1.265 . S
C579 O575 1.253 1_554 S
C579 O580 1.227 1_554 S
O580 C579 1.227 1_556 S
N581 Co567 2.140 . S
N581 C584 1.346 . S
N581 C585 1.345 . S
C582 C583 1.387 . S
C582 C586 1.391 . S
C583 C582 1.387 . S
C583 C584 1.369 . S
C583 H592 0.929 . S
C584 N581 1.346 . S
C584 C583 1.369 . S
C584 H587 0.928 . S
C585 N581 1.345 . S
C585 C586 1.371 . S
C585 H588 0.931 . S
C586 C582 1.391 . S
C586 C585 1.371 . S
C586 H593 0.930 . S
H587 C584 0.928 . S
H588 C585 0.931 . S
H589 C565 0.930 . S
H590 C562 0.930 . S
H591 C571 0.930 . S
H592 C583 0.929 . S
H593 C586 0.930 . S
C594 C595 1.351 . S
C594 N597 1.368 . S
C594 H599 0.931 . S
C595 C594 1.351 . S
C595 N596 1.373 . S
C595 H623 0.930 . S
N596 C595 1.373 . S
N596 C598 1.340 . S
N597 C594 1.368 . S
N597 C598 1.321 . S
N597 Co600 2.135 . S
C598 N596 1.340 . S
C598 N597 1.321 . S
C598 H622 0.930 . S
H599 C594 0.931 . S
Co600 N597 2.135 . S
Co600 N603 2.121 . S
Co600 O608 2.055 . S
Co600 O611 2.039 . S
Co600 N614 2.140 . S
C601 O602 1.227 . S
C601 O611 1.265 . S
O602 C601 1.227 . S
N603 Co600 2.121 . S
N603 C605 1.375 . S
N603 C606 1.313 . S
C604 C605 1.338 . S
C604 N607 1.377 . S
C604 H624 0.930 . S
C605 N603 1.375 . S
C605 C604 1.338 . S
C605 H609 0.931 . S
C606 N603 1.313 . S
C606 N607 1.344 . S
C606 H610 0.930 . S
N607 C604 1.377 . S
N607 C606 1.344 . S
O608 Co600 2.055 . S
O608 C612 1.253 . S
H609 C605 0.931 . S
H610 C606 0.930 . S
O611 Co600 2.039 . S
O611 C601 1.265 . S
C612 O608 1.253 . S
C612 O613 1.227 . S
O613 C612 1.227 . S
N614 Co600 2.140 . S
N614 C617 1.346 . S
N614 C618 1.345 . S
C615 C616 1.387 . S
C615 C619 1.391 . S
C616 C615 1.387 . S
C616 C617 1.369 . S
C616 H625 0.929 . S
C617 N614 1.346 . S
C617 C616 1.369 . S
C617 H620 0.928 . S
C618 N614 1.345 . S
C618 C619 1.371 . S
C618 H621 0.931 . S
C619 C615 1.391 . S
C619 C618 1.371 . S
C619 H626 0.930 . S
H620 C617 0.928 . S
H621 C618 0.931 . S
H622 C598 0.930 . S
H623 C595 0.930 . S
H624 C604 0.930 . S
H625 C616 0.929 . S
H626 C619 0.930 . S
C627 C628 1.351 . S
C627 N630 1.368 . S
C627 H632 0.931 . S
C628 C627 1.351 . S
C628 N629 1.373 . S
C628 H656 0.930 . S
N629 C628 1.373 . S
N629 C631 1.340 . S
N630 C627 1.368 . S
N630 C631 1.321 . S
N630 Co633 2.135 . S
C631 N629 1.340 . S
C631 N630 1.321 . S
C631 H655 0.930 . S
H632 C627 0.931 . S
Co633 N630 2.135 . S
Co633 N636 2.121 . S
Co633 O641 2.055 . S
Co633 O644 2.039 . S
Co633 N647 2.140 . S
C634 O635 1.227 . S
C634 O644 1.265 . S
O635 C634 1.227 . S
N636 Co633 2.121 . S
N636 C638 1.375 . S
N636 C639 1.313 . S
C637 C638 1.338 . S
C637 N640 1.377 . S
C637 H657 0.930 . S
C638 N636 1.375 . S
C638 C637 1.338 . S
C638 H642 0.931 . S
C639 N636 1.313 . S
C639 N640 1.344 . S
C639 H643 0.930 . S
N640 C637 1.377 . S
N640 C639 1.344 . S
O641 Co633 2.055 . S
O641 C645 1.253 . S
H642 C638 0.931 . S
H643 C639 0.930 . S
O644 Co633 2.039 . S
O644 C634 1.265 . S
C645 O641 1.253 . S
C645 O646 1.227 . S
O646 C645 1.227 . S
N647 Co633 2.140 . S
N647 C650 1.346 . S
N647 C651 1.345 1_655 S
C648 C649 1.387 . S
C648 C652 1.391 . S
C649 C648 1.387 . S
C649 C650 1.369 1_455 S
C649 H658 0.929 . S
C650 N647 1.346 . S
C650 C649 1.369 1_655 S
C650 H653 0.928 . S
C651 N647 1.345 1_455 S
C651 C652 1.371 . S
C651 H654 0.931 . S
C652 C648 1.391 . S
C652 C651 1.371 . S
C652 H659 0.930 . S
H653 C650 0.928 . S
H654 C651 0.931 . S
H655 C631 0.930 . S
H656 C628 0.930 . S
H657 C637 0.930 . S
H658 C649 0.929 . S
H659 C652 0.930 . S
C660 C661 1.351 . S
C660 N663 1.368 . S
C660 H665 0.931 . S
C661 C660 1.351 . S
C661 N662 1.373 . S
C661 H689 0.930 . S
N662 C661 1.373 . S
N662 C664 1.340 . S
N663 C660 1.368 . S
N663 C664 1.321 . S
N663 Co666 2.135 . S
C664 N662 1.340 . S
C664 N663 1.321 . S
C664 H688 0.930 . S
H665 C660 0.931 . S
Co666 N663 2.135 . S
Co666 N669 2.121 . S
Co666 O674 2.055 . S
Co666 O677 2.039 . S
Co666 N680 2.140 . S
C667 O668 1.227 . S
C667 O677 1.265 . S
O668 C667 1.227 . S
N669 Co666 2.121 . S
N669 C671 1.375 . S
N669 C672 1.313 . S
C670 C671 1.338 1_455 S
C670 N673 1.377 1_455 S
C670 H690 0.930 . S
C671 N669 1.375 . S
C671 C670 1.338 1_655 S
C671 H675 0.931 . S
C672 N669 1.313 . S
C672 N673 1.344 . S
C672 H676 0.930 . S
N673 C670 1.377 1_655 S
N673 C672 1.344 . S
O674 Co666 2.055 . S
O674 C678 1.253 . S
H675 C671 0.931 . S
H676 C672 0.930 . S
O677 Co666 2.039 . S
O677 C667 1.265 . S
C678 O674 1.253 . S
C678 O679 1.227 . S
O679 C678 1.227 . S
N680 Co666 2.140 . S
N680 C683 1.346 . S
N680 C684 1.345 . S
C681 C682 1.387 . S
C681 C685 1.391 . S
C682 C681 1.387 . S
C682 C683 1.369 . S
C682 H691 0.929 . S
C683 N680 1.346 . S
C683 C682 1.369 . S
C683 H686 0.928 . S
C684 N680 1.345 . S
C684 C685 1.371 . S
C684 H687 0.931 . S
C685 C681 1.391 . S
C685 C684 1.371 . S
C685 H692 0.930 . S
H686 C683 0.928 . S
H687 C684 0.931 . S
H688 C664 0.930 . S
H689 C661 0.930 . S
H690 C670 0.930 . S
H691 C682 0.929 . S
H692 C685 0.930 . S
C693 C694 1.351 . S
C693 N696 1.368 . S
C693 H698 0.931 . S
C694 C693 1.351 . S
C694 N695 1.373 . S
C694 H722 0.930 . S
N695 C694 1.373 . S
N695 C697 1.340 . S
N696 C693 1.368 . S
N696 C697 1.321 . S
N696 Co699 2.135 . S
C697 N695 1.340 . S
C697 N696 1.321 . S
C697 H721 0.930 . S
H698 C693 0.931 . S
Co699 N696 2.135 . S
Co699 N702 2.121 . S
Co699 O707 2.055 . S
Co699 O710 2.039 . S
Co699 N713 2.140 . S
C700 O701 1.227 . S
C700 O710 1.265 . S
O701 C700 1.227 . S
N702 Co699 2.121 . S
N702 C704 1.375 . S
N702 C705 1.313 . S
C703 C704 1.338 . S
C703 N706 1.377 . S
C703 H723 0.930 . S
C704 N702 1.375 . S
C704 C703 1.338 . S
C704 H708 0.931 . S
C705 N702 1.313 . S
C705 N706 1.344 . S
C705 H709 0.930 1_554 S
N706 C703 1.377 . S
N706 C705 1.344 . S
O707 Co699 2.055 . S
O707 C711 1.253 1_554 S
H708 C704 0.931 . S
H709 C705 0.930 1_556 S
O710 Co699 2.039 . S
O710 C700 1.265 . S
C711 O707 1.253 1_556 S
C711 O712 1.227 1_556 S
O712 C711 1.227 1_554 S
N713 Co699 2.140 . S
N713 C716 1.346 . S
N713 C717 1.345 1_655 S
C714 C715 1.387 . S
C714 C718 1.391 . S
C715 C714 1.387 . S
C715 C716 1.369 1_455 S
C715 H724 0.929 . S
C716 N713 1.346 . S
C716 C715 1.369 1_655 S
C716 H719 0.928 . S
C717 N713 1.345 1_455 S
C717 C718 1.371 . S
C717 H720 0.931 . S
C718 C714 1.391 . S
C718 C717 1.371 . S
C718 H725 0.930 . S
H719 C716 0.928 . S
H720 C717 0.931 . S
H721 C697 0.930 . S
H722 C694 0.930 . S
H723 C703 0.930 . S
H724 C715 0.929 . S
H725 C718 0.930 . S
C726 C727 1.351 . S
C726 N729 1.368 . S
C726 H731 0.931 . S
C727 C726 1.351 . S
C727 N728 1.373 . S
C727 H755 0.930 . S
N728 C727 1.373 . S
N728 C730 1.340 . S
N729 C726 1.368 . S
N729 C730 1.321 . S
N729 Co732 2.135 . S
C730 N728 1.340 . S
C730 N729 1.321 . S
C730 H754 0.930 . S
H731 C726 0.931 . S
Co732 N729 2.135 . S
Co732 N735 2.121 . S
Co732 O740 2.055 . S
Co732 O743 2.039 . S
Co732 N746 2.140 . S
C733 O734 1.227 . S
C733 O743 1.265 . S
O734 C733 1.227 . S
N735 Co732 2.121 . S
N735 C737 1.375 . S
N735 C738 1.313 . S
C736 C737 1.338 . S
C736 N739 1.377 . S
C736 H756 0.930 . S
C737 N735 1.375 . S
C737 C736 1.338 . S
C737 H741 0.931 . S
C738 N735 1.313 . S
C738 N739 1.344 . S
C738 H742 0.930 . S
N739 C736 1.377 . S
N739 C738 1.344 . S
O740 Co732 2.055 . S
O740 C744 1.253 . S
H741 C737 0.931 . S
H742 C738 0.930 . S
O743 Co732 2.039 . S
O743 C733 1.265 . S
C744 O740 1.253 . S
C744 O745 1.227 . S
O745 C744 1.227 . S
N746 Co732 2.140 . S
N746 C749 1.346 . S
N746 C750 1.345 . S
C747 C748 1.387 . S
C747 C751 1.391 . S
C748 C747 1.387 . S
C748 C749 1.369 . S
C748 H757 0.929 . S
C749 N746 1.346 . S
C749 C748 1.369 . S
C749 H752 0.928 . S
C750 N746 1.345 . S
C750 C751 1.371 . S
C750 H753 0.931 . S
C751 C747 1.391 . S
C751 C750 1.371 . S
C751 H758 0.930 . S
H752 C749 0.928 . S
H753 C750 0.931 . S
H754 C730 0.930 . S
H755 C727 0.930 . S
H756 C736 0.930 . S
H757 C748 0.929 . S
H758 C751 0.930 . S
C759 C760 1.351 . S
C759 N762 1.368 . S
C759 H764 0.931 . S
C760 C759 1.351 . S
C760 N761 1.373 . S
C760 H788 0.930 . S
N761 C760 1.373 . S
N761 C763 1.340 . S
N762 C759 1.368 . S
N762 C763 1.321 . S
N762 Co765 2.135 . S
C763 N761 1.340 . S
C763 N762 1.321 . S
C763 H787 0.930 . S
H764 C759 0.931 . S
Co765 N762 2.135 . S
Co765 N768 2.121 . S
Co765 O773 2.055 . S
Co765 O776 2.039 . S
Co765 N779 2.140 . S
C766 O767 1.227 . S
C766 O776 1.265 . S
O767 C766 1.227 . S
N768 Co765 2.121 . S
N768 C770 1.375 . S
N768 C771 1.313 . S
C769 C770 1.338 . S
C769 N772 1.377 . S
C769 H789 0.930 . S
C770 N768 1.375 . S
C770 C769 1.338 . S
C770 H774 0.931 . S
C771 N768 1.313 . S
C771 N772 1.344 . S
C771 H775 0.930 . S
N772 C769 1.377 . S
N772 C771 1.344 . S
O773 Co765 2.055 . S
O773 C777 1.253 . S
H774 C770 0.931 . S
H775 C771 0.930 . S
O776 Co765 2.039 . S
O776 C766 1.265 . S
C777 O773 1.253 . S
C777 O778 1.227 . S
O778 C777 1.227 . S
N779 Co765 2.140 . S
N779 C782 1.346 . S
N779 C783 1.345 . S
C780 C781 1.387 . S
C780 C784 1.391 . S
C781 C780 1.387 . S
C781 C782 1.369 . S
C781 H790 0.929 . S
C782 N779 1.346 . S
C782 C781 1.369 . S
C782 H785 0.928 . S
C783 N779 1.345 . S
C783 C784 1.371 . S
C783 H786 0.931 . S
C784 C780 1.391 . S
C784 C783 1.371 . S
C784 H791 0.930 . S
H785 C782 0.928 . S
H786 C783 0.931 . S
H787 C763 0.930 . S
H788 C760 0.930 . S
H789 C769 0.930 . S
H790 C781 0.929 . S
H791 C784 0.930 . S
C792 C793 1.351 . S
C792 N795 1.368 . S
C792 H797 0.931 . S
C793 C792 1.351 . S
C793 N794 1.373 . S
C793 H821 0.930 . S
N794 C793 1.373 . S
N794 C796 1.340 . S
N795 C792 1.368 . S
N795 C796 1.321 . S
N795 Co798 2.135 . S
C796 N794 1.340 . S
C796 N795 1.321 . S
C796 H820 0.930 . S
H797 C792 0.931 . S
Co798 N795 2.135 . S
Co798 N801 2.121 . S
Co798 O806 2.055 . S
Co798 O809 2.039 . S
Co798 N812 2.140 . S
C799 O800 1.227 . S
C799 O809 1.265 . S
O800 C799 1.227 . S
N801 Co798 2.121 . S
N801 C803 1.375 . S
N801 C804 1.313 . S
C802 C803 1.338 1_655 S
C802 N805 1.377 1_655 S
C802 H822 0.930 . S
C803 N801 1.375 . S
C803 C802 1.338 1_455 S
C803 H807 0.931 . S
C804 N801 1.313 . S
C804 N805 1.344 . S
C804 H808 0.930 . S
N805 C802 1.377 1_455 S
N805 C804 1.344 . S
O806 Co798 2.055 . S
O806 C810 1.253 . S
H807 C803 0.931 . S
H808 C804 0.930 . S
O809 Co798 2.039 . S
O809 C799 1.265 . S
C810 O806 1.253 . S
C810 O811 1.227 . S
O811 C810 1.227 . S
N812 Co798 2.140 . S
N812 C815 1.346 . S
N812 C816 1.345 . S
C813 C814 1.387 . S
C813 C817 1.391 . S
C814 C813 1.387 . S
C814 C815 1.369 . S
C814 H823 0.929 . S
C815 N812 1.346 . S
C815 C814 1.369 . S
C815 H818 0.928 . S
C816 N812 1.345 . S
C816 C817 1.371 . S
C816 H819 0.931 . S
C817 C813 1.391 . S
C817 C816 1.371 . S
C817 H824 0.930 . S
H818 C815 0.928 . S
H819 C816 0.931 . S
H820 C796 0.930 . S
H821 C793 0.930 . S
H822 C802 0.930 . S
H823 C814 0.929 . S
H824 C817 0.930 . S
C825 C826 1.351 . S
C825 N828 1.368 . S
C825 H830 0.931 . S
C826 C825 1.351 . S
C826 N827 1.373 . S
C826 H854 0.930 . S
N827 C826 1.373 . S
N827 C829 1.340 . S
N828 C825 1.368 . S
N828 C829 1.321 . S
N828 Co831 2.135 . S
C829 N827 1.340 . S
C829 N828 1.321 . S
C829 H853 0.930 . S
H830 C825 0.931 . S
Co831 N828 2.135 . S
Co831 N834 2.121 . S
Co831 O839 2.055 . S
Co831 O842 2.039 . S
Co831 N845 2.140 . S
C832 O833 1.227 . S
C832 O842 1.265 . S
O833 C832 1.227 . S
N834 Co831 2.121 . S
N834 C836 1.375 . S
N834 C837 1.313 . S
C835 C836 1.338 . S
C835 N838 1.377 . S
C835 H855 0.930 . S
C836 N834 1.375 . S
C836 C835 1.338 . S
C836 H840 0.931 . S
C837 N834 1.313 . S
C837 N838 1.344 . S
C837 H841 0.930 1_554 S
N838 C835 1.377 . S
N838 C837 1.344 . S
O839 Co831 2.055 . S
O839 C843 1.253 1_554 S
H840 C836 0.931 . S
H841 C837 0.930 1_556 S
O842 Co831 2.039 . S
O842 C832 1.265 . S
C843 O839 1.253 1_556 S
C843 O844 1.227 1_556 S
O844 C843 1.227 1_554 S
N845 Co831 2.140 . S
N845 C848 1.346 . S
N845 C849 1.345 . S
C846 C847 1.387 . S
C846 C850 1.391 . S
C847 C846 1.387 . S
C847 C848 1.369 . S
C847 H856 0.929 . S
C848 N845 1.346 . S
C848 C847 1.369 . S
C848 H851 0.928 . S
C849 N845 1.345 . S
C849 C850 1.371 . S
C849 H852 0.931 . S
C850 C846 1.391 . S
C850 C849 1.371 . S
C850 H857 0.930 . S
H851 C848 0.928 . S
H852 C849 0.931 . S
H853 C829 0.930 . S
H854 C826 0.930 . S
H855 C835 0.930 . S
H856 C847 0.929 . S
H857 C850 0.930 . S
C858 C859 1.351 . S
C858 N861 1.368 . S
C858 H863 0.931 . S
C859 C858 1.351 . S
C859 N860 1.373 . S
C859 H887 0.930 . S
N860 C859 1.373 . S
N860 C862 1.340 . S
N861 C858 1.368 . S
N861 C862 1.321 . S
N861 Co864 2.135 . S
C862 N860 1.340 . S
C862 N861 1.321 . S
C862 H886 0.930 . S
H863 C858 0.931 . S
Co864 N861 2.135 . S
Co864 N867 2.121 . S
Co864 O872 2.055 . S
Co864 O875 2.039 . S
Co864 N878 2.140 . S
C865 O866 1.227 . S
C865 O875 1.265 . S
O866 C865 1.227 . S
N867 Co864 2.121 . S
N867 C869 1.375 . S
N867 C870 1.313 . S
C868 C869 1.338 . S
C868 N871 1.377 . S
C868 H888 0.930 . S
C869 N867 1.375 . S
C869 C868 1.338 . S
C869 H873 0.931 . S
C870 N867 1.313 . S
C870 N871 1.344 . S
C870 H874 0.930 . S
N871 C868 1.377 . S
N871 C870 1.344 . S
O872 Co864 2.055 . S
O872 C876 1.253 . S
H873 C869 0.931 . S
H874 C870 0.930 . S
O875 Co864 2.039 . S
O875 C865 1.265 . S
C876 O872 1.253 . S
C876 O877 1.227 . S
O877 C876 1.227 . S
N878 Co864 2.140 . S
N878 C881 1.346 . S
N878 C882 1.345 . S
C879 C880 1.387 . S
C879 C883 1.391 . S
C880 C879 1.387 . S
C880 C881 1.369 . S
C880 H889 0.929 . S
C881 N878 1.346 . S
C881 C880 1.369 . S
C881 H884 0.928 . S
C882 N878 1.345 . S
C882 C883 1.371 . S
C882 H885 0.931 . S
C883 C879 1.391 . S
C883 C882 1.371 . S
C883 H890 0.930 . S
H884 C881 0.928 . S
H885 C882 0.931 . S
H886 C862 0.930 . S
H887 C859 0.930 . S
H888 C868 0.930 . S
H889 C880 0.929 . S
H890 C883 0.930 . S
C891 C892 1.351 . S
C891 N894 1.368 . S
C891 H896 0.931 . S
C892 C891 1.351 . S
C892 N893 1.373 . S
C892 H920 0.930 . S
N893 C892 1.373 . S
N893 C895 1.340 . S
N894 C891 1.368 . S
N894 C895 1.321 . S
N894 Co897 2.135 . S
C895 N893 1.340 . S
C895 N894 1.321 . S
C895 H919 0.930 . S
H896 C891 0.931 . S
Co897 N894 2.135 . S
Co897 N900 2.121 . S
Co897 O905 2.055 . S
Co897 O908 2.039 . S
Co897 N911 2.140 . S
C898 O899 1.227 . S
C898 O908 1.265 . S
O899 C898 1.227 . S
N900 Co897 2.121 . S
N900 C902 1.375 . S
N900 C903 1.313 . S
C901 C902 1.338 . S
C901 N904 1.377 . S
C901 H921 0.930 . S
C902 N900 1.375 . S
C902 C901 1.338 . S
C902 H906 0.931 . S
C903 N900 1.313 . S
C903 N904 1.344 . S
C903 H907 0.930 . S
N904 C901 1.377 . S
N904 C903 1.344 . S
O905 Co897 2.055 . S
O905 C909 1.253 . S
H906 C902 0.931 . S
H907 C903 0.930 . S
O908 Co897 2.039 . S
O908 C898 1.265 . S
C909 O905 1.253 . S
C909 O910 1.227 . S
O910 C909 1.227 . S
N911 Co897 2.140 . S
N911 C914 1.346 . S
N911 C915 1.345 1_455 S
C912 C913 1.387 . S
C912 C916 1.391 . S
C913 C912 1.387 . S
C913 C914 1.369 1_655 S
C913 H922 0.929 . S
C914 N911 1.346 . S
C914 C913 1.369 1_455 S
C914 H917 0.928 . S
C915 N911 1.345 1_655 S
C915 C916 1.371 . S
C915 H918 0.931 . S
C916 C912 1.391 . S
C916 C915 1.371 . S
C916 H923 0.930 . S
H917 C914 0.928 . S
H918 C915 0.931 . S
H919 C895 0.930 . S
H920 C892 0.930 . S
H921 C901 0.930 . S
H922 C913 0.929 . S
H923 C916 0.930 . S
C924 C925 1.351 . S
C924 N927 1.368 . S
C924 H929 0.931 . S
C925 C924 1.351 . S
C925 N926 1.373 . S
C925 H953 0.930 . S
N926 C925 1.373 . S
N926 C928 1.340 . S
N927 C924 1.368 . S
N927 C928 1.321 . S
N927 Co930 2.135 . S
C928 N926 1.340 . S
C928 N927 1.321 . S
C928 H952 0.930 . S
H929 C924 0.931 . S
Co930 N927 2.135 . S
Co930 N933 2.121 . S
Co930 O938 2.055 . S
Co930 O941 2.039 . S
Co930 N944 2.140 . S
C931 O932 1.227 . S
C931 O941 1.265 . S
O932 C931 1.227 . S
N933 Co930 2.121 . S
N933 C935 1.375 . S
N933 C936 1.313 . S
C934 C935 1.338 1_655 S
C934 N937 1.377 1_655 S
C934 H954 0.930 . S
C935 N933 1.375 . S
C935 C934 1.338 1_455 S
C935 H939 0.931 . S
C936 N933 1.313 . S
C936 N937 1.344 . S
C936 H940 0.930 . S
N937 C934 1.377 1_455 S
N937 C936 1.344 . S
O938 Co930 2.055 . S
O938 C942 1.253 . S
H939 C935 0.931 . S
H940 C936 0.930 . S
O941 Co930 2.039 . S
O941 C931 1.265 . S
C942 O938 1.253 . S
C942 O943 1.227 . S
O943 C942 1.227 . S
N944 Co930 2.140 . S
N944 C947 1.346 . S
N944 C948 1.345 . S
C945 C946 1.387 . S
C945 C949 1.391 . S
C946 C945 1.387 . S
C946 C947 1.369 . S
C946 H955 0.929 . S
C947 N944 1.346 . S
C947 C946 1.369 . S
C947 H950 0.928 . S
C948 N944 1.345 . S
C948 C949 1.371 . S
C948 H951 0.931 . S
C949 C945 1.391 . S
C949 C948 1.371 . S
C949 H956 0.930 . S
H950 C947 0.928 . S
H951 C948 0.931 . S
H952 C928 0.930 . S
H953 C925 0.930 . S
H954 C934 0.930 . S
H955 C946 0.929 . S
H956 C949 0.930 . S
C957 C958 1.351 . S
C957 N960 1.368 . S
C957 H962 0.931 . S
C958 C957 1.351 . S
C958 N959 1.373 . S
C958 H986 0.930 . S
N959 C958 1.373 . S
N959 C961 1.340 . S
N960 C957 1.368 . S
N960 C961 1.321 . S
N960 Co963 2.135 . S
C961 N959 1.340 . S
C961 N960 1.321 . S
C961 H985 0.930 . S
H962 C957 0.931 . S
Co963 N960 2.135 . S
Co963 N966 2.121 . S
Co963 O971 2.055 . S
Co963 O974 2.039 . S
Co963 N977 2.140 . S
C964 O965 1.227 . S
C964 O974 1.265 . S
O965 C964 1.227 . S
N966 Co963 2.121 . S
N966 C968 1.375 . S
N966 C969 1.313 . S
C967 C968 1.338 . S
C967 N970 1.377 . S
C967 H987 0.930 . S
C968 N966 1.375 . S
C968 C967 1.338 . S
C968 H972 0.931 . S
C969 N966 1.313 . S
C969 N970 1.344 . S
C969 H973 0.930 1_556 S
N970 C967 1.377 . S
N970 C969 1.344 . S
O971 Co963 2.055 . S
O971 C975 1.253 1_556 S
H972 C968 0.931 . S
H973 C969 0.930 1_554 S
O974 Co963 2.039 . S
O974 C964 1.265 . S
C975 O971 1.253 1_554 S
C975 O976 1.227 1_554 S
O976 C975 1.227 1_556 S
N977 Co963 2.140 . S
N977 C980 1.346 . S
N977 C981 1.345 1_455 S
C978 C979 1.387 . S
C978 C982 1.391 . S
C979 C978 1.387 . S
C979 C980 1.369 1_655 S
C979 H988 0.929 . S
C980 N977 1.346 . S
C980 C979 1.369 1_455 S
C980 H983 0.928 . S
C981 N977 1.345 1_655 S
C981 C982 1.371 . S
C981 H984 0.931 . S
C982 C978 1.391 . S
C982 C981 1.371 . S
C982 H989 0.930 . S
H983 C980 0.928 . S
H984 C981 0.931 . S
H985 C961 0.930 . S
H986 C958 0.930 . S
H987 C967 0.930 . S
H988 C979 0.929 . S
H989 C982 0.930 . S
C990 C991 1.351 . S
C990 N993 1.368 . S
C990 H995 0.931 . S
C991 C990 1.351 . S
C991 N992 1.373 . S
C991 H1019 0.930 . S
N992 C991 1.373 . S
N992 C994 1.340 . S
N993 C990 1.368 . S
N993 C994 1.321 . S
N993 Co996 2.135 . S
C994 N992 1.340 . S
C994 N993 1.321 . S
C994 H1018 0.930 . S
H995 C990 0.931 . S
Co996 N993 2.135 . S
Co996 N999 2.121 . S
Co996 O1004 2.055 . S
Co996 O1007 2.039 . S
Co996 N1010 2.140 . S
C997 O998 1.227 . S
C997 O1007 1.265 . S
O998 C997 1.227 . S
N999 Co996 2.121 . S
N999 C1001 1.375 . S
N999 C1002 1.313 . S
C1000 C1001 1.338 . S
C1000 N1003 1.377 . S
C1000 H1020 0.930 . S
C1001 N999 1.375 . S
C1001 C1000 1.338 . S
C1001 H1005 0.931 . S
C1002 N999 1.313 . S
C1002 N1003 1.344 . S
C1002 H1006 0.930 . S
N1003 C1000 1.377 . S
N1003 C1002 1.344 . S
O1004 Co996 2.055 . S
O1004 C1008 1.253 . S
H1005 C1001 0.931 . S
H1006 C1002 0.930 . S
O1007 Co996 2.039 . S
O1007 C997 1.265 . S
C1008 O1004 1.253 . S
C1008 O1009 1.227 . S
O1009 C1008 1.227 . S
N1010 Co996 2.140 . S
N1010 C1013 1.346 . S
N1010 C1014 1.345 . S
C1011 C1012 1.387 . S
C1011 C1015 1.391 . S
C1012 C1011 1.387 . S
C1012 C1013 1.369 . S
C1012 H1021 0.929 . S
C1013 N1010 1.346 . S
C1013 C1012 1.369 . S
C1013 H1016 0.928 . S
C1014 N1010 1.345 . S
C1014 C1015 1.371 . S
C1014 H1017 0.931 . S
C1015 C1011 1.391 . S
C1015 C1014 1.371 . S
C1015 H1022 0.930 . S
H1016 C1013 0.928 . S
H1017 C1014 0.931 . S
H1018 C994 0.930 . S
H1019 C991 0.930 . S
H1020 C1000 0.930 . S
H1021 C1012 0.929 . S
H1022 C1015 0.930 . S
C1023 C1024 1.351 . S
C1023 N1026 1.368 . S
C1023 H1028 0.931 . S
C1024 C1023 1.351 . S
C1024 N1025 1.373 . S
C1024 H1052 0.930 . S
N1025 C1024 1.373 . S
N1025 C1027 1.340 . S
N1026 C1023 1.368 . S
N1026 C1027 1.321 . S
N1026 Co1029 2.135 . S
C1027 N1025 1.340 . S
C1027 N1026 1.321 . S
C1027 H1051 0.930 . S
H1028 C1023 0.931 . S
Co1029 N1026 2.135 . S
Co1029 N1032 2.121 . S
Co1029 O1037 2.055 . S
Co1029 O1040 2.039 . S
Co1029 N1043 2.140 . S
C1030 O1031 1.227 . S
C1030 O1040 1.265 . S
O1031 C1030 1.227 . S
N1032 Co1029 2.121 . S
N1032 C1034 1.375 . S
N1032 C1035 1.313 . S
C1033 C1034 1.338 . S
C1033 N1036 1.377 . S
C1033 H1053 0.930 . S
C1034 N1032 1.375 . S
C1034 C1033 1.338 . S
C1034 H1038 0.931 . S
C1035 N1032 1.313 . S
C1035 N1036 1.344 . S
C1035 H1039 0.930 . S
N1036 C1033 1.377 . S
N1036 C1035 1.344 . S
O1037 Co1029 2.055 . S
O1037 C1041 1.253 . S
H1038 C1034 0.931 . S
H1039 C1035 0.930 . S
O1040 Co1029 2.039 . S
O1040 C1030 1.265 . S
C1041 O1037 1.253 . S
C1041 O1042 1.227 . S
O1042 C1041 1.227 . S
N1043 Co1029 2.140 . S
N1043 C1046 1.346 . S
N1043 C1047 1.345 . S
C1044 C1045 1.387 . S
C1044 C1048 1.391 . S
C1045 C1044 1.387 . S
C1045 C1046 1.369 . S
C1045 H1054 0.929 . S
C1046 N1043 1.346 . S
C1046 C1045 1.369 . S
C1046 H1049 0.928 . S
C1047 N1043 1.345 . S
C1047 C1048 1.371 . S
C1047 H1050 0.931 . S
C1048 C1044 1.391 . S
C1048 C1047 1.371 . S
C1048 H1055 0.930 . S
H1049 C1046 0.928 . S
H1050 C1047 0.931 . S
H1051 C1027 0.930 . S
H1052 C1024 0.930 . S
H1053 C1033 0.930 . S
H1054 C1045 0.929 . S
H1055 C1048 0.930 . S
N607 N13 1.016 . S
N46 N640 1.016 1_455 S
N79 N541 1.016 1_455 S
N574 N112 1.016 . S
N145 N739 1.016 . S
N772 N178 1.016 . S
N211 N673 1.016 1_455 S
N244 N706 1.016 1_455 S
N277 N871 1.016 . S
N904 N310 1.016 1_455 S
N343 N805 1.016 1_655 S
N376 N838 1.016 . S
N409 N1003 1.016 . S
N1036 N442 1.016 . S
N937 N475 1.016 1_455 S
N970 N508 1.016 1_455 S
C384 C7 1.367 . S
C813 C40 1.367 . S
C73 C318 1.367 . S
C879 C106 1.367 . S
C450 C139 1.367 . S
C172 C1011 1.367 . S
C516 C205 1.367 . S
C945 C238 1.367 . S
C120 C271 1.367 . S
C304 C549 1.367 . S
C337 C54 1.367 . S
C615 C370 1.367 . S
C403 C186 1.367 . S
C747 C436 1.367 . S
C469 C252 1.367 . S
C502 C681 1.367 . S
C912 C535 1.367 . S
C568 C285 1.367 . S
C601 C846 1.367 . S
C351 C634 1.367 . S
C667 C978 1.367 . S
C700 C483 1.367 . S
C1044 C733 1.367 . S
C417 C766 1.367 . S
C648 C799 1.367 . S
C832 C21 1.367 . S
C865 C582 1.367 . S
C87 C898 1.367 . S
C931 C714 1.367 . S
C964 C219 1.367 . S
C780 C997 1.367 . S
C153 C1030 1.367 . S
N233 N2 2.193 . S
N134 N35 2.193 . S
N68 N167 2.193 . S
N200 N101 2.193 . S
N497 N266 2.193 . S
N299 N398 2.193 . S
N431 N332 2.193 . S
N464 N365 2.193 . S
N761 N530 2.193 . S
N662 N563 2.193 . S
N695 N596 2.193 . S
N728 N629 2.193 . S
N794 N1025 2.193 . S
N827 N926 2.193 . S
N860 N959 2.193 . S
N992 N893 2.193 . S
C18 C810 3.008 . S
C315 C51 3.008 1_665 S
C876 C84 3.008 . S
C117 C381 3.008 1_564 S
C150 C942 3.009 . S
C183 C447 3.008 1_545 S
C1008 C216 3.009 . S
C249 C513 3.008 1_466 S
C546 C282 3.008 . S
C612 C348 3.008 . S
C414 C678 3.009 . S
C480 C744 3.009 . S
C843 C579 3.008 1_556 S
C909 C645 3.008 1_455 S
C975 C711 3.008 1_454 S
C1041 C777 3.008 . S
