# Generated by pormake.
# Topology crs, (6)-cn, num edge types: 1
# Building blocks:
#     Node 0, Type 0, BuildingBlock: BETGAK_clean_sbu_0, # of connection points: 6
#     Node 1, Type 0, BuildingBlock: BETGAK_clean_sbu_0, # of connection points: 6
#     Node 2, Type 0, BuildingBlock: BETGAK_clean_sbu_0, # of connection points: 6
#     Node 3, Type 0, BuildingBlock: BETGAK_clean_sbu_0, # of connection points: 6
#     Node 4, Type 0, BuildingBlock: BETGAK_clean_sbu_0, # of connection points: 6
#     Node 5, Type 0, BuildingBlock: BETGAK_clean_sbu_0, # of connection points: 6
#     Node 6, Type 0, BuildingBlock: BETGAK_clean_sbu_0, # of connection points: 6
#     Node 7, Type 0, BuildingBlock: BETGAK_clean_sbu_0, # of connection points: 6
#     Node 8, Type 0, BuildingBlock: BETGAK_clean_sbu_0, # of connection points: 6
#     Node 9, Type 0, BuildingBlock: BETGAK_clean_sbu_0, # of connection points: 6
#     Node 10, Type 0, BuildingBlock: BETGAK_clean_sbu_0, # of connection points: 6
#     Node 11, Type 0, BuildingBlock: BETGAK_clean_sbu_0, # of connection points: 6
#     Node 12, Type 0, BuildingBlock: BETGAK_clean_sbu_0, # of connection points: 6
#     Node 13, Type 0, BuildingBlock: BETGAK_clean_sbu_0, # of connection points: 6
#     Node 14, Type 0, BuildingBlock: BETGAK_clean_sbu_0, # of connection points: 6
#     Node 15, Type 0, BuildingBlock: BETGAK_clean_sbu_0, # of connection points: 6
#     Edge 16, Type (0, 0), BuildingBlock: MIFKUJ_clean_linker_0, # of connection points: 2
#     Edge 17, Type (0, 0), BuildingBlock: MIFKUJ_clean_linker_0, # of connection points: 2
#     Edge 18, Type (0, 0), BuildingBlock: MIFKUJ_clean_linker_0, # of connection points: 2
#     Edge 19, Type (0, 0), BuildingBlock: MIFKUJ_clean_linker_0, # of connection points: 2
#     Edge 20, Type (0, 0), BuildingBlock: MIFKUJ_clean_linker_0, # of connection points: 2
#     Edge 21, Type (0, 0), BuildingBlock: MIFKUJ_clean_linker_0, # of connection points: 2
#     Edge 22, Type (0, 0), BuildingBlock: MIFKUJ_clean_linker_0, # of connection points: 2
#     Edge 23, Type (0, 0), BuildingBlock: MIFKUJ_clean_linker_0, # of connection points: 2
#     Edge 24, Type (0, 0), BuildingBlock: MIFKUJ_clean_linker_0, # of connection points: 2
#     Edge 25, Type (0, 0), BuildingBlock: MIFKUJ_clean_linker_0, # of connection points: 2
#     Edge 26, Type (0, 0), BuildingBlock: MIFKUJ_clean_linker_0, # of connection points: 2
#     Edge 27, Type (0, 0), BuildingBlock: MIFKUJ_clean_linker_0, # of connection points: 2
#     Edge 28, Type (0, 0), BuildingBlock: MIFKUJ_clean_linker_0, # of connection points: 2
#     Edge 29, Type (0, 0), BuildingBlock: MIFKUJ_clean_linker_0, # of connection points: 2
#     Edge 30, Type (0, 0), BuildingBlock: MIFKUJ_clean_linker_0, # of connection points: 2
#     Edge 31, Type (0, 0), BuildingBlock: MIFKUJ_clean_linker_0, # of connection points: 2
#     Edge 32, Type (0, 0), BuildingBlock: MIFKUJ_clean_linker_0, # of connection points: 2
#     Edge 33, Type (0, 0), BuildingBlock: MIFKUJ_clean_linker_0, # of connection points: 2
#     Edge 34, Type (0, 0), BuildingBlock: MIFKUJ_clean_linker_0, # of connection points: 2
#     Edge 35, Type (0, 0), BuildingBlock: MIFKUJ_clean_linker_0, # of connection points: 2
#     Edge 36, Type (0, 0), BuildingBlock: MIFKUJ_clean_linker_0, # of connection points: 2
#     Edge 37, Type (0, 0), BuildingBlock: MIFKUJ_clean_linker_0, # of connection points: 2
#     Edge 38, Type (0, 0), BuildingBlock: MIFKUJ_clean_linker_0, # of connection points: 2
#     Edge 39, Type (0, 0), BuildingBlock: MIFKUJ_clean_linker_0, # of connection points: 2
#     Edge 40, Type (0, 0), BuildingBlock: MIFKUJ_clean_linker_0, # of connection points: 2
#     Edge 41, Type (0, 0), BuildingBlock: MIFKUJ_clean_linker_0, # of connection points: 2
#     Edge 42, Type (0, 0), BuildingBlock: MIFKUJ_clean_linker_0, # of connection points: 2
#     Edge 43, Type (0, 0), BuildingBlock: MIFKUJ_clean_linker_0, # of connection points: 2
#     Edge 44, Type (0, 0), BuildingBlock: MIFKUJ_clean_linker_0, # of connection points: 2
#     Edge 45, Type (0, 0), BuildingBlock: MIFKUJ_clean_linker_0, # of connection points: 2
#     Edge 46, Type (0, 0), BuildingBlock: MIFKUJ_clean_linker_0, # of connection points: 2
#     Edge 47, Type (0, 0), BuildingBlock: MIFKUJ_clean_linker_0, # of connection points: 2
#     Edge 48, Type (0, 0), BuildingBlock: MIFKUJ_clean_linker_0, # of connection points: 2
#     Edge 49, Type (0, 0), BuildingBlock: MIFKUJ_clean_linker_0, # of connection points: 2
#     Edge 50, Type (0, 0), BuildingBlock: MIFKUJ_clean_linker_0, # of connection points: 2
#     Edge 51, Type (0, 0), BuildingBlock: MIFKUJ_clean_linker_0, # of connection points: 2
#     Edge 52, Type (0, 0), BuildingBlock: MIFKUJ_clean_linker_0, # of connection points: 2
#     Edge 53, Type (0, 0), BuildingBlock: MIFKUJ_clean_linker_0, # of connection points: 2
#     Edge 54, Type (0, 0), BuildingBlock: MIFKUJ_clean_linker_0, # of connection points: 2
#     Edge 55, Type (0, 0), BuildingBlock: MIFKUJ_clean_linker_0, # of connection points: 2
#     Edge 56, Type (0, 0), BuildingBlock: MIFKUJ_clean_linker_0, # of connection points: 2
#     Edge 57, Type (0, 0), BuildingBlock: MIFKUJ_clean_linker_0, # of connection points: 2
#     Edge 58, Type (0, 0), BuildingBlock: MIFKUJ_clean_linker_0, # of connection points: 2
#     Edge 59, Type (0, 0), BuildingBlock: MIFKUJ_clean_linker_0, # of connection points: 2
#     Edge 60, Type (0, 0), BuildingBlock: MIFKUJ_clean_linker_0, # of connection points: 2
#     Edge 61, Type (0, 0), BuildingBlock: MIFKUJ_clean_linker_0, # of connection points: 2
#     Edge 62, Type (0, 0), BuildingBlock: MIFKUJ_clean_linker_0, # of connection points: 2
#     Edge 63, Type (0, 0), BuildingBlock: MIFKUJ_clean_linker_0, # of connection points: 2
# Relax obj value: 0.419
# Max RMSD: 0.344
# Mean RMSD: 0.285
data_MOF--net-crs--node1-BETGAK_clean_sbu_0--edge1-MIFKUJ_clean_linker_0
_symmetry_space_group_name_H-M    P1
_symmetry_Int_Tables_number       1
_symmetry_cell_setting            triclinic
loop_
_symmetry_equiv_pos_as_xyz
'x, y, z'
_cell_length_a     66.068637
_cell_length_b     67.035062
_cell_length_c     58.140827
_cell_angle_alpha  76.77342
_cell_angle_beta   78.729494
_cell_angle_gamma 68.438174
loop_
_atom_site_label
_atom_site_type_symbol
_atom_site_fract_x
_atom_site_fract_y
_atom_site_fract_z
_atom_type_partial_charge
La0 La 0.98015 0.00693 0.02093 0.0
La1 La 0.01848 0.013 0.98564 0.0
C2 C 0.94614 0.9979 0.03864 0.0
C3 C 0.93704 0.98341 0.0318 0.0
C4 C 0.93111 0.96748 0.04904 0.0
C5 C 0.92475 0.95216 0.04224 0.0
C6 C 0.9242 0.95253 0.01803 0.0
C7 C 0.93052 0.96834 1.00086 0.0
C8 C 0.9367 0.98364 1.00772 0.0
C9 C 0.01567 0.99719 0.04061 0.0
C10 C 0.00976 0.97067 0.98891 0.0
C11 C 0.05043 0.02391 0.96307 0.0
C12 C 0.05937 0.04004 0.96637 0.0
C13 C 0.06185 0.05637 0.94715 0.0
C14 C 0.06564 0.07448 0.95102 0.0
C15 C 0.06675 0.07646 0.97418 0.0
C16 C 0.06571 0.0595 0.99311 0.0
C17 C 0.06204 0.04142 0.98926 0.0
C18 C 0.98194 0.02175 0.96761 0.0
C19 C 0.99213 0.04709 0.02123 0.0
O20 O 0.96496 0.98792 0.04706 0.0
O21 O 0.94594 0.01573 0.02336 0.0
O22 O -0.00412 1.00424 0.05124 0.0
O23 O 0.01522 0.99381 0.02016 0.0
O24 O 0.99054 0.98032 1.0006 0.0
O25 O 0.02555 0.97922 0.98364 0.0
O26 O 0.03066 0.03237 0.95681 0.0
O27 O 0.05254 1.0066 0.97967 0.0
O28 O 0.00138 0.01277 0.95723 0.0
O29 O 0.98354 0.02619 0.98695 0.0
O30 O 0.01032 0.03805 1.00756 0.0
O31 O 0.97574 0.03929 0.02654 0.0
H32 H 0.93175 0.96668 0.06772 0.0
H33 H 0.92039 0.93996 0.05595 0.0
H34 H 0.93005 0.96941 0.98209 0.0
H35 H 0.94151 0.99549 0.99413 0.0
H36 H 0.05974 0.05565 0.92938 0.0
H37 H 0.06672 0.08734 0.93618 0.0
H38 H 0.06689 0.06063 1.01106 0.0
H39 H 0.06002 0.02921 1.00444 0.0
La40 La -0.00191 0.27051 0.27537 0.0
La41 La 0.98199 0.24296 0.25571 0.0
C42 C 0.00328 0.2987 0.29358 0.0
C43 C -0.00539 0.31142 0.31305 0.0
C44 C 0.99205 0.30144 0.33697 0.0
C45 C 0.98766 0.31345 0.35524 0.0
C46 C 0.9857 0.33559 0.34985 0.0
C47 C 0.98696 0.34574 0.32586 0.0
C48 C 0.99141 0.33375 0.30767 0.0
C49 C 0.02638 0.23088 0.27333 0.0
C50 C 0.96503 0.24791 0.30842 0.0
C51 C 0.97625 0.2159 0.2361 0.0
C52 C 0.98413 0.20563 0.21464 0.0
C53 C 0.96899 0.20886 0.19912 0.0
C54 C 0.97509 0.1979 0.17983 0.0
C55 C -0.0035 0.1833 0.17568 0.0
C56 C 0.01191 0.18052 0.19083 0.0
C57 C 0.0058 0.19163 0.21014 0.0
C58 C 0.95377 0.28265 0.25823 0.0
C59 C 0.01612 0.26442 0.22304 0.0
O60 O 0.01318 0.27771 0.29933 0.0
O61 O 0.99121 0.30357 0.27639 0.0
O62 O 0.03154 0.24824 0.27 0.0
O63 O 0.00588 0.23573 0.27911 0.0
O64 O 0.9732 0.26391 0.30433 0.0
O65 O 0.96906 0.23509 0.29265 0.0
O66 O 0.96517 0.23676 0.23262 0.0
O67 O 0.98946 0.21037 0.25235 0.0
O68 O 0.94857 0.26529 0.26191 0.0
O69 O 0.97422 0.2777 0.25203 0.0
O70 O 0.00722 0.249 0.22694 0.0
O71 O 0.01222 0.27729 0.2387 0.0
H72 H -0.00569 0.28422 0.34159 0.0
H73 H 0.98647 0.30526 0.37355 0.0
H74 H 0.98581 0.36268 0.32106 0.0
H75 H -0.00657 0.34172 0.28935 0.0
H76 H 0.95214 0.21943 0.20233 0.0
H77 H 0.96272 0.20015 0.16879 0.0
H78 H 0.02858 0.16947 0.18798 0.0
H79 H 0.01787 0.18886 0.2218 0.0
La80 La 0.73746 0.24425 0.50485 0.0
La81 La 0.7455 0.27248 0.53183 0.0
C82 C 0.7264 0.21662 0.49239 0.0
C83 C 0.71137 0.20481 0.50412 0.0
C84 C 0.70176 0.19699 0.49037 0.0
C85 C 0.6864 0.18688 0.50124 0.0
C86 C 0.68027 0.18464 0.52605 0.0
C87 C 0.69016 0.19235 0.53977 0.0
C88 C 0.70562 0.20233 0.52891 0.0
C89 C 0.73438 0.28376 0.48095 0.0
C90 C 0.70066 0.26553 0.54561 0.0
C91 C 0.75394 0.30292 0.54193 0.0
C92 C 0.76685 0.31677 0.52942 0.0
C93 C 0.76752 0.33313 0.54017 0.0
C94 C 0.78008 0.34616 0.52866 0.0
C95 C 0.79228 0.3429 0.50629 0.0
C96 C 0.7912 0.32677 0.49533 0.0
C97 C 0.77841 0.31394 0.50675 0.0
C98 C 0.74828 0.23335 0.55687 0.0
C99 C 0.78312 0.24921 0.4926 0.0
O100 O 0.71704 0.23765 0.48633 0.0
O101 O 0.74409 0.21168 0.50248 0.0
O102 O 0.74199 0.26634 0.47152 0.0
O103 O 0.72765 0.27893 0.50265 0.0
O104 O 0.70895 0.25 0.53246 0.0
O105 O 0.71124 0.27873 0.54596 0.0
O106 O 0.76506 0.28227 0.54828 0.0
O107 O 0.73651 0.30577 0.53239 0.0
O108 O 0.7424 0.25098 0.56579 0.0
O109 O 0.75468 0.23761 0.53482 0.0
O110 O 0.77495 0.26498 0.50545 0.0
O111 O 0.77205 0.23654 0.4919 0.0
H112 H 0.70603 0.1988 0.47123 0.0
H113 H 0.6795 0.18064 0.4902 0.0
H114 H 0.68573 0.19095 0.55882 0.0
H115 H 0.71286 0.20831 0.53985 0.0
H116 H 0.75857 0.33563 0.55759 0.0
H117 H 0.7809 0.35827 0.53767 0.0
H118 H 0.80038 0.32398 0.47808 0.0
H119 H 0.77775 0.30172 0.49793 0.0
La120 La 0.72478 1.00142 0.75505 0.0
La121 La 0.75921 0.0092 0.77396 0.0
C122 C 0.6912 1.00419 0.73821 0.0
C123 C 0.68582 1.00013 0.71663 0.0
C124 C 0.69519 0.97956 0.70966 0.0
C125 C 0.68779 0.97524 0.69101 0.0
C126 C 0.67105 0.99145 0.67886 0.0
C127 C 0.66248 0.01232 0.68509 0.0
C128 C 0.66975 0.01658 0.70387 0.0
C129 C 0.76463 0.9731 0.74622 0.0
C130 C 0.74722 0.03552 0.72417 0.0
C131 C 0.79286 1.00684 0.79038 0.0
C132 C 0.79992 0.00706 0.81293 0.0
C133 C 0.80128 0.02641 0.81688 0.0
C134 C 0.81032 0.02653 0.83658 0.0
C135 C 0.81844 0.00724 0.85274 0.0
C136 C 0.81652 0.98796 0.84923 0.0
C137 C 0.80731 0.98787 0.82951 0.0
C138 C 0.71914 0.03767 0.782 0.0
C139 C 0.73638 0.97566 0.80549 0.0
O140 O 0.70213 0.9872 0.75246 0.0
O141 O 0.69813 0.02056 0.73579 0.0
O142 O 0.7466 0.96928 0.74793 0.0
O143 O 0.75996 0.99312 0.74605 0.0
O144 O 0.72946 0.02978 0.72942 0.0
O145 O 0.76368 0.02565 0.73715 0.0
O146 O 0.77891 0.02497 0.78081 0.0
O147 O 0.7885 0.98979 0.78849 0.0
O148 O 0.73711 0.0418 0.77951 0.0
O149 O 0.72404 0.01753 0.7828 0.0
O150 O 0.75385 0.98185 0.80084 0.0
O151 O 0.72032 0.98496 0.79189 0.0
H152 H 0.70774 0.96657 0.71906 0.0
H153 H 0.69477 0.95908 0.68645 0.0
H154 H 0.64936 0.02505 0.67624 0.0
H155 H 0.66226 0.03252 0.70898 0.0
H156 H 0.79605 0.0414 0.80426 0.0
H157 H 0.81194 0.04156 0.83847 0.0
H158 H 0.82255 0.97286 0.86144 0.0
H159 H 0.80656 0.97268 0.82692 0.0
La160 La 0.49329 0.77122 0.27097 0.0
La161 La 0.48103 0.74073 0.25149 0.0
C162 C 0.49344 0.80191 0.28911 0.0
C163 C 0.49341 0.80695 0.31256 0.0
C164 C 0.51285 0.80742 0.31837 0.0
C165 C 0.51288 0.81439 0.33918 0.0
C166 C 0.4934 0.82124 0.3546 0.0
C167 C 0.47401 0.82022 0.34917 0.0
C168 C 0.474 0.81312 0.32832 0.0
C169 C 0.52254 0.73155 0.2738 0.0
C170 C 0.46162 0.74668 0.30403 0.0
C171 C 0.4805 0.71069 0.23242 0.0
C172 C 0.48862 0.70213 0.20991 0.0
C173 C 0.47431 0.69645 0.1999 0.0
C174 C 0.48106 0.68831 0.17862 0.0
C175 C 0.50236 0.6856 0.16681 0.0
C176 C 0.51685 0.69119 0.17689 0.0
C177 C 0.50998 0.69954 0.19825 0.0
C178 C 0.45199 0.78057 0.24878 0.0
C179 C 0.51254 0.76535 0.21915 0.0
O180 O 0.51117 0.78729 0.28097 0.0
O181 O 0.47559 0.80001 0.28473 0.0
O182 O 0.52712 0.74919 0.27089 0.0
O183 O 0.50195 0.73623 0.27724 0.0
O184 O 0.47064 0.76192 0.30097 0.0
O185 O 0.46527 0.73443 0.28772 0.0
O186 O 0.46547 0.72997 0.23107 0.0
O187 O 0.49485 0.70809 0.24648 0.0
O188 O 0.44719 0.76293 0.2527 0.0
O189 O 0.47259 0.77571 0.24505 0.0
O190 O 0.50642 0.74799 0.22367 0.0
O191 O 0.50538 0.77957 0.23382 0.0
H192 H 0.52798 0.80307 0.30641 0.0
H193 H 0.52799 0.81539 0.34258 0.0
H194 H 0.45877 0.82532 0.36079 0.0
H195 H 0.45871 0.81305 0.32429 0.0
H196 H 0.45782 0.69825 0.20864 0.0
H197 H 0.46965 0.68374 0.17163 0.0
H198 H 0.53335 0.68928 0.16817 0.0
H199 H 0.5213 0.70391 0.20562 0.0
La200 La 0.23477 0.74529 0.50306 0.0
La201 La 0.24796 0.76889 0.53081 0.0
C202 C 0.21806 0.72103 0.49254 0.0
C203 C 0.20093 0.7124 0.50605 0.0
C204 C 0.18474 0.71187 0.49415 0.0
C205 C 0.16739 0.70533 0.5069 0.0
C206 C 0.16598 0.69914 0.53182 0.0
C207 C 0.18228 0.69956 0.54377 0.0
C208 C 0.19953 0.70636 0.531 0.0
C209 C 0.23566 0.7838 0.47959 0.0
C210 C 0.20058 0.76882 0.54424 0.0
C211 C 0.26495 0.79246 0.54239 0.0
C212 C 0.28502 0.79777 0.53189 0.0
C213 C 0.30563 0.78348 0.53814 0.0
C214 C 0.32469 0.78795 0.52758 0.0
C215 C 0.32358 0.80678 0.51055 0.0
C216 C 0.30308 0.82101 0.50409 0.0
C217 C 0.28395 0.81665 0.51482 0.0
C218 C 0.24711 0.73032 0.5541 0.0
C219 C 0.28246 0.7446 0.49006 0.0
O220 O 0.21143 0.74215 0.4856 0.0
O221 O 0.23678 0.71371 0.50131 0.0
O222 O 0.23939 0.76707 0.46981 0.0
O223 O 0.2292 0.77937 0.50158 0.0
O224 O 0.20702 0.75344 0.53105 0.0
O225 O 0.21336 0.77988 0.54481 0.0
O226 O 0.26798 0.7722 0.55247 0.0
O227 O 0.24868 0.80023 0.52946 0.0
O228 O 0.24215 0.7474 0.56371 0.0
O229 O 0.2538 0.73477 0.53217 0.0
O230 O 0.27685 0.75911 0.50428 0.0
O231 O 0.26897 0.73478 0.48819 0.0
H232 H 0.18541 0.7167 0.47498 0.0
H233 H 0.15526 0.70474 0.49719 0.0
H234 H 0.18157 0.69483 0.56293 0.0
H235 H 0.2116 0.70712 0.54065 0.0
H236 H 0.30711 0.76879 0.55122 0.0
H237 H 0.34032 0.77677 0.5329 0.0
H238 H 0.3018 0.83588 0.49133 0.0
H239 H 0.26832 0.8281 0.50982 0.0
La240 La 0.22575 0.50079 0.75567 0.0
La241 La 0.25609 0.51333 0.77574 0.0
C242 C 0.19585 0.4985 0.73628 0.0
C243 C 0.18554 0.5063 0.71406 0.0
C244 C 0.19786 0.50254 0.69186 0.0
C245 C 0.1873 0.50624 0.67185 0.0
C246 C 0.16427 0.51377 0.67368 0.0
C247 C 0.15209 0.51894 0.69555 0.0
C248 C 0.16263 0.51514 0.71554 0.0
C249 C 0.26611 0.47249 0.75535 0.0
C250 C 0.24844 0.53398 0.72326 0.0
C251 C 0.28719 0.51577 0.79309 0.0
C252 C 0.29616 0.51491 0.81487 0.0
C253 C 0.2939 0.53446 0.82177 0.0
C254 C 0.30603 0.53451 0.8389 0.0
C255 C 0.32082 0.51498 0.84954 0.0
C256 C 0.32212 0.49526 0.84365 0.0
C257 C 0.31 0.49522 0.8264 0.0
C258 C 0.21548 0.5416 0.77665 0.0
C259 C 0.23362 0.47943 0.80834 0.0
O260 O 0.216 0.48495 0.73507 0.0
O261 O 0.19242 0.51257 0.75016 0.0
O262 O 0.24849 0.46747 0.75926 0.0
O263 O 0.261 0.493 0.7505 0.0
O264 O 0.23131 0.52731 0.72766 0.0
O265 O 0.26324 0.52667 0.73832 0.0
O266 O 0.26978 0.53231 0.78744 0.0
O267 O 0.28705 0.49775 0.78809 0.0
O268 O 0.23301 0.54662 0.7736 0.0
O269 O 0.22083 0.52109 0.78103 0.0
O270 O 0.24918 0.48827 0.80528 0.0
O271 O 0.22005 0.4847 0.7922 0.0
H272 H 0.21559 0.49577 0.69016 0.0
H273 H 0.19719 0.50202 0.65533 0.0
H274 H 0.13433 0.52522 0.69743 0.0
H275 H 0.1528 0.51821 0.73244 0.0
H276 H 0.28366 0.54995 0.81296 0.0
H277 H 0.30477 0.55004 0.84267 0.0
H278 H 0.33307 0.47987 0.85177 0.0
H279 H 0.31228 0.47988 0.82136 0.0
La280 La 0.98036 0.50712 0.52672 0.0
La281 La 0.01123 0.52166 0.48564 0.0
C282 C 0.95237 0.49275 0.55411 0.0
C283 C 0.93871 0.48002 0.55264 0.0
C284 C 0.94491 0.45771 0.56225 0.0
C285 C 0.93324 0.44513 0.55897 0.0
C286 C 0.91518 0.45463 0.54595 0.0
C287 C 0.90828 0.47721 0.53765 0.0
C288 C 0.91973 0.48981 0.54117 0.0
C289 C 0.01875 0.5032 0.53748 0.0
C290 C 0.00501 0.47849 0.48561 0.0
C291 C 0.04035 0.53714 0.46479 0.0
C292 C 0.04702 0.55295 0.47292 0.0
C293 C 0.03499 0.57537 0.46833 0.0
C294 C 0.03813 0.58982 0.48004 0.0
C295 C 0.05339 0.58218 0.49653 0.0
C296 C 0.06623 0.55999 0.50016 0.0
C297 C 0.06317 0.54556 0.48838 0.0
C298 C 0.97293 0.52731 0.4739 0.0
C299 C 0.98406 0.55207 0.52434 0.0
O300 O 0.97356 0.48234 0.55284 0.0
O301 O 0.94765 0.51249 0.54163 0.0
O302 O 0.00075 0.50739 0.55189 0.0
O303 O 0.01509 0.49978 0.51852 0.0
O304 O 0.98798 0.48415 0.5021 0.0
O305 O 0.01886 0.48937 0.47813 0.0
O306 O 0.02047 0.54453 0.45871 0.0
O307 O 0.04474 0.5177 0.47801 0.0
O308 O 0.99076 0.52461 0.45906 0.0
O309 O 0.97646 0.52916 0.49381 0.0
O310 O 0.00136 0.54621 0.50839 0.0
O311 O 0.9709 0.5405 0.53208 0.0
H312 H 0.95916 0.44985 0.57174 0.0
H313 H 0.93874 0.42787 0.56607 0.0
H314 H 0.89478 0.48502 0.5272 0.0
H315 H 0.91417 0.50705 0.53399 0.0
H316 H 0.02243 0.58167 0.4565 0.0
H317 H 0.02804 0.60685 0.47682 0.0
H318 H 0.07862 0.55374 0.51219 0.0
H319 H 0.07292 0.52848 0.49205 0.0
La320 La 0.23448 0.24336 1.0005 0.0
La321 La 0.24443 0.27331 0.0304 0.0
C322 C 0.22702 0.21191 0.99251 0.0
C323 C 0.21031 0.20203 1.0049 0.0
C324 C 0.18796 0.21355 1.00292 0.0
C325 C 0.17207 0.20464 0.01494 0.0
C326 C 0.17802 0.18397 0.02933 0.0
C327 C 0.20031 0.17261 0.03184 0.0
C328 C 0.21633 0.18154 0.01968 0.0
C329 C 0.23009 0.28384 0.97677 0.0
C330 C 0.19799 0.2666 0.04062 0.0
C331 C 0.2479 0.30636 0.03993 0.0
C332 C 0.25976 0.32116 0.02738 0.0
C333 C 0.25225 0.34273 0.03115 0.0
C334 C 0.2647 0.35617 0.02084 0.0
C335 C 0.28475 0.34816 1.00662 0.0
C336 C 0.29153 0.32694 1.00181 0.0
C337 C 0.27916 0.31356 1.01216 0.0
C338 C 0.24892 0.23298 0.0543 0.0
C339 C 0.28103 0.24917 0.99068 0.0
O340 O 0.21936 0.23181 0.98073 0.0
O341 O 0.24294 0.20938 1.00458 0.0
O342 O 0.22732 0.26887 0.96817 0.0
O343 O 0.23424 0.27526 0.9977 0.0
O344 O 0.2045 0.2527 0.02541 0.0
O345 O 0.21006 0.27761 0.04386 0.0
O346 O 0.26039 0.28636 0.04748 0.0
O347 O 0.23139 0.30706 0.02994 0.0
O348 O 0.25258 0.24772 0.06242 0.0
O349 O 0.24396 0.24164 0.03364 0.0
O350 O 0.27391 0.26442 1.00444 0.0
O351 O 0.26932 0.23733 0.98861 0.0
H352 H 0.18261 0.22944 0.99185 0.0
H353 H 0.15514 0.21365 1.01209 0.0
H354 H 0.20533 0.1567 0.0429 0.0
H355 H 0.2334 0.17246 0.02181 0.0
H356 H 0.23721 0.3489 0.0427 0.0
H357 H 0.25923 0.37242 0.02502 0.0
H358 H 0.30679 0.32046 0.99071 0.0
H359 H 0.28505 0.29706 1.0088 0.0
La360 La 0.22363 1.00436 0.25629 0.0
La361 La 0.25844 0.01216 0.275 0.0
C362 C 0.18931 0.00827 0.24027 0.0
C363 C 0.18095 0.01223 0.21734 0.0
C364 C 0.19181 0.99886 0.20012 0.0
C365 C 0.18185 1.00089 0.18018 0.0
C366 C 0.16091 0.01633 0.17711 0.0
C367 C 0.15076 0.03057 0.19362 0.0
C368 C 0.16066 0.02846 0.21358 0.0
C369 C 0.26318 0.97568 0.24836 0.0
C370 C 0.24686 0.03773 0.22435 0.0
C371 C 0.29228 0.00962 0.29124 0.0
C372 C 0.30185 1.00494 0.3137 0.0
C373 C 0.29615 0.02108 0.32788 0.0
C374 C 0.30787 0.01798 0.34672 0.0
C375 C 0.32563 0.99873 0.3518 0.0
C376 C 0.33061 0.98216 0.33835 0.0
C377 C 0.31891 0.98528 0.31945 0.0
C378 C 0.21843 0.04065 0.2823 0.0
C379 C 0.23557 0.97841 0.30665 0.0
O380 O 0.20472 0.98967 0.24586 0.0
O381 O 0.19271 0.02446 0.24596 0.0
O382 O 0.24504 0.97177 0.25106 0.0
O383 O 0.25882 0.99585 0.24741 0.0
O384 O 0.22996 0.03068 0.22847 0.0
O385 O 0.26243 0.02964 0.23862 0.0
O386 O 0.27557 0.0275 0.28745 0.0
O387 O 0.29016 0.99344 0.28405 0.0
O388 O 0.23633 0.04514 0.27867 0.0
O389 O 0.22343 0.02037 0.28384 0.0
O390 O 0.25257 0.98534 0.30244 0.0
O391 O 0.2198 0.98685 0.29265 0.0
H392 H 0.20757 0.98626 0.2025 0.0
H393 H 0.19006 0.98961 0.16787 0.0
H394 H 0.13481 0.04291 0.19152 0.0
H395 H 0.15205 0.03902 0.22657 0.0
H396 H 0.28325 0.03653 0.32382 0.0
H397 H 0.30373 0.03121 0.35647 0.0
H398 H 0.34398 0.967 0.342 0.0
H399 H 0.3238 0.97262 0.30874 0.0
La400 La 0.49926 0.26955 0.778 0.0
La401 La 0.48415 0.24074 0.75928 0.0
C402 C 0.50244 0.29942 0.79536 0.0
C403 C 0.50273 0.30533 0.8183 0.0
C404 C 0.52285 0.30088 0.82652 0.0
C405 C 0.52366 0.30929 0.84605 0.0
C406 C 0.50439 0.32249 0.85773 0.0
C407 C 0.48415 0.32614 0.85021 0.0
C408 C 0.48333 0.31772 0.83062 0.0
C409 C 0.52776 0.22958 0.77878 0.0
C410 C 0.46723 0.24598 0.81217 0.0
C411 C 0.47814 0.21289 0.74114 0.0
C412 C 0.48491 0.20053 0.72127 0.0
C413 C 0.47973 0.21079 0.69816 0.0
C414 C 0.4818 0.1984 0.68092 0.0
C415 C 0.48901 0.17554 0.68646 0.0
C416 C 0.49553 0.16534 0.7091 0.0
C417 C 0.49342 0.17771 0.72634 0.0
C418 C 0.45603 0.28083 0.75977 0.0
C419 C 0.51676 0.26308 0.72605 0.0
O420 O 0.51916 0.28329 0.7883 0.0
O421 O 0.48392 0.29926 0.79067 0.0
O422 O 0.53281 0.24695 0.77575 0.0
O423 O 0.50715 0.23457 0.78346 0.0
O424 O 0.4765 0.26112 0.80858 0.0
O425 O 0.47041 0.23375 0.79603 0.0
O426 O 0.46781 0.23385 0.73635 0.0
O427 O 0.49149 0.20778 0.75715 0.0
O428 O 0.45075 0.26345 0.76459 0.0
O429 O 0.4765 0.27562 0.75385 0.0
O430 O 0.5103 0.24591 0.73137 0.0
O431 O 0.51015 0.27761 0.74036 0.0
H432 H 0.53813 0.29155 0.81732 0.0
H433 H 0.53948 0.30596 0.8516 0.0
H434 H 0.46903 0.33643 0.85868 0.0
H435 H 0.46759 0.32168 0.82457 0.0
H436 H 0.473 0.22836 0.6937 0.0
H437 H 0.47657 0.20677 0.66369 0.0
H438 H 0.50159 0.14776 0.71378 0.0
H439 H 0.49742 0.16939 0.74403 0.0
La440 La -0.00481 0.77199 0.77693 0.0
La441 La 0.98496 0.74047 0.75674 0.0
C442 C -0.0062 0.8035 0.79475 0.0
C443 C -0.00709 0.80938 0.81789 0.0
C444 C 0.00589 0.79498 0.83528 0.0
C445 C 0.00727 0.80218 0.8555 0.0
C446 C -0.00442 0.82382 0.85869 0.0
C447 C 0.98169 0.83777 0.84184 0.0
C448 C 0.98042 0.83061 0.82161 0.0
C449 C 0.02419 0.732 0.78223 0.0
C450 C 0.96342 0.7468 0.80828 0.0
C451 C 0.98736 0.7092 0.73798 0.0
C452 C 0.98928 0.70459 0.71391 0.0
C453 C 0.9741 0.71786 0.69807 0.0
C454 C 0.97436 0.71154 0.67672 0.0
C455 C 0.98986 0.69195 0.67076 0.0
C456 C 0.00596 0.67948 0.68587 0.0
C457 C 0.00559 0.68572 0.70733 0.0
C458 C 0.95582 0.78039 0.75128 0.0
C459 C 0.01672 0.76545 0.72539 0.0
O460 O 0.01192 0.7889 0.78733 0.0
O461 O 0.97636 0.80085 0.79038 0.0
O462 O 0.02882 0.74956 0.77972 0.0
O463 O 0.00367 0.73707 0.78405 0.0
O464 O 0.97016 0.76375 0.80474 0.0
O465 O 0.97062 0.73286 0.79325 0.0
O466 O 0.96891 0.72335 0.74554 0.0
O467 O 0.00441 0.7116 0.7437 0.0
O468 O 0.95142 0.76274 0.75348 0.0
O469 O 0.97635 0.77551 0.74954 0.0
O470 O 0.01002 0.74852 0.72908 0.0
O471 O 0.00943 0.77953 0.74028 0.0
H472 H 0.01558 0.77844 0.83284 0.0
H473 H 0.01791 0.79101 0.86832 0.0
H474 H 0.97268 0.8546 0.84363 0.0
H475 H 0.97038 0.84196 0.80835 0.0
H476 H 0.96152 0.73269 0.70254 0.0
H477 H 0.96196 0.72159 0.66523 0.0
H478 H 0.01804 0.66424 0.68179 0.0
H479 H 0.01752 0.67533 0.71923 0.0
La480 La 0.7233 0.50361 0.26085 0.0
La481 La 0.75619 0.51374 0.27983 0.0
C482 C 0.69062 0.50438 0.24389 0.0
C483 C 0.68388 0.5051 0.22094 0.0
C484 C 0.67691 0.48835 0.21864 0.0
C485 C 0.66914 0.48892 0.19779 0.0
C486 C 0.66807 0.50636 0.17875 0.0
C487 C 0.67543 0.52301 0.18086 0.0
C488 C 0.68332 0.52238 0.20179 0.0
C489 C 0.76345 0.47492 0.25612 0.0
C490 C 0.74563 0.53779 0.22841 0.0
C491 C 0.78788 0.5132 0.29844 0.0
C492 C 0.79925 0.50285 0.31984 0.0
C493 C 0.78775 0.50368 0.34287 0.0
C494 C 0.79912 0.49807 0.36263 0.0
C495 C 0.82213 0.49137 0.35971 0.0
C496 C 0.83361 0.48881 0.33692 0.0
C497 C 0.82224 0.4946 0.31714 0.0
C498 C 0.71604 0.54246 0.28332 0.0
C499 C 0.73352 0.48023 0.31172 0.0
O500 O 0.70589 0.48652 0.25182 0.0
O501 O 0.69321 0.52179 0.24759 0.0
O502 O 0.74561 0.47044 0.25912 0.0
O503 O 0.75853 0.49532 0.2535 0.0
O504 O 0.72992 0.52911 0.23188 0.0
O505 O 0.76005 0.53186 0.24381 0.0
O506 O 0.76789 0.52683 0.30163 0.0
O507 O 0.7901 0.50103 0.2828 0.0
O508 O 0.73384 0.54723 0.27888 0.0
O509 O 0.72102 0.522 0.28705 0.0
O510 O 0.75127 0.48598 0.30637 0.0
O511 O 0.71747 0.48932 0.29818 0.0
H512 H 0.67703 0.47496 0.23324 0.0
H513 H 0.66319 0.47608 0.19698 0.0
H514 H 0.67488 0.53662 0.16645 0.0
H515 H 0.68862 0.53552 0.20309 0.0
H516 H 0.76999 0.50978 0.34553 0.0
H517 H 0.7899 0.5 0.38004 0.0
H518 H 0.85134 0.48388 0.3341 0.0
H519 H 0.83144 0.49385 0.29957 0.0
La520 La 0.73089 0.74156 0.99987 0.0
La521 La 0.74403 0.77053 0.02823 0.0
C522 C 0.72205 0.71001 0.99419 0.0
C523 C 0.70661 0.69972 1.00924 0.0
C524 C 0.68581 0.71274 0.01828 0.0
C525 C 0.67145 0.70339 0.03359 0.0
C526 C 0.67728 0.68067 0.03969 0.0
C527 C 0.69822 0.66759 0.03081 0.0
C528 C 0.71285 0.67705 0.01589 0.0
C529 C 0.7285 0.78125 0.97513 0.0
C530 C 0.69604 0.76798 0.03924 0.0
C531 C 0.7521 0.80208 0.03516 0.0
C532 C 0.76751 0.81296 0.02148 0.0
C533 C 0.78912 0.80053 1.0139 0.0
C534 C 0.80402 0.81066 1.00169 0.0
C535 C 0.79769 0.83344 0.99692 0.0
C536 C 0.77579 0.84594 1.00339 0.0
C537 C 0.76077 0.83573 0.01562 0.0
C538 C 0.74636 0.73091 0.05321 0.0
C539 C 0.77869 0.74486 0.98818 0.0
O540 O 0.71306 0.73004 0.98328 0.0
O541 O 0.73942 0.70759 1.00383 0.0
O542 O 0.72384 0.76691 0.96732 0.0
O543 O 0.73332 0.77251 0.99581 0.0
O544 O 0.7016 0.75318 0.02517 0.0
O545 O 0.70926 0.77813 0.04157 0.0
O546 O 0.76117 0.78195 0.04574 0.0
O547 O 0.73527 0.80449 0.02461 0.0
O548 O 0.75131 0.74525 0.06064 0.0
O549 O 0.74127 0.73957 0.03258 0.0
O550 O 0.77309 0.75959 1.00237 0.0
O551 O 0.76566 0.7343 0.98623 0.0
H552 H 0.68056 0.73023 1.01329 0.0
H553 H 0.65559 0.71398 0.04029 0.0
H554 H 0.70298 0.65004 0.03469 0.0
H555 H 0.72889 0.66669 1.00931 0.0
H556 H 0.79472 0.78293 0.01797 0.0
H557 H 0.82076 0.80067 0.99671 0.0
H558 H 0.77057 0.86356 1.00007 0.0
H559 H 0.7441 0.84558 0.02102 0.0
La560 La 0.47599 0.99468 0.53183 0.0
La561 La 0.51789 0.99964 0.50212 0.0
C562 C 0.4418 0.98487 0.54377 0.0
C563 C 0.43674 0.9676 0.53634 0.0
C564 C 0.44477 0.94585 0.54786 0.0
C565 C 0.44304 0.92905 0.53879 0.0
C566 C 0.43303 0.93354 0.51807 0.0
C567 C 0.42427 0.95536 0.50702 0.0
C568 C 0.42603 0.97219 0.51612 0.0
C569 C 0.50972 0.98205 0.55556 0.0
C570 C 0.50723 0.95965 0.49869 0.0
C571 C 0.55346 1.00681 0.48875 0.0
C572 C 0.56433 0.01763 0.49906 0.0
C573 C 0.5774 0.02897 0.48422 0.0
C574 C 0.58574 0.04131 0.49368 0.0
C575 C 0.58126 0.04225 0.51814 0.0
C576 C 0.56874 0.03031 0.53308 0.0
C577 C 0.56012 0.01833 0.52353 0.0
C578 C 0.48416 0.0113 0.47835 0.0
C579 C 0.48717 0.03412 0.53595 0.0
O580 O 0.45772 0.97805 0.55705 0.0
O581 O 0.4432 1.00137 0.52716 0.0
O582 O 0.4895 0.99037 0.5646 0.0
O583 O 0.51035 0.97972 0.53444 0.0
O584 O 0.48798 0.9687 0.51065 0.0
O585 O 0.52332 0.96765 0.49505 0.0
O586 O 0.53497 0.01957 0.48073 0.0
O587 O 0.55206 0.98834 0.50127 0.0
O588 O 0.50445 1.00354 0.46934 0.0
O589 O 0.48363 0.01405 0.49925 0.0
O590 O 0.5069 0.02401 0.52547 0.0
O591 O 0.47047 0.02714 0.53785 0.0
H592 H 0.45313 0.94163 0.56348 0.0
H593 H 0.45017 0.91246 0.54766 0.0
H594 H 0.41597 0.95947 0.49138 0.0
H595 H 0.41938 0.98876 0.50703 0.0
H596 H 0.58061 0.02879 0.46525 0.0
H597 H 0.59544 0.05036 0.48186 0.0
H598 H 0.56478 0.03106 0.55192 0.0
H599 H 0.54945 0.01035 0.53515 0.0
La600 La 0.47997 0.5168 0.01738 0.0
La601 La 0.52347 0.51462 0.98663 0.0
C602 C 0.44277 0.51429 0.03324 0.0
C603 C 0.43116 0.50148 0.02757 0.0
C604 C 0.41921 0.49129 0.04593 0.0
C605 C 0.4098 0.47741 0.04103 0.0
C606 C 0.41205 0.47385 0.01767 0.0
C607 C 0.42387 0.48414 0.99927 0.0
C608 C 0.43365 0.4976 1.00426 0.0
C609 C 0.51389 0.50493 0.04083 0.0
C610 C 0.50683 0.47665 0.98945 0.0
C611 C 0.56093 0.51727 0.9743 0.0
C612 C 0.56971 0.53153 0.98241 0.0
C613 C 0.56461 0.5536 0.97178 0.0
C614 C 0.56738 0.56846 0.98319 0.0
C615 C 0.57526 0.56155 1.00544 0.0
C616 C 0.58234 0.53921 0.01489 0.0
C617 C 0.57969 0.52433 1.00344 0.0
C618 C 0.48987 0.5267 0.96283 0.0
C619 C 0.49597 0.55538 1.01371 0.0
O620 O 0.46031 0.50267 0.04367 0.0
O621 O 0.44601 0.52991 0.0163 0.0
O622 O 0.494 0.51572 0.04871 0.0
O623 O 0.51382 0.49984 0.02128 0.0
O624 O 0.48797 0.48864 0.99985 0.0
O625 O 0.5246 0.48232 0.98485 0.0
O626 O 0.54484 0.52733 0.96119 0.0
O627 O 0.55696 0.50164 0.99071 0.0
O628 O 0.50993 0.51639 0.95473 0.0
O629 O 0.48964 0.53163 0.98263 0.0
O630 O 0.51468 0.54357 1.00293 0.0
O631 O 0.47844 0.54933 0.01913 0.0
H632 H 0.41748 0.49379 0.06408 0.0
H633 H 0.4006 0.46962 0.05539 0.0
H634 H 0.42583 0.48146 0.98116 0.0
H635 H 0.44348 0.50461 0.99 0.0
H636 H 0.55713 0.5597 0.95542 0.0
H637 H 0.56203 0.58555 0.97529 0.0
H638 H 0.58946 0.5333 0.03146 0.0
H639 H 0.58434 0.50736 1.01178 0.0
H640 H 0.02494 0.06325 0.01742 0.0
H641 H 0.02903 0.08547 0.0424 0.0
H642 H 0.96364 0.09273 0.07809 0.0
H643 H 0.96009 0.06891 0.0539 0.0
H644 H 0.01379 0.12289 0.04985 0.0
H645 H 0.9589 0.09747 0.13447 0.0
H646 H 0.9484 0.06539 0.15436 0.0
H647 H 0.00722 0.02361 0.12024 0.0
H648 H 0.01819 0.0554 0.10021 0.0
H649 H 0.98527 0.19605 0.13029 0.0
H650 H 0.9888 0.17259 0.10213 0.0
H651 H 0.02308 0.1165 0.15068 0.0
H652 H 0.01918 0.13975 0.17901 0.0
H653 H -0.0065 0.10786 0.13717 0.0
H654 H 0.04915 0.13454 0.09649 0.0
H655 H 0.06818 0.1608 0.0782 0.0
H656 H 0.02267 0.19025 0.02652 0.0
H657 H 0.00307 0.16435 0.04479 0.0
C658 C 0.01134 0.06956 0.0305 0.0
C659 C 0.99232 0.06396 0.0338 0.0
C660 C 0.01371 0.08243 0.04477 0.0
C661 C -0.00311 0.09051 0.06255 0.0
C662 C 0.97719 0.08618 0.06495 0.0
C663 C 0.975 0.07278 0.05092 0.0
C664 C 0.00039 0.10295 0.07874 0.0
C665 C 0.00929 0.11962 0.06894 0.0
C666 C -0.00434 0.09806 0.10379 0.0
C667 C 0.98921 0.07885 0.11567 0.0
C668 C 0.96961 0.08143 0.13123 0.0
C669 C 0.96358 0.0633 0.14249 0.0
C670 C 0.97711 0.04249 0.13845 0.0
C671 C -0.00327 0.03975 0.12319 0.0
C672 C 0.00284 0.05782 0.11185 0.0
C673 C -0.00616 0.17872 0.13478 0.0
C674 C 0.00187 0.16974 0.15693 0.0
C675 C -0.00398 0.16533 0.11858 0.0
C676 C 0.00638 0.1427 0.12411 0.0
C677 C 0.01517 0.13385 0.14583 0.0
C678 C 0.01306 0.14723 0.162 0.0
C679 C 0.00624 0.12822 0.10822 0.0
C680 C -0.00198 0.11114 0.11808 0.0
C681 C 0.01285 0.1319 0.08339 0.0
C682 C 0.02441 0.14768 0.07229 0.0
C683 C 0.04301 0.14676 0.08142 0.0
C684 C 0.05392 0.16156 0.07104 0.0
C685 C 0.04649 0.1773 0.05138 0.0
C686 C 0.02829 0.17812 0.04187 0.0
C687 C 0.01727 0.16337 0.05224 0.0
H688 H 0.05489 0.18882 0.04352 0.0
H689 H 0.97242 0.02847 0.1472 0.0
H690 H 0.81498 0.26571 0.49488 0.0
H691 H 0.84829 0.26439 0.46712 0.0
H692 H 0.83107 0.22883 0.42526 0.0
H693 H 0.79848 0.22914 0.45358 0.0
H694 H 0.87191 0.21187 0.42734 0.0
H695 H 0.82433 0.28866 0.41241 0.0
H696 H 0.80406 0.32535 0.42217 0.0
H697 H 0.86217 0.32795 0.44173 0.0
H698 H 0.88287 0.29124 0.43229 0.0
H699 H 0.93534 0.22671 0.31648 0.0
H700 H 0.90712 0.2259 0.35027 0.0
H701 H 0.93072 0.263 0.38366 0.0
H702 H 0.95839 0.26478 0.34918 0.0
H703 H 0.8897 0.27852 0.38936 0.0
H704 H 0.93823 0.20564 0.40344 0.0
H705 H 0.96164 0.16943 0.39429 0.0
H706 H 0.90557 0.15864 0.37974 0.0
H707 H 0.88185 0.19492 0.3885 0.0
C708 C 0.81841 0.25744 0.47986 0.0
C709 C 0.80407 0.24741 0.47659 0.0
C710 C 0.83739 0.25691 0.46378 0.0
C711 C 0.84219 0.24689 0.44363 0.0
C712 C 0.82793 0.23669 0.44056 0.0
C713 C 0.80923 0.23683 0.45686 0.0
C714 C 0.86208 0.24651 0.42584 0.0
C715 C 0.87559 0.22654 0.41886 0.0
C716 C 0.86784 0.26535 0.4155 0.0
C717 C 0.85507 0.28709 0.42192 0.0
C718 C 0.83272 0.29695 0.41904 0.0
C719 C 0.82116 0.31776 0.42449 0.0
C720 C 0.83172 0.32892 0.43268 0.0
C721 C 0.85395 0.31929 0.43546 0.0
C722 C 0.86562 0.29848 0.43007 0.0
C723 C 0.93475 0.23446 0.33114 0.0
C724 C 0.94929 0.24566 0.33015 0.0
C725 C 0.91859 0.2339 0.35061 0.0
C726 C 0.91688 0.24401 0.36996 0.0
C727 C 0.93161 0.25499 0.36911 0.0
C728 C 0.94754 0.25591 0.3494 0.0
C729 C 0.89909 0.24402 0.3904 0.0
C730 C 0.88608 0.26383 0.39792 0.0
C731 C 0.8941 0.22497 0.40166 0.0
C732 C 0.90829 0.20309 0.39646 0.0
C733 C 0.93091 0.19561 0.39814 0.0
C734 C 0.94424 0.17506 0.39304 0.0
C735 C 0.93511 0.16176 0.38639 0.0
C736 C 0.91262 0.16896 0.38488 0.0
C737 C 0.89922 0.18951 0.38994 0.0
H738 H 0.94545 0.14585 0.38244 0.0
H739 H 0.82268 0.34505 0.43681 0.0
H740 H 0.71783 0.05772 0.69162 0.0
H741 H 0.71822 0.08904 0.66035 0.0
H742 H 0.77809 0.08767 0.68072 0.0
H743 H 0.77826 0.05583 0.71142 0.0
H744 H 0.71436 0.12874 0.66183 0.0
H745 H 0.808 0.10898 0.634 0.0
H746 H 0.84139 0.07683 0.63034 0.0
H747 H 0.80277 0.04018 0.62188 0.0
H748 H 0.76921 0.07217 0.62517 0.0
H749 H 0.73506 0.22503 0.60414 0.0
H750 H 0.73452 0.19075 0.62925 0.0
H751 H 0.75989 0.15832 0.56833 0.0
H752 H 0.76134 0.19284 0.54313 0.0
H753 H 0.77927 0.1327 0.60391 0.0
H754 H 0.70368 0.17106 0.59583 0.0
H755 H 0.66834 0.20143 0.59668 0.0
H756 H 0.66778 0.19828 0.67132 0.0
H757 H 0.7032 0.16811 0.67092 0.0
C758 C 0.73126 0.06387 0.68932 0.0
C759 C 0.74812 0.05397 0.7041 0.0
C760 C 0.73135 0.08201 0.67147 0.0
C761 C 0.74816 0.09098 0.6679 0.0
C762 C 0.76506 0.08105 0.68262 0.0
C763 C 0.76511 0.06276 0.70032 0.0
C764 C 0.74767 0.111 0.64937 0.0
C765 C 0.72857 0.12951 0.64916 0.0
C766 C 0.76595 0.11219 0.63229 0.0
C767 C 0.78607 0.09292 0.63007 0.0
C768 C 0.80665 0.09408 0.63127 0.0
C769 C 0.82561 0.07588 0.62927 0.0
C770 C 0.8242 0.05646 0.62596 0.0
C771 C 0.80384 0.05521 0.62455 0.0
C772 C 0.78484 0.07336 0.6265 0.0
C773 C 0.74057 0.21064 0.59596 0.0
C774 C 0.74817 0.21184 0.57147 0.0
C775 C 0.74003 0.19094 0.61041 0.0
C776 C 0.74671 0.17172 0.60085 0.0
C777 C 0.7545 0.1728 0.57633 0.0
C778 C 0.75524 0.19261 0.56182 0.0
C779 C 0.74609 0.15061 0.61672 0.0
C780 C 0.76499 0.1319 0.61648 0.0
C781 C 0.72741 0.14908 0.63302 0.0
C782 C 0.70621 0.16742 0.63328 0.0
C783 C 0.69612 0.17698 0.61237 0.0
C784 C 0.67608 0.19413 0.61277 0.0
C785 C 0.6659 0.2018 0.63399 0.0
C786 C 0.67572 0.19235 0.65488 0.0
C787 C 0.69577 0.1752 0.65458 0.0
H788 H 0.65035 0.215 0.63426 0.0
H789 H 0.83889 0.04238 0.62444 0.0
H790 H 0.93992 0.05006 0.97399 0.0
H791 H 0.90773 0.04973 0.95923 0.0
H792 H 0.94683 0.99019 0.9329 0.0
H793 H 0.97928 0.99175 0.94539 0.0
H794 H 0.92452 0.02092 0.89988 0.0
H795 H 0.88681 0.98303 0.98222 0.0
H796 H 0.87723 0.98225 0.02562 0.0
H797 H 0.86287 0.05132 0.0151 0.0
H798 H 0.87153 0.05255 0.97166 0.0
H799 H 0.85719 0.97711 0.86559 0.0
H800 H 0.88081 0.98031 0.89105 0.0
H801 H 0.83193 0.04058 0.90716 0.0
H802 H 0.80792 0.03728 0.88205 0.0
H803 H 0.85519 0.01427 0.94646 0.0
H804 H 0.86936 0.04457 0.8638 0.0
H805 H 0.87692 0.04363 0.82074 0.0
H806 H 0.93641 0.98956 0.83166 0.0
H807 H 0.92901 0.98996 0.87486 0.0
C808 C 0.94145 0.03684 0.96524 0.0
C809 C 0.96198 0.02095 0.96079 0.0
C810 C 0.92293 0.03637 0.95729 0.0
C811 C 0.92452 0.01944 0.94577 0.0
C812 C 0.94505 1.0033 0.94195 0.0
C813 C 0.96362 1.00424 0.94901 0.0
C814 C 0.90592 0.01965 0.93474 0.0
C815 C 0.90939 0.01946 0.91016 0.0
C816 C 0.88586 0.01826 0.9479 0.0
C817 C 0.88109 0.01768 0.9739 0.0
C818 C 0.88193 0.99797 0.98926 0.0
C819 C 0.87645 0.99747 1.01382 0.0
C820 C 0.86994 0.01663 0.02316 0.0
C821 C 0.86837 0.03641 1.0079 0.0
C822 C 0.87359 0.03701 0.98332 0.0
C823 C 0.85114 0.9907 0.87513 0.0
C824 C 0.83079 0.00708 0.87159 0.0
C825 C 0.86472 0.99257 0.88955 0.0
C826 C 0.85823 0.01087 0.90064 0.0
C827 C 0.83725 0.0264 0.89865 0.0
C828 C 0.82366 0.02456 0.88417 0.0
C829 C 0.87426 0.01494 0.91192 0.0
C830 C 0.87028 0.01595 0.93629 0.0
C831 C 0.89385 0.01721 0.8986 0.0
C832 C 0.89854 0.0172 0.87257 0.0
C833 C 0.88398 0.0324 0.85703 0.0
C834 C 0.88825 0.03197 0.8326 0.0
C835 C 0.90712 0.01652 0.82347 0.0
C836 C 0.9218 1.00151 0.83876 0.0
C837 C 0.91758 1.00184 0.86321 0.0
H838 H 0.91039 0.0162 0.80456 0.0
H839 H 0.8658 0.01619 0.04218 0.0
H840 H 0.05924 0.98714 0.02096 0.0
H841 H 0.0888 0.9911 0.03767 0.0
H842 H 0.04475 1.00607 0.10159 0.0
H843 H 0.01526 1.00378 0.08446 0.0
H844 H 0.06305 0.03533 0.08603 0.0
H845 H 0.08803 0.9563 0.09775 0.0
H846 H 0.10102 0.92086 0.08427 0.0
H847 H 0.15556 0.93611 0.0405 0.0
H848 H 0.14273 0.97178 0.05352 0.0
H849 H 0.11804 0.01999 0.18142 0.0
H850 H 0.09811 0.01783 0.15164 0.0
H851 H 0.15617 0.00924 0.10041 0.0
H852 H 0.17644 0.01147 0.13043 0.0
H853 H 0.13598 0.98046 0.10016 0.0
H854 H 0.1143 0.05685 0.09488 0.0
H855 H 0.10067 0.09257 0.10775 0.0
H856 H 0.03956 0.08293 0.13821 0.0
H857 H 0.05277 0.04732 0.12568 0.0
C858 C 0.05596 0.99148 0.03842 0.0
C859 C 0.03482 0.99589 0.05103 0.0
C860 C 0.07288 0.99344 0.0481 0.0
C861 C 0.06888 0.99915 0.07081 0.0
C862 C 0.04811 1.00208 0.08389 0.0
C863 C 0.03128 1.00064 0.07408 0.0
C864 C 0.08544 1.00348 0.08101 0.0
C865 C 0.07897 0.02328 0.08923 0.0
C866 C 0.1066 0.98818 0.08416 0.0
C867 C 0.11428 0.96679 0.07636 0.0
C868 C 0.10269 0.95216 0.08509 0.0
C869 C 0.11004 0.93202 0.07757 0.0
C870 C 0.12906 0.92627 0.06147 0.0
C871 C 0.1408 0.94062 0.05292 0.0
C872 C 0.13351 0.96078 0.06037 0.0
C873 C 0.12652 0.0181 0.16371 0.0
C874 C 0.14876 0.01619 0.15822 0.0
C875 C 0.11511 0.01678 0.14669 0.0
C876 C 0.12556 0.01371 0.12368 0.0
C877 C 0.14779 0.0117 0.11805 0.0
C878 C 0.15932 0.01298 0.13519 0.0
C879 C 0.11307 0.01195 0.10611 0.0
C880 C 0.12027 0.9927 0.09652 0.0
C881 C 0.09251 0.02783 0.10154 0.0
C882 C 0.08465 0.04924 0.10953 0.0
C883 C 0.09805 0.06225 0.10458 0.0
C884 C 0.09034 0.08258 0.11172 0.0
C885 C 0.06929 0.09003 0.1239 0.0
C886 C 0.05584 0.07727 0.12877 0.0
C887 C 0.06342 0.05701 0.12159 0.0
H888 H 0.06344 0.10567 0.12962 0.0
H889 H 0.13473 0.91067 0.05568 0.0
H890 H 0.98273 0.48642 0.44864 0.0
H891 H 0.97954 0.45979 0.42816 0.0
H892 H 0.02453 0.40801 0.47174 0.0
H893 H 0.02777 0.43487 0.49221 0.0
H894 H 0.03194 0.40307 0.42446 0.0
H895 H 0.97161 0.42511 0.48373 0.0
H896 H 0.93991 0.45148 0.50228 0.0
H897 H 0.90262 0.45769 0.44679 0.0
H898 H 0.93537 0.43445 0.42539 0.0
H899 H 0.00892 0.3209 0.38805 0.0
H900 H 0.01155 0.34239 0.4154 0.0
H901 H 0.96379 0.39922 0.381 0.0
H902 H 0.96048 0.37766 0.35416 0.0
H903 H 0.95832 0.39793 0.42823 0.0
H904 H 0.01872 0.38913 0.36485 0.0
H905 H 0.05097 0.36787 0.34054 0.0
H906 H 0.08376 0.33746 0.40292 0.0
H907 H 0.05155 0.35835 0.42766 0.0
C908 C 0.99217 0.46937 0.45354 0.0
C909 C 0.00552 0.46252 0.47185 0.0
C910 C 0.99031 0.45421 0.4419 0.0
C911 C 0.00156 0.43191 0.44866 0.0
C912 C 0.01567 0.42515 0.46632 0.0
C913 C 0.01753 0.44039 0.47799 0.0
C914 C -0.0022 0.41562 0.4381 0.0
C915 C 0.01584 0.40185 0.42553 0.0
C916 C 0.97659 0.41431 0.43926 0.0
C917 C 0.95655 0.42836 0.45237 0.0
C918 C 0.95707 0.43273 0.47477 0.0
C919 C 0.93878 0.44733 0.48581 0.0
C920 C 0.9191 0.45622 0.47587 0.0
C921 C 0.91792 0.45104 0.45438 0.0
C922 C 0.93659 0.43756 0.44245 0.0
C923 C -0.0015 0.33782 0.38674 0.0
C924 C 0.98462 0.34764 0.36878 0.0
C925 C 0.00021 0.35013 0.40223 0.0
C926 C 0.98821 0.37249 0.3999 0.0
C927 C 0.97332 0.38201 0.383 0.0
C928 C 0.97155 0.36971 0.36757 0.0
C929 C 0.99217 0.3864 0.41381 0.0
C930 C 0.97427 0.39944 0.42724 0.0
C931 C 0.01325 0.38759 0.41298 0.0
C932 C 0.03264 0.3751 0.39813 0.0
C933 C 0.03275 0.37779 0.3734 0.0
C934 C 0.05103 0.36582 0.35955 0.0
C935 C 0.06938 0.35127 0.37019 0.0
C936 C 0.06951 0.3487 0.39471 0.0
C937 C 0.05126 0.3606 0.40865 0.0
H938 H 0.08352 0.34202 0.35943 0.0
H939 H 0.90476 0.467 0.48486 0.0
H940 H 0.67396 0.24142 0.54966 0.0
H941 H 0.64198 0.24107 0.57891 0.0
H942 H 0.64901 0.29104 0.60882 0.0
H943 H 0.68116 0.29139 0.57975 0.0
H944 H 0.64239 0.25784 0.64337 0.0
H945 H 0.60869 0.30305 0.57391 0.0
H946 H 0.60233 0.31125 0.53182 0.0
H947 H 0.58091 0.25619 0.54282 0.0
H948 H 0.58739 0.24751 0.58493 0.0
H949 H 0.54069 0.29053 0.71503 0.0
H950 H 0.57088 0.29062 0.68314 0.0
H951 H 0.56121 0.23957 0.65777 0.0
H952 H 0.531 0.23924 0.68979 0.0
H953 H 0.56923 0.27148 0.6207 0.0
H954 H 0.60198 0.2255 0.68825 0.0
H955 H 0.60903 0.21457 0.73019 0.0
H956 H 0.63343 0.26719 0.72276 0.0
H957 H 0.62623 0.27863 0.68081 0.0
C958 C 0.66865 0.25248 0.56231 0.0
C959 C 0.68016 0.26652 0.56219 0.0
C960 C 0.65029 0.25228 0.57904 0.0
C961 C 0.64294 0.26613 0.59602 0.0
C962 C 0.65434 0.2802 0.59591 0.0
C963 C 0.67267 0.28048 0.57914 0.0
C964 C 0.62361 0.26576 0.61414 0.0
C965 C 0.62633 0.26118 0.63838 0.0
C966 C 0.6028 0.2692 0.60773 0.0
C967 C 0.5987 0.27453 0.5825 0.0
C968 C 0.60275 0.29261 0.56731 0.0
C969 C 0.59911 0.29736 0.54346 0.0
C970 C 0.59127 0.28422 0.53464 0.0
C971 C 0.587 0.26635 0.54967 0.0
C972 C 0.59062 0.26152 0.57353 0.0
C973 C 0.54475 0.2795 0.70252 0.0
C974 C 0.53338 0.26486 0.70505 0.0
C975 C 0.56213 0.27948 0.68435 0.0
C976 C 0.5685 0.26494 0.66818 0.0
C977 C 0.55664 0.25091 0.67004 0.0
C978 C 0.53937 0.25074 0.68839 0.0
C979 C 0.58795 0.26402 0.64987 0.0
C980 C 0.58528 0.26824 0.62566 0.0
C981 C 0.60892 0.25986 0.65627 0.0
C982 C 0.61332 0.25308 0.68147 0.0
C983 C 0.60866 0.23487 0.69562 0.0
C984 C 0.61272 0.22855 0.71938 0.0
C985 C 0.6216 0.24022 0.72916 0.0
C986 C 0.62651 0.25819 0.71516 0.0
C987 C 0.62246 0.26459 0.69139 0.0
H988 H 0.62474 0.23531 0.74756 0.0
H989 H 0.58847 0.28792 0.51616 0.0
H990 H 0.76378 0.9554 0.84046 0.0
H991 H 0.76313 0.92419 0.87179 0.0
H992 H 0.70665 0.92218 0.84689 0.0
H993 H 0.70673 0.95388 0.8162 0.0
H994 H 0.70054 0.91399 0.89188 0.0
H995 H 0.76348 0.88553 0.83583 0.0
H996 H 0.79939 0.88222 0.81184 0.0
H997 H 0.82899 0.87027 0.87539 0.0
H998 H 0.79319 0.87378 0.89974 0.0
H999 H 0.70626 0.80485 0.93784 0.0
H1000 H 0.70825 0.83881 0.9125 0.0
H1001 H 0.75545 0.83969 0.95371 0.0
H1002 H 0.75346 0.8054 0.9792 0.0
H1003 H 0.76743 0.84925 0.90413 0.0
H1004 H 0.70473 0.87485 0.96006 0.0
H1005 H 0.66912 0.87608 0.98373 0.0
H1006 H 0.63924 0.89235 0.91957 0.0
H1007 H 0.67475 0.8909 0.89549 0.0
C1008 C 0.75108 0.94846 0.84175 0.0
C1009 C 0.73526 0.95737 0.82568 0.0
C1010 C 0.75086 0.93034 0.85963 0.0
C1011 C 0.7351 0.92023 0.86172 0.0
C1012 C 0.71907 0.92942 0.84591 0.0
C1013 C 0.71912 0.94768 0.82824 0.0
C1014 C 0.73505 0.90029 0.88026 0.0
C1015 C 0.7152 0.89981 0.89424 0.0
C1016 C 0.7542 0.88174 0.88426 0.0
C1017 C 0.77561 0.88014 0.86958 0.0
C1018 C 0.7776 0.8824 0.84466 0.0
C1019 C 0.79795 0.88044 0.83101 0.0
C1020 C 0.81646 0.87602 0.8421 0.0
C1021 C 0.81464 0.87368 0.86684 0.0
C1022 C 0.79433 0.87565 0.88057 0.0
C1023 C 0.7169 0.81237 0.94171 0.0
C1024 C 0.72931 0.80263 0.96093 0.0
C1025 C 0.71803 0.83186 0.92716 0.0
C1026 C 0.73181 0.84215 0.93119 0.0
C1027 C 0.74454 0.83228 0.95023 0.0
C1028 C 0.74319 0.81281 0.96504 0.0
C1029 C 0.73289 0.86296 0.91519 0.0
C1030 C 0.75288 0.86357 0.90177 0.0
C1031 C 0.71389 0.88158 0.91156 0.0
C1032 C 0.69246 0.88259 0.92597 0.0
C1033 C 0.69061 0.87853 0.95099 0.0
C1034 C 0.67043 0.87929 0.96448 0.0
C1035 C 0.65194 0.88425 0.95316 0.0
C1036 C 0.65358 0.8885 0.92831 0.0
C1037 C 0.67373 0.88773 0.91473 0.0
H1038 H 0.63633 0.88484 0.96364 0.0
H1039 H 0.83223 0.87433 0.83154 0.0
H1040 H 0.18267 0.28542 0.08065 0.0
H1041 H 0.15075 0.28385 0.10945 0.0
H1042 H 0.13406 0.24919 0.06619 0.0
H1043 H 0.16611 0.25051 0.03726 0.0
H1044 H 0.09727 0.28098 0.08479 0.0
H1045 H 0.15694 0.22078 0.11205 0.0
H1046 H 0.19431 0.20052 0.12276 0.0
H1047 H 0.18156 0.2375 0.17851 0.0
H1048 H 0.14421 0.25829 0.16785 0.0
H1049 H 0.02527 0.24481 0.18373 0.0
H1050 H 0.0549 0.24455 0.15078 0.0
H1051 H 0.07508 0.28545 0.18223 0.0
H1052 H 0.04541 0.28613 0.21492 0.0
H1053 H 0.11005 0.24676 0.16831 0.0
H1054 H 0.04908 0.30812 0.13678 0.0
H1055 H 0.01173 0.32512 0.12511 0.0
H1056 H 0.02741 0.28055 0.07647 0.0
H1057 H 0.06479 0.26309 0.08811 0.0
C1058 C 0.17209 0.27773 0.077 0.0
C1059 C 0.17706 0.2681 0.05655 0.0
C1060 C 0.15389 0.27672 0.09361 0.0
C1061 C 0.14012 0.2662 0.09013 0.0
C1062 C 0.14445 0.25736 0.06928 0.0
C1063 C 0.16282 0.25814 0.05275 0.0
C1064 C 0.12169 0.26394 0.10873 0.0
C1065 C 0.1001 0.27324 0.10298 0.0
C1066 C 0.12533 0.25368 0.13245 0.0
C1067 C 0.14781 0.24129 0.13897 0.0
C1068 C 0.16216 0.22477 0.12644 0.0
C1069 C 0.18333 0.21315 0.13253 0.0
C1070 C 0.19032 0.21776 0.15127 0.0
C1071 C 0.17613 0.23398 0.16397 0.0
C1072 C 0.15494 0.24568 0.15792 0.0
C1073 C 0.03584 0.25397 0.1835 0.0
C1074 C 0.0328 0.26564 0.20194 0.0
C1075 C 0.0528 0.25376 0.16467 0.0
C1076 C 0.06723 0.26496 0.16406 0.0
C1077 C 0.06418 0.27666 0.18236 0.0
C1078 C 0.04707 0.27716 0.20096 0.0
C1079 C 0.08565 0.26444 0.14453 0.0
C1080 C 0.10727 0.25446 0.15011 0.0
C1081 C 0.08205 0.27358 0.12057 0.0
C1082 C 0.05964 0.28415 0.11351 0.0
C1083 C 0.0445 0.30182 0.12375 0.0
C1084 C 0.02334 0.31156 0.11711 0.0
C1085 C 0.01718 0.30388 0.10011 0.0
C1086 C 0.03219 0.28646 0.08967 0.0
C1087 C 0.05337 0.27665 0.09627 0.0
H1088 H 0.00079 0.31144 0.09499 0.0
H1089 H 0.2067 0.20872 0.15598 0.0
H1090 H 0.69805 0.46727 0.33238 0.0
H1091 H 0.69744 0.43568 0.36336 0.0
H1092 H 0.76615 0.41992 0.36751 0.0
H1093 H 0.76685 0.45155 0.3368 0.0
H1094 H 0.75608 0.38421 0.36355 0.0
H1095 H 0.72873 0.44046 0.41173 0.0
H1096 H 0.7037 0.47535 0.42312 0.0
H1097 H 0.64894 0.45317 0.43195 0.0
H1098 H 0.67363 0.41824 0.42029 0.0
H1099 H 0.76889 0.29665 0.45924 0.0
H1100 H 0.76809 0.33151 0.43412 0.0
H1101 H 0.69744 0.35431 0.44468 0.0
H1102 H 0.69833 0.32009 0.47192 0.0
H1103 H 0.70794 0.38714 0.44057 0.0
H1104 H 0.73398 0.33109 0.39289 0.0
H1105 H 0.75789 0.29646 0.38004 0.0
H1106 H 0.81326 0.31826 0.36707 0.0
H1107 H 0.78979 0.35284 0.38028 0.0
C1108 C 0.71299 0.45726 0.34007 0.0
C1109 C 0.73247 0.46214 0.33205 0.0
C1110 C 0.7126 0.43916 0.35787 0.0
C1111 C 0.73173 0.42531 0.36795 0.0
C1112 C 0.75114 0.43027 0.36011 0.0
C1113 C 0.75148 0.4485 0.34257 0.0
C1114 C 0.7318 0.40522 0.38592 0.0
C1115 C 0.74577 0.38485 0.38054 0.0
C1116 C 0.71783 0.40588 0.40779 0.0
C1117 C 0.703 0.42683 0.4149 0.0
C1118 C 0.71133 0.44309 0.41591 0.0
C1119 C 0.69721 0.46286 0.42245 0.0
C1120 C 0.67474 0.4665 0.42819 0.0
C1121 C 0.66635 0.45034 0.42746 0.0
C1122 C 0.6804 0.43055 0.42091 0.0
C1123 C 0.7532 0.3093 0.45659 0.0
C1124 C 0.73367 0.30571 0.46765 0.0
C1125 C 0.75275 0.32915 0.44182 0.0
C1126 C 0.73277 0.34552 0.43643 0.0
C1127 C 0.71318 0.3421 0.44816 0.0
C1128 C 0.71365 0.32251 0.46377 0.0
C1129 C 0.73237 0.36582 0.41835 0.0
C1130 C 0.71829 0.38631 0.42362 0.0
C1131 C 0.74604 0.36523 0.3961 0.0
C1132 C 0.76014 0.34447 0.38792 0.0
C1133 C 0.75128 0.32844 0.38748 0.0
C1134 C 0.76477 0.30881 0.38012 0.0
C1135 C 0.78709 0.30513 0.37284 0.0
C1136 C 0.79596 0.32112 0.37274 0.0
C1137 C 0.78257 0.34074 0.38017 0.0
H1138 H 0.79751 0.2899 0.3672 0.0
H1139 H 0.66383 0.48181 0.43325 0.0
H1140 H 0.55347 0.96303 0.54099 0.0
H1141 H 0.58435 0.96293 0.55844 0.0
H1142 H 0.53929 0.99152 0.61627 0.0
H1143 H 0.50857 0.99394 0.59732 0.0
H1144 H 0.56567 0.01026 0.60634 0.0
H1145 H 0.57587 0.93431 0.61947 0.0
H1146 H 0.5805 0.89913 0.60895 0.0
H1147 H 0.63946 0.90051 0.56284 0.0
H1148 H 0.63504 0.93584 0.57288 0.0
H1149 H 0.65825 0.95629 0.68383 0.0
H1150 H 0.63532 0.95102 0.65912 0.0
H1151 H 0.63792 0.00926 0.61002 0.0
H1152 H 0.66055 0.01485 0.63503 0.0
H1153 H 0.63414 0.94666 0.61498 0.0
H1154 H 0.58509 0.03986 0.59843 0.0
H1155 H 0.5825 0.07119 0.6158 0.0
H1156 H 0.59512 0.02963 0.68322 0.0
H1157 H 0.59778 0.99813 0.66629 0.0
C1158 C 0.55026 0.9696 0.55719 0.0
C1159 C 0.52867 0.97911 0.56739 0.0
C1160 C 0.56793 0.96916 0.56747 0.0
C1161 C 0.56432 0.97714 0.58885 0.0
C1162 C 0.54267 0.98558 0.59961 0.0
C1163 C 0.52506 0.98674 0.58889 0.0
C1164 C 0.5828 0.97732 0.59989 0.0
C1165 C 0.58055 0.99626 0.60821 0.0
C1166 C 0.60226 0.95905 0.60279 0.0
C1167 C 0.605 0.93781 0.59674 0.0
C1168 C 0.58974 0.92717 0.60697 0.0
C1169 C 0.59234 0.9072 0.60111 0.0
C1170 C 0.61023 0.89763 0.58519 0.0
C1171 C 0.6256 0.90797 0.57514 0.0
C1172 C 0.62306 0.92795 0.58092 0.0
C1173 C 0.65445 0.96764 0.66743 0.0
C1174 C 0.66091 0.98615 0.66151 0.0
C1175 C 0.64138 0.96457 0.65328 0.0
C1176 C 0.63461 0.97994 0.63296 0.0
C1177 C 0.64269 0.99738 0.62585 0.0
C1178 C 0.65553 1.00061 0.64017 0.0
C1179 C 0.61676 0.97941 0.62132 0.0
C1180 C 0.61918 0.96055 0.61293 0.0
C1181 C 0.59685 0.9972 0.6197 0.0
C1182 C 0.59244 0.01653 0.63078 0.0
C1183 C 0.58732 0.03744 0.61692 0.0
C1184 C 0.58583 0.05522 0.62669 0.0
C1185 C 0.58908 0.05231 0.65043 0.0
C1186 C 0.59298 0.03179 0.66472 0.0
C1187 C 0.59446 0.01399 0.65503 0.0
H1188 H 0.58842 0.06598 0.65781 0.0
H1189 H 0.61221 0.88216 0.58067 0.0
H1190 H 0.97721 0.95688 0.98465 0.0
H1191 H 0.97989 0.92656 0.96696 0.0
H1192 H 0.05028 0.90953 0.95374 0.0
H1193 H 0.04757 0.9409 0.97082 0.0
H1194 H 0.03426 0.90804 0.91589 0.0
H1195 H 0.02666 0.87576 0.99814 0.0
H1196 H 0.01053 0.87677 0.04006 0.0
H1197 H 0.94702 0.88894 0.02089 0.0
H1198 H 0.96281 0.88784 0.97881 0.0
H1199 H 0.03473 0.81702 0.87341 0.0
H1200 H 0.04159 0.83578 0.90097 0.0
H1201 H 0.97216 0.86991 0.91451 0.0
H1202 H 0.96509 0.85083 0.88738 0.0
H1203 H -0.00589 0.85718 0.95565 0.0
H1204 H 0.00098 0.89361 0.87354 0.0
H1205 H 0.01621 0.89546 0.83116 0.0
H1206 H 0.08102 0.87731 0.85015 0.0
H1207 H 0.06618 0.87504 0.89271 0.0
C1208 C -0.00666 0.94658 0.97835 0.0
C1209 C 0.01221 0.95117 0.97941 0.0
C1210 C -0.00515 0.92911 0.9683 0.0
C1211 C 0.01533 0.91536 0.95962 0.0
C1212 C 0.03432 0.91981 0.96059 0.0
C1213 C 0.03277 0.93767 0.97037 0.0
C1214 C 0.01636 0.89717 0.94846 0.0
C1215 C 0.02603 0.8965 0.9248 0.0
C1216 C 0.00528 0.88238 0.95995 0.0
C1217 C -0.00408 0.88165 0.98537 0.0
C1218 C 0.00927 0.87851 1.0029 0.0
C1219 C 0.00019 0.87911 0.02666 0.0
C1220 C 0.97776 0.88289 0.03311 0.0
C1221 C 0.9644 0.88594 0.01583 0.0
C1222 C 0.97342 0.88518 0.99206 0.0
C1223 C 0.02086 0.82803 0.88278 0.0
C1224 C -0.00063 0.83256 0.87811 0.0
C1225 C 0.02484 0.83883 0.8984 0.0
C1226 C 0.0074 0.85433 0.90958 0.0
C1227 C 0.98583 0.85796 0.90605 0.0
C1228 C 0.98184 0.84719 0.89042 0.0
C1229 C 0.01165 0.86836 0.923 0.0
C1230 C 0.00287 0.86828 0.947 0.0
C1231 C 0.02362 0.88244 0.91185 0.0
C1232 C 0.03252 0.88388 0.88629 0.0
C1233 C 0.0185 0.88982 0.86868 0.0
C1234 C 0.02705 0.89098 0.84464 0.0
C1235 C 0.04958 0.88643 0.83797 0.0
C1236 C 0.06359 0.88078 0.85535 0.0
C1237 C 0.05512 0.87955 0.87943 0.0
H1238 H 0.05617 0.88735 0.81934 0.0
H1239 H 0.97072 0.88348 0.05149 0.0
H1240 H 0.10019 0.09232 0.95807 0.0
H1241 H 0.10723 0.11959 0.97416 0.0
H1242 H 0.04452 0.13207 0.01767 0.0
H1243 H 0.03756 0.10455 1.0018 0.0
H1244 H 0.07801 0.1681 0.98739 0.0
H1245 H 0.06194 0.10893 0.05558 0.0
H1246 H 0.06291 0.07105 0.06078 0.0
H1247 H 0.13033 0.0516 0.02997 0.0
H1248 H 0.12957 0.0895 0.02412 0.0
H1249 H 0.13568 0.20223 0.04943 0.0
H1250 H 0.10555 0.18883 0.05081 0.0
H1251 H 0.15213 0.12868 0.0314 0.0
H1252 H 0.18208 0.14201 0.02949 0.0
H1253 H 0.11544 0.12239 0.05733 0.0
H1254 H 0.13676 0.17089 0.98962 0.0
H1255 H 0.14325 0.20506 0.96986 0.0
H1256 H 0.07526 0.24124 0.98746 0.0
H1257 H 0.06845 0.2073 1.0076 0.0
C1258 C 0.08763 0.10148 0.9704 0.0
C1259 C 0.06858 0.09623 0.97914 0.0
C1260 C 0.09155 0.11711 0.97943 0.0
C1261 C 0.07639 0.12767 0.99712 0.0
C1262 C 0.05631 0.12408 1.00398 0.0
C1263 C 0.05249 0.10827 0.99515 0.0
C1264 C 0.08404 0.13786 1.012 0.0
C1265 C 0.08538 0.15863 1.00331 0.0
C1266 C 0.09432 0.12499 0.03217 0.0
C1267 C 0.0957 0.10195 0.03947 0.0
C1268 C 0.07703 0.09651 0.05024 0.0
C1269 C 0.07747 0.07509 0.053 0.0
C1270 C 0.09662 0.05898 0.04546 0.0
C1271 C 0.11551 0.06412 0.0357 0.0
C1272 C 0.11508 0.08554 0.03267 0.0
C1273 C 0.13951 0.18587 0.0462 0.0
C1274 C 0.16117 0.17344 0.03857 0.0
C1275 C 0.1223 0.17822 0.04716 0.0
C1276 C 0.12663 0.15803 0.04061 0.0
C1277 C 0.14844 0.14437 0.03642 0.0
C1278 C 0.16561 0.15203 0.03533 0.0
C1279 C 0.10926 0.15297 0.03301 0.0
C1280 C 0.10657 0.1328 0.04268 0.0
C1281 C 0.09831 0.16619 1.01324 0.0
C1282 C 0.10221 0.18661 1.00071 0.0
C1283 C 0.12324 0.18616 0.98951 0.0
C1284 C 0.12697 0.20548 0.97817 0.0
C1285 C 0.10971 0.22533 0.97755 0.0
C1286 C 0.08865 0.22587 0.98812 0.0
C1287 C 0.08486 0.20658 0.99955 0.0
H1288 H 0.11262 0.24028 0.96877 0.0
H1289 H 0.09687 0.04251 0.04704 0.0
H1290 H 0.67566 0.53675 0.29518 0.0
H1291 H 0.63925 0.56521 0.29224 0.0
H1292 H 0.67019 0.61388 0.26524 0.0
H1293 H 0.70617 0.58583 0.268 0.0
H1294 H 0.61876 0.60211 0.31337 0.0
H1295 H 0.64161 0.65251 0.22208 0.0
H1296 H 0.66522 0.64602 0.1842 0.0
H1297 H 0.66543 0.58025 0.19763 0.0
H1298 H 0.64114 0.58655 0.23517 0.0
H1299 H 0.56591 0.72259 0.25964 0.0
H1300 H 0.59489 0.68727 0.26018 0.0
H1301 H 0.54714 0.65518 0.28814 0.0
H1302 H 0.51777 0.69095 0.28774 0.0
H1303 H 0.60268 0.65383 0.2378 0.0
H1304 H 0.57405 0.60628 0.32494 0.0
H1305 H 0.55042 0.61282 0.36291 0.0
H1306 H 0.56293 0.67231 0.35756 0.0
H1307 H 0.58683 0.66598 0.31975 0.0
C1308 C 0.6746 0.55353 0.28858 0.0
C1309 C 0.69378 0.55903 0.28181 0.0
C1310 C 0.65382 0.56978 0.28696 0.0
C1311 C 0.65193 0.59172 0.27823 0.0
C1312 C 0.67114 0.5971 0.27164 0.0
C1313 C 0.69175 0.581 0.27337 0.0
C1314 C 0.6301 0.60931 0.27612 0.0
C1315 C 0.61503 0.61313 0.29671 0.0
C1316 C 0.62521 0.62388 0.25444 0.0
C1317 C 0.63965 0.61999 0.23164 0.0
C1318 C 0.64651 0.63671 0.2169 0.0
C1319 C 0.65998 0.63308 0.19543 0.0
C1320 C 0.66687 0.61272 0.18855 0.0
C1321 C 0.66014 0.596 0.20302 0.0
C1322 C 0.64647 0.59961 0.22439 0.0
C1323 C 0.56148 0.70805 0.2659 0.0
C1324 C 0.53952 0.7096 0.27374 0.0
C1325 C 0.57812 0.68779 0.26608 0.0
C1326 C 0.57336 0.66843 0.2743 0.0
C1327 C 0.55133 0.66984 0.28189 0.0
C1328 C 0.53453 0.69027 0.28157 0.0
C1329 C 0.59179 0.64708 0.2752 0.0
C1330 C 0.60623 0.64255 0.25434 0.0
C1331 C 0.59609 0.63188 0.29658 0.0
C1332 C 0.58196 0.63579 0.31938 0.0
C1333 C 0.57176 0.62073 0.33191 0.0
C1334 C 0.55834 0.6244 0.35339 0.0
C1335 C 0.5551 0.64302 0.36259 0.0
C1336 C 0.56537 0.65795 0.35037 0.0
C1337 C 0.57883 0.65434 0.3289 0.0
H1338 H 0.54469 0.64583 0.37922 0.0
H1339 H 0.6774 0.60993 0.17199 0.0
H1340 H 0.35258 0.80765 0.53682 0.0
H1341 H 0.38244 0.82207 0.52357 0.0
H1342 H 0.36996 0.83335 0.45064 0.0
H1343 H 0.3391 0.8196 0.46423 0.0
H1344 H 0.41968 0.81442 0.49626 0.0
H1345 H 0.38274 0.8768 0.42192 0.0
H1346 H 0.3481 0.89459 0.404 0.0
H1347 H 0.31138 0.89249 0.47365 0.0
H1348 H 0.34586 0.87481 0.49191 0.0
H1349 H 0.4375 0.92913 0.47115 0.0
H1350 H 0.4324 0.90028 0.45595 0.0
H1351 H 0.41934 0.86884 0.52789 0.0
H1352 H 0.42455 0.89714 0.54316 0.0
H1353 H 0.3937 0.89344 0.46407 0.0
H1354 H 0.43151 0.82697 0.53669 0.0
H1355 H 0.46627 0.80663 0.55386 0.0
H1356 H 0.50255 0.81473 0.48465 0.0
H1357 H 0.46791 0.83577 0.46722 0.0
C1358 C 0.35644 0.81282 0.51791 0.0
C1359 C 0.34346 0.81274 0.50156 0.0
C1360 C 0.3736 0.82099 0.51029 0.0
C1361 C 0.37833 0.82908 0.48611 0.0
C1362 C 0.36634 0.82761 0.46944 0.0
C1363 C 0.34878 0.81977 0.47717 0.0
C1364 C 0.39401 0.84119 0.4796 0.0
C1365 C 0.41423 0.83163 0.48872 0.0
C1366 C 0.38752 0.8634 0.46881 0.0
C1367 C 0.36677 0.87445 0.45819 0.0
C1368 C 0.36725 0.88025 0.43336 0.0
C1369 C 0.34767 0.89028 0.42316 0.0
C1370 C 0.32755 0.89463 0.43767 0.0
C1371 C 0.32697 0.88909 0.46243 0.0
C1372 C 0.34651 0.8791 0.47271 0.0
C1373 C 0.43372 0.91594 0.48373 0.0
C1374 C 0.43138 0.91551 0.50844 0.0
C1375 C 0.43105 0.89938 0.47497 0.0
C1376 C 0.42598 0.88211 0.49073 0.0
C1377 C 0.42415 0.88144 0.51533 0.0
C1378 C 0.42691 0.89785 0.52407 0.0
C1379 C 0.41862 0.867 0.48217 0.0
C1380 C 0.39995 0.87603 0.47017 0.0
C1381 C 0.42658 0.84427 0.49013 0.0
C1382 C 0.44728 0.8333 0.50081 0.0
C1383 C 0.44695 0.8247 0.52524 0.0
C1384 C 0.46658 0.81307 0.53499 0.0
C1385 C 0.48661 0.80953 0.52035 0.0
C1386 C 0.48702 0.81769 0.49595 0.0
C1387 C 0.46743 0.82967 0.48619 0.0
H1388 H 0.5018 0.80042 0.52789 0.0
H1389 H 0.31241 0.90232 0.42974 0.0
H1390 H 0.06775 0.72254 0.76806 0.0
H1391 H 0.09583 0.68703 0.76511 0.0
H1392 H 0.04691 0.65605 0.7901 0.0
H1393 H 0.01843 0.69195 0.79288 0.0
H1394 H 0.08579 0.63487 0.81274 0.0
H1395 H 0.0667 0.65687 0.73367 0.0
H1396 H 0.0578 0.68241 0.69617 0.0
H1397 H 0.12159 0.68861 0.68475 0.0
H1398 H 0.13063 0.66355 0.72252 0.0
H1399 H 0.17488 0.53604 0.78985 0.0
H1400 H 0.13848 0.56475 0.78868 0.0
H1401 H 0.16948 0.6131 0.75942 0.0
H1402 H 0.20541 0.58478 0.76025 0.0
H1403 H 0.13405 0.6213 0.73701 0.0
H1404 H 0.15068 0.60334 0.81913 0.0
H1405 H 0.15899 0.57836 0.85711 0.0
H1406 H 0.0991 0.56525 0.86285 0.0
H1407 H 0.09059 0.58996 0.82473 0.0
C1408 C 0.0629 0.70821 0.77293 0.0
C1409 C 0.04085 0.71008 0.78073 0.0
C1410 C 0.07899 0.68787 0.77112 0.0
C1411 C 0.07355 0.66879 0.77719 0.0
C1412 C 0.05154 0.67052 0.78525 0.0
C1413 C 0.03528 0.69102 0.7868 0.0
C1414 C 0.09117 0.64725 0.77534 0.0
C1415 C 0.0961 0.63171 0.79608 0.0
C1416 C 0.10476 0.6431 0.75367 0.0
C1417 C 0.09943 0.65817 0.73086 0.0
C1418 C 0.07881 0.66373 0.72321 0.0
C1419 C 0.07371 0.67817 0.70192 0.0
C1420 C 0.08913 0.6871 0.68805 0.0
C1421 C 0.10968 0.68162 0.69547 0.0
C1422 C 0.11483 0.66726 0.71679 0.0
C1423 C 0.17384 0.55278 0.78297 0.0
C1424 C 0.19307 0.55812 0.77529 0.0
C1425 C 0.15304 0.56921 0.78236 0.0
C1426 C 0.15111 0.59125 0.774 0.0
C1427 C 0.17036 0.59634 0.76577 0.0
C1428 C 0.19099 0.58006 0.76646 0.0
C1429 C 0.12939 0.60938 0.77464 0.0
C1430 C 0.12365 0.62432 0.75362 0.0
C1431 C 0.11507 0.61299 0.79605 0.0
C1432 C 0.12014 0.59827 0.81898 0.0
C1433 C 0.13937 0.595 0.82842 0.0
C1434 C 0.1441 0.58091 0.84997 0.0
C1435 C 0.12962 0.57017 0.86234 0.0
C1436 C 0.11033 0.57354 0.85322 0.0
C1437 C 0.10554 0.58759 0.83165 0.0
H1438 H 0.13331 0.55927 0.87903 0.0
H1439 H 0.08516 0.69828 0.67159 0.0
H1440 H 0.78382 0.38661 0.50055 0.0
H1441 H 0.81101 0.40476 0.49333 0.0
H1442 H 0.86251 0.34447 0.48162 0.0
H1443 H 0.83533 0.32619 0.48911 0.0
H1444 H 0.86655 0.35837 0.5192 0.0
H1445 H 0.85714 0.38882 0.43951 0.0
H1446 H 0.83949 0.408 0.4033 0.0
H1447 H 0.8127 0.46738 0.43182 0.0
H1448 H 0.82967 0.4485 0.4685 0.0
H1449 H 0.93573 0.41433 0.53329 0.0
H1450 H 0.92022 0.39426 0.51585 0.0
H1451 H 0.8567 0.4441 0.52321 0.0
H1452 H 0.87196 0.46425 0.54094 0.0
H1453 H 0.86741 0.43176 0.47886 0.0
H1454 H 0.86845 0.39707 0.5623 0.0
H1455 H 0.88658 0.37789 0.5983 0.0
H1456 H 0.92932 0.32647 0.56097 0.0
H1457 H 0.9116 0.34551 0.52464 0.0
C1458 C 0.80088 0.37743 0.49568 0.0
C1459 C 0.80757 0.35497 0.49578 0.0
C1460 C 0.81638 0.38786 0.49128 0.0
C1461 C 0.8388 0.37594 0.48701 0.0
C1462 C 0.84528 0.35396 0.48482 0.0
C1463 C 0.82975 0.34355 0.4891 0.0
C1464 C 0.85505 0.38497 0.49062 0.0
C1465 C 0.86721 0.37415 0.50984 0.0
C1466 C 0.8556 0.40572 0.4787 0.0
C1467 C 0.8446 0.4171 0.45697 0.0
C1468 C 0.84722 0.40588 0.43828 0.0
C1469 C 0.83736 0.41674 0.41761 0.0
C1470 C 0.82491 0.43887 0.4153 0.0
C1471 C 0.82228 0.45021 0.43367 0.0
C1472 C 0.83204 0.43943 0.45442 0.0
C1473 C 0.91834 0.42082 0.5318 0.0
C1474 C 0.90511 0.44098 0.53854 0.0
C1475 C 0.90959 0.40945 0.52148 0.0
C1476 C 0.88738 0.41779 0.51812 0.0
C1477 C 0.87399 0.43757 0.52535 0.0
C1478 C 0.88272 0.449 0.53559 0.0
C1479 C 0.87772 0.40556 0.50799 0.0
C1480 C 0.86699 0.41577 0.48764 0.0
C1481 C 0.87831 0.38428 0.51886 0.0
C1482 C 0.8889 0.37283 0.5407 0.0
C1483 C 0.88184 0.38176 0.56173 0.0
C1484 C 0.89201 0.37091 0.58219 0.0
C1485 C 0.90914 0.35102 0.5819 0.0
C1486 C 0.91609 0.34191 0.56115 0.0
C1487 C 0.90598 0.35271 0.54063 0.0
H1488 H 0.91699 0.34263 0.59777 0.0
H1489 H 0.81737 0.44726 0.39924 0.0
H1490 H 0.30468 0.97902 0.24265 0.0
H1491 H 0.34002 0.94881 0.24352 0.0
H1492 H 0.306 0.90314 0.2516 0.0
H1493 H 0.27117 0.93277 0.25183 0.0
H1494 H 0.33443 0.88757 0.28063 0.0
H1495 H 0.33633 0.92097 0.19709 0.0
H1496 H 0.33618 0.95112 0.16349 0.0
H1497 H 0.39344 0.9555 0.18349 0.0
H1498 H 0.39376 0.92552 0.21739 0.0
H1499 H 0.40857 0.79115 0.24712 0.0
H1500 H 0.38005 0.82681 0.24578 0.0
H1501 H 0.42849 0.85616 0.24465 0.0
H1502 H 0.45753 0.82029 0.24455 0.0
H1503 H 0.39693 0.88277 0.21657 0.0
H1504 H 0.3977 0.84058 0.2952 0.0
H1505 H 0.39763 0.80686 0.32287 0.0
H1506 H 0.3319 0.81813 0.31096 0.0
H1507 H 0.33225 0.85091 0.28154 0.0
C1508 C 0.30485 0.9625 0.24476 0.0
C1509 C 0.28509 0.95831 0.2474 0.0
C1510 C 0.32507 0.94522 0.24506 0.0
C1511 C 0.32585 0.92351 0.24758 0.0
C1512 C 0.30604 0.91957 0.24984 0.0
C1513 C 0.28602 0.93665 0.24982 0.0
C1514 C 0.3469 0.90454 0.24818 0.0
C1515 C 0.34801 0.88652 0.2665 0.0
C1516 C 0.36509 0.90326 0.23027 0.0
C1517 C 0.36491 0.92122 0.20992 0.0
C1518 C 0.34878 0.92848 0.19442 0.0
C1519 C 0.34869 0.94551 0.17531 0.0
C1520 C 0.36474 0.95527 0.17141 0.0
C1521 C 0.38098 0.94796 0.18657 0.0
C1522 C 0.38113 0.93095 0.20572 0.0
C1523 C 0.41326 0.80519 0.24638 0.0
C1524 C 0.43529 0.80279 0.24646 0.0
C1525 C 0.39687 0.82563 0.24567 0.0
C1526 C 0.40191 0.84422 0.24584 0.0
C1527 C 0.42408 0.84208 0.24482 0.0
C1528 C 0.44065 0.82155 0.24498 0.0
C1529 C 0.3838 0.86542 0.24826 0.0
C1530 C 0.38342 0.8839 0.2308 0.0
C1531 C 0.36596 0.86698 0.26672 0.0
C1532 C 0.36512 0.84818 0.28587 0.0
C1533 C 0.38326 0.83584 0.29832 0.0
C1534 C 0.38319 0.8168 0.31428 0.0
C1535 C 0.36469 0.81043 0.31886 0.0
C1536 C 0.34623 0.82307 0.3074 0.0
C1537 C 0.34645 0.84178 0.29087 0.0
H1538 H 0.36465 0.79566 0.33118 0.0
H1539 H 0.36464 0.96845 0.1566 0.0
H1540 H 0.27605 0.42903 0.76935 0.0
H1541 H 0.312 0.40087 0.77137 0.0
H1542 H 0.34303 0.44961 0.74677 0.0
H1543 H 0.30663 0.47826 0.74433 0.0
H1544 H 0.3631 0.4131 0.72407 0.0
H1545 H 0.34185 0.42669 0.80299 0.0
H1546 H 0.31831 0.43228 0.84107 0.0
H1547 H 0.31756 0.36693 0.85287 0.0
H1548 H 0.34044 0.36115 0.81448 0.0
H1549 H 0.46239 0.32069 0.74568 0.0
H1550 H 0.43426 0.35705 0.7464 0.0
H1551 H 0.38501 0.32712 0.77613 0.0
H1552 H 0.41281 0.29122 0.77581 0.0
H1553 H 0.37904 0.35936 0.79831 0.0
H1554 H 0.39284 0.34969 0.71548 0.0
H1555 H 0.41611 0.34385 0.67721 0.0
H1556 H 0.43128 0.40156 0.67389 0.0
H1557 H 0.40828 0.40758 0.7123 0.0
C1558 C 0.29047 0.43389 0.7644 0.0
C1559 C 0.28844 0.45595 0.75672 0.0
C1560 C 0.31105 0.41771 0.76574 0.0
C1561 C 0.33028 0.42304 0.75965 0.0
C1562 C 0.32844 0.44507 0.75172 0.0
C1563 C 0.30766 0.46143 0.75039 0.0
C1564 C 0.35203 0.40523 0.76127 0.0
C1565 C 0.36682 0.40163 0.74046 0.0
C1566 C 0.3569 0.39004 0.78259 0.0
C1567 C 0.34279 0.39354 0.80565 0.0
C1568 C 0.33645 0.41358 0.81352 0.0
C1569 C 0.32322 0.41678 0.83521 0.0
C1570 C 0.31645 0.39998 0.84938 0.0
C1571 C 0.32285 0.37994 0.84188 0.0
C1572 C 0.33589 0.37671 0.82011 0.0
C1573 C 0.44556 0.32197 0.75244 0.0
C1574 C 0.43981 0.30308 0.76053 0.0
C1575 C 0.42946 0.34274 0.75277 0.0
C1576 C 0.40735 0.34496 0.76114 0.0
C1577 C 0.40185 0.326 0.76962 0.0
C1578 C 0.41781 0.30541 0.7693 0.0
C1579 C 0.38955 0.36673 0.76092 0.0
C1580 C 0.37551 0.37107 0.78206 0.0
C1581 C 0.38535 0.38252 0.73995 0.0
C1582 C 0.39908 0.37893 0.71687 0.0
C1583 C 0.40127 0.36103 0.70666 0.0
C1584 C 0.41438 0.35771 0.68494 0.0
C1585 C 0.42523 0.37228 0.67317 0.0
C1586 C 0.42292 0.39025 0.68306 0.0
C1587 C 0.40984 0.39364 0.70479 0.0
H1588 H 0.43537 0.36968 0.65635 0.0
H1589 H 0.30622 0.40248 0.86618 0.0
H1590 H 0.18462 0.79221 0.58112 0.0
H1591 H 0.15237 0.79267 0.61056 0.0
H1592 H 0.13721 0.75165 0.57405 0.0
H1593 H 0.16933 0.75092 0.54488 0.0
H1594 H 0.10888 0.80595 0.60817 0.0
H1595 H 0.11434 0.71691 0.61532 0.0
H1596 H 0.14186 0.6814 0.60883 0.0
H1597 H 0.19254 0.7014 0.62232 0.0
H1598 H 0.16527 0.73683 0.62948 0.0
H1599 H 0.03097 0.74374 0.68738 0.0
H1600 H 0.06031 0.74612 0.65509 0.0
H1601 H 0.07105 0.79393 0.6854 0.0
H1602 H 0.04115 0.79229 0.71709 0.0
H1603 H 0.10131 0.73623 0.65349 0.0
H1604 H 0.09319 0.82689 0.64502 0.0
H1605 H 0.06428 0.86231 0.64908 0.0
H1606 H 0.01663 0.83879 0.6344 0.0
H1607 H 0.0453 0.80335 0.62994 0.0
C1608 C 0.17429 0.78349 0.57921 0.0
C1609 C 0.17974 0.77143 0.56066 0.0
C1610 C 0.15586 0.78371 0.5961 0.0
C1611 C 0.14252 0.77184 0.59488 0.0
C1612 C 0.14744 0.76055 0.57579 0.0
C1613 C 0.16583 0.76026 0.55899 0.0
C1614 C 0.12364 0.77106 0.61364 0.0
C1615 C 0.10738 0.79071 0.6183 0.0
C1616 C 0.12117 0.75114 0.62633 0.0
C1617 C 0.13775 0.72967 0.62263 0.0
C1618 C 0.13134 0.7137 0.61703 0.0
C1619 C 0.1469 0.69357 0.61324 0.0
C1620 C 0.16896 0.68918 0.61504 0.0
C1621 C 0.17547 0.70484 0.62085 0.0
C1622 C 0.15995 0.72496 0.62478 0.0
C1623 C 0.03932 0.75505 0.68696 0.0
C1624 C 0.03344 0.76804 0.70473 0.0
C1625 C 0.05625 0.7563 0.66851 0.0
C1626 C 0.06787 0.77044 0.66741 0.0
C1627 C 0.06206 0.78332 0.68527 0.0
C1628 C 0.04493 0.78232 0.70351 0.0
C1629 C 0.08646 0.77119 0.64811 0.0
C1630 C 0.10271 0.75151 0.64335 0.0
C1631 C 0.0887 0.79106 0.63498 0.0
C1632 C 0.07137 0.81239 0.6374 0.0
C1633 C 0.07656 0.82931 0.64258 0.0
C1634 C 0.06021 0.84938 0.64496 0.0
C1635 C 0.03862 0.85277 0.64208 0.0
C1636 C 0.03335 0.83611 0.63672 0.0
C1637 C 0.04963 0.81602 0.63429 0.0
H1638 H 0.02598 0.86831 0.64395 0.0
H1639 H 0.181 0.67367 0.61188 0.0
H1640 H 0.26243 0.95936 0.34222 0.0
H1641 H 0.26236 0.92798 0.37353 0.0
H1642 H 0.20755 0.9236 0.34755 0.0
H1643 H 0.20708 0.95537 0.3168 0.0
H1644 H 0.20076 0.91573 0.39248 0.0
H1645 H 0.26405 0.88776 0.33756 0.0
H1646 H 0.29967 0.88489 0.31307 0.0
H1647 H 0.32951 0.87547 0.37583 0.0
H1648 H 0.294 0.8785 0.40068 0.0
H1649 H 0.21242 0.80468 0.44215 0.0
H1650 H 0.21216 0.83895 0.41562 0.0
H1651 H 0.25594 0.84608 0.45683 0.0
H1652 H 0.25603 0.8117 0.48348 0.0
H1653 H 0.26898 0.85309 0.40672 0.0
H1654 H 0.20435 0.87853 0.4613 0.0
H1655 H 0.16869 0.87865 0.48412 0.0
H1656 H 0.14132 0.89065 0.41905 0.0
H1657 H 0.17692 0.8903 0.39584 0.0
C1658 C 0.25022 0.95184 0.34325 0.0
C1659 C 0.23471 0.9601 0.32686 0.0
C1660 C 0.25034 0.93365 0.36112 0.0
C1661 C 0.23521 0.92287 0.3629 0.0
C1662 C 0.21947 0.93139 0.34679 0.0
C1663 C 0.2192 0.94969 0.3291 0.0
C1664 C 0.23553 0.90296 0.38153 0.0
C1665 C 0.21572 0.902 0.39528 0.0
C1666 C 0.25501 0.88494 0.3859 0.0
C1667 C 0.27629 0.88361 0.37096 0.0
C1668 C 0.27816 0.8853 0.34612 0.0
C1669 C 0.29834 0.88358 0.33217 0.0
C1670 C 0.31683 0.88004 0.34287 0.0
C1671 C 0.31517 0.87823 0.36755 0.0
C1672 C 0.29502 0.87993 0.38158 0.0
C1673 C 0.22163 0.81379 0.44584 0.0
C1674 C 0.23368 0.80585 0.46541 0.0
C1675 C 0.22153 0.83338 0.43059 0.0
C1676 C 0.23388 0.84537 0.4342 0.0
C1677 C 0.24611 0.83734 0.45368 0.0
C1678 C 0.24589 0.81786 0.46919 0.0
C1679 C 0.23424 0.86593 0.41727 0.0
C1680 C 0.25413 0.86696 0.4039 0.0
C1681 C 0.21482 0.88385 0.41293 0.0
C1682 C 0.19336 0.88421 0.42684 0.0
C1683 C 0.19077 0.88103 0.45186 0.0
C1684 C 0.17056 0.88117 0.46486 0.0
C1685 C 0.15276 0.88461 0.45304 0.0
C1686 C 0.15513 0.88797 0.42819 0.0
C1687 C 0.17531 0.88783 0.41509 0.0
H1688 H 0.13713 0.88471 0.46315 0.0
H1689 H 0.33245 0.87864 0.33205 0.0
H1690 H 0.95252 0.69044 0.65947 0.0
H1691 H 0.94924 0.67131 0.63011 0.0
H1692 H 0.01879 0.65391 0.6075 0.0
H1693 H 0.02219 0.67312 0.63701 0.0
H1694 H 0.98986 0.66646 0.5693 0.0
H1695 H 0.00568 0.61833 0.64433 0.0
H1696 H -0.00034 0.60794 0.68796 0.0
H1697 H 0.93421 0.61154 0.68372 0.0
H1698 H 0.93973 0.62232 0.64005 0.0
H1699 H 0.01392 0.5718 0.52124 0.0
H1700 H 0.01152 0.60033 0.5419 0.0
H1701 H 0.94625 0.60281 0.57433 0.0
H1702 H 0.94864 0.5738 0.55363 0.0
H1703 H 0.97042 0.6004 0.60649 0.0
H1704 H 0.95623 0.64337 0.53071 0.0
H1705 H 0.96166 0.65435 0.48718 0.0
H1706 H 0.02217 0.66232 0.49187 0.0
H1707 H 0.01768 0.65042 0.5354 0.0
C1708 C 0.96703 0.68307 0.64783 0.0
C1709 C 0.98765 0.68322 0.65054 0.0
C1710 C 0.96513 0.67208 0.63115 0.0
C1711 C 0.98378 0.66114 0.61683 0.0
C1712 C 0.00422 0.66232 0.61843 0.0
C1713 C 0.00617 0.67315 0.63533 0.0
C1714 C 0.98219 0.64665 0.60212 0.0
C1715 C 0.98585 0.65187 0.57728 0.0
C1716 C 0.97632 0.62804 0.61276 0.0
C1717 C 0.97303 0.62138 0.63897 0.0
C1718 C 0.98993 0.61711 0.65272 0.0
C1719 C 0.98663 0.61111 0.67745 0.0
C1720 C 0.96654 0.60915 0.68861 0.0
C1721 C 0.94974 0.61311 0.67505 0.0
C1722 C 0.95296 0.61916 0.65031 0.0
C1723 C -0.0012 0.57874 0.53225 0.0
C1724 C 0.98133 0.57073 0.53552 0.0
C1725 C -0.00251 0.59508 0.54411 0.0
C1726 C 0.9786 0.60395 0.55937 0.0
C1727 C 0.96095 0.59624 0.56249 0.0
C1728 C 0.9623 0.57972 0.55066 0.0
C1729 C 0.97816 0.62002 0.57338 0.0
C1730 C 0.97422 0.61506 0.59826 0.0
C1731 C 0.98371 0.63889 0.56267 0.0
C1732 C 0.98671 0.64575 0.53639 0.0
C1733 C 0.9709 0.64711 0.52248 0.0
C1734 C 0.97383 0.65347 0.49777 0.0
C1735 C 0.99235 0.65885 0.48676 0.0
C1736 C 0.00795 0.65793 0.50044 0.0
C1737 C 0.00525 0.65132 0.52513 0.0
H1738 H -0.00545 0.66386 0.46764 0.0
H1739 H 0.96401 0.6045 0.70776 0.0
H1740 H 0.29354 0.73036 0.44733 0.0
H1741 H 0.32668 0.72851 0.41939 0.0
H1742 H 0.35285 0.74844 0.46934 0.0
H1743 H 0.31906 0.7516 0.4967 0.0
H1744 H 0.36176 0.76867 0.43002 0.0
H1745 H 0.3729 0.6937 0.45479 0.0
H1746 H 0.36436 0.65966 0.46416 0.0
H1747 H 0.35601 0.66617 0.39109 0.0
H1748 H 0.36421 0.70041 0.38133 0.0
H1749 H 0.46164 0.75425 0.34853 0.0
H1750 H 0.43509 0.75129 0.38391 0.0
H1751 H 0.39874 0.73261 0.34341 0.0
H1752 H 0.42611 0.73397 0.30878 0.0
H1753 H 0.39904 0.70915 0.38318 0.0
H1754 H 0.38706 0.78829 0.36237 0.0
H1755 H 0.39654 0.82157 0.35808 0.0
H1756 H 0.41053 0.80376 0.43046 0.0
H1757 H 0.4013 0.77049 0.43504 0.0
C1758 C 0.30649 0.73403 0.45251 0.0
C1759 C 0.30369 0.74096 0.47434 0.0
C1760 C 0.32558 0.73286 0.43652 0.0
C1761 C 0.3427 0.73792 0.44223 0.0
C1762 C 0.34004 0.74443 0.46432 0.0
C1763 C 0.32072 0.7461 0.48007 0.0
C1764 C 0.36274 0.73756 0.42468 0.0
C1765 C 0.37011 0.75545 0.42005 0.0
C1766 C 0.37393 0.72035 0.41162 0.0
C1767 C 0.36901 0.69973 0.41737 0.0
C1768 C 0.3691 0.68796 0.44075 0.0
C1769 C 0.36434 0.66861 0.44612 0.0
C1770 C 0.3596 0.66078 0.42824 0.0
C1771 C 0.35967 0.67226 0.40493 0.0
C1772 C 0.3644 0.69163 0.39945 0.0
C1773 C 0.44806 0.74931 0.34732 0.0
C1774 C 0.44611 0.74413 0.3259 0.0
C1775 C 0.43265 0.74791 0.36752 0.0
C1776 C 0.41441 0.74216 0.3665 0.0
C1777 C 0.41257 0.73702 0.34497 0.0
C1778 C 0.42829 0.73776 0.32508 0.0
C1779 C 0.3974 0.74079 0.38761 0.0
C1780 C 0.39073 0.72238 0.39315 0.0
C1781 C 0.38738 0.75721 0.40206 0.0
C1782 C 0.39381 0.77677 0.39883 0.0
C1783 C 0.3924 0.79142 0.37719 0.0
C1784 C 0.39768 0.81026 0.37475 0.0
C1785 C 0.40427 0.81467 0.3939 0.0
C1786 C 0.40556 0.80028 0.41557 0.0
C1787 C 0.40031 0.78144 0.41808 0.0
H1788 H 0.40829 0.82928 0.39199 0.0
H1789 H 0.35592 0.6458 0.43244 0.0
H1790 H 0.27339 0.06272 0.21556 0.0
H1791 H 0.27209 0.0948 0.18484 0.0
H1792 H 0.22061 0.08673 0.15636 0.0
H1793 H 0.22165 0.05467 0.18726 0.0
H1794 H 0.25168 0.09827 0.12019 0.0
H1795 H 0.20647 0.12444 0.18887 0.0
H1796 H 0.19684 0.12781 0.23127 0.0
H1797 H 0.24896 0.15284 0.22677 0.0
H1798 H 0.2591 0.14936 0.18434 0.0
H1799 H 0.22558 0.20739 0.04983 0.0
H1800 H 0.22357 0.17357 0.07626 0.0
H1801 H 0.26878 0.17715 0.11832 0.0
H1802 H 0.27059 0.21074 0.09218 0.0
H1803 H 0.23676 0.16804 0.14692 0.0
H1804 H 0.28251 0.14033 0.0774 0.0
H1805 H 0.29098 0.13698 0.03493 0.0
H1806 H 0.23646 0.11505 0.04079 0.0
H1807 H 0.22738 0.1187 0.08319 0.0
C1808 C 0.26196 0.06753 0.20262 0.0
C1809 C 0.24765 0.05594 0.20402 0.0
C1810 C 0.26114 0.08603 0.18507 0.0
C1811 C 0.24612 0.09344 0.16825 0.0
C1812 C 0.23236 0.08145 0.16904 0.0
C1813 C 0.23297 0.06308 0.1868 0.0
C1814 C 0.24432 0.11411 0.1506 0.0
C1815 C 0.24816 0.11359 0.12603 0.0
C1816 C 0.23975 0.1342 0.15802 0.0
C1817 C 0.23369 0.13642 0.18349 0.0
C1818 C 0.216 0.13049 0.19697 0.0
C1819 C 0.21043 0.13244 0.221 0.0
C1820 C 0.22232 0.14045 0.23174 0.0
C1821 C 0.23978 0.1466 0.21843 0.0
C1822 C 0.24544 0.14466 0.19438 0.0
C1823 C 0.23553 0.20058 0.06432 0.0
C1824 C 0.24868 0.21148 0.06852 0.0
C1825 C 0.23425 0.1813 0.0796 0.0
C1826 C 0.24621 0.17245 0.09937 0.0
C1827 C 0.25935 0.18344 0.10336 0.0
C1828 C 0.26049 0.20265 0.08826 0.0
C1829 C 0.24492 0.15216 0.11639 0.0
C1830 C 0.24031 0.15277 0.14096 0.0
C1831 C 0.24866 0.13223 0.10889 0.0
C1832 C 0.25413 0.13001 0.08341 0.0
C1833 C 0.27221 0.13497 0.06959 0.0
C1834 C 0.27714 0.133 0.04553 0.0
C1835 C 0.26425 0.12583 0.03517 0.0
C1836 C 0.24644 0.12058 0.04885 0.0
C1837 C 0.24138 0.12264 0.07288 0.0
H1838 H 0.26808 0.12434 0.01654 0.0
H1839 H 0.21798 0.14195 0.25036 0.0
H1840 H 0.81029 0.76278 0.98678 0.0
H1841 H 0.84263 0.76112 0.95775 0.0
H1842 H 0.8279 0.71812 0.92374 0.0
H1843 H 0.79515 0.72 0.95259 0.0
H1844 H 0.87951 0.73049 0.94508 0.0
H1845 H 0.84111 0.72961 0.8637 0.0
H1846 H 0.80465 0.74271 0.84992 0.0
H1847 H 0.78184 0.79275 0.89298 0.0
H1848 H 0.81822 0.78016 0.90673 0.0
H1849 H 0.93975 0.71927 0.81646 0.0
H1850 H 0.91005 0.71685 0.84832 0.0
H1851 H 0.919 0.76564 0.87848 0.0
H1852 H 0.94866 0.76832 0.84654 0.0
H1853 H 0.87068 0.74989 0.85913 0.0
H1854 H 0.90676 0.75336 0.93996 0.0
H1855 H 0.94282 0.74317 0.95376 0.0
H1856 H 0.96964 0.69226 0.91173 0.0
H1857 H 0.93368 0.70195 0.89794 0.0
C1858 C 0.81391 0.7528 0.97331 0.0
C1859 C 0.79985 0.74165 0.97211 0.0
C1860 C 0.83256 0.75183 0.95667 0.0
C1861 C 0.83766 0.73975 0.93826 0.0
C1862 C 0.82418 0.72787 0.93751 0.0
C1863 C 0.80548 0.72885 0.95418 0.0
C1864 C 0.85661 0.74021 0.91947 0.0
C1865 C 0.87749 0.73492 0.92631 0.0
C1866 C 0.85417 0.74589 0.89488 0.0
C1867 C 0.83232 0.75375 0.88646 0.0
C1868 C 0.82833 0.74345 0.87016 0.0
C1869 C 0.80768 0.75078 0.86236 0.0
C1870 C 0.79092 0.76849 0.87064 0.0
C1871 C 0.7948 0.77897 0.88666 0.0
C1872 C 0.81543 0.77172 0.89448 0.0
C1873 C 0.93562 0.72933 0.83 0.0
C1874 C 0.94674 0.74394 0.82892 0.0
C1875 C 0.9185 0.72801 0.84815 0.0
C1876 C 0.91227 0.741 0.86589 0.0
C1877 C 0.92359 0.75531 0.86514 0.0
C1878 C 0.94057 0.75682 0.84682 0.0
C1879 C 0.89356 0.73998 0.88475 0.0
C1880 C 0.87269 0.7453 0.8779 0.0
C1881 C 0.89594 0.73473 0.90932 0.0
C1882 C 0.91758 0.72854 0.91774 0.0
C1883 C 0.92033 0.73994 0.93374 0.0
C1884 C 0.94076 0.73426 0.94155 0.0
C1885 C 0.95853 0.71713 0.93356 0.0
C1886 C 0.95589 0.70558 0.91782 0.0
C1887 C 0.9355 0.71119 0.90998 0.0
H1888 H 0.97433 0.71277 0.93961 0.0
H1889 H 0.77494 0.77412 0.8646 0.0
H1890 H 0.28051 0.55291 0.70885 0.0
H1891 H 0.28086 0.58387 0.677 0.0
H1892 H 0.22041 0.58547 0.65783 0.0
H1893 H 0.21982 0.55468 0.68975 0.0
H1894 H 0.28202 0.5935 0.62951 0.0
H1895 H 0.18803 0.63849 0.64239 0.0
H1896 H 0.1568 0.64143 0.67424 0.0
H1897 H 0.20063 0.62251 0.72711 0.0
H1898 H 0.23198 0.61995 0.69564 0.0
H1899 H 0.25937 0.69038 0.53927 0.0
H1900 H 0.25953 0.65529 0.56425 0.0
H1901 H 0.23722 0.68621 0.62639 0.0
H1902 H 0.23595 0.72102 0.60157 0.0
H1903 H 0.21685 0.66056 0.63144 0.0
H1904 H 0.29344 0.6521 0.60957 0.0
H1905 H 0.32701 0.6512 0.58172 0.0
H1906 H 0.32189 0.59992 0.55292 0.0
H1907 H 0.28813 0.60071 0.58043 0.0
C1908 C 0.2674 0.55964 0.6977 0.0
C1909 C 0.25008 0.55122 0.70209 0.0
C1910 C 0.26766 0.57739 0.67937 0.0
C1911 C 0.25054 0.58734 0.66501 0.0
C1912 C 0.23369 0.57839 0.66875 0.0
C1913 C 0.23343 0.56064 0.68704 0.0
C1914 C 0.24964 0.60777 0.6472 0.0
C1915 C 0.26769 0.60812 0.62984 0.0
C1916 C 0.23118 0.62712 0.64765 0.0
C1917 C 0.21237 0.62874 0.66666 0.0
C1918 C 0.19097 0.63504 0.66081 0.0
C1919 C 0.17326 0.63664 0.67879 0.0
C1920 C 0.17679 0.63201 0.70266 0.0
C1921 C 0.19796 0.62595 0.70862 0.0
C1922 C 0.21569 0.62443 0.69072 0.0
C1923 C 0.2544 0.68963 0.55824 0.0
C1924 C 0.24769 0.70857 0.56836 0.0
C1925 C 0.25464 0.6695 0.57261 0.0
C1926 C 0.24862 0.66777 0.5975 0.0
C1927 C 0.24187 0.68681 0.60738 0.0
C1928 C 0.24129 0.70683 0.59308 0.0
C1929 C 0.24924 0.64648 0.61359 0.0
C1930 C 0.23108 0.64591 0.63072 0.0
C1931 C 0.26785 0.62718 0.61331 0.0
C1932 C 0.28815 0.62663 0.59686 0.0
C1933 C 0.29941 0.64073 0.59719 0.0
C1934 C 0.31847 0.64023 0.58148 0.0
C1935 C 0.32654 0.62556 0.56551 0.0
C1936 C 0.3156 0.61131 0.56527 0.0
C1937 C 0.29651 0.61177 0.58092 0.0
H1938 H 0.3413 0.62519 0.55337 0.0
H1939 H 0.16315 0.63317 0.71656 0.0
H1940 H 0.37037 0.98171 0.34808 0.0
H1941 H 0.39426 0.98191 0.37502 0.0
H1942 H 0.33773 0.01249 0.42214 0.0
H1943 H 0.31357 0.01211 0.39532 0.0
H1944 H 0.36777 0.03362 0.41143 0.0
H1945 H 0.36918 0.95974 0.43797 0.0
H1946 H 0.37336 0.92342 0.43108 0.0
H1947 H 0.44008 0.91416 0.40027 0.0
H1948 H 0.43619 0.95055 0.40657 0.0
H1949 H 0.44002 0.03174 0.48936 0.0
H1950 H 0.41009 0.02764 0.47375 0.0
H1951 H 0.45756 0.98558 0.42761 0.0
H1952 H 0.48719 0.98854 0.44424 0.0
H1953 H 0.42793 0.96923 0.44394 0.0
H1954 H 0.42638 0.04244 0.40907 0.0
H1955 H 0.42357 0.0801 0.40946 0.0
H1956 H 0.35986 0.0914 0.45 0.0
H1957 H 0.36242 0.05372 0.45007 0.0
C1958 C 0.36294 0.98798 0.36445 0.0
C1959 C 0.34001 0.99684 0.36953 0.0
C1960 C 0.37666 0.98815 0.37982 0.0
C1961 C 0.36778 0.99706 0.4007 0.0
C1962 C 0.34492 1.00553 0.40612 0.0
C1963 C 0.33115 1.00535 0.39074 0.0
C1964 C 0.38249 0.99872 0.41595 0.0
C1965 C 0.38066 0.01951 0.419 0.0
C1966 C 0.39963 0.98035 0.42526 0.0
C1967 C 0.40234 0.95796 0.42261 0.0
C1968 C 0.38473 0.94998 0.42967 0.0
C1969 C 0.38704 0.92938 0.42582 0.0
C1970 C 0.40697 0.91647 0.4152 0.0
C1971 C 0.42465 0.92413 0.40848 0.0
C1972 C 0.42242 0.94474 0.41223 0.0
C1973 C 0.44394 0.02143 0.4761 0.0
C1974 C 0.46584 0.01025 0.46824 0.0
C1975 C 0.42687 0.01931 0.46694 0.0
C1976 C 0.43148 1.0064 0.44931 0.0
C1977 C 0.45346 0.99549 0.4413 0.0
C1978 C 0.47043 0.99739 0.45065 0.0
C1979 C 0.41369 1.00426 0.4388 0.0
C1980 C 0.41486 0.98335 0.43674 0.0
C1981 C 0.39625 0.02258 0.42984 0.0
C1982 C 0.3947 0.04521 0.42982 0.0
C1983 C 0.41184 0.05292 0.41821 0.0
C1984 C 0.41028 0.07427 0.41832 0.0
C1985 C 0.39158 0.08811 0.42982 0.0
C1986 C 0.37436 0.08065 0.44116 0.0
C1987 C 0.37585 0.05931 0.44111 0.0
H1988 H 0.3904 0.10463 0.42988 0.0
H1989 H 0.40875 0.9005 0.41229 0.0
H1990 H 0.83614 0.82214 1.01423 0.0
H1991 H 0.86161 0.84202 1.00551 0.0
H1992 H 0.82337 0.88815 0.95168 0.0
H1993 H 0.79708 0.86844 0.96114 0.0
H1994 H 0.88808 0.8543 0.97204 0.0
H1995 H 0.82368 0.9383 0.95368 0.0
H1996 H 0.7835 0.95648 0.95894 0.0
H1997 H 0.77786 0.90935 0.02156 0.0
H1998 H 0.81801 0.89108 0.01678 0.0
H1999 H 0.93778 0.93326 0.978 0.0
H2000 H 0.92024 0.91248 0.96419 0.0
H2001 H 0.87372 0.91726 0.02782 0.0
H2002 H 0.8904 0.93865 0.04124 0.0
H2003 H 0.85331 0.92939 0.98951 0.0
H2004 H 0.9138 0.8679 0.02069 0.0
H2005 H 0.95188 0.84363 0.02495 0.0
H2006 H 0.96353 0.84059 0.95037 0.0
H2007 H 0.92548 0.86487 0.94566 0.0
C2008 C 0.8334 0.83622 1.00013 0.0
C2009 C 0.81458 0.84389 0.98848 0.0
C2010 C 0.84805 0.84756 0.99507 0.0
C2011 C 0.84431 0.86675 0.97813 0.0
C2012 C 0.82638 0.87358 0.9651 0.0
C2013 C 0.8114 0.86237 0.97051 0.0
C2014 C 0.85763 0.88065 0.97691 0.0
C2015 C 0.88054 0.87091 0.97534 0.0
C2016 C 0.8478 0.90223 0.98146 0.0
C2017 C 0.82373 0.9132 0.98467 0.0
C2018 C 0.81383 0.93187 0.96857 0.0
C2019 C 0.79109 0.94218 0.97147 0.0
C2020 C 0.77813 0.93402 0.99052 0.0
C2021 C 0.7879 0.91561 1.00678 0.0
C2022 C 0.81064 0.90528 1.00398 0.0
C2023 C 0.92378 0.92992 0.98904 0.0
C2024 C 0.91546 0.93774 1.01073 0.0
C2025 C 0.91394 0.91785 0.9812 0.0
C2026 C 0.89563 0.91344 0.99492 0.0
C2027 C 0.88779 0.92059 0.01689 0.0
C2028 C 0.89754 0.93263 0.02469 0.0
C2029 C 0.8836 0.90249 0.98618 0.0
C2030 C 0.86099 0.91305 0.98538 0.0
C2031 C 0.89361 0.88133 0.98052 0.0
C2032 C 0.91697 0.8685 0.98276 0.0
C2033 C 0.9246 0.86234 1.00513 0.0
C2034 C 0.9461 0.84843 1.00765 0.0
C2035 C 0.96016 0.84071 0.9879 0.0
C2036 C 0.95269 0.84678 0.96559 0.0
C2037 C 0.93116 0.86058 0.96299 0.0
H2038 H 0.97682 0.82999 0.98988 0.0
H2039 H 0.76052 0.94201 0.99271 0.0
H2040 H 0.68125 0.15576 0.56814 0.0
H2041 H 0.65812 0.13308 0.58279 0.0
H2042 H 0.62039 0.16538 0.52384 0.0
H2043 H 0.6426 0.1888 0.50987 0.0
H2044 H 0.59507 0.15229 0.56196 0.0
H2045 H 0.66855 0.12048 0.51897 0.0
H2046 H 0.70894 0.10886 0.51487 0.0
H2047 H 0.70919 0.06756 0.5833 0.0
H2048 H 0.66875 0.07914 0.58786 0.0
H2049 H 0.57561 0.08487 0.50103 0.0
H2050 H 0.58707 0.10918 0.51695 0.0
H2051 H 0.61397 0.05682 0.57328 0.0
H2052 H 0.60268 0.03226 0.5571 0.0
H2053 H 0.64214 0.07672 0.55282 0.0
H2054 H 0.56811 0.09924 0.58478 0.0
H2055 H 0.52819 0.1104 0.58581 0.0
H2056 H 0.5276 0.16939 0.53738 0.0
H2057 H 0.56775 0.15824 0.53532 0.0
C2058 C 0.66757 0.15853 0.55875 0.0
C2059 C 0.66414 0.17362 0.53741 0.0
C2060 C 0.6544 0.14551 0.56713 0.0
C2061 C 0.6379 0.14718 0.55407 0.0
C2062 C 0.63314 0.16368 0.53412 0.0
C2063 C 0.64609 0.17682 0.52591 0.0
C2064 C 0.62813 0.12983 0.55826 0.0
C2065 C 0.60524 0.13569 0.56015 0.0
C2066 C 0.64145 0.10801 0.55676 0.0
C2067 C 0.6657 0.10084 0.55387 0.0
C2068 C 0.67725 0.10898 0.53315 0.0
C2069 C 0.70012 0.10241 0.53075 0.0
C2070 C 0.71162 0.08753 0.54885 0.0
C2071 C 0.70026 0.07912 0.56933 0.0
C2072 C 0.67737 0.08568 0.57184 0.0
C2073 C 0.58397 0.07857 0.5168 0.0
C2074 C 0.58835 0.05675 0.52785 0.0
C2075 C 0.59021 0.09252 0.52611 0.0
C2076 C 0.60087 0.08493 0.54666 0.0
C2077 C 0.6054 0.06307 0.55765 0.0
C2078 C 0.59902 0.0491 0.54841 0.0
C2079 C 0.60907 0.09945 0.55505 0.0
C2080 C 0.63172 0.09302 0.55559 0.0
C2081 C 0.59544 0.12074 0.55858 0.0
C2082 C 0.57111 0.12782 0.55993 0.0
C2083 C 0.55956 0.11454 0.57425 0.0
C2084 C 0.53683 0.12088 0.57502 0.0
C2085 C 0.5253 0.14065 0.56179 0.0
C2086 C 0.53654 0.1541 0.54769 0.0
C2087 C 0.55932 0.14775 0.5467 0.0
H2088 H 0.50769 0.14552 0.56242 0.0
H2089 H 0.72933 0.08247 0.54696 0.0
H2090 H 0.80446 0.47948 0.2437 0.0
H2091 H 0.84042 0.45023 0.24602 0.0
H2092 H 0.80787 0.40294 0.274 0.0
H2093 H 0.77237 0.43181 0.27196 0.0
H2094 H 0.84139 0.39452 0.29816 0.0
H2095 H 0.82981 0.41125 0.2149 0.0
H2096 H 0.82364 0.4353 0.17602 0.0
H2097 H 0.88339 0.44774 0.1736 0.0
H2098 H 0.88976 0.42394 0.21263 0.0
H2099 H 0.91071 0.2922 0.27454 0.0
H2100 H 0.88249 0.32769 0.276 0.0
H2101 H 0.93076 0.35894 0.24684 0.0
H2102 H 0.95934 0.32296 0.24487 0.0
H2103 H 0.89402 0.37954 0.22546 0.0
H2104 H 0.90875 0.35685 0.30578 0.0
H2105 H 0.91487 0.33212 0.34424 0.0
H2106 H 0.84931 0.33078 0.35293 0.0
H2107 H 0.84291 0.35515 0.31427 0.0
C2108 C 0.80507 0.46285 0.25048 0.0
C2109 C 0.78556 0.45798 0.25759 0.0
C2110 C 0.82561 0.44611 0.25171 0.0
C2111 C 0.82697 0.42423 0.26009 0.0
C2112 C 0.80742 0.41958 0.26754 0.0
C2113 C 0.78705 0.43616 0.26621 0.0
C2114 C 0.84846 0.40585 0.26076 0.0
C2115 C 0.85286 0.39123 0.28224 0.0
C2116 C 0.86392 0.40181 0.24023 0.0
C2117 C 0.86011 0.41606 0.2168 0.0
C2118 C 0.84153 0.41926 0.20616 0.0
C2119 C 0.83802 0.43281 0.18409 0.0
C2120 C 0.85307 0.4431 0.17239 0.0
C2121 C 0.87171 0.4398 0.18271 0.0
C2122 C 0.87529 0.42628 0.2048 0.0
C2123 C 0.91544 0.30658 0.2685 0.0
C2124 C 0.93733 0.30471 0.25965 0.0
C2125 C 0.89923 0.32695 0.26951 0.0
C2126 C 0.90441 0.34615 0.26192 0.0
C2127 C 0.92631 0.34441 0.25297 0.0
C2128 C 0.94266 0.32385 0.25194 0.0
C2129 C 0.88657 0.36778 0.2627 0.0
C2130 C 0.88283 0.38302 0.24153 0.0
C2131 C 0.87169 0.37238 0.28357 0.0
C2132 C 0.8754 0.35778 0.30698 0.0
C2133 C 0.89568 0.35117 0.31578 0.0
C2134 C 0.8992 0.33721 0.33763 0.0
C2135 C 0.8825 0.32986 0.351 0.0
C2136 C 0.86224 0.33648 0.34254 0.0
C2137 C 0.85865 0.35038 0.32066 0.0
H2138 H 0.88524 0.31908 0.36793 0.0
H2139 H 0.85033 0.45359 0.1553 0.0
H2140 H 0.05501 0.62292 0.47854 0.0
H2141 H 0.06614 0.64527 0.49775 0.0
H2142 H 0.07099 0.59774 0.56235 0.0
H2143 H 0.0581 0.57601 0.54366 0.0
H2144 H 0.06052 0.64025 0.57133 0.0
H2145 H 0.11187 0.59201 0.52052 0.0
H2146 H 0.12706 0.57633 0.484 0.0
H2147 H 0.13092 0.63794 0.44568 0.0
H2148 H 0.11549 0.65413 0.48201 0.0
H2149 H 0.16983 0.6615 0.56375 0.0
H2150 H 0.14294 0.64266 0.57411 0.0
H2151 H 0.09582 0.69873 0.53799 0.0
H2152 H 0.12235 0.71775 0.52805 0.0
H2153 H 0.12895 0.64712 0.52246 0.0
H2154 H 0.06836 0.6963 0.57203 0.0
H2155 H 0.05578 0.71135 0.6093 0.0
H2156 H 0.07238 0.64665 0.65 0.0
H2157 H 0.08535 0.63128 0.61291 0.0
C2158 C 0.05772 0.61754 0.49707 0.0
C2159 C 0.05653 0.59732 0.50936 0.0
C2160 C 0.0641 0.63032 0.50804 0.0
C2161 C 0.07 0.62281 0.53121 0.0
C2162 C 0.06677 0.60368 0.54436 0.0
C2163 C 0.05993 0.59106 0.5335 0.0
C2164 C 0.0831 0.63281 0.53965 0.0
C2165 C 0.07551 0.64171 0.56071 0.0
C2166 C 0.10298 0.6342 0.52606 0.0
C2167 C 0.11252 0.62431 0.50417 0.0
C2168 C 0.11599 0.60226 0.50441 0.0
C2169 C 0.1246 0.59327 0.48367 0.0
C2170 C 0.12999 0.60612 0.46253 0.0
C2171 C 0.12677 0.62799 0.46209 0.0
C2172 C 0.11811 0.63707 0.48278 0.0
C2173 C 0.15335 0.67021 0.55916 0.0
C2174 C 0.14824 0.69085 0.54464 0.0
C2175 C 0.13795 0.65949 0.56525 0.0
C2176 C 0.11733 0.66941 0.55705 0.0
C2177 C 0.11142 0.69101 0.54505 0.0
C2178 C 0.12673 0.70172 0.539 0.0
C2179 C 0.10576 0.65564 0.55322 0.0
C2180 C 0.11395 0.64563 0.53309 0.0
C2181 C 0.0866 0.65337 0.56754 0.0
C2182 C 0.07822 0.66265 0.58972 0.0
C2183 C 0.0696 0.6853 0.58892 0.0
C2184 C 0.06233 0.69389 0.61001 0.0
C2185 C 0.06347 0.67997 0.63202 0.0
C2186 C 0.07166 0.65742 0.63295 0.0
C2187 C 0.07894 0.64876 0.61189 0.0
H2188 H 0.05781 0.68664 0.64832 0.0
H2189 H 0.13665 0.59914 0.44648 0.0
H2190 H 0.67843 0.03273 0.78927 0.0
H2191 H 0.64236 0.06197 0.7874 0.0
H2192 H 0.67435 0.11009 0.7707 0.0
H2193 H 0.70995 0.0813 0.77279 0.0
H2194 H 0.62171 0.09698 0.81349 0.0
H2195 H 0.64797 0.15191 0.72845 0.0
H2196 H 0.67203 0.1481 0.69039 0.0
H2197 H 0.66977 0.08409 0.6951 0.0
H2198 H 0.64527 0.08766 0.73291 0.0
H2199 H 0.5713 0.22011 0.76566 0.0
H2200 H 0.59987 0.18469 0.76539 0.0
H2201 H 0.55126 0.15323 0.78996 0.0
H2202 H 0.52229 0.18914 0.79069 0.0
H2203 H 0.6081 0.15357 0.74106 0.0
H2204 H 0.57693 0.10189 0.82308 0.0
H2205 H 0.55267 0.10629 0.86104 0.0
H2206 H 0.56593 0.16406 0.8625 0.0
H2207 H 0.59045 0.15984 0.82473 0.0
C2208 C 0.67766 0.04957 0.78528 0.0
C2209 C 0.69704 0.0547 0.78125 0.0
C2210 C 0.65708 0.06626 0.78424 0.0
C2211 C 0.65559 0.0883 0.7787 0.0
C2212 C 0.67498 0.09329 0.77474 0.0
C2213 C 0.69538 0.07675 0.77604 0.0
C2214 C 0.63402 0.1064 0.77708 0.0
C2215 C 0.6185 0.10911 0.79748 0.0
C2216 C 0.62987 0.12246 0.75632 0.0
C2217 C 0.64486 0.12002 0.73367 0.0
C2218 C 0.65252 0.13704 0.72135 0.0
C2219 C 0.66624 0.13493 0.6998 0.0
C2220 C 0.67239 0.11588 0.69034 0.0
C2221 C 0.66498 0.09883 0.70247 0.0
C2222 C 0.65119 0.10089 0.72399 0.0
C2223 C 0.56658 0.2057 0.77107 0.0
C2224 C 0.54448 0.20749 0.77832 0.0
C2225 C 0.58301 0.18537 0.77078 0.0
C2226 C 0.57792 0.16611 0.77776 0.0
C2227 C 0.55574 0.16777 0.78474 0.0
C2228 C 0.53916 0.1883 0.78504 0.0
C2229 C 0.59615 0.14461 0.77772 0.0
C2230 C 0.61109 0.14126 0.75696 0.0
C2231 C 0.5998 0.12807 0.79815 0.0
C2232 C 0.58526 0.13069 0.82094 0.0
C2233 C 0.57467 0.1155 0.83154 0.0
C2234 C 0.56089 0.11797 0.85302 0.0
C2235 C 0.55768 0.13549 0.86412 0.0
C2236 C 0.56834 0.15054 0.85383 0.0
C2237 C 0.58216 0.14814 0.83237 0.0
H2238 H 0.54699 0.13738 0.88074 0.0
H2239 H 0.68279 0.1144 0.67353 0.0
H2240 H 0.77183 0.56329 0.21804 0.0
H2241 H 0.77 0.59488 0.18652 0.0
H2242 H 0.71824 0.58542 0.16005 0.0
H2243 H 0.71986 0.55379 0.19169 0.0
H2244 H 0.74744 0.59712 0.12297 0.0
H2245 H 0.70634 0.62288 0.19279 0.0
H2246 H 0.69821 0.6271 0.23493 0.0
H2247 H 0.74907 0.65479 0.22557 0.0
H2248 H 0.75762 0.65053 0.18335 0.0
H2249 H 0.72178 0.7058 0.05028 0.0
H2250 H 0.71941 0.67243 0.07758 0.0
H2251 H 0.76658 0.67542 0.11745 0.0
H2252 H 0.76864 0.70853 0.09058 0.0
H2253 H 0.73493 0.66733 0.14732 0.0
H2254 H 0.77723 0.63905 0.07687 0.0
H2255 H 0.78415 0.63448 0.03485 0.0
H2256 H 0.7302 0.61083 0.04565 0.0
H2257 H 0.72242 0.61604 0.08752 0.0
C2258 C 0.7602 0.56769 0.20541 0.0
C2259 C 0.74603 0.55578 0.20759 0.0
C2260 C 0.75909 0.58592 0.18736 0.0
C2261 C 0.74382 0.59285 0.17086 0.0
C2262 C 0.73017 0.58055 0.17245 0.0
C2263 C 0.73113 0.56239 0.19065 0.0
C2264 C 0.74162 0.61337 0.15274 0.0
C2265 C 0.74442 0.61254 0.12831 0.0
C2266 C 0.73772 0.63362 0.1595 0.0
C2267 C 0.73268 0.63626 0.1849 0.0
C2268 C 0.71584 0.62979 0.19973 0.0
C2269 C 0.71116 0.63218 0.22364 0.0
C2270 C 0.72315 0.64117 0.23295 0.0
C2271 C 0.7398 0.64782 0.21834 0.0
C2272 C 0.74455 0.64544 0.19439 0.0
C2273 C 0.732 0.69898 0.06452 0.0
C2274 C 0.74574 0.70962 0.06791 0.0
C2275 C 0.73055 0.67993 0.0803 0.0
C2276 C 0.74296 0.67104 0.09974 0.0
C2277 C 0.75674 0.68174 0.10283 0.0
C2278 C 0.75802 0.7007 0.08728 0.0
C2279 C 0.74161 0.65101 0.11737 0.0
C2280 C 0.73794 0.65195 0.14186 0.0
C2281 C 0.7446 0.63095 0.11059 0.0
C2282 C 0.74904 0.62824 0.08528 0.0
C2283 C 0.76662 0.63319 0.07021 0.0
C2284 C 0.7707 0.63048 0.04641 0.0
C2285 C 0.75756 0.62247 0.03756 0.0
C2286 C 0.74032 0.61712 0.0525 0.0
C2287 C 0.73599 0.62006 0.07624 0.0
H2288 H 0.76077 0.62034 0.01913 0.0
H2289 H 0.71951 0.64301 0.25148 0.0
H2290 H 0.95575 0.54486 0.43266 0.0
H2291 H 0.92673 0.53779 0.41911 0.0
H2292 H 0.91748 0.49772 0.48712 0.0
H2293 H 0.94608 0.50555 0.50083 0.0
H2294 H 0.92783 0.50219 0.41138 0.0
H2295 H 0.86345 0.49313 0.49421 0.0
H2296 H 0.84741 0.50801 0.53125 0.0
H2297 H 0.86577 0.56461 0.50132 0.0
H2298 H 0.88122 0.55048 0.46379 0.0
H2299 H 0.85956 0.4597 0.37504 0.0
H2300 H 0.88255 0.46254 0.40175 0.0
H2301 H 0.83499 0.52485 0.4137 0.0
H2302 H 0.81173 0.52161 0.38803 0.0
H2303 H 0.85332 0.50647 0.45167 0.0
H2304 H 0.87883 0.51828 0.36826 0.0
H2305 H 0.89179 0.50864 0.32821 0.0
H2306 H 0.94767 0.45672 0.35472 0.0
H2307 H 0.93493 0.46597 0.39495 0.0
C2308 C 0.94705 0.53505 0.44493 0.0
C2309 C 0.95281 0.52606 0.46797 0.0
C2310 C 0.9306 0.53083 0.43713 0.0
C2311 C 0.91989 0.51708 0.45201 0.0
C2312 C 0.92521 0.50859 0.47537 0.0
C2313 C 0.94143 0.51322 0.48333 0.0
C2314 C 0.90448 0.51057 0.44221 0.0
C2315 C 0.91152 0.50319 0.42027 0.0
C2316 C 0.88317 0.51174 0.45375 0.0
C2317 C 0.87397 0.52047 0.47629 0.0
C2318 C 0.86399 0.50881 0.49545 0.0
C2319 C 0.85491 0.51716 0.51653 0.0
C2320 C 0.85572 0.53716 0.51871 0.0
C2321 C 0.86535 0.549 0.49969 0.0
C2322 C 0.87426 0.54083 0.47849 0.0
C2323 C 0.85384 0.47371 0.38388 0.0
C2324 C 0.83399 0.49054 0.37929 0.0
C2325 C 0.86697 0.47537 0.39907 0.0
C2326 C 0.8608 0.49422 0.4092 0.0
C2327 C 0.84019 0.51019 0.40605 0.0
C2328 C 0.82688 0.50832 0.39134 0.0
C2329 C 0.87655 0.49868 0.42073 0.0
C2330 C 0.86969 0.50543 0.44299 0.0
C2331 C 0.89774 0.4978 0.4091 0.0
C2332 C 0.90562 0.49246 0.38478 0.0
C2333 C 0.89376 0.50467 0.3656 0.0
C2334 C 0.9011 0.49932 0.34284 0.0
C2335 C 0.92046 0.48198 0.33894 0.0
C2336 C 0.9326 0.47006 0.35778 0.0
C2337 C 0.9253 0.47532 0.38058 0.0
H2338 H 0.92612 0.47786 0.32131 0.0
H2339 H 0.8488 0.54353 0.53509 0.0
H2340 H 0.17409 0.52724 0.62564 0.0
H2341 H 0.15624 0.52593 0.59301 0.0
H2342 H 0.11117 0.50022 0.64398 0.0
H2343 H 0.12926 0.50073 0.67638 0.0
H2344 H 0.12677 0.47802 0.60741 0.0
H2345 H 0.09099 0.55581 0.61637 0.0
H2346 H 0.0943 0.59071 0.61895 0.0
H2347 H 0.1358 0.58974 0.55214 0.0
H2348 H 0.1324 0.55494 0.54903 0.0
H2349 H 0.01906 0.53203 0.56285 0.0
H2350 H 0.05071 0.53603 0.5743 0.0
H2351 H 0.09396 0.48808 0.53213 0.0
H2352 H 0.0619 0.48426 0.52025 0.0
H2353 H 0.08798 0.54553 0.5549 0.0
H2354 H 0.13408 0.45467 0.56724 0.0
H2355 H 0.12803 0.41993 0.56993 0.0
H2356 H 0.06152 0.44752 0.60101 0.0
H2357 H 0.0673 0.4823 0.59873 0.0
C2358 C 0.16042 0.52125 0.62985 0.0
C2359 C 0.15299 0.51427 0.65366 0.0
C2360 C 0.15017 0.52062 0.6112 0.0
C2361 C 0.13233 0.51302 0.61607 0.0
C2362 C 0.12495 0.50607 0.63978 0.0
C2363 C 0.13514 0.50667 0.65834 0.0
C2364 C 0.12087 0.51245 0.59679 0.0
C2365 C 0.1186 0.49272 0.5956 0.0
C2366 C 0.11028 0.53155 0.58134 0.0
C2367 C 0.11147 0.55288 0.5825 0.0
C2368 C 0.10069 0.56316 0.60218 0.0
C2369 C 0.10256 0.58291 0.6037 0.0
C2370 C 0.11524 0.59245 0.58569 0.0
C2371 C 0.12593 0.58234 0.56603 0.0
C2372 C 0.12393 0.56269 0.5643 0.0
C2373 C 0.03532 0.52263 0.55562 0.0
C2374 C 0.03813 0.50757 0.541 0.0
C2375 C 0.05341 0.52509 0.562 0.0
C2376 C 0.07472 0.51218 0.55432 0.0
C2377 C 0.07763 0.49811 0.53839 0.0
C2378 C 0.05939 0.4959 0.53165 0.0
C2379 C 0.09311 0.51128 0.56616 0.0
C2380 C 0.09675 0.5307 0.56599 0.0
C2381 C 0.10464 0.49195 0.58077 0.0
C2382 C 0.10105 0.47109 0.58252 0.0
C2383 C 0.1182 0.45327 0.57467 0.0
C2384 C 0.11482 0.43359 0.57613 0.0
C2385 C 0.09438 0.43155 0.58555 0.0
C2386 C 0.07732 0.44914 0.59364 0.0
C2387 C 0.08063 0.46884 0.59226 0.0
H2388 H 0.09179 0.41631 0.58663 0.0
H2389 H 0.11686 0.60764 0.58697 0.0
H2390 H 0.53686 0.79217 0.21048 0.0
H2391 H 0.56613 0.79423 0.17822 0.0
H2392 H 0.55445 0.74704 0.14775 0.0
H2393 H 0.5257 0.74421 0.18071 0.0
H2394 H 0.59568 0.73704 0.14573 0.0
H2395 H 0.53946 0.80395 0.12298 0.0
H2396 H 0.51059 0.83923 0.12762 0.0
H2397 H 0.55797 0.86318 0.14215 0.0
H2398 H 0.58709 0.82793 0.13791 0.0
H2399 H 0.66169 0.75543 0.03611 0.0
H2400 H 0.62934 0.75634 0.06494 0.0
H2401 H 0.64868 0.79046 0.10647 0.0
H2402 H 0.68165 0.78895 0.07797 0.0
H2403 H 0.60311 0.80709 0.10133 0.0
H2404 H 0.65979 0.73807 0.12135 0.0
H2405 H 0.68714 0.7028 0.11377 0.0
H2406 H 0.63626 0.68242 0.10146 0.0
H2407 H 0.60875 0.71786 0.10795 0.0
C2408 C 0.54029 0.78243 0.19676 0.0
C2409 C 0.52878 0.76815 0.19813 0.0
C2410 C 0.55705 0.78368 0.17819 0.0
C2411 C 0.56241 0.77107 0.16016 0.0
C2412 C 0.5507 0.75699 0.16134 0.0
C2413 C 0.53415 0.75546 0.18016 0.0
C2414 C 0.58075 0.77199 0.14069 0.0
C2415 C 0.59704 0.75238 0.13577 0.0
C2416 C 0.58288 0.79197 0.12779 0.0
C2417 C 0.56542 0.81321 0.13034 0.0
C2418 C 0.5437 0.81668 0.12734 0.0
C2419 C 0.52729 0.83668 0.12987 0.0
C2420 C 0.53243 0.85341 0.13524 0.0
C2421 C 0.554 0.85019 0.13803 0.0
C2422 C 0.57047 0.83021 0.13554 0.0
C2423 C 0.65925 0.76301 0.05138 0.0
C2424 C 0.67468 0.77163 0.05487 0.0
C2425 C 0.6406 0.76363 0.06783 0.0
C2426 C 0.63676 0.77313 0.08809 0.0
C2427 C 0.65139 0.78291 0.09102 0.0
C2428 C 0.67023 0.78208 0.07464 0.0
C2429 C 0.61788 0.77222 0.10656 0.0
C2430 C 0.60158 0.7918 0.11127 0.0
C2431 C 0.61551 0.75219 0.11886 0.0
C2432 C 0.6322 0.73083 0.11481 0.0
C2433 C 0.65446 0.72623 0.11663 0.0
C2434 C 0.67002 0.70618 0.1125 0.0
C2435 C 0.6635 0.69043 0.10693 0.0
C2436 C 0.64138 0.69468 0.10552 0.0
C2437 C 0.62579 0.71478 0.10937 0.0
H2438 H 0.67556 0.67489 0.10385 0.0
H2439 H 0.51971 0.86889 0.13719 0.0
H2440 H 0.67322 0.47357 0.15501 0.0
H2441 H 0.65083 0.47455 0.12562 0.0
H2442 H 0.61707 0.54322 0.12544 0.0
H2443 H 0.63887 0.54224 0.15539 0.0
H2444 H 0.58958 0.51988 0.13569 0.0
H2445 H 0.65256 0.52265 0.08015 0.0
H2446 H 0.69092 0.51063 0.06185 0.0
H2447 H 0.68389 0.45302 0.04919 0.0
H2448 H 0.6455 0.46449 0.06776 0.0
H2449 H 0.51559 0.53764 0.05892 0.0
H2450 H 0.54555 0.53938 0.07547 0.0
H2451 H 0.58497 0.47488 0.06134 0.0
H2452 H 0.55509 0.47417 0.04227 0.0
H2453 H 0.61107 0.49589 0.05715 0.0
H2454 H 0.55378 0.4867 0.12001 0.0
H2455 H 0.51567 0.49565 0.13981 0.0
H2456 H 0.51387 0.56004 0.14135 0.0
H2457 H 0.55196 0.55138 0.12136 0.0
C2458 C 0.66121 0.48894 0.14848 0.0
C2459 C 0.65763 0.50778 0.15774 0.0
C2460 C 0.64857 0.4895 0.13153 0.0
C2461 C 0.63229 0.50895 0.12338 0.0
C2462 C 0.62958 0.52805 0.13153 0.0
C2463 C 0.64217 0.52749 0.14851 0.0
C2464 C 0.61639 0.50888 0.10866 0.0
C2465 C 0.59429 0.51493 0.11834 0.0
C2466 C 0.62273 0.50145 0.08654 0.0
C2467 C 0.64602 0.49442 0.07556 0.0
C2468 C 0.65919 0.50726 0.07379 0.0
C2469 C 0.68096 0.50059 0.06325 0.0
C2470 C 0.68986 0.48105 0.0544 0.0
C2471 C 0.67697 0.46817 0.05604 0.0
C2472 C 0.65516 0.47479 0.06652 0.0
C2473 C 0.5308 0.52405 0.05876 0.0
C2474 C 0.53305 0.50578 0.04936 0.0
C2475 C 0.54796 0.52492 0.06852 0.0
C2476 C 0.56742 0.50698 0.07049 0.0
C2477 C 0.57006 0.48889 0.06029 0.0
C2478 C 0.55303 0.48841 0.0495 0.0
C2479 C 0.58427 0.50691 0.08424 0.0
C2480 C 0.60646 0.50079 0.0745 0.0
C2481 C 0.5783 0.51355 0.1068 0.0
C2482 C 0.55563 0.51845 0.11928 0.0
C2483 C 0.54524 0.50274 0.12462 0.0
C2484 C 0.52366 0.50776 0.13583 0.0
C2485 C 0.51237 0.5284 0.14187 0.0
C2486 C 0.52266 0.54404 0.13675 0.0
C2487 C 0.54423 0.53908 0.12558 0.0
H2488 H 0.49565 0.53226 0.15049 0.0
H2489 H 0.70672 0.47591 0.04624 0.0
H2490 H 0.3803 0.48614 0.98926 0.0
H2491 H 0.36077 0.46359 0.98232 0.0
H2492 H 0.40062 0.40808 0.02664 0.0
H2493 H 0.42004 0.43062 0.03424 0.0
H2494 H 0.39241 0.40167 0.97953 0.0
H2495 H 0.35492 0.43014 0.05213 0.0
H2496 H 0.33766 0.4599 0.07547 0.0
H2497 H 0.29123 0.49362 0.02522 0.0
H2498 H 0.30847 0.46421 1.00136 0.0
H2499 H 0.32801 0.33369 1.01147 0.0
H2500 H 0.35172 0.35533 1.00578 0.0
H2501 H 0.29931 0.41286 0.98021 0.0
H2502 H 0.2753 0.39114 0.9863 0.0
H2503 H 0.31427 0.41991 1.01423 0.0
H2504 H 0.34733 0.39118 0.94377 0.0
H2505 H 0.36425 0.36359 0.91769 0.0
H2506 H 0.41831 0.33283 0.95895 0.0
H2507 H 0.40153 0.36002 0.98557 0.0
C2508 C 0.38494 0.46909 0.99735 0.0
C2509 C 0.40144 0.45998 1.01235 0.0
C2510 C 0.37385 0.45639 0.99336 0.0
C2511 C 0.37927 0.43444 1.00395 0.0
C2512 C 0.39631 0.42504 0.01829 0.0
C2513 C 0.40723 0.43786 0.02269 0.0
C2514 C 0.36604 0.42191 1.00105 0.0
C2515 C 0.37541 0.40532 0.98732 0.0
C2516 C 0.34367 0.42756 1.01037 0.0
C2517 C 0.33306 0.44506 0.0249 0.0
C2518 C 0.34111 0.44397 0.04599 0.0
C2519 C 0.33133 0.46077 0.05931 0.0
C2520 C 0.31338 0.47866 0.05181 0.0
C2521 C 0.30514 0.47976 0.031 0.0
C2522 C 0.31489 0.46302 0.01759 0.0
C2523 C 0.32172 0.35084 1.00398 0.0
C2524 C 0.2998 0.36081 0.9994 0.0
C2525 C 0.33532 0.36319 1.00067 0.0
C2526 C 0.32734 0.38569 0.99242 0.0
C2527 C 0.30577 0.3955 0.98663 0.0
C2528 C 0.29207 0.38315 0.99016 0.0
C2529 C 0.34058 0.39919 0.99288 0.0
C2530 C 0.33121 0.41613 1.00618 0.0
C2531 C 0.36283 0.39404 0.98278 0.0
C2532 C 0.37304 0.37757 0.96683 0.0
C2533 C 0.36272 0.37842 0.94744 0.0
C2534 C 0.37231 0.36286 0.93252 0.0
C2535 C 0.39231 0.34643 0.93669 0.0
C2536 C 0.40279 0.34556 0.95576 0.0
C2537 C 0.39326 0.36106 0.97076 0.0
H2538 H 0.3997 0.3344 0.92512 0.0
H2539 H 0.30584 0.49166 0.06213 0.0
H2540 H 0.06966 0.22134 0.25856 0.0
H2541 H 0.09817 0.18583 0.2589 0.0
H2542 H 0.04985 0.15453 0.28734 0.0
H2543 H 0.02089 0.19057 0.28734 0.0
H2544 H 0.0869 0.13528 0.31048 0.0
H2545 H 0.07231 0.15415 0.23017 0.0
H2546 H 0.06531 0.17847 0.19162 0.0
H2547 H 0.12981 0.18267 0.18214 0.0
H2548 H 0.13711 0.15866 0.22085 0.0
H2549 H 0.17781 0.0355 0.29409 0.0
H2550 H 0.14162 0.06428 0.29123 0.0
H2551 H 0.17322 0.11238 0.26397 0.0
H2552 H 0.20906 0.08397 0.2667 0.0
H2553 H 0.14001 0.11877 0.23841 0.0
H2554 H 0.15133 0.10566 0.32125 0.0
H2555 H 0.15789 0.08314 0.36083 0.0
H2556 H 0.09902 0.06856 0.36525 0.0
H2557 H 0.09227 0.09079 0.32552 0.0
C2558 C 0.06498 0.20695 0.26483 0.0
C2559 C 0.04298 0.2088 0.27292 0.0
C2560 C 0.08135 0.18658 0.2649 0.0
C2561 C 0.07624 0.16738 0.27285 0.0
C2562 C 0.05423 0.16908 0.28102 0.0
C2563 C 0.03769 0.18965 0.28092 0.0
C2564 C 0.09424 0.14582 0.27292 0.0
C2565 C 0.09818 0.1314 0.29458 0.0
C2566 C 0.10922 0.14077 0.25225 0.0
C2567 C 0.10522 0.15465 0.22853 0.0
C2568 C 0.085 0.16031 0.21992 0.0
C2569 C 0.08096 0.17405 0.19803 0.0
C2570 C 0.0971 0.18213 0.18445 0.0
C2571 C 0.11734 0.17638 0.19268 0.0
C2572 C 0.12144 0.16267 0.21459 0.0
C2573 C 0.17696 0.05222 0.28745 0.0
C2574 C 0.19629 0.05746 0.28071 0.0
C2575 C 0.15629 0.06866 0.28584 0.0
C2576 C 0.15463 0.09058 0.27735 0.0
C2577 C 0.174 0.09565 0.27039 0.0
C2578 C 0.19451 0.07936 0.27215 0.0
C2579 C 0.13296 0.10856 0.27609 0.0
C2580 C 0.1284 0.12236 0.25417 0.0
C2581 C 0.11741 0.11299 0.29647 0.0
C2582 C 0.12146 0.09963 0.3203 0.0
C2583 C 0.1399 0.09748 0.33057 0.0
C2584 C 0.14363 0.08481 0.35305 0.0
C2585 C 0.12893 0.07436 0.36551 0.0
C2586 C 0.11043 0.07662 0.35555 0.0
C2587 C 0.10664 0.08925 0.33306 0.0
H2588 H 0.13183 0.06456 0.38292 0.0
H2589 H 0.09392 0.19283 0.16755 0.0
H2590 H 0.2501 0.31106 0.98451 0.0
H2591 H 0.25227 0.34522 0.95902 0.0
H2592 H 0.21309 0.33902 0.91147 0.0
H2593 H 0.2115 0.30494 0.93656 0.0
H2594 H 0.24473 0.34986 0.88593 0.0
H2595 H 0.19436 0.37635 0.95328 0.0
H2596 H 0.18311 0.37917 0.99576 0.0
H2597 H 0.23472 0.40379 0.99517 0.0
H2598 H 0.24679 0.40043 0.95286 0.0
H2599 H 0.20718 0.45441 0.81748 0.0
H2600 H 0.20807 0.42286 0.84866 0.0
H2601 H 0.25852 0.4319 0.87795 0.0
H2602 H 0.25796 0.46355 0.84645 0.0
H2603 H 0.22522 0.41994 0.9139 0.0
H2604 H 0.27439 0.39525 0.84704 0.0
H2605 H 0.28686 0.39192 0.80493 0.0
H2606 H 0.2377 0.36423 0.80481 0.0
H2607 H 0.22484 0.36755 0.84703 0.0
C2608 C 0.24167 0.31729 0.96888 0.0
C2609 C 0.23039 0.30544 0.96281 0.0
C2610 C 0.24293 0.33683 0.95417 0.0
C2611 C 0.23266 0.3451 0.93316 0.0
C2612 C 0.22126 0.33321 0.92737 0.0
C2613 C 0.22025 0.31369 0.94186 0.0
C2614 C 0.23402 0.36568 0.91669 0.0
C2615 C 0.24017 0.36518 0.89217 0.0
C2616 C 0.22893 0.38574 0.92457 0.0
C2617 C 0.22164 0.38789 0.94996 0.0
C2618 C 0.20347 0.38215 0.96227 0.0
C2619 C 0.19698 0.3838 0.98633 0.0
C2620 C 0.20831 0.39149 0.99819 0.0
C2621 C 0.2261 0.39765 0.98599 0.0
C2622 C 0.2328 0.39584 0.96198 0.0
C2623 C 0.2183 0.45 0.83068 0.0
C2624 C 0.23247 0.46175 0.82928 0.0
C2625 C 0.21881 0.43181 0.84856 0.0
C2626 C 0.23339 0.42481 0.86575 0.0
C2627 C 0.24701 0.43695 0.86504 0.0
C2628 C 0.24668 0.45509 0.84693 0.0
C2629 C 0.2352 0.40406 0.88328 0.0
C2630 C 0.22978 0.40455 0.90783 0.0
C2631 C 0.24097 0.3839 0.87553 0.0
C2632 C 0.24857 0.38181 0.85015 0.0
C2633 C 0.26617 0.38857 0.838 0.0
C2634 C 0.27332 0.38667 0.8141 0.0
C2635 C 0.26304 0.37794 0.80212 0.0
C2636 C 0.24564 0.37102 0.81409 0.0
C2637 C 0.23843 0.37287 0.83804 0.0
H2638 H 0.2686 0.3765 0.7836 0.0
H2639 H 0.20326 0.39278 0.01681 0.0
H2640 H 0.29969 0.22392 0.95575 0.0
H2641 H 0.33321 0.22226 0.92839 0.0
H2642 H 0.34462 0.26689 0.96305 0.0
H2643 H 0.31117 0.26866 0.99045 0.0
H2644 H 0.35007 0.27886 0.91564 0.0
H2645 H 0.37579 0.21265 0.97071 0.0
H2646 H 0.37542 0.17722 0.99448 0.0
H2647 H 0.38179 0.15254 0.93051 0.0
H2648 H 0.3819 0.18793 0.90636 0.0
H2649 H 0.45552 0.26816 0.84984 0.0
H2650 H 0.42622 0.26762 0.88282 0.0
H2651 H 0.41245 0.21981 0.85566 0.0
H2652 H 0.44201 0.21978 0.8232 0.0
H2653 H 0.40933 0.20981 0.90154 0.0
H2654 H 0.38148 0.27648 0.84652 0.0
H2655 H 0.38056 0.31225 0.8226 0.0
H2656 H 0.37738 0.33634 0.88604 0.0
H2657 H 0.37856 0.30064 0.91033 0.0
C2658 C 0.30942 0.23321 0.95781 0.0
C2659 C 0.30253 0.2465 0.9754 0.0
C2660 C 0.32866 0.23222 0.9421 0.0
C2661 C 0.34159 0.24438 0.94365 0.0
C2662 C 0.33494 0.2574 0.96139 0.0
C2663 C 0.31574 0.25837 0.97712 0.0
C2664 C 0.36164 0.24402 0.92634 0.0
C2665 C 0.36321 0.26378 0.91283 0.0
C2666 C 0.37863 0.22435 0.92226 0.0
C2667 C 0.37866 0.20301 0.93673 0.0
C2668 C 0.37695 0.19972 0.96171 0.0
C2669 C 0.37681 0.17963 0.97526 0.0
C2670 C 0.37853 0.16265 0.96402 0.0
C2671 C 0.38044 0.16571 0.9392 0.0
C2672 C 0.38056 0.18578 0.92557 0.0
C2673 C 0.44646 0.2573 0.85106 0.0
C2674 C 0.4512 0.24403 0.83376 0.0
C2675 C 0.42952 0.25717 0.86984 0.0
C2676 C 0.41672 0.24399 0.87158 0.0
C2677 C 0.42196 0.23019 0.85479 0.0
C2678 C 0.43896 0.23019 0.83616 0.0
C2679 C 0.39768 0.24465 0.89055 0.0
C2680 C 0.39629 0.22493 0.90441 0.0
C2681 C 0.3808 0.26438 0.89487 0.0
C2682 C 0.38037 0.28578 0.88022 0.0
C2683 C 0.38079 0.28934 0.85535 0.0
C2684 C 0.38018 0.30962 0.84173 0.0
C2685 C 0.37897 0.32654 0.85279 0.0
C2686 C 0.37835 0.32322 0.8775 0.0
C2687 C 0.37899 0.30296 0.8912 0.0
H2688 H 0.37846 0.34223 0.84224 0.0
H2689 H 0.37842 0.14711 0.97453 0.0
H2690 H 0.49028 0.50259 0.93144 0.0
H2691 H 0.45968 0.50251 0.91442 0.0
H2692 H 0.41525 0.55146 0.95477 0.0
H2693 H 0.4465 0.55198 0.97161 0.0
H2694 H 0.39767 0.52045 0.95582 0.0
H2695 H 0.42981 0.56485 0.89529 0.0
H2696 H 0.45965 0.5749 0.86834 0.0
H2697 H 0.47487 0.51939 0.83488 0.0
H2698 H 0.44531 0.50884 0.86187 0.0
H2699 H 0.31274 0.54138 0.88267 0.0
H2700 H 0.33944 0.54508 0.90378 0.0
H2701 H 0.39048 0.49349 0.87228 0.0
H2702 H 0.36423 0.49037 0.8503 0.0
H2703 H 0.40239 0.5288 0.8681 0.0
H2704 H 0.36451 0.48817 0.92866 0.0
H2705 H 0.33073 0.48423 0.95277 0.0
H2706 H 0.3236 0.53713 0.98706 0.0
H2707 H 0.35637 0.54259 0.96183 0.0
C2708 C 0.47403 0.51345 0.93666 0.0
C2709 C 0.47073 0.52727 0.95289 0.0
C2710 C 0.45643 0.51326 0.92704 0.0
C2711 C 0.43503 0.52691 0.93333 0.0
C2712 C 0.4316 0.5407 0.94973 0.0
C2713 C 0.44939 0.541 0.95932 0.0
C2714 C 0.4166 0.52695 0.92213 0.0
C2715 C 0.39846 0.52265 0.93664 0.0
C2716 C 0.41772 0.52963 0.8971 0.0
C2717 C 0.43543 0.53599 0.8807 0.0
C2718 C 0.43961 0.55472 0.88228 0.0
C2719 C 0.45646 0.56051 0.86699 0.0
C2720 C 0.46917 0.54777 0.84993 0.0
C2721 C 0.46502 0.52924 0.8481 0.0
C2722 C 0.44819 0.52336 0.86337 0.0
C2723 C 0.32964 0.5308 0.88023 0.0
C2724 C 0.33628 0.51555 0.86475 0.0
C2725 C 0.34486 0.53286 0.89244 0.0
C2726 C 0.36695 0.5195 0.8897 0.0
C2727 C 0.37351 0.50396 0.87469 0.0
C2728 C 0.35838 0.502 0.86237 0.0
C2729 C 0.38354 0.52204 0.90171 0.0
C2730 C 0.40144 0.52676 0.88731 0.0
C2731 C 0.38178 0.52027 0.92676 0.0
C2732 C 0.36276 0.51609 0.9429 0.0
C2733 C 0.35554 0.49929 0.94096 0.0
C2734 C 0.33641 0.49692 0.95469 0.0
C2735 C 0.32497 0.51048 0.97136 0.0
C2736 C 0.33247 0.52664 0.97411 0.0
C2737 C 0.35119 0.52955 0.95989 0.0
H2738 H 0.31032 0.50844 0.98217 0.0
H2739 H 0.48222 0.55228 0.83811 0.0
H2740 H 0.63377 0.6946 0.03494 0.0
H2741 H 0.60857 0.67473 0.05002 0.0
H2742 H 0.6578 0.62399 0.08951 0.0
H2743 H 0.68341 0.64403 0.07426 0.0
H2744 H 0.64769 0.60842 0.05937 0.0
H2745 H 0.60474 0.6491 0.11734 0.0
H2746 H 0.58383 0.68042 0.13759 0.0
H2747 H 0.53704 0.70405 0.08733 0.0
H2748 H 0.55788 0.67323 0.06636 0.0
H2749 H 0.56412 0.56202 0.05321 0.0
H2750 H 0.57135 0.58445 0.07622 0.0
H2751 H 0.59422 0.62004 1.01114 0.0
H2752 H 0.58743 0.5975 0.9881 0.0
H2753 H 0.56637 0.63422 0.07336 0.0
H2754 H 0.64931 0.60297 0.01684 0.0
H2755 H 0.66734 0.5741 0.99247 0.0
H2756 H 0.63261 0.53421 0.03846 0.0
H2757 H 0.6162 0.56178 0.06458 0.0
C2758 C 0.63906 0.67966 0.04758 0.0
C2759 C 0.66079 0.67069 0.053 0.0
C2760 C 0.62445 0.66833 0.05644 0.0
C2761 C 0.6312 0.6478 0.07096 0.0
C2762 C 0.65222 0.63979 0.07829 0.0
C2763 C 0.66694 0.6511 0.0693 0.0
C2764 C 0.61873 0.63294 0.07279 0.0
C2765 C 0.62996 0.61379 0.06325 0.0
C2766 C 0.59553 0.63975 0.07799 0.0
C2767 C 0.58301 0.65873 0.09019 0.0
C2768 C 0.59013 0.66107 0.11041 0.0
C2769 C 0.57826 0.67876 0.12204 0.0
C2770 C 0.55915 0.69424 0.11373 0.0
C2771 C 0.55189 0.69208 0.09371 0.0
C2772 C 0.56373 0.67447 0.08195 0.0
C2773 C 0.57034 0.57486 0.04382 0.0
C2774 C 0.57597 0.57748 0.01893 0.0
C2775 C 0.57396 0.58797 0.05697 0.0
C2776 C 0.58355 0.60362 0.04533 0.0
C2777 C 0.58682 0.60794 0.02036 0.0
C2778 C 0.58314 0.59491 1.00723 0.0
C2779 C 0.59547 0.61122 0.05845 0.0
C2780 C 0.58413 0.62863 0.07069 0.0
C2781 C 0.61864 0.60292 0.05582 0.0
C2782 C 0.6312 0.58468 0.0425 0.0
C2783 C 0.64601 0.58778 0.0222 0.0
C2784 C 0.65609 0.57154 1.00817 0.0
C2785 C 0.65124 0.55226 1.01402 0.0
C2786 C 0.63663 0.54899 0.03418 0.0
C2787 C 0.62712 0.56483 0.04876 0.0
H2788 H 0.65873 0.53987 1.00289 0.0
H2789 H 0.54993 0.70786 0.12283 0.0
H2790 H 0.9121 0.7905 0.75234 0.0
H2791 H 0.88356 0.82623 0.74946 0.0
H2792 H 0.93211 0.85652 0.74367 0.0
H2793 H 0.96113 0.82039 0.74629 0.0
H2794 H 0.89253 0.87381 0.77543 0.0
H2795 H 0.91269 0.86104 0.69527 0.0
H2796 H 0.92146 0.8399 0.66289 0.0
H2797 H 0.85688 0.83539 0.67732 0.0
H2798 H 0.84781 0.85622 0.71004 0.0
H2799 H 0.80536 0.9769 0.74432 0.0
H2800 H 0.84126 0.9474 0.74343 0.0
H2801 H 0.80933 0.9016 0.74374 0.0
H2802 H 0.77386 0.93064 0.74477 0.0
H2803 H 0.8451 0.89599 0.71114 0.0
H2804 H 0.82584 0.90605 0.79296 0.0
H2805 H 0.81691 0.926 0.82638 0.0
H2806 H 0.87938 0.93538 0.80951 0.0
H2807 H 0.88855 0.91576 0.77571 0.0
C2808 C 0.91682 0.80472 0.7504 0.0
C2809 C 0.93894 0.80256 0.74945 0.0
C2810 C 0.90041 0.82519 0.74877 0.0
C2811 C 0.9056 0.84417 0.74619 0.0
C2812 C 0.92767 0.84214 0.74566 0.0
C2813 C 0.94424 0.8215 0.74709 0.0
C2814 C 0.88774 0.86589 0.7435 0.0
C2815 C 0.88245 0.87896 0.76107 0.0
C2816 C 0.87431 0.8725 0.725 0.0
C2817 C 0.87962 0.86008 0.70522 0.0
C2818 C 0.9004 0.85541 0.69166 0.0
C2819 C 0.90542 0.8435 0.67322 0.0
C2820 C 0.88975 0.83628 0.66807 0.0
C2821 C 0.869 0.84099 0.68133 0.0
C2822 C 0.86391 0.85287 0.6998 0.0
C2823 C 0.80609 0.96052 0.74417 0.0
C2824 C 0.78675 0.95611 0.74464 0.0
C2825 C 0.82659 0.94367 0.74371 0.0
C2826 C 0.82808 0.92216 0.74357 0.0
C2827 C 0.80874 0.91797 0.74372 0.0
C2828 C 0.7884 0.93465 0.74435 0.0
C2829 C 0.84949 0.90374 0.74338 0.0
C2830 C 0.85542 0.89119 0.72525 0.0
C2831 C 0.86339 0.89766 0.76141 0.0
C2832 C 0.85778 0.90964 0.7816 0.0
C2833 C 0.83759 0.91257 0.79619 0.0
C2834 C 0.83249 0.92377 0.81525 0.0
C2835 C 0.84756 0.93197 0.82004 0.0
C2836 C 0.86772 0.92902 0.80576 0.0
C2837 C 0.87287 0.91786 0.78665 0.0
H2838 H 0.84366 0.94054 0.83488 0.0
H2839 H 0.89367 0.82706 0.65379 0.0
H2840 H 0.4748 0.14072 0.69653 0.0
H2841 H 0.47295 0.1191 0.66898 0.0
H2842 H 0.49842 0.15928 0.61032 0.0
H2843 H 0.50052 0.181 0.63792 0.0
H2844 H 0.46387 0.14998 0.59958 0.0
H2845 H 0.53096 0.11268 0.63338 0.0
H2846 H 0.55314 0.09669 0.66671 0.0
H2847 H 0.52137 0.0488 0.69119 0.0
H2848 H 0.49809 0.06527 0.65871 0.0
H2849 H 0.51906 0.05034 0.53718 0.0
H2850 H 0.51784 0.0764 0.56079 0.0
H2851 H 0.44965 0.08558 0.58556 0.0
H2852 H 0.45084 0.05869 0.56231 0.0
H2853 H 0.50616 0.07079 0.61199 0.0
H2854 H 0.42847 0.14308 0.58872 0.0
H2855 H 0.40689 0.16076 0.55489 0.0
H2856 H 0.46472 0.13837 0.50594 0.0
H2857 H 0.48666 0.12083 0.53945 0.0
C2858 C 0.48025 0.14486 0.67781 0.0
C2859 C 0.48811 0.16241 0.66948 0.0
C2860 C 0.47898 0.1326 0.66207 0.0
C2861 C 0.48565 0.13753 0.63765 0.0
C2862 C 0.49309 0.15529 0.62911 0.0
C2863 C 0.49434 0.16763 0.6449 0.0
C2864 C 0.48576 0.12346 0.6213 0.0
C2865 C 0.47305 0.13266 0.60234 0.0
C2866 C 0.49797 0.10089 0.62475 0.0
C2867 C 0.51251 0.09045 0.6438 0.0
C2868 C 0.52847 0.09892 0.64603 0.0
C2869 C 0.54118 0.08982 0.66485 0.0
C2870 C 0.53861 0.07178 0.68112 0.0
C2871 C 0.52328 0.06283 0.67863 0.0
C2872 C 0.51022 0.07213 0.6601 0.0
C2873 C 0.50371 0.05784 0.54753 0.0
C2874 C 0.4851 0.05213 0.54805 0.0
C2875 C 0.50309 0.07279 0.56102 0.0
C2876 C 0.48372 0.08277 0.57497 0.0
C2877 C 0.46476 0.07799 0.57483 0.0
C2878 C 0.46546 0.06266 0.56153 0.0
C2879 C 0.48395 0.09724 0.59061 0.0
C2880 C 0.49677 0.08807 0.60944 0.0
C2881 C 0.4721 0.11981 0.58685 0.0
C2882 C 0.45911 0.13041 0.5666 0.0
C2883 C 0.43656 0.14197 0.57073 0.0
C2884 C 0.42427 0.15197 0.55161 0.0
C2885 C 0.43441 0.15061 0.52828 0.0
C2886 C 0.45687 0.13931 0.52402 0.0
C2887 C 0.46922 0.1293 0.54307 0.0
H2888 H 0.42487 0.15836 0.51351 0.0
H2889 H 0.54861 0.06465 0.69557 0.0
H2890 H 0.53339 0.34301 0.85675 0.0
H2891 H 0.53386 0.36444 0.88513 0.0
H2892 H 0.47849 0.34992 0.92874 0.0
H2893 H 0.47781 0.32848 0.90009 0.0
H2894 H 0.47164 0.39147 0.92232 0.0
H2895 H 0.53062 0.3284 0.94718 0.0
H2896 H 0.56526 0.29775 0.94286 0.0
H2897 H 0.59999 0.34259 0.91314 0.0
H2898 H 0.56551 0.37353 0.91695 0.0
H2899 H 0.47766 0.4546 1.00328 0.0
H2900 H 0.47649 0.42483 0.9865 0.0
H2901 H 0.53427 0.42691 0.93759 0.0
H2902 H 0.53605 0.45594 0.95502 0.0
H2903 H 0.53817 0.38733 0.9531 0.0
H2904 H 0.47617 0.45055 0.92438 0.0
H2905 H 0.43969 0.47932 0.92541 0.0
H2906 H 0.40966 0.43234 0.96245 0.0
H2907 H 0.44569 0.40336 0.96221 0.0
C2908 C 0.5216 0.34394 0.87264 0.0
C2909 C 0.50562 0.33394 0.87622 0.0
C2910 C 0.52191 0.3562 0.88891 0.0
C2911 C 0.50643 0.35855 0.9093 0.0
C2912 C 0.49066 0.34827 0.91318 0.0
C2913 C 0.49025 0.33608 0.89678 0.0
C2914 C 0.50569 0.37324 0.92535 0.0
C2915 C 0.48607 0.39033 0.92952 0.0
C2916 C 0.52458 0.37188 0.93447 0.0
C2917 C 0.54542 0.3533 0.93223 0.0
C2918 C 0.54561 0.33173 0.93957 0.0
C2919 C 0.56523 0.3143 0.93724 0.0
C2920 C 0.58481 0.31822 0.9277 0.0
C2921 C 0.58481 0.33958 0.92053 0.0
C2922 C 0.56524 0.35708 0.9228 0.0
C2923 C 0.49024 0.44855 0.98909 0.0
C2924 C 0.50705 0.45755 0.98057 0.0
C2925 C 0.48941 0.43166 0.97933 0.0
C2926 C 0.50506 0.42379 0.96043 0.0
C2927 C 0.522 0.43261 0.95216 0.0
C2928 C 0.52306 0.4492 0.96219 0.0
C2929 C 0.50426 0.40619 0.94931 0.0
C2930 C 0.52363 0.3884 0.94619 0.0
C2931 C 0.48502 0.40684 0.94132 0.0
C2932 C 0.46374 0.42481 0.94364 0.0
C2933 C 0.46185 0.44644 0.9333 0.0
C2934 C 0.44125 0.46281 0.93376 0.0
C2935 C 0.42247 0.45779 0.94444 0.0
C2936 C 0.42421 0.43636 0.95468 0.0
C2937 C 0.44471 0.41994 0.9544 0.0
H2938 H 0.40655 0.47047 0.94454 0.0
H2939 H 0.59998 0.3047 0.92591 0.0
H2940 H 0.46307 0.85832 0.36837 0.0
H2941 H 0.46633 0.87847 0.39675 0.0
H2942 H 0.5269 0.82789 0.4142 0.0
H2943 H 0.52351 0.80729 0.38626 0.0
H2944 H 0.50122 0.84607 0.45356 0.0
H2945 H 0.52908 0.86983 0.37241 0.0
H2946 H 0.52601 0.88346 0.32963 0.0
H2947 H 0.4727 0.9406 0.34616 0.0
H2948 H 0.47532 0.92717 0.38905 0.0
H2949 H 0.53998 0.94054 0.46508 0.0
H2950 H 0.54001 0.91321 0.44317 0.0
H2951 H 0.47846 0.9115 0.48376 0.0
H2952 H 0.47854 0.93795 0.50584 0.0
H2953 H 0.50848 0.91766 0.41513 0.0
H2954 H 0.47256 0.86956 0.49226 0.0
H2955 H 0.47298 0.85847 0.53572 0.0
H2956 H 0.54105 0.85202 0.52722 0.0
H2957 H 0.5408 0.86327 0.48368 0.0
C2958 C 0.47674 0.85115 0.37875 0.0
C2959 C 0.4932 0.83135 0.37486 0.0
C2960 C 0.47867 0.86279 0.39481 0.0
C2961 C 0.49709 0.85488 0.40712 0.0
C2962 C 0.51266 0.83434 0.40468 0.0
C2963 C 0.51077 0.82269 0.38862 0.0
C2964 C 0.50116 0.86882 0.42079 0.0
C2965 C 0.50275 0.8617 0.4452 0.0
C2966 C 0.50351 0.88913 0.40973 0.0
C2967 C 0.50226 0.8974 0.38393 0.0
C2968 C 0.51663 0.88524 0.36692 0.0
C2969 C 0.51498 0.89294 0.34265 0.0
C2970 C 0.49914 0.91286 0.33518 0.0
C2971 C 0.48496 0.92516 0.35196 0.0
C2972 C 0.48653 0.91753 0.37625 0.0
C2973 C 0.52674 0.93393 0.46965 0.0
C2974 C 0.50931 0.94134 0.48729 0.0
C2975 C 0.5267 0.91847 0.45704 0.0
C2976 C 0.50933 0.91019 0.46207 0.0
C2977 C 0.49222 0.91732 0.47993 0.0
C2978 C 0.49228 0.93256 0.4925 0.0
C2979 C 0.50817 0.89498 0.44796 0.0
C2980 C 0.50705 0.90193 0.42347 0.0
C2981 C 0.50603 0.87464 0.45894 0.0
C2982 C 0.50669 0.86692 0.48483 0.0
C2983 C 0.48761 0.86554 0.49971 0.0
C2984 C 0.48779 0.85939 0.52433 0.0
C2985 C 0.50707 0.85443 0.53423 0.0
C2986 C 0.52615 0.85577 0.51952 0.0
C2987 C 0.52598 0.86207 0.49488 0.0
H2988 H 0.50721 0.84963 0.55329 0.0
H2989 H 0.49788 0.91879 0.31638 0.0
H2990 H 0.4713 0.57218 0.05296 0.0
H2991 H 0.47878 0.59623 0.07365 0.0
H2992 H 0.53048 0.60299 0.01757 0.0
H2993 H 0.52259 0.5795 0.99664 0.0
H2994 H 0.51481 0.58854 0.09236 0.0
H2995 H 0.54181 0.64787 0.01747 0.0
H2996 H 0.5364 0.66478 0.97569 0.0
H2997 H 0.47112 0.66209 0.98844 0.0
H2998 H 0.47611 0.64532 0.03033 0.0
H2999 H 0.5407 0.65353 0.15425 0.0
H3000 H 0.54819 0.63364 0.12125 0.0
H3001 H 0.48646 0.67606 0.09692 0.0
H3002 H 0.47941 0.69647 0.12903 0.0
H3003 H 0.51658 0.66313 0.05963 0.0
H3004 H 0.48713 0.62311 0.13754 0.0
H3005 H 0.49116 0.60699 0.17982 0.0
H3006 H 0.55944 0.57265 0.16079 0.0
H3007 H 0.55574 0.58874 0.11849 0.0
C3008 C 0.48379 0.57935 0.04469 0.0
C3009 C 0.49654 0.57381 0.02326 0.0
C3010 C 0.48831 0.59282 0.05671 0.0
C3011 C 0.50546 0.60119 0.0474 0.0
C3012 C 0.51728 0.5967 0.02527 0.0
C3013 C 0.51278 0.58324 1.01331 0.0
C3014 C 0.51136 0.61388 0.06137 0.0
C3015 C 0.51526 0.60481 0.08506 0.0
C3016 C 0.5128 0.63483 0.05184 0.0
C3017 C 0.50939 0.64524 0.02691 0.0
C3018 C 0.52628 0.65099 1.01135 0.0
C3019 C 0.5233 0.66051 0.98766 0.0
C3020 C 0.50345 0.66447 0.9794 0.0
C3021 C 0.4865 0.65897 0.99484 0.0
C3022 C 0.4894 0.64943 0.01854 0.0
C3023 C 0.52903 0.65895 0.14146 0.0
C3024 C 0.50919 0.67622 0.14456 0.0
C3025 C 0.53322 0.64744 0.12275 0.0
C3026 C 0.51756 0.65293 0.10702 0.0
C3027 C 0.49873 0.67138 0.1089 0.0
C3028 C 0.49461 0.68291 0.12742 0.0
C3029 C 0.51886 0.63818 0.09078 0.0
C3030 C 0.51655 0.64669 0.06665 0.0
C3031 C 0.51894 0.61671 0.09978 0.0
C3032 C 0.52113 0.60691 0.12501 0.0
C3033 C 0.50295 0.61205 0.14246 0.0
C3034 C 0.50519 0.60299 0.16639 0.0
C3035 C 0.52553 0.58877 0.17299 0.0
C3036 C 0.54369 0.58364 0.15567 0.0
C3037 C 0.54152 0.59269 0.13173 0.0
H3038 H 0.52724 0.58176 0.19152 0.0
H3039 H 0.50118 0.67182 0.96105 0.0
loop_
_geom_bond_atom_site_label_1
_geom_bond_atom_site_label_2
_geom_bond_distance
_geom_bond_site_symmetry_2
_ccdc_geom_bond_type
La0 C2 2.928 . S
La0 O20 2.521 . S
La0 O21 2.628 . S
La0 O22 2.554 1_655 S
La0 O23 2.757 1_655 S
La0 O24 2.470 1_654 S
La0 O29 2.482 1_564 S
La0 O31 2.503 1_565 S
La1 C11 2.928 . S
La1 O23 2.482 1_546 S
La1 O25 2.503 1_545 S
La1 O26 2.521 . S
La1 O27 2.628 . S
La1 O28 2.554 1_455 S
La1 O29 2.757 1_455 S
La1 O30 2.470 1_456 S
C2 La0 2.928 . S
C2 C3 1.503 . S
C2 O20 1.261 . S
C2 O21 1.243 . S
C3 C2 1.503 . S
C3 C4 1.394 . S
C3 C8 1.373 . S
C4 C3 1.394 . S
C4 C5 1.380 . S
C4 H32 0.930 . S
C5 C4 1.380 . S
C5 C6 1.376 . S
C5 H33 0.930 . S
C6 C5 1.376 . S
C6 C7 1.370 . S
C7 C6 1.370 . S
C7 C8 1.396 . S
C7 H34 0.960 . S
C8 C3 1.373 . S
C8 C7 1.396 . S
C8 H35 0.929 1_554 S
C9 O22 1.240 . S
C9 O23 1.289 . S
C10 O24 1.258 . S
C10 O25 1.256 . S
C11 La1 2.928 . S
C11 C12 1.503 . S
C11 O26 1.261 . S
C11 O27 1.243 . S
C12 C11 1.503 . S
C12 C13 1.394 . S
C12 C17 1.373 . S
C13 C12 1.394 . S
C13 C14 1.380 . S
C13 H36 0.930 . S
C14 C13 1.380 . S
C14 C15 1.376 . S
C14 H37 0.930 . S
C15 C14 1.376 . S
C15 C16 1.370 . S
C16 C15 1.370 . S
C16 C17 1.396 . S
C16 H38 0.944 . S
C17 C12 1.373 . S
C17 C16 1.396 . S
C17 H39 0.929 1_556 S
C18 O28 1.240 . S
C18 O29 1.289 . S
C19 O30 1.258 . S
C19 O31 1.256 . S
O20 La0 2.521 . S
O20 C2 1.261 . S
O21 La0 2.628 . S
O21 C2 1.243 . S
O22 La0 2.554 1_455 S
O22 C9 1.240 . S
O23 La0 2.757 1_455 S
O23 La1 2.482 1_564 S
O23 C9 1.289 . S
O24 La0 2.470 1_456 S
O24 C10 1.258 . S
O25 La1 2.503 1_565 S
O25 C10 1.256 . S
O26 La1 2.521 . S
O26 C11 1.261 . S
O27 La1 2.628 . S
O27 C11 1.243 . S
O28 La1 2.554 1_655 S
O28 C18 1.240 . S
O29 La0 2.482 1_546 S
O29 La1 2.757 1_655 S
O29 C18 1.289 . S
O30 La1 2.470 1_654 S
O30 C19 1.258 . S
O31 La0 2.503 1_545 S
O31 C19 1.256 . S
H32 C4 0.930 . S
H33 C5 0.930 . S
H34 C7 0.960 . S
H35 C8 0.929 1_556 S
H36 C13 0.930 . S
H37 C14 0.930 . S
H38 C16 0.944 . S
H39 C17 0.929 1_554 S
La40 C42 2.928 . S
La40 O60 2.521 . S
La40 O61 2.628 1_455 S
La40 O62 2.554 . S
La40 O63 2.757 . S
La40 O64 2.470 1_455 S
La40 O69 2.482 1_455 S
La40 O71 2.503 . S
La41 C51 2.928 . S
La41 O63 2.482 1_655 S
La41 O65 2.503 . S
La41 O66 2.521 . S
La41 O67 2.628 1_655 S
La41 O68 2.554 . S
La41 O69 2.757 . S
La41 O70 2.470 1_655 S
C42 La40 2.928 . S
C42 C43 1.503 . S
C42 O60 1.261 . S
C42 O61 1.243 1_455 S
C43 C42 1.503 . S
C43 C44 1.394 . S
C43 C48 1.373 1_455 S
C44 C43 1.394 . S
C44 C45 1.380 . S
C44 H72 0.930 . S
C45 C44 1.380 . S
C45 C46 1.376 1_455 S
C45 H73 0.930 . S
C46 C45 1.376 1_655 S
C46 C47 1.370 . S
C47 C46 1.370 . S
C47 C48 1.396 . S
C47 H74 0.929 . S
C48 C43 1.373 1_655 S
C48 C47 1.396 . S
C48 H75 0.929 . S
C49 O62 1.240 . S
C49 O63 1.289 . S
C50 O64 1.258 . S
C50 O65 1.256 . S
C51 La41 2.928 . S
C51 C52 1.503 . S
C51 O66 1.261 . S
C51 O67 1.243 1_655 S
C52 C51 1.503 . S
C52 C53 1.394 . S
C52 C57 1.373 1_655 S
C53 C52 1.394 . S
C53 C54 1.380 . S
C53 H76 0.930 . S
C54 C53 1.380 . S
C54 C55 1.376 1_655 S
C54 H77 0.930 . S
C55 C54 1.376 1_455 S
C55 C56 1.370 . S
C56 C55 1.370 . S
C56 C57 1.396 . S
C56 H78 0.929 . S
C57 C52 1.373 1_455 S
C57 C56 1.396 . S
C57 H79 0.929 . S
C58 O68 1.240 . S
C58 O69 1.289 . S
C59 O70 1.258 . S
C59 O71 1.256 . S
O60 La40 2.521 . S
O60 C42 1.261 . S
O61 La40 2.628 1_655 S
O61 C42 1.243 1_655 S
O62 La40 2.554 . S
O62 C49 1.240 . S
O63 La40 2.757 . S
O63 La41 2.482 1_455 S
O63 C49 1.289 . S
O64 La40 2.470 1_655 S
O64 C50 1.258 . S
O65 La41 2.503 . S
O65 C50 1.256 . S
O66 La41 2.521 . S
O66 C51 1.261 . S
O67 La41 2.628 1_455 S
O67 C51 1.243 1_455 S
O68 La41 2.554 . S
O68 C58 1.240 . S
O69 La40 2.482 1_655 S
O69 La41 2.757 . S
O69 C58 1.289 . S
O70 La41 2.470 1_455 S
O70 C59 1.258 . S
O71 La40 2.503 . S
O71 C59 1.256 . S
H72 C44 0.930 . S
H73 C45 0.930 . S
H74 C47 0.929 . S
H75 C48 0.929 . S
H76 C53 0.930 . S
H77 C54 0.930 . S
H78 C56 0.929 . S
H79 C57 0.929 . S
La80 C82 2.928 . S
La80 O100 2.521 . S
La80 O101 2.628 . S
La80 O102 2.554 . S
La80 O103 2.757 . S
La80 O104 2.470 . S
La80 O109 2.482 . S
La80 O111 2.503 . S
La81 C91 2.928 . S
La81 O103 2.482 . S
La81 O105 2.503 . S
La81 O106 2.521 . S
La81 O107 2.628 . S
La81 O108 2.554 . S
La81 O109 2.757 . S
La81 O110 2.470 . S
C82 La80 2.928 . S
C82 C83 1.503 . S
C82 O100 1.261 . S
C82 O101 1.243 . S
C83 C82 1.503 . S
C83 C84 1.394 . S
C83 C88 1.373 . S
C84 C83 1.394 . S
C84 C85 1.380 . S
C84 H112 0.930 . S
C85 C84 1.380 . S
C85 C86 1.376 . S
C85 H113 0.930 . S
C86 C85 1.376 . S
C86 C87 1.370 . S
C87 C86 1.370 . S
C87 C88 1.396 . S
C87 H114 0.929 . S
C88 C83 1.373 . S
C88 C87 1.396 . S
C88 H115 0.929 . S
C89 O102 1.240 . S
C89 O103 1.289 . S
C90 O104 1.258 . S
C90 O105 1.256 . S
C91 La81 2.928 . S
C91 C92 1.503 . S
C91 O106 1.261 . S
C91 O107 1.243 . S
C92 C91 1.503 . S
C92 C93 1.394 . S
C92 C97 1.373 . S
C93 C92 1.394 . S
C93 C94 1.380 . S
C93 H116 0.930 . S
C94 C93 1.380 . S
C94 C95 1.376 . S
C94 H117 0.930 . S
C95 C94 1.376 . S
C95 C96 1.370 . S
C96 C95 1.370 . S
C96 C97 1.396 . S
C96 H118 0.929 . S
C97 C92 1.373 . S
C97 C96 1.396 . S
C97 H119 0.929 . S
C98 O108 1.240 . S
C98 O109 1.289 . S
C99 O110 1.258 . S
C99 O111 1.256 . S
O100 La80 2.521 . S
O100 C82 1.261 . S
O101 La80 2.628 . S
O101 C82 1.243 . S
O102 La80 2.554 . S
O102 C89 1.240 . S
O103 La80 2.757 . S
O103 La81 2.482 . S
O103 C89 1.289 . S
O104 La80 2.470 . S
O104 C90 1.258 . S
O105 La81 2.503 . S
O105 C90 1.256 . S
O106 La81 2.521 . S
O106 C91 1.261 . S
O107 La81 2.628 . S
O107 C91 1.243 . S
O108 La81 2.554 . S
O108 C98 1.240 . S
O109 La80 2.482 . S
O109 La81 2.757 . S
O109 C98 1.289 . S
O110 La81 2.470 . S
O110 C99 1.258 . S
O111 La80 2.503 . S
O111 C99 1.256 . S
H112 C84 0.930 . S
H113 C85 0.930 . S
H114 C87 0.929 . S
H115 C88 0.929 . S
H116 C93 0.930 . S
H117 C94 0.930 . S
H118 C96 0.929 . S
H119 C97 0.929 . S
La120 C122 2.928 . S
La120 O140 2.521 . S
La120 O141 2.628 1_565 S
La120 O142 2.554 . S
La120 O143 2.757 . S
La120 O144 2.470 1_565 S
La120 O149 2.482 1_565 S
La120 O151 2.503 . S
La121 C131 2.928 . S
La121 O143 2.482 1_545 S
La121 O145 2.503 . S
La121 O146 2.521 . S
La121 O147 2.628 1_545 S
La121 O148 2.554 . S
La121 O149 2.757 . S
La121 O150 2.470 1_545 S
C122 La120 2.928 . S
C122 C123 1.501 . S
C122 O140 1.261 . S
C122 O141 1.243 1_565 S
C123 C122 1.501 . S
C123 C124 1.408 . S
C123 C128 1.362 1_565 S
C124 C123 1.408 . S
C124 C125 1.380 . S
C124 H152 0.930 . S
C125 C124 1.380 . S
C125 C126 1.376 1_565 S
C125 H153 0.930 . S
C126 C125 1.376 1_545 S
C126 C127 1.370 . S
C127 C126 1.370 . S
C127 C128 1.396 . S
C127 H154 0.929 . S
C128 C123 1.362 1_545 S
C128 C127 1.396 . S
C128 H155 0.929 . S
C129 O142 1.240 . S
C129 O143 1.289 . S
C130 O144 1.258 . S
C130 O145 1.256 . S
C131 La121 2.928 . S
C131 C132 1.499 . S
C131 O146 1.261 . S
C131 O147 1.243 1_545 S
C132 C131 1.499 . S
C132 C133 1.421 . S
C132 C137 1.352 1_545 S
C133 C132 1.421 . S
C133 C134 1.380 . S
C133 H156 0.930 . S
C134 C133 1.380 . S
C134 C135 1.376 1_545 S
C134 H157 0.930 . S
C135 C134 1.376 1_565 S
C135 C136 1.370 . S
C136 C135 1.370 . S
C136 C137 1.396 . S
C136 H158 0.929 . S
C137 C132 1.352 1_565 S
C137 C136 1.396 . S
C137 H159 0.929 . S
C138 O148 1.240 . S
C138 O149 1.289 . S
C139 O150 1.258 . S
C139 O151 1.256 . S
O140 La120 2.521 . S
O140 C122 1.261 . S
O141 La120 2.628 1_545 S
O141 C122 1.243 1_545 S
O142 La120 2.554 . S
O142 C129 1.240 . S
O143 La120 2.757 . S
O143 La121 2.482 1_565 S
O143 C129 1.289 . S
O144 La120 2.470 1_545 S
O144 C130 1.258 . S
O145 La121 2.503 . S
O145 C130 1.256 . S
O146 La121 2.521 . S
O146 C131 1.261 . S
O147 La121 2.628 1_565 S
O147 C131 1.243 1_565 S
O148 La121 2.554 . S
O148 C138 1.240 . S
O149 La120 2.482 1_545 S
O149 La121 2.757 . S
O149 C138 1.289 . S
O150 La121 2.470 1_565 S
O150 C139 1.258 . S
O151 La120 2.503 . S
O151 C139 1.256 . S
H152 C124 0.930 . S
H153 C125 0.930 . S
H154 C127 0.929 . S
H155 C128 0.929 . S
H156 C133 0.930 . S
H157 C134 0.930 . S
H158 C136 0.929 . S
H159 C137 0.929 . S
La160 C162 2.928 . S
La160 O180 2.521 . S
La160 O181 2.628 . S
La160 O182 2.554 . S
La160 O183 2.757 . S
La160 O184 2.470 . S
La160 O189 2.482 . S
La160 O191 2.503 . S
La161 C171 2.928 . S
La161 O183 2.482 . S
La161 O185 2.503 . S
La161 O186 2.521 . S
La161 O187 2.628 . S
La161 O188 2.554 . S
La161 O189 2.757 . S
La161 O190 2.470 . S
C162 La160 2.928 . S
C162 C163 1.503 . S
C162 O180 1.261 . S
C162 O181 1.243 . S
C163 C162 1.503 . S
C163 C164 1.394 . S
C163 C168 1.373 . S
C164 C163 1.394 . S
C164 C165 1.380 . S
C164 H192 0.930 . S
C165 C164 1.380 . S
C165 C166 1.376 . S
C165 H193 0.930 . S
C166 C165 1.376 . S
C166 C167 1.370 . S
C167 C166 1.370 . S
C167 C168 1.396 . S
C167 H194 0.929 . S
C168 C163 1.373 . S
C168 C167 1.396 . S
C168 H195 0.929 . S
C169 O182 1.240 . S
C169 O183 1.289 . S
C170 O184 1.258 . S
C170 O185 1.256 . S
C171 La161 2.928 . S
C171 C172 1.503 . S
C171 O186 1.261 . S
C171 O187 1.243 . S
C172 C171 1.503 . S
C172 C173 1.394 . S
C172 C177 1.373 . S
C173 C172 1.394 . S
C173 C174 1.380 . S
C173 H196 0.930 . S
C174 C173 1.380 . S
C174 C175 1.376 . S
C174 H197 0.930 . S
C175 C174 1.376 . S
C175 C176 1.370 . S
C176 C175 1.370 . S
C176 C177 1.396 . S
C176 H198 0.929 . S
C177 C172 1.373 . S
C177 C176 1.396 . S
C177 H199 0.929 . S
C178 O188 1.240 . S
C178 O189 1.289 . S
C179 O190 1.258 . S
C179 O191 1.256 . S
O180 La160 2.521 . S
O180 C162 1.261 . S
O181 La160 2.628 . S
O181 C162 1.243 . S
O182 La160 2.554 . S
O182 C169 1.240 . S
O183 La160 2.757 . S
O183 La161 2.482 . S
O183 C169 1.289 . S
O184 La160 2.470 . S
O184 C170 1.258 . S
O185 La161 2.503 . S
O185 C170 1.256 . S
O186 La161 2.521 . S
O186 C171 1.261 . S
O187 La161 2.628 . S
O187 C171 1.243 . S
O188 La161 2.554 . S
O188 C178 1.240 . S
O189 La160 2.482 . S
O189 La161 2.757 . S
O189 C178 1.289 . S
O190 La161 2.470 . S
O190 C179 1.258 . S
O191 La160 2.503 . S
O191 C179 1.256 . S
H192 C164 0.930 . S
H193 C165 0.930 . S
H194 C167 0.929 . S
H195 C168 0.929 . S
H196 C173 0.930 . S
H197 C174 0.930 . S
H198 C176 0.929 . S
H199 C177 0.929 . S
La200 C202 2.928 . S
La200 O220 2.521 . S
La200 O221 2.628 . S
La200 O222 2.554 . S
La200 O223 2.757 . S
La200 O224 2.470 . S
La200 O229 2.482 . S
La200 O231 2.503 . S
La201 C211 2.928 . S
La201 O223 2.482 . S
La201 O225 2.503 . S
La201 O226 2.521 . S
La201 O227 2.628 . S
La201 O228 2.554 . S
La201 O229 2.757 . S
La201 O230 2.470 . S
C202 La200 2.928 . S
C202 C203 1.503 . S
C202 O220 1.261 . S
C202 O221 1.243 . S
C203 C202 1.503 . S
C203 C204 1.394 . S
C203 C208 1.373 . S
C204 C203 1.394 . S
C204 C205 1.380 . S
C204 H232 0.930 . S
C205 C204 1.380 . S
C205 C206 1.376 . S
C205 H233 0.930 . S
C206 C205 1.376 . S
C206 C207 1.370 . S
C207 C206 1.370 . S
C207 C208 1.396 . S
C207 H234 0.929 . S
C208 C203 1.373 . S
C208 C207 1.396 . S
C208 H235 0.929 . S
C209 O222 1.240 . S
C209 O223 1.289 . S
C210 O224 1.258 . S
C210 O225 1.256 . S
C211 La201 2.928 . S
C211 C212 1.503 . S
C211 O226 1.261 . S
C211 O227 1.243 . S
C212 C211 1.503 . S
C212 C213 1.394 . S
C212 C217 1.373 . S
C213 C212 1.394 . S
C213 C214 1.380 . S
C213 H236 0.930 . S
C214 C213 1.380 . S
C214 C215 1.376 . S
C214 H237 0.930 . S
C215 C214 1.376 . S
C215 C216 1.370 . S
C216 C215 1.370 . S
C216 C217 1.396 . S
C216 H238 0.929 . S
C217 C212 1.373 . S
C217 C216 1.396 . S
C217 H239 0.929 . S
C218 O228 1.240 . S
C218 O229 1.289 . S
C219 O230 1.258 . S
C219 O231 1.256 . S
O220 La200 2.521 . S
O220 C202 1.261 . S
O221 La200 2.628 . S
O221 C202 1.243 . S
O222 La200 2.554 . S
O222 C209 1.240 . S
O223 La200 2.757 . S
O223 La201 2.482 . S
O223 C209 1.289 . S
O224 La200 2.470 . S
O224 C210 1.258 . S
O225 La201 2.503 . S
O225 C210 1.256 . S
O226 La201 2.521 . S
O226 C211 1.261 . S
O227 La201 2.628 . S
O227 C211 1.243 . S
O228 La201 2.554 . S
O228 C218 1.240 . S
O229 La200 2.482 . S
O229 La201 2.757 . S
O229 C218 1.289 . S
O230 La201 2.470 . S
O230 C219 1.258 . S
O231 La200 2.503 . S
O231 C219 1.256 . S
H232 C204 0.930 . S
H233 C205 0.930 . S
H234 C207 0.929 . S
H235 C208 0.929 . S
H236 C213 0.930 . S
H237 C214 0.930 . S
H238 C216 0.929 . S
H239 C217 0.929 . S
La240 C242 2.928 . S
La240 O260 2.521 . S
La240 O261 2.628 . S
La240 O262 2.554 . S
La240 O263 2.757 . S
La240 O264 2.470 . S
La240 O269 2.482 . S
La240 O271 2.503 . S
La241 C251 2.928 . S
La241 O263 2.482 . S
La241 O265 2.503 . S
La241 O266 2.521 . S
La241 O267 2.628 . S
La241 O268 2.554 . S
La241 O269 2.757 . S
La241 O270 2.470 . S
C242 La240 2.928 . S
C242 C243 1.503 . S
C242 O260 1.261 . S
C242 O261 1.243 . S
C243 C242 1.503 . S
C243 C244 1.394 . S
C243 C248 1.373 . S
C244 C243 1.394 . S
C244 C245 1.380 . S
C244 H272 0.930 . S
C245 C244 1.380 . S
C245 C246 1.376 . S
C245 H273 0.930 . S
C246 C245 1.376 . S
C246 C247 1.370 . S
C247 C246 1.370 . S
C247 C248 1.396 . S
C247 H274 0.929 . S
C248 C243 1.373 . S
C248 C247 1.396 . S
C248 H275 0.929 . S
C249 O262 1.240 . S
C249 O263 1.289 . S
C250 O264 1.258 . S
C250 O265 1.256 . S
C251 La241 2.928 . S
C251 C252 1.503 . S
C251 O266 1.261 . S
C251 O267 1.243 . S
C252 C251 1.503 . S
C252 C253 1.394 . S
C252 C257 1.373 . S
C253 C252 1.394 . S
C253 C254 1.380 . S
C253 H276 0.930 . S
C254 C253 1.380 . S
C254 C255 1.376 . S
C254 H277 0.930 . S
C255 C254 1.376 . S
C255 C256 1.370 . S
C256 C255 1.370 . S
C256 C257 1.396 . S
C256 H278 0.929 . S
C257 C252 1.373 . S
C257 C256 1.396 . S
C257 H279 0.929 . S
C258 O268 1.240 . S
C258 O269 1.289 . S
C259 O270 1.258 . S
C259 O271 1.256 . S
O260 La240 2.521 . S
O260 C242 1.261 . S
O261 La240 2.628 . S
O261 C242 1.243 . S
O262 La240 2.554 . S
O262 C249 1.240 . S
O263 La240 2.757 . S
O263 La241 2.482 . S
O263 C249 1.289 . S
O264 La240 2.470 . S
O264 C250 1.258 . S
O265 La241 2.503 . S
O265 C250 1.256 . S
O266 La241 2.521 . S
O266 C251 1.261 . S
O267 La241 2.628 . S
O267 C251 1.243 . S
O268 La241 2.554 . S
O268 C258 1.240 . S
O269 La240 2.482 . S
O269 La241 2.757 . S
O269 C258 1.289 . S
O270 La241 2.470 . S
O270 C259 1.258 . S
O271 La240 2.503 . S
O271 C259 1.256 . S
H272 C244 0.930 . S
H273 C245 0.930 . S
H274 C247 0.929 . S
H275 C248 0.929 . S
H276 C253 0.930 . S
H277 C254 0.930 . S
H278 C256 0.929 . S
H279 C257 0.929 . S
La280 C282 2.928 . S
La280 O300 2.521 . S
La280 O301 2.628 . S
La280 O302 2.554 1_655 S
La280 O303 2.757 1_655 S
La280 O304 2.470 1_655 S
La280 O309 2.482 . S
La280 O311 2.503 . S
La281 C291 2.928 . S
La281 O303 2.482 . S
La281 O305 2.503 . S
La281 O306 2.521 . S
La281 O307 2.628 . S
La281 O308 2.554 1_455 S
La281 O309 2.757 1_455 S
La281 O310 2.470 1_455 S
C282 La280 2.928 . S
C282 C283 1.503 . S
C282 O300 1.261 . S
C282 O301 1.243 . S
C283 C282 1.503 . S
C283 C284 1.394 . S
C283 C288 1.373 . S
C284 C283 1.394 . S
C284 C285 1.380 . S
C284 H312 0.930 . S
C285 C284 1.380 . S
C285 C286 1.376 . S
C285 H313 0.930 . S
C286 C285 1.376 . S
C286 C287 1.370 . S
C287 C286 1.370 . S
C287 C288 1.396 . S
C287 H314 0.929 . S
C288 C283 1.373 . S
C288 C287 1.396 . S
C288 H315 0.929 . S
C289 O302 1.240 . S
C289 O303 1.289 . S
C290 O304 1.258 . S
C290 O305 1.256 . S
C291 La281 2.928 . S
C291 C292 1.503 . S
C291 O306 1.261 . S
C291 O307 1.243 . S
C292 C291 1.503 . S
C292 C293 1.394 . S
C292 C297 1.373 . S
C293 C292 1.394 . S
C293 C294 1.380 . S
C293 H316 0.930 . S
C294 C293 1.380 . S
C294 C295 1.376 . S
C294 H317 0.930 . S
C295 C294 1.376 . S
C295 C296 1.370 . S
C296 C295 1.370 . S
C296 C297 1.396 . S
C296 H318 0.929 . S
C297 C292 1.373 . S
C297 C296 1.396 . S
C297 H319 0.929 . S
C298 O308 1.240 . S
C298 O309 1.289 . S
C299 O310 1.258 . S
C299 O311 1.256 . S
O300 La280 2.521 . S
O300 C282 1.261 . S
O301 La280 2.628 . S
O301 C282 1.243 . S
O302 La280 2.554 1_455 S
O302 C289 1.240 . S
O303 La280 2.757 1_455 S
O303 La281 2.482 . S
O303 C289 1.289 . S
O304 La280 2.470 1_455 S
O304 C290 1.258 . S
O305 La281 2.503 . S
O305 C290 1.256 . S
O306 La281 2.521 . S
O306 C291 1.261 . S
O307 La281 2.628 . S
O307 C291 1.243 . S
O308 La281 2.554 1_655 S
O308 C298 1.240 . S
O309 La280 2.482 . S
O309 La281 2.757 1_655 S
O309 C298 1.289 . S
O310 La281 2.470 1_655 S
O310 C299 1.258 . S
O311 La280 2.503 . S
O311 C299 1.256 . S
H312 C284 0.930 . S
H313 C285 0.930 . S
H314 C287 0.929 . S
H315 C288 0.929 . S
H316 C293 0.930 . S
H317 C294 0.930 . S
H318 C296 0.929 . S
H319 C297 0.929 . S
La320 C322 2.928 . S
La320 O340 2.521 . S
La320 O341 2.616 1_556 S
La320 O342 2.554 . S
La320 O343 2.757 . S
La320 O344 2.470 1_556 S
La320 O349 2.482 1_556 S
La320 O351 2.503 . S
La321 C331 2.928 . S
La321 O343 2.482 1_554 S
La321 O345 2.503 . S
La321 O346 2.521 . S
La321 O347 2.622 1_554 S
La321 O348 2.554 . S
La321 O349 2.757 . S
La321 O350 2.470 1_554 S
C322 La320 2.928 . S
C322 C323 1.503 . S
C322 O340 1.261 . S
C322 O341 1.207 1_556 S
C323 C322 1.503 . S
C323 C324 1.394 . S
C323 C328 1.373 1_556 S
C324 C323 1.394 . S
C324 C325 1.380 . S
C324 H352 0.930 . S
C325 C324 1.380 . S
C325 C326 1.376 . S
C325 H353 0.930 . S
C326 C325 1.376 . S
C326 C327 1.370 1_556 S
C327 C326 1.370 1_554 S
C327 C328 1.396 . S
C327 H354 0.929 . S
C328 C323 1.373 1_554 S
C328 C327 1.396 . S
C328 H355 0.929 . S
C329 O342 1.240 . S
C329 O343 1.289 . S
C330 O344 1.258 . S
C330 O345 1.256 . S
C331 La321 2.928 . S
C331 C332 1.503 . S
C331 O346 1.261 . S
C331 O347 1.224 1_554 S
C332 C331 1.503 . S
C332 C333 1.394 . S
C332 C337 1.373 1_554 S
C333 C332 1.394 . S
C333 C334 1.380 . S
C333 H356 0.930 . S
C334 C333 1.380 . S
C334 C335 1.376 . S
C334 H357 0.930 . S
C335 C334 1.376 . S
C335 C336 1.370 1_554 S
C336 C335 1.370 1_556 S
C336 C337 1.396 . S
C336 H358 0.929 . S
C337 C332 1.373 1_556 S
C337 C336 1.396 . S
C337 H359 0.929 . S
C338 O348 1.240 . S
C338 O349 1.289 . S
C339 O350 1.258 . S
C339 O351 1.256 . S
O340 La320 2.521 . S
O340 C322 1.261 . S
O341 La320 2.616 1_554 S
O341 C322 1.207 1_554 S
O342 La320 2.554 . S
O342 C329 1.240 . S
O343 La320 2.757 . S
O343 La321 2.482 1_556 S
O343 C329 1.289 . S
O344 La320 2.470 1_554 S
O344 C330 1.258 . S
O345 La321 2.503 . S
O345 C330 1.256 . S
O346 La321 2.521 . S
O346 C331 1.261 . S
O347 La321 2.622 1_556 S
O347 C331 1.224 1_556 S
O348 La321 2.554 . S
O348 C338 1.240 . S
O349 La320 2.482 1_554 S
O349 La321 2.757 . S
O349 C338 1.289 . S
O350 La321 2.470 1_556 S
O350 C339 1.258 . S
O351 La320 2.503 . S
O351 C339 1.256 . S
H352 C324 0.930 . S
H353 C325 0.930 . S
H354 C327 0.929 . S
H355 C328 0.929 . S
H356 C333 0.930 . S
H357 C334 0.930 . S
H358 C336 0.929 . S
H359 C337 0.929 . S
La360 C362 2.928 . S
La360 O380 2.521 . S
La360 O381 2.628 1_565 S
La360 O382 2.554 . S
La360 O383 2.757 . S
La360 O384 2.470 1_565 S
La360 O389 2.482 1_565 S
La360 O391 2.503 . S
La361 C371 2.928 . S
La361 O383 2.482 1_545 S
La361 O385 2.503 . S
La361 O386 2.521 . S
La361 O387 2.628 1_545 S
La361 O388 2.554 . S
La361 O389 2.757 . S
La361 O390 2.470 1_545 S
C362 La360 2.928 . S
C362 C363 1.501 . S
C362 O380 1.261 . S
C362 O381 1.243 1_565 S
C363 C362 1.501 . S
C363 C364 1.408 . S
C363 C368 1.362 1_565 S
C364 C363 1.408 . S
C364 C365 1.380 . S
C364 H392 0.930 . S
C365 C364 1.380 . S
C365 C366 1.376 1_565 S
C365 H393 0.930 . S
C366 C365 1.376 1_545 S
C366 C367 1.370 . S
C367 C366 1.370 . S
C367 C368 1.396 . S
C367 H394 0.929 . S
C368 C363 1.362 1_545 S
C368 C367 1.396 . S
C368 H395 0.929 . S
C369 O382 1.240 . S
C369 O383 1.289 . S
C370 O384 1.258 . S
C370 O385 1.256 . S
C371 La361 2.928 . S
C371 C372 1.499 . S
C371 O386 1.261 . S
C371 O387 1.243 1_545 S
C372 C371 1.499 . S
C372 C373 1.421 . S
C372 C377 1.352 1_545 S
C373 C372 1.421 . S
C373 C374 1.380 . S
C373 H396 0.930 . S
C374 C373 1.380 . S
C374 C375 1.376 1_545 S
C374 H397 0.930 . S
C375 C374 1.376 1_565 S
C375 C376 1.370 . S
C376 C375 1.370 . S
C376 C377 1.396 . S
C376 H398 0.929 . S
C377 C372 1.352 1_565 S
C377 C376 1.396 . S
C377 H399 0.929 . S
C378 O388 1.240 . S
C378 O389 1.289 . S
C379 O390 1.258 . S
C379 O391 1.256 . S
O380 La360 2.521 . S
O380 C362 1.261 . S
O381 La360 2.628 1_545 S
O381 C362 1.243 1_545 S
O382 La360 2.554 . S
O382 C369 1.240 . S
O383 La360 2.757 . S
O383 La361 2.482 1_565 S
O383 C369 1.289 . S
O384 La360 2.470 1_545 S
O384 C370 1.258 . S
O385 La361 2.503 . S
O385 C370 1.256 . S
O386 La361 2.521 . S
O386 C371 1.261 . S
O387 La361 2.628 1_565 S
O387 C371 1.243 1_565 S
O388 La361 2.554 . S
O388 C378 1.240 . S
O389 La360 2.482 1_545 S
O389 La361 2.757 . S
O389 C378 1.289 . S
O390 La361 2.470 1_565 S
O390 C379 1.258 . S
O391 La360 2.503 . S
O391 C379 1.256 . S
H392 C364 0.930 . S
H393 C365 0.930 . S
H394 C367 0.929 . S
H395 C368 0.929 . S
H396 C373 0.930 . S
H397 C374 0.930 . S
H398 C376 0.929 . S
H399 C377 0.929 . S
La400 C402 2.928 . S
La400 O420 2.521 . S
La400 O421 2.628 . S
La400 O422 2.554 . S
La400 O423 2.757 . S
La400 O424 2.470 . S
La400 O429 2.482 . S
La400 O431 2.503 . S
La401 C411 2.928 . S
La401 O423 2.482 . S
La401 O425 2.503 . S
La401 O426 2.521 . S
La401 O427 2.628 . S
La401 O428 2.554 . S
La401 O429 2.757 . S
La401 O430 2.470 . S
C402 La400 2.928 . S
C402 C403 1.503 . S
C402 O420 1.261 . S
C402 O421 1.243 . S
C403 C402 1.503 . S
C403 C404 1.394 . S
C403 C408 1.373 . S
C404 C403 1.394 . S
C404 C405 1.380 . S
C404 H432 0.930 . S
C405 C404 1.380 . S
C405 C406 1.376 . S
C405 H433 0.930 . S
C406 C405 1.376 . S
C406 C407 1.370 . S
C407 C406 1.370 . S
C407 C408 1.396 . S
C407 H434 0.929 . S
C408 C403 1.373 . S
C408 C407 1.396 . S
C408 H435 0.929 . S
C409 O422 1.240 . S
C409 O423 1.289 . S
C410 O424 1.258 . S
C410 O425 1.256 . S
C411 La401 2.928 . S
C411 C412 1.503 . S
C411 O426 1.261 . S
C411 O427 1.243 . S
C412 C411 1.503 . S
C412 C413 1.394 . S
C412 C417 1.373 . S
C413 C412 1.394 . S
C413 C414 1.380 . S
C413 H436 0.930 . S
C414 C413 1.380 . S
C414 C415 1.376 . S
C414 H437 0.930 . S
C415 C414 1.376 . S
C415 C416 1.370 . S
C416 C415 1.370 . S
C416 C417 1.396 . S
C416 H438 0.929 . S
C417 C412 1.373 . S
C417 C416 1.396 . S
C417 H439 0.929 . S
C418 O428 1.240 . S
C418 O429 1.289 . S
C419 O430 1.258 . S
C419 O431 1.256 . S
O420 La400 2.521 . S
O420 C402 1.261 . S
O421 La400 2.628 . S
O421 C402 1.243 . S
O422 La400 2.554 . S
O422 C409 1.240 . S
O423 La400 2.757 . S
O423 La401 2.482 . S
O423 C409 1.289 . S
O424 La400 2.470 . S
O424 C410 1.258 . S
O425 La401 2.503 . S
O425 C410 1.256 . S
O426 La401 2.521 . S
O426 C411 1.261 . S
O427 La401 2.628 . S
O427 C411 1.243 . S
O428 La401 2.554 . S
O428 C418 1.240 . S
O429 La400 2.482 . S
O429 La401 2.757 . S
O429 C418 1.289 . S
O430 La401 2.470 . S
O430 C419 1.258 . S
O431 La400 2.503 . S
O431 C419 1.256 . S
H432 C404 0.930 . S
H433 C405 0.930 . S
H434 C407 0.929 . S
H435 C408 0.929 . S
H436 C413 0.930 . S
H437 C414 0.930 . S
H438 C416 0.929 . S
H439 C417 0.929 . S
La440 C442 2.928 . S
La440 O460 2.521 . S
La440 O461 2.628 1_455 S
La440 O462 2.554 . S
La440 O463 2.757 . S
La440 O464 2.470 1_455 S
La440 O469 2.482 1_455 S
La440 O471 2.503 . S
La441 C451 2.928 . S
La441 O463 2.482 1_655 S
La441 O465 2.503 . S
La441 O466 2.521 . S
La441 O467 2.628 1_655 S
La441 O468 2.554 . S
La441 O469 2.757 . S
La441 O470 2.470 1_655 S
C442 La440 2.928 . S
C442 C443 1.503 . S
C442 O460 1.261 . S
C442 O461 1.243 1_455 S
C443 C442 1.503 . S
C443 C444 1.394 . S
C443 C448 1.373 1_455 S
C444 C443 1.394 . S
C444 C445 1.380 . S
C444 H472 0.930 . S
C445 C444 1.380 . S
C445 C446 1.376 1_455 S
C445 H473 0.930 . S
C446 C445 1.376 1_655 S
C446 C447 1.370 . S
C447 C446 1.370 . S
C447 C448 1.396 . S
C447 H474 0.929 . S
C448 C443 1.373 1_655 S
C448 C447 1.396 . S
C448 H475 0.929 . S
C449 O462 1.240 . S
C449 O463 1.289 . S
C450 O464 1.258 . S
C450 O465 1.256 . S
C451 La441 2.928 . S
C451 C452 1.503 . S
C451 O466 1.261 . S
C451 O467 1.243 1_655 S
C452 C451 1.503 . S
C452 C453 1.394 . S
C452 C457 1.373 1_655 S
C453 C452 1.394 . S
C453 C454 1.380 . S
C453 H476 0.930 . S
C454 C453 1.380 . S
C454 C455 1.376 1_655 S
C454 H477 0.930 . S
C455 C454 1.376 1_455 S
C455 C456 1.370 . S
C456 C455 1.370 . S
C456 C457 1.396 . S
C456 H478 0.929 . S
C457 C452 1.373 1_455 S
C457 C456 1.396 . S
C457 H479 0.929 . S
C458 O468 1.240 . S
C458 O469 1.289 . S
C459 O470 1.258 . S
C459 O471 1.256 . S
O460 La440 2.521 . S
O460 C442 1.261 . S
O461 La440 2.628 1_655 S
O461 C442 1.243 1_655 S
O462 La440 2.554 . S
O462 C449 1.240 . S
O463 La440 2.757 . S
O463 La441 2.482 1_455 S
O463 C449 1.289 . S
O464 La440 2.470 1_655 S
O464 C450 1.258 . S
O465 La441 2.503 . S
O465 C450 1.256 . S
O466 La441 2.521 . S
O466 C451 1.261 . S
O467 La441 2.628 1_455 S
O467 C451 1.243 1_455 S
O468 La441 2.554 . S
O468 C458 1.240 . S
O469 La440 2.482 1_655 S
O469 La441 2.757 . S
O469 C458 1.289 . S
O470 La441 2.470 1_455 S
O470 C459 1.258 . S
O471 La440 2.503 . S
O471 C459 1.256 . S
H472 C444 0.930 . S
H473 C445 0.930 . S
H474 C447 0.929 . S
H475 C448 0.929 . S
H476 C453 0.930 . S
H477 C454 0.930 . S
H478 C456 0.929 . S
H479 C457 0.929 . S
La480 C482 2.928 . S
La480 O500 2.521 . S
La480 O501 2.628 . S
La480 O502 2.554 . S
La480 O503 2.757 . S
La480 O504 2.470 . S
La480 O509 2.482 . S
La480 O511 2.503 . S
La481 C491 2.928 . S
La481 O503 2.482 . S
La481 O505 2.503 . S
La481 O506 2.521 . S
La481 O507 2.628 . S
La481 O508 2.554 . S
La481 O509 2.757 . S
La481 O510 2.470 . S
C482 La480 2.928 . S
C482 C483 1.503 . S
C482 O500 1.261 . S
C482 O501 1.243 . S
C483 C482 1.503 . S
C483 C484 1.394 . S
C483 C488 1.373 . S
C484 C483 1.394 . S
C484 C485 1.380 . S
C484 H512 0.930 . S
C485 C484 1.380 . S
C485 C486 1.376 . S
C485 H513 0.930 . S
C486 C485 1.376 . S
C486 C487 1.370 . S
C487 C486 1.370 . S
C487 C488 1.396 . S
C487 H514 0.929 . S
C488 C483 1.373 . S
C488 C487 1.396 . S
C488 H515 0.929 . S
C489 O502 1.240 . S
C489 O503 1.289 . S
C490 O504 1.258 . S
C490 O505 1.256 . S
C491 La481 2.928 . S
C491 C492 1.503 . S
C491 O506 1.261 . S
C491 O507 1.243 . S
C492 C491 1.503 . S
C492 C493 1.394 . S
C492 C497 1.373 . S
C493 C492 1.394 . S
C493 C494 1.380 . S
C493 H516 0.930 . S
C494 C493 1.380 . S
C494 C495 1.376 . S
C494 H517 0.930 . S
C495 C494 1.376 . S
C495 C496 1.370 . S
C496 C495 1.370 . S
C496 C497 1.396 . S
C496 H518 0.929 . S
C497 C492 1.373 . S
C497 C496 1.396 . S
C497 H519 0.929 . S
C498 O508 1.240 . S
C498 O509 1.289 . S
C499 O510 1.258 . S
C499 O511 1.256 . S
O500 La480 2.521 . S
O500 C482 1.261 . S
O501 La480 2.628 . S
O501 C482 1.243 . S
O502 La480 2.554 . S
O502 C489 1.240 . S
O503 La480 2.757 . S
O503 La481 2.482 . S
O503 C489 1.289 . S
O504 La480 2.470 . S
O504 C490 1.258 . S
O505 La481 2.503 . S
O505 C490 1.256 . S
O506 La481 2.521 . S
O506 C491 1.261 . S
O507 La481 2.628 . S
O507 C491 1.243 . S
O508 La481 2.554 . S
O508 C498 1.240 . S
O509 La480 2.482 . S
O509 La481 2.757 . S
O509 C498 1.289 . S
O510 La481 2.470 . S
O510 C499 1.258 . S
O511 La480 2.503 . S
O511 C499 1.256 . S
H512 C484 0.930 . S
H513 C485 0.930 . S
H514 C487 0.929 . S
H515 C488 0.929 . S
H516 C493 0.930 . S
H517 C494 0.930 . S
H518 C496 0.929 . S
H519 C497 0.929 . S
La520 C522 2.928 . S
La520 O540 2.521 . S
La520 O541 2.616 1_556 S
La520 O542 2.554 . S
La520 O543 2.757 . S
La520 O544 2.470 1_556 S
La520 O549 2.482 1_556 S
La520 O551 2.503 . S
La521 C531 2.928 . S
La521 O543 2.482 1_554 S
La521 O545 2.503 . S
La521 O546 2.521 . S
La521 O547 2.622 1_554 S
La521 O548 2.554 . S
La521 O549 2.757 . S
La521 O550 2.470 1_554 S
C522 La520 2.928 . S
C522 C523 1.503 . S
C522 O540 1.261 . S
C522 O541 1.207 1_556 S
C523 C522 1.503 . S
C523 C524 1.394 . S
C523 C528 1.373 1_556 S
C524 C523 1.394 . S
C524 C525 1.380 . S
C524 H552 0.930 . S
C525 C524 1.380 . S
C525 C526 1.376 . S
C525 H553 0.930 . S
C526 C525 1.376 . S
C526 C527 1.370 1_556 S
C527 C526 1.370 1_554 S
C527 C528 1.396 . S
C527 H554 0.929 . S
C528 C523 1.373 1_554 S
C528 C527 1.396 . S
C528 H555 0.929 . S
C529 O542 1.240 . S
C529 O543 1.289 . S
C530 O544 1.258 . S
C530 O545 1.256 . S
C531 La521 2.928 . S
C531 C532 1.503 . S
C531 O546 1.261 . S
C531 O547 1.224 1_554 S
C532 C531 1.503 . S
C532 C533 1.394 . S
C532 C537 1.373 1_554 S
C533 C532 1.394 . S
C533 C534 1.380 . S
C533 H556 0.930 . S
C534 C533 1.380 . S
C534 C535 1.376 . S
C534 H557 0.930 . S
C535 C534 1.376 . S
C535 C536 1.370 1_554 S
C536 C535 1.370 1_556 S
C536 C537 1.396 . S
C536 H558 0.929 . S
C537 C532 1.373 1_556 S
C537 C536 1.396 . S
C537 H559 0.929 . S
C538 O548 1.240 . S
C538 O549 1.289 . S
C539 O550 1.258 . S
C539 O551 1.256 . S
O540 La520 2.521 . S
O540 C522 1.261 . S
O541 La520 2.616 1_554 S
O541 C522 1.207 1_554 S
O542 La520 2.554 . S
O542 C529 1.240 . S
O543 La520 2.757 . S
O543 La521 2.482 1_556 S
O543 C529 1.289 . S
O544 La520 2.470 1_554 S
O544 C530 1.258 . S
O545 La521 2.503 . S
O545 C530 1.256 . S
O546 La521 2.521 . S
O546 C531 1.261 . S
O547 La521 2.622 1_556 S
O547 C531 1.224 1_556 S
O548 La521 2.554 . S
O548 C538 1.240 . S
O549 La520 2.482 1_554 S
O549 La521 2.757 . S
O549 C538 1.289 . S
O550 La521 2.470 1_556 S
O550 C539 1.258 . S
O551 La520 2.503 . S
O551 C539 1.256 . S
H552 C524 0.930 . S
H553 C525 0.930 . S
H554 C527 0.929 . S
H555 C528 0.929 . S
H556 C533 0.930 . S
H557 C534 0.930 . S
H558 C536 0.929 . S
H559 C537 0.929 . S
La560 C562 2.928 . S
La560 O580 2.521 . S
La560 O581 2.628 . S
La560 O582 2.554 . S
La560 O583 2.757 . S
La560 O584 2.470 . S
La560 O589 2.482 1_565 S
La560 O591 2.503 1_565 S
La561 C571 2.928 . S
La561 O583 2.482 1_545 S
La561 O585 2.503 1_545 S
La561 O586 2.521 . S
La561 O587 2.628 . S
La561 O588 2.554 . S
La561 O589 2.757 . S
La561 O590 2.470 . S
C562 La560 2.928 . S
C562 C563 1.503 . S
C562 O580 1.261 . S
C562 O581 1.243 . S
C563 C562 1.503 . S
C563 C564 1.394 . S
C563 C568 1.373 . S
C564 C563 1.394 . S
C564 C565 1.380 . S
C564 H592 0.930 . S
C565 C564 1.380 . S
C565 C566 1.376 . S
C565 H593 0.930 . S
C566 C565 1.376 . S
C566 C567 1.370 . S
C567 C566 1.370 . S
C567 C568 1.396 . S
C567 H594 0.929 . S
C568 C563 1.373 . S
C568 C567 1.396 . S
C568 H595 0.929 . S
C569 O582 1.240 . S
C569 O583 1.289 . S
C570 O584 1.258 . S
C570 O585 1.256 . S
C571 La561 2.928 . S
C571 C572 1.503 . S
C571 O586 1.261 . S
C571 O587 1.243 . S
C572 C571 1.503 . S
C572 C573 1.394 . S
C572 C577 1.373 . S
C573 C572 1.394 . S
C573 C574 1.380 . S
C573 H596 0.930 . S
C574 C573 1.380 . S
C574 C575 1.376 . S
C574 H597 0.930 . S
C575 C574 1.376 . S
C575 C576 1.370 . S
C576 C575 1.370 . S
C576 C577 1.396 . S
C576 H598 0.929 . S
C577 C572 1.373 . S
C577 C576 1.396 . S
C577 H599 0.929 . S
C578 O588 1.240 . S
C578 O589 1.289 . S
C579 O590 1.258 . S
C579 O591 1.256 . S
O580 La560 2.521 . S
O580 C562 1.261 . S
O581 La560 2.628 . S
O581 C562 1.243 . S
O582 La560 2.554 . S
O582 C569 1.240 . S
O583 La560 2.757 . S
O583 La561 2.482 1_565 S
O583 C569 1.289 . S
O584 La560 2.470 . S
O584 C570 1.258 . S
O585 La561 2.503 1_565 S
O585 C570 1.256 . S
O586 La561 2.521 . S
O586 C571 1.261 . S
O587 La561 2.628 . S
O587 C571 1.243 . S
O588 La561 2.554 . S
O588 C578 1.240 . S
O589 La560 2.482 1_545 S
O589 La561 2.757 . S
O589 C578 1.289 . S
O590 La561 2.470 . S
O590 C579 1.258 . S
O591 La560 2.503 1_545 S
O591 C579 1.256 . S
H592 C564 0.930 . S
H593 C565 0.930 . S
H594 C567 0.929 . S
H595 C568 0.929 . S
H596 C573 0.930 . S
H597 C574 0.930 . S
H598 C576 0.929 . S
H599 C577 0.929 . S
La600 C602 2.928 . S
La600 O620 2.521 . S
La600 O621 2.628 . S
La600 O622 2.554 . S
La600 O623 2.757 . S
La600 O624 2.470 1_554 S
La600 O629 2.482 1_554 S
La600 O631 2.503 . S
La601 C611 2.928 . S
La601 O623 2.482 1_556 S
La601 O625 2.503 . S
La601 O626 2.521 . S
La601 O627 2.628 . S
La601 O628 2.554 . S
La601 O629 2.757 . S
La601 O630 2.470 1_556 S
C602 La600 2.928 . S
C602 C603 1.503 . S
C602 O620 1.261 . S
C602 O621 1.243 . S
C603 C602 1.503 . S
C603 C604 1.394 . S
C603 C608 1.373 . S
C604 C603 1.394 . S
C604 C605 1.380 . S
C604 H632 0.930 . S
C605 C604 1.380 . S
C605 C606 1.376 . S
C605 H633 0.930 . S
C606 C605 1.376 . S
C606 C607 1.370 . S
C607 C606 1.370 . S
C607 C608 1.396 . S
C607 H634 0.962 . S
C608 C603 1.373 . S
C608 C607 1.396 . S
C608 H635 0.929 1_554 S
C609 O622 1.240 . S
C609 O623 1.289 . S
C610 O624 1.258 . S
C610 O625 1.256 . S
C611 La601 2.928 . S
C611 C612 1.503 . S
C611 O626 1.261 . S
C611 O627 1.243 . S
C612 C611 1.503 . S
C612 C613 1.394 . S
C612 C617 1.373 . S
C613 C612 1.394 . S
C613 C614 1.380 . S
C613 H636 0.930 . S
C614 C613 1.380 . S
C614 C615 1.376 . S
C614 H637 0.930 . S
C615 C614 1.376 . S
C615 C616 1.370 . S
C616 C615 1.370 . S
C616 C617 1.396 . S
C616 H638 0.943 . S
C617 C612 1.373 . S
C617 C616 1.396 . S
C617 H639 0.929 1_556 S
C618 O628 1.240 . S
C618 O629 1.289 . S
C619 O630 1.258 . S
C619 O631 1.256 . S
O620 La600 2.521 . S
O620 C602 1.261 . S
O621 La600 2.628 . S
O621 C602 1.243 . S
O622 La600 2.554 . S
O622 C609 1.240 . S
O623 La600 2.757 . S
O623 La601 2.482 1_554 S
O623 C609 1.289 . S
O624 La600 2.470 1_556 S
O624 C610 1.258 . S
O625 La601 2.503 . S
O625 C610 1.256 . S
O626 La601 2.521 . S
O626 C611 1.261 . S
O627 La601 2.628 . S
O627 C611 1.243 . S
O628 La601 2.554 . S
O628 C618 1.240 . S
O629 La600 2.482 1_556 S
O629 La601 2.757 . S
O629 C618 1.289 . S
O630 La601 2.470 1_554 S
O630 C619 1.258 . S
O631 La600 2.503 . S
O631 C619 1.256 . S
H632 C604 0.930 . S
H633 C605 0.930 . S
H634 C607 0.962 . S
H635 C608 0.929 1_556 S
H636 C613 0.930 . S
H637 C614 0.930 . S
H638 C616 0.943 . S
H639 C617 0.929 1_554 S
H640 C658 0.951 1_455 S
H641 C660 0.951 1_455 S
H642 C662 0.950 . S
H643 C663 0.950 . S
H644 C665 0.955 . S
H645 C668 0.950 . S
H646 C669 0.950 . S
H647 C671 0.950 . S
H648 C672 0.950 . S
H649 C673 0.951 . S
H650 C675 0.951 . S
H651 C677 0.950 . S
H652 C678 0.950 . S
H653 C680 0.950 . S
H654 C683 0.950 . S
H655 C684 0.950 . S
H656 C686 0.921 1_556 S
H657 C687 0.950 1_655 S
C658 H640 0.951 1_655 S
C658 C659 1.366 . S
C658 C660 1.388 . S
C659 C658 1.366 . S
C659 C663 1.385 . S
C660 H641 0.951 1_655 S
C660 C658 1.388 . S
C660 C661 1.366 . S
C661 C660 1.366 . S
C661 C662 1.414 . S
C661 C664 1.499 . S
C662 H642 0.950 . S
C662 C661 1.414 . S
C662 C663 1.374 . S
C663 H643 0.950 . S
C663 C659 1.385 . S
C663 C662 1.374 . S
C664 C661 1.499 . S
C664 C665 1.344 1_655 S
C664 C666 1.389 . S
C665 H644 0.955 . S
C665 C664 1.344 1_455 S
C665 C681 1.403 . S
C666 C664 1.389 . S
C666 C667 1.524 . S
C666 C680 1.377 . S
C667 C666 1.524 . S
C667 C668 1.397 . S
C667 C672 1.363 . S
C668 H645 0.950 . S
C668 C667 1.397 . S
C668 C669 1.334 . S
C669 H646 0.950 . S
C669 C668 1.334 . S
C669 C670 1.287 . S
C670 C669 1.287 . S
C670 C671 1.524 . S
C670 H689 0.913 . S
C671 H647 0.950 . S
C671 C670 1.524 . S
C671 C672 1.415 . S
C672 H648 0.950 . S
C672 C667 1.363 . S
C672 C671 1.415 . S
C673 H649 0.951 . S
C673 C674 1.366 1_655 S
C673 C675 1.388 . S
C674 C673 1.366 1_455 S
C674 C678 1.385 . S
C675 H650 0.951 . S
C675 C673 1.388 . S
C675 C676 1.366 1_655 S
C676 C675 1.366 1_455 S
C676 C677 1.414 . S
C676 C679 1.492 1_455 S
C677 H651 0.950 . S
C677 C676 1.414 . S
C677 C678 1.374 . S
C678 H652 0.950 . S
C678 C674 1.385 . S
C678 C677 1.374 . S
C679 C676 1.492 1_655 S
C679 C680 1.383 . S
C679 C681 1.388 1_655 S
C680 H653 0.950 . S
C680 C666 1.377 . S
C680 C679 1.383 . S
C681 C665 1.403 . S
C681 C679 1.388 1_455 S
C681 C682 1.524 . S
C682 C681 1.524 . S
C682 C683 1.397 . S
C682 C687 1.363 . S
C683 H654 0.950 . S
C683 C682 1.397 . S
C683 C684 1.334 . S
C684 H655 0.950 . S
C684 C683 1.334 . S
C684 C685 1.287 . S
C685 C684 1.287 . S
C685 C686 1.524 . S
C685 H688 0.999 . S
C686 H656 0.921 1_554 S
C686 C685 1.524 . S
C686 C687 1.415 . S
C687 H657 0.950 1_455 S
C687 C682 1.363 . S
C687 C686 1.415 . S
H688 C685 0.999 . S
H689 C670 0.913 . S
H690 C708 0.951 . S
H691 C710 0.951 . S
H692 C712 0.950 . S
H693 C713 0.950 . S
H694 C715 0.950 . S
H695 C718 0.950 . S
H696 C719 0.950 . S
H697 C721 0.950 . S
H698 C722 0.950 . S
H699 C723 0.951 . S
H700 C725 0.951 . S
H701 C727 0.950 . S
H702 C728 0.950 . S
H703 C730 0.950 . S
H704 C733 0.950 . S
H705 C734 0.950 . S
H706 C736 0.950 . S
H707 C737 0.950 . S
C708 H690 0.951 . S
C708 C709 1.366 . S
C708 C710 1.388 . S
C709 C708 1.366 . S
C709 C713 1.385 . S
C710 H691 0.951 . S
C710 C708 1.388 . S
C710 C711 1.366 . S
C711 C710 1.366 . S
C711 C712 1.414 . S
C711 C714 1.499 . S
C712 H692 0.950 . S
C712 C711 1.414 . S
C712 C713 1.374 . S
C713 H693 0.950 . S
C713 C709 1.385 . S
C713 C712 1.374 . S
C714 C711 1.499 . S
C714 C715 1.373 . S
C714 C716 1.389 . S
C715 H694 0.950 . S
C715 C714 1.373 . S
C715 C731 1.377 . S
C716 C714 1.389 . S
C716 C717 1.524 . S
C716 C730 1.377 . S
C717 C716 1.524 . S
C717 C718 1.397 . S
C717 C722 1.363 . S
C718 H695 0.950 . S
C718 C717 1.397 . S
C718 C719 1.334 . S
C719 H696 0.950 . S
C719 C718 1.334 . S
C719 C720 1.287 . S
C720 C719 1.287 . S
C720 C721 1.524 . S
C720 H739 0.913 . S
C721 H697 0.950 . S
C721 C720 1.524 . S
C721 C722 1.415 . S
C722 H698 0.950 . S
C722 C717 1.363 . S
C722 C721 1.415 . S
C723 H699 0.951 . S
C723 C724 1.366 . S
C723 C725 1.388 . S
C724 C723 1.366 . S
C724 C728 1.385 . S
C725 H700 0.951 . S
C725 C723 1.388 . S
C725 C726 1.366 . S
C726 C725 1.366 . S
C726 C727 1.414 . S
C726 C729 1.499 . S
C727 H701 0.950 . S
C727 C726 1.414 . S
C727 C728 1.374 . S
C728 H702 0.950 . S
C728 C724 1.385 . S
C728 C727 1.374 . S
C729 C726 1.499 . S
C729 C730 1.373 . S
C729 C731 1.389 . S
C730 H703 0.950 . S
C730 C716 1.377 . S
C730 C729 1.373 . S
C731 C715 1.377 . S
C731 C729 1.389 . S
C731 C732 1.524 . S
C732 C731 1.524 . S
C732 C733 1.397 . S
C732 C737 1.363 . S
C733 H704 0.950 . S
C733 C732 1.397 . S
C733 C734 1.334 . S
C734 H705 0.950 . S
C734 C733 1.334 . S
C734 C735 1.287 . S
C735 C734 1.287 . S
C735 C736 1.524 . S
C735 H738 0.999 . S
C736 H706 0.950 . S
C736 C735 1.524 . S
C736 C737 1.415 . S
C737 H707 0.950 . S
C737 C732 1.363 . S
C737 C736 1.415 . S
H738 C735 0.999 . S
H739 C720 0.913 . S
H740 C758 0.951 . S
H741 C760 0.951 . S
H742 C762 0.950 . S
H743 C763 0.950 . S
H744 C765 0.950 . S
H745 C768 0.950 . S
H746 C769 0.950 . S
H747 C771 0.950 . S
H748 C772 0.950 . S
H749 C773 0.951 . S
H750 C775 0.951 . S
H751 C777 0.950 . S
H752 C778 0.950 . S
H753 C780 0.950 . S
H754 C783 0.950 . S
H755 C784 0.950 . S
H756 C786 0.950 . S
H757 C787 0.950 . S
C758 H740 0.951 . S
C758 C759 1.366 . S
C758 C760 1.388 . S
C759 C758 1.366 . S
C759 C763 1.385 . S
C760 H741 0.951 . S
C760 C758 1.388 . S
C760 C761 1.366 . S
C761 C760 1.366 . S
C761 C762 1.414 . S
C761 C764 1.499 . S
C762 H742 0.950 . S
C762 C761 1.414 . S
C762 C763 1.374 . S
C763 H743 0.950 . S
C763 C759 1.385 . S
C763 C762 1.374 . S
C764 C761 1.499 . S
C764 C765 1.373 . S
C764 C766 1.389 . S
C765 H744 0.950 . S
C765 C764 1.373 . S
C765 C781 1.377 . S
C766 C764 1.389 . S
C766 C767 1.524 . S
C766 C780 1.377 . S
C767 C766 1.524 . S
C767 C768 1.397 . S
C767 C772 1.363 . S
C768 H745 0.950 . S
C768 C767 1.397 . S
C768 C769 1.334 . S
C769 H746 0.950 . S
C769 C768 1.334 . S
C769 C770 1.287 . S
C770 C769 1.287 . S
C770 C771 1.524 . S
C770 H789 0.913 . S
C771 H747 0.950 . S
C771 C770 1.524 . S
C771 C772 1.415 . S
C772 H748 0.950 . S
C772 C767 1.363 . S
C772 C771 1.415 . S
C773 H749 0.951 . S
C773 C774 1.366 . S
C773 C775 1.388 . S
C774 C773 1.366 . S
C774 C778 1.385 . S
C775 H750 0.951 . S
C775 C773 1.388 . S
C775 C776 1.366 . S
C776 C775 1.366 . S
C776 C777 1.414 . S
C776 C779 1.499 . S
C777 H751 0.950 . S
C777 C776 1.414 . S
C777 C778 1.374 . S
C778 H752 0.950 . S
C778 C774 1.385 . S
C778 C777 1.374 . S
C779 C776 1.499 . S
C779 C780 1.373 . S
C779 C781 1.389 . S
C780 H753 0.950 . S
C780 C766 1.377 . S
C780 C779 1.373 . S
C781 C765 1.377 . S
C781 C779 1.389 . S
C781 C782 1.524 . S
C782 C781 1.524 . S
C782 C783 1.397 . S
C782 C787 1.363 . S
C783 H754 0.950 . S
C783 C782 1.397 . S
C783 C784 1.334 . S
C784 H755 0.950 . S
C784 C783 1.334 . S
C784 C785 1.287 . S
C785 C784 1.287 . S
C785 C786 1.524 . S
C785 H788 0.999 . S
C786 H756 0.950 . S
C786 C785 1.524 . S
C786 C787 1.415 . S
C787 H757 0.950 . S
C787 C782 1.363 . S
C787 C786 1.415 . S
H788 C785 0.999 . S
H789 C770 0.913 . S
H790 C808 0.951 . S
H791 C810 0.951 . S
H792 C812 0.950 1_565 S
H793 C813 0.950 1_565 S
H794 C815 0.950 . S
H795 C818 0.950 . S
H796 C819 0.950 . S
H797 C821 0.950 . S
H798 C822 0.950 . S
H799 C823 0.951 . S
H800 C825 0.951 . S
H801 C827 0.950 . S
H802 C828 0.950 . S
H803 C830 0.950 . S
H804 C833 0.950 . S
H805 C834 0.950 . S
H806 C836 0.950 . S
H807 C837 0.950 . S
C808 H790 0.951 . S
C808 C809 1.366 . S
C808 C810 1.388 . S
C809 C808 1.366 . S
C809 C813 1.385 . S
C810 H791 0.951 . S
C810 C808 1.388 . S
C810 C811 1.366 . S
C811 C810 1.366 . S
C811 C812 1.414 . S
C811 C814 1.499 . S
C812 H792 0.950 1_545 S
C812 C811 1.414 . S
C812 C813 1.374 . S
C813 H793 0.950 1_545 S
C813 C809 1.385 . S
C813 C812 1.374 . S
C814 C811 1.499 . S
C814 C815 1.373 . S
C814 C816 1.389 . S
C815 H794 0.950 . S
C815 C814 1.373 . S
C815 C831 1.377 . S
C816 C814 1.389 . S
C816 C817 1.524 . S
C816 C830 1.377 . S
C817 C816 1.524 . S
C817 C818 1.397 1_545 S
C817 C822 1.363 . S
C818 H795 0.950 . S
C818 C817 1.397 1_565 S
C818 C819 1.334 1_556 S
C819 H796 0.950 . S
C819 C818 1.334 1_554 S
C819 C820 1.287 1_565 S
C820 C819 1.287 1_545 S
C820 C821 1.524 . S
C820 H839 0.913 . S
C821 H797 0.950 . S
C821 C820 1.524 . S
C821 C822 1.415 1_554 S
C822 H798 0.950 . S
C822 C817 1.363 . S
C822 C821 1.415 1_556 S
C823 H799 0.951 . S
C823 C824 1.366 . S
C823 C825 1.388 . S
C824 C823 1.366 . S
C824 C828 1.385 1_565 S
C825 H800 0.951 . S
C825 C823 1.388 . S
C825 C826 1.366 1_565 S
C826 C825 1.366 1_545 S
C826 C827 1.414 . S
C826 C829 1.499 . S
C827 H801 0.950 . S
C827 C826 1.414 . S
C827 C828 1.374 . S
C828 H802 0.950 . S
C828 C824 1.385 1_545 S
C828 C827 1.374 . S
C829 C826 1.499 . S
C829 C830 1.373 . S
C829 C831 1.389 . S
C830 H803 0.950 . S
C830 C816 1.377 . S
C830 C829 1.373 . S
C831 C815 1.377 . S
C831 C829 1.389 . S
C831 C832 1.524 . S
C832 C831 1.524 . S
C832 C833 1.397 . S
C832 C837 1.363 1_545 S
C833 H804 0.950 . S
C833 C832 1.397 . S
C833 C834 1.334 . S
C834 H805 0.950 . S
C834 C833 1.334 . S
C834 C835 1.287 . S
C835 C834 1.287 . S
C835 C836 1.524 1_545 S
C835 H838 0.999 . S
C836 H806 0.950 . S
C836 C835 1.524 1_565 S
C836 C837 1.415 . S
C837 H807 0.950 . S
C837 C832 1.363 1_565 S
C837 C836 1.415 . S
H838 C835 0.999 . S
H839 C820 0.913 . S
H840 C858 0.951 . S
H841 C860 0.951 . S
H842 C862 0.950 . S
H843 C863 0.950 . S
H844 C865 0.953 . S
H845 C868 0.950 . S
H846 C869 0.950 . S
H847 C871 0.921 1_556 S
H848 C872 0.950 . S
H849 C873 0.952 1_565 S
H850 C875 0.951 . S
H851 C877 0.950 . S
H852 C878 0.950 . S
H853 C880 0.950 . S
H854 C883 0.950 . S
H855 C884 0.950 . S
H856 C886 0.950 . S
H857 C887 0.950 . S
C858 H840 0.951 . S
C858 C859 1.366 . S
C858 C860 1.388 . S
C859 C858 1.366 . S
C859 C863 1.385 . S
C860 H841 0.951 . S
C860 C858 1.388 . S
C860 C861 1.366 . S
C861 C860 1.366 . S
C861 C862 1.414 . S
C861 C864 1.499 . S
C862 H842 0.950 . S
C862 C861 1.414 . S
C862 C863 1.374 . S
C863 H843 0.950 . S
C863 C859 1.385 . S
C863 C862 1.374 . S
C864 C861 1.499 . S
C864 C865 1.358 1_565 S
C864 C866 1.389 . S
C865 H844 0.953 . S
C865 C864 1.358 1_545 S
C865 C881 1.389 . S
C866 C864 1.389 . S
C866 C867 1.524 . S
C866 C880 1.377 . S
C867 C866 1.524 . S
C867 C868 1.397 . S
C867 C872 1.363 . S
C868 H845 0.950 . S
C868 C867 1.397 . S
C868 C869 1.334 . S
C869 H846 0.950 . S
C869 C868 1.334 . S
C869 C870 1.287 . S
C870 C869 1.287 . S
C870 C871 1.524 . S
C870 H889 0.913 . S
C871 H847 0.921 1_554 S
C871 C870 1.524 . S
C871 C872 1.415 . S
C872 H848 0.950 . S
C872 C867 1.363 . S
C872 C871 1.415 . S
C873 H849 0.952 1_545 S
C873 C874 1.366 . S
C873 C875 1.388 1_545 S
C874 C873 1.366 . S
C874 C878 1.385 . S
C875 H850 0.951 . S
C875 C873 1.388 1_565 S
C875 C876 1.368 1_565 S
C876 C875 1.368 1_545 S
C876 C877 1.433 . S
C876 C879 1.478 1_545 S
C877 H851 0.950 . S
C877 C876 1.433 . S
C877 C878 1.374 . S
C878 H852 0.950 . S
C878 C874 1.385 . S
C878 C877 1.374 . S
C879 C876 1.478 1_565 S
C879 C880 1.373 . S
C879 C881 1.389 1_565 S
C880 H853 0.950 . S
C880 C866 1.377 . S
C880 C879 1.373 . S
C881 C865 1.389 . S
C881 C879 1.389 1_545 S
C881 C882 1.524 . S
C882 C881 1.524 . S
C882 C883 1.397 . S
C882 C887 1.363 . S
C883 H854 0.950 . S
C883 C882 1.397 . S
C883 C884 1.334 . S
C884 H855 0.950 . S
C884 C883 1.334 . S
C884 C885 1.287 . S
C885 C884 1.287 . S
C885 C886 1.524 . S
C885 H888 0.999 . S
C886 H856 0.950 . S
C886 C885 1.524 . S
C886 C887 1.415 . S
C887 H857 0.950 . S
C887 C882 1.363 . S
C887 C886 1.415 . S
H888 C885 0.999 . S
H889 C870 0.913 . S
H890 C908 0.951 . S
H891 C910 0.951 . S
H892 C912 0.950 . S
H893 C913 0.950 . S
H894 C915 0.950 . S
H895 C918 0.950 1_455 S
H896 C919 0.950 . S
H897 C921 0.950 . S
H898 C922 0.950 . S
H899 C923 0.951 . S
H900 C925 0.951 . S
H901 C927 0.950 . S
H902 C928 0.950 . S
H903 C930 0.950 . S
H904 C933 0.950 . S
H905 C934 0.950 . S
H906 C936 0.950 . S
H907 C937 0.950 . S
C908 H890 0.951 . S
C908 C909 1.366 1_655 S
C908 C910 1.388 . S
C909 C908 1.366 1_455 S
C909 C913 1.385 . S
C910 H891 0.951 . S
C910 C908 1.388 . S
C910 C911 1.366 1_655 S
C911 C910 1.366 1_455 S
C911 C912 1.414 . S
C911 C914 1.499 . S
C912 H892 0.950 . S
C912 C911 1.414 . S
C912 C913 1.374 . S
C913 H893 0.950 . S
C913 C909 1.385 . S
C913 C912 1.374 . S
C914 C911 1.499 . S
C914 C915 1.373 . S
C914 C916 1.389 1_455 S
C915 H894 0.950 . S
C915 C914 1.373 . S
C915 C931 1.377 . S
C916 C914 1.389 1_655 S
C916 C917 1.524 . S
C916 C930 1.377 . S
C917 C916 1.524 . S
C917 C918 1.397 . S
C917 C922 1.363 . S
C918 H895 0.950 1_655 S
C918 C917 1.397 . S
C918 C919 1.334 . S
C919 H896 0.950 . S
C919 C918 1.334 . S
C919 C920 1.287 . S
C920 C919 1.287 . S
C920 C921 1.524 . S
C920 H939 0.913 . S
C921 H897 0.950 . S
C921 C920 1.524 . S
C921 C922 1.415 . S
C922 H898 0.950 . S
C922 C917 1.363 . S
C922 C921 1.415 . S
C923 H899 0.951 . S
C923 C924 1.366 1_455 S
C923 C925 1.388 . S
C924 C923 1.366 1_655 S
C924 C928 1.385 . S
C925 H900 0.951 . S
C925 C923 1.388 . S
C925 C926 1.365 1_455 S
C926 C925 1.365 1_655 S
C926 C927 1.415 . S
C926 C929 1.498 1_655 S
C927 H901 0.950 . S
C927 C926 1.415 . S
C927 C928 1.374 . S
C928 H902 0.950 . S
C928 C924 1.385 . S
C928 C927 1.374 . S
C929 C926 1.498 1_455 S
C929 C930 1.373 1_455 S
C929 C931 1.389 . S
C930 H903 0.950 . S
C930 C916 1.377 . S
C930 C929 1.373 1_655 S
C931 C915 1.377 . S
C931 C929 1.389 . S
C931 C932 1.524 . S
C932 C931 1.524 . S
C932 C933 1.397 . S
C932 C937 1.363 . S
C933 H904 0.950 . S
C933 C932 1.397 . S
C933 C934 1.334 . S
C934 H905 0.950 . S
C934 C933 1.334 . S
C934 C935 1.287 . S
C935 C934 1.287 . S
C935 C936 1.524 . S
C935 H938 0.999 . S
C936 H906 0.950 . S
C936 C935 1.524 . S
C936 C937 1.415 . S
C937 H907 0.950 . S
C937 C932 1.363 . S
C937 C936 1.415 . S
H938 C935 0.999 . S
H939 C920 0.913 . S
H940 C958 0.951 . S
H941 C960 0.951 . S
H942 C962 0.950 . S
H943 C963 0.950 . S
H944 C965 0.950 . S
H945 C968 0.950 . S
H946 C969 0.950 . S
H947 C971 0.950 . S
H948 C972 0.950 . S
H949 C973 0.951 . S
H950 C975 0.951 . S
H951 C977 0.950 . S
H952 C978 0.950 . S
H953 C980 0.950 . S
H954 C983 0.950 . S
H955 C984 0.950 . S
H956 C986 0.950 . S
H957 C987 0.950 . S
C958 H940 0.951 . S
C958 C959 1.366 . S
C958 C960 1.388 . S
C959 C958 1.366 . S
C959 C963 1.385 . S
C960 H941 0.951 . S
C960 C958 1.388 . S
C960 C961 1.366 . S
C961 C960 1.366 . S
C961 C962 1.414 . S
C961 C964 1.499 . S
C962 H942 0.950 . S
C962 C961 1.414 . S
C962 C963 1.374 . S
C963 H943 0.950 . S
C963 C959 1.385 . S
C963 C962 1.374 . S
C964 C961 1.499 . S
C964 C965 1.373 . S
C964 C966 1.389 . S
C965 H944 0.950 . S
C965 C964 1.373 . S
C965 C981 1.377 . S
C966 C964 1.389 . S
C966 C967 1.524 . S
C966 C980 1.377 . S
C967 C966 1.524 . S
C967 C968 1.397 . S
C967 C972 1.363 . S
C968 H945 0.950 . S
C968 C967 1.397 . S
C968 C969 1.334 . S
C969 H946 0.950 . S
C969 C968 1.334 . S
C969 C970 1.287 . S
C970 C969 1.287 . S
C970 C971 1.524 . S
C970 H989 0.913 . S
C971 H947 0.950 . S
C971 C970 1.524 . S
C971 C972 1.415 . S
C972 H948 0.950 . S
C972 C967 1.363 . S
C972 C971 1.415 . S
C973 H949 0.951 . S
C973 C974 1.366 . S
C973 C975 1.388 . S
C974 C973 1.366 . S
C974 C978 1.385 . S
C975 H950 0.951 . S
C975 C973 1.388 . S
C975 C976 1.366 . S
C976 C975 1.366 . S
C976 C977 1.414 . S
C976 C979 1.499 . S
C977 H951 0.950 . S
C977 C976 1.414 . S
C977 C978 1.374 . S
C978 H952 0.950 . S
C978 C974 1.385 . S
C978 C977 1.374 . S
C979 C976 1.499 . S
C979 C980 1.373 . S
C979 C981 1.389 . S
C980 H953 0.950 . S
C980 C966 1.377 . S
C980 C979 1.373 . S
C981 C965 1.377 . S
C981 C979 1.389 . S
C981 C982 1.524 . S
C982 C981 1.524 . S
C982 C983 1.397 . S
C982 C987 1.363 . S
C983 H954 0.950 . S
C983 C982 1.397 . S
C983 C984 1.334 . S
C984 H955 0.950 . S
C984 C983 1.334 . S
C984 C985 1.287 . S
C985 C984 1.287 . S
C985 C986 1.524 . S
C985 H988 0.999 . S
C986 H956 0.950 . S
C986 C985 1.524 . S
C986 C987 1.415 . S
C987 H957 0.950 . S
C987 C982 1.363 . S
C987 C986 1.415 . S
H988 C985 0.999 . S
H989 C970 0.913 . S
H990 C1008 0.951 . S
H991 C1010 0.951 . S
H992 C1012 0.950 . S
H993 C1013 0.950 . S
H994 C1015 0.950 . S
H995 C1018 0.950 . S
H996 C1019 0.950 . S
H997 C1021 0.950 . S
H998 C1022 0.950 . S
H999 C1023 0.951 . S
H1000 C1025 0.951 . S
H1001 C1027 0.950 . S
H1002 C1028 0.950 . S
H1003 C1030 0.950 . S
H1004 C1033 0.950 . S
H1005 C1034 0.950 . S
H1006 C1036 0.950 . S
H1007 C1037 0.950 . S
C1008 H990 0.951 . S
C1008 C1009 1.366 . S
C1008 C1010 1.388 . S
C1009 C1008 1.366 . S
C1009 C1013 1.385 . S
C1010 H991 0.951 . S
C1010 C1008 1.388 . S
C1010 C1011 1.366 . S
C1011 C1010 1.366 . S
C1011 C1012 1.414 . S
C1011 C1014 1.499 . S
C1012 H992 0.950 . S
C1012 C1011 1.414 . S
C1012 C1013 1.374 . S
C1013 H993 0.950 . S
C1013 C1009 1.385 . S
C1013 C1012 1.374 . S
C1014 C1011 1.499 . S
C1014 C1015 1.373 . S
C1014 C1016 1.389 . S
C1015 H994 0.950 . S
C1015 C1014 1.373 . S
C1015 C1031 1.377 . S
C1016 C1014 1.389 . S
C1016 C1017 1.524 . S
C1016 C1030 1.377 . S
C1017 C1016 1.524 . S
C1017 C1018 1.397 . S
C1017 C1022 1.363 . S
C1018 H995 0.950 . S
C1018 C1017 1.397 . S
C1018 C1019 1.334 . S
C1019 H996 0.950 . S
C1019 C1018 1.334 . S
C1019 C1020 1.287 . S
C1020 C1019 1.287 . S
C1020 C1021 1.524 . S
C1020 H1039 0.913 . S
C1021 H997 0.950 . S
C1021 C1020 1.524 . S
C1021 C1022 1.415 . S
C1022 H998 0.950 . S
C1022 C1017 1.363 . S
C1022 C1021 1.415 . S
C1023 H999 0.951 . S
C1023 C1024 1.366 . S
C1023 C1025 1.388 . S
C1024 C1023 1.366 . S
C1024 C1028 1.385 . S
C1025 H1000 0.951 . S
C1025 C1023 1.388 . S
C1025 C1026 1.366 . S
C1026 C1025 1.366 . S
C1026 C1027 1.414 . S
C1026 C1029 1.499 . S
C1027 H1001 0.950 . S
C1027 C1026 1.414 . S
C1027 C1028 1.374 . S
C1028 H1002 0.950 . S
C1028 C1024 1.385 . S
C1028 C1027 1.374 . S
C1029 C1026 1.499 . S
C1029 C1030 1.373 . S
C1029 C1031 1.389 . S
C1030 H1003 0.950 . S
C1030 C1016 1.377 . S
C1030 C1029 1.373 . S
C1031 C1015 1.377 . S
C1031 C1029 1.389 . S
C1031 C1032 1.524 . S
C1032 C1031 1.524 . S
C1032 C1033 1.397 . S
C1032 C1037 1.363 . S
C1033 H1004 0.950 . S
C1033 C1032 1.397 . S
C1033 C1034 1.334 . S
C1034 H1005 0.950 . S
C1034 C1033 1.334 . S
C1034 C1035 1.287 . S
C1035 C1034 1.287 . S
C1035 C1036 1.524 . S
C1035 H1038 0.999 . S
C1036 H1006 0.950 . S
C1036 C1035 1.524 . S
C1036 C1037 1.415 . S
C1037 H1007 0.950 . S
C1037 C1032 1.363 . S
C1037 C1036 1.415 . S
H1038 C1035 0.999 . S
H1039 C1020 0.913 . S
H1040 C1058 0.951 . S
H1041 C1060 0.951 . S
H1042 C1062 0.950 . S
H1043 C1063 0.950 . S
H1044 C1065 0.950 . S
H1045 C1068 0.950 . S
H1046 C1069 0.950 . S
H1047 C1071 0.950 . S
H1048 C1072 0.950 . S
H1049 C1073 0.951 . S
H1050 C1075 0.951 . S
H1051 C1077 0.950 . S
H1052 C1078 0.950 . S
H1053 C1080 0.950 . S
H1054 C1083 0.950 . S
H1055 C1084 0.950 . S
H1056 C1086 0.950 . S
H1057 C1087 0.950 . S
C1058 H1040 0.951 . S
C1058 C1059 1.366 . S
C1058 C1060 1.388 . S
C1059 C1058 1.366 . S
C1059 C1063 1.385 . S
C1060 H1041 0.951 . S
C1060 C1058 1.388 . S
C1060 C1061 1.366 . S
C1061 C1060 1.366 . S
C1061 C1062 1.414 . S
C1061 C1064 1.499 . S
C1062 H1042 0.950 . S
C1062 C1061 1.414 . S
C1062 C1063 1.374 . S
C1063 H1043 0.950 . S
C1063 C1059 1.385 . S
C1063 C1062 1.374 . S
C1064 C1061 1.499 . S
C1064 C1065 1.373 . S
C1064 C1066 1.389 . S
C1065 H1044 0.950 . S
C1065 C1064 1.373 . S
C1065 C1081 1.377 . S
C1066 C1064 1.389 . S
C1066 C1067 1.524 . S
C1066 C1080 1.377 . S
C1067 C1066 1.524 . S
C1067 C1068 1.397 . S
C1067 C1072 1.363 . S
C1068 H1045 0.950 . S
C1068 C1067 1.397 . S
C1068 C1069 1.334 . S
C1069 H1046 0.950 . S
C1069 C1068 1.334 . S
C1069 C1070 1.287 . S
C1070 C1069 1.287 . S
C1070 C1071 1.524 . S
C1070 H1089 0.913 . S
C1071 H1047 0.950 . S
C1071 C1070 1.524 . S
C1071 C1072 1.415 . S
C1072 H1048 0.950 . S
C1072 C1067 1.363 . S
C1072 C1071 1.415 . S
C1073 H1049 0.951 . S
C1073 C1074 1.366 . S
C1073 C1075 1.388 . S
C1074 C1073 1.366 . S
C1074 C1078 1.385 . S
C1075 H1050 0.951 . S
C1075 C1073 1.388 . S
C1075 C1076 1.366 . S
C1076 C1075 1.366 . S
C1076 C1077 1.414 . S
C1076 C1079 1.499 . S
C1077 H1051 0.950 . S
C1077 C1076 1.414 . S
C1077 C1078 1.374 . S
C1078 H1052 0.950 . S
C1078 C1074 1.385 . S
C1078 C1077 1.374 . S
C1079 C1076 1.499 . S
C1079 C1080 1.373 . S
C1079 C1081 1.389 . S
C1080 H1053 0.950 . S
C1080 C1066 1.377 . S
C1080 C1079 1.373 . S
C1081 C1065 1.377 . S
C1081 C1079 1.389 . S
C1081 C1082 1.524 . S
C1082 C1081 1.524 . S
C1082 C1083 1.397 . S
C1082 C1087 1.363 . S
C1083 H1054 0.950 . S
C1083 C1082 1.397 . S
C1083 C1084 1.334 . S
C1084 H1055 0.950 . S
C1084 C1083 1.334 . S
C1084 C1085 1.287 . S
C1085 C1084 1.287 . S
C1085 C1086 1.524 . S
C1085 H1088 0.999 . S
C1086 H1056 0.950 . S
C1086 C1085 1.524 . S
C1086 C1087 1.415 . S
C1087 H1057 0.950 . S
C1087 C1082 1.363 . S
C1087 C1086 1.415 . S
H1088 C1085 0.999 . S
H1089 C1070 0.913 . S
H1090 C1108 0.951 . S
H1091 C1110 0.951 . S
H1092 C1112 0.950 . S
H1093 C1113 0.950 . S
H1094 C1115 0.950 . S
H1095 C1118 0.950 . S
H1096 C1119 0.950 . S
H1097 C1121 0.950 . S
H1098 C1122 0.950 . S
H1099 C1123 0.951 . S
H1100 C1125 0.951 . S
H1101 C1127 0.950 . S
H1102 C1128 0.950 . S
H1103 C1130 0.950 . S
H1104 C1133 0.950 . S
H1105 C1134 0.950 . S
H1106 C1136 0.950 . S
H1107 C1137 0.950 . S
C1108 H1090 0.951 . S
C1108 C1109 1.366 . S
C1108 C1110 1.388 . S
C1109 C1108 1.366 . S
C1109 C1113 1.385 . S
C1110 H1091 0.951 . S
C1110 C1108 1.388 . S
C1110 C1111 1.366 . S
C1111 C1110 1.366 . S
C1111 C1112 1.414 . S
C1111 C1114 1.499 . S
C1112 H1092 0.950 . S
C1112 C1111 1.414 . S
C1112 C1113 1.374 . S
C1113 H1093 0.950 . S
C1113 C1109 1.385 . S
C1113 C1112 1.374 . S
C1114 C1111 1.499 . S
C1114 C1115 1.373 . S
C1114 C1116 1.389 . S
C1115 H1094 0.950 . S
C1115 C1114 1.373 . S
C1115 C1131 1.377 . S
C1116 C1114 1.389 . S
C1116 C1117 1.524 . S
C1116 C1130 1.377 . S
C1117 C1116 1.524 . S
C1117 C1118 1.397 . S
C1117 C1122 1.363 . S
C1118 H1095 0.950 . S
C1118 C1117 1.397 . S
C1118 C1119 1.334 . S
C1119 H1096 0.950 . S
C1119 C1118 1.334 . S
C1119 C1120 1.287 . S
C1120 C1119 1.287 . S
C1120 C1121 1.524 . S
C1120 H1139 0.913 . S
C1121 H1097 0.950 . S
C1121 C1120 1.524 . S
C1121 C1122 1.415 . S
C1122 H1098 0.950 . S
C1122 C1117 1.363 . S
C1122 C1121 1.415 . S
C1123 H1099 0.951 . S
C1123 C1124 1.366 . S
C1123 C1125 1.388 . S
C1124 C1123 1.366 . S
C1124 C1128 1.385 . S
C1125 H1100 0.951 . S
C1125 C1123 1.388 . S
C1125 C1126 1.366 . S
C1126 C1125 1.366 . S
C1126 C1127 1.414 . S
C1126 C1129 1.499 . S
C1127 H1101 0.950 . S
C1127 C1126 1.414 . S
C1127 C1128 1.374 . S
C1128 H1102 0.950 . S
C1128 C1124 1.385 . S
C1128 C1127 1.374 . S
C1129 C1126 1.499 . S
C1129 C1130 1.373 . S
C1129 C1131 1.389 . S
C1130 H1103 0.950 . S
C1130 C1116 1.377 . S
C1130 C1129 1.373 . S
C1131 C1115 1.377 . S
C1131 C1129 1.389 . S
C1131 C1132 1.524 . S
C1132 C1131 1.524 . S
C1132 C1133 1.397 . S
C1132 C1137 1.363 . S
C1133 H1104 0.950 . S
C1133 C1132 1.397 . S
C1133 C1134 1.334 . S
C1134 H1105 0.950 . S
C1134 C1133 1.334 . S
C1134 C1135 1.287 . S
C1135 C1134 1.287 . S
C1135 C1136 1.524 . S
C1135 H1138 0.999 . S
C1136 H1106 0.950 . S
C1136 C1135 1.524 . S
C1136 C1137 1.415 . S
C1137 H1107 0.950 . S
C1137 C1132 1.363 . S
C1137 C1136 1.415 . S
H1138 C1135 0.999 . S
H1139 C1120 0.913 . S
H1140 C1158 0.951 . S
H1141 C1160 0.951 1_545 S
H1142 C1162 0.950 . S
H1143 C1163 0.950 . S
H1144 C1165 0.950 . S
H1145 C1168 0.950 . S
H1146 C1169 0.950 . S
H1147 C1171 0.950 . S
H1148 C1172 0.950 1_545 S
H1149 C1173 0.951 . S
H1150 C1175 0.951 . S
H1151 C1177 0.950 . S
H1152 C1178 0.950 . S
H1153 C1180 0.950 . S
H1154 C1183 0.950 . S
H1155 C1184 0.950 . S
H1156 C1186 0.919 1_565 S
H1157 C1187 0.950 . S
C1158 H1140 0.951 . S
C1158 C1159 1.366 . S
C1158 C1160 1.388 . S
C1159 C1158 1.366 . S
C1159 C1163 1.385 . S
C1160 H1141 0.951 1_565 S
C1160 C1158 1.388 . S
C1160 C1161 1.366 . S
C1161 C1160 1.366 . S
C1161 C1162 1.414 . S
C1161 C1164 1.499 . S
C1162 H1142 0.950 . S
C1162 C1161 1.414 . S
C1162 C1163 1.374 . S
C1163 H1143 0.950 . S
C1163 C1159 1.385 . S
C1163 C1162 1.374 . S
C1164 C1161 1.499 . S
C1164 C1165 1.373 . S
C1164 C1166 1.389 . S
C1165 H1144 0.950 . S
C1165 C1164 1.373 . S
C1165 C1181 1.377 . S
C1166 C1164 1.389 . S
C1166 C1167 1.524 . S
C1166 C1180 1.377 . S
C1167 C1166 1.524 . S
C1167 C1168 1.397 . S
C1167 C1172 1.363 . S
C1168 H1145 0.950 . S
C1168 C1167 1.397 . S
C1168 C1169 1.334 . S
C1169 H1146 0.950 . S
C1169 C1168 1.334 . S
C1169 C1170 1.287 . S
C1170 C1169 1.287 . S
C1170 C1171 1.524 . S
C1170 H1189 0.913 . S
C1171 H1147 0.950 . S
C1171 C1170 1.524 . S
C1171 C1172 1.415 . S
C1172 H1148 0.950 1_565 S
C1172 C1167 1.363 . S
C1172 C1171 1.415 . S
C1173 H1149 0.951 . S
C1173 C1174 1.366 1_565 S
C1173 C1175 1.388 . S
C1174 C1173 1.366 1_545 S
C1174 C1178 1.385 . S
C1175 H1150 0.951 . S
C1175 C1173 1.388 . S
C1175 C1176 1.358 1_565 S
C1176 C1175 1.358 1_545 S
C1176 C1177 1.436 . S
C1176 C1179 1.485 1_545 S
C1177 H1151 0.950 . S
C1177 C1176 1.436 . S
C1177 C1178 1.374 . S
C1178 H1152 0.950 . S
C1178 C1174 1.385 . S
C1178 C1177 1.374 . S
C1179 C1176 1.485 1_565 S
C1179 C1180 1.373 . S
C1179 C1181 1.389 . S
C1180 H1153 0.950 . S
C1180 C1166 1.377 . S
C1180 C1179 1.373 . S
C1181 C1165 1.377 . S
C1181 C1179 1.389 . S
C1181 C1182 1.524 1_565 S
C1182 C1181 1.524 1_545 S
C1182 C1183 1.397 . S
C1182 C1187 1.363 1_545 S
C1183 H1154 0.950 . S
C1183 C1182 1.397 . S
C1183 C1184 1.334 . S
C1184 H1155 0.950 . S
C1184 C1183 1.334 . S
C1184 C1185 1.287 . S
C1185 C1184 1.287 . S
C1185 C1186 1.583 . S
C1185 H1188 0.999 . S
C1186 H1156 0.919 1_545 S
C1186 C1185 1.583 . S
C1186 C1187 1.393 1_545 S
C1187 H1157 0.950 . S
C1187 C1182 1.363 1_565 S
C1187 C1186 1.393 1_565 S
H1188 C1185 0.999 . S
H1189 C1170 0.913 . S
H1190 C1208 0.951 . S
H1191 C1210 0.951 . S
H1192 C1212 0.950 . S
H1193 C1213 0.950 . S
H1194 C1215 0.950 . S
H1195 C1218 0.962 . S
H1196 C1219 0.950 1_455 S
H1197 C1221 0.950 . S
H1198 C1222 0.950 . S
H1199 C1223 0.951 . S
H1200 C1225 0.951 . S
H1201 C1227 0.950 . S
H1202 C1228 0.950 . S
H1203 C1230 0.950 . S
H1204 C1233 0.950 1_655 S
H1205 C1234 0.950 . S
H1206 C1236 0.950 . S
H1207 C1237 0.950 . S
C1208 H1190 0.951 . S
C1208 C1209 1.366 1_655 S
C1208 C1210 1.388 . S
C1209 C1208 1.366 1_455 S
C1209 C1213 1.385 . S
C1210 H1191 0.951 . S
C1210 C1208 1.388 . S
C1210 C1211 1.366 1_655 S
C1211 C1210 1.366 1_455 S
C1211 C1212 1.414 . S
C1211 C1214 1.499 . S
C1212 H1192 0.950 . S
C1212 C1211 1.414 . S
C1212 C1213 1.374 . S
C1213 H1193 0.950 . S
C1213 C1209 1.385 . S
C1213 C1212 1.374 . S
C1214 C1211 1.499 . S
C1214 C1215 1.373 . S
C1214 C1216 1.389 1_455 S
C1215 H1194 0.950 . S
C1215 C1214 1.373 . S
C1215 C1231 1.377 . S
C1216 C1214 1.389 1_655 S
C1216 C1217 1.524 . S
C1216 C1230 1.377 . S
C1217 C1216 1.524 . S
C1217 C1218 1.387 1_655 S
C1217 C1222 1.363 . S
C1218 H1195 0.962 . S
C1218 C1217 1.387 1_455 S
C1218 C1219 1.332 1_456 S
C1219 H1196 0.950 1_655 S
C1219 C1218 1.332 1_654 S
C1219 C1220 1.287 . S
C1220 C1219 1.287 . S
C1220 C1221 1.524 . S
C1220 H1239 0.913 . S
C1221 H1197 0.950 . S
C1221 C1220 1.524 . S
C1221 C1222 1.415 1_554 S
C1222 H1198 0.950 . S
C1222 C1217 1.363 . S
C1222 C1221 1.415 1_556 S
C1223 H1199 0.951 . S
C1223 C1224 1.366 1_455 S
C1223 C1225 1.388 . S
C1224 C1223 1.366 1_655 S
C1224 C1228 1.385 . S
C1225 H1200 0.951 . S
C1225 C1223 1.388 . S
C1225 C1226 1.353 1_455 S
C1226 C1225 1.353 1_655 S
C1226 C1227 1.437 . S
C1226 C1229 1.489 1_655 S
C1227 H1201 0.950 . S
C1227 C1226 1.437 . S
C1227 C1228 1.374 . S
C1228 H1202 0.950 . S
C1228 C1224 1.385 . S
C1228 C1227 1.374 . S
C1229 C1226 1.489 1_455 S
C1229 C1230 1.373 1_455 S
C1229 C1231 1.389 . S
C1230 H1203 0.950 . S
C1230 C1216 1.377 . S
C1230 C1229 1.373 1_655 S
C1231 C1215 1.377 . S
C1231 C1229 1.389 . S
C1231 C1232 1.524 . S
C1232 C1231 1.524 . S
C1232 C1233 1.397 . S
C1232 C1237 1.363 . S
C1233 H1204 0.950 1_455 S
C1233 C1232 1.397 . S
C1233 C1234 1.334 . S
C1234 H1205 0.950 . S
C1234 C1233 1.334 . S
C1234 C1235 1.287 . S
C1235 C1234 1.287 . S
C1235 C1236 1.524 . S
C1235 H1238 0.999 . S
C1236 H1206 0.950 . S
C1236 C1235 1.524 . S
C1236 C1237 1.415 . S
C1237 H1207 0.950 . S
C1237 C1232 1.363 . S
C1237 C1236 1.415 . S
H1238 C1235 0.999 . S
H1239 C1220 0.913 . S
H1240 C1258 0.951 . S
H1241 C1260 0.951 . S
H1242 C1262 0.950 . S
H1243 C1263 0.950 . S
H1244 C1265 0.950 . S
H1245 C1268 0.950 . S
H1246 C1269 0.950 . S
H1247 C1271 0.950 . S
H1248 C1272 0.950 . S
H1249 C1273 0.951 . S
H1250 C1275 0.951 . S
H1251 C1277 0.950 . S
H1252 C1278 0.950 . S
H1253 C1280 0.950 1_554 S
H1254 C1283 0.950 . S
H1255 C1284 0.950 . S
H1256 C1286 0.950 . S
H1257 C1287 0.950 . S
C1258 H1240 0.951 . S
C1258 C1259 1.366 . S
C1258 C1260 1.388 . S
C1259 C1258 1.366 . S
C1259 C1263 1.385 . S
C1260 H1241 0.951 . S
C1260 C1258 1.388 . S
C1260 C1261 1.366 . S
C1261 C1260 1.366 . S
C1261 C1262 1.414 . S
C1261 C1264 1.499 . S
C1262 H1242 0.950 . S
C1262 C1261 1.414 . S
C1262 C1263 1.374 . S
C1263 H1243 0.950 . S
C1263 C1259 1.385 . S
C1263 C1262 1.374 . S
C1264 C1261 1.499 . S
C1264 C1265 1.373 . S
C1264 C1266 1.389 . S
C1265 H1244 0.950 . S
C1265 C1264 1.373 . S
C1265 C1281 1.377 . S
C1266 C1264 1.389 . S
C1266 C1267 1.524 1_556 S
C1266 C1280 1.377 . S
C1267 C1266 1.524 1_554 S
C1267 C1268 1.397 . S
C1267 C1272 1.363 . S
C1268 H1245 0.950 . S
C1268 C1267 1.397 . S
C1268 C1269 1.334 . S
C1269 H1246 0.950 . S
C1269 C1268 1.334 . S
C1269 C1270 1.287 . S
C1270 C1269 1.287 . S
C1270 C1271 1.524 . S
C1270 H1289 0.913 . S
C1271 H1247 0.950 . S
C1271 C1270 1.524 . S
C1271 C1272 1.415 . S
C1272 H1248 0.950 . S
C1272 C1267 1.363 . S
C1272 C1271 1.415 . S
C1273 H1249 0.951 . S
C1273 C1274 1.366 . S
C1273 C1275 1.388 . S
C1274 C1273 1.366 . S
C1274 C1278 1.385 . S
C1275 H1250 0.951 . S
C1275 C1273 1.388 . S
C1275 C1276 1.366 . S
C1276 C1275 1.366 . S
C1276 C1277 1.414 . S
C1276 C1279 1.499 . S
C1277 H1251 0.950 . S
C1277 C1276 1.414 . S
C1277 C1278 1.374 . S
C1278 H1252 0.950 . S
C1278 C1274 1.385 . S
C1278 C1277 1.374 . S
C1279 C1276 1.499 . S
C1279 C1280 1.373 . S
C1279 C1281 1.389 . S
C1280 H1253 0.950 1_556 S
C1280 C1266 1.377 . S
C1280 C1279 1.373 . S
C1281 C1265 1.377 . S
C1281 C1279 1.389 . S
C1281 C1282 1.524 . S
C1282 C1281 1.524 . S
C1282 C1283 1.397 . S
C1282 C1287 1.363 . S
C1283 H1254 0.950 . S
C1283 C1282 1.397 . S
C1283 C1284 1.334 . S
C1284 H1255 0.950 . S
C1284 C1283 1.334 . S
C1284 C1285 1.287 . S
C1285 C1284 1.287 . S
C1285 C1286 1.524 . S
C1285 H1288 0.999 . S
C1286 H1256 0.950 . S
C1286 C1285 1.524 . S
C1286 C1287 1.415 . S
C1287 H1257 0.950 . S
C1287 C1282 1.363 . S
C1287 C1286 1.415 . S
H1288 C1285 0.999 . S
H1289 C1270 0.913 . S
H1290 C1308 0.951 . S
H1291 C1310 0.951 . S
H1292 C1312 0.950 . S
H1293 C1313 0.950 . S
H1294 C1315 0.950 . S
H1295 C1318 0.950 . S
H1296 C1319 0.950 . S
H1297 C1321 0.950 . S
H1298 C1322 0.950 . S
H1299 C1323 0.951 . S
H1300 C1325 0.951 . S
H1301 C1327 0.950 . S
H1302 C1328 0.950 . S
H1303 C1330 0.950 . S
H1304 C1333 0.950 . S
H1305 C1334 0.950 . S
H1306 C1336 0.950 . S
H1307 C1337 0.950 . S
C1308 H1290 0.951 . S
C1308 C1309 1.366 . S
C1308 C1310 1.388 . S
C1309 C1308 1.366 . S
C1309 C1313 1.385 . S
C1310 H1291 0.951 . S
C1310 C1308 1.388 . S
C1310 C1311 1.366 . S
C1311 C1310 1.366 . S
C1311 C1312 1.414 . S
C1311 C1314 1.499 . S
C1312 H1292 0.950 . S
C1312 C1311 1.414 . S
C1312 C1313 1.374 . S
C1313 H1293 0.950 . S
C1313 C1309 1.385 . S
C1313 C1312 1.374 . S
C1314 C1311 1.499 . S
C1314 C1315 1.373 . S
C1314 C1316 1.389 . S
C1315 H1294 0.950 . S
C1315 C1314 1.373 . S
C1315 C1331 1.377 . S
C1316 C1314 1.389 . S
C1316 C1317 1.524 . S
C1316 C1330 1.377 . S
C1317 C1316 1.524 . S
C1317 C1318 1.397 . S
C1317 C1322 1.363 . S
C1318 H1295 0.950 . S
C1318 C1317 1.397 . S
C1318 C1319 1.334 . S
C1319 H1296 0.950 . S
C1319 C1318 1.334 . S
C1319 C1320 1.287 . S
C1320 C1319 1.287 . S
C1320 C1321 1.524 . S
C1320 H1339 0.913 . S
C1321 H1297 0.950 . S
C1321 C1320 1.524 . S
C1321 C1322 1.415 . S
C1322 H1298 0.950 . S
C1322 C1317 1.363 . S
C1322 C1321 1.415 . S
C1323 H1299 0.951 . S
C1323 C1324 1.366 . S
C1323 C1325 1.388 . S
C1324 C1323 1.366 . S
C1324 C1328 1.385 . S
C1325 H1300 0.951 . S
C1325 C1323 1.388 . S
C1325 C1326 1.366 . S
C1326 C1325 1.366 . S
C1326 C1327 1.414 . S
C1326 C1329 1.499 . S
C1327 H1301 0.950 . S
C1327 C1326 1.414 . S
C1327 C1328 1.374 . S
C1328 H1302 0.950 . S
C1328 C1324 1.385 . S
C1328 C1327 1.374 . S
C1329 C1326 1.499 . S
C1329 C1330 1.373 . S
C1329 C1331 1.389 . S
C1330 H1303 0.950 . S
C1330 C1316 1.377 . S
C1330 C1329 1.373 . S
C1331 C1315 1.377 . S
C1331 C1329 1.389 . S
C1331 C1332 1.524 . S
C1332 C1331 1.524 . S
C1332 C1333 1.397 . S
C1332 C1337 1.363 . S
C1333 H1304 0.950 . S
C1333 C1332 1.397 . S
C1333 C1334 1.334 . S
C1334 H1305 0.950 . S
C1334 C1333 1.334 . S
C1334 C1335 1.287 . S
C1335 C1334 1.287 . S
C1335 C1336 1.524 . S
C1335 H1338 0.999 . S
C1336 H1306 0.950 . S
C1336 C1335 1.524 . S
C1336 C1337 1.415 . S
C1337 H1307 0.950 . S
C1337 C1332 1.363 . S
C1337 C1336 1.415 . S
H1338 C1335 0.999 . S
H1339 C1320 0.913 . S
H1340 C1358 0.951 . S
H1341 C1360 0.951 . S
H1342 C1362 0.950 . S
H1343 C1363 0.950 . S
H1344 C1365 0.950 . S
H1345 C1368 0.950 . S
H1346 C1369 0.950 . S
H1347 C1371 0.950 . S
H1348 C1372 0.950 . S
H1349 C1373 0.951 . S
H1350 C1375 0.951 . S
H1351 C1377 0.950 . S
H1352 C1378 0.950 . S
H1353 C1380 0.950 . S
H1354 C1383 0.950 . S
H1355 C1384 0.950 . S
H1356 C1386 0.950 . S
H1357 C1387 0.950 . S
C1358 H1340 0.951 . S
C1358 C1359 1.366 . S
C1358 C1360 1.388 . S
C1359 C1358 1.366 . S
C1359 C1363 1.385 . S
C1360 H1341 0.951 . S
C1360 C1358 1.388 . S
C1360 C1361 1.366 . S
C1361 C1360 1.366 . S
C1361 C1362 1.414 . S
C1361 C1364 1.499 . S
C1362 H1342 0.950 . S
C1362 C1361 1.414 . S
C1362 C1363 1.374 . S
C1363 H1343 0.950 . S
C1363 C1359 1.385 . S
C1363 C1362 1.374 . S
C1364 C1361 1.499 . S
C1364 C1365 1.373 . S
C1364 C1366 1.389 . S
C1365 H1344 0.950 . S
C1365 C1364 1.373 . S
C1365 C1381 1.377 . S
C1366 C1364 1.389 . S
C1366 C1367 1.524 . S
C1366 C1380 1.377 . S
C1367 C1366 1.524 . S
C1367 C1368 1.397 . S
C1367 C1372 1.363 . S
C1368 H1345 0.950 . S
C1368 C1367 1.397 . S
C1368 C1369 1.334 . S
C1369 H1346 0.950 . S
C1369 C1368 1.334 . S
C1369 C1370 1.287 . S
C1370 C1369 1.287 . S
C1370 C1371 1.524 . S
C1370 H1389 0.913 . S
C1371 H1347 0.950 . S
C1371 C1370 1.524 . S
C1371 C1372 1.415 . S
C1372 H1348 0.950 . S
C1372 C1367 1.363 . S
C1372 C1371 1.415 . S
C1373 H1349 0.951 . S
C1373 C1374 1.366 . S
C1373 C1375 1.388 . S
C1374 C1373 1.366 . S
C1374 C1378 1.385 . S
C1375 H1350 0.951 . S
C1375 C1373 1.388 . S
C1375 C1376 1.366 . S
C1376 C1375 1.366 . S
C1376 C1377 1.414 . S
C1376 C1379 1.499 . S
C1377 H1351 0.950 . S
C1377 C1376 1.414 . S
C1377 C1378 1.374 . S
C1378 H1352 0.950 . S
C1378 C1374 1.385 . S
C1378 C1377 1.374 . S
C1379 C1376 1.499 . S
C1379 C1380 1.373 . S
C1379 C1381 1.389 . S
C1380 H1353 0.950 . S
C1380 C1366 1.377 . S
C1380 C1379 1.373 . S
C1381 C1365 1.377 . S
C1381 C1379 1.389 . S
C1381 C1382 1.524 . S
C1382 C1381 1.524 . S
C1382 C1383 1.397 . S
C1382 C1387 1.363 . S
C1383 H1354 0.950 . S
C1383 C1382 1.397 . S
C1383 C1384 1.334 . S
C1384 H1355 0.950 . S
C1384 C1383 1.334 . S
C1384 C1385 1.287 . S
C1385 C1384 1.287 . S
C1385 C1386 1.524 . S
C1385 H1388 0.999 . S
C1386 H1356 0.950 . S
C1386 C1385 1.524 . S
C1386 C1387 1.415 . S
C1387 H1357 0.950 . S
C1387 C1382 1.363 . S
C1387 C1386 1.415 . S
H1388 C1385 0.999 . S
H1389 C1370 0.913 . S
H1390 C1408 0.951 . S
H1391 C1410 0.951 . S
H1392 C1412 0.950 . S
H1393 C1413 0.950 . S
H1394 C1415 0.950 . S
H1395 C1418 0.950 . S
H1396 C1419 0.950 . S
H1397 C1421 0.950 . S
H1398 C1422 0.950 . S
H1399 C1423 0.951 . S
H1400 C1425 0.951 . S
H1401 C1427 0.950 . S
H1402 C1428 0.950 . S
H1403 C1430 0.950 . S
H1404 C1433 0.950 . S
H1405 C1434 0.950 . S
H1406 C1436 0.950 . S
H1407 C1437 0.950 . S
C1408 H1390 0.951 . S
C1408 C1409 1.366 . S
C1408 C1410 1.388 . S
C1409 C1408 1.366 . S
C1409 C1413 1.385 . S
C1410 H1391 0.951 . S
C1410 C1408 1.388 . S
C1410 C1411 1.366 . S
C1411 C1410 1.366 . S
C1411 C1412 1.414 . S
C1411 C1414 1.499 . S
C1412 H1392 0.950 . S
C1412 C1411 1.414 . S
C1412 C1413 1.374 . S
C1413 H1393 0.950 . S
C1413 C1409 1.385 . S
C1413 C1412 1.374 . S
C1414 C1411 1.499 . S
C1414 C1415 1.373 . S
C1414 C1416 1.389 . S
C1415 H1394 0.950 . S
C1415 C1414 1.373 . S
C1415 C1431 1.377 . S
C1416 C1414 1.389 . S
C1416 C1417 1.524 . S
C1416 C1430 1.377 . S
C1417 C1416 1.524 . S
C1417 C1418 1.397 . S
C1417 C1422 1.363 . S
C1418 H1395 0.950 . S
C1418 C1417 1.397 . S
C1418 C1419 1.334 . S
C1419 H1396 0.950 . S
C1419 C1418 1.334 . S
C1419 C1420 1.287 . S
C1420 C1419 1.287 . S
C1420 C1421 1.524 . S
C1420 H1439 0.913 . S
C1421 H1397 0.950 . S
C1421 C1420 1.524 . S
C1421 C1422 1.415 . S
C1422 H1398 0.950 . S
C1422 C1417 1.363 . S
C1422 C1421 1.415 . S
C1423 H1399 0.951 . S
C1423 C1424 1.366 . S
C1423 C1425 1.388 . S
C1424 C1423 1.366 . S
C1424 C1428 1.385 . S
C1425 H1400 0.951 . S
C1425 C1423 1.388 . S
C1425 C1426 1.366 . S
C1426 C1425 1.366 . S
C1426 C1427 1.414 . S
C1426 C1429 1.499 . S
C1427 H1401 0.950 . S
C1427 C1426 1.414 . S
C1427 C1428 1.374 . S
C1428 H1402 0.950 . S
C1428 C1424 1.385 . S
C1428 C1427 1.374 . S
C1429 C1426 1.499 . S
C1429 C1430 1.373 . S
C1429 C1431 1.389 . S
C1430 H1403 0.950 . S
C1430 C1416 1.377 . S
C1430 C1429 1.373 . S
C1431 C1415 1.377 . S
C1431 C1429 1.389 . S
C1431 C1432 1.524 . S
C1432 C1431 1.524 . S
C1432 C1433 1.397 . S
C1432 C1437 1.363 . S
C1433 H1404 0.950 . S
C1433 C1432 1.397 . S
C1433 C1434 1.334 . S
C1434 H1405 0.950 . S
C1434 C1433 1.334 . S
C1434 C1435 1.287 . S
C1435 C1434 1.287 . S
C1435 C1436 1.524 . S
C1435 H1438 0.999 . S
C1436 H1406 0.950 . S
C1436 C1435 1.524 . S
C1436 C1437 1.415 . S
C1437 H1407 0.950 . S
C1437 C1432 1.363 . S
C1437 C1436 1.415 . S
H1438 C1435 0.999 . S
H1439 C1420 0.913 . S
H1440 C1458 0.951 . S
H1441 C1460 0.951 . S
H1442 C1462 0.950 . S
H1443 C1463 0.950 . S
H1444 C1465 0.950 . S
H1445 C1468 0.950 . S
H1446 C1469 0.950 . S
H1447 C1471 0.950 . S
H1448 C1472 0.950 . S
H1449 C1473 0.951 . S
H1450 C1475 0.951 . S
H1451 C1477 0.950 . S
H1452 C1478 0.950 . S
H1453 C1480 0.950 . S
H1454 C1483 0.950 . S
H1455 C1484 0.950 . S
H1456 C1486 0.950 . S
H1457 C1487 0.950 . S
C1458 H1440 0.951 . S
C1458 C1459 1.366 . S
C1458 C1460 1.388 . S
C1459 C1458 1.366 . S
C1459 C1463 1.385 . S
C1460 H1441 0.951 . S
C1460 C1458 1.388 . S
C1460 C1461 1.366 . S
C1461 C1460 1.366 . S
C1461 C1462 1.414 . S
C1461 C1464 1.499 . S
C1462 H1442 0.950 . S
C1462 C1461 1.414 . S
C1462 C1463 1.374 . S
C1463 H1443 0.950 . S
C1463 C1459 1.385 . S
C1463 C1462 1.374 . S
C1464 C1461 1.499 . S
C1464 C1465 1.373 . S
C1464 C1466 1.389 . S
C1465 H1444 0.950 . S
C1465 C1464 1.373 . S
C1465 C1481 1.377 . S
C1466 C1464 1.389 . S
C1466 C1467 1.524 . S
C1466 C1480 1.377 . S
C1467 C1466 1.524 . S
C1467 C1468 1.397 . S
C1467 C1472 1.363 . S
C1468 H1445 0.950 . S
C1468 C1467 1.397 . S
C1468 C1469 1.334 . S
C1469 H1446 0.950 . S
C1469 C1468 1.334 . S
C1469 C1470 1.287 . S
C1470 C1469 1.287 . S
C1470 C1471 1.524 . S
C1470 H1489 0.913 . S
C1471 H1447 0.950 . S
C1471 C1470 1.524 . S
C1471 C1472 1.415 . S
C1472 H1448 0.950 . S
C1472 C1467 1.363 . S
C1472 C1471 1.415 . S
C1473 H1449 0.951 . S
C1473 C1474 1.366 . S
C1473 C1475 1.388 . S
C1474 C1473 1.366 . S
C1474 C1478 1.385 . S
C1475 H1450 0.951 . S
C1475 C1473 1.388 . S
C1475 C1476 1.366 . S
C1476 C1475 1.366 . S
C1476 C1477 1.414 . S
C1476 C1479 1.499 . S
C1477 H1451 0.950 . S
C1477 C1476 1.414 . S
C1477 C1478 1.374 . S
C1478 H1452 0.950 . S
C1478 C1474 1.385 . S
C1478 C1477 1.374 . S
C1479 C1476 1.499 . S
C1479 C1480 1.373 . S
C1479 C1481 1.389 . S
C1480 H1453 0.950 . S
C1480 C1466 1.377 . S
C1480 C1479 1.373 . S
C1481 C1465 1.377 . S
C1481 C1479 1.389 . S
C1481 C1482 1.524 . S
C1482 C1481 1.524 . S
C1482 C1483 1.397 . S
C1482 C1487 1.363 . S
C1483 H1454 0.950 . S
C1483 C1482 1.397 . S
C1483 C1484 1.334 . S
C1484 H1455 0.950 . S
C1484 C1483 1.334 . S
C1484 C1485 1.287 . S
C1485 C1484 1.287 . S
C1485 C1486 1.524 . S
C1485 H1488 0.999 . S
C1486 H1456 0.950 . S
C1486 C1485 1.524 . S
C1486 C1487 1.415 . S
C1487 H1457 0.950 . S
C1487 C1482 1.363 . S
C1487 C1486 1.415 . S
H1488 C1485 0.999 . S
H1489 C1470 0.913 . S
H1490 C1508 0.951 . S
H1491 C1510 0.951 . S
H1492 C1512 0.950 . S
H1493 C1513 0.950 . S
H1494 C1515 0.950 . S
H1495 C1518 0.950 . S
H1496 C1519 0.950 . S
H1497 C1521 0.950 . S
H1498 C1522 0.950 . S
H1499 C1523 0.951 . S
H1500 C1525 0.951 . S
H1501 C1527 0.950 . S
H1502 C1528 0.950 . S
H1503 C1530 0.950 . S
H1504 C1533 0.950 . S
H1505 C1534 0.950 . S
H1506 C1536 0.950 . S
H1507 C1537 0.950 . S
C1508 H1490 0.951 . S
C1508 C1509 1.366 . S
C1508 C1510 1.388 . S
C1509 C1508 1.366 . S
C1509 C1513 1.385 . S
C1510 H1491 0.951 . S
C1510 C1508 1.388 . S
C1510 C1511 1.366 . S
C1511 C1510 1.366 . S
C1511 C1512 1.414 . S
C1511 C1514 1.499 . S
C1512 H1492 0.950 . S
C1512 C1511 1.414 . S
C1512 C1513 1.374 . S
C1513 H1493 0.950 . S
C1513 C1509 1.385 . S
C1513 C1512 1.374 . S
C1514 C1511 1.499 . S
C1514 C1515 1.373 . S
C1514 C1516 1.389 . S
C1515 H1494 0.950 . S
C1515 C1514 1.373 . S
C1515 C1531 1.377 . S
C1516 C1514 1.389 . S
C1516 C1517 1.524 . S
C1516 C1530 1.377 . S
C1517 C1516 1.524 . S
C1517 C1518 1.397 . S
C1517 C1522 1.363 . S
C1518 H1495 0.950 . S
C1518 C1517 1.397 . S
C1518 C1519 1.334 . S
C1519 H1496 0.950 . S
C1519 C1518 1.334 . S
C1519 C1520 1.287 . S
C1520 C1519 1.287 . S
C1520 C1521 1.524 . S
C1520 H1539 0.913 . S
C1521 H1497 0.950 . S
C1521 C1520 1.524 . S
C1521 C1522 1.415 . S
C1522 H1498 0.950 . S
C1522 C1517 1.363 . S
C1522 C1521 1.415 . S
C1523 H1499 0.951 . S
C1523 C1524 1.366 . S
C1523 C1525 1.388 . S
C1524 C1523 1.366 . S
C1524 C1528 1.385 . S
C1525 H1500 0.951 . S
C1525 C1523 1.388 . S
C1525 C1526 1.366 . S
C1526 C1525 1.366 . S
C1526 C1527 1.414 . S
C1526 C1529 1.499 . S
C1527 H1501 0.950 . S
C1527 C1526 1.414 . S
C1527 C1528 1.374 . S
C1528 H1502 0.950 . S
C1528 C1524 1.385 . S
C1528 C1527 1.374 . S
C1529 C1526 1.499 . S
C1529 C1530 1.373 . S
C1529 C1531 1.389 . S
C1530 H1503 0.950 . S
C1530 C1516 1.377 . S
C1530 C1529 1.373 . S
C1531 C1515 1.377 . S
C1531 C1529 1.389 . S
C1531 C1532 1.524 . S
C1532 C1531 1.524 . S
C1532 C1533 1.397 . S
C1532 C1537 1.363 . S
C1533 H1504 0.950 . S
C1533 C1532 1.397 . S
C1533 C1534 1.334 . S
C1534 H1505 0.950 . S
C1534 C1533 1.334 . S
C1534 C1535 1.287 . S
C1535 C1534 1.287 . S
C1535 C1536 1.524 . S
C1535 H1538 0.999 . S
C1536 H1506 0.950 . S
C1536 C1535 1.524 . S
C1536 C1537 1.415 . S
C1537 H1507 0.950 . S
C1537 C1532 1.363 . S
C1537 C1536 1.415 . S
H1538 C1535 0.999 . S
H1539 C1520 0.913 . S
H1540 C1558 0.951 . S
H1541 C1560 0.951 . S
H1542 C1562 0.950 . S
H1543 C1563 0.950 . S
H1544 C1565 0.950 . S
H1545 C1568 0.950 . S
H1546 C1569 0.950 . S
H1547 C1571 0.950 . S
H1548 C1572 0.950 . S
H1549 C1573 0.951 . S
H1550 C1575 0.951 . S
H1551 C1577 0.950 . S
H1552 C1578 0.950 . S
H1553 C1580 0.950 . S
H1554 C1583 0.950 . S
H1555 C1584 0.950 . S
H1556 C1586 0.950 . S
H1557 C1587 0.950 . S
C1558 H1540 0.951 . S
C1558 C1559 1.366 . S
C1558 C1560 1.388 . S
C1559 C1558 1.366 . S
C1559 C1563 1.385 . S
C1560 H1541 0.951 . S
C1560 C1558 1.388 . S
C1560 C1561 1.366 . S
C1561 C1560 1.366 . S
C1561 C1562 1.414 . S
C1561 C1564 1.499 . S
C1562 H1542 0.950 . S
C1562 C1561 1.414 . S
C1562 C1563 1.374 . S
C1563 H1543 0.950 . S
C1563 C1559 1.385 . S
C1563 C1562 1.374 . S
C1564 C1561 1.499 . S
C1564 C1565 1.373 . S
C1564 C1566 1.389 . S
C1565 H1544 0.950 . S
C1565 C1564 1.373 . S
C1565 C1581 1.377 . S
C1566 C1564 1.389 . S
C1566 C1567 1.524 . S
C1566 C1580 1.377 . S
C1567 C1566 1.524 . S
C1567 C1568 1.397 . S
C1567 C1572 1.363 . S
C1568 H1545 0.950 . S
C1568 C1567 1.397 . S
C1568 C1569 1.334 . S
C1569 H1546 0.950 . S
C1569 C1568 1.334 . S
C1569 C1570 1.287 . S
C1570 C1569 1.287 . S
C1570 C1571 1.524 . S
C1570 H1589 0.913 . S
C1571 H1547 0.950 . S
C1571 C1570 1.524 . S
C1571 C1572 1.415 . S
C1572 H1548 0.950 . S
C1572 C1567 1.363 . S
C1572 C1571 1.415 . S
C1573 H1549 0.951 . S
C1573 C1574 1.366 . S
C1573 C1575 1.388 . S
C1574 C1573 1.366 . S
C1574 C1578 1.385 . S
C1575 H1550 0.951 . S
C1575 C1573 1.388 . S
C1575 C1576 1.366 . S
C1576 C1575 1.366 . S
C1576 C1577 1.414 . S
C1576 C1579 1.499 . S
C1577 H1551 0.950 . S
C1577 C1576 1.414 . S
C1577 C1578 1.374 . S
C1578 H1552 0.950 . S
C1578 C1574 1.385 . S
C1578 C1577 1.374 . S
C1579 C1576 1.499 . S
C1579 C1580 1.373 . S
C1579 C1581 1.389 . S
C1580 H1553 0.950 . S
C1580 C1566 1.377 . S
C1580 C1579 1.373 . S
C1581 C1565 1.377 . S
C1581 C1579 1.389 . S
C1581 C1582 1.524 . S
C1582 C1581 1.524 . S
C1582 C1583 1.397 . S
C1582 C1587 1.363 . S
C1583 H1554 0.950 . S
C1583 C1582 1.397 . S
C1583 C1584 1.334 . S
C1584 H1555 0.950 . S
C1584 C1583 1.334 . S
C1584 C1585 1.287 . S
C1585 C1584 1.287 . S
C1585 C1586 1.524 . S
C1585 H1588 0.999 . S
C1586 H1556 0.950 . S
C1586 C1585 1.524 . S
C1586 C1587 1.415 . S
C1587 H1557 0.950 . S
C1587 C1582 1.363 . S
C1587 C1586 1.415 . S
H1588 C1585 0.999 . S
H1589 C1570 0.913 . S
H1590 C1608 0.951 . S
H1591 C1610 0.951 . S
H1592 C1612 0.950 . S
H1593 C1613 0.950 . S
H1594 C1615 0.950 . S
H1595 C1618 0.950 . S
H1596 C1619 0.950 . S
H1597 C1621 0.950 . S
H1598 C1622 0.950 . S
H1599 C1623 0.951 . S
H1600 C1625 0.951 . S
H1601 C1627 0.950 . S
H1602 C1628 0.950 . S
H1603 C1630 0.950 . S
H1604 C1633 0.950 . S
H1605 C1634 0.950 . S
H1606 C1636 0.950 . S
H1607 C1637 0.950 . S
C1608 H1590 0.951 . S
C1608 C1609 1.366 . S
C1608 C1610 1.388 . S
C1609 C1608 1.366 . S
C1609 C1613 1.385 . S
C1610 H1591 0.951 . S
C1610 C1608 1.388 . S
C1610 C1611 1.366 . S
C1611 C1610 1.366 . S
C1611 C1612 1.414 . S
C1611 C1614 1.499 . S
C1612 H1592 0.950 . S
C1612 C1611 1.414 . S
C1612 C1613 1.374 . S
C1613 H1593 0.950 . S
C1613 C1609 1.385 . S
C1613 C1612 1.374 . S
C1614 C1611 1.499 . S
C1614 C1615 1.373 . S
C1614 C1616 1.389 . S
C1615 H1594 0.950 . S
C1615 C1614 1.373 . S
C1615 C1631 1.377 . S
C1616 C1614 1.389 . S
C1616 C1617 1.524 . S
C1616 C1630 1.377 . S
C1617 C1616 1.524 . S
C1617 C1618 1.397 . S
C1617 C1622 1.363 . S
C1618 H1595 0.950 . S
C1618 C1617 1.397 . S
C1618 C1619 1.334 . S
C1619 H1596 0.950 . S
C1619 C1618 1.334 . S
C1619 C1620 1.287 . S
C1620 C1619 1.287 . S
C1620 C1621 1.524 . S
C1620 H1639 0.913 . S
C1621 H1597 0.950 . S
C1621 C1620 1.524 . S
C1621 C1622 1.415 . S
C1622 H1598 0.950 . S
C1622 C1617 1.363 . S
C1622 C1621 1.415 . S
C1623 H1599 0.951 . S
C1623 C1624 1.366 . S
C1623 C1625 1.388 . S
C1624 C1623 1.366 . S
C1624 C1628 1.385 . S
C1625 H1600 0.951 . S
C1625 C1623 1.388 . S
C1625 C1626 1.366 . S
C1626 C1625 1.366 . S
C1626 C1627 1.414 . S
C1626 C1629 1.499 . S
C1627 H1601 0.950 . S
C1627 C1626 1.414 . S
C1627 C1628 1.374 . S
C1628 H1602 0.950 . S
C1628 C1624 1.385 . S
C1628 C1627 1.374 . S
C1629 C1626 1.499 . S
C1629 C1630 1.373 . S
C1629 C1631 1.389 . S
C1630 H1603 0.950 . S
C1630 C1616 1.377 . S
C1630 C1629 1.373 . S
C1631 C1615 1.377 . S
C1631 C1629 1.389 . S
C1631 C1632 1.524 . S
C1632 C1631 1.524 . S
C1632 C1633 1.397 . S
C1632 C1637 1.363 . S
C1633 H1604 0.950 . S
C1633 C1632 1.397 . S
C1633 C1634 1.334 . S
C1634 H1605 0.950 . S
C1634 C1633 1.334 . S
C1634 C1635 1.287 . S
C1635 C1634 1.287 . S
C1635 C1636 1.524 . S
C1635 H1638 0.999 . S
C1636 H1606 0.950 . S
C1636 C1635 1.524 . S
C1636 C1637 1.415 . S
C1637 H1607 0.950 . S
C1637 C1632 1.363 . S
C1637 C1636 1.415 . S
H1638 C1635 0.999 . S
H1639 C1620 0.913 . S
H1640 C1658 0.951 . S
H1641 C1660 0.951 . S
H1642 C1662 0.950 . S
H1643 C1663 0.950 . S
H1644 C1665 0.950 . S
H1645 C1668 0.950 . S
H1646 C1669 0.950 . S
H1647 C1671 0.950 . S
H1648 C1672 0.950 . S
H1649 C1673 0.951 . S
H1650 C1675 0.951 . S
H1651 C1677 0.950 . S
H1652 C1678 0.950 . S
H1653 C1680 0.950 . S
H1654 C1683 0.950 . S
H1655 C1684 0.950 . S
H1656 C1686 0.950 . S
H1657 C1687 0.950 . S
C1658 H1640 0.951 . S
C1658 C1659 1.366 . S
C1658 C1660 1.388 . S
C1659 C1658 1.366 . S
C1659 C1663 1.385 . S
C1660 H1641 0.951 . S
C1660 C1658 1.388 . S
C1660 C1661 1.366 . S
C1661 C1660 1.366 . S
C1661 C1662 1.414 . S
C1661 C1664 1.499 . S
C1662 H1642 0.950 . S
C1662 C1661 1.414 . S
C1662 C1663 1.374 . S
C1663 H1643 0.950 . S
C1663 C1659 1.385 . S
C1663 C1662 1.374 . S
C1664 C1661 1.499 . S
C1664 C1665 1.373 . S
C1664 C1666 1.389 . S
C1665 H1644 0.950 . S
C1665 C1664 1.373 . S
C1665 C1681 1.377 . S
C1666 C1664 1.389 . S
C1666 C1667 1.524 . S
C1666 C1680 1.377 . S
C1667 C1666 1.524 . S
C1667 C1668 1.397 . S
C1667 C1672 1.363 . S
C1668 H1645 0.950 . S
C1668 C1667 1.397 . S
C1668 C1669 1.334 . S
C1669 H1646 0.950 . S
C1669 C1668 1.334 . S
C1669 C1670 1.287 . S
C1670 C1669 1.287 . S
C1670 C1671 1.524 . S
C1670 H1689 0.913 . S
C1671 H1647 0.950 . S
C1671 C1670 1.524 . S
C1671 C1672 1.415 . S
C1672 H1648 0.950 . S
C1672 C1667 1.363 . S
C1672 C1671 1.415 . S
C1673 H1649 0.951 . S
C1673 C1674 1.366 . S
C1673 C1675 1.388 . S
C1674 C1673 1.366 . S
C1674 C1678 1.385 . S
C1675 H1650 0.951 . S
C1675 C1673 1.388 . S
C1675 C1676 1.366 . S
C1676 C1675 1.366 . S
C1676 C1677 1.414 . S
C1676 C1679 1.499 . S
C1677 H1651 0.950 . S
C1677 C1676 1.414 . S
C1677 C1678 1.374 . S
C1678 H1652 0.950 . S
C1678 C1674 1.385 . S
C1678 C1677 1.374 . S
C1679 C1676 1.499 . S
C1679 C1680 1.373 . S
C1679 C1681 1.389 . S
C1680 H1653 0.950 . S
C1680 C1666 1.377 . S
C1680 C1679 1.373 . S
C1681 C1665 1.377 . S
C1681 C1679 1.389 . S
C1681 C1682 1.524 . S
C1682 C1681 1.524 . S
C1682 C1683 1.397 . S
C1682 C1687 1.363 . S
C1683 H1654 0.950 . S
C1683 C1682 1.397 . S
C1683 C1684 1.334 . S
C1684 H1655 0.950 . S
C1684 C1683 1.334 . S
C1684 C1685 1.287 . S
C1685 C1684 1.287 . S
C1685 C1686 1.524 . S
C1685 H1688 0.999 . S
C1686 H1656 0.950 . S
C1686 C1685 1.524 . S
C1686 C1687 1.415 . S
C1687 H1657 0.950 . S
C1687 C1682 1.363 . S
C1687 C1686 1.415 . S
H1688 C1685 0.999 . S
H1689 C1670 0.913 . S
H1690 C1708 0.951 . S
H1691 C1710 0.951 . S
H1692 C1712 0.950 . S
H1693 C1713 0.950 . S
H1694 C1715 0.950 . S
H1695 C1718 0.950 . S
H1696 C1719 0.950 . S
H1697 C1721 0.960 . S
H1698 C1722 0.987 . S
H1699 C1723 0.945 1_455 S
H1700 C1725 0.951 . S
H1701 C1727 0.950 . S
H1702 C1728 0.950 . S
H1703 C1730 0.947 . S
H1704 C1733 0.950 . S
H1705 C1734 0.950 . S
H1706 C1736 0.950 . S
H1707 C1737 0.950 1_455 S
C1708 H1690 0.951 . S
C1708 C1709 1.366 1_655 S
C1708 C1710 1.388 . S
C1709 C1708 1.366 1_455 S
C1709 C1713 1.385 . S
C1710 H1691 0.951 . S
C1710 C1708 1.388 . S
C1710 C1711 1.366 1_655 S
C1711 C1710 1.366 1_455 S
C1711 C1712 1.414 . S
C1711 C1714 1.492 1_455 S
C1712 H1692 0.950 . S
C1712 C1711 1.414 . S
C1712 C1713 1.374 . S
C1713 H1693 0.950 . S
C1713 C1709 1.385 . S
C1713 C1712 1.374 . S
C1714 C1711 1.492 1_655 S
C1714 C1715 1.379 . S
C1714 C1716 1.392 1_655 S
C1715 H1694 0.950 . S
C1715 C1714 1.379 . S
C1715 C1731 1.377 . S
C1716 C1714 1.392 1_455 S
C1716 C1717 1.524 . S
C1716 C1730 1.377 1_455 S
C1717 C1716 1.524 . S
C1717 C1718 1.397 . S
C1717 C1722 1.342 1_455 S
C1718 H1695 0.950 . S
C1718 C1717 1.397 . S
C1718 C1719 1.334 . S
C1719 H1696 0.950 . S
C1719 C1718 1.334 . S
C1719 C1720 1.287 . S
C1720 C1719 1.287 . S
C1720 C1721 1.524 . S
C1720 H1739 0.913 . S
C1721 H1697 0.960 . S
C1721 C1720 1.524 . S
C1721 C1722 1.401 1_455 S
C1722 H1698 0.987 . S
C1722 C1717 1.342 1_655 S
C1722 C1721 1.401 1_655 S
C1723 H1699 0.945 1_655 S
C1723 C1724 1.380 . S
C1723 C1725 1.380 1_655 S
C1724 C1723 1.380 . S
C1724 C1728 1.385 . S
C1725 H1700 0.951 . S
C1725 C1723 1.380 1_455 S
C1725 C1726 1.366 1_455 S
C1726 C1725 1.366 1_655 S
C1726 C1727 1.414 . S
C1726 C1729 1.499 . S
C1727 H1701 0.950 . S
C1727 C1726 1.414 . S
C1727 C1728 1.374 . S
C1728 H1702 0.950 . S
C1728 C1724 1.385 . S
C1728 C1727 1.374 . S
C1729 C1726 1.499 . S
C1729 C1730 1.373 . S
C1729 C1731 1.389 . S
C1730 H1703 0.947 . S
C1730 C1716 1.377 1_655 S
C1730 C1729 1.373 . S
C1731 C1715 1.377 . S
C1731 C1729 1.389 . S
C1731 C1732 1.524 . S
C1732 C1731 1.524 . S
C1732 C1733 1.397 . S
C1732 C1737 1.363 . S
C1733 H1704 0.950 . S
C1733 C1732 1.397 . S
C1733 C1734 1.334 . S
C1734 H1705 0.950 . S
C1734 C1733 1.334 . S
C1734 C1735 1.287 . S
C1735 C1734 1.287 . S
C1735 C1736 1.524 . S
C1735 H1738 0.999 . S
C1736 H1706 0.950 . S
C1736 C1735 1.524 . S
C1736 C1737 1.415 . S
C1737 H1707 0.950 1_655 S
C1737 C1732 1.363 . S
C1737 C1736 1.415 . S
H1738 C1735 0.999 . S
H1739 C1720 0.913 . S
H1740 C1758 0.951 . S
H1741 C1760 0.951 . S
H1742 C1762 0.950 . S
H1743 C1763 0.950 . S
H1744 C1765 0.950 . S
H1745 C1768 0.950 . S
H1746 C1769 0.950 . S
H1747 C1771 0.950 . S
H1748 C1772 0.950 . S
H1749 C1773 0.951 . S
H1750 C1775 0.951 . S
H1751 C1777 0.950 . S
H1752 C1778 0.950 . S
H1753 C1780 0.950 . S
H1754 C1783 0.950 . S
H1755 C1784 0.950 . S
H1756 C1786 0.950 . S
H1757 C1787 0.950 . S
C1758 H1740 0.951 . S
C1758 C1759 1.366 . S
C1758 C1760 1.388 . S
C1759 C1758 1.366 . S
C1759 C1763 1.385 . S
C1760 H1741 0.951 . S
C1760 C1758 1.388 . S
C1760 C1761 1.366 . S
C1761 C1760 1.366 . S
C1761 C1762 1.414 . S
C1761 C1764 1.499 . S
C1762 H1742 0.950 . S
C1762 C1761 1.414 . S
C1762 C1763 1.374 . S
C1763 H1743 0.950 . S
C1763 C1759 1.385 . S
C1763 C1762 1.374 . S
C1764 C1761 1.499 . S
C1764 C1765 1.373 . S
C1764 C1766 1.389 . S
C1765 H1744 0.950 . S
C1765 C1764 1.373 . S
C1765 C1781 1.377 . S
C1766 C1764 1.389 . S
C1766 C1767 1.524 . S
C1766 C1780 1.377 . S
C1767 C1766 1.524 . S
C1767 C1768 1.397 . S
C1767 C1772 1.363 . S
C1768 H1745 0.950 . S
C1768 C1767 1.397 . S
C1768 C1769 1.334 . S
C1769 H1746 0.950 . S
C1769 C1768 1.334 . S
C1769 C1770 1.287 . S
C1770 C1769 1.287 . S
C1770 C1771 1.524 . S
C1770 H1789 0.913 . S
C1771 H1747 0.950 . S
C1771 C1770 1.524 . S
C1771 C1772 1.415 . S
C1772 H1748 0.950 . S
C1772 C1767 1.363 . S
C1772 C1771 1.415 . S
C1773 H1749 0.951 . S
C1773 C1774 1.366 . S
C1773 C1775 1.388 . S
C1774 C1773 1.366 . S
C1774 C1778 1.385 . S
C1775 H1750 0.951 . S
C1775 C1773 1.388 . S
C1775 C1776 1.366 . S
C1776 C1775 1.366 . S
C1776 C1777 1.414 . S
C1776 C1779 1.499 . S
C1777 H1751 0.950 . S
C1777 C1776 1.414 . S
C1777 C1778 1.374 . S
C1778 H1752 0.950 . S
C1778 C1774 1.385 . S
C1778 C1777 1.374 . S
C1779 C1776 1.499 . S
C1779 C1780 1.373 . S
C1779 C1781 1.389 . S
C1780 H1753 0.950 . S
C1780 C1766 1.377 . S
C1780 C1779 1.373 . S
C1781 C1765 1.377 . S
C1781 C1779 1.389 . S
C1781 C1782 1.524 . S
C1782 C1781 1.524 . S
C1782 C1783 1.397 . S
C1782 C1787 1.363 . S
C1783 H1754 0.950 . S
C1783 C1782 1.397 . S
C1783 C1784 1.334 . S
C1784 H1755 0.950 . S
C1784 C1783 1.334 . S
C1784 C1785 1.287 . S
C1785 C1784 1.287 . S
C1785 C1786 1.524 . S
C1785 H1788 0.999 . S
C1786 H1756 0.950 . S
C1786 C1785 1.524 . S
C1786 C1787 1.415 . S
C1787 H1757 0.950 . S
C1787 C1782 1.363 . S
C1787 C1786 1.415 . S
H1788 C1785 0.999 . S
H1789 C1770 0.913 . S
H1790 C1808 0.951 . S
H1791 C1810 0.951 . S
H1792 C1812 0.950 . S
H1793 C1813 0.950 . S
H1794 C1815 0.950 . S
H1795 C1818 0.950 . S
H1796 C1819 0.950 . S
H1797 C1821 0.950 . S
H1798 C1822 0.950 . S
H1799 C1823 0.951 . S
H1800 C1825 0.951 . S
H1801 C1827 0.950 . S
H1802 C1828 0.950 . S
H1803 C1830 0.950 . S
H1804 C1833 0.950 . S
H1805 C1834 0.950 . S
H1806 C1836 0.950 . S
H1807 C1837 0.950 . S
C1808 H1790 0.951 . S
C1808 C1809 1.366 . S
C1808 C1810 1.388 . S
C1809 C1808 1.366 . S
C1809 C1813 1.385 . S
C1810 H1791 0.951 . S
C1810 C1808 1.388 . S
C1810 C1811 1.366 . S
C1811 C1810 1.366 . S
C1811 C1812 1.414 . S
C1811 C1814 1.499 . S
C1812 H1792 0.950 . S
C1812 C1811 1.414 . S
C1812 C1813 1.374 . S
C1813 H1793 0.950 . S
C1813 C1809 1.385 . S
C1813 C1812 1.374 . S
C1814 C1811 1.499 . S
C1814 C1815 1.373 . S
C1814 C1816 1.389 . S
C1815 H1794 0.950 . S
C1815 C1814 1.373 . S
C1815 C1831 1.377 . S
C1816 C1814 1.389 . S
C1816 C1817 1.524 . S
C1816 C1830 1.377 . S
C1817 C1816 1.524 . S
C1817 C1818 1.397 . S
C1817 C1822 1.363 . S
C1818 H1795 0.950 . S
C1818 C1817 1.397 . S
C1818 C1819 1.334 . S
C1819 H1796 0.950 . S
C1819 C1818 1.334 . S
C1819 C1820 1.287 . S
C1820 C1819 1.287 . S
C1820 C1821 1.524 . S
C1820 H1839 0.913 . S
C1821 H1797 0.950 . S
C1821 C1820 1.524 . S
C1821 C1822 1.415 . S
C1822 H1798 0.950 . S
C1822 C1817 1.363 . S
C1822 C1821 1.415 . S
C1823 H1799 0.951 . S
C1823 C1824 1.366 . S
C1823 C1825 1.388 . S
C1824 C1823 1.366 . S
C1824 C1828 1.385 . S
C1825 H1800 0.951 . S
C1825 C1823 1.388 . S
C1825 C1826 1.366 . S
C1826 C1825 1.366 . S
C1826 C1827 1.414 . S
C1826 C1829 1.499 . S
C1827 H1801 0.950 . S
C1827 C1826 1.414 . S
C1827 C1828 1.374 . S
C1828 H1802 0.950 . S
C1828 C1824 1.385 . S
C1828 C1827 1.374 . S
C1829 C1826 1.499 . S
C1829 C1830 1.373 . S
C1829 C1831 1.389 . S
C1830 H1803 0.950 . S
C1830 C1816 1.377 . S
C1830 C1829 1.373 . S
C1831 C1815 1.377 . S
C1831 C1829 1.389 . S
C1831 C1832 1.524 . S
C1832 C1831 1.524 . S
C1832 C1833 1.397 . S
C1832 C1837 1.363 . S
C1833 H1804 0.950 . S
C1833 C1832 1.397 . S
C1833 C1834 1.334 . S
C1834 H1805 0.950 . S
C1834 C1833 1.334 . S
C1834 C1835 1.287 . S
C1835 C1834 1.287 . S
C1835 C1836 1.524 . S
C1835 H1838 0.999 . S
C1836 H1806 0.950 . S
C1836 C1835 1.524 . S
C1836 C1837 1.415 . S
C1837 H1807 0.950 . S
C1837 C1832 1.363 . S
C1837 C1836 1.415 . S
H1838 C1835 0.999 . S
H1839 C1820 0.913 . S
H1840 C1858 0.951 . S
H1841 C1860 0.951 . S
H1842 C1862 0.950 . S
H1843 C1863 0.950 . S
H1844 C1865 0.950 . S
H1845 C1868 0.950 . S
H1846 C1869 0.950 . S
H1847 C1871 0.950 . S
H1848 C1872 0.950 . S
H1849 C1873 0.951 . S
H1850 C1875 0.951 . S
H1851 C1877 0.950 . S
H1852 C1878 0.950 . S
H1853 C1880 0.950 . S
H1854 C1883 0.950 . S
H1855 C1884 0.950 . S
H1856 C1886 0.950 . S
H1857 C1887 0.950 . S
C1858 H1840 0.951 . S
C1858 C1859 1.366 . S
C1858 C1860 1.388 . S
C1859 C1858 1.366 . S
C1859 C1863 1.385 . S
C1860 H1841 0.951 . S
C1860 C1858 1.388 . S
C1860 C1861 1.366 . S
C1861 C1860 1.366 . S
C1861 C1862 1.414 . S
C1861 C1864 1.499 . S
C1862 H1842 0.950 . S
C1862 C1861 1.414 . S
C1862 C1863 1.374 . S
C1863 H1843 0.950 . S
C1863 C1859 1.385 . S
C1863 C1862 1.374 . S
C1864 C1861 1.499 . S
C1864 C1865 1.373 . S
C1864 C1866 1.389 . S
C1865 H1844 0.950 . S
C1865 C1864 1.373 . S
C1865 C1881 1.377 . S
C1866 C1864 1.389 . S
C1866 C1867 1.524 . S
C1866 C1880 1.377 . S
C1867 C1866 1.524 . S
C1867 C1868 1.397 . S
C1867 C1872 1.363 . S
C1868 H1845 0.950 . S
C1868 C1867 1.397 . S
C1868 C1869 1.334 . S
C1869 H1846 0.950 . S
C1869 C1868 1.334 . S
C1869 C1870 1.287 . S
C1870 C1869 1.287 . S
C1870 C1871 1.524 . S
C1870 H1889 0.913 . S
C1871 H1847 0.950 . S
C1871 C1870 1.524 . S
C1871 C1872 1.415 . S
C1872 H1848 0.950 . S
C1872 C1867 1.363 . S
C1872 C1871 1.415 . S
C1873 H1849 0.951 . S
C1873 C1874 1.366 . S
C1873 C1875 1.388 . S
C1874 C1873 1.366 . S
C1874 C1878 1.385 . S
C1875 H1850 0.951 . S
C1875 C1873 1.388 . S
C1875 C1876 1.366 . S
C1876 C1875 1.366 . S
C1876 C1877 1.414 . S
C1876 C1879 1.499 . S
C1877 H1851 0.950 . S
C1877 C1876 1.414 . S
C1877 C1878 1.374 . S
C1878 H1852 0.950 . S
C1878 C1874 1.385 . S
C1878 C1877 1.374 . S
C1879 C1876 1.499 . S
C1879 C1880 1.373 . S
C1879 C1881 1.389 . S
C1880 H1853 0.950 . S
C1880 C1866 1.377 . S
C1880 C1879 1.373 . S
C1881 C1865 1.377 . S
C1881 C1879 1.389 . S
C1881 C1882 1.524 . S
C1882 C1881 1.524 . S
C1882 C1883 1.397 . S
C1882 C1887 1.363 . S
C1883 H1854 0.950 . S
C1883 C1882 1.397 . S
C1883 C1884 1.334 . S
C1884 H1855 0.950 . S
C1884 C1883 1.334 . S
C1884 C1885 1.287 . S
C1885 C1884 1.287 . S
C1885 C1886 1.524 . S
C1885 H1888 0.999 . S
C1886 H1856 0.950 . S
C1886 C1885 1.524 . S
C1886 C1887 1.415 . S
C1887 H1857 0.950 . S
C1887 C1882 1.363 . S
C1887 C1886 1.415 . S
H1888 C1885 0.999 . S
H1889 C1870 0.913 . S
H1890 C1908 0.951 . S
H1891 C1910 0.951 . S
H1892 C1912 0.950 . S
H1893 C1913 0.950 . S
H1894 C1915 0.950 . S
H1895 C1918 0.950 . S
H1896 C1919 0.950 . S
H1897 C1921 0.950 . S
H1898 C1922 0.950 . S
H1899 C1923 0.951 . S
H1900 C1925 0.951 . S
H1901 C1927 0.950 . S
H1902 C1928 0.950 . S
H1903 C1930 0.950 . S
H1904 C1933 0.950 . S
H1905 C1934 0.950 . S
H1906 C1936 0.950 . S
H1907 C1937 0.950 . S
C1908 H1890 0.951 . S
C1908 C1909 1.366 . S
C1908 C1910 1.388 . S
C1909 C1908 1.366 . S
C1909 C1913 1.385 . S
C1910 H1891 0.951 . S
C1910 C1908 1.388 . S
C1910 C1911 1.366 . S
C1911 C1910 1.366 . S
C1911 C1912 1.414 . S
C1911 C1914 1.499 . S
C1912 H1892 0.950 . S
C1912 C1911 1.414 . S
C1912 C1913 1.374 . S
C1913 H1893 0.950 . S
C1913 C1909 1.385 . S
C1913 C1912 1.374 . S
C1914 C1911 1.499 . S
C1914 C1915 1.373 . S
C1914 C1916 1.389 . S
C1915 H1894 0.950 . S
C1915 C1914 1.373 . S
C1915 C1931 1.377 . S
C1916 C1914 1.389 . S
C1916 C1917 1.524 . S
C1916 C1930 1.377 . S
C1917 C1916 1.524 . S
C1917 C1918 1.397 . S
C1917 C1922 1.363 . S
C1918 H1895 0.950 . S
C1918 C1917 1.397 . S
C1918 C1919 1.334 . S
C1919 H1896 0.950 . S
C1919 C1918 1.334 . S
C1919 C1920 1.287 . S
C1920 C1919 1.287 . S
C1920 C1921 1.524 . S
C1920 H1939 0.913 . S
C1921 H1897 0.950 . S
C1921 C1920 1.524 . S
C1921 C1922 1.415 . S
C1922 H1898 0.950 . S
C1922 C1917 1.363 . S
C1922 C1921 1.415 . S
C1923 H1899 0.951 . S
C1923 C1924 1.366 . S
C1923 C1925 1.388 . S
C1924 C1923 1.366 . S
C1924 C1928 1.385 . S
C1925 H1900 0.951 . S
C1925 C1923 1.388 . S
C1925 C1926 1.366 . S
C1926 C1925 1.366 . S
C1926 C1927 1.414 . S
C1926 C1929 1.499 . S
C1927 H1901 0.950 . S
C1927 C1926 1.414 . S
C1927 C1928 1.374 . S
C1928 H1902 0.950 . S
C1928 C1924 1.385 . S
C1928 C1927 1.374 . S
C1929 C1926 1.499 . S
C1929 C1930 1.373 . S
C1929 C1931 1.389 . S
C1930 H1903 0.950 . S
C1930 C1916 1.377 . S
C1930 C1929 1.373 . S
C1931 C1915 1.377 . S
C1931 C1929 1.389 . S
C1931 C1932 1.524 . S
C1932 C1931 1.524 . S
C1932 C1933 1.397 . S
C1932 C1937 1.363 . S
C1933 H1904 0.950 . S
C1933 C1932 1.397 . S
C1933 C1934 1.334 . S
C1934 H1905 0.950 . S
C1934 C1933 1.334 . S
C1934 C1935 1.287 . S
C1935 C1934 1.287 . S
C1935 C1936 1.524 . S
C1935 H1938 0.999 . S
C1936 H1906 0.950 . S
C1936 C1935 1.524 . S
C1936 C1937 1.415 . S
C1937 H1907 0.950 . S
C1937 C1932 1.363 . S
C1937 C1936 1.415 . S
H1938 C1935 0.999 . S
H1939 C1920 0.913 . S
H1940 C1958 0.951 . S
H1941 C1960 0.951 . S
H1942 C1962 0.950 . S
H1943 C1963 0.950 . S
H1944 C1965 0.950 . S
H1945 C1968 0.950 . S
H1946 C1969 0.950 . S
H1947 C1971 0.950 . S
H1948 C1972 0.950 . S
H1949 C1973 0.951 . S
H1950 C1975 0.951 . S
H1951 C1977 0.950 1_565 S
H1952 C1978 0.956 . S
H1953 C1980 0.950 . S
H1954 C1983 0.950 . S
H1955 C1984 0.950 . S
H1956 C1986 0.950 . S
H1957 C1987 0.950 . S
C1958 H1940 0.951 . S
C1958 C1959 1.366 . S
C1958 C1960 1.388 . S
C1959 C1958 1.366 . S
C1959 C1963 1.385 1_565 S
C1960 H1941 0.951 . S
C1960 C1958 1.388 . S
C1960 C1961 1.368 . S
C1961 C1960 1.368 . S
C1961 C1962 1.413 1_565 S
C1961 C1964 1.497 1_565 S
C1962 H1942 0.950 . S
C1962 C1961 1.413 1_545 S
C1962 C1963 1.374 . S
C1963 H1943 0.950 . S
C1963 C1959 1.385 1_545 S
C1963 C1962 1.374 . S
C1964 C1961 1.497 1_545 S
C1964 C1965 1.373 . S
C1964 C1966 1.389 1_545 S
C1965 H1944 0.950 . S
C1965 C1964 1.373 . S
C1965 C1981 1.377 . S
C1966 C1964 1.389 1_565 S
C1966 C1967 1.524 . S
C1966 C1980 1.377 . S
C1967 C1966 1.524 . S
C1967 C1968 1.397 . S
C1967 C1972 1.363 . S
C1968 H1945 0.950 . S
C1968 C1967 1.397 . S
C1968 C1969 1.334 . S
C1969 H1946 0.950 . S
C1969 C1968 1.334 . S
C1969 C1970 1.287 . S
C1970 C1969 1.287 . S
C1970 C1971 1.524 . S
C1970 H1989 0.913 . S
C1971 H1947 0.950 . S
C1971 C1970 1.524 . S
C1971 C1972 1.415 . S
C1972 H1948 0.950 . S
C1972 C1967 1.363 . S
C1972 C1971 1.415 . S
C1973 H1949 0.951 . S
C1973 C1974 1.366 . S
C1973 C1975 1.388 . S
C1974 C1973 1.366 . S
C1974 C1978 1.385 . S
C1975 H1950 0.951 . S
C1975 C1973 1.388 . S
C1975 C1976 1.366 . S
C1976 C1975 1.366 . S
C1976 C1977 1.414 . S
C1976 C1979 1.499 . S
C1977 H1951 0.950 1_545 S
C1977 C1976 1.414 . S
C1977 C1978 1.374 . S
C1978 H1952 0.956 . S
C1978 C1974 1.385 . S
C1978 C1977 1.374 . S
C1979 C1976 1.499 . S
C1979 C1980 1.373 1_545 S
C1979 C1981 1.389 . S
C1980 H1953 0.950 . S
C1980 C1966 1.377 . S
C1980 C1979 1.373 1_565 S
C1981 C1965 1.377 . S
C1981 C1979 1.389 . S
C1981 C1982 1.524 . S
C1982 C1981 1.524 . S
C1982 C1983 1.397 . S
C1982 C1987 1.363 . S
C1983 H1954 0.950 . S
C1983 C1982 1.397 . S
C1983 C1984 1.334 . S
C1984 H1955 0.950 . S
C1984 C1983 1.334 . S
C1984 C1985 1.287 . S
C1985 C1984 1.287 . S
C1985 C1986 1.524 . S
C1985 H1988 0.999 . S
C1986 H1956 0.950 . S
C1986 C1985 1.524 . S
C1986 C1987 1.415 . S
C1987 H1957 0.950 . S
C1987 C1982 1.363 . S
C1987 C1986 1.415 . S
H1988 C1985 0.999 . S
H1989 C1970 0.913 . S
H1990 C2008 0.951 . S
H1991 C2010 0.951 . S
H1992 C2012 0.950 . S
H1993 C2013 0.950 . S
H1994 C2015 0.950 . S
H1995 C2018 0.950 1_556 S
H1996 C2019 0.950 . S
H1997 C2021 0.950 . S
H1998 C2022 0.950 . S
H1999 C2023 0.951 . S
H2000 C2025 0.951 . S
H2001 C2027 0.950 . S
H2002 C2028 0.950 . S
H2003 C2030 0.950 . S
H2004 C2033 0.950 . S
H2005 C2034 0.950 . S
H2006 C2036 0.950 1_556 S
H2007 C2037 0.950 1_556 S
C2008 H1990 0.951 . S
C2008 C2009 1.366 . S
C2008 C2010 1.388 . S
C2009 C2008 1.366 . S
C2009 C2013 1.385 1_554 S
C2010 H1991 0.951 . S
C2010 C2008 1.388 . S
C2010 C2011 1.366 . S
C2011 C2010 1.366 . S
C2011 C2012 1.414 1_554 S
C2011 C2014 1.499 . S
C2012 H1992 0.950 . S
C2012 C2011 1.414 1_556 S
C2012 C2013 1.374 . S
C2013 H1993 0.950 . S
C2013 C2009 1.385 1_556 S
C2013 C2012 1.374 . S
C2014 C2011 1.499 . S
C2014 C2015 1.373 . S
C2014 C2016 1.389 . S
C2015 H1994 0.950 . S
C2015 C2014 1.373 . S
C2015 C2031 1.377 . S
C2016 C2014 1.389 . S
C2016 C2017 1.524 . S
C2016 C2030 1.377 . S
C2017 C2016 1.524 . S
C2017 C2018 1.397 . S
C2017 C2022 1.363 . S
C2018 H1995 0.950 1_554 S
C2018 C2017 1.397 . S
C2018 C2019 1.334 1_554 S
C2019 H1996 0.950 . S
C2019 C2018 1.334 1_556 S
C2019 C2020 1.287 1_556 S
C2020 C2019 1.287 1_554 S
C2020 C2021 1.524 . S
C2020 H2039 0.913 . S
C2021 H1997 0.950 . S
C2021 C2020 1.524 . S
C2021 C2022 1.415 . S
C2022 H1998 0.950 . S
C2022 C2017 1.363 . S
C2022 C2021 1.415 . S
C2023 H1999 0.951 . S
C2023 C2024 1.366 . S
C2023 C2025 1.388 . S
C2024 C2023 1.366 . S
C2024 C2028 1.385 . S
C2025 H2000 0.951 . S
C2025 C2023 1.388 . S
C2025 C2026 1.366 . S
C2026 C2025 1.366 . S
C2026 C2027 1.414 . S
C2026 C2029 1.499 . S
C2027 H2001 0.950 . S
C2027 C2026 1.414 . S
C2027 C2028 1.374 . S
C2028 H2002 0.950 . S
C2028 C2024 1.385 . S
C2028 C2027 1.374 . S
C2029 C2026 1.499 . S
C2029 C2030 1.373 . S
C2029 C2031 1.389 . S
C2030 H2003 0.950 . S
C2030 C2016 1.377 . S
C2030 C2029 1.373 . S
C2031 C2015 1.377 . S
C2031 C2029 1.389 . S
C2031 C2032 1.524 . S
C2032 C2031 1.524 . S
C2032 C2033 1.397 . S
C2032 C2037 1.363 . S
C2033 H2004 0.950 . S
C2033 C2032 1.397 . S
C2033 C2034 1.334 . S
C2034 H2005 0.950 . S
C2034 C2033 1.334 . S
C2034 C2035 1.287 . S
C2035 C2034 1.287 . S
C2035 C2036 1.524 . S
C2035 H2038 0.999 . S
C2036 H2006 0.950 1_554 S
C2036 C2035 1.524 . S
C2036 C2037 1.415 . S
C2037 H2007 0.950 1_554 S
C2037 C2032 1.363 . S
C2037 C2036 1.415 . S
H2038 C2035 0.999 . S
H2039 C2020 0.913 . S
H2040 C2058 0.951 . S
H2041 C2060 0.951 . S
H2042 C2062 0.950 . S
H2043 C2063 0.950 . S
H2044 C2065 0.950 . S
H2045 C2068 0.950 . S
H2046 C2069 0.950 . S
H2047 C2071 0.950 . S
H2048 C2072 0.950 . S
H2049 C2073 0.951 . S
H2050 C2075 0.951 . S
H2051 C2077 0.950 . S
H2052 C2078 0.950 . S
H2053 C2080 0.950 . S
H2054 C2083 0.950 . S
H2055 C2084 0.950 . S
H2056 C2086 0.950 . S
H2057 C2087 0.950 . S
C2058 H2040 0.951 . S
C2058 C2059 1.366 . S
C2058 C2060 1.388 . S
C2059 C2058 1.366 . S
C2059 C2063 1.385 . S
C2060 H2041 0.951 . S
C2060 C2058 1.388 . S
C2060 C2061 1.366 . S
C2061 C2060 1.366 . S
C2061 C2062 1.414 . S
C2061 C2064 1.499 . S
C2062 H2042 0.950 . S
C2062 C2061 1.414 . S
C2062 C2063 1.374 . S
C2063 H2043 0.950 . S
C2063 C2059 1.385 . S
C2063 C2062 1.374 . S
C2064 C2061 1.499 . S
C2064 C2065 1.373 . S
C2064 C2066 1.389 . S
C2065 H2044 0.950 . S
C2065 C2064 1.373 . S
C2065 C2081 1.377 . S
C2066 C2064 1.389 . S
C2066 C2067 1.524 . S
C2066 C2080 1.377 . S
C2067 C2066 1.524 . S
C2067 C2068 1.397 . S
C2067 C2072 1.363 . S
C2068 H2045 0.950 . S
C2068 C2067 1.397 . S
C2068 C2069 1.334 . S
C2069 H2046 0.950 . S
C2069 C2068 1.334 . S
C2069 C2070 1.287 . S
C2070 C2069 1.287 . S
C2070 C2071 1.524 . S
C2070 H2089 0.913 . S
C2071 H2047 0.950 . S
C2071 C2070 1.524 . S
C2071 C2072 1.415 . S
C2072 H2048 0.950 . S
C2072 C2067 1.363 . S
C2072 C2071 1.415 . S
C2073 H2049 0.951 . S
C2073 C2074 1.366 . S
C2073 C2075 1.388 . S
C2074 C2073 1.366 . S
C2074 C2078 1.385 . S
C2075 H2050 0.951 . S
C2075 C2073 1.388 . S
C2075 C2076 1.366 . S
C2076 C2075 1.366 . S
C2076 C2077 1.414 . S
C2076 C2079 1.499 . S
C2077 H2051 0.950 . S
C2077 C2076 1.414 . S
C2077 C2078 1.374 . S
C2078 H2052 0.950 . S
C2078 C2074 1.385 . S
C2078 C2077 1.374 . S
C2079 C2076 1.499 . S
C2079 C2080 1.373 . S
C2079 C2081 1.389 . S
C2080 H2053 0.950 . S
C2080 C2066 1.377 . S
C2080 C2079 1.373 . S
C2081 C2065 1.377 . S
C2081 C2079 1.389 . S
C2081 C2082 1.524 . S
C2082 C2081 1.524 . S
C2082 C2083 1.397 . S
C2082 C2087 1.363 . S
C2083 H2054 0.950 . S
C2083 C2082 1.397 . S
C2083 C2084 1.334 . S
C2084 H2055 0.950 . S
C2084 C2083 1.334 . S
C2084 C2085 1.287 . S
C2085 C2084 1.287 . S
C2085 C2086 1.524 . S
C2085 H2088 0.999 . S
C2086 H2056 0.950 . S
C2086 C2085 1.524 . S
C2086 C2087 1.415 . S
C2087 H2057 0.950 . S
C2087 C2082 1.363 . S
C2087 C2086 1.415 . S
H2088 C2085 0.999 . S
H2089 C2070 0.913 . S
H2090 C2108 0.951 . S
H2091 C2110 0.951 . S
H2092 C2112 0.950 . S
H2093 C2113 0.950 . S
H2094 C2115 0.950 . S
H2095 C2118 0.950 . S
H2096 C2119 0.950 . S
H2097 C2121 0.950 . S
H2098 C2122 0.950 . S
H2099 C2123 0.951 . S
H2100 C2125 0.951 . S
H2101 C2127 0.950 . S
H2102 C2128 0.950 . S
H2103 C2130 0.950 . S
H2104 C2133 0.950 . S
H2105 C2134 0.950 . S
H2106 C2136 0.950 . S
H2107 C2137 0.950 . S
C2108 H2090 0.951 . S
C2108 C2109 1.366 . S
C2108 C2110 1.388 . S
C2109 C2108 1.366 . S
C2109 C2113 1.385 . S
C2110 H2091 0.951 . S
C2110 C2108 1.388 . S
C2110 C2111 1.366 . S
C2111 C2110 1.366 . S
C2111 C2112 1.414 . S
C2111 C2114 1.499 . S
C2112 H2092 0.950 . S
C2112 C2111 1.414 . S
C2112 C2113 1.374 . S
C2113 H2093 0.950 . S
C2113 C2109 1.385 . S
C2113 C2112 1.374 . S
C2114 C2111 1.499 . S
C2114 C2115 1.373 . S
C2114 C2116 1.389 . S
C2115 H2094 0.950 . S
C2115 C2114 1.373 . S
C2115 C2131 1.377 . S
C2116 C2114 1.389 . S
C2116 C2117 1.524 . S
C2116 C2130 1.377 . S
C2117 C2116 1.524 . S
C2117 C2118 1.397 . S
C2117 C2122 1.363 . S
C2118 H2095 0.950 . S
C2118 C2117 1.397 . S
C2118 C2119 1.334 . S
C2119 H2096 0.950 . S
C2119 C2118 1.334 . S
C2119 C2120 1.287 . S
C2120 C2119 1.287 . S
C2120 C2121 1.524 . S
C2120 H2139 0.913 . S
C2121 H2097 0.950 . S
C2121 C2120 1.524 . S
C2121 C2122 1.415 . S
C2122 H2098 0.950 . S
C2122 C2117 1.363 . S
C2122 C2121 1.415 . S
C2123 H2099 0.951 . S
C2123 C2124 1.366 . S
C2123 C2125 1.388 . S
C2124 C2123 1.366 . S
C2124 C2128 1.385 . S
C2125 H2100 0.951 . S
C2125 C2123 1.388 . S
C2125 C2126 1.366 . S
C2126 C2125 1.366 . S
C2126 C2127 1.414 . S
C2126 C2129 1.499 . S
C2127 H2101 0.950 . S
C2127 C2126 1.414 . S
C2127 C2128 1.374 . S
C2128 H2102 0.950 . S
C2128 C2124 1.385 . S
C2128 C2127 1.374 . S
C2129 C2126 1.499 . S
C2129 C2130 1.373 . S
C2129 C2131 1.389 . S
C2130 H2103 0.950 . S
C2130 C2116 1.377 . S
C2130 C2129 1.373 . S
C2131 C2115 1.377 . S
C2131 C2129 1.389 . S
C2131 C2132 1.524 . S
C2132 C2131 1.524 . S
C2132 C2133 1.397 . S
C2132 C2137 1.363 . S
C2133 H2104 0.950 . S
C2133 C2132 1.397 . S
C2133 C2134 1.334 . S
C2134 H2105 0.950 . S
C2134 C2133 1.334 . S
C2134 C2135 1.287 . S
C2135 C2134 1.287 . S
C2135 C2136 1.524 . S
C2135 H2138 0.999 . S
C2136 H2106 0.950 . S
C2136 C2135 1.524 . S
C2136 C2137 1.415 . S
C2137 H2107 0.950 . S
C2137 C2132 1.363 . S
C2137 C2136 1.415 . S
H2138 C2135 0.999 . S
H2139 C2120 0.913 . S
H2140 C2158 0.951 . S
H2141 C2160 0.951 . S
H2142 C2162 0.950 . S
H2143 C2163 0.950 . S
H2144 C2165 0.950 . S
H2145 C2168 0.950 . S
H2146 C2169 0.950 . S
H2147 C2171 0.950 . S
H2148 C2172 0.950 . S
H2149 C2173 0.951 . S
H2150 C2175 0.951 . S
H2151 C2177 0.950 . S
H2152 C2178 0.950 . S
H2153 C2180 0.950 . S
H2154 C2183 0.950 . S
H2155 C2184 0.950 . S
H2156 C2186 0.950 . S
H2157 C2187 0.950 . S
C2158 H2140 0.951 . S
C2158 C2159 1.366 . S
C2158 C2160 1.388 . S
C2159 C2158 1.366 . S
C2159 C2163 1.385 . S
C2160 H2141 0.951 . S
C2160 C2158 1.388 . S
C2160 C2161 1.366 . S
C2161 C2160 1.366 . S
C2161 C2162 1.414 . S
C2161 C2164 1.499 . S
C2162 H2142 0.950 . S
C2162 C2161 1.414 . S
C2162 C2163 1.374 . S
C2163 H2143 0.950 . S
C2163 C2159 1.385 . S
C2163 C2162 1.374 . S
C2164 C2161 1.499 . S
C2164 C2165 1.373 . S
C2164 C2166 1.389 . S
C2165 H2144 0.950 . S
C2165 C2164 1.373 . S
C2165 C2181 1.377 . S
C2166 C2164 1.389 . S
C2166 C2167 1.524 . S
C2166 C2180 1.377 . S
C2167 C2166 1.524 . S
C2167 C2168 1.397 . S
C2167 C2172 1.363 . S
C2168 H2145 0.950 . S
C2168 C2167 1.397 . S
C2168 C2169 1.334 . S
C2169 H2146 0.950 . S
C2169 C2168 1.334 . S
C2169 C2170 1.287 . S
C2170 C2169 1.287 . S
C2170 C2171 1.524 . S
C2170 H2189 0.913 . S
C2171 H2147 0.950 . S
C2171 C2170 1.524 . S
C2171 C2172 1.415 . S
C2172 H2148 0.950 . S
C2172 C2167 1.363 . S
C2172 C2171 1.415 . S
C2173 H2149 0.951 . S
C2173 C2174 1.366 . S
C2173 C2175 1.388 . S
C2174 C2173 1.366 . S
C2174 C2178 1.385 . S
C2175 H2150 0.951 . S
C2175 C2173 1.388 . S
C2175 C2176 1.366 . S
C2176 C2175 1.366 . S
C2176 C2177 1.414 . S
C2176 C2179 1.499 . S
C2177 H2151 0.950 . S
C2177 C2176 1.414 . S
C2177 C2178 1.374 . S
C2178 H2152 0.950 . S
C2178 C2174 1.385 . S
C2178 C2177 1.374 . S
C2179 C2176 1.499 . S
C2179 C2180 1.373 . S
C2179 C2181 1.389 . S
C2180 H2153 0.950 . S
C2180 C2166 1.377 . S
C2180 C2179 1.373 . S
C2181 C2165 1.377 . S
C2181 C2179 1.389 . S
C2181 C2182 1.524 . S
C2182 C2181 1.524 . S
C2182 C2183 1.397 . S
C2182 C2187 1.363 . S
C2183 H2154 0.950 . S
C2183 C2182 1.397 . S
C2183 C2184 1.334 . S
C2184 H2155 0.950 . S
C2184 C2183 1.334 . S
C2184 C2185 1.287 . S
C2185 C2184 1.287 . S
C2185 C2186 1.524 . S
C2185 H2188 0.999 . S
C2186 H2156 0.950 . S
C2186 C2185 1.524 . S
C2186 C2187 1.415 . S
C2187 H2157 0.950 . S
C2187 C2182 1.363 . S
C2187 C2186 1.415 . S
H2188 C2185 0.999 . S
H2189 C2170 0.913 . S
H2190 C2208 0.951 . S
H2191 C2210 0.951 . S
H2192 C2212 0.950 . S
H2193 C2213 0.950 . S
H2194 C2215 0.950 . S
H2195 C2218 0.950 . S
H2196 C2219 0.950 . S
H2197 C2221 0.950 . S
H2198 C2222 0.950 . S
H2199 C2223 0.951 . S
H2200 C2225 0.951 . S
H2201 C2227 0.950 . S
H2202 C2228 0.950 . S
H2203 C2230 0.950 . S
H2204 C2233 0.950 . S
H2205 C2234 0.950 . S
H2206 C2236 0.950 . S
H2207 C2237 0.950 . S
C2208 H2190 0.951 . S
C2208 C2209 1.366 . S
C2208 C2210 1.388 . S
C2209 C2208 1.366 . S
C2209 C2213 1.385 . S
C2210 H2191 0.951 . S
C2210 C2208 1.388 . S
C2210 C2211 1.366 . S
C2211 C2210 1.366 . S
C2211 C2212 1.414 . S
C2211 C2214 1.499 . S
C2212 H2192 0.950 . S
C2212 C2211 1.414 . S
C2212 C2213 1.374 . S
C2213 H2193 0.950 . S
C2213 C2209 1.385 . S
C2213 C2212 1.374 . S
C2214 C2211 1.499 . S
C2214 C2215 1.373 . S
C2214 C2216 1.389 . S
C2215 H2194 0.950 . S
C2215 C2214 1.373 . S
C2215 C2231 1.377 . S
C2216 C2214 1.389 . S
C2216 C2217 1.524 . S
C2216 C2230 1.377 . S
C2217 C2216 1.524 . S
C2217 C2218 1.397 . S
C2217 C2222 1.363 . S
C2218 H2195 0.950 . S
C2218 C2217 1.397 . S
C2218 C2219 1.334 . S
C2219 H2196 0.950 . S
C2219 C2218 1.334 . S
C2219 C2220 1.287 . S
C2220 C2219 1.287 . S
C2220 C2221 1.524 . S
C2220 H2239 0.913 . S
C2221 H2197 0.950 . S
C2221 C2220 1.524 . S
C2221 C2222 1.415 . S
C2222 H2198 0.950 . S
C2222 C2217 1.363 . S
C2222 C2221 1.415 . S
C2223 H2199 0.951 . S
C2223 C2224 1.366 . S
C2223 C2225 1.388 . S
C2224 C2223 1.366 . S
C2224 C2228 1.385 . S
C2225 H2200 0.951 . S
C2225 C2223 1.388 . S
C2225 C2226 1.366 . S
C2226 C2225 1.366 . S
C2226 C2227 1.414 . S
C2226 C2229 1.499 . S
C2227 H2201 0.950 . S
C2227 C2226 1.414 . S
C2227 C2228 1.374 . S
C2228 H2202 0.950 . S
C2228 C2224 1.385 . S
C2228 C2227 1.374 . S
C2229 C2226 1.499 . S
C2229 C2230 1.373 . S
C2229 C2231 1.389 . S
C2230 H2203 0.950 . S
C2230 C2216 1.377 . S
C2230 C2229 1.373 . S
C2231 C2215 1.377 . S
C2231 C2229 1.389 . S
C2231 C2232 1.524 . S
C2232 C2231 1.524 . S
C2232 C2233 1.397 . S
C2232 C2237 1.363 . S
C2233 H2204 0.950 . S
C2233 C2232 1.397 . S
C2233 C2234 1.334 . S
C2234 H2205 0.950 . S
C2234 C2233 1.334 . S
C2234 C2235 1.287 . S
C2235 C2234 1.287 . S
C2235 C2236 1.524 . S
C2235 H2238 0.999 . S
C2236 H2206 0.950 . S
C2236 C2235 1.524 . S
C2236 C2237 1.415 . S
C2237 H2207 0.950 . S
C2237 C2232 1.363 . S
C2237 C2236 1.415 . S
H2238 C2235 0.999 . S
H2239 C2220 0.913 . S
H2240 C2258 0.951 . S
H2241 C2260 0.951 . S
H2242 C2262 0.950 . S
H2243 C2263 0.950 . S
H2244 C2265 0.950 . S
H2245 C2268 0.950 . S
H2246 C2269 0.950 . S
H2247 C2271 0.950 . S
H2248 C2272 0.950 . S
H2249 C2273 0.951 . S
H2250 C2275 0.951 . S
H2251 C2277 0.950 . S
H2252 C2278 0.950 . S
H2253 C2280 0.950 . S
H2254 C2283 0.950 . S
H2255 C2284 0.950 . S
H2256 C2286 0.950 . S
H2257 C2287 0.950 . S
C2258 H2240 0.951 . S
C2258 C2259 1.366 . S
C2258 C2260 1.388 . S
C2259 C2258 1.366 . S
C2259 C2263 1.385 . S
C2260 H2241 0.951 . S
C2260 C2258 1.388 . S
C2260 C2261 1.366 . S
C2261 C2260 1.366 . S
C2261 C2262 1.414 . S
C2261 C2264 1.499 . S
C2262 H2242 0.950 . S
C2262 C2261 1.414 . S
C2262 C2263 1.374 . S
C2263 H2243 0.950 . S
C2263 C2259 1.385 . S
C2263 C2262 1.374 . S
C2264 C2261 1.499 . S
C2264 C2265 1.373 . S
C2264 C2266 1.389 . S
C2265 H2244 0.950 . S
C2265 C2264 1.373 . S
C2265 C2281 1.377 . S
C2266 C2264 1.389 . S
C2266 C2267 1.524 . S
C2266 C2280 1.377 . S
C2267 C2266 1.524 . S
C2267 C2268 1.397 . S
C2267 C2272 1.363 . S
C2268 H2245 0.950 . S
C2268 C2267 1.397 . S
C2268 C2269 1.334 . S
C2269 H2246 0.950 . S
C2269 C2268 1.334 . S
C2269 C2270 1.287 . S
C2270 C2269 1.287 . S
C2270 C2271 1.524 . S
C2270 H2289 0.913 . S
C2271 H2247 0.950 . S
C2271 C2270 1.524 . S
C2271 C2272 1.415 . S
C2272 H2248 0.950 . S
C2272 C2267 1.363 . S
C2272 C2271 1.415 . S
C2273 H2249 0.951 . S
C2273 C2274 1.366 . S
C2273 C2275 1.388 . S
C2274 C2273 1.366 . S
C2274 C2278 1.385 . S
C2275 H2250 0.951 . S
C2275 C2273 1.388 . S
C2275 C2276 1.366 . S
C2276 C2275 1.366 . S
C2276 C2277 1.414 . S
C2276 C2279 1.499 . S
C2277 H2251 0.950 . S
C2277 C2276 1.414 . S
C2277 C2278 1.374 . S
C2278 H2252 0.950 . S
C2278 C2274 1.385 . S
C2278 C2277 1.374 . S
C2279 C2276 1.499 . S
C2279 C2280 1.373 . S
C2279 C2281 1.389 . S
C2280 H2253 0.950 . S
C2280 C2266 1.377 . S
C2280 C2279 1.373 . S
C2281 C2265 1.377 . S
C2281 C2279 1.389 . S
C2281 C2282 1.524 . S
C2282 C2281 1.524 . S
C2282 C2283 1.397 . S
C2282 C2287 1.363 . S
C2283 H2254 0.950 . S
C2283 C2282 1.397 . S
C2283 C2284 1.334 . S
C2284 H2255 0.950 . S
C2284 C2283 1.334 . S
C2284 C2285 1.287 . S
C2285 C2284 1.287 . S
C2285 C2286 1.524 . S
C2285 H2288 0.999 . S
C2286 H2256 0.950 . S
C2286 C2285 1.524 . S
C2286 C2287 1.415 . S
C2287 H2257 0.950 . S
C2287 C2282 1.363 . S
C2287 C2286 1.415 . S
H2288 C2285 0.999 . S
H2289 C2270 0.913 . S
H2290 C2308 0.951 . S
H2291 C2310 0.951 . S
H2292 C2312 0.950 . S
H2293 C2313 0.950 . S
H2294 C2315 0.950 . S
H2295 C2318 0.950 . S
H2296 C2319 0.950 . S
H2297 C2321 0.950 . S
H2298 C2322 0.950 . S
H2299 C2323 0.951 . S
H2300 C2325 0.951 . S
H2301 C2327 0.950 . S
H2302 C2328 0.950 . S
H2303 C2330 0.950 . S
H2304 C2333 0.950 . S
H2305 C2334 0.950 . S
H2306 C2336 0.950 . S
H2307 C2337 0.950 . S
C2308 H2290 0.951 . S
C2308 C2309 1.366 . S
C2308 C2310 1.388 . S
C2309 C2308 1.366 . S
C2309 C2313 1.385 . S
C2310 H2291 0.951 . S
C2310 C2308 1.388 . S
C2310 C2311 1.366 . S
C2311 C2310 1.366 . S
C2311 C2312 1.414 . S
C2311 C2314 1.499 . S
C2312 H2292 0.950 . S
C2312 C2311 1.414 . S
C2312 C2313 1.374 . S
C2313 H2293 0.950 . S
C2313 C2309 1.385 . S
C2313 C2312 1.374 . S
C2314 C2311 1.499 . S
C2314 C2315 1.373 . S
C2314 C2316 1.389 . S
C2315 H2294 0.950 . S
C2315 C2314 1.373 . S
C2315 C2331 1.377 . S
C2316 C2314 1.389 . S
C2316 C2317 1.524 . S
C2316 C2330 1.377 . S
C2317 C2316 1.524 . S
C2317 C2318 1.397 . S
C2317 C2322 1.363 . S
C2318 H2295 0.950 . S
C2318 C2317 1.397 . S
C2318 C2319 1.334 . S
C2319 H2296 0.950 . S
C2319 C2318 1.334 . S
C2319 C2320 1.287 . S
C2320 C2319 1.287 . S
C2320 C2321 1.524 . S
C2320 H2339 0.913 . S
C2321 H2297 0.950 . S
C2321 C2320 1.524 . S
C2321 C2322 1.415 . S
C2322 H2298 0.950 . S
C2322 C2317 1.363 . S
C2322 C2321 1.415 . S
C2323 H2299 0.951 . S
C2323 C2324 1.366 . S
C2323 C2325 1.388 . S
C2324 C2323 1.366 . S
C2324 C2328 1.385 . S
C2325 H2300 0.951 . S
C2325 C2323 1.388 . S
C2325 C2326 1.366 . S
C2326 C2325 1.366 . S
C2326 C2327 1.414 . S
C2326 C2329 1.499 . S
C2327 H2301 0.950 . S
C2327 C2326 1.414 . S
C2327 C2328 1.374 . S
C2328 H2302 0.950 . S
C2328 C2324 1.385 . S
C2328 C2327 1.374 . S
C2329 C2326 1.499 . S
C2329 C2330 1.373 . S
C2329 C2331 1.389 . S
C2330 H2303 0.950 . S
C2330 C2316 1.377 . S
C2330 C2329 1.373 . S
C2331 C2315 1.377 . S
C2331 C2329 1.389 . S
C2331 C2332 1.524 . S
C2332 C2331 1.524 . S
C2332 C2333 1.397 . S
C2332 C2337 1.363 . S
C2333 H2304 0.950 . S
C2333 C2332 1.397 . S
C2333 C2334 1.334 . S
C2334 H2305 0.950 . S
C2334 C2333 1.334 . S
C2334 C2335 1.287 . S
C2335 C2334 1.287 . S
C2335 C2336 1.524 . S
C2335 H2338 0.999 . S
C2336 H2306 0.950 . S
C2336 C2335 1.524 . S
C2336 C2337 1.415 . S
C2337 H2307 0.950 . S
C2337 C2332 1.363 . S
C2337 C2336 1.415 . S
H2338 C2335 0.999 . S
H2339 C2320 0.913 . S
H2340 C2358 0.951 . S
H2341 C2360 0.951 . S
H2342 C2362 0.950 . S
H2343 C2363 0.950 . S
H2344 C2365 0.950 . S
H2345 C2368 0.950 . S
H2346 C2369 0.950 . S
H2347 C2371 0.950 . S
H2348 C2372 0.950 . S
H2349 C2373 0.951 . S
H2350 C2375 0.951 . S
H2351 C2377 0.950 . S
H2352 C2378 0.950 . S
H2353 C2380 0.950 . S
H2354 C2383 0.950 . S
H2355 C2384 0.950 . S
H2356 C2386 0.950 . S
H2357 C2387 0.950 . S
C2358 H2340 0.951 . S
C2358 C2359 1.366 . S
C2358 C2360 1.388 . S
C2359 C2358 1.366 . S
C2359 C2363 1.385 . S
C2360 H2341 0.951 . S
C2360 C2358 1.388 . S
C2360 C2361 1.366 . S
C2361 C2360 1.366 . S
C2361 C2362 1.414 . S
C2361 C2364 1.499 . S
C2362 H2342 0.950 . S
C2362 C2361 1.414 . S
C2362 C2363 1.374 . S
C2363 H2343 0.950 . S
C2363 C2359 1.385 . S
C2363 C2362 1.374 . S
C2364 C2361 1.499 . S
C2364 C2365 1.373 . S
C2364 C2366 1.389 . S
C2365 H2344 0.950 . S
C2365 C2364 1.373 . S
C2365 C2381 1.377 . S
C2366 C2364 1.389 . S
C2366 C2367 1.524 . S
C2366 C2380 1.377 . S
C2367 C2366 1.524 . S
C2367 C2368 1.397 . S
C2367 C2372 1.363 . S
C2368 H2345 0.950 . S
C2368 C2367 1.397 . S
C2368 C2369 1.334 . S
C2369 H2346 0.950 . S
C2369 C2368 1.334 . S
C2369 C2370 1.287 . S
C2370 C2369 1.287 . S
C2370 C2371 1.524 . S
C2370 H2389 0.913 . S
C2371 H2347 0.950 . S
C2371 C2370 1.524 . S
C2371 C2372 1.415 . S
C2372 H2348 0.950 . S
C2372 C2367 1.363 . S
C2372 C2371 1.415 . S
C2373 H2349 0.951 . S
C2373 C2374 1.366 . S
C2373 C2375 1.388 . S
C2374 C2373 1.366 . S
C2374 C2378 1.385 . S
C2375 H2350 0.951 . S
C2375 C2373 1.388 . S
C2375 C2376 1.366 . S
C2376 C2375 1.366 . S
C2376 C2377 1.414 . S
C2376 C2379 1.499 . S
C2377 H2351 0.950 . S
C2377 C2376 1.414 . S
C2377 C2378 1.374 . S
C2378 H2352 0.950 . S
C2378 C2374 1.385 . S
C2378 C2377 1.374 . S
C2379 C2376 1.499 . S
C2379 C2380 1.373 . S
C2379 C2381 1.389 . S
C2380 H2353 0.950 . S
C2380 C2366 1.377 . S
C2380 C2379 1.373 . S
C2381 C2365 1.377 . S
C2381 C2379 1.389 . S
C2381 C2382 1.524 . S
C2382 C2381 1.524 . S
C2382 C2383 1.397 . S
C2382 C2387 1.363 . S
C2383 H2354 0.950 . S
C2383 C2382 1.397 . S
C2383 C2384 1.334 . S
C2384 H2355 0.950 . S
C2384 C2383 1.334 . S
C2384 C2385 1.287 . S
C2385 C2384 1.287 . S
C2385 C2386 1.524 . S
C2385 H2388 0.999 . S
C2386 H2356 0.950 . S
C2386 C2385 1.524 . S
C2386 C2387 1.415 . S
C2387 H2357 0.950 . S
C2387 C2382 1.363 . S
C2387 C2386 1.415 . S
H2388 C2385 0.999 . S
H2389 C2370 0.913 . S
H2390 C2408 0.951 . S
H2391 C2410 0.951 . S
H2392 C2412 0.950 . S
H2393 C2413 0.950 . S
H2394 C2415 0.950 . S
H2395 C2418 0.950 . S
H2396 C2419 0.950 . S
H2397 C2421 0.950 . S
H2398 C2422 0.950 . S
H2399 C2423 0.951 . S
H2400 C2425 0.951 . S
H2401 C2427 0.950 . S
H2402 C2428 0.950 . S
H2403 C2430 0.950 . S
H2404 C2433 0.950 . S
H2405 C2434 0.950 . S
H2406 C2436 0.950 . S
H2407 C2437 0.950 . S
C2408 H2390 0.951 . S
C2408 C2409 1.366 . S
C2408 C2410 1.388 . S
C2409 C2408 1.366 . S
C2409 C2413 1.385 . S
C2410 H2391 0.951 . S
C2410 C2408 1.388 . S
C2410 C2411 1.366 . S
C2411 C2410 1.366 . S
C2411 C2412 1.414 . S
C2411 C2414 1.499 . S
C2412 H2392 0.950 . S
C2412 C2411 1.414 . S
C2412 C2413 1.374 . S
C2413 H2393 0.950 . S
C2413 C2409 1.385 . S
C2413 C2412 1.374 . S
C2414 C2411 1.499 . S
C2414 C2415 1.373 . S
C2414 C2416 1.389 . S
C2415 H2394 0.950 . S
C2415 C2414 1.373 . S
C2415 C2431 1.377 . S
C2416 C2414 1.389 . S
C2416 C2417 1.524 . S
C2416 C2430 1.377 . S
C2417 C2416 1.524 . S
C2417 C2418 1.397 . S
C2417 C2422 1.363 . S
C2418 H2395 0.950 . S
C2418 C2417 1.397 . S
C2418 C2419 1.334 . S
C2419 H2396 0.950 . S
C2419 C2418 1.334 . S
C2419 C2420 1.287 . S
C2420 C2419 1.287 . S
C2420 C2421 1.524 . S
C2420 H2439 0.913 . S
C2421 H2397 0.950 . S
C2421 C2420 1.524 . S
C2421 C2422 1.415 . S
C2422 H2398 0.950 . S
C2422 C2417 1.363 . S
C2422 C2421 1.415 . S
C2423 H2399 0.951 . S
C2423 C2424 1.366 . S
C2423 C2425 1.388 . S
C2424 C2423 1.366 . S
C2424 C2428 1.385 . S
C2425 H2400 0.951 . S
C2425 C2423 1.388 . S
C2425 C2426 1.366 . S
C2426 C2425 1.366 . S
C2426 C2427 1.414 . S
C2426 C2429 1.499 . S
C2427 H2401 0.950 . S
C2427 C2426 1.414 . S
C2427 C2428 1.374 . S
C2428 H2402 0.950 . S
C2428 C2424 1.385 . S
C2428 C2427 1.374 . S
C2429 C2426 1.499 . S
C2429 C2430 1.373 . S
C2429 C2431 1.389 . S
C2430 H2403 0.950 . S
C2430 C2416 1.377 . S
C2430 C2429 1.373 . S
C2431 C2415 1.377 . S
C2431 C2429 1.389 . S
C2431 C2432 1.524 . S
C2432 C2431 1.524 . S
C2432 C2433 1.397 . S
C2432 C2437 1.363 . S
C2433 H2404 0.950 . S
C2433 C2432 1.397 . S
C2433 C2434 1.334 . S
C2434 H2405 0.950 . S
C2434 C2433 1.334 . S
C2434 C2435 1.287 . S
C2435 C2434 1.287 . S
C2435 C2436 1.524 . S
C2435 H2438 0.999 . S
C2436 H2406 0.950 . S
C2436 C2435 1.524 . S
C2436 C2437 1.415 . S
C2437 H2407 0.950 . S
C2437 C2432 1.363 . S
C2437 C2436 1.415 . S
H2438 C2435 0.999 . S
H2439 C2420 0.913 . S
H2440 C2458 0.951 . S
H2441 C2460 0.951 . S
H2442 C2462 0.950 . S
H2443 C2463 0.950 . S
H2444 C2465 0.950 . S
H2445 C2468 0.950 . S
H2446 C2469 0.950 . S
H2447 C2471 0.945 . S
H2448 C2472 0.950 . S
H2449 C2473 0.951 . S
H2450 C2475 0.951 . S
H2451 C2477 0.950 . S
H2452 C2478 0.950 . S
H2453 C2480 0.950 . S
H2454 C2483 0.950 . S
H2455 C2484 0.950 . S
H2456 C2486 0.950 . S
H2457 C2487 0.950 . S
C2458 H2440 0.951 . S
C2458 C2459 1.366 . S
C2458 C2460 1.388 . S
C2459 C2458 1.366 . S
C2459 C2463 1.385 . S
C2460 H2441 0.951 . S
C2460 C2458 1.388 . S
C2460 C2461 1.366 . S
C2461 C2460 1.366 . S
C2461 C2462 1.414 . S
C2461 C2464 1.499 . S
C2462 H2442 0.950 . S
C2462 C2461 1.414 . S
C2462 C2463 1.374 . S
C2463 H2443 0.950 . S
C2463 C2459 1.385 . S
C2463 C2462 1.374 . S
C2464 C2461 1.499 . S
C2464 C2465 1.373 . S
C2464 C2466 1.389 . S
C2465 H2444 0.950 . S
C2465 C2464 1.373 . S
C2465 C2481 1.377 . S
C2466 C2464 1.389 . S
C2466 C2467 1.524 . S
C2466 C2480 1.377 . S
C2467 C2466 1.524 . S
C2467 C2468 1.397 . S
C2467 C2472 1.363 . S
C2468 H2445 0.950 . S
C2468 C2467 1.397 . S
C2468 C2469 1.334 . S
C2469 H2446 0.950 . S
C2469 C2468 1.334 . S
C2469 C2470 1.287 . S
C2470 C2469 1.287 . S
C2470 C2471 1.524 . S
C2470 H2489 0.913 . S
C2471 H2447 0.945 . S
C2471 C2470 1.524 . S
C2471 C2472 1.415 . S
C2472 H2448 0.950 . S
C2472 C2467 1.363 . S
C2472 C2471 1.415 . S
C2473 H2449 0.951 . S
C2473 C2474 1.366 . S
C2473 C2475 1.388 . S
C2474 C2473 1.366 . S
C2474 C2478 1.385 . S
C2475 H2450 0.951 . S
C2475 C2473 1.388 . S
C2475 C2476 1.366 . S
C2476 C2475 1.366 . S
C2476 C2477 1.414 . S
C2476 C2479 1.499 . S
C2477 H2451 0.950 . S
C2477 C2476 1.414 . S
C2477 C2478 1.374 . S
C2478 H2452 0.950 . S
C2478 C2474 1.385 . S
C2478 C2477 1.374 . S
C2479 C2476 1.499 . S
C2479 C2480 1.373 . S
C2479 C2481 1.389 . S
C2480 H2453 0.950 . S
C2480 C2466 1.377 . S
C2480 C2479 1.373 . S
C2481 C2465 1.377 . S
C2481 C2479 1.389 . S
C2481 C2482 1.524 . S
C2482 C2481 1.524 . S
C2482 C2483 1.397 . S
C2482 C2487 1.363 . S
C2483 H2454 0.950 . S
C2483 C2482 1.397 . S
C2483 C2484 1.334 . S
C2484 H2455 0.950 . S
C2484 C2483 1.334 . S
C2484 C2485 1.287 . S
C2485 C2484 1.287 . S
C2485 C2486 1.524 . S
C2485 H2488 0.999 . S
C2486 H2456 0.950 . S
C2486 C2485 1.524 . S
C2486 C2487 1.415 . S
C2487 H2457 0.950 . S
C2487 C2482 1.363 . S
C2487 C2486 1.415 . S
H2488 C2485 0.999 . S
H2489 C2470 0.913 . S
H2490 C2508 0.951 . S
H2491 C2510 0.951 . S
H2492 C2512 0.950 . S
H2493 C2513 0.950 . S
H2494 C2515 0.950 . S
H2495 C2518 0.950 . S
H2496 C2519 0.950 . S
H2497 C2521 0.950 1_556 S
H2498 C2522 0.950 1_556 S
H2499 C2523 0.951 . S
H2500 C2525 0.951 . S
H2501 C2527 0.950 . S
H2502 C2528 0.950 . S
H2503 C2530 0.950 . S
H2504 C2533 0.950 1_556 S
H2505 C2534 0.930 1_556 S
H2506 C2536 0.950 . S
H2507 C2537 0.950 . S
C2508 H2490 0.951 . S
C2508 C2509 1.366 . S
C2508 C2510 1.388 . S
C2509 C2508 1.366 . S
C2509 C2513 1.385 . S
C2510 H2491 0.951 . S
C2510 C2508 1.388 . S
C2510 C2511 1.366 . S
C2511 C2510 1.366 . S
C2511 C2512 1.414 . S
C2511 C2514 1.499 . S
C2512 H2492 0.950 . S
C2512 C2511 1.414 . S
C2512 C2513 1.374 . S
C2513 H2493 0.950 . S
C2513 C2509 1.385 . S
C2513 C2512 1.374 . S
C2514 C2511 1.499 . S
C2514 C2515 1.373 . S
C2514 C2516 1.389 . S
C2515 H2494 0.950 . S
C2515 C2514 1.373 . S
C2515 C2531 1.377 . S
C2516 C2514 1.389 . S
C2516 C2517 1.524 . S
C2516 C2530 1.377 . S
C2517 C2516 1.524 . S
C2517 C2518 1.397 . S
C2517 C2522 1.363 . S
C2518 H2495 0.950 . S
C2518 C2517 1.397 . S
C2518 C2519 1.334 . S
C2519 H2496 0.950 . S
C2519 C2518 1.334 . S
C2519 C2520 1.287 . S
C2520 C2519 1.287 . S
C2520 C2521 1.524 . S
C2520 H2539 0.913 . S
C2521 H2497 0.950 1_554 S
C2521 C2520 1.524 . S
C2521 C2522 1.415 . S
C2522 H2498 0.950 1_554 S
C2522 C2517 1.363 . S
C2522 C2521 1.415 . S
C2523 H2499 0.951 . S
C2523 C2524 1.366 . S
C2523 C2525 1.388 . S
C2524 C2523 1.366 . S
C2524 C2528 1.385 1_554 S
C2525 H2500 0.951 . S
C2525 C2523 1.388 . S
C2525 C2526 1.366 . S
C2526 C2525 1.366 . S
C2526 C2527 1.414 1_554 S
C2526 C2529 1.499 . S
C2527 H2501 0.950 . S
C2527 C2526 1.414 1_556 S
C2527 C2528 1.374 . S
C2528 H2502 0.950 . S
C2528 C2524 1.385 1_556 S
C2528 C2527 1.374 . S
C2529 C2526 1.499 . S
C2529 C2530 1.373 . S
C2529 C2531 1.389 . S
C2530 H2503 0.950 . S
C2530 C2516 1.377 . S
C2530 C2529 1.373 . S
C2531 C2515 1.377 . S
C2531 C2529 1.389 . S
C2531 C2532 1.524 . S
C2532 C2531 1.524 . S
C2532 C2533 1.397 . S
C2532 C2537 1.363 . S
C2533 H2504 0.950 1_554 S
C2533 C2532 1.397 . S
C2533 C2534 1.338 . S
C2534 H2505 0.930 1_554 S
C2534 C2533 1.338 . S
C2534 C2535 1.303 . S
C2535 C2534 1.303 . S
C2535 C2536 1.524 . S
C2535 H2538 0.999 . S
C2536 H2506 0.950 . S
C2536 C2535 1.524 . S
C2536 C2537 1.415 . S
C2537 H2507 0.950 . S
C2537 C2532 1.363 . S
C2537 C2536 1.415 . S
H2538 C2535 0.999 . S
H2539 C2520 0.913 . S
H2540 C2558 0.951 . S
H2541 C2560 0.951 . S
H2542 C2562 0.950 . S
H2543 C2563 0.950 . S
H2544 C2565 0.950 . S
H2545 C2568 0.950 . S
H2546 C2569 0.950 . S
H2547 C2571 0.950 . S
H2548 C2572 0.950 . S
H2549 C2573 0.951 . S
H2550 C2575 0.951 . S
H2551 C2577 0.950 . S
H2552 C2578 0.950 . S
H2553 C2580 0.950 . S
H2554 C2583 0.950 . S
H2555 C2584 0.950 . S
H2556 C2586 0.950 . S
H2557 C2587 0.950 . S
C2558 H2540 0.951 . S
C2558 C2559 1.366 . S
C2558 C2560 1.388 . S
C2559 C2558 1.366 . S
C2559 C2563 1.385 . S
C2560 H2541 0.951 . S
C2560 C2558 1.388 . S
C2560 C2561 1.366 . S
C2561 C2560 1.366 . S
C2561 C2562 1.414 . S
C2561 C2564 1.499 . S
C2562 H2542 0.950 . S
C2562 C2561 1.414 . S
C2562 C2563 1.374 . S
C2563 H2543 0.950 . S
C2563 C2559 1.385 . S
C2563 C2562 1.374 . S
C2564 C2561 1.499 . S
C2564 C2565 1.373 . S
C2564 C2566 1.389 . S
C2565 H2544 0.950 . S
C2565 C2564 1.373 . S
C2565 C2581 1.377 . S
C2566 C2564 1.389 . S
C2566 C2567 1.524 . S
C2566 C2580 1.377 . S
C2567 C2566 1.524 . S
C2567 C2568 1.397 . S
C2567 C2572 1.363 . S
C2568 H2545 0.950 . S
C2568 C2567 1.397 . S
C2568 C2569 1.334 . S
C2569 H2546 0.950 . S
C2569 C2568 1.334 . S
C2569 C2570 1.287 . S
C2570 C2569 1.287 . S
C2570 C2571 1.524 . S
C2570 H2589 0.913 . S
C2571 H2547 0.950 . S
C2571 C2570 1.524 . S
C2571 C2572 1.415 . S
C2572 H2548 0.950 . S
C2572 C2567 1.363 . S
C2572 C2571 1.415 . S
C2573 H2549 0.951 . S
C2573 C2574 1.366 . S
C2573 C2575 1.388 . S
C2574 C2573 1.366 . S
C2574 C2578 1.385 . S
C2575 H2550 0.951 . S
C2575 C2573 1.388 . S
C2575 C2576 1.366 . S
C2576 C2575 1.366 . S
C2576 C2577 1.414 . S
C2576 C2579 1.499 . S
C2577 H2551 0.950 . S
C2577 C2576 1.414 . S
C2577 C2578 1.374 . S
C2578 H2552 0.950 . S
C2578 C2574 1.385 . S
C2578 C2577 1.374 . S
C2579 C2576 1.499 . S
C2579 C2580 1.373 . S
C2579 C2581 1.389 . S
C2580 H2553 0.950 . S
C2580 C2566 1.377 . S
C2580 C2579 1.373 . S
C2581 C2565 1.377 . S
C2581 C2579 1.389 . S
C2581 C2582 1.524 . S
C2582 C2581 1.524 . S
C2582 C2583 1.397 . S
C2582 C2587 1.363 . S
C2583 H2554 0.950 . S
C2583 C2582 1.397 . S
C2583 C2584 1.334 . S
C2584 H2555 0.950 . S
C2584 C2583 1.334 . S
C2584 C2585 1.287 . S
C2585 C2584 1.287 . S
C2585 C2586 1.524 . S
C2585 H2588 0.999 . S
C2586 H2556 0.950 . S
C2586 C2585 1.524 . S
C2586 C2587 1.415 . S
C2587 H2557 0.950 . S
C2587 C2582 1.363 . S
C2587 C2586 1.415 . S
H2588 C2585 0.999 . S
H2589 C2570 0.913 . S
H2590 C2608 0.951 . S
H2591 C2610 0.951 . S
H2592 C2612 0.950 . S
H2593 C2613 0.950 . S
H2594 C2615 0.950 . S
H2595 C2618 0.950 . S
H2596 C2619 0.950 . S
H2597 C2621 0.950 . S
H2598 C2622 0.950 . S
H2599 C2623 0.951 . S
H2600 C2625 0.951 . S
H2601 C2627 0.950 . S
H2602 C2628 0.950 . S
H2603 C2630 0.950 . S
H2604 C2633 0.950 . S
H2605 C2634 0.950 . S
H2606 C2636 0.950 . S
H2607 C2637 0.950 . S
C2608 H2590 0.951 . S
C2608 C2609 1.366 . S
C2608 C2610 1.388 . S
C2609 C2608 1.366 . S
C2609 C2613 1.385 . S
C2610 H2591 0.951 . S
C2610 C2608 1.388 . S
C2610 C2611 1.366 . S
C2611 C2610 1.366 . S
C2611 C2612 1.414 . S
C2611 C2614 1.499 . S
C2612 H2592 0.950 . S
C2612 C2611 1.414 . S
C2612 C2613 1.374 . S
C2613 H2593 0.950 . S
C2613 C2609 1.385 . S
C2613 C2612 1.374 . S
C2614 C2611 1.499 . S
C2614 C2615 1.373 . S
C2614 C2616 1.389 . S
C2615 H2594 0.950 . S
C2615 C2614 1.373 . S
C2615 C2631 1.377 . S
C2616 C2614 1.389 . S
C2616 C2617 1.524 . S
C2616 C2630 1.377 . S
C2617 C2616 1.524 . S
C2617 C2618 1.397 . S
C2617 C2622 1.363 . S
C2618 H2595 0.950 . S
C2618 C2617 1.397 . S
C2618 C2619 1.334 . S
C2619 H2596 0.950 . S
C2619 C2618 1.334 . S
C2619 C2620 1.287 . S
C2620 C2619 1.287 . S
C2620 C2621 1.524 . S
C2620 H2639 0.913 . S
C2621 H2597 0.950 . S
C2621 C2620 1.524 . S
C2621 C2622 1.415 . S
C2622 H2598 0.950 . S
C2622 C2617 1.363 . S
C2622 C2621 1.415 . S
C2623 H2599 0.951 . S
C2623 C2624 1.366 . S
C2623 C2625 1.388 . S
C2624 C2623 1.366 . S
C2624 C2628 1.385 . S
C2625 H2600 0.951 . S
C2625 C2623 1.388 . S
C2625 C2626 1.366 . S
C2626 C2625 1.366 . S
C2626 C2627 1.414 . S
C2626 C2629 1.499 . S
C2627 H2601 0.950 . S
C2627 C2626 1.414 . S
C2627 C2628 1.374 . S
C2628 H2602 0.950 . S
C2628 C2624 1.385 . S
C2628 C2627 1.374 . S
C2629 C2626 1.499 . S
C2629 C2630 1.373 . S
C2629 C2631 1.389 . S
C2630 H2603 0.950 . S
C2630 C2616 1.377 . S
C2630 C2629 1.373 . S
C2631 C2615 1.377 . S
C2631 C2629 1.389 . S
C2631 C2632 1.524 . S
C2632 C2631 1.524 . S
C2632 C2633 1.397 . S
C2632 C2637 1.363 . S
C2633 H2604 0.950 . S
C2633 C2632 1.397 . S
C2633 C2634 1.334 . S
C2634 H2605 0.950 . S
C2634 C2633 1.334 . S
C2634 C2635 1.287 . S
C2635 C2634 1.287 . S
C2635 C2636 1.524 . S
C2635 H2638 0.999 . S
C2636 H2606 0.950 . S
C2636 C2635 1.524 . S
C2636 C2637 1.415 . S
C2637 H2607 0.950 . S
C2637 C2632 1.363 . S
C2637 C2636 1.415 . S
H2638 C2635 0.999 . S
H2639 C2620 0.913 . S
H2640 C2658 0.951 . S
H2641 C2660 0.951 . S
H2642 C2662 0.950 . S
H2643 C2663 0.950 . S
H2644 C2665 0.950 . S
H2645 C2668 0.950 . S
H2646 C2669 0.950 . S
H2647 C2671 0.950 . S
H2648 C2672 0.950 . S
H2649 C2673 0.951 . S
H2650 C2675 0.951 . S
H2651 C2677 0.950 . S
H2652 C2678 0.950 . S
H2653 C2680 0.950 . S
H2654 C2683 0.950 . S
H2655 C2684 0.950 . S
H2656 C2686 0.950 . S
H2657 C2687 0.950 . S
C2658 H2640 0.951 . S
C2658 C2659 1.366 . S
C2658 C2660 1.388 . S
C2659 C2658 1.366 . S
C2659 C2663 1.385 . S
C2660 H2641 0.951 . S
C2660 C2658 1.388 . S
C2660 C2661 1.366 . S
C2661 C2660 1.366 . S
C2661 C2662 1.414 . S
C2661 C2664 1.499 . S
C2662 H2642 0.950 . S
C2662 C2661 1.414 . S
C2662 C2663 1.374 . S
C2663 H2643 0.950 . S
C2663 C2659 1.385 . S
C2663 C2662 1.374 . S
C2664 C2661 1.499 . S
C2664 C2665 1.373 . S
C2664 C2666 1.389 . S
C2665 H2644 0.950 . S
C2665 C2664 1.373 . S
C2665 C2681 1.377 . S
C2666 C2664 1.389 . S
C2666 C2667 1.524 . S
C2666 C2680 1.377 . S
C2667 C2666 1.524 . S
C2667 C2668 1.397 . S
C2667 C2672 1.363 . S
C2668 H2645 0.950 . S
C2668 C2667 1.397 . S
C2668 C2669 1.334 . S
C2669 H2646 0.950 . S
C2669 C2668 1.334 . S
C2669 C2670 1.287 . S
C2670 C2669 1.287 . S
C2670 C2671 1.524 . S
C2670 H2689 0.913 . S
C2671 H2647 0.950 . S
C2671 C2670 1.524 . S
C2671 C2672 1.415 . S
C2672 H2648 0.950 . S
C2672 C2667 1.363 . S
C2672 C2671 1.415 . S
C2673 H2649 0.951 . S
C2673 C2674 1.366 . S
C2673 C2675 1.388 . S
C2674 C2673 1.366 . S
C2674 C2678 1.385 . S
C2675 H2650 0.951 . S
C2675 C2673 1.388 . S
C2675 C2676 1.366 . S
C2676 C2675 1.366 . S
C2676 C2677 1.414 . S
C2676 C2679 1.499 . S
C2677 H2651 0.950 . S
C2677 C2676 1.414 . S
C2677 C2678 1.374 . S
C2678 H2652 0.950 . S
C2678 C2674 1.385 . S
C2678 C2677 1.374 . S
C2679 C2676 1.499 . S
C2679 C2680 1.373 . S
C2679 C2681 1.389 . S
C2680 H2653 0.950 . S
C2680 C2666 1.377 . S
C2680 C2679 1.373 . S
C2681 C2665 1.377 . S
C2681 C2679 1.389 . S
C2681 C2682 1.524 . S
C2682 C2681 1.524 . S
C2682 C2683 1.397 . S
C2682 C2687 1.363 . S
C2683 H2654 0.950 . S
C2683 C2682 1.397 . S
C2683 C2684 1.334 . S
C2684 H2655 0.950 . S
C2684 C2683 1.334 . S
C2684 C2685 1.287 . S
C2685 C2684 1.287 . S
C2685 C2686 1.524 . S
C2685 H2688 0.999 . S
C2686 H2656 0.950 . S
C2686 C2685 1.524 . S
C2686 C2687 1.415 . S
C2687 H2657 0.950 . S
C2687 C2682 1.363 . S
C2687 C2686 1.415 . S
H2688 C2685 0.999 . S
H2689 C2670 0.913 . S
H2690 C2708 0.951 . S
H2691 C2710 0.951 . S
H2692 C2712 0.950 . S
H2693 C2713 0.950 . S
H2694 C2715 0.950 . S
H2695 C2718 0.950 . S
H2696 C2719 0.950 . S
H2697 C2721 0.950 . S
H2698 C2722 0.950 . S
H2699 C2723 0.951 . S
H2700 C2725 0.951 . S
H2701 C2727 0.950 . S
H2702 C2728 0.950 . S
H2703 C2730 0.950 . S
H2704 C2733 0.950 . S
H2705 C2734 0.950 . S
H2706 C2736 0.950 . S
H2707 C2737 0.950 . S
C2708 H2690 0.951 . S
C2708 C2709 1.366 . S
C2708 C2710 1.388 . S
C2709 C2708 1.366 . S
C2709 C2713 1.385 . S
C2710 H2691 0.951 . S
C2710 C2708 1.388 . S
C2710 C2711 1.366 . S
C2711 C2710 1.366 . S
C2711 C2712 1.414 . S
C2711 C2714 1.499 . S
C2712 H2692 0.950 . S
C2712 C2711 1.414 . S
C2712 C2713 1.374 . S
C2713 H2693 0.950 . S
C2713 C2709 1.385 . S
C2713 C2712 1.374 . S
C2714 C2711 1.499 . S
C2714 C2715 1.373 . S
C2714 C2716 1.389 . S
C2715 H2694 0.950 . S
C2715 C2714 1.373 . S
C2715 C2731 1.377 . S
C2716 C2714 1.389 . S
C2716 C2717 1.524 . S
C2716 C2730 1.377 . S
C2717 C2716 1.524 . S
C2717 C2718 1.397 . S
C2717 C2722 1.363 . S
C2718 H2695 0.950 . S
C2718 C2717 1.397 . S
C2718 C2719 1.334 . S
C2719 H2696 0.950 . S
C2719 C2718 1.334 . S
C2719 C2720 1.287 . S
C2720 C2719 1.287 . S
C2720 C2721 1.524 . S
C2720 H2739 0.913 . S
C2721 H2697 0.950 . S
C2721 C2720 1.524 . S
C2721 C2722 1.415 . S
C2722 H2698 0.950 . S
C2722 C2717 1.363 . S
C2722 C2721 1.415 . S
C2723 H2699 0.951 . S
C2723 C2724 1.366 . S
C2723 C2725 1.388 . S
C2724 C2723 1.366 . S
C2724 C2728 1.385 . S
C2725 H2700 0.951 . S
C2725 C2723 1.388 . S
C2725 C2726 1.366 . S
C2726 C2725 1.366 . S
C2726 C2727 1.414 . S
C2726 C2729 1.499 . S
C2727 H2701 0.950 . S
C2727 C2726 1.414 . S
C2727 C2728 1.374 . S
C2728 H2702 0.950 . S
C2728 C2724 1.385 . S
C2728 C2727 1.374 . S
C2729 C2726 1.499 . S
C2729 C2730 1.373 . S
C2729 C2731 1.389 . S
C2730 H2703 0.950 . S
C2730 C2716 1.377 . S
C2730 C2729 1.373 . S
C2731 C2715 1.377 . S
C2731 C2729 1.389 . S
C2731 C2732 1.524 . S
C2732 C2731 1.524 . S
C2732 C2733 1.397 . S
C2732 C2737 1.363 . S
C2733 H2704 0.950 . S
C2733 C2732 1.397 . S
C2733 C2734 1.334 . S
C2734 H2705 0.950 . S
C2734 C2733 1.334 . S
C2734 C2735 1.287 . S
C2735 C2734 1.287 . S
C2735 C2736 1.524 . S
C2735 H2738 0.999 . S
C2736 H2706 0.950 . S
C2736 C2735 1.524 . S
C2736 C2737 1.415 . S
C2737 H2707 0.950 . S
C2737 C2732 1.363 . S
C2737 C2736 1.415 . S
H2738 C2735 0.999 . S
H2739 C2720 0.913 . S
H2740 C2758 0.951 . S
H2741 C2760 0.951 . S
H2742 C2762 0.950 . S
H2743 C2763 0.950 . S
H2744 C2765 0.950 . S
H2745 C2768 0.950 . S
H2746 C2769 0.950 . S
H2747 C2771 0.950 . S
H2748 C2772 0.950 . S
H2749 C2773 0.951 . S
H2750 C2775 0.951 1_554 S
H2751 C2777 0.950 . S
H2752 C2778 0.950 . S
H2753 C2780 0.950 . S
H2754 C2783 0.950 . S
H2755 C2784 0.950 . S
H2756 C2786 0.950 . S
H2757 C2787 0.950 . S
C2758 H2740 0.951 . S
C2758 C2759 1.366 . S
C2758 C2760 1.388 . S
C2759 C2758 1.366 . S
C2759 C2763 1.385 1_556 S
C2760 H2741 0.951 . S
C2760 C2758 1.388 . S
C2760 C2761 1.366 . S
C2761 C2760 1.366 . S
C2761 C2762 1.414 1_556 S
C2761 C2764 1.499 . S
C2762 H2742 0.950 . S
C2762 C2761 1.414 1_554 S
C2762 C2763 1.374 . S
C2763 H2743 0.950 . S
C2763 C2759 1.385 1_554 S
C2763 C2762 1.374 . S
C2764 C2761 1.499 . S
C2764 C2765 1.373 . S
C2764 C2766 1.389 . S
C2765 H2744 0.950 . S
C2765 C2764 1.373 . S
C2765 C2781 1.377 . S
C2766 C2764 1.389 . S
C2766 C2767 1.524 . S
C2766 C2780 1.377 . S
C2767 C2766 1.524 . S
C2767 C2768 1.397 . S
C2767 C2772 1.363 . S
C2768 H2745 0.950 . S
C2768 C2767 1.397 . S
C2768 C2769 1.334 . S
C2769 H2746 0.950 . S
C2769 C2768 1.334 . S
C2769 C2770 1.287 . S
C2770 C2769 1.287 . S
C2770 C2771 1.524 . S
C2770 H2789 0.913 . S
C2771 H2747 0.950 . S
C2771 C2770 1.524 . S
C2771 C2772 1.415 . S
C2772 H2748 0.950 . S
C2772 C2767 1.363 . S
C2772 C2771 1.415 . S
C2773 H2749 0.951 . S
C2773 C2774 1.366 . S
C2773 C2775 1.388 . S
C2774 C2773 1.366 . S
C2774 C2778 1.385 . S
C2775 H2750 0.951 1_556 S
C2775 C2773 1.388 . S
C2775 C2776 1.366 . S
C2776 C2775 1.366 . S
C2776 C2777 1.414 . S
C2776 C2779 1.499 . S
C2777 H2751 0.950 . S
C2777 C2776 1.414 . S
C2777 C2778 1.374 . S
C2778 H2752 0.950 . S
C2778 C2774 1.385 . S
C2778 C2777 1.374 . S
C2779 C2776 1.499 . S
C2779 C2780 1.373 . S
C2779 C2781 1.389 . S
C2780 H2753 0.950 . S
C2780 C2766 1.377 . S
C2780 C2779 1.373 . S
C2781 C2765 1.377 . S
C2781 C2779 1.389 . S
C2781 C2782 1.524 . S
C2782 C2781 1.524 . S
C2782 C2783 1.397 . S
C2782 C2787 1.363 1_556 S
C2783 H2754 0.950 . S
C2783 C2782 1.397 . S
C2783 C2784 1.334 . S
C2784 H2755 0.950 . S
C2784 C2783 1.334 . S
C2784 C2785 1.287 . S
C2785 C2784 1.287 . S
C2785 C2786 1.524 1_556 S
C2785 H2788 0.999 1_556 S
C2786 H2756 0.950 . S
C2786 C2785 1.524 1_554 S
C2786 C2787 1.415 . S
C2787 H2757 0.950 . S
C2787 C2782 1.363 1_554 S
C2787 C2786 1.415 . S
H2788 C2785 0.999 1_554 S
H2789 C2770 0.913 . S
H2790 C2808 0.951 . S
H2791 C2810 0.951 . S
H2792 C2812 0.950 . S
H2793 C2813 0.950 . S
H2794 C2815 0.950 . S
H2795 C2818 0.950 . S
H2796 C2819 0.950 . S
H2797 C2821 0.950 . S
H2798 C2822 0.950 . S
H2799 C2823 0.951 . S
H2800 C2825 0.951 . S
H2801 C2827 0.950 . S
H2802 C2828 0.950 . S
H2803 C2830 0.950 . S
H2804 C2833 0.950 . S
H2805 C2834 0.950 . S
H2806 C2836 0.950 . S
H2807 C2837 0.950 . S
C2808 H2790 0.951 . S
C2808 C2809 1.366 . S
C2808 C2810 1.388 . S
C2809 C2808 1.366 . S
C2809 C2813 1.385 . S
C2810 H2791 0.951 . S
C2810 C2808 1.388 . S
C2810 C2811 1.366 . S
C2811 C2810 1.366 . S
C2811 C2812 1.414 . S
C2811 C2814 1.499 . S
C2812 H2792 0.950 . S
C2812 C2811 1.414 . S
C2812 C2813 1.374 . S
C2813 H2793 0.950 . S
C2813 C2809 1.385 . S
C2813 C2812 1.374 . S
C2814 C2811 1.499 . S
C2814 C2815 1.373 . S
C2814 C2816 1.389 . S
C2815 H2794 0.950 . S
C2815 C2814 1.373 . S
C2815 C2831 1.377 . S
C2816 C2814 1.389 . S
C2816 C2817 1.524 . S
C2816 C2830 1.377 . S
C2817 C2816 1.524 . S
C2817 C2818 1.397 . S
C2817 C2822 1.363 . S
C2818 H2795 0.950 . S
C2818 C2817 1.397 . S
C2818 C2819 1.334 . S
C2819 H2796 0.950 . S
C2819 C2818 1.334 . S
C2819 C2820 1.287 . S
C2820 C2819 1.287 . S
C2820 C2821 1.524 . S
C2820 H2839 0.913 . S
C2821 H2797 0.950 . S
C2821 C2820 1.524 . S
C2821 C2822 1.415 . S
C2822 H2798 0.950 . S
C2822 C2817 1.363 . S
C2822 C2821 1.415 . S
C2823 H2799 0.951 . S
C2823 C2824 1.366 . S
C2823 C2825 1.388 . S
C2824 C2823 1.366 . S
C2824 C2828 1.385 . S
C2825 H2800 0.951 . S
C2825 C2823 1.388 . S
C2825 C2826 1.366 . S
C2826 C2825 1.366 . S
C2826 C2827 1.414 . S
C2826 C2829 1.499 . S
C2827 H2801 0.950 . S
C2827 C2826 1.414 . S
C2827 C2828 1.374 . S
C2828 H2802 0.950 . S
C2828 C2824 1.385 . S
C2828 C2827 1.374 . S
C2829 C2826 1.499 . S
C2829 C2830 1.373 . S
C2829 C2831 1.389 . S
C2830 H2803 0.950 . S
C2830 C2816 1.377 . S
C2830 C2829 1.373 . S
C2831 C2815 1.377 . S
C2831 C2829 1.389 . S
C2831 C2832 1.524 . S
C2832 C2831 1.524 . S
C2832 C2833 1.397 . S
C2832 C2837 1.363 . S
C2833 H2804 0.950 . S
C2833 C2832 1.397 . S
C2833 C2834 1.334 . S
C2834 H2805 0.950 . S
C2834 C2833 1.334 . S
C2834 C2835 1.287 . S
C2835 C2834 1.287 . S
C2835 C2836 1.524 . S
C2835 H2838 0.999 . S
C2836 H2806 0.950 . S
C2836 C2835 1.524 . S
C2836 C2837 1.415 . S
C2837 H2807 0.950 . S
C2837 C2832 1.363 . S
C2837 C2836 1.415 . S
H2838 C2835 0.999 . S
H2839 C2820 0.913 . S
H2840 C2858 0.951 . S
H2841 C2860 0.951 . S
H2842 C2862 0.950 . S
H2843 C2863 0.950 . S
H2844 C2865 0.950 . S
H2845 C2868 0.950 . S
H2846 C2869 0.950 . S
H2847 C2871 0.950 . S
H2848 C2872 0.950 . S
H2849 C2873 0.951 . S
H2850 C2875 0.951 . S
H2851 C2877 0.950 . S
H2852 C2878 0.950 . S
H2853 C2880 0.950 . S
H2854 C2883 0.950 . S
H2855 C2884 0.950 . S
H2856 C2886 0.950 . S
H2857 C2887 0.950 . S
C2858 H2840 0.951 . S
C2858 C2859 1.366 . S
C2858 C2860 1.388 . S
C2859 C2858 1.366 . S
C2859 C2863 1.385 . S
C2860 H2841 0.951 . S
C2860 C2858 1.388 . S
C2860 C2861 1.366 . S
C2861 C2860 1.366 . S
C2861 C2862 1.414 . S
C2861 C2864 1.499 . S
C2862 H2842 0.950 . S
C2862 C2861 1.414 . S
C2862 C2863 1.374 . S
C2863 H2843 0.950 . S
C2863 C2859 1.385 . S
C2863 C2862 1.374 . S
C2864 C2861 1.499 . S
C2864 C2865 1.373 . S
C2864 C2866 1.389 . S
C2865 H2844 0.950 . S
C2865 C2864 1.373 . S
C2865 C2881 1.377 . S
C2866 C2864 1.389 . S
C2866 C2867 1.524 . S
C2866 C2880 1.377 . S
C2867 C2866 1.524 . S
C2867 C2868 1.397 . S
C2867 C2872 1.363 . S
C2868 H2845 0.950 . S
C2868 C2867 1.397 . S
C2868 C2869 1.334 . S
C2869 H2846 0.950 . S
C2869 C2868 1.334 . S
C2869 C2870 1.287 . S
C2870 C2869 1.287 . S
C2870 C2871 1.524 . S
C2870 H2889 0.913 . S
C2871 H2847 0.950 . S
C2871 C2870 1.524 . S
C2871 C2872 1.415 . S
C2872 H2848 0.950 . S
C2872 C2867 1.363 . S
C2872 C2871 1.415 . S
C2873 H2849 0.951 . S
C2873 C2874 1.366 . S
C2873 C2875 1.388 . S
C2874 C2873 1.366 . S
C2874 C2878 1.385 . S
C2875 H2850 0.951 . S
C2875 C2873 1.388 . S
C2875 C2876 1.366 . S
C2876 C2875 1.366 . S
C2876 C2877 1.414 . S
C2876 C2879 1.499 . S
C2877 H2851 0.950 . S
C2877 C2876 1.414 . S
C2877 C2878 1.374 . S
C2878 H2852 0.950 . S
C2878 C2874 1.385 . S
C2878 C2877 1.374 . S
C2879 C2876 1.499 . S
C2879 C2880 1.373 . S
C2879 C2881 1.389 . S
C2880 H2853 0.950 . S
C2880 C2866 1.377 . S
C2880 C2879 1.373 . S
C2881 C2865 1.377 . S
C2881 C2879 1.389 . S
C2881 C2882 1.524 . S
C2882 C2881 1.524 . S
C2882 C2883 1.397 . S
C2882 C2887 1.363 . S
C2883 H2854 0.950 . S
C2883 C2882 1.397 . S
C2883 C2884 1.334 . S
C2884 H2855 0.950 . S
C2884 C2883 1.334 . S
C2884 C2885 1.287 . S
C2885 C2884 1.287 . S
C2885 C2886 1.524 . S
C2885 H2888 0.999 . S
C2886 H2856 0.950 . S
C2886 C2885 1.524 . S
C2886 C2887 1.415 . S
C2887 H2857 0.950 . S
C2887 C2882 1.363 . S
C2887 C2886 1.415 . S
H2888 C2885 0.999 . S
H2889 C2870 0.913 . S
H2890 C2908 0.951 . S
H2891 C2910 0.951 . S
H2892 C2912 0.950 . S
H2893 C2913 0.950 . S
H2894 C2915 0.950 . S
H2895 C2918 0.950 . S
H2896 C2919 0.950 . S
H2897 C2921 0.950 . S
H2898 C2922 0.950 . S
H2899 C2923 0.951 . S
H2900 C2925 0.951 . S
H2901 C2927 0.950 . S
H2902 C2928 0.950 . S
H2903 C2930 0.950 . S
H2904 C2933 0.950 . S
H2905 C2934 0.950 . S
H2906 C2936 0.950 . S
H2907 C2937 0.950 . S
C2908 H2890 0.951 . S
C2908 C2909 1.366 . S
C2908 C2910 1.388 . S
C2909 C2908 1.366 . S
C2909 C2913 1.385 . S
C2910 H2891 0.951 . S
C2910 C2908 1.388 . S
C2910 C2911 1.366 . S
C2911 C2910 1.366 . S
C2911 C2912 1.414 . S
C2911 C2914 1.499 . S
C2912 H2892 0.950 . S
C2912 C2911 1.414 . S
C2912 C2913 1.374 . S
C2913 H2893 0.950 . S
C2913 C2909 1.385 . S
C2913 C2912 1.374 . S
C2914 C2911 1.499 . S
C2914 C2915 1.373 . S
C2914 C2916 1.389 . S
C2915 H2894 0.950 . S
C2915 C2914 1.373 . S
C2915 C2931 1.377 . S
C2916 C2914 1.389 . S
C2916 C2917 1.524 . S
C2916 C2930 1.377 . S
C2917 C2916 1.524 . S
C2917 C2918 1.397 . S
C2917 C2922 1.363 . S
C2918 H2895 0.950 . S
C2918 C2917 1.397 . S
C2918 C2919 1.334 . S
C2919 H2896 0.950 . S
C2919 C2918 1.334 . S
C2919 C2920 1.287 . S
C2920 C2919 1.287 . S
C2920 C2921 1.524 . S
C2920 H2939 0.913 . S
C2921 H2897 0.950 . S
C2921 C2920 1.524 . S
C2921 C2922 1.415 . S
C2922 H2898 0.950 . S
C2922 C2917 1.363 . S
C2922 C2921 1.415 . S
C2923 H2899 0.951 . S
C2923 C2924 1.366 . S
C2923 C2925 1.388 . S
C2924 C2923 1.366 . S
C2924 C2928 1.385 . S
C2925 H2900 0.951 . S
C2925 C2923 1.388 . S
C2925 C2926 1.366 . S
C2926 C2925 1.366 . S
C2926 C2927 1.414 . S
C2926 C2929 1.499 . S
C2927 H2901 0.950 . S
C2927 C2926 1.414 . S
C2927 C2928 1.374 . S
C2928 H2902 0.950 . S
C2928 C2924 1.385 . S
C2928 C2927 1.374 . S
C2929 C2926 1.499 . S
C2929 C2930 1.373 . S
C2929 C2931 1.389 . S
C2930 H2903 0.950 . S
C2930 C2916 1.377 . S
C2930 C2929 1.373 . S
C2931 C2915 1.377 . S
C2931 C2929 1.389 . S
C2931 C2932 1.524 . S
C2932 C2931 1.524 . S
C2932 C2933 1.397 . S
C2932 C2937 1.363 . S
C2933 H2904 0.950 . S
C2933 C2932 1.397 . S
C2933 C2934 1.334 . S
C2934 H2905 0.950 . S
C2934 C2933 1.334 . S
C2934 C2935 1.287 . S
C2935 C2934 1.287 . S
C2935 C2936 1.524 . S
C2935 H2938 0.999 . S
C2936 H2906 0.950 . S
C2936 C2935 1.524 . S
C2936 C2937 1.415 . S
C2937 H2907 0.950 . S
C2937 C2932 1.363 . S
C2937 C2936 1.415 . S
H2938 C2935 0.999 . S
H2939 C2920 0.913 . S
H2940 C2958 0.951 . S
H2941 C2960 0.951 . S
H2942 C2962 0.950 . S
H2943 C2963 0.950 . S
H2944 C2965 0.950 . S
H2945 C2968 0.950 . S
H2946 C2969 0.950 . S
H2947 C2971 0.950 . S
H2948 C2972 0.950 . S
H2949 C2973 0.951 . S
H2950 C2975 0.951 . S
H2951 C2977 0.950 . S
H2952 C2978 0.950 . S
H2953 C2980 0.950 . S
H2954 C2983 0.950 . S
H2955 C2984 0.950 . S
H2956 C2986 0.950 . S
H2957 C2987 0.950 . S
C2958 H2940 0.951 . S
C2958 C2959 1.366 . S
C2958 C2960 1.388 . S
C2959 C2958 1.366 . S
C2959 C2963 1.385 . S
C2960 H2941 0.951 . S
C2960 C2958 1.388 . S
C2960 C2961 1.366 . S
C2961 C2960 1.366 . S
C2961 C2962 1.414 . S
C2961 C2964 1.499 . S
C2962 H2942 0.950 . S
C2962 C2961 1.414 . S
C2962 C2963 1.374 . S
C2963 H2943 0.950 . S
C2963 C2959 1.385 . S
C2963 C2962 1.374 . S
C2964 C2961 1.499 . S
C2964 C2965 1.373 . S
C2964 C2966 1.389 . S
C2965 H2944 0.950 . S
C2965 C2964 1.373 . S
C2965 C2981 1.377 . S
C2966 C2964 1.389 . S
C2966 C2967 1.524 . S
C2966 C2980 1.377 . S
C2967 C2966 1.524 . S
C2967 C2968 1.397 . S
C2967 C2972 1.363 . S
C2968 H2945 0.950 . S
C2968 C2967 1.397 . S
C2968 C2969 1.334 . S
C2969 H2946 0.950 . S
C2969 C2968 1.334 . S
C2969 C2970 1.287 . S
C2970 C2969 1.287 . S
C2970 C2971 1.524 . S
C2970 H2989 0.913 . S
C2971 H2947 0.950 . S
C2971 C2970 1.524 . S
C2971 C2972 1.415 . S
C2972 H2948 0.950 . S
C2972 C2967 1.363 . S
C2972 C2971 1.415 . S
C2973 H2949 0.951 . S
C2973 C2974 1.366 . S
C2973 C2975 1.388 . S
C2974 C2973 1.366 . S
C2974 C2978 1.385 . S
C2975 H2950 0.951 . S
C2975 C2973 1.388 . S
C2975 C2976 1.366 . S
C2976 C2975 1.366 . S
C2976 C2977 1.414 . S
C2976 C2979 1.499 . S
C2977 H2951 0.950 . S
C2977 C2976 1.414 . S
C2977 C2978 1.374 . S
C2978 H2952 0.950 . S
C2978 C2974 1.385 . S
C2978 C2977 1.374 . S
C2979 C2976 1.499 . S
C2979 C2980 1.373 . S
C2979 C2981 1.389 . S
C2980 H2953 0.950 . S
C2980 C2966 1.377 . S
C2980 C2979 1.373 . S
C2981 C2965 1.377 . S
C2981 C2979 1.389 . S
C2981 C2982 1.524 . S
C2982 C2981 1.524 . S
C2982 C2983 1.397 . S
C2982 C2987 1.363 . S
C2983 H2954 0.950 . S
C2983 C2982 1.397 . S
C2983 C2984 1.334 . S
C2984 H2955 0.950 . S
C2984 C2983 1.334 . S
C2984 C2985 1.287 . S
C2985 C2984 1.287 . S
C2985 C2986 1.524 . S
C2985 H2988 0.999 . S
C2986 H2956 0.950 . S
C2986 C2985 1.524 . S
C2986 C2987 1.415 . S
C2987 H2957 0.950 . S
C2987 C2982 1.363 . S
C2987 C2986 1.415 . S
H2988 C2985 0.999 . S
H2989 C2970 0.913 . S
H2990 C3008 0.951 . S
H2991 C3010 0.951 . S
H2992 C3012 0.950 . S
H2993 C3013 0.950 . S
H2994 C3015 0.950 . S
H2995 C3018 0.950 . S
H2996 C3019 0.950 . S
H2997 C3021 0.950 . S
H2998 C3022 0.950 . S
H2999 C3023 0.951 . S
H3000 C3025 0.951 . S
H3001 C3027 0.950 . S
H3002 C3028 0.950 . S
H3003 C3030 0.950 . S
H3004 C3033 0.950 . S
H3005 C3034 0.950 . S
H3006 C3036 0.950 . S
H3007 C3037 0.950 . S
C3008 H2990 0.951 . S
C3008 C3009 1.366 . S
C3008 C3010 1.388 . S
C3009 C3008 1.366 . S
C3009 C3013 1.385 . S
C3010 H2991 0.951 . S
C3010 C3008 1.388 . S
C3010 C3011 1.366 . S
C3011 C3010 1.366 . S
C3011 C3012 1.414 . S
C3011 C3014 1.499 . S
C3012 H2992 0.950 . S
C3012 C3011 1.414 . S
C3012 C3013 1.374 . S
C3013 H2993 0.950 . S
C3013 C3009 1.385 . S
C3013 C3012 1.374 . S
C3014 C3011 1.499 . S
C3014 C3015 1.373 . S
C3014 C3016 1.389 . S
C3015 H2994 0.950 . S
C3015 C3014 1.373 . S
C3015 C3031 1.377 . S
C3016 C3014 1.389 . S
C3016 C3017 1.524 . S
C3016 C3030 1.377 . S
C3017 C3016 1.524 . S
C3017 C3018 1.397 . S
C3017 C3022 1.363 . S
C3018 H2995 0.950 . S
C3018 C3017 1.397 . S
C3018 C3019 1.334 1_554 S
C3019 H2996 0.950 . S
C3019 C3018 1.334 1_556 S
C3019 C3020 1.287 . S
C3020 C3019 1.287 . S
C3020 C3021 1.524 . S
C3020 H3039 0.913 . S
C3021 H2997 0.950 . S
C3021 C3020 1.524 . S
C3021 C3022 1.415 1_556 S
C3022 H2998 0.950 . S
C3022 C3017 1.363 . S
C3022 C3021 1.415 1_554 S
C3023 H2999 0.951 . S
C3023 C3024 1.366 . S
C3023 C3025 1.388 . S
C3024 C3023 1.366 . S
C3024 C3028 1.385 . S
C3025 H3000 0.951 . S
C3025 C3023 1.388 . S
C3025 C3026 1.366 . S
C3026 C3025 1.366 . S
C3026 C3027 1.414 . S
C3026 C3029 1.499 . S
C3027 H3001 0.950 . S
C3027 C3026 1.414 . S
C3027 C3028 1.374 . S
C3028 H3002 0.950 . S
C3028 C3024 1.385 . S
C3028 C3027 1.374 . S
C3029 C3026 1.499 . S
C3029 C3030 1.373 . S
C3029 C3031 1.389 . S
C3030 H3003 0.950 . S
C3030 C3016 1.377 . S
C3030 C3029 1.373 . S
C3031 C3015 1.377 . S
C3031 C3029 1.389 . S
C3031 C3032 1.524 . S
C3032 C3031 1.524 . S
C3032 C3033 1.397 . S
C3032 C3037 1.363 . S
C3033 H3004 0.950 . S
C3033 C3032 1.397 . S
C3033 C3034 1.334 . S
C3034 H3005 0.950 . S
C3034 C3033 1.334 . S
C3034 C3035 1.287 . S
C3035 C3034 1.287 . S
C3035 C3036 1.524 . S
C3035 H3038 0.999 . S
C3036 H3006 0.950 . S
C3036 C3035 1.524 . S
C3036 C3037 1.415 . S
C3037 H3007 0.950 . S
C3037 C3032 1.363 . S
C3037 C3036 1.415 . S
H3038 C3035 0.999 . S
H3039 C3020 0.913 . S
C659 C19 0.914 . S
C674 C55 0.901 . S
C709 C99 1.768 . S
C724 C50 1.746 . S
C759 C130 2.039 . S
C774 C98 2.035 . S
C809 C18 0.993 . S
C824 C135 0.991 . S
C859 C9 0.993 . S
C874 C366 0.990 . S
C909 C290 0.914 . S
C924 C46 0.902 . S
C959 C90 1.768 . S
C974 C419 1.746 . S
C1009 C139 2.039 . S
C1024 C529 2.034 . S
C1059 C330 1.768 . S
C1074 C59 1.746 . S
C1109 C499 2.039 . S
C1124 C89 2.035 . S
C1159 C569 0.993 . S
C1174 C126 0.991 . S
C1209 C10 0.914 . S
C1224 C446 0.902 . S
C1259 C15 0.676 . S
C1274 C326 0.635 . S
C1309 C498 1.438 . S
C1324 C169 1.441 . S
C1359 C215 0.636 . S
C1374 C566 0.674 . S
C1409 C449 1.441 . S
C1424 C258 1.437 . S
C1459 C95 0.635 . S
C1474 C286 0.674 . S
C1509 C369 1.436 . S
C1524 C178 1.442 . S
C1559 C249 1.437 . S
C1574 C418 1.441 . S
C1609 C210 1.768 . S
C1624 C459 1.746 . S
C1659 C379 2.039 . S
C1674 C209 2.034 . S
C1709 C455 0.902 . S
C1724 C299 0.914 . S
C1759 C219 1.768 . S
C1774 C170 1.745 . S
C1809 C370 2.039 . S
C1824 C338 2.034 . S
C1859 C539 1.768 . S
C1874 C450 1.745 . S
C1909 C250 2.039 . S
C1924 C218 2.034 . S
C1959 C375 0.990 . S
C1974 C578 0.993 . S
C2009 C535 0.636 . S
C2024 C6 0.674 . S
C2059 C86 0.636 . S
C2074 C575 0.675 . S
C2109 C489 1.437 . S
C2124 C58 1.441 . S
C2159 C295 0.675 . S
C2174 C206 0.634 . S
C2209 C138 1.437 . S
C2224 C409 1.441 . S
C2259 C490 2.039 . S
C2274 C538 2.034 . S
C2309 C298 0.993 . S
C2324 C495 0.991 . S
C2359 C246 0.990 . S
C2374 C289 0.993 . S
C2409 C179 1.746 . S
C2424 C530 1.768 . S
C2459 C486 0.989 . S
C2474 C609 0.994 . S
C2509 C606 0.675 . S
C2524 C335 0.634 . S
C2559 C49 1.441 . S
C2574 C378 1.437 . S
C2609 C329 2.034 . S
C2624 C259 2.039 . S
C2659 C339 1.768 . S
C2674 C410 1.745 . S
C2709 C618 0.993 . S
C2724 C255 0.990 . S
C2759 C526 0.635 . S
C2774 C615 0.675 . S
C2809 C458 1.441 . S
C2824 C129 1.437 . S
C2859 C415 0.902 . S
C2874 C579 0.914 . S
C2909 C406 0.902 . S
C2924 C610 0.914 . S
C2959 C166 0.903 . S
C2974 C570 0.914 . S
C3009 C619 0.914 . S
C3024 C175 0.902 . S
