# Generated by pormake.
# Topology pts-e, (5)-cn, num edge types: 1
# Building blocks:
#     Node 0, Type 0, BuildingBlock: BEQFEK_clean_sbu_0, # of connection points: 5
#     Node 1, Type 0, BuildingBlock: BEQFEK_clean_sbu_0, # of connection points: 5
#     Node 2, Type 0, BuildingBlock: BEQFEK_clean_sbu_0, # of connection points: 5
#     Node 3, Type 0, BuildingBlock: BEQFEK_clean_sbu_0, # of connection points: 5
#     Node 4, Type 0, BuildingBlock: BEQFEK_clean_sbu_0, # of connection points: 5
#     Node 5, Type 0, BuildingBlock: BEQFEK_clean_sbu_0, # of connection points: 5
#     Node 6, Type 0, BuildingBlock: BEQFEK_clean_sbu_0, # of connection points: 5
#     Node 7, Type 0, BuildingBlock: BEQFEK_clean_sbu_0, # of connection points: 5
#     Edge 8, Type (0, 0), BuildingBlock: CIFDUS_clean_linker_0, # of connection points: 2
#     Edge 9, Type (0, 0), BuildingBlock: CIFDUS_clean_linker_0, # of connection points: 2
#     Edge 10, Type (0, 0), BuildingBlock: CIFDUS_clean_linker_0, # of connection points: 2
#     Edge 11, Type (0, 0), BuildingBlock: CIFDUS_clean_linker_0, # of connection points: 2
#     Edge 12, Type (0, 0), BuildingBlock: CIFDUS_clean_linker_0, # of connection points: 2
#     Edge 13, Type (0, 0), BuildingBlock: CIFDUS_clean_linker_0, # of connection points: 2
#     Edge 14, Type (0, 0), BuildingBlock: CIFDUS_clean_linker_0, # of connection points: 2
#     Edge 15, Type (0, 0), BuildingBlock: CIFDUS_clean_linker_0, # of connection points: 2
#     Edge 16, Type (0, 0), BuildingBlock: CIFDUS_clean_linker_0, # of connection points: 2
#     Edge 17, Type (0, 0), BuildingBlock: CIFDUS_clean_linker_0, # of connection points: 2
#     Edge 18, Type (0, 0), BuildingBlock: CIFDUS_clean_linker_0, # of connection points: 2
#     Edge 19, Type (0, 0), BuildingBlock: CIFDUS_clean_linker_0, # of connection points: 2
#     Edge 20, Type (0, 0), BuildingBlock: CIFDUS_clean_linker_0, # of connection points: 2
#     Edge 21, Type (0, 0), BuildingBlock: CIFDUS_clean_linker_0, # of connection points: 2
#     Edge 22, Type (0, 0), BuildingBlock: CIFDUS_clean_linker_0, # of connection points: 2
#     Edge 23, Type (0, 0), BuildingBlock: CIFDUS_clean_linker_0, # of connection points: 2
#     Edge 24, Type (0, 0), BuildingBlock: CIFDUS_clean_linker_0, # of connection points: 2
#     Edge 25, Type (0, 0), BuildingBlock: CIFDUS_clean_linker_0, # of connection points: 2
#     Edge 26, Type (0, 0), BuildingBlock: CIFDUS_clean_linker_0, # of connection points: 2
#     Edge 27, Type (0, 0), BuildingBlock: CIFDUS_clean_linker_0, # of connection points: 2
# Relax obj value: 0.385
# Max RMSD: 0.226
# Mean RMSD: 0.226
data_MOF--net-pts-e--node1-BEQFEK_clean_sbu_0--edge1-CIFDUS_clean_linker_0
_symmetry_space_group_name_H-M    P1
_symmetry_Int_Tables_number       1
_symmetry_cell_setting            triclinic
loop_
_symmetry_equiv_pos_as_xyz
'x, y, z'
_cell_length_a     33.212905
_cell_length_b     32.647423
_cell_length_c     45.102986
_cell_angle_alpha  89.884127
_cell_angle_beta   90.137349
_cell_angle_gamma 90.13903
loop_
_atom_site_label
_atom_site_type_symbol
_atom_site_fract_x
_atom_site_fract_y
_atom_site_fract_z
_atom_type_partial_charge
Co0 Co 0.17564 0.01454 0.16711 0.0
Co1 Co 0.26291 0.01842 0.18933 0.0
C2 C 0.20871 0.08635 0.20411 0.0
O3 O 0.18174 0.06577 0.19048 0.0
O4 O 0.24519 0.07354 0.20546 0.0
C5 C 0.10726 0.04635 0.13528 0.0
O6 O 0.1235 0.08302 0.13677 0.0
C7 C 0.3524 0.02029 0.2036 0.0
C8 C 0.36678 0.95893 0.18596 0.0
C9 C 0.38434 0.99303 0.19887 0.0
N10 N 0.31819 0.00273 0.19356 0.0
N11 N 0.32724 0.96604 0.18332 0.0
C12 C 0.35351 0.06127 0.21828 0.0
H13 H 0.32326 0.06928 0.22687 0.0
H14 H 0.36242 0.08484 0.20178 0.0
H15 H 0.37566 0.06136 0.23674 0.0
C16 C 0.21345 0.00831 0.10873 0.0
N17 N 0.21538 0.00964 0.13851 0.0
N18 N 0.25274 0.01529 0.14699 0.0
C19 C 0.27582 0.01939 0.12236 0.0
C20 C 0.25151 0.01496 0.09726 0.0
C21 C 0.17559 0.00213 0.0912 0.0
H22 H 0.15526 0.98055 0.1029 0.0
H23 H 0.16019 0.03198 0.08837 0.0
H24 H 0.18237 0.98979 0.06885 0.0
O25 O 0.17322 0.9675 0.19366 0.0
O26 O 0.23278 0.97635 0.21471 0.0
H27 H 0.33783 0.00302 0.12465 0.0
H28 H 0.32781 0.04729 0.10198 0.0
C29 C 0.31934 0.03116 0.12276 0.0
H30 H 0.32587 0.05092 0.14218 0.0
H31 H 0.30624 0.94599 0.17399 0.0
O32 O 0.12447 0.01599 0.14734 0.0
C33 C 0.19878 0.9581 0.21337 0.0
Co34 Co -0.0099 0.1828 0.66906 0.0
Co35 Co 0.00242 0.26973 0.6907 0.0
C36 C 0.93041 0.22229 0.71 0.0
O37 O 0.94242 0.19271 0.69407 0.0
O38 O 0.95038 0.2557 0.71131 0.0
C39 C 0.94938 0.11679 0.63763 0.0
O40 O 0.91599 0.13779 0.63451 0.0
C41 C -0.0062 0.35826 0.69962 0.0
C42 C 0.05694 0.37838 0.69369 0.0
C43 C 0.01816 0.39276 0.69765 0.0
N44 N 0.01713 0.32512 0.69615 0.0
N45 N 0.05485 0.33729 0.69303 0.0
C46 C 0.9494 0.35634 0.70516 0.0
H47 H 0.94261 0.33129 0.72099 0.0
H48 H 0.93349 0.34959 0.68407 0.0
H49 H 0.93799 0.38547 0.7145 0.0
C50 C -0.0006 0.2198 0.6101 0.0
N51 N -0.00224 0.2222 0.63985 0.0
N52 N 0.00027 0.26052 0.64823 0.0
C53 C 0.00203 0.28426 0.62355 0.0
C54 C 0.00129 0.25911 0.59847 0.0
C55 C 0.00301 0.18042 0.5933 0.0
H56 H 0.02006 0.15762 0.60652 0.0
H57 H 0.9725 0.16811 0.58866 0.0
H58 H 0.01878 0.18514 0.57189 0.0
O59 O 0.03851 0.1745 0.69403 0.0
O60 O 0.04565 0.23717 0.71186 0.0
H61 H 0.03233 0.34105 0.63107 0.0
H62 H -0.00476 0.34293 0.6017 0.0
C63 C 0.00224 0.33005 0.62388 0.0
H64 H 0.97964 0.3412 0.63995 0.0
H65 H 0.07897 0.31754 0.68933 0.0
O66 O 0.98007 0.13186 0.65034 0.0
C67 C 0.05657 0.19978 0.71083 0.0
Co68 Co 0.82446 0.99087 0.16926 0.0
Co69 Co 0.74125 0.01779 0.19122 0.0
C70 C 0.78594 0.9398 0.21282 0.0
O71 O 0.81142 0.94169 0.19189 0.0
O72 O 0.75859 0.9673 0.21573 0.0
C73 C 0.89512 0.95696 0.13807 0.0
O74 O 0.88103 0.91933 0.13868 0.0
C75 C 0.65215 0.01725 0.20467 0.0
C76 C 0.63912 0.08156 0.19289 0.0
C77 C 0.62057 0.04555 0.20188 0.0
N78 N 0.6869 0.03604 0.19713 0.0
N79 N 0.67872 0.07452 0.19052 0.0
C80 C 0.65026 0.97368 0.21483 0.0
H81 H 0.68052 0.96285 0.2216 0.0
H82 H 0.63947 0.95411 0.19635 0.0
H83 H 0.62931 0.97059 0.23384 0.0
C84 C 0.78772 0.00349 0.11041 0.0
N85 N 0.78576 0.00258 0.14026 0.0
N86 N 0.74919 0.01189 0.14887 0.0
C87 C 0.72638 0.01832 0.1243 0.0
C88 C 0.75013 0.01304 0.09921 0.0
C89 C 0.82543 -0.00244 0.09283 0.0
H90 H 0.83566 0.96546 0.09537 0.0
H91 H 0.82067 0.00387 0.0689 0.0
H92 H 0.84933 0.01824 0.10133 0.0
O93 O 0.83426 0.03596 0.19774 0.0
O94 O 0.77523 0.06363 0.20783 0.0
H95 H 0.68068 0.06332 0.13012 0.0
H96 H 0.66906 0.02549 0.10235 0.0
C97 C 0.68304 0.0304 0.12445 0.0
H98 H 0.66651 0.01227 0.14131 0.0
H99 H 0.70019 0.09576 0.18344 0.0
O100 O 0.87567 0.98587 0.14991 0.0
C101 C 0.81339 0.06324 0.21053 0.0
Co102 Co 0.01834 0.83951 0.66404 0.0
Co103 Co 8e-05 0.75564 0.69066 0.0
C104 C 0.07495 0.80375 0.70788 0.0
O105 O 0.06588 0.83113 0.68902 0.0
O106 O 0.05223 0.77245 0.7116 0.0
C107 C 0.05652 0.91177 0.6431 0.0
O108 O 0.08854 0.8992 0.65758 0.0
C109 C 0.01178 0.66848 0.70105 0.0
C110 C 0.94904 0.64745 0.70752 0.0
C111 C -0.0116 0.63378 0.70559 0.0
N112 N -0.01277 0.70101 0.70027 0.0
N113 N 0.94985 0.68838 0.70443 0.0
C114 C 0.05584 0.67073 0.69431 0.0
H115 H 0.06283 0.69907 0.68168 0.0
H116 H 0.06553 0.64352 0.68147 0.0
H117 H 0.07298 0.6715 0.71544 0.0
C118 C 0.00968 0.79635 0.6078 0.0
N119 N 0.00988 0.79686 0.63759 0.0
N120 N 0.0025 0.76006 0.64798 0.0
C121 C -0.00282 0.73453 0.6246 0.0
C122 C 0.00207 0.75677 0.59841 0.0
C123 C 0.01375 0.83385 0.5888 0.0
H124 H -0.00837 0.85715 0.59607 0.0
H125 H 0.04439 0.8469 0.59159 0.0
H126 H 0.00839 0.82728 0.56501 0.0
O127 O 0.9712 0.8506 0.69005 0.0
O128 O 0.95511 0.78934 0.7076 0.0
H129 H 0.96181 0.68516 0.64189 0.0
H130 H 0.98172 0.67601 0.60514 0.0
C131 C -0.01194 0.68981 0.62712 0.0
H132 H 0.01428 0.67398 0.63711 0.0
H133 H 0.92476 0.70757 0.70411 0.0
O134 O 0.02603 0.88869 0.64126 0.0
C135 C 0.94863 0.82766 0.70568 0.0
Co136 Co 0.18175 -0.00625 0.85402 0.0
Co137 Co 0.26697 0.00671 0.82996 0.0
C138 C 0.21403 0.93422 0.81126 0.0
O139 O 0.18645 0.94402 0.82951 0.0
O140 O 0.24645 0.9554 0.80901 0.0
C141 C 0.10799 0.97212 0.88827 0.0
O142 O 0.11142 0.93225 0.88535 0.0
C143 C 0.35393 -0.00552 0.81796 0.0
C144 C 0.37575 0.05704 0.82765 0.0
C145 C 0.38908 0.01779 0.82129 0.0
N146 N 0.32215 0.01883 0.82322 0.0
N147 N 0.33541 0.05628 0.82836 0.0
C148 C 0.34972 0.95041 0.80953 0.0
H149 H 0.3191 0.94406 0.80104 0.0
H150 H 0.35498 0.93087 0.82931 0.0
H151 H 0.37165 0.94245 0.79195 0.0
C152 C 0.22301 -0.00254 0.91198 0.0
N153 N 0.22327 -0.0013 0.88208 0.0
N154 N 0.26013 0.00482 0.87267 0.0
C155 C 0.28466 0.00782 0.89676 0.0
C156 C 0.26166 0.00379 0.92241 0.0
C157 C 0.18698 0.98721 0.93045 0.0
H158 H 0.17331 0.95844 0.92219 0.0
H159 H 0.19483 0.98278 0.95414 0.0
H160 H 0.16475 0.01231 0.92869 0.0
O161 O 0.17593 0.04186 0.82725 0.0
O162 O 0.23722 0.05234 0.80989 0.0
H163 H 0.33484 0.04663 0.88759 0.0
H164 H 0.34313 0.01153 0.9178 0.0
C165 C 0.32907 0.01505 0.89561 0.0
H166 H 0.34306 0.99316 0.88001 0.0
H167 H 0.31691 0.08092 0.83382 0.0
O168 O 0.13276 -0.00384 0.87605 0.0
C169 C 0.2001 0.06171 0.81083 0.0
Co170 Co 0.04397 0.18808 0.35269 0.0
Co171 Co 0.00134 0.26606 0.33069 0.0
C172 C 0.08033 0.23183 0.30458 0.0
O173 O 0.08577 0.20885 0.3268 0.0
O174 O 0.04878 0.25416 0.30268 0.0
C175 C 0.085 0.11091 0.3846 0.0
O176 O 0.12392 0.11149 0.38988 0.0
C177 C 0.00319 0.35569 0.3221 0.0
C178 C 0.93859 0.37139 0.32113 0.0
C179 C 0.97677 0.38837 0.32021 0.0
N180 N 0.98171 0.32078 0.32421 0.0
N181 N 0.94306 0.33046 0.3236 0.0
C182 C 0.04809 0.35791 0.3233 0.0
H183 H 0.06092 0.32833 0.33092 0.0
H184 H 0.05769 0.38296 0.33838 0.0
H185 H 0.05974 0.36512 0.30084 0.0
C186 C 0.02821 0.22242 0.41118 0.0
N187 N 0.02901 0.22559 0.38145 0.0
N188 N 0.01107 0.25945 0.37301 0.0
C189 C -0.00174 0.2792 0.3977 0.0
C190 C 0.00894 0.25632 0.42266 0.0
C191 C 0.04218 0.18557 0.42811 0.0
H192 H 0.07443 0.18011 0.42327 0.0
H193 H 0.03851 0.18941 0.45238 0.0
H194 H 0.02472 0.15836 0.42079 0.0
O195 O -0.00385 0.16985 0.32899 0.0
O196 O 0.96002 0.22483 0.3172 0.0
H197 H 0.94363 0.30987 0.38636 0.0
H198 H 0.96697 0.32802 0.42023 0.0
C199 C 0.97273 0.31683 0.3974 0.0
H200 H -0.01198 0.3412 0.38448 0.0
H201 H 0.9197 0.30917 0.32538 0.0
O202 O 0.06877 0.14132 0.37201 0.0
C203 C 0.96513 0.18601 0.31688 0.0
Co204 Co 0.82805 0.0417 0.85964 0.0
Co205 Co 0.74944 0.01278 0.83128 0.0
C206 C 0.79335 0.09296 0.81389 0.0
O207 O 0.81841 0.08972 0.83511 0.0
O208 O 0.76631 0.06549 0.80959 0.0
C209 C 0.90118 0.06661 0.8983 0.0
O210 O 0.89899 0.10658 0.90115 0.0
C211 C 0.6635 0.01999 0.81569 0.0
C212 C 0.64306 0.95713 0.82599 0.0
C213 C 0.62894 -0.00403 0.81905 0.0
N214 N 0.69581 -0.00335 0.82179 0.0
N215 N 0.68342 0.95891 0.82712 0.0
C216 C 0.6666 0.06381 0.80618 0.0
H217 H 0.69542 0.06928 0.79461 0.0
H218 H 0.66548 0.08391 0.82598 0.0
H219 H 0.64187 0.07187 0.79068 0.0
C220 C 0.78452 0.03025 0.91529 0.0
N221 N 0.78611 0.02984 0.88547 0.0
N222 N 0.75151 0.01769 0.87448 0.0
C223 C 0.7262 0.01054 0.89762 0.0
C224 C 0.74639 0.01861 0.92419 0.0
C225 C 0.82026 0.03735 0.93498 0.0
H226 H 0.83094 0.06931 0.93217 0.0
H227 H 0.81373 0.03176 0.95869 0.0
H228 H 0.84457 0.01603 0.9286 0.0
O229 O 0.84178 -0.00472 0.83396 0.0
O230 O 0.78628 0.96841 0.81536 0.0
H231 H 0.68249 0.9648 0.88718 0.0
H232 H 0.66728 -0.00066 0.91621 0.0
C233 C 0.68336 -0.00292 0.89473 0.0
H234 H 0.66777 0.01642 0.87811 0.0
H235 H 0.70238 0.93498 0.83343 0.0
O236 O 0.87558 0.04725 0.88308 0.0
C237 C 0.8245 0.96836 0.81809 0.0
Co238 Co -0.00813 0.84246 0.35727 0.0
Co239 Co -0.00125 0.75441 0.33208 0.0
C240 C 0.92963 0.8092 0.31483 0.0
O241 O 0.9454 0.83643 0.33126 0.0
O242 O 0.94577 0.77366 0.31262 0.0
C243 C 0.95514 0.91631 0.38094 0.0
O244 O 0.92066 0.90489 0.36929 0.0
C245 C -0.01139 0.66375 0.32764 0.0
C246 C 0.05049 0.6455 0.3157 0.0
C247 C 0.01296 0.62992 0.32269 0.0
N248 N 0.01087 0.69791 0.32394 0.0
N249 N 0.04776 0.68662 0.31661 0.0
C250 C 0.94495 0.66356 0.33556 0.0
H251 H 0.93497 0.69467 0.34211 0.0
H252 H 0.93919 0.64146 0.35379 0.0
H253 H 0.92722 0.6533 0.31604 0.0
C254 C -0.00134 0.80056 0.41414 0.0
N255 N -0.00419 0.7997 0.38442 0.0
N256 N -0.0009 0.76184 0.37486 0.0
C257 C 0.00448 0.7372 0.39883 0.0
C258 C 0.00394 0.76106 0.42438 0.0
C259 C -0.00153 0.83897 0.43224 0.0
H260 H 0.02292 0.85959 0.42453 0.0
H261 H 0.9694 0.85501 0.42897 0.0
H262 H 0.00258 0.8326 0.45623 0.0
O263 O 0.0411 0.84801 0.33328 0.0
O264 O 0.04418 0.78654 0.3128 0.0
H265 H 0.0364 0.686 0.38095 0.0
H266 H 0.02234 0.68023 0.41948 0.0
C267 C 0.01268 0.69225 0.39756 0.0
H268 H 0.98483 0.67604 0.39082 0.0
H269 H 0.07156 0.707 0.31322 0.0
O270 O -0.01393 0.89387 0.37824 0.0
C271 C 0.05785 0.82292 0.31571 0.0
H272 H 0.29751 0.9716 0.05799 0.0
H273 H 0.22243 0.07843 0.06562 0.0
H274 H 0.22259 0.08712 1.01182 0.0
H275 H 0.23726 0.05965 0.96235 0.0
H276 H 0.31073 0.95202 0.95361 0.0
H277 H 0.31874 0.94848 1.00775 0.0
C278 C 0.2823 -0.0026 0.0478 0.0
C279 C 0.26014 0.02448 0.06566 0.0
C280 C 0.28196 0.00179 0.01659 0.0
C281 C 0.23987 0.05741 0.05226 0.0
C282 C 0.23975 0.06223 0.02149 0.0
C283 C 0.2559 0.0361 0.97235 0.0
C284 C 0.27366 0.00632 0.95414 0.0
C285 C 0.2597 0.03398 1.00339 0.0
C286 C 0.29727 0.97557 0.96723 0.0
C287 C 0.30151 0.97338 0.99818 0.0
H288 H 0.04298 0.30373 0.46538 0.0
H289 H 0.94802 0.21631 0.44994 0.0
H290 H 0.93467 0.21232 0.50326 0.0
H291 H 0.95392 0.22929 0.55443 0.0
H292 H 0.05196 0.31308 0.57049 0.0
H293 H 0.05943 0.32413 0.51701 0.0
C294 C 0.01865 0.28481 0.47377 0.0
C295 C -0.00405 0.26094 0.4539 0.0
C296 C 0.01187 0.28195 0.50458 0.0
C297 C 0.96521 0.23557 0.4649 0.0
C298 C 0.95786 0.23303 0.49536 0.0
C299 C 0.97679 0.25015 0.5462 0.0
C300 C 0.00252 0.27017 0.56641 0.0
C301 C 0.98159 0.25538 0.51545 0.0
C302 C 0.03157 0.29758 0.55545 0.0
C303 C 0.03606 0.30361 0.52484 0.0
H304 H 0.72322 0.96107 0.0564 0.0
H305 H 0.75934 0.08595 0.07181 0.0
H306 H 0.75568 0.10037 0.01856 0.0
H307 H 0.74864 0.07563 0.9674 0.0
H308 H 0.71664 0.9498 0.95117 0.0
H309 H 0.71049 0.93771 1.00473 0.0
C310 C 0.72913 0.99164 0.048 0.0
C311 C 0.74076 0.02272 0.06784 0.0
C312 C 0.72753 -0.00056 0.01723 0.0
C313 C 0.7495 0.06196 0.05688 0.0
C314 C 0.74763 0.07008 0.02646 0.0
C315 C 0.73934 0.04584 0.97566 0.0
C316 C 0.73311 0.01362 0.95547 0.0
C317 C 0.73743 0.03888 1.0064 0.0
C318 C 0.72126 0.97511 0.9663 0.0
C319 C 0.71825 0.96812 0.99693 0.0
H320 H 0.95196 0.7312 0.46536 0.0
H321 H 0.07516 0.76842 0.45273 0.0
H322 H 0.08712 0.76506 0.50627 0.0
H323 H 0.05996 0.76024 0.55683 0.0
H324 H 0.93612 0.72587 0.57009 0.0
H325 H 0.92682 0.71849 0.51634 0.0
C326 C 0.98166 0.73721 0.47443 0.0
C327 C 0.01287 0.74947 0.45537 0.0
C328 C -0.01203 0.73604 0.50532 0.0
C329 C 0.05104 0.75826 0.46713 0.0
C330 C 0.05773 0.75667 0.4977 0.0
C331 C 0.03131 0.75002 0.54787 0.0
C332 C -0.00122 0.74337 0.56716 0.0
C333 C 0.02611 0.74679 0.51704 0.0
C334 C 0.96161 0.73063 0.55554 0.0
C335 C 0.95626 0.72682 0.52484 0.0
H336 H 0.16141 0.21957 0.29926 0.0
H337 H 0.04943 0.21302 0.25099 0.0
H338 H 0.08066 0.16906 0.21399 0.0
H339 H 0.13668 0.12522 0.19922 0.0
H340 H 0.24958 0.13113 0.24662 0.0
H341 H 0.22163 0.18374 0.27937 0.0
C342 C 0.14446 0.21005 0.27987 0.0
C343 C 0.10324 0.22024 0.27768 0.0
C344 C 0.16266 0.1842 0.2587 0.0
C345 C 0.08139 0.20684 0.25279 0.0
C346 C 0.09911 0.18101 0.23186 0.0
C347 C 0.15561 0.13837 0.21638 0.0
C348 C 0.19514 0.12349 0.22066 0.0
C349 C 0.13927 0.16837 0.23518 0.0
C350 C 0.21905 0.14155 0.24287 0.0
C351 C 0.20297 0.17158 0.26171 0.0
H352 H 0.83381 0.16489 0.82084 0.0
H353 H 0.77438 0.09072 0.7548 0.0
H354 H 0.80784 0.12949 0.71547 0.0
H355 H 0.86401 0.17499 0.70067 0.0
H356 H 0.92297 0.24932 0.76677 0.0
H357 H 0.8796 0.22019 0.80517 0.0
C358 C 0.82721 0.15799 0.79781 0.0
C359 C 0.80218 0.12436 0.79084 0.0
C360 C 0.84713 0.17997 0.77531 0.0
C361 C 0.79356 0.11625 0.76088 0.0
C362 C 0.8131 0.13816 0.73834 0.0
C363 C 0.86644 0.18574 0.72335 0.0
C364 C 0.89692 0.21403 0.73091 0.0
C365 C 0.84148 0.16865 0.74537 0.0
C366 C 0.89965 0.22782 0.76033 0.0
C367 C 0.87508 0.21084 0.78236 0.0
H368 H 0.80259 0.85726 0.21552 0.0
H369 H 0.80261 0.96852 0.26687 0.0
H370 H 0.84565 0.9366 0.304 0.0
H371 H 0.88898 0.8807 0.31884 0.0
H372 H 0.88991 0.76761 0.26952 0.0
H373 H 0.8391 0.79585 0.23541 0.0
C374 C 0.81056 0.87373 0.23555 0.0
C375 C 0.79857 0.915 0.23874 0.0
C376 C 0.83561 0.85496 0.25706 0.0
C377 C 0.81007 0.93639 0.26439 0.0
C378 C 0.8353 0.91832 0.28542 0.0
C379 C 0.87789 0.86164 0.30097 0.0
C380 C 0.89411 0.82214 0.2966 0.0
C381 C 0.8491 0.87811 0.28154 0.0
C382 C 0.87855 0.79821 0.27333 0.0
C383 C 0.84955 0.81447 0.25374 0.0
H384 H 0.17555 0.86071 0.81803 0.0
H385 H 0.22633 0.94142 0.75218 0.0
H386 H 0.19134 0.90391 0.713 0.0
H387 H 0.13806 0.85548 0.69863 0.0
H388 H 0.08783 0.77347 0.76397 0.0
H389 H 0.13215 0.80283 0.80188 0.0
C390 C 0.18003 0.86909 0.79499 0.0
C391 C 0.20345 0.90387 0.78804 0.0
C392 C 0.15971 0.84727 0.77247 0.0
C393 C 0.20895 0.9145 0.75811 0.0
C394 C 0.18854 0.8933 0.73569 0.0
C395 C 0.13737 0.84333 0.72102 0.0
C396 C 0.1089 0.81287 0.72854 0.0
C397 C 0.16259 0.86071 0.74276 0.0
C398 C 0.10911 0.79704 0.75754 0.0
C399 C 0.13424 0.81412 0.77932 0.0
H400 H 0.96454 0.87596 0.75188 0.0
H401 H 0.86589 0.82259 0.70346 0.0
H402 H 0.81751 0.85978 0.73479 0.0
H403 H 0.80401 0.91115 0.77479 0.0
H404 H 0.90525 0.96 0.82388 0.0
H405 H 0.95136 0.92074 0.79392 0.0
C406 C 0.93239 0.87234 0.74836 0.0
C407 C 0.91867 0.84711 0.72534 0.0
C408 C 0.9051 0.89312 0.76667 0.0
C409 C 0.87703 0.84209 0.72108 0.0
C410 C 0.84946 0.86339 0.73897 0.0
C411 C 0.83608 0.91277 0.77915 0.0
C412 C 0.85079 0.93924 0.80148 0.0
C413 C 0.86315 0.88951 0.76171 0.0
C414 C 0.89265 0.94054 0.80677 0.0
C415 C 0.91935 0.91803 0.78957 0.0
H416 H 0.17209 0.87911 0.21144 0.0
H417 H 0.19048 0.98113 0.27036 0.0
H418 H 0.15025 0.94707 0.30857 0.0
H419 H 0.10352 0.89188 0.32287 0.0
H420 H 0.08745 0.78794 0.26504 0.0
H421 H 0.13401 0.81838 0.22926 0.0
C422 C 0.16834 0.89312 0.23304 0.0
C423 C 0.18452 0.93235 0.23825 0.0
C424 C 0.1453 0.87315 0.25501 0.0
C425 C 0.17904 0.95058 0.26612 0.0
C426 C 0.15563 0.9313 0.28783 0.0
C427 C 0.11059 0.87553 0.30264 0.0
C428 C 0.09125 0.83796 0.29646 0.0
C429 C 0.13763 0.89312 0.2822 0.0
C430 C 0.10147 0.81702 0.27032 0.0
C431 C 0.12803 0.83452 0.24975 0.0
H432 H 0.11695 0.14508 0.70066 0.0
H433 H 0.06293 0.218 0.76936 0.0
H434 H 0.10405 0.1833 0.80685 0.0
H435 H 0.15082 0.12717 0.82055 0.0
H436 H 0.20972 0.05918 0.75141 0.0
H437 H 0.17178 0.09699 0.7137 0.0
C438 C 0.11483 0.15387 0.72379 0.0
C439 C 0.08678 0.18389 0.73226 0.0
C440 C 0.13933 0.13444 0.74517 0.0
C441 C 0.08446 0.19518 0.76226 0.0
C442 C 0.10778 0.17512 0.78374 0.0
C443 C 0.15596 0.12143 0.79719 0.0
C444 C 0.18304 0.09052 0.78873 0.0
C445 C 0.13468 0.14404 0.77555 0.0
C446 C 0.1894 0.0832 0.75842 0.0
C447 C 0.16746 0.10458 0.73685 0.0
H448 H 0.87393 0.04547 0.24781 0.0
H449 H 0.79978 0.14585 0.21866 0.0
H450 H 0.83921 0.19333 0.24969 0.0
H451 H 0.89755 0.20627 0.28361 0.0
H452 H 0.96822 0.10303 0.31356 0.0
H453 H 0.92719 0.05701 0.28413 0.0
C454 C 0.86633 0.07778 0.24828 0.0
C455 C 0.83443 0.09228 0.23064 0.0
C456 C 0.88858 0.10446 0.26644 0.0
C457 C 0.82433 0.13401 0.23198 0.0
C458 C 0.84696 0.16111 0.24967 0.0
C459 C 0.90371 0.17368 0.28392 0.0
C460 C 0.93648 0.15851 0.30075 0.0
C461 C 0.87956 0.14675 0.26681 0.0
C462 C 0.94366 0.116 0.30082 0.0
C463 C 0.92017 0.08942 0.28388 0.0
H464 H 0.07783 0.9753 0.115 0.0
H465 H 0.04661 0.10215 0.12854 0.0
H466 H 0.9752 0.08498 0.12335 0.0
H467 H 0.92339 0.03247 0.12645 0.0
H468 H 0.95514 0.90443 0.12098 0.0
H469 H 0.02514 0.92349 0.11096 0.0
C470 C 0.05537 -0.00067 0.11616 0.0
C471 C 0.06697 0.03965 0.12303 0.0
C472 C 0.01474 0.9888 0.11508 0.0
C473 C 0.0381 0.07084 0.12358 0.0
C474 C -0.00261 0.06093 0.12092 0.0
C475 C 0.94546 0.0086 0.12267 0.0
C476 C 0.9346 0.96704 0.12542 0.0
C477 C -0.01446 0.01972 0.11854 0.0
C478 C 0.96308 0.93657 0.11949 0.0
C479 C 0.003 0.94748 0.11388 0.0
H480 H 0.96173 0.06276 0.67901 0.0
H481 H 0.94654 0.07589 0.58471 0.0
H482 H 0.98449 0.01214 0.57669 0.0
H483 H 0.02821 0.95709 0.59754 0.0
H484 H 0.05698 0.95906 0.69088 0.0
H485 H 0.01066 0.01559 0.69839 0.0
C486 C 0.96573 0.05075 0.65675 0.0
C487 C 0.95132 0.07307 0.63251 0.0
C488 C -0.00738 0.019 0.65224 0.0
C489 C 0.9567 0.05824 0.60366 0.0
C490 C 0.97956 0.02285 0.59911 0.0
C491 C 0.02557 0.97136 0.61915 0.0
C492 C 0.04607 0.95471 0.6436 0.0
C493 C -0.00071 0.00426 0.62323 0.0
C494 C 0.04225 0.97244 0.67171 0.0
C495 C 0.01487 0.00376 0.67617 0.0
H496 H 0.97407 0.09407 0.91705 0.0
H497 H 0.90291 0.98424 0.90618 0.0
H498 H 0.96271 0.94225 0.90949 0.0
H499 H 0.03555 0.93866 0.90212 0.0
H500 H 0.10657 0.04893 0.91075 0.0
H501 H 0.047 0.08815 0.92257 0.0
C502 C 0.9716 0.06093 0.91653 0.0
C503 C 0.93464 0.04247 0.91025 0.0
C504 C 0.00629 0.03679 0.91756 0.0
C505 C 0.93147 -0.00063 0.91017 0.0
C506 C 0.96566 0.97515 0.91198 0.0
C507 C 0.03804 0.9709 0.90766 0.0
C508 C 0.07483 0.99114 0.90447 0.0
C509 C 0.00343 -0.00624 0.91355 0.0
C510 C 0.0781 0.03282 0.91223 0.0
C511 C 0.04405 0.05546 0.91894 0.0
H512 H 0.01086 0.94206 0.41932 0.0
H513 H 0.91646 0.98534 0.36154 0.0
H514 H 0.94686 0.05373 0.36109 0.0
H515 H 0.00773 0.09558 0.36843 0.0
H516 H 0.10614 0.04792 0.42088 0.0
H517 H 0.06714 0.98637 0.4317 0.0
C518 C -0.00366 0.96689 0.40738 0.0
C519 C 0.96224 0.95879 0.38996 0.0
C520 C 0.01551 0.0048 0.40547 0.0
C521 C 0.94293 0.99101 0.37503 0.0
C522 C 0.96071 0.02985 0.37435 0.0
C523 C 0.0204 0.07197 0.38258 0.0
C524 C 0.06002 0.0758 0.39343 0.0
C525 C -0.00172 0.03621 0.38799 0.0
C526 C 0.07598 0.04524 0.41188 0.0
C527 C 0.05364 0.01021 0.41821 0.0
H528 H 0.43126 0.06312 0.20273 0.0
H529 H 0.43809 0.93105 0.20466 0.0
H530 H 0.51113 0.93475 0.20614 0.0
H531 H 0.57285 0.97511 0.20343 0.0
H532 H 0.56614 0.10724 0.20629 0.0
H533 H 0.4932 0.10346 0.20646 0.0
C534 C 0.44829 0.03508 0.20458 0.0
C535 C 0.42858 -0.0031 0.20387 0.0
C536 C 0.4906 0.03727 0.20592 0.0
C537 C 0.45211 0.96103 0.20506 0.0
C538 C 0.49407 0.96302 0.20592 0.0
C539 C 0.55607 0.00321 0.20519 0.0
C540 C 0.57592 0.04138 0.20519 0.0
C541 C 0.51373 0.00099 0.20595 0.0
C542 C 0.55225 0.0772 0.20619 0.0
C543 C 0.51027 0.07521 0.20634 0.0
H544 H 0.94794 0.57032 0.68192 0.0
H545 H 0.0561 0.60043 0.73043 0.0
H546 H 0.07501 0.52819 0.7317 0.0
H547 H 0.05959 0.45632 0.72034 0.0
H548 H 0.95222 0.42666 0.67076 0.0
H549 H 0.93364 0.49885 0.66916 0.0
C550 C 0.97562 0.561 0.69281 0.0
C551 C 0.0008 0.59054 0.70581 0.0
C552 C -0.01396 0.51952 0.69368 0.0
C553 C 0.03669 0.57828 0.71968 0.0
C554 C 0.04731 0.53698 0.72067 0.0
C555 C 0.03206 0.46576 0.7093 0.0
C556 C 0.00648 0.4362 0.69676 0.0
C557 C 0.02206 0.50735 0.70791 0.0
C558 C 0.97137 0.44868 0.6819 0.0
C559 C 0.96103 0.49 0.68058 0.0
H560 H 0.45314 0.06901 0.82107 0.0
H561 H 0.42426 0.93982 0.82374 0.0
H562 H 0.49474 0.92309 0.82051 0.0
H563 H 0.56504 0.94463 0.81674 0.0
H564 H 0.59401 0.0731 0.82604 0.0
H565 H 0.52338 0.09016 0.82463 0.0
C566 C 0.46191 0.03705 0.82079 0.0
C567 C 0.43237 0.00595 0.82067 0.0
C568 C 0.50297 0.02738 0.82083 0.0
C569 C 0.44511 0.96486 0.82153 0.0
C570 C 0.48595 0.95504 0.82034 0.0
C571 C 0.55614 0.97649 0.81826 0.0
C572 C 0.58562 0.00757 0.81922 0.0
C573 C 0.51509 0.98608 0.81963 0.0
C574 C 0.57296 0.04844 0.82257 0.0
C575 C 0.53212 0.05832 0.82257 0.0
H576 H 0.97769 0.44742 0.36247 0.0
H577 H -0.00385 0.42695 0.26922 0.0
H578 H 0.00831 0.5003 0.2615 0.0
H579 H 0.01348 0.57043 0.28134 0.0
H580 H -0.00571 0.59158 0.3744 0.0
H581 H 0.98328 0.51801 0.38248 0.0
C582 C 0.9846 0.45924 0.34056 0.0
C583 C -0.01371 0.43221 0.31639 0.0
C584 C -0.00863 0.50148 0.33635 0.0
C585 C -0.00488 0.44744 0.28807 0.0
C586 C 0.00191 0.48928 0.28368 0.0
C587 C 0.00646 0.55877 0.30327 0.0
C588 C 0.00373 0.58611 0.32714 0.0
C589 C -2e-05 0.51661 0.30761 0.0
C590 C -0.00464 0.57097 0.35562 0.0
C591 C -0.01061 0.52896 0.36024 0.0
loop_
_geom_bond_atom_site_label_1
_geom_bond_atom_site_label_2
_geom_bond_distance
_geom_bond_site_symmetry_2
_ccdc_geom_bond_type
Co0 O3 1.970 . S
Co0 N17 1.989 . S
Co0 O25 1.967 1_545 S
Co0 O32 1.920 . S
Co1 O4 1.966 . S
Co1 N10 2.022 . S
Co1 N18 1.993 . S
Co1 O26 1.941 1_545 S
C2 O3 1.258 . S
C2 O4 1.263 . S
O3 Co0 1.970 . S
O3 C2 1.258 . S
O4 Co1 1.966 . S
O4 C2 1.263 . S
C5 O6 1.235 . S
C5 O32 1.289 . S
O6 C5 1.235 . S
C7 C9 1.400 . S
C7 N10 1.351 . S
C7 C12 1.501 . S
C8 C9 1.387 1_565 S
C8 N11 1.341 . S
C9 C7 1.400 . S
C9 C8 1.387 1_545 S
N10 Co1 2.022 . S
N10 C7 1.351 . S
N10 N11 1.365 1_545 S
N11 C8 1.341 . S
N11 N10 1.365 1_565 S
N11 H31 0.862 . S
C12 C7 1.501 . S
C12 H13 0.961 . S
C12 H14 0.961 . S
C12 H15 0.960 . S
H13 C12 0.961 . S
H14 C12 0.961 . S
H15 C12 0.960 . S
C16 N17 1.342 . S
C16 C20 1.401 . S
C16 C21 1.499 . S
N17 Co0 1.989 . S
N17 C16 1.342 . S
N17 N18 1.388 . S
N18 Co1 1.993 . S
N18 N17 1.388 . S
N18 C19 1.346 . S
C19 N18 1.346 . S
C19 C20 1.396 . S
C19 C29 1.510 . S
C20 C16 1.401 . S
C20 C19 1.396 . S
C21 C16 1.499 . S
C21 H22 0.959 . S
C21 H23 0.960 . S
C21 H24 0.961 1_545 S
H22 C21 0.959 . S
H23 C21 0.960 . S
H24 C21 0.961 1_565 S
O25 Co0 1.967 1_565 S
O25 C33 1.258 . S
O26 Co1 1.941 1_565 S
O26 C33 1.266 . S
H27 C29 0.959 1_565 S
H28 C29 0.961 . S
C29 C19 1.510 . S
C29 H27 0.959 1_545 S
C29 H28 0.961 . S
C29 H30 0.960 . S
H30 C29 0.960 . S
H31 N11 0.862 . S
O32 Co0 1.920 . S
O32 C5 1.289 . S
C33 O25 1.258 . S
C33 O26 1.266 . S
Co34 O37 1.970 1_455 S
Co34 N51 1.989 . S
Co34 O59 1.967 . S
Co34 O66 1.920 . S
Co35 O38 1.966 1_455 S
Co35 N44 2.022 . S
Co35 N52 1.993 . S
Co35 O60 1.941 . S
C36 O37 1.258 . S
C36 O38 1.263 . S
O37 Co34 1.970 1_655 S
O37 C36 1.258 . S
O38 Co35 1.966 1_655 S
O38 C36 1.263 . S
C39 O40 1.235 . S
C39 O66 1.289 1_655 S
O40 C39 1.235 . S
C41 C43 1.398 1_655 S
C41 N44 1.351 1_655 S
C41 C46 1.501 . S
C42 C43 1.396 . S
C42 N45 1.341 . S
C43 C41 1.398 1_455 S
C43 C42 1.396 . S
N44 Co35 2.022 . S
N44 C41 1.351 1_455 S
N44 N45 1.365 . S
N45 C42 1.341 . S
N45 N44 1.365 . S
N45 H65 0.862 . S
C46 C41 1.501 . S
C46 H47 0.961 . S
C46 H48 0.961 . S
C46 H49 0.960 . S
H47 C46 0.961 . S
H48 C46 0.961 . S
H49 C46 0.960 . S
C50 N51 1.342 . S
C50 C54 1.401 . S
C50 C55 1.499 . S
N51 Co34 1.989 . S
N51 C50 1.342 . S
N51 N52 1.388 . S
N52 Co35 1.993 . S
N52 N51 1.388 . S
N52 C53 1.346 . S
C53 N52 1.346 . S
C53 C54 1.396 . S
C53 C63 1.510 . S
C54 C50 1.401 . S
C54 C53 1.396 . S
C55 C50 1.499 . S
C55 H56 0.959 . S
C55 H57 0.960 . S
C55 H58 0.961 . S
H56 C55 0.959 . S
H57 C55 0.960 . S
H58 C55 0.961 . S
O59 Co34 1.967 . S
O59 C67 1.258 . S
O60 Co35 1.941 . S
O60 C67 1.266 . S
H61 C63 0.959 . S
H62 C63 0.961 1_655 S
C63 C53 1.510 . S
C63 H61 0.959 . S
C63 H62 0.961 1_455 S
C63 H64 0.960 . S
H64 C63 0.960 . S
H65 N45 0.862 . S
O66 Co34 1.920 . S
O66 C39 1.289 1_455 S
C67 O59 1.258 . S
C67 O60 1.266 . S
Co68 O71 1.970 1_545 S
Co68 N85 1.989 . S
Co68 O93 1.967 . S
Co68 O100 1.920 . S
Co69 O72 1.966 1_545 S
Co69 N78 2.022 . S
Co69 N86 1.993 . S
Co69 O94 1.941 . S
C70 O71 1.258 . S
C70 O72 1.263 . S
O71 Co68 1.970 1_565 S
O71 C70 1.258 . S
O72 Co69 1.966 1_565 S
O72 C70 1.263 . S
C73 O74 1.235 . S
C73 O100 1.289 1_565 S
O74 C73 1.235 . S
C75 C77 1.398 1_565 S
C75 N78 1.351 1_565 S
C75 C80 1.501 . S
C76 C77 1.396 . S
C76 N79 1.341 . S
C77 C75 1.398 1_545 S
C77 C76 1.396 . S
N78 Co69 2.022 . S
N78 C75 1.351 1_545 S
N78 N79 1.365 . S
N79 C76 1.341 . S
N79 N78 1.365 . S
N79 H99 0.862 . S
C80 C75 1.501 . S
C80 H81 0.961 . S
C80 H82 0.961 . S
C80 H83 0.960 . S
H81 C80 0.961 . S
H82 C80 0.961 . S
H83 C80 0.960 . S
C84 N85 1.342 . S
C84 C88 1.401 . S
C84 C89 1.499 . S
N85 Co68 1.989 . S
N85 C84 1.342 . S
N85 N86 1.388 . S
N86 Co69 1.993 . S
N86 N85 1.388 . S
N86 C87 1.346 . S
C87 N86 1.346 . S
C87 C88 1.396 . S
C87 C97 1.510 . S
C88 C84 1.401 . S
C88 C87 1.396 . S
C89 C84 1.499 . S
C89 H90 0.959 . S
C89 H91 0.960 . S
C89 H92 0.961 . S
H90 C89 0.959 . S
H91 C89 0.960 . S
H92 C89 0.961 . S
O93 Co68 1.967 . S
O93 C101 1.258 . S
O94 Co69 1.941 . S
O94 C101 1.266 . S
H95 C97 0.959 . S
H96 C97 0.961 1_565 S
C97 C87 1.510 . S
C97 H95 0.959 . S
C97 H96 0.961 1_545 S
C97 H98 0.960 . S
H98 C97 0.960 . S
H99 N79 0.862 . S
O100 Co68 1.920 . S
O100 C73 1.289 1_545 S
C101 O93 1.258 . S
C101 O94 1.266 . S
Co102 O105 1.970 . S
Co102 N119 1.989 . S
Co102 O127 1.967 1_455 S
Co102 O134 1.920 . S
Co103 O106 1.966 . S
Co103 N112 2.022 . S
Co103 N120 1.993 . S
Co103 O128 1.941 1_455 S
C104 O105 1.258 . S
C104 O106 1.263 . S
O105 Co102 1.970 . S
O105 C104 1.258 . S
O106 Co103 1.966 . S
O106 C104 1.263 . S
C107 O108 1.235 . S
C107 O134 1.289 . S
O108 C107 1.235 . S
C109 C111 1.400 . S
C109 N112 1.351 . S
C109 C114 1.501 . S
C110 C111 1.387 1_655 S
C110 N113 1.341 . S
C111 C109 1.400 . S
C111 C110 1.387 1_455 S
N112 Co103 2.022 . S
N112 C109 1.351 . S
N112 N113 1.365 1_455 S
N113 C110 1.341 . S
N113 N112 1.365 1_655 S
N113 H133 0.862 . S
C114 C109 1.501 . S
C114 H115 0.961 . S
C114 H116 0.961 . S
C114 H117 0.960 . S
H115 C114 0.961 . S
H116 C114 0.961 . S
H117 C114 0.960 . S
C118 N119 1.342 . S
C118 C122 1.401 . S
C118 C123 1.499 . S
N119 Co102 1.989 . S
N119 C118 1.342 . S
N119 N120 1.388 . S
N120 Co103 1.993 . S
N120 N119 1.388 . S
N120 C121 1.346 . S
C121 N120 1.346 . S
C121 C122 1.396 . S
C121 C131 1.510 . S
C122 C118 1.401 . S
C122 C121 1.396 . S
C123 C118 1.499 . S
C123 H124 0.959 . S
C123 H125 0.960 . S
C123 H126 0.961 1_455 S
H124 C123 0.959 . S
H125 C123 0.960 . S
H126 C123 0.961 1_655 S
O127 Co102 1.967 1_655 S
O127 C135 1.258 . S
O128 Co103 1.941 1_655 S
O128 C135 1.266 . S
H129 C131 0.959 1_655 S
H130 C131 0.961 . S
C131 C121 1.510 . S
C131 H129 0.959 1_455 S
C131 H130 0.961 . S
C131 H132 0.960 . S
H132 C131 0.960 . S
H133 N113 0.862 . S
O134 Co102 1.920 . S
O134 C107 1.289 . S
C135 O127 1.258 . S
C135 O128 1.266 . S
Co136 O139 1.970 1_545 S
Co136 N153 1.989 . S
Co136 O161 1.967 . S
Co136 O168 1.920 . S
Co137 O140 1.966 1_545 S
Co137 N146 2.022 . S
Co137 N154 1.993 . S
Co137 O162 1.941 . S
C138 O139 1.258 . S
C138 O140 1.263 . S
O139 Co136 1.970 1_565 S
O139 C138 1.258 . S
O140 Co137 1.966 1_565 S
O140 C138 1.263 . S
C141 O142 1.235 . S
C141 O168 1.289 1_565 S
O142 C141 1.235 . S
C143 C145 1.398 1_565 S
C143 N146 1.351 1_565 S
C143 C148 1.501 . S
C144 C145 1.396 . S
C144 N147 1.341 . S
C145 C143 1.398 1_545 S
C145 C144 1.396 . S
N146 Co137 2.022 . S
N146 C143 1.351 1_545 S
N146 N147 1.365 . S
N147 C144 1.341 . S
N147 N146 1.365 . S
N147 H167 0.862 . S
C148 C143 1.501 . S
C148 H149 0.961 . S
C148 H150 0.961 . S
C148 H151 0.960 . S
H149 C148 0.961 . S
H150 C148 0.961 . S
H151 C148 0.960 . S
C152 N153 1.342 . S
C152 C156 1.401 . S
C152 C157 1.499 . S
N153 Co136 1.989 . S
N153 C152 1.342 . S
N153 N154 1.388 . S
N154 Co137 1.993 . S
N154 N153 1.388 . S
N154 C155 1.346 . S
C155 N154 1.346 . S
C155 C156 1.396 . S
C155 C165 1.510 . S
C156 C152 1.401 . S
C156 C155 1.396 . S
C157 C152 1.499 . S
C157 H158 0.959 . S
C157 H159 0.960 . S
C157 H160 0.961 . S
H158 C157 0.959 . S
H159 C157 0.960 . S
H160 C157 0.961 . S
O161 Co136 1.967 . S
O161 C169 1.258 . S
O162 Co137 1.941 . S
O162 C169 1.266 . S
H163 C165 0.959 . S
H164 C165 0.961 1_565 S
C165 C155 1.510 . S
C165 H163 0.959 . S
C165 H164 0.961 1_545 S
C165 H166 0.960 . S
H166 C165 0.960 . S
H167 N147 0.862 . S
O168 Co136 1.920 . S
O168 C141 1.289 1_545 S
C169 O161 1.258 . S
C169 O162 1.266 . S
Co170 O173 1.970 . S
Co170 N187 1.989 . S
Co170 O195 1.967 1_455 S
Co170 O202 1.920 . S
Co171 O174 1.966 . S
Co171 N180 2.022 . S
Co171 N188 1.993 . S
Co171 O196 1.941 1_455 S
C172 O173 1.258 . S
C172 O174 1.263 . S
O173 Co170 1.970 . S
O173 C172 1.258 . S
O174 Co171 1.966 . S
O174 C172 1.263 . S
C175 O176 1.235 . S
C175 O202 1.289 . S
O176 C175 1.235 . S
C177 C179 1.400 . S
C177 N180 1.351 . S
C177 C182 1.501 . S
C178 C179 1.387 1_655 S
C178 N181 1.341 . S
C179 C177 1.400 . S
C179 C178 1.387 1_455 S
N180 Co171 2.022 . S
N180 C177 1.351 . S
N180 N181 1.365 1_455 S
N181 C178 1.341 . S
N181 N180 1.365 1_655 S
N181 H201 0.862 . S
C182 C177 1.501 . S
C182 H183 0.961 . S
C182 H184 0.961 . S
C182 H185 0.960 . S
H183 C182 0.961 . S
H184 C182 0.961 . S
H185 C182 0.960 . S
C186 N187 1.342 . S
C186 C190 1.401 . S
C186 C191 1.499 . S
N187 Co170 1.989 . S
N187 C186 1.342 . S
N187 N188 1.388 . S
N188 Co171 1.993 . S
N188 N187 1.388 . S
N188 C189 1.346 . S
C189 N188 1.346 . S
C189 C190 1.396 . S
C189 C199 1.510 . S
C190 C186 1.401 . S
C190 C189 1.396 . S
C191 C186 1.499 . S
C191 H192 0.959 . S
C191 H193 0.960 . S
C191 H194 0.961 1_455 S
H192 C191 0.959 . S
H193 C191 0.960 . S
H194 C191 0.961 1_655 S
O195 Co170 1.967 1_655 S
O195 C203 1.258 . S
O196 Co171 1.941 1_655 S
O196 C203 1.266 . S
H197 C199 0.959 1_655 S
H198 C199 0.961 . S
C199 C189 1.510 . S
C199 H197 0.959 1_455 S
C199 H198 0.961 . S
C199 H200 0.960 . S
H200 C199 0.960 . S
H201 N181 0.862 . S
O202 Co170 1.920 . S
O202 C175 1.289 . S
C203 O195 1.258 . S
C203 O196 1.266 . S
Co204 O207 1.970 . S
Co204 N221 1.989 . S
Co204 O229 1.967 1_545 S
Co204 O236 1.920 . S
Co205 O208 1.966 . S
Co205 N214 2.022 . S
Co205 N222 1.993 . S
Co205 O230 1.941 1_545 S
C206 O207 1.258 . S
C206 O208 1.263 . S
O207 Co204 1.970 . S
O207 C206 1.258 . S
O208 Co205 1.966 . S
O208 C206 1.263 . S
C209 O210 1.235 . S
C209 O236 1.289 . S
O210 C209 1.235 . S
C211 C213 1.400 . S
C211 N214 1.351 . S
C211 C216 1.501 . S
C212 C213 1.387 1_565 S
C212 N215 1.341 . S
C213 C211 1.400 . S
C213 C212 1.387 1_545 S
N214 Co205 2.022 . S
N214 C211 1.351 . S
N214 N215 1.365 1_545 S
N215 C212 1.341 . S
N215 N214 1.365 1_565 S
N215 H235 0.862 . S
C216 C211 1.501 . S
C216 H217 0.961 . S
C216 H218 0.961 . S
C216 H219 0.960 . S
H217 C216 0.961 . S
H218 C216 0.961 . S
H219 C216 0.960 . S
C220 N221 1.342 . S
C220 C224 1.401 . S
C220 C225 1.499 . S
N221 Co204 1.989 . S
N221 C220 1.342 . S
N221 N222 1.388 . S
N222 Co205 1.993 . S
N222 N221 1.388 . S
N222 C223 1.346 . S
C223 N222 1.346 . S
C223 C224 1.396 . S
C223 C233 1.510 . S
C224 C220 1.401 . S
C224 C223 1.396 . S
C225 C220 1.499 . S
C225 H226 0.959 . S
C225 H227 0.960 . S
C225 H228 0.961 1_545 S
H226 C225 0.959 . S
H227 C225 0.960 . S
H228 C225 0.961 1_565 S
O229 Co204 1.967 1_565 S
O229 C237 1.258 . S
O230 Co205 1.941 1_565 S
O230 C237 1.266 . S
H231 C233 0.959 1_565 S
H232 C233 0.961 . S
C233 C223 1.510 . S
C233 H231 0.959 1_545 S
C233 H232 0.961 . S
C233 H234 0.960 . S
H234 C233 0.960 . S
H235 N215 0.862 . S
O236 Co204 1.920 . S
O236 C209 1.289 . S
C237 O229 1.258 . S
C237 O230 1.266 . S
Co238 O241 1.970 1_455 S
Co238 N255 1.989 . S
Co238 O263 1.967 . S
Co238 O270 1.920 . S
Co239 O242 1.966 1_455 S
Co239 N248 2.022 . S
Co239 N256 1.993 . S
Co239 O264 1.941 . S
C240 O241 1.258 . S
C240 O242 1.263 . S
O241 Co238 1.970 1_655 S
O241 C240 1.258 . S
O242 Co239 1.966 1_655 S
O242 C240 1.263 . S
C243 O244 1.235 . S
C243 O270 1.289 1_655 S
O244 C243 1.235 . S
C245 C247 1.398 1_655 S
C245 N248 1.351 1_655 S
C245 C250 1.501 . S
C246 C247 1.396 . S
C246 N249 1.341 . S
C247 C245 1.398 1_455 S
C247 C246 1.396 . S
N248 Co239 2.022 . S
N248 C245 1.351 1_455 S
N248 N249 1.365 . S
N249 C246 1.341 . S
N249 N248 1.365 . S
N249 H269 0.862 . S
C250 C245 1.501 . S
C250 H251 0.961 . S
C250 H252 0.961 . S
C250 H253 0.960 . S
H251 C250 0.961 . S
H252 C250 0.961 . S
H253 C250 0.960 . S
C254 N255 1.342 . S
C254 C258 1.401 . S
C254 C259 1.499 . S
N255 Co238 1.989 . S
N255 C254 1.342 . S
N255 N256 1.388 . S
N256 Co239 1.993 . S
N256 N255 1.388 . S
N256 C257 1.346 . S
C257 N256 1.346 . S
C257 C258 1.396 . S
C257 C267 1.510 . S
C258 C254 1.401 . S
C258 C257 1.396 . S
C259 C254 1.499 . S
C259 H260 0.959 . S
C259 H261 0.960 . S
C259 H262 0.961 . S
H260 C259 0.959 . S
H261 C259 0.960 . S
H262 C259 0.961 . S
O263 Co238 1.967 . S
O263 C271 1.258 . S
O264 Co239 1.941 . S
O264 C271 1.266 . S
H265 C267 0.959 . S
H266 C267 0.961 1_655 S
C267 C257 1.510 . S
C267 H265 0.959 . S
C267 H266 0.961 1_455 S
C267 H268 0.960 . S
H268 C267 0.960 . S
H269 N249 0.862 . S
O270 Co238 1.920 . S
O270 C243 1.289 1_455 S
C271 O263 1.258 . S
C271 O264 1.266 . S
H272 C278 0.946 . S
H273 C281 0.930 . S
H274 C282 0.930 . S
H275 C283 0.930 . S
H276 C286 0.930 . S
H277 C287 0.930 . S
C278 H272 0.946 . S
C278 C279 1.344 1_565 S
C278 C280 1.410 1_565 S
C279 C278 1.344 1_545 S
C279 C281 1.419 . S
C280 C278 1.410 1_545 S
C280 C285 1.425 1_554 S
C280 C287 1.409 1_544 S
C281 H273 0.930 . S
C281 C279 1.419 . S
C281 C282 1.362 . S
C282 H274 0.930 . S
C282 C281 1.362 . S
C282 C285 1.409 1_554 S
C283 H275 0.930 . S
C283 C284 1.355 . S
C283 C285 1.415 . S
C284 C283 1.355 . S
C284 C286 1.419 1_545 S
C285 C280 1.425 1_556 S
C285 C282 1.409 1_556 S
C285 C283 1.415 . S
C286 H276 0.930 . S
C286 C284 1.419 1_565 S
C286 C287 1.362 . S
C287 H277 0.930 . S
C287 C280 1.409 1_566 S
C287 C286 1.362 . S
H288 C294 0.930 . S
H289 C297 0.930 . S
H290 C298 0.930 . S
H291 C299 0.930 . S
H292 C302 0.930 . S
H293 C303 0.930 . S
C294 H288 0.930 . S
C294 C295 1.355 . S
C294 C296 1.415 . S
C295 C294 1.355 . S
C295 C297 1.419 . S
C296 C294 1.415 . S
C296 C301 1.425 . S
C296 C303 1.409 . S
C297 H289 0.930 . S
C297 C295 1.419 . S
C297 C298 1.362 . S
C298 H290 0.930 . S
C298 C297 1.362 . S
C298 C301 1.409 . S
C299 H291 0.930 . S
C299 C300 1.355 . S
C299 C301 1.415 . S
C300 C299 1.355 . S
C300 C302 1.419 . S
C301 C296 1.425 . S
C301 C298 1.409 . S
C301 C299 1.415 . S
C302 H292 0.930 . S
C302 C300 1.419 . S
C302 C303 1.362 . S
C303 H293 0.930 . S
C303 C296 1.409 . S
C303 C302 1.362 . S
H304 C310 0.930 . S
H305 C313 0.930 . S
H306 C314 0.930 . S
H307 C315 0.930 . S
H308 C318 0.930 . S
H309 C319 0.930 . S
C310 H304 0.930 . S
C310 C311 1.355 1_565 S
C310 C312 1.414 1_565 S
C311 C310 1.355 1_545 S
C311 C313 1.419 . S
C312 C310 1.414 1_545 S
C312 C317 1.433 1_554 S
C312 C319 1.402 1_544 S
C313 H305 0.930 . S
C313 C311 1.419 . S
C313 C314 1.362 . S
C314 H306 0.930 . S
C314 C313 1.362 . S
C314 C317 1.409 1_554 S
C315 H307 0.930 . S
C315 C316 1.355 . S
C315 C317 1.415 . S
C316 C315 1.355 . S
C316 C318 1.419 1_545 S
C317 C312 1.433 1_556 S
C317 C314 1.409 1_556 S
C317 C315 1.415 . S
C318 H308 0.930 . S
C318 C316 1.419 1_565 S
C318 C319 1.362 . S
C319 H309 0.930 . S
C319 C312 1.402 1_566 S
C319 C318 1.362 . S
H320 C326 0.930 . S
H321 C329 0.930 . S
H322 C330 0.930 . S
H323 C331 0.930 . S
H324 C334 0.930 . S
H325 C335 0.930 . S
C326 H320 0.930 . S
C326 C327 1.355 1_655 S
C326 C328 1.415 . S
C327 C326 1.355 1_455 S
C327 C329 1.419 . S
C328 C326 1.415 . S
C328 C333 1.417 1_655 S
C328 C335 1.416 . S
C329 H321 0.930 . S
C329 C327 1.419 . S
C329 C330 1.362 . S
C330 H322 0.930 . S
C330 C329 1.362 . S
C330 C333 1.409 . S
C331 H323 0.930 . S
C331 C332 1.355 . S
C331 C333 1.415 . S
C332 C331 1.355 . S
C332 C334 1.419 1_455 S
C333 C328 1.417 1_455 S
C333 C330 1.409 . S
C333 C331 1.415 . S
C334 H324 0.930 . S
C334 C332 1.419 1_655 S
C334 C335 1.362 . S
C335 H325 0.930 . S
C335 C328 1.416 . S
C335 C334 1.362 . S
H336 C342 0.930 . S
H337 C345 0.930 . S
H338 C346 0.930 . S
H339 C347 0.930 . S
H340 C350 0.930 . S
H341 C351 0.930 . S
C342 H336 0.930 . S
C342 C343 1.355 . S
C342 C344 1.415 . S
C343 C342 1.355 . S
C343 C345 1.419 . S
C344 C342 1.415 . S
C344 C349 1.425 . S
C344 C351 1.409 . S
C345 H337 0.930 . S
C345 C343 1.419 . S
C345 C346 1.362 . S
C346 H338 0.930 . S
C346 C345 1.362 . S
C346 C349 1.409 . S
C347 H339 0.930 . S
C347 C348 1.355 . S
C347 C349 1.415 . S
C348 C347 1.355 . S
C348 C350 1.419 . S
C349 C344 1.425 . S
C349 C346 1.409 . S
C349 C347 1.415 . S
C350 H340 0.930 . S
C350 C348 1.419 . S
C350 C351 1.362 . S
C351 H341 0.930 . S
C351 C344 1.409 . S
C351 C350 1.362 . S
H352 C358 0.930 . S
H353 C361 0.930 . S
H354 C362 0.930 . S
H355 C363 0.930 . S
H356 C366 0.930 . S
H357 C367 0.930 . S
C358 H352 0.930 . S
C358 C359 1.355 . S
C358 C360 1.415 . S
C359 C358 1.355 . S
C359 C361 1.419 . S
C360 C358 1.415 . S
C360 C365 1.425 . S
C360 C367 1.409 . S
C361 H353 0.930 . S
C361 C359 1.419 . S
C361 C362 1.362 . S
C362 H354 0.930 . S
C362 C361 1.362 . S
C362 C365 1.409 . S
C363 H355 0.930 . S
C363 C364 1.355 . S
C363 C365 1.415 . S
C364 C363 1.355 . S
C364 C366 1.419 . S
C365 C360 1.425 . S
C365 C362 1.409 . S
C365 C363 1.415 . S
C366 H356 0.930 . S
C366 C364 1.419 . S
C366 C367 1.362 . S
C367 H357 0.930 . S
C367 C360 1.409 . S
C367 C366 1.362 . S
H368 C374 0.930 . S
H369 C377 0.930 . S
H370 C378 0.930 . S
H371 C379 0.930 . S
H372 C382 0.930 . S
H373 C383 0.930 . S
C374 H368 0.930 . S
C374 C375 1.355 . S
C374 C376 1.415 . S
C375 C374 1.355 . S
C375 C377 1.419 . S
C376 C374 1.415 . S
C376 C381 1.425 . S
C376 C383 1.409 . S
C377 H369 0.930 . S
C377 C375 1.419 . S
C377 C378 1.362 . S
C378 H370 0.930 . S
C378 C377 1.362 . S
C378 C381 1.409 . S
C379 H371 0.930 . S
C379 C380 1.355 . S
C379 C381 1.415 . S
C380 C379 1.355 . S
C380 C382 1.419 . S
C381 C376 1.425 . S
C381 C378 1.409 . S
C381 C379 1.415 . S
C382 H372 0.930 . S
C382 C380 1.419 . S
C382 C383 1.362 . S
C383 H373 0.930 . S
C383 C376 1.409 . S
C383 C382 1.362 . S
H384 C390 0.930 . S
H385 C393 0.930 . S
H386 C394 0.930 . S
H387 C395 0.930 . S
H388 C398 0.930 . S
H389 C399 0.930 . S
C390 H384 0.930 . S
C390 C391 1.355 . S
C390 C392 1.415 . S
C391 C390 1.355 . S
C391 C393 1.419 . S
C392 C390 1.415 . S
C392 C397 1.425 . S
C392 C399 1.409 . S
C393 H385 0.930 . S
C393 C391 1.419 . S
C393 C394 1.362 . S
C394 H386 0.930 . S
C394 C393 1.362 . S
C394 C397 1.409 . S
C395 H387 0.930 . S
C395 C396 1.355 . S
C395 C397 1.415 . S
C396 C395 1.355 . S
C396 C398 1.419 . S
C397 C392 1.425 . S
C397 C394 1.409 . S
C397 C395 1.415 . S
C398 H388 0.930 . S
C398 C396 1.419 . S
C398 C399 1.362 . S
C399 H389 0.930 . S
C399 C392 1.409 . S
C399 C398 1.362 . S
H400 C406 0.930 . S
H401 C409 0.930 . S
H402 C410 0.930 . S
H403 C411 0.930 . S
H404 C414 0.930 . S
H405 C415 0.930 . S
C406 H400 0.930 . S
C406 C407 1.355 . S
C406 C408 1.415 . S
C407 C406 1.355 . S
C407 C409 1.419 . S
C408 C406 1.415 . S
C408 C413 1.425 . S
C408 C415 1.409 . S
C409 H401 0.930 . S
C409 C407 1.419 . S
C409 C410 1.362 . S
C410 H402 0.930 . S
C410 C409 1.362 . S
C410 C413 1.409 . S
C411 H403 0.930 . S
C411 C412 1.355 . S
C411 C413 1.415 . S
C412 C411 1.355 . S
C412 C414 1.419 . S
C413 C408 1.425 . S
C413 C410 1.409 . S
C413 C411 1.415 . S
C414 H404 0.930 . S
C414 C412 1.419 . S
C414 C415 1.362 . S
C415 H405 0.930 . S
C415 C408 1.409 . S
C415 C414 1.362 . S
H416 C422 0.930 . S
H417 C425 0.930 . S
H418 C426 0.930 . S
H419 C427 0.930 . S
H420 C430 0.930 . S
H421 C431 0.930 . S
C422 H416 0.930 . S
C422 C423 1.355 . S
C422 C424 1.415 . S
C423 C422 1.355 . S
C423 C425 1.419 . S
C424 C422 1.415 . S
C424 C429 1.425 . S
C424 C431 1.409 . S
C425 H417 0.930 . S
C425 C423 1.419 . S
C425 C426 1.362 . S
C426 H418 0.930 . S
C426 C425 1.362 . S
C426 C429 1.409 . S
C427 H419 0.930 . S
C427 C428 1.355 . S
C427 C429 1.415 . S
C428 C427 1.355 . S
C428 C430 1.419 . S
C429 C424 1.425 . S
C429 C426 1.409 . S
C429 C427 1.415 . S
C430 H420 0.930 . S
C430 C428 1.419 . S
C430 C431 1.362 . S
C431 H421 0.930 . S
C431 C424 1.409 . S
C431 C430 1.362 . S
H432 C438 0.930 . S
H433 C441 0.930 . S
H434 C442 0.930 . S
H435 C443 0.930 . S
H436 C446 0.930 . S
H437 C447 0.930 . S
C438 H432 0.930 . S
C438 C439 1.355 . S
C438 C440 1.415 . S
C439 C438 1.355 . S
C439 C441 1.419 . S
C440 C438 1.415 . S
C440 C445 1.425 . S
C440 C447 1.409 . S
C441 H433 0.930 . S
C441 C439 1.419 . S
C441 C442 1.362 . S
C442 H434 0.930 . S
C442 C441 1.362 . S
C442 C445 1.409 . S
C443 H435 0.930 . S
C443 C444 1.355 . S
C443 C445 1.415 . S
C444 C443 1.355 . S
C444 C446 1.419 . S
C445 C440 1.425 . S
C445 C442 1.409 . S
C445 C443 1.415 . S
C446 H436 0.930 . S
C446 C444 1.419 . S
C446 C447 1.362 . S
C447 H437 0.930 . S
C447 C440 1.409 . S
C447 C446 1.362 . S
H448 C454 0.930 . S
H449 C457 0.930 . S
H450 C458 0.930 . S
H451 C459 0.930 . S
H452 C462 0.930 . S
H453 C463 0.930 . S
C454 H448 0.930 . S
C454 C455 1.355 . S
C454 C456 1.415 . S
C455 C454 1.355 . S
C455 C457 1.419 . S
C456 C454 1.415 . S
C456 C461 1.425 . S
C456 C463 1.409 . S
C457 H449 0.930 . S
C457 C455 1.419 . S
C457 C458 1.362 . S
C458 H450 0.930 . S
C458 C457 1.362 . S
C458 C461 1.409 . S
C459 H451 0.930 . S
C459 C460 1.355 . S
C459 C461 1.415 . S
C460 C459 1.355 . S
C460 C462 1.419 . S
C461 C456 1.425 . S
C461 C458 1.409 . S
C461 C459 1.415 . S
C462 H452 0.930 . S
C462 C460 1.419 . S
C462 C463 1.362 . S
C463 H453 0.930 . S
C463 C456 1.409 . S
C463 C462 1.362 . S
H464 C470 0.941 . S
H465 C473 0.930 . S
H466 C474 0.930 1_655 S
H467 C475 0.930 . S
H468 C478 0.930 . S
H469 C479 0.930 . S
C470 H464 0.941 . S
C470 C471 1.355 . S
C470 C472 1.415 . S
C471 C470 1.355 . S
C471 C473 1.419 . S
C472 C470 1.415 . S
C472 C477 1.425 . S
C472 C479 1.409 1_545 S
C473 H465 0.930 . S
C473 C471 1.419 . S
C473 C474 1.362 . S
C474 H466 0.930 1_455 S
C474 C473 1.362 . S
C474 C477 1.409 . S
C475 H467 0.930 . S
C475 C476 1.355 1_545 S
C475 C477 1.415 1_655 S
C476 C475 1.355 1_565 S
C476 C478 1.419 . S
C477 C472 1.425 . S
C477 C474 1.409 . S
C477 C475 1.415 1_455 S
C478 H468 0.930 . S
C478 C476 1.419 . S
C478 C479 1.362 1_655 S
C479 H469 0.930 . S
C479 C472 1.409 1_565 S
C479 C478 1.362 1_455 S
H480 C486 0.930 . S
H481 C489 0.930 . S
H482 C490 0.930 . S
H483 C491 0.930 . S
H484 C494 0.930 . S
H485 C495 0.935 . S
C486 H480 0.930 . S
C486 C487 1.355 . S
C486 C488 1.415 1_655 S
C487 C486 1.355 . S
C487 C489 1.419 1_655 S
C488 C486 1.415 1_455 S
C488 C493 1.425 . S
C488 C495 1.408 1_445 S
C489 H481 0.930 . S
C489 C487 1.419 1_455 S
C489 C490 1.362 . S
C490 H482 0.930 . S
C490 C489 1.362 . S
C490 C493 1.409 . S
C491 H483 0.930 . S
C491 C492 1.355 . S
C491 C493 1.415 1_565 S
C492 C491 1.355 . S
C492 C494 1.419 . S
C493 C488 1.425 . S
C493 C490 1.409 . S
C493 C491 1.415 1_545 S
C494 H484 0.930 . S
C494 C492 1.419 . S
C494 C495 1.358 1_455 S
C495 H485 0.935 . S
C495 C488 1.408 1_665 S
C495 C494 1.358 1_655 S
H496 C502 0.930 . S
H497 C505 0.939 . S
H498 C506 0.930 . S
H499 C507 0.930 . S
H500 C510 0.930 . S
H501 C511 0.930 . S
C502 H496 0.930 . S
C502 C503 1.355 . S
C502 C504 1.415 1_655 S
C503 C502 1.355 . S
C503 C505 1.419 . S
C504 C502 1.415 1_455 S
C504 C509 1.425 1_545 S
C504 C511 1.409 . S
C505 H497 0.939 . S
C505 C503 1.419 . S
C505 C506 1.362 1_545 S
C506 H498 0.930 . S
C506 C505 1.362 1_565 S
C506 C509 1.409 1_655 S
C507 H499 0.930 . S
C507 C508 1.355 . S
C507 C509 1.415 . S
C508 C507 1.355 . S
C508 C510 1.419 1_565 S
C509 C504 1.425 1_565 S
C509 C506 1.409 1_455 S
C509 C507 1.415 . S
C510 H500 0.930 . S
C510 C508 1.419 1_545 S
C510 C511 1.362 . S
C511 H501 0.930 . S
C511 C504 1.409 . S
C511 C510 1.362 . S
H512 C518 0.930 . S
H513 C521 0.930 . S
H514 C522 0.930 . S
H515 C523 0.930 . S
H516 C526 0.930 . S
H517 C527 0.930 1_565 S
C518 H512 0.930 . S
C518 C519 1.355 1_455 S
C518 C520 1.415 1_565 S
C519 C518 1.355 1_655 S
C519 C521 1.419 . S
C520 C518 1.415 1_545 S
C520 C525 1.425 . S
C520 C527 1.409 . S
C521 H513 0.930 . S
C521 C519 1.419 . S
C521 C522 1.362 1_565 S
C522 H514 0.930 . S
C522 C521 1.362 1_545 S
C522 C525 1.409 1_655 S
C523 H515 0.930 . S
C523 C524 1.355 . S
C523 C525 1.415 . S
C524 C523 1.355 . S
C524 C526 1.419 . S
C525 C520 1.425 . S
C525 C522 1.409 1_455 S
C525 C523 1.415 . S
C526 H516 0.930 . S
C526 C524 1.419 . S
C526 C527 1.362 . S
C527 H517 0.930 1_545 S
C527 C520 1.409 . S
C527 C526 1.362 . S
H528 C534 0.930 . S
H529 C537 0.930 . S
H530 C538 0.930 . S
H531 C539 0.930 . S
H532 C542 0.930 . S
H533 C543 0.930 . S
C534 H528 0.930 . S
C534 C535 1.355 . S
C534 C536 1.415 . S
C535 C534 1.355 . S
C535 C537 1.419 1_545 S
C536 C534 1.415 . S
C536 C541 1.425 1_545 S
C536 C543 1.409 . S
C537 H529 0.930 . S
C537 C535 1.419 1_565 S
C537 C538 1.362 . S
C538 H530 0.930 . S
C538 C537 1.362 . S
C538 C541 1.409 . S
C539 H531 0.930 . S
C539 C540 1.355 . S
C539 C541 1.415 . S
C540 C539 1.355 . S
C540 C542 1.419 1_565 S
C541 C536 1.425 1_565 S
C541 C538 1.409 . S
C541 C539 1.415 . S
C542 H532 0.930 . S
C542 C540 1.419 1_545 S
C542 C543 1.362 . S
C543 H533 0.930 . S
C543 C536 1.409 . S
C543 C542 1.362 . S
H544 C550 0.930 1_655 S
H545 C553 0.930 . S
H546 C554 0.930 . S
H547 C555 0.930 . S
H548 C558 0.930 . S
H549 C559 0.930 . S
C550 H544 0.930 1_455 S
C550 C551 1.355 . S
C550 C552 1.415 . S
C551 C550 1.355 . S
C551 C553 1.419 . S
C552 C550 1.415 . S
C552 C557 1.425 . S
C552 C559 1.409 1_455 S
C553 H545 0.930 . S
C553 C551 1.419 . S
C553 C554 1.362 . S
C554 H546 0.930 . S
C554 C553 1.362 . S
C554 C557 1.409 . S
C555 H547 0.930 . S
C555 C556 1.355 1_455 S
C555 C557 1.415 . S
C556 C555 1.355 1_655 S
C556 C558 1.419 . S
C557 C552 1.425 . S
C557 C554 1.409 . S
C557 C555 1.415 . S
C558 H548 0.930 . S
C558 C556 1.419 . S
C558 C559 1.362 . S
C559 H549 0.930 . S
C559 C552 1.409 1_655 S
C559 C558 1.362 . S
H560 C566 0.930 . S
H561 C569 0.930 . S
H562 C570 0.930 . S
H563 C571 0.930 1_565 S
H564 C574 0.930 . S
H565 C575 0.930 . S
C566 H560 0.930 . S
C566 C567 1.355 1_545 S
C566 C568 1.415 . S
C567 C566 1.355 1_565 S
C567 C569 1.419 . S
C568 C566 1.415 . S
C568 C573 1.425 . S
C568 C575 1.409 . S
C569 H561 0.930 . S
C569 C567 1.419 . S
C569 C570 1.362 . S
C570 H562 0.930 . S
C570 C569 1.362 . S
C570 C573 1.409 1_565 S
C571 H563 0.930 1_545 S
C571 C572 1.355 . S
C571 C573 1.415 . S
C572 C571 1.355 . S
C572 C574 1.419 . S
C573 C568 1.425 . S
C573 C570 1.409 1_545 S
C573 C571 1.415 . S
C574 H564 0.930 . S
C574 C572 1.419 . S
C574 C575 1.362 . S
C575 H565 0.930 . S
C575 C568 1.409 . S
C575 C574 1.362 . S
H576 C582 0.930 . S
H577 C585 0.930 . S
H578 C586 0.930 1_655 S
H579 C587 0.930 . S
H580 C590 0.930 . S
H581 C591 0.930 . S
C582 H576 0.930 . S
C582 C583 1.355 . S
C582 C584 1.415 . S
C583 C582 1.355 . S
C583 C585 1.419 . S
C584 C582 1.415 . S
C584 C589 1.425 . S
C584 C591 1.409 . S
C585 H577 0.930 . S
C585 C583 1.419 . S
C585 C586 1.362 . S
C586 H578 0.930 1_455 S
C586 C585 1.362 . S
C586 C589 1.409 . S
C587 H579 0.930 . S
C587 C588 1.355 . S
C587 C589 1.415 1_655 S
C588 C587 1.355 . S
C588 C590 1.419 1_655 S
C589 C584 1.425 . S
C589 C586 1.409 . S
C589 C587 1.415 1_455 S
C590 H580 0.930 . S
C590 C588 1.419 1_455 S
C590 C591 1.362 . S
C591 H581 0.930 . S
C591 C584 1.409 . S
C591 C590 1.362 . S
C279 C20 1.667 . S
C284 C156 1.681 . S
C295 C190 1.675 . S
C300 C54 1.699 . S
C311 C88 1.697 . S
C316 C224 1.713 . S
C327 C258 1.699 . S
C332 C122 1.713 . S
C343 C172 1.266 . S
C348 C2 1.338 . S
C359 C206 1.340 . S
C364 C36 1.277 . S
C375 C70 1.263 . S
C380 C240 1.336 . S
C391 C138 1.302 . S
C396 C104 1.336 . S
C407 C135 1.403 . S
C412 C237 1.347 . S
C423 C33 1.347 . S
C428 C271 1.404 . S
C439 C67 1.370 . S
C444 C169 1.387 . S
C455 C101 1.403 . S
C460 C203 1.347 . S
C471 C5 0.573 . S
C476 C73 0.554 . S
C487 C39 0.447 . S
C492 C107 0.414 . S
C503 C209 0.413 . S
C508 C141 0.427 . S
C519 C243 0.563 . S
C524 C175 0.571 . S
C535 C9 1.283 . S
C540 C77 1.282 1_565 S
C551 C111 1.393 . S
C556 C43 1.392 1_655 S
C567 C145 1.400 1_565 S
C572 C213 1.403 . S
C583 C179 1.299 . S
C588 C247 1.300 1_655 S
