# Generated by pormake.
# Topology yfy, (5)-cn, num edge types: 1
# Building blocks:
#     Node 0, Type 0, BuildingBlock: XOMCOT_clean_sbu_0, # of connection points: 5
#     Node 1, Type 0, BuildingBlock: XOMCOT_clean_sbu_0, # of connection points: 5
#     Node 2, Type 0, BuildingBlock: XOMCOT_clean_sbu_0, # of connection points: 5
#     Node 3, Type 0, BuildingBlock: XOMCOT_clean_sbu_0, # of connection points: 5
#     Node 4, Type 0, BuildingBlock: XOMCOT_clean_sbu_0, # of connection points: 5
#     Node 5, Type 0, BuildingBlock: XOMCOT_clean_sbu_0, # of connection points: 5
#     Node 6, Type 0, BuildingBlock: XOMCOT_clean_sbu_0, # of connection points: 5
#     Node 7, Type 0, BuildingBlock: XOMCOT_clean_sbu_0, # of connection points: 5
#     Node 8, Type 0, BuildingBlock: XOMCOT_clean_sbu_0, # of connection points: 5
#     Node 9, Type 0, BuildingBlock: XOMCOT_clean_sbu_0, # of connection points: 5
#     Node 10, Type 0, BuildingBlock: XOMCOT_clean_sbu_0, # of connection points: 5
#     Node 11, Type 0, BuildingBlock: XOMCOT_clean_sbu_0, # of connection points: 5
#     Node 12, Type 0, BuildingBlock: XOMCOT_clean_sbu_0, # of connection points: 5
#     Node 13, Type 0, BuildingBlock: XOMCOT_clean_sbu_0, # of connection points: 5
#     Node 14, Type 0, BuildingBlock: XOMCOT_clean_sbu_0, # of connection points: 5
#     Node 15, Type 0, BuildingBlock: XOMCOT_clean_sbu_0, # of connection points: 5
#     Edge 16, Type (0, 0), BuildingBlock: XUDNAN_clean_linker_2, # of connection points: 2
#     Edge 17, Type (0, 0), BuildingBlock: XUDNAN_clean_linker_2, # of connection points: 2
#     Edge 18, Type (0, 0), BuildingBlock: XUDNAN_clean_linker_2, # of connection points: 2
#     Edge 19, Type (0, 0), BuildingBlock: XUDNAN_clean_linker_2, # of connection points: 2
#     Edge 20, Type (0, 0), BuildingBlock: XUDNAN_clean_linker_2, # of connection points: 2
#     Edge 21, Type (0, 0), BuildingBlock: XUDNAN_clean_linker_2, # of connection points: 2
#     Edge 22, Type (0, 0), BuildingBlock: XUDNAN_clean_linker_2, # of connection points: 2
#     Edge 23, Type (0, 0), BuildingBlock: XUDNAN_clean_linker_2, # of connection points: 2
#     Edge 24, Type (0, 0), BuildingBlock: XUDNAN_clean_linker_2, # of connection points: 2
#     Edge 25, Type (0, 0), BuildingBlock: XUDNAN_clean_linker_2, # of connection points: 2
#     Edge 26, Type (0, 0), BuildingBlock: XUDNAN_clean_linker_2, # of connection points: 2
#     Edge 27, Type (0, 0), BuildingBlock: XUDNAN_clean_linker_2, # of connection points: 2
#     Edge 28, Type (0, 0), BuildingBlock: XUDNAN_clean_linker_2, # of connection points: 2
#     Edge 29, Type (0, 0), BuildingBlock: XUDNAN_clean_linker_2, # of connection points: 2
#     Edge 30, Type (0, 0), BuildingBlock: XUDNAN_clean_linker_2, # of connection points: 2
#     Edge 31, Type (0, 0), BuildingBlock: XUDNAN_clean_linker_2, # of connection points: 2
#     Edge 32, Type (0, 0), BuildingBlock: XUDNAN_clean_linker_2, # of connection points: 2
#     Edge 33, Type (0, 0), BuildingBlock: XUDNAN_clean_linker_2, # of connection points: 2
#     Edge 34, Type (0, 0), BuildingBlock: XUDNAN_clean_linker_2, # of connection points: 2
#     Edge 35, Type (0, 0), BuildingBlock: XUDNAN_clean_linker_2, # of connection points: 2
#     Edge 36, Type (0, 0), BuildingBlock: XUDNAN_clean_linker_2, # of connection points: 2
#     Edge 37, Type (0, 0), BuildingBlock: XUDNAN_clean_linker_2, # of connection points: 2
#     Edge 38, Type (0, 0), BuildingBlock: XUDNAN_clean_linker_2, # of connection points: 2
#     Edge 39, Type (0, 0), BuildingBlock: XUDNAN_clean_linker_2, # of connection points: 2
#     Edge 40, Type (0, 0), BuildingBlock: XUDNAN_clean_linker_2, # of connection points: 2
#     Edge 41, Type (0, 0), BuildingBlock: XUDNAN_clean_linker_2, # of connection points: 2
#     Edge 42, Type (0, 0), BuildingBlock: XUDNAN_clean_linker_2, # of connection points: 2
#     Edge 43, Type (0, 0), BuildingBlock: XUDNAN_clean_linker_2, # of connection points: 2
#     Edge 44, Type (0, 0), BuildingBlock: XUDNAN_clean_linker_2, # of connection points: 2
#     Edge 45, Type (0, 0), BuildingBlock: XUDNAN_clean_linker_2, # of connection points: 2
#     Edge 46, Type (0, 0), BuildingBlock: XUDNAN_clean_linker_2, # of connection points: 2
#     Edge 47, Type (0, 0), BuildingBlock: XUDNAN_clean_linker_2, # of connection points: 2
#     Edge 48, Type (0, 0), BuildingBlock: XUDNAN_clean_linker_2, # of connection points: 2
#     Edge 49, Type (0, 0), BuildingBlock: XUDNAN_clean_linker_2, # of connection points: 2
#     Edge 50, Type (0, 0), BuildingBlock: XUDNAN_clean_linker_2, # of connection points: 2
#     Edge 51, Type (0, 0), BuildingBlock: XUDNAN_clean_linker_2, # of connection points: 2
#     Edge 52, Type (0, 0), BuildingBlock: XUDNAN_clean_linker_2, # of connection points: 2
#     Edge 53, Type (0, 0), BuildingBlock: XUDNAN_clean_linker_2, # of connection points: 2
#     Edge 54, Type (0, 0), BuildingBlock: XUDNAN_clean_linker_2, # of connection points: 2
#     Edge 55, Type (0, 0), BuildingBlock: XUDNAN_clean_linker_2, # of connection points: 2
# Relax obj value: 0.247
# Max RMSD: 0.242
# Mean RMSD: 0.242
data_MOF--net-yfy--node1-XOMCOT_clean_sbu_0--edge1-XUDNAN_clean_linker_2
_symmetry_space_group_name_H-M    P1
_symmetry_Int_Tables_number       1
_symmetry_cell_setting            triclinic
loop_
_symmetry_equiv_pos_as_xyz
'x, y, z'
_cell_length_a     43.775454
_cell_length_b     43.836741
_cell_length_c     49.579679
_cell_angle_alpha  90.109086
_cell_angle_beta   90.066943
_cell_angle_gamma 90.001845
loop_
_atom_site_label
_atom_site_type_symbol
_atom_site_fract_x
_atom_site_fract_y
_atom_site_fract_z
_atom_type_partial_charge
Co0 Co 0.04122 0.30146 0.31887 0.0
C1 C 0.99751 0.24997 0.30696 0.0
C2 C 0.97537 0.29113 0.31998 0.0
C3 C 0.95343 0.26927 0.31575 0.0
N4 N 1.00309 0.27912 0.31474 0.0
N5 N 0.96732 0.24344 0.30758 0.0
H6 H 0.01492 0.23358 0.3016 0.0
H7 H 0.97139 0.31425 0.3268 0.0
C8 C 0.02392 0.36402 0.29334 0.0
O9 O 0.04852 0.37858 0.30129 0.0
N10 N 0.07935 0.32357 0.32315 0.0
C11 C 0.09589 0.32394 0.34602 0.0
C12 C 0.12238 0.33976 0.34159 0.0
C13 C 0.09681 0.33805 0.30465 0.0
N14 N 0.12294 0.34923 0.31565 0.0
C15 C 0.02135 0.2948 0.37276 0.0
C16 C 0.02919 0.35479 0.38854 0.0
C17 C 0.02621 0.33221 0.40834 0.0
C18 C 0.02078 0.30212 0.40012 0.0
C19 C 0.02978 0.34642 0.36127 0.0
N20 N 0.02741 0.3165 0.35379 0.0
H21 H 0.01925 0.27113 0.36691 0.0
H22 H 0.03504 0.36368 0.34671 0.0
H23 H 0.08927 0.31306 0.36469 0.0
H24 H 0.09016 0.34072 0.28378 0.0
O25 O 0.06149 0.26582 0.33212 0.0
O26 O 0.05953 0.27891 0.28893 0.0
O27 O 0.02008 0.33573 0.29868 0.0
C28 C 0.06921 0.26002 0.30745 0.0
H29 H 0.92907 0.27211 0.31853 0.0
H30 H 0.13987 0.34362 0.3566 0.0
H31 H 0.03347 0.37832 0.39408 0.0
H32 H 0.01777 0.28409 0.41478 0.0
Co33 Co 0.79659 0.0331 0.31952 0.0
C34 C 0.85157 0.99288 0.31242 0.0
C35 C 0.81531 0.97121 0.33435 0.0
C36 C 0.83912 0.95097 0.33211 0.0
N37 N 0.82321 0.99775 0.3225 0.0
N38 N 0.86177 0.96456 0.31826 0.0
H39 H 0.86464 0.0095 0.3012 0.0
H40 H 0.79352 0.96671 0.34379 0.0
C41 C 0.73801 1.0069 0.2939 0.0
O42 O 0.72222 0.03156 0.29935 0.0
N43 N 0.77041 0.06858 0.31617 0.0
C44 C 0.76236 0.08819 0.33593 0.0
C45 C 0.74452 0.11088 0.32494 0.0
C46 C 0.75889 0.08061 0.29326 0.0
N47 N 0.74249 0.10602 0.29819 0.0
C48 C 0.80095 0.02545 0.37599 0.0
C49 C 0.73939 0.02444 0.38796 0.0
C50 C 0.76046 0.02755 0.40916 0.0
C51 C 0.79166 0.02698 0.40283 0.0
C52 C 0.74972 0.0229 0.36123 0.0
N53 N 0.78019 0.02464 0.35543 0.0
H54 H 0.8251 0.02656 0.37162 0.0
H55 H 0.73297 0.02231 0.34553 0.0
H56 H 0.76854 0.08592 0.35695 0.0
H57 H 0.76088 0.06994 0.27362 0.0
O58 O 0.82827 0.06005 0.33129 0.0
O59 O 0.81999 0.04801 0.28849 0.0
O60 O 0.7662 1.00481 0.30073 0.0
C61 C 0.83526 0.06409 0.3062 0.0
H62 H 0.83961 0.9278 0.33963 0.0
H63 H 0.73274 0.12875 0.33587 0.0
H64 H 0.71506 0.02428 0.39187 0.0
H65 H 0.80894 0.02957 0.41831 0.0
Co66 Co 0.06736 0.79024 0.3239 0.0
C67 C 0.11259 0.83929 0.30999 0.0
C68 C 0.13342 0.79886 0.32606 0.0
C69 C 0.156 0.81981 0.32095 0.0
N70 N 0.10614 0.81111 0.31956 0.0
N71 N 0.1429 0.84511 0.31081 0.0
H72 H 0.09568 0.85551 0.30312 0.0
H73 H 0.13666 0.77622 0.33423 0.0
C74 C 0.07931 0.72616 0.3009 0.0
O75 O 0.05327 0.7157 0.3101 0.0
N76 N 0.02843 0.76968 0.32818 0.0
C77 C 0.01259 0.7659 0.35122 0.0
C78 C 0.98512 0.75224 0.34524 0.0
C79 C 1.00963 0.75987 0.30838 0.0
N80 N 0.98335 0.74821 0.31828 0.0
C81 C 0.08573 0.79859 0.37803 0.0
C82 C 0.07937 0.73892 0.39493 0.0
C83 C 0.0811 0.76219 0.4143 0.0
C84 C 0.08592 0.79214 0.40553 0.0
C85 C 0.07917 0.74641 0.36749 0.0
N86 N 0.08049 0.77619 0.35942 0.0
H87 H 0.08759 0.8221 0.37172 0.0
H88 H 0.07526 0.72841 0.3533 0.0
H89 H 0.02025 0.7728 0.37105 0.0
H90 H 0.01546 0.76083 0.2872 0.0
O91 O 0.0477 0.82674 0.33601 0.0
O92 O 0.04993 0.81244 0.29323 0.0
O93 O 0.08703 0.75405 0.30468 0.0
C94 C 0.03954 0.83159 0.31128 0.0
H95 H 0.18024 0.81672 0.32437 0.0
H96 H 0.96812 0.74526 0.3598 0.0
H97 H 0.07581 0.71543 0.40089 0.0
H98 H 0.08821 0.8107 0.41985 0.0
Co99 Co 0.31004 0.05884 0.313 0.0
C100 C 0.25628 0.10236 0.31218 0.0
C101 C 0.28383 0.10352 0.27656 0.0
C102 C 0.25951 0.12273 0.27283 0.0
N103 N 0.28252 0.0913 0.30151 0.0
N104 N 0.24211 0.12198 0.29516 0.0
H105 H 0.24693 0.09551 0.33132 0.0
H106 H 0.30083 0.09789 0.26155 0.0
C107 C 0.35002 0.11001 0.29744 0.0
O108 O 0.33196 0.12659 0.31274 0.0
N109 N 0.33698 0.02577 0.3227 0.0
C110 C 0.33584 1.00917 0.34549 0.0
C111 C 0.35581 0.98511 0.34309 0.0
C112 C 0.35733 0.01154 0.30664 0.0
N113 N 0.3693 0.98649 0.31861 0.0
C114 C 0.29678 0.07753 0.36719 0.0
C115 C 0.35704 0.08378 0.38284 0.0
C116 C 0.33456 0.08137 0.40285 0.0
C117 C 0.30395 0.07962 0.39462 0.0
C118 C 0.34895 0.08135 0.35566 0.0
N119 N 0.31912 0.07752 0.34797 0.0
H120 H 0.27354 0.0723 0.3619 0.0
H121 H 0.3672 0.07924 0.34117 0.0
H122 H 0.32061 0.01352 0.36222 0.0
H123 H 0.36249 0.01898 0.28637 0.0
O124 O 0.27606 0.03447 0.32428 0.0
O125 O 0.29488 0.03444 0.28278 0.0
O126 O 0.34534 0.08123 0.29513 0.0
C127 C 0.27521 0.0235 0.30002 0.0
H128 H 0.25417 0.13501 0.2545 0.0
H129 H 0.35892 0.9672 0.35781 0.0
H130 H 0.38099 0.08535 0.38814 0.0
H131 H 0.28576 0.07697 0.40921 0.0
Co132 Co 0.03522 0.79986 0.69352 0.0
C133 C 0.99572 0.85495 0.7044 0.0
C134 C 0.97066 0.8155 0.69119 0.0
C135 C 0.95047 0.83912 0.69455 0.0
N136 N 0.99911 0.82533 0.69703 0.0
N137 N 0.96615 0.86381 0.70289 0.0
H138 H 0.01429 0.86997 0.70998 0.0
H139 H 0.96502 0.7927 0.68447 0.0
C140 C 0.01466 0.73928 0.71998 0.0
O141 O 0.03862 0.72401 0.71166 0.0
N142 N 0.07149 0.77469 0.68944 0.0
C143 C 0.08654 0.77071 0.66599 0.0
C144 C 0.11137 0.75236 0.67038 0.0
C145 C 0.08865 0.76022 0.7082 0.0
N146 N 0.11247 0.74531 0.69682 0.0
C147 C 0.01856 0.80662 0.63871 0.0
C148 C 0.01774 0.74544 0.62548 0.0
C149 C 0.02031 0.76697 0.60466 0.0
C150 C 0.01896 0.798 0.61162 0.0
C151 C 0.01782 0.75509 0.65238 0.0
N152 N 0.02022 0.78533 0.6587 0.0
H153 H 0.01973 0.83062 0.64363 0.0
H154 H 0.01864 0.73795 0.6677 0.0
H155 H 0.0799 0.78044 0.64685 0.0
H156 H 0.0829 0.75929 0.72942 0.0
O157 O 0.05892 0.83317 0.67999 0.0
O158 O 0.0553 0.82138 0.7233 0.0
O159 O 0.01143 0.7676 0.71429 0.0
C160 C 0.0676 0.83835 0.70456 0.0
H161 H 0.92607 0.83835 0.69099 0.0
H162 H 0.12723 0.74448 0.65516 0.0
H163 H 0.01758 0.72122 0.62116 0.0
H164 H 0.02076 0.8157 0.59652 0.0
Co165 Co 0.30922 0.04117 0.68994 0.0
C166 C 0.25658 0.99803 0.69783 0.0
C167 C 0.29269 0.97902 0.6739 0.0
C168 C 0.27013 0.95746 0.67655 0.0
N169 N 0.2841 1.0047 0.68685 0.0
N170 N 0.24746 0.9694 0.6916 0.0
H171 H 0.24338 0.01354 0.71008 0.0
H172 H 0.31416 0.976 0.66346 0.0
C173 C 0.37088 0.01622 0.7103 0.0
O174 O 0.38488 0.04242 0.70714 0.0
N175 N 0.33419 0.07762 0.69333 0.0
C176 C 0.34012 0.09858 0.67415 0.0
C177 C 0.35558 0.12267 0.68574 0.0
C178 C 0.34487 0.08993 0.71647 0.0
N179 N 0.35861 0.11715 0.71236 0.0
C180 C 0.29922 0.03647 0.6337 0.0
C181 C 0.35943 0.03767 0.61712 0.0
C182 C 0.33621 0.03974 0.5976 0.0
C183 C 0.30579 0.03814 0.60626 0.0
C184 C 0.35181 0.03573 0.64452 0.0
N185 N 0.32197 0.03605 0.65253 0.0
H186 H 0.27558 0.0364 0.63997 0.0
H187 H 0.36996 0.0359 0.65912 0.0
H188 H 0.33288 0.09704 0.65334 0.0
H189 H 0.34294 0.07881 0.73585 0.0
O190 O 0.27486 0.06728 0.683 0.0
O191 O 0.28917 0.05203 0.72378 0.0
O192 O 0.34265 0.01317 0.70404 0.0
C193 C 0.27078 0.0683 0.70886 0.0
H194 H 0.27063 0.9345 0.66847 0.0
H195 H 0.36313 0.14308 0.67547 0.0
H196 H 0.38327 0.03896 0.61144 0.0
H197 H 0.28706 0.03874 0.59198 0.0
Co198 Co 0.07041 0.30504 0.69006 0.0
C199 C 0.11172 0.25282 0.70508 0.0
C200 C 0.13542 0.2906 0.68742 0.0
C201 C 0.15632 0.26825 0.69331 0.0
N202 N 0.10737 0.28097 0.69455 0.0
N203 N 0.14153 0.24439 0.70449 0.0
H204 H 0.09366 0.23892 0.71326 0.0
H205 H 0.14038 0.31246 0.67833 0.0
C206 C 0.09015 0.36727 0.71473 0.0
O207 O 0.06554 0.38209 0.70727 0.0
N208 N 0.03339 0.32882 0.68491 0.0
C209 C 0.01757 0.32939 0.66162 0.0
C210 C 0.99125 0.34569 0.6653 0.0
C211 C 0.01556 0.34373 0.70291 0.0
N212 N 0.99 0.35526 0.69118 0.0
C213 C 0.08619 0.29552 0.63525 0.0
C214 C 0.08578 0.3561 0.62006 0.0
C215 C 0.08357 0.3336 0.59993 0.0
C216 C 0.08543 0.30291 0.60789 0.0
C217 C 0.08598 0.34769 0.64725 0.0
N218 N 0.08442 0.3177 0.65452 0.0
H219 H 0.08546 0.27176 0.641 0.0
H220 H 0.08467 0.36544 0.66211 0.0
H221 H 0.0243 0.31798 0.64321 0.0
H222 H 0.02142 0.34627 0.72399 0.0
O223 O 0.04765 0.26964 0.67883 0.0
O224 O 0.05156 0.28562 0.72122 0.0
O225 O 0.09365 0.33904 0.7089 0.0
C226 C 0.04008 0.26628 0.70391 0.0
H227 H 0.18051 0.26944 0.68904 0.0
H228 H 0.97417 0.34955 0.64992 0.0
H229 H 0.08549 0.38011 0.615 0.0
H230 H 0.08386 0.28452 0.59337 0.0
Co231 Co 0.79344 0.07294 0.69039 0.0
C232 C 0.84932 0.112 0.69664 0.0
C233 C 0.81054 0.13685 0.68198 0.0
C234 C 0.83445 0.15689 0.68526 0.0
N235 N 0.81981 0.10864 0.68899 0.0
N236 N 0.85884 0.14129 0.69456 0.0
H237 H 0.86339 0.0937 0.70426 0.0
H238 H 0.78775 0.14255 0.6752 0.0
C239 C 0.73435 0.09692 0.71667 0.0
O240 O 0.71921 0.07201 0.71067 0.0
N241 N 0.76741 0.03717 0.69248 0.0
C242 C 0.75771 0.01873 0.67247 0.0
C243 C 0.74109 0.99517 0.68361 0.0
C244 C 0.7581 0.02365 0.71544 0.0
N245 N 0.74107 0.99841 0.71074 0.0
C246 C 0.79863 0.08484 0.63483 0.0
C247 C 0.73743 0.08263 0.62135 0.0
C248 C 0.75935 0.0812 0.60074 0.0
C249 C 0.7902 0.08389 0.60778 0.0
C250 C 0.74692 0.08376 0.6484 0.0
N251 N 0.77731 0.08324 0.65483 0.0
H252 H 0.82269 0.0849 0.63976 0.0
H253 H 0.72981 0.08249 0.66381 0.0
H254 H 0.76252 0.02191 0.65128 0.0
H255 H 0.76336 0.03285 0.73512 0.0
O256 O 0.82543 0.04678 0.67775 0.0
O257 O 0.81705 0.05676 0.72088 0.0
O258 O 0.76251 0.09991 0.70998 0.0
C259 C 0.83256 0.04167 0.70268 0.0
H260 H 0.83387 0.18107 0.68094 0.0
H261 H 0.72975 0.97731 0.67236 0.0
H262 H 0.71331 0.0808 0.61676 0.0
H263 H 0.80789 0.08381 0.59251 0.0
Co264 Co 0.53422 0.80713 0.81615 0.0
C265 C 0.49467 0.75216 0.80502 0.0
C266 C 0.46936 0.79275 0.81457 0.0
C267 C 0.44906 0.76921 0.81127 0.0
N268 N 0.498 0.7822 0.8109 0.0
N269 N 0.46492 0.74381 0.80522 0.0
H270 H 0.51336 0.73647 0.80174 0.0
H271 H 0.46365 0.81593 0.82015 0.0
C272 C 0.51489 0.8687 0.79032 0.0
O273 O 0.53848 0.88389 0.7996 0.0
N274 N 0.57052 0.83177 0.82184 0.0
C275 C 0.58524 0.83443 0.84562 0.0
C276 C 0.61055 0.8524 0.84218 0.0
C277 C 0.58824 0.8467 0.80384 0.0
N278 N 0.61223 0.86055 0.81601 0.0
C279 C 0.51335 0.7987 0.86952 0.0
C280 C 0.51556 0.85911 0.8855 0.0
C281 C 0.51453 0.83628 0.90523 0.0
C282 C 0.51174 0.80587 0.89688 0.0
C283 C 0.51722 0.85091 0.85822 0.0
N284 N 0.51793 0.8209 0.85069 0.0
H285 H 0.51349 0.77496 0.86362 0.0
H286 H 0.52096 0.86865 0.84376 0.0
H287 H 0.57808 0.82393 0.86429 0.0
H288 H 0.58292 0.84846 0.78257 0.0
O289 O 0.55699 0.77317 0.82982 0.0
O290 O 0.55525 0.7861 0.78668 0.0
O291 O 0.51163 0.84021 0.79529 0.0
C292 C 0.56658 0.76848 0.80544 0.0
H293 H 0.4245 0.77045 0.81362 0.0
H294 H 0.62644 0.85906 0.85785 0.0
H295 H 0.51768 0.8829 0.89112 0.0
H296 H 0.51021 0.78758 0.91148 0.0
Co297 Co 0.29269 0.53546 0.8275 0.0
C298 C 0.34753 0.49522 0.81993 0.0
C299 C 0.31083 0.47283 0.84054 0.0
C300 C 0.33419 0.45227 0.83703 0.0
N301 N 0.3192 0.49992 0.83009 0.0
N302 N 0.35731 0.46623 0.82393 0.0
H303 H 0.36038 0.51227 0.8091 0.0
H304 H 0.28893 0.46813 0.8497 0.0
C305 C 0.23378 0.51053 0.80174 0.0
O306 O 0.21872 0.5357 0.807 0.0
N307 N 0.26647 0.57103 0.82442 0.0
C308 C 0.25575 0.58933 0.84412 0.0
C309 C 0.23878 0.61236 0.83253 0.0
C310 C 0.25733 0.58415 0.80119 0.0
N311 N 0.23951 0.60892 0.80544 0.0
C312 C 0.2978 0.52757 0.88372 0.0
C313 C 0.2365 0.52474 0.89643 0.0
C314 C 0.25787 0.52808 0.91742 0.0
C315 C 0.28895 0.52849 0.91065 0.0
C316 C 0.24642 0.52397 0.86952 0.0
N317 N 0.27674 0.52667 0.86343 0.0
H318 H 0.32185 0.52917 0.87907 0.0
H319 H 0.22947 0.52314 0.85391 0.0
H320 H 0.25991 0.58632 0.86545 0.0
H321 H 0.26313 0.575 0.7816 0.0
O322 O 0.32472 0.56227 0.83901 0.0
O323 O 0.3159 0.55026 0.79633 0.0
O324 O 0.26182 0.50758 0.80886 0.0
C325 C 0.33163 0.56612 0.81387 0.0
H326 H 0.33394 0.42879 0.84369 0.0
H327 H 0.22641 0.62983 0.8434 0.0
H328 H 0.21225 0.52378 0.90064 0.0
H329 H 0.30649 0.53134 0.92585 0.0
Co330 Co 0.56764 0.30198 0.82529 0.0
C331 C 0.60881 0.35456 0.81093 0.0
C332 C 0.63239 0.31707 0.82925 0.0
C333 C 0.65328 0.33948 0.82354 0.0
N334 N 0.60443 0.32646 0.82154 0.0
N335 N 0.63856 0.36313 0.81193 0.0
H336 H 0.59083 0.36831 0.8024 0.0
H337 H 0.63729 0.29533 0.83859 0.0
C338 C 0.58935 0.23924 0.80306 0.0
O339 O 0.56466 0.22433 0.81014 0.0
N340 N 0.53077 0.27779 0.82954 0.0
C341 C 0.51369 0.2778 0.85211 0.0
C342 C 0.4877 0.26119 0.84762 0.0
C343 C 0.51404 0.26223 0.81111 0.0
N344 N 0.48796 0.25088 0.82194 0.0
C345 C 0.58293 0.31382 0.87989 0.0
C346 C 0.58073 0.25414 0.89768 0.0
C347 C 0.58051 0.27782 0.91676 0.0
C348 C 0.583 0.30792 0.90754 0.0
C349 C 0.58065 0.26106 0.87013 0.0
N350 N 0.5803 0.29067 0.8616 0.0
H351 H 0.58291 0.33725 0.87314 0.0
H352 H 0.5781 0.24265 0.856 0.0
H353 H 0.51934 0.28985 0.8705 0.0
H354 H 0.52104 0.25912 0.79037 0.0
O355 O 0.54377 0.33718 0.83497 0.0
O356 O 0.54992 0.32031 0.79307 0.0
O357 O 0.59219 0.26774 0.80812 0.0
C358 C 0.53719 0.33974 0.80958 0.0
H359 H 0.6774 0.33847 0.82819 0.0
H360 H 0.46973 0.25767 0.86223 0.0
H361 H 0.57874 0.23055 0.90388 0.0
H362 H 0.58363 0.32689 0.92156 0.0
Co363 Co 0.809 0.5662 0.81953 0.0
C364 C 0.75623 0.60915 0.81176 0.0
C365 C 0.7913 0.62771 0.83721 0.0
C366 C 0.76834 0.64893 0.83484 0.0
N367 N 0.78355 0.60243 0.82321 0.0
N368 N 0.74638 0.63728 0.81882 0.0
H369 H 0.74368 0.59403 0.79859 0.0
H370 H 0.81243 0.63076 0.8482 0.0
C371 C 0.86881 0.59106 0.79551 0.0
O372 O 0.88291 0.56483 0.79807 0.0
N373 N 0.83405 0.52982 0.81581 0.0
C374 C 0.84129 0.50983 0.83545 0.0
C375 C 0.85647 0.48546 0.82418 0.0
C376 C 0.84361 0.51653 0.79271 0.0
N377 N 0.85811 0.48975 0.79729 0.0
C378 C 0.80356 0.57029 0.8764 0.0
C379 C 0.86512 0.57239 0.88874 0.0
C380 C 0.84399 0.56821 0.90964 0.0
C381 C 0.8128 0.56821 0.90324 0.0
C382 C 0.85487 0.57435 0.86204 0.0
N383 N 0.82445 0.57229 0.85607 0.0
H384 H 0.77945 0.56914 0.87179 0.0
H385 H 0.87166 0.57548 0.84634 0.0
H386 H 0.83523 0.51224 0.85648 0.0
H387 H 0.84055 0.52674 0.77305 0.0
O388 O 0.7754 0.5399 0.82857 0.0
O389 O 0.78696 0.55433 0.78691 0.0
O390 O 0.8411 0.59425 0.80331 0.0
C391 C 0.76966 0.53831 0.80297 0.0
H392 H 0.76809 0.6715 0.84376 0.0
H393 H 0.86494 0.46575 0.83497 0.0
H394 H 0.88944 0.57243 0.89279 0.0
H395 H 0.79563 0.56581 0.91881 0.0
Co396 Co 0.53761 0.30015 0.19886 0.0
C397 C 0.49399 0.35402 0.19911 0.0
C398 C 0.4901 0.3246 0.23332 0.0
C399 C 0.47081 0.34879 0.23706 0.0
N400 N 0.50407 0.32707 0.20916 0.0
N401 N 0.47319 0.36739 0.21562 0.0
H402 H 0.50253 0.36449 0.18097 0.0
H403 H 0.49478 0.30704 0.24804 0.0
C404 C 0.48702 0.25815 0.21254 0.0
O405 O 0.47019 0.27533 0.1967 0.0
N406 N 0.57148 0.27342 0.19075 0.0
C407 C 0.59311 0.27675 0.17162 0.0
C408 C 0.61505 0.25449 0.17531 0.0
C409 C 0.58032 0.2493 0.2056 0.0
N410 N 0.60672 0.23728 0.19656 0.0
C411 C 0.52048 0.31292 0.1444 0.0
C412 C 0.51926 0.2527 0.12799 0.0
C413 C 0.52203 0.27552 0.10833 0.0
C414 C 0.52107 0.30602 0.11688 0.0
C415 C 0.51906 0.26056 0.15533 0.0
N416 N 0.5207 0.2904 0.16339 0.0
H417 H 0.52364 0.33635 0.15015 0.0
H418 H 0.52101 0.24233 0.16983 0.0
H419 H 0.59335 0.29458 0.15657 0.0
H420 H 0.56844 0.24148 0.22343 0.0
O421 O 0.56159 0.33431 0.18782 0.0
O422 O 0.56092 0.31623 0.22951 0.0
O423 O 0.51527 0.26459 0.21618 0.0
C424 C 0.57216 0.33564 0.21217 0.0
H425 H 0.45744 0.35326 0.25499 0.0
H426 H 0.63561 0.25134 0.16351 0.0
H427 H 0.51949 0.22879 0.12246 0.0
H428 H 0.52372 0.32456 0.10269 0.0
Co429 Co 0.81736 0.53162 0.18894 0.0
C430 C 0.76385 0.49029 0.1989 0.0
C431 C 0.8014 0.4677 0.17947 0.0
C432 C 0.77862 0.44673 0.18365 0.0
N433 N 0.79207 0.49518 0.18855 0.0
N434 N 0.75512 0.4609 0.19591 0.0
H435 H 0.74992 0.50761 0.20839 0.0
H436 H 0.82357 0.46303 0.17079 0.0
C437 C 0.87603 0.51053 0.21745 0.0
O438 O 0.88999 0.53654 0.21316 0.0
N439 N 0.84244 0.56814 0.18982 0.0
C440 C 0.85254 0.58489 0.16881 0.0
C441 C 0.86659 0.61079 0.17859 0.0
C442 C 0.84906 0.58491 0.21194 0.0
N443 N 0.86422 0.61069 0.20567 0.0
C444 C 0.81396 0.51768 0.13352 0.0
C445 C 0.8757 0.51793 0.12215 0.0
C446 C 0.85471 0.51813 0.10068 0.0
C447 C 0.82349 0.51679 0.1068 0.0
C448 C 0.8651 0.51861 0.14884 0.0
N449 N 0.83449 0.51995 0.15414 0.0
H450 H 0.78973 0.51834 0.13764 0.0
H451 H 0.88157 0.52057 0.16484 0.0
H452 H 0.84908 0.57937 0.14777 0.0
H453 H 0.8432 0.57815 0.23227 0.0
O454 O 0.78495 0.55611 0.17494 0.0
O455 O 0.79299 0.54878 0.21853 0.0
O456 O 0.84851 0.50634 0.20946 0.0
C457 C 0.77743 0.56249 0.19954 0.0
H458 H 0.7795 0.42269 0.17863 0.0
H459 H 0.87683 0.62879 0.16673 0.0
H460 H 0.90005 0.5186 0.11837 0.0
H461 H 0.80627 0.51723 0.09111 0.0
Co462 Co 0.57103 0.80085 0.18582 0.0
C463 C 0.61437 0.74844 0.19284 0.0
C464 C 0.63375 0.78539 0.17025 0.0
C465 C 0.65544 0.76294 0.17286 0.0
N466 N 0.60775 0.77619 0.18234 0.0
N467 N 0.64327 0.7398 0.18711 0.0
H468 H 0.59865 0.73475 0.20445 0.0
H469 H 0.63694 0.80724 0.16056 0.0
C470 C 0.59483 0.86055 0.21113 0.0
O471 O 0.56902 0.87499 0.20692 0.0
N472 N 0.53434 0.82521 0.18987 0.0
C473 C 0.51387 0.83289 0.17073 0.0
C474 C 0.4901 0.84838 0.18276 0.0
C475 C 0.52198 0.8347 0.21334 0.0
N476 N 0.49535 0.8497 0.20958 0.0
C477 C 0.57754 0.7965 0.12932 0.0
C478 C 0.5751 0.8579 0.11721 0.0
C479 C 0.57246 0.83658 0.09613 0.0
C480 C 0.57479 0.80553 0.10253 0.0
C481 C 0.57781 0.84781 0.14393 0.0
N482 N 0.57777 0.81736 0.14978 0.0
H483 H 0.57781 0.77238 0.13379 0.0
H484 H 0.57785 0.86457 0.15968 0.0
H485 H 0.51579 0.82729 0.14955 0.0
H486 H 0.53305 0.83161 0.23267 0.0
O487 O 0.54574 0.76734 0.17479 0.0
O488 O 0.55827 0.77729 0.2173 0.0
O489 O 0.59815 0.83271 0.20379 0.0
C490 C 0.54328 0.7604 0.20003 0.0
H491 H 0.67866 0.76385 0.16541 0.0
H492 H 0.47033 0.85762 0.17251 0.0
H493 H 0.57394 0.88215 0.11325 0.0
H494 H 0.57259 0.78803 0.08721 0.0
Co495 Co 0.29519 0.56952 0.19794 0.0
C496 C 0.34663 0.61477 0.19356 0.0
C497 C 0.3149 0.62567 0.22481 0.0
C498 C 0.33927 0.64507 0.227 0.0
N499 N 0.31865 0.60712 0.20326 0.0
N500 N 0.35944 0.63818 0.20749 0.0
H501 H 0.3585 0.60205 0.17812 0.0
H502 H 0.29726 0.62344 0.23987 0.0
C503 C 0.24668 0.61413 0.21243 0.0
O504 O 0.25821 0.63167 0.19353 0.0
N505 N 0.27247 0.53184 0.19517 0.0
C506 C 0.27081 0.5114 0.17486 0.0
C507 C 0.25484 0.48612 0.1839 0.0
C508 C 0.25803 0.51878 0.21611 0.0
N509 N 0.24715 0.49083 0.20994 0.0
C510 C 0.29946 0.58807 0.1429 0.0
C511 C 0.23885 0.57759 0.13003 0.0
C512 C 0.2601 0.58116 0.10917 0.0
C513 C 0.29047 0.5877 0.11591 0.0
C514 C 0.24886 0.57794 0.15688 0.0
N515 N 0.27907 0.58224 0.16303 0.0
H516 H 0.32339 0.59035 0.14728 0.0
H517 H 0.23273 0.57209 0.17252 0.0
H518 H 0.28133 0.5142 0.15529 0.0
H519 H 0.25647 0.52926 0.23584 0.0
O520 O 0.33087 0.54938 0.1845 0.0
O521 O 0.31814 0.55149 0.22778 0.0
O522 O 0.25898 0.58822 0.21754 0.0
C523 C 0.33712 0.54214 0.20918 0.0
H524 H 0.34309 0.66106 0.24332 0.0
H525 H 0.25063 0.46533 0.17269 0.0
H526 H 0.21522 0.57218 0.12564 0.0
H527 H 0.30756 0.59077 0.10036 0.0
H528 H 0.06327 0.30089 0.44271 0.0
H529 H 1.00331 0.3795 0.43877 0.0
H530 H 0.01424 0.39071 0.48689 0.0
H531 H 0.04324 0.27674 0.50868 0.0
H532 H 0.08146 0.26523 0.5176 0.0
H533 H 0.06944 0.26427 0.48289 0.0
H534 H 0.11509 0.2989 0.4699 0.0
H535 H 0.12717 0.3001 0.50464 0.0
H536 H 0.12 0.3351 0.48668 0.0
H537 H 0.02946 0.39102 0.53619 0.0
H538 H 0.04745 0.38098 0.58231 0.0
H539 H 0.10037 0.30393 0.55286 0.0
C540 C 0.05227 0.32036 0.45202 0.0
C541 C 0.03214 0.33916 0.43717 0.0
C542 C 0.01874 0.36482 0.44986 0.0
C543 C 0.02484 0.37133 0.47711 0.0
C544 C 0.04475 0.35222 0.49118 0.0
C545 C 0.05838 0.32736 0.47899 0.0
C546 C 0.07868 0.31019 0.4985 0.0
C547 C 0.06753 0.27716 0.50213 0.0
C548 C 0.11222 0.31115 0.48938 0.0
C549 C 0.07387 0.32886 0.52384 0.0
C550 C 0.05431 0.35305 0.51921 0.0
C551 C 0.0452 0.37246 0.53993 0.0
C552 C 0.05588 0.36669 0.56612 0.0
C553 C 0.07573 0.34177 0.57149 0.0
C554 C 0.08518 0.32308 0.54974 0.0
H555 H 0.78684 0.04041 0.56708 0.0
H556 H 0.71273 0.10597 0.57026 0.0
H557 H 0.70114 0.09545 0.52211 0.0
H558 H 0.81382 0.05998 0.50305 0.0
H559 H 0.82349 0.02151 0.49343 0.0
H560 H 0.82369 0.03228 0.52844 0.0
H561 H 0.78581 0.98848 0.53914 0.0
H562 H 0.78543 0.9776 0.50407 0.0
H563 H 0.7501 0.98623 0.52109 0.0
H564 H 0.70119 0.08078 0.47223 0.0
H565 H 0.71294 0.06409 0.42578 0.0
H566 H 0.78618 1.00706 0.45644 0.0
C567 C 0.7681 0.05256 0.55771 0.0
C568 C 0.75084 0.07425 0.57233 0.0
C569 C 0.72618 0.08921 0.55944 0.0
C570 C 0.71947 0.08337 0.53212 0.0
C571 C 0.73738 0.0622 0.51819 0.0
C572 C 0.76106 0.04691 0.53069 0.0
C573 C 0.77788 0.02632 0.5112 0.0
C574 C 0.81171 0.0356 0.5089 0.0
C575 C 0.7746 0.99266 0.51937 0.0
C576 C 0.76059 0.033 0.48547 0.0
C577 C 0.73711 0.0535 0.48987 0.0
C578 C 0.71921 0.06436 0.46868 0.0
C579 C 0.72594 0.05454 0.44233 0.0
C580 C 0.75045 0.03412 0.43733 0.0
C581 C 0.76738 0.02276 0.45943 0.0
H582 H 1.00368 0.7945 0.55668 0.0
H583 H 0.05634 0.71876 0.58879 0.0
H584 H 0.07512 0.7071 0.54319 0.0
H585 H 0.98537 0.76075 0.49082 0.0
H586 H 0.99023 0.79651 0.47347 0.0
H587 H 0.97755 0.79616 0.50803 0.0
H588 H 0.02246 0.8318 0.52112 0.0
H589 H 0.03547 0.83198 0.48671 0.0
H590 H 0.06104 0.82044 0.51332 0.0
H591 H 0.0916 0.70607 0.49422 0.0
H592 H 0.10374 0.71603 0.44618 0.0
H593 H 0.04289 0.79411 0.44725 0.0
C594 C 0.01892 0.77525 0.55422 0.0
C595 C 0.02818 0.75747 0.57656 0.0
C596 C 0.0481 0.73237 0.57211 0.0
C597 C 0.05921 0.72569 0.54623 0.0
C598 C 0.05036 0.74432 0.5249 0.0
C599 C 0.03057 0.76852 0.52862 0.0
C600 C 0.02625 0.78637 0.5028 0.0
C601 C 0.99287 0.78484 0.49322 0.0
C602 C 0.03695 0.81961 0.5062 0.0
C603 C 0.04715 0.76878 0.48411 0.0
C604 C 0.06061 0.74437 0.49708 0.0
C605 C 0.08108 0.72506 0.48384 0.0
C606 C 0.08786 0.73086 0.45661 0.0
C607 C 0.07454 0.75601 0.44313 0.0
C608 C 0.05386 0.77502 0.45716 0.0
H609 H 0.30557 0.0763 0.56162 0.0
H610 H 0.38284 0.01457 0.56762 0.0
H611 H 0.39348 0.02218 0.51914 0.0
H612 H 0.27948 0.05013 0.49807 0.0
H613 H 0.26771 0.08726 0.48648 0.0
H614 H 0.26782 0.07886 0.52199 0.0
H615 H 0.30296 0.12545 0.53068 0.0
H616 H 0.30306 0.13393 0.49514 0.0
H617 H 0.33866 0.12852 0.51279 0.0
H618 H 0.39355 0.03395 0.4694 0.0
H619 H 0.38252 0.04763 0.42228 0.0
H620 H 0.30508 0.10187 0.44873 0.0
C621 C 0.32471 0.06424 0.5528 0.0
C622 C 0.34333 0.04473 0.56854 0.0
C623 C 0.36844 0.02989 0.55615 0.0
C624 C 0.37461 0.03401 0.52859 0.0
C625 C 0.35556 0.05316 0.5137 0.0
C626 C 0.33112 0.06803 0.52539 0.0
C627 C 0.31332 0.0863 0.50474 0.0
C628 C 0.28013 0.07495 0.5027 0.0
C629 C 0.31459 0.12058 0.51123 0.0
C630 C 0.33119 0.0789 0.47943 0.0
C631 C 0.35565 0.06 0.48508 0.0
C632 C 0.37473 0.04908 0.46481 0.0
C633 C 0.36839 0.05726 0.43804 0.0
C634 C 0.3431 0.07621 0.43163 0.0
C635 C 0.32459 0.08742 0.45283 0.0
H636 H 0.55458 0.80789 0.93878 0.0
H637 H 0.48833 0.88135 0.93643 0.0
H638 H 0.49907 0.89275 0.9846 0.0
H639 H 0.53732 0.78095 1.00408 0.0
H640 H 0.57642 0.77228 0.01254 0.0
H641 H 0.5642 0.77128 0.9779 0.0
H642 H 0.60684 0.80978 0.9654 0.0
H643 H 0.61908 0.81106 1.0001 0.0
H644 H 0.60898 0.84582 0.98288 0.0
H645 H 0.515 0.89327 0.03416 0.0
H646 H 0.53389 0.8828 0.08016 0.0
H647 H 0.59188 0.81085 0.04846 0.0
C648 C 0.54217 0.82629 0.94843 0.0
C649 C 0.5203 0.84351 0.93405 0.0
C650 C 0.50509 0.86785 0.94717 0.0
C651 C 0.5111 0.87448 0.97446 0.0
C652 C 0.53274 0.85686 0.98808 0.0
C653 C 0.54813 0.83337 0.97538 0.0
C654 C 0.56988 0.81739 0.9944 0.0
C655 C 0.56143 0.78348 0.99741 0.0
C656 C 0.60317 0.82126 0.98514 0.0
C657 C 0.56381 0.83497 0.0201 0.0
C658 C 0.54248 0.85777 0.0161 0.0
C659 C 0.53205 0.87578 0.03739 0.0
C660 C 0.54315 0.86981 0.06347 0.0
C661 C 0.56451 0.84601 0.06809 0.0
C662 C 0.57544 0.82905 0.04582 0.0
H663 H 0.28622 0.50893 0.96401 0.0
H664 H 0.20866 0.56156 0.9355 0.0
H665 H 0.19782 0.57768 0.98225 0.0
H666 H 0.25494 0.48687 0.03008 0.0
H667 H 0.29138 0.49158 0.04652 0.0
H668 H 0.28976 0.4803 0.01157 0.0
H669 H 0.32427 0.52616 0.999 0.0
H670 H 0.32574 0.53777 0.03379 0.0
H671 H 0.3127 0.56418 0.00844 0.0
H672 H 0.19854 0.59204 0.03221 0.0
H673 H 0.2111 0.60302 0.08013 0.0
H674 H 0.2901 0.54376 0.07427 0.0
C675 C 0.26671 0.52357 0.9675 0.0
C676 C 0.24831 0.53387 0.94588 0.0
C677 C 0.22283 0.5528 0.95163 0.0
C678 C 0.2166 0.5623 0.97817 0.0
C679 C 0.23603 0.55271 0.99878 0.0
C680 C 0.26049 0.53362 0.99369 0.0
C681 C 0.27952 0.52854 0.01878 0.0
C682 C 0.27884 0.49482 0.02723 0.0
C683 C 0.3125 0.53985 0.01475 0.0
C684 C 0.26243 0.54835 0.03867 0.0
C685 C 0.23711 0.56178 0.02699 0.0
C686 C 0.21822 0.58149 0.04156 0.0
C687 C 0.2255 0.58764 0.06869 0.0
C688 C 0.25173 0.57454 0.08073 0.0
C689 C 0.27015 0.55448 0.06547 0.0
H690 H 0.54241 0.30866 0.95108 0.0
H691 H 0.60534 0.23226 0.94799 0.0
H692 H 0.59446 0.22113 0.99596 0.0
H693 H 0.56179 0.33402 0.01741 0.0
H694 H 0.5232 0.34449 0.02607 0.0
H695 H 0.53541 0.34563 0.99143 0.0
H696 H 0.4908 0.30971 0.97818 0.0
H697 H 0.47859 0.30826 0.01285 0.0
H698 H 0.48686 0.27344 0.99489 0.0
H699 H 0.57821 0.21988 0.04478 0.0
H700 H 0.55922 0.22908 0.09075 0.0
H701 H 0.5053 0.30538 0.06144 0.0
C702 C 0.55417 0.28975 0.96053 0.0
C703 C 0.57493 0.27144 0.94581 0.0
C704 C 0.58928 0.24651 0.95882 0.0
C705 C 0.58324 0.24004 0.98604 0.0
C706 C 0.56259 0.25855 0.9999 0.0
C707 C 0.54828 0.28289 0.98756 0.0
C708 C 0.52738 0.29955 0.00699 0.0
C709 C 0.53757 0.33289 0.01069 0.0
C710 C 0.49392 0.29761 0.99767 0.0
C711 C 0.53257 0.28112 0.03238 0.0
C712 C 0.55281 0.25747 0.02783 0.0
C713 C 0.56204 0.23808 0.04849 0.0
C714 C 0.55079 0.24335 0.07457 0.0
C715 C 0.53037 0.2678 0.07991 0.0
C716 C 0.52086 0.28653 0.05824 0.0
H717 H 0.8305 0.49286 0.05462 0.0
H718 H 0.89969 0.55654 0.08235 0.0
H719 H 0.90856 0.57277 0.03536 0.0
H720 H 0.86546 0.47413 0.98813 0.0
H721 H 0.82864 0.47314 0.97184 0.0
H722 H 0.83213 0.46253 0.00681 0.0
H723 H 0.79106 0.50269 0.01933 0.0
H724 H 0.78776 0.51376 0.98455 0.0
H725 H 0.79674 0.54197 0.00984 0.0
H726 H 0.90474 0.5871 0.98588 0.0
H727 H 0.88948 0.5969 0.93854 0.0
H728 H 0.82147 0.52523 0.94414 0.0
C729 C 0.848 0.50976 0.05081 0.0
C730 C 0.86445 0.52331 0.07227 0.0
C731 C 0.88718 0.54533 0.0663 0.0
C732 C 0.89223 0.55489 0.03963 0.0
C733 C 0.8745 0.54211 0.01914 0.0
C734 C 0.85306 0.51976 0.02444 0.0
C735 C 0.83491 0.51168 0.99944 0.0
C736 C 0.84064 0.47839 0.99106 0.0
C737 C 0.8006 0.51791 1.00355 0.0
C738 C 0.84873 0.53369 0.97942 0.0
C739 C 0.87184 0.55077 0.99097 0.0
C740 C 0.88696 0.57354 0.97656 0.0
C741 C 0.87815 0.57896 0.9497 0.0
C742 C 0.85418 0.56197 0.93771 0.0
C743 C 0.83964 0.53886 0.95281 0.0
H744 H 0.12108 0.25596 0.27652 0.0
H745 H 0.06075 0.20405 0.32825 0.0
H746 H 0.09745 0.16136 0.32851 0.0
H747 H 0.15323 0.18933 0.23786 0.0
H748 H 0.19091 0.2059 0.23722 0.0
H749 H 0.1577 0.23021 0.23738 0.0
H750 H 0.17869 0.25794 0.2797 0.0
H751 H 0.21164 0.2334 0.28 0.0
H752 H 0.18768 0.23611 0.30945 0.0
H753 H 0.14305 0.12727 0.3282 0.0
H754 H 0.19335 0.10208 0.32413 0.0
H755 H 0.22503 0.17629 0.2736 0.0
C756 C 0.11515 0.23504 0.28685 0.0
C757 C 0.08791 0.23286 0.30188 0.0
C758 C 0.08137 0.20579 0.31627 0.0
C759 C 0.1021 0.1815 0.31661 0.0
C760 C 0.12939 0.1847 0.30256 0.0
C761 C 0.13588 0.21058 0.28765 0.0
C762 C 0.16803 0.20917 0.27636 0.0
C763 C 0.16742 0.20861 0.24536 0.0
C764 C 0.18765 0.23573 0.28702 0.0
C765 C 0.17866 0.17886 0.28772 0.0
C766 C 0.15599 0.16507 0.30268 0.0
C767 C 0.1609 0.13764 0.31624 0.0
C768 C 0.18964 0.12365 0.31407 0.0
C769 C 0.21309 0.13711 0.29848 0.0
C770 C 0.2074 0.16516 0.28528 0.0
H771 H 0.84327 0.1164 0.33329 0.0
H772 H 0.87659 0.06669 0.26369 0.0
H773 H 0.91556 0.10732 0.25607 0.0
H774 H 0.85139 0.19149 0.30499 0.0
H775 H 0.86187 0.2082 0.33694 0.0
H776 H 0.83727 0.1753 0.33596 0.0
H777 H 0.87458 0.14645 0.36758 0.0
H778 H 0.89944 0.17914 0.36848 0.0
H779 H 0.91412 0.14257 0.35803 0.0
H780 H 0.95331 0.1535 0.25892 0.0
H781 H 0.98128 0.20174 0.26865 0.0
H782 H 0.91996 0.21995 0.33519 0.0
C783 C 0.85874 0.11398 0.31637 0.0
C784 C 0.85725 0.08835 0.2992 0.0
C785 C 0.87745 0.08626 0.27703 0.0
C786 C 0.89967 0.10912 0.2727 0.0
C787 C 0.90083 0.13396 0.2905 0.0
C788 C 0.88042 0.13655 0.31163 0.0
C789 C 0.88546 0.16532 0.32779 0.0
C790 C 0.85733 0.18632 0.32631 0.0
C791 C 0.89391 0.15791 0.3572 0.0
C792 C 0.91222 0.17868 0.31278 0.0
C793 C 0.92113 0.16034 0.29145 0.0
C794 C 0.94621 0.16805 0.27542 0.0
C795 C 0.96207 0.19532 0.28115 0.0
C796 C 0.95251 0.21464 0.30247 0.0
C797 C 0.92742 0.20591 0.31846 0.0
H798 H 0.89828 0.93397 0.35221 0.0
H799 H 0.88995 0.96383 0.26946 0.0
H800 H 0.9369 0.93468 0.25757 0.0
H801 H 0.98193 0.93751 0.35536 0.0
H802 H 0.98417 0.90453 0.37693 0.0
H803 H 0.95121 0.92907 0.37836 0.0
H804 H 0.91605 0.88257 0.36903 0.0
H805 H 0.94887 0.85797 0.36743 0.0
H806 H 0.92258 0.85947 0.33947 0.0
H807 H 0.98237 0.89634 0.25471 0.0
H808 H 0.0236 0.85807 0.26226 0.0
H809 H 1.00225 0.85797 0.34764 0.0
C810 C 0.90667 0.93466 0.33168 0.0
C811 C 0.89071 0.95095 0.3117 0.0
C812 C 0.90218 0.95157 0.28503 0.0
C813 C 0.92867 0.93499 0.27814 0.0
C814 C 0.94361 0.91852 0.29834 0.0
C815 C 0.93319 0.91885 0.32469 0.0
C816 C 0.95274 0.89932 0.34282 0.0
C817 C 0.96845 0.91877 0.36465 0.0
C818 C 0.93394 0.8733 0.35541 0.0
C819 C 0.97552 0.88731 0.32259 0.0
C820 C 0.97002 0.89827 0.29694 0.0
C821 C 0.98719 0.88815 0.27485 0.0
C822 C 0.01049 0.86641 0.27925 0.0
C823 C 0.01652 0.85547 0.30557 0.0
C824 C 0.99881 0.86638 0.32733 0.0
H825 H 0.26427 0.97612 0.33272 0.0
H826 H 0.24026 0.01279 0.25447 0.0
H827 H 0.20231 0.97093 0.24834 0.0
H828 H 0.25923 0.89646 0.31337 0.0
H829 H 0.24479 0.88513 0.34587 0.0
H830 H 0.26967 0.91769 0.34316 0.0
H831 H 0.22899 0.95113 0.36707 0.0
H832 H 0.20383 0.91879 0.36958 0.0
H833 H 0.1909 0.95321 0.35332 0.0
H834 H 0.16375 0.92631 0.2535 0.0
H835 H 0.13396 0.88021 0.26639 0.0
H836 H 0.18704 0.87255 0.33973 0.0
C837 C 0.25113 0.97523 0.31419 0.0
C838 C 0.25484 0.99761 0.2941 0.0
C839 C 0.23767 0.99565 0.26999 0.0
C840 C 0.21603 0.97211 0.26649 0.0
C841 C 0.21249 0.95062 0.28709 0.0
C842 C 0.23013 0.95176 0.31021 0.0
C843 C 0.22286 0.92589 0.32921 0.0
C844 C 0.2508 0.90506 0.33312 0.0
C845 C 0.21093 0.93799 0.35639 0.0
C846 C 0.19795 0.91002 0.31349 0.0
C847 C 0.19187 0.92466 0.28937 0.0
C848 C 0.16867 0.91454 0.27218 0.0
C849 C 0.15175 0.88855 0.27967 0.0
C850 C 0.15852 0.87286 0.30388 0.0
C851 C 0.18178 0.88394 0.32093 0.0
H852 H 0.21559 0.92955 0.66112 0.0
H853 H 0.21596 0.97495 0.73876 0.0
H854 H 0.1693 0.94627 0.75186 0.0
H855 H 0.13423 0.92953 0.65188 0.0
H856 H 0.13402 0.89277 0.63552 0.0
H857 H 0.16709 0.91699 0.63298 0.0
H858 H 0.201 0.87349 0.65198 0.0
H859 H 0.168 0.84919 0.65469 0.0
H860 H 0.19139 0.85646 0.68394 0.0
H861 H 0.12322 0.90902 0.75673 0.0
H862 H 0.08083 0.87157 0.75093 0.0
H863 H 0.11136 0.85404 0.66923 0.0
C864 C 0.20593 0.93341 0.68092 0.0
C865 C 0.21948 0.95424 0.69902 0.0
C866 C 0.20581 0.95913 0.72456 0.0
C867 C 0.17945 0.94282 0.73219 0.0
C868 C 0.16689 0.92204 0.71388 0.0
C869 C 0.17962 0.91771 0.68863 0.0
C870 C 0.16186 0.8947 0.67224 0.0
C871 C 0.1485 0.90939 0.64665 0.0
C872 C 0.18175 0.86682 0.66532 0.0
C873 C 0.1371 0.88657 0.69213 0.0
C874 C 0.14033 0.90213 0.71622 0.0
C875 C 0.12038 0.89701 0.7378 0.0
C876 C 0.09646 0.8757 0.73442 0.0
C877 C 0.09259 0.86033 0.70953 0.0
C878 C 0.11333 0.8659 0.68835 0.0
H879 H 0.20188 0.23248 0.71389 0.0
H880 H 0.11217 0.19014 0.7131 0.0
H881 H 0.13593 0.14042 0.7228 0.0
H882 H 0.23784 0.17565 0.67769 0.0
H883 H 0.2737 0.17828 0.69544 0.0
H884 H 0.24919 0.21106 0.69331 0.0
H885 H 0.24921 0.21534 0.74549 0.0
H886 H 0.27356 0.18226 0.74772 0.0
H887 H 0.23766 0.18303 0.76549 0.0
H888 H 0.17001 0.09409 0.72615 0.0
H889 H 0.21118 0.05589 0.72062 0.0
H890 H 0.27829 0.12826 0.71813 0.0
C891 C 0.18699 0.21298 0.71598 0.0
C892 C 0.15495 0.21562 0.71265 0.0
C893 C 0.13664 0.18915 0.71586 0.0
C894 C 0.14999 0.16066 0.72139 0.0
C895 C 0.18169 0.15889 0.72385 0.0
C896 C 0.19992 0.18443 0.72126 0.0
C897 C 0.23352 0.17613 0.7218 0.0
C898 C 0.24948 0.18584 0.6955 0.0
C899 C 0.24942 0.19002 0.74661 0.0
C900 C 0.2314 0.14178 0.72409 0.0
C901 C 0.20133 0.13224 0.7258 0.0
C902 C 0.19364 0.10133 0.72553 0.0
C903 C 0.21715 0.07975 0.72256 0.0
C904 C 0.24784 0.08925 0.71994 0.0
C905 C 0.25505 0.12053 0.72128 0.0
H906 H 0.87295 0.20003 0.70806 0.0
H907 H 0.91293 0.11066 0.69472 0.0
H908 H 0.96421 0.13223 0.70261 0.0
H909 H 0.92833 0.24132 0.67305 0.0
H910 H 0.92812 0.27371 0.6955 0.0
H911 H 0.89448 0.25047 0.69212 0.0
H912 H 0.89418 0.24157 0.74379 0.0
H913 H 0.92804 0.26465 0.74726 0.0
H914 H 0.92766 0.22617 0.76001 0.0
H915 H 0.01132 0.16459 0.70572 0.0
H916 H 0.05036 0.2053 0.70397 0.0
H917 H 0.98032 0.27346 0.71674 0.0
C918 C 0.8924 0.18487 0.70698 0.0
C919 C 0.88872 0.15352 0.70078 0.0
C920 C 0.91495 0.13459 0.69979 0.0
C921 C 0.94424 0.14667 0.70421 0.0
C922 C 0.94702 0.17772 0.7099 0.0
C923 C 0.92178 0.19654 0.71143 0.0
C924 C 0.9311 0.22949 0.71598 0.0
C925 C 0.91985 0.24993 0.69278 0.0
C926 C 0.91956 0.24115 0.7434 0.0
C927 C 0.96558 0.22643 0.71587 0.0
C928 C 0.9743 0.1963 0.71259 0.0
C929 C 1.00482 0.18811 0.70909 0.0
C930 C 0.02688 0.21132 0.70828 0.0
C931 C 0.01835 0.24222 0.71137 0.0
C932 C 0.98744 0.24981 0.71566 0.0
H933 H 0.92906 0.89364 0.66896 0.0
H934 H 0.97335 0.90049 0.74671 0.0
H935 H 0.94482 0.94856 0.75608 0.0
H936 H 0.9287 0.9756 0.65431 0.0
H937 H 0.89227 0.9734 0.63744 0.0
H938 H 0.91762 0.94104 0.63712 0.0
H939 H 0.87457 0.90739 0.6572 0.0
H940 H 0.84923 0.93968 0.65786 0.0
H941 H 0.85665 0.91867 0.68839 0.0
H942 H 0.90607 0.99392 0.75782 0.0
H943 H 0.86647 0.03372 0.74964 0.0
H944 H 0.8512 0.99647 0.66971 0.0
C945 C 0.93305 0.9056 0.68777 0.0
C946 C 0.95325 0.8936 0.70715 0.0
C947 C 0.95808 0.90967 0.73157 0.0
C948 C 0.94184 0.93679 0.73706 0.0
C949 C 0.92137 0.94766 0.71765 0.0
C950 C 0.91752 0.93271 0.69327 0.0
C951 C 0.89426 0.94846 0.67565 0.0
C952 C 0.90911 0.96033 0.6496 0.0
C953 C 0.86708 0.92729 0.66943 0.0
C954 C 0.885 0.97436 0.694 0.0
C955 C 0.90056 0.97369 0.71825 0.0
C956 C 0.89416 0.99482 0.7387 0.0
C957 C 0.87159 0.01725 0.73399 0.0
C958 C 0.85606 0.01842 0.70895 0.0
C959 C 0.86302 0.9966 0.68891 0.0
H960 H 0.6062 0.74731 0.84266 0.0
H961 H 0.5836 0.73984 0.75775 0.0
H962 H 0.62622 0.70277 0.7518 0.0
H963 H 0.68644 0.74689 0.83396 0.0
H964 H 0.69359 0.7261 0.86465 0.0
H965 H 0.66033 0.75002 0.86192 0.0
H966 H 0.62572 0.70405 0.87402 0.0
H967 H 0.65888 0.67994 0.87676 0.0
H968 H 0.62815 0.66952 0.85433 0.0
H969 H 0.67211 0.6654 0.75639 0.0
H970 H 0.7185 0.63631 0.76973 0.0
H971 H 0.71099 0.67218 0.85085 0.0
C972 C 0.60985 0.73765 0.8228 0.0
C973 C 0.59131 0.74605 0.80071 0.0
C974 C 0.59745 0.73349 0.77497 0.0
C975 C 0.62152 0.7124 0.77148 0.0
C976 C 0.63936 0.70459 0.79387 0.0
C977 C 0.63386 0.71722 0.81895 0.0
C978 C 0.65701 0.70688 0.83963 0.0
C979 C 0.67543 0.73409 0.85068 0.0
C980 C 0.64151 0.68903 0.86253 0.0
C981 C 0.67661 0.68628 0.82244 0.0
C982 C 0.66601 0.68477 0.79617 0.0
C983 C 0.68057 0.66661 0.77688 0.0
C984 C 0.70676 0.65007 0.78462 0.0
C985 C 0.71835 0.65225 0.81124 0.0
C986 C 0.70282 0.67042 0.83029 0.0
H987 H 0.42651 0.71712 0.83993 0.0
H988 H 0.47346 0.70354 0.76419 0.0
H989 H 0.44509 0.65483 0.75724 0.0
H990 H 0.4255 0.63682 0.8601 0.0
H991 H 0.3885 0.64041 0.87571 0.0
H992 H 0.41383 0.67275 0.87452 0.0
H993 H 0.37149 0.70442 0.85095 0.0
H994 H 0.34619 0.6721 0.85178 0.0
H995 H 0.35467 0.69038 0.82013 0.0
H996 H 0.40638 0.60948 0.75748 0.0
H997 H 0.36669 0.57028 0.76732 0.0
H998 H 0.34874 0.61429 0.84404 0.0
C999 C 0.43108 0.70358 0.82209 0.0
C1000 C 0.452 0.71381 0.80256 0.0
C1001 C 0.45762 0.69571 0.77944 0.0
C1002 C 0.44148 0.66823 0.77532 0.0
C1003 C 0.42031 0.65909 0.7948 0.0
C1004 C 0.41566 0.6761 0.81798 0.0
C1005 C 0.39181 0.6619 0.83596 0.0
C1006 C 0.40575 0.6524 0.86317 0.0
C1007 C 0.36443 0.68349 0.83992 0.0
C1008 C 0.38319 0.63446 0.81918 0.0
C1009 C 0.39952 0.63307 0.79538 0.0
C1010 C 0.39386 0.6102 0.77627 0.0
C1011 C 0.37122 0.58814 0.78191 0.0
C1012 C 0.35497 0.58906 0.80655 0.0
C1013 C 0.36116 0.6126 0.82521 0.0
H1014 H 0.47634 0.33094 0.8088 0.0
H1015 H 0.54605 0.39909 0.79499 0.0
H1016 H 0.50625 0.43914 0.79247 0.0
H1017 H 0.41456 0.36703 0.76638 0.0
H1018 H 0.3855 0.35609 0.79021 0.0
H1019 H 0.41891 0.33257 0.7858 0.0
H1020 H 0.42976 0.33618 0.83706 0.0
H1021 H 0.39682 0.36012 0.84161 0.0
H1022 H 0.43385 0.37318 0.8526 0.0
H1023 H 0.45946 0.47241 0.79833 0.0
H1024 H 0.41002 0.49578 0.81009 0.0
H1025 H 0.37069 0.40544 0.8195 0.0
C1026 C 0.48294 0.35412 0.80396 0.0
C1027 C 0.51399 0.36196 0.80113 0.0
C1028 C 0.52224 0.39262 0.7963 0.0
C1029 C 0.49978 0.4155 0.795 0.0
C1030 C 0.46927 0.40722 0.79867 0.0
C1031 C 0.46081 0.37715 0.8027 0.0
C1032 C 0.427 0.37453 0.80875 0.0
C1033 C 0.41052 0.35649 0.78645 0.0
C1034 C 0.42157 0.36016 0.83666 0.0
C1035 C 0.4179 0.40787 0.80841 0.0
C1036 C 0.44247 0.42637 0.80231 0.0
C1037 C 0.43993 0.45808 0.80258 0.0
C1038 C 0.41161 0.47119 0.80927 0.0
C1039 C 0.38606 0.45266 0.81575 0.0
C1040 C 0.38949 0.42052 0.81491 0.0
H1041 H 0.77613 0.47792 0.79536 0.0
H1042 H 0.70976 0.55095 0.79252 0.0
H1043 H 0.66803 0.51303 0.78853 0.0
H1044 H 0.73391 0.42273 0.74958 0.0
H1045 H 0.7458 0.39076 0.76985 0.0
H1046 H 0.77022 0.42368 0.76675 0.0
H1047 H 0.77174 0.42859 0.81879 0.0
H1048 H 0.74694 0.39615 0.82211 0.0
H1049 H 0.73641 0.43207 0.83721 0.0
H1050 H 0.63348 0.46697 0.79288 0.0
H1051 H 0.60946 0.41747 0.80321 0.0
H1052 H 0.69884 0.37449 0.80205 0.0
C1053 C 0.75289 0.48581 0.79253 0.0
C1054 C 0.74604 0.51719 0.7933 0.0
C1055 C 0.7154 0.52696 0.79102 0.0
C1056 C 0.69159 0.50556 0.78891 0.0
C1057 C 0.69896 0.47456 0.78908 0.0
C1058 C 0.72897 0.46474 0.7904 0.0
C1059 C 0.73079 0.43041 0.79322 0.0
C1060 C 0.74608 0.41605 0.76836 0.0
C1061 C 0.74744 0.4213 0.81938 0.0
C1062 C 0.69715 0.42251 0.79444 0.0
C1063 C 0.67909 0.44815 0.79171 0.0
C1064 C 0.64741 0.44665 0.79442 0.0
C1065 C 0.63391 0.41831 0.80028 0.0
C1066 C 0.65207 0.39175 0.80355 0.0
C1067 C 0.68408 0.39411 0.79997 0.0
H1068 H 0.61792 0.34637 0.17785 0.0
H1069 H 0.58637 0.36926 0.25816 0.0
H1070 H 0.62991 0.40562 0.26312 0.0
H1071 H 0.69833 0.34806 0.19316 0.0
H1072 H 0.70811 0.36305 0.16046 0.0
H1073 H 0.67481 0.33935 0.16428 0.0
H1074 H 0.64143 0.38192 0.14308 0.0
H1075 H 0.67453 0.40591 0.13948 0.0
H1076 H 0.64169 0.41956 0.15778 0.0
H1077 H 0.67637 0.4424 0.25673 0.0
H1078 H 0.72317 0.47021 0.24231 0.0
H1079 H 0.7233 0.41965 0.16726 0.0
C1080 C 0.62015 0.35895 0.19658 0.0
C1081 C 0.59877 0.35536 0.21756 0.0
C1082 C 0.60267 0.37177 0.2419 0.0
C1083 C 0.62718 0.39252 0.24475 0.0
C1084 C 0.6476 0.39597 0.22324 0.0
C1085 C 0.64444 0.37908 0.19984 0.0
C1086 C 0.66931 0.38594 0.1797 0.0
C1087 C 0.68879 0.35741 0.17409 0.0
C1088 C 0.65593 0.39912 0.15347 0.0
C1089 C 0.68709 0.4097 0.19513 0.0
C1090 C 0.67426 0.4156 0.2201 0.0
C1091 C 0.68665 0.43764 0.23733 0.0
C1092 C 0.71302 0.45346 0.22895 0.0
C1093 C 0.72682 0.4468 0.20379 0.0
C1094 C 0.71341 0.42484 0.18674 0.0
H1095 H 0.75986 0.60544 0.16413 0.0
H1096 H 0.74368 0.57463 0.24592 0.0
H1097 H 0.70525 0.61611 0.25178 0.0
H1098 H 0.75641 0.68456 0.17849 0.0
H1099 H 0.73887 0.69387 0.14664 0.0
H1100 H 0.76345 0.66111 0.14925 0.0
H1101 H 0.7201 0.62662 0.13066 0.0
H1102 H 0.69532 0.65926 0.12803 0.0
H1103 H 0.68346 0.62647 0.14723 0.0
H1104 H 0.66728 0.66178 0.2471 0.0
H1105 H 0.63816 0.70824 0.23418 0.0
H1106 H 0.68287 0.70824 0.15635 0.0
C1107 C 0.74808 0.60705 0.18328 0.0
C1108 C 0.75438 0.58654 0.20448 0.0
C1109 C 0.739 0.59003 0.22938 0.0
C1110 C 0.71714 0.61344 0.23279 0.0
C1111 C 0.71141 0.63322 0.21122 0.0
C1112 C 0.72684 0.63026 0.18707 0.0
C1113 C 0.71812 0.65481 0.16719 0.0
C1114 C 0.74586 0.67476 0.15999 0.0
C1115 C 0.70337 0.64095 0.14179 0.0
C1116 C 0.69512 0.67228 0.18372 0.0
C1117 C 0.69113 0.6595 0.20897 0.0
C1118 C 0.67045 0.67192 0.22742 0.0
C1119 C 0.6539 0.69816 0.2199 0.0
C1120 C 0.65851 0.71186 0.19435 0.0
C1121 C 0.67922 0.69847 0.17613 0.0
H1122 H 0.48827 0.76452 0.22485 0.0
H1123 H 0.55151 0.70072 0.18856 0.0
H1124 H 0.51164 0.6607 0.18886 0.0
H1125 H 0.44382 0.70799 0.26639 0.0
H1126 H 0.40835 0.72737 0.25951 0.0
H1127 H 0.44351 0.74869 0.26124 0.0
H1128 H 0.43283 0.77021 0.21355 0.0
H1129 H 0.39807 0.74845 0.21134 0.0
H1130 H 0.42704 0.74419 0.1858 0.0
H1131 H 0.46297 0.62992 0.18761 0.0
H1132 H 0.41032 0.60958 0.18803 0.0
H1133 H 0.37823 0.69463 0.22282 0.0
C1134 C 0.49404 0.74162 0.21836 0.0
C1135 C 0.52315 0.73512 0.20771 0.0
C1136 C 0.52957 0.7056 0.19769 0.0
C1137 C 0.507 0.68287 0.19757 0.0
C1138 C 0.47803 0.69024 0.20724 0.0
C1139 C 0.47158 0.71882 0.21775 0.0
C1140 C 0.43791 0.72191 0.22424 0.0
C1141 C 0.43312 0.72677 0.25466 0.0
C1142 C 0.42311 0.74771 0.20774 0.0
C1143 C 0.42638 0.6909 0.21528 0.0
C1144 C 0.44984 0.67288 0.20568 0.0
C1145 C 0.44445 0.64372 0.19536 0.0
C1146 C 0.41438 0.63247 0.19538 0.0
C1147 C 0.39002 0.6504 0.20555 0.0
C1148 C 0.39633 0.6801 0.21534 0.0
H1149 H 0.4181 0.38379 0.23613 0.0
H1150 H 0.49456 0.41753 0.18927 0.0
H1151 H 0.47001 0.46829 0.18705 0.0
H1152 H 0.36007 0.42414 0.20098 0.0
H1153 H 0.33736 0.43127 0.23063 0.0
H1154 H 0.36164 0.39819 0.22911 0.0
H1155 H 0.38813 0.41531 0.27341 0.0
H1156 H 0.36419 0.44873 0.2748 0.0
H1157 H 0.40517 0.45269 0.27538 0.0
H1158 H 0.43622 0.51452 0.18843 0.0
H1159 H 0.39384 0.55166 0.19002 0.0
H1160 H 0.34008 0.48865 0.23753 0.0
C1161 C 0.42989 0.40193 0.22565 0.0
C1162 C 0.4584 0.39668 0.21299 0.0
C1163 C 0.47265 0.42087 0.19891 0.0
C1164 C 0.45902 0.44986 0.19782 0.0
C1165 C 0.43117 0.45431 0.21094 0.0
C1166 C 0.41664 0.43093 0.22441 0.0
C1167 C 0.38612 0.44121 0.23571 0.0
C1168 C 0.35975 0.4226 0.22336 0.0
C1169 C 0.38591 0.43938 0.26667 0.0
C1170 C 0.3855 0.47403 0.22622 0.0
C1171 C 0.41187 0.48116 0.21215 0.0
C1172 C 0.41574 0.50935 0.19974 0.0
C1173 C 0.39166 0.53035 0.20089 0.0
C1174 C 0.36419 0.52322 0.21452 0.0
C1175 C 0.36135 0.49503 0.22793 0.0
H1176 H 0.20289 0.44832 0.19949 0.0
H1177 H 0.26089 0.48501 0.26274 0.0
H1178 H 0.23651 0.45107 0.29574 0.0
H1179 H 0.1355 0.44169 0.23934 0.0
H1180 H 0.12285 0.40622 0.22464 0.0
H1181 H 0.14588 0.43213 0.20518 0.0
H1182 H 0.18538 0.38921 0.1966 0.0
H1183 H 0.1624 0.36313 0.21599 0.0
H1184 H 0.20186 0.36929 0.22487 0.0
H1185 H 0.205 0.41589 0.32226 0.0
H1186 H 0.16801 0.38086 0.34167 0.0
H1187 H 0.12956 0.36444 0.26191 0.0
C1188 C 0.21063 0.44883 0.22023 0.0
C1189 C 0.23363 0.46954 0.22859 0.0
C1190 C 0.24298 0.4698 0.25595 0.0
C1191 C 0.22943 0.45042 0.27483 0.0
C1192 C 0.20653 0.43072 0.26611 0.0
C1193 C 0.19715 0.42959 0.23952 0.0
C1194 C 0.17121 0.4068 0.23602 0.0
C1195 C 0.14214 0.42267 0.22569 0.0
C1196 C 0.18079 0.38055 0.21725 0.0
C1197 C 0.16731 0.39579 0.26488 0.0
C1198 C 0.18815 0.40985 0.28171 0.0
C1199 C 0.18878 0.4044 0.30927 0.0
C1200 C 0.1675 0.38409 0.3201 0.0
C1201 C 0.1456 0.36912 0.30352 0.0
C1202 C 0.14578 0.37516 0.27537 0.0
H1203 H 0.74801 0.15727 0.26829 0.0
H1204 H 0.68617 0.08445 0.29003 0.0
H1205 H 0.64498 0.10861 0.26318 0.0
H1206 H 0.69483 0.21732 0.27201 0.0
H1207 H 0.70923 0.23813 0.24339 0.0
H1208 H 0.73441 0.2139 0.26246 0.0
H1209 H 0.74855 0.18435 0.21893 0.0
H1210 H 0.72342 0.20857 0.19968 0.0
H1211 H 0.71866 0.16774 0.19861 0.0
H1212 H 0.60961 0.14312 0.23829 0.0
H1213 H 0.58252 0.1847 0.2145 0.0
H1214 H 0.66756 0.23435 0.20661 0.0
C1215 C 0.72588 0.14635 0.26683 0.0
C1216 C 0.71993 0.11904 0.2808 0.0
C1217 C 0.69084 0.10527 0.27906 0.0
C1218 C 0.66747 0.11882 0.26395 0.0
C1219 C 0.67381 0.14599 0.25052 0.0
C1220 C 0.70236 0.1595 0.25154 0.0
C1221 C 0.70269 0.18926 0.23599 0.0
C1222 C 0.71076 0.21624 0.25458 0.0
C1223 C 0.72463 0.18736 0.21187 0.0
C1224 C 0.6697 0.19075 0.22673 0.0
C1225 C 0.65348 0.16552 0.23535 0.0
C1226 C 0.62215 0.16271 0.231 0.0
C1227 C 0.60695 0.18639 0.21761 0.0
C1228 C 0.6231 0.21234 0.20851 0.0
C1229 C 0.65493 0.21434 0.21284 0.0
H1230 H 0.91803 0.64078 0.20255 0.0
H1231 H 0.83613 0.63114 0.25074 0.0
H1232 H 0.85635 0.66879 0.28351 0.0
H1233 H 0.96921 0.64436 0.2578 0.0
H1234 H 0.99466 0.67148 0.24231 0.0
H1235 H 0.9725 0.646 0.22158 0.0
H1236 H 0.94979 0.69223 0.19592 0.0
H1237 H 0.97186 0.71788 0.21666 0.0
H1238 H 0.93097 0.72215 0.21457 0.0
H1239 H 0.88623 0.70628 0.3115 0.0
H1240 H 0.92471 0.73817 0.33438 0.0
H1241 H 0.98833 0.721 0.26892 0.0
C1242 C 0.90421 0.64707 0.21978 0.0
C1243 C 0.87547 0.63338 0.22412 0.0
C1244 C 0.85825 0.64143 0.2472 0.0
C1245 C 0.86946 0.66288 0.26576 0.0
C1246 C 0.89803 0.67583 0.26101 0.0
C1247 C 0.91528 0.66807 0.23869 0.0
C1248 C 0.94618 0.68358 0.2393 0.0
C1249 C 0.97216 0.65995 0.24032 0.0
C1250 C 0.9499 0.70525 0.21518 0.0
C1251 C 0.94371 0.7011 0.26555 0.0
C1252 C 0.91564 0.69662 0.27759 0.0
C1253 C 0.90831 0.70993 0.30227 0.0
C1254 C 0.93045 0.72789 0.3152 0.0
C1255 C 0.95977 0.73212 0.30363 0.0
C1256 C 0.96613 0.71877 0.27825 0.0
H1257 H 0.38182 0.97679 0.26515 0.0
H1258 H 0.40443 0.94556 0.34587 0.0
H1259 H 0.43769 0.90598 0.32651 0.0
H1260 H 0.38047 0.90382 0.23317 0.0
H1261 H 0.398 0.9169 0.20241 0.0
H1262 H 0.37554 0.94281 0.22249 0.0
H1263 H 0.42129 0.98021 0.22534 0.0
H1264 H 0.44379 0.95456 0.20505 0.0
H1265 H 0.45762 0.96667 0.23761 0.0
H1266 H 0.46785 0.86903 0.29844 0.0
H1267 H 0.49518 0.83945 0.26376 0.0
H1268 H 0.45516 0.89647 0.20148 0.0
C1269 C 0.39393 0.96194 0.27888 0.0
C1270 C 0.39007 0.96433 0.30716 0.0
C1271 C 0.40635 0.944 0.32417 0.0
C1272 C 0.42549 0.92145 0.31336 0.0
C1273 C 0.42838 0.91955 0.28546 0.0
C1274 C 0.4133 0.93941 0.26845 0.0
C1275 C 0.42081 0.93276 0.23919 0.0
C1276 C 0.39199 0.92352 0.22339 0.0
C1277 C 0.43684 0.96018 0.22603 0.0
C1278 C 0.44243 0.90602 0.24245 0.0
C1279 C 0.44636 0.89868 0.2693 0.0
C1280 C 0.46515 0.87473 0.27734 0.0
C1281 C 0.48073 0.85813 0.25744 0.0
C1282 C 0.47763 0.86563 0.22975 0.0
C1283 C 0.45791 0.88981 0.22232 0.0
H1284 H 0.21073 0.66423 0.81195 0.0
H1285 H 0.22897 0.59285 0.753 0.0
H1286 H 0.1996 0.62103 0.71932 0.0
H1287 H 0.13309 0.67713 0.79152 0.0
H1288 H 0.13447 0.71779 0.79687 0.0
H1289 H 0.15845 0.69295 0.81658 0.0
H1290 H 0.20628 0.72307 0.8013 0.0
H1291 H 0.18245 0.74805 0.78157 0.0
H1292 H 0.2136 0.72793 0.76579 0.0
H1293 H 0.16783 0.65561 0.69195 0.0
H1294 H 0.13446 0.69483 0.67241 0.0
H1295 H 0.13432 0.74384 0.74856 0.0
C1296 C 0.20865 0.65437 0.79204 0.0
C1297 C 0.22276 0.62619 0.7854 0.0
C1298 C 0.21923 0.61451 0.75884 0.0
C1299 C 0.20229 0.6303 0.73943 0.0
C1300 C 0.1887 0.65775 0.74674 0.0
C1301 C 0.19153 0.66975 0.77236 0.0
C1302 C 0.17378 0.69941 0.77493 0.0
C1303 C 0.14844 0.69664 0.79624 0.0
C1304 C 0.19532 0.7262 0.78127 0.0
C1305 C 0.16051 0.70204 0.74673 0.0
C1306 C 0.16965 0.67776 0.73086 0.0
C1307 C 0.16063 0.67485 0.7041 0.0
C1308 C 0.14182 0.6974 0.69313 0.0
C1309 C 0.13205 0.72263 0.70884 0.0
C1310 C 0.1414 0.72481 0.73611 0.0
H1311 H 0.40373 0.15913 0.70388 0.0
H1312 H 0.34723 0.11857 0.7662 0.0
H1313 H 0.37401 0.1491 0.80057 0.0
H1314 H 0.4728 0.16198 0.74166 0.0
H1315 H 0.48498 0.19835 0.72861 0.0
H1316 H 0.46095 0.17392 0.70847 0.0
H1317 H 0.4213 0.21745 0.70368 0.0
H1318 H 0.44529 0.24208 0.72369 0.0
H1319 H 0.40624 0.23546 0.73356 0.0
H1320 H 0.40787 0.18189 0.82829 0.0
H1321 H 0.4457 0.2162 0.84812 0.0
H1322 H 0.47946 0.23833 0.76802 0.0
C1323 C 0.39667 0.15695 0.72469 0.0
C1324 C 0.37341 0.13618 0.73227 0.0
C1325 C 0.36526 0.13381 0.75984 0.0
C1326 C 0.38022 0.15125 0.77953 0.0
C1327 C 0.4032 0.17115 0.77139 0.0
C1328 C 0.41133 0.17429 0.74466 0.0
C1329 C 0.43717 0.19716 0.74152 0.0
C1330 C 0.46566 0.18193 0.72935 0.0
C1331 C 0.42687 0.22467 0.72461 0.0
C1332 C 0.44243 0.20611 0.77074 0.0
C1333 C 0.42251 0.19078 0.78752 0.0
C1334 C 0.42331 0.19439 0.81534 0.0
C1335 C 0.44494 0.21428 0.82641 0.0
C1336 C 0.46559 0.23072 0.80978 0.0
C1337 C 0.46417 0.22637 0.78146 0.0
H1338 H 0.98021 0.36841 0.74481 0.0
H1339 H 0.94719 0.38857 0.66397 0.0
H1340 H 0.90866 0.42264 0.68282 0.0
H1341 H 0.90637 0.371 0.77823 0.0
H1342 H 0.92104 0.38954 0.80803 0.0
H1343 H 0.94539 0.3648 0.78851 0.0
H1344 H 0.98483 0.40849 0.78341 0.0
H1345 H 0.96065 0.43331 0.80296 0.0
H1346 H 0.97273 0.4446 0.76969 0.0
H1347 H 0.87415 0.45582 0.70969 0.0
H1348 H 0.847 0.48703 0.74331 0.0
H1349 H 0.90339 0.44813 0.80668 0.0
C1350 C 0.96492 0.37982 0.73098 0.0
C1351 C 0.96688 0.37503 0.70275 0.0
C1352 C 0.94616 0.39082 0.68563 0.0
C1353 C 0.92407 0.41057 0.69614 0.0
C1354 C 0.92284 0.41469 0.72388 0.0
C1355 C 0.94272 0.39991 0.74113 0.0
C1356 C 0.93706 0.40945 0.77013 0.0
C1357 C 0.92686 0.38207 0.78723 0.0
C1358 C 0.96551 0.42489 0.78225 0.0
C1359 C 0.91118 0.43209 0.76631 0.0
C1360 C 0.90321 0.43454 0.73947 0.0
C1361 C 0.8802 0.45417 0.73081 0.0
C1362 C 0.86501 0.472 0.75008 0.0
C1363 C 0.873 0.4703 0.77775 0.0
C1364 C 0.89634 0.44982 0.78583 0.0
H1365 H 0.63258 0.86434 0.76391 0.0
H1366 H 0.63828 0.90782 0.84251 0.0
H1367 H 0.67308 0.94641 0.82412 0.0
H1368 H 0.71181 0.87752 0.74487 0.0
H1369 H 0.70303 0.88516 0.71 0.0
H1370 H 0.67892 0.86005 0.72931 0.0
H1371 H 0.63185 0.89333 0.71759 0.0
H1372 H 0.6558 0.91851 0.69825 0.0
H1373 H 0.63256 0.93357 0.72514 0.0
H1374 H 0.70551 0.9812 0.79766 0.0
H1375 H 0.7344 0.0105 0.76465 0.0
H1376 H 0.70939 0.94488 0.70236 0.0
C1377 C 0.64119 0.88198 0.77719 0.0
C1378 C 0.63294 0.88274 0.80478 0.0
C1379 C 0.64475 0.90622 0.82151 0.0
C1380 C 0.66441 0.92845 0.81121 0.0
C1381 C 0.67221 0.92698 0.78408 0.0
C1382 C 0.66111 0.90441 0.76723 0.0
C1383 C 0.67312 0.90854 0.73874 0.0
C1384 C 0.6929 0.88119 0.73024 0.0
C1385 C 0.64676 0.91381 0.71875 0.0
C1386 C 0.69233 0.93713 0.74231 0.0
C1387 C 0.69142 0.94723 0.76865 0.0
C1388 C 0.70666 0.97342 0.77696 0.0
C1389 C 0.72326 0.98993 0.75783 0.0
C1390 C 0.72474 0.98028 0.73048 0.0
C1391 C 0.70902 0.95325 0.72285 0.0
H1392 H 0.01267 0.67861 0.73375 0.0
H1393 H 0.95906 0.76192 0.73633 0.0
H1394 H 0.91603 0.73335 0.75629 0.0
H1395 H 0.95192 0.6289 0.71524 0.0
H1396 H 0.96514 0.59757 0.73565 0.0
H1397 H 0.99207 0.62479 0.72252 0.0
H1398 H 0.01183 0.63568 0.77088 0.0
H1399 H 0.98506 0.60837 0.78415 0.0
H1400 H 0.98516 0.64698 0.79672 0.0
H1401 H 0.87804 0.69495 0.77478 0.0
H1402 H 0.84898 0.6504 0.79129 0.0
H1403 H 0.92772 0.59251 0.77648 0.0
C1404 C 0.992 0.69099 0.73867 0.0
C1405 C 0.98936 0.7226 0.73345 0.0
C1406 C 0.96176 0.73776 0.74017 0.0
C1407 C 0.93714 0.7217 0.75149 0.0
C1408 C 0.94043 0.69049 0.75607 0.0
C1409 C 0.96724 0.67534 0.74998 0.0
C1410 C 0.96485 0.64167 0.75651 0.0
C1411 C 0.96872 0.62209 0.73095 0.0
C1412 C 0.9881 0.63266 0.77837 0.0
C1413 C 0.93244 0.64016 0.76708 0.0
C1414 C 0.9187 0.66853 0.76669 0.0
C1415 C 0.88864 0.67266 0.77525 0.0
C1416 C 0.87228 0.64717 0.78455 0.0
C1417 C 0.88599 0.61787 0.78523 0.0
C1418 C 0.9165 0.61453 0.7763 0.0
H1419 H 0.42954 0.01518 0.73037 0.0
H1420 H 0.35174 0.95666 0.71356 0.0
H1421 H 0.38062 0.91235 0.73075 0.0
H1422 H 0.48829 0.96088 0.71213 0.0
H1423 H 0.51378 0.97261 0.73878 0.0
H1424 H 0.48728 0.99957 0.7245 0.0
H1425 H 0.46531 0.01057 0.77204 0.0
H1426 H 0.49176 0.98369 0.78647 0.0
H1427 H 0.45134 0.97937 0.79221 0.0
H1428 H 0.41802 0.87429 0.75031 0.0
H1429 H 0.46018 0.84597 0.77189 0.0
H1430 H 0.5133 0.92951 0.77644 0.0
C1431 C 0.41856 0.99304 0.73015 0.0
C1432 C 0.38832 0.98948 0.7205 0.0
C1433 C 0.37484 0.96007 0.72082 0.0
C1434 C 0.3911 0.9347 0.73051 0.0
C1435 C 0.42083 0.93905 0.73988 0.0
C1436 C 0.43441 0.96751 0.73985 0.0
C1437 C 0.46637 0.96618 0.75163 0.0
C1438 C 0.49034 0.97535 0.7305 0.0
C1439 C 0.46882 0.98613 0.7771 0.0
C1440 C 0.46862 0.93255 0.75843 0.0
C1441 C 0.44219 0.91726 0.75137 0.0
C1442 C 0.43883 0.88606 0.75589 0.0
C1443 C 0.46297 0.87014 0.76817 0.0
C1444 C 0.49017 0.88541 0.77595 0.0
C1445 C 0.49292 0.91705 0.77076 0.0
H1446 H 0.09168 0.42738 0.73133 0.0
H1447 H 0.14643 0.3448 0.72888 0.0
H1448 H 0.18914 0.3723 0.75041 0.0
H1449 H 0.15257 0.47978 0.7168 0.0
H1450 H 0.13868 0.50893 0.73937 0.0
H1451 H 0.11227 0.48272 0.72383 0.0
H1452 H 0.092 0.46719 0.77093 0.0
H1453 H 0.11829 0.49341 0.7866 0.0
H1454 H 0.11846 0.45376 0.79615 0.0
H1455 H 0.22649 0.4092 0.77191 0.0
H1456 H 0.25466 0.45218 0.79266 0.0
H1457 H 0.17539 0.51036 0.7814 0.0
C1458 C 0.11261 0.41502 0.73534 0.0
C1459 C 0.11556 0.38386 0.72831 0.0
C1460 C 0.14345 0.36863 0.73402 0.0
C1461 C 0.16793 0.38408 0.74624 0.0
C1462 C 0.16429 0.41479 0.75277 0.0
C1463 C 0.13729 0.43007 0.74761 0.0
C1464 C 0.13922 0.46304 0.75676 0.0
C1465 C 0.13547 0.4849 0.73276 0.0
C1466 C 0.11559 0.46973 0.77893 0.0
C1467 C 0.17152 0.46391 0.76783 0.0
C1468 C 0.18565 0.43589 0.7653 0.0
C1469 C 0.21561 0.43124 0.77402 0.0
C1470 C 0.23147 0.45582 0.78575 0.0
C1471 C 0.21732 0.48471 0.78875 0.0
C1472 C 0.18694 0.48862 0.77953 0.0
H1473 H 0.59133 0.1792 0.78627 0.0
H1474 H 0.64617 0.26162 0.79061 0.0
H1475 H 0.68937 0.23423 0.76979 0.0
H1476 H 0.65191 0.12622 0.80134 0.0
H1477 H 0.63834 0.09754 0.77814 0.0
H1478 H 0.61174 0.12356 0.79362 0.0
H1479 H 0.59239 0.13999 0.74642 0.0
H1480 H 0.61888 0.11398 0.73081 0.0
H1481 H 0.61935 0.1538 0.72184 0.0
H1482 H 0.72708 0.19753 0.74847 0.0
H1483 H 0.75538 0.15492 0.72731 0.0
H1484 H 0.67573 0.09681 0.73645 0.0
C1485 C 0.61241 0.19153 0.7829 0.0
C1486 C 0.61522 0.22264 0.7902 0.0
C1487 C 0.64329 0.23784 0.78526 0.0
C1488 C 0.66805 0.22244 0.77345 0.0
C1489 C 0.66451 0.19181 0.76655 0.0
C1490 C 0.63735 0.17655 0.77102 0.0
C1491 C 0.63936 0.14374 0.76142 0.0
C1492 C 0.63509 0.12146 0.78504 0.0
C1493 C 0.61612 0.13753 0.73878 0.0
C1494 C 0.67186 0.14295 0.75087 0.0
C1495 C 0.68605 0.17085 0.75409 0.0
C1496 C 0.71616 0.17557 0.74585 0.0
C1497 C 0.73209 0.1512 0.73387 0.0
C1498 C 0.71788 0.12244 0.73014 0.0
C1499 C 0.68735 0.11845 0.73891 0.0
H1500 H 0.02149 0.42527 0.2804 0.0
H1501 H 0.9685 0.34155 0.27695 0.0
H1502 H 0.92502 0.36997 0.25795 0.0
H1503 H 0.96006 0.47462 0.29946 0.0
H1504 H 0.97265 0.50616 0.27903 0.0
H1505 H 1.00008 0.47927 0.29198 0.0
H1506 H 0.01953 0.46872 0.24352 0.0
H1507 H 0.99231 0.49575 0.23044 0.0
H1508 H 0.99276 0.45717 0.21779 0.0
H1509 H 0.88657 0.40758 0.24045 0.0
H1510 H 0.85689 0.45134 0.22343 0.0
H1511 H 0.93478 0.5107 0.23754 0.0
C1512 C 1.00084 0.41284 0.2755 0.0
C1513 C 0.99854 0.38109 0.2803 0.0
C1514 C 0.97097 0.36582 0.27357 0.0
C1515 C 0.94605 0.38179 0.26278 0.0
C1516 C 0.94895 0.41306 0.25865 0.0
C1517 C 0.97569 0.42843 0.2646 0.0
C1518 C 0.97277 0.46212 0.25812 0.0
C1519 C 0.97661 0.48169 0.28367 0.0
C1520 C 0.9957 0.47148 0.23616 0.0
C1521 C 0.94019 0.46327 0.24771 0.0
C1522 C 0.92684 0.43473 0.24828 0.0
C1523 C 0.89682 0.43004 0.23983 0.0
C1524 C 0.8801 0.4551 0.23026 0.0
C1525 C 0.89341 0.48456 0.22909 0.0
C1526 C 0.92386 0.48855 0.23813 0.0
H1527 H 0.59565 0.91973 0.22924 0.0
H1528 H 0.65316 0.83961 0.2207 0.0
H1529 H 0.69646 0.86816 0.24057 0.0
H1530 H 0.65288 0.97505 0.21248 0.0
H1531 H 0.63938 1.00275 0.23659 0.0
H1532 H 0.6131 0.97588 0.22182 0.0
H1533 H 0.59704 0.95788 0.26951 0.0
H1534 H 0.62322 0.98475 0.28442 0.0
H1535 H 0.62586 0.94484 0.2928 0.0
H1536 H 0.7338 0.90623 0.26162 0.0
H1537 H 0.7612 0.94988 0.28222 0.0
H1538 H 0.67865 1.00442 0.27647 0.0
C1539 C 0.61731 0.90808 0.23152 0.0
C1540 C 0.62091 0.87735 0.22337 0.0
C1541 C 0.64974 0.8631 0.2268 0.0
C1542 C 0.67451 0.87916 0.23805 0.0
C1543 C 0.67013 0.90946 0.24579 0.0
C1544 C 0.64219 0.92371 0.24267 0.0
C1545 C 0.64326 0.95637 0.2526 0.0
C1546 C 0.63678 0.97883 0.22949 0.0
C1547 C 0.62103 0.96123 0.27624 0.0
C1548 C 0.67617 0.95835 0.26184 0.0
C1549 C 0.69139 0.93112 0.25776 0.0
C1550 C 0.72206 0.92764 0.26487 0.0
C1551 C 0.73746 0.95259 0.27654 0.0
C1552 C 0.72217 0.98066 0.281 0.0
C1553 C 0.69112 0.98336 0.2734 0.0
H1554 H 0.13074 0.73885 0.27081 0.0
H1555 H 0.07801 0.66394 0.30404 0.0
H1556 H 0.11549 0.62728 0.28597 0.0
H1557 H 0.15128 0.70002 0.20897 0.0
H1558 H 0.18891 0.71662 0.20755 0.0
H1559 H 0.15821 0.73708 0.22359 0.0
H1560 H 0.19031 0.74137 0.26738 0.0
H1561 H 0.22107 0.72082 0.2515 0.0
H1562 H 0.2052 0.70723 0.28277 0.0
H1563 H 0.15989 0.59859 0.26568 0.0
H1564 H 0.20554 0.58003 0.24117 0.0
H1565 H 0.22774 0.67317 0.21909 0.0
C1566 C 0.12706 0.71473 0.27425 0.0
C1567 C 0.10142 0.70434 0.28892 0.0
C1568 C 0.09737 0.67254 0.2928 0.0
C1569 C 0.11863 0.65148 0.28271 0.0
C1570 C 0.14371 0.66246 0.26848 0.0
C1571 C 0.14784 0.69331 0.26395 0.0
C1572 C 0.1763 0.69901 0.24732 0.0
C1573 C 0.16818 0.71407 0.22025 0.0
C1574 C 0.1996 0.71824 0.2632 0.0
C1575 C 0.18755 0.66659 0.24333 0.0
C1576 C 0.16862 0.64585 0.25594 0.0
C1577 C 0.17477 0.61461 0.25557 0.0
C1578 C 0.20078 0.60427 0.2417 0.0
C1579 C 0.22005 0.62509 0.2281 0.0
C1580 C 0.21328 0.65664 0.22907 0.0
H1581 H 0.34837 0.16675 0.27638 0.0
H1582 H 0.40782 0.08852 0.28612 0.0
H1583 H 0.4506 0.11792 0.26579 0.0
H1584 H 0.3786 0.19035 0.2115 0.0
H1585 H 0.37372 0.2303 0.21898 0.0
H1586 H 0.34853 0.20258 0.23386 0.0
H1587 H 0.36236 0.22305 0.28143 0.0
H1588 H 0.38787 0.25059 0.26673 0.0
H1589 H 0.40185 0.22427 0.29176 0.0
H1590 H 0.48789 0.15875 0.2474 0.0
H1591 H 0.5138 0.20388 0.22752 0.0
H1592 H 0.42779 0.25286 0.22775 0.0
C1593 C 0.37036 0.15571 0.27407 0.0
C1594 C 0.37499 0.12551 0.28291 0.0
C1595 C 0.4039 0.11165 0.27931 0.0
C1596 C 0.42828 0.12825 0.26796 0.0
C1597 C 0.42306 0.15836 0.25993 0.0
C1598 C 0.39454 0.17164 0.26239 0.0
C1599 C 0.39429 0.20394 0.25182 0.0
C1600 C 0.3725 0.20695 0.2276 0.0
C1601 C 0.38612 0.2268 0.27428 0.0
C1602 C 0.42724 0.20715 0.24332 0.0
C1603 C 0.44372 0.18085 0.24836 0.0
C1604 C 0.47504 0.17926 0.24309 0.0
C1605 C 0.48961 0.205 0.23198 0.0
C1606 C 0.4727 0.23167 0.22593 0.0
C1607 C 0.44121 0.23262 0.23184 0.0
loop_
_geom_bond_atom_site_label_1
_geom_bond_atom_site_label_2
_geom_bond_distance
_geom_bond_site_symmetry_2
_ccdc_geom_bond_type
Co0 N4 2.148 1_455 S
Co0 N10 2.128 . S
Co0 N20 2.194 . S
Co0 O25 2.351 . S
Co0 O26 2.155 . S
Co0 O27 2.096 . S
C1 N4 1.301 . S
C1 N5 1.328 . S
C1 H6 0.930 1_655 S
C2 C3 1.333 . S
C2 N4 1.317 . S
C2 H7 0.930 . S
C3 C2 1.333 . S
C3 N5 1.350 . S
C3 H29 0.931 . S
N4 Co0 2.148 1_655 S
N4 C1 1.301 . S
N4 C2 1.317 . S
N5 C1 1.328 . S
N5 C3 1.350 . S
H6 C1 0.930 1_455 S
H7 C2 0.930 . S
C8 O9 1.224 . S
C8 O27 1.247 1_655 S
O9 C8 1.224 . S
N10 Co0 2.128 . S
N10 C11 1.355 . S
N10 C13 1.311 . S
C11 N10 1.355 . S
C11 C12 1.363 . S
C11 H23 0.929 . S
C12 C11 1.363 . S
C12 N14 1.375 . S
C12 H30 0.931 . S
C13 N10 1.311 . S
C13 N14 1.347 . S
C13 H24 0.929 . S
N14 C12 1.375 . S
N14 C13 1.347 . S
C15 C18 1.365 . S
C15 N20 1.328 . S
C15 H21 0.929 . S
C16 C17 1.362 . S
C16 C19 1.378 . S
C16 H31 0.929 1_455 S
C17 C16 1.362 . S
C17 C18 1.366 . S
C18 C15 1.365 . S
C18 C17 1.366 . S
C18 H32 0.930 . S
C19 C16 1.378 . S
C19 N20 1.315 . S
C19 H22 0.930 1_455 S
N20 Co0 2.194 . S
N20 C15 1.328 . S
N20 C19 1.315 . S
H21 C15 0.929 . S
H22 C19 0.930 1_655 S
H23 C11 0.929 . S
H24 C13 0.929 . S
O25 Co0 2.351 . S
O25 C28 1.244 . S
O26 Co0 2.155 . S
O26 C28 1.240 . S
O27 Co0 2.096 . S
O27 C8 1.247 1_455 S
C28 O25 1.244 . S
C28 O26 1.240 . S
H29 C3 0.931 . S
H30 C12 0.931 . S
H31 C16 0.929 1_655 S
H32 C18 0.930 . S
Co33 N37 2.148 1_545 S
Co33 N43 2.128 . S
Co33 N53 2.194 . S
Co33 O58 2.351 . S
Co33 O59 2.155 . S
Co33 O60 2.096 . S
C34 N37 1.301 . S
C34 N38 1.328 . S
C34 H39 0.930 1_565 S
C35 C36 1.333 . S
C35 N37 1.317 . S
C35 H40 0.930 . S
C36 C35 1.333 . S
C36 N38 1.350 . S
C36 H62 0.931 . S
N37 Co33 2.148 1_565 S
N37 C34 1.301 . S
N37 C35 1.317 . S
N38 C34 1.328 . S
N38 C36 1.350 . S
H39 C34 0.930 1_545 S
H40 C35 0.930 . S
C41 O42 1.224 . S
C41 O60 1.247 1_565 S
O42 C41 1.224 . S
N43 Co33 2.128 . S
N43 C44 1.355 . S
N43 C46 1.311 . S
C44 N43 1.355 . S
C44 C45 1.363 . S
C44 H56 0.929 . S
C45 C44 1.363 . S
C45 N47 1.375 . S
C45 H63 0.931 . S
C46 N43 1.311 . S
C46 N47 1.347 . S
C46 H57 0.929 . S
N47 C45 1.375 . S
N47 C46 1.347 . S
C48 C51 1.365 . S
C48 N53 1.328 . S
C48 H54 0.929 . S
C49 C50 1.362 . S
C49 C52 1.378 . S
C49 H64 0.929 1_545 S
C50 C49 1.362 . S
C50 C51 1.366 . S
C51 C48 1.365 . S
C51 C50 1.366 . S
C51 H65 0.930 . S
C52 C49 1.378 . S
C52 N53 1.315 . S
C52 H55 0.930 1_545 S
N53 Co33 2.194 . S
N53 C48 1.328 . S
N53 C52 1.315 . S
H54 C48 0.929 . S
H55 C52 0.930 1_565 S
H56 C44 0.929 . S
H57 C46 0.929 . S
O58 Co33 2.351 . S
O58 C61 1.244 . S
O59 Co33 2.155 . S
O59 C61 1.240 . S
O60 Co33 2.096 . S
O60 C41 1.247 1_545 S
C61 O58 1.244 . S
C61 O59 1.240 . S
H62 C36 0.931 . S
H63 C45 0.931 . S
H64 C49 0.929 1_565 S
H65 C51 0.930 . S
Co66 N70 2.148 . S
Co66 N76 2.128 . S
Co66 N86 2.194 . S
Co66 O91 2.351 . S
Co66 O92 2.155 . S
Co66 O93 2.096 . S
C67 N70 1.301 . S
C67 N71 1.328 . S
C67 H72 0.930 . S
C68 C69 1.333 . S
C68 N70 1.317 . S
C68 H73 0.930 . S
C69 C68 1.333 . S
C69 N71 1.350 . S
C69 H95 0.931 . S
N70 Co66 2.148 . S
N70 C67 1.301 . S
N70 C68 1.317 . S
N71 C67 1.328 . S
N71 C69 1.350 . S
H72 C67 0.930 . S
H73 C68 0.930 . S
C74 O75 1.224 . S
C74 O93 1.247 . S
O75 C74 1.224 . S
N76 Co66 2.128 . S
N76 C77 1.355 . S
N76 C79 1.311 . S
C77 N76 1.355 . S
C77 C78 1.363 1_455 S
C77 H89 0.933 . S
C78 C77 1.363 1_655 S
C78 N80 1.368 1_655 S
C78 H96 0.931 . S
C79 N76 1.311 . S
C79 N80 1.360 . S
C79 H90 0.929 . S
N80 C78 1.368 1_455 S
N80 C79 1.360 . S
C81 C84 1.365 . S
C81 N86 1.328 . S
C81 H87 0.929 . S
C82 C83 1.362 . S
C82 C85 1.378 . S
C82 H97 0.929 . S
C83 C82 1.362 . S
C83 C84 1.366 . S
C84 C81 1.365 . S
C84 C83 1.366 . S
C84 H98 0.930 . S
C85 C82 1.378 . S
C85 N86 1.315 . S
C85 H88 0.930 . S
N86 Co66 2.194 . S
N86 C81 1.328 . S
N86 C85 1.315 . S
H87 C81 0.929 . S
H88 C85 0.930 . S
H89 C77 0.933 . S
H90 C79 0.929 . S
O91 Co66 2.351 . S
O91 C94 1.244 . S
O92 Co66 2.155 . S
O92 C94 1.240 . S
O93 Co66 2.096 . S
O93 C74 1.247 . S
C94 O91 1.244 . S
C94 O92 1.240 . S
H95 C69 0.931 . S
H96 C78 0.931 . S
H97 C82 0.929 . S
H98 C84 0.930 . S
Co99 N103 2.148 . S
Co99 N109 2.128 . S
Co99 N119 2.194 . S
Co99 O124 2.351 . S
Co99 O125 2.155 . S
Co99 O126 2.096 . S
C100 N103 1.301 . S
C100 N104 1.328 . S
C100 H105 0.930 . S
C101 C102 1.333 . S
C101 N103 1.317 . S
C101 H106 0.930 . S
C102 C101 1.333 . S
C102 N104 1.350 . S
C102 H128 0.931 . S
N103 Co99 2.148 . S
N103 C100 1.301 . S
N103 C101 1.317 . S
N104 C100 1.328 . S
N104 C102 1.350 . S
H105 C100 0.930 . S
H106 C101 0.930 . S
C107 O108 1.224 . S
C107 O126 1.247 . S
O108 C107 1.224 . S
N109 Co99 2.128 . S
N109 C110 1.355 . S
N109 C112 1.311 . S
C110 N109 1.355 . S
C110 C111 1.363 1_545 S
C110 H122 0.933 . S
C111 C110 1.363 1_565 S
C111 N113 1.368 1_565 S
C111 H129 0.931 . S
C112 N109 1.311 . S
C112 N113 1.360 . S
C112 H123 0.929 . S
N113 C111 1.368 1_545 S
N113 C112 1.360 . S
C114 C117 1.365 . S
C114 N119 1.328 . S
C114 H120 0.929 . S
C115 C116 1.362 . S
C115 C118 1.378 . S
C115 H130 0.929 . S
C116 C115 1.362 . S
C116 C117 1.366 . S
C117 C114 1.365 . S
C117 C116 1.366 . S
C117 H131 0.930 . S
C118 C115 1.378 . S
C118 N119 1.315 . S
C118 H121 0.930 . S
N119 Co99 2.194 . S
N119 C114 1.328 . S
N119 C118 1.315 . S
H120 C114 0.929 . S
H121 C118 0.930 . S
H122 C110 0.933 . S
H123 C112 0.929 . S
O124 Co99 2.351 . S
O124 C127 1.244 . S
O125 Co99 2.155 . S
O125 C127 1.240 . S
O126 Co99 2.096 . S
O126 C107 1.247 . S
C127 O124 1.244 . S
C127 O125 1.240 . S
H128 C102 0.931 . S
H129 C111 0.931 . S
H130 C115 0.929 . S
H131 C117 0.930 . S
Co132 N136 2.148 1_455 S
Co132 N142 2.128 . S
Co132 N152 2.194 . S
Co132 O157 2.351 . S
Co132 O158 2.155 . S
Co132 O159 2.096 . S
C133 N136 1.301 . S
C133 N137 1.328 . S
C133 H138 0.930 1_655 S
C134 C135 1.333 . S
C134 N136 1.317 . S
C134 H139 0.930 . S
C135 C134 1.333 . S
C135 N137 1.350 . S
C135 H161 0.931 . S
N136 Co132 2.148 1_655 S
N136 C133 1.301 . S
N136 C134 1.317 . S
N137 C133 1.328 . S
N137 C135 1.350 . S
H138 C133 0.930 1_455 S
H139 C134 0.930 . S
C140 O141 1.224 . S
C140 O159 1.247 1_655 S
O141 C140 1.224 . S
N142 Co132 2.128 . S
N142 C143 1.355 . S
N142 C145 1.311 . S
C143 N142 1.355 . S
C143 C144 1.363 . S
C143 H155 0.929 . S
C144 C143 1.363 . S
C144 N146 1.375 . S
C144 H162 0.931 . S
C145 N142 1.311 . S
C145 N146 1.347 . S
C145 H156 0.929 . S
N146 C144 1.375 . S
N146 C145 1.347 . S
C147 C150 1.365 . S
C147 N152 1.328 . S
C147 H153 0.929 . S
C148 C149 1.362 . S
C148 C151 1.378 . S
C148 H163 0.929 1_455 S
C149 C148 1.362 . S
C149 C150 1.366 . S
C150 C147 1.365 . S
C150 C149 1.366 . S
C150 H164 0.930 . S
C151 C148 1.378 . S
C151 N152 1.315 . S
C151 H154 0.930 1_455 S
N152 Co132 2.194 . S
N152 C147 1.328 . S
N152 C151 1.315 . S
H153 C147 0.929 . S
H154 C151 0.930 1_655 S
H155 C143 0.929 . S
H156 C145 0.929 . S
O157 Co132 2.351 . S
O157 C160 1.244 . S
O158 Co132 2.155 . S
O158 C160 1.240 . S
O159 Co132 2.096 . S
O159 C140 1.247 1_455 S
C160 O157 1.244 . S
C160 O158 1.240 . S
H161 C135 0.931 . S
H162 C144 0.931 . S
H163 C148 0.929 1_655 S
H164 C150 0.930 . S
Co165 N169 2.148 1_545 S
Co165 N175 2.128 . S
Co165 N185 2.194 . S
Co165 O190 2.351 . S
Co165 O191 2.155 . S
Co165 O192 2.096 . S
C166 N169 1.301 . S
C166 N170 1.328 . S
C166 H171 0.930 1_565 S
C167 C168 1.333 . S
C167 N169 1.317 . S
C167 H172 0.930 . S
C168 C167 1.333 . S
C168 N170 1.350 . S
C168 H194 0.931 . S
N169 Co165 2.148 1_565 S
N169 C166 1.301 . S
N169 C167 1.317 . S
N170 C166 1.328 . S
N170 C168 1.350 . S
H171 C166 0.930 1_545 S
H172 C167 0.930 . S
C173 O174 1.224 . S
C173 O192 1.247 1_565 S
O174 C173 1.224 . S
N175 Co165 2.128 . S
N175 C176 1.355 . S
N175 C178 1.311 . S
C176 N175 1.355 . S
C176 C177 1.363 . S
C176 H188 0.929 . S
C177 C176 1.363 . S
C177 N179 1.375 . S
C177 H195 0.931 . S
C178 N175 1.311 . S
C178 N179 1.347 . S
C178 H189 0.929 . S
N179 C177 1.375 . S
N179 C178 1.347 . S
C180 C183 1.365 . S
C180 N185 1.328 . S
C180 H186 0.929 . S
C181 C182 1.362 . S
C181 C184 1.378 . S
C181 H196 0.929 1_545 S
C182 C181 1.362 . S
C182 C183 1.366 . S
C183 C180 1.365 . S
C183 C182 1.366 . S
C183 H197 0.930 . S
C184 C181 1.378 . S
C184 N185 1.315 . S
C184 H187 0.930 1_545 S
N185 Co165 2.194 . S
N185 C180 1.328 . S
N185 C184 1.315 . S
H186 C180 0.929 . S
H187 C184 0.930 1_565 S
H188 C176 0.929 . S
H189 C178 0.929 . S
O190 Co165 2.351 . S
O190 C193 1.244 . S
O191 Co165 2.155 . S
O191 C193 1.240 . S
O192 Co165 2.096 . S
O192 C173 1.247 1_545 S
C193 O190 1.244 . S
C193 O191 1.240 . S
H194 C168 0.931 . S
H195 C177 0.931 . S
H196 C181 0.929 1_565 S
H197 C183 0.930 . S
Co198 N202 2.148 . S
Co198 N208 2.128 . S
Co198 N218 2.194 . S
Co198 O223 2.351 . S
Co198 O224 2.155 . S
Co198 O225 2.096 . S
C199 N202 1.301 . S
C199 N203 1.328 . S
C199 H204 0.930 . S
C200 C201 1.333 . S
C200 N202 1.317 . S
C200 H205 0.930 . S
C201 C200 1.333 . S
C201 N203 1.350 . S
C201 H227 0.931 . S
N202 Co198 2.148 . S
N202 C199 1.301 . S
N202 C200 1.317 . S
N203 C199 1.328 . S
N203 C201 1.350 . S
H204 C199 0.930 . S
H205 C200 0.930 . S
C206 O207 1.224 . S
C206 O225 1.247 . S
O207 C206 1.224 . S
N208 Co198 2.128 . S
N208 C209 1.355 . S
N208 C211 1.311 . S
C209 N208 1.355 . S
C209 C210 1.363 1_455 S
C209 H221 0.933 . S
C210 C209 1.363 1_655 S
C210 N212 1.368 1_655 S
C210 H228 0.931 . S
C211 N208 1.311 . S
C211 N212 1.360 . S
C211 H222 0.929 . S
N212 C210 1.368 1_455 S
N212 C211 1.360 . S
C213 C216 1.365 . S
C213 N218 1.328 . S
C213 H219 0.929 . S
C214 C215 1.362 . S
C214 C217 1.378 . S
C214 H229 0.929 . S
C215 C214 1.362 . S
C215 C216 1.366 . S
C216 C213 1.365 . S
C216 C215 1.366 . S
C216 H230 0.930 . S
C217 C214 1.378 . S
C217 N218 1.315 . S
C217 H220 0.930 . S
N218 Co198 2.194 . S
N218 C213 1.328 . S
N218 C217 1.315 . S
H219 C213 0.929 . S
H220 C217 0.930 . S
H221 C209 0.933 . S
H222 C211 0.929 . S
O223 Co198 2.351 . S
O223 C226 1.244 . S
O224 Co198 2.155 . S
O224 C226 1.240 . S
O225 Co198 2.096 . S
O225 C206 1.247 . S
C226 O223 1.244 . S
C226 O224 1.240 . S
H227 C201 0.931 . S
H228 C210 0.931 . S
H229 C214 0.929 . S
H230 C216 0.930 . S
Co231 N235 2.148 . S
Co231 N241 2.128 . S
Co231 N251 2.194 . S
Co231 O256 2.351 . S
Co231 O257 2.155 . S
Co231 O258 2.096 . S
C232 N235 1.301 . S
C232 N236 1.328 . S
C232 H237 0.930 . S
C233 C234 1.333 . S
C233 N235 1.317 . S
C233 H238 0.930 . S
C234 C233 1.333 . S
C234 N236 1.350 . S
C234 H260 0.931 . S
N235 Co231 2.148 . S
N235 C232 1.301 . S
N235 C233 1.317 . S
N236 C232 1.328 . S
N236 C234 1.350 . S
H237 C232 0.930 . S
H238 C233 0.930 . S
C239 O240 1.224 . S
C239 O258 1.247 . S
O240 C239 1.224 . S
N241 Co231 2.128 . S
N241 C242 1.355 . S
N241 C244 1.311 . S
C242 N241 1.355 . S
C242 C243 1.363 1_545 S
C242 H254 0.933 . S
C243 C242 1.363 1_565 S
C243 N245 1.368 1_565 S
C243 H261 0.931 . S
C244 N241 1.311 . S
C244 N245 1.360 . S
C244 H255 0.929 . S
N245 C243 1.368 1_545 S
N245 C244 1.360 . S
C246 C249 1.365 . S
C246 N251 1.328 . S
C246 H252 0.929 . S
C247 C248 1.362 . S
C247 C250 1.378 . S
C247 H262 0.929 . S
C248 C247 1.362 . S
C248 C249 1.366 . S
C249 C246 1.365 . S
C249 C248 1.366 . S
C249 H263 0.930 . S
C250 C247 1.378 . S
C250 N251 1.315 . S
C250 H253 0.930 . S
N251 Co231 2.194 . S
N251 C246 1.328 . S
N251 C250 1.315 . S
H252 C246 0.929 . S
H253 C250 0.930 . S
H254 C242 0.933 . S
H255 C244 0.929 . S
O256 Co231 2.351 . S
O256 C259 1.244 . S
O257 Co231 2.155 . S
O257 C259 1.240 . S
O258 Co231 2.096 . S
O258 C239 1.247 . S
C259 O256 1.244 . S
C259 O257 1.240 . S
H260 C234 0.931 . S
H261 C243 0.931 . S
H262 C247 0.929 . S
H263 C249 0.930 . S
Co264 N268 2.148 . S
Co264 N274 2.128 . S
Co264 N284 2.194 . S
Co264 O289 2.351 . S
Co264 O290 2.155 . S
Co264 O291 2.096 . S
C265 N268 1.301 . S
C265 N269 1.328 . S
C265 H270 0.930 . S
C266 C267 1.333 . S
C266 N268 1.317 . S
C266 H271 0.930 . S
C267 C266 1.333 . S
C267 N269 1.350 . S
C267 H293 0.931 . S
N268 Co264 2.148 . S
N268 C265 1.301 . S
N268 C266 1.317 . S
N269 C265 1.328 . S
N269 C267 1.350 . S
H270 C265 0.930 . S
H271 C266 0.930 . S
C272 O273 1.224 . S
C272 O291 1.247 . S
O273 C272 1.224 . S
N274 Co264 2.128 . S
N274 C275 1.355 . S
N274 C277 1.311 . S
C275 N274 1.355 . S
C275 C276 1.363 . S
C275 H287 0.929 . S
C276 C275 1.363 . S
C276 N278 1.375 . S
C276 H294 0.931 . S
C277 N274 1.311 . S
C277 N278 1.347 . S
C277 H288 0.929 . S
N278 C276 1.375 . S
N278 C277 1.347 . S
C279 C282 1.365 . S
C279 N284 1.328 . S
C279 H285 0.929 . S
C280 C281 1.362 . S
C280 C283 1.378 . S
C280 H295 0.929 . S
C281 C280 1.362 . S
C281 C282 1.366 . S
C282 C279 1.365 . S
C282 C281 1.366 . S
C282 H296 0.930 . S
C283 C280 1.378 . S
C283 N284 1.315 . S
C283 H286 0.930 . S
N284 Co264 2.194 . S
N284 C279 1.328 . S
N284 C283 1.315 . S
H285 C279 0.929 . S
H286 C283 0.930 . S
H287 C275 0.929 . S
H288 C277 0.929 . S
O289 Co264 2.351 . S
O289 C292 1.244 . S
O290 Co264 2.155 . S
O290 C292 1.240 . S
O291 Co264 2.096 . S
O291 C272 1.247 . S
C292 O289 1.244 . S
C292 O290 1.240 . S
H293 C267 0.931 . S
H294 C276 0.931 . S
H295 C280 0.929 . S
H296 C282 0.930 . S
Co297 N301 2.148 . S
Co297 N307 2.128 . S
Co297 N317 2.194 . S
Co297 O322 2.351 . S
Co297 O323 2.155 . S
Co297 O324 2.096 . S
C298 N301 1.301 . S
C298 N302 1.328 . S
C298 H303 0.930 . S
C299 C300 1.333 . S
C299 N301 1.317 . S
C299 H304 0.930 . S
C300 C299 1.333 . S
C300 N302 1.350 . S
C300 H326 0.931 . S
N301 Co297 2.148 . S
N301 C298 1.301 . S
N301 C299 1.317 . S
N302 C298 1.328 . S
N302 C300 1.350 . S
H303 C298 0.930 . S
H304 C299 0.930 . S
C305 O306 1.224 . S
C305 O324 1.247 . S
O306 C305 1.224 . S
N307 Co297 2.128 . S
N307 C308 1.355 . S
N307 C310 1.311 . S
C308 N307 1.355 . S
C308 C309 1.363 . S
C308 H320 0.929 . S
C309 C308 1.363 . S
C309 N311 1.375 . S
C309 H327 0.931 . S
C310 N307 1.311 . S
C310 N311 1.347 . S
C310 H321 0.929 . S
N311 C309 1.375 . S
N311 C310 1.347 . S
C312 C315 1.365 . S
C312 N317 1.328 . S
C312 H318 0.929 . S
C313 C314 1.362 . S
C313 C316 1.378 . S
C313 H328 0.929 . S
C314 C313 1.362 . S
C314 C315 1.366 . S
C315 C312 1.365 . S
C315 C314 1.366 . S
C315 H329 0.930 . S
C316 C313 1.378 . S
C316 N317 1.315 . S
C316 H319 0.930 . S
N317 Co297 2.194 . S
N317 C312 1.328 . S
N317 C316 1.315 . S
H318 C312 0.929 . S
H319 C316 0.930 . S
H320 C308 0.929 . S
H321 C310 0.929 . S
O322 Co297 2.351 . S
O322 C325 1.244 . S
O323 Co297 2.155 . S
O323 C325 1.240 . S
O324 Co297 2.096 . S
O324 C305 1.247 . S
C325 O322 1.244 . S
C325 O323 1.240 . S
H326 C300 0.931 . S
H327 C309 0.931 . S
H328 C313 0.929 . S
H329 C315 0.930 . S
Co330 N334 2.148 . S
Co330 N340 2.128 . S
Co330 N350 2.194 . S
Co330 O355 2.351 . S
Co330 O356 2.155 . S
Co330 O357 2.096 . S
C331 N334 1.301 . S
C331 N335 1.328 . S
C331 H336 0.930 . S
C332 C333 1.333 . S
C332 N334 1.317 . S
C332 H337 0.930 . S
C333 C332 1.333 . S
C333 N335 1.350 . S
C333 H359 0.931 . S
N334 Co330 2.148 . S
N334 C331 1.301 . S
N334 C332 1.317 . S
N335 C331 1.328 . S
N335 C333 1.350 . S
H336 C331 0.930 . S
H337 C332 0.930 . S
C338 O339 1.224 . S
C338 O357 1.247 . S
O339 C338 1.224 . S
N340 Co330 2.128 . S
N340 C341 1.355 . S
N340 C343 1.311 . S
C341 N340 1.355 . S
C341 C342 1.363 . S
C341 H353 0.929 . S
C342 C341 1.363 . S
C342 N344 1.375 . S
C342 H360 0.931 . S
C343 N340 1.311 . S
C343 N344 1.347 . S
C343 H354 0.929 . S
N344 C342 1.375 . S
N344 C343 1.347 . S
C345 C348 1.365 . S
C345 N350 1.328 . S
C345 H351 0.929 . S
C346 C347 1.362 . S
C346 C349 1.378 . S
C346 H361 0.929 . S
C347 C346 1.362 . S
C347 C348 1.366 . S
C348 C345 1.365 . S
C348 C347 1.366 . S
C348 H362 0.930 . S
C349 C346 1.378 . S
C349 N350 1.315 . S
C349 H352 0.930 . S
N350 Co330 2.194 . S
N350 C345 1.328 . S
N350 C349 1.315 . S
H351 C345 0.929 . S
H352 C349 0.930 . S
H353 C341 0.929 . S
H354 C343 0.929 . S
O355 Co330 2.351 . S
O355 C358 1.244 . S
O356 Co330 2.155 . S
O356 C358 1.240 . S
O357 Co330 2.096 . S
O357 C338 1.247 . S
C358 O355 1.244 . S
C358 O356 1.240 . S
H359 C333 0.931 . S
H360 C342 0.931 . S
H361 C346 0.929 . S
H362 C348 0.930 . S
Co363 N367 2.148 . S
Co363 N373 2.128 . S
Co363 N383 2.194 . S
Co363 O388 2.351 . S
Co363 O389 2.155 . S
Co363 O390 2.096 . S
C364 N367 1.301 . S
C364 N368 1.328 . S
C364 H369 0.930 . S
C365 C366 1.333 . S
C365 N367 1.317 . S
C365 H370 0.930 . S
C366 C365 1.333 . S
C366 N368 1.350 . S
C366 H392 0.931 . S
N367 Co363 2.148 . S
N367 C364 1.301 . S
N367 C365 1.317 . S
N368 C364 1.328 . S
N368 C366 1.350 . S
H369 C364 0.930 . S
H370 C365 0.930 . S
C371 O372 1.224 . S
C371 O390 1.247 . S
O372 C371 1.224 . S
N373 Co363 2.128 . S
N373 C374 1.355 . S
N373 C376 1.311 . S
C374 N373 1.355 . S
C374 C375 1.363 . S
C374 H386 0.929 . S
C375 C374 1.363 . S
C375 N377 1.375 . S
C375 H393 0.931 . S
C376 N373 1.311 . S
C376 N377 1.347 . S
C376 H387 0.929 . S
N377 C375 1.375 . S
N377 C376 1.347 . S
C378 C381 1.365 . S
C378 N383 1.328 . S
C378 H384 0.929 . S
C379 C380 1.362 . S
C379 C382 1.378 . S
C379 H394 0.929 . S
C380 C379 1.362 . S
C380 C381 1.366 . S
C381 C378 1.365 . S
C381 C380 1.366 . S
C381 H395 0.930 . S
C382 C379 1.378 . S
C382 N383 1.315 . S
C382 H385 0.930 . S
N383 Co363 2.194 . S
N383 C378 1.328 . S
N383 C382 1.315 . S
H384 C378 0.929 . S
H385 C382 0.930 . S
H386 C374 0.929 . S
H387 C376 0.929 . S
O388 Co363 2.351 . S
O388 C391 1.244 . S
O389 Co363 2.155 . S
O389 C391 1.240 . S
O390 Co363 2.096 . S
O390 C371 1.247 . S
C391 O388 1.244 . S
C391 O389 1.240 . S
H392 C366 0.931 . S
H393 C375 0.931 . S
H394 C379 0.929 . S
H395 C381 0.930 . S
Co396 N400 2.148 . S
Co396 N406 2.128 . S
Co396 N416 2.194 . S
Co396 O421 2.351 . S
Co396 O422 2.155 . S
Co396 O423 2.096 . S
C397 N400 1.301 . S
C397 N401 1.328 . S
C397 H402 0.930 . S
C398 C399 1.333 . S
C398 N400 1.317 . S
C398 H403 0.930 . S
C399 C398 1.333 . S
C399 N401 1.350 . S
C399 H425 0.931 . S
N400 Co396 2.148 . S
N400 C397 1.301 . S
N400 C398 1.317 . S
N401 C397 1.328 . S
N401 C399 1.350 . S
H402 C397 0.930 . S
H403 C398 0.930 . S
C404 O405 1.224 . S
C404 O423 1.247 . S
O405 C404 1.224 . S
N406 Co396 2.128 . S
N406 C407 1.355 . S
N406 C409 1.311 . S
C407 N406 1.355 . S
C407 C408 1.363 . S
C407 H419 0.929 . S
C408 C407 1.363 . S
C408 N410 1.375 . S
C408 H426 0.931 . S
C409 N406 1.311 . S
C409 N410 1.347 . S
C409 H420 0.929 . S
N410 C408 1.375 . S
N410 C409 1.347 . S
C411 C414 1.365 . S
C411 N416 1.328 . S
C411 H417 0.929 . S
C412 C413 1.362 . S
C412 C415 1.378 . S
C412 H427 0.929 . S
C413 C412 1.362 . S
C413 C414 1.366 . S
C414 C411 1.365 . S
C414 C413 1.366 . S
C414 H428 0.930 . S
C415 C412 1.378 . S
C415 N416 1.315 . S
C415 H418 0.930 . S
N416 Co396 2.194 . S
N416 C411 1.328 . S
N416 C415 1.315 . S
H417 C411 0.929 . S
H418 C415 0.930 . S
H419 C407 0.929 . S
H420 C409 0.929 . S
O421 Co396 2.351 . S
O421 C424 1.244 . S
O422 Co396 2.155 . S
O422 C424 1.240 . S
O423 Co396 2.096 . S
O423 C404 1.247 . S
C424 O421 1.244 . S
C424 O422 1.240 . S
H425 C399 0.931 . S
H426 C408 0.931 . S
H427 C412 0.929 . S
H428 C414 0.930 . S
Co429 N433 2.148 . S
Co429 N439 2.128 . S
Co429 N449 2.194 . S
Co429 O454 2.351 . S
Co429 O455 2.155 . S
Co429 O456 2.096 . S
C430 N433 1.301 . S
C430 N434 1.328 . S
C430 H435 0.930 . S
C431 C432 1.333 . S
C431 N433 1.317 . S
C431 H436 0.930 . S
C432 C431 1.333 . S
C432 N434 1.350 . S
C432 H458 0.931 . S
N433 Co429 2.148 . S
N433 C430 1.301 . S
N433 C431 1.317 . S
N434 C430 1.328 . S
N434 C432 1.350 . S
H435 C430 0.930 . S
H436 C431 0.930 . S
C437 O438 1.224 . S
C437 O456 1.247 . S
O438 C437 1.224 . S
N439 Co429 2.128 . S
N439 C440 1.355 . S
N439 C442 1.311 . S
C440 N439 1.355 . S
C440 C441 1.363 . S
C440 H452 0.929 . S
C441 C440 1.363 . S
C441 N443 1.375 . S
C441 H459 0.931 . S
C442 N439 1.311 . S
C442 N443 1.347 . S
C442 H453 0.929 . S
N443 C441 1.375 . S
N443 C442 1.347 . S
C444 C447 1.365 . S
C444 N449 1.328 . S
C444 H450 0.929 . S
C445 C446 1.362 . S
C445 C448 1.378 . S
C445 H460 0.929 . S
C446 C445 1.362 . S
C446 C447 1.366 . S
C447 C444 1.365 . S
C447 C446 1.366 . S
C447 H461 0.930 . S
C448 C445 1.378 . S
C448 N449 1.315 . S
C448 H451 0.930 . S
N449 Co429 2.194 . S
N449 C444 1.328 . S
N449 C448 1.315 . S
H450 C444 0.929 . S
H451 C448 0.930 . S
H452 C440 0.929 . S
H453 C442 0.929 . S
O454 Co429 2.351 . S
O454 C457 1.244 . S
O455 Co429 2.155 . S
O455 C457 1.240 . S
O456 Co429 2.096 . S
O456 C437 1.247 . S
C457 O454 1.244 . S
C457 O455 1.240 . S
H458 C432 0.931 . S
H459 C441 0.931 . S
H460 C445 0.929 . S
H461 C447 0.930 . S
Co462 N466 2.148 . S
Co462 N472 2.128 . S
Co462 N482 2.194 . S
Co462 O487 2.351 . S
Co462 O488 2.155 . S
Co462 O489 2.096 . S
C463 N466 1.301 . S
C463 N467 1.328 . S
C463 H468 0.930 . S
C464 C465 1.333 . S
C464 N466 1.317 . S
C464 H469 0.930 . S
C465 C464 1.333 . S
C465 N467 1.350 . S
C465 H491 0.931 . S
N466 Co462 2.148 . S
N466 C463 1.301 . S
N466 C464 1.317 . S
N467 C463 1.328 . S
N467 C465 1.350 . S
H468 C463 0.930 . S
H469 C464 0.930 . S
C470 O471 1.224 . S
C470 O489 1.247 . S
O471 C470 1.224 . S
N472 Co462 2.128 . S
N472 C473 1.355 . S
N472 C475 1.311 . S
C473 N472 1.355 . S
C473 C474 1.363 . S
C473 H485 0.929 . S
C474 C473 1.363 . S
C474 N476 1.375 . S
C474 H492 0.931 . S
C475 N472 1.311 . S
C475 N476 1.347 . S
C475 H486 0.929 . S
N476 C474 1.375 . S
N476 C475 1.347 . S
C477 C480 1.365 . S
C477 N482 1.328 . S
C477 H483 0.929 . S
C478 C479 1.362 . S
C478 C481 1.378 . S
C478 H493 0.929 . S
C479 C478 1.362 . S
C479 C480 1.366 . S
C480 C477 1.365 . S
C480 C479 1.366 . S
C480 H494 0.930 . S
C481 C478 1.378 . S
C481 N482 1.315 . S
C481 H484 0.930 . S
N482 Co462 2.194 . S
N482 C477 1.328 . S
N482 C481 1.315 . S
H483 C477 0.929 . S
H484 C481 0.930 . S
H485 C473 0.929 . S
H486 C475 0.929 . S
O487 Co462 2.351 . S
O487 C490 1.244 . S
O488 Co462 2.155 . S
O488 C490 1.240 . S
O489 Co462 2.096 . S
O489 C470 1.247 . S
C490 O487 1.244 . S
C490 O488 1.240 . S
H491 C465 0.931 . S
H492 C474 0.931 . S
H493 C478 0.929 . S
H494 C480 0.930 . S
Co495 N499 2.148 . S
Co495 N505 2.128 . S
Co495 N515 2.194 . S
Co495 O520 2.351 . S
Co495 O521 2.155 . S
Co495 O522 2.096 . S
C496 N499 1.301 . S
C496 N500 1.328 . S
C496 H501 0.930 . S
C497 C498 1.333 . S
C497 N499 1.317 . S
C497 H502 0.930 . S
C498 C497 1.333 . S
C498 N500 1.350 . S
C498 H524 0.931 . S
N499 Co495 2.148 . S
N499 C496 1.301 . S
N499 C497 1.317 . S
N500 C496 1.328 . S
N500 C498 1.350 . S
H501 C496 0.930 . S
H502 C497 0.930 . S
C503 O504 1.224 . S
C503 O522 1.247 . S
O504 C503 1.224 . S
N505 Co495 2.128 . S
N505 C506 1.355 . S
N505 C508 1.311 . S
C506 N505 1.355 . S
C506 C507 1.363 . S
C506 H518 0.929 . S
C507 C506 1.363 . S
C507 N509 1.375 . S
C507 H525 0.931 . S
C508 N505 1.311 . S
C508 N509 1.347 . S
C508 H519 0.929 . S
N509 C507 1.375 . S
N509 C508 1.347 . S
C510 C513 1.365 . S
C510 N515 1.328 . S
C510 H516 0.929 . S
C511 C512 1.362 . S
C511 C514 1.378 . S
C511 H526 0.929 . S
C512 C511 1.362 . S
C512 C513 1.366 . S
C513 C510 1.365 . S
C513 C512 1.366 . S
C513 H527 0.930 . S
C514 C511 1.378 . S
C514 N515 1.315 . S
C514 H517 0.930 . S
N515 Co495 2.194 . S
N515 C510 1.328 . S
N515 C514 1.315 . S
H516 C510 0.929 . S
H517 C514 0.930 . S
H518 C506 0.929 . S
H519 C508 0.929 . S
O520 Co495 2.351 . S
O520 C523 1.244 . S
O521 Co495 2.155 . S
O521 C523 1.240 . S
O522 Co495 2.096 . S
O522 C503 1.247 . S
C523 O520 1.244 . S
C523 O521 1.240 . S
H524 C498 0.931 . S
H525 C507 0.931 . S
H526 C511 0.929 . S
H527 C513 0.930 . S
H528 C540 0.930 . S
H529 C542 0.930 . S
H530 C543 0.930 . S
H531 C547 0.959 . S
H532 C547 0.959 . S
H533 C547 0.961 . S
H534 C548 0.960 . S
H535 C548 0.961 . S
H536 C548 0.959 . S
H537 C551 0.929 . S
H538 C552 0.931 . S
H539 C554 0.930 . S
C540 H528 0.930 . S
C540 C541 1.399 . S
C540 C545 1.399 . S
C541 C540 1.399 . S
C541 C542 1.376 . S
C542 H529 0.930 . S
C542 C541 1.376 . S
C542 C543 1.388 . S
C543 H530 0.930 . S
C543 C542 1.388 . S
C543 C544 1.390 . S
C544 C543 1.390 . S
C544 C545 1.394 . S
C544 C550 1.465 . S
C545 C540 1.399 . S
C545 C544 1.394 . S
C545 C546 1.516 . S
C546 C545 1.516 . S
C546 C547 1.502 . S
C546 C548 1.561 . S
C546 C549 1.526 . S
C547 H531 0.959 . S
C547 H532 0.959 . S
C547 H533 0.961 . S
C547 C546 1.502 . S
C548 H534 0.960 . S
C548 H535 0.961 . S
C548 H536 0.959 . S
C548 C546 1.561 . S
C549 C546 1.526 . S
C549 C550 1.396 . S
C549 C554 1.390 . S
C550 C544 1.465 . S
C550 C549 1.396 . S
C550 C551 1.399 . S
C551 H537 0.929 . S
C551 C550 1.399 . S
C551 C552 1.385 . S
C552 H538 0.931 . S
C552 C551 1.385 . S
C552 C553 1.389 . S
C553 C552 1.389 . S
C553 C554 1.387 . S
C554 H539 0.930 . S
C554 C549 1.390 . S
C554 C553 1.387 . S
H555 C567 0.930 . S
H556 C569 0.930 . S
H557 C570 0.930 . S
H558 C574 0.946 1_545 S
H559 C574 0.959 . S
H560 C574 0.961 . S
H561 C575 0.960 . S
H562 C575 0.961 . S
H563 C575 0.959 . S
H564 C578 0.929 . S
H565 C579 0.931 . S
H566 C581 0.930 1_565 S
C567 H555 0.930 . S
C567 C568 1.399 . S
C567 C572 1.399 . S
C568 C567 1.399 . S
C568 C569 1.376 . S
C569 H556 0.930 . S
C569 C568 1.376 . S
C569 C570 1.388 . S
C570 H557 0.930 . S
C570 C569 1.388 . S
C570 C571 1.390 . S
C571 C570 1.390 . S
C571 C572 1.394 . S
C571 C577 1.465 . S
C572 C567 1.399 . S
C572 C571 1.394 . S
C572 C573 1.516 . S
C573 C572 1.516 . S
C573 C574 1.502 1_545 S
C573 C575 1.561 1_545 S
C573 C576 1.526 . S
C574 H558 0.946 1_565 S
C574 H559 0.959 . S
C574 H560 0.961 . S
C574 C573 1.502 1_565 S
C575 H561 0.960 . S
C575 H562 0.961 . S
C575 H563 0.959 . S
C575 C573 1.561 1_565 S
C576 C573 1.526 . S
C576 C577 1.396 . S
C576 C581 1.390 . S
C577 C571 1.465 . S
C577 C576 1.396 . S
C577 C578 1.399 . S
C578 H564 0.929 . S
C578 C577 1.399 . S
C578 C579 1.385 . S
C579 H565 0.931 . S
C579 C578 1.385 . S
C579 C580 1.389 . S
C580 C579 1.389 . S
C580 C581 1.387 . S
C581 H566 0.930 1_545 S
C581 C576 1.390 . S
C581 C580 1.387 . S
H582 C594 0.930 . S
H583 C596 0.930 . S
H584 C597 0.930 . S
H585 C601 0.959 . S
H586 C601 0.959 . S
H587 C601 0.961 . S
H588 C602 0.960 . S
H589 C602 0.961 . S
H590 C602 0.959 . S
H591 C605 0.929 . S
H592 C606 0.931 . S
H593 C608 0.930 . S
C594 H582 0.930 . S
C594 C595 1.399 . S
C594 C599 1.399 . S
C595 C594 1.399 . S
C595 C596 1.376 . S
C596 H583 0.930 . S
C596 C595 1.376 . S
C596 C597 1.388 . S
C597 H584 0.930 . S
C597 C596 1.388 . S
C597 C598 1.390 . S
C598 C597 1.390 . S
C598 C599 1.394 . S
C598 C604 1.465 . S
C599 C594 1.399 . S
C599 C598 1.394 . S
C599 C600 1.516 . S
C600 C599 1.516 . S
C600 C601 1.502 1_455 S
C600 C602 1.561 . S
C600 C603 1.526 . S
C601 H585 0.959 . S
C601 H586 0.959 . S
C601 H587 0.961 . S
C601 C600 1.502 1_655 S
C602 H588 0.960 . S
C602 H589 0.961 . S
C602 H590 0.959 . S
C602 C600 1.561 . S
C603 C600 1.526 . S
C603 C604 1.396 . S
C603 C608 1.390 . S
C604 C598 1.465 . S
C604 C603 1.396 . S
C604 C605 1.399 . S
C605 H591 0.929 . S
C605 C604 1.399 . S
C605 C606 1.385 . S
C606 H592 0.931 . S
C606 C605 1.385 . S
C606 C607 1.389 . S
C607 C606 1.389 . S
C607 C608 1.387 . S
C608 H593 0.930 . S
C608 C603 1.390 . S
C608 C607 1.387 . S
H609 C621 0.930 . S
H610 C623 0.930 . S
H611 C624 0.930 . S
H612 C628 0.959 . S
H613 C628 0.959 . S
H614 C628 0.961 . S
H615 C629 0.960 . S
H616 C629 0.961 . S
H617 C629 0.959 . S
H618 C632 0.929 . S
H619 C633 0.931 . S
H620 C635 0.930 . S
C621 H609 0.930 . S
C621 C622 1.399 . S
C621 C626 1.399 . S
C622 C621 1.399 . S
C622 C623 1.376 . S
C623 H610 0.930 . S
C623 C622 1.376 . S
C623 C624 1.388 . S
C624 H611 0.930 . S
C624 C623 1.388 . S
C624 C625 1.390 . S
C625 C624 1.390 . S
C625 C626 1.394 . S
C625 C631 1.465 . S
C626 C621 1.399 . S
C626 C625 1.394 . S
C626 C627 1.516 . S
C627 C626 1.516 . S
C627 C628 1.502 . S
C627 C629 1.561 . S
C627 C630 1.526 . S
C628 H612 0.959 . S
C628 H613 0.959 . S
C628 H614 0.961 . S
C628 C627 1.502 . S
C629 H615 0.960 . S
C629 H616 0.961 . S
C629 H617 0.959 . S
C629 C627 1.561 . S
C630 C627 1.526 . S
C630 C631 1.396 . S
C630 C635 1.390 . S
C631 C625 1.465 . S
C631 C630 1.396 . S
C631 C632 1.399 . S
C632 H618 0.929 . S
C632 C631 1.399 . S
C632 C633 1.385 . S
C633 H619 0.931 . S
C633 C632 1.385 . S
C633 C634 1.389 . S
C634 C633 1.389 . S
C634 C635 1.387 . S
C635 H620 0.930 . S
C635 C630 1.390 . S
C635 C634 1.387 . S
H636 C648 0.930 . S
H637 C650 0.930 . S
H638 C651 0.930 . S
H639 C655 0.959 . S
H640 C655 0.959 1_554 S
H641 C655 0.961 . S
H642 C656 0.960 1_556 S
H643 C656 0.961 . S
H644 C656 0.959 . S
H645 C659 0.929 . S
H646 C660 0.931 . S
H647 C662 0.930 . S
C648 H636 0.930 . S
C648 C649 1.399 . S
C648 C653 1.399 . S
C649 C648 1.399 . S
C649 C650 1.376 . S
C650 H637 0.930 . S
C650 C649 1.376 . S
C650 C651 1.388 . S
C651 H638 0.930 . S
C651 C650 1.388 . S
C651 C652 1.390 . S
C652 C651 1.390 . S
C652 C653 1.394 . S
C652 C658 1.465 1_556 S
C653 C648 1.399 . S
C653 C652 1.394 . S
C653 C654 1.534 . S
C654 C653 1.534 . S
C654 C655 1.506 . S
C654 C656 1.557 1_556 S
C654 C657 1.508 1_556 S
C655 H639 0.959 . S
C655 H640 0.959 1_556 S
C655 H641 0.961 . S
C655 C654 1.506 . S
C656 H642 0.960 1_554 S
C656 H643 0.961 . S
C656 H644 0.959 . S
C656 C654 1.557 1_554 S
C657 C654 1.508 1_554 S
C657 C658 1.396 . S
C657 C662 1.390 . S
C658 C652 1.465 1_554 S
C658 C657 1.396 . S
C658 C659 1.399 . S
C659 H645 0.929 . S
C659 C658 1.399 . S
C659 C660 1.385 . S
C660 H646 0.931 . S
C660 C659 1.385 . S
C660 C661 1.389 . S
C661 C660 1.389 . S
C661 C662 1.387 . S
C662 H647 0.930 . S
C662 C657 1.390 . S
C662 C661 1.387 . S
H663 C675 0.930 . S
H664 C677 0.930 . S
H665 C678 0.930 . S
H666 C682 0.959 . S
H667 C682 0.959 . S
H668 C682 0.961 1_556 S
H669 C683 0.960 1_556 S
H670 C683 0.961 . S
H671 C683 0.959 . S
H672 C686 0.929 . S
H673 C687 0.931 . S
H674 C689 0.930 . S
C675 H663 0.930 . S
C675 C676 1.399 . S
C675 C680 1.399 . S
C676 C675 1.399 . S
C676 C677 1.376 . S
C677 H664 0.930 . S
C677 C676 1.376 . S
C677 C678 1.388 . S
C678 H665 0.930 . S
C678 C677 1.388 . S
C678 C679 1.390 . S
C679 C678 1.390 . S
C679 C680 1.394 . S
C679 C685 1.465 1_556 S
C680 C675 1.399 . S
C680 C679 1.394 . S
C680 C681 1.516 1_556 S
C681 C680 1.516 1_554 S
C681 C682 1.502 . S
C681 C683 1.561 . S
C681 C684 1.526 . S
C682 H666 0.959 . S
C682 H667 0.959 . S
C682 H668 0.961 1_554 S
C682 C681 1.502 . S
C683 H669 0.960 1_554 S
C683 H670 0.961 . S
C683 H671 0.959 . S
C683 C681 1.561 . S
C684 C681 1.526 . S
C684 C685 1.396 . S
C684 C689 1.390 . S
C685 C679 1.465 1_554 S
C685 C684 1.396 . S
C685 C686 1.399 . S
C686 H672 0.929 . S
C686 C685 1.399 . S
C686 C687 1.385 . S
C687 H673 0.931 . S
C687 C686 1.385 . S
C687 C688 1.389 . S
C688 C687 1.389 . S
C688 C689 1.387 . S
C689 H674 0.930 . S
C689 C684 1.390 . S
C689 C688 1.387 . S
H690 C702 0.930 . S
H691 C704 0.930 . S
H692 C705 0.930 . S
H693 C709 0.959 . S
H694 C709 0.959 1_554 S
H695 C709 0.961 . S
H696 C710 0.960 1_556 S
H697 C710 0.961 . S
H698 C710 0.959 . S
H699 C713 0.929 . S
H700 C714 0.931 . S
H701 C716 0.930 . S
C702 H690 0.930 . S
C702 C703 1.399 . S
C702 C707 1.399 . S
C703 C702 1.399 . S
C703 C704 1.376 . S
C704 H691 0.930 . S
C704 C703 1.376 . S
C704 C705 1.388 . S
C705 H692 0.930 . S
C705 C704 1.388 . S
C705 C706 1.390 . S
C706 C705 1.390 . S
C706 C707 1.394 . S
C706 C712 1.465 1_556 S
C707 C702 1.399 . S
C707 C706 1.394 . S
C707 C708 1.516 . S
C708 C707 1.516 . S
C708 C709 1.502 . S
C708 C710 1.561 1_556 S
C708 C711 1.526 1_556 S
C709 H693 0.959 . S
C709 H694 0.959 1_556 S
C709 H695 0.961 . S
C709 C708 1.502 . S
C710 H696 0.960 1_554 S
C710 H697 0.961 . S
C710 H698 0.959 . S
C710 C708 1.561 1_554 S
C711 C708 1.526 1_554 S
C711 C712 1.396 . S
C711 C716 1.390 . S
C712 C706 1.465 1_554 S
C712 C711 1.396 . S
C712 C713 1.399 . S
C713 H699 0.929 . S
C713 C712 1.399 . S
C713 C714 1.385 . S
C714 H700 0.931 . S
C714 C713 1.385 . S
C714 C715 1.389 . S
C715 C714 1.389 . S
C715 C716 1.387 . S
C716 H701 0.930 . S
C716 C711 1.390 . S
C716 C715 1.387 . S
H717 C729 0.930 . S
H718 C731 0.930 . S
H719 C732 0.930 . S
H720 C736 0.959 . S
H721 C736 0.959 . S
H722 C736 0.940 1_554 S
H723 C737 0.960 1_554 S
H724 C737 0.961 . S
H725 C737 0.959 . S
H726 C740 0.929 . S
H727 C741 0.931 . S
H728 C743 0.930 . S
C729 H717 0.930 . S
C729 C730 1.399 . S
C729 C734 1.399 . S
C730 C729 1.399 . S
C730 C731 1.376 . S
C731 H718 0.930 . S
C731 C730 1.376 . S
C731 C732 1.388 . S
C732 H719 0.930 . S
C732 C731 1.388 . S
C732 C733 1.390 . S
C733 C732 1.390 . S
C733 C734 1.394 . S
C733 C739 1.465 1_554 S
C734 C729 1.399 . S
C734 C733 1.394 . S
C734 C735 1.516 1_554 S
C735 C734 1.516 1_556 S
C735 C736 1.502 . S
C735 C737 1.561 . S
C735 C738 1.526 . S
C736 H720 0.959 . S
C736 H721 0.959 . S
C736 H722 0.940 1_556 S
C736 C735 1.502 . S
C737 H723 0.960 1_556 S
C737 H724 0.961 . S
C737 H725 0.959 . S
C737 C735 1.561 . S
C738 C735 1.526 . S
C738 C739 1.396 . S
C738 C743 1.390 . S
C739 C733 1.465 1_556 S
C739 C738 1.396 . S
C739 C740 1.399 . S
C740 H726 0.929 . S
C740 C739 1.399 . S
C740 C741 1.385 . S
C741 H727 0.931 . S
C741 C740 1.385 . S
C741 C742 1.389 . S
C742 C741 1.389 . S
C742 C743 1.387 . S
C743 H728 0.930 . S
C743 C738 1.390 . S
C743 C742 1.387 . S
H744 C756 0.930 . S
H745 C758 0.930 . S
H746 C759 0.930 . S
H747 C763 0.959 . S
H748 C763 0.959 . S
H749 C763 0.961 . S
H750 C764 0.960 . S
H751 C764 0.961 . S
H752 C764 0.959 . S
H753 C767 0.929 . S
H754 C768 0.931 . S
H755 C770 0.930 . S
C756 H744 0.930 . S
C756 C757 1.399 . S
C756 C761 1.399 . S
C757 C756 1.399 . S
C757 C758 1.376 . S
C758 H745 0.930 . S
C758 C757 1.376 . S
C758 C759 1.388 . S
C759 H746 0.930 . S
C759 C758 1.388 . S
C759 C760 1.390 . S
C760 C759 1.390 . S
C760 C761 1.394 . S
C760 C766 1.465 . S
C761 C756 1.399 . S
C761 C760 1.394 . S
C761 C762 1.516 . S
C762 C761 1.516 . S
C762 C763 1.502 . S
C762 C764 1.561 . S
C762 C765 1.526 . S
C763 H747 0.959 . S
C763 H748 0.959 . S
C763 H749 0.961 . S
C763 C762 1.502 . S
C764 H750 0.960 . S
C764 H751 0.961 . S
C764 H752 0.959 . S
C764 C762 1.561 . S
C765 C762 1.526 . S
C765 C766 1.396 . S
C765 C770 1.390 . S
C766 C760 1.465 . S
C766 C765 1.396 . S
C766 C767 1.399 . S
C767 H753 0.929 . S
C767 C766 1.399 . S
C767 C768 1.385 . S
C768 H754 0.931 . S
C768 C767 1.385 . S
C768 C769 1.389 . S
C769 C768 1.389 . S
C769 C770 1.387 . S
C770 H755 0.930 . S
C770 C765 1.390 . S
C770 C769 1.387 . S
H771 C783 0.930 . S
H772 C785 0.930 . S
H773 C786 0.930 . S
H774 C790 0.959 . S
H775 C790 0.959 . S
H776 C790 0.961 . S
H777 C791 0.960 . S
H778 C791 0.961 . S
H779 C791 0.959 . S
H780 C794 0.929 . S
H781 C795 0.931 . S
H782 C797 0.930 . S
C783 H771 0.930 . S
C783 C784 1.399 . S
C783 C788 1.399 . S
C784 C783 1.399 . S
C784 C785 1.376 . S
C785 H772 0.930 . S
C785 C784 1.376 . S
C785 C786 1.388 . S
C786 H773 0.930 . S
C786 C785 1.388 . S
C786 C787 1.390 . S
C787 C786 1.390 . S
C787 C788 1.394 . S
C787 C793 1.465 . S
C788 C783 1.399 . S
C788 C787 1.394 . S
C788 C789 1.516 . S
C789 C788 1.516 . S
C789 C790 1.502 . S
C789 C791 1.561 . S
C789 C792 1.526 . S
C790 H774 0.959 . S
C790 H775 0.959 . S
C790 H776 0.961 . S
C790 C789 1.502 . S
C791 H777 0.960 . S
C791 H778 0.961 . S
C791 H779 0.959 . S
C791 C789 1.561 . S
C792 C789 1.526 . S
C792 C793 1.396 . S
C792 C797 1.390 . S
C793 C787 1.465 . S
C793 C792 1.396 . S
C793 C794 1.399 . S
C794 H780 0.929 . S
C794 C793 1.399 . S
C794 C795 1.385 . S
C795 H781 0.931 . S
C795 C794 1.385 . S
C795 C796 1.389 . S
C796 C795 1.389 . S
C796 C797 1.387 . S
C797 H782 0.930 . S
C797 C792 1.390 . S
C797 C796 1.387 . S
H798 C810 0.930 . S
H799 C812 0.930 . S
H800 C813 0.930 . S
H801 C817 0.959 . S
H802 C817 0.959 . S
H803 C817 0.961 . S
H804 C818 0.960 . S
H805 C818 0.961 . S
H806 C818 0.959 . S
H807 C821 0.929 . S
H808 C822 0.931 . S
H809 C824 0.915 1_455 S
C810 H798 0.930 . S
C810 C811 1.399 . S
C810 C815 1.399 . S
C811 C810 1.399 . S
C811 C812 1.376 . S
C812 H799 0.930 . S
C812 C811 1.376 . S
C812 C813 1.388 . S
C813 H800 0.930 . S
C813 C812 1.388 . S
C813 C814 1.390 . S
C814 C813 1.390 . S
C814 C815 1.394 . S
C814 C820 1.465 . S
C815 C810 1.399 . S
C815 C814 1.394 . S
C815 C816 1.516 . S
C816 C815 1.516 . S
C816 C817 1.502 . S
C816 C818 1.561 . S
C816 C819 1.526 . S
C817 H801 0.959 . S
C817 H802 0.959 . S
C817 H803 0.961 . S
C817 C816 1.502 . S
C818 H804 0.960 . S
C818 H805 0.961 . S
C818 H806 0.959 . S
C818 C816 1.561 . S
C819 C816 1.526 . S
C819 C820 1.396 . S
C819 C824 1.390 . S
C820 C814 1.465 . S
C820 C819 1.396 . S
C820 C821 1.399 . S
C821 H807 0.929 . S
C821 C820 1.399 . S
C821 C822 1.385 . S
C822 H808 0.931 . S
C822 C821 1.385 . S
C822 C823 1.388 . S
C823 C822 1.388 . S
C823 C824 1.386 . S
C824 H809 0.915 1_655 S
C824 C819 1.390 . S
C824 C823 1.386 . S
H825 C837 0.930 . S
H826 C839 0.930 . S
H827 C840 0.930 1_545 S
H828 C844 0.959 . S
H829 C844 0.959 . S
H830 C844 0.961 . S
H831 C845 0.960 . S
H832 C845 0.961 . S
H833 C845 0.959 . S
H834 C848 0.929 . S
H835 C849 0.931 . S
H836 C851 0.930 . S
C837 H825 0.930 . S
C837 C838 1.399 1_565 S
C837 C842 1.399 . S
C838 C837 1.399 1_545 S
C838 C839 1.376 . S
C839 H826 0.930 . S
C839 C838 1.376 . S
C839 C840 1.388 1_545 S
C840 H827 0.930 1_565 S
C840 C839 1.388 1_565 S
C840 C841 1.390 . S
C841 C840 1.390 . S
C841 C842 1.394 . S
C841 C847 1.465 . S
C842 C837 1.399 . S
C842 C841 1.394 . S
C842 C843 1.516 . S
C843 C842 1.516 . S
C843 C844 1.502 . S
C843 C845 1.561 . S
C843 C846 1.526 . S
C844 H828 0.959 . S
C844 H829 0.959 . S
C844 H830 0.961 . S
C844 C843 1.502 . S
C845 H831 0.960 . S
C845 H832 0.961 . S
C845 H833 0.959 . S
C845 C843 1.561 . S
C846 C843 1.526 . S
C846 C847 1.396 . S
C846 C851 1.390 . S
C847 C841 1.465 . S
C847 C846 1.396 . S
C847 C848 1.399 . S
C848 H834 0.929 . S
C848 C847 1.399 . S
C848 C849 1.385 . S
C849 H835 0.931 . S
C849 C848 1.385 . S
C849 C850 1.389 . S
C850 C849 1.389 . S
C850 C851 1.387 . S
C851 H836 0.930 . S
C851 C846 1.390 . S
C851 C850 1.387 . S
H852 C864 0.930 . S
H853 C866 0.930 . S
H854 C867 0.930 . S
H855 C871 0.959 . S
H856 C871 0.959 . S
H857 C871 0.961 . S
H858 C872 0.960 . S
H859 C872 0.961 . S
H860 C872 0.959 . S
H861 C875 0.929 . S
H862 C876 0.931 . S
H863 C878 0.930 . S
C864 H852 0.930 . S
C864 C865 1.399 . S
C864 C869 1.399 . S
C865 C864 1.399 . S
C865 C866 1.376 . S
C866 H853 0.930 . S
C866 C865 1.376 . S
C866 C867 1.388 . S
C867 H854 0.930 . S
C867 C866 1.388 . S
C867 C868 1.390 . S
C868 C867 1.390 . S
C868 C869 1.394 . S
C868 C874 1.465 . S
C869 C864 1.399 . S
C869 C868 1.394 . S
C869 C870 1.516 . S
C870 C869 1.516 . S
C870 C871 1.502 . S
C870 C872 1.561 . S
C870 C873 1.526 . S
C871 H855 0.959 . S
C871 H856 0.959 . S
C871 H857 0.961 . S
C871 C870 1.502 . S
C872 H858 0.960 . S
C872 H859 0.961 . S
C872 H860 0.959 . S
C872 C870 1.561 . S
C873 C870 1.526 . S
C873 C874 1.396 . S
C873 C878 1.390 . S
C874 C868 1.465 . S
C874 C873 1.396 . S
C874 C875 1.399 . S
C875 H861 0.929 . S
C875 C874 1.399 . S
C875 C876 1.385 . S
C876 H862 0.931 . S
C876 C875 1.385 . S
C876 C877 1.389 . S
C877 C876 1.389 . S
C877 C878 1.387 . S
C878 H863 0.930 . S
C878 C873 1.390 . S
C878 C877 1.387 . S
H879 C891 0.930 . S
H880 C893 0.930 . S
H881 C894 0.930 . S
H882 C898 0.959 . S
H883 C898 0.959 . S
H884 C898 0.961 . S
H885 C899 0.960 . S
H886 C899 0.961 . S
H887 C899 0.959 . S
H888 C902 0.929 . S
H889 C903 0.931 . S
H890 C905 0.930 . S
C891 H879 0.930 . S
C891 C892 1.399 . S
C891 C896 1.399 . S
C892 C891 1.399 . S
C892 C893 1.376 . S
C893 H880 0.930 . S
C893 C892 1.376 . S
C893 C894 1.388 . S
C894 H881 0.930 . S
C894 C893 1.388 . S
C894 C895 1.390 . S
C895 C894 1.390 . S
C895 C896 1.394 . S
C895 C901 1.465 . S
C896 C891 1.399 . S
C896 C895 1.394 . S
C896 C897 1.516 . S
C897 C896 1.516 . S
C897 C898 1.502 . S
C897 C899 1.561 . S
C897 C900 1.526 . S
C898 H882 0.959 . S
C898 H883 0.959 . S
C898 H884 0.961 . S
C898 C897 1.502 . S
C899 H885 0.960 . S
C899 H886 0.961 . S
C899 H887 0.959 . S
C899 C897 1.561 . S
C900 C897 1.526 . S
C900 C901 1.396 . S
C900 C905 1.390 . S
C901 C895 1.465 . S
C901 C900 1.396 . S
C901 C902 1.399 . S
C902 H888 0.929 . S
C902 C901 1.399 . S
C902 C903 1.385 . S
C903 H889 0.931 . S
C903 C902 1.385 . S
C903 C904 1.389 . S
C904 C903 1.389 . S
C904 C905 1.387 . S
C905 H890 0.930 . S
C905 C900 1.390 . S
C905 C904 1.387 . S
H906 C918 0.930 . S
H907 C920 0.930 . S
H908 C921 0.930 . S
H909 C925 0.959 . S
H910 C925 0.959 . S
H911 C925 0.961 . S
H912 C926 0.960 . S
H913 C926 0.961 . S
H914 C926 0.959 . S
H915 C929 0.929 . S
H916 C930 0.931 . S
H917 C932 0.930 . S
C918 H906 0.930 . S
C918 C919 1.399 . S
C918 C923 1.399 . S
C919 C918 1.399 . S
C919 C920 1.376 . S
C920 H907 0.930 . S
C920 C919 1.376 . S
C920 C921 1.388 . S
C921 H908 0.930 . S
C921 C920 1.388 . S
C921 C922 1.390 . S
C922 C921 1.390 . S
C922 C923 1.394 . S
C922 C928 1.465 . S
C923 C918 1.399 . S
C923 C922 1.394 . S
C923 C924 1.516 . S
C924 C923 1.516 . S
C924 C925 1.502 . S
C924 C926 1.561 . S
C924 C927 1.526 . S
C925 H909 0.959 . S
C925 H910 0.959 . S
C925 H911 0.961 . S
C925 C924 1.502 . S
C926 H912 0.960 . S
C926 H913 0.961 . S
C926 H914 0.959 . S
C926 C924 1.561 . S
C927 C924 1.526 . S
C927 C928 1.396 . S
C927 C932 1.390 . S
C928 C922 1.465 . S
C928 C927 1.396 . S
C928 C929 1.399 . S
C929 H915 0.929 . S
C929 C928 1.399 . S
C929 C930 1.385 1_655 S
C930 H916 0.931 . S
C930 C929 1.385 1_455 S
C930 C931 1.389 . S
C931 C930 1.389 . S
C931 C932 1.387 1_455 S
C932 H917 0.930 . S
C932 C927 1.390 . S
C932 C931 1.387 1_655 S
H933 C945 0.930 . S
H934 C947 0.930 . S
H935 C948 0.930 . S
H936 C952 0.959 . S
H937 C952 0.957 . S
H938 C952 0.961 . S
H939 C953 0.960 . S
H940 C953 0.961 . S
H941 C953 0.959 . S
H942 C956 0.929 . S
H943 C957 0.931 . S
H944 C959 0.930 1_545 S
C945 H933 0.930 . S
C945 C946 1.399 . S
C945 C950 1.399 . S
C946 C945 1.399 . S
C946 C947 1.376 . S
C947 H934 0.930 . S
C947 C946 1.376 . S
C947 C948 1.388 . S
C948 H935 0.930 . S
C948 C947 1.388 . S
C948 C949 1.390 . S
C949 C948 1.390 . S
C949 C950 1.394 . S
C949 C955 1.465 . S
C950 C945 1.399 . S
C950 C949 1.394 . S
C950 C951 1.516 . S
C951 C950 1.516 . S
C951 C952 1.502 . S
C951 C953 1.561 . S
C951 C954 1.526 . S
C952 H936 0.959 . S
C952 H937 0.957 . S
C952 H938 0.961 . S
C952 C951 1.502 . S
C953 H939 0.960 . S
C953 H940 0.961 . S
C953 H941 0.959 . S
C953 C951 1.561 . S
C954 C951 1.526 . S
C954 C955 1.396 . S
C954 C959 1.390 . S
C955 C949 1.465 . S
C955 C954 1.396 . S
C955 C956 1.399 . S
C956 H942 0.929 . S
C956 C955 1.399 . S
C956 C957 1.385 . S
C957 H943 0.931 . S
C957 C956 1.385 . S
C957 C958 1.411 . S
C958 C957 1.411 . S
C958 C959 1.390 . S
C959 H944 0.930 1_565 S
C959 C954 1.390 . S
C959 C958 1.390 . S
H960 C972 0.930 . S
H961 C974 0.930 . S
H962 C975 0.930 . S
H963 C979 0.959 . S
H964 C979 0.959 . S
H965 C979 0.961 . S
H966 C980 0.960 . S
H967 C980 0.961 . S
H968 C980 0.959 . S
H969 C983 0.929 . S
H970 C984 0.931 . S
H971 C986 0.930 . S
C972 H960 0.930 . S
C972 C973 1.399 . S
C972 C977 1.399 . S
C973 C972 1.399 . S
C973 C974 1.376 . S
C974 H961 0.930 . S
C974 C973 1.376 . S
C974 C975 1.388 . S
C975 H962 0.930 . S
C975 C974 1.388 . S
C975 C976 1.390 . S
C976 C975 1.390 . S
C976 C977 1.394 . S
C976 C982 1.465 . S
C977 C972 1.399 . S
C977 C976 1.394 . S
C977 C978 1.516 . S
C978 C977 1.516 . S
C978 C979 1.502 . S
C978 C980 1.561 . S
C978 C981 1.526 . S
C979 H963 0.959 . S
C979 H964 0.959 . S
C979 H965 0.961 . S
C979 C978 1.502 . S
C980 H966 0.960 . S
C980 H967 0.961 . S
C980 H968 0.959 . S
C980 C978 1.561 . S
C981 C978 1.526 . S
C981 C982 1.396 . S
C981 C986 1.390 . S
C982 C976 1.465 . S
C982 C981 1.396 . S
C982 C983 1.399 . S
C983 H969 0.929 . S
C983 C982 1.399 . S
C983 C984 1.385 . S
C984 H970 0.931 . S
C984 C983 1.385 . S
C984 C985 1.389 . S
C985 C984 1.389 . S
C985 C986 1.387 . S
C986 H971 0.930 . S
C986 C981 1.390 . S
C986 C985 1.387 . S
H987 C999 0.930 . S
H988 C1001 0.930 . S
H989 C1002 0.930 . S
H990 C1006 0.959 . S
H991 C1006 0.959 . S
H992 C1006 0.961 . S
H993 C1007 0.960 . S
H994 C1007 0.961 . S
H995 C1007 0.959 . S
H996 C1010 0.929 . S
H997 C1011 0.931 . S
H998 C1013 0.930 . S
C999 H987 0.930 . S
C999 C1000 1.399 . S
C999 C1004 1.399 . S
C1000 C999 1.399 . S
C1000 C1001 1.376 . S
C1001 H988 0.930 . S
C1001 C1000 1.376 . S
C1001 C1002 1.388 . S
C1002 H989 0.930 . S
C1002 C1001 1.388 . S
C1002 C1003 1.390 . S
C1003 C1002 1.390 . S
C1003 C1004 1.394 . S
C1003 C1009 1.465 . S
C1004 C999 1.399 . S
C1004 C1003 1.394 . S
C1004 C1005 1.516 . S
C1005 C1004 1.516 . S
C1005 C1006 1.502 . S
C1005 C1007 1.561 . S
C1005 C1008 1.526 . S
C1006 H990 0.959 . S
C1006 H991 0.959 . S
C1006 H992 0.961 . S
C1006 C1005 1.502 . S
C1007 H993 0.960 . S
C1007 H994 0.961 . S
C1007 H995 0.959 . S
C1007 C1005 1.561 . S
C1008 C1005 1.526 . S
C1008 C1009 1.396 . S
C1008 C1013 1.390 . S
C1009 C1003 1.465 . S
C1009 C1008 1.396 . S
C1009 C1010 1.399 . S
C1010 H996 0.929 . S
C1010 C1009 1.399 . S
C1010 C1011 1.385 . S
C1011 H997 0.931 . S
C1011 C1010 1.385 . S
C1011 C1012 1.389 . S
C1012 C1011 1.389 . S
C1012 C1013 1.387 . S
C1013 H998 0.930 . S
C1013 C1008 1.390 . S
C1013 C1012 1.387 . S
H1014 C1026 0.930 . S
H1015 C1028 0.930 . S
H1016 C1029 0.930 . S
H1017 C1033 0.959 . S
H1018 C1033 0.959 . S
H1019 C1033 0.961 . S
H1020 C1034 0.960 . S
H1021 C1034 0.961 . S
H1022 C1034 0.959 . S
H1023 C1037 0.929 . S
H1024 C1038 0.931 . S
H1025 C1040 0.930 . S
C1026 H1014 0.930 . S
C1026 C1027 1.399 . S
C1026 C1031 1.399 . S
C1027 C1026 1.399 . S
C1027 C1028 1.376 . S
C1028 H1015 0.930 . S
C1028 C1027 1.376 . S
C1028 C1029 1.388 . S
C1029 H1016 0.930 . S
C1029 C1028 1.388 . S
C1029 C1030 1.390 . S
C1030 C1029 1.390 . S
C1030 C1031 1.394 . S
C1030 C1036 1.465 . S
C1031 C1026 1.399 . S
C1031 C1030 1.394 . S
C1031 C1032 1.516 . S
C1032 C1031 1.516 . S
C1032 C1033 1.502 . S
C1032 C1034 1.561 . S
C1032 C1035 1.526 . S
C1033 H1017 0.959 . S
C1033 H1018 0.959 . S
C1033 H1019 0.961 . S
C1033 C1032 1.502 . S
C1034 H1020 0.960 . S
C1034 H1021 0.961 . S
C1034 H1022 0.959 . S
C1034 C1032 1.561 . S
C1035 C1032 1.526 . S
C1035 C1036 1.396 . S
C1035 C1040 1.390 . S
C1036 C1030 1.465 . S
C1036 C1035 1.396 . S
C1036 C1037 1.399 . S
C1037 H1023 0.929 . S
C1037 C1036 1.399 . S
C1037 C1038 1.385 . S
C1038 H1024 0.931 . S
C1038 C1037 1.385 . S
C1038 C1039 1.389 . S
C1039 C1038 1.389 . S
C1039 C1040 1.387 . S
C1040 H1025 0.930 . S
C1040 C1035 1.390 . S
C1040 C1039 1.387 . S
H1041 C1053 0.930 . S
H1042 C1055 0.930 . S
H1043 C1056 0.930 . S
H1044 C1060 0.959 . S
H1045 C1060 0.959 . S
H1046 C1060 0.961 . S
H1047 C1061 0.960 . S
H1048 C1061 0.961 . S
H1049 C1061 0.959 . S
H1050 C1064 0.929 . S
H1051 C1065 0.931 . S
H1052 C1067 0.930 . S
C1053 H1041 0.930 . S
C1053 C1054 1.399 . S
C1053 C1058 1.399 . S
C1054 C1053 1.399 . S
C1054 C1055 1.376 . S
C1055 H1042 0.930 . S
C1055 C1054 1.376 . S
C1055 C1056 1.388 . S
C1056 H1043 0.930 . S
C1056 C1055 1.388 . S
C1056 C1057 1.390 . S
C1057 C1056 1.390 . S
C1057 C1058 1.394 . S
C1057 C1063 1.465 . S
C1058 C1053 1.399 . S
C1058 C1057 1.394 . S
C1058 C1059 1.516 . S
C1059 C1058 1.516 . S
C1059 C1060 1.502 . S
C1059 C1061 1.561 . S
C1059 C1062 1.526 . S
C1060 H1044 0.959 . S
C1060 H1045 0.959 . S
C1060 H1046 0.961 . S
C1060 C1059 1.502 . S
C1061 H1047 0.960 . S
C1061 H1048 0.961 . S
C1061 H1049 0.959 . S
C1061 C1059 1.561 . S
C1062 C1059 1.526 . S
C1062 C1063 1.396 . S
C1062 C1067 1.390 . S
C1063 C1057 1.465 . S
C1063 C1062 1.396 . S
C1063 C1064 1.399 . S
C1064 H1050 0.929 . S
C1064 C1063 1.399 . S
C1064 C1065 1.385 . S
C1065 H1051 0.931 . S
C1065 C1064 1.385 . S
C1065 C1066 1.389 . S
C1066 C1065 1.389 . S
C1066 C1067 1.387 . S
C1067 H1052 0.930 . S
C1067 C1062 1.390 . S
C1067 C1066 1.387 . S
H1068 C1080 0.930 . S
H1069 C1082 0.930 . S
H1070 C1083 0.930 . S
H1071 C1087 0.959 . S
H1072 C1087 0.959 . S
H1073 C1087 0.961 . S
H1074 C1088 0.960 . S
H1075 C1088 0.961 . S
H1076 C1088 0.959 . S
H1077 C1091 0.929 . S
H1078 C1092 0.931 . S
H1079 C1094 0.930 . S
C1080 H1068 0.930 . S
C1080 C1081 1.399 . S
C1080 C1085 1.399 . S
C1081 C1080 1.399 . S
C1081 C1082 1.376 . S
C1082 H1069 0.930 . S
C1082 C1081 1.376 . S
C1082 C1083 1.388 . S
C1083 H1070 0.930 . S
C1083 C1082 1.388 . S
C1083 C1084 1.390 . S
C1084 C1083 1.390 . S
C1084 C1085 1.394 . S
C1084 C1090 1.465 . S
C1085 C1080 1.399 . S
C1085 C1084 1.394 . S
C1085 C1086 1.516 . S
C1086 C1085 1.516 . S
C1086 C1087 1.502 . S
C1086 C1088 1.561 . S
C1086 C1089 1.526 . S
C1087 H1071 0.959 . S
C1087 H1072 0.959 . S
C1087 H1073 0.961 . S
C1087 C1086 1.502 . S
C1088 H1074 0.960 . S
C1088 H1075 0.961 . S
C1088 H1076 0.959 . S
C1088 C1086 1.561 . S
C1089 C1086 1.526 . S
C1089 C1090 1.396 . S
C1089 C1094 1.390 . S
C1090 C1084 1.465 . S
C1090 C1089 1.396 . S
C1090 C1091 1.399 . S
C1091 H1077 0.929 . S
C1091 C1090 1.399 . S
C1091 C1092 1.385 . S
C1092 H1078 0.931 . S
C1092 C1091 1.385 . S
C1092 C1093 1.389 . S
C1093 C1092 1.389 . S
C1093 C1094 1.387 . S
C1094 H1079 0.930 . S
C1094 C1089 1.390 . S
C1094 C1093 1.387 . S
H1095 C1107 0.930 . S
H1096 C1109 0.930 . S
H1097 C1110 0.930 . S
H1098 C1114 0.959 . S
H1099 C1114 0.959 . S
H1100 C1114 0.961 . S
H1101 C1115 0.960 . S
H1102 C1115 0.961 . S
H1103 C1115 0.959 . S
H1104 C1118 0.929 . S
H1105 C1119 0.931 . S
H1106 C1121 0.930 . S
C1107 H1095 0.930 . S
C1107 C1108 1.399 . S
C1107 C1112 1.399 . S
C1108 C1107 1.399 . S
C1108 C1109 1.376 . S
C1109 H1096 0.930 . S
C1109 C1108 1.376 . S
C1109 C1110 1.388 . S
C1110 H1097 0.930 . S
C1110 C1109 1.388 . S
C1110 C1111 1.390 . S
C1111 C1110 1.390 . S
C1111 C1112 1.394 . S
C1111 C1117 1.465 . S
C1112 C1107 1.399 . S
C1112 C1111 1.394 . S
C1112 C1113 1.516 . S
C1113 C1112 1.516 . S
C1113 C1114 1.502 . S
C1113 C1115 1.561 . S
C1113 C1116 1.526 . S
C1114 H1098 0.959 . S
C1114 H1099 0.959 . S
C1114 H1100 0.961 . S
C1114 C1113 1.502 . S
C1115 H1101 0.960 . S
C1115 H1102 0.961 . S
C1115 H1103 0.959 . S
C1115 C1113 1.561 . S
C1116 C1113 1.526 . S
C1116 C1117 1.396 . S
C1116 C1121 1.390 . S
C1117 C1111 1.465 . S
C1117 C1116 1.396 . S
C1117 C1118 1.399 . S
C1118 H1104 0.929 . S
C1118 C1117 1.399 . S
C1118 C1119 1.385 . S
C1119 H1105 0.931 . S
C1119 C1118 1.385 . S
C1119 C1120 1.389 . S
C1120 C1119 1.389 . S
C1120 C1121 1.387 . S
C1121 H1106 0.930 . S
C1121 C1116 1.390 . S
C1121 C1120 1.387 . S
H1122 C1134 0.930 . S
H1123 C1136 0.930 . S
H1124 C1137 0.930 . S
H1125 C1141 0.959 . S
H1126 C1141 0.959 . S
H1127 C1141 0.961 . S
H1128 C1142 0.960 . S
H1129 C1142 0.961 . S
H1130 C1142 0.959 . S
H1131 C1145 0.929 . S
H1132 C1146 0.931 . S
H1133 C1148 0.930 . S
C1134 H1122 0.930 . S
C1134 C1135 1.399 . S
C1134 C1139 1.399 . S
C1135 C1134 1.399 . S
C1135 C1136 1.376 . S
C1136 H1123 0.930 . S
C1136 C1135 1.376 . S
C1136 C1137 1.388 . S
C1137 H1124 0.930 . S
C1137 C1136 1.388 . S
C1137 C1138 1.390 . S
C1138 C1137 1.390 . S
C1138 C1139 1.394 . S
C1138 C1144 1.465 . S
C1139 C1134 1.399 . S
C1139 C1138 1.394 . S
C1139 C1140 1.516 . S
C1140 C1139 1.516 . S
C1140 C1141 1.502 . S
C1140 C1142 1.561 . S
C1140 C1143 1.526 . S
C1141 H1125 0.959 . S
C1141 H1126 0.959 . S
C1141 H1127 0.961 . S
C1141 C1140 1.502 . S
C1142 H1128 0.960 . S
C1142 H1129 0.961 . S
C1142 H1130 0.959 . S
C1142 C1140 1.561 . S
C1143 C1140 1.526 . S
C1143 C1144 1.396 . S
C1143 C1148 1.390 . S
C1144 C1138 1.465 . S
C1144 C1143 1.396 . S
C1144 C1145 1.399 . S
C1145 H1131 0.929 . S
C1145 C1144 1.399 . S
C1145 C1146 1.385 . S
C1146 H1132 0.931 . S
C1146 C1145 1.385 . S
C1146 C1147 1.389 . S
C1147 C1146 1.389 . S
C1147 C1148 1.387 . S
C1148 H1133 0.930 . S
C1148 C1143 1.390 . S
C1148 C1147 1.387 . S
H1149 C1161 0.930 . S
H1150 C1163 0.930 . S
H1151 C1164 0.930 . S
H1152 C1168 0.959 . S
H1153 C1168 0.959 . S
H1154 C1168 0.961 . S
H1155 C1169 0.960 . S
H1156 C1169 0.961 . S
H1157 C1169 0.959 . S
H1158 C1172 0.929 . S
H1159 C1173 0.931 . S
H1160 C1175 0.930 . S
C1161 H1149 0.930 . S
C1161 C1162 1.399 . S
C1161 C1166 1.399 . S
C1162 C1161 1.399 . S
C1162 C1163 1.376 . S
C1163 H1150 0.930 . S
C1163 C1162 1.376 . S
C1163 C1164 1.388 . S
C1164 H1151 0.930 . S
C1164 C1163 1.388 . S
C1164 C1165 1.390 . S
C1165 C1164 1.390 . S
C1165 C1166 1.394 . S
C1165 C1171 1.465 . S
C1166 C1161 1.399 . S
C1166 C1165 1.394 . S
C1166 C1167 1.516 . S
C1167 C1166 1.516 . S
C1167 C1168 1.502 . S
C1167 C1169 1.561 . S
C1167 C1170 1.526 . S
C1168 H1152 0.959 . S
C1168 H1153 0.959 . S
C1168 H1154 0.961 . S
C1168 C1167 1.502 . S
C1169 H1155 0.960 . S
C1169 H1156 0.961 . S
C1169 H1157 0.959 . S
C1169 C1167 1.561 . S
C1170 C1167 1.526 . S
C1170 C1171 1.396 . S
C1170 C1175 1.390 . S
C1171 C1165 1.465 . S
C1171 C1170 1.396 . S
C1171 C1172 1.399 . S
C1172 H1158 0.929 . S
C1172 C1171 1.399 . S
C1172 C1173 1.385 . S
C1173 H1159 0.931 . S
C1173 C1172 1.385 . S
C1173 C1174 1.389 . S
C1174 C1173 1.389 . S
C1174 C1175 1.387 . S
C1175 H1160 0.930 . S
C1175 C1170 1.390 . S
C1175 C1174 1.387 . S
H1176 C1188 0.930 . S
H1177 C1190 0.930 . S
H1178 C1191 0.930 . S
H1179 C1195 0.959 . S
H1180 C1195 0.959 . S
H1181 C1195 0.961 . S
H1182 C1196 0.960 . S
H1183 C1196 0.961 . S
H1184 C1196 0.959 . S
H1185 C1199 0.929 . S
H1186 C1200 0.931 . S
H1187 C1202 0.930 . S
C1188 H1176 0.930 . S
C1188 C1189 1.399 . S
C1188 C1193 1.399 . S
C1189 C1188 1.399 . S
C1189 C1190 1.376 . S
C1190 H1177 0.930 . S
C1190 C1189 1.376 . S
C1190 C1191 1.388 . S
C1191 H1178 0.930 . S
C1191 C1190 1.388 . S
C1191 C1192 1.390 . S
C1192 C1191 1.390 . S
C1192 C1193 1.394 . S
C1192 C1198 1.465 . S
C1193 C1188 1.399 . S
C1193 C1192 1.394 . S
C1193 C1194 1.516 . S
C1194 C1193 1.516 . S
C1194 C1195 1.502 . S
C1194 C1196 1.561 . S
C1194 C1197 1.526 . S
C1195 H1179 0.959 . S
C1195 H1180 0.959 . S
C1195 H1181 0.961 . S
C1195 C1194 1.502 . S
C1196 H1182 0.960 . S
C1196 H1183 0.961 . S
C1196 H1184 0.959 . S
C1196 C1194 1.561 . S
C1197 C1194 1.526 . S
C1197 C1198 1.396 . S
C1197 C1202 1.390 . S
C1198 C1192 1.465 . S
C1198 C1197 1.396 . S
C1198 C1199 1.399 . S
C1199 H1185 0.929 . S
C1199 C1198 1.399 . S
C1199 C1200 1.385 . S
C1200 H1186 0.931 . S
C1200 C1199 1.385 . S
C1200 C1201 1.389 . S
C1201 C1200 1.389 . S
C1201 C1202 1.387 . S
C1202 H1187 0.930 . S
C1202 C1197 1.390 . S
C1202 C1201 1.387 . S
H1203 C1215 0.930 . S
H1204 C1217 0.930 . S
H1205 C1218 0.930 . S
H1206 C1222 0.959 . S
H1207 C1222 0.959 . S
H1208 C1222 0.961 . S
H1209 C1223 0.960 . S
H1210 C1223 0.961 . S
H1211 C1223 0.959 . S
H1212 C1226 0.929 . S
H1213 C1227 0.931 . S
H1214 C1229 0.930 . S
C1215 H1203 0.930 . S
C1215 C1216 1.399 . S
C1215 C1220 1.399 . S
C1216 C1215 1.399 . S
C1216 C1217 1.376 . S
C1217 H1204 0.930 . S
C1217 C1216 1.376 . S
C1217 C1218 1.388 . S
C1218 H1205 0.930 . S
C1218 C1217 1.388 . S
C1218 C1219 1.390 . S
C1219 C1218 1.390 . S
C1219 C1220 1.394 . S
C1219 C1225 1.465 . S
C1220 C1215 1.399 . S
C1220 C1219 1.394 . S
C1220 C1221 1.516 . S
C1221 C1220 1.516 . S
C1221 C1222 1.502 . S
C1221 C1223 1.561 . S
C1221 C1224 1.526 . S
C1222 H1206 0.959 . S
C1222 H1207 0.959 . S
C1222 H1208 0.961 . S
C1222 C1221 1.502 . S
C1223 H1209 0.960 . S
C1223 H1210 0.961 . S
C1223 H1211 0.959 . S
C1223 C1221 1.561 . S
C1224 C1221 1.526 . S
C1224 C1225 1.396 . S
C1224 C1229 1.390 . S
C1225 C1219 1.465 . S
C1225 C1224 1.396 . S
C1225 C1226 1.399 . S
C1226 H1212 0.929 . S
C1226 C1225 1.399 . S
C1226 C1227 1.385 . S
C1227 H1213 0.931 . S
C1227 C1226 1.385 . S
C1227 C1228 1.389 . S
C1228 C1227 1.389 . S
C1228 C1229 1.387 . S
C1229 H1214 0.930 . S
C1229 C1224 1.390 . S
C1229 C1228 1.387 . S
H1230 C1242 0.930 . S
H1231 C1244 0.930 . S
H1232 C1245 0.930 . S
H1233 C1249 0.959 . S
H1234 C1249 0.959 1_455 S
H1235 C1249 0.961 . S
H1236 C1250 0.960 . S
H1237 C1250 0.961 1_455 S
H1238 C1250 0.959 . S
H1239 C1253 0.929 . S
H1240 C1254 0.931 . S
H1241 C1256 0.930 1_455 S
C1242 H1230 0.930 . S
C1242 C1243 1.399 . S
C1242 C1247 1.399 . S
C1243 C1242 1.399 . S
C1243 C1244 1.376 . S
C1244 H1231 0.930 . S
C1244 C1243 1.376 . S
C1244 C1245 1.388 . S
C1245 H1232 0.930 . S
C1245 C1244 1.388 . S
C1245 C1246 1.390 . S
C1246 C1245 1.390 . S
C1246 C1247 1.394 . S
C1246 C1252 1.465 . S
C1247 C1242 1.399 . S
C1247 C1246 1.394 . S
C1247 C1248 1.516 . S
C1248 C1247 1.516 . S
C1248 C1249 1.502 . S
C1248 C1250 1.561 . S
C1248 C1251 1.526 . S
C1249 H1233 0.959 . S
C1249 H1234 0.959 1_655 S
C1249 H1235 0.961 . S
C1249 C1248 1.502 . S
C1250 H1236 0.960 . S
C1250 H1237 0.961 1_655 S
C1250 H1238 0.959 . S
C1250 C1248 1.561 . S
C1251 C1248 1.526 . S
C1251 C1252 1.396 . S
C1251 C1256 1.390 . S
C1252 C1246 1.465 . S
C1252 C1251 1.396 . S
C1252 C1253 1.399 . S
C1253 H1239 0.929 . S
C1253 C1252 1.399 . S
C1253 C1254 1.385 . S
C1254 H1240 0.931 . S
C1254 C1253 1.385 . S
C1254 C1255 1.389 . S
C1255 C1254 1.389 . S
C1255 C1256 1.387 . S
C1256 H1241 0.930 1_655 S
C1256 C1251 1.390 . S
C1256 C1255 1.387 . S
H1257 C1269 0.946 . S
H1258 C1271 0.930 . S
H1259 C1272 0.930 . S
H1260 C1276 0.959 . S
H1261 C1276 0.959 . S
H1262 C1276 0.961 . S
H1263 C1277 0.960 1_545 S
H1264 C1277 0.961 . S
H1265 C1277 0.959 . S
H1266 C1280 0.929 . S
H1267 C1281 0.931 . S
H1268 C1283 0.930 . S
C1269 H1257 0.946 . S
C1269 C1270 1.399 . S
C1269 C1274 1.399 . S
C1270 C1269 1.399 . S
C1270 C1271 1.376 . S
C1271 H1258 0.930 . S
C1271 C1270 1.376 . S
C1271 C1272 1.388 . S
C1272 H1259 0.930 . S
C1272 C1271 1.388 . S
C1272 C1273 1.390 . S
C1273 C1272 1.390 . S
C1273 C1274 1.394 . S
C1273 C1279 1.465 . S
C1274 C1269 1.399 . S
C1274 C1273 1.394 . S
C1274 C1275 1.516 . S
C1275 C1274 1.516 . S
C1275 C1276 1.502 . S
C1275 C1277 1.561 . S
C1275 C1278 1.526 . S
C1276 H1260 0.959 . S
C1276 H1261 0.959 . S
C1276 H1262 0.961 . S
C1276 C1275 1.502 . S
C1277 H1263 0.960 1_565 S
C1277 H1264 0.961 . S
C1277 H1265 0.959 . S
C1277 C1275 1.561 . S
C1278 C1275 1.526 . S
C1278 C1279 1.396 . S
C1278 C1283 1.390 . S
C1279 C1273 1.465 . S
C1279 C1278 1.396 . S
C1279 C1280 1.399 . S
C1280 H1266 0.929 . S
C1280 C1279 1.399 . S
C1280 C1281 1.385 . S
C1281 H1267 0.931 . S
C1281 C1280 1.385 . S
C1281 C1282 1.389 . S
C1282 C1281 1.389 . S
C1282 C1283 1.387 . S
C1283 H1268 0.930 . S
C1283 C1278 1.390 . S
C1283 C1282 1.387 . S
H1284 C1296 0.930 . S
H1285 C1298 0.930 . S
H1286 C1299 0.930 . S
H1287 C1303 0.959 . S
H1288 C1303 0.959 . S
H1289 C1303 0.961 . S
H1290 C1304 0.960 . S
H1291 C1304 0.961 . S
H1292 C1304 0.959 . S
H1293 C1307 0.929 . S
H1294 C1308 0.931 . S
H1295 C1310 0.930 . S
C1296 H1284 0.930 . S
C1296 C1297 1.399 . S
C1296 C1301 1.399 . S
C1297 C1296 1.399 . S
C1297 C1298 1.376 . S
C1298 H1285 0.930 . S
C1298 C1297 1.376 . S
C1298 C1299 1.388 . S
C1299 H1286 0.930 . S
C1299 C1298 1.388 . S
C1299 C1300 1.390 . S
C1300 C1299 1.390 . S
C1300 C1301 1.394 . S
C1300 C1306 1.465 . S
C1301 C1296 1.399 . S
C1301 C1300 1.394 . S
C1301 C1302 1.516 . S
C1302 C1301 1.516 . S
C1302 C1303 1.502 . S
C1302 C1304 1.561 . S
C1302 C1305 1.526 . S
C1303 H1287 0.959 . S
C1303 H1288 0.959 . S
C1303 H1289 0.961 . S
C1303 C1302 1.502 . S
C1304 H1290 0.960 . S
C1304 H1291 0.961 . S
C1304 H1292 0.959 . S
C1304 C1302 1.561 . S
C1305 C1302 1.526 . S
C1305 C1306 1.396 . S
C1305 C1310 1.390 . S
C1306 C1300 1.465 . S
C1306 C1305 1.396 . S
C1306 C1307 1.399 . S
C1307 H1293 0.929 . S
C1307 C1306 1.399 . S
C1307 C1308 1.385 . S
C1308 H1294 0.931 . S
C1308 C1307 1.385 . S
C1308 C1309 1.389 . S
C1309 C1308 1.389 . S
C1309 C1310 1.387 . S
C1310 H1295 0.930 . S
C1310 C1305 1.390 . S
C1310 C1309 1.387 . S
H1311 C1323 0.930 . S
H1312 C1325 0.930 . S
H1313 C1326 0.930 . S
H1314 C1330 0.959 . S
H1315 C1330 0.959 . S
H1316 C1330 0.961 . S
H1317 C1331 0.960 . S
H1318 C1331 0.961 . S
H1319 C1331 0.959 . S
H1320 C1334 0.929 . S
H1321 C1335 0.931 . S
H1322 C1337 0.930 . S
C1323 H1311 0.930 . S
C1323 C1324 1.399 . S
C1323 C1328 1.399 . S
C1324 C1323 1.399 . S
C1324 C1325 1.376 . S
C1325 H1312 0.930 . S
C1325 C1324 1.376 . S
C1325 C1326 1.388 . S
C1326 H1313 0.930 . S
C1326 C1325 1.388 . S
C1326 C1327 1.390 . S
C1327 C1326 1.390 . S
C1327 C1328 1.394 . S
C1327 C1333 1.465 . S
C1328 C1323 1.399 . S
C1328 C1327 1.394 . S
C1328 C1329 1.516 . S
C1329 C1328 1.516 . S
C1329 C1330 1.502 . S
C1329 C1331 1.561 . S
C1329 C1332 1.526 . S
C1330 H1314 0.959 . S
C1330 H1315 0.959 . S
C1330 H1316 0.961 . S
C1330 C1329 1.502 . S
C1331 H1317 0.960 . S
C1331 H1318 0.961 . S
C1331 H1319 0.959 . S
C1331 C1329 1.561 . S
C1332 C1329 1.526 . S
C1332 C1333 1.396 . S
C1332 C1337 1.390 . S
C1333 C1327 1.465 . S
C1333 C1332 1.396 . S
C1333 C1334 1.399 . S
C1334 H1320 0.929 . S
C1334 C1333 1.399 . S
C1334 C1335 1.385 . S
C1335 H1321 0.931 . S
C1335 C1334 1.385 . S
C1335 C1336 1.389 . S
C1336 C1335 1.389 . S
C1336 C1337 1.387 . S
C1337 H1322 0.930 . S
C1337 C1332 1.390 . S
C1337 C1336 1.387 . S
H1338 C1350 0.930 . S
H1339 C1352 0.930 . S
H1340 C1353 0.930 . S
H1341 C1357 0.959 . S
H1342 C1357 0.959 . S
H1343 C1357 0.961 . S
H1344 C1358 0.960 . S
H1345 C1358 0.961 . S
H1346 C1358 0.959 . S
H1347 C1361 0.929 . S
H1348 C1362 0.931 . S
H1349 C1364 0.930 . S
C1350 H1338 0.930 . S
C1350 C1351 1.399 . S
C1350 C1355 1.399 . S
C1351 C1350 1.399 . S
C1351 C1352 1.376 . S
C1352 H1339 0.930 . S
C1352 C1351 1.376 . S
C1352 C1353 1.388 . S
C1353 H1340 0.930 . S
C1353 C1352 1.388 . S
C1353 C1354 1.390 . S
C1354 C1353 1.390 . S
C1354 C1355 1.394 . S
C1354 C1360 1.465 . S
C1355 C1350 1.399 . S
C1355 C1354 1.394 . S
C1355 C1356 1.516 . S
C1356 C1355 1.516 . S
C1356 C1357 1.502 . S
C1356 C1358 1.561 . S
C1356 C1359 1.526 . S
C1357 H1341 0.959 . S
C1357 H1342 0.959 . S
C1357 H1343 0.961 . S
C1357 C1356 1.502 . S
C1358 H1344 0.960 . S
C1358 H1345 0.961 . S
C1358 H1346 0.959 . S
C1358 C1356 1.561 . S
C1359 C1356 1.526 . S
C1359 C1360 1.396 . S
C1359 C1364 1.390 . S
C1360 C1354 1.465 . S
C1360 C1359 1.396 . S
C1360 C1361 1.399 . S
C1361 H1347 0.929 . S
C1361 C1360 1.399 . S
C1361 C1362 1.385 . S
C1362 H1348 0.931 . S
C1362 C1361 1.385 . S
C1362 C1363 1.389 . S
C1363 C1362 1.389 . S
C1363 C1364 1.387 . S
C1364 H1349 0.930 . S
C1364 C1359 1.390 . S
C1364 C1363 1.387 . S
H1365 C1377 0.930 . S
H1366 C1379 0.930 . S
H1367 C1380 0.930 . S
H1368 C1384 0.959 . S
H1369 C1384 0.959 . S
H1370 C1384 0.961 . S
H1371 C1385 0.960 . S
H1372 C1385 0.961 . S
H1373 C1385 0.959 . S
H1374 C1388 0.929 1_545 S
H1375 C1389 0.931 . S
H1376 C1391 0.930 . S
C1377 H1365 0.930 . S
C1377 C1378 1.399 . S
C1377 C1382 1.399 . S
C1378 C1377 1.399 . S
C1378 C1379 1.376 . S
C1379 H1366 0.930 . S
C1379 C1378 1.376 . S
C1379 C1380 1.388 . S
C1380 H1367 0.930 . S
C1380 C1379 1.388 . S
C1380 C1381 1.390 . S
C1381 C1380 1.390 . S
C1381 C1382 1.394 . S
C1381 C1387 1.465 . S
C1382 C1377 1.399 . S
C1382 C1381 1.394 . S
C1382 C1383 1.516 . S
C1383 C1382 1.516 . S
C1383 C1384 1.502 . S
C1383 C1385 1.561 . S
C1383 C1386 1.526 . S
C1384 H1368 0.959 . S
C1384 H1369 0.959 . S
C1384 H1370 0.961 . S
C1384 C1383 1.502 . S
C1385 H1371 0.960 . S
C1385 H1372 0.961 . S
C1385 H1373 0.959 . S
C1385 C1383 1.561 . S
C1386 C1383 1.526 . S
C1386 C1387 1.396 . S
C1386 C1391 1.390 . S
C1387 C1381 1.465 . S
C1387 C1386 1.396 . S
C1387 C1388 1.399 . S
C1388 H1374 0.929 1_565 S
C1388 C1387 1.399 . S
C1388 C1389 1.385 1_565 S
C1389 H1375 0.931 . S
C1389 C1388 1.385 1_545 S
C1389 C1390 1.389 1_545 S
C1390 C1389 1.389 1_565 S
C1390 C1391 1.387 . S
C1391 H1376 0.930 . S
C1391 C1386 1.390 . S
C1391 C1390 1.387 . S
H1392 C1404 0.930 . S
H1393 C1406 0.930 . S
H1394 C1407 0.930 . S
H1395 C1411 0.959 . S
H1396 C1411 0.959 . S
H1397 C1411 0.961 . S
H1398 C1412 0.960 . S
H1399 C1412 0.961 . S
H1400 C1412 0.959 . S
H1401 C1415 0.929 . S
H1402 C1416 0.931 . S
H1403 C1418 0.930 . S
C1404 H1392 0.930 . S
C1404 C1405 1.399 . S
C1404 C1409 1.399 . S
C1405 C1404 1.399 . S
C1405 C1406 1.376 . S
C1406 H1393 0.930 . S
C1406 C1405 1.376 . S
C1406 C1407 1.388 . S
C1407 H1394 0.930 . S
C1407 C1406 1.388 . S
C1407 C1408 1.390 . S
C1408 C1407 1.390 . S
C1408 C1409 1.394 . S
C1408 C1414 1.465 . S
C1409 C1404 1.399 . S
C1409 C1408 1.394 . S
C1409 C1410 1.516 . S
C1410 C1409 1.516 . S
C1410 C1411 1.502 . S
C1410 C1412 1.561 . S
C1410 C1413 1.526 . S
C1411 H1395 0.959 . S
C1411 H1396 0.959 . S
C1411 H1397 0.961 . S
C1411 C1410 1.502 . S
C1412 H1398 0.960 . S
C1412 H1399 0.961 . S
C1412 H1400 0.959 . S
C1412 C1410 1.561 . S
C1413 C1410 1.526 . S
C1413 C1414 1.396 . S
C1413 C1418 1.390 . S
C1414 C1408 1.465 . S
C1414 C1413 1.396 . S
C1414 C1415 1.399 . S
C1415 H1401 0.929 . S
C1415 C1414 1.399 . S
C1415 C1416 1.385 . S
C1416 H1402 0.931 . S
C1416 C1415 1.385 . S
C1416 C1417 1.389 . S
C1417 C1416 1.389 . S
C1417 C1418 1.387 . S
C1418 H1403 0.930 . S
C1418 C1413 1.390 . S
C1418 C1417 1.387 . S
H1419 C1431 0.930 . S
H1420 C1433 0.930 . S
H1421 C1434 0.930 . S
H1422 C1438 0.959 . S
H1423 C1438 0.959 . S
H1424 C1438 0.961 . S
H1425 C1439 0.960 . S
H1426 C1439 0.961 . S
H1427 C1439 0.959 . S
H1428 C1442 0.929 . S
H1429 C1443 0.931 . S
H1430 C1445 0.930 . S
C1431 H1419 0.930 . S
C1431 C1432 1.399 . S
C1431 C1436 1.399 . S
C1432 C1431 1.399 . S
C1432 C1433 1.376 . S
C1433 H1420 0.930 . S
C1433 C1432 1.376 . S
C1433 C1434 1.388 . S
C1434 H1421 0.930 . S
C1434 C1433 1.388 . S
C1434 C1435 1.390 . S
C1435 C1434 1.390 . S
C1435 C1436 1.394 . S
C1435 C1441 1.465 . S
C1436 C1431 1.399 . S
C1436 C1435 1.394 . S
C1436 C1437 1.516 . S
C1437 C1436 1.516 . S
C1437 C1438 1.502 . S
C1437 C1439 1.561 . S
C1437 C1440 1.526 . S
C1438 H1422 0.959 . S
C1438 H1423 0.959 . S
C1438 H1424 0.961 . S
C1438 C1437 1.502 . S
C1439 H1425 0.960 . S
C1439 H1426 0.961 . S
C1439 H1427 0.959 . S
C1439 C1437 1.561 . S
C1440 C1437 1.526 . S
C1440 C1441 1.396 . S
C1440 C1445 1.390 . S
C1441 C1435 1.465 . S
C1441 C1440 1.396 . S
C1441 C1442 1.399 . S
C1442 H1428 0.929 . S
C1442 C1441 1.399 . S
C1442 C1443 1.385 . S
C1443 H1429 0.931 . S
C1443 C1442 1.385 . S
C1443 C1444 1.389 . S
C1444 C1443 1.389 . S
C1444 C1445 1.387 . S
C1445 H1430 0.930 . S
C1445 C1440 1.390 . S
C1445 C1444 1.387 . S
H1446 C1458 0.930 . S
H1447 C1460 0.930 . S
H1448 C1461 0.930 . S
H1449 C1465 0.959 . S
H1450 C1465 0.959 . S
H1451 C1465 0.961 . S
H1452 C1466 0.960 . S
H1453 C1466 0.961 . S
H1454 C1466 0.959 . S
H1455 C1469 0.929 . S
H1456 C1470 0.931 . S
H1457 C1472 0.930 . S
C1458 H1446 0.930 . S
C1458 C1459 1.399 . S
C1458 C1463 1.399 . S
C1459 C1458 1.399 . S
C1459 C1460 1.376 . S
C1460 H1447 0.930 . S
C1460 C1459 1.376 . S
C1460 C1461 1.388 . S
C1461 H1448 0.930 . S
C1461 C1460 1.388 . S
C1461 C1462 1.390 . S
C1462 C1461 1.390 . S
C1462 C1463 1.394 . S
C1462 C1468 1.465 . S
C1463 C1458 1.399 . S
C1463 C1462 1.394 . S
C1463 C1464 1.516 . S
C1464 C1463 1.516 . S
C1464 C1465 1.502 . S
C1464 C1466 1.561 . S
C1464 C1467 1.526 . S
C1465 H1449 0.959 . S
C1465 H1450 0.959 . S
C1465 H1451 0.961 . S
C1465 C1464 1.502 . S
C1466 H1452 0.960 . S
C1466 H1453 0.961 . S
C1466 H1454 0.959 . S
C1466 C1464 1.561 . S
C1467 C1464 1.526 . S
C1467 C1468 1.396 . S
C1467 C1472 1.390 . S
C1468 C1462 1.465 . S
C1468 C1467 1.396 . S
C1468 C1469 1.399 . S
C1469 H1455 0.929 . S
C1469 C1468 1.399 . S
C1469 C1470 1.385 . S
C1470 H1456 0.931 . S
C1470 C1469 1.385 . S
C1470 C1471 1.389 . S
C1471 C1470 1.389 . S
C1471 C1472 1.387 . S
C1472 H1457 0.930 . S
C1472 C1467 1.390 . S
C1472 C1471 1.387 . S
H1473 C1485 0.930 . S
H1474 C1487 0.930 . S
H1475 C1488 0.930 . S
H1476 C1492 0.959 . S
H1477 C1492 0.959 . S
H1478 C1492 0.961 . S
H1479 C1493 0.960 . S
H1480 C1493 0.961 . S
H1481 C1493 0.959 . S
H1482 C1496 0.929 . S
H1483 C1497 0.931 . S
H1484 C1499 0.930 . S
C1485 H1473 0.930 . S
C1485 C1486 1.399 . S
C1485 C1490 1.399 . S
C1486 C1485 1.399 . S
C1486 C1487 1.376 . S
C1487 H1474 0.930 . S
C1487 C1486 1.376 . S
C1487 C1488 1.388 . S
C1488 H1475 0.930 . S
C1488 C1487 1.388 . S
C1488 C1489 1.390 . S
C1489 C1488 1.390 . S
C1489 C1490 1.394 . S
C1489 C1495 1.465 . S
C1490 C1485 1.399 . S
C1490 C1489 1.394 . S
C1490 C1491 1.516 . S
C1491 C1490 1.516 . S
C1491 C1492 1.502 . S
C1491 C1493 1.561 . S
C1491 C1494 1.526 . S
C1492 H1476 0.959 . S
C1492 H1477 0.959 . S
C1492 H1478 0.961 . S
C1492 C1491 1.502 . S
C1493 H1479 0.960 . S
C1493 H1480 0.961 . S
C1493 H1481 0.959 . S
C1493 C1491 1.561 . S
C1494 C1491 1.526 . S
C1494 C1495 1.396 . S
C1494 C1499 1.390 . S
C1495 C1489 1.465 . S
C1495 C1494 1.396 . S
C1495 C1496 1.399 . S
C1496 H1482 0.929 . S
C1496 C1495 1.399 . S
C1496 C1497 1.385 . S
C1497 H1483 0.931 . S
C1497 C1496 1.385 . S
C1497 C1498 1.389 . S
C1498 C1497 1.389 . S
C1498 C1499 1.387 . S
C1499 H1484 0.930 . S
C1499 C1494 1.390 . S
C1499 C1498 1.387 . S
H1500 C1512 0.930 . S
H1501 C1514 0.930 . S
H1502 C1515 0.930 . S
H1503 C1519 0.959 . S
H1504 C1519 0.959 . S
H1505 C1519 0.961 . S
H1506 C1520 0.960 . S
H1507 C1520 0.961 . S
H1508 C1520 0.959 . S
H1509 C1523 0.929 . S
H1510 C1524 0.931 . S
H1511 C1526 0.930 . S
C1512 H1500 0.930 . S
C1512 C1513 1.399 . S
C1512 C1517 1.399 . S
C1513 C1512 1.399 . S
C1513 C1514 1.376 . S
C1514 H1501 0.930 . S
C1514 C1513 1.376 . S
C1514 C1515 1.388 . S
C1515 H1502 0.930 . S
C1515 C1514 1.388 . S
C1515 C1516 1.390 . S
C1516 C1515 1.390 . S
C1516 C1517 1.394 . S
C1516 C1522 1.465 . S
C1517 C1512 1.399 . S
C1517 C1516 1.394 . S
C1517 C1518 1.516 . S
C1518 C1517 1.516 . S
C1518 C1519 1.502 . S
C1518 C1520 1.561 . S
C1518 C1521 1.526 . S
C1519 H1503 0.959 . S
C1519 H1504 0.959 . S
C1519 H1505 0.961 . S
C1519 C1518 1.502 . S
C1520 H1506 0.960 . S
C1520 H1507 0.961 . S
C1520 H1508 0.959 . S
C1520 C1518 1.561 . S
C1521 C1518 1.526 . S
C1521 C1522 1.396 . S
C1521 C1526 1.390 . S
C1522 C1516 1.465 . S
C1522 C1521 1.396 . S
C1522 C1523 1.399 . S
C1523 H1509 0.929 . S
C1523 C1522 1.399 . S
C1523 C1524 1.385 . S
C1524 H1510 0.931 . S
C1524 C1523 1.385 . S
C1524 C1525 1.389 . S
C1525 C1524 1.389 . S
C1525 C1526 1.387 . S
C1526 H1511 0.930 . S
C1526 C1521 1.390 . S
C1526 C1525 1.387 . S
H1527 C1539 0.930 . S
H1528 C1541 0.930 . S
H1529 C1542 0.930 . S
H1530 C1546 0.959 . S
H1531 C1546 0.959 . S
H1532 C1546 0.961 . S
H1533 C1547 0.960 . S
H1534 C1547 0.961 . S
H1535 C1547 0.959 . S
H1536 C1550 0.929 . S
H1537 C1551 0.931 . S
H1538 C1553 0.930 . S
C1539 H1527 0.930 . S
C1539 C1540 1.399 . S
C1539 C1544 1.399 . S
C1540 C1539 1.399 . S
C1540 C1541 1.376 . S
C1541 H1528 0.930 . S
C1541 C1540 1.376 . S
C1541 C1542 1.388 . S
C1542 H1529 0.930 . S
C1542 C1541 1.388 . S
C1542 C1543 1.390 . S
C1543 C1542 1.390 . S
C1543 C1544 1.394 . S
C1543 C1549 1.465 . S
C1544 C1539 1.399 . S
C1544 C1543 1.394 . S
C1544 C1545 1.516 . S
C1545 C1544 1.516 . S
C1545 C1546 1.502 . S
C1545 C1547 1.561 . S
C1545 C1548 1.526 . S
C1546 H1530 0.959 . S
C1546 H1531 0.959 . S
C1546 H1532 0.961 . S
C1546 C1545 1.502 . S
C1547 H1533 0.960 . S
C1547 H1534 0.961 . S
C1547 H1535 0.959 . S
C1547 C1545 1.561 . S
C1548 C1545 1.526 . S
C1548 C1549 1.396 . S
C1548 C1553 1.390 . S
C1549 C1543 1.465 . S
C1549 C1548 1.396 . S
C1549 C1550 1.399 . S
C1550 H1536 0.929 . S
C1550 C1549 1.399 . S
C1550 C1551 1.385 . S
C1551 H1537 0.931 . S
C1551 C1550 1.385 . S
C1551 C1552 1.389 . S
C1552 C1551 1.389 . S
C1552 C1553 1.387 . S
C1553 H1538 0.930 . S
C1553 C1548 1.390 . S
C1553 C1552 1.387 . S
H1554 C1566 0.930 . S
H1555 C1568 0.930 . S
H1556 C1569 0.930 . S
H1557 C1573 0.959 . S
H1558 C1573 0.959 . S
H1559 C1573 0.961 . S
H1560 C1574 0.960 . S
H1561 C1574 0.961 . S
H1562 C1574 0.959 . S
H1563 C1577 0.929 . S
H1564 C1578 0.931 . S
H1565 C1580 0.930 . S
C1566 H1554 0.930 . S
C1566 C1567 1.399 . S
C1566 C1571 1.399 . S
C1567 C1566 1.399 . S
C1567 C1568 1.376 . S
C1568 H1555 0.930 . S
C1568 C1567 1.376 . S
C1568 C1569 1.388 . S
C1569 H1556 0.930 . S
C1569 C1568 1.388 . S
C1569 C1570 1.390 . S
C1570 C1569 1.390 . S
C1570 C1571 1.394 . S
C1570 C1576 1.465 . S
C1571 C1566 1.399 . S
C1571 C1570 1.394 . S
C1571 C1572 1.516 . S
C1572 C1571 1.516 . S
C1572 C1573 1.502 . S
C1572 C1574 1.561 . S
C1572 C1575 1.526 . S
C1573 H1557 0.959 . S
C1573 H1558 0.959 . S
C1573 H1559 0.961 . S
C1573 C1572 1.502 . S
C1574 H1560 0.960 . S
C1574 H1561 0.961 . S
C1574 H1562 0.959 . S
C1574 C1572 1.561 . S
C1575 C1572 1.526 . S
C1575 C1576 1.396 . S
C1575 C1580 1.390 . S
C1576 C1570 1.465 . S
C1576 C1575 1.396 . S
C1576 C1577 1.399 . S
C1577 H1563 0.929 . S
C1577 C1576 1.399 . S
C1577 C1578 1.385 . S
C1578 H1564 0.931 . S
C1578 C1577 1.385 . S
C1578 C1579 1.389 . S
C1579 C1578 1.389 . S
C1579 C1580 1.387 . S
C1580 H1565 0.930 . S
C1580 C1575 1.390 . S
C1580 C1579 1.387 . S
H1581 C1593 0.930 . S
H1582 C1595 0.930 . S
H1583 C1596 0.930 . S
H1584 C1600 0.959 . S
H1585 C1600 0.959 . S
H1586 C1600 0.961 . S
H1587 C1601 0.960 . S
H1588 C1601 0.961 . S
H1589 C1601 0.959 . S
H1590 C1604 0.929 . S
H1591 C1605 0.931 . S
H1592 C1607 0.930 . S
C1593 H1581 0.930 . S
C1593 C1594 1.399 . S
C1593 C1598 1.399 . S
C1594 C1593 1.399 . S
C1594 C1595 1.376 . S
C1595 H1582 0.930 . S
C1595 C1594 1.376 . S
C1595 C1596 1.388 . S
C1596 H1583 0.930 . S
C1596 C1595 1.388 . S
C1596 C1597 1.390 . S
C1597 C1596 1.390 . S
C1597 C1598 1.394 . S
C1597 C1603 1.465 . S
C1598 C1593 1.399 . S
C1598 C1597 1.394 . S
C1598 C1599 1.516 . S
C1599 C1598 1.516 . S
C1599 C1600 1.502 . S
C1599 C1601 1.561 . S
C1599 C1602 1.526 . S
C1600 H1584 0.959 . S
C1600 H1585 0.959 . S
C1600 H1586 0.961 . S
C1600 C1599 1.502 . S
C1601 H1587 0.960 . S
C1601 H1588 0.961 . S
C1601 H1589 0.959 . S
C1601 C1599 1.561 . S
C1602 C1599 1.526 . S
C1602 C1603 1.396 . S
C1602 C1607 1.390 . S
C1603 C1597 1.465 . S
C1603 C1602 1.396 . S
C1603 C1604 1.399 . S
C1604 H1590 0.929 . S
C1604 C1603 1.399 . S
C1604 C1605 1.385 . S
C1605 H1591 0.931 . S
C1605 C1604 1.385 . S
C1605 C1606 1.389 . S
C1606 C1605 1.389 . S
C1606 C1607 1.387 . S
C1607 H1592 0.930 . S
C1607 C1602 1.390 . S
C1607 C1606 1.387 . S
C541 C17 1.496 . S
C553 C215 1.479 . S
C568 C248 1.525 . S
C580 C50 1.495 . S
C595 C149 1.498 . S
C607 C83 1.526 . S
C622 C182 1.523 . S
C634 C116 1.517 . S
C649 C281 1.494 . S
C661 C479 1.479 . S
C676 C314 1.479 . S
C688 C512 1.493 . S
C703 C347 1.497 . S
C715 C413 1.479 . S
C730 C446 1.480 . S
C742 C380 1.512 . S
C757 C28 1.434 . S
C769 N104 1.487 . S
C784 C61 1.516 . S
C796 N5 1.423 . S
C811 N38 1.406 . S
C823 C94 1.506 1_655 S
C838 C127 1.479 . S
C850 N71 1.482 . S
C865 N170 1.470 . S
C877 C160 1.492 . S
C892 N203 1.492 . S
C904 C193 1.468 . S
C919 N236 1.500 . S
C931 C226 1.450 . S
C946 N137 1.413 . S
C958 C259 1.465 1_565 S
C973 C292 1.509 . S
C985 N368 1.407 . S
C1000 N269 1.407 . S
C1012 C325 1.496 . S
C1027 C358 1.463 . S
C1039 N302 1.494 . S
C1054 C391 1.435 . S
C1066 N335 1.489 . S
C1081 C424 1.511 . S
C1093 N434 1.439 . S
C1108 C457 1.513 . S
C1120 N467 1.410 . S
C1135 C490 1.435 . S
C1147 N500 1.481 . S
C1162 N401 1.498 . S
C1174 C523 1.455 . S
C1189 N509 1.215 . S
C1201 N14 1.243 . S
C1216 N47 1.274 . S
C1228 N410 1.255 . S
C1243 N443 1.199 . S
C1255 N80 1.201 1_655 S
C1270 N113 1.251 1_565 S
C1282 N476 1.231 . S
C1297 N311 1.218 . S
C1309 N146 1.246 . S
C1324 N179 1.217 . S
C1336 N344 1.244 . S
C1351 N212 1.269 1_655 S
C1363 N377 1.256 . S
C1378 N278 1.274 . S
C1390 N245 1.250 1_565 S
C1405 C140 1.434 . S
C1417 C371 1.484 . S
C1432 C173 1.439 . S
C1444 C272 1.482 . S
C1459 C206 1.449 . S
C1471 C305 1.474 . S
C1486 C338 1.482 . S
C1498 C239 1.424 . S
C1513 C8 1.461 . S
C1525 C437 1.464 . S
C1540 C470 1.432 . S
C1552 C41 1.486 . S
C1567 C74 1.424 . S
C1579 C503 1.487 . S
C1594 C107 1.435 . S
C1606 C404 1.464 . S
