# Generated by pormake.
# Topology umc, (4)-cn, num edge types: 1
# Building blocks:
#     Node 0, Type 0, BuildingBlock: NAWXER_clean_sbu_0, # of connection points: 4
#     Node 1, Type 0, BuildingBlock: NAWXER_clean_sbu_0, # of connection points: 4
#     Node 2, Type 0, BuildingBlock: NAWXER_clean_sbu_0, # of connection points: 4
#     Node 3, Type 0, BuildingBlock: NAWXER_clean_sbu_0, # of connection points: 4
#     Node 4, Type 0, BuildingBlock: NAWXER_clean_sbu_0, # of connection points: 4
#     Node 5, Type 0, BuildingBlock: NAWXER_clean_sbu_0, # of connection points: 4
#     Node 6, Type 0, BuildingBlock: NAWXER_clean_sbu_0, # of connection points: 4
#     Node 7, Type 0, BuildingBlock: NAWXER_clean_sbu_0, # of connection points: 4
#     Node 8, Type 0, BuildingBlock: NAWXER_clean_sbu_0, # of connection points: 4
#     Node 9, Type 0, BuildingBlock: NAWXER_clean_sbu_0, # of connection points: 4
#     Node 10, Type 0, BuildingBlock: NAWXER_clean_sbu_0, # of connection points: 4
#     Node 11, Type 0, BuildingBlock: NAWXER_clean_sbu_0, # of connection points: 4
#     Node 12, Type 0, BuildingBlock: NAWXER_clean_sbu_0, # of connection points: 4
#     Node 13, Type 0, BuildingBlock: NAWXER_clean_sbu_0, # of connection points: 4
#     Node 14, Type 0, BuildingBlock: NAWXER_clean_sbu_0, # of connection points: 4
#     Node 15, Type 0, BuildingBlock: NAWXER_clean_sbu_0, # of connection points: 4
#     Edge 16, Type (0, 0), BuildingBlock: XIVTED_clean_linker_0, # of connection points: 2
#     Edge 17, Type (0, 0), BuildingBlock: XIVTED_clean_linker_0, # of connection points: 2
#     Edge 18, Type (0, 0), BuildingBlock: XIVTED_clean_linker_0, # of connection points: 2
#     Edge 19, Type (0, 0), BuildingBlock: XIVTED_clean_linker_0, # of connection points: 2
#     Edge 20, Type (0, 0), BuildingBlock: XIVTED_clean_linker_0, # of connection points: 2
#     Edge 21, Type (0, 0), BuildingBlock: XIVTED_clean_linker_0, # of connection points: 2
#     Edge 22, Type (0, 0), BuildingBlock: XIVTED_clean_linker_0, # of connection points: 2
#     Edge 23, Type (0, 0), BuildingBlock: XIVTED_clean_linker_0, # of connection points: 2
#     Edge 24, Type (0, 0), BuildingBlock: XIVTED_clean_linker_0, # of connection points: 2
#     Edge 25, Type (0, 0), BuildingBlock: XIVTED_clean_linker_0, # of connection points: 2
#     Edge 26, Type (0, 0), BuildingBlock: XIVTED_clean_linker_0, # of connection points: 2
#     Edge 27, Type (0, 0), BuildingBlock: XIVTED_clean_linker_0, # of connection points: 2
#     Edge 28, Type (0, 0), BuildingBlock: XIVTED_clean_linker_0, # of connection points: 2
#     Edge 29, Type (0, 0), BuildingBlock: XIVTED_clean_linker_0, # of connection points: 2
#     Edge 30, Type (0, 0), BuildingBlock: XIVTED_clean_linker_0, # of connection points: 2
#     Edge 31, Type (0, 0), BuildingBlock: XIVTED_clean_linker_0, # of connection points: 2
#     Edge 32, Type (0, 0), BuildingBlock: XIVTED_clean_linker_0, # of connection points: 2
#     Edge 33, Type (0, 0), BuildingBlock: XIVTED_clean_linker_0, # of connection points: 2
#     Edge 34, Type (0, 0), BuildingBlock: XIVTED_clean_linker_0, # of connection points: 2
#     Edge 35, Type (0, 0), BuildingBlock: XIVTED_clean_linker_0, # of connection points: 2
#     Edge 36, Type (0, 0), BuildingBlock: XIVTED_clean_linker_0, # of connection points: 2
#     Edge 37, Type (0, 0), BuildingBlock: XIVTED_clean_linker_0, # of connection points: 2
#     Edge 38, Type (0, 0), BuildingBlock: XIVTED_clean_linker_0, # of connection points: 2
#     Edge 39, Type (0, 0), BuildingBlock: XIVTED_clean_linker_0, # of connection points: 2
#     Edge 40, Type (0, 0), BuildingBlock: XIVTED_clean_linker_0, # of connection points: 2
#     Edge 41, Type (0, 0), BuildingBlock: XIVTED_clean_linker_0, # of connection points: 2
#     Edge 42, Type (0, 0), BuildingBlock: XIVTED_clean_linker_0, # of connection points: 2
#     Edge 43, Type (0, 0), BuildingBlock: XIVTED_clean_linker_0, # of connection points: 2
#     Edge 44, Type (0, 0), BuildingBlock: XIVTED_clean_linker_0, # of connection points: 2
#     Edge 45, Type (0, 0), BuildingBlock: XIVTED_clean_linker_0, # of connection points: 2
#     Edge 46, Type (0, 0), BuildingBlock: XIVTED_clean_linker_0, # of connection points: 2
#     Edge 47, Type (0, 0), BuildingBlock: XIVTED_clean_linker_0, # of connection points: 2
# Relax obj value: 0.015
# Max RMSD: 0.104
# Mean RMSD: 0.104
data_MOF--net-umc--node1-NAWXER_clean_sbu_0--edge1-XIVTED_clean_linker_0
_symmetry_space_group_name_H-M    P1
_symmetry_Int_Tables_number       1
_symmetry_cell_setting            triclinic
loop_
_symmetry_equiv_pos_as_xyz
'x, y, z'
_cell_length_a     55.155711
_cell_length_b     21.970089
_cell_length_c     59.266524
_cell_angle_alpha  89.983968
_cell_angle_beta   90.068926
_cell_angle_gamma 90.117061
loop_
_atom_site_label
_atom_site_type_symbol
_atom_site_fract_x
_atom_site_fract_y
_atom_site_fract_z
_atom_type_partial_charge
C0 C 0.37531 0.07539 0.41332 0.0
C1 C 0.36592 0.05268 0.33134 0.0
O2 O 0.38181 0.12218 0.40193 0.0
Zn3 Zn 0.38427 0.15122 0.36779 0.0
O4 O 0.36758 0.02832 0.40303 0.0
Zn5 Zn 0.37051 0.05973 0.3724 0.0
O6 O 0.40853 0.06642 0.36823 0.0
O7 O 0.41918 0.16258 0.36393 0.0
O8 O 0.36137 0.01183 0.34601 0.0
O9 O 0.37431 0.10436 0.33767 0.0
O10 O 0.36153 0.21904 0.36728 0.0
O11 O 0.34392 0.12953 0.37188 0.0
C12 C 0.42502 0.10662 0.36513 0.0
C13 C 0.34234 0.1874 0.36983 0.0
C14 C 0.67514 0.85584 0.37461 0.0
C15 C 0.59652 0.95607 0.36718 0.0
O16 O 0.67635 0.91405 0.37598 0.0
Zn17 Zn 0.6525 0.99111 0.37489 0.0
O18 O 0.65467 0.83018 0.37172 0.0
Zn19 Zn 0.6355 0.90368 0.37084 0.0
O20 O 0.64782 0.94483 0.34052 0.0
O21 O 0.66391 0.03459 0.3482 0.0
O22 O 0.60083 0.89927 0.36632 0.0
O23 O 0.61405 0.99353 0.37028 0.0
O24 O 0.65629 0.02491 0.40521 0.0
O25 O 0.63828 0.93517 0.40461 0.0
C26 C 0.65821 0.9938 0.33388 0.0
C27 C 0.64635 0.98091 0.41572 0.0
C28 C 0.36701 9e-05 0.08105 0.0
C29 C 0.36297 0.00259 0.16356 0.0
O30 O 0.3741 0.95034 0.09024 0.0
Zn31 Zn 0.37863 0.91286 0.12335 0.0
O32 O 0.3603 0.04406 0.0935 0.0
Zn33 Zn 0.36534 0.00362 0.12231 0.0
O34 O 0.40409 0.99556 0.12411 0.0
O35 O 0.41305 0.89779 0.12498 0.0
O36 O 0.35776 0.04575 0.1501 0.0
O37 O 0.37082 0.95208 0.15563 0.0
O38 O 0.3567 0.84455 0.12269 0.0
O39 O 0.33813 0.93343 0.12164 0.0
C40 C 0.41995 0.95301 0.12506 0.0
C41 C 0.33716 0.87509 0.12187 0.0
C42 C 0.65506 0.02719 0.1661 0.0
C43 C 0.64778 0.02269 0.08392 0.0
O44 O 0.64647 0.07666 0.15792 0.0
Zn45 Zn 0.63695 0.11262 0.12558 0.0
O46 O 0.65989 0.98312 0.15296 0.0
Zn47 Zn 0.65094 0.02256 0.12497 0.0
O48 O 0.6775 0.0943 0.12252 0.0
O49 O 0.6581 0.1821 0.1233 0.0
O50 O 0.65548 0.98003 0.09654 0.0
O51 O 0.64056 0.07263 0.09283 0.0
O52 O 0.60256 0.12608 0.1279 0.0
O53 O 0.61209 0.02865 0.12729 0.0
C54 C 0.67788 0.15269 0.12204 0.0
C55 C 0.59598 0.07064 0.12821 0.0
C56 C 0.63612 0.93631 0.58395 0.0
C57 C 0.64127 0.93167 0.66578 0.0
O58 O 0.64226 0.97871 0.59734 0.0
Zn59 Zn 0.6383 0.93338 0.62485 0.0
O60 O 0.62995 0.88422 0.59198 0.0
Zn61 Zn 0.6267 0.84208 0.62485 0.0
O62 O 0.59254 0.82124 0.62636 0.0
O63 O 0.59958 0.92003 0.62702 0.0
O64 O 0.63418 0.88015 0.65789 0.0
O65 O 0.64557 0.97527 0.6523 0.0
O66 O 0.66703 0.86705 0.6228 0.0
O67 O 0.64975 0.77647 0.62296 0.0
C68 C 0.58454 0.87533 0.62742 0.0
C69 C 0.66885 0.80886 0.62219 0.0
C70 C 0.37976 0.09515 0.58272 0.0
C71 C 0.37873 0.11765 0.66517 0.0
O72 O 0.37207 0.04859 0.59359 0.0
Zn73 Zn 0.3655 0.01872 0.62713 0.0
O74 O 0.38628 0.14265 0.59351 0.0
Zn75 Zn 0.37938 0.11197 0.6238 0.0
O76 O 0.40594 0.04332 0.62743 0.0
O77 O 0.38933 0.95193 0.62968 0.0
O78 O 0.38423 0.15988 0.65137 0.0
O79 O 0.37192 0.06555 0.65787 0.0
O80 O 0.32977 0.00833 0.62727 0.0
O81 O 0.34152 0.10351 0.62243 0.0
C82 C 0.4082 0.98564 0.62956 0.0
C83 C 0.32453 0.06404 0.62377 0.0
C84 C 0.64936 0.01986 0.9146 0.0
C85 C 0.65167 0.00639 0.83242 0.0
O86 O 0.65558 0.97414 0.90282 0.0
Zn87 Zn 0.65104 0.01236 0.87358 0.0
O88 O 0.64316 0.06939 0.90472 0.0
Zn89 Zn 0.63937 0.10389 0.8711 0.0
O90 O 0.60539 0.12402 0.86985 0.0
O91 O 0.61217 0.02535 0.87245 0.0
O92 O 0.64521 0.05906 0.83949 0.0
O93 O 0.65677 0.96491 0.84659 0.0
O94 O 0.67987 0.07943 0.87291 0.0
O95 O 0.66244 0.16943 0.87042 0.0
C96 C 0.59725 0.06998 0.87105 0.0
C97 C 0.6816 0.13765 0.87174 0.0
C98 C 0.36346 0.01697 0.91156 0.0
C99 C 0.3667 0.04563 0.8299 0.0
O100 O 0.35694 0.06337 0.90029 0.0
Zn101 Zn 0.3635 0.03002 0.87064 0.0
O102 O 0.37107 0.96959 0.90112 0.0
Zn103 Zn 0.37719 0.94146 0.86683 0.0
O104 O 0.41114 0.92386 0.86723 0.0
O105 O 0.40299 0.0216 0.87117 0.0
O106 O 0.37393 0.99269 0.83605 0.0
O107 O 0.3583 0.082 0.84458 0.0
O108 O 0.33594 0.9596 0.86726 0.0
O109 O 0.35574 0.87346 0.86301 0.0
C110 C 0.41854 0.97825 0.86967 0.0
C111 C 0.33575 0.90157 0.8645 0.0
C112 C 0.8619 0.48743 0.41019 0.0
C113 C 0.85446 0.50746 0.32855 0.0
O114 O 0.86959 0.53853 0.40256 0.0
Zn115 Zn 0.87286 0.58492 0.37106 0.0
O116 O 0.85303 0.44836 0.39667 0.0
Zn117 Zn 0.85798 0.49585 0.36939 0.0
O118 O 0.89706 0.50075 0.36711 0.0
O119 O 0.9072 0.59784 0.36888 0.0
O120 O 0.84898 0.46149 0.34055 0.0
O121 O 0.86339 0.55499 0.33794 0.0
O122 O 0.85234 0.6546 0.37504 0.0
O123 O 0.83195 0.56823 0.37318 0.0
C124 C 0.91343 0.54239 0.36716 0.0
C125 C 0.8322 0.6264 0.37512 0.0
C126 C 0.14004 0.46938 0.41442 0.0
C127 C 0.14663 0.48956 0.33218 0.0
O128 O 0.13416 0.42148 0.40337 0.0
Zn129 Zn 0.13143 0.39059 0.36949 0.0
O130 O 0.14655 0.517 0.40377 0.0
Zn131 Zn 0.14312 0.48351 0.37337 0.0
O132 O 0.10485 0.47083 0.37033 0.0
O133 O 0.0971 0.37282 0.36643 0.0
O134 O 0.15049 0.53159 0.34654 0.0
O135 O 0.13956 0.43707 0.33892 0.0
O136 O 0.15518 0.3259 0.36893 0.0
O137 O 0.17148 0.41728 0.37263 0.0
C138 C 0.08955 0.42737 0.36775 0.0
C139 C 0.17391 0.35948 0.37087 0.0
C140 C 0.86802 0.50492 0.07861 0.0
C141 C 0.85786 0.50224 0.16044 0.0
O142 O 0.87521 0.45577 0.0881 0.0
Zn143 Zn 0.87753 0.41642 0.12079 0.0
O144 O 0.85896 0.5473 0.09053 0.0
Zn145 Zn 0.86282 0.50642 0.1195 0.0
O146 O 0.90156 0.50168 0.12306 0.0
O147 O 0.91194 0.40478 0.12438 0.0
O148 O 0.85311 0.54643 0.14729 0.0
O149 O 0.86689 0.45314 0.15243 0.0
O150 O 0.85662 0.34637 0.11832 0.0
O151 O 0.83684 0.4336 0.11711 0.0
C152 C 0.91798 0.46064 0.12469 0.0
C153 C 0.83671 0.37521 0.1169 0.0
C154 C 0.09368 0.58074 0.1252 0.0
C155 C 0.17589 0.66297 0.12246 0.0
O156 O 0.10997 0.53926 0.12434 0.0
Zn157 Zn 0.14871 0.53316 0.12284 0.0
O158 O 0.09999 0.63643 0.12521 0.0
Zn159 Zn 0.1346 0.62358 0.12382 0.0
O160 O 0.13949 0.58626 0.09084 0.0
O161 O 0.15421 0.49333 0.09396 0.0
O162 O 0.15618 0.69288 0.12322 0.0
O163 O 0.17524 0.60463 0.12226 0.0
O164 O 0.15643 0.49169 0.15082 0.0
O165 O 0.14253 0.58473 0.15605 0.0
C166 C 0.14704 0.53709 0.08159 0.0
C167 C 0.15073 0.53474 0.16415 0.0
C168 C 0.14176 0.42024 0.58297 0.0
C169 C 0.14788 0.42611 0.66468 0.0
O170 O 0.15097 0.46096 0.59553 0.0
Zn171 Zn 0.1446 0.42168 0.62376 0.0
O172 O 0.13261 0.37214 0.59197 0.0
Zn173 Zn 0.12754 0.33672 0.62599 0.0
O174 O 0.09287 0.33016 0.62818 0.0
O175 O 0.10543 0.42519 0.62574 0.0
O176 O 0.13762 0.37673 0.65806 0.0
O177 O 0.15473 0.46492 0.65017 0.0
O178 O 0.16856 0.34351 0.62285 0.0
O179 O 0.14562 0.26158 0.62589 0.0
C180 C 0.08802 0.38658 0.62734 0.0
C181 C 0.16651 0.28529 0.6239 0.0
C182 C 0.83189 0.60594 0.61643 0.0
C183 C 0.91457 0.52608 0.62238 0.0
O184 O 0.85151 0.63645 0.61687 0.0
Zn185 Zn 0.8736 0.56807 0.61915 0.0
O186 O 0.83278 0.54765 0.61716 0.0
Zn187 Zn 0.85947 0.4771 0.61925 0.0
O188 O 0.85142 0.43804 0.64759 0.0
O189 O 0.86498 0.53212 0.65156 0.0
O190 O 0.89824 0.48446 0.62167 0.0
O191 O 0.9083 0.58173 0.62147 0.0
O192 O 0.87058 0.52571 0.58693 0.0
O193 O 0.85492 0.43372 0.59095 0.0
C194 C 0.85678 0.48284 0.66026 0.0
C195 C 0.8634 0.47533 0.57828 0.0
C196 C 0.15467 0.5327 0.91222 0.0
C197 C 0.15756 0.51309 0.83033 0.0
O198 O 0.16297 0.48866 0.90071 0.0
Zn199 Zn 0.15664 0.52313 0.87124 0.0
O200 O 0.1462 0.57961 0.90202 0.0
Zn201 Zn 0.14087 0.61015 0.86789 0.0
O202 O 0.10611 0.61969 0.86633 0.0
O203 O 0.11744 0.52401 0.86989 0.0
O204 O 0.14877 0.56435 0.83664 0.0
O205 O 0.16449 0.47487 0.84508 0.0
O206 O 0.18219 0.59808 0.86923 0.0
O207 O 0.16079 0.68234 0.86623 0.0
C208 C 0.10052 0.56372 0.86796 0.0
C209 C 0.1813 0.65631 0.86737 0.0
C210 C 0.87206 0.48709 0.91019 0.0
C211 C 0.86647 0.47287 0.82841 0.0
O212 O 0.86402 0.5273 0.89671 0.0
Zn213 Zn 0.86961 0.48166 0.86929 0.0
O214 O 0.87985 0.43633 0.90238 0.0
Zn215 Zn 0.88425 0.39213 0.87043 0.0
O216 O 0.91906 0.38053 0.86887 0.0
O217 O 0.90852 0.47722 0.86767 0.0
O218 O 0.87522 0.42459 0.83741 0.0
O219 O 0.86109 0.51808 0.8408 0.0
O220 O 0.84342 0.40933 0.87191 0.0
O221 O 0.86302 0.32195 0.87317 0.0
C222 C 0.92509 0.43633 0.8677 0.0
C223 C 0.8431 0.35104 0.87318 0.0
H224 H 0.39061 0.1705 0.4394 0.0
H225 H 0.36796 0.99824 0.55622 0.0
H226 H 0.36341 0.98653 0.44425 0.0
H227 H 0.39262 0.18461 0.55212 0.0
H228 H 0.36747 0.99275 0.51531 0.0
H229 H 0.3926 0.17572 0.4804 0.0
C230 C 0.38507 0.13103 0.44906 0.0
C231 C 0.37678 0.07788 0.43828 0.0
C232 C 0.37303 0.03488 0.52328 0.0
C233 C 0.37906 0.08382 0.48546 0.0
C234 C 0.37334 0.03817 0.54673 0.0
C235 C 0.38031 0.09216 0.55773 0.0
C236 C 0.37973 0.08589 0.51052 0.0
C237 C 0.38712 0.14211 0.5444 0.0
C238 C 0.38622 0.13418 0.47254 0.0
C239 C 0.36988 0.02839 0.45179 0.0
N240 N 0.38662 0.13779 0.52147 0.0
N241 N 0.37116 0.03261 0.47467 0.0
H242 H 0.62006 0.8589 0.55122 0.0
H243 H 0.66347 0.06435 0.44701 0.0
H244 H 0.6531 0.03554 0.56033 0.0
H245 H 0.62397 0.89509 0.44129 0.0
H246 H 0.66021 0.05686 0.48834 0.0
H247 H 0.62178 0.8732 0.5106 0.0
C248 C 0.62765 0.90085 0.54467 0.0
C249 C 0.63648 0.94601 0.55924 0.0
C250 C 0.65222 0.02163 0.47794 0.0
C251 C 0.63861 0.9628 0.51246 0.0
C252 C 0.65407 0.02589 0.45438 0.0
C253 C 0.6441 0.98017 0.44063 0.0
C254 C 0.64037 0.97127 0.48766 0.0
C255 C 0.63208 0.93136 0.45111 0.0
C256 C 0.62861 0.90908 0.52141 0.0
C257 C 0.64606 0.99952 0.54971 0.0
N258 N 0.63065 0.9282 0.47388 0.0
N259 N 0.64697 0.00637 0.52688 0.0
H260 H 0.38035 0.91337 0.05073 0.0
H261 H 0.34982 0.10951 0.94036 0.0
H262 H 0.35233 0.09649 0.05437 0.0
H263 H 0.37608 0.92451 0.93987 0.0
H264 H 0.35039 0.10754 0.9818 0.0
H265 H 0.37893 0.91878 0.00988 0.0
C266 C 0.3739 0.95492 0.04295 0.0
C267 C 0.36644 0.00458 0.0561 0.0
C268 C 0.35598 0.06745 0.97256 0.0
C269 C 0.36472 0.01106 0.0089 0.0
C270 C 0.35563 0.0685 0.94892 0.0
C271 C 0.36293 0.01711 0.93657 0.0
C272 C 0.36369 0.01467 0.98387 0.0
C273 C 0.37031 0.96527 0.94858 0.0
C274 C 0.37307 0.95795 0.01952 0.0
C275 C 0.35827 0.05712 0.04491 0.0
N276 N 0.37052 0.96548 0.97146 0.0
N277 N 0.35762 0.05901 0.02192 0.0
H278 H 0.63387 0.10784 0.94334 0.0
H279 H 0.66447 0.92806 0.05736 0.0
H280 H 0.66361 0.92615 0.94281 0.0
H281 H 0.63023 0.10441 0.05367 0.0
H282 H 0.66463 0.92394 0.01585 0.0
H283 H 0.63296 0.10521 0.98415 0.0
C284 C 0.64025 0.06721 0.95181 0.0
C285 C 0.64887 0.01715 0.93955 0.0
C286 C 0.65704 0.96332 0.02423 0.0
C287 C 0.64787 0.01379 0.98675 0.0
C288 C 0.65692 0.96568 0.04788 0.0
C289 C 0.64742 0.01676 0.05904 0.0
C290 C 0.64762 0.01241 0.0118 0.0
C291 C 0.63787 0.06418 0.04591 0.0
C292 C 0.63968 0.06569 0.97523 0.0
C293 C 0.65682 0.96578 0.9516 0.0
N294 N 0.63829 0.06084 0.02311 0.0
N295 N 0.65618 0.96543 0.9746 0.0
H296 H 0.89297 0.53728 0.5501 0.0
H297 H 0.83852 0.3998 0.43575 0.0
H298 H 0.83875 0.39536 0.55038 0.0
H299 H 0.88966 0.54833 0.44039 0.0
H300 H 0.84061 0.38819 0.47707 0.0
H301 H 0.8946 0.53195 0.50936 0.0
C302 C 0.88137 0.50478 0.54153 0.0
C303 C 0.86545 0.46729 0.55363 0.0
C304 C 0.85145 0.42295 0.46892 0.0
C305 C 0.86705 0.46117 0.50658 0.0
C306 C 0.8503 0.42952 0.4454 0.0
C307 C 0.86372 0.47555 0.43466 0.0
C308 C 0.86626 0.46242 0.48156 0.0
C309 C 0.87872 0.51275 0.44791 0.0
C310 C 0.88233 0.50166 0.51818 0.0
C311 C 0.85119 0.42528 0.54162 0.0
N312 N 0.87949 0.50546 0.47056 0.0
N313 N 0.85211 0.42377 0.51863 0.0
H314 H 0.1234 0.34254 0.55118 0.0
H315 H 0.15625 0.55488 0.44526 0.0
H316 H 0.15876 0.51704 0.55818 0.0
H317 H 0.12265 0.3776 0.44062 0.0
H318 H 0.15643 0.54486 0.48659 0.0
H319 H 0.12229 0.3571 0.51045 0.0
C320 C 0.13097 0.38395 0.54416 0.0
C321 C 0.14123 0.42854 0.55816 0.0
C322 C 0.14898 0.50834 0.47645 0.0
C323 C 0.13998 0.44573 0.51134 0.0
C324 C 0.14882 0.51412 0.45289 0.0
C325 C 0.13952 0.46697 0.43941 0.0
C326 C 0.13972 0.45513 0.48651 0.0
C327 C 0.13015 0.41509 0.45022 0.0
C328 C 0.13031 0.39232 0.52085 0.0
C329 C 0.15071 0.48137 0.54803 0.0
N330 N 0.13054 0.41061 0.47303 0.0
N331 N 0.14987 0.48851 0.52523 0.0
H332 H 0.8506 0.57912 0.93486 0.0
H333 H 0.89598 0.43537 0.05147 0.0
H334 H 0.89492 0.41835 0.94169 0.0
H335 H 0.84605 0.5864 0.04938 0.0
H336 H 0.89844 0.43723 0.01077 0.0
H337 H 0.85098 0.59044 0.97618 0.0
C338 C 0.86049 0.54649 0.945 0.0
C339 C 0.8726 0.49746 0.93482 0.0
C340 C 0.88693 0.47022 0.01906 0.0
C341 C 0.87318 0.51026 0.98179 0.0
C342 C 0.8855 0.46916 0.04242 0.0
C343 C 0.87054 0.51035 0.05387 0.0
C344 C 0.8732 0.51253 0.0068 0.0
C345 C 0.85772 0.55366 0.04117 0.0
C346 C 0.86066 0.55294 0.96853 0.0
C347 C 0.88514 0.45656 0.94872 0.0
N348 N 0.85917 0.55334 0.01819 0.0
N349 N 0.88504 0.46388 0.97139 0.0
H350 H 0.13055 0.62127 0.05167 0.0
H351 H 0.17038 0.44079 0.9404 0.0
H352 H 0.16494 0.44501 0.0545 0.0
H353 H 0.1377 0.61921 0.94106 0.0
H354 H 0.16839 0.43894 0.9818 0.0
H355 H 0.13256 0.61832 0.01086 0.0
C356 C 0.13852 0.58171 0.04371 0.0
C357 C 0.14766 0.53334 0.05663 0.0
C358 C 0.16169 0.4784 0.97282 0.0
C359 C 0.15008 0.52977 0.00945 0.0
C360 C 0.16284 0.47955 0.94921 0.0
C361 C 0.1542 0.53027 0.9372 0.0
C362 C 0.15182 0.52828 0.98443 0.0
C363 C 0.14459 0.57912 0.9495 0.0
C364 C 0.13968 0.5801 0.02029 0.0
C365 C 0.15768 0.48331 0.04521 0.0
N366 N 0.14366 0.57683 0.97235 0.0
N367 N 0.15869 0.48285 0.02222 0.0
H368 H 0.58175 0.07492 0.36751 0.0
H369 H 0.44104 0.99021 0.36121 0.0
H370 H 0.55423 0.89136 0.36207 0.0
H371 H 0.46703 0.1755 0.36484 0.0
H372 H 0.48259 0.95445 0.36011 0.0
H373 H 0.54031 0.11332 0.36527 0.0
C374 C 0.56701 0.0426 0.36577 0.0
C375 C 0.5715 0.97966 0.36507 0.0
C376 C 0.47932 0.00297 0.36107 0.0
C377 C 0.52396 0.02359 0.36251 0.0
C378 C 0.45551 0.02359 0.36174 0.0
C379 C 0.45048 0.08611 0.36328 0.0
C380 C 0.49845 0.04496 0.36205 0.0
C381 C 0.47007 0.12694 0.36369 0.0
C382 C 0.54334 0.06468 0.36448 0.0
C383 C 0.55166 0.94015 0.36274 0.0
N384 N 0.49325 0.1056 0.36321 0.0
N385 N 0.52878 0.96278 0.36162 0.0
H386 H 0.4591 0.87588 0.12677 0.0
H387 H 0.55666 0.14693 0.12924 0.0
H388 H 0.44027 0.06656 0.12609 0.0
H389 H 0.57593 0.95654 0.1288 0.0
H390 H 0.51385 0.1181 0.12917 0.0
H391 H 0.50199 0.90423 0.12846 0.0
C392 C 0.46396 0.92367 0.12699 0.0
C393 C 0.44603 0.96887 0.12624 0.0
C394 C 0.52745 0.08261 0.12914 0.0
C395 C 0.49509 0.00166 0.12819 0.0
C396 C 0.55191 0.09907 0.1292 0.0
C397 C 0.56995 0.05413 0.12898 0.0
C398 C 0.52092 0.02073 0.12884 0.0
C399 C 0.56267 0.9928 0.12895 0.0
C400 C 0.48846 0.93984 0.12796 0.0
C401 C 0.45343 0.03009 0.1266 0.0
N402 N 0.53874 0.97793 0.12883 0.0
N403 N 0.47735 0.04463 0.12753 0.0
H404 H 0.56283 0.98407 0.63571 0.0
H405 H 0.42577 0.86893 0.62128 0.0
H406 H 0.54608 0.79501 0.62326 0.0
H407 H 0.44764 0.04783 0.64359 0.0
H408 H 0.46879 0.83752 0.62208 0.0
H409 H 0.51986 0.00581 0.63817 0.0
C410 C 0.55009 0.94695 0.63349 0.0
C411 C 0.55817 0.88763 0.62922 0.0
C412 C 0.464 0.88344 0.62694 0.0
C413 C 0.5084 0.91234 0.63202 0.0
C414 C 0.4395 0.90124 0.62656 0.0
C415 C 0.43312 0.96131 0.63206 0.0
C416 C 0.482 0.92614 0.63288 0.0
C417 C 0.45163 0.00136 0.6388 0.0
C418 C 0.52543 0.95937 0.63497 0.0
C419 C 0.54065 0.84145 0.62659 0.0
N420 N 0.47506 0.9832 0.63887 0.0
N421 N 0.51653 0.85481 0.62792 0.0
H422 H 0.55999 0.15291 0.87019 0.0
H423 H 0.45615 0.89714 0.86877 0.0
H424 H 0.5741 0.95973 0.8717 0.0
H425 H 0.44107 0.08968 0.87208 0.0
H426 H 0.49946 0.91979 0.86924 0.0
H427 H 0.51642 0.13129 0.87019 0.0
C428 C 0.55396 0.10597 0.87051 0.0
C429 C 0.57078 0.05808 0.87094 0.0
C430 C 0.48671 0.95715 0.8699 0.0
C431 C 0.52092 0.03303 0.87094 0.0
C432 C 0.46193 0.94423 0.86963 0.0
C433 C 0.44489 0.99156 0.87038 0.0
C434 C 0.49463 0.01791 0.87086 0.0
C435 C 0.45353 0.0517 0.87149 0.0
C436 C 0.52907 0.09367 0.87054 0.0
C437 C 0.56186 0.99816 0.87137 0.0
N438 N 0.47778 0.06315 0.87165 0.0
N439 N 0.53759 0.9874 0.87133 0.0
H440 H 0.95288 0.61829 0.3671 0.0
H441 H 0.05069 0.34871 0.36419 0.0
H442 H 0.93317 0.42813 0.36432 0.0
H443 H 0.0687 0.53973 0.36851 0.0
H444 H 0.00758 0.37595 0.36294 0.0
H445 H 0.99554 0.58951 0.36625 0.0
C446 C 0.9575 0.57046 0.36624 0.0
C447 C 0.93938 0.5256 0.36584 0.0
C448 C 0.02102 0.4118 0.36412 0.0
C449 C 0.98834 0.49216 0.36491 0.0
C450 C 0.04562 0.39628 0.36483 0.0
C451 C 0.06337 0.44193 0.36653 0.0
C452 C 0.01419 0.47339 0.36509 0.0
C453 C 0.05572 0.50286 0.36727 0.0
C454 C 0.98191 0.554 0.36577 0.0
C455 C 0.94652 0.46429 0.3647 0.0
N456 N 0.03178 0.51671 0.36658 0.0
N457 N 0.97044 0.44937 0.36433 0.0
H458 H 0.07476 0.46577 0.12627 0.0
H459 H 0.93663 0.57603 0.12608 0.0
H460 H 0.05356 0.65487 0.12616 0.0
H461 H 0.95816 0.38718 0.12663 0.0
H462 H 0.97925 0.60582 0.12708 0.0
H463 H 0.03216 0.43644 0.12725 0.0
C464 C 0.06115 0.50123 0.12647 0.0
C465 C 0.06779 0.56298 0.12608 0.0
C466 C 0.97467 0.55786 0.12705 0.0
C467 C 0.01881 0.52947 0.12721 0.0
C468 C 0.95031 0.54074 0.12649 0.0
C469 C 0.94377 0.47892 0.12621 0.0
C470 C 0.99271 0.5129 0.1273 0.0
C471 C 0.96233 0.43534 0.1268 0.0
C472 C 0.03679 0.48436 0.12705 0.0
C473 C 0.0493 0.60676 0.12642 0.0
N474 N 0.98595 0.45319 0.12725 0.0
N475 N 0.02565 0.58914 0.12692 0.0
H476 H 0.9552 0.59958 0.62238 0.0
H477 H 0.04685 0.31725 0.63048 0.0
H478 H 0.93293 0.41132 0.62614 0.0
H479 H 0.0709 0.50379 0.625 0.0
H480 H 1.00494 0.35222 0.63009 0.0
H481 H 0.99766 0.5668 0.62443 0.0
C482 C 0.9592 0.55146 0.62368 0.0
C483 C 0.94043 0.50819 0.62403 0.0
C484 C 0.01935 0.38562 0.62901 0.0
C485 C 0.98891 0.47041 0.62639 0.0
C486 C 0.04334 0.36562 0.62924 0.0
C487 C 0.06249 0.40758 0.62773 0.0
C488 C 0.01433 0.44814 0.62722 0.0
C489 C 0.05674 0.46976 0.62619 0.0
C490 C 0.98344 0.53278 0.62484 0.0
C491 C 0.94673 0.44643 0.62575 0.0
N492 N 0.03319 0.48816 0.62593 0.0
N493 N 0.97035 0.4295 0.62684 0.0
H494 H 0.08251 0.44752 0.87052 0.0
H495 H 0.94353 0.55162 0.8643 0.0
H496 H 0.05974 0.6347 0.86446 0.0
H497 H 0.96574 0.36378 0.86932 0.0
H498 H 0.98602 0.58239 0.86398 0.0
H499 H 0.04003 0.41577 0.86987 0.0
C500 C 0.0686 0.48203 0.86905 0.0
C501 C 0.07477 0.54399 0.86757 0.0
C502 C 0.98165 0.53442 0.86511 0.0
C503 C 0.02597 0.50774 0.8668 0.0
C504 C 0.95733 0.51671 0.86529 0.0
C505 C 0.95097 0.45491 0.86687 0.0
C506 C 0.99989 0.49012 0.86656 0.0
C507 C 0.96975 0.41191 0.86808 0.0
C508 C 0.04431 0.46378 0.86867 0.0
C509 C 0.05589 0.58648 0.86567 0.0
N510 N 0.99334 0.43034 0.86794 0.0
N511 N 0.03239 0.56757 0.86536 0.0
H512 H 0.18709 0.23898 0.36948 0.0
H513 H 0.32996 0.30906 0.36775 0.0
H514 H 0.21707 0.42061 0.37196 0.0
H515 H 0.29895 0.1288 0.37238 0.0
H516 H 0.28883 0.35159 0.36795 0.0
H517 H 0.22827 0.19797 0.36916 0.0
C518 C 0.2023 0.27021 0.36997 0.0
C519 C 0.19859 0.33326 0.37079 0.0
C520 C 0.29112 0.30272 0.36895 0.0
C521 C 0.24579 0.28679 0.37037 0.0
C522 C 0.31457 0.2785 0.36882 0.0
C523 C 0.31795 0.21533 0.37008 0.0
C524 C 0.27099 0.2634 0.37024 0.0
C525 C 0.29732 0.17782 0.37143 0.0
C526 C 0.22582 0.24683 0.3698 0.0
C527 C 0.21903 0.37162 0.37137 0.0
N528 N 0.2748 0.20239 0.37144 0.0
N529 N 0.24173 0.3478 0.37113 0.0
H530 H 0.68075 0.73156 0.3717 0.0
H531 H 0.82565 0.7493 0.38009 0.0
H532 H 0.72118 0.89835 0.38072 0.0
H533 H 0.78603 0.58048 0.37362 0.0
H534 H 0.78725 0.80422 0.38116 0.0
H535 H 0.71889 0.67467 0.37311 0.0
C536 C 0.69759 0.75619 0.37404 0.0
C537 C 0.69774 0.81984 0.37603 0.0
C538 C 0.78693 0.75512 0.37958 0.0
C539 C 0.74139 0.75517 0.37761 0.0
C540 C 0.80888 0.72373 0.37897 0.0
C541 C 0.80909 0.66018 0.3767 0.0
C542 C 0.76498 0.72284 0.37783 0.0
C543 C 0.78676 0.62949 0.37536 0.0
C544 C 0.71936 0.72372 0.37484 0.0
C545 C 0.72013 0.84936 0.37905 0.0
N546 N 0.76561 0.66112 0.37586 0.0
N547 N 0.741 0.81684 0.37969 0.0
H548 H 0.22077 0.61103 0.1213 0.0
H549 H 0.29234 0.92784 0.12081 0.0
H550 H 0.18525 0.78601 0.12242 0.0
H551 H 0.3275 0.75241 0.12198 0.0
H552 H 0.25302 0.87692 0.12058 0.0
H553 H 0.25993 0.66229 0.12075 0.0
C554 C 0.22117 0.66032 0.12142 0.0
C555 C 0.19964 0.69429 0.12193 0.0
C556 C 0.26932 0.84953 0.12087 0.0
C557 C 0.2446 0.75336 0.1213 0.0
C558 C 0.29182 0.87855 0.12099 0.0
C559 C 0.3133 0.84432 0.12143 0.0
C560 C 0.26822 0.78573 0.12119 0.0
C561 C 0.31144 0.78063 0.12165 0.0
C562 C 0.2436 0.68956 0.12111 0.0
C563 C 0.20137 0.75801 0.12205 0.0
N564 N 0.28929 0.75341 0.12154 0.0
N565 N 0.22349 0.7855 0.12174 0.0
H566 H 0.72319 0.10284 0.11989 0.0
H567 H 0.79131 0.42414 0.11414 0.0
H568 H 0.68616 0.27584 0.11989 0.0
H569 H 0.82861 0.25174 0.11755 0.0
H570 H 0.75267 0.37025 0.11436 0.0
H571 H 0.76187 0.1563 0.11734 0.0
C572 C 0.72316 0.15212 0.11932 0.0
C573 C 0.70135 0.18492 0.12016 0.0
C574 C 0.76928 0.34414 0.115 0.0
C575 C 0.7457 0.24644 0.11722 0.0
C576 C 0.79141 0.37488 0.11484 0.0
C577 C 0.81329 0.34241 0.11589 0.0
C578 C 0.76895 0.28036 0.11622 0.0
C579 C 0.81221 0.27863 0.11674 0.0
C580 C 0.7453 0.1826 0.11786 0.0
C581 C 0.7025 0.24869 0.11933 0.0
N582 N 0.7904 0.2497 0.11695 0.0
N583 N 0.72431 0.27736 0.11794 0.0
H584 H 0.71326 0.86499 0.62083 0.0
H585 H 0.78724 0.55239 0.61446 0.0
H586 H 0.67976 0.68722 0.61988 0.0
H587 H 0.82179 0.72877 0.61723 0.0
H588 H 0.74781 0.60181 0.61513 0.0
H589 H 0.75306 0.81676 0.61843 0.0
C590 C 0.71424 0.8158 0.6201 0.0
C591 C 0.69307 0.78011 0.6206 0.0
C592 C 0.76397 0.62984 0.61555 0.0
C593 C 0.73868 0.72461 0.61781 0.0
C594 C 0.78657 0.60163 0.61514 0.0
C595 C 0.80795 0.63645 0.61585 0.0
C596 C 0.76257 0.69353 0.6167 0.0
C597 C 0.80582 0.70009 0.61667 0.0
C598 C 0.73701 0.78831 0.61872 0.0
C599 C 0.69554 0.7166 0.61958 0.0
N600 N 0.78353 0.72659 0.61713 0.0
N601 N 0.7179 0.69095 0.61826 0.0
H602 H 0.1713 0.16354 0.63447 0.0
H603 H 0.31084 0.15976 0.59854 0.0
H604 H 0.21178 0.31883 0.61043 0.0
H605 H 0.28122 0.01977 0.64156 0.0
H606 H 0.27149 0.2083 0.59702 0.0
H607 H 0.20853 0.10206 0.63256 0.0
C608 C 0.18794 0.18463 0.62871 0.0
C609 C 0.18844 0.24655 0.62264 0.0
C610 C 0.27342 0.16687 0.60676 0.0
C611 C 0.23079 0.17647 0.62021 0.0
C612 C 0.29592 0.13889 0.6076 0.0
C613 C 0.29943 0.08608 0.6205 0.0
C614 C 0.25399 0.14236 0.61899 0.0
C615 C 0.27927 0.06057 0.63149 0.0
C616 C 0.20913 0.14955 0.62769 0.0
C617 C 0.2105 0.2715 0.61538 0.0
N618 N 0.25734 0.08941 0.6307 0.0
N619 N 0.23066 0.23641 0.61433 0.0
H620 H 0.72645 0.08377 0.8738 0.0
H621 H 0.79794 0.40145 0.87373 0.0
H622 H 0.69185 0.25967 0.87072 0.0
H623 H 0.83418 0.22744 0.87422 0.0
H624 H 0.75902 0.34926 0.87366 0.0
H625 H 0.76601 0.13446 0.87477 0.0
C626 C 0.72714 0.13303 0.87332 0.0
C627 C 0.70574 0.16749 0.87216 0.0
C628 C 0.77544 0.32232 0.87382 0.0
C629 C 0.751 0.22575 0.87332 0.0
C630 C 0.79775 0.35215 0.87389 0.0
C631 C 0.81945 0.31883 0.87395 0.0
C632 C 0.77463 0.25847 0.87381 0.0
C633 C 0.81793 0.255 0.87417 0.0
C634 C 0.74975 0.16191 0.87388 0.0
C635 C 0.7078 0.23116 0.87159 0.0
N636 N 0.79589 0.22686 0.87406 0.0
N637 N 0.72999 0.25813 0.87218 0.0
H638 H 0.22804 0.61444 0.86675 0.0
H639 H 0.28917 0.94599 0.8666 0.0
H640 H 0.18655 0.78082 0.86596 0.0
H641 H 0.32938 0.77828 0.8611 0.0
H642 H 0.25139 0.88711 0.86684 0.0
H643 H 0.2653 0.67437 0.86534 0.0
C644 C 0.22673 0.66361 0.86629 0.0
C645 C 0.20405 0.69253 0.8665 0.0
C646 C 0.26849 0.86326 0.86552 0.0
C647 C 0.24685 0.76174 0.86488 0.0
C648 C 0.29008 0.89687 0.86537 0.0
C649 C 0.31255 0.86714 0.86385 0.0
C650 C 0.26933 0.7994 0.86423 0.0
C651 C 0.31254 0.80331 0.8623 0.0
C652 C 0.24806 0.69787 0.86544 0.0
C653 C 0.20359 0.75649 0.86583 0.0
N654 N 0.29133 0.7717 0.8626 0.0
N655 N 0.22465 0.78891 0.8651 0.0
H656 H 0.36039 0.94394 0.30857 0.0
H657 H 0.35289 0.10658 0.18746 0.0
H658 H 0.36239 0.1385 0.29852 0.0
H659 H 0.36696 0.9147 0.19603 0.0
H660 H 0.3505 0.11726 0.22849 0.0
H661 H 0.35693 0.93045 0.26751 0.0
C662 C 0.35988 0.98371 0.29778 0.0
C663 C 0.36192 0.04235 0.30695 0.0
C664 C 0.35403 0.07277 0.22136 0.0
C665 C 0.35791 0.02741 0.26018 0.0
C666 C 0.35536 0.06667 0.19794 0.0
C667 C 0.36034 0.00981 0.18828 0.0
C668 C 0.35757 0.0216 0.23524 0.0
C669 C 0.3633 0.95958 0.20273 0.0
C670 C 0.358 0.97604 0.27438 0.0
C671 C 0.36117 0.09237 0.29219 0.0
N672 N 0.36193 0.96666 0.22547 0.0
N673 N 0.35928 0.08375 0.2696 0.0
H674 H 0.66703 0.92581 0.1908 0.0
H675 H 0.66457 0.09998 0.30978 0.0
H676 H 0.65265 0.11808 0.19748 0.0
H677 H 0.66184 0.90465 0.30243 0.0
H678 H 0.66723 0.10943 0.26851 0.0
H679 H 0.67194 0.91921 0.23177 0.0
C680 C 0.66502 0.96666 0.20085 0.0
C681 C 0.65917 0.0224 0.19071 0.0
C682 C 0.66625 0.06455 0.27602 0.0
C683 C 0.66487 0.01531 0.23756 0.0
C684 C 0.66487 0.05919 0.29952 0.0
C685 C 0.66271 0.00154 0.30948 0.0
C686 C 0.66573 0.01184 0.26253 0.0
C687 C 0.66313 0.95008 0.29543 0.0
C688 C 0.66781 0.96289 0.22423 0.0
C689 C 0.6569 0.07397 0.20459 0.0
N690 N 0.6645 0.95645 0.27271 0.0
N691 N 0.65968 0.06915 0.2273 0.0
H692 H 0.65051 0.08992 0.79847 0.0
H693 H 0.63849 0.8458 0.69936 0.0
H694 H 0.65427 0.89631 0.81038 0.0
H695 H 0.6509 0.0376 0.6883 0.0
H696 H 0.64281 0.86246 0.74004 0.0
H697 H 0.64936 0.07081 0.75803 0.0
C698 C 0.65118 0.04328 0.79257 0.0
C699 C 0.65241 0.9946 0.80786 0.0
C700 C 0.64469 0.90078 0.72867 0.0
C701 C 0.65093 0.97234 0.7614 0.0
C702 C 0.64215 0.89137 0.70546 0.0
C703 C 0.64425 0.94043 0.69038 0.0
C704 C 0.64915 0.95973 0.73686 0.0
C705 C 0.6491 0.99842 0.69925 0.0
C706 C 0.65057 0.03241 0.76943 0.0
C707 C 0.65336 0.93518 0.79919 0.0
N708 N 0.65125 0.00646 0.72188 0.0
N709 N 0.65241 0.92565 0.7765 0.0
H710 H 0.34861 0.1476 0.80836 0.0
H711 H 0.40926 0.05303 0.69078 0.0
H712 H 0.39189 0.98699 0.79705 0.0
H713 H 0.35474 0.19262 0.69491 0.0
H714 H 0.40851 0.0429 0.73171 0.0
H715 H 0.35467 0.17645 0.76861 0.0
C716 C 0.35936 0.11848 0.79757 0.0
C717 C 0.36958 0.06449 0.80603 0.0
C718 C 0.39691 0.07649 0.72383 0.0
C719 C 0.37689 0.09771 0.76085 0.0
C720 C 0.39756 0.08268 0.70049 0.0
C721 C 0.38219 0.12398 0.68964 0.0
C722 C 0.38042 0.11108 0.73648 0.0
C723 C 0.36708 0.16084 0.70283 0.0
C724 C 0.36285 0.13505 0.77495 0.0
C725 C 0.38344 0.02867 0.79132 0.0
N726 N 0.36632 0.15302 0.72567 0.0
N727 N 0.38667 0.04594 0.76957 0.0
H728 H 0.85115 0.60406 0.18679 0.0
H729 H 0.84315 0.41047 0.30128 0.0
H730 H 0.85401 0.40787 0.18979 0.0
H731 H 0.8579 0.60352 0.29951 0.0
H732 H 0.84016 0.41065 0.26008 0.0
H733 H 0.84673 0.60655 0.22802 0.0
C734 C 0.85062 0.56162 0.19608 0.0
C735 C 0.85324 0.50577 0.18492 0.0
C736 C 0.84394 0.45301 0.26875 0.0
C737 C 0.84811 0.50816 0.23181 0.0
C738 C 0.8456 0.45291 0.29225 0.0
C739 C 0.85105 0.50688 0.30382 0.0
C740 C 0.84761 0.50751 0.25677 0.0
C741 C 0.85395 0.56068 0.29126 0.0
C742 C 0.84818 0.56302 0.21956 0.0
C743 C 0.8524 0.45204 0.19774 0.0
N744 N 0.85228 0.55959 0.26841 0.0
N745 N 0.84998 0.45458 0.22048 0.0
H746 H 0.15118 0.5977 0.30883 0.0
H747 H 0.16083 0.43146 0.18856 0.0
H748 H 0.15036 0.40274 0.29973 0.0
H749 H 0.14609 0.62329 0.19618 0.0
H750 H 0.16259 0.42192 0.22969 0.0
H751 H 0.1548 0.60988 0.26774 0.0
C752 C 0.15192 0.55758 0.29824 0.0
C753 C 0.15023 0.4992 0.3077 0.0
C754 C 0.15905 0.46614 0.22233 0.0
C755 C 0.15447 0.51263 0.26089 0.0
C756 C 0.15809 0.47159 0.19886 0.0
C757 C 0.1531 0.5281 0.18891 0.0
C758 C 0.15513 0.51763 0.23594 0.0
C759 C 0.14977 0.57866 0.20311 0.0
C760 C 0.15392 0.56449 0.27482 0.0
C761 C 0.15132 0.4487 0.29319 0.0
N762 N 0.15079 0.57221 0.22589 0.0
N763 N 0.15332 0.45659 0.27057 0.0
H764 H 0.16283 0.4011 0.81037 0.0
H765 H 0.16046 0.53368 0.68474 0.0
H766 H 0.15481 0.59202 0.79491 0.0
H767 H 0.14322 0.34641 0.70007 0.0
H768 H 0.1649 0.55395 0.72505 0.0
H769 H 0.16213 0.37851 0.76982 0.0
C770 C 0.16113 0.43827 0.79846 0.0
C771 C 0.15876 0.49851 0.80601 0.0
C772 C 0.16019 0.5084 0.71958 0.0
C773 C 0.15806 0.47303 0.75977 0.0
C774 C 0.15771 0.49672 0.69657 0.0
C775 C 0.15133 0.43831 0.68902 0.0
C776 C 0.15653 0.46123 0.7352 0.0
C777 C 0.148 0.39221 0.70516 0.0
C778 C 0.16061 0.42531 0.77537 0.0
C779 C 0.15653 0.54488 0.78985 0.0
N780 N 0.15067 0.40463 0.72751 0.0
N781 N 0.15627 0.53118 0.76751 0.0
H782 H 0.85245 0.38074 0.68684 0.0
H783 H 0.85428 0.57109 0.80218 0.0
H784 H 0.85568 0.57691 0.69001 0.0
H785 H 0.86916 0.37843 0.7986 0.0
H786 H 0.8486 0.57243 0.76123 0.0
H787 H 0.85214 0.37744 0.72823 0.0
C788 C 0.85284 0.42302 0.69622 0.0
C789 C 0.85434 0.4791 0.68501 0.0
C790 C 0.85306 0.52986 0.76945 0.0
C791 C 0.85398 0.47576 0.73213 0.0
C792 C 0.85629 0.52909 0.7928 0.0
C793 C 0.86242 0.47472 0.80379 0.0
C794 C 0.8558 0.4758 0.75704 0.0
C795 C 0.86468 0.42154 0.7908 0.0
C796 C 0.85278 0.42115 0.7198 0.0
C797 C 0.85482 0.5326 0.69797 0.0
N798 N 0.8614 0.42342 0.76811 0.0
N799 N 0.8547 0.52959 0.72082 0.0
loop_
_geom_bond_atom_site_label_1
_geom_bond_atom_site_label_2
_geom_bond_distance
_geom_bond_site_symmetry_2
_ccdc_geom_bond_type
C0 O2 1.247 . S
C0 O4 1.258 . S
C1 O8 1.247 . S
C1 O9 1.258 . S
O2 C0 1.247 . S
O2 Zn3 2.028 . S
Zn3 O2 2.028 . S
Zn3 O7 2.035 . S
Zn3 O9 2.035 . S
Zn3 O10 2.028 . S
O4 C0 1.258 . S
O4 Zn5 2.035 . S
Zn5 O4 2.035 . S
Zn5 O6 2.028 . S
Zn5 O8 2.028 . S
Zn5 O11 2.035 . S
O6 Zn5 2.028 . S
O6 C12 1.247 . S
O7 Zn3 2.035 . S
O7 C12 1.258 . S
O8 C1 1.247 . S
O8 Zn5 2.028 . S
O9 C1 1.258 . S
O9 Zn3 2.035 . S
O10 Zn3 2.028 . S
O10 C13 1.247 . S
O11 Zn5 2.035 . S
O11 C13 1.258 . S
C12 O6 1.247 . S
C12 O7 1.258 . S
C13 O10 1.247 . S
C13 O11 1.258 . S
C14 O16 1.247 . S
C14 O18 1.258 . S
C15 O22 1.247 . S
C15 O23 1.258 . S
O16 C14 1.247 . S
O16 Zn17 2.028 . S
Zn17 O16 2.028 . S
Zn17 O21 2.035 . S
Zn17 O23 2.035 . S
Zn17 O24 2.028 . S
O18 C14 1.258 . S
O18 Zn19 2.035 . S
Zn19 O18 2.035 . S
Zn19 O20 2.028 . S
Zn19 O22 2.028 . S
Zn19 O25 2.035 . S
O20 Zn19 2.028 . S
O20 C26 1.247 . S
O21 Zn17 2.035 . S
O21 C26 1.258 . S
O22 C15 1.247 . S
O22 Zn19 2.028 . S
O23 C15 1.258 . S
O23 Zn17 2.035 . S
O24 Zn17 2.028 . S
O24 C27 1.247 . S
O25 Zn19 2.035 . S
O25 C27 1.258 . S
C26 O20 1.247 . S
C26 O21 1.258 . S
C27 O24 1.247 . S
C27 O25 1.258 . S
C28 O30 1.247 . S
C28 O32 1.258 . S
C29 O36 1.247 . S
C29 O37 1.258 . S
O30 C28 1.247 . S
O30 Zn31 2.028 . S
Zn31 O30 2.028 . S
Zn31 O35 2.035 . S
Zn31 O37 2.035 . S
Zn31 O38 2.028 . S
O32 C28 1.258 . S
O32 Zn33 2.035 . S
Zn33 O32 2.035 . S
Zn33 O34 2.028 . S
Zn33 O36 2.028 . S
Zn33 O39 2.035 . S
O34 Zn33 2.028 . S
O34 C40 1.247 . S
O35 Zn31 2.035 . S
O35 C40 1.258 . S
O36 C29 1.247 . S
O36 Zn33 2.028 . S
O37 C29 1.258 . S
O37 Zn31 2.035 . S
O38 Zn31 2.028 . S
O38 C41 1.247 . S
O39 Zn33 2.035 . S
O39 C41 1.258 . S
C40 O34 1.247 . S
C40 O35 1.258 . S
C41 O38 1.247 . S
C41 O39 1.258 . S
C42 O44 1.247 . S
C42 O46 1.258 . S
C43 O50 1.247 . S
C43 O51 1.258 . S
O44 C42 1.247 . S
O44 Zn45 2.028 . S
Zn45 O44 2.028 . S
Zn45 O49 2.035 . S
Zn45 O51 2.035 . S
Zn45 O52 2.028 . S
O46 C42 1.258 . S
O46 Zn47 2.035 . S
Zn47 O46 2.035 . S
Zn47 O48 2.028 . S
Zn47 O50 2.028 . S
Zn47 O53 2.035 . S
O48 Zn47 2.028 . S
O48 C54 1.247 . S
O49 Zn45 2.035 . S
O49 C54 1.258 . S
O50 C43 1.247 . S
O50 Zn47 2.028 . S
O51 C43 1.258 . S
O51 Zn45 2.035 . S
O52 Zn45 2.028 . S
O52 C55 1.247 . S
O53 Zn47 2.035 . S
O53 C55 1.258 . S
C54 O48 1.247 . S
C54 O49 1.258 . S
C55 O52 1.247 . S
C55 O53 1.258 . S
C56 O58 1.247 . S
C56 O60 1.258 . S
C57 O64 1.247 . S
C57 O65 1.258 . S
O58 C56 1.247 . S
O58 Zn59 2.028 . S
Zn59 O58 2.028 . S
Zn59 O63 2.035 . S
Zn59 O65 2.035 . S
Zn59 O66 2.028 . S
O60 C56 1.258 . S
O60 Zn61 2.035 . S
Zn61 O60 2.035 . S
Zn61 O62 2.028 . S
Zn61 O64 2.028 . S
Zn61 O67 2.035 . S
O62 Zn61 2.028 . S
O62 C68 1.247 . S
O63 Zn59 2.035 . S
O63 C68 1.258 . S
O64 C57 1.247 . S
O64 Zn61 2.028 . S
O65 C57 1.258 . S
O65 Zn59 2.035 . S
O66 Zn59 2.028 . S
O66 C69 1.247 . S
O67 Zn61 2.035 . S
O67 C69 1.258 . S
C68 O62 1.247 . S
C68 O63 1.258 . S
C69 O66 1.247 . S
C69 O67 1.258 . S
C70 O72 1.247 . S
C70 O74 1.258 . S
C71 O78 1.247 . S
C71 O79 1.258 . S
O72 C70 1.247 . S
O72 Zn73 2.028 . S
Zn73 O72 2.028 . S
Zn73 O77 2.035 . S
Zn73 O79 2.035 . S
Zn73 O80 2.028 . S
O74 C70 1.258 . S
O74 Zn75 2.035 . S
Zn75 O74 2.035 . S
Zn75 O76 2.028 . S
Zn75 O78 2.028 . S
Zn75 O81 2.035 . S
O76 Zn75 2.028 . S
O76 C82 1.247 . S
O77 Zn73 2.035 . S
O77 C82 1.258 . S
O78 C71 1.247 . S
O78 Zn75 2.028 . S
O79 C71 1.258 . S
O79 Zn73 2.035 . S
O80 Zn73 2.028 . S
O80 C83 1.247 . S
O81 Zn75 2.035 . S
O81 C83 1.258 . S
C82 O76 1.247 . S
C82 O77 1.258 . S
C83 O80 1.247 . S
C83 O81 1.258 . S
C84 O86 1.247 . S
C84 O88 1.258 . S
C85 O92 1.247 . S
C85 O93 1.258 . S
O86 C84 1.247 . S
O86 Zn87 2.028 . S
Zn87 O86 2.028 . S
Zn87 O91 2.035 . S
Zn87 O93 2.035 . S
Zn87 O94 2.028 . S
O88 C84 1.258 . S
O88 Zn89 2.035 . S
Zn89 O88 2.035 . S
Zn89 O90 2.028 . S
Zn89 O92 2.028 . S
Zn89 O95 2.035 . S
O90 Zn89 2.028 . S
O90 C96 1.247 . S
O91 Zn87 2.035 . S
O91 C96 1.258 . S
O92 C85 1.247 . S
O92 Zn89 2.028 . S
O93 C85 1.258 . S
O93 Zn87 2.035 . S
O94 Zn87 2.028 . S
O94 C97 1.247 . S
O95 Zn89 2.035 . S
O95 C97 1.258 . S
C96 O90 1.247 . S
C96 O91 1.258 . S
C97 O94 1.247 . S
C97 O95 1.258 . S
C98 O100 1.247 . S
C98 O102 1.258 . S
C99 O106 1.247 . S
C99 O107 1.258 . S
O100 C98 1.247 . S
O100 Zn101 2.028 . S
Zn101 O100 2.028 . S
Zn101 O105 2.035 . S
Zn101 O107 2.035 . S
Zn101 O108 2.028 . S
O102 C98 1.258 . S
O102 Zn103 2.035 . S
Zn103 O102 2.035 . S
Zn103 O104 2.028 . S
Zn103 O106 2.028 . S
Zn103 O109 2.035 . S
O104 Zn103 2.028 . S
O104 C110 1.247 . S
O105 Zn101 2.035 . S
O105 C110 1.258 . S
O106 C99 1.247 . S
O106 Zn103 2.028 . S
O107 C99 1.258 . S
O107 Zn101 2.035 . S
O108 Zn101 2.028 . S
O108 C111 1.247 . S
O109 Zn103 2.035 . S
O109 C111 1.258 . S
C110 O104 1.247 . S
C110 O105 1.258 . S
C111 O108 1.247 . S
C111 O109 1.258 . S
C112 O114 1.247 . S
C112 O116 1.258 . S
C113 O120 1.247 . S
C113 O121 1.258 . S
O114 C112 1.247 . S
O114 Zn115 2.028 . S
Zn115 O114 2.028 . S
Zn115 O119 2.035 . S
Zn115 O121 2.035 . S
Zn115 O122 2.028 . S
O116 C112 1.258 . S
O116 Zn117 2.035 . S
Zn117 O116 2.035 . S
Zn117 O118 2.028 . S
Zn117 O120 2.028 . S
Zn117 O123 2.035 . S
O118 Zn117 2.028 . S
O118 C124 1.247 . S
O119 Zn115 2.035 . S
O119 C124 1.258 . S
O120 C113 1.247 . S
O120 Zn117 2.028 . S
O121 C113 1.258 . S
O121 Zn115 2.035 . S
O122 Zn115 2.028 . S
O122 C125 1.247 . S
O123 Zn117 2.035 . S
O123 C125 1.258 . S
C124 O118 1.247 . S
C124 O119 1.258 . S
C125 O122 1.247 . S
C125 O123 1.258 . S
C126 O128 1.247 . S
C126 O130 1.258 . S
C127 O134 1.247 . S
C127 O135 1.258 . S
O128 C126 1.247 . S
O128 Zn129 2.028 . S
Zn129 O128 2.028 . S
Zn129 O133 2.035 . S
Zn129 O135 2.035 . S
Zn129 O136 2.028 . S
O130 C126 1.258 . S
O130 Zn131 2.035 . S
Zn131 O130 2.035 . S
Zn131 O132 2.028 . S
Zn131 O134 2.028 . S
Zn131 O137 2.035 . S
O132 Zn131 2.028 . S
O132 C138 1.247 . S
O133 Zn129 2.035 . S
O133 C138 1.258 . S
O134 C127 1.247 . S
O134 Zn131 2.028 . S
O135 C127 1.258 . S
O135 Zn129 2.035 . S
O136 Zn129 2.028 . S
O136 C139 1.247 . S
O137 Zn131 2.035 . S
O137 C139 1.258 . S
C138 O132 1.247 . S
C138 O133 1.258 . S
C139 O136 1.247 . S
C139 O137 1.258 . S
C140 O142 1.247 . S
C140 O144 1.258 . S
C141 O148 1.247 . S
C141 O149 1.258 . S
O142 C140 1.247 . S
O142 Zn143 2.028 . S
Zn143 O142 2.028 . S
Zn143 O147 2.035 . S
Zn143 O149 2.035 . S
Zn143 O150 2.028 . S
O144 C140 1.258 . S
O144 Zn145 2.035 . S
Zn145 O144 2.035 . S
Zn145 O146 2.028 . S
Zn145 O148 2.028 . S
Zn145 O151 2.035 . S
O146 Zn145 2.028 . S
O146 C152 1.247 . S
O147 Zn143 2.035 . S
O147 C152 1.258 . S
O148 C141 1.247 . S
O148 Zn145 2.028 . S
O149 C141 1.258 . S
O149 Zn143 2.035 . S
O150 Zn143 2.028 . S
O150 C153 1.247 . S
O151 Zn145 2.035 . S
O151 C153 1.258 . S
C152 O146 1.247 . S
C152 O147 1.258 . S
C153 O150 1.247 . S
C153 O151 1.258 . S
C154 O156 1.247 . S
C154 O158 1.258 . S
C155 O162 1.247 . S
C155 O163 1.258 . S
O156 C154 1.247 . S
O156 Zn157 2.028 . S
Zn157 O156 2.028 . S
Zn157 O161 2.035 . S
Zn157 O163 2.035 . S
Zn157 O164 2.028 . S
O158 C154 1.258 . S
O158 Zn159 2.035 . S
Zn159 O158 2.035 . S
Zn159 O160 2.028 . S
Zn159 O162 2.028 . S
Zn159 O165 2.035 . S
O160 Zn159 2.028 . S
O160 C166 1.247 . S
O161 Zn157 2.035 . S
O161 C166 1.258 . S
O162 C155 1.247 . S
O162 Zn159 2.028 . S
O163 C155 1.258 . S
O163 Zn157 2.035 . S
O164 Zn157 2.028 . S
O164 C167 1.247 . S
O165 Zn159 2.035 . S
O165 C167 1.258 . S
C166 O160 1.247 . S
C166 O161 1.258 . S
C167 O164 1.247 . S
C167 O165 1.258 . S
C168 O170 1.247 . S
C168 O172 1.258 . S
C169 O176 1.247 . S
C169 O177 1.258 . S
O170 C168 1.247 . S
O170 Zn171 2.028 . S
Zn171 O170 2.028 . S
Zn171 O175 2.035 . S
Zn171 O177 2.035 . S
Zn171 O178 2.028 . S
O172 C168 1.258 . S
O172 Zn173 2.035 . S
Zn173 O172 2.035 . S
Zn173 O174 2.028 . S
Zn173 O176 2.028 . S
Zn173 O179 2.035 . S
O174 Zn173 2.028 . S
O174 C180 1.247 . S
O175 Zn171 2.035 . S
O175 C180 1.258 . S
O176 C169 1.247 . S
O176 Zn173 2.028 . S
O177 C169 1.258 . S
O177 Zn171 2.035 . S
O178 Zn171 2.028 . S
O178 C181 1.247 . S
O179 Zn173 2.035 . S
O179 C181 1.258 . S
C180 O174 1.247 . S
C180 O175 1.258 . S
C181 O178 1.247 . S
C181 O179 1.258 . S
C182 O184 1.247 . S
C182 O186 1.258 . S
C183 O190 1.247 . S
C183 O191 1.258 . S
O184 C182 1.247 . S
O184 Zn185 2.028 . S
Zn185 O184 2.028 . S
Zn185 O189 2.035 . S
Zn185 O191 2.035 . S
Zn185 O192 2.028 . S
O186 C182 1.258 . S
O186 Zn187 2.035 . S
Zn187 O186 2.035 . S
Zn187 O188 2.028 . S
Zn187 O190 2.028 . S
Zn187 O193 2.035 . S
O188 Zn187 2.028 . S
O188 C194 1.247 . S
O189 Zn185 2.035 . S
O189 C194 1.258 . S
O190 C183 1.247 . S
O190 Zn187 2.028 . S
O191 C183 1.258 . S
O191 Zn185 2.035 . S
O192 Zn185 2.028 . S
O192 C195 1.247 . S
O193 Zn187 2.035 . S
O193 C195 1.258 . S
C194 O188 1.247 . S
C194 O189 1.258 . S
C195 O192 1.247 . S
C195 O193 1.258 . S
C196 O198 1.247 . S
C196 O200 1.258 . S
C197 O204 1.247 . S
C197 O205 1.258 . S
O198 C196 1.247 . S
O198 Zn199 2.028 . S
Zn199 O198 2.028 . S
Zn199 O203 2.035 . S
Zn199 O205 2.035 . S
Zn199 O206 2.028 . S
O200 C196 1.258 . S
O200 Zn201 2.035 . S
Zn201 O200 2.035 . S
Zn201 O202 2.028 . S
Zn201 O204 2.028 . S
Zn201 O207 2.035 . S
O202 Zn201 2.028 . S
O202 C208 1.247 . S
O203 Zn199 2.035 . S
O203 C208 1.258 . S
O204 C197 1.247 . S
O204 Zn201 2.028 . S
O205 C197 1.258 . S
O205 Zn199 2.035 . S
O206 Zn199 2.028 . S
O206 C209 1.247 . S
O207 Zn201 2.035 . S
O207 C209 1.258 . S
C208 O202 1.247 . S
C208 O203 1.258 . S
C209 O206 1.247 . S
C209 O207 1.258 . S
C210 O212 1.247 . S
C210 O214 1.258 . S
C211 O218 1.247 . S
C211 O219 1.258 . S
O212 C210 1.247 . S
O212 Zn213 2.028 . S
Zn213 O212 2.028 . S
Zn213 O217 2.035 . S
Zn213 O219 2.035 . S
Zn213 O220 2.028 . S
O214 C210 1.258 . S
O214 Zn215 2.035 . S
Zn215 O214 2.035 . S
Zn215 O216 2.028 . S
Zn215 O218 2.028 . S
Zn215 O221 2.035 . S
O216 Zn215 2.028 . S
O216 C222 1.247 . S
O217 Zn213 2.035 . S
O217 C222 1.258 . S
O218 C211 1.247 . S
O218 Zn215 2.028 . S
O219 C211 1.258 . S
O219 Zn213 2.035 . S
O220 Zn213 2.028 . S
O220 C223 1.247 . S
O221 Zn215 2.035 . S
O221 C223 1.258 . S
C222 O216 1.247 . S
C222 O217 1.258 . S
C223 O220 1.247 . S
C223 O221 1.258 . S
H224 C230 0.930 . S
H225 C234 0.930 . S
H226 C239 0.929 . S
H227 C237 0.929 . S
H228 C232 0.929 . S
H229 C238 0.929 . S
C230 H224 0.930 . S
C230 C231 1.367 . S
C230 C238 1.378 . S
C231 C230 1.367 . S
C231 C239 1.433 . S
C232 H228 0.929 . S
C232 C234 1.378 . S
C232 C236 1.350 . S
C233 C236 1.463 . S
C233 C238 1.350 . S
C233 N241 1.427 . S
C234 H225 0.930 . S
C234 C232 1.378 . S
C234 C235 1.367 . S
C235 C234 1.367 . S
C235 C237 1.433 . S
C236 C232 1.350 . S
C236 C233 1.463 . S
C236 N240 1.427 . S
C237 H227 0.929 . S
C237 C235 1.433 . S
C237 N240 1.384 . S
C238 H229 0.929 . S
C238 C230 1.378 . S
C238 C233 1.350 . S
C239 H226 0.929 . S
C239 C231 1.433 . S
C239 N241 1.384 . S
N240 C236 1.427 . S
N240 C237 1.384 . S
N241 C233 1.427 . S
N241 C239 1.384 . S
H242 C248 0.930 . S
H243 C252 0.930 . S
H244 C257 0.929 . S
H245 C255 0.929 . S
H246 C250 0.929 . S
H247 C256 0.929 . S
C248 H242 0.930 . S
C248 C249 1.367 . S
C248 C256 1.378 . S
C249 C248 1.367 . S
C249 C257 1.433 . S
C250 H246 0.929 . S
C250 C252 1.378 . S
C250 C254 1.350 . S
C251 C254 1.463 . S
C251 C256 1.350 . S
C251 N259 1.427 . S
C252 H243 0.930 . S
C252 C250 1.378 . S
C252 C253 1.367 . S
C253 C252 1.367 . S
C253 C255 1.433 . S
C254 C250 1.350 . S
C254 C251 1.463 . S
C254 N258 1.427 . S
C255 H245 0.929 . S
C255 C253 1.433 . S
C255 N258 1.384 . S
C256 H247 0.929 . S
C256 C248 1.378 . S
C256 C251 1.350 . S
C257 H244 0.929 . S
C257 C249 1.433 . S
C257 N259 1.384 . S
N258 C254 1.427 . S
N258 C255 1.384 . S
N259 C251 1.427 . S
N259 C257 1.384 . S
H260 C266 0.930 . S
H261 C270 0.930 . S
H262 C275 0.929 . S
H263 C273 0.929 . S
H264 C268 0.929 . S
H265 C274 0.929 . S
C266 H260 0.930 . S
C266 C267 1.367 . S
C266 C274 1.378 . S
C267 C266 1.367 . S
C267 C275 1.433 . S
C268 H264 0.929 . S
C268 C270 1.378 . S
C268 C272 1.350 . S
C269 C272 1.463 1_554 S
C269 C274 1.350 . S
C269 N277 1.427 . S
C270 H261 0.930 . S
C270 C268 1.378 . S
C270 C271 1.367 . S
C271 C270 1.367 . S
C271 C273 1.433 . S
C272 C268 1.350 . S
C272 C269 1.463 1_556 S
C272 N276 1.427 . S
C273 H263 0.929 . S
C273 C271 1.433 . S
C273 N276 1.384 . S
C274 H265 0.929 . S
C274 C266 1.378 . S
C274 C269 1.350 . S
C275 H262 0.929 . S
C275 C267 1.433 . S
C275 N277 1.384 . S
N276 C272 1.427 . S
N276 C273 1.384 . S
N277 C269 1.427 . S
N277 C275 1.384 . S
H278 C284 0.930 . S
H279 C288 0.930 . S
H280 C293 0.929 . S
H281 C291 0.929 . S
H282 C286 0.929 . S
H283 C292 0.929 . S
C284 H278 0.930 . S
C284 C285 1.367 . S
C284 C292 1.378 . S
C285 C284 1.367 . S
C285 C293 1.433 . S
C286 H282 0.929 . S
C286 C288 1.378 . S
C286 C290 1.350 . S
C287 C290 1.463 1_556 S
C287 C292 1.350 . S
C287 N295 1.427 . S
C288 H279 0.930 . S
C288 C286 1.378 . S
C288 C289 1.367 . S
C289 C288 1.367 . S
C289 C291 1.433 . S
C290 C286 1.350 . S
C290 C287 1.463 1_554 S
C290 N294 1.427 . S
C291 H281 0.929 . S
C291 C289 1.433 . S
C291 N294 1.384 . S
C292 H283 0.929 . S
C292 C284 1.378 . S
C292 C287 1.350 . S
C293 H280 0.929 . S
C293 C285 1.433 . S
C293 N295 1.384 . S
N294 C290 1.427 . S
N294 C291 1.384 . S
N295 C287 1.427 . S
N295 C293 1.384 . S
H296 C302 0.930 . S
H297 C306 0.930 . S
H298 C311 0.929 . S
H299 C309 0.929 . S
H300 C304 0.929 . S
H301 C310 0.929 . S
C302 H296 0.930 . S
C302 C303 1.367 . S
C302 C310 1.378 . S
C303 C302 1.367 . S
C303 C311 1.433 . S
C304 H300 0.929 . S
C304 C306 1.378 . S
C304 C308 1.350 . S
C305 C308 1.463 . S
C305 C310 1.350 . S
C305 N313 1.427 . S
C306 H297 0.930 . S
C306 C304 1.378 . S
C306 C307 1.367 . S
C307 C306 1.367 . S
C307 C309 1.433 . S
C308 C304 1.350 . S
C308 C305 1.463 . S
C308 N312 1.427 . S
C309 H299 0.929 . S
C309 C307 1.433 . S
C309 N312 1.384 . S
C310 H301 0.929 . S
C310 C302 1.378 . S
C310 C305 1.350 . S
C311 H298 0.929 . S
C311 C303 1.433 . S
C311 N313 1.384 . S
N312 C308 1.427 . S
N312 C309 1.384 . S
N313 C305 1.427 . S
N313 C311 1.384 . S
H314 C320 0.930 . S
H315 C324 0.930 . S
H316 C329 0.929 . S
H317 C327 0.929 . S
H318 C322 0.929 . S
H319 C328 0.929 . S
C320 H314 0.930 . S
C320 C321 1.367 . S
C320 C328 1.378 . S
C321 C320 1.367 . S
C321 C329 1.433 . S
C322 H318 0.929 . S
C322 C324 1.378 . S
C322 C326 1.350 . S
C323 C326 1.463 . S
C323 C328 1.350 . S
C323 N331 1.427 . S
C324 H315 0.930 . S
C324 C322 1.378 . S
C324 C325 1.367 . S
C325 C324 1.367 . S
C325 C327 1.433 . S
C326 C322 1.350 . S
C326 C323 1.463 . S
C326 N330 1.427 . S
C327 H317 0.929 . S
C327 C325 1.433 . S
C327 N330 1.384 . S
C328 H319 0.929 . S
C328 C320 1.378 . S
C328 C323 1.350 . S
C329 H316 0.929 . S
C329 C321 1.433 . S
C329 N331 1.384 . S
N330 C326 1.427 . S
N330 C327 1.384 . S
N331 C323 1.427 . S
N331 C329 1.384 . S
H332 C338 0.930 . S
H333 C342 0.930 . S
H334 C347 0.929 . S
H335 C345 0.929 . S
H336 C340 0.929 . S
H337 C346 0.929 . S
C338 H332 0.930 . S
C338 C339 1.367 . S
C338 C346 1.378 . S
C339 C338 1.367 . S
C339 C347 1.433 . S
C340 H336 0.929 . S
C340 C342 1.378 . S
C340 C344 1.350 . S
C341 C344 1.463 1_556 S
C341 C346 1.350 . S
C341 N349 1.427 . S
C342 H333 0.930 . S
C342 C340 1.378 . S
C342 C343 1.367 . S
C343 C342 1.367 . S
C343 C345 1.433 . S
C344 C340 1.350 . S
C344 C341 1.463 1_554 S
C344 N348 1.427 . S
C345 H335 0.929 . S
C345 C343 1.433 . S
C345 N348 1.384 . S
C346 H337 0.929 . S
C346 C338 1.378 . S
C346 C341 1.350 . S
C347 H334 0.929 . S
C347 C339 1.433 . S
C347 N349 1.384 . S
N348 C344 1.427 . S
N348 C345 1.384 . S
N349 C341 1.427 . S
N349 C347 1.384 . S
H350 C356 0.930 . S
H351 C360 0.930 . S
H352 C365 0.929 . S
H353 C363 0.929 . S
H354 C358 0.929 . S
H355 C364 0.929 . S
C356 H350 0.930 . S
C356 C357 1.367 . S
C356 C364 1.378 . S
C357 C356 1.367 . S
C357 C365 1.433 . S
C358 H354 0.929 . S
C358 C360 1.378 . S
C358 C362 1.350 . S
C359 C362 1.463 1_554 S
C359 C364 1.350 . S
C359 N367 1.427 . S
C360 H351 0.930 . S
C360 C358 1.378 . S
C360 C361 1.367 . S
C361 C360 1.367 . S
C361 C363 1.433 . S
C362 C358 1.350 . S
C362 C359 1.463 1_556 S
C362 N366 1.427 . S
C363 H353 0.929 . S
C363 C361 1.433 . S
C363 N366 1.384 . S
C364 H355 0.929 . S
C364 C356 1.378 . S
C364 C359 1.350 . S
C365 H352 0.929 . S
C365 C357 1.433 . S
C365 N367 1.384 . S
N366 C362 1.427 . S
N366 C363 1.384 . S
N367 C359 1.427 . S
N367 C365 1.384 . S
H368 C374 0.930 . S
H369 C378 0.930 . S
H370 C383 0.929 . S
H371 C381 0.929 . S
H372 C376 0.929 . S
H373 C382 0.929 . S
C374 H368 0.930 . S
C374 C375 1.367 . S
C374 C382 1.378 . S
C375 C374 1.367 . S
C375 C383 1.433 . S
C376 H372 0.929 . S
C376 C378 1.378 . S
C376 C380 1.350 . S
C377 C380 1.463 1_565 S
C377 C382 1.350 . S
C377 N385 1.427 . S
C378 H369 0.930 . S
C378 C376 1.378 . S
C378 C379 1.367 . S
C379 C378 1.367 . S
C379 C381 1.433 . S
C380 C376 1.350 . S
C380 C377 1.463 1_545 S
C380 N384 1.427 . S
C381 H371 0.929 . S
C381 C379 1.433 . S
C381 N384 1.384 . S
C382 H373 0.929 . S
C382 C374 1.378 . S
C382 C377 1.350 . S
C383 H370 0.929 . S
C383 C375 1.433 . S
C383 N385 1.384 . S
N384 C380 1.427 . S
N384 C381 1.384 . S
N385 C377 1.427 . S
N385 C383 1.384 . S
H386 C392 0.930 . S
H387 C396 0.930 . S
H388 C401 0.929 . S
H389 C399 0.929 . S
H390 C394 0.929 . S
H391 C400 0.929 . S
C392 H386 0.930 . S
C392 C393 1.367 . S
C392 C400 1.378 . S
C393 C392 1.367 . S
C393 C401 1.433 1_565 S
C394 H390 0.929 . S
C394 C396 1.378 . S
C394 C398 1.350 . S
C395 C398 1.463 1_565 S
C395 C400 1.350 . S
C395 N403 1.427 1_565 S
C396 H387 0.930 . S
C396 C394 1.378 . S
C396 C397 1.367 . S
C397 C396 1.367 . S
C397 C399 1.433 1_545 S
C398 C394 1.350 . S
C398 C395 1.463 1_545 S
C398 N402 1.427 1_545 S
C399 H389 0.929 . S
C399 C397 1.433 1_565 S
C399 N402 1.384 . S
C400 H391 0.929 . S
C400 C392 1.378 . S
C400 C395 1.350 . S
C401 H388 0.929 . S
C401 C393 1.433 1_545 S
C401 N403 1.384 . S
N402 C398 1.427 1_565 S
N402 C399 1.384 . S
N403 C395 1.427 1_545 S
N403 C401 1.384 . S
H404 C410 0.930 . S
H405 C414 0.930 . S
H406 C419 0.929 . S
H407 C417 0.929 . S
H408 C412 0.929 1_565 S
H409 C418 0.929 1_545 S
C410 H404 0.930 . S
C410 C411 1.367 . S
C410 C418 1.378 . S
C411 C410 1.367 . S
C411 C419 1.433 . S
C412 H408 0.929 1_545 S
C412 C414 1.378 . S
C412 C416 1.350 . S
C413 C416 1.463 1_565 S
C413 C418 1.350 . S
C413 N421 1.427 . S
C414 H405 0.930 . S
C414 C412 1.378 . S
C414 C415 1.367 . S
C415 C414 1.367 . S
C415 C417 1.433 . S
C416 C412 1.350 . S
C416 C413 1.463 1_545 S
C416 N420 1.427 . S
C417 H407 0.929 . S
C417 C415 1.433 . S
C417 N420 1.384 . S
C418 H409 0.929 1_565 S
C418 C410 1.378 . S
C418 C413 1.350 . S
C419 H406 0.929 . S
C419 C411 1.433 . S
C419 N421 1.384 . S
N420 C416 1.427 . S
N420 C417 1.384 . S
N421 C413 1.427 . S
N421 C419 1.384 . S
H422 C428 0.930 . S
H423 C432 0.930 . S
H424 C437 0.929 . S
H425 C435 0.929 . S
H426 C430 0.929 . S
H427 C436 0.929 . S
C428 H422 0.930 . S
C428 C429 1.367 . S
C428 C436 1.378 . S
C429 C428 1.367 . S
C429 C437 1.433 . S
C430 H426 0.929 . S
C430 C432 1.378 . S
C430 C434 1.350 . S
C431 C434 1.463 1_545 S
C431 C436 1.350 . S
C431 N439 1.427 1_545 S
C432 H423 0.930 . S
C432 C430 1.378 . S
C432 C433 1.367 . S
C433 C432 1.367 . S
C433 C435 1.433 . S
C434 C430 1.350 . S
C434 C431 1.463 1_565 S
C434 N438 1.427 1_565 S
C435 H425 0.929 . S
C435 C433 1.433 . S
C435 N438 1.384 1_565 S
C436 H427 0.929 . S
C436 C428 1.378 . S
C436 C431 1.350 . S
C437 H424 0.929 . S
C437 C429 1.433 . S
C437 N439 1.384 1_545 S
N438 C434 1.427 1_545 S
N438 C435 1.384 1_545 S
N439 C431 1.427 1_565 S
N439 C437 1.384 1_565 S
H440 C446 0.930 . S
H441 C450 0.930 . S
H442 C455 0.929 . S
H443 C453 0.929 . S
H444 C448 0.929 . S
H445 C454 0.929 . S
C446 H440 0.930 . S
C446 C447 1.367 . S
C446 C454 1.378 . S
C447 C446 1.367 . S
C447 C455 1.433 . S
C448 H444 0.929 . S
C448 C450 1.378 . S
C448 C452 1.350 . S
C449 C452 1.463 1_655 S
C449 C454 1.350 . S
C449 N457 1.427 . S
C450 H441 0.930 . S
C450 C448 1.378 . S
C450 C451 1.367 . S
C451 C450 1.367 . S
C451 C453 1.433 . S
C452 C448 1.350 . S
C452 C449 1.463 1_455 S
C452 N456 1.427 . S
C453 H443 0.929 . S
C453 C451 1.433 . S
C453 N456 1.384 . S
C454 H445 0.929 . S
C454 C446 1.378 . S
C454 C449 1.350 . S
C455 H442 0.929 . S
C455 C447 1.433 . S
C455 N457 1.384 . S
N456 C452 1.427 . S
N456 C453 1.384 . S
N457 C449 1.427 . S
N457 C455 1.384 . S
H458 C464 0.930 . S
H459 C468 0.930 . S
H460 C473 0.929 . S
H461 C471 0.929 . S
H462 C466 0.929 . S
H463 C472 0.929 . S
C464 H458 0.930 . S
C464 C465 1.367 . S
C464 C472 1.378 . S
C465 C464 1.367 . S
C465 C473 1.433 . S
C466 H462 0.929 . S
C466 C468 1.378 . S
C466 C470 1.350 . S
C467 C470 1.463 1_455 S
C467 C472 1.350 . S
C467 N475 1.427 . S
C468 H459 0.930 . S
C468 C466 1.378 . S
C468 C469 1.367 . S
C469 C468 1.367 . S
C469 C471 1.433 . S
C470 C466 1.350 . S
C470 C467 1.463 1_655 S
C470 N474 1.427 . S
C471 H461 0.929 . S
C471 C469 1.433 . S
C471 N474 1.384 . S
C472 H463 0.929 . S
C472 C464 1.378 . S
C472 C467 1.350 . S
C473 H460 0.929 . S
C473 C465 1.433 . S
C473 N475 1.384 . S
N474 C470 1.427 . S
N474 C471 1.384 . S
N475 C467 1.427 . S
N475 C473 1.384 . S
H476 C482 0.930 . S
H477 C486 0.930 . S
H478 C491 0.929 . S
H479 C489 0.929 . S
H480 C484 0.929 . S
H481 C490 0.929 . S
C482 H476 0.930 . S
C482 C483 1.367 . S
C482 C490 1.378 . S
C483 C482 1.367 . S
C483 C491 1.433 . S
C484 H480 0.929 . S
C484 C486 1.378 . S
C484 C488 1.350 . S
C485 C488 1.463 1_655 S
C485 C490 1.350 . S
C485 N493 1.427 . S
C486 H477 0.930 . S
C486 C484 1.378 . S
C486 C487 1.367 . S
C487 C486 1.367 . S
C487 C489 1.433 . S
C488 C484 1.350 . S
C488 C485 1.463 1_455 S
C488 N492 1.427 . S
C489 H479 0.929 . S
C489 C487 1.433 . S
C489 N492 1.384 . S
C490 H481 0.929 . S
C490 C482 1.378 . S
C490 C485 1.350 . S
C491 H478 0.929 . S
C491 C483 1.433 . S
C491 N493 1.384 . S
N492 C488 1.427 . S
N492 C489 1.384 . S
N493 C485 1.427 . S
N493 C491 1.384 . S
H494 C500 0.930 . S
H495 C504 0.930 . S
H496 C509 0.929 . S
H497 C507 0.929 . S
H498 C502 0.929 . S
H499 C508 0.929 . S
C500 H494 0.930 . S
C500 C501 1.367 . S
C500 C508 1.378 . S
C501 C500 1.367 . S
C501 C509 1.433 . S
C502 H498 0.929 . S
C502 C504 1.378 . S
C502 C506 1.350 . S
C503 C506 1.463 1_455 S
C503 C508 1.350 . S
C503 N511 1.427 . S
C504 H495 0.930 . S
C504 C502 1.378 . S
C504 C505 1.367 . S
C505 C504 1.367 . S
C505 C507 1.433 . S
C506 C502 1.350 . S
C506 C503 1.463 1_655 S
C506 N510 1.427 . S
C507 H497 0.929 . S
C507 C505 1.433 . S
C507 N510 1.384 . S
C508 H499 0.929 . S
C508 C500 1.378 . S
C508 C503 1.350 . S
C509 H496 0.929 . S
C509 C501 1.433 . S
C509 N511 1.384 . S
N510 C506 1.427 . S
N510 C507 1.384 . S
N511 C503 1.427 . S
N511 C509 1.384 . S
H512 C518 0.930 . S
H513 C522 0.930 . S
H514 C527 0.929 . S
H515 C525 0.929 . S
H516 C520 0.929 . S
H517 C526 0.929 . S
C518 H512 0.930 . S
C518 C519 1.367 . S
C518 C526 1.378 . S
C519 C518 1.367 . S
C519 C527 1.433 . S
C520 H516 0.929 . S
C520 C522 1.378 . S
C520 C524 1.350 . S
C521 C524 1.463 . S
C521 C526 1.350 . S
C521 N529 1.427 . S
C522 H513 0.930 . S
C522 C520 1.378 . S
C522 C523 1.367 . S
C523 C522 1.367 . S
C523 C525 1.433 . S
C524 C520 1.350 . S
C524 C521 1.463 . S
C524 N528 1.427 . S
C525 H515 0.929 . S
C525 C523 1.433 . S
C525 N528 1.384 . S
C526 H517 0.929 . S
C526 C518 1.378 . S
C526 C521 1.350 . S
C527 H514 0.929 . S
C527 C519 1.433 . S
C527 N529 1.384 . S
N528 C524 1.427 . S
N528 C525 1.384 . S
N529 C521 1.427 . S
N529 C527 1.384 . S
H530 C536 0.930 . S
H531 C540 0.930 . S
H532 C545 0.929 . S
H533 C543 0.929 . S
H534 C538 0.929 . S
H535 C544 0.929 . S
C536 H530 0.930 . S
C536 C537 1.367 . S
C536 C544 1.378 . S
C537 C536 1.367 . S
C537 C545 1.433 . S
C538 H534 0.929 . S
C538 C540 1.378 . S
C538 C542 1.350 . S
C539 C542 1.463 . S
C539 C544 1.350 . S
C539 N547 1.427 . S
C540 H531 0.930 . S
C540 C538 1.378 . S
C540 C541 1.367 . S
C541 C540 1.367 . S
C541 C543 1.433 . S
C542 C538 1.350 . S
C542 C539 1.463 . S
C542 N546 1.427 . S
C543 H533 0.929 . S
C543 C541 1.433 . S
C543 N546 1.384 . S
C544 H535 0.929 . S
C544 C536 1.378 . S
C544 C539 1.350 . S
C545 H532 0.929 . S
C545 C537 1.433 . S
C545 N547 1.384 . S
N546 C542 1.427 . S
N546 C543 1.384 . S
N547 C539 1.427 . S
N547 C545 1.384 . S
H548 C554 0.930 . S
H549 C558 0.930 . S
H550 C563 0.929 . S
H551 C561 0.929 . S
H552 C556 0.929 . S
H553 C562 0.929 . S
C554 H548 0.930 . S
C554 C555 1.367 . S
C554 C562 1.378 . S
C555 C554 1.367 . S
C555 C563 1.433 . S
C556 H552 0.929 . S
C556 C558 1.378 . S
C556 C560 1.350 . S
C557 C560 1.463 . S
C557 C562 1.350 . S
C557 N565 1.427 . S
C558 H549 0.930 . S
C558 C556 1.378 . S
C558 C559 1.367 . S
C559 C558 1.367 . S
C559 C561 1.433 . S
C560 C556 1.350 . S
C560 C557 1.463 . S
C560 N564 1.427 . S
C561 H551 0.929 . S
C561 C559 1.433 . S
C561 N564 1.384 . S
C562 H553 0.929 . S
C562 C554 1.378 . S
C562 C557 1.350 . S
C563 H550 0.929 . S
C563 C555 1.433 . S
C563 N565 1.384 . S
N564 C560 1.427 . S
N564 C561 1.384 . S
N565 C557 1.427 . S
N565 C563 1.384 . S
H566 C572 0.930 . S
H567 C576 0.930 . S
H568 C581 0.929 . S
H569 C579 0.929 . S
H570 C574 0.929 . S
H571 C580 0.929 . S
C572 H566 0.930 . S
C572 C573 1.367 . S
C572 C580 1.378 . S
C573 C572 1.367 . S
C573 C581 1.433 . S
C574 H570 0.929 . S
C574 C576 1.378 . S
C574 C578 1.350 . S
C575 C578 1.463 . S
C575 C580 1.350 . S
C575 N583 1.427 . S
C576 H567 0.930 . S
C576 C574 1.378 . S
C576 C577 1.367 . S
C577 C576 1.367 . S
C577 C579 1.433 . S
C578 C574 1.350 . S
C578 C575 1.463 . S
C578 N582 1.427 . S
C579 H569 0.929 . S
C579 C577 1.433 . S
C579 N582 1.384 . S
C580 H571 0.929 . S
C580 C572 1.378 . S
C580 C575 1.350 . S
C581 H568 0.929 . S
C581 C573 1.433 . S
C581 N583 1.384 . S
N582 C578 1.427 . S
N582 C579 1.384 . S
N583 C575 1.427 . S
N583 C581 1.384 . S
H584 C590 0.930 . S
H585 C594 0.930 . S
H586 C599 0.929 . S
H587 C597 0.929 . S
H588 C592 0.929 . S
H589 C598 0.929 . S
C590 H584 0.930 . S
C590 C591 1.367 . S
C590 C598 1.378 . S
C591 C590 1.367 . S
C591 C599 1.433 . S
C592 H588 0.929 . S
C592 C594 1.378 . S
C592 C596 1.350 . S
C593 C596 1.463 . S
C593 C598 1.350 . S
C593 N601 1.427 . S
C594 H585 0.930 . S
C594 C592 1.378 . S
C594 C595 1.367 . S
C595 C594 1.367 . S
C595 C597 1.433 . S
C596 C592 1.350 . S
C596 C593 1.463 . S
C596 N600 1.427 . S
C597 H587 0.929 . S
C597 C595 1.433 . S
C597 N600 1.384 . S
C598 H589 0.929 . S
C598 C590 1.378 . S
C598 C593 1.350 . S
C599 H586 0.929 . S
C599 C591 1.433 . S
C599 N601 1.384 . S
N600 C596 1.427 . S
N600 C597 1.384 . S
N601 C593 1.427 . S
N601 C599 1.384 . S
H602 C608 0.930 . S
H603 C612 0.930 . S
H604 C617 0.929 . S
H605 C615 0.929 . S
H606 C610 0.929 . S
H607 C616 0.929 . S
C608 H602 0.930 . S
C608 C609 1.367 . S
C608 C616 1.378 . S
C609 C608 1.367 . S
C609 C617 1.433 . S
C610 H606 0.929 . S
C610 C612 1.378 . S
C610 C614 1.350 . S
C611 C614 1.463 . S
C611 C616 1.350 . S
C611 N619 1.427 . S
C612 H603 0.930 . S
C612 C610 1.378 . S
C612 C613 1.367 . S
C613 C612 1.367 . S
C613 C615 1.433 . S
C614 C610 1.350 . S
C614 C611 1.463 . S
C614 N618 1.427 . S
C615 H605 0.929 . S
C615 C613 1.433 . S
C615 N618 1.384 . S
C616 H607 0.929 . S
C616 C608 1.378 . S
C616 C611 1.350 . S
C617 H604 0.929 . S
C617 C609 1.433 . S
C617 N619 1.384 . S
N618 C614 1.427 . S
N618 C615 1.384 . S
N619 C611 1.427 . S
N619 C617 1.384 . S
H620 C626 0.930 . S
H621 C630 0.930 . S
H622 C635 0.929 . S
H623 C633 0.929 . S
H624 C628 0.929 . S
H625 C634 0.929 . S
C626 H620 0.930 . S
C626 C627 1.367 . S
C626 C634 1.378 . S
C627 C626 1.367 . S
C627 C635 1.433 . S
C628 H624 0.929 . S
C628 C630 1.378 . S
C628 C632 1.350 . S
C629 C632 1.463 . S
C629 C634 1.350 . S
C629 N637 1.427 . S
C630 H621 0.930 . S
C630 C628 1.378 . S
C630 C631 1.367 . S
C631 C630 1.367 . S
C631 C633 1.433 . S
C632 C628 1.350 . S
C632 C629 1.463 . S
C632 N636 1.427 . S
C633 H623 0.929 . S
C633 C631 1.433 . S
C633 N636 1.384 . S
C634 H625 0.929 . S
C634 C626 1.378 . S
C634 C629 1.350 . S
C635 H622 0.929 . S
C635 C627 1.433 . S
C635 N637 1.384 . S
N636 C632 1.427 . S
N636 C633 1.384 . S
N637 C629 1.427 . S
N637 C635 1.384 . S
H638 C644 0.930 . S
H639 C648 0.930 . S
H640 C653 0.929 . S
H641 C651 0.929 . S
H642 C646 0.929 . S
H643 C652 0.929 . S
C644 H638 0.930 . S
C644 C645 1.367 . S
C644 C652 1.378 . S
C645 C644 1.367 . S
C645 C653 1.433 . S
C646 H642 0.929 . S
C646 C648 1.378 . S
C646 C650 1.350 . S
C647 C650 1.463 . S
C647 C652 1.350 . S
C647 N655 1.427 . S
C648 H639 0.930 . S
C648 C646 1.378 . S
C648 C649 1.367 . S
C649 C648 1.367 . S
C649 C651 1.433 . S
C650 C646 1.350 . S
C650 C647 1.463 . S
C650 N654 1.427 . S
C651 H641 0.929 . S
C651 C649 1.433 . S
C651 N654 1.384 . S
C652 H643 0.929 . S
C652 C644 1.378 . S
C652 C647 1.350 . S
C653 H640 0.929 . S
C653 C645 1.433 . S
C653 N655 1.384 . S
N654 C650 1.427 . S
N654 C651 1.384 . S
N655 C647 1.427 . S
N655 C653 1.384 . S
H656 C662 0.930 1_565 S
H657 C666 0.930 1_545 S
H658 C671 0.929 . S
H659 C669 0.929 . S
H660 C664 0.929 . S
H661 C670 0.929 . S
C662 H656 0.930 1_545 S
C662 C663 1.367 . S
C662 C670 1.378 1_545 S
C663 C662 1.367 . S
C663 C671 1.433 . S
C664 H660 0.929 . S
C664 C666 1.378 1_545 S
C664 C668 1.350 1_545 S
C665 C668 1.463 1_545 S
C665 C670 1.350 1_545 S
C665 N673 1.427 . S
C666 H657 0.930 1_565 S
C666 C664 1.378 1_565 S
C666 C667 1.367 . S
C667 C666 1.367 . S
C667 C669 1.433 . S
C668 C664 1.350 1_565 S
C668 C665 1.463 1_565 S
C668 N672 1.427 . S
C669 H659 0.929 . S
C669 C667 1.433 . S
C669 N672 1.384 . S
C670 H661 0.929 . S
C670 C662 1.378 1_565 S
C670 C665 1.350 1_565 S
C671 H658 0.929 . S
C671 C663 1.433 . S
C671 N673 1.384 . S
N672 C668 1.427 . S
N672 C669 1.384 . S
N673 C665 1.427 . S
N673 C671 1.384 . S
H674 C680 0.930 1_565 S
H675 C684 0.930 1_545 S
H676 C689 0.929 . S
H677 C687 0.929 . S
H678 C682 0.929 . S
H679 C688 0.929 . S
C680 H674 0.930 1_545 S
C680 C681 1.367 . S
C680 C688 1.378 1_545 S
C681 C680 1.367 . S
C681 C689 1.433 . S
C682 H678 0.929 . S
C682 C684 1.378 1_545 S
C682 C686 1.350 1_545 S
C683 C686 1.463 1_545 S
C683 C688 1.350 1_545 S
C683 N691 1.427 . S
C684 H675 0.930 1_565 S
C684 C682 1.378 1_565 S
C684 C685 1.367 . S
C685 C684 1.367 . S
C685 C687 1.433 . S
C686 C682 1.350 1_565 S
C686 C683 1.463 1_565 S
C686 N690 1.427 . S
C687 H677 0.929 . S
C687 C685 1.433 . S
C687 N690 1.384 . S
C688 H679 0.929 . S
C688 C680 1.378 1_565 S
C688 C683 1.350 1_565 S
C689 H676 0.929 . S
C689 C681 1.433 . S
C689 N691 1.384 . S
N690 C686 1.427 . S
N690 C687 1.384 . S
N691 C683 1.427 . S
N691 C689 1.384 . S
H692 C698 0.930 . S
H693 C702 0.930 . S
H694 C707 0.929 1_565 S
H695 C705 0.929 1_545 S
H696 C700 0.929 . S
H697 C706 0.929 . S
C698 H692 0.930 . S
C698 C699 1.367 . S
C698 C706 1.378 . S
C699 C698 1.367 . S
C699 C707 1.433 . S
C700 H696 0.929 . S
C700 C702 1.378 . S
C700 C704 1.350 . S
C701 C704 1.463 1_545 S
C701 C706 1.350 . S
C701 N709 1.427 1_545 S
C702 H693 0.930 . S
C702 C700 1.378 . S
C702 C703 1.367 . S
C703 C702 1.367 . S
C703 C705 1.433 . S
C704 C700 1.350 . S
C704 C701 1.463 1_565 S
C704 N708 1.427 1_565 S
C705 H695 0.929 1_565 S
C705 C703 1.433 . S
C705 N708 1.384 1_565 S
C706 H697 0.929 . S
C706 C698 1.378 . S
C706 C701 1.350 . S
C707 H694 0.929 1_545 S
C707 C699 1.433 . S
C707 N709 1.384 1_545 S
N708 C704 1.427 1_545 S
N708 C705 1.384 1_545 S
N709 C701 1.427 1_565 S
N709 C707 1.384 1_565 S
H710 C716 0.935 . S
H711 C720 0.935 . S
H712 C725 0.929 . S
H713 C723 0.929 . S
H714 C718 0.929 . S
H715 C724 0.929 . S
C716 H710 0.935 . S
C716 C717 1.367 . S
C716 C724 1.378 1_565 S
C717 C716 1.367 . S
C717 C725 1.433 . S
C718 H714 0.929 . S
C718 C720 1.378 1_565 S
C718 C722 1.350 1_565 S
C719 C722 1.463 1_565 S
C719 C724 1.350 1_565 S
C719 N727 1.427 . S
C720 H711 0.935 . S
C720 C718 1.378 1_545 S
C720 C721 1.367 . S
C721 C720 1.367 . S
C721 C723 1.433 . S
C722 C718 1.350 1_545 S
C722 C719 1.463 1_545 S
C722 N726 1.427 . S
C723 H713 0.929 . S
C723 C721 1.433 . S
C723 N726 1.384 . S
C724 H715 0.929 . S
C724 C716 1.378 1_545 S
C724 C719 1.350 1_545 S
C725 H712 0.929 . S
C725 C717 1.433 . S
C725 N727 1.384 . S
N726 C722 1.427 . S
N726 C723 1.384 . S
N727 C719 1.427 . S
N727 C725 1.384 . S
H728 C734 0.930 . S
H729 C738 0.930 . S
H730 C743 0.929 . S
H731 C741 0.929 . S
H732 C736 0.929 . S
H733 C742 0.929 . S
C734 H728 0.930 . S
C734 C735 1.367 . S
C734 C742 1.378 . S
C735 C734 1.367 . S
C735 C743 1.433 . S
C736 H732 0.929 . S
C736 C738 1.378 . S
C736 C740 1.350 . S
C737 C740 1.463 . S
C737 C742 1.350 . S
C737 N745 1.427 . S
C738 H729 0.930 . S
C738 C736 1.378 . S
C738 C739 1.367 . S
C739 C738 1.367 . S
C739 C741 1.433 . S
C740 C736 1.350 . S
C740 C737 1.463 . S
C740 N744 1.427 . S
C741 H731 0.929 . S
C741 C739 1.433 . S
C741 N744 1.384 . S
C742 H733 0.929 . S
C742 C734 1.378 . S
C742 C737 1.350 . S
C743 H730 0.929 . S
C743 C735 1.433 . S
C743 N745 1.384 . S
N744 C740 1.427 . S
N744 C741 1.384 . S
N745 C737 1.427 . S
N745 C743 1.384 . S
H746 C752 0.930 . S
H747 C756 0.930 . S
H748 C761 0.929 . S
H749 C759 0.929 . S
H750 C754 0.929 . S
H751 C760 0.929 . S
C752 H746 0.930 . S
C752 C753 1.367 . S
C752 C760 1.378 . S
C753 C752 1.367 . S
C753 C761 1.433 . S
C754 H750 0.929 . S
C754 C756 1.378 . S
C754 C758 1.350 . S
C755 C758 1.463 . S
C755 C760 1.350 . S
C755 N763 1.427 . S
C756 H747 0.930 . S
C756 C754 1.378 . S
C756 C757 1.367 . S
C757 C756 1.367 . S
C757 C759 1.433 . S
C758 C754 1.350 . S
C758 C755 1.463 . S
C758 N762 1.427 . S
C759 H749 0.929 . S
C759 C757 1.433 . S
C759 N762 1.384 . S
C760 H751 0.929 . S
C760 C752 1.378 . S
C760 C755 1.350 . S
C761 H748 0.929 . S
C761 C753 1.433 . S
C761 N763 1.384 . S
N762 C758 1.427 . S
N762 C759 1.384 . S
N763 C755 1.427 . S
N763 C761 1.384 . S
H764 C770 0.930 . S
H765 C774 0.930 . S
H766 C779 0.929 . S
H767 C777 0.929 . S
H768 C772 0.929 . S
H769 C778 0.929 . S
C770 H764 0.930 . S
C770 C771 1.367 . S
C770 C778 1.378 . S
C771 C770 1.367 . S
C771 C779 1.433 . S
C772 H768 0.929 . S
C772 C774 1.378 . S
C772 C776 1.350 . S
C773 C776 1.463 . S
C773 C778 1.350 . S
C773 N781 1.427 . S
C774 H765 0.930 . S
C774 C772 1.378 . S
C774 C775 1.367 . S
C775 C774 1.367 . S
C775 C777 1.433 . S
C776 C772 1.350 . S
C776 C773 1.463 . S
C776 N780 1.427 . S
C777 H767 0.929 . S
C777 C775 1.433 . S
C777 N780 1.384 . S
C778 H769 0.929 . S
C778 C770 1.378 . S
C778 C773 1.350 . S
C779 H766 0.929 . S
C779 C771 1.433 . S
C779 N781 1.384 . S
N780 C776 1.427 . S
N780 C777 1.384 . S
N781 C773 1.427 . S
N781 C779 1.384 . S
H782 C788 0.930 . S
H783 C792 0.930 . S
H784 C797 0.929 . S
H785 C795 0.929 . S
H786 C790 0.929 . S
H787 C796 0.929 . S
C788 H782 0.930 . S
C788 C789 1.367 . S
C788 C796 1.378 . S
C789 C788 1.367 . S
C789 C797 1.433 . S
C790 H786 0.929 . S
C790 C792 1.378 . S
C790 C794 1.350 . S
C791 C794 1.463 . S
C791 C796 1.350 . S
C791 N799 1.427 . S
C792 H783 0.930 . S
C792 C790 1.378 . S
C792 C793 1.367 . S
C793 C792 1.367 . S
C793 C795 1.433 . S
C794 C790 1.350 . S
C794 C791 1.463 . S
C794 N798 1.427 . S
C795 H785 0.929 . S
C795 C793 1.433 . S
C795 N798 1.384 . S
C796 H787 0.929 . S
C796 C788 1.378 . S
C796 C791 1.350 . S
C797 H784 0.929 . S
C797 C789 1.433 . S
C797 N799 1.384 . S
N798 C794 1.427 . S
N798 C795 1.384 . S
N799 C791 1.427 . S
N799 C797 1.384 . S
C231 C0 1.616 . S
C235 C70 1.609 . S
C249 C56 1.615 . S
C253 C27 1.610 . S
C267 C28 1.616 . S
C271 C98 1.609 . S
C285 C84 1.613 . S
C289 C43 1.611 . S
C303 C195 1.615 . S
C307 C112 1.611 . S
C321 C168 1.614 . S
C325 C126 1.611 . S
C339 C210 1.611 . S
C343 C140 1.615 . S
C357 C166 1.616 . S
C361 C196 1.609 . S
C375 C15 1.506 . S
C379 C12 1.503 . S
C393 C40 1.503 . S
C397 C55 1.504 . S
C411 C68 1.502 . S
C415 C82 1.506 . S
C429 C96 1.502 . S
C433 C110 1.505 . S
C447 C124 1.502 . S
C451 C138 1.505 . S
C465 C154 1.504 . S
C469 C152 1.506 . S
C483 C183 1.502 . S
C487 C180 1.504 . S
C501 C208 1.505 . S
C505 C222 1.505 . S
C519 C139 1.502 . S
C523 C13 1.505 . S
C537 C14 1.506 . S
C541 C125 1.502 . S
C555 C155 1.502 . S
C559 C41 1.506 . S
C573 C54 1.503 . S
C577 C153 1.506 . S
C591 C69 1.505 . S
C595 C182 1.503 . S
C609 C181 1.505 . S
C613 C83 1.502 . S
C627 C97 1.505 . S
C631 C223 1.504 . S
C645 C209 1.503 . S
C649 C111 1.506 . S
C663 C1 1.631 . S
C667 C29 1.630 . S
C681 C42 1.632 . S
C685 C26 1.634 . S
C699 C85 1.637 . S
C703 C57 1.639 . S
C717 C99 1.634 . S
C721 C71 1.632 . S
C735 C141 1.635 . S
C739 C113 1.632 . S
C753 C127 1.636 . S
C757 C167 1.632 . S
C771 C197 1.633 . S
C775 C169 1.632 . S
C789 C194 1.631 . S
C793 C211 1.633 . S
