# Generated by pormake.
# Topology ums, (4)-cn, num edge types: 1
# Building blocks:
#     Node 0, Type 0, BuildingBlock: CEKHIL_clean_sbu_0, # of connection points: 4
#     Node 1, Type 0, BuildingBlock: CEKHIL_clean_sbu_0, # of connection points: 4
#     Node 2, Type 0, BuildingBlock: CEKHIL_clean_sbu_0, # of connection points: 4
#     Node 3, Type 0, BuildingBlock: CEKHIL_clean_sbu_0, # of connection points: 4
#     Node 4, Type 0, BuildingBlock: CEKHIL_clean_sbu_0, # of connection points: 4
#     Node 5, Type 0, BuildingBlock: CEKHIL_clean_sbu_0, # of connection points: 4
#     Node 6, Type 0, BuildingBlock: CEKHIL_clean_sbu_0, # of connection points: 4
#     Node 7, Type 0, BuildingBlock: CEKHIL_clean_sbu_0, # of connection points: 4
#     Node 8, Type 0, BuildingBlock: CEKHIL_clean_sbu_0, # of connection points: 4
#     Node 9, Type 0, BuildingBlock: CEKHIL_clean_sbu_0, # of connection points: 4
#     Node 10, Type 0, BuildingBlock: CEKHIL_clean_sbu_0, # of connection points: 4
#     Node 11, Type 0, BuildingBlock: CEKHIL_clean_sbu_0, # of connection points: 4
#     Node 12, Type 0, BuildingBlock: CEKHIL_clean_sbu_0, # of connection points: 4
#     Node 13, Type 0, BuildingBlock: CEKHIL_clean_sbu_0, # of connection points: 4
#     Node 14, Type 0, BuildingBlock: CEKHIL_clean_sbu_0, # of connection points: 4
#     Node 15, Type 0, BuildingBlock: CEKHIL_clean_sbu_0, # of connection points: 4
#     Node 16, Type 0, BuildingBlock: CEKHIL_clean_sbu_0, # of connection points: 4
#     Node 17, Type 0, BuildingBlock: CEKHIL_clean_sbu_0, # of connection points: 4
#     Node 18, Type 0, BuildingBlock: CEKHIL_clean_sbu_0, # of connection points: 4
#     Node 19, Type 0, BuildingBlock: CEKHIL_clean_sbu_0, # of connection points: 4
#     Node 20, Type 0, BuildingBlock: CEKHIL_clean_sbu_0, # of connection points: 4
#     Node 21, Type 0, BuildingBlock: CEKHIL_clean_sbu_0, # of connection points: 4
#     Node 22, Type 0, BuildingBlock: CEKHIL_clean_sbu_0, # of connection points: 4
#     Node 23, Type 0, BuildingBlock: CEKHIL_clean_sbu_0, # of connection points: 4
#     Node 24, Type 0, BuildingBlock: CEKHIL_clean_sbu_0, # of connection points: 4
#     Node 25, Type 0, BuildingBlock: CEKHIL_clean_sbu_0, # of connection points: 4
#     Node 26, Type 0, BuildingBlock: CEKHIL_clean_sbu_0, # of connection points: 4
#     Node 27, Type 0, BuildingBlock: CEKHIL_clean_sbu_0, # of connection points: 4
#     Node 28, Type 0, BuildingBlock: CEKHIL_clean_sbu_0, # of connection points: 4
#     Node 29, Type 0, BuildingBlock: CEKHIL_clean_sbu_0, # of connection points: 4
#     Node 30, Type 0, BuildingBlock: CEKHIL_clean_sbu_0, # of connection points: 4
#     Node 31, Type 0, BuildingBlock: CEKHIL_clean_sbu_0, # of connection points: 4
#     Node 32, Type 0, BuildingBlock: CEKHIL_clean_sbu_0, # of connection points: 4
#     Node 33, Type 0, BuildingBlock: CEKHIL_clean_sbu_0, # of connection points: 4
#     Node 34, Type 0, BuildingBlock: CEKHIL_clean_sbu_0, # of connection points: 4
#     Node 35, Type 0, BuildingBlock: CEKHIL_clean_sbu_0, # of connection points: 4
#     Edge 36, Type (0, 0), None
#     Edge 37, Type (0, 0), None
#     Edge 38, Type (0, 0), None
#     Edge 39, Type (0, 0), None
#     Edge 40, Type (0, 0), None
#     Edge 41, Type (0, 0), None
#     Edge 42, Type (0, 0), None
#     Edge 43, Type (0, 0), None
#     Edge 44, Type (0, 0), None
#     Edge 45, Type (0, 0), None
#     Edge 46, Type (0, 0), None
#     Edge 47, Type (0, 0), None
#     Edge 48, Type (0, 0), None
#     Edge 49, Type (0, 0), None
#     Edge 50, Type (0, 0), None
#     Edge 51, Type (0, 0), None
#     Edge 52, Type (0, 0), None
#     Edge 53, Type (0, 0), None
#     Edge 54, Type (0, 0), None
#     Edge 55, Type (0, 0), None
#     Edge 56, Type (0, 0), None
#     Edge 57, Type (0, 0), None
#     Edge 58, Type (0, 0), None
#     Edge 59, Type (0, 0), None
#     Edge 60, Type (0, 0), None
#     Edge 61, Type (0, 0), None
#     Edge 62, Type (0, 0), None
#     Edge 63, Type (0, 0), None
#     Edge 64, Type (0, 0), None
#     Edge 65, Type (0, 0), None
#     Edge 66, Type (0, 0), None
#     Edge 67, Type (0, 0), None
#     Edge 68, Type (0, 0), None
#     Edge 69, Type (0, 0), None
#     Edge 70, Type (0, 0), None
#     Edge 71, Type (0, 0), None
#     Edge 72, Type (0, 0), None
#     Edge 73, Type (0, 0), None
#     Edge 74, Type (0, 0), None
#     Edge 75, Type (0, 0), None
#     Edge 76, Type (0, 0), None
#     Edge 77, Type (0, 0), None
#     Edge 78, Type (0, 0), None
#     Edge 79, Type (0, 0), None
#     Edge 80, Type (0, 0), None
#     Edge 81, Type (0, 0), None
#     Edge 82, Type (0, 0), None
#     Edge 83, Type (0, 0), None
#     Edge 84, Type (0, 0), None
#     Edge 85, Type (0, 0), None
#     Edge 86, Type (0, 0), None
#     Edge 87, Type (0, 0), None
#     Edge 88, Type (0, 0), None
#     Edge 89, Type (0, 0), None
#     Edge 90, Type (0, 0), None
#     Edge 91, Type (0, 0), None
#     Edge 92, Type (0, 0), None
#     Edge 93, Type (0, 0), None
#     Edge 94, Type (0, 0), None
#     Edge 95, Type (0, 0), None
#     Edge 96, Type (0, 0), None
#     Edge 97, Type (0, 0), None
#     Edge 98, Type (0, 0), None
#     Edge 99, Type (0, 0), None
#     Edge 100, Type (0, 0), None
#     Edge 101, Type (0, 0), None
#     Edge 102, Type (0, 0), None
#     Edge 103, Type (0, 0), None
#     Edge 104, Type (0, 0), None
#     Edge 105, Type (0, 0), None
#     Edge 106, Type (0, 0), None
#     Edge 107, Type (0, 0), None
# Relax obj value: 0.191
# Max RMSD: 0.155
# Mean RMSD: 0.153
data_MOF--net-ums--node1-CEKHIL_clean_sbu_0--edge1-none
_symmetry_space_group_name_H-M    P1
_symmetry_Int_Tables_number       1
_symmetry_cell_setting            triclinic
loop_
_symmetry_equiv_pos_as_xyz
'x, y, z'
_cell_length_a     41.476548
_cell_length_b     41.477919
_cell_length_c     11.659396
_cell_angle_alpha  89.995901
_cell_angle_beta   90.010024
_cell_angle_gamma 120.0022
loop_
_atom_site_label
_atom_site_type_symbol
_atom_site_fract_x
_atom_site_fract_y
_atom_site_fract_z
_atom_type_partial_charge
Co0 Co 0.24594 0.30566 0.156 0.0
O1 O 0.29182 0.31102 0.22075 0.0
O2 O 0.24698 0.25978 0.14106 0.0
C3 C 0.27389 0.36082 0.06391 0.0
O4 O 0.19688 0.28812 0.06818 0.0
Co5 Co 0.20991 0.35355 0.19002 0.0
O6 O 0.18718 0.33532 0.03918 0.0
C7 C 0.20739 0.3055 0.37886 0.0
C8 C 0.27933 0.27661 0.19015 0.0
C9 C 0.18549 0.30565 0.00354 0.0
O10 O 0.22126 0.29026 0.31373 0.0
O11 O 0.20119 0.33104 0.34447 0.0
O12 O 0.2732 0.33178 0.01862 0.0
O13 O 0.25818 0.35615 0.163 0.0
Co14 Co 0.80861 0.96313 0.156 0.0
O15 O 0.80324 1.00363 0.22074 0.0
O16 O 0.85449 1.01005 0.14108 0.0
C17 C 0.75345 0.93591 0.06389 0.0
O18 O 0.82616 0.93162 0.0682 0.0
Co19 Co 0.76073 0.87921 0.19003 0.0
O20 O 0.77897 0.87471 0.03921 0.0
C21 C 0.80877 0.92473 0.3789 0.0
C22 C 0.83765 1.02556 0.19016 0.0
C23 C 0.80863 0.9027 0.00358 0.0
O24 O 0.82402 0.95385 0.31374 0.0
O25 O 0.78323 0.893 0.34451 0.0
O26 O 0.78249 0.96427 0.01861 0.0
O27 O 0.75812 0.92487 0.16298 0.0
Co28 Co 0.15114 0.86832 0.15598 0.0
O29 O 0.11064 0.82245 0.22075 0.0
O30 O 0.10422 0.86727 0.14104 0.0
C31 C 0.17835 0.84037 0.06391 0.0
O32 O 0.18265 0.91738 0.06815 0.0
Co33 Co 0.23506 0.90436 0.19004 0.0
O34 O 0.23956 0.92709 0.03922 0.0
C35 C 0.18955 0.90687 0.37887 0.0
C36 C 0.08871 0.83493 0.19014 0.0
C37 C 0.21158 0.92877 0.00355 0.0
O38 O 0.16043 0.89301 0.31371 0.0
O39 O 0.22128 0.91307 0.3445 0.0
O40 O 0.14999 0.84106 0.01861 0.0
O41 O 0.1894 0.85609 0.16299 0.0
Co42 Co 0.32851 0.22308 0.2485 0.0
O43 O 0.33388 0.26895 0.18375 0.0
O44 O 0.28263 0.22412 0.26341 0.0
C45 C 0.38367 0.25102 0.34061 0.0
O46 O 0.31097 0.17401 0.33631 0.0
Co47 Co 0.37639 0.18704 0.21449 0.0
O48 O 0.35816 0.16431 0.36531 0.0
C49 C 0.32836 0.18453 0.02561 0.0
C50 C 0.29947 0.25646 0.21432 0.0
C51 C 0.3285 0.16262 0.40094 0.0
O52 O 0.31311 0.19839 0.09076 0.0
O53 O 0.35389 0.17833 0.06001 0.0
O54 O 0.35463 0.25033 0.38589 0.0
O55 O 0.379 0.23531 0.24152 0.0
Co56 Co 0.89118 0.12828 0.24852 0.0
O57 O 0.84531 0.08777 0.18374 0.0
O58 O 0.89014 0.08136 0.26346 0.0
C59 C 0.86323 0.15549 0.34059 0.0
O60 O 0.94024 0.1598 0.33636 0.0
Co61 Co 0.92721 0.2122 0.21448 0.0
O62 O 0.94995 0.2167 0.36532 0.0
C63 C 0.92974 0.16668 0.02565 0.0
C64 C 0.8578 0.06585 0.21434 0.0
C65 C 0.95163 0.18872 0.40098 0.0
O66 O 0.91587 0.13757 0.0908 0.0
O67 O 0.93593 0.19842 0.06003 0.0
O68 O 0.86392 0.12714 0.38588 0.0
O69 O 0.87895 0.16654 0.24151 0.0
Co70 Co 0.98599 0.78575 0.24852 0.0
O71 O 1.02649 0.78038 0.18375 0.0
O72 O 1.03292 0.83163 0.26344 0.0
C73 C 0.95877 0.73059 0.34061 0.0
O74 O 0.95448 0.8033 0.33635 0.0
Co75 Co 0.90206 0.73787 0.21447 0.0
O76 O 0.89757 0.75611 0.36528 0.0
C77 C 0.94759 0.7859 0.02562 0.0
C78 C 1.04842 0.81479 0.21433 0.0
C79 C 0.92556 0.78577 0.40094 0.0
O80 O 0.9767 0.80116 0.09079 0.0
O81 O 0.91585 0.76035 0.05999 0.0
O82 O 0.98714 0.75963 0.3859 0.0
O83 O 0.94773 0.73526 0.24152 0.0
Co84 Co 0.89119 0.78575 0.7485 0.0
O85 O 0.84533 0.7804 0.68369 0.0
O86 O 0.89015 0.83163 0.76344 0.0
C87 C 0.86322 0.73059 0.84057 0.0
O88 O 0.94023 0.80328 0.83643 0.0
Co89 Co 0.92718 0.73781 0.7144 0.0
O90 O 0.94994 0.75605 0.86519 0.0
C91 C 0.92983 0.78596 0.52572 0.0
C92 C 0.85781 0.81481 0.71433 0.0
C93 C 0.95166 0.78574 0.90083 0.0
O94 O 0.9159 0.80116 0.59079 0.0
O95 O 0.936 0.7604 0.56005 0.0
O96 O 0.86391 0.75963 0.88585 0.0
O97 O 0.87894 0.73526 0.74149 0.0
Co98 Co 0.32851 0.12828 0.74852 0.0
O99 O 0.33387 0.08778 0.68372 0.0
O100 O 0.28263 0.08135 0.76345 0.0
C101 C 0.38368 0.15549 0.84062 0.0
O102 O 0.31097 0.15978 0.83644 0.0
Co103 Co 0.37644 0.21221 0.71442 0.0
O104 O 0.35819 0.21672 0.86519 0.0
C105 C 0.3283 0.16671 0.52572 0.0
C106 C 0.29946 0.06585 0.71434 0.0
C107 C 0.32851 0.18876 0.90083 0.0
O108 O 0.3131 0.13758 0.59081 0.0
O109 O 0.35387 0.19844 0.56004 0.0
O110 O 0.35464 0.12713 0.88589 0.0
O111 O 0.379 0.16653 0.74153 0.0
Co112 Co 0.98599 0.22309 0.74855 0.0
O113 O 1.02649 0.26894 0.68371 0.0
O114 O 1.03291 0.22413 0.76349 0.0
C115 C 0.95879 0.25105 0.84061 0.0
O116 O 0.95449 0.17405 0.8365 0.0
Co117 Co 0.90206 0.18709 0.71441 0.0
O118 O 0.89755 0.16433 0.86519 0.0
C119 C 0.94755 0.18444 0.52575 0.0
C120 C 1.04842 0.25646 0.71435 0.0
C121 C 0.92551 0.16261 0.90086 0.0
O122 O 0.97668 0.19837 0.59085 0.0
O123 O 0.91582 0.17828 0.56005 0.0
O124 O 0.98715 0.25037 0.88589 0.0
O125 O 0.94774 0.23533 0.74152 0.0
Co126 Co 0.80861 0.86833 0.656 0.0
O127 O 0.80326 0.82247 0.72081 0.0
O128 O 0.8545 0.86729 0.64108 0.0
C129 C 0.75345 0.84037 0.56391 0.0
O130 O 0.82615 0.91737 0.56808 0.0
Co131 Co 0.76068 0.90433 0.69009 0.0
O132 O 0.77893 0.92709 0.53931 0.0
C133 C 0.80882 0.90697 0.8788 0.0
C134 C 0.83767 0.83496 0.69019 0.0
C135 C 0.80861 0.92881 0.50368 0.0
O136 O 0.82403 0.89304 0.81372 0.0
O137 O 0.78326 0.91314 0.84447 0.0
O138 O 0.78249 0.84106 0.51864 0.0
O139 O 0.75812 0.85609 0.66299 0.0
Co140 Co 0.24595 0.96313 0.65599 0.0
O141 O 0.2918 1.00364 0.72083 0.0
O142 O 0.24698 1.01004 0.64105 0.0
C143 C 0.27391 0.93593 0.56394 0.0
O144 O 0.19691 0.93162 0.56804 0.0
Co145 Co 0.20996 0.8792 0.69011 0.0
O146 O 0.1872 0.87468 0.53931 0.0
C147 C 0.2073 0.92469 0.87877 0.0
C148 C 0.27932 1.02555 0.69019 0.0
C149 C 0.18547 0.90264 0.50366 0.0
O150 O 0.22123 0.95382 0.81369 0.0
O151 O 0.20113 0.89296 0.84446 0.0
O152 O 0.27323 0.96429 0.51865 0.0
O153 O 0.25819 0.92488 0.66302 0.0
Co154 Co 0.15113 0.30566 0.65596 0.0
O155 O 0.11064 0.31101 0.72079 0.0
O156 O 0.10421 0.25978 0.64103 0.0
C157 C 0.17834 0.36082 0.56388 0.0
O158 O 0.18263 0.28812 0.56801 0.0
Co159 Co 0.23507 0.35359 0.69008 0.0
O160 O 0.23958 0.33534 0.53931 0.0
C161 C 0.18958 0.30546 0.87876 0.0
C162 C 0.08871 0.27661 0.69017 0.0
C163 C 0.21161 0.30566 0.50365 0.0
O164 O 0.16045 0.29024 0.81366 0.0
O165 O 0.22131 0.33102 0.84446 0.0
O166 O 0.14997 0.33178 0.51861 0.0
O167 O 0.18939 0.35615 0.66297 0.0
Co168 Co 0.91259 0.63899 0.48967 0.0
O169 O 0.95847 0.64433 0.5543 0.0
O170 O 0.91361 0.5931 0.47467 0.0
C171 C 0.94055 0.69415 0.39758 0.0
O172 O 0.86351 0.62146 0.40195 0.0
Co173 Co 0.87659 0.68689 0.52376 0.0
O174 O 0.85384 0.66867 0.37293 0.0
C175 C 0.87408 0.63885 0.71261 0.0
C176 C 0.94597 0.60992 0.52368 0.0
C177 C 0.85214 0.639 0.33729 0.0
O178 O 0.88794 0.6236 0.64745 0.0
O179 O 0.86789 0.66439 0.67823 0.0
O180 O 0.93983 0.6651 0.35226 0.0
O181 O 0.92485 0.68948 0.49669 0.0
Co182 Co 0.47528 0.29645 0.48971 0.0
O183 O 0.46993 0.33698 0.55432 0.0
O184 O 0.52117 0.34336 0.47473 0.0
C185 C 0.42012 0.26924 0.3976 0.0
O186 O 0.49281 0.26491 0.40201 0.0
Co187 Co 0.42738 0.21254 0.52382 0.0
O188 O 0.44561 0.20801 0.37301 0.0
C189 C 0.47541 0.25808 0.71269 0.0
C190 C 0.50434 0.35889 0.52372 0.0
C191 C 0.47528 0.23599 0.33737 0.0
O192 O 0.49068 0.28719 0.64751 0.0
O193 O 0.44987 0.22635 0.67831 0.0
O194 O 0.44917 0.29758 0.35228 0.0
O195 O 0.42479 0.2582 0.49671 0.0
Co196 Co 0.81781 0.20167 0.48963 0.0
O197 O 0.77729 0.1558 0.55429 0.0
O198 O 0.7709 0.20065 0.47464 0.0
C199 C 0.84502 0.17372 0.39756 0.0
O200 O 0.84935 0.25074 0.40188 0.0
Co201 Co 0.90173 0.23768 0.52376 0.0
O202 O 0.90625 0.26043 0.37295 0.0
C203 C 0.8562 0.24018 0.71259 0.0
C204 C 0.75538 0.16829 0.52367 0.0
C205 C 0.87827 0.26213 0.33727 0.0
O206 O 0.82709 0.22634 0.6474 0.0
O207 O 0.88793 0.24637 0.67823 0.0
O208 O 0.81667 0.17443 0.35223 0.0
O209 O 0.85606 0.18942 0.49666 0.0
Co210 Co 0.99517 0.55638 0.58169 0.0
O211 O 1.00052 0.60226 0.51709 0.0
O212 O 0.94929 0.55741 0.5967 0.0
C213 C 1.05034 0.58432 0.67377 0.0
O214 O 0.97763 0.5073 0.66936 0.0
Co215 Co 1.04305 0.52035 0.54757 0.0
O216 O 1.02483 0.4976 0.69839 0.0
C217 C 0.99503 0.51789 0.3587 0.0
C218 C 0.96612 0.58977 0.5477 0.0
C219 C 0.99517 0.49592 0.73403 0.0
O220 O 0.97977 0.53173 0.42389 0.0
O221 O 1.02058 0.5117 0.39307 0.0
O222 O 1.02129 0.58361 0.71911 0.0
O223 O 1.04566 0.56862 0.57466 0.0
Co224 Co 0.55788 0.46163 0.58174 0.0
O225 O 0.512 0.4211 0.51711 0.0
O226 O 0.55685 0.41472 0.59677 0.0
C227 C 0.52994 0.48885 0.67377 0.0
O228 O 0.60696 0.49318 0.66944 0.0
Co229 Co 0.5939 0.54555 0.54759 0.0
O230 O 0.61665 0.55007 0.69843 0.0
C231 C 0.59637 0.49999 0.35876 0.0
C232 C 0.5245 0.39919 0.54775 0.0
C233 C 0.61834 0.5221 0.73409 0.0
O234 O 0.58253 0.47089 0.42396 0.0
O235 O 0.60257 0.53173 0.39312 0.0
O236 O 0.53065 0.46052 0.71913 0.0
O237 O 0.54564 0.49988 0.57467 0.0
Co238 Co 0.65264 0.1191 0.58176 0.0
O239 O 0.69316 0.11374 0.51712 0.0
O240 O 0.69956 0.16498 0.59677 0.0
C241 C 0.62541 0.06394 0.67382 0.0
O242 O 0.6211 0.13664 0.66947 0.0
Co243 Co 0.56872 0.07122 0.54761 0.0
O244 O 0.5642 0.08945 0.69842 0.0
C245 C 0.61427 0.11923 0.35876 0.0
C246 C 0.71507 0.14815 0.54774 0.0
C247 C 0.59218 0.11911 0.73409 0.0
O248 O 0.64338 0.1345 0.42398 0.0
O249 O 0.58254 0.09368 0.3931 0.0
O250 O 0.65376 0.09298 0.71916 0.0
O251 O 0.61438 0.06861 0.57471 0.0
Co252 Co 0.55789 0.1191 0.08175 0.0
O253 O 0.51201 0.11376 0.01708 0.0
O254 O 0.55687 0.16499 0.09679 0.0
C255 C 0.52993 0.06393 0.17378 0.0
O256 O 0.60695 0.13662 0.16955 0.0
Co257 Co 0.59387 0.07116 0.04754 0.0
O258 O 0.61664 0.08939 0.19834 0.0
C259 C 0.59647 0.11929 0.85887 0.0
C260 C 0.52451 0.14816 0.04776 0.0
C261 C 0.61837 0.11907 0.23398 0.0
O262 O 0.58256 0.13451 0.92399 0.0
O263 O 0.60264 0.09373 0.89316 0.0
O264 O 0.53064 0.09297 0.21912 0.0
O265 O 0.54563 0.0686 0.07467 0.0
Co266 Co 0.99517 0.46163 0.08171 0.0
O267 O 1.00051 0.42111 0.01705 0.0
O268 O 0.94928 0.41472 0.09673 0.0
C269 C 1.05034 0.48885 0.17378 0.0
O270 O 0.97764 0.49317 0.1695 0.0
Co271 Co 1.0431 0.54556 0.0475 0.0
O272 O 1.02487 0.5501 0.19827 0.0
C273 C 0.99498 0.50002 0.8588 0.0
C274 C 0.96611 0.3992 0.04771 0.0
C275 C 0.99518 0.52214 0.23391 0.0
O276 O 0.97976 0.4709 0.92394 0.0
O277 O 1.02055 0.53175 0.89309 0.0
O278 O 1.02129 0.46051 0.21911 0.0
O279 O 1.04566 0.49988 0.07466 0.0
Co280 Co 0.65264 0.55639 0.08176 0.0
O281 O 0.69316 0.60226 0.01707 0.0
O282 O 0.69955 0.55742 0.0968 0.0
C283 C 0.62543 0.58434 0.17379 0.0
O284 O 0.62111 0.50733 0.16959 0.0
Co285 Co 0.56871 0.5204 0.04752 0.0
O286 O 0.56417 0.49762 0.1983 0.0
C287 C 0.61424 0.51781 0.85886 0.0
C288 C 0.71507 0.58976 0.04774 0.0
C289 C 0.59213 0.4959 0.23398 0.0
O290 O 0.64336 0.5317 0.92401 0.0
O291 O 0.58251 0.51164 0.89313 0.0
O292 O 0.65377 0.58365 0.21913 0.0
O293 O 0.61439 0.56864 0.07468 0.0
Co294 Co 0.47529 0.20168 -0.01029 0.0
O295 O 0.46995 0.15582 0.0544 0.0
O296 O 0.52118 0.20067 -0.02526 0.0
C297 C 0.42012 0.17371 0.89762 0.0
O298 O 0.4928 0.25074 0.90189 0.0
Co299 Co 0.42733 0.23765 0.02388 0.0
O300 O 0.44557 0.26043 0.87311 0.0
C301 C 0.47547 0.24027 0.21259 0.0
C302 C 0.50436 0.16832 0.02376 0.0
C303 C 0.47526 0.26216 0.83748 0.0
O304 O 0.49068 0.22636 0.14748 0.0
O305 O 0.4499 0.24643 0.17827 0.0
O306 O 0.44917 0.17443 0.85231 0.0
O307 O 0.42479 0.18941 -0.00328 0.0
Co308 Co 0.9126 0.29646 -0.01036 0.0
O309 O 0.95846 0.33699 0.05436 0.0
O310 O 0.91361 0.34336 -0.02536 0.0
C311 C 0.94057 0.26926 0.89758 0.0
O312 O 0.86354 0.26492 0.90178 0.0
Co313 Co 0.87663 0.21254 0.02382 0.0
O314 O 0.85385 0.20799 0.87304 0.0
C315 C 0.874 0.25804 0.21249 0.0
C316 C 0.94596 0.35889 0.0237 0.0
C317 C 0.85212 0.23594 0.83738 0.0
O318 O 0.88791 0.28716 0.14738 0.0
O319 O 0.86783 0.22631 0.17819 0.0
O320 O 0.93985 0.2976 0.85227 0.0
O321 O 0.92486 0.25823 -0.00332 0.0
Co322 Co 0.81781 0.63898 -0.01037 0.0
O323 O 0.77729 0.64432 0.05435 0.0
O324 O 0.7709 0.59309 -0.02535 0.0
C325 C 0.84501 0.69414 0.89755 0.0
O326 O 0.84934 0.62146 0.90178 0.0
Co327 Co 0.90174 0.68694 0.02383 0.0
O328 O 0.90627 0.66869 0.87307 0.0
C329 C 0.85623 0.63881 0.21251 0.0
C330 C 0.75538 0.60992 0.02371 0.0
C331 C 0.87832 0.63901 0.83741 0.0
O332 O 0.82711 0.62358 0.14739 0.0
O333 O 0.88796 0.66438 0.17822 0.0
O334 O 0.81666 0.6651 0.85225 0.0
O335 O 0.85605 0.68948 -0.00334 0.0
Co336 Co 0.57925 0.97232 0.8228 0.0
O337 O 0.62513 0.97767 0.8874 0.0
O338 O 0.58027 0.92643 0.80776 0.0
C339 C 0.60719 1.02749 0.73076 0.0
O340 O 0.53016 0.95479 0.73512 0.0
Co341 Co 0.54322 1.02021 0.85694 0.0
O342 O 0.52048 1.00199 0.70609 0.0
C343 C 0.54075 0.97218 0.04577 0.0
C344 C 0.61263 0.94326 0.85676 0.0
C345 C 0.51879 0.97232 0.67045 0.0
O346 O 0.5546 0.95692 -0.01941 0.0
O347 O 0.53456 0.99772 0.01141 0.0
O348 O 0.60647 0.99844 0.6854 0.0
O349 O 0.59149 1.02281 0.82986 0.0
Co350 Co 0.14196 0.62977 0.82279 0.0
O351 O 0.1366 0.6703 0.8874 0.0
O352 O 0.18784 0.67669 0.80778 0.0
C353 C 0.08679 0.60255 0.73072 0.0
O354 O 0.1595 0.59823 0.73512 0.0
Co355 Co 0.09407 0.54586 0.85692 0.0
O356 O 0.1123 0.54133 0.70611 0.0
C357 C 0.14209 0.59142 0.04579 0.0
C358 C 0.17101 0.69221 0.85678 0.0
C359 C 0.14196 0.56932 0.67047 0.0
O360 O 0.15736 0.62052 -0.01941 0.0
O361 O 0.11654 0.55969 0.01143 0.0
O362 O 0.11583 0.63088 0.68537 0.0
O363 O 0.09147 0.59152 0.82983 0.0
Co364 Co 0.48449 0.53502 0.82274 0.0
O365 O 0.44396 0.48914 0.88737 0.0
O366 O 0.43757 0.53398 0.8077 0.0
C367 C 0.51171 0.50708 0.7307 0.0
O368 O 0.51603 0.5841 0.73502 0.0
Co369 Co 0.56841 0.57105 0.8569 0.0
O370 O 0.57293 0.5938 0.70607 0.0
C371 C 0.52285 0.57351 0.04572 0.0
C372 C 0.42205 0.50163 0.85673 0.0
C373 C 0.54495 0.59548 0.6704 0.0
O374 O 0.49375 0.55968 -0.01949 0.0
O375 O 0.55459 0.5797 0.01138 0.0
O376 O 0.48337 0.50778 0.68534 0.0
O377 O 0.52274 0.52279 0.82981 0.0
Co378 Co 0.66184 0.88973 0.91479 0.0
O379 O 0.66719 0.93561 0.85017 0.0
O380 O 0.61595 0.89075 0.92977 0.0
C381 C 0.717 0.91768 0.0069 0.0
O382 O 0.64431 0.84065 0.00249 0.0
Co383 Co 0.70974 0.85372 0.8807 0.0
O384 O 0.69152 0.83097 0.03151 0.0
C385 C 0.66171 0.85123 0.69182 0.0
C386 C 0.63278 0.92311 0.88077 0.0
C387 C 0.66185 0.82927 0.06715 0.0
O388 O 0.64645 0.86507 0.75699 0.0
O389 O 0.68725 0.84504 0.72621 0.0
O390 O 0.68795 0.91696 0.05222 0.0
O391 O 0.71234 0.90198 0.90779 0.0
Co392 Co 0.22453 0.79495 0.91487 0.0
O393 O 0.17866 0.75442 0.8502 0.0
O394 O 0.22351 0.74804 0.92986 0.0
C395 C 0.19658 0.82216 0.00694 0.0
O396 O 0.27361 0.8265 0.00262 0.0
Co397 Co 0.26054 0.87886 0.88077 0.0
O398 O 0.28329 0.88339 0.03159 0.0
C399 C 0.26305 0.83334 0.69193 0.0
C400 C 0.19116 0.73252 0.88082 0.0
C401 C 0.28499 0.85542 0.06725 0.0
O402 O 0.2492 0.80423 0.7571 0.0
O403 O 0.26924 0.86507 0.7263 0.0
O404 O 0.19729 0.79382 0.05227 0.0
O405 O 0.21228 0.83319 0.90784 0.0
Co406 Co 0.31932 0.45242 0.91485 0.0
O407 O 0.35984 0.44707 0.85019 0.0
O408 O 0.36623 0.49831 0.92982 0.0
C409 C 0.29211 0.39727 0.00694 0.0
O410 O 0.28778 0.46996 0.00258 0.0
Co411 Co 0.2354 0.40452 0.88072 0.0
O412 O 0.23088 0.42275 0.03152 0.0
C413 C 0.28093 0.45254 0.69187 0.0
C414 C 0.38175 0.48148 0.88079 0.0
C415 C 0.25886 0.45242 0.06719 0.0
O416 O 0.31004 0.46782 0.75706 0.0
O417 O 0.2492 0.427 0.72623 0.0
O418 O 0.32045 0.42632 0.05226 0.0
O419 O 0.28107 0.40193 0.90783 0.0
Co420 Co 0.22453 0.45242 0.41483 0.0
O421 O 0.17867 0.44709 0.35013 0.0
O422 O 0.22353 0.49832 0.42983 0.0
C423 C 0.19657 0.39726 0.5069 0.0
O424 O 0.27359 0.46994 0.50266 0.0
Co425 Co 0.2605 0.40447 0.38065 0.0
O426 O 0.28327 0.4227 0.53144 0.0
C427 C 0.26313 0.45261 0.19197 0.0
C428 C 0.19117 0.4815 0.3808 0.0
C429 C 0.28501 0.45239 0.56708 0.0
O430 O 0.24922 0.46782 0.25707 0.0
O431 O 0.2693 0.42705 0.22629 0.0
O432 O 0.19728 0.42631 0.55221 0.0
O433 O 0.21226 0.40192 0.40779 0.0
Co434 Co 0.66184 0.79496 0.41481 0.0
O435 O 0.66718 0.75443 0.35013 0.0
O436 O 0.61595 0.74805 0.42979 0.0
C437 C 0.717 0.82216 0.50691 0.0
O438 O 0.64432 0.82649 0.50263 0.0
Co439 Co 0.70979 0.87888 0.38063 0.0
O440 O 0.69155 0.88342 0.53139 0.0
C441 C 0.66166 0.83337 0.19193 0.0
C442 C 0.63277 0.73252 0.38077 0.0
C443 C 0.66187 0.85546 0.56703 0.0
O444 O 0.64644 0.80424 0.25704 0.0
O445 O 0.68723 0.8651 0.22624 0.0
O446 O 0.68795 0.79381 0.55221 0.0
O447 O 0.71234 0.83319 0.4078 0.0
Co448 Co 0.31932 0.88974 0.4149 0.0
O449 O 0.35984 0.9356 0.35018 0.0
O450 O 0.36623 0.89076 0.4299 0.0
C451 C 0.29213 0.9177 0.50696 0.0
O452 O 0.28779 0.84069 0.50276 0.0
Co453 Co 0.23539 0.85377 0.3807 0.0
O454 O 0.23086 0.83099 0.53147 0.0
C455 C 0.2809 0.85114 0.19203 0.0
C456 C 0.38175 0.9231 0.38084 0.0
C457 C 0.25881 0.82926 0.56714 0.0
O458 O 0.31002 0.86504 0.25716 0.0
O459 O 0.24917 0.84497 0.22632 0.0
O460 O 0.32047 0.917 0.55227 0.0
O461 O 0.28108 0.902 0.40786 0.0
Co462 Co 0.14196 0.53503 0.32279 0.0
O463 O 0.13662 0.48916 0.38746 0.0
O464 O 0.18785 0.53401 0.30778 0.0
C465 C 0.08679 0.50708 0.23074 0.0
O466 O 0.15948 0.58409 0.23501 0.0
Co467 Co 0.09402 0.57102 0.35699 0.0
O468 O 0.11226 0.59379 0.20621 0.0
C469 C 0.14215 0.57361 0.54569 0.0
C470 C 0.17102 0.50166 0.3568 0.0
C471 C 0.14194 0.59552 0.17058 0.0
O472 O 0.15737 0.55971 0.48056 0.0
O473 O 0.11658 0.57977 0.51139 0.0
O474 O 0.11583 0.50778 0.1854 0.0
O475 O 0.09146 0.52278 0.32984 0.0
Co476 Co 0.57925 0.62978 0.32274 0.0
O477 O 0.62512 0.67031 0.38744 0.0
O478 O 0.58027 0.67669 0.3077 0.0
C479 C 0.6072 0.60257 0.23073 0.0
O480 O 0.53018 0.59824 0.23492 0.0
Co481 Co 0.54326 0.54585 0.35696 0.0
O482 O 0.52049 0.54131 0.20617 0.0
C483 C 0.54066 0.59138 0.54562 0.0
C484 C 0.61262 0.69221 0.35676 0.0
C485 C 0.51876 0.56927 0.17051 0.0
O486 O 0.55456 0.6205 0.48049 0.0
O487 O 0.5345 0.55965 0.51134 0.0
O488 O 0.6065 0.63091 0.18538 0.0
O489 O 0.5915 0.59154 0.32983 0.0
Co490 Co 0.48449 0.97231 0.32277 0.0
O491 O 0.44397 0.97766 0.38746 0.0
O492 O 0.43758 0.92643 0.30775 0.0
C493 C 0.51171 1.02748 0.23073 0.0
O494 O 0.51602 0.95479 0.23495 0.0
Co495 Co 0.56842 1.02025 0.35699 0.0
O496 O 0.57296 1.00201 0.20623 0.0
C497 C 0.52289 0.97214 0.54568 0.0
C498 C 0.42206 0.94325 0.35681 0.0
C499 C 0.545 0.97233 0.17056 0.0
O500 O 0.49377 0.9569 0.48052 0.0
O501 O 0.55462 0.99771 0.5114 0.0
O502 O 0.48336 0.99844 0.18539 0.0
O503 O 0.52274 1.02281 0.32983 0.0
loop_
_geom_bond_atom_site_label_1
_geom_bond_atom_site_label_2
_geom_bond_distance
_geom_bond_site_symmetry_2
_ccdc_geom_bond_type
Co0 O1 2.216 . S
Co0 O2 2.091 . S
Co0 O4 2.004 1_554 S
Co0 O10 2.021 . S
Co0 O12 2.137 . S
Co0 O13 2.244 . S
O1 Co0 2.216 . S
O1 C8 1.247 . S
O2 Co0 2.091 . S
O2 C8 1.261 . S
C3 O12 1.247 . S
C3 O13 1.272 . S
O4 Co0 2.004 1_556 S
O4 C9 1.259 . S
Co5 O6 2.061 . S
Co5 O11 2.052 . S
Co5 O13 2.135 . S
O6 Co5 2.061 . S
O6 C9 1.235 1_554 S
C7 O10 1.238 . S
C7 O11 1.241 . S
C8 O1 1.247 . S
C8 O2 1.261 . S
C9 O4 1.259 . S
C9 O6 1.235 1_556 S
O10 Co0 2.021 . S
O10 C7 1.238 . S
O11 Co5 2.052 . S
O11 C7 1.241 . S
O12 Co0 2.137 . S
O12 C3 1.247 . S
O13 Co0 2.244 . S
O13 C3 1.272 . S
O13 Co5 2.135 . S
Co14 O15 2.216 . S
Co14 O16 2.091 . S
Co14 O18 2.004 1_554 S
Co14 O24 2.021 . S
Co14 O26 2.137 . S
Co14 O27 2.244 . S
O15 Co14 2.216 . S
O15 C22 1.247 . S
O16 Co14 2.091 . S
O16 C22 1.261 . S
C17 O26 1.247 . S
C17 O27 1.272 . S
O18 Co14 2.004 1_556 S
O18 C23 1.259 . S
Co19 O20 2.061 . S
Co19 O25 2.052 . S
Co19 O27 2.135 . S
O20 Co19 2.061 . S
O20 C23 1.235 1_554 S
C21 O24 1.238 . S
C21 O25 1.241 . S
C22 O15 1.247 . S
C22 O16 1.261 . S
C23 O18 1.259 . S
C23 O20 1.235 1_556 S
O24 Co14 2.021 . S
O24 C21 1.238 . S
O25 Co19 2.052 . S
O25 C21 1.241 . S
O26 Co14 2.137 . S
O26 C17 1.247 . S
O27 Co14 2.244 . S
O27 C17 1.272 . S
O27 Co19 2.135 . S
Co28 O29 2.216 . S
Co28 O30 2.091 . S
Co28 O32 2.004 1_554 S
Co28 O38 2.021 . S
Co28 O40 2.137 . S
Co28 O41 2.244 . S
O29 Co28 2.216 . S
O29 C36 1.247 . S
O30 Co28 2.091 . S
O30 C36 1.261 . S
C31 O40 1.247 . S
C31 O41 1.272 . S
O32 Co28 2.004 1_556 S
O32 C37 1.259 . S
Co33 O34 2.061 . S
Co33 O39 2.052 . S
Co33 O41 2.135 . S
O34 Co33 2.061 . S
O34 C37 1.235 1_554 S
C35 O38 1.238 . S
C35 O39 1.241 . S
C36 O29 1.247 . S
C36 O30 1.261 . S
C37 O32 1.259 . S
C37 O34 1.235 1_556 S
O38 Co28 2.021 . S
O38 C35 1.238 . S
O39 Co33 2.052 . S
O39 C35 1.241 . S
O40 Co28 2.137 . S
O40 C31 1.247 . S
O41 Co28 2.244 . S
O41 C31 1.272 . S
O41 Co33 2.135 . S
Co42 O43 2.216 . S
Co42 O44 2.091 . S
Co42 O46 2.004 . S
Co42 O52 2.021 . S
Co42 O54 2.137 . S
Co42 O55 2.244 . S
O43 Co42 2.216 . S
O43 C50 1.247 . S
O44 Co42 2.091 . S
O44 C50 1.261 . S
C45 O54 1.247 . S
C45 O55 1.272 . S
O46 Co42 2.004 . S
O46 C51 1.259 . S
Co47 O48 2.061 . S
Co47 O53 2.052 . S
Co47 O55 2.135 . S
O48 Co47 2.061 . S
O48 C51 1.235 . S
C49 O52 1.238 . S
C49 O53 1.241 . S
C50 O43 1.247 . S
C50 O44 1.261 . S
C51 O46 1.259 . S
C51 O48 1.235 . S
O52 Co42 2.021 . S
O52 C49 1.238 . S
O53 Co47 2.052 . S
O53 C49 1.241 . S
O54 Co42 2.137 . S
O54 C45 1.247 . S
O55 Co42 2.244 . S
O55 C45 1.272 . S
O55 Co47 2.135 . S
Co56 O57 2.216 . S
Co56 O58 2.091 . S
Co56 O60 2.004 . S
Co56 O66 2.021 . S
Co56 O68 2.137 . S
Co56 O69 2.244 . S
O57 Co56 2.216 . S
O57 C64 1.247 . S
O58 Co56 2.091 . S
O58 C64 1.261 . S
C59 O68 1.247 . S
C59 O69 1.272 . S
O60 Co56 2.004 . S
O60 C65 1.259 . S
Co61 O62 2.061 . S
Co61 O67 2.052 . S
Co61 O69 2.135 . S
O62 Co61 2.061 . S
O62 C65 1.235 . S
C63 O66 1.238 . S
C63 O67 1.241 . S
C64 O57 1.247 . S
C64 O58 1.261 . S
C65 O60 1.259 . S
C65 O62 1.235 . S
O66 Co56 2.021 . S
O66 C63 1.238 . S
O67 Co61 2.052 . S
O67 C63 1.241 . S
O68 Co56 2.137 . S
O68 C59 1.247 . S
O69 Co56 2.244 . S
O69 C59 1.272 . S
O69 Co61 2.135 . S
Co70 O71 2.216 . S
Co70 O72 2.091 . S
Co70 O74 2.004 . S
Co70 O80 2.021 . S
Co70 O82 2.137 . S
Co70 O83 2.244 . S
O71 Co70 2.216 . S
O71 C78 1.247 . S
O72 Co70 2.091 . S
O72 C78 1.261 . S
C73 O82 1.247 . S
C73 O83 1.272 . S
O74 Co70 2.004 . S
O74 C79 1.259 . S
Co75 O76 2.061 . S
Co75 O81 2.052 . S
Co75 O83 2.135 . S
O76 Co75 2.061 . S
O76 C79 1.235 . S
C77 O80 1.238 . S
C77 O81 1.241 . S
C78 O71 1.247 . S
C78 O72 1.261 . S
C79 O74 1.259 . S
C79 O76 1.235 . S
O80 Co70 2.021 . S
O80 C77 1.238 . S
O81 Co75 2.052 . S
O81 C77 1.241 . S
O82 Co70 2.137 . S
O82 C73 1.247 . S
O83 Co70 2.244 . S
O83 C73 1.272 . S
O83 Co75 2.135 . S
Co84 O85 2.216 . S
Co84 O86 2.091 . S
Co84 O88 2.004 1_556 S
Co84 O94 2.021 . S
Co84 O96 2.137 . S
Co84 O97 2.244 . S
O85 Co84 2.216 . S
O85 C92 1.247 . S
O86 Co84 2.091 . S
O86 C92 1.261 . S
C87 O96 1.247 . S
C87 O97 1.272 . S
O88 Co84 2.004 1_554 S
O88 C93 1.259 . S
Co89 O90 2.061 . S
Co89 O95 2.052 . S
Co89 O97 2.135 . S
O90 Co89 2.061 . S
O90 C93 1.235 1_556 S
C91 O94 1.238 . S
C91 O95 1.241 . S
C92 O85 1.247 . S
C92 O86 1.261 . S
C93 O88 1.259 . S
C93 O90 1.235 1_554 S
O94 Co84 2.021 . S
O94 C91 1.238 . S
O95 Co89 2.052 . S
O95 C91 1.241 . S
O96 Co84 2.137 . S
O96 C87 1.247 . S
O97 Co84 2.244 . S
O97 C87 1.272 . S
O97 Co89 2.135 . S
Co98 O99 2.216 . S
Co98 O100 2.091 . S
Co98 O102 2.004 1_556 S
Co98 O108 2.021 . S
Co98 O110 2.137 . S
Co98 O111 2.244 . S
O99 Co98 2.216 . S
O99 C106 1.247 . S
O100 Co98 2.091 . S
O100 C106 1.261 . S
C101 O110 1.247 . S
C101 O111 1.272 . S
O102 Co98 2.004 1_554 S
O102 C107 1.259 . S
Co103 O104 2.061 . S
Co103 O109 2.052 . S
Co103 O111 2.135 . S
O104 Co103 2.061 . S
O104 C107 1.235 1_556 S
C105 O108 1.238 . S
C105 O109 1.241 . S
C106 O99 1.247 . S
C106 O100 1.261 . S
C107 O102 1.259 . S
C107 O104 1.235 1_554 S
O108 Co98 2.021 . S
O108 C105 1.238 . S
O109 Co103 2.052 . S
O109 C105 1.241 . S
O110 Co98 2.137 . S
O110 C101 1.247 . S
O111 Co98 2.244 . S
O111 C101 1.272 . S
O111 Co103 2.135 . S
Co112 O113 2.216 . S
Co112 O114 2.091 . S
Co112 O116 2.004 1_556 S
Co112 O122 2.021 . S
Co112 O124 2.137 . S
Co112 O125 2.244 . S
O113 Co112 2.216 . S
O113 C120 1.247 . S
O114 Co112 2.091 . S
O114 C120 1.261 . S
C115 O124 1.247 . S
C115 O125 1.272 . S
O116 Co112 2.004 1_554 S
O116 C121 1.259 . S
Co117 O118 2.061 . S
Co117 O123 2.052 . S
Co117 O125 2.135 . S
O118 Co117 2.061 . S
O118 C121 1.235 1_556 S
C119 O122 1.238 . S
C119 O123 1.241 . S
C120 O113 1.247 . S
C120 O114 1.261 . S
C121 O116 1.259 . S
C121 O118 1.235 1_554 S
O122 Co112 2.021 . S
O122 C119 1.238 . S
O123 Co117 2.052 . S
O123 C119 1.241 . S
O124 Co112 2.137 . S
O124 C115 1.247 . S
O125 Co112 2.244 . S
O125 C115 1.272 . S
O125 Co117 2.135 . S
Co126 O127 2.216 . S
Co126 O128 2.091 . S
Co126 O130 2.004 . S
Co126 O136 2.021 . S
Co126 O138 2.137 . S
Co126 O139 2.244 . S
O127 Co126 2.216 . S
O127 C134 1.247 . S
O128 Co126 2.091 . S
O128 C134 1.261 . S
C129 O138 1.247 . S
C129 O139 1.272 . S
O130 Co126 2.004 . S
O130 C135 1.259 . S
Co131 O132 2.061 . S
Co131 O137 2.052 . S
Co131 O139 2.135 . S
O132 Co131 2.061 . S
O132 C135 1.235 . S
C133 O136 1.238 . S
C133 O137 1.241 . S
C134 O127 1.247 . S
C134 O128 1.261 . S
C135 O130 1.259 . S
C135 O132 1.235 . S
O136 Co126 2.021 . S
O136 C133 1.238 . S
O137 Co131 2.052 . S
O137 C133 1.241 . S
O138 Co126 2.137 . S
O138 C129 1.247 . S
O139 Co126 2.244 . S
O139 C129 1.272 . S
O139 Co131 2.135 . S
Co140 O141 2.216 . S
Co140 O142 2.091 . S
Co140 O144 2.004 . S
Co140 O150 2.021 . S
Co140 O152 2.137 . S
Co140 O153 2.244 . S
O141 Co140 2.216 . S
O141 C148 1.247 . S
O142 Co140 2.091 . S
O142 C148 1.261 . S
C143 O152 1.247 . S
C143 O153 1.272 . S
O144 Co140 2.004 . S
O144 C149 1.259 . S
Co145 O146 2.061 . S
Co145 O151 2.052 . S
Co145 O153 2.135 . S
O146 Co145 2.061 . S
O146 C149 1.235 . S
C147 O150 1.238 . S
C147 O151 1.241 . S
C148 O141 1.247 . S
C148 O142 1.261 . S
C149 O144 1.259 . S
C149 O146 1.235 . S
O150 Co140 2.021 . S
O150 C147 1.238 . S
O151 Co145 2.052 . S
O151 C147 1.241 . S
O152 Co140 2.137 . S
O152 C143 1.247 . S
O153 Co140 2.244 . S
O153 C143 1.272 . S
O153 Co145 2.135 . S
Co154 O155 2.216 . S
Co154 O156 2.091 . S
Co154 O158 2.004 . S
Co154 O164 2.021 . S
Co154 O166 2.137 . S
Co154 O167 2.244 . S
O155 Co154 2.216 . S
O155 C162 1.247 . S
O156 Co154 2.091 . S
O156 C162 1.261 . S
C157 O166 1.247 . S
C157 O167 1.272 . S
O158 Co154 2.004 . S
O158 C163 1.259 . S
Co159 O160 2.061 . S
Co159 O165 2.052 . S
Co159 O167 2.135 . S
O160 Co159 2.061 . S
O160 C163 1.235 . S
C161 O164 1.238 . S
C161 O165 1.241 . S
C162 O155 1.247 . S
C162 O156 1.261 . S
C163 O158 1.259 . S
C163 O160 1.235 . S
O164 Co154 2.021 . S
O164 C161 1.238 . S
O165 Co159 2.052 . S
O165 C161 1.241 . S
O166 Co154 2.137 . S
O166 C157 1.247 . S
O167 Co154 2.244 . S
O167 C157 1.272 . S
O167 Co159 2.135 . S
Co168 O169 2.216 . S
Co168 O170 2.091 . S
Co168 O172 2.004 . S
Co168 O178 2.021 . S
Co168 O180 2.137 . S
Co168 O181 2.244 . S
O169 Co168 2.216 . S
O169 C176 1.247 . S
O170 Co168 2.091 . S
O170 C176 1.261 . S
C171 O180 1.247 . S
C171 O181 1.272 . S
O172 Co168 2.004 . S
O172 C177 1.259 . S
Co173 O174 2.061 . S
Co173 O179 2.052 . S
Co173 O181 2.135 . S
O174 Co173 2.061 . S
O174 C177 1.235 . S
C175 O178 1.238 . S
C175 O179 1.241 . S
C176 O169 1.247 . S
C176 O170 1.261 . S
C177 O172 1.259 . S
C177 O174 1.235 . S
O178 Co168 2.021 . S
O178 C175 1.238 . S
O179 Co173 2.052 . S
O179 C175 1.241 . S
O180 Co168 2.137 . S
O180 C171 1.247 . S
O181 Co168 2.244 . S
O181 C171 1.272 . S
O181 Co173 2.135 . S
Co182 O183 2.216 . S
Co182 O184 2.091 . S
Co182 O186 2.004 . S
Co182 O192 2.021 . S
Co182 O194 2.137 . S
Co182 O195 2.244 . S
O183 Co182 2.216 . S
O183 C190 1.247 . S
O184 Co182 2.091 . S
O184 C190 1.261 . S
C185 O194 1.247 . S
C185 O195 1.272 . S
O186 Co182 2.004 . S
O186 C191 1.259 . S
Co187 O188 2.061 . S
Co187 O193 2.052 . S
Co187 O195 2.135 . S
O188 Co187 2.061 . S
O188 C191 1.235 . S
C189 O192 1.238 . S
C189 O193 1.241 . S
C190 O183 1.247 . S
C190 O184 1.261 . S
C191 O186 1.259 . S
C191 O188 1.235 . S
O192 Co182 2.021 . S
O192 C189 1.238 . S
O193 Co187 2.052 . S
O193 C189 1.241 . S
O194 Co182 2.137 . S
O194 C185 1.247 . S
O195 Co182 2.244 . S
O195 C185 1.272 . S
O195 Co187 2.135 . S
Co196 O197 2.216 . S
Co196 O198 2.091 . S
Co196 O200 2.004 . S
Co196 O206 2.021 . S
Co196 O208 2.137 . S
Co196 O209 2.244 . S
O197 Co196 2.216 . S
O197 C204 1.247 . S
O198 Co196 2.091 . S
O198 C204 1.261 . S
C199 O208 1.247 . S
C199 O209 1.272 . S
O200 Co196 2.004 . S
O200 C205 1.259 . S
Co201 O202 2.061 . S
Co201 O207 2.052 . S
Co201 O209 2.135 . S
O202 Co201 2.061 . S
O202 C205 1.235 . S
C203 O206 1.238 . S
C203 O207 1.241 . S
C204 O197 1.247 . S
C204 O198 1.261 . S
C205 O200 1.259 . S
C205 O202 1.235 . S
O206 Co196 2.021 . S
O206 C203 1.238 . S
O207 Co201 2.052 . S
O207 C203 1.241 . S
O208 Co196 2.137 . S
O208 C199 1.247 . S
O209 Co196 2.244 . S
O209 C199 1.272 . S
O209 Co201 2.135 . S
Co210 O211 2.216 . S
Co210 O212 2.091 . S
Co210 O214 2.004 . S
Co210 O220 2.021 . S
Co210 O222 2.137 . S
Co210 O223 2.244 . S
O211 Co210 2.216 . S
O211 C218 1.247 . S
O212 Co210 2.091 . S
O212 C218 1.261 . S
C213 O222 1.247 . S
C213 O223 1.272 . S
O214 Co210 2.004 . S
O214 C219 1.259 . S
Co215 O216 2.061 . S
Co215 O221 2.052 . S
Co215 O223 2.135 . S
O216 Co215 2.061 . S
O216 C219 1.235 . S
C217 O220 1.238 . S
C217 O221 1.241 . S
C218 O211 1.247 . S
C218 O212 1.261 . S
C219 O214 1.259 . S
C219 O216 1.235 . S
O220 Co210 2.021 . S
O220 C217 1.238 . S
O221 Co215 2.052 . S
O221 C217 1.241 . S
O222 Co210 2.137 . S
O222 C213 1.247 . S
O223 Co210 2.244 . S
O223 C213 1.272 . S
O223 Co215 2.135 . S
Co224 O225 2.216 . S
Co224 O226 2.091 . S
Co224 O228 2.004 . S
Co224 O234 2.021 . S
Co224 O236 2.137 . S
Co224 O237 2.244 . S
O225 Co224 2.216 . S
O225 C232 1.247 . S
O226 Co224 2.091 . S
O226 C232 1.261 . S
C227 O236 1.247 . S
C227 O237 1.272 . S
O228 Co224 2.004 . S
O228 C233 1.259 . S
Co229 O230 2.061 . S
Co229 O235 2.052 . S
Co229 O237 2.135 . S
O230 Co229 2.061 . S
O230 C233 1.235 . S
C231 O234 1.238 . S
C231 O235 1.241 . S
C232 O225 1.247 . S
C232 O226 1.261 . S
C233 O228 1.259 . S
C233 O230 1.235 . S
O234 Co224 2.021 . S
O234 C231 1.238 . S
O235 Co229 2.052 . S
O235 C231 1.241 . S
O236 Co224 2.137 . S
O236 C227 1.247 . S
O237 Co224 2.244 . S
O237 C227 1.272 . S
O237 Co229 2.135 . S
Co238 O239 2.216 . S
Co238 O240 2.091 . S
Co238 O242 2.004 . S
Co238 O248 2.021 . S
Co238 O250 2.137 . S
Co238 O251 2.244 . S
O239 Co238 2.216 . S
O239 C246 1.247 . S
O240 Co238 2.091 . S
O240 C246 1.261 . S
C241 O250 1.247 . S
C241 O251 1.272 . S
O242 Co238 2.004 . S
O242 C247 1.259 . S
Co243 O244 2.061 . S
Co243 O249 2.052 . S
Co243 O251 2.135 . S
O244 Co243 2.061 . S
O244 C247 1.235 . S
C245 O248 1.238 . S
C245 O249 1.241 . S
C246 O239 1.247 . S
C246 O240 1.261 . S
C247 O242 1.259 . S
C247 O244 1.235 . S
O248 Co238 2.021 . S
O248 C245 1.238 . S
O249 Co243 2.052 . S
O249 C245 1.241 . S
O250 Co238 2.137 . S
O250 C241 1.247 . S
O251 Co238 2.244 . S
O251 C241 1.272 . S
O251 Co243 2.135 . S
Co252 O253 2.216 . S
Co252 O254 2.091 . S
Co252 O256 2.004 . S
Co252 O262 2.021 . S
Co252 O264 2.137 . S
Co252 O265 2.244 . S
O253 Co252 2.216 . S
O253 C260 1.247 . S
O254 Co252 2.091 . S
O254 C260 1.261 . S
C255 O264 1.247 . S
C255 O265 1.272 . S
O256 Co252 2.004 . S
O256 C261 1.259 . S
Co257 O258 2.061 . S
Co257 O263 2.052 . S
Co257 O265 2.135 . S
O258 Co257 2.061 . S
O258 C261 1.235 . S
C259 O262 1.238 . S
C259 O263 1.241 . S
C260 O253 1.247 . S
C260 O254 1.261 . S
C261 O256 1.259 . S
C261 O258 1.235 . S
O262 Co252 2.021 . S
O262 C259 1.238 . S
O263 Co257 2.052 . S
O263 C259 1.241 . S
O264 Co252 2.137 . S
O264 C255 1.247 . S
O265 Co252 2.244 . S
O265 C255 1.272 . S
O265 Co257 2.135 . S
Co266 O267 2.216 . S
Co266 O268 2.091 . S
Co266 O270 2.004 . S
Co266 O276 2.021 . S
Co266 O278 2.137 . S
Co266 O279 2.244 . S
O267 Co266 2.216 . S
O267 C274 1.247 . S
O268 Co266 2.091 . S
O268 C274 1.261 . S
C269 O278 1.247 . S
C269 O279 1.272 . S
O270 Co266 2.004 . S
O270 C275 1.259 . S
Co271 O272 2.061 . S
Co271 O277 2.052 . S
Co271 O279 2.135 . S
O272 Co271 2.061 . S
O272 C275 1.235 . S
C273 O276 1.238 . S
C273 O277 1.241 . S
C274 O267 1.247 . S
C274 O268 1.261 . S
C275 O270 1.259 . S
C275 O272 1.235 . S
O276 Co266 2.021 . S
O276 C273 1.238 . S
O277 Co271 2.052 . S
O277 C273 1.241 . S
O278 Co266 2.137 . S
O278 C269 1.247 . S
O279 Co266 2.244 . S
O279 C269 1.272 . S
O279 Co271 2.135 . S
Co280 O281 2.216 . S
Co280 O282 2.091 . S
Co280 O284 2.004 . S
Co280 O290 2.021 . S
Co280 O292 2.137 . S
Co280 O293 2.244 . S
O281 Co280 2.216 . S
O281 C288 1.247 . S
O282 Co280 2.091 . S
O282 C288 1.261 . S
C283 O292 1.247 . S
C283 O293 1.272 . S
O284 Co280 2.004 . S
O284 C289 1.259 . S
Co285 O286 2.061 . S
Co285 O291 2.052 . S
Co285 O293 2.135 . S
O286 Co285 2.061 . S
O286 C289 1.235 . S
C287 O290 1.238 . S
C287 O291 1.241 . S
C288 O281 1.247 . S
C288 O282 1.261 . S
C289 O284 1.259 . S
C289 O286 1.235 . S
O290 Co280 2.021 . S
O290 C287 1.238 . S
O291 Co285 2.052 . S
O291 C287 1.241 . S
O292 Co280 2.137 . S
O292 C283 1.247 . S
O293 Co280 2.244 . S
O293 C283 1.272 . S
O293 Co285 2.135 . S
Co294 O295 2.216 1_556 S
Co294 O296 2.091 . S
Co294 O298 2.004 . S
Co294 O304 2.021 1_556 S
Co294 O306 2.137 . S
Co294 O307 2.244 . S
O295 Co294 2.216 1_554 S
O295 C302 1.247 . S
O296 Co294 2.091 . S
O296 C302 1.261 1_556 S
C297 O306 1.247 . S
C297 O307 1.272 . S
O298 Co294 2.004 . S
O298 C303 1.259 . S
Co299 O300 2.061 1_554 S
Co299 O305 2.052 . S
Co299 O307 2.135 1_554 S
O300 Co299 2.061 1_556 S
O300 C303 1.235 . S
C301 O304 1.238 . S
C301 O305 1.241 . S
C302 O295 1.247 . S
C302 O296 1.261 1_554 S
C303 O298 1.259 . S
C303 O300 1.235 . S
O304 Co294 2.021 1_554 S
O304 C301 1.238 . S
O305 Co299 2.052 . S
O305 C301 1.241 . S
O306 Co294 2.137 . S
O306 C297 1.247 . S
O307 Co294 2.244 . S
O307 C297 1.272 . S
O307 Co299 2.135 1_556 S
Co308 O309 2.216 1_556 S
Co308 O310 2.091 . S
Co308 O312 2.004 . S
Co308 O318 2.021 1_556 S
Co308 O320 2.137 . S
Co308 O321 2.244 . S
O309 Co308 2.216 1_554 S
O309 C316 1.247 . S
O310 Co308 2.091 . S
O310 C316 1.261 1_556 S
C311 O320 1.247 . S
C311 O321 1.272 . S
O312 Co308 2.004 . S
O312 C317 1.259 . S
Co313 O314 2.061 1_554 S
Co313 O319 2.052 . S
Co313 O321 2.135 1_554 S
O314 Co313 2.061 1_556 S
O314 C317 1.235 . S
C315 O318 1.238 . S
C315 O319 1.241 . S
C316 O309 1.247 . S
C316 O310 1.261 1_554 S
C317 O312 1.259 . S
C317 O314 1.235 . S
O318 Co308 2.021 1_554 S
O318 C315 1.238 . S
O319 Co313 2.052 . S
O319 C315 1.241 . S
O320 Co308 2.137 . S
O320 C311 1.247 . S
O321 Co308 2.244 . S
O321 C311 1.272 . S
O321 Co313 2.135 1_556 S
Co322 O323 2.216 1_556 S
Co322 O324 2.091 . S
Co322 O326 2.004 . S
Co322 O332 2.021 1_556 S
Co322 O334 2.137 . S
Co322 O335 2.244 . S
O323 Co322 2.216 1_554 S
O323 C330 1.247 . S
O324 Co322 2.091 . S
O324 C330 1.261 1_556 S
C325 O334 1.247 . S
C325 O335 1.272 . S
O326 Co322 2.004 . S
O326 C331 1.259 . S
Co327 O328 2.061 1_554 S
Co327 O333 2.052 . S
Co327 O335 2.135 1_554 S
O328 Co327 2.061 1_556 S
O328 C331 1.235 . S
C329 O332 1.238 . S
C329 O333 1.241 . S
C330 O323 1.247 . S
C330 O324 1.261 1_554 S
C331 O326 1.259 . S
C331 O328 1.235 . S
O332 Co322 2.021 1_554 S
O332 C329 1.238 . S
O333 Co327 2.052 . S
O333 C329 1.241 . S
O334 Co322 2.137 . S
O334 C325 1.247 . S
O335 Co322 2.244 . S
O335 C325 1.272 . S
O335 Co327 2.135 1_556 S
Co336 O337 2.216 . S
Co336 O338 2.091 . S
Co336 O340 2.004 . S
Co336 O346 2.021 . S
Co336 O348 2.137 . S
Co336 O349 2.244 . S
O337 Co336 2.216 . S
O337 C344 1.247 . S
O338 Co336 2.091 . S
O338 C344 1.261 . S
C339 O348 1.247 . S
C339 O349 1.272 . S
O340 Co336 2.004 . S
O340 C345 1.259 . S
Co341 O342 2.061 . S
Co341 O347 2.052 . S
Co341 O349 2.135 . S
O342 Co341 2.061 . S
O342 C345 1.235 . S
C343 O346 1.238 . S
C343 O347 1.241 . S
C344 O337 1.247 . S
C344 O338 1.261 . S
C345 O340 1.259 . S
C345 O342 1.235 . S
O346 Co336 2.021 . S
O346 C343 1.238 . S
O347 Co341 2.052 . S
O347 C343 1.241 . S
O348 Co336 2.137 . S
O348 C339 1.247 . S
O349 Co336 2.244 . S
O349 C339 1.272 . S
O349 Co341 2.135 . S
Co350 O351 2.216 . S
Co350 O352 2.091 . S
Co350 O354 2.004 . S
Co350 O360 2.021 . S
Co350 O362 2.137 . S
Co350 O363 2.244 . S
O351 Co350 2.216 . S
O351 C358 1.247 . S
O352 Co350 2.091 . S
O352 C358 1.261 . S
C353 O362 1.247 . S
C353 O363 1.272 . S
O354 Co350 2.004 . S
O354 C359 1.259 . S
Co355 O356 2.061 . S
Co355 O361 2.052 . S
Co355 O363 2.135 . S
O356 Co355 2.061 . S
O356 C359 1.235 . S
C357 O360 1.238 . S
C357 O361 1.241 . S
C358 O351 1.247 . S
C358 O352 1.261 . S
C359 O354 1.259 . S
C359 O356 1.235 . S
O360 Co350 2.021 . S
O360 C357 1.238 . S
O361 Co355 2.052 . S
O361 C357 1.241 . S
O362 Co350 2.137 . S
O362 C353 1.247 . S
O363 Co350 2.244 . S
O363 C353 1.272 . S
O363 Co355 2.135 . S
Co364 O365 2.216 . S
Co364 O366 2.091 . S
Co364 O368 2.004 . S
Co364 O374 2.021 . S
Co364 O376 2.137 . S
Co364 O377 2.244 . S
O365 Co364 2.216 . S
O365 C372 1.247 . S
O366 Co364 2.091 . S
O366 C372 1.261 . S
C367 O376 1.247 . S
C367 O377 1.272 . S
O368 Co364 2.004 . S
O368 C373 1.259 . S
Co369 O370 2.061 . S
Co369 O375 2.052 . S
Co369 O377 2.135 . S
O370 Co369 2.061 . S
O370 C373 1.235 . S
C371 O374 1.238 . S
C371 O375 1.241 . S
C372 O365 1.247 . S
C372 O366 1.261 . S
C373 O368 1.259 . S
C373 O370 1.235 . S
O374 Co364 2.021 . S
O374 C371 1.238 . S
O375 Co369 2.052 . S
O375 C371 1.241 . S
O376 Co364 2.137 . S
O376 C367 1.247 . S
O377 Co364 2.244 . S
O377 C367 1.272 . S
O377 Co369 2.135 . S
Co378 O379 2.216 1_554 S
Co378 O380 2.091 . S
Co378 O382 2.004 . S
Co378 O388 2.021 1_554 S
Co378 O390 2.137 . S
Co378 O391 2.244 . S
O379 Co378 2.216 1_556 S
O379 C386 1.247 . S
O380 Co378 2.091 . S
O380 C386 1.261 1_554 S
C381 O390 1.247 . S
C381 O391 1.272 . S
O382 Co378 2.004 . S
O382 C387 1.259 . S
Co383 O384 2.061 1_556 S
Co383 O389 2.052 . S
Co383 O391 2.135 1_556 S
O384 Co383 2.061 1_554 S
O384 C387 1.235 . S
C385 O388 1.238 . S
C385 O389 1.241 . S
C386 O379 1.247 . S
C386 O380 1.261 1_556 S
C387 O382 1.259 . S
C387 O384 1.235 . S
O388 Co378 2.021 1_556 S
O388 C385 1.238 . S
O389 Co383 2.052 . S
O389 C385 1.241 . S
O390 Co378 2.137 . S
O390 C381 1.247 . S
O391 Co378 2.244 . S
O391 C381 1.272 . S
O391 Co383 2.135 1_554 S
Co392 O393 2.216 1_554 S
Co392 O394 2.091 . S
Co392 O396 2.004 . S
Co392 O402 2.021 1_554 S
Co392 O404 2.137 . S
Co392 O405 2.244 . S
O393 Co392 2.216 1_556 S
O393 C400 1.247 . S
O394 Co392 2.091 . S
O394 C400 1.261 1_554 S
C395 O404 1.247 . S
C395 O405 1.272 . S
O396 Co392 2.004 . S
O396 C401 1.259 . S
Co397 O398 2.061 1_556 S
Co397 O403 2.052 . S
Co397 O405 2.135 1_556 S
O398 Co397 2.061 1_554 S
O398 C401 1.235 . S
C399 O402 1.238 . S
C399 O403 1.241 . S
C400 O393 1.247 . S
C400 O394 1.261 1_556 S
C401 O396 1.259 . S
C401 O398 1.235 . S
O402 Co392 2.021 1_556 S
O402 C399 1.238 . S
O403 Co397 2.052 . S
O403 C399 1.241 . S
O404 Co392 2.137 . S
O404 C395 1.247 . S
O405 Co392 2.244 . S
O405 C395 1.272 . S
O405 Co397 2.135 1_554 S
Co406 O407 2.216 1_554 S
Co406 O408 2.091 . S
Co406 O410 2.004 . S
Co406 O416 2.021 1_554 S
Co406 O418 2.137 . S
Co406 O419 2.244 . S
O407 Co406 2.216 1_556 S
O407 C414 1.247 . S
O408 Co406 2.091 . S
O408 C414 1.261 1_554 S
C409 O418 1.247 . S
C409 O419 1.272 . S
O410 Co406 2.004 . S
O410 C415 1.259 . S
Co411 O412 2.061 1_556 S
Co411 O417 2.052 . S
Co411 O419 2.135 1_556 S
O412 Co411 2.061 1_554 S
O412 C415 1.235 . S
C413 O416 1.238 . S
C413 O417 1.241 . S
C414 O407 1.247 . S
C414 O408 1.261 1_556 S
C415 O410 1.259 . S
C415 O412 1.235 . S
O416 Co406 2.021 1_556 S
O416 C413 1.238 . S
O417 Co411 2.052 . S
O417 C413 1.241 . S
O418 Co406 2.137 . S
O418 C409 1.247 . S
O419 Co406 2.244 . S
O419 C409 1.272 . S
O419 Co411 2.135 1_554 S
Co420 O421 2.216 . S
Co420 O422 2.091 . S
Co420 O424 2.004 . S
Co420 O430 2.021 . S
Co420 O432 2.137 . S
Co420 O433 2.244 . S
O421 Co420 2.216 . S
O421 C428 1.247 . S
O422 Co420 2.091 . S
O422 C428 1.261 . S
C423 O432 1.247 . S
C423 O433 1.272 . S
O424 Co420 2.004 . S
O424 C429 1.259 . S
Co425 O426 2.061 . S
Co425 O431 2.052 . S
Co425 O433 2.135 . S
O426 Co425 2.061 . S
O426 C429 1.235 . S
C427 O430 1.238 . S
C427 O431 1.241 . S
C428 O421 1.247 . S
C428 O422 1.261 . S
C429 O424 1.259 . S
C429 O426 1.235 . S
O430 Co420 2.021 . S
O430 C427 1.238 . S
O431 Co425 2.052 . S
O431 C427 1.241 . S
O432 Co420 2.137 . S
O432 C423 1.247 . S
O433 Co420 2.244 . S
O433 C423 1.272 . S
O433 Co425 2.135 . S
Co434 O435 2.216 . S
Co434 O436 2.091 . S
Co434 O438 2.004 . S
Co434 O444 2.021 . S
Co434 O446 2.137 . S
Co434 O447 2.244 . S
O435 Co434 2.216 . S
O435 C442 1.247 . S
O436 Co434 2.091 . S
O436 C442 1.261 . S
C437 O446 1.247 . S
C437 O447 1.272 . S
O438 Co434 2.004 . S
O438 C443 1.259 . S
Co439 O440 2.061 . S
Co439 O445 2.052 . S
Co439 O447 2.135 . S
O440 Co439 2.061 . S
O440 C443 1.235 . S
C441 O444 1.238 . S
C441 O445 1.241 . S
C442 O435 1.247 . S
C442 O436 1.261 . S
C443 O438 1.259 . S
C443 O440 1.235 . S
O444 Co434 2.021 . S
O444 C441 1.238 . S
O445 Co439 2.052 . S
O445 C441 1.241 . S
O446 Co434 2.137 . S
O446 C437 1.247 . S
O447 Co434 2.244 . S
O447 C437 1.272 . S
O447 Co439 2.135 . S
Co448 O449 2.216 . S
Co448 O450 2.091 . S
Co448 O452 2.004 . S
Co448 O458 2.021 . S
Co448 O460 2.137 . S
Co448 O461 2.244 . S
O449 Co448 2.216 . S
O449 C456 1.247 . S
O450 Co448 2.091 . S
O450 C456 1.261 . S
C451 O460 1.247 . S
C451 O461 1.272 . S
O452 Co448 2.004 . S
O452 C457 1.259 . S
Co453 O454 2.061 . S
Co453 O459 2.052 . S
Co453 O461 2.135 . S
O454 Co453 2.061 . S
O454 C457 1.235 . S
C455 O458 1.238 . S
C455 O459 1.241 . S
C456 O449 1.247 . S
C456 O450 1.261 . S
C457 O452 1.259 . S
C457 O454 1.235 . S
O458 Co448 2.021 . S
O458 C455 1.238 . S
O459 Co453 2.052 . S
O459 C455 1.241 . S
O460 Co448 2.137 . S
O460 C451 1.247 . S
O461 Co448 2.244 . S
O461 C451 1.272 . S
O461 Co453 2.135 . S
Co462 O463 2.216 . S
Co462 O464 2.091 . S
Co462 O466 2.004 . S
Co462 O472 2.021 . S
Co462 O474 2.137 . S
Co462 O475 2.244 . S
O463 Co462 2.216 . S
O463 C470 1.247 . S
O464 Co462 2.091 . S
O464 C470 1.261 . S
C465 O474 1.247 . S
C465 O475 1.272 . S
O466 Co462 2.004 . S
O466 C471 1.259 . S
Co467 O468 2.061 . S
Co467 O473 2.052 . S
Co467 O475 2.135 . S
O468 Co467 2.061 . S
O468 C471 1.235 . S
C469 O472 1.238 . S
C469 O473 1.241 . S
C470 O463 1.247 . S
C470 O464 1.261 . S
C471 O466 1.259 . S
C471 O468 1.235 . S
O472 Co462 2.021 . S
O472 C469 1.238 . S
O473 Co467 2.052 . S
O473 C469 1.241 . S
O474 Co462 2.137 . S
O474 C465 1.247 . S
O475 Co462 2.244 . S
O475 C465 1.272 . S
O475 Co467 2.135 . S
Co476 O477 2.216 . S
Co476 O478 2.091 . S
Co476 O480 2.004 . S
Co476 O486 2.021 . S
Co476 O488 2.137 . S
Co476 O489 2.244 . S
O477 Co476 2.216 . S
O477 C484 1.247 . S
O478 Co476 2.091 . S
O478 C484 1.261 . S
C479 O488 1.247 . S
C479 O489 1.272 . S
O480 Co476 2.004 . S
O480 C485 1.259 . S
Co481 O482 2.061 . S
Co481 O487 2.052 . S
Co481 O489 2.135 . S
O482 Co481 2.061 . S
O482 C485 1.235 . S
C483 O486 1.238 . S
C483 O487 1.241 . S
C484 O477 1.247 . S
C484 O478 1.261 . S
C485 O480 1.259 . S
C485 O482 1.235 . S
O486 Co476 2.021 . S
O486 C483 1.238 . S
O487 Co481 2.052 . S
O487 C483 1.241 . S
O488 Co476 2.137 . S
O488 C479 1.247 . S
O489 Co476 2.244 . S
O489 C479 1.272 . S
O489 Co481 2.135 . S
Co490 O491 2.216 . S
Co490 O492 2.091 . S
Co490 O494 2.004 . S
Co490 O500 2.021 . S
Co490 O502 2.137 . S
Co490 O503 2.244 . S
O491 Co490 2.216 . S
O491 C498 1.247 . S
O492 Co490 2.091 . S
O492 C498 1.261 . S
C493 O502 1.247 . S
C493 O503 1.272 . S
O494 Co490 2.004 . S
O494 C499 1.259 . S
Co495 O496 2.061 . S
Co495 O501 2.052 . S
Co495 O503 2.135 . S
O496 Co495 2.061 . S
O496 C499 1.235 . S
C497 O500 1.238 . S
C497 O501 1.241 . S
C498 O491 1.247 . S
C498 O492 1.261 . S
C499 O494 1.259 . S
C499 O496 1.235 . S
O500 Co490 2.021 . S
O500 C497 1.238 . S
O501 Co495 2.052 . S
O501 C497 1.241 . S
O502 Co490 2.137 . S
O502 C493 1.247 . S
O503 Co490 2.244 . S
O503 C493 1.272 . S
O503 Co495 2.135 . S
C50 C8 1.217 . S
C64 C22 1.217 1_545 S
C78 C36 1.217 1_655 S
C92 C134 1.217 . S
C106 C148 1.217 1_545 S
C162 C120 1.217 1_455 S
C176 C218 1.191 . S
C190 C232 1.191 . S
C204 C246 1.191 . S
C260 C302 1.184 . S
C316 C274 1.185 . S
C288 C330 1.184 . S
C344 C386 1.184 . S
C358 C400 1.185 . S
C414 C372 1.184 . S
C470 C428 1.190 . S
C484 C442 1.191 . S
C498 C456 1.191 . S
C161 C9 1.482 . S
C23 C133 1.482 . S
C37 C147 1.482 . S
C105 C51 1.493 . S
C65 C119 1.493 . S
C91 C79 1.493 . S
C93 C77 1.482 . S
C107 C49 1.482 . S
C63 C121 1.482 . S
C21 C135 1.493 . S
C35 C149 1.493 . S
C163 C7 1.493 . S
C177 C329 1.450 . S
C301 C191 1.450 . S
C315 C205 1.450 . S
C219 C273 1.492 1_556 S
C287 C233 1.492 1_554 S
C247 C259 1.492 1_556 S
C261 C245 1.490 . S
C275 C217 1.490 . S
C231 C289 1.489 . S
C189 C303 1.521 . S
C203 C317 1.521 . S
C331 C175 1.521 . S
C497 C345 1.490 . S
C359 C469 1.490 . S
C373 C483 1.489 . S
C387 C441 1.521 . S
C455 C401 1.521 . S
C415 C427 1.521 . S
C413 C429 1.450 . S
C385 C443 1.450 . S
C399 C457 1.450 . S
C357 C471 1.492 1_556 S
C371 C485 1.492 1_556 S
C343 C499 1.492 1_556 S
C409 C3 1.563 . S
C17 C381 1.563 . S
C395 C31 1.563 . S
C45 C185 1.573 . S
C199 C59 1.573 . S
C73 C171 1.573 . S
C87 C325 1.563 . S
C297 C101 1.563 . S
C115 C311 1.563 . S
C129 C437 1.573 . S
C143 C451 1.573 . S
C423 C157 1.573 . S
C353 C213 1.589 1_455 S
C367 C227 1.589 . S
C339 C241 1.590 1_565 S
C255 C493 1.589 1_545 S
C465 C269 1.590 1_455 S
C283 C479 1.589 . S
