# Generated by pormake.
# Topology can, (4)-cn, num edge types: 1
# Building blocks:
#     Node 0, Type 0, BuildingBlock: ICAMEG_clean_sbu_1, # of connection points: 4
#     Node 1, Type 0, BuildingBlock: ICAMEG_clean_sbu_1, # of connection points: 4
#     Node 2, Type 0, BuildingBlock: ICAMEG_clean_sbu_1, # of connection points: 4
#     Node 3, Type 0, BuildingBlock: ICAMEG_clean_sbu_1, # of connection points: 4
#     Node 4, Type 0, BuildingBlock: ICAMEG_clean_sbu_1, # of connection points: 4
#     Node 5, Type 0, BuildingBlock: ICAMEG_clean_sbu_1, # of connection points: 4
#     Node 6, Type 0, BuildingBlock: ICAMEG_clean_sbu_1, # of connection points: 4
#     Node 7, Type 0, BuildingBlock: ICAMEG_clean_sbu_1, # of connection points: 4
#     Node 8, Type 0, BuildingBlock: ICAMEG_clean_sbu_1, # of connection points: 4
#     Node 9, Type 0, BuildingBlock: ICAMEG_clean_sbu_1, # of connection points: 4
#     Node 10, Type 0, BuildingBlock: ICAMEG_clean_sbu_1, # of connection points: 4
#     Node 11, Type 0, BuildingBlock: ICAMEG_clean_sbu_1, # of connection points: 4
#     Edge 12, Type (0, 0), BuildingBlock: EZIPEK_clean_linker_0, # of connection points: 2
#     Edge 13, Type (0, 0), BuildingBlock: EZIPEK_clean_linker_0, # of connection points: 2
#     Edge 14, Type (0, 0), BuildingBlock: EZIPEK_clean_linker_0, # of connection points: 2
#     Edge 15, Type (0, 0), BuildingBlock: EZIPEK_clean_linker_0, # of connection points: 2
#     Edge 16, Type (0, 0), BuildingBlock: EZIPEK_clean_linker_0, # of connection points: 2
#     Edge 17, Type (0, 0), BuildingBlock: EZIPEK_clean_linker_0, # of connection points: 2
#     Edge 18, Type (0, 0), BuildingBlock: EZIPEK_clean_linker_0, # of connection points: 2
#     Edge 19, Type (0, 0), BuildingBlock: EZIPEK_clean_linker_0, # of connection points: 2
#     Edge 20, Type (0, 0), BuildingBlock: EZIPEK_clean_linker_0, # of connection points: 2
#     Edge 21, Type (0, 0), BuildingBlock: EZIPEK_clean_linker_0, # of connection points: 2
#     Edge 22, Type (0, 0), BuildingBlock: EZIPEK_clean_linker_0, # of connection points: 2
#     Edge 23, Type (0, 0), BuildingBlock: EZIPEK_clean_linker_0, # of connection points: 2
#     Edge 24, Type (0, 0), BuildingBlock: EZIPEK_clean_linker_0, # of connection points: 2
#     Edge 25, Type (0, 0), BuildingBlock: EZIPEK_clean_linker_0, # of connection points: 2
#     Edge 26, Type (0, 0), BuildingBlock: EZIPEK_clean_linker_0, # of connection points: 2
#     Edge 27, Type (0, 0), BuildingBlock: EZIPEK_clean_linker_0, # of connection points: 2
#     Edge 28, Type (0, 0), BuildingBlock: EZIPEK_clean_linker_0, # of connection points: 2
#     Edge 29, Type (0, 0), BuildingBlock: EZIPEK_clean_linker_0, # of connection points: 2
#     Edge 30, Type (0, 0), BuildingBlock: EZIPEK_clean_linker_0, # of connection points: 2
#     Edge 31, Type (0, 0), BuildingBlock: EZIPEK_clean_linker_0, # of connection points: 2
#     Edge 32, Type (0, 0), BuildingBlock: EZIPEK_clean_linker_0, # of connection points: 2
#     Edge 33, Type (0, 0), BuildingBlock: EZIPEK_clean_linker_0, # of connection points: 2
#     Edge 34, Type (0, 0), BuildingBlock: EZIPEK_clean_linker_0, # of connection points: 2
#     Edge 35, Type (0, 0), BuildingBlock: EZIPEK_clean_linker_0, # of connection points: 2
# Relax obj value: 0.061
# Max RMSD: 0.076
# Mean RMSD: 0.076
data_MOF--net-can--node1-ICAMEG_clean_sbu_1--edge1-EZIPEK_clean_linker_0
_symmetry_space_group_name_H-M    P1
_symmetry_Int_Tables_number       1
_symmetry_cell_setting            triclinic
loop_
_symmetry_equiv_pos_as_xyz
'x, y, z'
_cell_length_a     42.50004
_cell_length_b     42.554087
_cell_length_c     22.507221
_cell_angle_alpha  89.955254
_cell_angle_beta   89.952441
_cell_angle_gamma 119.97411
loop_
_atom_site_label
_atom_site_type_symbol
_atom_site_fract_x
_atom_site_fract_y
_atom_site_fract_z
_atom_type_partial_charge
Co0 Co 0.00997 0.36784 0.26015 0.0
Co1 Co 0.09573 0.43217 0.21166 0.0
O2 O 0.06321 0.3916 0.26343 0.0
C3 C 0.02757 0.38272 0.38872 0.0
O4 O 0.05748 0.41222 0.37371 0.0
C5 C 0.12842 0.38257 0.21424 0.0
O6 O 0.09671 0.35297 0.20882 0.0
O7 O 0.0691 0.40314 0.13911 0.0
O8 O 0.01119 0.37293 0.17152 0.0
H9 H 0.12809 0.52216 0.04438 0.0
H10 H 0.04692 0.3325 0.31725 0.0
O11 O 1.00644 0.36137 0.34904 0.0
H12 H 0.966 0.24518 0.16741 0.0
H13 H 0.88279 0.2762 0.32398 0.0
H14 H 0.95676 0.37839 0.18968 0.0
H15 H 0.96886 0.30409 0.18029 0.0
H16 H 0.94952 0.30558 0.3249 0.0
O17 O 0.13107 0.41368 0.21025 0.0
H18 H 0.08689 0.47227 0.11011 0.0
H19 H 0.17654 0.47824 0.20273 0.0
H20 H 0.89014 0.34983 0.187 0.0
H21 H 0.04444 0.27356 0.30694 0.0
H22 H 0.8526 0.29828 0.25466 0.0
H23 H 1.00381 0.22948 0.23129 0.0
O24 O 0.0129 0.41603 0.26973 0.0
H25 H 0.15836 0.45324 0.4094 0.0
H26 H 0.12246 0.5085 0.25 0.0
H27 H 0.15655 0.54551 0.33616 0.0
H28 H 0.17467 0.51788 0.41677 0.0
H29 H 0.12425 0.41717 0.32245 0.0
H30 H 0.21886 0.52785 0.13751 0.0
H31 H 0.19478 0.55039 0.05776 0.0
O32 O 0.06256 0.45349 0.21588 0.0
C33 C 0.03478 0.38368 0.13003 0.0
C34 C 0.13895 0.51256 0.07889 0.0
C35 C 0.18986 0.51572 0.13106 0.0
N36 N 0.12889 0.47188 0.16009 0.0
C37 C 0.11558 0.48419 0.11629 0.0
C38 C 0.16564 0.48735 0.16765 0.0
C39 C 0.17635 0.52837 0.08639 0.0
C40 C 0.02857 0.31306 0.28541 0.0
N41 N 1.00744 0.32134 0.25059 0.0
C42 C 0.02753 0.2799 0.27926 0.0
C43 C 1.00482 0.25523 0.2367 0.0
C44 C 0.98358 0.26401 0.20087 0.0
C45 C 0.98531 0.29741 0.2084 0.0
C46 C 0.89884 0.29882 0.29458 0.0
C47 C 0.94076 0.35637 0.21957 0.0
C48 C 0.93672 0.31578 0.29516 0.0
N49 N 0.95724 0.34433 0.25807 0.0
C50 C 0.90296 0.34011 0.21772 0.0
C51 C 0.88192 0.31118 0.25564 0.0
C52 C 0.03395 0.44666 0.24518 0.0
C53 C 0.15062 0.46559 0.37457 0.0
C54 C 0.13027 0.49624 0.2848 0.0
C55 C 0.14963 0.51738 0.33348 0.0
C56 C 0.15976 0.50185 0.37868 0.0
N57 N 0.12124 0.46061 0.28114 0.0
C58 C 0.13136 0.44531 0.32511 0.0
Co59 Co 0.64773 0.01245 0.75714 0.0
Co60 Co 0.67575 0.09889 0.70854 0.0
O61 O 0.67839 0.06495 0.76391 0.0
C62 C 0.63526 0.02711 0.8803 0.0
O63 O 0.62737 0.05103 0.85886 0.0
C64 C 0.75577 0.12629 0.72632 0.0
O65 O 0.74996 0.09306 0.72233 0.0
O66 O 0.68323 0.07306 0.63951 0.0
O67 O 0.65041 0.01472 0.66828 0.0
H68 H 0.64147 0.13606 0.51812 0.0
H69 H 0.71349 0.04253 0.8329 0.0
O70 O 0.64447 0.00925 0.84604 0.0
H71 H 0.72982 0.96694 0.68429 0.0
H72 H 0.60259 0.88344 0.82092 0.0
H73 H 0.58752 0.96265 0.67765 0.0
H74 H 0.67473 0.97235 0.68391 0.0
H75 H 0.64173 0.94992 0.82625 0.0
O76 O 0.7299 0.13287 0.71817 0.0
H77 H 0.64341 0.09307 0.58929 0.0
H78 H 0.70821 0.17935 0.70693 0.0
H79 H 0.54823 0.89632 0.67013 0.0
H80 H 0.76879 0.0375 0.83574 0.0
H81 H 0.55553 0.85622 0.74228 0.0
H82 H 0.7773 0.99956 0.76075 0.0
O83 O 0.60349 0.01728 0.75496 0.0
H84 H 0.69806 0.15261 0.91379 0.0
H85 H 0.62299 0.12431 0.73339 0.0
H86 H 0.61035 0.1524 0.81892 0.0
H87 H 0.64813 0.16693 0.90992 0.0
H88 H 0.70922 0.12388 0.82753 0.0
H89 H 0.70744 0.22347 0.63674 0.0
H90 H 0.6736 0.20187 0.54176 0.0
O91 O 0.62116 0.06723 0.70069 0.0
C92 C 0.66716 0.03891 0.6287 0.0
C93 C 0.65593 0.14579 0.55969 0.0
C94 C 0.69299 0.19483 0.62622 0.0
N95 N 0.67474 0.13341 0.65317 0.0
C96 C 0.65683 0.12147 0.60041 0.0
C97 C 0.69325 0.16968 0.66584 0.0
C98 C 0.67402 0.1827 0.57292 0.0
C99 C 0.71677 0.02562 0.80085 0.0
N100 N 0.69081 0.00766 0.75868 0.0
C101 C 0.74824 0.02301 0.80235 0.0
C102 C 0.75303 1.00179 0.7602 0.0
C103 C 0.72641 0.9835 0.71727 0.0
C104 C 0.6953 0.98676 0.71719 0.0
C105 C 0.59913 0.90063 0.78925 0.0
C106 C 0.59117 0.9454 0.7088 0.0
C107 C 0.62111 0.9383 0.79221 0.0
N108 N 0.61698 0.96017 0.75224 0.0
C109 C 0.56869 0.90785 0.70452 0.0
C110 C 0.57276 0.88537 0.74507 0.0
C111 C 0.5961 0.03843 0.72568 0.0
C112 C 0.68153 0.14662 0.87428 0.0
C113 C 0.63951 0.13039 0.77284 0.0
C114 C 0.63226 0.14642 0.82111 0.0
C115 C 0.65347 0.15457 0.87213 0.0
N116 N 0.66717 0.12275 0.77517 0.0
C117 C 0.68795 0.13057 0.82514 0.0
Co118 Co 0.63742 0.6435 0.26287 0.0
Co119 Co 0.58071 0.67163 0.20445 0.0
O120 O 0.61656 0.67568 0.26381 0.0
C121 C 0.6191 0.64581 0.38982 0.0
O122 O 0.59003 0.64668 0.37359 0.0
C123 C 0.62544 0.75213 0.23726 0.0
O124 O 0.64866 0.74619 0.26633 0.0
O125 O 0.61564 0.67711 0.13885 0.0
O126 O 0.63639 0.64153 0.17439 0.0
H127 H 0.51352 0.62731 0.01136 0.0
H128 H 0.67652 0.71187 0.33154 0.0
O129 O 0.64034 0.64446 0.35157 0.0
H130 H 0.76348 0.71978 0.17895 0.0
H131 H 0.72269 0.60066 0.33047 0.0
H132 H 0.61949 0.57513 0.20027 0.0
H133 H 0.7026 0.66565 0.18581 0.0
H134 H 0.6976 0.64183 0.32844 0.0
O135 O 0.59986 0.72654 0.20712 0.0
H136 H 0.55661 0.63322 0.08947 0.0
H137 H 0.5316 0.703 0.18756 0.0
H138 H 0.64392 0.53343 0.20035 0.0
H139 H 0.73737 0.7663 0.32685 0.0
H140 H 0.69594 0.54608 0.26587 0.0
H141 H 0.78128 0.77059 0.2499 0.0
O142 O 0.58721 0.60039 0.2664 0.0
H143 H 0.54375 0.69308 0.40687 0.0
H144 H 0.50132 0.6216 0.22248 0.0
H145 H 0.45785 0.60976 0.30339 0.0
H146 H 0.47886 0.64576 0.39641 0.0
H147 H 0.58641 0.70385 0.32513 0.0
H148 H 0.48866 0.6984 0.11023 0.0
H149 H 0.4791 0.66006 0.02139 0.0
O150 O 0.55792 0.61713 0.2024 0.0
C151 C 0.63122 0.65815 0.1318 0.0
C152 C 0.5172 0.64388 0.05007 0.0
C153 C 0.50334 0.68384 0.10546 0.0
N154 N 0.54624 0.66786 0.14394 0.0
C155 C 0.54143 0.64713 0.09474 0.0
C156 C 0.52784 0.68645 0.1492 0.0
C157 C 0.49797 0.66231 0.05566 0.0
C158 C 0.69554 0.7134 0.29824 0.0
N159 N 0.68586 0.68566 0.25887 0.0
C160 C 0.72994 0.74434 0.29567 0.0
C161 C 0.75455 0.74675 0.25245 0.0
C162 C 0.74456 0.71828 0.21259 0.0
C163 C 0.70994 0.68776 0.21652 0.0
C164 C 0.70015 0.59496 0.30147 0.0
C165 C 0.64237 0.5811 0.22823 0.0
C166 C 0.68582 0.61818 0.3001 0.0
N167 N 0.65747 0.61128 0.26334 0.0
C168 C 0.65599 0.55726 0.2284 0.0
C169 C 0.68513 0.56434 0.26523 0.0
C170 C 0.55899 0.59339 0.23595 0.0
C171 C 0.53414 0.67749 0.3663 0.0
C172 C 0.51078 0.63779 0.26241 0.0
C173 C 0.48596 0.63078 0.30827 0.0
C174 C 0.49777 0.65092 0.36045 0.0
N175 N 0.54639 0.66438 0.2679 0.0
C176 C 0.5582 0.68363 0.31955 0.0
Co177 Co 1.00078 0.63218 0.74586 0.0
Co178 Co 0.91124 0.57002 0.70927 0.0
O179 O 0.9481 0.61178 0.75427 0.0
C180 C 0.98472 0.62712 0.877 0.0
O181 O 0.95072 0.61696 0.86617 0.0
C182 C 0.88445 0.62477 0.71156 0.0
O183 O 0.91724 0.65304 0.70744 0.0
O184 O 0.93587 0.59477 0.63213 0.0
O185 O 0.99524 0.62866 0.65716 0.0
H186 H 0.86196 0.46216 0.57007 0.0
H187 H 0.97027 0.67278 0.81122 0.0
O188 O 1.00771 0.63563 0.83484 0.0
H189 H 0.05329 0.75794 0.6609 0.0
H190 H 0.13292 0.71531 0.79447 0.0
H191 H 0.04597 0.61429 0.66862 0.0
H192 H 0.04419 0.69625 0.66856 0.0
H193 H 0.06702 0.69134 0.80472 0.0
O194 O 0.87945 0.5927 0.7077 0.0
H195 H 0.90909 0.51285 0.62621 0.0
H196 H 0.83003 0.53316 0.70437 0.0
H197 H 0.1117 0.63776 0.65618 0.0
H198 H 0.97872 0.73404 0.8054 0.0
H199 H 0.15565 0.6886 0.71948 0.0
H200 H 0.02051 0.77732 0.72976 0.0
O201 O 0.99544 0.58307 0.75172 0.0
H202 H 0.85643 0.56159 0.91148 0.0
H203 H 0.88648 0.49662 0.76098 0.0
H204 H 0.85836 0.46624 0.8552 0.0
H205 H 0.84303 0.49868 0.93135 0.0
H206 H 0.88541 0.59139 0.81734 0.0
H207 H 0.78201 0.48257 0.6488 0.0
H208 H 0.79761 0.44656 0.58058 0.0
O209 O 0.94091 0.54526 0.71271 0.0
C210 C 0.96962 0.61582 0.61882 0.0
C211 C 0.85488 0.47829 0.5983 0.0
C212 C 0.81006 0.48969 0.6425 0.0
N213 N 0.87343 0.52855 0.66539 0.0
C214 C 0.88184 0.50781 0.62959 0.0
C215 C 0.83773 0.51895 0.6732 0.0
C216 C 0.81879 0.46943 0.60441 0.0
C217 C 0.98893 0.69126 0.77888 0.0
N218 N 1.00721 0.68079 0.74122 0.0
C219 C 0.99343 0.72606 0.77547 0.0
C220 C 0.01681 0.7503 0.73297 0.0
C221 C 0.03522 0.73946 0.69439 0.0
C222 C 0.02998 0.70443 0.69909 0.0
C223 C 0.11404 0.69317 0.76659 0.0
C224 C 0.06497 0.63662 0.69597 0.0
C225 C 0.07668 0.67939 0.77241 0.0
N226 N 0.0527 0.65161 0.73706 0.0
C227 C 0.10213 0.6497 0.68889 0.0
C228 C 0.12678 0.6782 0.72447 0.0
C229 C 0.97097 0.55164 0.7355 0.0
C230 C 0.86299 0.54717 0.87868 0.0
C231 C 0.8804 0.51125 0.79396 0.0
C232 C 0.8642 0.49373 0.84721 0.0
C233 C 0.85554 0.5119 0.88984 0.0
N234 N 0.8881 0.54607 0.78352 0.0
C235 C 0.87927 0.56386 0.82496 0.0
Co236 Co 0.37789 0.99991 0.25355 0.0
Co237 Co 0.35406 0.91545 0.19998 0.0
O238 O 0.34715 0.94673 0.25693 0.0
C239 C 0.37142 0.98284 0.38318 0.0
O240 O 0.36757 0.95104 0.37181 0.0
C241 C 0.27328 0.87529 0.23481 0.0
O242 O 0.27864 0.90242 0.26908 0.0
O243 O 0.3473 0.94263 0.13241 0.0
O244 O 0.38284 0.99929 0.16537 0.0
H245 H 0.40786 0.89563 0.01482 0.0
H246 H 0.30694 0.96941 0.31471 0.0
O247 O 0.37436 1.00423 0.3415 0.0
H248 H 0.3017 0.04448 0.15231 0.0
H249 H 0.41642 0.12891 0.30885 0.0
H250 H 0.44748 0.04965 0.19367 0.0
H251 H 0.35693 0.04052 0.16859 0.0
H252 H 0.37616 0.06252 0.3103 0.0
O253 O 0.29928 0.87784 0.2019 0.0
H254 H 0.39829 0.93157 0.09089 0.0
H255 H 0.32389 0.83528 0.18165 0.0
H256 H 0.48835 0.11589 0.19045 0.0
H257 H 0.2512 0.97283 0.30033 0.0
H258 H 0.47291 0.15603 0.24839 0.0
H259 H 0.2483 0.0105 0.21848 0.0
O260 O 0.42112 0.9939 0.26516 0.0
H261 H 0.3356 0.86035 0.4053 0.0
H262 H 0.40622 0.88905 0.21973 0.0
H263 H 0.42 0.85968 0.30158 0.0
H264 H 0.38456 0.84498 0.39536 0.0
H265 H 0.3226 0.88958 0.3224 0.0
H266 H 0.33218 0.79823 0.10634 0.0
H267 H 0.37466 0.82839 0.02219 0.0
O268 O 0.40855 0.94972 0.19907 0.0
C269 C 0.36631 0.9769 0.12357 0.0
C270 C 0.38936 0.88214 0.05137 0.0
C271 C 0.34685 0.8275 0.10265 0.0
N272 N 0.36068 0.88565 0.14125 0.0
C273 C 0.3839 0.90237 0.09478 0.0
C274 C 0.34207 0.84865 0.14519 0.0
C275 C 0.3707 0.84443 0.05549 0.0
C276 C 0.30592 0.98595 0.27917 0.0
N277 N 0.33509 1.00453 0.2424 0.0
C278 C 0.27428 0.98776 0.27119 0.0
C279 C 0.27266 0.00887 0.22523 0.0
C280 C 0.3026 0.02793 0.18807 0.0
C281 C 0.33377 0.02546 0.19739 0.0
C282 C 0.42336 0.11172 0.28319 0.0
C283 C 0.44037 0.06692 0.21843 0.0
C284 C 0.40067 0.07409 0.28383 0.0
N285 N 0.40917 0.05222 0.2513 0.0
C286 C 0.46371 0.10442 0.21669 0.0
C287 C 0.45505 0.12692 0.24927 0.0
C288 C 0.43005 0.97378 0.23595 0.0
C289 C 0.35098 0.86622 0.36443 0.0
C290 C 0.39003 0.8822 0.25974 0.0
C291 C 0.39823 0.86574 0.30623 0.0
C292 C 0.37844 0.85762 0.35886 0.0
N293 N 0.36263 0.89014 0.26497 0.0
C294 C 0.34364 0.88278 0.317 0.0
Co295 Co 0.3793 0.3702 0.74633 0.0
Co296 Co 0.44265 0.34688 0.70355 0.0
O297 O 0.40156 0.33946 0.75425 0.0
C298 C 0.38741 0.36472 0.87601 0.0
O299 O 0.41706 0.36399 0.86444 0.0
C300 C 0.39996 0.2659 0.73509 0.0
O301 O 0.37421 0.26994 0.75945 0.0
O302 O 0.41153 0.33961 0.63121 0.0
O303 O 0.3885 0.37492 0.65826 0.0
H304 H 0.526 0.39759 0.52652 0.0
H305 H 0.33701 0.29845 0.80363 0.0
O306 O 0.36832 0.36636 0.83404 0.0
H307 H 0.26149 0.29647 0.63615 0.0
H308 H 0.28818 0.41005 0.79018 0.0
H309 H 0.39941 0.43778 0.68008 0.0
H310 H 0.32073 0.35077 0.65624 0.0
H311 H 0.31426 0.36985 0.79794 0.0
O312 O 0.42636 0.29253 0.70772 0.0
H313 H 0.4762 0.38854 0.59273 0.0
H314 H 0.49442 0.31814 0.70165 0.0
H315 H 0.37418 0.47863 0.67059 0.0
H316 H 0.27773 0.24351 0.78574 0.0
H317 H 0.31812 0.46484 0.72599 0.0
H318 H 0.23956 0.2423 0.70122 0.0
O319 O 0.42783 0.41345 0.76204 0.0
H320 H 0.46947 0.3262 0.91411 0.0
H321 H 0.51938 0.4006 0.73369 0.0
H322 H 0.55837 0.41377 0.82148 0.0
H323 H 0.53356 0.3764 0.91266 0.0
H324 H 0.43139 0.31394 0.82536 0.0
H325 H 0.54407 0.32571 0.63643 0.0
H326 H 0.5605 0.36597 0.54816 0.0
O327 O 0.46212 0.40138 0.70063 0.0
C328 C 0.39492 0.35711 0.61914 0.0
C329 C 0.51927 0.3801 0.565 0.0
C330 C 0.52933 0.33973 0.62653 0.0
N331 N 0.4823 0.35321 0.6517 0.0
C332 C 0.49106 0.37505 0.60288 0.0
C333 C 0.50094 0.33538 0.66332 0.0
C334 C 0.53856 0.36233 0.57708 0.0
C335 C 0.32039 0.29811 0.76727 0.0
N336 N 0.33229 0.32772 0.7313 0.0
C337 C 0.28692 0.26695 0.75712 0.0
C338 C 0.26554 0.26628 0.70968 0.0
C339 C 0.27782 0.29665 0.67317 0.0
C340 C 0.31146 0.32731 0.6847 0.0
C341 C 0.31262 0.41636 0.76584 0.0
C342 C 0.37503 0.4316 0.70413 0.0
C343 C 0.3276 0.39376 0.7702 0.0
N344 N 0.35838 0.40147 0.73935 0.0
C345 C 0.36085 0.45483 0.69867 0.0
C346 C 0.32942 0.44708 0.72979 0.0
C347 C 0.45785 0.42269 0.73582 0.0
C348 C 0.48073 0.34249 0.87449 0.0
C349 C 0.50832 0.3838 0.77277 0.0
C350 C 0.53061 0.39155 0.82253 0.0
C351 C 0.51666 0.37065 0.87368 0.0
N352 N 0.47315 0.35576 0.77344 0.0
C353 C 0.45926 0.33556 0.82384 0.0
Co354 Co 0.64615 0.00769 0.25499 0.0
Co355 Co 0.58624 0.92354 0.31015 0.0
O356 O 0.62328 0.95473 0.25248 0.0
C357 C 0.62282 0.98892 0.12976 0.0
O358 O 0.59432 0.95957 0.1498 0.0
C359 C 0.63442 0.88969 0.29993 0.0
O360 O 0.6641 0.921 0.30839 0.0
O361 O 0.62085 0.95014 0.37706 0.0
O362 O 0.64604 0.0076 0.34407 0.0
H363 H 0.51557 0.89629 0.50076 0.0
H364 H 0.67943 0.97095 0.19052 0.0
O365 O 0.64731 0.01024 0.16578 0.0
H366 H 0.77339 0.05413 0.33035 0.0
H367 H 0.73346 0.13512 0.18737 0.0
H368 H 0.63315 0.05937 0.32433 0.0
H369 H 0.71372 0.05056 0.32613 0.0
H370 H 0.7059 0.06853 0.18715 0.0
O371 O 0.60334 0.88726 0.30348 0.0
H372 H 0.56107 0.93537 0.42652 0.0
H373 H 0.53537 0.84365 0.31922 0.0
H374 H 0.6601 0.12584 0.3265 0.0
H375 H 0.73908 0.97424 0.19215 0.0
H376 H 0.71065 0.16421 0.25762 0.0
H377 H 0.78649 0.01598 0.26269 0.0
O378 O 0.59733 1.00338 0.2533 0.0
H379 H 0.54876 0.85933 0.11308 0.0
H380 H 0.50911 0.90263 0.28493 0.0
H381 H 0.46678 0.8726 0.20213 0.0
H382 H 0.48642 0.8505 0.11547 0.0
H383 H 0.59074 0.8906 0.19599 0.0
H384 H 0.48991 0.80346 0.39261 0.0
H385 H 0.47954 0.82977 0.48398 0.0
O386 O 0.56594 0.95738 0.31557 0.0
C387 C 0.63898 0.98451 0.38549 0.0
C388 C 0.51959 0.88452 0.46089 0.0
C389 C 0.50523 0.83243 0.40024 0.0
N390 N 0.55032 0.892 0.36793 0.0
C391 C 0.54518 0.90657 0.41852 0.0
C392 C 0.53102 0.85535 0.35881 0.0
C393 C 0.49944 0.8472 0.4515 0.0
C394 C 0.70027 0.98982 0.22018 0.0
N395 N 0.69349 0.01131 0.25677 0.0
C396 C 0.73384 0.99129 0.2214 0.0
C397 C 0.7604 0.01465 0.26109 0.0
C398 C 0.75308 0.03608 0.29903 0.0
C399 C 0.71924 0.03396 0.29638 0.0
C400 C 0.71153 0.11871 0.21775 0.0
C401 C 0.65534 0.07588 0.29468 0.0
C402 C 0.69579 0.08099 0.21777 0.0
N403 N 0.66823 0.06011 0.25628 0.0
C404 C 0.67041 0.11351 0.2959 0.0
C405 C 0.69873 0.13501 0.25718 0.0
C406 C 0.56919 0.98415 0.28479 0.0
C407 C 0.53988 0.86879 0.15064 0.0
C408 C 0.51816 0.89362 0.2471 0.0
C409 C 0.49391 0.87635 0.20048 0.0
C410 C 0.50492 0.86391 0.15194 0.0
N411 N 0.55256 0.89861 0.24537 0.0
C412 C 0.56345 0.88628 0.198 0.0
Co413 Co 0.64131 0.63738 0.76647 0.0
Co414 Co 0.66758 0.57571 0.8073 0.0
O415 O 0.67285 0.61619 0.75704 0.0
C416 C 0.65515 0.63724 0.63448 0.0
O417 O 0.68033 0.62872 0.64427 0.0
C418 C 0.74824 0.61975 0.7717 0.0
O419 O 0.74344 0.64528 0.74846 0.0
O420 O 0.67603 0.60708 0.87982 0.0
O421 O 0.64162 0.63181 0.85511 0.0
H422 H 0.62503 0.49317 0.98635 0.0
H423 H 0.71326 0.68155 0.70315 0.0
O424 O 0.63911 0.6431 0.67749 0.0
H425 H 0.71316 0.75925 0.86464 0.0
H426 H 0.59392 0.72253 0.72342 0.0
H427 H 0.57651 0.6171 0.84079 0.0
H428 H 0.66079 0.69813 0.85035 0.0
H429 H 0.63589 0.69869 0.71219 0.0
O430 O 0.72206 0.59295 0.7991 0.0
H431 H 0.63075 0.54241 0.92216 0.0
H432 H 0.69694 0.52477 0.8021 0.0
H433 H 0.53415 0.64032 0.85413 0.0
H434 H 0.76585 0.74232 0.71552 0.0
H435 H 0.54271 0.69339 0.7951 0.0
H436 H 0.76626 0.78189 0.79686 0.0
O437 O 0.59837 0.58841 0.75721 0.0
H438 H 0.68449 0.54801 0.59528 0.0
H439 H 0.61281 0.49908 0.77856 0.0
H440 H 0.59722 0.4602 0.69023 0.0
H441 H 0.63339 0.48444 0.5977 0.0
H442 H 0.69853 0.58623 0.68426 0.0
H443 H 0.69266 0.47562 0.86506 0.0
H444 H 0.6562 0.45919 0.95793 0.0
O445 O 0.61318 0.55513 0.81532 0.0
C446 C 0.65983 0.62492 0.89286 0.0
C447 C 0.64086 0.4999 0.94585 0.0
C448 C 0.67885 0.49012 0.87794 0.0
N449 N 0.66374 0.53658 0.85785 0.0
C450 C 0.64401 0.52781 0.90914 0.0
C451 C 0.68133 0.51822 0.84245 0.0
C452 C 0.65839 0.4809 0.92997 0.0
C453 C 0.71264 0.69826 0.73811 0.0
N454 N 0.68338 0.68593 0.77523 0.0
C455 C 0.7428 0.73287 0.74517 0.0
C456 C 0.74305 0.75504 0.79083 0.0
C457 C 0.71328 0.74237 0.82879 0.0
C458 C 0.68364 0.70761 0.82038 0.0
C459 C 0.58991 0.6994 0.74941 0.0
C460 C 0.58053 0.64034 0.81524 0.0
C461 C 0.61351 0.6857 0.74302 0.0
N462 N 0.60876 0.65666 0.77597 0.0
C463 C 0.5564 0.65331 0.82285 0.0
C464 C 0.5612 0.68306 0.78967 0.0
C465 C 0.59052 0.5587 0.78263 0.0
C466 C 0.66858 0.53706 0.63535 0.0
C467 C 0.6287 0.51008 0.73856 0.0
C468 C 0.61969 0.4878 0.6886 0.0
C469 C 0.63993 0.50141 0.63673 0.0
N470 N 0.65705 0.54508 0.73715 0.0
C471 C 0.67627 0.55877 0.68587 0.0
Co472 Co 0.00884 0.63673 0.24772 0.0
Co473 Co 0.09299 0.65855 0.30289 0.0
O474 O 0.0621 0.66524 0.24565 0.0
C475 C 0.02644 0.63235 0.1221 0.0
O476 O 0.05202 0.62593 0.13988 0.0
C477 C 0.13438 0.73904 0.26699 0.0
O478 O 0.10756 0.73407 0.23221 0.0
O479 O 0.06541 0.66515 0.37066 0.0
O480 O 1.00817 0.63487 0.33615 0.0
H481 H 0.11373 0.60886 0.49223 0.0
H482 H 0.04291 0.70486 0.17734 0.0
O483 O 1.00722 0.6378 0.15924 0.0
H484 H 0.97102 0.72257 0.33203 0.0
H485 H 0.88379 0.60647 0.18077 0.0
H486 H 0.9535 0.56899 0.30785 0.0
H487 H 0.97139 0.66496 0.3254 0.0
H488 H 0.95062 0.64237 0.18336 0.0
O489 O 0.13104 0.7131 0.30077 0.0
H490 H 0.07762 0.61836 0.41645 0.0
H491 H 0.17303 0.68603 0.31793 0.0
H492 H 0.88678 0.53253 0.30738 0.0
H493 H 0.04302 0.7628 0.18203 0.0
H494 H 0.85136 0.55121 0.2434 0.0
H495 H 1.007 0.772 0.25997 0.0
O496 O 0.011 0.59067 0.24515 0.0
H497 H 0.14535 0.67471 0.09569 0.0
H498 H 0.11918 0.60625 0.28315 0.0
H499 H 0.14764 0.59171 0.20072 0.0
H500 H 0.16122 0.62618 0.10612 0.0
H501 H 0.11688 0.68834 0.17891 0.0
H502 H 0.21039 0.678 0.393 0.0
H503 H 0.18073 0.63882 0.48084 0.0
O504 O 0.05877 0.60462 0.30388 0.0
C505 C 0.03082 0.64856 0.37866 0.0
C506 C 0.12699 0.62575 0.4539 0.0
C507 C 0.1812 0.66462 0.39834 0.0
N508 N 0.12295 0.65213 0.36176 0.0
C509 C 0.10659 0.63101 0.41051 0.0
C510 C 0.15988 0.66923 0.35588 0.0
C511 C 0.16456 0.64263 0.44758 0.0
C512 C 0.02703 0.70858 0.21122 0.0
N513 N 1.0074 0.68161 0.25127 0.0
C514 C 0.02725 0.74148 0.21372 0.0
C515 C 1.00707 0.74664 0.25749 0.0
C516 C 0.98692 0.71893 0.29798 0.0
C517 C 0.98739 0.68642 0.29418 0.0
C518 C 0.89888 0.59823 0.20931 0.0
C519 C 0.93842 0.57776 0.28101 0.0
C520 C 0.93677 0.61852 0.21111 0.0
N521 N 0.95608 0.60846 0.2473 0.0
C522 C 0.90056 0.5568 0.28041 0.0
C523 C 0.88071 0.56723 0.24441 0.0
C524 C 0.03177 0.5818 0.27276 0.0
C525 C 0.14021 0.65994 0.13706 0.0
C526 C 0.12564 0.62208 0.24278 0.0
C527 C 0.14152 0.61341 0.19596 0.0
C528 C 0.14902 0.63266 0.14287 0.0
N529 N 0.1179 0.64959 0.23759 0.0
C530 C 0.12423 0.66775 0.18482 0.0
Co531 Co 0.38327 0.01405 0.75507 0.0
Co532 Co 0.44622 0.10035 0.80346 0.0
O533 O 0.40592 0.06711 0.75184 0.0
C534 C 0.3885 0.03427 0.62488 0.0
O535 O 0.40078 0.06843 0.63785 0.0
C536 C 0.39448 0.13025 0.79946 0.0
O537 O 0.36561 0.0979 0.80377 0.0
O538 O 0.41735 0.07333 0.87581 0.0
O539 O 0.3865 0.01542 0.84385 0.0
H540 H 0.5359 0.13455 0.97125 0.0
H541 H 0.34504 0.04885 0.69579 0.0
O542 O 0.37953 0.0104 0.66565 0.0
H543 H 0.25845 0.96445 0.8433 0.0
H544 H 0.29577 0.88555 0.69274 0.0
H545 H 0.39741 0.96347 0.82536 0.0
H546 H 0.31885 0.97054 0.83196 0.0
H547 H 0.32264 0.95201 0.6906 0.0
O548 O 0.42616 0.13434 0.80478 0.0
H549 H 0.48679 0.09261 0.90506 0.0
H550 H 0.49055 0.18115 0.81216 0.0
H551 H 0.37123 0.89712 0.82946 0.0
H552 H 0.28495 0.04333 0.70509 0.0
H553 H 0.32 0.85766 0.76273 0.0
H554 H 0.241 1.00087 0.77938 0.0
O555 O 0.43193 0.01837 0.7478 0.0
H556 H 0.46679 0.16289 0.6054 0.0
H557 H 0.52273 0.12771 0.76463 0.0
H558 H 0.55927 0.16083 0.6773 0.0
H559 H 0.53125 0.17846 0.59663 0.0
H560 H 0.43129 0.12996 0.69366 0.0
H561 H 0.5394 0.22417 0.87769 0.0
H562 H 0.5626 0.20102 0.95785 0.0
O563 O 0.46915 0.06865 0.7996 0.0
C564 C 0.39716 0.03914 0.88496 0.0
C565 C 0.52599 0.14501 0.93656 0.0
C566 C 0.52793 0.19528 0.88413 0.0
N567 N 0.4854 0.13407 0.85497 0.0
C568 C 0.49809 0.12124 0.89894 0.0
C569 C 0.50003 0.17067 0.84734 0.0
C570 C 0.54096 0.18228 0.92904 0.0
C571 C 0.32614 0.02988 0.7274 0.0
N572 N 0.33548 0.00951 0.76216 0.0
C573 C 0.29207 0.02704 0.73283 0.0
C574 C 0.26746 1.00329 0.77459 0.0
C575 C 0.27722 0.98283 0.81039 0.0
C576 C 0.31152 0.98639 0.80364 0.0
C577 C 0.31811 0.90245 0.72199 0.0
C578 C 0.37516 0.94651 0.7963 0.0
C579 C 0.33355 0.94013 0.72077 0.0
N580 N 0.36166 0.96165 0.75779 0.0
C581 C 0.36042 0.90894 0.79876 0.0
C582 C 0.3317 0.88682 0.76129 0.0
C583 C 0.46258 0.03996 0.7712 0.0
C584 C 0.47926 0.1552 0.64009 0.0
C585 C 0.51025 0.13523 0.72978 0.0
C586 C 0.53116 0.1541 0.68046 0.0
C587 C 0.51543 0.16396 0.63522 0.0
N588 N 0.47461 0.12627 0.73394 0.0
C589 C 0.45924 0.13644 0.69019 0.0
Co590 Co 0.37319 0.37535 0.25159 0.0
Co591 Co 0.34779 0.43562 0.30376 0.0
O592 O 0.34155 0.39696 0.24853 0.0
C593 C 0.36702 0.38696 0.12276 0.0
O594 O 0.36611 0.4162 0.13706 0.0
C595 C 0.26655 0.39181 0.27404 0.0
O596 O 0.27158 0.36813 0.24476 0.0
O597 O 0.3428 0.40305 0.3727 0.0
O598 O 0.37872 0.38201 0.34002 0.0
H599 H 0.40128 0.51447 0.4842 0.0
H600 H 0.30028 0.33441 0.19763 0.0
O601 O 0.36865 0.36688 0.16306 0.0
H602 H 0.30199 0.25444 0.35435 0.0
H603 H 0.41412 0.28733 0.19137 0.0
H604 H 0.44038 0.39226 0.31712 0.0
H605 H 0.35572 0.31437 0.33576 0.0
H606 H 0.37361 0.3132 0.19052 0.0
O607 O 0.29281 0.4173 0.30336 0.0
H608 H 0.39315 0.46823 0.41093 0.0
H609 H 0.31422 0.48289 0.32 0.0
H610 H 0.48163 0.36728 0.31971 0.0
H611 H 0.24588 0.27443 0.21394 0.0
H612 H 0.46859 0.31436 0.25637 0.0
H613 H 0.24654 0.23402 0.29307 0.0
O614 O 0.41614 0.42481 0.23844 0.0
H615 H 0.32264 0.46645 0.09891 0.0
H616 H 0.39655 0.51452 0.27992 0.0
H617 H 0.4048 0.55607 0.19779 0.0
H618 H 0.36776 0.53216 0.10623 0.0
H619 H 0.31443 0.426 0.18275 0.0
H620 H 0.32096 0.52895 0.39243 0.0
H621 H 0.36498 0.54532 0.47528 0.0
O622 O 0.40275 0.45714 0.30247 0.0
C623 C 0.36137 0.38724 0.38148 0.0
C624 C 0.3821 0.50771 0.44819 0.0
C625 C 0.337 0.51576 0.39681 0.0
N626 N 0.35347 0.47275 0.36059 0.0
C627 C 0.3775 0.48152 0.40636 0.0
C628 C 0.33313 0.48939 0.3559 0.0
C629 C 0.3617 0.52496 0.44323 0.0
C630 C 0.30081 0.31672 0.23134 0.0
N631 N 0.33119 0.32772 0.26499 0.0
C632 C 0.26992 0.2829 0.24073 0.0
C633 C 0.27029 0.26027 0.28518 0.0
C634 C 0.30139 0.2717 0.31956 0.0
C635 C 0.33174 0.30571 0.30882 0.0
C636 C 0.42022 0.31052 0.21894 0.0
C637 C 0.43473 0.36954 0.28924 0.0
C638 C 0.39748 0.32546 0.21841 0.0
N639 N 0.40492 0.35469 0.25326 0.0
C640 C 0.45809 0.35536 0.29097 0.0
C641 C 0.45075 0.32566 0.25546 0.0
C642 C 0.42471 0.45401 0.26691 0.0
C643 C 0.33871 0.47729 0.13877 0.0
C644 C 0.37959 0.50386 0.241 0.0
C645 C 0.38464 0.52759 0.19434 0.0
C646 C 0.36398 0.51414 0.14292 0.0
N647 N 0.35406 0.46779 0.23737 0.0
C648 C 0.33419 0.45443 0.18658 0.0
Co649 Co 0.99862 0.36611 0.7636 0.0
Co650 Co 0.91049 0.33726 0.8082 0.0
O651 O 0.94605 0.33281 0.7582 0.0
C652 C 0.982 0.36108 0.63471 0.0
O653 O 0.95107 0.3588 0.64853 0.0
C654 C 0.88546 0.25686 0.8025 0.0
O655 O 0.91899 0.26345 0.8066 0.0
O656 O 0.93702 0.33588 0.88178 0.0
O657 O 0.99536 0.36958 0.85225 0.0
H658 H 0.8672 0.38682 0.97311 0.0
H659 H 0.97048 0.29482 0.70556 0.0
O660 O 1.00395 0.36337 0.67512 0.0
H661 H 0.05239 0.29749 0.86265 0.0
H662 H 0.12971 0.41341 0.70875 0.0
H663 H 0.04524 0.43336 0.83142 0.0
H664 H 0.04264 0.34941 0.8478 0.0
H665 H 0.0638 0.3706 0.70474 0.0
O666 O 0.87833 0.28251 0.80742 0.0
H667 H 0.91258 0.38362 0.90979 0.0
H668 H 0.82946 0.29684 0.81204 0.0
H669 H 0.11094 0.47678 0.83724 0.0
H670 H 0.97974 0.24236 0.71792 0.0
H671 H 0.15372 0.46693 0.77549 0.0
H672 H 0.02091 0.24349 0.79727 0.0
O673 O 0.99063 0.40804 0.75148 0.0
H674 H 0.85281 0.29651 0.60672 0.0
H675 H 0.88155 0.38483 0.76839 0.0
H676 H 0.84947 0.38802 0.67953 0.0
H677 H 0.83479 0.34359 0.59787 0.0
H678 H 0.88548 0.29486 0.69596 0.0
H679 H 0.78296 0.29876 0.87446 0.0
H680 H 0.80163 0.34404 0.95573 0.0
O681 O 0.94067 0.39242 0.80668 0.0
C682 C 0.9713 0.35354 0.8925 0.0
C683 C 0.85869 0.36681 0.93807 0.0
C684 C 0.81145 0.31741 0.88279 0.0
N685 N 0.87418 0.33984 0.85776 0.0
C686 C 0.88448 0.36487 0.90214 0.0
C687 C 0.83805 0.31631 0.84781 0.0
C688 C 0.82192 0.34283 0.92829 0.0
C689 C 0.98887 0.29566 0.73922 0.0
N690 N 1.00628 0.32524 0.7752 0.0
C691 C 0.99382 0.26582 0.74645 0.0
C692 C 0.01685 0.26644 0.79105 0.0
C693 C 0.03451 0.29672 0.82774 0.0
C694 C 0.02884 0.32602 0.81916 0.0
C695 C 0.11135 0.41804 0.7358 0.0
C696 C 0.06362 0.42892 0.80452 0.0
C697 C 0.07396 0.39397 0.73354 0.0
N698 N 0.0506 0.39954 0.7678 0.0
C699 C 0.10083 0.45358 0.80795 0.0
C700 C 0.12481 0.44804 0.77329 0.0
C701 C 0.96805 0.41547 0.77606 0.0
C702 C 0.85896 0.31598 0.64204 0.0
C703 C 0.87544 0.36546 0.73302 0.0
C704 C 0.85713 0.36735 0.68284 0.0
C705 C 0.8489 0.34242 0.63706 0.0
N706 N 0.88543 0.33957 0.73747 0.0
C707 C 0.87725 0.31496 0.69288 0.0
C708 C 0.01236 0.34351 0.03871 0.0
C709 C 0.0202 0.37626 0.06792 0.0
C710 C 0.99192 0.39139 0.98551 0.0
C711 C 0.98487 0.35923 0.9553 0.0
N712 N 0.98807 0.30446 0.95154 0.0
N713 N 0.01815 0.4317 0.06969 0.0
C714 C 0.99492 0.33512 0.98168 0.0
C715 C 0.00998 0.40014 0.04142 0.0
N716 N 0.02117 0.32029 0.06627 0.0
N717 N 0.98048 0.41326 0.96092 0.0
H718 H 0.0284 0.43743 0.11262 0.0
H719 H 0.01619 0.45294 0.05075 0.0
H720 H 0.96969 0.40894 0.91846 0.0
H721 H 0.98016 0.4347 0.98245 0.0
H722 H 0.0139 0.29451 0.05097 0.0
H723 H 0.03547 0.32665 0.10625 0.0
H724 H 0.99711 0.28689 0.96456 0.0
H725 H 0.97349 0.29673 0.91183 0.0
C726 C 0.62592 0.01156 0.47459 0.0
C727 C 0.64766 0.99895 0.44747 0.0
C728 C 0.68648 0.01782 0.5369 0.0
C729 C 0.66169 0.02602 0.56582 0.0
N730 N 0.60146 0.01842 0.56661 0.0
N731 N 0.69789 0.98797 0.45381 0.0
C732 C 0.6296 0.01933 0.53597 0.0
C733 C 0.67776 1.00135 0.47907 0.0
N734 N 0.60222 0.0172 0.44181 0.0
N735 N 0.71824 0.02593 0.56457 0.0
H736 H 0.69283 0.97706 0.41105 0.0
H737 H 0.71812 0.98577 0.4762 0.0
H738 H 0.72477 0.03736 0.60695 0.0
H739 H 0.739 0.02361 0.54433 0.0
H740 H 0.58859 0.02989 0.45893 0.0
H741 H 0.59909 0.01288 0.39628 0.0
H742 H 0.57613 0.01011 0.54759 0.0
H743 H 0.60198 0.02167 0.61235 0.0
C744 C 0.62021 0.61434 0.04863 0.0
C745 C 0.63974 0.65039 0.07077 0.0
C746 C 0.67864 0.66778 0.98116 0.0
C747 C 0.65574 0.63287 0.95641 0.0
N748 N 0.59907 0.57663 0.96217 0.0
N749 N 0.68726 0.71232 0.05708 0.0
C750 C 0.62511 0.60724 0.98908 0.0
C751 C 0.66888 0.6775 0.03654 0.0
N752 N 0.59702 0.58628 0.0843 0.0
N753 N 0.70995 0.69127 0.95216 0.0
H754 H 0.68178 0.71978 0.09827 0.0
H755 H 0.70642 0.73414 0.03213 0.0
H756 H 0.71768 0.68446 0.91235 0.0
H757 H 0.72951 0.71611 0.96943 0.0
H758 H 0.58602 0.55914 0.07227 0.0
H759 H 0.59103 0.5896 0.12767 0.0
H760 H 0.57401 0.55903 0.98156 0.0
H761 H 0.60127 0.571 0.91813 0.0
C762 C 0.99208 0.60399 0.4584 0.0
C763 C 0.01495 0.64074 0.44029 0.0
C764 C 0.99975 0.66035 0.534 0.0
C765 C 0.9812 0.62391 0.55484 0.0
N766 N 0.96439 0.56164 0.53885 0.0
N767 N 0.04163 0.7044 0.46247 0.0
C768 C 0.97837 0.59596 0.51726 0.0
C769 C 0.0193 0.66912 0.47882 0.0
N770 N 0.98292 0.57619 0.41942 0.0
N771 N 0.99696 0.68621 0.56564 0.0
H772 H 0.05451 0.71181 0.42121 0.0
H773 H 0.04911 0.72624 0.49102 0.0
H774 H 0.98103 0.6799 0.60391 0.0
H775 H 1.00714 0.71279 0.55116 0.0
H776 H 0.96199 0.54976 0.42709 0.0
H777 H 0.99443 0.57963 0.37768 0.0
H778 H 0.96621 0.54101 0.51705 0.0
H779 H 0.95389 0.55483 0.58131 0.0
C780 C 0.35444 0.01256 0.97292 0.0
C781 C 0.38924 0.02497 0.94712 0.0
C782 C 0.40916 0.00861 0.03812 0.0
C783 C 0.37332 0.99213 0.06179 0.0
N784 N 0.31082 0.97651 0.04993 0.0
N785 N 0.44613 0.02545 0.94988 0.0
C786 C 0.34552 0.99333 0.02838 0.0
C787 C 0.41553 0.02033 0.97824 0.0
N788 N 0.33041 0.02012 0.94516 0.0
N789 N 0.43771 0.0142 0.073 0.0
H790 H 0.45141 0.0332 0.90555 0.0
H791 H 0.46422 0.01839 0.96845 0.0
H792 H 0.4348 0.00636 0.11717 0.0
H793 H 0.46472 0.02989 0.05966 0.0
H794 H 0.30573 0.01471 0.96355 0.0
H795 H 0.33662 0.03467 0.9054 0.0
H796 H 0.28861 0.97323 0.02548 0.0
H797 H 0.30383 0.96378 0.09134 0.0
C798 C 0.40291 0.40312 0.46952 0.0
C799 C 0.36865 0.37963 0.44347 0.0
C800 C 0.35448 0.33726 0.52773 0.0
C801 C 0.38747 0.36259 0.55593 0.0
N802 N 0.4401 0.42237 0.55725 0.0
N803 N 0.31017 0.32548 0.44947 0.0
C804 C 0.41077 0.39618 0.52764 0.0
C805 C 0.34388 0.34695 0.47317 0.0
N806 N 0.42864 0.432 0.43815 0.0
N807 N 0.33358 0.30386 0.55291 0.0
H808 H 0.30201 0.33183 0.40968 0.0
H809 H 0.28948 0.30287 0.47078 0.0
H810 H 0.34079 0.2963 0.59249 0.0
H811 H 0.31068 0.28283 0.53292 0.0
H812 H 0.45573 0.44712 0.45101 0.0
H813 H 0.42351 0.43926 0.39683 0.0
H814 H 0.45534 0.44912 0.54274 0.0
H815 H 0.44748 0.41797 0.59894 0.0
C816 C 0.97618 0.59738 0.97646 0.0
C817 C 0.99628 0.62812 0.93929 0.0
C818 C 0.03956 0.65906 0.02006 0.0
C819 C 0.01721 0.63006 0.05865 0.0
N820 N 0.96102 0.57419 0.07674 0.0
N821 N 0.04238 0.69122 0.92972 0.0
C822 C 0.98452 0.6 0.03784 0.0
C823 C 0.02694 0.65975 0.96192 0.0
N824 N 0.95008 0.56517 0.95294 0.0
N825 N 0.07254 0.68623 0.03919 0.0
H826 H 0.03234 0.69359 0.88875 0.0
H827 H 0.06256 0.716 0.94632 0.0
H828 H 0.08197 0.68749 0.08238 0.0
H829 H 0.09167 0.70594 0.01096 0.0
H830 H 0.93763 0.54095 0.9768 0.0
H831 H 0.94315 0.56155 0.9081 0.0
H832 H 0.93482 0.55426 0.06511 0.0
H833 H 0.9664 0.57423 0.12191 0.0
C834 C 0.40957 0.0257 0.4629 0.0
C835 C 0.37584 0.99577 0.445 0.0
C836 C 0.34932 0.99484 0.54202 0.0
C837 C 0.38381 0.02272 0.56182 0.0
N838 N 0.44772 0.06317 0.54304 0.0
N839 N 0.3146 0.94913 0.46797 0.0
C840 C 0.41413 0.03804 0.5226 0.0
C841 C 0.34606 0.97939 0.48484 0.0
N842 N 0.43738 0.0423 0.42275 0.0
N843 N 0.31923 0.98469 0.57652 0.0
H844 H 0.31023 0.93832 0.42523 0.0
H845 H 0.29362 0.93328 0.49733 0.0
H846 H 0.32025 0.9966 0.6174 0.0
H847 H 0.2928 0.96722 0.56237 0.0
H848 H 0.46055 0.06732 0.43002 0.0
H849 H 0.4368 0.03196 0.38054 0.0
H850 H 0.47173 0.07155 0.51956 0.0
H851 H 0.45224 0.07449 0.58522 0.0
C852 C 0.35361 0.3409 0.97201 0.0
C853 C 0.38005 0.37026 0.93797 0.0
C854 C 0.40087 0.40817 0.02673 0.0
C855 C 0.37166 0.38039 0.05953 0.0
N856 N 0.31644 0.32221 0.06064 0.0
N857 N 0.42367 0.4341 0.92976 0.0
C858 C 0.34695 0.34718 0.03148 0.0
C859 C 0.40205 0.40465 0.96436 0.0
N860 N 0.33567 0.30684 0.94828 0.0
N861 N 0.42866 0.43689 0.05548 0.0
H862 H 0.4245 0.43265 0.88357 0.0
H863 H 0.43782 0.46047 0.94628 0.0
H864 H 0.43026 0.43889 0.10164 0.0
H865 H 0.45218 0.45626 0.03408 0.0
H866 H 0.319 0.2837 0.97309 0.0
H867 H 0.3399 0.30134 0.90486 0.0
H868 H 0.2956 0.29928 0.04026 0.0
H869 H 0.3104 0.3261 0.10376 0.0
C870 C 1.00388 0.39979 0.54365 0.0
C871 C 0.99371 0.36627 0.57191 0.0
C872 C 0.00915 0.34466 0.48181 0.0
C873 C 0.01574 0.37672 0.45172 0.0
N874 N 0.00984 0.43029 0.45021 0.0
N875 N 0.97935 0.304 0.56448 0.0
C876 C 0.01051 0.40312 0.48158 0.0
C877 C 0.99426 0.33784 0.54006 0.0
N878 N 1.00808 0.42872 0.57623 0.0
N879 N 0.01825 0.32134 0.45574 0.0
H880 H 0.96712 0.29786 0.6062 0.0
H881 H 0.97578 0.28134 0.54107 0.0
H882 H 0.02991 0.32587 0.41371 0.0
H883 H 0.01751 0.2995 0.47797 0.0
H884 H 0.01877 0.45475 0.55867 0.0
H885 H 1.00429 0.42752 0.62214 0.0
H886 H 1.00293 0.44839 0.46905 0.0
H887 H 0.01194 0.43205 0.40406 0.0
C888 C 0.66344 0.02848 0.97812 0.0
C889 C 0.63195 0.01945 0.94467 0.0
C890 C 0.59478 0.99482 0.03413 0.0
C891 C 0.62566 0.99869 0.06551 0.0
N892 N 0.68806 0.0119 0.06079 0.0
N893 N 0.56663 0.98913 0.93817 0.0
C894 C 0.65971 0.01359 0.03575 0.0
C895 C 0.59727 1.00114 0.97185 0.0
N896 N 0.69694 0.05224 0.95565 0.0
N897 N 0.5637 0.98724 0.06377 0.0
H898 H 0.56738 0.99388 0.89261 0.0
H899 H 0.54059 0.97194 0.95456 0.0
H900 H 0.56104 0.98478 0.10973 0.0
H901 H 0.54188 0.9875 0.04326 0.0
H902 H 0.72075 0.06216 0.98037 0.0
H903 H 0.70031 0.06537 0.91502 0.0
H904 H 0.71231 0.01957 0.03835 0.0
H905 H 0.68581 0.99871 0.10076 0.0
C906 C 0.63923 0.67448 0.48999 0.0
C907 C 0.6262 0.64337 0.45327 0.0
C908 C 0.63208 0.60849 0.53479 0.0
C909 C 0.64481 0.63943 0.57224 0.0
N910 N 0.6614 0.702 0.58686 0.0
N911 N 0.6064 0.57999 0.44014 0.0
C912 C 0.64831 0.67242 0.55033 0.0
C913 C 0.62175 0.61022 0.47547 0.0
N914 N 0.6444 0.70633 0.46606 0.0
N915 N 0.63031 0.57749 0.55578 0.0
H916 H 0.60004 0.58046 0.39559 0.0
H917 H 0.59782 0.55382 0.4552 0.0
H918 H 0.63419 0.57368 0.60013 0.0
H919 H 0.62645 0.55584 0.52928 0.0
H920 H 0.65633 0.73106 0.4881 0.0
H921 H 0.63764 0.70854 0.42233 0.0
H922 H 0.66125 0.72576 0.57687 0.0
H923 H 0.67257 0.70293 0.62845 0.0
C924 C 0.03638 0.52918 0.31695 0.0
C925 C 0.02562 0.54356 0.26865 0.0
C926 C 0.00933 0.48724 0.21363 0.0
C927 C 0.02743 0.47758 0.2562 0.0
N928 N 0.06197 0.49231 0.34687 0.0
N929 N 1.00703 0.53607 0.16456 0.0
C930 C 0.04198 0.49938 0.3074 0.0
C931 C 0.01304 0.52238 0.21537 0.0
N932 N 0.03997 0.54277 0.37296 0.0
N933 N 0.98812 0.46275 0.17166 0.0
H934 H 0.01056 0.5618 0.1608 0.0
H935 H 1.00212 0.52297 0.12365 0.0
H936 H 0.98421 0.43663 0.17056 0.0
H937 H 0.97138 0.46699 0.14289 0.0
H938 H 0.04404 0.53074 0.4103 0.0
H939 H 0.03442 0.56313 0.38356 0.0
H940 H 0.0771 0.51003 0.38093 0.0
H941 H 0.06571 0.47011 0.34262 0.0
C942 C 0.50238 0.01197 0.78697 0.0
C943 C 0.49401 0.03536 0.75463 0.0
C944 C 0.54695 0.05264 0.69021 0.0
C945 C 0.55725 0.03144 0.72582 0.0
N946 N 0.53151 0.97586 0.78346 0.0
N947 N 0.5006 0.06738 0.66325 0.0
C948 C 0.53123 0.00664 0.76734 0.0
C949 C 0.51411 0.05268 0.70268 0.0
N950 N 0.48248 0.99422 0.83592 0.0
N951 N 0.56766 0.07178 0.64286 0.0
H952 H 0.47643 0.06744 0.67064 0.0
H953 H 0.5116 0.07699 0.62134 0.0
H954 H 0.58505 0.06488 0.62176 0.0
H955 H 0.56641 0.09333 0.62331 0.0
H956 H 0.4903 0.98058 0.86563 0.0
H957 H 0.45923 0.99484 0.84828 0.0
H958 H 0.51182 0.95591 0.81068 0.0
H959 H 0.54727 0.96707 0.76165 0.0
C960 C 0.50072 0.53979 0.19255 0.0
C961 C 0.52525 0.55635 0.24118 0.0
C962 C 0.4883 0.50054 0.29854 0.0
C963 C 0.4608 0.48717 0.25495 0.0
N964 N 0.43909 0.49786 0.16255 0.0
N965 N 0.53235 0.55453 0.34793 0.0
C966 C 0.46655 0.50787 0.20249 0.0
C967 C 0.5164 0.53725 0.29629 0.0
N968 N 0.50992 0.55328 0.13629 0.0
N969 N 0.48855 0.47806 0.34122 0.0
H970 H 0.54895 0.58246 0.35041 0.0
H971 H 0.52458 0.54182 0.3893 0.0
H972 H 0.47052 0.45032 0.33982 0.0
H973 H 0.50961 0.48624 0.37188 0.0
H974 H 0.4947 0.5396 0.09902 0.0
H975 H 0.53435 0.57592 0.12542 0.0
H976 H 0.44029 0.51413 0.12698 0.0
H977 H 0.41386 0.47485 0.16827 0.0
C978 C 0.97147 0.49664 0.69718 0.0
C979 C 0.97664 0.52008 0.74522 0.0
C980 C 0.98575 0.47897 0.81027 0.0
C981 C 0.9725 0.45216 0.76509 0.0
N982 N 0.94784 0.43477 0.66612 0.0
N983 N 0.98592 0.53164 0.85085 0.0
C984 C 0.964 0.46081 0.70859 0.0
C985 C 0.98319 0.51086 0.80284 0.0
N986 N 0.97592 0.5094 0.6405 0.0
N987 N 1.0026 0.47502 0.85876 0.0
H988 H 0.98486 0.55547 0.84763 0.0
H989 H 0.98657 0.52365 0.89442 0.0
H990 H 1.00797 0.45379 0.86207 0.0
H991 H 0.01533 0.49503 0.89102 0.0
H992 H 0.97486 0.4942 0.60345 0.0
H993 H 0.98618 0.53691 0.63224 0.0
H994 H 0.93813 0.43914 0.62625 0.0
H995 H 0.9411 0.40804 0.67337 0.0
C996 C 0.49409 0.99002 0.20714 0.0
C997 C 0.46581 0.97638 0.24969 0.0
C998 C 0.50784 0.97387 0.32249 0.0
C999 C 0.53661 0.98953 0.27986 0.0
N1000 N 0.55832 0.02963 0.19425 0.0
N1001 N 0.44616 0.95673 0.35002 0.0
C1002 C 0.5303 1.00305 0.22607 0.0
C1003 C 0.47298 0.96903 0.30819 0.0
N1004 N 0.48658 0.98903 0.1482 0.0
N1005 N 0.5137 0.9637 0.37694 0.0
H1006 H 0.41927 0.9476 0.33888 0.0
H1007 H 0.45041 0.95595 0.3954 0.0
H1008 H 0.53959 0.97299 0.39359 0.0
H1009 H 0.4931 0.94637 0.40573 0.0
H1010 H 0.50656 0.9979 0.11547 0.0
H1011 H 0.46025 0.97392 0.13212 0.0
H1012 H 0.55413 0.04111 0.15626 0.0
H1013 H 0.58464 0.04439 0.21086 0.0
C1014 C 0.53222 0.50467 0.81804 0.0
C1015 C 0.55421 0.52622 0.7706 0.0
C1016 C 0.50648 0.4852 0.70253 0.0
C1017 C 0.48975 0.45932 0.7485 0.0
N1018 N 0.49235 0.44366 0.85105 0.0
N1019 N 0.56326 0.53297 0.66396 0.0
C1020 C 0.50429 0.46875 0.80671 0.0
C1021 C 0.54172 0.51535 0.71154 0.0
N1022 N 0.53539 0.51958 0.87257 0.0
N1023 N 0.48758 0.48299 0.65258 0.0
H1024 H 0.58964 0.5545 0.66842 0.0
H1025 H 0.55586 0.5237 0.6205 0.0
H1026 H 0.4597 0.46535 0.65074 0.0
H1027 H 0.49799 0.50249 0.61897 0.0
H1028 H 0.51869 0.50522 0.9083 0.0
H1029 H 0.54947 0.54765 0.87728 0.0
H1030 H 0.50423 0.44927 0.89311 0.0
H1031 H 0.47353 0.41661 0.84343 0.0
C1032 C 0.19525 0.40746 0.20039 0.0
C1033 C 0.16246 0.38144 0.22794 0.0
C1034 C 0.19805 0.3613 0.28746 0.0
C1035 C 0.23096 0.39089 0.26562 0.0
N1036 N 0.25885 0.44873 0.2152 0.0
N1037 N 0.13431 0.3385 0.3086 0.0
C1038 C 0.22898 0.41595 0.22628 0.0
C1039 C 0.16415 0.35942 0.27433 0.0
N1040 N 0.19438 0.42366 0.14846 0.0
N1041 N 0.19907 0.33523 0.32141 0.0
H1042 H 0.10959 0.3376 0.3031 0.0
H1043 H 0.13518 0.32485 0.34647 0.0
H1044 H 0.22335 0.33695 0.33503 0.0
H1045 H 0.17584 0.31102 0.33295 0.0
H1046 H 0.21774 0.44072 0.12425 0.0
H1047 H 0.17024 0.41665 0.12613 0.0
H1048 H 0.25809 0.46891 0.18999 0.0
H1049 H 0.28275 0.4576 0.23861 0.0
C1050 C 0.8511 0.21005 0.72339 0.0
C1051 C 0.85554 0.22017 0.78437 0.0
C1052 C 0.79946 0.16321 0.80763 0.0
C1053 C 0.79191 0.15647 0.74598 0.0
N1054 N 0.80959 0.17439 0.64444 0.0
N1055 N 0.83296 0.20732 0.88477 0.0
C1056 C 0.8176 0.18007 0.70362 0.0
C1057 C 0.82946 0.19691 0.82661 0.0
N1058 N 0.87908 0.22875 0.68446 0.0
N1059 N 0.77845 0.13704 0.84799 0.0
H1060 H 0.85539 0.23093 0.90061 0.0
H1061 H 0.81271 0.19372 0.91644 0.0
H1062 H 0.75711 0.11175 0.83538 0.0
H1063 H 0.78434 0.13893 0.89318 0.0
H1064 H 0.87882 0.2207 0.64071 0.0
H1065 H 0.90401 0.25052 0.69739 0.0
H1066 H 0.8251 0.19299 0.61159 0.0
H1067 H 0.78604 0.15197 0.62842 0.0
C1068 C 0.65718 0.82093 0.22749 0.0
C1069 C 0.62675 0.78781 0.24673 0.0
C1070 C 0.60869 0.82266 0.311 0.0
C1071 C 0.63556 0.85576 0.28557 0.0
N1072 N 0.68109 0.88505 0.20877 0.0
N1073 N 0.56713 0.75979 0.29168 0.0
C1074 C 0.65893 0.8547 0.241 0.0
C1075 C 0.60058 0.78942 0.28394 0.0
N1076 N 0.68412 0.82024 0.19546 0.0
N1077 N 0.5913 0.82269 0.36206 0.0
H1078 H 0.55849 0.73656 0.26662 0.0
H1079 H 0.5464 0.76048 0.31546 0.0
H1080 H 0.59814 0.84638 0.38557 0.0
H1081 H 0.57341 0.79894 0.3846 0.0
H1082 H 0.70876 0.84351 0.18594 0.0
H1083 H 0.68259 0.79615 0.18144 0.0
H1084 H 0.69591 0.88479 0.17208 0.0
H1085 H 0.68195 0.90971 0.21465 0.0
C1086 C 0.81922 0.6049 0.69295 0.0
C1087 C 0.85166 0.62839 0.72366 0.0
C1088 C 0.81668 0.64846 0.78501 0.0
C1089 C 0.78365 0.62072 0.7601 0.0
N1090 N 0.75488 0.56546 0.70245 0.0
N1091 N 0.87966 0.66823 0.80776 0.0
C1092 C 0.7853 0.5969 0.71755 0.0
C1093 C 0.85015 0.64935 0.7719 0.0
N1094 N 0.8207 0.59034 0.63965 0.0
N1095 N 0.81613 0.67359 0.82202 0.0
H1096 H 0.90422 0.66883 0.8015 0.0
H1097 H 0.87873 0.68065 0.84706 0.0
H1098 H 0.79209 0.67242 0.83564 0.0
H1099 H 0.83964 0.69671 0.83616 0.0
H1100 H 0.79787 0.57537 0.61313 0.0
H1101 H 0.8452 0.59678 0.61897 0.0
H1102 H 0.75524 0.546 0.67478 0.0
H1103 H 0.73064 0.55639 0.7249 0.0
C1104 C 0.20414 0.8401 0.24167 0.0
C1105 C 0.23764 0.84006 0.24041 0.0
C1106 C 0.20314 0.77363 0.2512 0.0
C1107 C 0.17025 0.77401 0.26096 0.0
N1108 N 0.14164 0.81011 0.27631 0.0
N1109 N 0.26785 0.80589 0.2621 0.0
C1110 C 0.17139 0.80803 0.25923 0.0
C1111 C 0.23681 0.80662 0.25026 0.0
N1112 N 0.20318 0.87034 0.22404 0.0
N1113 N 0.20266 0.74204 0.23922 0.0
H1114 H 0.29298 0.82907 0.26464 0.0
H1115 H 0.26794 0.78257 0.27615 0.0
H1116 H 0.17889 0.71746 0.23628 0.0
H1117 H 0.22555 0.74103 0.2253 0.0
H1118 H 0.17909 0.87084 0.21869 0.0
H1119 H 0.22606 0.89368 0.20852 0.0
H1120 H 0.14199 0.83462 0.28136 0.0
H1121 H 0.11779 0.7877 0.29158 0.0
C1122 C 0.42407 0.22973 0.78818 0.0
C1123 C 0.39974 0.23089 0.74611 0.0
C1124 C 0.37069 0.16437 0.73679 0.0
C1125 C 0.39188 0.16336 0.78516 0.0
N1126 N 0.43114 0.19552 0.86747 0.0
N1127 N 0.34611 0.1978 0.68594 0.0
C1128 C 0.41607 0.1962 0.8142 0.0
C1129 C 0.37162 0.19766 0.72261 0.0
N1130 N 0.45583 0.26022 0.80168 0.0
N1131 N 0.35161 0.13457 0.70171 0.0
H1132 H 0.34731 0.22167 0.6714 0.0
H1133 H 0.32272 0.17418 0.67297 0.0
H1134 H 0.35139 0.11027 0.70819 0.0
H1135 H 0.33885 0.13509 0.66251 0.0
H1136 H 0.47561 0.26014 0.82895 0.0
H1137 H 0.46469 0.28413 0.7784 0.0
H1138 H 0.44666 0.21877 0.89275 0.0
H1139 H 0.42455 0.1714 0.88951 0.0
loop_
_geom_bond_atom_site_label_1
_geom_bond_atom_site_label_2
_geom_bond_distance
_geom_bond_site_symmetry_2
_ccdc_geom_bond_type
Co0 O2 2.143 1_655 S
Co0 O8 2.074 . S
Co0 O11 2.093 . S
Co0 O24 2.097 1_655 S
Co0 N41 2.151 . S
Co0 N49 2.214 . S
Co1 O2 2.160 . S
Co1 O7 2.058 . S
Co1 O17 2.057 . S
Co1 O32 2.037 . S
Co1 N36 2.145 . S
Co1 N57 2.257 . S
O2 Co0 2.143 1_455 S
O2 Co1 2.160 . S
C3 O4 1.278 . S
C3 O11 1.224 1_455 S
O4 C3 1.278 . S
C5 O6 1.245 . S
C5 O17 1.232 . S
O6 C5 1.245 . S
O7 Co1 2.058 . S
O7 C33 1.269 . S
O8 Co0 2.074 . S
O8 C33 1.257 1_655 S
H9 C34 0.930 . S
H10 C40 0.930 . S
O11 Co0 2.093 . S
O11 C3 1.224 1_655 S
H12 C44 0.929 . S
H13 C46 0.930 . S
H14 C47 0.930 . S
H15 C45 0.929 . S
H16 C48 0.928 . S
O17 Co1 2.057 . S
O17 C5 1.232 . S
H18 C37 0.929 . S
H19 C38 0.929 . S
H20 C50 0.931 . S
H21 C42 0.929 . S
H22 C51 0.930 . S
H23 C43 0.931 . S
O24 Co0 2.097 1_455 S
O24 C52 1.214 . S
H25 C53 0.929 . S
H26 C54 0.929 . S
H27 C55 0.930 . S
H28 C56 0.929 . S
H29 C58 0.930 . S
H30 C35 0.930 . S
H31 C39 0.930 . S
O32 Co1 2.037 . S
O32 C52 1.234 . S
C33 O7 1.269 . S
C33 O8 1.257 1_455 S
C34 H9 0.930 . S
C34 C37 1.388 . S
C34 C39 1.418 . S
C35 H30 0.930 . S
C35 C38 1.404 . S
C35 C39 1.353 . S
N36 Co1 2.145 . S
N36 C37 1.397 . S
N36 C38 1.334 . S
C37 H18 0.929 . S
C37 C34 1.388 . S
C37 N36 1.397 . S
C38 H19 0.929 . S
C38 C35 1.404 . S
C38 N36 1.334 . S
C39 H31 0.930 . S
C39 C34 1.418 . S
C39 C35 1.353 . S
C40 H10 0.930 . S
C40 N41 1.330 . S
C40 C42 1.446 . S
N41 Co0 2.151 . S
N41 C40 1.330 . S
N41 C45 1.418 . S
C42 H21 0.929 . S
C42 C40 1.446 . S
C42 C43 1.332 . S
C43 H23 0.931 . S
C43 C42 1.332 . S
C43 C44 1.267 . S
C44 H12 0.929 . S
C44 C43 1.267 . S
C44 C45 1.251 . S
C45 H15 0.929 . S
C45 N41 1.418 . S
C45 C44 1.251 . S
C46 H13 0.930 . S
C46 C48 1.406 . S
C46 C51 1.261 . S
C47 H14 0.930 . S
C47 N49 1.325 . S
C47 C50 1.357 . S
C48 H16 0.928 . S
C48 C46 1.406 . S
C48 N49 1.261 . S
N49 Co0 2.214 . S
N49 C47 1.325 . S
N49 C48 1.261 . S
C50 H20 0.931 . S
C50 C47 1.357 . S
C50 C51 1.312 . S
C51 H22 0.930 . S
C51 C46 1.261 . S
C51 C50 1.312 . S
C52 O24 1.214 . S
C52 O32 1.234 . S
C53 H25 0.929 . S
C53 C56 1.391 . S
C53 C58 1.391 . S
C54 H26 0.929 . S
C54 C55 1.390 . S
C54 N57 1.391 . S
C55 H27 0.930 . S
C55 C54 1.390 . S
C55 C56 1.392 . S
C56 H28 0.929 . S
C56 C53 1.391 . S
C56 C55 1.392 . S
N57 Co1 2.257 . S
N57 C54 1.391 . S
N57 C58 1.388 . S
C58 H29 0.930 . S
C58 C53 1.391 . S
C58 N57 1.388 . S
Co59 O61 2.143 1_565 S
Co59 O67 2.074 . S
Co59 O70 2.093 . S
Co59 O83 2.097 1_565 S
Co59 N100 2.151 . S
Co59 N108 2.214 . S
Co60 O61 2.160 . S
Co60 O66 2.058 . S
Co60 O76 2.057 . S
Co60 O91 2.037 . S
Co60 N95 2.145 . S
Co60 N116 2.257 . S
O61 Co59 2.143 1_545 S
O61 Co60 2.160 . S
C62 O63 1.278 . S
C62 O70 1.224 1_545 S
O63 C62 1.278 . S
C64 O65 1.245 . S
C64 O76 1.232 . S
O65 C64 1.245 . S
O66 Co60 2.058 . S
O66 C92 1.269 . S
O67 Co59 2.074 . S
O67 C92 1.257 1_565 S
H68 C93 0.930 . S
H69 C99 0.930 . S
O70 Co59 2.093 . S
O70 C62 1.224 1_565 S
H71 C103 0.929 . S
H72 C105 0.930 . S
H73 C106 0.930 . S
H74 C104 0.929 . S
H75 C107 0.928 . S
O76 Co60 2.057 . S
O76 C64 1.232 . S
H77 C96 0.929 . S
H78 C97 0.929 . S
H79 C109 0.931 . S
H80 C101 0.929 . S
H81 C110 0.930 . S
H82 C102 0.931 . S
O83 Co59 2.097 1_545 S
O83 C111 1.214 . S
H84 C112 0.929 . S
H85 C113 0.929 . S
H86 C114 0.930 . S
H87 C115 0.929 . S
H88 C117 0.930 . S
H89 C94 0.930 . S
H90 C98 0.930 . S
O91 Co60 2.037 . S
O91 C111 1.234 . S
C92 O66 1.269 . S
C92 O67 1.257 1_545 S
C93 H68 0.930 . S
C93 C96 1.388 . S
C93 C98 1.418 . S
C94 H89 0.930 . S
C94 C97 1.404 . S
C94 C98 1.353 . S
N95 Co60 2.145 . S
N95 C96 1.397 . S
N95 C97 1.334 . S
C96 H77 0.929 . S
C96 C93 1.388 . S
C96 N95 1.397 . S
C97 H78 0.929 . S
C97 C94 1.404 . S
C97 N95 1.334 . S
C98 H90 0.930 . S
C98 C93 1.418 . S
C98 C94 1.353 . S
C99 H69 0.930 . S
C99 N100 1.330 . S
C99 C101 1.446 . S
N100 Co59 2.151 . S
N100 C99 1.330 . S
N100 C104 1.418 . S
C101 H80 0.929 . S
C101 C99 1.446 . S
C101 C102 1.332 . S
C102 H82 0.931 . S
C102 C101 1.332 . S
C102 C103 1.267 . S
C103 H71 0.929 . S
C103 C102 1.267 . S
C103 C104 1.251 . S
C104 H74 0.929 . S
C104 N100 1.418 . S
C104 C103 1.251 . S
C105 H72 0.930 . S
C105 C107 1.406 . S
C105 C110 1.261 . S
C106 H73 0.930 . S
C106 N108 1.325 . S
C106 C109 1.357 . S
C107 H75 0.928 . S
C107 C105 1.406 . S
C107 N108 1.261 . S
N108 Co59 2.214 . S
N108 C106 1.325 . S
N108 C107 1.261 . S
C109 H79 0.931 . S
C109 C106 1.357 . S
C109 C110 1.312 . S
C110 H81 0.930 . S
C110 C105 1.261 . S
C110 C109 1.312 . S
C111 O83 1.214 . S
C111 O91 1.234 . S
C112 H84 0.929 . S
C112 C115 1.391 . S
C112 C117 1.391 . S
C113 H85 0.929 . S
C113 C114 1.390 . S
C113 N116 1.391 . S
C114 H86 0.930 . S
C114 C113 1.390 . S
C114 C115 1.392 . S
C115 H87 0.929 . S
C115 C112 1.391 . S
C115 C114 1.392 . S
N116 Co60 2.257 . S
N116 C113 1.391 . S
N116 C117 1.388 . S
C117 H88 0.930 . S
C117 C112 1.391 . S
C117 N116 1.388 . S
Co118 O120 2.143 . S
Co118 O126 2.074 . S
Co118 O129 2.093 . S
Co118 O142 2.097 . S
Co118 N159 2.151 . S
Co118 N167 2.214 . S
Co119 O120 2.160 . S
Co119 O125 2.058 . S
Co119 O135 2.057 . S
Co119 O150 2.037 . S
Co119 N154 2.145 . S
Co119 N175 2.257 . S
O120 Co118 2.143 . S
O120 Co119 2.160 . S
C121 O122 1.278 . S
C121 O129 1.224 . S
O122 C121 1.278 . S
C123 O124 1.245 . S
C123 O135 1.232 . S
O124 C123 1.245 . S
O125 Co119 2.058 . S
O125 C151 1.269 . S
O126 Co118 2.074 . S
O126 C151 1.257 . S
H127 C152 0.930 . S
H128 C158 0.930 . S
O129 Co118 2.093 . S
O129 C121 1.224 . S
H130 C162 0.929 . S
H131 C164 0.930 . S
H132 C165 0.930 . S
H133 C163 0.929 . S
H134 C166 0.928 . S
O135 Co119 2.057 . S
O135 C123 1.232 . S
H136 C155 0.929 . S
H137 C156 0.929 . S
H138 C168 0.931 . S
H139 C160 0.929 . S
H140 C169 0.930 . S
H141 C161 0.931 . S
O142 Co118 2.097 . S
O142 C170 1.214 . S
H143 C171 0.929 . S
H144 C172 0.929 . S
H145 C173 0.930 . S
H146 C174 0.929 . S
H147 C176 0.930 . S
H148 C153 0.930 . S
H149 C157 0.930 . S
O150 Co119 2.037 . S
O150 C170 1.234 . S
C151 O125 1.269 . S
C151 O126 1.257 . S
C152 H127 0.930 . S
C152 C155 1.388 . S
C152 C157 1.418 . S
C153 H148 0.930 . S
C153 C156 1.404 . S
C153 C157 1.353 . S
N154 Co119 2.145 . S
N154 C155 1.397 . S
N154 C156 1.334 . S
C155 H136 0.929 . S
C155 C152 1.388 . S
C155 N154 1.397 . S
C156 H137 0.929 . S
C156 C153 1.404 . S
C156 N154 1.334 . S
C157 H149 0.930 . S
C157 C152 1.418 . S
C157 C153 1.353 . S
C158 H128 0.930 . S
C158 N159 1.330 . S
C158 C160 1.446 . S
N159 Co118 2.151 . S
N159 C158 1.330 . S
N159 C163 1.418 . S
C160 H139 0.929 . S
C160 C158 1.446 . S
C160 C161 1.332 . S
C161 H141 0.931 . S
C161 C160 1.332 . S
C161 C162 1.267 . S
C162 H130 0.929 . S
C162 C161 1.267 . S
C162 C163 1.251 . S
C163 H133 0.929 . S
C163 N159 1.418 . S
C163 C162 1.251 . S
C164 H131 0.930 . S
C164 C166 1.406 . S
C164 C169 1.261 . S
C165 H132 0.930 . S
C165 N167 1.325 . S
C165 C168 1.357 . S
C166 H134 0.928 . S
C166 C164 1.406 . S
C166 N167 1.261 . S
N167 Co118 2.214 . S
N167 C165 1.325 . S
N167 C166 1.261 . S
C168 H138 0.931 . S
C168 C165 1.357 . S
C168 C169 1.312 . S
C169 H140 0.930 . S
C169 C164 1.261 . S
C169 C168 1.312 . S
C170 O142 1.214 . S
C170 O150 1.234 . S
C171 H143 0.929 . S
C171 C174 1.391 . S
C171 C176 1.391 . S
C172 H144 0.929 . S
C172 C173 1.390 . S
C172 N175 1.391 . S
C173 H145 0.930 . S
C173 C172 1.390 . S
C173 C174 1.392 . S
C174 H146 0.929 . S
C174 C171 1.391 . S
C174 C173 1.392 . S
N175 Co119 2.257 . S
N175 C172 1.391 . S
N175 C176 1.388 . S
C176 H147 0.930 . S
C176 C171 1.391 . S
C176 N175 1.388 . S
Co177 O179 2.143 1_455 S
Co177 O185 2.074 . S
Co177 O188 2.093 . S
Co177 O201 2.097 1_455 S
Co177 N218 2.151 . S
Co177 N226 2.214 . S
Co178 O179 2.160 . S
Co178 O184 2.058 . S
Co178 O194 2.057 . S
Co178 O209 2.037 . S
Co178 N213 2.145 . S
Co178 N234 2.257 . S
O179 Co177 2.143 1_655 S
O179 Co178 2.160 . S
C180 O181 1.278 . S
C180 O188 1.224 1_655 S
O181 C180 1.278 . S
C182 O183 1.245 . S
C182 O194 1.232 . S
O183 C182 1.245 . S
O184 Co178 2.058 . S
O184 C210 1.269 . S
O185 Co177 2.074 . S
O185 C210 1.257 1_455 S
H186 C211 0.930 . S
H187 C217 0.930 . S
O188 Co177 2.093 . S
O188 C180 1.224 1_455 S
H189 C221 0.929 . S
H190 C223 0.930 . S
H191 C224 0.930 . S
H192 C222 0.929 . S
H193 C225 0.928 . S
O194 Co178 2.057 . S
O194 C182 1.232 . S
H195 C214 0.929 . S
H196 C215 0.929 . S
H197 C227 0.931 . S
H198 C219 0.929 . S
H199 C228 0.930 . S
H200 C220 0.931 . S
O201 Co177 2.097 1_655 S
O201 C229 1.214 . S
H202 C230 0.929 . S
H203 C231 0.929 . S
H204 C232 0.930 . S
H205 C233 0.929 . S
H206 C235 0.930 . S
H207 C212 0.930 . S
H208 C216 0.930 . S
O209 Co178 2.037 . S
O209 C229 1.234 . S
C210 O184 1.269 . S
C210 O185 1.257 1_655 S
C211 H186 0.930 . S
C211 C214 1.388 . S
C211 C216 1.418 . S
C212 H207 0.930 . S
C212 C215 1.404 . S
C212 C216 1.353 . S
N213 Co178 2.145 . S
N213 C214 1.397 . S
N213 C215 1.334 . S
C214 H195 0.929 . S
C214 C211 1.388 . S
C214 N213 1.397 . S
C215 H196 0.929 . S
C215 C212 1.404 . S
C215 N213 1.334 . S
C216 H208 0.930 . S
C216 C211 1.418 . S
C216 C212 1.353 . S
C217 H187 0.930 . S
C217 N218 1.330 . S
C217 C219 1.446 . S
N218 Co177 2.151 . S
N218 C217 1.330 . S
N218 C222 1.418 . S
C219 H198 0.929 . S
C219 C217 1.446 . S
C219 C220 1.332 . S
C220 H200 0.931 . S
C220 C219 1.332 . S
C220 C221 1.267 . S
C221 H189 0.929 . S
C221 C220 1.267 . S
C221 C222 1.251 . S
C222 H192 0.929 . S
C222 N218 1.418 . S
C222 C221 1.251 . S
C223 H190 0.930 . S
C223 C225 1.406 . S
C223 C228 1.261 . S
C224 H191 0.930 . S
C224 N226 1.325 . S
C224 C227 1.357 . S
C225 H193 0.928 . S
C225 C223 1.406 . S
C225 N226 1.261 . S
N226 Co177 2.214 . S
N226 C224 1.325 . S
N226 C225 1.261 . S
C227 H197 0.931 . S
C227 C224 1.357 . S
C227 C228 1.312 . S
C228 H199 0.930 . S
C228 C223 1.261 . S
C228 C227 1.312 . S
C229 O201 1.214 . S
C229 O209 1.234 . S
C230 H202 0.929 . S
C230 C233 1.391 . S
C230 C235 1.391 . S
C231 H203 0.929 . S
C231 C232 1.390 . S
C231 N234 1.391 . S
C232 H204 0.930 . S
C232 C231 1.390 . S
C232 C233 1.392 . S
C233 H205 0.929 . S
C233 C230 1.391 . S
C233 C232 1.392 . S
N234 Co178 2.257 . S
N234 C231 1.391 . S
N234 C235 1.388 . S
C235 H206 0.930 . S
C235 C230 1.391 . S
C235 N234 1.388 . S
Co236 O238 2.143 1_545 S
Co236 O244 2.074 . S
Co236 O247 2.093 . S
Co236 O260 2.097 1_545 S
Co236 N277 2.151 . S
Co236 N285 2.214 . S
Co237 O238 2.160 . S
Co237 O243 2.058 . S
Co237 O253 2.057 . S
Co237 O268 2.037 . S
Co237 N272 2.145 . S
Co237 N293 2.257 . S
O238 Co236 2.143 1_565 S
O238 Co237 2.160 . S
C239 O240 1.278 . S
C239 O247 1.224 1_565 S
O240 C239 1.278 . S
C241 O242 1.245 . S
C241 O253 1.232 . S
O242 C241 1.245 . S
O243 Co237 2.058 . S
O243 C269 1.269 . S
O244 Co236 2.074 . S
O244 C269 1.257 1_545 S
H245 C270 0.930 . S
H246 C276 0.930 . S
O247 Co236 2.093 . S
O247 C239 1.224 1_545 S
H248 C280 0.929 . S
H249 C282 0.930 . S
H250 C283 0.930 . S
H251 C281 0.929 . S
H252 C284 0.928 . S
O253 Co237 2.057 . S
O253 C241 1.232 . S
H254 C273 0.929 . S
H255 C274 0.929 . S
H256 C286 0.931 . S
H257 C278 0.929 . S
H258 C287 0.930 . S
H259 C279 0.931 . S
O260 Co236 2.097 1_565 S
O260 C288 1.214 . S
H261 C289 0.929 . S
H262 C290 0.929 . S
H263 C291 0.930 . S
H264 C292 0.929 . S
H265 C294 0.930 . S
H266 C271 0.930 . S
H267 C275 0.930 . S
O268 Co237 2.037 . S
O268 C288 1.234 . S
C269 O243 1.269 . S
C269 O244 1.257 1_565 S
C270 H245 0.930 . S
C270 C273 1.388 . S
C270 C275 1.418 . S
C271 H266 0.930 . S
C271 C274 1.404 . S
C271 C275 1.353 . S
N272 Co237 2.145 . S
N272 C273 1.397 . S
N272 C274 1.334 . S
C273 H254 0.929 . S
C273 C270 1.388 . S
C273 N272 1.397 . S
C274 H255 0.929 . S
C274 C271 1.404 . S
C274 N272 1.334 . S
C275 H267 0.930 . S
C275 C270 1.418 . S
C275 C271 1.353 . S
C276 H246 0.930 . S
C276 N277 1.330 . S
C276 C278 1.446 . S
N277 Co236 2.151 . S
N277 C276 1.330 . S
N277 C281 1.418 . S
C278 H257 0.929 . S
C278 C276 1.446 . S
C278 C279 1.332 . S
C279 H259 0.931 . S
C279 C278 1.332 . S
C279 C280 1.267 . S
C280 H248 0.929 . S
C280 C279 1.267 . S
C280 C281 1.251 . S
C281 H251 0.929 . S
C281 N277 1.418 . S
C281 C280 1.251 . S
C282 H249 0.930 . S
C282 C284 1.406 . S
C282 C287 1.261 . S
C283 H250 0.930 . S
C283 N285 1.325 . S
C283 C286 1.357 . S
C284 H252 0.928 . S
C284 C282 1.406 . S
C284 N285 1.261 . S
N285 Co236 2.214 . S
N285 C283 1.325 . S
N285 C284 1.261 . S
C286 H256 0.931 . S
C286 C283 1.357 . S
C286 C287 1.312 . S
C287 H258 0.930 . S
C287 C282 1.261 . S
C287 C286 1.312 . S
C288 O260 1.214 . S
C288 O268 1.234 . S
C289 H261 0.929 . S
C289 C292 1.391 . S
C289 C294 1.391 . S
C290 H262 0.929 . S
C290 C291 1.390 . S
C290 N293 1.391 . S
C291 H263 0.930 . S
C291 C290 1.390 . S
C291 C292 1.392 . S
C292 H264 0.929 . S
C292 C289 1.391 . S
C292 C291 1.392 . S
N293 Co237 2.257 . S
N293 C290 1.391 . S
N293 C294 1.388 . S
C294 H265 0.930 . S
C294 C289 1.391 . S
C294 N293 1.388 . S
Co295 O297 2.143 . S
Co295 O303 2.074 . S
Co295 O306 2.093 . S
Co295 O319 2.097 . S
Co295 N336 2.151 . S
Co295 N344 2.214 . S
Co296 O297 2.160 . S
Co296 O302 2.058 . S
Co296 O312 2.057 . S
Co296 O327 2.037 . S
Co296 N331 2.145 . S
Co296 N352 2.257 . S
O297 Co295 2.143 . S
O297 Co296 2.160 . S
C298 O299 1.278 . S
C298 O306 1.224 . S
O299 C298 1.278 . S
C300 O301 1.245 . S
C300 O312 1.232 . S
O301 C300 1.245 . S
O302 Co296 2.058 . S
O302 C328 1.269 . S
O303 Co295 2.074 . S
O303 C328 1.257 . S
H304 C329 0.930 . S
H305 C335 0.930 . S
O306 Co295 2.093 . S
O306 C298 1.224 . S
H307 C339 0.929 . S
H308 C341 0.930 . S
H309 C342 0.930 . S
H310 C340 0.929 . S
H311 C343 0.928 . S
O312 Co296 2.057 . S
O312 C300 1.232 . S
H313 C332 0.929 . S
H314 C333 0.929 . S
H315 C345 0.931 . S
H316 C337 0.929 . S
H317 C346 0.930 . S
H318 C338 0.931 . S
O319 Co295 2.097 . S
O319 C347 1.214 . S
H320 C348 0.929 . S
H321 C349 0.929 . S
H322 C350 0.930 . S
H323 C351 0.929 . S
H324 C353 0.930 . S
H325 C330 0.930 . S
H326 C334 0.930 . S
O327 Co296 2.037 . S
O327 C347 1.234 . S
C328 O302 1.269 . S
C328 O303 1.257 . S
C329 H304 0.930 . S
C329 C332 1.388 . S
C329 C334 1.418 . S
C330 H325 0.930 . S
C330 C333 1.404 . S
C330 C334 1.353 . S
N331 Co296 2.145 . S
N331 C332 1.397 . S
N331 C333 1.334 . S
C332 H313 0.929 . S
C332 C329 1.388 . S
C332 N331 1.397 . S
C333 H314 0.929 . S
C333 C330 1.404 . S
C333 N331 1.334 . S
C334 H326 0.930 . S
C334 C329 1.418 . S
C334 C330 1.353 . S
C335 H305 0.930 . S
C335 N336 1.330 . S
C335 C337 1.446 . S
N336 Co295 2.151 . S
N336 C335 1.330 . S
N336 C340 1.418 . S
C337 H316 0.929 . S
C337 C335 1.446 . S
C337 C338 1.332 . S
C338 H318 0.931 . S
C338 C337 1.332 . S
C338 C339 1.267 . S
C339 H307 0.929 . S
C339 C338 1.267 . S
C339 C340 1.251 . S
C340 H310 0.929 . S
C340 N336 1.418 . S
C340 C339 1.251 . S
C341 H308 0.930 . S
C341 C343 1.406 . S
C341 C346 1.261 . S
C342 H309 0.930 . S
C342 N344 1.325 . S
C342 C345 1.357 . S
C343 H311 0.928 . S
C343 C341 1.406 . S
C343 N344 1.261 . S
N344 Co295 2.214 . S
N344 C342 1.325 . S
N344 C343 1.261 . S
C345 H315 0.931 . S
C345 C342 1.357 . S
C345 C346 1.312 . S
C346 H317 0.930 . S
C346 C341 1.261 . S
C346 C345 1.312 . S
C347 O319 1.214 . S
C347 O327 1.234 . S
C348 H320 0.929 . S
C348 C351 1.391 . S
C348 C353 1.391 . S
C349 H321 0.929 . S
C349 C350 1.390 . S
C349 N352 1.391 . S
C350 H322 0.930 . S
C350 C349 1.390 . S
C350 C351 1.392 . S
C351 H323 0.929 . S
C351 C348 1.391 . S
C351 C350 1.392 . S
N352 Co296 2.257 . S
N352 C349 1.391 . S
N352 C353 1.388 . S
C353 H324 0.930 . S
C353 C348 1.391 . S
C353 N352 1.388 . S
Co354 O356 2.143 1_545 S
Co354 O362 2.074 . S
Co354 O365 2.093 . S
Co354 O378 2.097 1_545 S
Co354 N395 2.151 . S
Co354 N403 2.214 . S
Co355 O356 2.160 . S
Co355 O361 2.058 . S
Co355 O371 2.057 . S
Co355 O386 2.037 . S
Co355 N390 2.145 . S
Co355 N411 2.257 . S
O356 Co354 2.143 1_565 S
O356 Co355 2.160 . S
C357 O358 1.278 . S
C357 O365 1.224 1_565 S
O358 C357 1.278 . S
C359 O360 1.245 . S
C359 O371 1.232 . S
O360 C359 1.245 . S
O361 Co355 2.058 . S
O361 C387 1.269 . S
O362 Co354 2.074 . S
O362 C387 1.257 1_545 S
H363 C388 0.930 . S
H364 C394 0.930 . S
O365 Co354 2.093 . S
O365 C357 1.224 1_545 S
H366 C398 0.929 . S
H367 C400 0.930 . S
H368 C401 0.930 . S
H369 C399 0.929 . S
H370 C402 0.928 . S
O371 Co355 2.057 . S
O371 C359 1.232 . S
H372 C391 0.929 . S
H373 C392 0.929 . S
H374 C404 0.931 . S
H375 C396 0.929 . S
H376 C405 0.930 . S
H377 C397 0.931 . S
O378 Co354 2.097 1_565 S
O378 C406 1.214 . S
H379 C407 0.929 . S
H380 C408 0.929 . S
H381 C409 0.930 . S
H382 C410 0.929 . S
H383 C412 0.930 . S
H384 C389 0.930 . S
H385 C393 0.930 . S
O386 Co355 2.037 . S
O386 C406 1.234 . S
C387 O361 1.269 . S
C387 O362 1.257 1_565 S
C388 H363 0.930 . S
C388 C391 1.388 . S
C388 C393 1.418 . S
C389 H384 0.930 . S
C389 C392 1.404 . S
C389 C393 1.353 . S
N390 Co355 2.145 . S
N390 C391 1.397 . S
N390 C392 1.334 . S
C391 H372 0.929 . S
C391 C388 1.388 . S
C391 N390 1.397 . S
C392 H373 0.929 . S
C392 C389 1.404 . S
C392 N390 1.334 . S
C393 H385 0.930 . S
C393 C388 1.418 . S
C393 C389 1.353 . S
C394 H364 0.930 . S
C394 N395 1.330 . S
C394 C396 1.446 . S
N395 Co354 2.151 . S
N395 C394 1.330 . S
N395 C399 1.418 . S
C396 H375 0.929 . S
C396 C394 1.446 . S
C396 C397 1.332 . S
C397 H377 0.931 . S
C397 C396 1.332 . S
C397 C398 1.267 . S
C398 H366 0.929 . S
C398 C397 1.267 . S
C398 C399 1.251 . S
C399 H369 0.929 . S
C399 N395 1.418 . S
C399 C398 1.251 . S
C400 H367 0.930 . S
C400 C402 1.406 . S
C400 C405 1.261 . S
C401 H368 0.930 . S
C401 N403 1.325 . S
C401 C404 1.357 . S
C402 H370 0.928 . S
C402 C400 1.406 . S
C402 N403 1.261 . S
N403 Co354 2.214 . S
N403 C401 1.325 . S
N403 C402 1.261 . S
C404 H374 0.931 . S
C404 C401 1.357 . S
C404 C405 1.312 . S
C405 H376 0.930 . S
C405 C400 1.261 . S
C405 C404 1.312 . S
C406 O378 1.214 . S
C406 O386 1.234 . S
C407 H379 0.929 . S
C407 C410 1.391 . S
C407 C412 1.391 . S
C408 H380 0.929 . S
C408 C409 1.390 . S
C408 N411 1.391 . S
C409 H381 0.930 . S
C409 C408 1.390 . S
C409 C410 1.392 . S
C410 H382 0.929 . S
C410 C407 1.391 . S
C410 C409 1.392 . S
N411 Co355 2.257 . S
N411 C408 1.391 . S
N411 C412 1.388 . S
C412 H383 0.930 . S
C412 C407 1.391 . S
C412 N411 1.388 . S
Co413 O415 2.143 . S
Co413 O421 2.074 . S
Co413 O424 2.093 . S
Co413 O437 2.097 . S
Co413 N454 2.151 . S
Co413 N462 2.214 . S
Co414 O415 2.160 . S
Co414 O420 2.058 . S
Co414 O430 2.057 . S
Co414 O445 2.037 . S
Co414 N449 2.145 . S
Co414 N470 2.257 . S
O415 Co413 2.143 . S
O415 Co414 2.160 . S
C416 O417 1.278 . S
C416 O424 1.224 . S
O417 C416 1.278 . S
C418 O419 1.245 . S
C418 O430 1.232 . S
O419 C418 1.245 . S
O420 Co414 2.058 . S
O420 C446 1.269 . S
O421 Co413 2.074 . S
O421 C446 1.257 . S
H422 C447 0.930 . S
H423 C453 0.930 . S
O424 Co413 2.093 . S
O424 C416 1.224 . S
H425 C457 0.929 . S
H426 C459 0.930 . S
H427 C460 0.930 . S
H428 C458 0.929 . S
H429 C461 0.928 . S
O430 Co414 2.057 . S
O430 C418 1.232 . S
H431 C450 0.929 . S
H432 C451 0.929 . S
H433 C463 0.931 . S
H434 C455 0.929 . S
H435 C464 0.930 . S
H436 C456 0.931 . S
O437 Co413 2.097 . S
O437 C465 1.214 . S
H438 C466 0.929 . S
H439 C467 0.929 . S
H440 C468 0.930 . S
H441 C469 0.929 . S
H442 C471 0.930 . S
H443 C448 0.930 . S
H444 C452 0.930 . S
O445 Co414 2.037 . S
O445 C465 1.234 . S
C446 O420 1.269 . S
C446 O421 1.257 . S
C447 H422 0.930 . S
C447 C450 1.388 . S
C447 C452 1.418 . S
C448 H443 0.930 . S
C448 C451 1.404 . S
C448 C452 1.353 . S
N449 Co414 2.145 . S
N449 C450 1.397 . S
N449 C451 1.334 . S
C450 H431 0.929 . S
C450 C447 1.388 . S
C450 N449 1.397 . S
C451 H432 0.929 . S
C451 C448 1.404 . S
C451 N449 1.334 . S
C452 H444 0.930 . S
C452 C447 1.418 . S
C452 C448 1.353 . S
C453 H423 0.930 . S
C453 N454 1.330 . S
C453 C455 1.446 . S
N454 Co413 2.151 . S
N454 C453 1.330 . S
N454 C458 1.418 . S
C455 H434 0.929 . S
C455 C453 1.446 . S
C455 C456 1.332 . S
C456 H436 0.931 . S
C456 C455 1.332 . S
C456 C457 1.267 . S
C457 H425 0.929 . S
C457 C456 1.267 . S
C457 C458 1.251 . S
C458 H428 0.929 . S
C458 N454 1.418 . S
C458 C457 1.251 . S
C459 H426 0.930 . S
C459 C461 1.406 . S
C459 C464 1.261 . S
C460 H427 0.930 . S
C460 N462 1.325 . S
C460 C463 1.357 . S
C461 H429 0.928 . S
C461 C459 1.406 . S
C461 N462 1.261 . S
N462 Co413 2.214 . S
N462 C460 1.325 . S
N462 C461 1.261 . S
C463 H433 0.931 . S
C463 C460 1.357 . S
C463 C464 1.312 . S
C464 H435 0.930 . S
C464 C459 1.261 . S
C464 C463 1.312 . S
C465 O437 1.214 . S
C465 O445 1.234 . S
C466 H438 0.929 . S
C466 C469 1.391 . S
C466 C471 1.391 . S
C467 H439 0.929 . S
C467 C468 1.390 . S
C467 N470 1.391 . S
C468 H440 0.930 . S
C468 C467 1.390 . S
C468 C469 1.392 . S
C469 H441 0.929 . S
C469 C466 1.391 . S
C469 C468 1.392 . S
N470 Co414 2.257 . S
N470 C467 1.391 . S
N470 C471 1.388 . S
C471 H442 0.930 . S
C471 C466 1.391 . S
C471 N470 1.388 . S
Co472 O474 2.143 1_655 S
Co472 O480 2.074 . S
Co472 O483 2.093 . S
Co472 O496 2.097 1_655 S
Co472 N513 2.151 . S
Co472 N521 2.214 . S
Co473 O474 2.160 . S
Co473 O479 2.058 . S
Co473 O489 2.057 . S
Co473 O504 2.037 . S
Co473 N508 2.145 . S
Co473 N529 2.257 . S
O474 Co472 2.143 1_455 S
O474 Co473 2.160 . S
C475 O476 1.278 . S
C475 O483 1.224 1_455 S
O476 C475 1.278 . S
C477 O478 1.245 . S
C477 O489 1.232 . S
O478 C477 1.245 . S
O479 Co473 2.058 . S
O479 C505 1.269 . S
O480 Co472 2.074 . S
O480 C505 1.257 1_655 S
H481 C506 0.930 . S
H482 C512 0.930 . S
O483 Co472 2.093 . S
O483 C475 1.224 1_655 S
H484 C516 0.929 . S
H485 C518 0.930 . S
H486 C519 0.930 . S
H487 C517 0.929 . S
H488 C520 0.928 . S
O489 Co473 2.057 . S
O489 C477 1.232 . S
H490 C509 0.929 . S
H491 C510 0.929 . S
H492 C522 0.931 . S
H493 C514 0.929 . S
H494 C523 0.930 . S
H495 C515 0.931 . S
O496 Co472 2.097 1_455 S
O496 C524 1.214 . S
H497 C525 0.929 . S
H498 C526 0.929 . S
H499 C527 0.930 . S
H500 C528 0.929 . S
H501 C530 0.930 . S
H502 C507 0.930 . S
H503 C511 0.930 . S
O504 Co473 2.037 . S
O504 C524 1.234 . S
C505 O479 1.269 . S
C505 O480 1.257 1_455 S
C506 H481 0.930 . S
C506 C509 1.388 . S
C506 C511 1.418 . S
C507 H502 0.930 . S
C507 C510 1.404 . S
C507 C511 1.353 . S
N508 Co473 2.145 . S
N508 C509 1.397 . S
N508 C510 1.334 . S
C509 H490 0.929 . S
C509 C506 1.388 . S
C509 N508 1.397 . S
C510 H491 0.929 . S
C510 C507 1.404 . S
C510 N508 1.334 . S
C511 H503 0.930 . S
C511 C506 1.418 . S
C511 C507 1.353 . S
C512 H482 0.930 . S
C512 N513 1.330 . S
C512 C514 1.446 . S
N513 Co472 2.151 . S
N513 C512 1.330 . S
N513 C517 1.418 . S
C514 H493 0.929 . S
C514 C512 1.446 . S
C514 C515 1.332 . S
C515 H495 0.931 . S
C515 C514 1.332 . S
C515 C516 1.267 . S
C516 H484 0.929 . S
C516 C515 1.267 . S
C516 C517 1.251 . S
C517 H487 0.929 . S
C517 N513 1.418 . S
C517 C516 1.251 . S
C518 H485 0.930 . S
C518 C520 1.406 . S
C518 C523 1.261 . S
C519 H486 0.930 . S
C519 N521 1.325 . S
C519 C522 1.357 . S
C520 H488 0.928 . S
C520 C518 1.406 . S
C520 N521 1.261 . S
N521 Co472 2.214 . S
N521 C519 1.325 . S
N521 C520 1.261 . S
C522 H492 0.931 . S
C522 C519 1.357 . S
C522 C523 1.312 . S
C523 H494 0.930 . S
C523 C518 1.261 . S
C523 C522 1.312 . S
C524 O496 1.214 . S
C524 O504 1.234 . S
C525 H497 0.929 . S
C525 C528 1.391 . S
C525 C530 1.391 . S
C526 H498 0.929 . S
C526 C527 1.390 . S
C526 N529 1.391 . S
C527 H499 0.930 . S
C527 C526 1.390 . S
C527 C528 1.392 . S
C528 H500 0.929 . S
C528 C525 1.391 . S
C528 C527 1.392 . S
N529 Co473 2.257 . S
N529 C526 1.391 . S
N529 C530 1.388 . S
C530 H501 0.930 . S
C530 C525 1.391 . S
C530 N529 1.388 . S
Co531 O533 2.143 1_565 S
Co531 O539 2.074 . S
Co531 O542 2.093 . S
Co531 O555 2.097 1_565 S
Co531 N572 2.151 . S
Co531 N580 2.214 . S
Co532 O533 2.160 . S
Co532 O538 2.058 . S
Co532 O548 2.057 . S
Co532 O563 2.037 . S
Co532 N567 2.145 . S
Co532 N588 2.257 . S
O533 Co531 2.143 1_545 S
O533 Co532 2.160 . S
C534 O535 1.278 . S
C534 O542 1.224 1_545 S
O535 C534 1.278 . S
C536 O537 1.245 . S
C536 O548 1.232 . S
O537 C536 1.245 . S
O538 Co532 2.058 . S
O538 C564 1.269 . S
O539 Co531 2.074 . S
O539 C564 1.257 1_565 S
H540 C565 0.930 . S
H541 C571 0.930 . S
O542 Co531 2.093 . S
O542 C534 1.224 1_565 S
H543 C575 0.929 . S
H544 C577 0.930 . S
H545 C578 0.930 . S
H546 C576 0.929 . S
H547 C579 0.928 . S
O548 Co532 2.057 . S
O548 C536 1.232 . S
H549 C568 0.929 . S
H550 C569 0.929 . S
H551 C581 0.931 . S
H552 C573 0.929 . S
H553 C582 0.930 . S
H554 C574 0.931 . S
O555 Co531 2.097 1_545 S
O555 C583 1.214 . S
H556 C584 0.929 . S
H557 C585 0.929 . S
H558 C586 0.930 . S
H559 C587 0.929 . S
H560 C589 0.930 . S
H561 C566 0.930 . S
H562 C570 0.930 . S
O563 Co532 2.037 . S
O563 C583 1.234 . S
C564 O538 1.269 . S
C564 O539 1.257 1_545 S
C565 H540 0.930 . S
C565 C568 1.388 . S
C565 C570 1.418 . S
C566 H561 0.930 . S
C566 C569 1.404 . S
C566 C570 1.353 . S
N567 Co532 2.145 . S
N567 C568 1.397 . S
N567 C569 1.334 . S
C568 H549 0.929 . S
C568 C565 1.388 . S
C568 N567 1.397 . S
C569 H550 0.929 . S
C569 C566 1.404 . S
C569 N567 1.334 . S
C570 H562 0.930 . S
C570 C565 1.418 . S
C570 C566 1.353 . S
C571 H541 0.930 . S
C571 N572 1.330 . S
C571 C573 1.446 . S
N572 Co531 2.151 . S
N572 C571 1.330 . S
N572 C576 1.418 . S
C573 H552 0.929 . S
C573 C571 1.446 . S
C573 C574 1.332 . S
C574 H554 0.931 . S
C574 C573 1.332 . S
C574 C575 1.267 . S
C575 H543 0.929 . S
C575 C574 1.267 . S
C575 C576 1.251 . S
C576 H546 0.929 . S
C576 N572 1.418 . S
C576 C575 1.251 . S
C577 H544 0.930 . S
C577 C579 1.406 . S
C577 C582 1.261 . S
C578 H545 0.930 . S
C578 N580 1.325 . S
C578 C581 1.357 . S
C579 H547 0.928 . S
C579 C577 1.406 . S
C579 N580 1.261 . S
N580 Co531 2.214 . S
N580 C578 1.325 . S
N580 C579 1.261 . S
C581 H551 0.931 . S
C581 C578 1.357 . S
C581 C582 1.312 . S
C582 H553 0.930 . S
C582 C577 1.261 . S
C582 C581 1.312 . S
C583 O555 1.214 . S
C583 O563 1.234 . S
C584 H556 0.929 . S
C584 C587 1.391 . S
C584 C589 1.391 . S
C585 H557 0.929 . S
C585 C586 1.390 . S
C585 N588 1.391 . S
C586 H558 0.930 . S
C586 C585 1.390 . S
C586 C587 1.392 . S
C587 H559 0.929 . S
C587 C584 1.391 . S
C587 C586 1.392 . S
N588 Co532 2.257 . S
N588 C585 1.391 . S
N588 C589 1.388 . S
C589 H560 0.930 . S
C589 C584 1.391 . S
C589 N588 1.388 . S
Co590 O592 2.143 . S
Co590 O598 2.074 . S
Co590 O601 2.093 . S
Co590 O614 2.097 . S
Co590 N631 2.151 . S
Co590 N639 2.214 . S
Co591 O592 2.160 . S
Co591 O597 2.058 . S
Co591 O607 2.057 . S
Co591 O622 2.037 . S
Co591 N626 2.145 . S
Co591 N647 2.257 . S
O592 Co590 2.143 . S
O592 Co591 2.160 . S
C593 O594 1.278 . S
C593 O601 1.224 . S
O594 C593 1.278 . S
C595 O596 1.245 . S
C595 O607 1.232 . S
O596 C595 1.245 . S
O597 Co591 2.058 . S
O597 C623 1.269 . S
O598 Co590 2.074 . S
O598 C623 1.257 . S
H599 C624 0.930 . S
H600 C630 0.930 . S
O601 Co590 2.093 . S
O601 C593 1.224 . S
H602 C634 0.929 . S
H603 C636 0.930 . S
H604 C637 0.930 . S
H605 C635 0.929 . S
H606 C638 0.928 . S
O607 Co591 2.057 . S
O607 C595 1.232 . S
H608 C627 0.929 . S
H609 C628 0.929 . S
H610 C640 0.931 . S
H611 C632 0.929 . S
H612 C641 0.930 . S
H613 C633 0.931 . S
O614 Co590 2.097 . S
O614 C642 1.214 . S
H615 C643 0.929 . S
H616 C644 0.929 . S
H617 C645 0.930 . S
H618 C646 0.929 . S
H619 C648 0.930 . S
H620 C625 0.930 . S
H621 C629 0.930 . S
O622 Co591 2.037 . S
O622 C642 1.234 . S
C623 O597 1.269 . S
C623 O598 1.257 . S
C624 H599 0.930 . S
C624 C627 1.388 . S
C624 C629 1.418 . S
C625 H620 0.930 . S
C625 C628 1.404 . S
C625 C629 1.353 . S
N626 Co591 2.145 . S
N626 C627 1.397 . S
N626 C628 1.334 . S
C627 H608 0.929 . S
C627 C624 1.388 . S
C627 N626 1.397 . S
C628 H609 0.929 . S
C628 C625 1.404 . S
C628 N626 1.334 . S
C629 H621 0.930 . S
C629 C624 1.418 . S
C629 C625 1.353 . S
C630 H600 0.930 . S
C630 N631 1.330 . S
C630 C632 1.446 . S
N631 Co590 2.151 . S
N631 C630 1.330 . S
N631 C635 1.418 . S
C632 H611 0.929 . S
C632 C630 1.446 . S
C632 C633 1.332 . S
C633 H613 0.931 . S
C633 C632 1.332 . S
C633 C634 1.267 . S
C634 H602 0.929 . S
C634 C633 1.267 . S
C634 C635 1.251 . S
C635 H605 0.929 . S
C635 N631 1.418 . S
C635 C634 1.251 . S
C636 H603 0.930 . S
C636 C638 1.406 . S
C636 C641 1.261 . S
C637 H604 0.930 . S
C637 N639 1.325 . S
C637 C640 1.357 . S
C638 H606 0.928 . S
C638 C636 1.406 . S
C638 N639 1.261 . S
N639 Co590 2.214 . S
N639 C637 1.325 . S
N639 C638 1.261 . S
C640 H610 0.931 . S
C640 C637 1.357 . S
C640 C641 1.312 . S
C641 H612 0.930 . S
C641 C636 1.261 . S
C641 C640 1.312 . S
C642 O614 1.214 . S
C642 O622 1.234 . S
C643 H615 0.929 . S
C643 C646 1.391 . S
C643 C648 1.391 . S
C644 H616 0.929 . S
C644 C645 1.390 . S
C644 N647 1.391 . S
C645 H617 0.930 . S
C645 C644 1.390 . S
C645 C646 1.392 . S
C646 H618 0.929 . S
C646 C643 1.391 . S
C646 C645 1.392 . S
N647 Co591 2.257 . S
N647 C644 1.391 . S
N647 C648 1.388 . S
C648 H619 0.930 . S
C648 C643 1.391 . S
C648 N647 1.388 . S
Co649 O651 2.143 1_455 S
Co649 O657 2.074 . S
Co649 O660 2.093 . S
Co649 O673 2.097 1_455 S
Co649 N690 2.151 . S
Co649 N698 2.214 . S
Co650 O651 2.160 . S
Co650 O656 2.058 . S
Co650 O666 2.057 . S
Co650 O681 2.037 . S
Co650 N685 2.145 . S
Co650 N706 2.257 . S
O651 Co649 2.143 1_655 S
O651 Co650 2.160 . S
C652 O653 1.278 . S
C652 O660 1.224 1_655 S
O653 C652 1.278 . S
C654 O655 1.245 . S
C654 O666 1.232 . S
O655 C654 1.245 . S
O656 Co650 2.058 . S
O656 C682 1.269 . S
O657 Co649 2.074 . S
O657 C682 1.257 1_455 S
H658 C683 0.930 . S
H659 C689 0.930 . S
O660 Co649 2.093 . S
O660 C652 1.224 1_455 S
H661 C693 0.929 . S
H662 C695 0.930 . S
H663 C696 0.930 . S
H664 C694 0.929 . S
H665 C697 0.928 . S
O666 Co650 2.057 . S
O666 C654 1.232 . S
H667 C686 0.929 . S
H668 C687 0.929 . S
H669 C699 0.931 . S
H670 C691 0.929 . S
H671 C700 0.930 . S
H672 C692 0.931 . S
O673 Co649 2.097 1_655 S
O673 C701 1.214 . S
H674 C702 0.929 . S
H675 C703 0.929 . S
H676 C704 0.930 . S
H677 C705 0.929 . S
H678 C707 0.930 . S
H679 C684 0.930 . S
H680 C688 0.930 . S
O681 Co650 2.037 . S
O681 C701 1.234 . S
C682 O656 1.269 . S
C682 O657 1.257 1_655 S
C683 H658 0.930 . S
C683 C686 1.388 . S
C683 C688 1.418 . S
C684 H679 0.930 . S
C684 C687 1.404 . S
C684 C688 1.353 . S
N685 Co650 2.145 . S
N685 C686 1.397 . S
N685 C687 1.334 . S
C686 H667 0.929 . S
C686 C683 1.388 . S
C686 N685 1.397 . S
C687 H668 0.929 . S
C687 C684 1.404 . S
C687 N685 1.334 . S
C688 H680 0.930 . S
C688 C683 1.418 . S
C688 C684 1.353 . S
C689 H659 0.930 . S
C689 N690 1.330 . S
C689 C691 1.446 . S
N690 Co649 2.151 . S
N690 C689 1.330 . S
N690 C694 1.418 . S
C691 H670 0.929 . S
C691 C689 1.446 . S
C691 C692 1.332 . S
C692 H672 0.931 . S
C692 C691 1.332 . S
C692 C693 1.267 . S
C693 H661 0.929 . S
C693 C692 1.267 . S
C693 C694 1.251 . S
C694 H664 0.929 . S
C694 N690 1.418 . S
C694 C693 1.251 . S
C695 H662 0.930 . S
C695 C697 1.406 . S
C695 C700 1.261 . S
C696 H663 0.930 . S
C696 N698 1.325 . S
C696 C699 1.357 . S
C697 H665 0.928 . S
C697 C695 1.406 . S
C697 N698 1.261 . S
N698 Co649 2.214 . S
N698 C696 1.325 . S
N698 C697 1.261 . S
C699 H669 0.931 . S
C699 C696 1.357 . S
C699 C700 1.312 . S
C700 H671 0.930 . S
C700 C695 1.261 . S
C700 C699 1.312 . S
C701 O673 1.214 . S
C701 O681 1.234 . S
C702 H674 0.929 . S
C702 C705 1.391 . S
C702 C707 1.391 . S
C703 H675 0.929 . S
C703 C704 1.390 . S
C703 N706 1.391 . S
C704 H676 0.930 . S
C704 C703 1.390 . S
C704 C705 1.392 . S
C705 H677 0.929 . S
C705 C702 1.391 . S
C705 C704 1.392 . S
N706 Co650 2.257 . S
N706 C703 1.391 . S
N706 C707 1.388 . S
C707 H678 0.930 . S
C707 C702 1.391 . S
C707 N706 1.388 . S
C708 C709 1.363 . S
C708 C714 1.375 1_454 S
C708 N716 1.356 . S
C709 C708 1.363 . S
C709 C715 1.376 . S
C710 C711 1.363 . S
C710 C715 1.375 1_656 S
C710 N717 1.356 . S
C711 C710 1.363 . S
C711 C714 1.376 . S
N712 C714 1.350 . S
N712 H724 0.985 1_655 S
N712 H725 0.985 . S
N713 C715 1.350 . S
N713 H718 0.984 . S
N713 H719 0.985 1_455 S
C714 C708 1.375 1_656 S
C714 C711 1.376 . S
C714 N712 1.350 . S
C715 C709 1.376 . S
C715 C710 1.375 1_454 S
C715 N713 1.350 . S
N716 C708 1.356 . S
N716 H722 0.984 . S
N716 H723 0.984 . S
N717 C710 1.356 . S
N717 H720 0.984 . S
N717 H721 0.985 . S
H718 N713 0.984 . S
H719 N713 0.985 1_655 S
H720 N717 0.984 . S
H721 N717 0.985 . S
H722 N716 0.984 . S
H723 N716 0.984 . S
H724 N712 0.985 1_455 S
H725 N712 0.985 . S
C726 C727 1.363 . S
C726 C732 1.379 . S
C726 N734 1.356 . S
C727 C726 1.363 . S
C727 C733 1.363 1_565 S
C728 C729 1.363 . S
C728 C733 1.379 . S
C728 N735 1.356 . S
C729 C728 1.363 . S
C729 C732 1.363 1_545 S
N730 C732 1.356 . S
N730 H742 0.984 . S
N730 H743 0.985 . S
N731 C733 1.356 . S
N731 H736 0.984 . S
N731 H737 0.985 . S
C732 C726 1.379 . S
C732 C729 1.363 1_565 S
C732 N730 1.356 . S
C733 C727 1.363 1_545 S
C733 C728 1.379 . S
C733 N731 1.356 . S
N734 C726 1.356 . S
N734 H740 0.984 . S
N734 H741 0.984 . S
N735 C728 1.356 . S
N735 H738 0.984 . S
N735 H739 0.985 . S
H736 N731 0.984 . S
H737 N731 0.985 . S
H738 N735 0.984 . S
H739 N735 0.985 . S
H740 N734 0.984 . S
H741 N734 0.984 . S
H742 N730 0.984 . S
H743 N730 0.985 . S
C744 C745 1.363 . S
C744 C750 1.379 1_554 S
C744 N752 1.356 . S
C745 C744 1.363 . S
C745 C751 1.363 . S
C746 C747 1.363 . S
C746 C751 1.379 1_556 S
C746 N753 1.356 . S
C747 C746 1.363 . S
C747 C750 1.363 . S
N748 C750 1.356 . S
N748 H760 0.984 . S
N748 H761 0.985 . S
N749 C751 1.356 . S
N749 H754 0.984 . S
N749 H755 0.985 . S
C750 C744 1.379 1_556 S
C750 C747 1.363 . S
C750 N748 1.356 . S
C751 C745 1.363 . S
C751 C746 1.379 1_554 S
C751 N749 1.356 . S
N752 C744 1.356 . S
N752 H758 0.984 . S
N752 H759 0.984 . S
N753 C746 1.356 . S
N753 H756 0.984 . S
N753 H757 0.985 . S
H754 N749 0.984 . S
H755 N749 0.985 . S
H756 N753 0.984 . S
H757 N753 0.985 . S
H758 N752 0.984 . S
H759 N752 0.984 . S
H760 N748 0.984 . S
H761 N748 0.985 . S
C762 C763 1.363 1_655 S
C762 C768 1.379 . S
C762 N770 1.356 . S
C763 C762 1.363 1_455 S
C763 C769 1.363 . S
C764 C765 1.363 1_455 S
C764 C769 1.379 . S
C764 N771 1.356 . S
C765 C764 1.363 1_655 S
C765 C768 1.363 . S
N766 C768 1.356 . S
N766 H778 0.984 . S
N766 H779 0.985 . S
N767 C769 1.356 . S
N767 H772 0.984 . S
N767 H773 0.985 . S
C768 C762 1.379 . S
C768 C765 1.363 . S
C768 N766 1.356 . S
C769 C763 1.363 . S
C769 C764 1.379 . S
C769 N767 1.356 . S
N770 C762 1.356 . S
N770 H776 0.984 . S
N770 H777 0.984 . S
N771 C764 1.356 . S
N771 H774 0.984 . S
N771 H775 0.985 . S
H772 N767 0.984 . S
H773 N767 0.985 . S
H774 N771 0.984 . S
H775 N771 0.985 . S
H776 N770 0.984 . S
H777 N770 0.984 . S
H778 N766 0.984 . S
H779 N766 0.985 . S
C780 C781 1.363 1_565 S
C780 C786 1.379 1_556 S
C780 N788 1.356 . S
C781 C780 1.363 1_545 S
C781 C787 1.363 . S
C782 C783 1.363 1_545 S
C782 C787 1.379 1_554 S
C782 N789 1.356 . S
C783 C782 1.363 1_565 S
C783 C786 1.363 . S
N784 C786 1.356 . S
N784 H796 0.984 . S
N784 H797 0.985 . S
N785 C787 1.356 . S
N785 H790 0.984 . S
N785 H791 0.985 . S
C786 C780 1.379 1_554 S
C786 C783 1.363 . S
C786 N784 1.356 . S
C787 C781 1.363 . S
C787 C782 1.379 1_556 S
C787 N785 1.356 . S
N788 C780 1.356 . S
N788 H794 0.984 . S
N788 H795 0.984 . S
N789 C782 1.356 . S
N789 H792 0.984 . S
N789 H793 0.985 . S
H790 N785 0.984 . S
H791 N785 0.985 . S
H792 N789 0.984 . S
H793 N789 0.985 . S
H794 N788 0.984 . S
H795 N788 0.984 . S
H796 N784 0.984 . S
H797 N784 0.985 . S
C798 C799 1.363 . S
C798 C804 1.379 . S
C798 N806 1.356 . S
C799 C798 1.363 . S
C799 C805 1.363 . S
C800 C801 1.363 . S
C800 C805 1.379 . S
C800 N807 1.356 . S
C801 C800 1.363 . S
C801 C804 1.363 . S
N802 C804 1.356 . S
N802 H814 0.984 . S
N802 H815 0.985 . S
N803 C805 1.356 . S
N803 H808 0.984 . S
N803 H809 0.985 . S
C804 C798 1.379 . S
C804 C801 1.363 . S
C804 N802 1.356 . S
C805 C799 1.363 . S
C805 C800 1.379 . S
C805 N803 1.356 . S
N806 C798 1.356 . S
N806 H812 0.984 . S
N806 H813 0.984 . S
N807 C800 1.356 . S
N807 H810 0.984 . S
N807 H811 0.985 . S
H808 N803 0.984 . S
H809 N803 0.985 . S
H810 N807 0.984 . S
H811 N807 0.985 . S
H812 N806 0.984 . S
H813 N806 0.984 . S
H814 N802 0.984 . S
H815 N802 0.985 . S
C816 C817 1.363 . S
C816 C822 1.379 1_556 S
C816 N824 1.356 . S
C817 C816 1.363 . S
C817 C823 1.363 1_655 S
C818 C819 1.363 . S
C818 C823 1.379 1_554 S
C818 N825 1.356 . S
C819 C818 1.363 . S
C819 C822 1.363 1_455 S
N820 C822 1.356 . S
N820 H832 0.984 . S
N820 H833 0.985 . S
N821 C823 1.356 . S
N821 H826 0.984 . S
N821 H827 0.985 . S
C822 C816 1.379 1_554 S
C822 C819 1.363 1_655 S
C822 N820 1.356 . S
C823 C817 1.363 1_455 S
C823 C818 1.379 1_556 S
C823 N821 1.356 . S
N824 C816 1.356 . S
N824 H830 0.984 . S
N824 H831 0.984 . S
N825 C818 1.356 . S
N825 H828 0.984 . S
N825 H829 0.985 . S
H826 N821 0.984 . S
H827 N821 0.985 . S
H828 N825 0.984 . S
H829 N825 0.985 . S
H830 N824 0.984 . S
H831 N824 0.984 . S
H832 N820 0.984 . S
H833 N820 0.985 . S
C834 C835 1.363 1_545 S
C834 C840 1.379 . S
C834 N842 1.356 . S
C835 C834 1.363 1_565 S
C835 C841 1.363 . S
C836 C837 1.363 1_565 S
C836 C841 1.379 . S
C836 N843 1.356 . S
C837 C836 1.363 1_545 S
C837 C840 1.363 . S
N838 C840 1.356 . S
N838 H850 0.984 . S
N838 H851 0.985 . S
N839 C841 1.356 . S
N839 H844 0.984 . S
N839 H845 0.985 . S
C840 C834 1.379 . S
C840 C837 1.363 . S
C840 N838 1.356 . S
C841 C835 1.363 . S
C841 C836 1.379 . S
C841 N839 1.356 . S
N842 C834 1.356 . S
N842 H848 0.984 . S
N842 H849 0.984 . S
N843 C836 1.356 . S
N843 H846 0.984 . S
N843 H847 0.985 . S
H844 N839 0.984 . S
H845 N839 0.985 . S
H846 N843 0.984 . S
H847 N843 0.985 . S
H848 N842 0.984 . S
H849 N842 0.984 . S
H850 N838 0.984 . S
H851 N838 0.985 . S
C852 C853 1.363 . S
C852 C858 1.379 1_556 S
C852 N860 1.356 . S
C853 C852 1.363 . S
C853 C859 1.363 . S
C854 C855 1.363 . S
C854 C859 1.379 1_554 S
C854 N861 1.356 . S
C855 C854 1.363 . S
C855 C858 1.363 . S
N856 C858 1.356 . S
N856 H868 0.984 . S
N856 H869 0.985 . S
N857 C859 1.356 . S
N857 H862 0.984 . S
N857 H863 0.985 . S
C858 C852 1.379 1_554 S
C858 C855 1.363 . S
C858 N856 1.356 . S
C859 C853 1.363 . S
C859 C854 1.379 1_556 S
C859 N857 1.356 . S
N860 C852 1.356 . S
N860 H866 0.984 . S
N860 H867 0.984 . S
N861 C854 1.356 . S
N861 H864 0.984 . S
N861 H865 0.985 . S
H862 N857 0.984 . S
H863 N857 0.985 . S
H864 N861 0.984 . S
H865 N861 0.985 . S
H866 N860 0.984 . S
H867 N860 0.984 . S
H868 N856 0.984 . S
H869 N856 0.985 . S
C870 C871 1.363 . S
C870 C876 1.379 . S
C870 N878 1.356 . S
C871 C870 1.363 . S
C871 C877 1.363 1_655 S
C872 C873 1.363 . S
C872 C877 1.379 . S
C872 N879 1.356 . S
C873 C872 1.363 . S
C873 C876 1.363 1_455 S
N874 C876 1.356 . S
N874 H886 0.984 . S
N874 H887 0.985 . S
N875 C877 1.356 . S
N875 H880 0.984 . S
N875 H881 0.985 . S
C876 C870 1.379 . S
C876 C873 1.363 1_655 S
C876 N874 1.356 . S
C877 C871 1.363 1_455 S
C877 C872 1.379 . S
C877 N875 1.356 . S
N878 C870 1.356 . S
N878 H884 0.984 . S
N878 H885 0.984 . S
N879 C872 1.356 . S
N879 H882 0.984 . S
N879 H883 0.985 . S
H880 N875 0.984 . S
H881 N875 0.985 . S
H882 N879 0.984 . S
H883 N879 0.985 . S
H884 N878 0.984 . S
H885 N878 0.984 . S
H886 N874 0.984 . S
H887 N874 0.985 . S
C888 C889 1.363 . S
C888 C894 1.379 1_556 S
C888 N896 1.356 . S
C889 C888 1.363 . S
C889 C895 1.363 1_545 S
C890 C891 1.363 . S
C890 C895 1.379 1_554 S
C890 N897 1.356 . S
C891 C890 1.363 . S
C891 C894 1.363 1_565 S
N892 C894 1.356 . S
N892 H904 0.984 . S
N892 H905 0.985 . S
N893 C895 1.356 . S
N893 H898 0.984 . S
N893 H899 0.985 . S
C894 C888 1.379 1_554 S
C894 C891 1.363 1_545 S
C894 N892 1.356 . S
C895 C889 1.363 1_565 S
C895 C890 1.379 1_556 S
C895 N893 1.356 . S
N896 C888 1.356 . S
N896 H902 0.984 . S
N896 H903 0.984 . S
N897 C890 1.356 . S
N897 H900 0.984 . S
N897 H901 0.985 . S
H898 N893 0.984 . S
H899 N893 0.985 . S
H900 N897 0.984 . S
H901 N897 0.985 . S
H902 N896 0.984 . S
H903 N896 0.984 . S
H904 N892 0.984 . S
H905 N892 0.985 . S
C906 C907 1.363 . S
C906 C912 1.379 . S
C906 N914 1.356 . S
C907 C906 1.363 . S
C907 C913 1.363 . S
C908 C909 1.363 . S
C908 C913 1.379 . S
C908 N915 1.356 . S
C909 C908 1.363 . S
C909 C912 1.363 . S
N910 C912 1.356 . S
N910 H922 0.984 . S
N910 H923 0.985 . S
N911 C913 1.356 . S
N911 H916 0.984 . S
N911 H917 0.985 . S
C912 C906 1.379 . S
C912 C909 1.363 . S
C912 N910 1.356 . S
C913 C907 1.363 . S
C913 C908 1.379 . S
C913 N911 1.356 . S
N914 C906 1.356 . S
N914 H920 0.984 . S
N914 H921 0.984 . S
N915 C908 1.356 . S
N915 H918 0.984 . S
N915 H919 0.985 . S
H916 N911 0.984 . S
H917 N911 0.985 . S
H918 N915 0.984 . S
H919 N915 0.985 . S
H920 N914 0.984 . S
H921 N914 0.984 . S
H922 N910 0.984 . S
H923 N910 0.985 . S
C924 C925 1.363 . S
C924 C930 1.379 . S
C924 N932 1.356 . S
C925 C924 1.363 . S
C925 C931 1.363 . S
C926 C927 1.363 . S
C926 C931 1.379 . S
C926 N933 1.356 . S
C927 C926 1.363 . S
C927 C930 1.363 . S
N928 C930 1.356 . S
N928 H940 0.984 . S
N928 H941 0.985 . S
N929 C931 1.356 . S
N929 H934 0.984 . S
N929 H935 0.985 1_455 S
C930 C924 1.379 . S
C930 C927 1.363 . S
C930 N928 1.356 . S
C931 C925 1.363 . S
C931 C926 1.379 . S
C931 N929 1.356 . S
N932 C924 1.356 . S
N932 H938 0.984 . S
N932 H939 0.984 . S
N933 C926 1.356 . S
N933 H936 0.984 . S
N933 H937 0.985 1_455 S
H934 N929 0.984 . S
H935 N929 0.985 1_655 S
H936 N933 0.984 . S
H937 N933 0.985 1_655 S
H938 N932 0.984 . S
H939 N932 0.984 . S
H940 N928 0.984 . S
H941 N928 0.985 . S
C942 C943 1.348 1_565 S
C942 C948 1.379 . S
C942 N950 1.359 . S
C943 C942 1.348 1_545 S
C943 C949 1.363 . S
C944 C945 1.363 . S
C944 C949 1.379 . S
C944 N951 1.356 . S
C945 C944 1.363 . S
C945 C948 1.357 1_545 S
N946 C948 1.371 . S
N946 H958 0.984 . S
N946 H959 0.985 . S
N947 C949 1.356 . S
N947 H952 0.984 . S
N947 H953 0.985 . S
C948 C942 1.379 . S
C948 C945 1.357 1_565 S
C948 N946 1.371 . S
C949 C943 1.363 . S
C949 C944 1.379 . S
C949 N947 1.356 . S
N950 C942 1.359 . S
N950 H956 0.984 . S
N950 H957 0.984 . S
N951 C944 1.356 . S
N951 H954 0.984 . S
N951 H955 0.985 . S
H952 N947 0.984 . S
H953 N947 0.985 . S
H954 N951 0.984 . S
H955 N951 0.985 . S
H956 N950 0.984 . S
H957 N950 0.984 . S
H958 N946 0.984 . S
H959 N946 0.985 . S
C960 C961 1.363 . S
C960 C966 1.379 . S
C960 N968 1.356 . S
C961 C960 1.363 . S
C961 C967 1.363 . S
C962 C963 1.363 . S
C962 C967 1.379 . S
C962 N969 1.356 . S
C963 C962 1.363 . S
C963 C966 1.363 . S
N964 C966 1.356 . S
N964 H976 0.984 . S
N964 H977 0.985 . S
N965 C967 1.356 . S
N965 H970 0.984 . S
N965 H971 0.985 . S
C966 C960 1.379 . S
C966 C963 1.363 . S
C966 N964 1.356 . S
C967 C961 1.363 . S
C967 C962 1.379 . S
C967 N965 1.356 . S
N968 C960 1.356 . S
N968 H974 0.984 . S
N968 H975 0.984 . S
N969 C962 1.356 . S
N969 H972 0.984 . S
N969 H973 0.985 . S
H970 N965 0.984 . S
H971 N965 0.985 . S
H972 N969 0.984 . S
H973 N969 0.985 . S
H974 N968 0.984 . S
H975 N968 0.984 . S
H976 N964 0.984 . S
H977 N964 0.985 . S
C978 C979 1.363 . S
C978 C984 1.379 . S
C978 N986 1.356 . S
C979 C978 1.363 . S
C979 C985 1.363 . S
C980 C981 1.363 . S
C980 C985 1.379 . S
C980 N987 1.356 1_655 S
C981 C980 1.363 . S
C981 C984 1.363 . S
N982 C984 1.356 . S
N982 H994 0.984 . S
N982 H995 0.985 . S
N983 C985 1.356 1_455 S
N983 H988 0.984 . S
N983 H989 0.985 . S
C984 C978 1.379 . S
C984 C981 1.363 . S
C984 N982 1.356 . S
C985 C979 1.363 . S
C985 C980 1.379 . S
C985 N983 1.356 1_655 S
N986 C978 1.356 . S
N986 H992 0.984 . S
N986 H993 0.984 . S
N987 C980 1.356 1_455 S
N987 H990 0.984 . S
N987 H991 0.985 . S
H988 N983 0.984 . S
H989 N983 0.985 . S
H990 N987 0.984 . S
H991 N987 0.985 . S
H992 N986 0.984 . S
H993 N986 0.984 . S
H994 N982 0.984 . S
H995 N982 0.985 . S
C996 C997 1.358 1_545 S
C996 C1002 1.379 . S
C996 N1004 1.370 . S
C997 C996 1.358 1_565 S
C997 C1003 1.363 . S
C998 C999 1.363 . S
C998 C1003 1.379 . S
C998 N1005 1.356 . S
C999 C998 1.363 . S
C999 C1002 1.349 1_565 S
N1000 C1002 1.358 . S
N1000 H1012 0.984 . S
N1000 H1013 0.985 . S
N1001 C1003 1.356 . S
N1001 H1006 0.984 . S
N1001 H1007 0.985 . S
C1002 C996 1.379 . S
C1002 C999 1.349 1_545 S
C1002 N1000 1.358 . S
C1003 C997 1.363 . S
C1003 C998 1.379 . S
C1003 N1001 1.356 . S
N1004 C996 1.370 . S
N1004 H1010 0.984 . S
N1004 H1011 0.984 . S
N1005 C998 1.356 . S
N1005 H1008 0.984 . S
N1005 H1009 0.985 . S
H1006 N1001 0.984 . S
H1007 N1001 0.985 . S
H1008 N1005 0.984 . S
H1009 N1005 0.985 . S
H1010 N1004 0.984 . S
H1011 N1004 0.984 . S
H1012 N1000 0.984 . S
H1013 N1000 0.985 . S
C1014 C1015 1.363 . S
C1014 C1020 1.379 . S
C1014 N1022 1.356 . S
C1015 C1014 1.363 . S
C1015 C1021 1.363 . S
C1016 C1017 1.363 . S
C1016 C1021 1.379 . S
C1016 N1023 1.356 . S
C1017 C1016 1.363 . S
C1017 C1020 1.363 . S
N1018 C1020 1.356 . S
N1018 H1030 0.984 . S
N1018 H1031 0.985 . S
N1019 C1021 1.356 . S
N1019 H1024 0.984 . S
N1019 H1025 0.985 . S
C1020 C1014 1.379 . S
C1020 C1017 1.363 . S
C1020 N1018 1.356 . S
C1021 C1015 1.363 . S
C1021 C1016 1.379 . S
C1021 N1019 1.356 . S
N1022 C1014 1.356 . S
N1022 H1028 0.984 . S
N1022 H1029 0.984 . S
N1023 C1016 1.356 . S
N1023 H1026 0.984 . S
N1023 H1027 0.985 . S
H1024 N1019 0.984 . S
H1025 N1019 0.985 . S
H1026 N1023 0.984 . S
H1027 N1023 0.985 . S
H1028 N1022 0.984 . S
H1029 N1022 0.984 . S
H1030 N1018 0.984 . S
H1031 N1018 0.985 . S
C1032 C1033 1.363 . S
C1032 C1038 1.379 . S
C1032 N1040 1.356 . S
C1033 C1032 1.363 . S
C1033 C1039 1.363 . S
C1034 C1035 1.363 . S
C1034 C1039 1.379 . S
C1034 N1041 1.356 . S
C1035 C1034 1.363 . S
C1035 C1038 1.363 . S
N1036 C1038 1.356 . S
N1036 H1048 0.984 . S
N1036 H1049 0.985 . S
N1037 C1039 1.356 . S
N1037 H1042 0.984 . S
N1037 H1043 0.985 . S
C1038 C1032 1.379 . S
C1038 C1035 1.363 . S
C1038 N1036 1.356 . S
C1039 C1033 1.363 . S
C1039 C1034 1.379 . S
C1039 N1037 1.356 . S
N1040 C1032 1.356 . S
N1040 H1046 0.984 . S
N1040 H1047 0.984 . S
N1041 C1034 1.356 . S
N1041 H1044 0.984 . S
N1041 H1045 0.985 . S
H1042 N1037 0.984 . S
H1043 N1037 0.985 . S
H1044 N1041 0.984 . S
H1045 N1041 0.985 . S
H1046 N1040 0.984 . S
H1047 N1040 0.984 . S
H1048 N1036 0.984 . S
H1049 N1036 0.985 . S
C1050 C1051 1.363 . S
C1050 C1056 1.379 . S
C1050 N1058 1.356 . S
C1051 C1050 1.363 . S
C1051 C1057 1.363 . S
C1052 C1053 1.363 . S
C1052 C1057 1.379 . S
C1052 N1059 1.356 . S
C1053 C1052 1.363 . S
C1053 C1056 1.363 . S
N1054 C1056 1.356 . S
N1054 H1066 0.984 . S
N1054 H1067 0.985 . S
N1055 C1057 1.356 . S
N1055 H1060 0.984 . S
N1055 H1061 0.985 . S
C1056 C1050 1.379 . S
C1056 C1053 1.363 . S
C1056 N1054 1.356 . S
C1057 C1051 1.363 . S
C1057 C1052 1.379 . S
C1057 N1055 1.356 . S
N1058 C1050 1.356 . S
N1058 H1064 0.984 . S
N1058 H1065 0.984 . S
N1059 C1052 1.356 . S
N1059 H1062 0.984 . S
N1059 H1063 0.985 . S
H1060 N1055 0.984 . S
H1061 N1055 0.985 . S
H1062 N1059 0.984 . S
H1063 N1059 0.985 . S
H1064 N1058 0.984 . S
H1065 N1058 0.984 . S
H1066 N1054 0.984 . S
H1067 N1054 0.985 . S
C1068 C1069 1.363 . S
C1068 C1074 1.379 . S
C1068 N1076 1.356 . S
C1069 C1068 1.363 . S
C1069 C1075 1.363 . S
C1070 C1071 1.363 . S
C1070 C1075 1.379 . S
C1070 N1077 1.356 . S
C1071 C1070 1.363 . S
C1071 C1074 1.363 . S
N1072 C1074 1.356 . S
N1072 H1084 0.984 . S
N1072 H1085 0.985 . S
N1073 C1075 1.356 . S
N1073 H1078 0.984 . S
N1073 H1079 0.985 . S
C1074 C1068 1.379 . S
C1074 C1071 1.363 . S
C1074 N1072 1.356 . S
C1075 C1069 1.363 . S
C1075 C1070 1.379 . S
C1075 N1073 1.356 . S
N1076 C1068 1.356 . S
N1076 H1082 0.984 . S
N1076 H1083 0.984 . S
N1077 C1070 1.356 . S
N1077 H1080 0.984 . S
N1077 H1081 0.985 . S
H1078 N1073 0.984 . S
H1079 N1073 0.985 . S
H1080 N1077 0.984 . S
H1081 N1077 0.985 . S
H1082 N1076 0.984 . S
H1083 N1076 0.984 . S
H1084 N1072 0.984 . S
H1085 N1072 0.985 . S
C1086 C1087 1.363 . S
C1086 C1092 1.379 . S
C1086 N1094 1.356 . S
C1087 C1086 1.363 . S
C1087 C1093 1.363 . S
C1088 C1089 1.363 . S
C1088 C1093 1.379 . S
C1088 N1095 1.356 . S
C1089 C1088 1.363 . S
C1089 C1092 1.363 . S
N1090 C1092 1.356 . S
N1090 H1102 0.984 . S
N1090 H1103 0.985 . S
N1091 C1093 1.356 . S
N1091 H1096 0.984 . S
N1091 H1097 0.985 . S
C1092 C1086 1.379 . S
C1092 C1089 1.363 . S
C1092 N1090 1.356 . S
C1093 C1087 1.363 . S
C1093 C1088 1.379 . S
C1093 N1091 1.356 . S
N1094 C1086 1.356 . S
N1094 H1100 0.984 . S
N1094 H1101 0.984 . S
N1095 C1088 1.356 . S
N1095 H1098 0.984 . S
N1095 H1099 0.985 . S
H1096 N1091 0.984 . S
H1097 N1091 0.985 . S
H1098 N1095 0.984 . S
H1099 N1095 0.985 . S
H1100 N1094 0.984 . S
H1101 N1094 0.984 . S
H1102 N1090 0.984 . S
H1103 N1090 0.985 . S
C1104 C1105 1.363 . S
C1104 C1110 1.379 . S
C1104 N1112 1.356 . S
C1105 C1104 1.363 . S
C1105 C1111 1.363 . S
C1106 C1107 1.363 . S
C1106 C1111 1.379 . S
C1106 N1113 1.356 . S
C1107 C1106 1.363 . S
C1107 C1110 1.363 . S
N1108 C1110 1.356 . S
N1108 H1120 0.984 . S
N1108 H1121 0.985 . S
N1109 C1111 1.356 . S
N1109 H1114 0.984 . S
N1109 H1115 0.985 . S
C1110 C1104 1.379 . S
C1110 C1107 1.363 . S
C1110 N1108 1.356 . S
C1111 C1105 1.363 . S
C1111 C1106 1.379 . S
C1111 N1109 1.356 . S
N1112 C1104 1.356 . S
N1112 H1118 0.984 . S
N1112 H1119 0.984 . S
N1113 C1106 1.356 . S
N1113 H1116 0.984 . S
N1113 H1117 0.985 . S
H1114 N1109 0.984 . S
H1115 N1109 0.985 . S
H1116 N1113 0.984 . S
H1117 N1113 0.985 . S
H1118 N1112 0.984 . S
H1119 N1112 0.984 . S
H1120 N1108 0.984 . S
H1121 N1108 0.985 . S
C1122 C1123 1.363 . S
C1122 C1128 1.379 . S
C1122 N1130 1.356 . S
C1123 C1122 1.363 . S
C1123 C1129 1.363 . S
C1124 C1125 1.363 . S
C1124 C1129 1.379 . S
C1124 N1131 1.356 . S
C1125 C1124 1.363 . S
C1125 C1128 1.363 . S
N1126 C1128 1.356 . S
N1126 H1138 0.984 . S
N1126 H1139 0.985 . S
N1127 C1129 1.356 . S
N1127 H1132 0.984 . S
N1127 H1133 0.985 . S
C1128 C1122 1.379 . S
C1128 C1125 1.363 . S
C1128 N1126 1.356 . S
C1129 C1123 1.363 . S
C1129 C1124 1.379 . S
C1129 N1127 1.356 . S
N1130 C1122 1.356 . S
N1130 H1136 0.984 . S
N1130 H1137 0.984 . S
N1131 C1124 1.356 . S
N1131 H1134 0.984 . S
N1131 H1135 0.985 . S
H1132 N1127 0.984 . S
H1133 N1127 0.985 . S
H1134 N1131 0.984 . S
H1135 N1131 0.985 . S
H1136 N1130 0.984 . S
H1137 N1130 0.984 . S
H1138 N1126 0.984 . S
H1139 N1126 0.985 . S
C709 C33 1.694 . S
C711 C682 1.694 . S
C727 C387 1.694 . S
C729 C92 1.694 . S
C745 C151 1.694 . S
C747 C446 1.694 . S
C763 C505 1.694 . S
C765 C210 1.694 . S
C781 C564 1.694 . S
C783 C269 1.694 . S
C799 C623 1.694 . S
C801 C328 1.694 . S
C817 C180 1.185 . S
C819 C475 1.185 . S
C835 C239 1.185 . S
C837 C534 1.185 . S
C853 C298 1.185 . S
C855 C593 1.185 . S
C871 C652 1.185 . S
C873 C3 1.185 . S
C889 C62 1.185 . S
C891 C357 1.185 . S
C907 C121 1.185 . S
C909 C416 1.185 . S
C925 C524 1.782 . S
C927 C52 1.782 . S
C943 C583 1.782 . S
C945 C111 1.782 . S
C961 C170 1.782 . S
C963 C642 1.782 . S
C979 C229 1.782 . S
C981 C701 1.782 . S
C997 C288 1.782 . S
C999 C406 1.782 . S
C1015 C465 1.782 . S
C1017 C347 1.782 . S
C1033 C5 1.725 . S
C1035 C595 1.725 . S
C1051 C654 1.725 . S
C1053 C64 1.725 . S
C1069 C123 1.725 . S
C1071 C359 1.725 . S
C1087 C182 1.725 . S
C1089 C418 1.725 . S
C1105 C241 1.725 . S
C1107 C477 1.725 . S
C1123 C300 1.725 . S
C1125 C536 1.725 . S
