# Generated by pormake.
# Topology qtz-x, (6)-cn, num edge types: 1
# Building blocks:
#     Node 0, Type 0, BuildingBlock: KUMBOL_clean_sbu_1, # of connection points: 6
#     Node 1, Type 0, BuildingBlock: KUMBOL_clean_sbu_1, # of connection points: 6
#     Node 2, Type 0, BuildingBlock: KUMBOL_clean_sbu_1, # of connection points: 6
#     Edge 3, Type (0, 0), BuildingBlock: FUNLAD_clean_linker_0, # of connection points: 2
#     Edge 4, Type (0, 0), BuildingBlock: FUNLAD_clean_linker_0, # of connection points: 2
#     Edge 5, Type (0, 0), BuildingBlock: FUNLAD_clean_linker_0, # of connection points: 2
#     Edge 6, Type (0, 0), BuildingBlock: FUNLAD_clean_linker_0, # of connection points: 2
#     Edge 7, Type (0, 0), BuildingBlock: FUNLAD_clean_linker_0, # of connection points: 2
#     Edge 8, Type (0, 0), BuildingBlock: FUNLAD_clean_linker_0, # of connection points: 2
#     Edge 9, Type (0, 0), BuildingBlock: FUNLAD_clean_linker_0, # of connection points: 2
#     Edge 10, Type (0, 0), BuildingBlock: FUNLAD_clean_linker_0, # of connection points: 2
#     Edge 11, Type (0, 0), BuildingBlock: FUNLAD_clean_linker_0, # of connection points: 2
# Relax obj value: 0.199
# Max RMSD: 0.276
# Mean RMSD: 0.276
data_MOF--net-qtz-x--node1-KUMBOL_clean_sbu_1--edge1-FUNLAD_clean_linker_0
_symmetry_space_group_name_H-M    P1
_symmetry_Int_Tables_number       1
_symmetry_cell_setting            triclinic
loop_
_symmetry_equiv_pos_as_xyz
'x, y, z'
_cell_length_a     17.377459
_cell_length_b     17.366434
_cell_length_c     58.502166
_cell_angle_alpha  89.771882
_cell_angle_beta   90.026008
_cell_angle_gamma 119.91288
loop_
_atom_site_label
_atom_site_type_symbol
_atom_site_fract_x
_atom_site_fract_y
_atom_site_fract_z
_atom_type_partial_charge
C0 C 0.37637 0.46675 0.15304 0.0
C1 C 0.4598 0.60554 0.13222 0.0
C2 C 0.39121 0.55068 0.14746 0.0
C3 C 0.51064 0.57294 0.12181 0.0
C4 C 0.43029 0.43554 0.14354 0.0
C5 C 0.49583 0.48804 0.12743 0.0
N6 N 0.31325 0.41825 0.16889 0.0
C7 C 0.30766 0.34296 0.17786 0.0
C8 C 0.41891 0.35401 0.15118 0.0
C9 C 0.35855 0.30843 0.16877 0.0
Gd10 Gd 0.98092 0.3642 0.15148 0.0
Gd11 Gd 0.22515 0.4782 0.18119 0.0
N12 N 0.33997 0.57968 0.15751 0.0
C13 C 0.4759 0.69191 0.12817 0.0
C14 C 0.35782 0.66502 0.15454 0.0
C15 C 0.42544 0.72215 0.13962 0.0
H16 H 0.31863 0.68821 0.16336 0.0
H17 H 0.43843 0.78927 0.13691 0.0
H18 H 0.91781 0.14473 0.15323 0.0
H19 H 0.26483 0.3099 0.19225 0.0
H20 H 0.82037 0.01367 0.17652 0.0
H21 H 0.528 0.73616 0.11656 0.0
H22 H 0.56282 0.61358 0.10978 0.0
H23 H 0.92006 0.5142 0.16202 0.0
H24 H 0.45896 0.32765 0.14433 0.0
H25 H 0.3521 0.2474 0.17555 0.0
H26 H 0.66331 0.11228 0.22459 0.0
H27 H 0.53715 0.46468 0.11974 0.0
H28 H 0.71452 0.40766 0.2128 0.0
H29 H 0.81397 0.53067 0.18697 0.0
N30 N 0.88205 0.38475 0.17426 0.0
C31 C 0.8249 0.31461 0.18736 0.0
C32 C 0.87695 0.46062 0.17336 0.0
C33 C 0.7608 0.40021 0.20192 0.0
C34 C 0.81693 0.4699 0.18738 0.0
C35 C 0.76368 0.32101 0.20188 0.0
H36 H 0.65968 0.25185 0.22702 0.0
N37 N 0.88485 0.23128 0.17102 0.0
C38 C 0.82745 0.23613 0.18599 0.0
C39 C 0.76773 0.08165 0.19614 0.0
C40 C 0.76797 0.16167 0.19911 0.0
C41 C 0.87972 0.15154 0.1668 0.0
C42 C 0.82278 0.07623 0.17964 0.0
O43 O 0.20857 0.5024 0.14406 0.0
O44 O 0.09486 0.36973 0.13138 0.0
O45 O 0.8705 0.2778 0.12959 0.0
O46 O 0.95004 0.41746 0.1214 0.0
O47 O 0.16187 0.56451 0.17846 0.0
O48 O 0.06424 0.51243 0.14753 0.0
O49 O 0.006 0.42073 0.18748 0.0
O50 O 0.10268 0.37791 0.19953 0.0
O51 O 0.24483 0.56233 0.21062 0.0
O52 O 0.33215 0.50923 0.20505 0.0
O53 O 0.05212 0.28474 0.15056 0.0
O54 O 0.13815 0.32845 0.18332 0.0
C55 C 0.17391 0.43985 0.12863 0.0
C56 C 0.11538 0.57494 0.16209 0.0
C57 C 0.80083 0.34455 0.10925 0.0
C58 C 0.71595 0.36373 0.07871 0.0
C59 C 0.65754 0.33055 0.11749 0.0
C60 C 0.73324 0.3288 0.12488 0.0
C61 C 0.64854 0.34747 0.09452 0.0
C62 C 0.79198 0.36224 0.08631 0.0
C63 C 0.88093 0.34197 0.11608 0.0
C64 C 0.70894 0.16861 0.21424 0.0
C65 C 0.70671 0.24804 0.2156 0.0
H66 H 0.72305 0.02293 0.20589 0.0
C67 C 0.03878 0.39442 0.20392 0.0
C68 C 0.09641 0.27101 0.16684 0.0
C69 C 0.28608 0.50993 0.24274 0.0
C70 C 0.2827 0.52859 0.28398 0.0
C71 C 0.22562 0.38115 0.26784 0.0
C72 C 0.24692 0.4177 0.24594 0.0
C73 C 0.243 0.43597 0.28675 0.0
C74 C 0.3036 0.56517 0.26178 0.0
C75 C 0.30491 0.5474 0.21947 0.0
H76 H 0.60553 0.31846 0.12959 0.0
H77 H 0.73862 0.31466 0.14265 0.0
H78 H 0.58946 0.34869 0.08917 0.0
H79 H 0.8439 0.37318 0.07425 0.0
H80 H 0.19471 0.30995 0.27015 0.0
H81 H 0.23172 0.37372 0.23147 0.0
H82 H 0.22466 0.40573 0.30356 0.0
H83 H 0.33435 0.63637 0.25929 0.0
C84 C 0.31009 0.76385 0.49829 0.0
C85 C 0.34879 0.66846 0.47704 0.0
C86 C 0.37322 0.74363 0.49077 0.0
C87 C 0.26031 0.61718 0.46977 0.0
C88 C 0.22013 0.70918 0.49235 0.0
C89 C 0.19602 0.63755 0.4774 0.0
N90 N 0.33558 0.83196 0.51317 0.0
C91 C 0.27347 0.84261 0.52478 0.0
C92 C 0.15681 0.72559 0.50252 0.0
C93 C 0.18345 0.7914 0.5192 0.0
Gd94 Gd 0.6067 0.15614 0.48393 0.0
Gd95 Gd 0.48927 0.92148 0.51926 0.0
N96 N 0.45765 0.79403 0.49833 0.0
C97 C 0.41327 0.6452 0.47187 0.0
C98 C 0.51929 0.76843 0.49474 0.0
C99 C 0.49843 0.69438 0.48115 0.0
H100 H 0.58531 0.80717 0.50173 0.0
H101 H 0.54807 0.6756 0.47775 0.0
H102 H 0.43802 0.20256 0.48563 0.0
H103 H 0.2935 0.89118 0.53827 0.0
H104 H 0.39489 0.2927 0.50878 0.0
H105 H 0.39723 0.58786 0.46138 0.0
H106 H 0.24033 0.55981 0.45894 0.0
H107 H 0.8227 0.23813 0.49253 0.0
H108 H 0.08698 0.68523 0.49842 0.0
H109 H 0.13469 0.80212 0.52792 0.0
H110 H 0.65025 0.46973 0.55526 0.0
H111 H 0.1274 0.59545 0.47239 0.0
H112 H 0.91038 0.44676 0.54198 0.0
H113 H 0.94284 0.35364 0.51625 0.0
N114 N 0.72431 0.26534 0.50524 0.0
C115 C 0.70601 0.31871 0.5183 0.0
C116 C 0.80857 0.27882 0.50376 0.0
C117 C 0.85775 0.39645 0.53161 0.0
C118 C 0.87637 0.34397 0.51712 0.0
C119 C 0.77197 0.3848 0.53218 0.0
H120 H 0.80017 0.48848 0.55679 0.0
N121 N 0.56045 0.24556 0.50308 0.0
C122 C 0.62119 0.30748 0.51747 0.0
C123 C 0.51701 0.35526 0.52785 0.0
C124 C 0.60069 0.36321 0.53045 0.0
C125 C 0.48201 0.24346 0.49899 0.0
C126 C 0.45812 0.29634 0.51171 0.0
O127 O 0.52288 0.92138 0.48195 0.0
O128 O 0.50379 0.03193 0.46597 0.0
O129 O 0.62 0.26063 0.46094 0.0
O130 O 0.68604 0.18662 0.45301 0.0
O131 O 0.63586 0.97819 0.51164 0.0
O132 O 0.68174 0.08195 0.48163 0.0
O133 O 0.65078 0.13973 0.51933 0.0
O134 O 0.5146 0.05079 0.53392 0.0
O135 O 0.57003 0.91862 0.54726 0.0
O136 O 0.42882 0.82787 0.5473 0.0
O137 O 0.45628 0.07488 0.48326 0.0
O138 O 0.42868 0.01049 0.51887 0.0
C139 C 0.50432 0.95673 0.46443 0.0
C140 C 0.69248 0.02768 0.49543 0.0
C141 C 0.75259 0.33371 0.43927 0.0
C142 C 0.851 0.41726 0.40761 0.0
C143 C 0.88083 0.47882 0.44603 0.0
C144 C 0.80546 0.40307 0.45425 0.0
C145 C 0.90373 0.48603 0.42288 0.0
C146 C 0.77515 0.34143 0.41607 0.0
C147 C 0.67384 0.25201 0.44716 0.0
C148 C 0.66516 0.42696 0.54501 0.0
C149 C 0.75062 0.43781 0.54584 0.0
H150 H 0.49867 0.39681 0.5375 0.0
C151 C 0.59661 0.11299 0.53677 0.0
C152 C 0.4022 0.0343 0.5005 0.0
C153 C 0.4967 0.88711 0.58257 0.0
C154 C 0.52138 0.88032 0.62338 0.0
C155 C 0.46241 0.97239 0.60925 0.0
C156 C 0.46482 0.94562 0.58694 0.0
C157 C 0.49082 0.94039 0.62739 0.0
C158 C 0.52485 0.8546 0.60078 0.0
C159 C 0.50193 0.86102 0.55903 0.0
H160 H 0.92184 0.53201 0.45766 0.0
H161 H 0.78855 0.3989 0.47217 0.0
H162 H 0.96319 0.54482 0.41703 0.0
H163 H 0.73262 0.28824 0.40457 0.0
H164 H 0.43794 0.0177 0.61251 0.0
H165 H 0.44186 0.97061 0.57311 0.0
H166 H 0.48667 0.96087 0.64459 0.0
H167 H 0.54962 0.80955 0.59732 0.0
C168 C 0.68916 0.77644 0.81994 0.0
C169 C 0.54605 0.72286 0.80173 0.0
C170 C 0.60301 0.70903 0.81617 0.0
C171 C 0.57857 0.80457 0.7903 0.0
C172 C 0.7208 0.86006 0.80939 0.0
C173 C 0.66586 0.87301 0.79408 0.0
N174 N 0.74001 0.7619 0.83504 0.0
C175 C 0.81913 0.83085 0.84221 0.0
C176 C 0.80551 0.92896 0.81517 0.0
C177 C 0.85415 0.91471 0.832 0.0
Gd178 Gd 0.77324 0.46952 0.81858 0.0
Gd179 Gd 0.67875 0.61597 0.84933 0.0
N180 N 0.57424 0.63031 0.82712 0.0
C181 C 0.4579 0.65438 0.79946 0.0
C182 C 0.48746 0.5648 0.82588 0.0
C183 C 0.42821 0.57545 0.81183 0.0
H184 H 0.46461 0.50377 0.83541 0.0
H185 H 0.35983 0.52277 0.81049 0.0
H186 H 0.99515 0.616 0.81612 0.0
H187 H 0.85479 0.82177 0.85606 0.0
H188 H 0.12935 0.64575 0.83726 0.0
H189 H 0.41199 0.66233 0.78852 0.0
H190 H 0.53626 0.81609 0.77885 0.0
H191 H 0.61856 0.26351 0.83228 0.0
H192 H 0.83231 0.9942 0.80745 0.0
H193 H 0.91801 0.96858 0.83736 0.0
H194 H 0.03027 0.397 0.88823 0.0
H195 H 0.68939 0.93643 0.78558 0.0
H196 H 0.72731 0.16336 0.88227 0.0
H197 H 0.60097 0.14285 0.85832 0.0
N198 N 0.75202 0.35112 0.84208 0.0
C199 C 0.8236 0.36208 0.85412 0.0
C200 C 0.67359 0.27267 0.8428 0.0
C201 C 0.73522 0.21627 0.87091 0.0
C202 C 0.66367 0.20445 0.85744 0.0
C203 C 0.81673 0.29543 0.86919 0.0
H204 H 0.88738 0.25926 0.89357 0.0
N205 N 0.90868 0.50145 0.83579 0.0
C206 C 0.9039 0.44013 0.85116 0.0
C207 C 0.06119 0.52925 0.85854 0.0
C208 C 0.97984 0.45286 0.86313 0.0
C209 C 0.98915 0.57236 0.83001 0.0
C210 C 0.06608 0.58842 0.84162 0.0
O211 O 0.6441 0.56968 0.81286 0.0
O212 O 0.77061 0.57926 0.79829 0.0
O213 O 0.84927 0.4357 0.79538 0.0
O214 O 0.70899 0.38323 0.78958 0.0
O215 O 0.58675 0.4669 0.84931 0.0
O216 O 0.62497 0.41215 0.81757 0.0
O217 O 0.72566 0.44584 0.85549 0.0
O218 O 0.77862 0.58857 0.86611 0.0
O219 O 0.59424 0.55878 0.87914 0.0
O220 O 0.66552 0.70101 0.87421 0.0
O221 O 0.85937 0.61936 0.8159 0.0
O222 O 0.8281 0.67202 0.84889 0.0
C223 C 0.7029 0.5927 0.79649 0.0
C224 C 0.56866 0.4058 0.83359 0.0
C225 C 0.77206 0.30039 0.77505 0.0
C226 C 0.74918 0.20068 0.74321 0.0
C227 C 0.77197 0.16245 0.78174 0.0
C228 C 0.7796 0.24138 0.79008 0.0
C229 C 0.75715 0.14215 0.75844 0.0
C230 C 0.75684 0.27974 0.75178 0.0
C231 C 0.78099 0.38481 0.78278 0.0
C232 C 0.97276 0.38795 0.87875 0.0
C233 C 0.89143 0.30939 0.88176 0.0
H234 H 0.12107 0.54148 0.86737 0.0
C235 C 0.75787 0.50735 0.8712 0.0
C236 C 0.8804 0.6813 0.8315 0.0
C237 C 0.65397 0.64673 0.91171 0.0
C238 C 0.62732 0.6253 0.95278 0.0
C239 C 0.7771 0.68728 0.9377 0.0
C240 C 0.74509 0.68108 0.91551 0.0
C241 C 0.7187 0.65913 0.95625 0.0
C242 C 0.5954 0.61901 0.93034 0.0
C243 C 0.61936 0.63582 0.88831 0.0
H244 H 0.77775 0.11693 0.79336 0.0
H245 H 0.79184 0.25646 0.80809 0.0
H246 H 0.75101 0.08046 0.75239 0.0
H247 H 0.75259 0.32649 0.74023 0.0
H248 H 0.84741 0.71382 0.94053 0.0
H249 H 0.79136 0.70245 0.90133 0.0
H250 H 0.7453 0.66558 0.97332 0.0
H251 H 0.52495 0.59163 0.92733 0.0
C252 C 0.15716 0.72494 0.17716 0.0
C253 C 0.12257 0.6625 0.15944 0.0
C254 C 0.15973 0.80612 0.175 0.0
C255 C 0.12796 0.82612 0.15504 0.0
C256 C 0.09705 0.7655 0.13697 0.0
C257 C 0.09355 0.68393 0.13921 0.0
C258 C 0.12523 0.90922 0.15275 0.0
C259 C 0.10468 0.94437 0.17052 0.0
C260 C 0.09928 0.0265 0.16895 0.0
C261 C 0.10663 0.07281 0.18916 0.0
C262 C 0.10416 0.15166 0.18851 0.0
C263 C 0.09425 0.18556 0.1676 0.0
H264 H 0.07623 0.0234 0.13224 0.0
C265 C 0.08364 0.13793 0.14745 0.0
C266 C 0.08581 0.05881 0.14809 0.0
H267 H 0.07487 0.16241 0.13116 0.0
H268 H 0.18077 0.71059 0.19285 0.0
H269 H 0.18657 0.85303 0.18894 0.0
H270 H 0.07325 0.78023 0.12136 0.0
H271 H 0.06763 0.6376 0.12512 0.0
H272 H 0.13676 0.93906 0.13587 0.0
H273 H 0.09234 0.9123 0.18718 0.0
H274 H 0.11562 0.04861 0.20548 0.0
H275 H 0.11069 0.18643 0.20437 0.0
C276 C 0.26614 0.01022 0.48025 0.0
C277 C 0.31456 0.02726 0.50057 0.0
C278 C 0.18125 9e-05 0.48054 0.0
C279 C 0.14433 0.00835 0.50118 0.0
C280 C 0.19336 0.02562 0.52144 0.0
C281 C 0.27794 0.03553 0.52113 0.0
C282 C 0.05485 0.99857 0.50246 0.0
C283 C 0.01519 0.01356 0.48462 0.0
C284 C 0.92967 0.01206 0.48693 0.0
C285 C 0.91278 0.06673 0.47259 0.0
C286 C 0.83541 0.07127 0.47521 0.0
C287 C 0.77291 0.0205 0.49216 0.0
H288 H 0.87503 0.91322 0.51411 0.0
C289 C 0.7884 0.96326 0.50598 0.0
C290 C 0.86575 0.95868 0.50331 0.0
H291 H 0.74118 0.92224 0.51898 0.0
H292 H 0.29309 0.00269 0.46426 0.0
H293 H 0.14454 0.98421 0.46469 0.0
H294 H 0.16642 0.03212 0.53755 0.0
H295 H 0.31468 0.04952 0.53699 0.0
H296 H 0.02381 0.98527 0.51921 0.0
H297 H 0.04965 0.03552 0.46836 0.0
H298 H 0.96061 0.10776 0.45968 0.0
H299 H 0.82538 0.1155 0.46409 0.0
C300 C 0.00756 0.81287 0.84962 0.0
C301 C 0.96755 0.76257 0.82997 0.0
C302 C 0.08778 0.89249 0.848 0.0
C303 C 0.12963 0.92277 0.82668 0.0
C304 C 0.09163 0.87051 0.80722 0.0
C305 C 0.01087 0.79125 0.8088 0.0
C306 C 0.21374 0.00768 0.8243 0.0
C307 C 0.2332 0.07883 0.83732 0.0
C308 C 0.31756 0.1644 0.83543 0.0
C309 C 0.34513 0.22287 0.85405 0.0
C310 C 0.42597 0.30246 0.85335 0.0
C311 C 0.48063 0.32499 0.83394 0.0
H312 H 0.35044 0.14805 0.8005 0.0
C313 C 0.45161 0.26807 0.81499 0.0
C314 C 0.3707 0.18896 0.81564 0.0
H315 H 0.49149 0.28439 0.79961 0.0
H316 H 0.97667 0.79089 0.86625 0.0
H317 H 0.11721 0.92955 0.86348 0.0
H318 H 0.12348 0.89207 0.79067 0.0
H319 H 0.98167 0.75329 0.79341 0.0
H320 H 0.25912 0.01118 0.81109 0.0
H321 H 0.18632 0.07394 0.85033 0.0
H322 H 0.30491 0.20609 0.86939 0.0
H323 H 0.44641 0.34516 0.8682 0.0
C324 C 0.57349 0.55167 0.99107 0.0
C325 C 0.56599 0.5995 0.97258 0.0
C326 C 0.51847 0.53154 0.01021 0.0
C327 C 0.45487 0.55912 0.01123 0.0
C328 C 0.44713 0.60628 0.99268 0.0
C329 C 0.50164 0.62582 0.97351 0.0
C330 C 0.39962 0.54543 0.03183 0.0
C331 C 0.37889 0.48036 0.04731 0.0
C332 C 0.32541 0.47073 0.06801 0.0
C333 C 0.27047 0.38593 0.07737 0.0
C334 C 0.21939 0.37538 0.09685 0.0
C335 C 0.22403 0.44979 0.10752 0.0
H336 H 0.37377 0.61179 0.07257 0.0
C337 C 0.27952 0.53458 0.09834 0.0
C338 C 0.33002 0.54513 0.07884 0.0
H339 H 0.28408 0.59293 0.10629 0.0
H340 H 0.62241 0.5304 0.9908 0.0
H341 H 0.52799 0.49692 0.02438 0.0
H342 H 0.3993 0.62899 0.99311 0.0
H343 H 0.49511 0.66386 0.95969 0.0
H344 H 0.37257 0.58951 0.03387 0.0
H345 H 0.39788 0.43039 0.04434 0.0
H346 H 0.26656 0.32772 0.06949 0.0
H347 H 0.17773 0.30936 0.10383 0.0
C348 C 0.86107 0.3476 0.37106 0.0
C349 C 0.87441 0.42351 0.38293 0.0
C350 C 0.87869 0.35152 0.3477 0.0
C351 C 0.91224 0.43221 0.33559 0.0
C352 C 0.92603 0.50826 0.34744 0.0
C353 C 0.9075 0.5041 0.37085 0.0
C354 C 0.93125 0.43883 0.31058 0.0
C355 C 0.94533 0.37948 0.29926 0.0
C356 C 0.96554 0.38409 0.27443 0.0
C357 C 0.00211 0.33329 0.26637 0.0
C358 C 0.02364 0.33541 0.24337 0.0
C359 C 0.00914 0.38843 0.22779 0.0
H360 H 0.91706 0.47283 0.26398 0.0
C361 C 0.96962 0.43707 0.23551 0.0
C362 C 0.94786 0.43496 0.25866 0.0
H363 H 0.9572 0.47804 0.22379 0.0
H364 H 0.83664 0.28457 0.37981 0.0
H365 H 0.86408 0.29041 0.3393 0.0
H366 H 0.951 0.57114 0.33856 0.0
H367 H 0.91738 0.56363 0.37935 0.0
H368 H 0.93734 0.4964 0.3016 0.0
H369 H 0.94678 0.32646 0.30876 0.0
H370 H 0.01524 0.29241 0.27798 0.0
H371 H 0.05226 0.29568 0.2378 0.0
C372 C 0.60768 0.60862 0.76728 0.0
C373 C 0.69266 0.63443 0.77569 0.0
C374 C 0.59727 0.65013 0.74803 0.0
C375 C 0.67196 0.71809 0.73674 0.0
C376 C 0.75694 0.74452 0.74535 0.0
C377 C 0.76733 0.70233 0.76454 0.0
C378 C 0.66266 0.76376 0.71634 0.0
C379 C 0.59616 0.72182 0.70123 0.0
C380 C 0.58351 0.7657 0.68092 0.0
C381 C 0.53543 0.71291 0.6623 0.0
C382 C 0.51727 0.75053 0.6434 0.0
C383 C 0.54592 0.8418 0.64283 0.0
H384 H 0.64857 0.89993 0.69454 0.0
C385 C 0.59449 0.89485 0.66143 0.0
C386 C 0.61327 0.85736 0.68028 0.0
H387 H 0.61726 0.96525 0.66151 0.0
H388 H 0.54917 0.55645 0.77567 0.0
H389 H 0.53063 0.62997 0.74231 0.0
H390 H 0.8154 0.79737 0.73711 0.0
H391 H 0.83352 0.724 0.77094 0.0
H392 H 0.71415 0.832 0.71321 0.0
H393 H 0.55025 0.65111 0.70332 0.0
H394 H 0.51099 0.64203 0.66245 0.0
H395 H 0.47841 0.70755 0.62953 0.0
C396 C 0.69221 0.40894 0.90538 0.0
C397 C 0.76197 0.48519 0.89525 0.0
C398 C 0.69255 0.39469 0.92897 0.0
C399 C 0.76375 0.45577 0.94255 0.0
C400 C 0.83544 0.52918 0.93203 0.0
C401 C 0.83396 0.54452 0.90867 0.0
C402 C 0.76691 0.44511 0.96763 0.0
C403 C 0.69438 0.40872 0.98117 0.0
C404 C 0.6992 0.40245 0.00649 0.0
C405 C 0.62474 0.33768 0.01848 0.0
C406 C 0.62882 0.32672 0.0421 0.0
C407 C 0.70752 0.3807 0.05419 0.0
H408 H 0.83354 0.51368 0.01066 0.0
C409 C 0.78036 0.44854 0.04242 0.0
C410 C 0.77616 0.45979 0.0189 0.0
H411 H 0.84106 0.49276 0.0514 0.0
H412 H 0.63614 0.36223 0.89524 0.0
H413 H 0.6375 0.33598 0.93647 0.0
H414 H 0.8915 0.57658 0.94205 0.0
H415 H 0.8887 0.60353 0.90111 0.0
H416 H 0.83241 0.472 0.97512 0.0
H417 H 0.62901 0.38165 0.97353 0.0
H418 H 0.56405 0.29369 0.00946 0.0
H419 H 0.57151 0.27397 0.05074 0.0
C420 C 0.33959 0.56961 0.32396 0.0
C421 C 0.30353 0.5864 0.30434 0.0
C422 C 0.35864 0.62273 0.3433 0.0
C423 C 0.34302 0.69485 0.34344 0.0
C424 C 0.30574 0.71093 0.32397 0.0
C425 C 0.2867 0.65764 0.30454 0.0
C426 C 0.36221 0.75216 0.3639 0.0
C427 C 0.42647 0.76571 0.37897 0.0
C428 C 0.4453 0.8175 0.40048 0.0
C429 C 0.49835 0.80737 0.41696 0.0
C430 C 0.51794 0.85327 0.43757 0.0
C431 C 0.4849 0.91056 0.44226 0.0
H432 H 0.37418 0.88811 0.3926 0.0
C433 C 0.43334 0.92261 0.42568 0.0
C434 C 0.41351 0.87645 0.40496 0.0
H435 H 0.40746 0.9669 0.42883 0.0
H436 H 0.3536 0.51543 0.32435 0.0
H437 H 0.38414 0.60583 0.3582 0.0
H438 H 0.29183 0.76519 0.32373 0.0
H439 H 0.25761 0.67135 0.2898 0.0
H440 H 0.32233 0.78356 0.36632 0.0
H441 H 0.46717 0.7356 0.37573 0.0
H442 H 0.52459 0.76327 0.41397 0.0
H443 H 0.56001 0.84463 0.44972 0.0
C444 C 0.67419 0.19861 0.70645 0.0
C445 C 0.73412 0.18119 0.71837 0.0
C446 C 0.66492 0.1879 0.6828 0.0
C447 C 0.71617 0.16024 0.67038 0.0
C448 C 0.77289 0.13863 0.68241 0.0
C449 C 0.78205 0.1492 0.70616 0.0
C450 C 0.70998 0.15094 0.64504 0.0
C451 C 0.6832 0.19628 0.63156 0.0
C452 C 0.66858 0.18164 0.60659 0.0
C453 C 0.60178 0.19323 0.59648 0.0
C454 C 0.5805 0.17341 0.57347 0.0
C455 C 0.62772 0.14459 0.55998 0.0
H456 H 0.77175 0.14857 0.59993 0.0
C457 C 0.69825 0.13812 0.56954 0.0
C458 C 0.71814 0.1557 0.59281 0.0
H459 H 0.73524 0.11576 0.5593 0.0
H460 H 0.63433 0.22081 0.71545 0.0
H461 H 0.61689 0.20075 0.67446 0.0
H462 H 0.81174 0.11536 0.67335 0.0
H463 H 0.82866 0.13501 0.71485 0.0
H464 H 0.72759 0.10492 0.63739 0.0
H465 H 0.66606 0.2427 0.63914 0.0
H466 H 0.56324 0.21393 0.60666 0.0
H467 H 0.5259 0.17887 0.56629 0.0
loop_
_geom_bond_atom_site_label_1
_geom_bond_atom_site_label_2
_geom_bond_distance
_geom_bond_site_symmetry_2
_ccdc_geom_bond_type
C0 C2 1.422 . S
C0 C4 1.415 . S
C0 N6 1.369 . S
C1 C2 1.421 . S
C1 C3 1.417 . S
C1 C13 1.422 . S
C2 C0 1.422 . S
C2 C1 1.421 . S
C2 N12 1.359 . S
C3 C1 1.417 . S
C3 C5 1.329 . S
C3 H22 0.930 . S
C4 C0 1.415 . S
C4 C5 1.437 . S
C4 C8 1.413 . S
C5 C3 1.329 . S
C5 C4 1.437 . S
C5 H27 0.929 . S
N6 C0 1.369 . S
N6 C7 1.338 . S
N6 Gd11 2.622 . S
C7 N6 1.338 . S
C7 C9 1.378 . S
C7 H19 0.929 . S
C8 C4 1.413 . S
C8 C9 1.348 . S
C8 H24 0.931 . S
C9 C7 1.378 . S
C9 C8 1.348 . S
C9 H25 0.930 . S
Gd10 N30 2.622 . S
Gd10 N37 2.570 . S
Gd10 O44 2.353 1_655 S
Gd10 O45 2.468 . S
Gd10 O46 2.427 . S
Gd10 O48 2.388 . S
Gd10 O49 2.386 . S
Gd10 O53 2.307 . S
Gd10 C63 2.805 . S
Gd11 N6 2.622 . S
Gd11 N12 2.570 . S
Gd11 O43 2.386 . S
Gd11 O47 2.307 . S
Gd11 O50 2.353 1_455 S
Gd11 O51 2.468 . S
Gd11 O52 2.427 . S
Gd11 O54 2.388 . S
Gd11 C75 2.805 . S
N12 C2 1.359 . S
N12 Gd11 2.570 . S
N12 C14 1.343 . S
C13 C1 1.422 . S
C13 C15 1.321 . S
C13 H21 0.931 . S
C14 N12 1.343 . S
C14 C15 1.390 . S
C14 H16 0.931 . S
C15 C13 1.321 . S
C15 C14 1.390 . S
C15 H17 0.930 . S
H16 C14 0.931 . S
H17 C15 0.930 . S
H18 C41 0.931 . S
H19 C7 0.929 . S
H20 C42 0.930 . S
H21 C13 0.931 . S
H22 C3 0.930 . S
H23 C32 0.929 . S
H24 C8 0.931 . S
H25 C9 0.930 . S
H26 C64 0.930 . S
H27 C5 0.929 . S
H28 C33 0.931 . S
H29 C34 0.930 . S
N30 Gd10 2.622 . S
N30 C31 1.369 . S
N30 C32 1.338 . S
C31 N30 1.369 . S
C31 C35 1.415 . S
C31 C38 1.422 . S
C32 H23 0.929 . S
C32 N30 1.338 . S
C32 C34 1.378 . S
C33 H28 0.931 . S
C33 C34 1.348 . S
C33 C35 1.413 . S
C34 H29 0.930 . S
C34 C32 1.378 . S
C34 C33 1.348 . S
C35 C31 1.415 . S
C35 C33 1.413 . S
C35 C65 1.437 . S
H36 C65 0.929 . S
N37 Gd10 2.570 . S
N37 C38 1.359 . S
N37 C41 1.343 . S
C38 C31 1.422 . S
C38 N37 1.359 . S
C38 C40 1.421 . S
C39 C40 1.422 . S
C39 C42 1.321 . S
C39 H66 0.931 . S
C40 C38 1.421 . S
C40 C39 1.422 . S
C40 C64 1.417 . S
C41 H18 0.931 . S
C41 N37 1.343 . S
C41 C42 1.390 . S
C42 H20 0.930 . S
C42 C39 1.321 . S
C42 C41 1.390 . S
O43 Gd11 2.386 . S
O43 C55 1.265 . S
O44 Gd10 2.353 1_455 S
O44 C55 1.242 . S
O45 Gd10 2.468 . S
O45 C63 1.263 . S
O46 Gd10 2.427 . S
O46 C63 1.252 . S
O47 Gd11 2.307 . S
O47 C56 1.261 . S
O48 Gd10 2.388 . S
O48 C56 1.252 1_655 S
O49 Gd10 2.386 . S
O49 C67 1.265 . S
O50 Gd11 2.353 1_655 S
O50 C67 1.242 . S
O51 Gd11 2.468 . S
O51 C75 1.263 . S
O52 Gd11 2.427 . S
O52 C75 1.252 . S
O53 Gd10 2.307 . S
O53 C68 1.261 . S
O54 Gd11 2.388 . S
O54 C68 1.252 1_455 S
C55 O43 1.265 . S
C55 O44 1.242 . S
C56 O47 1.261 . S
C56 O48 1.252 1_455 S
C57 C60 1.394 . S
C57 C62 1.370 . S
C57 C63 1.500 . S
C58 C61 1.383 . S
C58 C62 1.395 . S
C59 C60 1.396 . S
C59 C61 1.365 . S
C59 H76 0.929 . S
C60 C57 1.394 . S
C60 C59 1.396 . S
C60 H77 0.930 . S
C61 C58 1.383 . S
C61 C59 1.365 . S
C61 H78 0.931 . S
C62 C57 1.370 . S
C62 C58 1.395 . S
C62 H79 0.930 . S
C63 Gd10 2.805 . S
C63 O45 1.263 . S
C63 O46 1.252 . S
C63 C57 1.500 . S
C64 H26 0.930 . S
C64 C40 1.417 . S
C64 C65 1.329 . S
C65 C35 1.437 . S
C65 H36 0.929 . S
C65 C64 1.329 . S
H66 C39 0.931 . S
C67 O49 1.265 . S
C67 O50 1.242 . S
C68 O53 1.261 . S
C68 O54 1.252 1_655 S
C69 C72 1.394 . S
C69 C74 1.370 . S
C69 C75 1.500 . S
C70 C73 1.383 . S
C70 C74 1.395 . S
C71 C72 1.396 . S
C71 C73 1.365 . S
C71 H80 0.929 . S
C72 C69 1.394 . S
C72 C71 1.396 . S
C72 H81 0.930 . S
C73 C70 1.383 . S
C73 C71 1.365 . S
C73 H82 0.931 . S
C74 C69 1.370 . S
C74 C70 1.395 . S
C74 H83 0.930 . S
C75 Gd11 2.805 . S
C75 O51 1.263 . S
C75 O52 1.252 . S
C75 C69 1.500 . S
H76 C59 0.929 . S
H77 C60 0.930 . S
H78 C61 0.931 . S
H79 C62 0.930 . S
H80 C71 0.929 . S
H81 C72 0.930 . S
H82 C73 0.931 . S
H83 C74 0.930 . S
C84 C86 1.422 . S
C84 C88 1.415 . S
C84 N90 1.369 . S
C85 C86 1.421 . S
C85 C87 1.417 . S
C85 C97 1.422 . S
C86 C84 1.422 . S
C86 C85 1.421 . S
C86 N96 1.359 . S
C87 C85 1.417 . S
C87 C89 1.329 . S
C87 H106 0.930 . S
C88 C84 1.415 . S
C88 C89 1.437 . S
C88 C92 1.413 . S
C89 C87 1.329 . S
C89 C88 1.437 . S
C89 H111 0.929 . S
N90 C84 1.369 . S
N90 C91 1.338 . S
N90 Gd95 2.622 1_565 S
C91 N90 1.338 . S
C91 C93 1.378 . S
C91 H103 0.929 . S
C92 C88 1.413 . S
C92 C93 1.348 . S
C92 H108 0.931 . S
C93 C91 1.378 . S
C93 C92 1.348 . S
C93 H109 0.930 . S
Gd94 N114 2.622 . S
Gd94 N121 2.570 . S
Gd94 O128 2.353 . S
Gd94 O129 2.468 . S
Gd94 O130 2.427 . S
Gd94 O132 2.388 . S
Gd94 O133 2.386 . S
Gd94 O137 2.307 . S
Gd94 C147 2.805 . S
Gd95 N90 2.622 1_545 S
Gd95 N96 2.570 1_545 S
Gd95 O127 2.386 1_545 S
Gd95 O131 2.307 . S
Gd95 O134 2.353 . S
Gd95 O135 2.468 1_545 S
Gd95 O136 2.427 1_545 S
Gd95 O138 2.388 . S
Gd95 C159 2.805 1_545 S
N96 C86 1.359 . S
N96 Gd95 2.570 1_565 S
N96 C98 1.343 . S
C97 C85 1.422 . S
C97 C99 1.321 . S
C97 H105 0.931 . S
C98 N96 1.343 . S
C98 C99 1.390 . S
C98 H100 0.931 . S
C99 C97 1.321 . S
C99 C98 1.390 . S
C99 H101 0.930 . S
H100 C98 0.931 . S
H101 C99 0.930 . S
H102 C125 0.931 . S
H103 C91 0.929 . S
H104 C126 0.930 . S
H105 C97 0.931 . S
H106 C87 0.930 . S
H107 C116 0.935 1_655 S
H108 C92 0.931 . S
H109 C93 0.930 . S
H110 C148 0.930 . S
H111 C89 0.929 . S
H112 C117 0.931 . S
H113 C118 0.930 . S
N114 Gd94 2.622 . S
N114 C115 1.369 . S
N114 C116 1.323 1_655 S
C115 N114 1.369 . S
C115 C119 1.415 1_655 S
C115 C122 1.422 . S
C116 H107 0.935 1_455 S
C116 N114 1.323 1_455 S
C116 C118 1.388 . S
C117 H112 0.931 . S
C117 C118 1.348 . S
C117 C119 1.413 . S
C118 H113 0.930 . S
C118 C116 1.388 . S
C118 C117 1.348 . S
C119 C115 1.415 1_455 S
C119 C117 1.413 . S
C119 C149 1.437 . S
H120 C149 0.929 . S
N121 Gd94 2.570 . S
N121 C122 1.359 . S
N121 C125 1.343 . S
C122 C115 1.422 . S
C122 N121 1.359 . S
C122 C124 1.421 . S
C123 C124 1.422 . S
C123 C126 1.321 . S
C123 H150 0.931 . S
C124 C122 1.421 . S
C124 C123 1.422 . S
C124 C148 1.417 . S
C125 H102 0.931 . S
C125 N121 1.343 . S
C125 C126 1.390 . S
C126 H104 0.930 . S
C126 C123 1.321 . S
C126 C125 1.390 . S
O127 Gd95 2.386 1_565 S
O127 C139 1.265 1_565 S
O128 Gd94 2.353 . S
O128 C139 1.242 . S
O129 Gd94 2.468 . S
O129 C147 1.263 . S
O130 Gd94 2.427 . S
O130 C147 1.252 . S
O131 Gd95 2.307 . S
O131 C140 1.261 . S
O132 Gd94 2.388 . S
O132 C140 1.252 . S
O133 Gd94 2.386 . S
O133 C151 1.265 . S
O134 Gd95 2.353 . S
O134 C151 1.242 . S
O135 Gd95 2.468 1_565 S
O135 C159 1.263 . S
O136 Gd95 2.427 1_565 S
O136 C159 1.252 . S
O137 Gd94 2.307 . S
O137 C152 1.261 . S
O138 Gd95 2.388 . S
O138 C152 1.252 . S
C139 O127 1.265 1_545 S
C139 O128 1.242 . S
C140 O131 1.261 . S
C140 O132 1.252 . S
C141 C144 1.394 . S
C141 C146 1.370 . S
C141 C147 1.500 . S
C142 C145 1.383 . S
C142 C146 1.395 . S
C143 C144 1.396 . S
C143 C145 1.365 . S
C143 H160 0.929 . S
C144 C141 1.394 . S
C144 C143 1.396 . S
C144 H161 0.930 . S
C145 C142 1.383 . S
C145 C143 1.365 . S
C145 H162 0.931 . S
C146 C141 1.370 . S
C146 C142 1.395 . S
C146 H163 0.930 . S
C147 Gd94 2.805 . S
C147 O129 1.263 . S
C147 O130 1.252 . S
C147 C141 1.500 . S
C148 H110 0.930 . S
C148 C124 1.417 . S
C148 C149 1.329 1_655 S
C149 C119 1.437 . S
C149 H120 0.929 . S
C149 C148 1.329 1_455 S
H150 C123 0.931 . S
C151 O133 1.265 . S
C151 O134 1.242 . S
C152 O137 1.261 . S
C152 O138 1.252 . S
C153 C156 1.394 . S
C153 C158 1.370 . S
C153 C159 1.500 . S
C154 C157 1.383 . S
C154 C158 1.395 . S
C155 C156 1.396 . S
C155 C157 1.365 . S
C155 H164 0.929 . S
C156 C153 1.394 . S
C156 C155 1.396 . S
C156 H165 0.930 . S
C157 C154 1.383 . S
C157 C155 1.365 . S
C157 H166 0.931 . S
C158 C153 1.370 . S
C158 C154 1.395 . S
C158 H167 0.930 . S
C159 Gd95 2.805 1_565 S
C159 O135 1.263 . S
C159 O136 1.252 . S
C159 C153 1.500 . S
H160 C143 0.929 . S
H161 C144 0.930 . S
H162 C145 0.931 . S
H163 C146 0.930 . S
H164 C155 0.929 . S
H165 C156 0.930 . S
H166 C157 0.931 . S
H167 C158 0.930 . S
C168 C170 1.422 . S
C168 C172 1.415 . S
C168 N174 1.369 . S
C169 C170 1.421 . S
C169 C171 1.417 . S
C169 C181 1.422 . S
C170 C168 1.422 . S
C170 C169 1.421 . S
C170 N180 1.359 . S
C171 C169 1.417 . S
C171 C173 1.329 . S
C171 H190 0.930 . S
C172 C168 1.415 . S
C172 C173 1.437 . S
C172 C176 1.413 . S
C173 C171 1.329 . S
C173 C172 1.437 . S
C173 H195 0.929 . S
N174 C168 1.369 . S
N174 C175 1.338 . S
N174 Gd179 2.622 . S
C175 N174 1.338 . S
C175 C177 1.378 . S
C175 H187 0.929 . S
C176 C172 1.413 . S
C176 C177 1.348 . S
C176 H192 0.931 . S
C177 C175 1.378 . S
C177 C176 1.348 . S
C177 H193 0.930 . S
Gd178 N198 2.622 . S
Gd178 N205 2.570 . S
Gd178 O212 2.353 . S
Gd178 O213 2.468 . S
Gd178 O214 2.427 . S
Gd178 O216 2.388 . S
Gd178 O217 2.386 . S
Gd178 O221 2.307 . S
Gd178 C231 2.805 . S
Gd179 N174 2.622 . S
Gd179 N180 2.570 . S
Gd179 O211 2.386 . S
Gd179 O215 2.307 . S
Gd179 O218 2.353 . S
Gd179 O219 2.468 . S
Gd179 O220 2.427 . S
Gd179 O222 2.388 . S
Gd179 C243 2.805 . S
N180 C170 1.359 . S
N180 Gd179 2.570 . S
N180 C182 1.343 . S
C181 C169 1.422 . S
C181 C183 1.321 . S
C181 H189 0.931 . S
C182 N180 1.343 . S
C182 C183 1.390 . S
C182 H184 0.931 . S
C183 C181 1.321 . S
C183 C182 1.390 . S
C183 H185 0.930 . S
H184 C182 0.931 . S
H185 C183 0.930 . S
H186 C209 0.931 . S
H187 C175 0.929 . S
H188 C210 0.930 . S
H189 C181 0.931 . S
H190 C171 0.930 . S
H191 C200 0.929 . S
H192 C176 0.931 . S
H193 C177 0.930 . S
H194 C232 0.930 . S
H195 C173 0.929 . S
H196 C201 0.931 1_565 S
H197 C202 0.930 1_565 S
N198 Gd178 2.622 . S
N198 C199 1.369 . S
N198 C200 1.338 . S
C199 N198 1.369 . S
C199 C203 1.415 . S
C199 C206 1.422 . S
C200 H191 0.929 . S
C200 N198 1.338 . S
C200 C202 1.378 . S
C201 H196 0.931 1_545 S
C201 C202 1.348 . S
C201 C203 1.413 . S
C202 H197 0.930 1_545 S
C202 C200 1.378 . S
C202 C201 1.348 . S
C203 C199 1.415 . S
C203 C201 1.413 . S
C203 C233 1.437 . S
H204 C233 0.929 . S
N205 Gd178 2.570 . S
N205 C206 1.359 . S
N205 C209 1.343 . S
C206 C199 1.422 . S
C206 N205 1.359 . S
C206 C208 1.421 . S
C207 C208 1.422 . S
C207 C210 1.321 1_655 S
C207 H234 0.931 1_655 S
C208 C206 1.421 . S
C208 C207 1.422 . S
C208 C232 1.417 . S
C209 H186 0.931 . S
C209 N205 1.343 . S
C209 C210 1.390 1_655 S
C210 H188 0.930 . S
C210 C207 1.321 1_455 S
C210 C209 1.390 1_455 S
O211 Gd179 2.386 . S
O211 C223 1.265 . S
O212 Gd178 2.353 . S
O212 C223 1.242 . S
O213 Gd178 2.468 . S
O213 C231 1.263 . S
O214 Gd178 2.427 . S
O214 C231 1.252 . S
O215 Gd179 2.307 . S
O215 C224 1.261 . S
O216 Gd178 2.388 . S
O216 C224 1.252 . S
O217 Gd178 2.386 . S
O217 C235 1.265 . S
O218 Gd179 2.353 . S
O218 C235 1.242 . S
O219 Gd179 2.468 . S
O219 C243 1.263 . S
O220 Gd179 2.427 . S
O220 C243 1.252 . S
O221 Gd178 2.307 . S
O221 C236 1.261 . S
O222 Gd179 2.388 . S
O222 C236 1.252 . S
C223 O211 1.265 . S
C223 O212 1.242 . S
C224 O215 1.261 . S
C224 O216 1.252 . S
C225 C228 1.394 . S
C225 C230 1.370 . S
C225 C231 1.500 . S
C226 C229 1.383 . S
C226 C230 1.395 . S
C227 C228 1.396 . S
C227 C229 1.365 . S
C227 H244 0.929 . S
C228 C225 1.394 . S
C228 C227 1.396 . S
C228 H245 0.930 . S
C229 C226 1.383 . S
C229 C227 1.365 . S
C229 H246 0.931 . S
C230 C225 1.370 . S
C230 C226 1.395 . S
C230 H247 0.930 . S
C231 Gd178 2.805 . S
C231 O213 1.263 . S
C231 O214 1.252 . S
C231 C225 1.500 . S
C232 H194 0.930 . S
C232 C208 1.417 . S
C232 C233 1.329 . S
C233 C203 1.437 . S
C233 H204 0.929 . S
C233 C232 1.329 . S
H234 C207 0.931 1_455 S
C235 O217 1.265 . S
C235 O218 1.242 . S
C236 O221 1.261 . S
C236 O222 1.252 . S
C237 C240 1.394 . S
C237 C242 1.370 . S
C237 C243 1.500 . S
C238 C241 1.383 . S
C238 C242 1.395 . S
C239 C240 1.396 . S
C239 C241 1.365 . S
C239 H248 0.929 . S
C240 C237 1.394 . S
C240 C239 1.396 . S
C240 H249 0.930 . S
C241 C238 1.383 . S
C241 C239 1.365 . S
C241 H250 0.931 . S
C242 C237 1.370 . S
C242 C238 1.395 . S
C242 H251 0.930 . S
C243 Gd179 2.805 . S
C243 O219 1.263 . S
C243 O220 1.252 . S
C243 C237 1.500 . S
H244 C227 0.929 . S
H245 C228 0.930 . S
H246 C229 0.931 . S
H247 C230 0.930 . S
H248 C239 0.929 . S
H249 C240 0.930 . S
H250 C241 0.931 . S
H251 C242 0.930 . S
C252 C253 1.386 1_655 S
C252 C254 1.383 . S
C252 H268 0.951 . S
C253 C252 1.386 1_455 S
C253 C257 1.383 . S
C254 C252 1.383 . S
C254 C255 1.402 1_655 S
C254 H269 0.951 . S
C255 C254 1.402 1_455 S
C255 C256 1.375 . S
C255 C258 1.481 . S
C256 C255 1.375 . S
C256 C257 1.367 . S
C256 H270 0.951 . S
C257 C253 1.383 . S
C257 C256 1.367 . S
C257 H271 0.950 . S
C258 C255 1.481 . S
C258 C259 1.297 1_455 S
C258 H272 0.950 . S
C259 C258 1.297 1_655 S
C259 C260 1.479 1_565 S
C259 H273 0.950 . S
C260 C259 1.479 1_545 S
C260 C261 1.375 . S
C260 C266 1.404 1_655 S
C261 C260 1.375 . S
C261 C262 1.369 . S
C261 H274 0.950 1_545 S
C262 C261 1.369 . S
C262 C263 1.392 . S
C262 H275 0.951 . S
C263 C262 1.392 . S
C263 C265 1.384 1_655 S
H264 C266 0.949 . S
C265 C263 1.384 1_455 S
C265 C266 1.385 . S
C265 H267 0.950 . S
C266 C260 1.404 1_455 S
C266 H264 0.949 . S
C266 C265 1.385 . S
H267 C265 0.950 . S
H268 C252 0.951 . S
H269 C254 0.951 . S
H270 C256 0.951 . S
H271 C257 0.950 . S
H272 C258 0.950 . S
H273 C259 0.950 . S
H274 C261 0.950 1_565 S
H275 C262 0.951 . S
C276 C277 1.386 . S
C276 C278 1.383 . S
C276 H292 0.951 . S
C277 C276 1.386 . S
C277 C281 1.383 . S
C278 C276 1.383 . S
C278 C279 1.402 . S
C278 H293 0.951 . S
C279 C278 1.402 . S
C279 C280 1.375 . S
C279 C282 1.481 . S
C280 C279 1.375 . S
C280 C281 1.367 . S
C280 H294 0.951 . S
C281 C277 1.383 . S
C281 C280 1.367 . S
C281 H295 0.950 . S
C282 C279 1.481 . S
C282 C283 1.297 . S
C282 H296 0.950 . S
C283 C282 1.297 . S
C283 C284 1.479 . S
C283 H297 0.950 . S
C284 C283 1.479 . S
C284 C285 1.375 1_455 S
C284 C290 1.404 . S
C285 C284 1.375 1_655 S
C285 C286 1.369 . S
C285 H298 0.950 1_545 S
C286 C285 1.369 . S
C286 C287 1.392 . S
C286 H299 0.951 1_545 S
C287 C286 1.392 . S
C287 C289 1.384 . S
H288 C290 0.949 . S
C289 C287 1.384 . S
C289 C290 1.385 1_655 S
C289 H291 0.950 . S
C290 C284 1.404 . S
C290 H288 0.949 . S
C290 C289 1.385 1_455 S
H291 C289 0.950 . S
H292 C276 0.951 . S
H293 C278 0.951 . S
H294 C280 0.951 . S
H295 C281 0.950 . S
H296 C282 0.950 . S
H297 C283 0.950 . S
H298 C285 0.950 1_565 S
H299 C286 0.951 1_565 S
C300 C301 1.386 . S
C300 C302 1.383 1_655 S
C300 H316 0.951 . S
C301 C300 1.386 . S
C301 C305 1.383 1_655 S
C302 C300 1.383 1_455 S
C302 C303 1.402 . S
C302 H317 0.951 . S
C303 C302 1.402 . S
C303 C304 1.375 . S
C303 C306 1.481 . S
C304 C303 1.375 . S
C304 C305 1.367 . S
C304 H318 0.951 . S
C305 C301 1.383 1_455 S
C305 C304 1.367 . S
C305 H319 0.950 1_455 S
C306 C303 1.481 . S
C306 C307 1.297 . S
C306 H320 0.950 . S
C307 C306 1.297 . S
C307 C308 1.479 1_565 S
C307 H321 0.950 . S
C308 C307 1.479 1_545 S
C308 C309 1.375 . S
C308 C314 1.404 . S
C309 C308 1.375 . S
C309 C310 1.369 . S
C309 H322 0.950 . S
C310 C309 1.369 . S
C310 C311 1.392 . S
C310 H323 0.951 . S
C311 C310 1.392 . S
C311 C313 1.384 . S
H312 C314 0.949 . S
C313 C311 1.384 . S
C313 C314 1.385 . S
C313 H315 0.950 . S
C314 C308 1.404 . S
C314 H312 0.949 . S
C314 C313 1.385 . S
H315 C313 0.950 . S
H316 C300 0.951 . S
H317 C302 0.951 . S
H318 C304 0.951 . S
H319 C305 0.950 1_655 S
H320 C306 0.950 . S
H321 C307 0.950 . S
H322 C309 0.950 . S
H323 C310 0.951 . S
C324 C325 1.386 . S
C324 C326 1.338 1_556 S
C324 H340 0.951 . S
C325 C324 1.386 . S
C325 C329 1.383 . S
C326 C324 1.338 1_554 S
C326 C327 1.422 . S
C326 H341 0.977 . S
C327 C326 1.422 . S
C327 C328 1.375 1_554 S
C327 C330 1.481 . S
C328 C327 1.375 1_556 S
C328 C329 1.367 . S
C328 H342 0.951 1_556 S
C329 C325 1.383 . S
C329 C328 1.367 . S
C329 H343 0.950 . S
C330 C327 1.481 . S
C330 C331 1.297 . S
C330 H344 0.950 . S
C331 C330 1.297 . S
C331 C332 1.479 . S
C331 H345 0.950 . S
C332 C331 1.479 . S
C332 C333 1.375 . S
C332 C338 1.404 . S
C333 C332 1.375 . S
C333 C334 1.369 . S
C333 H346 0.950 . S
C334 C333 1.369 . S
C334 C335 1.392 . S
C334 H347 0.951 . S
C335 C334 1.392 . S
C335 C337 1.384 . S
H336 C338 0.949 . S
C337 C335 1.384 . S
C337 C338 1.385 . S
C337 H339 0.950 . S
C338 C332 1.404 . S
C338 H336 0.949 . S
C338 C337 1.385 . S
H339 C337 0.950 . S
H340 C324 0.951 . S
H341 C326 0.977 . S
H342 C328 0.951 1_554 S
H343 C329 0.950 . S
H344 C330 0.950 . S
H345 C331 0.950 . S
H346 C333 0.950 . S
H347 C334 0.951 . S
C348 C349 1.386 . S
C348 C350 1.383 . S
C348 H364 0.951 . S
C349 C348 1.386 . S
C349 C353 1.383 . S
C350 C348 1.383 . S
C350 C351 1.402 . S
C350 H365 0.951 . S
C351 C350 1.402 . S
C351 C352 1.375 . S
C351 C354 1.481 . S
C352 C351 1.375 . S
C352 C353 1.367 . S
C352 H366 0.951 . S
C353 C349 1.383 . S
C353 C352 1.367 . S
C353 H367 0.950 . S
C354 C351 1.481 . S
C354 C355 1.297 . S
C354 H368 0.950 . S
C355 C354 1.297 . S
C355 C356 1.479 . S
C355 H369 0.950 . S
C356 C355 1.479 . S
C356 C357 1.375 . S
C356 C362 1.404 . S
C357 C356 1.375 . S
C357 C358 1.369 . S
C357 H370 0.950 . S
C358 C357 1.369 . S
C358 C359 1.392 . S
C358 H371 0.951 . S
C359 C358 1.392 . S
C359 C361 1.384 . S
H360 C362 0.949 . S
C361 C359 1.384 . S
C361 C362 1.385 . S
C361 H363 0.950 . S
C362 C356 1.404 . S
C362 H360 0.949 . S
C362 C361 1.385 . S
H363 C361 0.950 . S
H364 C348 0.951 . S
H365 C350 0.951 . S
H366 C352 0.951 . S
H367 C353 0.950 . S
H368 C354 0.950 . S
H369 C355 0.950 . S
H370 C357 0.950 . S
H371 C358 0.951 . S
C372 C373 1.386 . S
C372 C374 1.383 . S
C372 H388 0.951 . S
C373 C372 1.386 . S
C373 C377 1.383 . S
C374 C372 1.383 . S
C374 C375 1.402 . S
C374 H389 0.951 . S
C375 C374 1.402 . S
C375 C376 1.375 . S
C375 C378 1.481 . S
C376 C375 1.375 . S
C376 C377 1.367 . S
C376 H390 0.951 . S
C377 C373 1.383 . S
C377 C376 1.367 . S
C377 H391 0.950 . S
C378 C375 1.481 . S
C378 C379 1.297 . S
C378 H392 0.950 . S
C379 C378 1.297 . S
C379 C380 1.479 . S
C379 H393 0.950 . S
C380 C379 1.479 . S
C380 C381 1.375 . S
C380 C386 1.404 . S
C381 C380 1.375 . S
C381 C382 1.369 . S
C381 H394 0.950 . S
C382 C381 1.369 . S
C382 C383 1.392 . S
C382 H395 0.951 . S
C383 C382 1.392 . S
C383 C385 1.384 . S
H384 C386 0.949 . S
C385 C383 1.384 . S
C385 C386 1.385 . S
C385 H387 0.950 . S
C386 C380 1.404 . S
C386 H384 0.949 . S
C386 C385 1.385 . S
H387 C385 0.950 . S
H388 C372 0.951 . S
H389 C374 0.951 . S
H390 C376 0.951 . S
H391 C377 0.950 . S
H392 C378 0.950 . S
H393 C379 0.950 . S
H394 C381 0.950 . S
H395 C382 0.951 . S
C396 C397 1.386 . S
C396 C398 1.383 . S
C396 H412 0.951 . S
C397 C396 1.386 . S
C397 C401 1.383 . S
C398 C396 1.383 . S
C398 C399 1.402 . S
C398 H413 0.951 . S
C399 C398 1.402 . S
C399 C400 1.375 . S
C399 C402 1.481 . S
C400 C399 1.375 . S
C400 C401 1.367 . S
C400 H414 0.951 . S
C401 C397 1.383 . S
C401 C400 1.367 . S
C401 H415 0.950 . S
C402 C399 1.481 . S
C402 C403 1.297 . S
C402 H416 0.950 . S
C403 C402 1.297 . S
C403 C404 1.479 . S
C403 H417 0.950 . S
C404 C403 1.479 . S
C404 C405 1.375 1_556 S
C404 C410 1.387 1_556 S
C405 C404 1.375 1_554 S
C405 C406 1.369 . S
C405 H418 0.952 1_554 S
C406 C405 1.369 . S
C406 C407 1.392 . S
C406 H419 0.951 . S
C407 C406 1.392 . S
C407 C409 1.384 . S
H408 C410 0.921 1_556 S
C409 C407 1.384 . S
C409 C410 1.431 . S
C409 H411 0.950 . S
C410 C404 1.387 1_554 S
C410 H408 0.921 1_554 S
C410 C409 1.431 . S
H411 C409 0.950 . S
H412 C396 0.951 . S
H413 C398 0.951 . S
H414 C400 0.951 . S
H415 C401 0.950 . S
H416 C402 0.950 . S
H417 C403 0.950 . S
H418 C405 0.952 1_556 S
H419 C406 0.951 . S
C420 C421 1.386 . S
C420 C422 1.383 . S
C420 H436 0.951 . S
C421 C420 1.386 . S
C421 C425 1.383 . S
C422 C420 1.383 . S
C422 C423 1.402 . S
C422 H437 0.951 . S
C423 C422 1.402 . S
C423 C424 1.375 . S
C423 C426 1.481 . S
C424 C423 1.375 . S
C424 C425 1.367 . S
C424 H438 0.951 . S
C425 C421 1.383 . S
C425 C424 1.367 . S
C425 H439 0.950 . S
C426 C423 1.481 . S
C426 C427 1.297 . S
C426 H440 0.950 . S
C427 C426 1.297 . S
C427 C428 1.479 . S
C427 H441 0.950 . S
C428 C427 1.479 . S
C428 C429 1.375 . S
C428 C434 1.404 1_565 S
C429 C428 1.375 . S
C429 C430 1.369 . S
C429 H442 0.950 . S
C430 C429 1.369 . S
C430 C431 1.392 . S
C430 H443 0.951 . S
C431 C430 1.392 . S
C431 C433 1.384 1_565 S
H432 C434 0.949 . S
C433 C431 1.384 1_545 S
C433 C434 1.385 . S
C433 H435 0.950 . S
C434 C428 1.404 1_545 S
C434 H432 0.949 . S
C434 C433 1.385 . S
H435 C433 0.950 . S
H436 C420 0.951 . S
H437 C422 0.951 . S
H438 C424 0.951 . S
H439 C425 0.950 . S
H440 C426 0.950 . S
H441 C427 0.950 . S
H442 C429 0.950 . S
H443 C430 0.951 . S
C444 C445 1.386 . S
C444 C446 1.383 . S
C444 H460 0.951 . S
C445 C444 1.386 . S
C445 C449 1.383 1_655 S
C446 C444 1.383 . S
C446 C447 1.402 . S
C446 H461 0.951 . S
C447 C446 1.402 . S
C447 C448 1.375 . S
C447 C450 1.481 . S
C448 C447 1.375 . S
C448 C449 1.367 1_655 S
C448 H462 0.951 1_655 S
C449 C445 1.383 1_455 S
C449 C448 1.367 1_455 S
C449 H463 0.950 . S
C450 C447 1.481 . S
C450 C451 1.297 . S
C450 H464 0.950 . S
C451 C450 1.297 . S
C451 C452 1.479 . S
C451 H465 0.950 . S
C452 C451 1.479 . S
C452 C453 1.375 . S
C452 C458 1.404 . S
C453 C452 1.375 . S
C453 C454 1.369 . S
C453 H466 0.950 . S
C454 C453 1.369 . S
C454 C455 1.392 . S
C454 H467 0.951 . S
C455 C454 1.392 . S
C455 C457 1.384 . S
H456 C458 0.949 . S
C457 C455 1.384 . S
C457 C458 1.385 . S
C457 H459 0.950 . S
C458 C452 1.404 . S
C458 H456 0.949 . S
C458 C457 1.385 . S
H459 C457 0.950 . S
H460 C444 0.951 . S
H461 C446 0.951 . S
H462 C448 0.951 1_455 S
H463 C449 0.950 . S
H464 C450 0.950 . S
H465 C451 0.950 . S
H466 C453 0.950 . S
H467 C454 0.951 . S
C253 C56 1.493 . S
C263 C68 1.415 . S
C277 C152 1.455 . S
C287 C140 1.514 . S
C301 C236 1.483 . S
C311 C224 1.492 . S
C325 C238 1.440 . S
C335 C55 1.591 . S
C349 C142 0.998 . S
C359 C67 1.263 . S
C373 C223 1.615 . S
C383 C154 1.395 . S
C397 C235 1.237 . S
C407 C58 1.061 . S
C421 C70 1.519 . S
C431 C139 1.632 1_565 S
C445 C226 1.005 . S
C455 C151 1.245 . S
