# Generated by pormake.
# Topology sra, (4)-cn, num edge types: 1
# Building blocks:
#     Node 0, Type 0, BuildingBlock: TATPOV_clean_sbu_0, # of connection points: 4
#     Node 1, Type 0, BuildingBlock: TATPOV_clean_sbu_0, # of connection points: 4
#     Node 2, Type 0, BuildingBlock: TATPOV_clean_sbu_0, # of connection points: 4
#     Node 3, Type 0, BuildingBlock: TATPOV_clean_sbu_0, # of connection points: 4
#     Node 4, Type 0, BuildingBlock: TATPOV_clean_sbu_0, # of connection points: 4
#     Node 5, Type 0, BuildingBlock: TATPOV_clean_sbu_0, # of connection points: 4
#     Node 6, Type 0, BuildingBlock: TATPOV_clean_sbu_0, # of connection points: 4
#     Node 7, Type 0, BuildingBlock: TATPOV_clean_sbu_0, # of connection points: 4
#     Edge 8, Type (0, 0), BuildingBlock: UVAHIK_clean_linker_0, # of connection points: 2
#     Edge 9, Type (0, 0), BuildingBlock: UVAHIK_clean_linker_0, # of connection points: 2
#     Edge 10, Type (0, 0), BuildingBlock: UVAHIK_clean_linker_0, # of connection points: 2
#     Edge 11, Type (0, 0), BuildingBlock: UVAHIK_clean_linker_0, # of connection points: 2
#     Edge 12, Type (0, 0), BuildingBlock: UVAHIK_clean_linker_0, # of connection points: 2
#     Edge 13, Type (0, 0), BuildingBlock: UVAHIK_clean_linker_0, # of connection points: 2
#     Edge 14, Type (0, 0), BuildingBlock: UVAHIK_clean_linker_0, # of connection points: 2
#     Edge 15, Type (0, 0), BuildingBlock: UVAHIK_clean_linker_0, # of connection points: 2
#     Edge 16, Type (0, 0), BuildingBlock: UVAHIK_clean_linker_0, # of connection points: 2
#     Edge 17, Type (0, 0), BuildingBlock: UVAHIK_clean_linker_0, # of connection points: 2
#     Edge 18, Type (0, 0), BuildingBlock: UVAHIK_clean_linker_0, # of connection points: 2
#     Edge 19, Type (0, 0), BuildingBlock: UVAHIK_clean_linker_0, # of connection points: 2
#     Edge 20, Type (0, 0), BuildingBlock: UVAHIK_clean_linker_0, # of connection points: 2
#     Edge 21, Type (0, 0), BuildingBlock: UVAHIK_clean_linker_0, # of connection points: 2
#     Edge 22, Type (0, 0), BuildingBlock: UVAHIK_clean_linker_0, # of connection points: 2
#     Edge 23, Type (0, 0), BuildingBlock: UVAHIK_clean_linker_0, # of connection points: 2
# Relax obj value: 0.056
# Max RMSD: 0.068
# Mean RMSD: 0.068
data_MOF--net-sra--node1-TATPOV_clean_sbu_0--edge1-UVAHIK_clean_linker_0
_symmetry_space_group_name_H-M    P1
_symmetry_Int_Tables_number       1
_symmetry_cell_setting            triclinic
loop_
_symmetry_equiv_pos_as_xyz
'x, y, z'
_cell_length_a     35.313187
_cell_length_b     58.153729
_cell_length_c     52.694525
_cell_angle_alpha  89.847429
_cell_angle_beta   89.737496
_cell_angle_gamma 90.759458
loop_
_atom_site_label
_atom_site_type_symbol
_atom_site_fract_x
_atom_site_fract_y
_atom_site_fract_z
_atom_type_partial_charge
Zn0 Zn -0.00019 0.08844 0.2202 0.0
Zn1 Zn 0.00176 0.06714 0.17613 0.0
O2 O 0.05109 0.05627 0.19393 0.0
O3 O 0.04982 0.07558 0.22981 0.0
O4 O 0.00059 0.04955 0.14279 0.0
O5 O 0.9532 0.07178 0.23145 0.0
O6 O 0.95122 0.05622 0.19344 0.0
C7 C 0.06595 0.06143 0.21527 0.0
C8 C -0.00134 0.11992 0.17827 0.0
O9 O 0.00279 0.10163 0.16525 0.0
O10 O -0.00446 0.11877 0.20217 0.0
C11 C 0.02558 0.05179 0.12543 0.0
O12 O 0.05409 0.06616 0.12894 0.0
C13 C 0.93674 0.05899 0.21547 0.0
Zn14 Zn 0.01465 0.38757 0.21819 0.0
Zn15 Zn 0.01134 0.40781 0.17342 0.0
O16 O 0.9597 0.41584 0.19058 0.0
O17 O 0.96235 0.39733 0.22703 0.0
O18 O 0.0097 0.42355 0.13877 0.0
O19 O 0.05741 0.40767 0.22912 0.0
O20 O 0.0594 0.42244 0.19057 0.0
C21 C 0.94471 0.41017 0.21185 0.0
C22 C 0.0223 0.35537 0.17774 0.0
O23 O 0.01608 0.37316 0.16422 0.0
O24 O 0.02448 0.35709 0.20163 0.0
C25 C -0.00617 0.44283 0.13528 0.0
O26 O -0.02212 0.45309 0.15469 0.0
C27 C 0.07264 0.4211 0.21305 0.0
Zn28 Zn 7e-05 0.88875 0.79569 0.0
Zn29 Zn 0.00788 0.90888 0.83993 0.0
O30 O 0.05678 0.91839 0.81974 0.0
O31 O 0.04994 0.90044 0.78326 0.0
O32 O 0.01417 0.92573 0.8735 0.0
O33 O 0.95467 0.90685 0.78725 0.0
O34 O 0.95724 0.92191 0.82552 0.0
C35 C 0.06895 0.91363 0.79752 0.0
C36 C -0.00202 0.85635 0.83678 0.0
O37 O 0.0047 0.87422 0.85014 0.0
O38 O -0.00591 0.85814 0.81299 0.0
C39 C -0.01041 0.9239 0.89117 0.0
O40 O 0.95972 0.9106 0.88762 0.0
C41 C 0.94096 0.91986 0.80401 0.0
Zn42 Zn -0.00017 0.58934 0.79441 0.0
Zn43 Zn 0.0026 0.56841 0.83859 0.0
O44 O 0.95262 0.55587 0.82203 0.0
O45 O 0.95442 0.57134 0.78385 0.0
O46 O 0.0047 0.55134 0.87241 0.0
O47 O 0.0506 0.57798 0.78425 0.0
O48 O 0.05252 0.55875 0.82025 0.0
C49 C 0.93842 0.55824 0.79991 0.0
C50 C -0.00422 0.62112 0.83557 0.0
O51 O 0.00079 0.60303 0.84886 0.0
O52 O -0.00662 0.61973 0.81167 0.0
C53 C -0.0166 0.55686 0.89092 0.0
O54 O 0.95973 0.57389 0.88797 0.0
C55 C 0.06735 0.56419 0.79885 0.0
Zn56 Zn 0.50063 0.5838 0.71816 0.0
Zn57 Zn 0.50396 0.5652 0.67287 0.0
O58 O 0.55353 0.5542 0.69075 0.0
O59 O 0.55028 0.57109 0.72807 0.0
O60 O 0.50478 0.54954 0.63825 0.0
O61 O 0.45471 0.56591 0.72797 0.0
O62 O 0.45315 0.55265 0.68885 0.0
C63 C 0.56736 0.55814 0.71271 0.0
C64 C 0.49864 0.61767 0.67856 0.0
O65 O 0.50326 0.60023 0.66426 0.0
O66 O 0.49583 0.61507 0.70235 0.0
C67 C 0.53507 0.54615 0.62568 0.0
O68 O 0.56755 0.55319 0.63515 0.0
C69 C 0.43871 0.55392 0.71108 0.0
Zn70 Zn 0.50254 0.88756 0.72167 0.0
Zn71 Zn 0.50956 0.90722 0.67691 0.0
O72 O 0.45862 0.91961 0.69165 0.0
O73 O 0.45621 0.90488 0.73016 0.0
O74 O 0.51376 0.92389 0.64297 0.0
O75 O 0.55186 0.9004 0.73334 0.0
O76 O 0.55834 0.91777 0.69633 0.0
C77 C 0.4422 0.91754 0.7132 0.0
C78 C 0.50179 0.85461 0.68123 0.0
O79 O 0.50765 0.87239 0.66742 0.0
O80 O 0.49805 0.85667 0.70502 0.0
C81 C 0.48871 0.92073 0.62599 0.0
O82 O 0.46077 0.90614 0.63057 0.0
C83 C 0.57051 0.91357 0.71866 0.0
Zn84 Zn 0.49708 0.38748 0.29305 0.0
Zn85 Zn 0.50187 0.40742 0.3378 0.0
O86 O 0.55301 0.41653 0.31997 0.0
O87 O 0.54794 0.39948 0.28281 0.0
O88 O 0.50344 0.42374 0.37205 0.0
O89 O 0.45227 0.40544 0.28301 0.0
O90 O 0.45319 0.42105 0.32102 0.0
C91 C 0.56649 0.41201 0.29802 0.0
C92 C 0.49188 0.35484 0.33377 0.0
O93 O 0.49735 0.37266 0.34744 0.0
O94 O 0.49 0.35672 0.30987 0.0
C95 C 0.53381 0.42742 0.38441 0.0
O96 O 0.56609 0.42038 0.37492 0.0
C97 C 0.43806 0.4189 0.29913 0.0
Zn98 Zn 0.493 0.08541 0.29601 0.0
Zn99 Zn 0.49814 0.06612 0.34095 0.0
O100 O 0.44805 0.05235 0.32565 0.0
O101 O 0.44846 0.06618 0.28666 0.0
O102 O 0.50243 0.04952 0.37487 0.0
O103 O 0.54358 0.07446 0.28521 0.0
O104 O 0.54801 0.05696 0.32219 0.0
C105 C 0.43347 0.05351 0.30354 0.0
C106 C 0.48888 0.11841 0.33635 0.0
O107 O 0.495 0.10088 0.3503 0.0
O108 O 0.48591 0.11615 0.31255 0.0
C109 C 0.47992 0.05335 0.39327 0.0
O110 O 0.4534 0.06877 0.3904 0.0
C111 C 0.56156 0.06166 0.30022 0.0
C112 C 0.00568 0.32636 0.14408 0.0
C113 C 0.02565 0.33232 0.16617 0.0
C114 C 0.00476 0.30349 0.13565 0.0
C115 C 0.05075 0.24678 0.14295 0.0
H116 H 0.94887 0.22133 0.13967 0.0
C117 C 0.97525 0.15999 0.17705 0.0
C118 C -0.00236 0.14283 0.16612 0.0
C119 C -0.02269 0.18257 0.16818 0.0
C120 C -0.02248 0.22821 0.14009 0.0
H121 H 0.0623 0.31945 0.19573 0.0
H122 H 0.06132 0.2799 0.18083 0.0
H123 H 0.95844 0.26302 0.13999 0.0
H124 H 0.0388 0.13562 0.13672 0.0
H125 H 0.04337 0.17565 0.12155 0.0
H126 H 0.06966 0.21194 0.14453 0.0
C127 C 0.04618 0.29271 0.17005 0.0
C128 C -0.01698 0.25207 0.14011 0.0
C129 C 0.0465 0.31535 0.17872 0.0
C130 C 0.02113 0.14853 0.14538 0.0
C131 C 0.02383 0.17138 0.1368 0.0
C132 C 0.04527 0.22291 0.14265 0.0
C133 C 0.02453 0.28637 0.14884 0.0
C134 C 0.01959 0.26159 0.14265 0.0
C135 C 0.00233 0.18867 0.14842 0.0
C136 C 0.00849 0.2134 0.14233 0.0
H137 H -0.01074 0.3391 0.1341 0.0
H138 H -0.01214 0.29907 0.11922 0.0
H139 H 0.07927 0.25366 0.14472 0.0
H140 H 0.9568 0.15605 0.19301 0.0
H141 H 0.96075 0.19551 0.17774 0.0
C142 C 0.9695 0.81712 0.83688 0.0
C143 C -0.00632 0.83329 0.84843 0.0
C144 C 0.96718 0.7946 0.84582 0.0
C145 C 0.02356 0.75061 0.87459 0.0
H146 H 0.92779 0.71719 0.87367 0.0
C147 C 0.01247 0.65046 0.86904 0.0
C148 C -0.00825 0.64397 0.84743 0.0
C149 C 0.01118 0.6732 0.87798 0.0
C150 C 0.95475 0.72628 0.87436 0.0
H151 H 0.03383 0.83873 0.87885 0.0
H152 H 0.03058 0.79866 0.89423 0.0
H153 H 0.92824 0.75915 0.87394 0.0
H154 H 0.95201 0.65566 0.81911 0.0
H155 H 0.94905 0.69477 0.8349 0.0
H156 H 0.05001 0.7176 0.87338 0.0
C157 C 0.01311 0.80372 0.87838 0.0
C158 C 0.95501 0.75028 0.87451 0.0
C159 C 0.01486 0.82659 0.86968 0.0
C160 C 0.96843 0.66019 0.83573 0.0
C161 C 0.96651 0.68257 0.84491 0.0
C162 C 0.02329 0.72649 0.87447 0.0
C163 C -0.01062 0.78748 0.86637 0.0
C164 C -0.01061 0.7627 0.87332 0.0
C165 C -0.01169 0.68949 0.86583 0.0
C166 C -0.01115 0.71416 0.87306 0.0
H167 H 0.9527 0.82179 0.82055 0.0
H168 H 0.94907 0.78246 0.83589 0.0
H169 H 0.05048 0.75973 0.87358 0.0
H170 H 0.03079 0.63827 0.87833 0.0
H171 H 0.02833 0.67813 0.89411 0.0
C172 C 0.47336 0.65723 0.68109 0.0
C173 C 0.49537 0.64116 0.66799 0.0
C174 C 0.47169 0.67996 0.67286 0.0
C175 C 0.52714 0.72458 0.64264 0.0
H176 H 0.43231 0.75731 0.64671 0.0
C177 C 0.518 0.82486 0.64818 0.0
C178 C 0.49801 0.83136 0.67011 0.0
C179 C 0.51632 0.80197 0.63964 0.0
C180 C 0.459 0.74842 0.64516 0.0
H181 H 0.53251 0.63621 0.63569 0.0
H182 H 0.53048 0.67665 0.62156 0.0
H183 H 0.43172 0.71536 0.6463 0.0
H184 H 0.45931 0.81939 0.69951 0.0
H185 H 0.45581 0.78004 0.68449 0.0
H186 H 0.55445 0.75779 0.64315 0.0
C187 C 0.51415 0.67132 0.63806 0.0
C188 C 0.45866 0.72443 0.64493 0.0
C189 C 0.5152 0.64825 0.64606 0.0
C190 C 0.47522 0.8149 0.68264 0.0
C191 C 0.47295 0.79236 0.6739 0.0
C192 C 0.52748 0.74871 0.64289 0.0
C193 C 0.49242 0.68739 0.6515 0.0
C194 C 0.49275 0.71225 0.64491 0.0
C195 C 0.49381 0.7855 0.65254 0.0
C196 C 0.49345 0.7608 0.64541 0.0
H197 H 0.45762 0.65228 0.69798 0.0
H198 H 0.45514 0.69197 0.68384 0.0
H199 H 0.55384 0.71563 0.6427 0.0
H200 H 0.53589 0.83721 0.63822 0.0
H201 H 0.53276 0.7971 0.62316 0.0
C202 C 0.46399 0.31544 0.33266 0.0
C203 C 0.48689 0.33171 0.34516 0.0
C204 C 0.46116 0.2929 0.3415 0.0
C205 C 0.51507 0.24903 0.37257 0.0
H206 H 0.41944 0.21563 0.36906 0.0
C207 C 0.50444 0.14877 0.36899 0.0
C208 C 0.48451 0.14164 0.34728 0.0
C209 C 0.50277 0.17175 0.37712 0.0
C210 C 0.44634 0.22471 0.37043 0.0
H211 H 0.52428 0.33727 0.3771 0.0
H212 H 0.52016 0.29718 0.39233 0.0
H213 H 0.41997 0.25759 0.36854 0.0
H214 H 0.44581 0.15253 0.31792 0.0
H215 H 0.44232 0.19205 0.33224 0.0
H216 H 0.54152 0.216 0.37284 0.0
C217 C 0.50406 0.30218 0.37581 0.0
C218 C 0.44664 0.24871 0.37014 0.0
C219 C 0.50629 0.32507 0.36719 0.0
C220 C 0.46164 0.15752 0.33463 0.0
C221 C 0.45939 0.18016 0.34298 0.0
C222 C 0.51477 0.2249 0.37284 0.0
C223 C 0.48158 0.28586 0.3629 0.0
C224 C 0.48107 0.26111 0.36997 0.0
C225 C 0.48036 0.18769 0.36403 0.0
C226 C 0.48046 0.21255 0.37053 0.0
H227 H 0.44859 0.32007 0.3157 0.0
H228 H 0.44405 0.2807 0.33091 0.0
H229 H 0.54203 0.25813 0.37237 0.0
H230 H 0.52241 0.13688 0.37902 0.0
H231 H 0.51927 0.17712 0.39339 0.0
C232 C 0.36649 0.04201 0.31354 0.0
C233 C 0.39784 0.04145 0.29714 0.0
C234 C 0.33039 0.03597 0.30458 0.0
C235 C 0.28017 0.03634 0.24351 0.0
H236 H 0.19545 0.01418 0.28409 0.0
C237 C 0.1269 0.04073 0.20645 0.0
C238 C 0.10205 0.05125 0.22364 0.0
C239 C 0.16233 0.03307 0.21462 0.0
C240 C 0.2189 0.02031 0.27248 0.0
H241 H 0.41713 0.03194 0.25959 0.0
H242 H 0.35477 0.02043 0.24433 0.0
H243 H 0.25973 0.01156 0.30077 0.0
H244 H 0.09402 0.06079 0.2631 0.0
H245 H 0.15529 0.04764 0.27713 0.0
H246 H 0.23941 0.04581 0.21563 0.0
C247 C 0.35745 0.02635 0.26372 0.0
C248 C 0.25569 0.01887 0.28207 0.0
C249 C 0.39323 0.03274 0.27251 0.0
C250 C 0.11259 0.05296 0.24928 0.0
C251 C 0.14764 0.04516 0.25743 0.0
C252 C 0.24348 0.0377 0.23392 0.0
C253 C 0.32529 0.02902 0.27918 0.0
C254 C 0.28671 0.0274 0.26795 0.0
C255 C 0.17326 0.03554 0.24016 0.0
C256 C 0.21233 0.0303 0.24857 0.0
H257 H 0.36936 0.04885 0.33255 0.0
H258 H 0.30628 0.03834 0.31702 0.0
H259 H 0.30317 0.0435 0.23222 0.0
H260 H 0.11951 0.0391 0.1866 0.0
H261 H 0.18143 0.02559 0.20089 0.0
C262 C 0.63433 0.42293 0.30657 0.0
C263 C 0.60389 0.42088 0.28967 0.0
C264 C 0.67095 0.42768 0.29734 0.0
C265 C 0.72593 0.42141 0.23774 0.0
H266 H 0.80487 0.45279 0.27557 0.0
C267 C 0.88037 0.42568 0.2013 0.0
C268 C 0.90668 0.41821 0.21935 0.0
C269 C 0.84335 0.43104 0.20875 0.0
C270 C 0.78303 0.44406 0.26476 0.0
H271 H 0.58698 0.42417 0.25036 0.0
H272 H 0.65005 0.4334 0.23448 0.0
H273 H 0.73962 0.45329 0.29124 0.0
H274 H 0.9155 0.41181 0.2595 0.0
H275 H 0.85147 0.4212 0.27234 0.0
H276 H 0.76935 0.41186 0.21153 0.0
C277 C 0.64636 0.43039 0.25464 0.0
C278 C 0.74569 0.44423 0.2738 0.0
C279 C 0.61012 0.42527 0.26376 0.0
C280 C 0.89582 0.41731 0.24506 0.0
C281 C 0.85917 0.42291 0.2525 0.0
C282 C 0.76311 0.4214 0.22864 0.0
C283 C 0.67753 0.43079 0.27111 0.0
C284 C 0.71675 0.43255 0.26063 0.0
C285 C 0.83227 0.42938 0.23441 0.0
C286 C 0.7922 0.43232 0.24229 0.0
H287 H 0.63025 0.41957 0.32663 0.0
H288 H 0.69426 0.42773 0.31061 0.0
H289 H 0.70468 0.41181 0.22729 0.0
H290 H 0.88795 0.4266 0.18138 0.0
H291 H 0.8232 0.43612 0.19442 0.0
C292 C 0.11028 0.92556 0.76138 0.0
C293 C 0.10509 0.92327 0.78772 0.0
C294 C 0.14532 0.93221 0.75135 0.0
C295 C 0.24132 0.95496 0.7676 0.0
H296 H 0.27133 0.91755 0.71028 0.0
C297 C 0.3947 0.93213 0.74395 0.0
C298 C 0.40555 0.92851 0.71859 0.0
C299 C 0.3578 0.9384 0.74998 0.0
C300 C 0.26323 0.92858 0.72586 0.0
H301 H 0.13195 0.92724 0.82433 0.0
H302 H 0.19399 0.93813 0.80675 0.0
H303 H 0.20689 0.91497 0.72612 0.0
H304 H 0.3871 0.93024 0.6795 0.0
H305 H 0.32203 0.94111 0.69008 0.0
H306 H 0.2986 0.96766 0.76793 0.0
C307 C 0.17067 0.9352 0.79384 0.0
C308 C 0.22617 0.92708 0.73504 0.0
C309 C 0.13523 0.92885 0.80395 0.0
C310 C 0.37946 0.93288 0.6992 0.0
C311 C 0.34223 0.93895 0.70528 0.0
C312 C 0.27856 0.95638 0.75845 0.0
C313 C 0.17634 0.93636 0.76736 0.0
C314 C 0.21488 0.93991 0.75633 0.0
C315 C 0.33075 0.94103 0.7308 0.0
C316 C 0.29011 0.94281 0.73781 0.0
H317 H 0.08733 0.9218 0.7484 0.0
H318 H 0.1483 0.93354 0.73093 0.0
H319 H 0.23343 0.96536 0.78375 0.0
H320 H 0.41433 0.9291 0.75931 0.0
H321 H 0.34991 0.93966 0.76981 0.0
C322 C 0.63386 0.54498 0.70443 0.0
C323 C 0.60319 0.54784 0.7211 0.0
C324 C 0.66945 0.5389 0.71392 0.0
C325 C 0.72283 0.54395 0.77373 0.0
H326 H 0.79923 0.50964 0.73755 0.0
C327 C 0.87495 0.54081 0.81124 0.0
C328 C 0.90203 0.54716 0.79284 0.0
C329 C 0.83822 0.53431 0.8039 0.0
C330 C 0.77811 0.5192 0.74792 0.0
H331 H 0.5845 0.54452 0.7602 0.0
H332 H 0.6457 0.53316 0.77649 0.0
H333 H 0.73455 0.51065 0.72119 0.0
H334 H 0.91294 0.54977 0.75236 0.0
H335 H 0.8494 0.53863 0.7397 0.0
H336 H 0.76634 0.55314 0.79998 0.0
C337 C 0.64304 0.53646 0.75634 0.0
C338 C 0.74112 0.51985 0.73849 0.0
C339 C 0.60789 0.54285 0.74698 0.0
C340 C 0.89257 0.54521 0.76703 0.0
C341 C 0.85615 0.5386 0.75973 0.0
C342 C 0.75965 0.54324 0.78316 0.0
C343 C 0.67466 0.53532 0.74015 0.0
C344 C 0.71319 0.53259 0.75106 0.0
C345 C 0.82814 0.53385 0.77805 0.0
C346 C 0.78795 0.53128 0.77011 0.0
H347 H 0.63092 0.54875 0.6844 0.0
H348 H 0.69322 0.53825 0.7009 0.0
H349 H 0.70236 0.55432 0.7837 0.0
H350 H 0.88145 0.54208 0.83126 0.0
H351 H 0.81734 0.53046 0.81847 0.0
C352 C 0.63664 0.92918 0.71189 0.0
C353 C 0.60617 0.92387 0.72817 0.0
C354 C 0.67176 0.93598 0.72194 0.0
C355 C 0.72581 0.92933 0.78123 0.0
H356 H 0.79872 0.96961 0.7477 0.0
C357 C 0.87813 0.93557 0.81765 0.0
C358 C 0.90471 0.93118 0.79844 0.0
C359 C 0.84106 0.94165 0.81131 0.0
C360 C 0.77856 0.95841 0.75736 0.0
H361 H 0.58742 0.92345 0.76743 0.0
H362 H 0.64781 0.93594 0.78476 0.0
H363 H 0.73403 0.96675 0.73151 0.0
H364 H 0.91459 0.93183 0.75778 0.0
H365 H 0.85049 0.94234 0.74682 0.0
H366 H 0.77037 0.92036 0.8065 0.0
C367 C 0.64535 0.93405 0.76438 0.0
C368 C 0.74158 0.95668 0.748 0.0
C369 C 0.61066 0.92697 0.75443 0.0
C370 C 0.89456 0.93488 0.773 0.0
C371 C 0.85782 0.94111 0.76671 0.0
C372 C 0.76261 0.93111 0.79059 0.0
C373 C 0.67674 0.93786 0.7484 0.0
C374 C 0.71498 0.94174 0.75952 0.0
C375 C 0.83021 0.94367 0.7857 0.0
C376 C 0.7897 0.94523 0.77843 0.0
H377 H 0.63391 0.92695 0.69158 0.0
H378 H 0.69539 0.93866 0.70906 0.0
H379 H 0.70639 0.91732 0.79036 0.0
H380 H 0.88523 0.93287 0.8374 0.0
H381 H 0.82046 0.94378 0.82639 0.0
C382 C 0.39646 0.53437 0.74229 0.0
C383 C 0.40214 0.54284 0.71757 0.0
C384 C 0.36016 0.52874 0.75098 0.0
C385 C 0.25868 0.52272 0.73208 0.0
H386 H 0.24163 0.54939 0.79851 0.0
C387 C 0.1151 0.55691 0.7649 0.0
C388 C 0.10401 0.55463 0.79047 0.0
C389 C 0.15042 0.54941 0.75673 0.0
C390 C 0.24591 0.54138 0.7802 0.0
H391 H 0.3749 0.55062 0.68194 0.0
H392 H 0.31096 0.54144 0.6973 0.0
H393 H 0.30569 0.54662 0.78212 0.0
H394 H 0.1209 0.54189 0.82736 0.0
H395 H 0.18327 0.52893 0.81304 0.0
H396 H 0.19839 0.51857 0.72986 0.0
C397 C 0.33461 0.53869 0.70989 0.0
C398 C 0.28275 0.53976 0.77073 0.0
C399 C 0.37122 0.54397 0.70103 0.0
C400 C 0.12869 0.54397 0.80757 0.0
C401 C 0.16438 0.53661 0.79939 0.0
C402 C 0.22173 0.52445 0.74154 0.0
C403 C 0.32854 0.53192 0.73532 0.0
C404 C 0.28961 0.53085 0.74633 0.0
C405 C 0.17576 0.53953 0.77391 0.0
C406 C 0.21491 0.5343 0.76547 0.0
H407 H 0.41999 0.53312 0.75533 0.0
H408 H 0.35672 0.52293 0.77041 0.0
H409 H 0.26294 0.51544 0.7134 0.0
H410 H 0.09671 0.56488 0.75114 0.0
H411 H 0.15843 0.55223 0.73709 0.0
C412 C 0.62792 0.04838 0.30837 0.0
C413 C 0.59801 0.05228 0.29152 0.0
C414 C 0.66374 0.04247 0.29903 0.0
C415 C 0.71999 0.04877 0.24001 0.0
H416 H 0.79318 0.01217 0.2762 0.0
C417 C 0.87289 0.04274 0.2038 0.0
C418 C 0.89957 0.04874 0.22241 0.0
C419 C 0.83567 0.0369 0.21082 0.0
C420 C 0.77293 0.02235 0.26582 0.0
H421 H 0.581 0.05114 0.25205 0.0
H422 H 0.64259 0.04002 0.23595 0.0
H423 H 0.72789 0.01384 0.29175 0.0
H424 H 0.90916 0.05141 0.26295 0.0
H425 H 0.84466 0.04126 0.27508 0.0
H426 H 0.76499 0.05775 0.21448 0.0
C427 C 0.63918 0.04241 0.2562 0.0
C428 C 0.73561 0.0234 0.2748 0.0
C429 C 0.60379 0.04868 0.26545 0.0
C430 C 0.88912 0.04711 0.24814 0.0
C431 C 0.85219 0.04108 0.25513 0.0
C432 C 0.75709 0.0476 0.23099 0.0
C433 C 0.67 0.04003 0.27273 0.0
C434 C 0.70884 0.03698 0.26224 0.0
C435 C 0.8247 0.03668 0.23655 0.0
C436 C 0.78419 0.03476 0.24405 0.0
H437 H 0.62415 0.05104 0.32856 0.0
H438 H 0.68686 0.0409 0.31232 0.0
H439 H 0.70049 0.0598 0.23008 0.0
H440 H 0.88016 0.04379 0.18384 0.0
H441 H 0.81513 0.03334 0.19609 0.0
C442 C 0.11059 0.44082 0.2462 0.0
C443 C 0.10701 0.43391 0.2208 0.0
C444 C 0.14546 0.44828 0.25562 0.0
C445 C 0.2455 0.463 0.23834 0.0
H446 H 0.26654 0.43101 0.30131 0.0
C447 C 0.39297 0.43288 0.26655 0.0
C448 C 0.40287 0.43095 0.29228 0.0
C449 C 0.35746 0.4408 0.25952 0.0
C450 C 0.26109 0.44059 0.28409 0.0
H451 H 0.13626 0.43092 0.18482 0.0
H452 H 0.19783 0.44338 0.20141 0.0
H453 H 0.20251 0.43129 0.28506 0.0
H454 H 0.3842 0.43735 0.3308 0.0
H455 H 0.32163 0.45129 0.31848 0.0
H456 H 0.30477 0.47136 0.23696 0.0
C457 C 0.17352 0.44343 0.214 0.0
C458 C 0.22423 0.44074 0.27468 0.0
C459 C 0.13829 0.43625 0.20445 0.0
C460 C 0.37731 0.43856 0.31084 0.0
C461 C 0.34145 0.44641 0.30377 0.0
C462 C 0.2825 0.46285 0.24779 0.0
C463 C 0.17778 0.44859 0.23998 0.0
C464 C 0.21608 0.45143 0.25137 0.0
C465 C 0.33077 0.44696 0.27803 0.0
C466 C 0.2909 0.45107 0.27041 0.0
H467 H 0.08672 0.43945 0.25914 0.0
H468 H 0.14745 0.45274 0.27552 0.0
H469 H 0.24012 0.4717 0.22055 0.0
H470 H 0.41219 0.42738 0.25174 0.0
H471 H 0.35021 0.44075 0.23957 0.0
C472 C 0.04982 0.04102 0.08217 0.0
C473 C 0.02239 0.03849 0.10145 0.0
C474 C 0.04672 0.02861 0.05951 0.0
C475 C -0.02294 -0.00296 0.01972 0.0
H476 H 0.06644 0.97108 0.98855 0.0
C477 C 0.96708 0.93447 0.93484 0.0
C478 C -0.00584 0.93681 0.91531 0.0
C479 C 0.97092 0.94681 0.95748 0.0
C480 C 0.04124 0.97843 0.99682 0.0
H481 H 0.97023 0.02071 0.11197 0.0
H482 H 0.965 -0.00104 0.07262 0.0
H483 H 0.07234 -0.00738 0.02802 0.0
H484 H 0.04667 0.95399 0.90443 0.0
H485 H 0.05317 0.97568 0.9438 0.0
H486 H 0.94594 0.98291 0.98854 0.0
C487 C -0.0113 0.01078 0.07486 0.0
C488 C 0.04462 -0.0092 0.01949 0.0
C489 C -0.00817 0.02317 0.09752 0.0
C490 C 0.02531 0.95172 0.91907 0.0
C491 C 0.02915 0.96407 0.94174 0.0
C492 C 0.97367 0.98469 0.99705 0.0
C493 C 0.01607 0.01335 0.05552 0.0
C494 C 0.01256 0.00024 0.03128 0.0
C495 C 0.00194 0.96184 0.96122 0.0
C496 C 0.0057 0.97517 0.98531 0.0
H497 H 0.0737 0.05269 0.08449 0.0
H498 H 0.06808 0.03125 0.04495 0.0
H499 H 0.95184 0.00439 0.02798 0.0
H500 H 0.9428 0.92309 0.93268 0.0
H501 H 0.94971 0.94435 0.97218 0.0
C502 C 0.00803 0.52495 0.91855 0.0
C503 C -0.01495 0.54434 0.91554 0.0
C504 C 0.00915 0.51318 0.94179 0.0
C505 C 0.95528 0.50542 1.00227 0.0
H506 H 0.05008 0.48157 0.02735 0.0
C507 C 0.97255 0.47386 0.10557 0.0
C508 C -0.00689 0.45365 0.10968 0.0
C509 C 0.97162 0.48413 0.08154 0.0
C510 C 0.02329 0.48791 0.0205 0.0
H511 H 0.94557 0.56666 0.93484 0.0
H512 H 0.94804 0.54652 0.97529 0.0
H513 H 0.04852 0.50097 0.98624 0.0
H514 H 0.029 0.42846 0.09159 0.0
H515 H 0.02742 0.44645 0.04962 0.0
H516 H 0.93018 0.49263 0.03668 0.0
C517 C 0.96465 0.54004 0.9596 0.0
C518 C 0.02236 0.49902 0.99687 0.0
C519 C 0.96342 0.55172 0.93638 0.0
C520 C 0.01288 0.44402 0.08913 0.0
C521 C 0.01214 0.4544 0.06509 0.0
C522 C 0.95626 0.49443 0.02591 0.0
C523 C -0.0126 0.52055 0.96265 0.0
C524 C -0.01163 0.50808 0.98749 0.0
C525 C -0.00861 0.47455 0.06097 0.0
C526 C -0.0097 0.48565 0.03542 0.0
H527 H 0.02498 0.51874 0.90288 0.0
H528 H 0.02667 0.4981 0.94328 0.0
H529 H 0.9284 0.5117 0.99551 0.0
H530 H 0.95703 0.48179 0.12093 0.0
H531 H 0.95576 0.4998 0.07915 0.0
C532 C 0.56684 0.44511 0.42185 0.0
C533 C 0.53295 0.43957 0.40922 0.0
C534 C 0.56626 0.45653 0.4452 0.0
C535 C 0.50506 0.49217 0.48674 0.0
H536 H 0.57791 0.47557 0.53825 0.0
C537 C 0.49925 0.5276 0.58972 0.0
C538 C 0.53393 0.5341 0.60082 0.0
C539 C 0.49842 0.51608 0.56638 0.0
C540 C 0.5576 0.48059 0.52399 0.0
H541 H 0.47176 0.44173 0.41141 0.0
H542 H 0.4707 0.46129 0.45231 0.0
H543 H 0.57758 0.4554 0.49781 0.0
H544 H 0.59494 0.53359 0.59589 0.0
H545 H 0.59346 0.5136 0.55532 0.0
H546 H 0.48497 0.51727 0.51312 0.0
C547 C 0.49784 0.45714 0.44398 0.0
C548 C 0.55743 0.46902 0.50073 0.0
C549 C 0.49842 0.44577 0.42055 0.0
C550 C 0.56771 0.52883 0.58797 0.0
C551 C 0.56688 0.51722 0.56474 0.0
C552 C 0.50513 0.50367 0.51007 0.0
C553 C 0.53176 0.46266 0.45666 0.0
C554 C 0.53131 0.47472 0.48169 0.0
C555 C 0.53224 0.51065 0.55365 0.0
C556 C 0.53155 0.49812 0.52896 0.0
H557 H 0.59398 0.44073 0.41366 0.0
H558 H 0.593 0.46081 0.45411 0.0
H559 H 0.48488 0.49729 0.47246 0.0
H560 H 0.47268 0.53136 0.59907 0.0
H561 H 0.47126 0.5111 0.55852 0.0
C562 C 0.46265 0.92975 0.58291 0.0
C563 C 0.49002 0.93385 0.60173 0.0
C564 C 0.46286 0.94253 0.56038 0.0
C565 C 0.52344 0.98033 0.51967 0.0
H566 H 0.42691 -0.00099 0.49219 0.0
C567 C 0.50946 0.02263 0.42021 0.0
C568 C 0.48284 0.04023 0.41743 0.0
C569 C 0.51135 0.00991 0.44279 0.0
C570 C 0.45417 -0.00586 0.49967 0.0
H571 H 0.5394 0.95455 0.61136 0.0
H572 H 0.5395 0.97704 0.57216 0.0
H573 H 0.4285 0.97672 0.53128 0.0
H574 H 0.43779 0.05849 0.43652 0.0
H575 H 0.44144 0.03661 0.47587 0.0
H576 H 0.5491 -0.00177 0.48828 0.0
C577 C 0.5181 0.96372 0.5747 0.0
C578 C 0.45506 0.98105 0.52197 0.0
C579 C 0.51793 0.95089 0.59727 0.0
C580 C 0.45851 0.04498 0.4379 0.0
C581 C 0.46044 0.03231 0.46046 0.0
C582 C 0.52255 -0.00655 0.49733 0.0
C583 C 0.49038 0.95983 0.55603 0.0
C584 C 0.48968 0.97391 0.53227 0.0
C585 C 0.4867 0.01448 0.46318 0.0
C586 C 0.48788 0.00054 0.48702 0.0
H587 H 0.44085 0.91668 0.58559 0.0
H588 H 0.44147 0.93873 0.54628 0.0
H589 H 0.55061 0.97499 0.52689 0.0
H590 H 0.5286 0.01846 0.40483 0.0
H591 H 0.53165 -0.00384 0.44405 0.0
loop_
_geom_bond_atom_site_label_1
_geom_bond_atom_site_label_2
_geom_bond_distance
_geom_bond_site_symmetry_2
_ccdc_geom_bond_type
Zn0 O3 2.031 . S
Zn0 O5 2.049 1_455 S
Zn0 O10 2.067 . S
Zn1 O2 1.962 . S
Zn1 O4 1.986 1_455 S
Zn1 O6 1.996 1_455 S
Zn1 O9 1.943 . S
O2 Zn1 1.962 . S
O2 C7 1.254 . S
O3 Zn0 2.031 . S
O3 C7 1.269 . S
O4 Zn1 1.986 1_655 S
O4 C11 1.262 1_655 S
O5 Zn0 2.049 1_655 S
O5 C13 1.260 . S
O6 Zn1 1.996 1_655 S
O6 C13 1.257 . S
C7 O2 1.254 . S
C7 O3 1.269 . S
C8 O9 1.249 . S
C8 O10 1.270 . S
O9 Zn1 1.943 . S
O9 C8 1.249 . S
O10 Zn0 2.067 . S
O10 C8 1.270 . S
C11 O4 1.262 1_455 S
C11 O12 1.232 . S
O12 C11 1.232 . S
C13 O5 1.260 . S
C13 O6 1.257 . S
Zn14 O17 2.031 1_455 S
Zn14 O19 2.049 . S
Zn14 O24 2.067 . S
Zn15 O16 1.962 1_455 S
Zn15 O18 1.986 . S
Zn15 O20 1.996 . S
Zn15 O23 1.943 . S
O16 Zn15 1.962 1_655 S
O16 C21 1.254 . S
O17 Zn14 2.031 1_655 S
O17 C21 1.269 . S
O18 Zn15 1.986 . S
O18 C25 1.262 . S
O19 Zn14 2.049 . S
O19 C27 1.260 . S
O20 Zn15 1.996 . S
O20 C27 1.257 . S
C21 O16 1.254 . S
C21 O17 1.269 . S
C22 O23 1.249 . S
C22 O24 1.270 . S
O23 Zn15 1.943 . S
O23 C22 1.249 . S
O24 Zn14 2.067 . S
O24 C22 1.270 . S
C25 O18 1.262 . S
C25 O26 1.232 1_455 S
O26 C25 1.232 1_655 S
C27 O19 1.260 . S
C27 O20 1.257 . S
Zn28 O31 2.031 . S
Zn28 O33 2.049 1_455 S
Zn28 O38 2.067 . S
Zn29 O30 1.962 . S
Zn29 O32 1.986 1_455 S
Zn29 O34 1.996 1_455 S
Zn29 O37 1.943 . S
O30 Zn29 1.962 . S
O30 C35 1.254 . S
O31 Zn28 2.031 . S
O31 C35 1.269 . S
O32 Zn29 1.986 1_655 S
O32 C39 1.262 1_655 S
O33 Zn28 2.049 1_655 S
O33 C41 1.260 . S
O34 Zn29 1.996 1_655 S
O34 C41 1.257 . S
C35 O30 1.254 . S
C35 O31 1.269 . S
C36 O37 1.249 . S
C36 O38 1.270 . S
O37 Zn29 1.943 . S
O37 C36 1.249 . S
O38 Zn28 2.067 . S
O38 C36 1.270 . S
C39 O32 1.262 1_455 S
C39 O40 1.232 . S
O40 C39 1.232 . S
C41 O33 1.260 . S
C41 O34 1.257 . S
Zn42 O45 2.031 1_455 S
Zn42 O47 2.049 . S
Zn42 O52 2.067 . S
Zn43 O44 1.962 1_455 S
Zn43 O46 1.986 . S
Zn43 O48 1.996 . S
Zn43 O51 1.943 . S
O44 Zn43 1.962 1_655 S
O44 C49 1.254 . S
O45 Zn42 2.031 1_655 S
O45 C49 1.269 . S
O46 Zn43 1.986 . S
O46 C53 1.262 . S
O47 Zn42 2.049 . S
O47 C55 1.260 . S
O48 Zn43 1.996 . S
O48 C55 1.257 . S
C49 O44 1.254 . S
C49 O45 1.269 . S
C50 O51 1.249 . S
C50 O52 1.270 . S
O51 Zn43 1.943 . S
O51 C50 1.249 . S
O52 Zn42 2.067 . S
O52 C50 1.270 . S
C53 O46 1.262 . S
C53 O54 1.232 1_455 S
O54 C53 1.232 1_655 S
C55 O47 1.260 . S
C55 O48 1.257 . S
Zn56 O59 2.031 . S
Zn56 O61 2.049 . S
Zn56 O66 2.067 . S
Zn57 O58 1.962 . S
Zn57 O60 1.986 . S
Zn57 O62 1.996 . S
Zn57 O65 1.943 . S
O58 Zn57 1.962 . S
O58 C63 1.254 . S
O59 Zn56 2.031 . S
O59 C63 1.269 . S
O60 Zn57 1.986 . S
O60 C67 1.262 . S
O61 Zn56 2.049 . S
O61 C69 1.260 . S
O62 Zn57 1.996 . S
O62 C69 1.257 . S
C63 O58 1.254 . S
C63 O59 1.269 . S
C64 O65 1.249 . S
C64 O66 1.270 . S
O65 Zn57 1.943 . S
O65 C64 1.249 . S
O66 Zn56 2.067 . S
O66 C64 1.270 . S
C67 O60 1.262 . S
C67 O68 1.232 . S
O68 C67 1.232 . S
C69 O61 1.260 . S
C69 O62 1.257 . S
Zn70 O73 2.031 . S
Zn70 O75 2.049 . S
Zn70 O80 2.067 . S
Zn71 O72 1.962 . S
Zn71 O74 1.986 . S
Zn71 O76 1.996 . S
Zn71 O79 1.943 . S
O72 Zn71 1.962 . S
O72 C77 1.254 . S
O73 Zn70 2.031 . S
O73 C77 1.269 . S
O74 Zn71 1.986 . S
O74 C81 1.262 . S
O75 Zn70 2.049 . S
O75 C83 1.260 . S
O76 Zn71 1.996 . S
O76 C83 1.257 . S
C77 O72 1.254 . S
C77 O73 1.269 . S
C78 O79 1.249 . S
C78 O80 1.270 . S
O79 Zn71 1.943 . S
O79 C78 1.249 . S
O80 Zn70 2.067 . S
O80 C78 1.270 . S
C81 O74 1.262 . S
C81 O82 1.232 . S
O82 C81 1.232 . S
C83 O75 1.260 . S
C83 O76 1.257 . S
Zn84 O87 2.031 . S
Zn84 O89 2.049 . S
Zn84 O94 2.067 . S
Zn85 O86 1.962 . S
Zn85 O88 1.986 . S
Zn85 O90 1.996 . S
Zn85 O93 1.943 . S
O86 Zn85 1.962 . S
O86 C91 1.254 . S
O87 Zn84 2.031 . S
O87 C91 1.269 . S
O88 Zn85 1.986 . S
O88 C95 1.262 . S
O89 Zn84 2.049 . S
O89 C97 1.260 . S
O90 Zn85 1.996 . S
O90 C97 1.257 . S
C91 O86 1.254 . S
C91 O87 1.269 . S
C92 O93 1.249 . S
C92 O94 1.270 . S
O93 Zn85 1.943 . S
O93 C92 1.249 . S
O94 Zn84 2.067 . S
O94 C92 1.270 . S
C95 O88 1.262 . S
C95 O96 1.232 . S
O96 C95 1.232 . S
C97 O89 1.260 . S
C97 O90 1.257 . S
Zn98 O101 2.031 . S
Zn98 O103 2.049 . S
Zn98 O108 2.067 . S
Zn99 O100 1.962 . S
Zn99 O102 1.986 . S
Zn99 O104 1.996 . S
Zn99 O107 1.943 . S
O100 Zn99 1.962 . S
O100 C105 1.254 . S
O101 Zn98 2.031 . S
O101 C105 1.269 . S
O102 Zn99 1.986 . S
O102 C109 1.262 . S
O103 Zn98 2.049 . S
O103 C111 1.260 . S
O104 Zn99 1.996 . S
O104 C111 1.257 . S
C105 O100 1.254 . S
C105 O101 1.269 . S
C106 O107 1.249 . S
C106 O108 1.270 . S
O107 Zn99 1.943 . S
O107 C106 1.249 . S
O108 Zn98 2.067 . S
O108 C106 1.270 . S
C109 O102 1.262 . S
C109 O110 1.232 . S
O110 C109 1.232 . S
C111 O103 1.260 . S
C111 O104 1.257 . S
C112 C113 1.349 . S
C112 C114 1.327 . S
C112 H137 0.950 . S
C113 C112 1.349 . S
C113 C129 1.349 . S
C114 C112 1.327 . S
C114 C133 1.429 . S
C114 H138 0.950 . S
C115 C132 1.574 . S
C115 C134 1.368 . S
C115 H139 0.949 1_455 S
H116 C120 0.949 . S
C117 C118 1.349 . S
C117 C119 1.327 . S
C117 H140 0.950 1_455 S
C118 C117 1.349 . S
C118 C130 1.349 . S
C119 C117 1.327 . S
C119 C135 1.429 . S
C119 H141 0.950 1_455 S
C120 H116 0.949 . S
C120 C128 1.574 . S
C120 C136 1.368 . S
H121 C129 0.950 1_655 S
H122 C127 0.950 1_655 S
H123 C128 0.949 . S
H124 C130 0.950 . S
H125 C131 0.950 . S
H126 C132 0.949 1_655 S
C127 H122 0.950 1_455 S
C127 C129 1.327 . S
C127 C133 1.429 . S
C128 C120 1.574 . S
C128 H123 0.949 . S
C128 C134 1.368 . S
C129 C113 1.349 . S
C129 H121 0.950 1_455 S
C129 C127 1.327 . S
C130 C118 1.349 . S
C130 H124 0.950 . S
C130 C131 1.327 . S
C131 H125 0.950 . S
C131 C130 1.327 . S
C131 C135 1.429 . S
C132 C115 1.574 . S
C132 H126 0.949 1_455 S
C132 C136 1.368 . S
C133 C114 1.429 . S
C133 C127 1.429 . S
C133 C134 1.523 . S
C134 C115 1.368 . S
C134 C128 1.368 . S
C134 C133 1.523 . S
C135 C119 1.429 . S
C135 C131 1.429 . S
C135 C136 1.523 . S
C136 C120 1.368 . S
C136 C132 1.368 . S
C136 C135 1.523 . S
H137 C112 0.950 . S
H138 C114 0.950 . S
H139 C115 0.949 1_655 S
H140 C117 0.950 1_655 S
H141 C119 0.950 1_655 S
C142 C143 1.349 . S
C142 C144 1.327 . S
C142 H167 0.950 1_455 S
C143 C142 1.349 . S
C143 C159 1.349 . S
C144 C142 1.327 . S
C144 C163 1.429 . S
C144 H168 0.950 1_455 S
C145 C162 1.574 . S
C145 C164 1.368 . S
C145 H169 0.949 . S
H146 C150 0.949 1_655 S
C147 C148 1.349 . S
C147 C149 1.327 . S
C147 H170 0.950 . S
C148 C147 1.349 . S
C148 C160 1.349 . S
C149 C147 1.327 . S
C149 C165 1.429 . S
C149 H171 0.950 . S
C150 H146 0.949 1_455 S
C150 C158 1.574 . S
C150 C166 1.368 . S
H151 C159 0.950 . S
H152 C157 0.950 . S
H153 C158 0.949 1_655 S
H154 C160 0.950 1_655 S
H155 C161 0.950 1_655 S
H156 C162 0.949 . S
C157 H152 0.950 . S
C157 C159 1.327 . S
C157 C163 1.429 . S
C158 C150 1.574 . S
C158 H153 0.949 1_455 S
C158 C164 1.368 . S
C159 C143 1.349 . S
C159 H151 0.950 . S
C159 C157 1.327 . S
C160 C148 1.349 . S
C160 H154 0.950 1_455 S
C160 C161 1.327 . S
C161 H155 0.950 1_455 S
C161 C160 1.327 . S
C161 C165 1.429 . S
C162 C145 1.574 . S
C162 H156 0.949 . S
C162 C166 1.368 . S
C163 C144 1.429 . S
C163 C157 1.429 . S
C163 C164 1.523 . S
C164 C145 1.368 . S
C164 C158 1.368 . S
C164 C163 1.523 . S
C165 C149 1.429 . S
C165 C161 1.429 . S
C165 C166 1.523 . S
C166 C150 1.368 . S
C166 C162 1.368 . S
C166 C165 1.523 . S
H167 C142 0.950 1_655 S
H168 C144 0.950 1_655 S
H169 C145 0.949 . S
H170 C147 0.950 . S
H171 C149 0.950 . S
C172 C173 1.349 . S
C172 C174 1.327 . S
C172 H197 0.950 . S
C173 C172 1.349 . S
C173 C189 1.349 . S
C174 C172 1.327 . S
C174 C193 1.429 . S
C174 H198 0.950 . S
C175 C192 1.574 . S
C175 C194 1.368 . S
C175 H199 0.949 . S
H176 C180 0.949 . S
C177 C178 1.349 . S
C177 C179 1.327 . S
C177 H200 0.950 . S
C178 C177 1.349 . S
C178 C190 1.349 . S
C179 C177 1.327 . S
C179 C195 1.429 . S
C179 H201 0.950 . S
C180 H176 0.949 . S
C180 C188 1.574 . S
C180 C196 1.368 . S
H181 C189 0.950 . S
H182 C187 0.950 . S
H183 C188 0.949 . S
H184 C190 0.950 . S
H185 C191 0.950 . S
H186 C192 0.949 . S
C187 H182 0.950 . S
C187 C189 1.327 . S
C187 C193 1.429 . S
C188 C180 1.574 . S
C188 H183 0.949 . S
C188 C194 1.368 . S
C189 C173 1.349 . S
C189 H181 0.950 . S
C189 C187 1.327 . S
C190 C178 1.349 . S
C190 H184 0.950 . S
C190 C191 1.327 . S
C191 H185 0.950 . S
C191 C190 1.327 . S
C191 C195 1.429 . S
C192 C175 1.574 . S
C192 H186 0.949 . S
C192 C196 1.368 . S
C193 C174 1.429 . S
C193 C187 1.429 . S
C193 C194 1.523 . S
C194 C175 1.368 . S
C194 C188 1.368 . S
C194 C193 1.523 . S
C195 C179 1.429 . S
C195 C191 1.429 . S
C195 C196 1.523 . S
C196 C180 1.368 . S
C196 C192 1.368 . S
C196 C195 1.523 . S
H197 C172 0.950 . S
H198 C174 0.950 . S
H199 C175 0.949 . S
H200 C177 0.950 . S
H201 C179 0.950 . S
C202 C203 1.349 . S
C202 C204 1.327 . S
C202 H227 0.950 . S
C203 C202 1.349 . S
C203 C219 1.349 . S
C204 C202 1.327 . S
C204 C223 1.429 . S
C204 H228 0.950 . S
C205 C222 1.574 . S
C205 C224 1.368 . S
C205 H229 0.949 . S
H206 C210 0.949 . S
C207 C208 1.349 . S
C207 C209 1.327 . S
C207 H230 0.950 . S
C208 C207 1.349 . S
C208 C220 1.349 . S
C209 C207 1.327 . S
C209 C225 1.429 . S
C209 H231 0.950 . S
C210 H206 0.949 . S
C210 C218 1.574 . S
C210 C226 1.368 . S
H211 C219 0.950 . S
H212 C217 0.950 . S
H213 C218 0.949 . S
H214 C220 0.950 . S
H215 C221 0.950 . S
H216 C222 0.949 . S
C217 H212 0.950 . S
C217 C219 1.327 . S
C217 C223 1.429 . S
C218 C210 1.574 . S
C218 H213 0.949 . S
C218 C224 1.368 . S
C219 C203 1.349 . S
C219 H211 0.950 . S
C219 C217 1.327 . S
C220 C208 1.349 . S
C220 H214 0.950 . S
C220 C221 1.327 . S
C221 H215 0.950 . S
C221 C220 1.327 . S
C221 C225 1.429 . S
C222 C205 1.574 . S
C222 H216 0.949 . S
C222 C226 1.368 . S
C223 C204 1.429 . S
C223 C217 1.429 . S
C223 C224 1.523 . S
C224 C205 1.368 . S
C224 C218 1.368 . S
C224 C223 1.523 . S
C225 C209 1.429 . S
C225 C221 1.429 . S
C225 C226 1.523 . S
C226 C210 1.368 . S
C226 C222 1.368 . S
C226 C225 1.523 . S
H227 C202 0.950 . S
H228 C204 0.950 . S
H229 C205 0.949 . S
H230 C207 0.950 . S
H231 C209 0.950 . S
C232 C233 1.349 . S
C232 C234 1.327 . S
C232 H257 0.950 . S
C233 C232 1.349 . S
C233 C249 1.349 . S
C234 C232 1.327 . S
C234 C253 1.429 . S
C234 H258 0.950 . S
C235 C252 1.574 . S
C235 C254 1.368 . S
C235 H259 0.949 . S
H236 C240 0.949 . S
C237 C238 1.349 . S
C237 C239 1.327 . S
C237 H260 0.950 . S
C238 C237 1.349 . S
C238 C250 1.349 . S
C239 C237 1.327 . S
C239 C255 1.429 . S
C239 H261 0.950 . S
C240 H236 0.949 . S
C240 C248 1.574 . S
C240 C256 1.368 . S
H241 C249 0.950 . S
H242 C247 0.950 . S
H243 C248 0.949 . S
H244 C250 0.950 . S
H245 C251 0.950 . S
H246 C252 0.949 . S
C247 H242 0.950 . S
C247 C249 1.327 . S
C247 C253 1.429 . S
C248 C240 1.574 . S
C248 H243 0.949 . S
C248 C254 1.368 . S
C249 C233 1.349 . S
C249 H241 0.950 . S
C249 C247 1.327 . S
C250 C238 1.349 . S
C250 H244 0.950 . S
C250 C251 1.327 . S
C251 H245 0.950 . S
C251 C250 1.327 . S
C251 C255 1.429 . S
C252 C235 1.574 . S
C252 H246 0.949 . S
C252 C256 1.368 . S
C253 C234 1.429 . S
C253 C247 1.429 . S
C253 C254 1.523 . S
C254 C235 1.368 . S
C254 C248 1.368 . S
C254 C253 1.523 . S
C255 C239 1.429 . S
C255 C251 1.429 . S
C255 C256 1.523 . S
C256 C240 1.368 . S
C256 C252 1.368 . S
C256 C255 1.523 . S
H257 C232 0.950 . S
H258 C234 0.950 . S
H259 C235 0.949 . S
H260 C237 0.950 . S
H261 C239 0.950 . S
C262 C263 1.349 . S
C262 C264 1.327 . S
C262 H287 0.950 . S
C263 C262 1.349 . S
C263 C279 1.349 . S
C264 C262 1.327 . S
C264 C283 1.429 . S
C264 H288 0.950 . S
C265 C282 1.574 . S
C265 C284 1.368 . S
C265 H289 0.949 . S
H266 C270 0.949 . S
C267 C268 1.349 . S
C267 C269 1.327 . S
C267 H290 0.950 . S
C268 C267 1.349 . S
C268 C280 1.349 . S
C269 C267 1.327 . S
C269 C285 1.429 . S
C269 H291 0.950 . S
C270 H266 0.949 . S
C270 C278 1.574 . S
C270 C286 1.368 . S
H271 C279 0.950 . S
H272 C277 0.950 . S
H273 C278 0.949 . S
H274 C280 0.950 . S
H275 C281 0.950 . S
H276 C282 0.949 . S
C277 H272 0.950 . S
C277 C279 1.327 . S
C277 C283 1.429 . S
C278 C270 1.574 . S
C278 H273 0.949 . S
C278 C284 1.368 . S
C279 C263 1.349 . S
C279 H271 0.950 . S
C279 C277 1.327 . S
C280 C268 1.349 . S
C280 H274 0.950 . S
C280 C281 1.327 . S
C281 H275 0.950 . S
C281 C280 1.327 . S
C281 C285 1.429 . S
C282 C265 1.574 . S
C282 H276 0.949 . S
C282 C286 1.368 . S
C283 C264 1.429 . S
C283 C277 1.429 . S
C283 C284 1.523 . S
C284 C265 1.368 . S
C284 C278 1.368 . S
C284 C283 1.523 . S
C285 C269 1.429 . S
C285 C281 1.429 . S
C285 C286 1.523 . S
C286 C270 1.368 . S
C286 C282 1.368 . S
C286 C285 1.523 . S
H287 C262 0.950 . S
H288 C264 0.950 . S
H289 C265 0.949 . S
H290 C267 0.950 . S
H291 C269 0.950 . S
C292 C293 1.349 . S
C292 C294 1.327 . S
C292 H317 0.950 . S
C293 C292 1.349 . S
C293 C309 1.349 . S
C294 C292 1.327 . S
C294 C313 1.429 . S
C294 H318 0.950 . S
C295 C312 1.574 . S
C295 C314 1.368 . S
C295 H319 0.949 . S
H296 C300 0.949 . S
C297 C298 1.349 . S
C297 C299 1.327 . S
C297 H320 0.950 . S
C298 C297 1.349 . S
C298 C310 1.349 . S
C299 C297 1.327 . S
C299 C315 1.429 . S
C299 H321 0.950 . S
C300 H296 0.949 . S
C300 C308 1.574 . S
C300 C316 1.368 . S
H301 C309 0.950 . S
H302 C307 0.950 . S
H303 C308 0.949 . S
H304 C310 0.950 . S
H305 C311 0.950 . S
H306 C312 0.949 . S
C307 H302 0.950 . S
C307 C309 1.327 . S
C307 C313 1.429 . S
C308 C300 1.574 . S
C308 H303 0.949 . S
C308 C314 1.368 . S
C309 C293 1.349 . S
C309 H301 0.950 . S
C309 C307 1.327 . S
C310 C298 1.349 . S
C310 H304 0.950 . S
C310 C311 1.327 . S
C311 H305 0.950 . S
C311 C310 1.327 . S
C311 C315 1.429 . S
C312 C295 1.574 . S
C312 H306 0.949 . S
C312 C316 1.368 . S
C313 C294 1.429 . S
C313 C307 1.429 . S
C313 C314 1.523 . S
C314 C295 1.368 . S
C314 C308 1.368 . S
C314 C313 1.523 . S
C315 C299 1.429 . S
C315 C311 1.429 . S
C315 C316 1.523 . S
C316 C300 1.368 . S
C316 C312 1.368 . S
C316 C315 1.523 . S
H317 C292 0.950 . S
H318 C294 0.950 . S
H319 C295 0.949 . S
H320 C297 0.950 . S
H321 C299 0.950 . S
C322 C323 1.349 . S
C322 C324 1.327 . S
C322 H347 0.950 . S
C323 C322 1.349 . S
C323 C339 1.349 . S
C324 C322 1.327 . S
C324 C343 1.429 . S
C324 H348 0.950 . S
C325 C342 1.574 . S
C325 C344 1.368 . S
C325 H349 0.949 . S
H326 C330 0.949 . S
C327 C328 1.349 . S
C327 C329 1.327 . S
C327 H350 0.950 . S
C328 C327 1.349 . S
C328 C340 1.349 . S
C329 C327 1.327 . S
C329 C345 1.429 . S
C329 H351 0.950 . S
C330 H326 0.949 . S
C330 C338 1.574 . S
C330 C346 1.368 . S
H331 C339 0.950 . S
H332 C337 0.950 . S
H333 C338 0.949 . S
H334 C340 0.950 . S
H335 C341 0.950 . S
H336 C342 0.949 . S
C337 H332 0.950 . S
C337 C339 1.327 . S
C337 C343 1.429 . S
C338 C330 1.574 . S
C338 H333 0.949 . S
C338 C344 1.368 . S
C339 C323 1.349 . S
C339 H331 0.950 . S
C339 C337 1.327 . S
C340 C328 1.349 . S
C340 H334 0.950 . S
C340 C341 1.327 . S
C341 H335 0.950 . S
C341 C340 1.327 . S
C341 C345 1.429 . S
C342 C325 1.574 . S
C342 H336 0.949 . S
C342 C346 1.368 . S
C343 C324 1.429 . S
C343 C337 1.429 . S
C343 C344 1.523 . S
C344 C325 1.368 . S
C344 C338 1.368 . S
C344 C343 1.523 . S
C345 C329 1.429 . S
C345 C341 1.429 . S
C345 C346 1.523 . S
C346 C330 1.368 . S
C346 C342 1.368 . S
C346 C345 1.523 . S
H347 C322 0.950 . S
H348 C324 0.950 . S
H349 C325 0.949 . S
H350 C327 0.950 . S
H351 C329 0.950 . S
C352 C353 1.349 . S
C352 C354 1.327 . S
C352 H377 0.950 . S
C353 C352 1.349 . S
C353 C369 1.349 . S
C354 C352 1.327 . S
C354 C373 1.429 . S
C354 H378 0.950 . S
C355 C372 1.574 . S
C355 C374 1.368 . S
C355 H379 0.949 . S
H356 C360 0.949 . S
C357 C358 1.349 . S
C357 C359 1.327 . S
C357 H380 0.950 . S
C358 C357 1.349 . S
C358 C370 1.349 . S
C359 C357 1.327 . S
C359 C375 1.429 . S
C359 H381 0.950 . S
C360 H356 0.949 . S
C360 C368 1.574 . S
C360 C376 1.368 . S
H361 C369 0.950 . S
H362 C367 0.950 . S
H363 C368 0.949 . S
H364 C370 0.950 . S
H365 C371 0.950 . S
H366 C372 0.949 . S
C367 H362 0.950 . S
C367 C369 1.327 . S
C367 C373 1.429 . S
C368 C360 1.574 . S
C368 H363 0.949 . S
C368 C374 1.368 . S
C369 C353 1.349 . S
C369 H361 0.950 . S
C369 C367 1.327 . S
C370 C358 1.349 . S
C370 H364 0.950 . S
C370 C371 1.327 . S
C371 H365 0.950 . S
C371 C370 1.327 . S
C371 C375 1.429 . S
C372 C355 1.574 . S
C372 H366 0.949 . S
C372 C376 1.368 . S
C373 C354 1.429 . S
C373 C367 1.429 . S
C373 C374 1.523 . S
C374 C355 1.368 . S
C374 C368 1.368 . S
C374 C373 1.523 . S
C375 C359 1.429 . S
C375 C371 1.429 . S
C375 C376 1.523 . S
C376 C360 1.368 . S
C376 C372 1.368 . S
C376 C375 1.523 . S
H377 C352 0.950 . S
H378 C354 0.950 . S
H379 C355 0.949 . S
H380 C357 0.950 . S
H381 C359 0.950 . S
C382 C383 1.349 . S
C382 C384 1.327 . S
C382 H407 0.950 . S
C383 C382 1.349 . S
C383 C399 1.349 . S
C384 C382 1.327 . S
C384 C403 1.429 . S
C384 H408 0.950 . S
C385 C402 1.574 . S
C385 C404 1.368 . S
C385 H409 0.949 . S
H386 C390 0.949 . S
C387 C388 1.349 . S
C387 C389 1.327 . S
C387 H410 0.950 . S
C388 C387 1.349 . S
C388 C400 1.349 . S
C389 C387 1.327 . S
C389 C405 1.429 . S
C389 H411 0.950 . S
C390 H386 0.949 . S
C390 C398 1.574 . S
C390 C406 1.368 . S
H391 C399 0.950 . S
H392 C397 0.950 . S
H393 C398 0.949 . S
H394 C400 0.950 . S
H395 C401 0.950 . S
H396 C402 0.949 . S
C397 H392 0.950 . S
C397 C399 1.327 . S
C397 C403 1.429 . S
C398 C390 1.574 . S
C398 H393 0.949 . S
C398 C404 1.368 . S
C399 C383 1.349 . S
C399 H391 0.950 . S
C399 C397 1.327 . S
C400 C388 1.349 . S
C400 H394 0.950 . S
C400 C401 1.327 . S
C401 H395 0.950 . S
C401 C400 1.327 . S
C401 C405 1.429 . S
C402 C385 1.574 . S
C402 H396 0.949 . S
C402 C406 1.368 . S
C403 C384 1.429 . S
C403 C397 1.429 . S
C403 C404 1.523 . S
C404 C385 1.368 . S
C404 C398 1.368 . S
C404 C403 1.523 . S
C405 C389 1.429 . S
C405 C401 1.429 . S
C405 C406 1.523 . S
C406 C390 1.368 . S
C406 C402 1.368 . S
C406 C405 1.523 . S
H407 C382 0.950 . S
H408 C384 0.950 . S
H409 C385 0.949 . S
H410 C387 0.950 . S
H411 C389 0.950 . S
C412 C413 1.349 . S
C412 C414 1.327 . S
C412 H437 0.950 . S
C413 C412 1.349 . S
C413 C429 1.349 . S
C414 C412 1.327 . S
C414 C433 1.429 . S
C414 H438 0.950 . S
C415 C432 1.574 . S
C415 C434 1.368 . S
C415 H439 0.949 . S
H416 C420 0.949 . S
C417 C418 1.349 . S
C417 C419 1.327 . S
C417 H440 0.950 . S
C418 C417 1.349 . S
C418 C430 1.349 . S
C419 C417 1.327 . S
C419 C435 1.429 . S
C419 H441 0.950 . S
C420 H416 0.949 . S
C420 C428 1.574 . S
C420 C436 1.368 . S
H421 C429 0.950 . S
H422 C427 0.950 . S
H423 C428 0.949 . S
H424 C430 0.950 . S
H425 C431 0.950 . S
H426 C432 0.949 . S
C427 H422 0.950 . S
C427 C429 1.327 . S
C427 C433 1.429 . S
C428 C420 1.574 . S
C428 H423 0.949 . S
C428 C434 1.368 . S
C429 C413 1.349 . S
C429 H421 0.950 . S
C429 C427 1.327 . S
C430 C418 1.349 . S
C430 H424 0.950 . S
C430 C431 1.327 . S
C431 H425 0.950 . S
C431 C430 1.327 . S
C431 C435 1.429 . S
C432 C415 1.574 . S
C432 H426 0.949 . S
C432 C436 1.368 . S
C433 C414 1.429 . S
C433 C427 1.429 . S
C433 C434 1.523 . S
C434 C415 1.368 . S
C434 C428 1.368 . S
C434 C433 1.523 . S
C435 C419 1.429 . S
C435 C431 1.429 . S
C435 C436 1.523 . S
C436 C420 1.368 . S
C436 C432 1.368 . S
C436 C435 1.523 . S
H437 C412 0.950 . S
H438 C414 0.950 . S
H439 C415 0.949 . S
H440 C417 0.950 . S
H441 C419 0.950 . S
C442 C443 1.349 . S
C442 C444 1.327 . S
C442 H467 0.950 . S
C443 C442 1.349 . S
C443 C459 1.349 . S
C444 C442 1.327 . S
C444 C463 1.429 . S
C444 H468 0.950 . S
C445 C462 1.574 . S
C445 C464 1.368 . S
C445 H469 0.949 . S
H446 C450 0.949 . S
C447 C448 1.349 . S
C447 C449 1.327 . S
C447 H470 0.950 . S
C448 C447 1.349 . S
C448 C460 1.349 . S
C449 C447 1.327 . S
C449 C465 1.429 . S
C449 H471 0.950 . S
C450 H446 0.949 . S
C450 C458 1.574 . S
C450 C466 1.368 . S
H451 C459 0.950 . S
H452 C457 0.950 . S
H453 C458 0.949 . S
H454 C460 0.950 . S
H455 C461 0.950 . S
H456 C462 0.949 . S
C457 H452 0.950 . S
C457 C459 1.327 . S
C457 C463 1.429 . S
C458 C450 1.574 . S
C458 H453 0.949 . S
C458 C464 1.368 . S
C459 C443 1.349 . S
C459 H451 0.950 . S
C459 C457 1.327 . S
C460 C448 1.349 . S
C460 H454 0.950 . S
C460 C461 1.327 . S
C461 H455 0.950 . S
C461 C460 1.327 . S
C461 C465 1.429 . S
C462 C445 1.574 . S
C462 H456 0.949 . S
C462 C466 1.368 . S
C463 C444 1.429 . S
C463 C457 1.429 . S
C463 C464 1.523 . S
C464 C445 1.368 . S
C464 C458 1.368 . S
C464 C463 1.523 . S
C465 C449 1.429 . S
C465 C461 1.429 . S
C465 C466 1.523 . S
C466 C450 1.368 . S
C466 C462 1.368 . S
C466 C465 1.523 . S
H467 C442 0.950 . S
H468 C444 0.950 . S
H469 C445 0.949 . S
H470 C447 0.950 . S
H471 C449 0.950 . S
C472 C473 1.349 . S
C472 C474 1.327 . S
C472 H497 0.950 . S
C473 C472 1.349 . S
C473 C489 1.349 . S
C474 C472 1.327 . S
C474 C493 1.429 . S
C474 H498 0.950 . S
C475 C492 1.574 1_554 S
C475 C494 1.368 1_565 S
C475 H499 0.949 1_455 S
H476 C480 0.949 . S
C477 C478 1.349 . S
C477 C479 1.327 . S
C477 H500 0.950 1_455 S
C478 C477 1.349 . S
C478 C490 1.349 . S
C479 C477 1.327 . S
C479 C495 1.429 . S
C479 H501 0.950 1_455 S
C480 H476 0.949 . S
C480 C488 1.574 1_556 S
C480 C496 1.368 1_545 S
H481 C489 0.950 1_655 S
H482 C487 0.950 1_665 S
H483 C488 0.949 . S
H484 C490 0.950 . S
H485 C491 0.950 1_545 S
H486 C492 0.949 1_655 S
C487 H482 0.950 1_445 S
C487 C489 1.327 . S
C487 C493 1.429 . S
C488 C480 1.574 1_554 S
C488 H483 0.949 . S
C488 C494 1.368 . S
C489 C473 1.349 . S
C489 H481 0.950 1_455 S
C489 C487 1.327 . S
C490 C478 1.349 . S
C490 H484 0.950 . S
C490 C491 1.327 . S
C491 H485 0.950 1_565 S
C491 C490 1.327 . S
C491 C495 1.429 . S
C492 C475 1.574 1_556 S
C492 H486 0.949 1_455 S
C492 C496 1.368 . S
C493 C474 1.429 . S
C493 C487 1.429 . S
C493 C494 1.523 . S
C494 C475 1.368 1_545 S
C494 C488 1.368 . S
C494 C493 1.523 . S
C495 C479 1.429 . S
C495 C491 1.429 . S
C495 C496 1.523 . S
C496 C480 1.368 1_565 S
C496 C492 1.368 . S
C496 C495 1.523 . S
H497 C472 0.950 . S
H498 C474 0.950 . S
H499 C475 0.949 1_655 S
H500 C477 0.950 1_655 S
H501 C479 0.950 1_655 S
C502 C503 1.349 . S
C502 C504 1.327 . S
C502 H527 0.950 . S
C503 C502 1.349 . S
C503 C519 1.349 . S
C504 C502 1.327 . S
C504 C523 1.429 . S
C504 H528 0.950 . S
C505 C522 1.574 1_556 S
C505 C524 1.368 . S
C505 H529 0.949 1_455 S
H506 C510 0.949 . S
C507 C508 1.349 . S
C507 C509 1.327 . S
C507 H530 0.950 1_455 S
C508 C507 1.349 . S
C508 C520 1.349 . S
C509 C507 1.327 . S
C509 C525 1.429 . S
C509 H531 0.950 1_455 S
C510 H506 0.949 . S
C510 C518 1.574 1_554 S
C510 C526 1.368 . S
H511 C519 0.950 1_655 S
H512 C517 0.950 1_655 S
H513 C518 0.949 . S
H514 C520 0.950 . S
H515 C521 0.950 . S
H516 C522 0.949 1_655 S
C517 H512 0.950 1_455 S
C517 C519 1.327 . S
C517 C523 1.429 . S
C518 C510 1.574 1_556 S
C518 H513 0.949 . S
C518 C524 1.368 . S
C519 C503 1.349 . S
C519 H511 0.950 1_455 S
C519 C517 1.327 . S
C520 C508 1.349 . S
C520 H514 0.950 . S
C520 C521 1.327 . S
C521 H515 0.950 . S
C521 C520 1.327 . S
C521 C525 1.429 . S
C522 C505 1.574 1_554 S
C522 H516 0.949 1_455 S
C522 C526 1.368 . S
C523 C504 1.429 . S
C523 C517 1.429 . S
C523 C524 1.523 . S
C524 C505 1.368 . S
C524 C518 1.368 . S
C524 C523 1.523 . S
C525 C509 1.429 . S
C525 C521 1.429 . S
C525 C526 1.523 . S
C526 C510 1.368 . S
C526 C522 1.368 . S
C526 C525 1.523 . S
H527 C502 0.950 . S
H528 C504 0.950 . S
H529 C505 0.949 1_655 S
H530 C507 0.950 1_655 S
H531 C509 0.950 1_655 S
C532 C533 1.349 . S
C532 C534 1.327 . S
C532 H557 0.950 . S
C533 C532 1.349 . S
C533 C549 1.349 . S
C534 C532 1.327 . S
C534 C553 1.429 . S
C534 H558 0.950 . S
C535 C552 1.574 . S
C535 C554 1.368 . S
C535 H559 0.949 . S
H536 C540 0.949 . S
C537 C538 1.349 . S
C537 C539 1.327 . S
C537 H560 0.950 . S
C538 C537 1.349 . S
C538 C550 1.349 . S
C539 C537 1.327 . S
C539 C555 1.429 . S
C539 H561 0.950 . S
C540 H536 0.949 . S
C540 C548 1.574 . S
C540 C556 1.368 . S
H541 C549 0.950 . S
H542 C547 0.950 . S
H543 C548 0.949 . S
H544 C550 0.950 . S
H545 C551 0.950 . S
H546 C552 0.949 . S
C547 H542 0.950 . S
C547 C549 1.327 . S
C547 C553 1.429 . S
C548 C540 1.574 . S
C548 H543 0.949 . S
C548 C554 1.368 . S
C549 C533 1.349 . S
C549 H541 0.950 . S
C549 C547 1.327 . S
C550 C538 1.349 . S
C550 H544 0.950 . S
C550 C551 1.327 . S
C551 H545 0.950 . S
C551 C550 1.327 . S
C551 C555 1.429 . S
C552 C535 1.574 . S
C552 H546 0.949 . S
C552 C556 1.368 . S
C553 C534 1.429 . S
C553 C547 1.429 . S
C553 C554 1.523 . S
C554 C535 1.368 . S
C554 C548 1.368 . S
C554 C553 1.523 . S
C555 C539 1.429 . S
C555 C551 1.429 . S
C555 C556 1.523 . S
C556 C540 1.368 . S
C556 C552 1.368 . S
C556 C555 1.523 . S
H557 C532 0.950 . S
H558 C534 0.950 . S
H559 C535 0.949 . S
H560 C537 0.950 . S
H561 C539 0.950 . S
C562 C563 1.349 . S
C562 C564 1.327 . S
C562 H587 0.950 . S
C563 C562 1.349 . S
C563 C579 1.349 . S
C564 C562 1.327 . S
C564 C583 1.429 . S
C564 H588 0.950 . S
C565 C582 1.574 1_565 S
C565 C584 1.368 . S
C565 H589 0.949 . S
H566 C570 0.949 . S
C567 C568 1.349 . S
C567 C569 1.327 . S
C567 H590 0.950 . S
C568 C567 1.349 . S
C568 C580 1.349 . S
C569 C567 1.327 . S
C569 C585 1.429 . S
C569 H591 0.950 . S
C570 H566 0.949 . S
C570 C578 1.574 1_545 S
C570 C586 1.368 . S
H571 C579 0.950 . S
H572 C577 0.950 . S
H573 C578 0.949 . S
H574 C580 0.950 . S
H575 C581 0.950 . S
H576 C582 0.949 . S
C577 H572 0.950 . S
C577 C579 1.327 . S
C577 C583 1.429 . S
C578 C570 1.574 1_565 S
C578 H573 0.949 . S
C578 C584 1.368 . S
C579 C563 1.349 . S
C579 H571 0.950 . S
C579 C577 1.327 . S
C580 C568 1.349 . S
C580 H574 0.950 . S
C580 C581 1.327 . S
C581 H575 0.950 . S
C581 C580 1.327 . S
C581 C585 1.429 . S
C582 C565 1.574 1_545 S
C582 H576 0.949 . S
C582 C586 1.368 . S
C583 C564 1.429 . S
C583 C577 1.429 . S
C583 C584 1.523 . S
C584 C565 1.368 . S
C584 C578 1.368 . S
C584 C583 1.523 . S
C585 C569 1.429 . S
C585 C581 1.429 . S
C585 C586 1.523 . S
C586 C570 1.368 . S
C586 C582 1.368 . S
C586 C585 1.523 . S
H587 C562 0.950 . S
H588 C564 0.950 . S
H589 C565 0.949 . S
H590 C567 0.950 . S
H591 C569 0.950 . S
C113 C22 1.412 . S
C118 C8 1.412 . S
C143 C36 1.412 . S
C148 C50 1.412 . S
C173 C64 1.412 . S
C178 C78 1.412 . S
C203 C92 1.412 . S
C208 C106 1.412 . S
C233 C105 1.501 . S
C238 C7 1.501 . S
C263 C91 1.501 . S
C268 C21 1.501 . S
C293 C35 1.501 . S
C298 C77 1.501 . S
C323 C63 1.501 . S
C328 C49 1.501 . S
C353 C83 1.171 . S
C358 C41 1.171 . S
C383 C69 1.171 . S
C388 C55 1.171 . S
C413 C111 1.171 . S
C418 C13 1.171 . S
C443 C27 1.171 . S
C448 C97 1.171 . S
C473 C11 1.318 . S
C478 C39 1.318 . S
C503 C53 1.318 . S
C508 C25 1.318 . S
C533 C95 1.318 . S
C538 C67 1.318 . S
C563 C81 1.318 . S
C568 C109 1.318 . S
