# Generated by pormake.
# Topology som, (6)-cn, num edge types: 1
# Building blocks:
#     Node 0, Type 0, BuildingBlock: BETDIP_clean_sbu_0, # of connection points: 6
#     Node 1, Type 0, BuildingBlock: BETDIP_clean_sbu_0, # of connection points: 6
#     Node 2, Type 0, BuildingBlock: BETDIP_clean_sbu_0, # of connection points: 6
#     Node 3, Type 0, BuildingBlock: BETDIP_clean_sbu_0, # of connection points: 6
#     Node 4, Type 0, BuildingBlock: BETDIP_clean_sbu_0, # of connection points: 6
#     Node 5, Type 0, BuildingBlock: BETDIP_clean_sbu_0, # of connection points: 6
#     Node 6, Type 0, BuildingBlock: BETDIP_clean_sbu_0, # of connection points: 6
#     Node 7, Type 0, BuildingBlock: BETDIP_clean_sbu_0, # of connection points: 6
#     Node 8, Type 0, BuildingBlock: BETDIP_clean_sbu_0, # of connection points: 6
#     Node 9, Type 0, BuildingBlock: BETDIP_clean_sbu_0, # of connection points: 6
#     Node 10, Type 0, BuildingBlock: BETDIP_clean_sbu_0, # of connection points: 6
#     Node 11, Type 0, BuildingBlock: BETDIP_clean_sbu_0, # of connection points: 6
#     Node 12, Type 0, BuildingBlock: BETDIP_clean_sbu_0, # of connection points: 6
#     Node 13, Type 0, BuildingBlock: BETDIP_clean_sbu_0, # of connection points: 6
#     Node 14, Type 0, BuildingBlock: BETDIP_clean_sbu_0, # of connection points: 6
#     Node 15, Type 0, BuildingBlock: BETDIP_clean_sbu_0, # of connection points: 6
#     Node 16, Type 0, BuildingBlock: BETDIP_clean_sbu_0, # of connection points: 6
#     Node 17, Type 0, BuildingBlock: BETDIP_clean_sbu_0, # of connection points: 6
#     Node 18, Type 0, BuildingBlock: BETDIP_clean_sbu_0, # of connection points: 6
#     Node 19, Type 0, BuildingBlock: BETDIP_clean_sbu_0, # of connection points: 6
#     Node 20, Type 0, BuildingBlock: BETDIP_clean_sbu_0, # of connection points: 6
#     Node 21, Type 0, BuildingBlock: BETDIP_clean_sbu_0, # of connection points: 6
#     Node 22, Type 0, BuildingBlock: BETDIP_clean_sbu_0, # of connection points: 6
#     Node 23, Type 0, BuildingBlock: BETDIP_clean_sbu_0, # of connection points: 6
#     Node 24, Type 0, BuildingBlock: BETDIP_clean_sbu_0, # of connection points: 6
#     Node 25, Type 0, BuildingBlock: BETDIP_clean_sbu_0, # of connection points: 6
#     Node 26, Type 0, BuildingBlock: BETDIP_clean_sbu_0, # of connection points: 6
#     Node 27, Type 0, BuildingBlock: BETDIP_clean_sbu_0, # of connection points: 6
#     Node 28, Type 0, BuildingBlock: BETDIP_clean_sbu_0, # of connection points: 6
#     Node 29, Type 0, BuildingBlock: BETDIP_clean_sbu_0, # of connection points: 6
#     Node 30, Type 0, BuildingBlock: BETDIP_clean_sbu_0, # of connection points: 6
#     Node 31, Type 0, BuildingBlock: BETDIP_clean_sbu_0, # of connection points: 6
#     Edge 32, Type (0, 0), BuildingBlock: KIFKEQ_clean_linker_1, # of connection points: 2
#     Edge 33, Type (0, 0), BuildingBlock: KIFKEQ_clean_linker_1, # of connection points: 2
#     Edge 34, Type (0, 0), BuildingBlock: KIFKEQ_clean_linker_1, # of connection points: 2
#     Edge 35, Type (0, 0), BuildingBlock: KIFKEQ_clean_linker_1, # of connection points: 2
#     Edge 36, Type (0, 0), BuildingBlock: KIFKEQ_clean_linker_1, # of connection points: 2
#     Edge 37, Type (0, 0), BuildingBlock: KIFKEQ_clean_linker_1, # of connection points: 2
#     Edge 38, Type (0, 0), BuildingBlock: KIFKEQ_clean_linker_1, # of connection points: 2
#     Edge 39, Type (0, 0), BuildingBlock: KIFKEQ_clean_linker_1, # of connection points: 2
#     Edge 40, Type (0, 0), BuildingBlock: KIFKEQ_clean_linker_1, # of connection points: 2
#     Edge 41, Type (0, 0), BuildingBlock: KIFKEQ_clean_linker_1, # of connection points: 2
#     Edge 42, Type (0, 0), BuildingBlock: KIFKEQ_clean_linker_1, # of connection points: 2
#     Edge 43, Type (0, 0), BuildingBlock: KIFKEQ_clean_linker_1, # of connection points: 2
#     Edge 44, Type (0, 0), BuildingBlock: KIFKEQ_clean_linker_1, # of connection points: 2
#     Edge 45, Type (0, 0), BuildingBlock: KIFKEQ_clean_linker_1, # of connection points: 2
#     Edge 46, Type (0, 0), BuildingBlock: KIFKEQ_clean_linker_1, # of connection points: 2
#     Edge 47, Type (0, 0), BuildingBlock: KIFKEQ_clean_linker_1, # of connection points: 2
#     Edge 48, Type (0, 0), BuildingBlock: KIFKEQ_clean_linker_1, # of connection points: 2
#     Edge 49, Type (0, 0), BuildingBlock: KIFKEQ_clean_linker_1, # of connection points: 2
#     Edge 50, Type (0, 0), BuildingBlock: KIFKEQ_clean_linker_1, # of connection points: 2
#     Edge 51, Type (0, 0), BuildingBlock: KIFKEQ_clean_linker_1, # of connection points: 2
#     Edge 52, Type (0, 0), BuildingBlock: KIFKEQ_clean_linker_1, # of connection points: 2
#     Edge 53, Type (0, 0), BuildingBlock: KIFKEQ_clean_linker_1, # of connection points: 2
#     Edge 54, Type (0, 0), BuildingBlock: KIFKEQ_clean_linker_1, # of connection points: 2
#     Edge 55, Type (0, 0), BuildingBlock: KIFKEQ_clean_linker_1, # of connection points: 2
#     Edge 56, Type (0, 0), BuildingBlock: KIFKEQ_clean_linker_1, # of connection points: 2
#     Edge 57, Type (0, 0), BuildingBlock: KIFKEQ_clean_linker_1, # of connection points: 2
#     Edge 58, Type (0, 0), BuildingBlock: KIFKEQ_clean_linker_1, # of connection points: 2
#     Edge 59, Type (0, 0), BuildingBlock: KIFKEQ_clean_linker_1, # of connection points: 2
#     Edge 60, Type (0, 0), BuildingBlock: KIFKEQ_clean_linker_1, # of connection points: 2
#     Edge 61, Type (0, 0), BuildingBlock: KIFKEQ_clean_linker_1, # of connection points: 2
#     Edge 62, Type (0, 0), BuildingBlock: KIFKEQ_clean_linker_1, # of connection points: 2
#     Edge 63, Type (0, 0), BuildingBlock: KIFKEQ_clean_linker_1, # of connection points: 2
#     Edge 64, Type (0, 0), BuildingBlock: KIFKEQ_clean_linker_1, # of connection points: 2
#     Edge 65, Type (0, 0), BuildingBlock: KIFKEQ_clean_linker_1, # of connection points: 2
#     Edge 66, Type (0, 0), BuildingBlock: KIFKEQ_clean_linker_1, # of connection points: 2
#     Edge 67, Type (0, 0), BuildingBlock: KIFKEQ_clean_linker_1, # of connection points: 2
#     Edge 68, Type (0, 0), BuildingBlock: KIFKEQ_clean_linker_1, # of connection points: 2
#     Edge 69, Type (0, 0), BuildingBlock: KIFKEQ_clean_linker_1, # of connection points: 2
#     Edge 70, Type (0, 0), BuildingBlock: KIFKEQ_clean_linker_1, # of connection points: 2
#     Edge 71, Type (0, 0), BuildingBlock: KIFKEQ_clean_linker_1, # of connection points: 2
#     Edge 72, Type (0, 0), BuildingBlock: KIFKEQ_clean_linker_1, # of connection points: 2
#     Edge 73, Type (0, 0), BuildingBlock: KIFKEQ_clean_linker_1, # of connection points: 2
#     Edge 74, Type (0, 0), BuildingBlock: KIFKEQ_clean_linker_1, # of connection points: 2
#     Edge 75, Type (0, 0), BuildingBlock: KIFKEQ_clean_linker_1, # of connection points: 2
#     Edge 76, Type (0, 0), BuildingBlock: KIFKEQ_clean_linker_1, # of connection points: 2
#     Edge 77, Type (0, 0), BuildingBlock: KIFKEQ_clean_linker_1, # of connection points: 2
#     Edge 78, Type (0, 0), BuildingBlock: KIFKEQ_clean_linker_1, # of connection points: 2
#     Edge 79, Type (0, 0), BuildingBlock: KIFKEQ_clean_linker_1, # of connection points: 2
#     Edge 80, Type (0, 0), BuildingBlock: KIFKEQ_clean_linker_1, # of connection points: 2
#     Edge 81, Type (0, 0), BuildingBlock: KIFKEQ_clean_linker_1, # of connection points: 2
#     Edge 82, Type (0, 0), BuildingBlock: KIFKEQ_clean_linker_1, # of connection points: 2
#     Edge 83, Type (0, 0), BuildingBlock: KIFKEQ_clean_linker_1, # of connection points: 2
#     Edge 84, Type (0, 0), BuildingBlock: KIFKEQ_clean_linker_1, # of connection points: 2
#     Edge 85, Type (0, 0), BuildingBlock: KIFKEQ_clean_linker_1, # of connection points: 2
#     Edge 86, Type (0, 0), BuildingBlock: KIFKEQ_clean_linker_1, # of connection points: 2
#     Edge 87, Type (0, 0), BuildingBlock: KIFKEQ_clean_linker_1, # of connection points: 2
#     Edge 88, Type (0, 0), BuildingBlock: KIFKEQ_clean_linker_1, # of connection points: 2
#     Edge 89, Type (0, 0), BuildingBlock: KIFKEQ_clean_linker_1, # of connection points: 2
#     Edge 90, Type (0, 0), BuildingBlock: KIFKEQ_clean_linker_1, # of connection points: 2
#     Edge 91, Type (0, 0), BuildingBlock: KIFKEQ_clean_linker_1, # of connection points: 2
#     Edge 92, Type (0, 0), BuildingBlock: KIFKEQ_clean_linker_1, # of connection points: 2
#     Edge 93, Type (0, 0), BuildingBlock: KIFKEQ_clean_linker_1, # of connection points: 2
#     Edge 94, Type (0, 0), BuildingBlock: KIFKEQ_clean_linker_1, # of connection points: 2
#     Edge 95, Type (0, 0), BuildingBlock: KIFKEQ_clean_linker_1, # of connection points: 2
#     Edge 96, Type (0, 0), BuildingBlock: KIFKEQ_clean_linker_1, # of connection points: 2
#     Edge 97, Type (0, 0), BuildingBlock: KIFKEQ_clean_linker_1, # of connection points: 2
#     Edge 98, Type (0, 0), BuildingBlock: KIFKEQ_clean_linker_1, # of connection points: 2
#     Edge 99, Type (0, 0), BuildingBlock: KIFKEQ_clean_linker_1, # of connection points: 2
#     Edge 100, Type (0, 0), BuildingBlock: KIFKEQ_clean_linker_1, # of connection points: 2
#     Edge 101, Type (0, 0), BuildingBlock: KIFKEQ_clean_linker_1, # of connection points: 2
#     Edge 102, Type (0, 0), BuildingBlock: KIFKEQ_clean_linker_1, # of connection points: 2
#     Edge 103, Type (0, 0), BuildingBlock: KIFKEQ_clean_linker_1, # of connection points: 2
#     Edge 104, Type (0, 0), BuildingBlock: KIFKEQ_clean_linker_1, # of connection points: 2
#     Edge 105, Type (0, 0), BuildingBlock: KIFKEQ_clean_linker_1, # of connection points: 2
#     Edge 106, Type (0, 0), BuildingBlock: KIFKEQ_clean_linker_1, # of connection points: 2
#     Edge 107, Type (0, 0), BuildingBlock: KIFKEQ_clean_linker_1, # of connection points: 2
#     Edge 108, Type (0, 0), BuildingBlock: KIFKEQ_clean_linker_1, # of connection points: 2
#     Edge 109, Type (0, 0), BuildingBlock: KIFKEQ_clean_linker_1, # of connection points: 2
#     Edge 110, Type (0, 0), BuildingBlock: KIFKEQ_clean_linker_1, # of connection points: 2
#     Edge 111, Type (0, 0), BuildingBlock: KIFKEQ_clean_linker_1, # of connection points: 2
#     Edge 112, Type (0, 0), BuildingBlock: KIFKEQ_clean_linker_1, # of connection points: 2
#     Edge 113, Type (0, 0), BuildingBlock: KIFKEQ_clean_linker_1, # of connection points: 2
#     Edge 114, Type (0, 0), BuildingBlock: KIFKEQ_clean_linker_1, # of connection points: 2
#     Edge 115, Type (0, 0), BuildingBlock: KIFKEQ_clean_linker_1, # of connection points: 2
#     Edge 116, Type (0, 0), BuildingBlock: KIFKEQ_clean_linker_1, # of connection points: 2
#     Edge 117, Type (0, 0), BuildingBlock: KIFKEQ_clean_linker_1, # of connection points: 2
#     Edge 118, Type (0, 0), BuildingBlock: KIFKEQ_clean_linker_1, # of connection points: 2
#     Edge 119, Type (0, 0), BuildingBlock: KIFKEQ_clean_linker_1, # of connection points: 2
#     Edge 120, Type (0, 0), BuildingBlock: KIFKEQ_clean_linker_1, # of connection points: 2
#     Edge 121, Type (0, 0), BuildingBlock: KIFKEQ_clean_linker_1, # of connection points: 2
#     Edge 122, Type (0, 0), BuildingBlock: KIFKEQ_clean_linker_1, # of connection points: 2
#     Edge 123, Type (0, 0), BuildingBlock: KIFKEQ_clean_linker_1, # of connection points: 2
#     Edge 124, Type (0, 0), BuildingBlock: KIFKEQ_clean_linker_1, # of connection points: 2
#     Edge 125, Type (0, 0), BuildingBlock: KIFKEQ_clean_linker_1, # of connection points: 2
#     Edge 126, Type (0, 0), BuildingBlock: KIFKEQ_clean_linker_1, # of connection points: 2
#     Edge 127, Type (0, 0), BuildingBlock: KIFKEQ_clean_linker_1, # of connection points: 2
# Relax obj value: 0.065
# Max RMSD: 0.130
# Mean RMSD: 0.130
data_MOF--net-som--node1-BETDIP_clean_sbu_0--edge1-KIFKEQ_clean_linker_1
_symmetry_space_group_name_H-M    P1
_symmetry_Int_Tables_number       1
_symmetry_cell_setting            triclinic
loop_
_symmetry_equiv_pos_as_xyz
'x, y, z'
_cell_length_a     25.808603
_cell_length_b     56.42752
_cell_length_c     110.72109
_cell_angle_alpha  90.004973
_cell_angle_beta   89.978026
_cell_angle_gamma 89.959572
loop_
_atom_site_label
_atom_site_type_symbol
_atom_site_fract_x
_atom_site_fract_y
_atom_site_fract_z
_atom_type_partial_charge
Tb0 Tb 0.9947 0.49906 0.09169 0.0
Tb1 Tb 0.09835 0.47573 0.09272 0.0
C2 C 0.90366 0.51286 0.08731 0.0
C3 C 0.84942 0.50465 0.08668 0.0
C4 C 0.81678 0.51449 0.07789 0.0
C5 C 0.76372 0.50955 0.07791 0.0
C6 C 0.74198 0.49471 0.08678 0.0
C7 C 0.77522 0.48404 0.09529 0.0
C8 C 0.82848 0.48897 0.09525 0.0
C9 C 0.03991 0.49776 0.11317 0.0
C10 C 1.00099 0.44345 0.09451 0.0
C11 C 0.18865 0.46305 0.09858 0.0
C12 C 0.2438 0.4693 0.09676 0.0
C13 C 0.27565 0.47234 0.10691 0.0
C14 C 0.32899 0.47585 0.10558 0.0
C15 C 0.35187 0.47628 0.09404 0.0
C16 C 0.31963 0.47387 0.08385 0.0
C17 C 0.26617 0.47041 0.08519 0.0
C18 C 0.05819 0.4775 0.07071 0.0
C19 C 0.08844 0.53228 0.08961 0.0
O20 O 0.93562 0.50535 0.07896 0.0
O21 O 0.92519 0.51361 0.09799 0.0
O22 O 0.03871 0.48144 0.10546 0.0
O23 O 1.01377 0.51565 0.10913 0.0
O24 O 0.97438 0.46171 0.09039 0.0
O25 O 0.0498 0.44579 0.09798 0.0
O26 O 0.16047 0.47768 0.10499 0.0
O27 O 0.16328 0.45443 0.08935 0.0
O28 O 0.05525 0.49344 0.0787 0.0
O29 O 0.08775 0.46075 0.07475 0.0
O30 O 0.11837 0.51393 0.09247 0.0
O31 O 0.039 0.52978 0.08702 0.0
H32 H 0.83215 0.52659 0.07119 0.0
H33 H 0.73957 0.51768 0.07107 0.0
H34 H 0.75984 0.47261 0.10228 0.0
H35 H 0.85292 0.48112 0.10212 0.0
H36 H 0.25937 0.47151 0.11593 0.0
H37 H 0.35236 0.47808 0.11362 0.0
H38 H 0.33588 0.47392 0.07484 0.0
H39 H 0.24265 0.46805 0.07719 0.0
Tb40 Tb 0.31336 0.73352 0.09244 0.0
Tb41 Tb 0.20917 0.75682 0.09341 0.0
C42 C 0.40418 0.7201 0.08758 0.0
C43 C 0.45834 0.72847 0.08727 0.0
C44 C 0.49016 0.7213 0.07768 0.0
C45 C 0.54313 0.72641 0.07776 0.0
C46 C 0.56559 0.73873 0.08749 0.0
C47 C 0.53315 0.74676 0.09687 0.0
C48 C 0.47999 0.74169 0.09677 0.0
C49 C 0.26897 0.73558 0.11404 0.0
C50 C 0.30685 0.78917 0.09516 0.0
C51 C 0.11875 0.76937 0.09927 0.0
C52 C 0.06358 0.76343 0.0972 0.0
C53 C 0.03265 0.75699 0.1071 0.0
C54 C 0.97932 0.75361 0.10572 0.0
C55 C 0.95551 0.75675 0.0944 0.0
C56 C 0.98677 0.76264 0.08442 0.0
C57 C 0.04022 0.76598 0.0858 0.0
C58 C 0.24919 0.75468 0.07144 0.0
C59 C 0.21956 0.7002 0.09056 0.0
O60 O 0.37233 0.72878 0.07952 0.0
O61 O 0.3825 0.71779 0.0982 0.0
O62 O 0.26908 0.75142 0.10606 0.0
O63 O 0.29701 0.71801 0.1103 0.0
O64 O 0.3337 0.77082 0.09124 0.0
O65 O 0.25781 0.78694 0.09852 0.0
O66 O 0.14634 0.75411 0.10541 0.0
O67 O 0.14479 0.77864 0.09029 0.0
O68 O 0.25243 0.73889 0.0795 0.0
O69 O 0.21913 0.77135 0.07536 0.0
O70 O 0.18946 0.71859 0.09326 0.0
O71 O 0.26907 0.70266 0.08803 0.0
H72 H 0.47424 0.71114 0.07025 0.0
H73 H 0.56665 0.72039 0.07026 0.0
H74 H 0.5491 0.75618 0.10454 0.0
H75 H 0.45622 0.74747 0.10428 0.0
H76 H 0.04963 0.75502 0.116 0.0
H77 H 0.95667 0.74867 0.11356 0.0
H78 H 0.96973 0.76542 0.0756 0.0
H79 H 0.06292 0.77109 0.078 0.0
Tb80 Tb 0.99132 0.73249 0.20977 0.0
Tb81 Tb 0.09489 0.75621 0.21017 0.0
C82 C 0.90008 0.71845 0.2135 0.0
C83 C 0.84622 0.72696 0.21473 0.0
C84 C 0.8151 0.71734 0.22388 0.0
C85 C 0.7622 0.72255 0.22441 0.0
C86 C 0.7391 0.73741 0.21574 0.0
C87 C 0.77088 0.74786 0.20687 0.0
C88 C 0.82396 0.74269 0.20637 0.0
C89 C 0.04044 0.73466 0.18878 0.0
C90 C 0.9974 0.78818 0.20759 0.0
C91 C 0.18606 0.76963 0.20563 0.0
C92 C 0.24109 0.76322 0.20751 0.0
C93 C 0.27253 0.759 0.19739 0.0
C94 C 0.32583 0.75545 0.1987 0.0
C95 C 0.3491 0.75617 0.21018 0.0
C96 C 0.31734 0.75975 0.22037 0.0
C97 C 0.26389 0.76328 0.21905 0.0
C98 C 0.04923 0.75342 0.23152 0.0
C99 C 0.08544 0.69942 0.21222 0.0
O100 O 0.93252 0.72378 0.22218 0.0
O101 O 0.92134 0.7198 0.2028 0.0
O102 O 0.03825 0.7506 0.19671 0.0
O103 O 1.01205 0.71697 0.19219 0.0
O104 O 0.97044 0.76975 0.21137 0.0
O105 O 0.04685 0.78609 0.20458 0.0
O106 O 0.159 0.75595 0.19848 0.0
O107 O 0.15926 0.77682 0.21497 0.0
O108 O 0.04934 0.73772 0.2234 0.0
O109 O 0.07817 0.77082 0.228 0.0
O110 O 0.11573 0.7181 0.21031 0.0
O111 O 0.0352 0.70142 0.21393 0.0
H112 H 0.83147 0.7052 0.23043 0.0
H113 H 0.73921 0.71459 0.23151 0.0
H114 H 0.75443 0.75927 0.2 0.0
H115 H 0.84714 0.7504 0.19922 0.0
H116 H 0.25599 0.75897 0.1884 0.0
H117 H 0.3489 0.75232 0.19069 0.0
H118 H 0.33399 0.76061 0.22933 0.0
H119 H 0.24077 0.76664 0.22703 0.0
Tb120 Tb 0.31533 0.50029 0.2094 0.0
Tb121 Tb 0.21297 0.47571 0.20955 0.0
C122 C 0.40666 0.5144 0.21313 0.0
C123 C 0.46149 0.50675 0.21198 0.0
C124 C 0.49058 0.50183 0.22241 0.0
C125 C 0.5439 0.49746 0.22166 0.0
C126 C 0.56954 0.49812 0.21045 0.0
C127 C 0.54013 0.50241 0.19997 0.0
C128 C 0.4868 0.5067 0.20072 0.0
C129 C 0.26636 0.49858 0.18842 0.0
C130 C 0.31132 0.44426 0.20666 0.0
C131 C 0.12228 0.46155 0.20506 0.0
C132 C 0.06763 0.46927 0.20525 0.0
C133 C 0.03422 0.46092 0.19623 0.0
C134 C 0.98124 0.46601 0.19666 0.0
C135 C 0.96038 0.47957 0.20616 0.0
C136 C 0.99426 0.48843 0.21506 0.0
C137 C 0.04744 0.48337 0.2146 0.0
C138 C 0.25929 0.47776 0.23086 0.0
C139 C 0.22047 0.53222 0.21255 0.0
O140 O 0.37818 0.50392 0.22134 0.0
O141 O 0.38083 0.51848 0.20318 0.0
O142 O 0.26954 0.48226 0.19612 0.0
O143 O 0.2931 0.51657 0.19212 0.0
O144 O 0.33854 0.46317 0.20966 0.0
O145 O 0.26096 0.44552 0.20452 0.0
O146 O 0.15256 0.47127 0.19699 0.0
O147 O 0.14538 0.45878 0.21548 0.0
O148 O 0.25789 0.49392 0.223 0.0
O149 O 0.232 0.46002 0.22705 0.0
O150 O 0.19143 0.51378 0.2094 0.0
O151 O 0.26985 0.52985 0.21523 0.0
H152 H 0.47238 0.50208 0.23123 0.0
H153 H 0.56536 0.49447 0.22992 0.0
H154 H 0.55848 0.50271 0.19117 0.0
H155 H 0.46575 0.51056 0.1925 0.0
H156 H 0.04896 0.44992 0.18898 0.0
H157 H 0.95638 0.45863 0.18974 0.0
H158 H 0.97964 0.4992 0.2224 0.0
H159 H 0.07253 0.49011 0.22165 0.0
Tb160 Tb 0.96317 0.50715 0.95948 0.0
Tb161 Tb 0.06523 0.48248 0.95897 0.0
C162 C 0.87229 0.5213 0.95515 0.0
C163 C 0.81724 0.51408 0.95594 0.0
C164 C 0.78698 0.51428 0.94541 0.0
C165 C 0.73355 0.51037 0.94599 0.0
C166 C 0.70894 0.50629 0.95714 0.0
C167 C 0.73959 0.50532 0.96765 0.0
C168 C 0.79317 0.50921 0.96706 0.0
C169 C 1.00981 0.50468 0.98074 0.0
C170 C 0.97046 0.45056 0.96226 0.0
C171 C 0.15678 0.46796 0.96197 0.0
C172 C 0.21138 0.47593 0.96103 0.0
C173 C 0.23355 0.49143 0.96953 0.0
C174 C 0.28657 0.49676 0.96908 0.0
C175 C 0.31849 0.48675 0.96011 0.0
C176 C 0.29594 0.47163 0.9515 0.0
C177 C 0.24315 0.46623 0.95199 0.0
C178 C 1.01473 0.48434 0.93818 0.0
C179 C 0.06141 0.53844 0.95664 0.0
O180 O 0.90132 0.51038 0.94722 0.0
O181 O 0.89699 0.52549 0.96524 0.0
O182 O 1.00857 0.48864 0.97279 0.0
O183 O 0.98222 0.52243 0.97705 0.0
O184 O 0.94114 0.46918 0.95952 0.0
O185 O 1.02025 0.45262 0.96455 0.0
O186 O 0.12808 0.47672 0.97066 0.0
O187 O 0.13111 0.4658 0.95185 0.0
O188 O 1.01889 0.50069 0.94584 0.0
O189 O 0.04111 0.46621 0.94184 0.0
O190 O 0.08834 0.51954 0.95979 0.0
O191 O 1.01128 0.53713 0.95425 0.0
H192 H 0.80453 0.51808 0.93673 0.0
H193 H 0.71142 0.51079 0.93769 0.0
H194 H 0.72197 0.5024 0.9764 0.0
H195 H 0.81537 0.50904 0.97536 0.0
H196 H 0.21025 0.49912 0.97666 0.0
H197 H 0.30263 0.50865 0.97578 0.0
H198 H 0.31943 0.46332 0.94458 0.0
H199 H 0.22737 0.45395 0.94543 0.0
Tb200 Tb 0.85127 0.22643 0.96012 0.0
Tb201 Tb 0.74647 0.24911 0.96119 0.0
C202 C 0.94167 0.21428 0.95405 0.0
C203 C 0.99677 0.2203 0.95596 0.0
C204 C 1.02899 0.22293 0.94585 0.0
C205 C 0.08225 0.22647 0.94725 0.0
C206 C 0.10459 0.22736 0.95883 0.0
C207 C 0.07202 0.22524 0.96898 0.0
C208 C 1.0186 0.22178 0.96757 0.0
C209 C 0.81202 0.22848 0.98216 0.0
C210 C 0.83936 0.28291 0.96299 0.0
C211 C 0.65552 0.26235 0.96607 0.0
C212 C 0.60146 0.25396 0.96628 0.0
C213 C 0.56709 0.26411 0.97461 0.0
C214 C 0.51437 0.25852 0.97431 0.0
C215 C 0.49483 0.24266 0.96564 0.0
C216 C 0.52976 0.23191 0.95752 0.0
C217 C 0.58268 0.23748 0.95785 0.0
C218 C 0.79077 0.24718 0.93954 0.0
C219 C 0.75446 0.19354 0.95847 0.0
O220 O 0.91368 0.22956 0.94802 0.0
O221 O 0.91625 0.20492 0.96309 0.0
O222 O 0.80776 0.24418 0.97408 0.0
O223 O 0.84253 0.212 0.97822 0.0
O224 O 0.86986 0.26475 0.96017 0.0
O225 O 0.79011 0.2801 0.96568 0.0
O226 O 0.68725 0.2534 0.97408 0.0
O227 O 0.67719 0.26478 0.95547 0.0
O228 O 0.79092 0.23143 0.94754 0.0
O229 O 0.76241 0.26464 0.94327 0.0
O230 O 0.72713 0.2117 0.96245 0.0
O231 O 0.8033 0.19612 0.95503 0.0
H232 H 1.01309 0.22167 0.93681 0.0
H233 H 0.10614 0.22774 0.93923 0.0
H234 H 0.08786 0.22617 0.97802 0.0
H235 H 0.99464 0.21985 0.97554 0.0
H236 H 0.58081 0.27695 0.98114 0.0
H237 H 0.48864 0.26735 0.9806 0.0
H238 H 0.5161 0.21938 0.95083 0.0
H239 H 0.60863 0.22934 0.95137 0.0
Tb240 Tb 0.95423 0.22512 0.84311 0.0
Tb241 Tb 0.05806 0.24859 0.84215 0.0
C242 C 0.86366 0.2126 0.84881 0.0
C243 C 0.80861 0.21894 0.84678 0.0
C244 C 0.78023 0.2299 0.85607 0.0
C245 C 0.72694 0.23369 0.85486 0.0
C246 C 0.70062 0.22645 0.84437 0.0
C247 C 0.72924 0.21594 0.83497 0.0
C248 C 0.78259 0.21217 0.83617 0.0
C249 C 0.9948 0.22713 0.82118 0.0
C250 C 0.96415 0.28157 0.83962 0.0
C251 C 0.14873 0.26209 0.83733 0.0
C252 C 0.2032 0.25409 0.83767 0.0
C253 C 0.23424 0.25755 0.82743 0.0
C254 C 0.28729 0.25267 0.82779 0.0
C255 C 0.31062 0.24432 0.83846 0.0
C256 C 0.27905 0.24003 0.8486 0.0
C257 C 0.22582 0.24487 0.84822 0.0
C258 C 1.01304 0.24684 0.86371 0.0
C259 C 0.05211 0.19292 0.84505 0.0
O260 O 0.89163 0.22736 0.85516 0.0
O261 O 0.88957 0.20365 0.83973 0.0
O262 O 0.99755 0.24292 0.82922 0.0
O263 O 0.96487 0.21038 0.82504 0.0
O264 O 0.93466 0.26347 0.84307 0.0
O265 O 1.01312 0.27858 0.8367 0.0
O266 O 0.11824 0.25186 0.82946 0.0
O267 O 0.12563 0.266 0.84766 0.0
O268 O 1.01383 0.23084 0.85583 0.0
O269 O 0.04079 0.26444 0.85991 0.0
O270 O 0.07901 0.21133 0.84125 0.0
O271 O 1.00285 0.19502 0.84826 0.0
H272 H 0.79906 0.23509 0.8644 0.0
H273 H 0.70626 0.24213 0.86221 0.0
H274 H 0.71015 0.20988 0.82683 0.0
H275 H 0.80308 0.20339 0.8289 0.0
H276 H 0.21761 0.26462 0.81919 0.0
H277 H 0.31016 0.25572 0.81974 0.0
H278 H 0.29573 0.23376 0.85699 0.0
H279 H 0.20277 0.24201 0.85626 0.0
Tb280 Tb 0.8431 0.50608 0.84256 0.0
Tb281 Tb 0.74029 0.48198 0.84184 0.0
C282 C 0.93378 0.51916 0.8479 0.0
C283 C 0.98888 0.51232 0.84645 0.0
C284 C 1.02025 0.51049 0.85676 0.0
C285 C 0.0736 0.50656 0.8557 0.0
C286 C 0.09699 0.50447 0.84426 0.0
C287 C 0.06526 0.50572 0.83393 0.0
C288 C 1.0118 0.50958 0.83501 0.0
C289 C 0.80062 0.50445 0.8208 0.0
C290 C 0.83479 0.44961 0.83886 0.0
C291 C 0.64936 0.46771 0.83773 0.0
C292 C 0.59485 0.47567 0.83764 0.0
C293 C 0.56029 0.46484 0.82959 0.0
C294 C 0.50745 0.47026 0.82992 0.0
C295 C 0.48785 0.48665 0.83834 0.0
C296 C 0.52289 0.49797 0.84622 0.0
C297 C 0.57596 0.49257 0.84586 0.0
C298 C 0.78731 0.48323 0.86312 0.0
C299 C 0.74492 0.53765 0.84489 0.0
O300 O 0.90508 0.50591 0.85492 0.0
O301 O 0.90874 0.52625 0.83829 0.0
O302 O 0.79966 0.48831 0.82868 0.0
O303 O 0.82882 0.5217 0.8248 0.0
O304 O 0.86376 0.46786 0.84234 0.0
O305 O 0.78552 0.45225 0.83614 0.0
O306 O 0.67997 0.47631 0.82939 0.0
O307 O 0.6722 0.46617 0.84824 0.0
O308 O 0.78458 0.49967 0.85551 0.0
O309 O 0.76174 0.46515 0.8591 0.0
O310 O 0.71851 0.5192 0.84093 0.0
O311 O 0.79426 0.53576 0.848 0.0
H312 H 1.00365 0.51275 0.86568 0.0
H313 H 0.09678 0.50597 0.86384 0.0
H314 H 0.08181 0.50384 0.82499 0.0
H315 H 0.98868 0.51089 0.82687 0.0
H316 H 0.57404 0.45167 0.82322 0.0
H317 H 0.4817 0.46096 0.82382 0.0
H318 H 0.50926 0.51091 0.85271 0.0
H319 H 0.602 0.50124 0.85212 0.0
Tb320 Tb 0.99692 -0.00072 0.58973 0.0
Tb321 Tb 0.10042 0.97554 0.5911 0.0
C322 C 0.90595 0.01259 0.58485 0.0
C323 C 0.85105 0.00527 0.58611 0.0
C324 C 0.81975 0.00406 0.57576 0.0
C325 C 0.76645 -0.00011 0.57674 0.0
C326 C 0.74307 -0.00299 0.58812 0.0
C327 C 0.77474 -0.00244 0.59847 0.0
C328 C 0.82813 0.00162 0.59748 0.0
C329 C 0.04093 -0.00186 0.61136 0.0
C330 C 1.0024 0.94352 0.59322 0.0
C331 C 0.19019 0.96228 0.59717 0.0
C332 C 0.24518 0.96919 0.59651 0.0
C333 C 0.28027 0.95845 0.60445 0.0
C334 C 0.33326 0.96328 0.60367 0.0
C335 C 0.35246 0.97905 0.59489 0.0
C336 C 0.31691 0.99013 0.58703 0.0
C337 C 0.26368 0.98526 0.58784 0.0
C338 C 0.05994 0.97661 0.56912 0.0
C339 C 0.0913 0.03176 0.58725 0.0
O340 O 0.935 0.00046 0.57737 0.0
O341 O 0.93086 0.01854 0.59468 0.0
O342 O 0.04022 0.98181 0.60366 0.0
O343 O 1.01433 0.01586 0.60728 0.0
O344 O 0.97529 0.962 0.58954 0.0
O345 O 0.05199 0.94542 0.59612 0.0
O346 O 0.15999 0.97506 0.60407 0.0
O347 O 0.16774 0.95634 0.58703 0.0
O348 O 0.05763 -0.0071 0.57692 0.0
O349 O 0.08876 0.95974 0.57333 0.0
O350 O 0.12036 0.01372 0.59095 0.0
O351 O 0.0427 0.02884 0.58398 0.0
H352 H 0.83632 0.00704 0.56689 0.0
H353 H 0.74326 -0.00019 0.56859 0.0
H354 H 0.75815 -0.00494 0.60737 0.0
H355 H 0.85115 0.00242 0.60565 0.0
H356 H 0.26676 0.9459 0.61116 0.0
H357 H 0.35933 0.95413 0.60975 0.0
H358 H 0.33021 0.00257 0.58027 0.0
H359 H 0.23712 -0.00621 0.58164 0.0
Tb360 Tb 0.31911 0.2314 0.59352 0.0
Tb361 Tb 0.21598 0.25559 0.59344 0.0
C362 C 0.4105 0.2172 0.58995 0.0
C363 C 0.46449 0.22569 0.5891 0.0
C364 C 0.49855 0.21408 0.5812 0.0
C365 C 0.55132 0.21967 0.58111 0.0
C366 C 0.57129 0.237 0.58897 0.0
C367 C 0.53667 0.24921 0.59661 0.0
C368 C 0.48372 0.24364 0.59666 0.0
C369 C 0.26976 0.23265 0.61443 0.0
C370 C 0.31358 0.28721 0.59599 0.0
C371 C 0.12501 0.269 0.59827 0.0
C372 C 0.07001 0.2621 0.5968 0.0
C373 C 0.03819 0.261 0.60707 0.0
C374 C 0.98492 0.257 0.60595 0.0
C375 C 0.96207 0.25411 0.59451 0.0
C376 C 0.99425 0.25464 0.58423 0.0
C377 C 0.04765 0.25858 0.58536 0.0
C378 C 0.26155 0.25354 0.57204 0.0
C379 C 0.22442 0.19893 0.59057 0.0
O380 O 0.37874 0.22308 0.58123 0.0
O381 O 0.38851 0.2182 0.60059 0.0
O382 O 0.27279 0.24915 0.60683 0.0
O383 O 0.29654 0.21472 0.61065 0.0
O384 O 0.34043 0.26867 0.59228 0.0
O385 O 0.26406 0.28538 0.59893 0.0
O386 O 0.1533 0.25619 0.6056 0.0
O387 O 0.15056 0.27546 0.58861 0.0
O388 O 0.26121 0.23753 0.57999 0.0
O389 O 0.23292 0.27094 0.57576 0.0
O390 O 0.19452 0.21761 0.59284 0.0
O391 O 0.27467 0.20079 0.58881 0.0
H392 H 0.48457 0.20009 0.57534 0.0
H393 H 0.57678 0.20973 0.57521 0.0
H394 H 0.55061 0.26288 0.60265 0.0
H395 H 0.45811 0.25294 0.6028 0.0
H396 H 0.05437 0.26388 0.61598 0.0
H397 H 0.96138 0.25699 0.61405 0.0
H398 H 0.9781 0.25215 0.5753 0.0
H399 H 0.07115 0.25932 0.57727 0.0
Tb400 Tb 0.99333 0.23324 0.71057 0.0
Tb401 Tb 0.10322 0.25665 0.70948 0.0
C402 C 0.90064 0.22049 0.71338 0.0
C403 C 0.84763 0.22939 0.71568 0.0
C404 C 0.81448 0.21592 0.72299 0.0
C405 C 0.76174 0.22144 0.72378 0.0
C406 C 0.74081 0.24053 0.7172 0.0
C407 C 0.77472 0.25479 0.71037 0.0
C408 C 0.82762 0.24927 0.70961 0.0
C409 C 0.04397 0.23272 0.68974 0.0
C410 C 1.00345 0.28902 0.70887 0.0
C411 C 0.18898 0.26991 0.70111 0.0
C412 C 0.24471 0.26716 0.70371 0.0
C413 C 0.28059 0.27055 0.69438 0.0
C414 C 0.33376 0.26838 0.69656 0.0
C415 C 0.35231 0.26278 0.70818 0.0
C416 C 0.31601 0.25918 0.71752 0.0
C417 C 0.2627 0.26133 0.7153 0.0
C418 C 0.07384 0.25154 0.73235 0.0
C419 C 0.08802 0.20091 0.7143 0.0
O420 O 0.9343 0.22128 0.72225 0.0
O421 O 0.92129 0.22575 0.70291 0.0
O422 O 0.04203 0.24936 0.69724 0.0
O423 O 1.01638 0.21522 0.69372 0.0
O424 O 0.97516 0.2706 0.71215 0.0
O425 O 0.05328 0.28722 0.70602 0.0
O426 O 0.16466 0.25083 0.69742 0.0
O427 O 0.1617 0.28233 0.70887 0.0
O428 O 0.04955 0.246 0.72289 0.0
O429 O 0.11763 0.2606 0.72894 0.0
O430 O 0.11861 0.21816 0.71022 0.0
O431 O 0.03871 0.20413 0.71698 0.0
H432 H 0.82902 0.20051 0.72775 0.0
H433 H 0.73709 0.21037 0.72933 0.0
H434 H 0.76004 0.26955 0.70514 0.0
H435 H 0.85236 0.25997 0.70389 0.0
H436 H 0.26745 0.2749 0.68535 0.0
H437 H 0.36032 0.27082 0.68909 0.0
H438 H 0.32879 0.25504 0.72659 0.0
H439 H 0.23558 0.25856 0.72264 0.0
Tb440 Tb 0.31097 0.00061 0.70847 0.0
Tb441 Tb 0.20881 0.97625 0.70799 0.0
C442 C 0.40221 0.01486 0.71221 0.0
C443 C 0.45721 0.00777 0.71072 0.0
C444 C 0.48108 -0.00863 0.7185 0.0
C445 C 0.53454 0.98713 0.71778 0.0
C446 C 0.56533 -0.00072 0.70929 0.0
C447 C 0.54097 0.01512 0.70129 0.0
C448 C 0.48773 0.01939 0.70204 0.0
C449 C 0.26388 -0.00097 0.68721 0.0
C450 C 0.3074 0.94476 0.70552 0.0
C451 C 0.11837 0.96298 0.70261 0.0
C452 C 0.06345 0.97016 0.70385 0.0
C453 C 0.0327 0.97186 0.69343 0.0
C454 C 0.97955 0.97638 0.69432 0.0
C455 C 0.95578 0.97918 0.70567 0.0
C456 C 0.98685 0.97796 0.7161 0.0
C457 C 0.04015 0.97354 0.71521 0.0
C458 C 0.25171 0.97769 0.7297 0.0
C459 C 0.2162 0.03263 0.71171 0.0
O460 O 0.37421 0.0038 0.72031 0.0
O461 O 0.37606 0.01928 0.70235 0.0
O462 O 0.26664 0.98266 0.69487 0.0
O463 O 0.28961 0.01709 0.69116 0.0
O464 O 0.33408 0.96353 0.70895 0.0
O465 O 0.25753 0.94627 0.70283 0.0
O466 O 0.14753 0.97574 0.69546 0.0
O467 O 0.1429 0.95637 0.71238 0.0
O468 O 0.25259 -0.00597 0.72189 0.0
O469 O 0.22325 0.96058 0.72563 0.0
O470 O 0.18704 0.01427 0.70854 0.0
O471 O 0.26569 0.03028 0.71427 0.0
H472 H 0.45881 0.98226 0.72537 0.0
H473 H 0.55199 0.97495 0.72415 0.0
H474 H 0.56318 0.02448 0.6945 0.0
H475 H 0.4706 0.03226 0.69598 0.0
H476 H 0.04964 0.96911 0.68458 0.0
H477 H 0.95678 0.97693 0.68611 0.0
H478 H 0.96992 0.98035 0.72497 0.0
H479 H 0.06282 0.97235 0.72341 0.0
Tb480 Tb 0.96589 0.00522 0.4578 0.0
Tb481 Tb 0.06821 0.98077 0.45731 0.0
C482 C 0.87452 0.01897 0.45364 0.0
C483 C 0.81966 0.01189 0.45536 0.0
C484 C 0.79364 -0.00131 0.44646 0.0
C485 C 0.74037 -0.00554 0.44738 0.0
C486 C 0.71177 0.00343 0.45719 0.0
C487 C 0.73804 0.01617 0.46623 0.0
C488 C 0.79128 0.02044 0.46529 0.0
C489 C 1.01221 0.00277 0.47908 0.0
C490 C 0.97355 0.94861 0.46089 0.0
C491 C 0.15951 0.96646 0.4608 0.0
C492 C 0.2139 0.97475 0.46077 0.0
C493 C 0.24322 0.97278 0.4714 0.0
C494 C 0.29625 0.9778 0.47136 0.0
C495 C 0.32138 0.98475 0.46066 0.0
C496 C 0.2916 0.98749 0.4501 0.0
C497 C 0.23843 0.98253 0.45015 0.0
C498 C 1.01825 0.98283 0.43641 0.0
C499 C 0.06407 0.03663 0.45499 0.0
O500 O 0.90234 0.00663 0.44602 0.0
O501 O 0.90097 0.02497 0.46323 0.0
O502 O 1.01131 0.98681 0.4711 0.0
O503 O 0.9841 0.02037 0.47544 0.0
O504 O 0.94424 0.96714 0.45797 0.0
O505 O 1.02349 0.95086 0.46294 0.0
O506 O 0.12938 0.97441 0.46941 0.0
O507 O 0.13554 0.96505 0.45041 0.0
O508 O 1.02171 -0.00102 0.4442 0.0
O509 O 0.04563 0.96488 0.43994 0.0
O510 O 0.09085 0.01783 0.45835 0.0
O511 O 1.0141 0.03516 0.45239 0.0
H512 H 0.81413 -0.00791 0.43861 0.0
H513 H 0.72146 0.98435 0.44034 0.0
H514 H 0.71714 0.0236 0.47382 0.0
H515 H 0.80989 0.03103 0.4722 0.0
H516 H 0.22532 0.96675 0.4797 0.0
H517 H 0.3177 0.97592 0.47971 0.0
H518 H 0.30967 -0.0074 0.44166 0.0
H519 H 0.21698 0.98415 0.44178 0.0
Tb520 Tb 0.84776 0.7251 0.45899 0.0
Tb521 Tb 0.74464 0.74901 0.46025 0.0
C522 C 0.93846 0.71258 0.45326 0.0
C523 C 0.99348 0.71896 0.45541 0.0
C524 C 1.01996 0.73366 0.44721 0.0
C525 C 0.07321 0.73765 0.44844 0.0
C526 C 0.10139 0.72693 0.45785 0.0
C527 C 0.07469 0.71262 0.46618 0.0
C528 C 1.02145 0.7086 0.46494 0.0
C529 C 0.80813 0.7266 0.48102 0.0
C530 C 0.83902 0.78149 0.4628 0.0
C531 C 0.65394 0.7625 0.46519 0.0
C532 C 0.59928 0.75475 0.46444 0.0
C533 C 0.56912 0.75463 0.47499 0.0
C534 C 0.51601 0.74991 0.47446 0.0
C535 C 0.49164 0.74534 0.46333 0.0
C536 C 0.52225 0.74473 0.45281 0.0
C537 C 0.57551 0.74939 0.45335 0.0
C538 C 0.78895 0.74742 0.43858 0.0
C539 C 0.74928 0.69336 0.45685 0.0
O540 O 0.91038 0.72738 0.44695 0.0
O541 O 0.91245 0.70348 0.46228 0.0
O542 O 0.80524 0.74274 0.47315 0.0
O543 O 0.83735 0.70985 0.47688 0.0
O544 O 0.86773 0.76333 0.45907 0.0
O545 O 0.79027 0.77865 0.46595 0.0
O546 O 0.68383 0.75129 0.47284 0.0
O547 O 0.67784 0.7675 0.45508 0.0
O548 O 0.78798 0.73133 0.4464 0.0
O549 O 0.76176 0.7651 0.44252 0.0
O550 O 0.72289 0.71182 0.46082 0.0
O551 O 0.7986 0.69529 0.45365 0.0
H552 H 0.99978 0.74169 0.43967 0.0
H553 H 0.0924 0.74901 0.44195 0.0
H554 H 0.09524 0.70382 0.47343 0.0
H555 H 1.00252 0.69686 0.4713 0.0
H556 H 0.58649 0.75875 0.48365 0.0
H557 H 0.49392 0.75009 0.48278 0.0
H558 H 0.5048 0.74147 0.44407 0.0
H559 H 0.59769 0.7494 0.44504 0.0
Tb560 Tb 0.95943 0.72525 0.34339 0.0
Tb561 Tb 0.0632 0.74879 0.34222 0.0
C562 C 0.86892 0.713 0.34935 0.0
C563 C 0.81374 0.71909 0.34736 0.0
C564 C 0.78351 0.72632 0.35724 0.0
C565 C 0.73018 0.72993 0.35597 0.0
C566 C 0.70567 0.72624 0.34478 0.0
C567 C 0.73619 0.71946 0.33482 0.0
C568 C 0.78965 0.71592 0.33609 0.0
C569 C 0.99955 0.72646 0.3214 0.0
C570 C 0.96918 0.78157 0.33933 0.0
C571 C 0.15405 0.7622 0.33741 0.0
C572 C 0.20843 0.75416 0.3379 0.0
C573 C 0.24201 0.76075 0.32854 0.0
C574 C 0.29478 0.75531 0.32913 0.0
C575 C 0.31521 0.74318 0.33916 0.0
C576 C 0.28116 0.73603 0.34842 0.0
C577 C 0.22819 0.74141 0.34778 0.0
C578 C 1.01806 0.74749 0.36381 0.0
C579 C 0.05768 0.69327 0.3456 0.0
O580 O 0.8968 0.72824 0.35542 0.0
O581 O 0.8947 0.70359 0.34037 0.0
O582 O 1.00275 0.74256 0.32929 0.0
O583 O 0.96946 0.70997 0.32548 0.0
O584 O 0.93984 0.76356 0.34296 0.0
O585 O 1.01823 0.77858 0.33648 0.0
O586 O 0.12377 0.7517 0.3296 0.0
O587 O 0.13076 0.7663 0.3477 0.0
O588 O 1.01911 0.73136 0.356 0.0
O589 O 0.04548 0.7651 0.35989 0.0
O590 O 0.08432 0.71157 0.34159 0.0
O591 O 1.00837 0.69538 0.34879 0.0
H592 H 0.80096 0.72861 0.36607 0.0
H593 H 0.70788 0.73485 0.36387 0.0
H594 H 0.7187 0.71676 0.32604 0.0
H595 H 0.8118 0.71028 0.32829 0.0
H596 H 0.22759 0.77067 0.32086 0.0
H597 H 0.31985 0.76133 0.32192 0.0
H598 H 0.29552 0.7264 0.35619 0.0
H599 H 0.20295 0.73601 0.3551 0.0
Tb600 Tb 0.84741 0.00583 0.34043 0.0
Tb601 Tb 0.74401 0.9821 0.34007 0.0
C602 C 0.93834 0.01894 0.34546 0.0
C603 C 0.99339 0.0124 0.34365 0.0
C604 C 1.02315 0.0054 0.35365 0.0
C605 C 0.07647 0.00163 0.35251 0.0
C606 C 0.10145 0.00494 0.34134 0.0
C607 C 0.0714 0.01138 0.33125 0.0
C608 C 1.01797 0.01512 0.33239 0.0
C609 C 0.80443 0.00334 0.31876 0.0
C610 C 0.8383 0.94928 0.33747 0.0
C611 C 0.65331 0.9681 0.33564 0.0
C612 C 0.59888 0.97611 0.33546 0.0
C613 C 0.56719 0.96899 0.32584 0.0
C614 C 0.51415 0.97394 0.32594 0.0
C615 C 0.49148 0.98604 0.33572 0.0
C616 C 0.52373 -0.00604 0.34516 0.0
C617 C 0.57697 0.98904 0.34503 0.0
C618 C 0.79083 0.98396 0.36139 0.0
C619 C 0.74967 0.0378 0.34284 0.0
O620 O 0.91062 0.00504 0.35236 0.0
O621 O 0.91219 0.02662 0.33613 0.0
O622 O 0.80341 0.98758 0.32683 0.0
O623 O 0.83316 0.02062 0.32249 0.0
O624 O 0.86773 0.96763 0.34058 0.0
O625 O 0.78891 0.95189 0.33486 0.0
O626 O 0.68429 0.9769 0.32742 0.0
O627 O 0.67577 0.96604 0.34618 0.0
O628 O 0.78923 -1e-05 0.35352 0.0
O629 O 0.76298 0.96629 0.35772 0.0
O630 O 0.72272 0.01939 0.33904 0.0
O631 O 0.79907 0.03572 0.34589 0.0
H632 H 1.00533 0.00334 0.36245 0.0
H633 H 0.09821 -0.00369 0.36042 0.0
H634 H 0.08941 0.01431 0.32255 0.0
H635 H 0.99629 0.02073 0.32452 0.0
H636 H 0.58331 0.95905 0.31835 0.0
H637 H 0.49076 0.96801 0.31841 0.0
H638 H 0.50758 0.0032 0.35286 0.0
H639 H 0.60064 -0.00523 0.35256 0.0
Tb640 Tb 0.49301 0.49993 0.59278 0.0
Tb641 Tb 0.59588 0.47582 0.59261 0.0
C642 C 0.40181 0.5144 0.58933 0.0
C643 C 0.34753 0.50632 0.58847 0.0
C644 C 0.3154 0.51654 0.57969 0.0
C645 C 0.26232 0.51168 0.57951 0.0
C646 C 0.24003 0.49653 0.58816 0.0
C647 C 0.27275 0.4855 0.59666 0.0
C648 C 0.32602 0.49035 0.59682 0.0
C649 C 0.54272 0.49866 0.61368 0.0
C650 C 0.49829 0.44419 0.59528 0.0
C651 C 0.68687 0.46231 0.59729 0.0
C652 C 0.74181 0.46934 0.59584 0.0
C653 C 0.77241 0.47266 0.60618 0.0
C654 C 0.82569 0.47668 0.60517 0.0
C655 C 0.8498 0.47734 0.59377 0.0
C656 C 0.81883 0.47467 0.5834 0.0
C657 C 0.76544 0.47068 0.58441 0.0
C658 C 0.55012 0.47784 0.57123 0.0
C659 C 0.58737 0.53247 0.58976 0.0
O660 O 0.4333 0.5084 0.58057 0.0
O661 O 0.42394 0.51335 0.59994 0.0
O662 O 0.53941 0.48218 0.60607 0.0
O663 O 0.51617 0.51665 0.60989 0.0
O664 O 0.47143 0.4627 0.59154 0.0
O665 O 0.54783 0.44606 0.59818 0.0
O666 O 0.65856 0.47486 0.60473 0.0
O667 O 0.66125 0.45607 0.58761 0.0
O668 O 0.55064 0.49388 0.57917 0.0
O669 O 0.57854 0.4604 0.57496 0.0
O670 O 0.61723 0.51387 0.59222 0.0
O671 O 0.53733 0.53038 0.5878 0.0
H672 H 0.33118 0.52888 0.57315 0.0
H673 H 0.23859 0.52009 0.57267 0.0
H674 H 0.25694 0.47384 0.6035 0.0
H675 H 0.35001 0.48219 0.60368 0.0
H676 H 0.75525 0.4716 0.6151 0.0
H677 H 0.8481 0.47908 0.61335 0.0
H678 H 0.83609 0.47486 0.57448 0.0
H679 H 0.74303 0.46805 0.57625 0.0
Tb680 Tb 0.81851 0.73187 0.59275 0.0
Tb681 Tb 0.71564 0.75604 0.59233 0.0
C682 C 0.90976 0.71781 0.58898 0.0
C683 C 0.96392 0.72633 0.58863 0.0
C684 C 0.99361 0.72226 0.57822 0.0
C685 C 0.04658 0.7274 0.57808 0.0
C686 C 0.07123 0.73659 0.5884 0.0
C687 C 0.04098 0.74148 0.59869 0.0
C688 C 0.98788 0.73642 0.59881 0.0
C689 C 0.76979 0.73443 0.61377 0.0
C690 C 0.81349 0.78771 0.59489 0.0
C691 C 0.62433 0.76968 0.59664 0.0
C692 C 0.56946 0.76275 0.5948 0.0
C693 C 0.54182 0.75167 0.60417 0.0
C694 C 0.48856 0.74761 0.60311 0.0
C695 C 0.46153 0.75469 0.59268 0.0
C696 C 0.48942 0.76528 0.5832 0.0
C697 C 0.54271 0.76935 0.58426 0.0
C698 C 0.7614 0.75311 0.57101 0.0
C699 C 0.72409 0.69927 0.59011 0.0
O700 O 0.87868 0.72507 0.5804 0.0
O701 O 0.88684 0.71696 0.59951 0.0
O702 O 0.77214 0.75031 0.60582 0.0
O703 O 0.79781 0.71659 0.61037 0.0
O704 O 0.84041 0.769 0.59145 0.0
O705 O 0.76374 0.78604 0.59768 0.0
O706 O 0.6519 0.75685 0.60409 0.0
O707 O 0.651 0.77619 0.58715 0.0
O708 O 0.76074 0.73733 0.57909 0.0
O709 O 0.73317 0.77073 0.57457 0.0
O710 O 0.69426 0.71799 0.59233 0.0
O711 O 0.77414 0.70122 0.58815 0.0
H712 H 0.97607 0.71447 0.57027 0.0
H713 H 0.06839 0.72384 0.56992 0.0
H714 H 0.05865 0.74837 0.60683 0.0
H715 H 0.96604 0.73973 0.60699 0.0
H716 H 0.5611 0.74663 0.61248 0.0
H717 H 0.46842 0.73914 0.61052 0.0
H718 H 0.46976 0.77123 0.5751 0.0
H719 H 0.56257 0.77828 0.57694 0.0
Tb720 Tb 0.49259 0.7333 0.70954 0.0
Tb721 Tb 0.59612 0.75727 0.7097 0.0
C722 C 0.40153 0.7192 0.71356 0.0
C723 C 0.3475 0.72765 0.71432 0.0
C724 C 0.31377 0.71656 0.72247 0.0
C725 C 0.261 0.72216 0.72256 0.0
C726 C 0.24072 0.73896 0.71445 0.0
C727 C 0.27501 0.75065 0.70654 0.0
C728 C 0.32797 0.74509 0.70649 0.0
C729 C 0.54081 0.73548 0.68845 0.0
C730 C 0.49819 0.78909 0.70721 0.0
C731 C 0.68723 0.77067 0.70503 0.0
C732 C 0.74223 0.76397 0.7067 0.0
C733 C 0.77406 0.7619 0.69647 0.0
C734 C 0.82727 0.7579 0.69769 0.0
C735 C 0.85006 0.75596 0.70918 0.0
C736 C 0.81791 0.75752 0.71944 0.0
C737 C 0.76453 0.76147 0.71821 0.0
C738 C 0.55099 0.75455 0.7311 0.0
C739 C 0.58721 0.70049 0.71197 0.0
O740 O 0.43342 0.72592 0.72209 0.0
O741 O 0.4232 0.71933 0.70287 0.0
O742 O 0.53895 0.75144 0.69637 0.0
O743 O 0.51248 0.71781 0.69192 0.0
O744 O 0.47129 0.77055 0.71087 0.0
O745 O 0.5478 0.78722 0.70429 0.0
O746 O 0.6596 0.7574 0.69781 0.0
O747 O 0.66104 0.7775 0.71453 0.0
O748 O 0.55109 0.73879 0.72302 0.0
O749 O 0.57967 0.772 0.72753 0.0
O750 O 0.61716 0.7192 0.70983 0.0
O751 O 0.53707 0.70245 0.71387 0.0
H752 H 0.32802 0.70298 0.72855 0.0
H753 H 0.23577 0.71262 0.72868 0.0
H754 H 0.2608 0.76391 0.70029 0.0
H755 H 0.35335 0.75398 0.70015 0.0
H756 H 0.75792 0.764 0.6875 0.0
H757 H 0.85081 0.75711 0.6896 0.0
H758 H 0.83404 0.7558 0.72842 0.0
H759 H 0.74101 0.76298 0.72628 0.0
Tb760 Tb 0.82035 0.50113 0.70946 0.0
Tb761 Tb 0.71725 0.47725 0.70864 0.0
C762 C 0.91159 0.51519 0.71343 0.0
C763 C 0.96584 0.50689 0.71386 0.0
C764 C 1.00055 0.51837 0.72164 0.0
C765 C 0.05338 0.51285 0.72141 0.0
C766 C 0.0728 0.4957 0.71336 0.0
C767 C 0.03757 0.48367 0.70581 0.0
C768 C 0.98455 0.48918 0.70607 0.0
C769 C 0.7742 0.49955 0.68809 0.0
C770 C 0.81537 0.44542 0.70695 0.0
C771 C 0.62697 0.46429 0.70287 0.0
C772 C 0.57177 0.47083 0.70438 0.0
C773 C 0.53972 0.47154 0.69415 0.0
C774 C 0.48636 0.47532 0.69531 0.0
C775 C 0.46365 0.47839 0.70676 0.0
C776 C 0.49607 0.47824 0.717 0.0
C777 C 0.54956 0.47453 0.71582 0.0
C778 C 0.75831 0.47889 0.73053 0.0
C779 C 0.72593 0.53383 0.71197 0.0
O780 O 0.88024 0.50781 0.72193 0.0
O781 O 0.88931 0.51567 0.70283 0.0
O782 O 0.77631 0.48324 0.69579 0.0
O783 O 0.7997 0.51764 0.6921 0.0
O784 O 0.84157 0.46395 0.71085 0.0
O785 O 0.76631 0.4473 0.70359 0.0
O786 O 0.65563 0.4782 0.69618 0.0
O787 O 0.65181 0.45655 0.71238 0.0
O788 O 0.76055 0.49501 0.72262 0.0
O789 O 0.7292 0.46201 0.72646 0.0
O790 O 0.6964 0.51536 0.70911 0.0
O791 O 0.7756 0.53157 0.71437 0.0
H792 H 0.98699 0.53218 0.72766 0.0
H793 H 0.07926 0.52269 0.72725 0.0
H794 H 0.05104 0.47014 0.69962 0.0
H795 H 0.95842 0.48 0.70001 0.0
H796 H 0.55584 0.46855 0.68524 0.0
H797 H 0.46267 0.47504 0.68724 0.0
H798 H 0.48005 0.48089 0.72594 0.0
H799 H 0.5733 0.47413 0.72389 0.0
Tb800 Tb 0.45812 0.50633 0.45938 0.0
Tb801 Tb 0.56223 0.48297 0.46005 0.0
C802 C 0.36762 0.51907 0.45367 0.0
C803 C 0.31239 0.51308 0.45551 0.0
C804 C 0.28014 0.51112 0.44537 0.0
C805 C 0.22685 0.50758 0.44671 0.0
C806 C 0.20442 0.50599 0.45827 0.0
C807 C 0.237 0.50748 0.46844 0.0
C808 C 0.29047 0.51097 0.46709 0.0
C809 C 0.49884 0.50418 0.48127 0.0
C810 C 0.46853 0.44969 0.4621 0.0
C811 C 0.65341 0.46934 0.46442 0.0
C812 C 0.70735 0.47793 0.46493 0.0
C813 C 0.7417 0.46718 0.47306 0.0
C814 C 0.79437 0.47294 0.47295 0.0
C815 C 0.81393 0.48958 0.46466 0.0
C816 C 0.77901 0.50093 0.45676 0.0
C817 C 0.72615 0.4952 0.45692 0.0
C818 C 0.51637 0.48501 0.4386 0.0
C819 C 0.55594 0.53856 0.45753 0.0
O820 O 0.39533 0.50415 0.44734 0.0
O821 O 0.39333 0.52773 0.46284 0.0
O822 O 0.50201 0.48835 0.47321 0.0
O823 O 0.46889 0.52091 0.47737 0.0
O824 O 0.4383 0.46812 0.45957 0.0
O825 O 0.51821 0.45206 0.46445 0.0
O826 O 0.62148 0.47693 0.47276 0.0
O827 O 0.63173 0.46836 0.45376 0.0
O828 O 0.51736 0.50088 0.44655 0.0
O829 O 0.54423 0.46734 0.44229 0.0
O830 O 0.58257 0.5202 0.46148 0.0
O831 O 0.50685 0.53641 0.4542 0.0
H832 H 0.29608 0.51289 0.43635 0.0
H833 H 0.203 0.50683 0.43867 0.0
H834 H 0.22115 0.50601 0.47747 0.0
H835 H 0.31442 0.51238 0.47508 0.0
H836 H 0.72802 0.45374 0.47928 0.0
H837 H 0.82008 0.46365 0.47906 0.0
H838 H 0.79264 0.51406 0.45038 0.0
H839 H 0.70025 0.50383 0.45059 0.0
Tb840 Tb 0.351 0.22495 0.46 0.0
Tb841 Tb 0.24643 0.24781 0.46129 0.0
C842 C 0.44123 0.21271 0.45384 0.0
C843 C 0.49642 0.21849 0.45591 0.0
C844 C 0.52783 0.224 0.44596 0.0
C845 C 0.58116 0.2273 0.44739 0.0
C846 C 0.60445 0.22503 0.45882 0.0
C847 C 0.57267 0.2201 0.46885 0.0
C848 C 0.51921 0.21684 0.46742 0.0
C849 C 0.31257 0.22706 0.48212 0.0
C850 C 0.33967 0.28147 0.46285 0.0
C851 C 0.15579 0.26109 0.46642 0.0
C852 C 0.10152 0.25291 0.46663 0.0
C853 C 0.06921 0.26071 0.476 0.0
C854 C 1.01619 0.25573 0.47581 0.0
C855 C 0.99422 0.24289 0.4662 0.0
C856 C 1.02714 0.23424 0.45705 0.0
C857 C 0.08035 0.23921 0.45726 0.0
C858 C 0.28982 0.2458 0.43954 0.0
C859 C 0.25373 0.19225 0.45839 0.0
O860 O 0.41356 0.22833 0.44796 0.0
O861 O 0.41542 0.20296 0.46271 0.0
O862 O 0.30815 0.24277 0.47405 0.0
O863 O 0.3429 0.21057 0.47813 0.0
O864 O 0.36989 0.26325 0.45996 0.0
O865 O 0.29055 0.27872 0.46569 0.0
O866 O 0.18759 0.25176 0.4743 0.0
O867 O 0.17732 0.26397 0.45582 0.0
O868 O 0.29025 0.23007 0.44755 0.0
O869 O 0.26156 0.26326 0.44332 0.0
O870 O 0.22672 0.21042 0.46247 0.0
O871 O 0.3025 0.19479 0.45487 0.0
H872 H 0.51122 0.2253 0.43699 0.0
H873 H 0.6042 0.23151 0.4395 0.0
H874 H 0.58929 0.21802 0.47776 0.0
H875 H 0.49605 0.21252 0.47527 0.0
H876 H 0.08479 0.27125 0.48333 0.0
H877 H 0.99227 0.26224 0.48314 0.0
H878 H 1.01154 0.22441 0.44948 0.0
H879 H 0.10457 0.23295 0.44993 0.0
Tb880 Tb 0.46415 0.22574 0.34266 0.0
Tb881 Tb 0.56661 0.2499 0.3436 0.0
C882 C 0.37266 0.21188 0.34648 0.0
C883 C 0.31793 0.21897 0.34459 0.0
C884 C 0.29233 0.23369 0.35294 0.0
C885 C 0.2391 0.23795 0.3519 0.0
C886 C 0.21019 0.22753 0.34254 0.0
C887 C 0.23607 0.21329 0.33403 0.0
C888 C 0.28924 0.20898 0.33508 0.0
C889 C 0.51125 0.22892 0.32151 0.0
C890 C 0.47227 0.2825 0.34073 0.0
C891 C 0.6582 0.26405 0.34042 0.0
C892 C 0.71235 0.25537 0.34011 0.0
C893 C 0.74012 0.25608 0.32921 0.0
C894 C 0.79309 0.25088 0.32896 0.0
C895 C 0.8197 0.24502 0.33964 0.0
C896 C 0.79147 0.24356 0.35049 0.0
C897 C 0.73844 0.24869 0.35073 0.0
C898 C 0.51599 0.24729 0.36438 0.0
C899 C 0.56175 0.19402 0.34537 0.0
O900 O 0.39998 0.22407 0.35425 0.0
O901 O 0.39967 0.20608 0.33693 0.0
O902 O 0.51014 0.24465 0.32962 0.0
O903 O 0.48317 0.21119 0.32497 0.0
O904 O 0.4424 0.26373 0.34275 0.0
O905 O 0.52247 0.28061 0.33896 0.0
O906 O 0.62753 0.25756 0.3316 0.0
O907 O 0.63454 0.26423 0.35087 0.0
O908 O 0.5194 0.23137 0.35646 0.0
O909 O 0.54401 0.26518 0.36108 0.0
O910 O 0.58876 0.2128 0.34212 0.0
O911 O 0.51186 0.19562 0.34801 0.0
H912 H 0.31309 0.24148 0.36045 0.0
H913 H 0.22045 0.24923 0.35853 0.0
H914 H 0.21488 0.20473 0.32681 0.0
H915 H 0.30757 0.19722 0.32863 0.0
H916 H 0.72112 0.26132 0.3209 0.0
H917 H 0.81336 0.25179 0.32041 0.0
H918 H 0.81071 0.23937 0.35892 0.0
H919 H 0.71836 0.24814 0.35932 0.0
Tb920 Tb 0.34832 0.50627 0.3428 0.0
Tb921 Tb 0.24429 0.48292 0.34196 0.0
C922 C 0.43879 0.51882 0.3486 0.0
C923 C 0.494 0.51281 0.34671 0.0
C924 C 0.52579 0.50941 0.35684 0.0
C925 C 0.5791 0.50585 0.35549 0.0
C926 C 0.602 0.5057 0.34396 0.0
C927 C 0.56989 0.50862 0.33378 0.0
C928 C 0.51642 0.51212 0.33513 0.0
C929 C 0.30803 0.50427 0.32087 0.0
C930 C 0.33799 0.4497 0.33981 0.0
C931 C 0.15325 0.4694 0.33741 0.0
C932 C 0.09918 0.47788 0.33718 0.0
C933 C 0.06507 0.46817 0.32867 0.0
C934 C 1.01236 0.47385 0.32892 0.0
C935 C 0.99253 0.48937 0.33773 0.0
C936 C 1.02718 0.49969 0.34604 0.0
C937 C 0.08009 0.49404 0.34575 0.0
C938 C 0.2897 0.48485 0.36348 0.0
C939 C 0.25041 0.53847 0.34474 0.0
O940 O 0.41106 0.50378 0.35484 0.0
O941 O 0.41304 0.52777 0.33951 0.0
O942 O 0.30475 0.48841 0.32889 0.0
O943 O 0.33792 0.52096 0.32482 0.0
O944 O 0.36802 0.46803 0.34261 0.0
O945 O 0.28853 0.45224 0.33726 0.0
O946 O 0.18479 0.47785 0.32923 0.0
O947 O 0.17528 0.46747 0.348 0.0
O948 O 0.28882 0.50073 0.35555 0.0
O949 O 0.26193 0.46721 0.35975 0.0
O950 O 0.22381 0.52016 0.34072 0.0
O951 O 0.2995 0.53626 0.34807 0.0
H952 H 0.50951 0.51008 0.36585 0.0
H953 H 0.6026 0.50397 0.36354 0.0
H954 H 0.58611 0.50828 0.32476 0.0
H955 H 0.49288 0.51467 0.32714 0.0
H956 H 0.07899 0.45559 0.32202 0.0
H957 H 0.98684 0.46536 0.32248 0.0
H958 H 1.01332 0.51196 0.35284 0.0
H959 H 0.10579 0.50188 0.35237 0.0
Tb960 Tb 0.49245 0.00044 0.09033 0.0
Tb961 Tb 0.59495 0.97642 0.09174 0.0
C962 C 0.40147 0.01399 0.08568 0.0
C963 C 0.34689 0.00617 0.08661 0.0
C964 C 0.31476 0.00815 0.07644 0.0
C965 C 0.2618 0.00314 0.07726 0.0
C966 C 0.23963 -0.00386 0.0883 0.0
C967 C 0.27217 -0.00642 0.09843 0.0
C968 C 0.32528 -0.00151 0.09759 0.0
C969 C 0.53717 -0.00027 0.11191 0.0
C970 C 0.49665 0.94485 0.09417 0.0
C971 C 0.68553 0.96389 0.09755 0.0
C972 C 0.74067 0.97036 0.09558 0.0
C973 C 0.76817 0.9827 0.10455 0.0
C974 C 0.82157 0.98653 0.10342 0.0
C975 C 0.84891 0.97793 0.09333 0.0
C976 C 0.82113 0.96604 0.08423 0.0
C977 C 0.76775 0.96225 0.08535 0.0
C978 C 0.555 0.9773 0.06967 0.0
C979 C 0.58687 0.03267 0.0874 0.0
O980 O 0.43099 0.00288 0.0779 0.0
O981 O 0.42588 0.01886 0.09573 0.0
O982 O 0.53542 0.98313 0.10438 0.0
O983 O 0.51178 0.01764 0.10763 0.0
O984 O 0.47034 0.96321 0.09006 0.0
O985 O 0.54594 0.94685 0.09733 0.0
O986 O 0.65706 0.97835 0.10399 0.0
O987 O 0.65994 0.9551 0.0884 0.0
O988 O 0.55274 -0.00633 0.07742 0.0
O989 O 0.5837 0.96051 0.07398 0.0
O990 O 0.61532 0.01461 0.09135 0.0
O991 O 0.53818 0.02975 0.08422 0.0
H992 H 0.33043 0.01419 0.0679 0.0
H993 H 0.23791 0.00556 0.06931 0.0
H994 H 0.2565 0.98791 0.10703 0.0
H995 H 0.34913 -0.00328 0.10559 0.0
H996 H 0.74867 0.98885 0.11264 0.0
H997 H 0.84172 -0.0045 0.11068 0.0
H998 H 0.84074 0.95945 0.07626 0.0
H999 H 0.74801 0.95247 0.07831 0.0
Tb1000 Tb 0.81619 0.23127 0.09355 0.0
Tb1001 Tb 0.71429 0.25611 0.09341 0.0
C1002 C 0.90761 0.21685 0.09017 0.0
C1003 C 0.96249 0.22416 0.09171 0.0
C1004 C 0.98868 0.23662 0.08256 0.0
C1005 C 0.04203 0.24086 0.0834 0.0
C1006 C 0.07058 0.2326 0.09338 0.0
C1007 C 0.04403 0.2207 0.10268 0.0
C1008 C 0.99077 0.21645 0.10183 0.0
C1009 C 0.76618 0.23244 0.11442 0.0
C1010 C 0.81271 0.28728 0.09655 0.0
C1011 C 0.62326 0.26988 0.09789 0.0
C1012 C 0.5687 0.26192 0.09737 0.0
C1013 C 0.53754 0.26438 0.10768 0.0
C1014 C 0.48451 0.25937 0.1072 0.0
C1015 C 0.46132 0.25187 0.09636 0.0
C1016 C 0.49289 0.24881 0.0861 0.0
C1017 C 0.54606 0.25374 0.0866 0.0
C1018 C 0.7612 0.25462 0.07213 0.0
C1019 C 0.72125 0.19979 0.08944 0.0
O1020 O 0.88001 0.2277 0.08192 0.0
O1021 O 0.88081 0.21258 0.09997 0.0
O1022 O 0.77021 0.24904 0.10691 0.0
O1023 O 0.79221 0.21436 0.11055 0.0
O1024 O 0.83978 0.26835 0.09347 0.0
O1025 O 0.76233 0.28609 0.09868 0.0
O1026 O 0.65325 0.25971 0.10589 0.0
O1027 O 0.64714 0.27366 0.08766 0.0
O1028 O 0.75951 0.23828 0.07989 0.0
O1029 O 0.73361 0.27223 0.07601 0.0
O1030 O 0.69262 0.21801 0.09313 0.0
O1031 O 0.7707 0.20239 0.08687 0.0
H1032 H 0.96832 0.24252 0.07455 0.0
H1033 H 0.06121 0.24985 0.07601 0.0
H1034 H 0.06454 0.2144 0.11058 0.0
H1035 H 0.972 0.20657 0.10898 0.0
H1036 H 0.55401 0.27082 0.11606 0.0
H1037 H 0.46137 0.26218 0.11524 0.0
H1038 H 0.47643 0.24274 0.07765 0.0
H1039 H 0.56912 0.25161 0.07849 0.0
Tb1040 Tb 0.49483 0.23247 0.21113 0.0
Tb1041 Tb 0.59806 0.25612 0.20943 0.0
C1042 C 0.40386 0.21931 0.2161 0.0
C1043 C 0.34886 0.22622 0.21435 0.0
C1044 C 0.31901 0.23315 0.22436 0.0
C1045 C 0.26567 0.23708 0.22322 0.0
C1046 C 0.24074 0.23399 0.21203 0.0
C1047 C 0.27087 0.22762 0.20194 0.0
C1048 C 0.32426 0.22377 0.20308 0.0
C1049 C 0.5379 0.2334 0.18937 0.0
C1050 C 0.50019 0.28823 0.20744 0.0
C1051 C 0.68801 0.26874 0.2032 0.0
C1052 C 0.74275 0.26132 0.20399 0.0
C1053 C 0.77656 0.26762 0.19463 0.0
C1054 C 0.82953 0.26269 0.19547 0.0
C1055 C 0.84996 0.25132 0.20573 0.0
C1056 C 0.81566 0.24451 0.21501 0.0
C1057 C 0.7625 0.24943 0.21414 0.0
C1058 C 0.5585 0.25541 0.23153 0.0
C1059 C 0.58915 0.20005 0.21379 0.0
O1060 O 0.43208 0.2325 0.22327 0.0
O1061 O 0.42979 0.21213 0.20662 0.0
O1062 O 0.53736 0.24978 0.19703 0.0
O1063 O 0.51179 0.21567 0.19359 0.0
O1064 O 0.47323 0.26979 0.21123 0.0
O1065 O 0.54964 0.28626 0.20441 0.0
O1066 O 0.65746 0.25596 0.19639 0.0
O1067 O 0.66549 0.27536 0.21323 0.0
O1068 O 0.55589 0.23903 0.2238 0.0
O1069 O 0.58734 0.27214 0.2272 0.0
O1070 O 0.61747 0.21784 0.20952 0.0
O1071 O 0.54112 0.20341 0.21741 0.0
H1072 H 0.3367 0.23486 0.23319 0.0
H1073 H 0.24366 0.24171 0.23121 0.0
H1074 H 0.25309 0.2254 0.19315 0.0
H1075 H 0.34594 0.21834 0.19517 0.0
H1076 H 0.76213 0.2769 0.18674 0.0
H1077 H 0.8547 0.26847 0.18822 0.0
H1078 H 0.82991 0.23545 0.22296 0.0
H1079 H 0.73704 0.2443 0.22147 0.0
Tb1080 Tb 0.81373 0.00018 0.20795 0.0
Tb1081 Tb 0.71099 0.97612 0.20702 0.0
C1082 C 0.90503 0.01385 0.21215 0.0
C1083 C 0.95992 0.00672 0.2104 0.0
C1084 C 0.98802 -0.00337 0.21999 0.0
C1085 C 0.04134 -0.00747 0.21893 0.0
C1086 C 0.068 -0.00139 0.20828 0.0
C1087 C 0.03961 0.00814 0.19858 0.0
C1088 C 0.9863 0.0122 0.19963 0.0
C1089 C 0.76744 -0.00065 0.18657 0.0
C1090 C 0.80919 0.94434 0.2046 0.0
C1091 C 0.6207 0.96313 0.20134 0.0
C1092 C 0.56604 0.97074 0.20207 0.0
C1093 C 0.53354 0.96658 0.19215 0.0
C1094 C 0.48053 0.97151 0.19285 0.0
C1095 C 0.45876 0.98068 0.20353 0.0
C1096 C 0.49171 0.98541 0.21338 0.0
C1097 C 0.54489 0.98053 0.21265 0.0
C1098 C 0.75347 0.97683 0.22881 0.0
C1099 C 0.71916 0.03219 0.21156 0.0
O1100 O 0.87721 0.00155 0.2198 0.0
O1101 O 0.87851 0.01993 0.20257 0.0
O1102 O 0.76966 0.98279 0.19413 0.0
O1103 O 0.79335 0.01722 0.19069 0.0
O1104 O 0.83625 0.96302 0.20801 0.0
O1105 O 0.75927 0.94595 0.20198 0.0
O1106 O 0.65107 0.97514 0.19414 0.0
O1107 O 0.64366 0.95732 0.21144 0.0
O1108 O 0.75472 -0.00673 0.22109 0.0
O1109 O 0.72452 0.95997 0.22465 0.0
O1110 O 0.6905 0.01432 0.20748 0.0
O1111 O 0.76796 0.02904 0.21461 0.0
H1112 H 0.9691 -0.00744 0.22847 0.0
H1113 H 0.06201 0.98543 0.22663 0.0
H1114 H 0.05872 0.01272 0.19019 0.0
H1115 H 0.96608 0.0202 0.1921 0.0
H1116 H 0.549 0.95894 0.18393 0.0
H1117 H 0.45635 0.96739 0.18515 0.0
H1118 H 0.47636 -0.00722 0.22167 0.0
H1119 H 0.56922 0.98401 0.22042 0.0
Tb1120 Tb 0.46889 0.00599 0.95808 0.0
Tb1121 Tb 0.57135 0.98153 0.95757 0.0
C1122 C 0.37783 0.01967 0.95352 0.0
C1123 C 0.32282 0.01261 0.95489 0.0
C1124 C 0.29179 0.01055 0.94453 0.0
C1125 C 0.2385 0.00646 0.94552 0.0
C1126 C 0.2148 0.00444 0.95693 0.0
C1127 C 0.24617 0.00594 0.9673 0.0
C1128 C 0.29958 0.00998 0.9663 0.0
C1129 C 0.51487 0.00346 0.97939 0.0
C1130 C 0.47672 0.94922 0.96067 0.0
C1131 C 0.66289 0.96704 0.96059 0.0
C1132 C 0.71696 0.97548 0.96141 0.0
C1133 C 0.75064 0.96435 0.96957 0.0
C1134 C 0.80344 0.9699 0.96968 0.0
C1135 C 0.82386 0.98669 0.96158 0.0
C1136 C 0.78965 -0.00158 0.95367 0.0
C1137 C 0.73667 -0.00709 0.9536 0.0
C1138 C 0.52075 0.98349 0.93678 0.0
C1139 C 0.56696 0.03737 0.95562 0.0
O1140 O 0.40616 0.00741 0.94596 0.0
O1141 O 0.40345 0.02552 0.96327 0.0
O1142 O 0.51436 0.98751 0.97138 0.0
O1143 O 0.48666 0.02104 0.97573 0.0
O1144 O 0.447 0.96801 0.9585 0.0
O1145 O 0.52701 0.95097 0.96234 0.0
O1146 O 0.63165 0.97239 0.96951 0.0
O1147 O 0.64022 0.96862 0.95006 0.0
O1148 O 0.52486 -0.00023 0.94448 0.0
O1149 O 0.54706 0.9653 0.94042 0.0
O1150 O 0.59343 0.0186 0.95915 0.0
O1151 O 0.51728 0.03586 0.95278 0.0
H1152 H 0.30859 0.01276 0.93563 0.0
H1153 H 0.21559 0.00569 0.93734 0.0
H1154 H 0.22938 0.00414 0.97622 0.0
H1155 H 0.32238 0.0115 0.97448 0.0
H1156 H 0.73634 0.95077 0.97563 0.0
H1157 H 0.8286 0.96033 0.97581 0.0
H1158 H 0.80393 0.01168 0.94743 0.0
H1159 H 0.71142 0.00186 0.94725 0.0
Tb1160 Tb 0.34858 0.72597 0.96031 0.0
Tb1161 Tb 0.24596 0.75025 0.95999 0.0
C1162 C 0.43982 0.71229 0.95598 0.0
C1163 C 0.49451 0.7198 0.9572 0.0
C1164 C 0.52407 0.72362 0.94673 0.0
C1165 C 0.57712 0.72834 0.94752 0.0
C1166 C 0.60197 0.72919 0.95881 0.0
C1167 C 0.57215 0.72585 0.96932 0.0
C1168 C 0.51897 0.7212 0.96853 0.0
C1169 C 0.30268 0.72843 0.98163 0.0
C1170 C 0.34038 0.78248 0.96311 0.0
C1171 C 0.15488 0.76469 0.96366 0.0
C1172 C 0.09993 0.7578 0.96216 0.0
C1173 C 0.07715 0.73974 0.96912 0.0
C1174 C 1.02369 0.73557 0.96849 0.0
C1175 C 0.99195 0.74941 0.96091 0.0
C1176 C 1.01525 0.7669 0.95368 0.0
C1177 C 0.06849 0.7711 0.95435 0.0
C1178 C 0.29472 0.74797 0.93893 0.0
C1179 C 0.25055 0.69434 0.9574 0.0
O1180 O 0.41126 0.72397 0.94826 0.0
O1181 O 0.41434 0.70698 0.96583 0.0
O1182 O 0.30339 0.74444 0.97366 0.0
O1183 O 0.3306 0.7108 0.97794 0.0
O1184 O 0.3698 0.76403 0.96016 0.0
O1185 O 0.29094 0.78005 0.96569 0.0
O1186 O 0.18258 0.75346 0.97176 0.0
O1187 O 0.18111 0.76909 0.95381 0.0
O1188 O 0.29211 0.732 0.94683 0.0
O1189 O 0.26663 0.76571 0.94239 0.0
O1190 O 0.22318 0.71313 0.96054 0.0
O1191 O 0.30072 0.69587 0.95501 0.0
H1192 H 0.50636 0.72233 0.93788 0.0
H1193 H 0.59899 0.73053 0.93925 0.0
H1194 H 0.59001 0.72667 0.97816 0.0
H1195 H 0.49736 0.71827 0.97678 0.0
H1196 H 0.10026 0.72925 0.97529 0.0
H1197 H 1.00703 0.72207 0.97425 0.0
H1198 H 0.99224 0.77758 0.94758 0.0
H1199 H 0.08495 0.78521 0.94893 0.0
Tb1200 Tb 0.45939 0.72607 0.84292 0.0
Tb1201 Tb 0.56336 0.74927 0.84185 0.0
C1202 C 0.3689 0.71375 0.84878 0.0
C1203 C 0.31386 0.71983 0.84654 0.0
C1204 C 0.28598 0.73299 0.85515 0.0
C1205 C 0.23269 0.73664 0.85382 0.0
C1206 C 0.20589 0.72706 0.8439 0.0
C1207 C 0.23399 0.7143 0.83516 0.0
C1208 C 0.28731 0.71066 0.83649 0.0
C1209 C 0.49906 0.72786 0.82092 0.0
C1210 C 0.46969 0.78252 0.83968 0.0
C1211 C 0.65425 0.76234 0.83692 0.0
C1212 C 0.70852 0.75401 0.8373 0.0
C1213 C 0.73854 0.75527 0.82676 0.0
C1214 C 0.79153 0.75021 0.82708 0.0
C1215 C 0.81583 0.74391 0.83799 0.0
C1216 C 0.78528 0.74183 0.84847 0.0
C1217 C 0.73215 0.74681 0.84814 0.0
C1218 C 0.51917 0.74736 0.8635 0.0
C1219 C 0.55686 0.69365 0.84487 0.0
O1220 O 0.39663 0.72902 0.85489 0.0
O1221 O 0.39509 0.70418 0.83991 0.0
O1222 O 0.50258 0.74377 0.82891 0.0
O1223 O 0.46901 0.71129 0.82492 0.0
O1224 O 0.43976 0.7643 0.84269 0.0
O1225 O 0.51895 0.77983 0.83697 0.0
O1226 O 0.62341 0.75218 0.82909 0.0
O1227 O 0.63126 0.76655 0.84723 0.0
O1228 O 0.51937 0.73153 0.85554 0.0
O1229 O 0.54727 0.76487 0.85974 0.0
O1230 O 0.58393 0.71194 0.84098 0.0
O1231 O 0.50776 0.69597 0.84815 0.0
H1232 H 0.30515 0.74006 0.86307 0.0
H1233 H 0.21238 0.74681 0.86064 0.0
H1234 H 0.21449 0.70641 0.82749 0.0
H1235 H 0.30737 0.70011 0.82978 0.0
H1236 H 0.7212 0.76079 0.8183 0.0
H1237 H 0.81361 0.75155 0.81879 0.0
H1238 H 0.80272 0.73721 0.85705 0.0
H1239 H 0.71001 0.74571 0.85643 0.0
Tb1240 Tb 0.34206 0.00642 0.8413 0.0
Tb1241 Tb 0.23967 0.98188 0.84145 0.0
C1242 C 0.4329 0.02016 0.84602 0.0
C1243 C 0.488 0.0133 0.84452 0.0
C1244 C 0.5189 0.01023 0.85484 0.0
C1245 C 0.57225 0.0063 0.85378 0.0
C1246 C 0.59615 0.00546 0.84236 0.0
C1247 C 0.56489 0.0079 0.83201 0.0
C1248 C 0.51144 0.01182 0.83307 0.0
C1249 C 0.29715 0.00394 0.81986 0.0
C1250 C 0.3347 0.94967 0.83872 0.0
C1251 C 0.14855 0.96726 0.83801 0.0
C1252 C 0.09422 0.97539 0.83711 0.0
C1253 C 0.06201 0.96503 0.82839 0.0
C1254 C 1.00893 0.96999 0.82818 0.0
C1255 C 0.98667 0.98537 0.83674 0.0
C1256 C 1.01947 -0.0035 0.84519 0.0
C1257 C 0.07274 -0.00844 0.84537 0.0
C1258 C 0.28912 0.98369 0.86239 0.0
C1259 C 0.24353 0.03761 0.84384 0.0
O1260 O 0.40481 0.00744 0.85342 0.0
O1261 O 0.40709 0.02645 0.83637 0.0
O1262 O 0.29746 0.98796 0.82784 0.0
O1263 O 0.32506 0.02152 0.8236 0.0
O1264 O 0.36413 0.96844 0.84108 0.0
O1265 O 0.28464 0.95146 0.83671 0.0
O1266 O 0.18011 0.97309 0.82924 0.0
O1267 O 0.17064 0.96848 0.84862 0.0
O1268 O 0.28539 1e-05 0.85471 0.0
O1269 O 0.26297 0.96555 0.85865 0.0
O1270 O 0.2174 0.01898 0.84002 0.0
O1271 O 0.29307 0.036 0.84681 0.0
H1272 H 0.50192 0.0114 0.86377 0.0
H1273 H 0.59484 0.00408 0.86194 0.0
H1274 H 0.58195 0.00758 0.82307 0.0
H1275 H 0.48881 0.01425 0.82493 0.0
H1276 H 0.07773 0.95254 0.82192 0.0
H1277 H 0.98519 0.96149 0.82138 0.0
H1278 H 1.00375 0.00833 0.85196 0.0
H1279 H 0.09676 -0.00017 0.85219 0.0
H1280 H 0.03841 0.40189 0.10403 0.0
H1281 H 0.90181 0.43316 0.08796 0.0
H1282 H 0.99247 0.36424 0.10601 0.0
H1283 H 0.85676 0.39563 0.08966 0.0
H1284 H 0.77332 0.33058 0.10316 0.0
H1285 H 0.81939 0.36833 0.10401 0.0
H1286 H 0.96052 0.33324 0.09294 0.0
H1287 H 0.91519 0.29563 0.09239 0.0
C1288 C 0.99874 0.40074 0.1009 0.0
C1289 C 0.97392 0.4205 0.0958 0.0
C1290 C 0.97245 0.37917 0.102 0.0
C1291 C 0.92089 0.37695 0.09801 0.0
C1292 C 0.89609 0.39681 0.09302 0.0
C1293 C 0.92222 0.41831 0.09194 0.0
C1294 C 0.81425 0.33092 0.10101 0.0
C1295 C 0.84042 0.31011 0.09765 0.0
C1296 C 0.84061 0.35255 0.10144 0.0
C1297 C 0.89362 0.3538 0.0985 0.0
C1298 C 0.91992 0.33288 0.09541 0.0
C1299 C 0.89369 0.3113 0.09501 0.0
H1300 H 0.39537 0.93582 0.08903 0.0
H1301 H 0.53437 0.9026 0.1028 0.0
H1302 H 0.34949 0.89848 0.0906 0.0
H1303 H 0.48765 0.86511 0.10465 0.0
H1304 H 0.4077 0.79841 0.08974 0.0
H1305 H 0.45297 0.8359 0.09086 0.0
H1306 H 0.31443 0.86952 0.10457 0.0
H1307 H 0.26823 0.83178 0.10319 0.0
C1308 C 0.41613 0.92059 0.0925 0.0
C1309 C 0.46879 0.92216 0.0957 0.0
C1310 C 0.38953 0.89919 0.09351 0.0
C1311 C 0.41484 0.87882 0.09775 0.0
C1312 C 0.46722 0.88046 0.10121 0.0
C1313 C 0.49396 0.90193 0.10019 0.0
C1314 C 0.38667 0.81372 0.09304 0.0
C1315 C 0.33409 0.81211 0.0963 0.0
C1316 C 0.41295 0.83522 0.09378 0.0
C1317 C 0.38743 0.8557 0.09783 0.0
C1318 C 0.33504 0.85408 0.1013 0.0
C1319 C 0.3086 0.83247 0.10054 0.0
H1320 H 0.76989 0.90111 0.19777 0.0
H1321 H 0.91107 0.9357 0.20923 0.0
H1322 H 0.81582 0.86323 0.19714 0.0
H1323 H 0.95611 0.89805 0.20889 0.0
H1324 H 0.03524 0.82972 0.19823 0.0
H1325 H 0.98909 0.86724 0.19593 0.0
H1326 H 0.85209 0.83574 0.21161 0.0
H1327 H 0.89743 0.79828 0.21361 0.0
C1328 C 0.81062 0.90067 0.20012 0.0
C1329 C 0.83665 0.92141 0.2036 0.0
C1330 C 0.83688 0.87897 0.19981 0.0
C1331 C 0.88963 0.87762 0.20299 0.0
C1332 C 0.91576 0.89848 0.20621 0.0
C1333 C 0.88965 0.92009 0.2065 0.0
C1334 C 0.99525 0.83082 0.20115 0.0
C1335 C 0.97017 0.81105 0.20616 0.0
C1336 C 0.96883 0.85231 0.19986 0.0
C1337 C 0.91687 0.85447 0.20358 0.0
C1338 C 0.89176 0.8346 0.20846 0.0
C1339 C 0.91804 0.81316 0.20972 0.0
H1340 H 0.41324 0.43555 0.21131 0.0
H1341 H 0.27242 0.40137 0.19931 0.0
H1342 H 0.45872 0.39799 0.21032 0.0
H1343 H 0.31867 0.36369 0.19802 0.0
H1344 H 0.40015 0.29798 0.21346 0.0
H1345 H 0.35494 0.33551 0.21205 0.0
H1346 H 0.49185 0.36791 0.19681 0.0
H1347 H 0.53797 0.33021 0.1985 0.0
C1348 C 0.39201 0.42006 0.20833 0.0
C1349 C 0.33899 0.42144 0.20547 0.0
C1350 C 0.41834 0.39853 0.20767 0.0
C1351 C 0.39238 0.37784 0.20409 0.0
C1352 C 0.33961 0.37928 0.20096 0.0
C1353 C 0.31314 0.40087 0.20166 0.0
C1354 C 0.42077 0.31304 0.20976 0.0
C1355 C 0.47287 0.31112 0.20615 0.0
C1356 C 0.39456 0.33455 0.20885 0.0
C1357 C 0.41968 0.35469 0.20429 0.0
C1358 C 0.47158 0.35274 0.20049 0.0
C1359 C 0.49797 0.33115 0.20143 0.0
H1360 H 0.1624 0.54731 0.96215 0.0
H1361 H 1.02343 0.58115 0.94875 0.0
H1362 H 0.20794 0.58483 0.96126 0.0
H1363 H 0.0698 0.61879 0.94756 0.0
H1364 H 0.14955 0.68513 0.96273 0.0
H1365 H 0.10427 0.64761 0.96146 0.0
H1366 H 0.24308 0.61421 0.94774 0.0
H1367 H 0.2892 0.65187 0.94931 0.0
C1368 C 0.14161 0.56272 0.95889 0.0
C1369 C 0.08909 0.56126 0.95558 0.0
C1370 C 0.16798 0.58423 0.95829 0.0
C1371 C 0.14258 0.60481 0.95433 0.0
C1372 C 0.09028 0.60329 0.9508 0.0
C1373 C 0.06376 0.58173 0.95144 0.0
C1374 C 0.17056 0.66985 0.95939 0.0
C1375 C 0.22317 0.67148 0.95617 0.0
C1376 C 0.14433 0.64834 0.95857 0.0
C1377 C 0.16997 0.62792 0.95447 0.0
C1378 C 0.2224 0.62959 0.95107 0.0
C1379 C 0.24879 0.65116 0.95193 0.0
H1380 H 0.7929 0.15204 0.94908 0.0
H1381 H 0.65517 0.18305 0.96479 0.0
H1382 H 0.74725 0.11433 0.94692 0.0
H1383 H 0.61044 0.14551 0.96289 0.0
H1384 H 0.52806 0.08065 0.94887 0.0
H1385 H 0.57427 0.1184 0.94821 0.0
H1386 H 0.71434 0.0833 0.95997 0.0
H1387 H 0.66893 0.04571 0.96033 0.0
C1388 C 0.75307 0.15082 0.95209 0.0
C1389 C 0.72782 0.17052 0.95713 0.0
C1390 C 0.72695 0.12923 0.95088 0.0
C1391 C 0.67515 0.12696 0.9547 0.0
C1392 C 0.64996 0.14675 0.95966 0.0
C1393 C 0.67592 0.16825 0.96085 0.0
C1394 C 0.56878 0.081 0.95123 0.0
C1395 C 0.59463 0.06021 0.95473 0.0
C1396 C 0.59521 0.10261 0.9509 0.0
C1397 C 0.64795 0.10384 0.95408 0.0
C1398 C 0.67396 0.08294 0.95731 0.0
C1399 C 0.64766 0.06139 0.95762 0.0
H1400 H 0.15327 0.18397 0.83988 0.0
H1401 H 1.01341 0.15008 0.85271 0.0
H1402 H 0.19873 0.14651 0.8408 0.0
H1403 H 0.05986 0.11234 0.8539 0.0
H1404 H 0.14257 0.04651 0.83825 0.0
H1405 H 0.09604 0.08374 0.83985 0.0
H1406 H 0.23293 0.11715 0.85449 0.0
H1407 H 0.28025 0.07985 0.85261 0.0
C1408 C 0.1322 0.16855 0.84301 0.0
C1409 C 0.07947 0.17001 0.84616 0.0
C1410 C 0.15858 0.14706 0.84364 0.0
C1411 C 0.13303 0.12645 0.84746 0.0
C1412 C 0.08047 0.12791 0.85081 0.0
C1413 C 0.05391 0.14951 0.85017 0.0
C1414 C 0.16289 0.06175 0.84184 0.0
C1415 C 0.21537 0.06026 0.8452 0.0
C1416 C 0.13593 0.08306 0.84286 0.0
C1417 C 0.16072 0.10341 0.8473 0.0
C1418 C 0.21293 0.10183 0.8509 0.0
C1419 C 0.24002 0.08047 0.84984 0.0
H1420 H 0.51787 0.65144 0.85323 0.0
H1421 H 0.65747 0.68402 0.83939 0.0
H1422 H 0.56365 0.61361 0.85482 0.0
H1423 H 0.70233 0.64642 0.84073 0.0
H1424 H 0.78297 0.57997 0.85324 0.0
H1425 H 0.73661 0.61759 0.85484 0.0
H1426 H 0.59823 0.58424 0.84094 0.0
H1427 H 0.64376 0.54674 0.83963 0.0
C1428 C 0.55818 0.65055 0.85054 0.0
C1429 C 0.58387 0.67071 0.84614 0.0
C1430 C 0.58436 0.62891 0.85142 0.0
C1431 C 0.63665 0.62705 0.84792 0.0
C1432 C 0.66237 0.64732 0.8437 0.0
C1433 C 0.63635 0.66886 0.84282 0.0
C1434 C 0.74259 0.58067 0.8506 0.0
C1435 C 0.71724 0.56041 0.84623 0.0
C1436 C 0.71607 0.60221 0.85148 0.0
C1437 C 0.66376 0.60389 0.84799 0.0
C1438 C 0.63824 0.58349 0.84387 0.0
C1439 C 0.66463 0.56201 0.843 0.0
H1440 H 0.90213 0.93386 0.5874 0.0
H1441 H 0.04025 0.9016 0.60221 0.0
H1442 H 0.85673 0.89644 0.58906 0.0
H1443 H 0.99396 0.86403 0.60415 0.0
H1444 H 0.91503 0.79642 0.58993 0.0
H1445 H 0.9604 0.83396 0.59071 0.0
H1446 H 0.82084 0.86839 0.60331 0.0
H1447 H 0.77461 0.83067 0.60223 0.0
C1448 C 0.92278 0.91883 0.59112 0.0
C1449 C 0.97502 0.92069 0.59461 0.0
C1450 C 0.89646 0.89738 0.59217 0.0
C1451 C 0.92162 0.87727 0.59677 0.0
C1452 C 0.97367 0.87918 0.60045 0.0
C1453 C 1.00015 0.90069 0.59937 0.0
C1454 C 0.89385 0.81194 0.59292 0.0
C1455 C 0.84097 0.81058 0.59594 0.0
C1456 C 0.92014 0.83346 0.59347 0.0
C1457 C 0.8943 0.85416 0.59708 0.0
C1458 C 0.84166 0.85277 0.60035 0.0
C1459 C 0.81522 0.83117 0.59977 0.0
H1460 H 0.27417 0.32967 0.60384 0.0
H1461 H 0.41445 0.29671 0.59058 0.0
H1462 H 0.31923 0.36764 0.605 0.0
H1463 H 0.45872 0.33456 0.59146 0.0
H1464 H 0.53746 0.40205 0.60358 0.0
H1465 H 0.49232 0.36417 0.60513 0.0
H1466 H 0.35325 0.39665 0.59102 0.0
H1467 H 0.39762 0.43446 0.58976 0.0
C1468 C 0.31451 0.33051 0.60118 0.0
C1469 C 0.34058 0.3102 0.59707 0.0
C1470 C 0.34028 0.35226 0.6018 0.0
C1471 C 0.39255 0.35412 0.5983 0.0
C1472 C 0.41872 0.33369 0.59439 0.0
C1473 C 0.39309 0.312 0.59379 0.0
C1474 C 0.4972 0.40111 0.60087 0.0
C1475 C 0.47128 0.42124 0.59649 0.0
C1476 C 0.47138 0.3794 0.60172 0.0
C1477 C 0.4192 0.3774 0.59818 0.0
C1478 C 0.39318 0.39764 0.59398 0.0
C1479 C 0.41886 0.4193 0.59317 0.0
H1480 H 0.04245 0.33124 0.7005 0.0
H1481 H 0.90352 0.29911 0.71497 0.0
H1482 H 0.99664 0.36897 0.69869 0.0
H1483 H 0.85858 0.33669 0.7134 0.0
H1484 H 0.7772 0.40234 0.69959 0.0
H1485 H 0.82358 0.36458 0.6989 0.0
H1486 H 0.96202 0.3992 0.71193 0.0
H1487 H 0.91654 0.43676 0.71234 0.0
C1488 C 1.00234 0.33222 0.70334 0.0
C1489 C 0.97681 0.31216 0.70791 0.0
C1490 C 0.9761 0.35383 0.70232 0.0
C1491 C 0.92388 0.35579 0.70587 0.0
C1492 C 0.89845 0.33569 0.71039 0.0
C1493 C 0.92453 0.31416 0.71139 0.0
C1494 C 0.8176 0.40188 0.70223 0.0
C1495 C 0.84298 0.42253 0.70608 0.0
C1496 C 0.84412 0.38025 0.70188 0.0
C1497 C 0.89648 0.37889 0.70539 0.0
C1498 C 0.92197 0.39966 0.70901 0.0
C1499 C 0.8956 0.4212 0.70934 0.0
H1500 H 0.39747 0.7985 0.71281 0.0
H1501 H 0.53608 0.8313 0.69861 0.0
H1502 H 0.35171 0.83588 0.7112 0.0
H1503 H 0.48947 0.86882 0.6967 0.0
H1504 H 0.40887 0.93619 0.71067 0.0
H1505 H 0.4547 0.89874 0.70999 0.0
H1506 H 0.31615 0.86408 0.69704 0.0
H1507 H 0.26944 0.90173 0.69802 0.0
C1508 C 0.41818 0.81366 0.70925 0.0
C1509 C 0.47066 0.81194 0.70591 0.0
C1510 C 0.39165 0.83508 0.70822 0.0
C1511 C 0.41682 0.85534 0.70379 0.0
C1512 C 0.46913 0.85358 0.70028 0.0
C1513 C 0.49582 0.83209 0.70134 0.0
C1514 C 0.38801 0.92066 0.70762 0.0
C1515 C 0.33526 0.92195 0.70447 0.0
C1516 C 0.41458 0.89917 0.70713 0.0
C1517 C 0.38917 0.87841 0.70345 0.0
C1518 C 0.33667 0.87974 0.70006 0.0
C1519 C 0.30994 0.9013 0.70057 0.0
H1520 H 1.02482 0.08023 0.44878 0.0
H1521 H 0.16661 0.04465 0.45905 0.0
H1522 H 0.07134 0.11793 0.44821 0.0
H1523 H 0.2123 0.08213 0.45878 0.0
H1524 H 0.29076 0.15104 0.44837 0.0
H1525 H 0.24433 0.11359 0.44596 0.0
H1526 H 0.10936 0.14444 0.46292 0.0
H1527 H 0.15488 0.18174 0.46507 0.0
C1528 C 0.06581 0.08042 0.45088 0.0
C1529 C 0.09183 0.05946 0.45403 0.0
C1530 C 0.09242 0.10201 0.4506 0.0
C1531 C 0.14552 0.10303 0.45349 0.0
C1532 C 0.17165 0.08196 0.45635 0.0
C1533 C 0.14518 0.06045 0.4566 0.0
C1534 C 0.25117 0.1498 0.45156 0.0
C1535 C 0.22668 0.16934 0.45695 0.0
C1536 C 0.22458 0.12836 0.4502 0.0
C1537 C 0.17306 0.12607 0.45422 0.0
C1538 C 0.14863 0.1457 0.45953 0.0
C1539 C 0.17505 0.16706 0.46086 0.0
H1540 H 0.78675 0.65047 0.44889 0.0
H1541 H 0.64766 0.68496 0.46182 0.0
H1542 H 0.7393 0.61306 0.44745 0.0
H1543 H 0.60116 0.6478 0.46065 0.0
H1544 H 0.51869 0.58098 0.44889 0.0
H1545 H 0.56604 0.61835 0.44704 0.0
H1546 H 0.70308 0.58474 0.46154 0.0
H1547 H 0.65668 0.5476 0.46312 0.0
C1548 C 0.7462 0.6501 0.4514 0.0
C1549 C 0.72121 0.67067 0.45554 0.0
C1550 C 0.71903 0.62869 0.45061 0.0
C1551 C 0.66642 0.62746 0.45395 0.0
C1552 C 0.64135 0.64816 0.45784 0.0
C1553 C 0.66835 0.66947 0.45861 0.0
C1554 C 0.55895 0.5816 0.45163 0.0
C1555 C 0.58369 0.56135 0.45622 0.0
C1556 C 0.58607 0.60298 0.45059 0.0
C1557 C 0.6384 0.60449 0.45413 0.0
C1558 C 0.66315 0.58412 0.45854 0.0
C1559 C 0.6362 0.56284 0.45956 0.0
H1560 H 0.15007 0.54776 0.33888 0.0
H1561 H 0.28718 0.58049 0.3539 0.0
H1562 H 0.10362 0.58488 0.34066 0.0
H1563 H 0.23975 0.61782 0.35595 0.0
H1564 H 0.15968 0.68483 0.34114 0.0
H1565 H 0.20589 0.6476 0.34237 0.0
H1566 H 0.06657 0.61288 0.35483 0.0
H1567 H 1.01937 0.65038 0.35331 0.0
C1568 C 0.17032 0.56285 0.34266 0.0
C1569 C 0.22262 0.5612 0.34616 0.0
C1570 C 0.14334 0.58411 0.34379 0.0
C1571 C 0.16786 0.60428 0.34848 0.0
C1572 C 0.21994 0.6026 0.35219 0.0
C1573 C 0.2471 0.58125 0.35103 0.0
C1574 C 0.13865 0.66933 0.34419 0.0
C1575 C 0.08554 0.67054 0.34702 0.0
C1576 C 0.16549 0.64799 0.34501 0.0
C1577 C 0.14 0.62728 0.3487 0.0
C1578 C 0.08714 0.62853 0.35182 0.0
C1579 C 0.06013 0.64999 0.35099 0.0
H1580 H 0.64961 0.04775 0.33689 0.0
H1581 H 0.78763 0.07951 0.35198 0.0
H1582 H 0.60439 0.08526 0.33868 0.0
H1583 H 0.74157 0.11713 0.35405 0.0
H1584 H 0.66328 0.18526 0.34038 0.0
H1585 H 0.70835 0.14759 0.34083 0.0
H1586 H 0.56845 0.11304 0.35306 0.0
H1587 H 0.52253 0.1509 0.35232 0.0
C1588 C 0.67029 0.0627 0.34068 0.0
C1589 C 0.72244 0.06067 0.34423 0.0
C1590 C 0.64408 0.08419 0.34181 0.0
C1591 C 0.66928 0.10417 0.34653 0.0
C1592 C 0.72125 0.10209 0.35025 0.0
C1593 C 0.74761 0.08055 0.34909 0.0
C1594 C 0.64196 0.16969 0.34322 0.0
C1595 C 0.58909 0.17107 0.34624 0.0
C1596 C 0.66808 0.14809 0.34358 0.0
C1597 C 0.64206 0.12732 0.34699 0.0
C1598 C 0.58941 0.12872 0.35025 0.0
C1599 C 0.56315 0.1504 0.34987 0.0
H1600 H 0.0901 0.53517 0.12336 0.0
H1601 H 0.06372 0.46032 0.12768 0.0
H1602 H 0.14612 0.53519 0.14098 0.0
H1603 H 0.11538 0.46034 0.14605 0.0
H1604 H 0.24274 0.46083 0.17407 0.0
H1605 H 0.19061 0.46052 0.15577 0.0
H1606 H 0.1579 0.53522 0.16081 0.0
H1607 H 0.21436 0.53555 0.17836 0.0
C1608 C 0.09561 0.51876 0.12828 0.0
C1609 C 0.07248 0.49777 0.1242 0.0
C1610 C 0.12751 0.51872 0.13854 0.0
C1611 C 0.13579 0.49779 0.14529 0.0
C1612 C 0.11167 0.47682 0.14115 0.0
C1613 C 0.0813 0.47676 0.13064 0.0
C1614 C 0.22455 0.47715 0.17114 0.0
C1615 C 0.23296 0.49824 0.17754 0.0
C1616 C 0.19393 0.47703 0.16066 0.0
C1617 C 0.1692 0.49787 0.15651 0.0
C1618 C 0.17698 0.51885 0.16325 0.0
C1619 C 0.2091 0.51909 0.17347 0.0
H1620 H 0.2544 0.69966 0.13022 0.0
H1621 H 0.21209 0.77231 0.1232 0.0
H1622 H 0.20022 0.69974 0.14831 0.0
H1623 H 0.15604 0.77223 0.14095 0.0
H1624 H 0.09683 0.77183 0.17987 0.0
H1625 H 0.15382 0.77218 0.16227 0.0
H1626 H 0.11294 0.69937 0.15479 0.0
H1627 H 0.0579 0.69886 0.17272 0.0
C1628 C 0.23335 0.71564 0.13254 0.0
C1629 C 0.23726 0.73592 0.12524 0.0
C1630 C 0.2018 0.71565 0.14286 0.0
C1631 C 0.17313 0.73594 0.14614 0.0
C1632 C 0.17779 0.75633 0.13887 0.0
C1633 C 0.20965 0.75635 0.1286 0.0
C1634 C 0.10031 0.75588 0.17449 0.0
C1635 C 0.07327 0.73525 0.17776 0.0
C1636 C 0.13268 0.75611 0.16431 0.0
C1637 C 0.13843 0.73577 0.15703 0.0
C1638 C 0.11051 0.71525 0.16025 0.0
C1639 C 0.07846 0.715 0.17048 0.0
H1640 H 0.80975 0.521 0.87752 0.0
H1641 H 0.83885 0.44629 0.87342 0.0
H1642 H 0.8614 0.52155 0.8959 0.0
H1643 H 0.89474 0.44687 0.89107 0.0
H1644 H 0.96227 0.44728 0.92844 0.0
H1645 H 0.90546 0.44722 0.91097 0.0
H1646 H 0.93708 0.52189 0.90557 0.0
H1647 H 0.98977 0.52199 0.92381 0.0
C1648 C 0.8279 0.50472 0.88053 0.0
C1649 C 0.81987 0.48356 0.87415 0.0
C1650 C 0.85824 0.505 0.89104 0.0
C1651 C 0.88302 0.48424 0.89526 0.0
C1652 C 0.87556 0.46318 0.88856 0.0
C1653 C 0.84374 0.46279 0.8783 0.0
C1654 C 0.95668 0.46367 0.9235 0.0
C1655 C 0.98049 0.48461 0.92744 0.0
C1656 C 0.92437 0.46367 0.91333 0.0
C1657 C 0.91632 0.4845 0.90649 0.0
C1658 C 0.94075 0.50548 0.91053 0.0
C1659 C 0.97163 0.50559 0.92097 0.0
H1660 H 0.95757 0.20994 0.87315 0.0
H1661 H 0.99741 0.28302 0.87971 0.0
H1662 H 0.90247 0.20994 0.89107 0.0
H1663 H 0.9441 0.28289 0.89794 0.0
H1664 H 0.80422 0.28291 0.92317 0.0
H1665 H 0.85723 0.2826 0.90489 0.0
H1666 H 0.90248 0.21033 0.91241 0.0
H1667 H 0.8477 0.21048 0.93038 0.0
C1668 C 0.95475 0.22599 0.87848 0.0
C1669 C 0.98151 0.24653 0.87495 0.0
C1670 C 0.92343 0.22596 0.88884 0.0
C1671 C 0.91841 0.24645 0.89604 0.0
C1672 C 0.94602 0.26689 0.89256 0.0
C1673 C 0.97707 0.26693 0.88215 0.0
C1674 C 0.82528 0.26693 0.92085 0.0
C1675 C 0.82198 0.24677 0.92825 0.0
C1676 C 0.85615 0.26679 0.91042 0.0
C1677 C 0.8847 0.24648 0.90711 0.0
C1678 C 0.88077 0.22623 0.9145 0.0
C1679 C 0.84963 0.22634 0.92489 0.0
H1680 H 0.08993 0.03567 0.62176 0.0
H1681 H 0.06431 0.96073 0.62593 0.0
H1682 H 0.14507 0.03576 0.63954 0.0
H1683 H 0.11505 0.96082 0.64443 0.0
H1684 H 0.24126 0.96138 0.67271 0.0
H1685 H 0.18986 0.9611 0.6543 0.0
H1686 H 0.15639 0.03571 0.65938 0.0
H1687 H 0.21216 0.03603 0.67705 0.0
C1688 C 0.0954 0.01926 0.62668 0.0
C1689 C 0.07279 -0.00177 0.6225 0.0
C1690 C 0.1268 0.01926 0.63702 0.0
C1691 C 0.13508 -0.00169 0.64377 0.0
C1692 C 0.11138 0.97731 0.63954 0.0
C1693 C 0.08152 0.97721 0.62895 0.0
C1694 C 0.22309 0.9777 0.66976 0.0
C1695 C 0.23109 -0.00124 0.67622 0.0
C1696 C 0.19286 0.97758 0.65922 0.0
C1697 C 0.1681 -0.00159 0.65506 0.0
C1698 C 0.1755 0.01936 0.66184 0.0
C1699 C 0.20724 0.01959 0.67212 0.0
H1700 H 0.2177 0.1955 0.62429 0.0
H1701 H 0.24678 0.27004 0.62905 0.0
H1702 H 0.16159 0.19549 0.64191 0.0
H1703 H 0.19513 0.26997 0.64742 0.0
H1704 H 0.06829 0.27007 0.67537 0.0
H1705 H 0.11977 0.27013 0.65701 0.0
H1706 H 0.14977 0.19513 0.66179 0.0
H1707 H 0.09371 0.19508 0.67946 0.0
C1708 C 0.21265 0.21184 0.62929 0.0
C1709 C 0.23654 0.23275 0.62534 0.0
C1710 C 0.18075 0.21188 0.63955 0.0
C1711 C 0.17327 0.2327 0.64643 0.0
C1712 C 0.19814 0.25359 0.64241 0.0
C1713 C 0.22848 0.25368 0.63189 0.0
C1714 C 0.08571 0.25361 0.67237 0.0
C1715 C 0.07669 0.23255 0.67875 0.0
C1716 C 0.116 0.2536 0.66186 0.0
C1717 C 0.1399 0.23263 0.65765 0.0
C1718 C 0.13138 0.21162 0.66432 0.0
C1719 C 0.09949 0.21152 0.67459 0.0
H1720 H 0.99996 0.94698 0.42045 0.0
H1721 H 0.96362 0.02039 0.42721 0.0
H1722 H 0.9457 0.94765 0.40243 0.0
H1723 H 0.90705 0.0209 0.40954 0.0
H1724 H 0.84735 0.02085 0.3706 0.0
H1725 H 0.9034 0.02079 0.38835 0.0
H1726 H 0.85967 0.94825 0.39567 0.0
H1727 H 0.80589 0.94811 0.37756 0.0
C1728 C 0.98005 0.96326 0.41811 0.0
C1729 C 0.98575 0.98357 0.42532 0.0
C1730 C 0.9484 0.96361 0.40782 0.0
C1731 C 0.92123 0.98428 0.40446 0.0
C1732 C 0.92754 0.00469 0.41167 0.0
C1733 C 0.95964 0.00437 0.4219 0.0
C1734 C 0.85003 0.00486 0.37598 0.0
C1735 C 0.82269 0.98439 0.37258 0.0
C1736 C 0.88185 0.00487 0.38626 0.0
C1737 C 0.88664 0.98447 0.39354 0.0
C1738 C 0.85814 0.96416 0.39022 0.0
C1739 C 0.82677 0.96412 0.37988 0.0
H1740 H 0.96237 0.71065 0.37311 0.0
H1741 H 1.00136 0.78378 0.37975 0.0
H1742 H 0.90545 0.71072 0.39067 0.0
H1743 H 0.9466 0.78367 0.39776 0.0
H1744 H 0.80587 0.78378 0.42271 0.0
H1745 H 0.86066 0.78372 0.40472 0.0
H1746 H 0.9014 0.71063 0.41166 0.0
H1747 H 0.84445 0.71053 0.42921 0.0
C1748 C 0.95904 0.72673 0.37841 0.0
C1749 C 0.98595 0.74728 0.37496 0.0
C1750 C 0.92667 0.72674 0.38858 0.0
C1751 C 0.92094 0.74722 0.39575 0.0
C1752 C 0.94893 0.76766 0.3924 0.0
C1753 C 0.98087 0.7677 0.38212 0.0
C1754 C 0.82627 0.76767 0.42031 0.0
C1755 C 0.82106 0.74721 0.42743 0.0
C1756 C 0.85824 0.76767 0.41004 0.0
C1757 C 0.88613 0.74721 0.40665 0.0
C1758 C 0.88027 0.72668 0.41378 0.0
C1759 C 0.84788 0.72664 0.42395 0.0
H1760 H 0.56803 0.46122 0.62809 0.0
H1761 H 0.59474 0.53597 0.62341 0.0
H1762 H 0.62153 0.46134 0.64617 0.0
H1763 H 0.65245 0.53606 0.64074 0.0
H1764 H 0.72244 0.53667 0.67801 0.0
H1765 H 0.66532 0.53629 0.66057 0.0
H1766 H 0.69779 0.46158 0.6555 0.0
H1767 H 0.75066 0.46193 0.67368 0.0
C1768 C 0.58612 0.47765 0.63089 0.0
C1769 C 0.57685 0.49861 0.62444 0.0
C1770 C 0.61752 0.47776 0.64124 0.0
C1771 C 0.64216 0.49874 0.6452 0.0
C1772 C 0.6335 0.5196 0.63843 0.0
C1773 C 0.60063 0.5196 0.62834 0.0
C1774 C 0.71708 0.52021 0.67312 0.0
C1775 C 0.74105 0.49936 0.67716 0.0
C1776 C 0.68454 0.51993 0.66298 0.0
C1777 C 0.67638 0.49892 0.65629 0.0
C1778 C 0.70137 0.4781 0.66037 0.0
C1779 C 0.73244 0.47826 0.67077 0.0
H1780 H 0.75292 0.69889 0.62998 0.0
H1781 H 0.71383 0.77181 0.6227 0.0
H1782 H 0.69837 0.6996 0.64796 0.0
H1783 H 0.65711 0.77235 0.64036 0.0
H1784 H 0.59719 0.77252 0.67934 0.0
H1785 H 0.65383 0.77255 0.66166 0.0
H1786 H 0.61145 0.69983 0.65438 0.0
H1787 H 0.557 0.69962 0.67238 0.0
C1788 C 0.7324 0.71506 0.6322 0.0
C1789 C 0.73735 0.73522 0.62486 0.0
C1790 C 0.70061 0.71544 0.64247 0.0
C1791 C 0.67263 0.73597 0.64566 0.0
C1792 C 0.67826 0.75626 0.63834 0.0
C1793 C 0.71044 0.75591 0.62812 0.0
C1794 C 0.60032 0.75652 0.67398 0.0
C1795 C 0.57314 0.73598 0.67734 0.0
C1796 C 0.63245 0.75657 0.66375 0.0
C1797 C 0.63776 0.73614 0.65652 0.0
C1798 C 0.60947 0.71576 0.6598 0.0
C1799 C 0.57774 0.71569 0.67008 0.0
H1800 H 0.34566 0.52182 0.37268 0.0
H1801 H 0.30548 0.44892 0.37962 0.0
H1802 H 0.40165 0.52198 0.39043 0.0
H1803 H 0.35952 0.44924 0.39772 0.0
H1804 H 0.50042 0.44903 0.42253 0.0
H1805 H 0.44622 0.44925 0.40446 0.0
H1806 H 0.40396 0.52204 0.41168 0.0
H1807 H 0.46015 0.52197 0.4294 0.0
C1808 C 0.34857 0.50585 0.37807 0.0
C1809 C 0.32154 0.48529 0.37467 0.0
C1810 C 0.3804 0.50597 0.38834 0.0
C1811 C 0.3856 0.48559 0.3956 0.0
C1812 C 0.35756 0.46516 0.39228 0.0
C1813 C 0.32606 0.46501 0.38195 0.0
C1814 C 0.47977 0.46511 0.42019 0.0
C1815 C 0.48433 0.48543 0.42744 0.0
C1816 C 0.44818 0.4652 0.40988 0.0
C1817 C 0.42006 0.48562 0.40655 0.0
C1818 C 0.42527 0.50603 0.41379 0.0
C1819 C 0.45721 0.50597 0.42404 0.0
H1820 H 0.34731 0.20925 0.43037 0.0
H1821 H 0.30233 0.28147 0.42312 0.0
H1822 H 0.40231 0.20934 0.41243 0.0
H1823 H 0.35549 0.28139 0.40487 0.0
H1824 H 0.49731 0.28299 0.38036 0.0
H1825 H 0.44262 0.28225 0.39832 0.0
H1826 H 0.40388 0.20912 0.39103 0.0
H1827 H 0.46058 0.20973 0.37334 0.0
C1828 C 0.34893 0.22511 0.42488 0.0
C1829 C 0.32089 0.24543 0.42823 0.0
C1830 C 0.38018 0.22513 0.4145 0.0
C1831 C 0.38383 0.24541 0.40713 0.0
C1832 C 0.35469 0.26557 0.4104 0.0
C1833 C 0.32373 0.26558 0.42082 0.0
C1834 C 0.47726 0.26673 0.38263 0.0
C1835 C 0.48301 0.24647 0.37538 0.0
C1836 C 0.4454 0.26634 0.39289 0.0
C1837 C 0.41819 0.24568 0.39618 0.0
C1838 C 0.42444 0.22532 0.38893 0.0
C1839 C 0.45662 0.22569 0.3787 0.0
H1840 H 0.71653 0.03691 0.17663 0.0
H1841 H 0.743 0.96212 0.172 0.0
H1842 H 0.65924 0.03707 0.1592 0.0
H1843 H 0.68989 0.96229 0.15386 0.0
H1844 H 0.56025 0.96255 0.1266 0.0
H1845 H 0.61316 0.96252 0.14476 0.0
H1846 H 0.64584 0.03707 0.13932 0.0
H1847 H 0.58867 0.03715 0.12186 0.0
C1848 C 0.71074 0.02055 0.17168 0.0
C1849 C 0.73425 -0.00048 0.17564 0.0
C1850 C 0.67807 0.02059 0.16155 0.0
C1851 C 0.66927 -0.0003 0.15481 0.0
C1852 C 0.6939 0.97872 0.15879 0.0
C1853 C 0.72512 0.97858 0.16916 0.0
C1854 C 0.57849 0.97893 0.12942 0.0
C1855 C 0.56994 -0.00011 0.12291 0.0
C1856 C 0.60962 0.97895 0.13981 0.0
C1857 C 0.63479 -0.00021 0.14376 0.0
C1858 C 0.62657 0.0207 0.13698 0.0
C1859 C 0.59396 0.0208 0.12684 0.0
H1860 H 0.74263 0.26996 0.12892 0.0
H1861 H 0.71316 0.19544 0.1242 0.0
H1862 H 0.68958 0.27017 0.14708 0.0
H1863 H 0.65589 0.1957 0.14164 0.0
H1864 H 0.58749 0.19575 0.17916 0.0
H1865 H 0.64369 0.1956 0.16153 0.0
H1866 H 0.61323 0.27046 0.1564 0.0
H1867 H 0.56132 0.27061 0.17473 0.0
C1868 C 0.72403 0.25366 0.13173 0.0
C1869 C 0.73238 0.23265 0.12525 0.0
C1870 C 0.69288 0.25374 0.14212 0.0
C1871 C 0.66757 0.23293 0.1461 0.0
C1872 C 0.67535 0.21203 0.1393 0.0
C1873 C 0.70796 0.21183 0.12916 0.0
C1874 C 0.59304 0.21211 0.17421 0.0
C1875 C 0.56999 0.23316 0.17827 0.0
C1876 C 0.62507 0.21209 0.16397 0.0
C1877 C 0.63361 0.233 0.15722 0.0
C1878 C 0.60937 0.254 0.16131 0.0
C1879 C 0.57884 0.25413 0.1718 0.0
H1880 H 0.34162 0.94672 0.8723 0.0
H1881 H 0.31372 0.02147 0.87667 0.0
H1882 H 0.39884 0.947 0.8897 0.0
H1883 H 0.3668 0.02172 0.89484 0.0
H1884 H 0.49589 0.02137 0.92257 0.0
H1885 H 0.44266 0.02169 0.90442 0.0
H1886 H 0.41063 0.94698 0.90953 0.0
H1887 H 0.468 0.94663 0.9269 0.0
C1888 C 0.34714 0.96318 0.87718 0.0
C1889 C 0.32314 0.98404 0.87318 0.0
C1890 C 0.3797 0.96339 0.88731 0.0
C1891 C 0.38783 0.98434 0.89404 0.0
C1892 C 0.36309 0.00522 0.88996 0.0
C1893 C 0.33197 0.00513 0.87955 0.0
C1894 C 0.47758 0.00505 0.91969 0.0
C1895 C 0.48647 0.98394 0.92604 0.0
C1896 C 0.44638 0.00518 0.9093 0.0
C1897 C 0.42163 0.98433 0.9052 0.0
C1898 C 0.42978 0.96335 0.91192 0.0
C1899 C 0.46242 0.9631 0.92204 0.0
H1900 H 0.50637 0.78294 0.87997 0.0
H1901 H 0.46203 0.7107 0.87262 0.0
H1902 H 0.45338 0.78268 0.89823 0.0
H1903 H 0.40706 0.71063 0.89055 0.0
H1904 H 0.34913 0.71046 0.9296 0.0
H1905 H 0.40536 0.71012 0.91184 0.0
H1906 H 0.36678 0.78346 0.905 0.0
H1907 H 0.31275 0.78395 0.92307 0.0
C1908 C 0.48511 0.76702 0.88225 0.0
C1909 C 0.4881 0.74691 0.8748 0.0
C1910 C 0.45423 0.7669 0.89268 0.0
C1911 C 0.42528 0.74669 0.89592 0.0
C1912 C 0.42904 0.72646 0.8885 0.0
C1913 C 0.46026 0.72654 0.87813 0.0
C1914 C 0.35306 0.72654 0.92433 0.0
C1915 C 0.32701 0.74731 0.92782 0.0
C1916 C 0.38495 0.72632 0.91406 0.0
C1917 C 0.39112 0.74681 0.90691 0.0
C1918 C 0.36409 0.76745 0.91034 0.0
C1919 C 0.33259 0.7677 0.92066 0.0
H1920 H 0.2714 0.66044 0.09644 0.0
H1921 H 0.12164 0.68539 0.08462 0.0
H1922 H 0.24038 0.61994 0.09623 0.0
H1923 H 0.09086 0.64445 0.08365 0.0
H1924 H 0.03556 0.57196 0.09515 0.0
H1925 H 0.06654 0.61243 0.09545 0.0
H1926 H 0.21795 0.58825 0.08396 0.0
H1927 H 0.1871 0.54729 0.08441 0.0
C1928 C 0.23183 0.65714 0.09364 0.0
C1929 C 0.19883 0.67596 0.0905 0.0
C1930 C 0.21415 0.63386 0.09341 0.0
C1931 C 0.16324 0.62874 0.08981 0.0
C1932 C 0.13012 0.64769 0.08665 0.0
C1933 C 0.14762 0.67114 0.08715 0.0
C1934 C 0.07551 0.57531 0.09267 0.0
C1935 C 0.109 0.55657 0.08969 0.0
C1936 C 0.09319 0.59859 0.09275 0.0
C1937 C 0.14465 0.6038 0.08962 0.0
C1938 C 0.17823 0.58493 0.0866 0.0
C1939 C 0.16068 0.56147 0.08678 0.0
H1940 H 0.03661 0.65979 0.20495 0.0
H1941 H 0.18171 0.68473 0.21958 0.0
H1942 H 0.06845 0.61942 0.2052 0.0
H1943 H 0.21315 0.64386 0.22052 0.0
H1944 H 0.27339 0.57248 0.20839 0.0
H1945 H 0.24142 0.61276 0.2084 0.0
H1946 H 0.08827 0.58722 0.21757 0.0
H1947 H 0.12033 0.54641 0.21686 0.0
C1948 C 0.0753 0.65652 0.20837 0.0
C1949 C 0.1068 0.67529 0.21228 0.0
C1950 C 0.09339 0.63331 0.20862 0.0
C1951 C 0.14319 0.62823 0.21299 0.0
C1952 C 0.17481 0.64712 0.21692 0.0
C1953 C 0.15694 0.67052 0.21643 0.0
C1954 C 0.23284 0.57546 0.21045 0.0
C1955 C 0.19925 0.55638 0.21269 0.0
C1956 C 0.21459 0.59864 0.21055 0.0
C1957 C 0.16237 0.6034 0.2131 0.0
C1958 C 0.12864 0.58422 0.21539 0.0
C1959 C 0.14685 0.56086 0.21505 0.0
H1960 H 0.93824 0.29801 0.9677 0.0
H1961 H 0.78503 0.32265 0.9583 0.0
H1962 H 0.96867 0.339 0.96827 0.0
H1963 H 0.81555 0.36322 0.95814 0.0
H1964 H 0.87324 0.43602 0.96904 0.0
H1965 H 0.84203 0.39509 0.97001 0.0
H1966 H 0.98867 0.3706 0.95566 0.0
H1967 H 1.02016 0.41098 0.95542 0.0
C1968 C 0.91134 0.3122 0.96564 0.0
C1969 C 0.85939 0.30726 0.96304 0.0
C1970 C 0.92864 0.33567 0.9659 0.0
C1971 C 0.89449 0.35452 0.96326 0.0
C1972 C 0.84266 0.34934 0.96052 0.0
C1973 C 0.82526 0.32602 0.96051 0.0
C1974 C 0.89846 0.42176 0.96613 0.0
C1975 C 0.94908 0.42649 0.96229 0.0
C1976 C 0.88074 0.39835 0.96663 0.0
C1977 C 0.91305 0.37943 0.96301 0.0
C1978 C 0.96321 0.3845 0.95887 0.0
C1979 C 0.98113 0.40771 0.95863 0.0
H1980 H 0.78707 0.41052 0.82987 0.0
H1981 H 0.9301 0.43377 0.84644 0.0
H1982 H 0.81746 0.36991 0.83019 0.0
H1983 H 0.96056 0.39264 0.84675 0.0
H1984 H 1.01526 0.32086 0.83197 0.0
H1985 H 0.98498 0.36144 0.8318 0.0
H1986 H 0.83665 0.33874 0.84565 0.0
H1987 H 0.86695 0.29756 0.84582 0.0
C1988 C 0.82517 0.40701 0.83356 0.0
C1989 C 0.85625 0.42542 0.83816 0.0
C1990 C 0.84228 0.38365 0.83382 0.0
C1991 C 0.89098 0.37812 0.83861 0.0
C1992 C 0.92277 0.3965 0.84297 0.0
C1993 C 0.90549 0.42 0.84277 0.0
C1994 C 0.97604 0.32434 0.83497 0.0
C1995 C 0.9434 0.3059 0.83892 0.0
C1996 C 0.95897 0.3477 0.83495 0.0
C1997 C 0.90877 0.35324 0.8388 0.0
C1998 C 0.8756 0.33487 0.84258 0.0
C1999 C 0.89284 0.31135 0.84267 0.0
H2000 H 0.19217 0.04639 0.58487 0.0
H2001 H 0.03573 0.07193 0.58971 0.0
H2002 H 0.22358 0.08725 0.5849 0.0
H2003 H 0.06682 0.1123 0.5905 0.0
H2004 H 0.1309 0.18473 0.58142 0.0
H2005 H 0.09979 0.14394 0.57959 0.0
H2006 H 0.23782 0.11897 0.59782 0.0
H2007 H 0.26965 0.15932 0.59889 0.0
C2008 C 0.16468 0.06074 0.58601 0.0
C2009 C 0.11165 0.05607 0.58719 0.0
C2010 C 0.18252 0.08414 0.58611 0.0
C2011 C 0.1477 0.10319 0.58771 0.0
C2012 C 0.09468 0.09828 0.58895 0.0
C2013 C 0.07687 0.07504 0.58858 0.0
C2014 C 0.1542 0.1704 0.58503 0.0
C2015 C 0.20261 0.17498 0.59021 0.0
C2016 C 0.13653 0.14705 0.58403 0.0
C2017 C 0.16651 0.12803 0.58848 0.0
C2018 C 0.21433 0.13296 0.59397 0.0
C2019 C 0.23236 0.15612 0.5947 0.0
H2020 H 0.18742 0.18531 0.71802 0.0
H2021 H 0.03131 0.16113 0.71135 0.0
H2022 H 0.21725 0.14421 0.71833 0.0
H2023 H 0.06102 0.1205 0.71087 0.0
H2024 H 0.12079 0.04715 0.71977 0.0
H2025 H 0.09047 0.0881 0.72163 0.0
H2026 H 0.23363 0.11274 0.70556 0.0
H2027 H 0.2645 0.07225 0.70452 0.0
C2028 C 0.15967 0.17121 0.71656 0.0
C2029 C 0.10717 0.17636 0.71475 0.0
C2030 C 0.17663 0.14765 0.71665 0.0
C2031 C 0.14156 0.12888 0.71458 0.0
C2032 C 0.08904 0.13427 0.71277 0.0
C2033 C 0.07202 0.15767 0.71297 0.0
C2034 C 0.14539 0.06145 0.71665 0.0
C2035 C 0.19492 0.05672 0.7121 0.0
C2036 C 0.12819 0.0849 0.71767 0.0
C2037 C 0.15979 0.1039 0.71384 0.0
C2038 C 0.20878 0.09881 0.70896 0.0
C2039 C 0.2263 0.07555 0.70823 0.0
H2040 H 0.93495 0.79689 0.45549 0.0
H2041 H 0.79059 0.82108 0.47111 0.0
H2042 H 0.96609 0.83783 0.45509 0.0
H2043 H 0.82181 0.86159 0.47074 0.0
H2044 H 0.87553 0.93343 0.45493 0.0
H2045 H 0.84334 0.89258 0.45549 0.0
H2046 H 0.99019 0.86901 0.46985 0.0
H2047 H 1.02229 0.90927 0.46927 0.0
C2048 C 0.91014 0.81083 0.45893 0.0
C2049 C 0.86041 0.8057 0.46333 0.0
C2050 C 0.92787 0.83424 0.45869 0.0
C2051 C 0.89608 0.85286 0.4628 0.0
C2052 C 0.84673 0.84765 0.46733 0.0
C2053 C 0.82914 0.82435 0.46762 0.0
C2054 C 0.90065 0.91953 0.45829 0.0
C2055 C 0.95143 0.9246 0.46199 0.0
C2056 C 0.88233 0.89619 0.4586 0.0
C2057 C 0.91461 0.87764 0.46259 0.0
C2058 C 0.96487 0.88286 0.46651 0.0
C2059 C 0.98303 0.90603 0.46624 0.0
H2060 H 1.01879 0.82047 0.33069 0.0
H2061 H 0.87263 0.79765 0.34591 0.0
H2062 H 0.98803 0.861 0.33018 0.0
H2063 H 0.84188 0.83872 0.34542 0.0
H2064 H 0.78919 0.90972 0.32948 0.0
H2065 H 0.82 0.86918 0.32993 0.0
H2066 H 0.96562 0.89281 0.34489 0.0
H2067 H 0.93481 0.93385 0.34442 0.0
C2068 C 0.97994 0.82405 0.33392 0.0
C2069 C 0.94806 0.80578 0.33836 0.0
C2070 C 0.9626 0.84737 0.3337 0.0
C2071 C 0.91289 0.85301 0.33786 0.0
C2072 C 0.88043 0.83477 0.34211 0.0
C2073 C 0.89793 0.81131 0.34238 0.0
C2074 C 0.82793 0.90642 0.33285 0.0
C2075 C 0.85963 0.92506 0.33694 0.0
C2076 C 0.84531 0.8831 0.33318 0.0
C2077 C 0.89486 0.87785 0.33755 0.0
C2078 C 0.92719 0.89645 0.34142 0.0
C2079 C 0.90967 0.9199 0.34114 0.0
H2080 H 0.53606 0.5727 0.5951 0.0
H2081 H 0.68626 0.54662 0.58414 0.0
H2082 H 0.56836 0.61292 0.59499 0.0
H2083 H 0.71847 0.58738 0.58336 0.0
H2084 H 0.77406 0.65915 0.59623 0.0
H2085 H 0.7417 0.61891 0.59589 0.0
H2086 H 0.59394 0.64443 0.58273 0.0
H2087 H 0.62609 0.68517 0.58374 0.0
C2088 C 0.57599 0.57566 0.59248 0.0
C2089 C 0.60873 0.5566 0.58957 0.0
C2090 C 0.5944 0.5988 0.59233 0.0
C2091 C 0.64588 0.60353 0.58906 0.0
C2092 C 0.67873 0.58438 0.58609 0.0
C2093 C 0.66042 0.56105 0.58647 0.0
C2094 C 0.73461 0.65615 0.59326 0.0
C2095 C 0.70249 0.6752 0.58997 0.0
C2096 C 0.71619 0.63302 0.59296 0.0
C2097 C 0.66538 0.62828 0.58917 0.0
C2098 C 0.63313 0.64743 0.58586 0.0
C2099 C 0.6514 0.67075 0.58639 0.0
H2100 H 0.62639 0.54773 0.71707 0.0
H2101 H 0.77753 0.57428 0.70726 0.0
H2102 H 0.59362 0.58837 0.71791 0.0
H2103 H 0.7447 0.61446 0.70738 0.0
H2104 H 0.68488 0.6864 0.7186 0.0
H2105 H 0.71751 0.64573 0.71948 0.0
H2106 H 0.57091 0.6202 0.70568 0.0
H2107 H 0.53798 0.66038 0.70551 0.0
C2108 C 0.65234 0.56225 0.71499 0.0
C2109 C 0.70443 0.55795 0.71221 0.0
C2110 C 0.63369 0.58553 0.71541 0.0
C2111 C 0.66659 0.60482 0.71275 0.0
C2112 C 0.71852 0.60025 0.7098 0.0
C2113 C 0.73727 0.57714 0.70963 0.0
C2114 C 0.65991 0.67199 0.71579 0.0
C2115 C 0.60896 0.67643 0.71208 0.0
C2116 C 0.67848 0.6487 0.71624 0.0
C2117 C 0.64673 0.62956 0.7127 0.0
C2118 C 0.59606 0.63428 0.70879 0.0
C2119 C 0.5773 0.65739 0.70859 0.0
H2120 H 0.51983 0.41023 0.45554 0.0
H2121 H 0.37131 0.43459 0.46851 0.0
H2122 H 0.48918 0.36968 0.45567 0.0
H2123 H 0.34096 0.39356 0.46938 0.0
H2124 H 0.28548 0.32105 0.4578 0.0
H2125 H 0.31573 0.36165 0.45752 0.0
H2126 H 0.46868 0.33781 0.46802 0.0
H2127 H 0.4385 0.29676 0.46756 0.0
C2128 C 0.48062 0.40678 0.45857 0.0
C2129 C 0.44787 0.42544 0.46207 0.0
C2130 C 0.46317 0.38348 0.45875 0.0
C2131 C 0.41276 0.37817 0.46266 0.0
C2132 C 0.37983 0.39697 0.46615 0.0
C2133 C 0.39708 0.42046 0.46571 0.0
C2134 C 0.32562 0.3245 0.46006 0.0
C2135 C 0.35974 0.30583 0.46275 0.0
C2136 C 0.34288 0.34785 0.46 0.0
C2137 C 0.39456 0.35318 0.46285 0.0
C2138 C 0.42876 0.33439 0.46559 0.0
C2139 C 0.41161 0.31088 0.46539 0.0
H2140 H 0.37569 0.2969 0.33342 0.0
H2141 H 0.52069 0.3222 0.34796 0.0
H2142 H 0.344 0.33774 0.33235 0.0
H2143 H 0.48863 0.36252 0.34756 0.0
H2144 H 0.43761 0.43509 0.33537 0.0
H2145 H 0.46909 0.39422 0.33484 0.0
H2146 H 0.31586 0.36925 0.34433 0.0
H2147 H 0.28439 0.40965 0.34418 0.0
C2148 C 0.40038 0.31118 0.33652 0.0
C2149 C 0.4506 0.30654 0.34066 0.0
C2150 C 0.38237 0.33455 0.33595 0.0
C2151 C 0.41397 0.35352 0.33979 0.0
C2152 C 0.46375 0.34856 0.3442 0.0
C2153 C 0.48197 0.32539 0.34453 0.0
C2154 C 0.41091 0.42077 0.33729 0.0
C2155 C 0.35866 0.42544 0.33972 0.0
C2156 C 0.42881 0.39737 0.33705 0.0
C2157 C 0.39492 0.37835 0.33951 0.0
C2158 C 0.3428 0.38327 0.34209 0.0
C2159 C 0.32484 0.4065 0.34209 0.0
H2160 H 0.53823 0.07226 0.07916 0.0
H2161 H 0.68315 0.04805 0.09446 0.0
H2162 H 0.56946 0.11278 0.07949 0.0
H2163 H 0.71435 0.08899 0.09479 0.0
H2164 H 0.76946 0.16073 0.08053 0.0
H2165 H 0.73747 0.12042 0.07985 0.0
H2166 H 0.59174 0.1435 0.09502 0.0
H2167 H 0.62382 0.18435 0.09573 0.0
C2168 C 0.57692 0.07553 0.08255 0.0
C2169 C 0.60833 0.05687 0.08678 0.0
C2170 C 0.59452 0.09883 0.08282 0.0
C2171 C 0.64403 0.10403 0.08725 0.0
C2172 C 0.676 0.0854 0.09127 0.0
C2173 C 0.65823 0.06199 0.09106 0.0
C2174 C 0.73045 0.15738 0.08371 0.0
C2175 C 0.69914 0.1758 0.08823 0.0
C2176 C 0.71237 0.13418 0.08338 0.0
C2177 C 0.66247 0.12882 0.0875 0.0
C2178 C 0.63045 0.14723 0.09175 0.0
C2179 C 0.6487 0.17057 0.09215 0.0
H2180 H 0.53958 0.16068 0.22196 0.0
H2181 H 0.68481 0.18418 0.20654 0.0
H2182 H 0.56983 0.11998 0.2215 0.0
H2183 H 0.715 0.14306 0.20608 0.0
H2184 H 0.76842 0.07098 0.22041 0.0
H2185 H 0.73746 0.11148 0.22106 0.0
H2186 H 0.59134 0.08927 0.20582 0.0
H2187 H 0.62235 0.04823 0.20515 0.0
C2188 C 0.57814 0.15721 0.21851 0.0
C2189 C 0.60993 0.17572 0.21429 0.0
C2190 C 0.59516 0.13382 0.21817 0.0
C2191 C 0.64446 0.12839 0.21367 0.0
C2192 C 0.67679 0.14685 0.20965 0.0
C2193 C 0.6596 0.17035 0.20992 0.0
C2194 C 0.72953 0.07457 0.21722 0.0
C2195 C 0.69777 0.05633 0.2127 0.0
C2196 C 0.71206 0.09787 0.21753 0.0
C2197 C 0.66233 0.10352 0.21339 0.0
C2198 C 0.62991 0.08531 0.20911 0.0
C2199 C 0.64757 0.06186 0.20873 0.0
H2200 H 0.44088 0.79674 0.96678 0.0
H2201 H 0.28664 0.82282 0.95948 0.0
H2202 H 0.47304 0.8375 0.96702 0.0
H2203 H 0.31865 0.86305 0.95902 0.0
H2204 H 0.38125 0.93531 0.96889 0.0
H2205 H 0.3493 0.89461 0.9705 0.0
H2206 H 0.49095 0.86902 0.95408 0.0
H2207 H 0.52339 0.90925 0.95317 0.0
C2208 C 0.41407 0.81117 0.96515 0.0
C2209 C 0.36137 0.80669 0.96321 0.0
C2210 C 0.43235 0.83451 0.96522 0.0
C2211 C 0.39838 0.85366 0.96306 0.0
C2212 C 0.34575 0.84893 0.96102 0.0
C2213 C 0.32745 0.82578 0.9612 0.0
C2214 C 0.4052 0.92088 0.96564 0.0
C2215 C 0.45472 0.92527 0.961 0.0
C2216 C 0.38706 0.89758 0.96652 0.0
C2217 C 0.41776 0.87842 0.9625 0.0
C2218 C 0.46682 0.88313 0.95759 0.0
C2219 C 0.48522 0.90624 0.95696 0.0
H2220 H 0.37028 0.79692 0.83495 0.0
H2221 H 0.52304 0.82273 0.84384 0.0
H2222 H 0.33877 0.83773 0.83391 0.0
H2223 H 0.49148 0.86315 0.84353 0.0
H2224 H 0.43191 0.93514 0.83187 0.0
H2225 H 0.46394 0.8943 0.8313 0.0
H2226 H 0.31823 0.86987 0.84612 0.0
H2227 H 0.28591 0.91013 0.84599 0.0
C2228 C 0.39684 0.81133 0.83679 0.0
C2229 C 0.44898 0.80677 0.83939 0.0
C2230 C 0.37894 0.8347 0.83626 0.0
C2231 C 0.41265 0.85384 0.83862 0.0
C2232 C 0.46467 0.84903 0.84137 0.0
C2233 C 0.48267 0.8258 0.84165 0.0
C2234 C 0.40705 0.92092 0.83497 0.0
C2235 C 0.35645 0.92563 0.83885 0.0
C2236 C 0.42526 0.89755 0.8347 0.0
C2237 C 0.39348 0.87867 0.83858 0.0
C2238 C 0.3433 0.88373 0.84273 0.0
C2239 C 0.3249 0.90688 0.84275 0.0
H2240 H 0.66631 0.52807 0.08343 0.0
H2241 H 0.68763 0.45393 0.09181 0.0
H2242 H 0.5729 0.52318 0.08486 0.0
H2243 H 0.5938 0.44903 0.09323 0.0
H2244 H 0.42784 0.4558 0.10786 0.0
H2245 H 0.52137 0.46002 0.10593 0.0
H2246 H 0.49977 0.50523 0.07486 0.0
H2247 H 0.40607 0.50183 0.0771 0.0
C2248 C 0.65108 0.51062 0.08541 0.0
C2249 C 0.68467 0.49137 0.08745 0.0
C2250 C 0.59737 0.50782 0.08624 0.0
C2251 C 0.57563 0.4857 0.08913 0.0
C2252 C 0.60917 0.4664 0.09114 0.0
C2253 C 0.66301 0.4692 0.09032 0.0
C2254 C 0.44295 0.46687 0.10069 0.0
C2255 C 0.40921 0.47861 0.09269 0.0
C2256 C 0.49672 0.46902 0.09948 0.0
C2257 C 0.51829 0.48295 0.09023 0.0
C2258 C 0.48458 0.49456 0.08217 0.0
C2259 C 0.43077 0.49241 0.08338 0.0
H2260 H 0.64143 0.70708 0.08126 0.0
H2261 H 0.61965 0.77791 0.09519 0.0
H2262 H 0.73487 0.71195 0.08261 0.0
H2263 H 0.71348 0.78277 0.09657 0.0
H2264 H 0.88033 0.77223 0.11002 0.0
H2265 H 0.78674 0.76818 0.10813 0.0
H2266 H 0.80683 0.73325 0.07373 0.0
H2267 H 0.90065 0.73644 0.07584 0.0
C2268 C 0.65654 0.72384 0.08446 0.0
C2269 C 0.62285 0.74214 0.08807 0.0
C2270 C 0.71026 0.72662 0.08524 0.0
C2271 C 0.73183 0.74776 0.08969 0.0
C2272 C 0.6982 0.76613 0.09326 0.0
C2273 C 0.64438 0.76335 0.09247 0.0
C2274 C 0.86488 0.76344 0.1021 0.0
C2275 C 0.89819 0.75452 0.09312 0.0
C2276 C 0.8111 0.76142 0.10095 0.0
C2277 C 0.78913 0.75041 0.09077 0.0
C2278 C 0.8224 0.74161 0.08175 0.0
C2279 C 0.87623 0.74365 0.0829 0.0
H2280 H 0.66362 0.70442 0.22004 0.0
H2281 H 0.68459 0.77825 0.21096 0.0
H2282 H 0.57011 0.70953 0.21921 0.0
H2283 H 0.5907 0.78334 0.21007 0.0
H2284 H 0.42421 0.77561 0.1958 0.0
H2285 H 0.51783 0.77146 0.19754 0.0
H2286 H 0.49784 0.72845 0.22947 0.0
H2287 H 0.40394 0.73186 0.22747 0.0
C2288 C 0.64833 0.72185 0.21804 0.0
C2289 C 0.68182 0.74094 0.2156 0.0
C2290 C 0.59458 0.72477 0.21755 0.0
C2291 C 0.57277 0.74684 0.21458 0.0
C2292 C 0.60618 0.76601 0.21223 0.0
C2293 C 0.66003 0.76309 0.21273 0.0
C2294 C 0.4397 0.76506 0.20313 0.0
C2295 C 0.40641 0.75392 0.21145 0.0
C2296 C 0.49348 0.76296 0.20422 0.0
C2297 C 0.51547 0.74964 0.21365 0.0
C2298 C 0.48223 0.73864 0.22203 0.0
C2299 C 0.42837 0.74079 0.22095 0.0
H2300 H 0.89292 0.48978 0.18774 0.0
H2301 H 0.89839 0.47836 0.22629 0.0
H2302 H 0.79905 0.49383 0.18877 0.0
H2303 H 0.80461 0.48337 0.2274 0.0
H2304 H 0.63151 0.46675 0.22276 0.0
H2305 H 0.72566 0.46299 0.22185 0.0
H2306 H 0.73176 0.51991 0.1958 0.0
H2307 H 0.63779 0.52355 0.19666 0.0
C2308 C 0.87413 0.48822 0.19645 0.0
C2309 C 0.90334 0.48366 0.20693 0.0
C2310 C 0.82027 0.49079 0.19706 0.0
C2311 C 0.79406 0.48889 0.20817 0.0
C2312 C 0.82334 0.48465 0.21867 0.0
C2313 C 0.87727 0.4821 0.21806 0.0
C2314 C 0.65298 0.47853 0.21688 0.0
C2315 C 0.62696 0.49538 0.20974 0.0
C2316 C 0.70702 0.47643 0.21638 0.0
C2317 C 0.73647 0.49116 0.20875 0.0
C2318 C 0.71038 0.508 0.20162 0.0
C2319 C 0.65639 0.51007 0.2021 0.0
H2320 H 0.65151 0.4759 0.97121 0.0
H2321 H 0.63579 0.53159 0.94469 0.0
H2322 H 0.55733 0.47228 0.97221 0.0
H2323 H 0.54191 0.52787 0.94564 0.0
H2324 H 0.38025 0.49539 0.94048 0.0
H2325 H 0.47409 0.50017 0.93998 0.0
H2326 H 0.47954 0.49358 0.97882 0.0
H2327 H 0.38569 0.48806 0.97928 0.0
C2328 C 0.62804 0.48749 0.96566 0.0
C2329 C 0.65141 0.50393 0.95781 0.0
C2330 C 0.57399 0.48543 0.96624 0.0
C2331 C 0.54197 0.49974 0.95898 0.0
C2332 C 0.56535 0.51628 0.95121 0.0
C2333 C 0.61929 0.51837 0.95064 0.0
C2334 C 0.40146 0.49489 0.94891 0.0
C2335 C 0.37539 0.49127 0.95992 0.0
C2336 C 0.45526 0.49785 0.94864 0.0
C2337 C 0.48447 0.49721 0.95936 0.0
C2338 C 0.45834 0.4939 0.97039 0.0
C2339 C 0.40445 0.49103 0.97066 0.0
H2340 H 0.43565 0.23956 0.94517 0.0
H2341 H 0.42502 0.2365 0.98407 0.0
H2342 H 0.34189 0.23518 0.94369 0.0
H2343 H 0.33104 0.233 0.98261 0.0
H2344 H 0.1681 0.20393 0.97469 0.0
H2345 H 0.26219 0.20645 0.97636 0.0
H2346 H 0.26479 0.25847 0.94775 0.0
H2347 H 0.17079 0.25593 0.94607 0.0
C2348 C 0.41339 0.23773 0.95341 0.0
C2349 C 0.43796 0.23841 0.96474 0.0
C2350 C 0.3595 0.23555 0.95257 0.0
C2351 C 0.32877 0.23394 0.96304 0.0
C2352 C 0.35346 0.23406 0.97436 0.0
C2353 C 0.40734 0.23629 0.9752 0.0
C2354 C 0.18868 0.21612 0.96885 0.0
C2355 C 0.16181 0.22971 0.96023 0.0
C2356 C 0.24268 0.21753 0.96979 0.0
C2357 C 0.2712 0.23256 0.96214 0.0
C2358 C 0.24423 0.24635 0.95362 0.0
C2359 C 0.19027 0.24494 0.95268 0.0
H2360 H 0.64356 0.23996 0.82463 0.0
H2361 H 0.62779 0.21867 0.86193 0.0
H2362 H 0.54958 0.24328 0.82299 0.0
H2363 H 0.53404 0.22287 0.86042 0.0
H2364 H 0.36532 0.2087 0.84962 0.0
H2365 H 0.45924 0.20417 0.85095 0.0
H2366 H 0.47936 0.2683 0.83018 0.0
H2367 H 0.38578 0.27289 0.82889 0.0
C2368 C 0.62008 0.23599 0.83248 0.0
C2369 C 0.64332 0.22909 0.84342 0.0
C2370 C 0.56621 0.23812 0.83158 0.0
C2371 C 0.53421 0.23336 0.84158 0.0
C2372 C 0.55745 0.22643 0.8525 0.0
C2373 C 0.6113 0.22433 0.85341 0.0
C2374 C 0.38978 0.2219 0.84539 0.0
C2375 C 0.36788 0.24111 0.83911 0.0
C2376 C 0.44364 0.21931 0.84616 0.0
C2377 C 0.47689 0.23586 0.84065 0.0
C2378 C 0.45495 0.25501 0.83435 0.0
C2379 C 0.4012 0.25761 0.8336 0.0
H2380 H 0.16232 0.4773 0.8581 0.0
H2381 H 0.16196 0.52589 0.82797 0.0
H2382 H 0.25634 0.47405 0.85669 0.0
H2383 H 0.25599 0.5227 0.82657 0.0
H2384 H 0.41801 0.49133 0.8198 0.0
H2385 H 0.32416 0.4954 0.82114 0.0
H2386 H 0.33465 0.49665 0.86007 0.0
H2387 H 0.42836 0.49167 0.85873 0.0
C2388 C 0.18229 0.48741 0.85122 0.0
C2389 C 0.15439 0.50184 0.84315 0.0
C2390 C 0.23631 0.48559 0.85042 0.0
C2391 C 0.26396 0.49818 0.84154 0.0
C2392 C 0.23602 0.51249 0.83342 0.0
C2393 C 0.18199 0.51429 0.83421 0.0
C2394 C 0.40031 0.49238 0.82865 0.0
C2395 C 0.43088 0.49106 0.83915 0.0
C2396 C 0.34644 0.49496 0.82942 0.0
C2397 C 0.32161 0.49625 0.84072 0.0
C2398 C 0.35229 0.49538 0.85122 0.0
C2399 C 0.40619 0.49285 0.85045 0.0
H2400 H 0.41081 0.9835 0.57425 0.0
H2401 H 0.42352 0.98396 0.61315 0.0
H2402 H 0.50441 0.98856 0.57258 0.0
H2403 H 0.51712 0.9879 0.61149 0.0
H2404 H 0.67836 0.01804 0.60455 0.0
H2405 H 0.58445 0.01484 0.60602 0.0
H2406 H 0.58366 0.9669 0.57559 0.0
H2407 H 0.67768 0.97034 0.57406 0.0
C2408 C 0.43346 0.98483 0.58245 0.0
C2409 C 0.40943 0.98327 0.59383 0.0
C2410 C 0.48732 0.9874 0.5815 0.0
C2411 C 0.51861 0.9885 0.5919 0.0
C2412 C 0.49442 0.98733 0.60327 0.0
C2413 C 0.44064 0.98479 0.60422 0.0
C2414 C 0.65824 0.00662 0.59825 0.0
C2415 C 0.6857 -0.00561 0.58921 0.0
C2416 C 0.60426 0.00479 0.59908 0.0
C2417 C 0.5762 0.99062 0.59092 0.0
C2418 C 0.60374 0.97831 0.5819 0.0
C2419 C 0.65774 0.98021 0.58104 0.0
H2420 H 0.64083 0.23965 0.57024 0.0
H2421 H 0.63109 0.24374 0.60913 0.0
H2422 H 0.73485 0.24351 0.57141 0.0
H2423 H 0.72486 0.24843 0.61027 0.0
H2424 H 0.89638 0.22792 0.60871 0.0
H2425 H 0.80238 0.22481 0.60728 0.0
H2426 H 0.80361 0.27123 0.57627 0.0
H2427 H 0.89767 0.27434 0.57769 0.0
C2428 C 0.6587 0.2415 0.57904 0.0
C2429 C 0.62829 0.24131 0.58959 0.0
C2430 C 0.71262 0.24393 0.5797 0.0
C2431 C 0.7376 0.24616 0.59094 0.0
C2432 C 0.70707 0.24641 0.60147 0.0
C2433 C 0.65315 0.24405 0.60081 0.0
C2434 C 0.87662 0.23757 0.60162 0.0
C2435 C 0.90475 0.2514 0.59333 0.0
C2436 C 0.82263 0.23583 0.60082 0.0
C2437 C 0.79524 0.24786 0.5917 0.0
C2438 C 0.82341 0.26148 0.58332 0.0
C2439 C 0.87744 0.26322 0.58412 0.0
H2440 H 0.68762 0.28288 0.71745 0.0
H2441 H 0.66408 0.20716 0.71596 0.0
H2442 H 0.59408 0.289 0.71608 0.0
H2443 H 0.57105 0.21324 0.71458 0.0
H2444 H 0.40292 0.2303 0.72244 0.0
H2445 H 0.49591 0.22602 0.72562 0.0
H2446 H 0.52395 0.28527 0.7018 0.0
H2447 H 0.43096 0.29022 0.69905 0.0
C2448 C 0.66258 0.26754 0.71681 0.0
C2449 C 0.68358 0.24452 0.71687 0.0
C2450 C 0.60888 0.27104 0.71601 0.0
C2451 C 0.57479 0.25162 0.71523 0.0
C2452 C 0.59585 0.22863 0.7154 0.0
C2453 C 0.6494 0.22514 0.7162 0.0
C2454 C 0.42882 0.24266 0.71802 0.0
C2455 C 0.40921 0.26055 0.71044 0.0
C2456 C 0.48229 0.24002 0.71973 0.0
C2457 C 0.51768 0.2552 0.71392 0.0
C2458 C 0.49801 0.27337 0.70652 0.0
C2459 C 0.44456 0.27601 0.70481 0.0
H2460 H 0.89361 0.00723 0.69158 0.0
H2461 H 0.88841 0.95878 0.72175 0.0
H2462 H 0.7997 0.0116 0.69251 0.0
H2463 H 0.79454 0.96372 0.72292 0.0
H2464 H 0.62185 0.95828 0.71214 0.0
H2465 H 0.71594 0.95361 0.71157 0.0
H2466 H 0.73293 0.02876 0.70536 0.0
H2467 H 0.63925 0.03346 0.706 0.0
C2468 C 0.87245 -0.00247 0.69843 0.0
C2469 C 0.89864 0.98265 0.70658 0.0
C2470 C 0.81861 0.00021 0.69904 0.0
C2471 C 0.78948 0.98801 0.7078 0.0
C2472 C 0.81567 0.97319 0.71599 0.0
C2473 C 0.86959 0.97059 0.71541 0.0
C2474 C 0.64567 0.97383 0.71075 0.0
C2475 C 0.62278 -0.00378 0.70903 0.0
C2476 C 0.69965 0.97116 0.71043 0.0
C2477 C 0.73206 0.9908 0.70836 0.0
C2478 C 0.70916 0.01318 0.70674 0.0
C2479 C 0.65533 0.01586 0.70709 0.0
H2480 H 0.64168 0.00731 0.43874 0.0
H2481 H 0.65207 -0.00714 0.47697 0.0
H2482 H 0.54779 0.0029 0.43968 0.0
H2483 H 0.55795 0.98922 0.47799 0.0
H2484 H 0.39534 0.95804 0.47204 0.0
H2485 H 0.48904 0.96266 0.47132 0.0
H2486 H 0.47153 0.02322 0.44782 0.0
H2487 H 0.37751 0.01873 0.4486 0.0
C2488 C 0.62397 0.00307 0.44734 0.0
C2489 C 0.6545 0.00034 0.45777 0.0
C2490 C 0.57005 0.00086 0.44791 0.0
C2491 C 0.54527 -0.00422 0.45892 0.0
C2492 C 0.5758 -0.00707 0.46934 0.0
C2493 C 0.62973 -0.00477 0.46878 0.0
C2494 C 0.41132 0.97257 0.46685 0.0
C2495 C 0.3787 0.98806 0.46041 0.0
C2496 C 0.46515 0.97518 0.46642 0.0
C2497 C 0.48787 -0.0067 0.45951 0.0
C2498 C 0.45533 0.00886 0.45309 0.0
C2499 C 0.40141 0.00629 0.45355 0.0
H2500 H 0.41683 0.76955 0.47584 0.0
H2501 H 0.43632 0.71416 0.44927 0.0
H2502 H 0.32319 0.76504 0.47461 0.0
H2503 H 0.3424 0.70977 0.44799 0.0
H2504 H 0.17243 0.72683 0.43945 0.0
H2505 H 0.26619 0.73128 0.44084 0.0
H2506 H 0.25416 0.73729 0.47963 0.0
H2507 H 0.16016 0.73365 0.47821 0.0
C2508 C 0.40123 0.75619 0.46984 0.0
C2509 C 0.43431 0.74216 0.46269 0.0
C2510 C 0.34742 0.75364 0.46912 0.0
C2511 C 0.32519 0.73704 0.4612 0.0
C2512 C 0.3582 0.72297 0.45406 0.0
C2513 C 0.41208 0.72549 0.4548 0.0
C2514 C 0.18969 0.72939 0.44827 0.0
C2515 C 0.15864 0.72997 0.45872 0.0
C2516 C 0.24356 0.73163 0.44908 0.0
C2517 C 0.2678 0.73457 0.46035 0.0
C2518 C 0.23676 0.73526 0.4708 0.0
C2519 C 0.18288 0.73295 0.46999 0.0
H2520 H 0.37706 0.74811 0.35911 0.0
H2521 H 0.38237 0.72907 0.32135 0.0
H2522 H 0.47084 0.74339 0.36043 0.0
H2523 H 0.47633 0.72514 0.32256 0.0
H2524 H 0.63849 0.69757 0.33238 0.0
H2525 H 0.54439 0.70067 0.33113 0.0
H2526 H 0.54875 0.76337 0.35349 0.0
H2527 H 0.64283 0.76026 0.35474 0.0
C2528 C 0.39816 0.74273 0.35111 0.0
C2529 C 0.37211 0.73899 0.34012 0.0
C2530 C 0.45205 0.74032 0.35182 0.0
C2531 C 0.48128 0.73405 0.34158 0.0
C2532 C 0.45509 0.72984 0.33065 0.0
C2533 C 0.40122 0.73231 0.32992 0.0
C2534 C 0.61946 0.71219 0.33691 0.0
C2535 C 0.64833 0.72867 0.34366 0.0
C2536 C 0.56543 0.71394 0.33622 0.0
C2537 C 0.53887 0.73222 0.34225 0.0
C2538 C 0.56779 0.74881 0.34892 0.0
C2539 C 0.6218 0.74706 0.34961 0.0
H2540 H 0.15751 0.98463 0.32297 0.0
H2541 H 0.1754 0.01975 0.35739 0.0
H2542 H 0.25146 0.98109 0.32127 0.0
H2543 H 0.2691 0.01538 0.35591 0.0
H2544 H 0.43715 0.02512 0.34347 0.0
H2545 H 0.34327 0.03008 0.34462 0.0
H2546 H 0.32244 0.9594 0.33045 0.0
H2547 H 0.41595 0.95443 0.32934 0.0
C2548 C 0.18144 -0.00839 0.33017 0.0
C2549 C 0.15879 0.00241 0.34033 0.0
C2550 C 0.23531 0.98937 0.32926 0.0
C2551 C 0.26791 -0.00209 0.33847 0.0
C2552 C 0.24525 0.00882 0.34859 0.0
C2553 C 0.19142 0.01103 0.34952 0.0
C2554 C 0.41253 0.0106 0.34066 0.0
C2555 C 0.43423 0.98942 0.33627 0.0
C2556 C 0.35869 0.01344 0.34132 0.0
C2557 C 0.32523 -0.00485 0.3376 0.0
C2558 C 0.34697 0.97401 0.33319 0.0
C2559 C 0.4007 0.97117 0.33254 0.0
H2560 H 0.16462 0.53003 0.58485 0.0
H2561 H 0.18539 0.45563 0.59269 0.0
H2562 H 0.07111 0.52512 0.58593 0.0
H2563 H 0.0915 0.45072 0.5938 0.0
H2564 H 0.92478 0.45709 0.60794 0.0
H2565 H 1.01842 0.46159 0.60645 0.0
H2566 H 0.99878 0.5072 0.57545 0.0
H2567 H 0.90493 0.50347 0.57725 0.0
C2568 C 0.14926 0.51253 0.58664 0.0
C2569 C 0.18271 0.4932 0.58862 0.0
C2570 C 0.09551 0.50972 0.58728 0.0
C2571 C 0.07363 0.48752 0.58994 0.0
C2572 C 0.10701 0.46815 0.5919 0.0
C2573 C 0.16087 0.47096 0.59125 0.0
C2574 C 0.94034 0.46831 0.60089 0.0
C2575 C 0.90714 0.48003 0.59276 0.0
C2576 C 0.99415 0.47062 0.59993 0.0
C2577 C 1.01627 0.48472 0.59081 0.0
C2578 C 0.98311 0.49639 0.58266 0.0
C2579 C 0.92926 0.49406 0.58361 0.0
H2580 H 0.38961 0.76271 0.61041 0.0
H2581 H 0.40358 0.74066 0.57318 0.0
H2582 H 0.29578 0.75855 0.60916 0.0
H2583 H 0.30948 0.73728 0.57182 0.0
H2584 H 0.14571 0.70776 0.57865 0.0
H2585 H 0.23939 0.71239 0.57947 0.0
H2586 H 0.22078 0.77736 0.59964 0.0
H2587 H 0.12681 0.77285 0.59874 0.0
C2588 C 0.3727 0.75687 0.60196 0.0
C2589 C 0.40423 0.75191 0.59191 0.0
C2590 C 0.31881 0.75479 0.60121 0.0
C2591 C 0.29504 0.74765 0.59038 0.0
C2592 C 0.32654 0.74263 0.58033 0.0
C2593 C 0.38046 0.74477 0.58107 0.0
C2594 C 0.16145 0.72325 0.58311 0.0
C2595 C 0.12853 0.73997 0.5886 0.0
C2596 C 0.21527 0.72587 0.58359 0.0
C2597 C 0.23766 0.74523 0.58963 0.0
C2598 C 0.20483 0.76205 0.59506 0.0
C2599 C 0.15093 0.75946 0.59455 0.0
H2600 H 0.91482 0.77746 0.72549 0.0
H2601 H 0.91521 0.72829 0.69559 0.0
H2602 H 1.00891 0.77432 0.72687 0.0
H2603 H 1.00922 0.72517 0.69697 0.0
H2604 H 0.18021 0.74417 0.69431 0.0
H2605 H 0.08638 0.74875 0.69327 0.0
H2606 H 0.07788 0.74682 0.73222 0.0
H2607 H 0.17197 0.74303 0.73327 0.0
C2608 C 0.93486 0.76574 0.71931 0.0
C2609 C 0.90732 0.75316 0.71041 0.0
C2610 C 0.98889 0.76398 0.72009 0.0
C2611 C 1.01678 0.74961 0.71198 0.0
C2612 C 0.98915 0.73678 0.7032 0.0
C2613 C 0.93517 0.73853 0.70243 0.0
C2614 C 0.15846 0.74511 0.70266 0.0
C2615 C 0.18373 0.74323 0.71387 0.0
C2616 C 0.10452 0.74742 0.70206 0.0
C2617 C 0.07442 0.74796 0.71266 0.0
C2618 C 0.0998 0.7466 0.72388 0.0
C2619 C 0.15374 0.74422 0.72448 0.0
H2620 H 0.14359 0.49294 0.73183 0.0
H2621 H 0.13143 0.48883 0.69298 0.0
H2622 H 0.23744 0.48896 0.73034 0.0
H2623 H 0.22511 0.48396 0.69152 0.0
H2624 H 0.3971 0.504 0.69248 0.0
H2625 H 0.30314 0.50709 0.6941 0.0
H2626 H 0.30594 0.46144 0.72541 0.0
H2627 H 0.39994 0.4584 0.7238 0.0
C2628 C 0.16088 0.49107 0.72296 0.0
C2629 C 0.12979 0.49131 0.71252 0.0
C2630 C 0.21475 0.48855 0.72212 0.0
C2631 C 0.23908 0.48625 0.7108 0.0
C2632 C 0.20788 0.48603 0.70037 0.0
C2633 C 0.15399 0.4885 0.70122 0.0
C2634 C 0.37768 0.49451 0.69967 0.0
C2635 C 0.40627 0.48096 0.70801 0.0
C2636 C 0.32369 0.49623 0.70059 0.0
C2637 C 0.29672 0.48443 0.70986 0.0
C2638 C 0.32536 0.47102 0.71825 0.0
C2639 C 0.37937 0.46932 0.71734 0.0
H2640 H 0.87335 0.49456 0.44431 0.0
H2641 H 0.8836 0.49425 0.48324 0.0
H2642 H 0.96708 0.49921 0.44297 0.0
H2643 H 0.97759 0.49808 0.4819 0.0
H2644 H 0.14061 0.52804 0.47462 0.0
H2645 H 0.04651 0.52526 0.47624 0.0
H2646 H 0.04431 0.47566 0.44653 0.0
H2647 H 0.13828 0.47842 0.44492 0.0
C2648 C 0.89551 0.49571 0.45259 0.0
C2649 C 0.87082 0.494 0.46388 0.0
C2650 C 0.9494 0.49805 0.45182 0.0
C2651 C 0.98006 0.49882 0.46232 0.0
C2652 C 0.95525 0.49769 0.47362 0.0
C2653 C 0.90135 0.49528 0.47439 0.0
C2654 C 0.12013 0.51631 0.46853 0.0
C2655 C 0.14714 0.50349 0.45962 0.0
C2656 C 0.06611 0.51476 0.46944 0.0
C2657 C 0.03768 0.50035 0.46147 0.0
C2658 C 0.06477 0.48731 0.45267 0.0
C2659 C 0.11874 0.48885 0.45176 0.0
H2660 H 0.91841 0.27512 0.47159 0.0
H2661 H 0.94023 0.20329 0.45906 0.0
H2662 H 0.82499 0.27029 0.47012 0.0
H2663 H 0.84642 0.19845 0.45759 0.0
H2664 H 0.68 0.20808 0.44371 0.0
H2665 H 0.77355 0.21213 0.44567 0.0
H2666 H 0.75264 0.24986 0.47927 0.0
H2667 H 0.65888 0.24669 0.47705 0.0
C2668 C 0.90329 0.25816 0.46867 0.0
C2669 C 0.93698 0.23956 0.46549 0.0
C2670 C 0.8496 0.2554 0.46783 0.0
C2671 C 0.82804 0.23397 0.46376 0.0
C2672 C 0.86168 0.21531 0.4606 0.0
C2673 C 0.91549 0.21808 0.46145 0.0
C2674 C 0.69527 0.21748 0.45145 0.0
C2675 C 0.66174 0.2272 0.46018 0.0
C2676 C 0.74903 0.21951 0.45266 0.0
C2677 C 0.77076 0.2313 0.46263 0.0
C2678 C 0.73727 0.24088 0.47141 0.0
C2679 C 0.68346 0.23885 0.4702 0.0
H2680 H 0.14076 0.22637 0.36121 0.0
H2681 H 0.14997 0.23526 0.32252 0.0
H2682 H 0.04678 0.23038 0.36025 0.0
H2683 H 0.05572 0.23856 0.32152 0.0
H2684 H 0.89232 0.27018 0.32694 0.0
H2685 H 0.98618 0.26587 0.32744 0.0
H2686 H 0.97121 0.20828 0.35288 0.0
H2687 H 0.87713 0.21241 0.35231 0.0
C2688 C 0.12276 0.22932 0.3525 0.0
C2689 C 0.15294 0.23058 0.34194 0.0
C2690 C 0.06881 0.23131 0.35194 0.0
C2691 C 0.04369 0.23468 0.3408 0.0
C2692 C 0.07388 0.23614 0.33025 0.0
C2693 C 0.12785 0.23405 0.33081 0.0
C2694 C 0.90889 0.25633 0.3325 0.0
C2695 C 0.87699 0.24162 0.33958 0.0
C2696 C 0.96279 0.25391 0.3328 0.0
C2697 C 0.98624 0.23679 0.34023 0.0
C2698 C 0.95442 0.22191 0.34721 0.0
C2699 C 0.90046 0.22427 0.34688 0.0
H2700 H 0.9235 0.49658 0.31924 0.0
H2701 H 0.93247 0.49163 0.35811 0.0
H2702 H 0.82949 0.50037 0.32055 0.0
H2703 H 0.8387 0.49624 0.35944 0.0
H2704 H 0.66736 0.47622 0.35644 0.0
H2705 H 0.76137 0.47341 0.35492 0.0
H2706 H 0.76071 0.52694 0.32703 0.0
H2707 H 0.6666 0.52975 0.32857 0.0
C2708 C 0.90545 0.49643 0.32807 0.0
C2709 C 0.93562 0.49371 0.33856 0.0
C2710 C 0.85155 0.49882 0.32883 0.0
C2711 C 0.82638 0.49848 0.3401 0.0
C2712 C 0.85667 0.49624 0.3506 0.0
C2713 C 0.91058 0.49392 0.34985 0.0
C2714 C 0.68725 0.48749 0.35003 0.0
C2715 C 0.65929 0.50324 0.34264 0.0
C2716 C 0.74124 0.48592 0.34917 0.0
C2717 C 0.76876 0.50005 0.3409 0.0
C2718 C 0.74077 0.51559 0.33341 0.0
C2719 C 0.68674 0.51717 0.33427 0.0
H2720 H 0.91983 0.94519 0.08547 0.0
H2721 H 0.90836 0.01648 0.09944 0.0
H2722 H 1.01373 0.94906 0.08443 0.0
H2723 H 1.00244 0.02034 0.09841 0.0
H2724 H 0.17486 0.01022 0.10658 0.0
H2725 H 0.08108 0.00545 0.10789 0.0
H2726 H 0.08102 0.9698 0.07337 0.0
H2727 H 0.17498 0.97389 0.07224 0.0
C2728 C 0.93725 0.96181 0.08819 0.0
C2729 C 0.90636 0.98055 0.09251 0.0
C2730 C 0.9912 0.96401 0.08761 0.0
C2731 C 1.01579 0.98501 0.09134 0.0
C2732 C 0.98493 0.00377 0.09564 0.0
C2733 C 0.93092 0.00158 0.09622 0.0
C2734 C 0.15495 0.00107 0.09934 0.0
C2735 C 0.18256 -0.00758 0.08931 0.0
C2736 C 0.10104 -0.0014 0.10002 0.0
C2737 C 0.07334 0.98733 0.09071 0.0
C2738 C 0.10106 0.9784 0.08075 0.0
C2739 C 0.15493 0.98095 0.08005 0.0
H2740 H 0.12883 0.27115 0.0866 0.0
H2741 H 0.14277 0.20041 0.10116 0.0
H2742 H 0.22293 0.27537 0.08714 0.0
H2743 H 0.2366 0.20468 0.10175 0.0
H2744 H 0.3981 0.23051 0.11303 0.0
H2745 H 0.30409 0.22628 0.11239 0.0
H2746 H 0.30113 0.26014 0.07741 0.0
H2747 H 0.39499 0.26506 0.07823 0.0
C2748 C 0.15191 0.25645 0.08985 0.0
C2749 C 0.12803 0.23548 0.09388 0.0
C2750 C 0.20591 0.25885 0.09015 0.0
C2751 C 0.23743 0.24037 0.0945 0.0
C2752 C 0.21354 0.21942 0.09853 0.0
C2753 C 0.15962 0.217 0.09821 0.0
C2754 C 0.37738 0.23715 0.10523 0.0
C2755 C 0.40419 0.24814 0.09569 0.0
C2756 C 0.32349 0.23453 0.10481 0.0
C2757 C 0.29494 0.24289 0.09486 0.0
C2758 C 0.32178 0.25373 0.08528 0.0
C2759 C 0.37571 0.25628 0.08568 0.0
H2760 H 0.91832 0.23724 0.18814 0.0
H2761 H 0.91107 0.25674 0.22582 0.0
H2762 H 1.01212 0.23342 0.18961 0.0
H2763 H 1.00474 0.25196 0.22743 0.0
H2764 H 0.17792 0.26762 0.2224 0.0
H2765 H 0.08386 0.27106 0.22104 0.0
H2766 H 0.07937 0.20913 0.19812 0.0
H2767 H 0.17332 0.2058 0.19944 0.0
C2768 C 0.93669 0.24064 0.19676 0.0
C2769 C 0.90698 0.2474 0.20685 0.0
C2770 C 0.99053 0.23819 0.19764 0.0
C2771 C 1.01622 0.24243 0.20863 0.0
C2772 C 0.98644 0.24886 0.21877 0.0
C2773 C 0.93255 0.25128 0.21789 0.0
C2774 C 0.15683 0.25467 0.21712 0.0
C2775 C 0.18332 0.23648 0.211 0.0
C2776 C 0.10282 0.2566 0.21636 0.0
C2777 C 0.07382 0.24036 0.20948 0.0
C2778 C 0.10038 0.22219 0.20335 0.0
C2779 C 0.15436 0.22029 0.20409 0.0
H2780 H 0.39501 0.97064 0.22267 0.0
H2781 H 0.39305 -0.001 0.18645 0.0
H2782 H 0.30119 0.97538 0.22391 0.0
H2783 H 0.2991 0.00293 0.18752 0.0
H2784 H 0.13786 0.02944 0.1983 0.0
H2785 H 0.23179 0.02571 0.19734 0.0
H2786 H 0.22255 0.95822 0.21561 0.0
H2787 H 0.12842 0.96196 0.21658 0.0
C2788 C 0.37464 0.97804 0.215 0.0
C2789 C 0.40168 0.98445 0.20446 0.0
C2790 C 0.32071 0.98046 0.21565 0.0
C2791 C 0.29243 0.98943 0.20579 0.0
C2792 C 0.31959 -0.00386 0.19532 0.0
C2793 C 0.37347 -0.00633 0.19466 0.0
C2794 C 0.15574 0.01365 0.20199 0.0
C2795 C 0.12543 -0.00404 0.20748 0.0
C2796 C 0.20971 0.01154 0.20145 0.0
C2797 C 0.23488 -0.00833 0.2064 0.0
C2798 C 0.20458 0.97394 0.21188 0.0
C2799 C 0.15056 0.97606 0.21242 0.0
H2800 H 0.89234 0.99073 0.98044 0.0
H2801 H 0.88476 -0.00803 0.94148 0.0
H2802 H 0.98638 -0.00527 0.97947 0.0
H2803 H 0.97857 -0.00324 0.94052 0.0
H2804 H 0.15043 0.97697 0.94302 0.0
H2805 H 0.05637 0.97363 0.94421 0.0
H2806 H 0.05487 0.02241 0.97426 0.0
H2807 H 0.14894 0.02577 0.97308 0.0
C2808 C 0.91069 -0.00803 0.97167 0.0
C2809 C 0.88088 0.99096 0.96104 0.0
C2810 C 0.96463 -0.00552 0.97111 0.0
C2811 C 0.99022 -0.00404 0.95992 0.0
C2812 C 0.96029 -0.00465 0.9493 0.0
C2813 C 0.90636 -0.00707 0.94985 0.0
C2814 C 0.13005 0.98709 0.94985 0.0
C2815 C 0.15742 0.00165 0.95795 0.0
C2816 C 0.07603 0.98522 0.95051 0.0
C2817 C 0.04787 -0.00217 0.9593 0.0
C2818 C 0.07528 0.0122 0.96748 0.0
C2819 C 0.12931 0.01409 0.96681 0.0
H2820 H 0.93615 0.70794 0.96177 0.0
H2821 H 0.91762 0.78397 0.96006 0.0
H2822 H 0.84206 0.70325 0.96159 0.0
H2823 H 0.82392 0.77926 0.95978 0.0
H2824 H 0.66189 0.76016 0.94587 0.0
H2825 H 0.75585 0.76461 0.94641 0.0
H2826 H 0.7652 0.71094 0.97414 0.0
H2827 H 0.6713 0.70598 0.97334 0.0
C2828 C 0.91209 0.72365 0.96143 0.0
C2829 C 0.93458 0.74632 0.96084 0.0
C2830 C 0.85814 0.72097 0.96133 0.0
C2831 C 0.82545 0.74088 0.96062 0.0
C2832 C 0.84795 0.76353 0.96012 0.0
C2833 C 0.90176 0.76621 0.96025 0.0
C2834 C 0.68401 0.74923 0.95204 0.0
C2835 C 0.65904 0.73271 0.95956 0.0
C2836 C 0.73784 0.75193 0.95243 0.0
C2837 C 0.76809 0.73812 0.96032 0.0
C2838 C 0.74312 0.72168 0.96788 0.0
C2839 C 0.68923 0.71906 0.96753 0.0
H2840 H 0.1483 0.73612 0.8236 0.0
H2841 H 0.13369 0.72347 0.86193 0.0
H2842 H 0.05425 0.73912 0.82193 0.0
H2843 H 0.03988 0.72732 0.86033 0.0
H2844 H 0.8711 0.71065 0.85076 0.0
H2845 H 0.96506 0.70638 0.85206 0.0
H2846 H 0.98412 0.76568 0.8278 0.0
H2847 H 0.89046 0.77006 0.82655 0.0
C2848 C 0.12505 0.73399 0.83167 0.0
C2849 C 0.14861 0.7296 0.8429 0.0
C2850 C 0.07115 0.73593 0.83073 0.0
C2851 C 0.03949 0.73345 0.841 0.0
C2852 C 0.06305 0.72906 0.85223 0.0
C2853 C 0.11692 0.72717 0.85316 0.0
C2854 C 0.89533 0.72285 0.84575 0.0
C2855 C 0.8731 0.74066 0.83853 0.0
C2856 C 0.94921 0.72041 0.8465 0.0
C2857 C 0.98215 0.7357 0.84004 0.0
C2858 C 0.95991 0.75337 0.83275 0.0
C2859 C 0.90612 0.75584 0.83202 0.0
H2860 H 0.65115 0.97915 0.82584 0.0
H2861 H 0.67149 0.0258 0.85641 0.0
H2862 H 0.74496 0.97524 0.82401 0.0
H2863 H 0.7651 0.02113 0.85488 0.0
H2864 H 0.93227 0.02644 0.8412 0.0
H2865 H 0.83844 0.03162 0.84228 0.0
H2866 H 0.81733 0.95727 0.83445 0.0
H2867 H 0.91079 0.95208 0.83341 0.0
C2868 C 0.67556 0.9886 0.83217 0.0
C2869 C 0.65355 0.00274 0.84129 0.0
C2870 C 0.72943 0.98615 0.8312 0.0
C2871 C 0.76276 -0.00218 0.83931 0.0
C2872 C 0.74075 0.01207 0.84839 0.0
C2873 C 0.68692 0.01449 0.84937 0.0
C2874 C 0.90763 0.01118 0.83977 0.0
C2875 C 0.9293 0.98887 0.83717 0.0
C2876 C 0.85376 0.01414 0.84039 0.0
C2877 C 0.82015 -0.00513 0.83843 0.0
C2878 C 0.84187 0.9726 0.83579 0.0
C2879 C 0.89562 0.96964 0.83518 0.0
H2880 H 1.00403 0.51333 0.05954 0.0
H2881 H 0.09291 0.45019 0.0522 0.0
H2882 H 0.99235 0.51953 0.03786 0.0
H2883 H 0.0844 0.45699 0.03067 0.0
H2884 H 1.02311 0.4623 0.99237 0.0
H2885 H 0.03173 0.45559 1.01401 0.0
H2886 H 0.03177 0.53135 1.02004 0.0
H2887 H 1.02006 0.53776 0.99844 0.0
C2888 C 1.02112 0.50081 0.05329 0.0
C2889 C 0.04912 0.48123 0.0576 0.0
C2890 C 1.01503 0.50447 0.04081 0.0
C2891 C 0.03754 0.48883 0.03233 0.0
C2892 C 0.06548 0.46923 0.03677 0.0
C2893 C 0.07075 0.46539 0.04919 0.0
C2894 C 1.02536 0.47748 0.99834 0.0
C2895 C 1.02091 0.50055 0.99371 0.0
C2896 C 0.0305 0.47369 1.0108 0.0
C2897 C 0.03233 0.4929 1.01896 0.0
C2898 C 1.0293 0.51602 1.01419 0.0
C2899 C 1.02324 0.51976 1.00176 0.0
H2900 H 0.28847 0.77066 0.99333 0.0
H2901 H 0.292 0.69513 0.99918 0.0
H2902 H 0.27873 0.7771 1.01497 0.0
H2903 H 0.27914 0.70127 1.02076 0.0
H2904 H 0.30447 0.719 0.0604 0.0
H2905 H 0.31755 0.71303 0.03873 0.0
H2906 H 0.22479 0.77528 0.0314 0.0
H2907 H 0.21495 0.78188 0.0529 0.0
C2908 C 0.2861 0.75541 0.99925 0.0
C2909 C 0.29099 0.7324 0.99457 0.0
C2910 C 0.28032 0.75904 1.0117 0.0
C2911 C 0.27824 0.73972 1.0198 0.0
C2912 C 0.28176 0.71667 1.01497 0.0
C2913 C 0.28849 0.71309 1.00255 0.0
C2914 C 0.28754 0.7315 0.05411 0.0
C2915 C 0.25896 0.75096 0.05837 0.0
C2916 C 0.29444 0.72797 0.04165 0.0
C2917 C 0.27217 0.74362 0.03314 0.0
C2918 C 0.24358 0.76305 0.03753 0.0
C2919 C 0.23753 0.76677 0.04993 0.0
H2920 H 0.05518 0.76165 0.31018 0.0
H2921 H 0.96426 0.69913 0.30295 0.0
H2922 H 0.06715 0.7676 0.2885 0.0
H2923 H 0.97312 0.70571 0.2814 0.0
H2924 H 0.0345 0.71091 0.24299 0.0
H2925 H 1.02558 0.70404 0.26464 0.0
H2926 H 1.02732 0.77976 0.27082 0.0
H2927 H 0.03929 0.78628 0.24925 0.0
C2928 C 0.03771 0.74921 0.30395 0.0
C2929 C 1.00898 0.7299 0.30829 0.0
C2930 C 0.04396 0.75274 0.29147 0.0
C2931 C 1.02089 0.73724 0.28302 0.0
C2932 C 0.99239 0.71785 0.28748 0.0
C2933 C 0.98694 0.71414 0.29991 0.0
C2934 C 0.03256 0.72603 0.249 0.0
C2935 C 0.03764 0.74912 0.24444 0.0
C2936 C 1.02728 0.72216 0.26146 0.0
C2937 C 1.02598 0.74132 0.26966 0.0
C2938 C 1.02947 0.76446 0.26495 0.0
C2939 C 0.03567 0.76827 0.25253 0.0
H2940 H 0.2689 0.44444 0.24849 0.0
H2941 H 0.27266 0.51995 0.24263 0.0
H2942 H 0.28047 0.45062 0.27012 0.0
H2943 H 0.28115 0.52643 0.26428 0.0
H2944 H 0.34298 0.5314 0.30235 0.0
H2945 H 0.33422 0.52467 0.28084 0.0
H2946 H 0.24131 0.46246 0.28802 0.0
H2947 H 0.25322 0.46858 0.30972 0.0
C2948 C 0.2722 0.4624 0.25186 0.0
C2949 C 0.27015 0.48169 0.24386 0.0
C2950 C 0.27818 0.466 0.26431 0.0
C2951 C 0.28144 0.48907 0.26913 0.0
C2952 C 0.27977 0.50836 0.26102 0.0
C2953 C 0.27471 0.5047 0.24855 0.0
C2954 C 0.32057 0.51628 0.29935 0.0
C2955 C 0.29877 0.50052 0.30777 0.0
C2956 C 0.31514 0.51249 0.28694 0.0
C2957 C 0.28685 0.49302 0.2825 0.0
C2958 C 0.26421 0.47743 0.29098 0.0
C2959 C 0.27045 0.48104 0.30346 0.0
H2960 H 0.84812 0.20178 1.00071 0.0
H2961 H 0.75589 0.26385 0.99325 0.0
H2962 H 0.83888 0.20853 1.02221 0.0
H2963 H 0.74355 0.26997 1.01494 0.0
H2964 H 0.76988 0.28814 0.05455 0.0
H2965 H 0.78205 0.28212 0.03291 0.0
H2966 H 0.78517 0.2063 0.03867 0.0
H2967 H 0.77604 0.21262 0.06031 0.0
C2968 C 0.82508 0.21673 1.00369 0.0
C2969 C 0.80268 0.23227 0.99526 0.0
C2970 C 0.81939 0.22054 1.0161 0.0
C2971 C 0.79022 0.23978 1.0205 0.0
C2972 C 0.76707 0.25517 1.012 0.0
C2973 C 0.77357 0.25156 0.99953 0.0
C2974 C 0.77383 0.27022 0.05115 0.0
C2975 C 0.77228 0.25087 0.05913 0.0
C2976 C 0.78018 0.2667 0.0387 0.0
C2977 C 0.78435 0.24367 0.03386 0.0
C2978 C 0.78312 0.22434 0.04195 0.0
C2979 C 0.77767 0.22791 0.05441 0.0
H2980 H 0.97819 0.19636 0.80264 0.0
H2981 H 0.03757 0.26619 0.81038 0.0
H2982 H 0.99442 0.20248 0.78114 0.0
H2983 H 0.05293 0.2726 0.78885 0.0
H2984 H 0.12858 0.26527 0.75182 0.0
H2985 H 0.10912 0.25948 0.77304 0.0
H2986 H 0.966 0.22455 0.76344 0.0
H2987 H 0.98654 0.23002 0.74195 0.0
C2988 C 0.99471 0.21305 0.79973 0.0
C2989 C 1.00679 0.23077 0.80821 0.0
C2990 C 1.00354 0.21665 0.78738 0.0
C2991 C 1.02483 0.23806 0.78319 0.0
C2992 C 0.03705 0.25576 0.79172 0.0
C2993 C 1.0282 0.25214 0.80408 0.0
C2994 C 0.09278 0.2564 0.7542 0.0
C2995 C 0.05898 0.24813 0.74518 0.0
C2996 C 0.08144 0.25323 0.76642 0.0
C2997 C 0.03582 0.24167 0.77004 0.0
C2998 C 1.00174 0.23338 0.761 0.0
C2999 C 1.01321 0.23661 0.74868 0.0
H3000 H 0.79376 0.53794 0.8032 0.0
H3001 H 0.78758 0.46241 0.80888 0.0
H3002 H 0.78388 0.53199 0.7815 0.0
H3003 H 0.781 0.45613 0.78719 0.0
H3004 H 0.72244 0.45153 0.74886 0.0
H3005 H 0.72986 0.45804 0.7704 0.0
H3006 H 0.82328 0.5203 0.76369 0.0
H3007 H 0.81253 0.51444 0.74195 0.0
C3008 C 0.79034 0.52002 0.79977 0.0
C3009 C 0.79112 0.50066 0.80774 0.0
C3010 C 0.78534 0.51654 0.78728 0.0
C3011 C 0.78191 0.49353 0.78239 0.0
C3012 C 0.78247 0.47417 0.79048 0.0
C3013 C 0.78646 0.47771 0.80298 0.0
C3014 C 0.74468 0.46661 0.75197 0.0
C3015 C 0.76691 0.48248 0.74367 0.0
C3016 C 0.74934 0.47028 0.76441 0.0
C3017 C 0.77737 0.4897 0.76899 0.0
C3018 C 0.80052 0.50537 0.76062 0.0
C3019 C 0.79496 0.50191 0.74812 0.0
H3020 H 0.09529 0.94899 0.55076 0.0
H3021 H 1.00511 0.01189 0.55776 0.0
H3022 H 0.08699 0.95543 0.52918 0.0
H3023 H 0.99375 0.01773 0.53605 0.0
H3024 H 1.02226 0.03588 0.49674 0.0
H3025 H 0.03389 0.02957 0.51834 0.0
H3026 H 0.03476 0.95378 0.51239 0.0
H3027 H 1.02617 0.96041 0.49073 0.0
C3028 C 0.0729 0.96405 0.54766 0.0
C3029 C 0.05091 0.97996 0.55598 0.0
C3030 C 0.06778 0.96769 0.53522 0.0
C3031 C 0.03966 0.98715 0.53068 0.0
C3032 C 1.01666 0.0028 0.53908 0.0
C3033 C 1.02258 -0.00065 0.55157 0.0
C3034 C 1.02561 0.0179 0.50008 0.0
C3035 C 1.02349 -0.00134 0.49205 0.0
C3036 C 0.03162 0.01421 0.51251 0.0
C3037 C 0.03479 0.99111 0.5173 0.0
C3038 C 0.03332 0.97187 0.50916 0.0
C3039 C 1.02821 0.97561 0.49669 0.0
H3040 H 0.25624 0.2623 0.49324 0.0
H3041 H 0.34903 0.20038 0.50065 0.0
H3042 H 0.24387 0.26834 0.51493 0.0
H3043 H 0.33981 0.20707 0.52217 0.0
H3044 H 0.27734 0.21138 0.56038 0.0
H3045 H 0.28664 0.20486 0.53874 0.0
H3046 H 0.28238 0.28062 0.53279 0.0
H3047 H 0.27001 0.2868 0.55439 0.0
C3048 C 0.27405 0.25002 0.49951 0.0
C3049 C 0.30333 0.23081 0.49522 0.0
C3050 C 0.26755 0.2536 0.51198 0.0
C3051 C 0.2909 0.23825 0.52047 0.0
C3052 C 0.32019 0.21906 0.51606 0.0
C3053 C 0.32588 0.21529 0.50364 0.0
C3054 C 0.27877 0.2266 0.55443 0.0
C3055 C 0.27295 0.24959 0.55907 0.0
C3056 C 0.2843 0.22293 0.54197 0.0
C3057 C 0.28517 0.24219 0.53383 0.0
C3058 C 0.28071 0.26525 0.53862 0.0
C3059 C 0.27426 0.26886 0.55105 0.0
H3060 H 0.28479 0.96159 0.80811 0.0
H3061 H 0.28745 0.03709 0.80219 0.0
H3062 H 0.27731 0.95502 0.78643 0.0
H3063 H 0.2768 0.03083 0.78056 0.0
H3064 H 0.30544 0.01342 0.74105 0.0
H3065 H 0.31665 0.01933 0.76277 0.0
H3066 H 0.22568 0.95638 0.76964 0.0
H3067 H 0.21764 0.94989 0.74808 0.0
C3068 C 0.28269 0.97681 0.80216 0.0
C3069 C 0.28669 -0.00016 0.80685 0.0
C3070 C 0.27821 0.9731 0.78968 0.0
C3071 C 0.27657 -0.00763 0.78154 0.0
C3072 C 0.27916 0.01545 0.78637 0.0
C3073 C 0.2846 0.01911 0.79883 0.0
C3074 C 0.28845 0.00076 0.74725 0.0
C3075 C 0.26083 0.98117 0.74283 0.0
C3076 C 0.2943 0.00425 0.75974 0.0
C3077 C 0.27191 0.98842 0.76815 0.0
C3078 C 0.24449 0.96878 0.76361 0.0
C3079 C 0.23949 0.96511 0.75117 0.0
H3080 H 0.75381 0.7621 0.49239 0.0
H3081 H 0.84319 0.69894 0.49936 0.0
H3082 H 0.74267 0.76797 0.51411 0.0
H3083 H 0.83509 0.70541 0.52093 0.0
H3084 H 0.77443 0.7106 0.55941 0.0
H3085 H 0.78269 0.7039 0.53773 0.0
H3086 H 0.7836 0.77968 0.53176 0.0
H3087 H 0.77234 0.78608 0.55336 0.0
C3088 C 0.77114 0.74952 0.49857 0.0
C3089 C 0.7992 0.73005 0.49415 0.0
C3090 C 0.76534 0.75298 0.51106 0.0
C3091 C 0.78819 0.73725 0.51944 0.0
C3092 C 0.81602 0.71772 0.5149 0.0
C3093 C 0.82103 0.71408 0.50246 0.0
C3094 C 0.77683 0.72577 0.55344 0.0
C3095 C 0.7727 0.74885 0.55806 0.0
C3096 C 0.78172 0.72199 0.54097 0.0
C3097 C 0.78355 0.74123 0.53282 0.0
C3098 C 0.78102 0.76434 0.5376 0.0
C3099 C 0.77523 0.76807 0.55003 0.0
H3100 H 0.71814 0.94952 0.24731 0.0
H3101 H 0.80999 0.0117 0.23998 0.0
H3102 H 0.72755 0.95605 0.26885 0.0
H3103 H 0.82261 0.01758 0.26164 0.0
H3104 H 0.79672 0.03633 0.30097 0.0
H3105 H 0.78443 0.0299 0.2794 0.0
H3106 H 0.77952 0.95422 0.28559 0.0
H3107 H 0.78859 0.96102 0.30723 0.0
C3108 C 0.74117 0.96442 0.25032 0.0
C3109 C 0.76327 0.98012 0.24192 0.0
C3110 C 0.74695 0.96812 0.26275 0.0
C3111 C 0.77589 0.98741 0.26719 0.0
C3112 C 0.79905 0.00281 0.2587 0.0
C3113 C 0.79241 -0.00067 0.24624 0.0
C3114 C 0.79239 0.01835 0.29769 0.0
C3115 C 0.79343 -0.0008 0.30578 0.0
C3116 C 0.78598 0.01458 0.28527 0.0
C3117 C 0.7814 -0.00853 0.28055 0.0
C3118 C 0.782 0.97232 0.28876 0.0
C3119 C 0.78742 0.97616 0.30122 0.0
H3120 H 0.53542 0.52001 0.5595 0.0
H3121 H 0.54091 0.44453 0.55361 0.0
H3122 H 0.52631 0.52646 0.53786 0.0
H3123 H 0.52865 0.45065 0.532 0.0
H3124 H 0.55422 0.46856 0.49237 0.0
H3125 H 0.5668 0.46253 0.51405 0.0
H3126 H 0.47329 0.52457 0.52132 0.0
H3127 H 0.46396 0.53124 0.49983 0.0
C3128 C 0.53361 0.50476 0.55357 0.0
C3129 C 0.53886 0.48177 0.55825 0.0
C3130 C 0.52818 0.5084 0.54111 0.0
C3131 C 0.5268 0.4891 0.53299 0.0
C3132 C 0.53072 0.46605 0.53781 0.0
C3133 C 0.5371 0.46247 0.55025 0.0
C3134 C 0.53701 0.481 0.49864 0.0
C3135 C 0.50838 0.50042 0.49436 0.0
C3136 C 0.54363 0.47744 0.51111 0.0
C3137 C 0.52102 0.49301 0.51962 0.0
C3138 C 0.49237 0.51241 0.51521 0.0
C3139 C 0.48661 0.51616 0.5028 0.0
H3140 H 0.55521 0.76308 0.80982 0.0
H3141 H 0.46378 0.70079 0.80241 0.0
H3142 H 0.56787 0.76902 0.78814 0.0
H3143 H 0.47331 0.70737 0.78089 0.0
H3144 H 0.53591 0.71216 0.74264 0.0
H3145 H 0.52653 0.70545 0.76428 0.0
H3146 H 0.52879 0.7812 0.77035 0.0
H3147 H 0.54124 0.78757 0.74878 0.0
C3148 C 0.53776 0.7507 0.80355 0.0
C3149 C 0.50871 0.73144 0.80783 0.0
C3150 C 0.54443 0.75421 0.79108 0.0
C3151 C 0.52146 0.73876 0.78259 0.0
C3152 C 0.49255 0.71946 0.787 0.0
C3153 C 0.4867 0.71575 0.79942 0.0
C3154 C 0.534 0.72733 0.74862 0.0
C3155 C 0.53933 0.75038 0.74403 0.0
C3156 C 0.52845 0.72355 0.76107 0.0
C3157 C 0.52709 0.74276 0.76924 0.0
C3158 C 0.53093 0.76586 0.7645 0.0
C3159 C 0.53741 0.76958 0.75208 0.0
H3160 H 0.52267 0.1961 0.30381 0.0
H3161 H 0.52485 0.27153 0.31002 0.0
H3162 H 0.53426 0.20265 0.28224 0.0
H3163 H 0.53357 0.27838 0.28835 0.0
H3164 H 0.59396 0.28322 0.24982 0.0
H3165 H 0.58588 0.27688 0.27144 0.0
H3166 H 0.49276 0.21456 0.26469 0.0
H3167 H 0.50371 0.22033 0.24298 0.0
C3168 C 0.52568 0.21414 0.30052 0.0
C3169 C 0.52298 0.23329 0.3086 0.0
C3170 C 0.53166 0.21795 0.2881 0.0
C3171 C 0.53425 0.24109 0.28336 0.0
C3172 C 0.53245 0.26027 0.29155 0.0
C3173 C 0.52732 0.2564 0.30402 0.0
C3174 C 0.57164 0.26818 0.25296 0.0
C3175 C 0.54959 0.25223 0.24468 0.0
C3176 C 0.56667 0.2646 0.26542 0.0
C3177 C 0.53874 0.24513 0.26999 0.0
C3178 C 0.51558 0.22947 0.26163 0.0
C3179 C 0.52129 0.23288 0.24914 0.0
H3180 H 0.50195 0.01283 0.05803 0.0
H3181 H 0.59086 0.94936 0.05148 0.0
H3182 H 0.49251 0.01864 0.03626 0.0
H3183 H 0.58445 0.95575 0.02986 0.0
H3184 H 0.5271 0.96102 0.9911 0.0
H3185 H 0.5338 0.95439 1.01281 0.0
H3186 H 0.53433 0.03018 1.01873 0.0
H3187 H 0.52462 0.03651 0.99708 0.0
C3188 C 0.51955 0.00015 0.05193 0.0
C3189 C 0.54698 0.98062 0.05649 0.0
C3190 C 0.51473 0.00359 0.03941 0.0
C3191 C 0.53796 0.98777 0.03112 0.0
C3192 C 0.56512 0.96816 0.0358 0.0
C3193 C 0.56915 0.96454 0.04827 0.0
C3194 C 0.52909 0.97622 0.99706 0.0
C3195 C 0.52531 -0.00072 0.99239 0.0
C3196 C 0.53309 0.97247 1.00956 0.0
C3197 C 0.53435 -0.00828 1.01771 0.0
C3198 C 0.53218 0.01482 1.01289 0.0
C3199 C 0.52728 0.01852 1.00043 0.0
loop_
_geom_bond_atom_site_label_1
_geom_bond_atom_site_label_2
_geom_bond_distance
_geom_bond_site_symmetry_2
_ccdc_geom_bond_type
Tb0 C2 2.809 . S
Tb0 O20 2.484 . S
Tb0 O21 2.440 . S
Tb0 O22 2.658 1_655 S
Tb0 O23 2.409 . S
Tb0 O24 2.378 . S
Tb0 O28 2.325 1_655 S
Tb0 O31 2.341 1_655 S
Tb1 C11 2.809 . S
Tb1 O22 2.325 . S
Tb1 O25 2.341 . S
Tb1 O26 2.484 . S
Tb1 O27 2.440 . S
Tb1 O28 2.658 . S
Tb1 O29 2.409 . S
Tb1 O30 2.378 . S
C2 Tb0 2.809 . S
C2 C3 1.514 . S
C2 O20 1.248 . S
C2 O21 1.266 . S
C3 C2 1.514 . S
C3 C4 1.359 . S
C3 C8 1.348 . S
C4 C3 1.359 . S
C4 C5 1.380 . S
C4 H32 0.929 . S
C5 C4 1.380 . S
C5 C6 1.347 . S
C5 H33 0.931 . S
C6 C5 1.347 . S
C6 C7 1.369 . S
C7 C6 1.369 . S
C7 C8 1.408 . S
C7 H34 0.930 . S
C8 C3 1.348 . S
C8 C7 1.408 . S
C8 H35 0.930 . S
C9 O22 1.281 . S
C9 O23 1.254 1_455 S
C10 O24 1.236 . S
C10 O25 1.266 1_655 S
C11 Tb1 2.809 . S
C11 C12 1.514 . S
C11 O26 1.248 . S
C11 O27 1.266 . S
C12 C11 1.514 . S
C12 C13 1.359 . S
C12 C17 1.348 . S
C13 C12 1.359 . S
C13 C14 1.380 . S
C13 H36 0.929 . S
C14 C13 1.380 . S
C14 C15 1.347 . S
C14 H37 0.931 . S
C15 C14 1.347 . S
C15 C16 1.369 . S
C16 C15 1.369 . S
C16 C17 1.408 . S
C16 H38 0.930 . S
C17 C12 1.348 . S
C17 C16 1.408 . S
C17 H39 0.930 . S
C18 O28 1.281 . S
C18 O29 1.254 . S
C19 O30 1.236 . S
C19 O31 1.266 . S
O20 Tb0 2.484 . S
O20 C2 1.248 . S
O21 Tb0 2.440 . S
O21 C2 1.266 . S
O22 Tb0 2.658 1_455 S
O22 Tb1 2.325 . S
O22 C9 1.281 . S
O23 Tb0 2.409 . S
O23 C9 1.254 1_655 S
O24 Tb0 2.378 . S
O24 C10 1.236 . S
O25 Tb1 2.341 . S
O25 C10 1.266 1_455 S
O26 Tb1 2.484 . S
O26 C11 1.248 . S
O27 Tb1 2.440 . S
O27 C11 1.266 . S
O28 Tb0 2.325 1_455 S
O28 Tb1 2.658 . S
O28 C18 1.281 . S
O29 Tb1 2.409 . S
O29 C18 1.254 . S
O30 Tb1 2.378 . S
O30 C19 1.236 . S
O31 Tb0 2.341 1_455 S
O31 C19 1.266 . S
H32 C4 0.929 . S
H33 C5 0.931 . S
H34 C7 0.930 . S
H35 C8 0.930 . S
H36 C13 0.929 . S
H37 C14 0.931 . S
H38 C16 0.930 . S
H39 C17 0.930 . S
Tb40 C42 2.809 . S
Tb40 O60 2.484 . S
Tb40 O61 2.440 . S
Tb40 O62 2.658 . S
Tb40 O63 2.409 . S
Tb40 O64 2.378 . S
Tb40 O68 2.325 . S
Tb40 O71 2.341 . S
Tb41 C51 2.809 . S
Tb41 O62 2.325 . S
Tb41 O65 2.341 . S
Tb41 O66 2.484 . S
Tb41 O67 2.440 . S
Tb41 O68 2.658 . S
Tb41 O69 2.409 . S
Tb41 O70 2.378 . S
C42 Tb40 2.809 . S
C42 C43 1.514 . S
C42 O60 1.248 . S
C42 O61 1.266 . S
C43 C42 1.514 . S
C43 C44 1.359 . S
C43 C48 1.348 . S
C44 C43 1.359 . S
C44 C45 1.380 . S
C44 H72 0.929 . S
C45 C44 1.380 . S
C45 C46 1.347 . S
C45 H73 0.931 . S
C46 C45 1.347 . S
C46 C47 1.369 . S
C47 C46 1.369 . S
C47 C48 1.408 . S
C47 H74 0.930 . S
C48 C43 1.348 . S
C48 C47 1.408 . S
C48 H75 0.930 . S
C49 O62 1.281 . S
C49 O63 1.254 . S
C50 O64 1.236 . S
C50 O65 1.266 . S
C51 Tb41 2.809 . S
C51 C52 1.514 . S
C51 O66 1.248 . S
C51 O67 1.266 . S
C52 C51 1.514 . S
C52 C53 1.359 1_455 S
C52 C57 1.348 1_455 S
C53 C52 1.359 1_655 S
C53 C54 1.380 . S
C53 H76 0.939 . S
C54 C53 1.380 . S
C54 C55 1.347 . S
C54 H77 0.931 . S
C55 C54 1.347 . S
C55 C56 1.369 . S
C56 C55 1.369 . S
C56 C57 1.408 . S
C56 H78 0.930 . S
C57 C52 1.348 1_655 S
C57 C56 1.408 . S
C57 H79 0.930 . S
C58 O68 1.281 . S
C58 O69 1.254 . S
C59 O70 1.236 . S
C59 O71 1.266 . S
O60 Tb40 2.484 . S
O60 C42 1.248 . S
O61 Tb40 2.440 . S
O61 C42 1.266 . S
O62 Tb40 2.658 . S
O62 Tb41 2.325 . S
O62 C49 1.281 . S
O63 Tb40 2.409 . S
O63 C49 1.254 . S
O64 Tb40 2.378 . S
O64 C50 1.236 . S
O65 Tb41 2.341 . S
O65 C50 1.266 . S
O66 Tb41 2.484 . S
O66 C51 1.248 . S
O67 Tb41 2.440 . S
O67 C51 1.266 . S
O68 Tb40 2.325 . S
O68 Tb41 2.658 . S
O68 C58 1.281 . S
O69 Tb41 2.409 . S
O69 C58 1.254 . S
O70 Tb41 2.378 . S
O70 C59 1.236 . S
O71 Tb40 2.341 . S
O71 C59 1.266 . S
H72 C44 0.929 . S
H73 C45 0.931 . S
H74 C47 0.930 . S
H75 C48 0.930 . S
H76 C53 0.939 . S
H77 C54 0.931 . S
H78 C56 0.930 . S
H79 C57 0.930 . S
Tb80 C82 2.809 . S
Tb80 O100 2.484 . S
Tb80 O101 2.440 . S
Tb80 O102 2.658 1_655 S
Tb80 O103 2.409 . S
Tb80 O104 2.378 . S
Tb80 O108 2.325 1_655 S
Tb80 O111 2.341 1_655 S
Tb81 C91 2.809 . S
Tb81 O102 2.325 . S
Tb81 O105 2.341 . S
Tb81 O106 2.484 . S
Tb81 O107 2.440 . S
Tb81 O108 2.658 . S
Tb81 O109 2.409 . S
Tb81 O110 2.378 . S
C82 Tb80 2.809 . S
C82 C83 1.514 . S
C82 O100 1.248 . S
C82 O101 1.266 . S
C83 C82 1.514 . S
C83 C84 1.359 . S
C83 C88 1.348 . S
C84 C83 1.359 . S
C84 C85 1.380 . S
C84 H112 0.929 . S
C85 C84 1.380 . S
C85 C86 1.347 . S
C85 H113 0.931 . S
C86 C85 1.347 . S
C86 C87 1.369 . S
C87 C86 1.369 . S
C87 C88 1.408 . S
C87 H114 0.930 . S
C88 C83 1.348 . S
C88 C87 1.408 . S
C88 H115 0.930 . S
C89 O102 1.281 . S
C89 O103 1.254 1_455 S
C90 O104 1.236 . S
C90 O105 1.266 1_655 S
C91 Tb81 2.809 . S
C91 C92 1.514 . S
C91 O106 1.248 . S
C91 O107 1.266 . S
C92 C91 1.514 . S
C92 C93 1.359 . S
C92 C97 1.348 . S
C93 C92 1.359 . S
C93 C94 1.380 . S
C93 H116 0.929 . S
C94 C93 1.380 . S
C94 C95 1.347 . S
C94 H117 0.931 . S
C95 C94 1.347 . S
C95 C96 1.369 . S
C96 C95 1.369 . S
C96 C97 1.408 . S
C96 H118 0.930 . S
C97 C92 1.348 . S
C97 C96 1.408 . S
C97 H119 0.930 . S
C98 O108 1.281 . S
C98 O109 1.254 . S
C99 O110 1.236 . S
C99 O111 1.266 . S
O100 Tb80 2.484 . S
O100 C82 1.248 . S
O101 Tb80 2.440 . S
O101 C82 1.266 . S
O102 Tb80 2.658 1_455 S
O102 Tb81 2.325 . S
O102 C89 1.281 . S
O103 Tb80 2.409 . S
O103 C89 1.254 1_655 S
O104 Tb80 2.378 . S
O104 C90 1.236 . S
O105 Tb81 2.341 . S
O105 C90 1.266 1_455 S
O106 Tb81 2.484 . S
O106 C91 1.248 . S
O107 Tb81 2.440 . S
O107 C91 1.266 . S
O108 Tb80 2.325 1_455 S
O108 Tb81 2.658 . S
O108 C98 1.281 . S
O109 Tb81 2.409 . S
O109 C98 1.254 . S
O110 Tb81 2.378 . S
O110 C99 1.236 . S
O111 Tb80 2.341 1_455 S
O111 C99 1.266 . S
H112 C84 0.929 . S
H113 C85 0.931 . S
H114 C87 0.930 . S
H115 C88 0.930 . S
H116 C93 0.929 . S
H117 C94 0.931 . S
H118 C96 0.930 . S
H119 C97 0.930 . S
Tb120 C122 2.809 . S
Tb120 O140 2.484 . S
Tb120 O141 2.440 . S
Tb120 O142 2.658 . S
Tb120 O143 2.409 . S
Tb120 O144 2.378 . S
Tb120 O148 2.325 . S
Tb120 O151 2.341 . S
Tb121 C131 2.809 . S
Tb121 O142 2.325 . S
Tb121 O145 2.341 . S
Tb121 O146 2.484 . S
Tb121 O147 2.440 . S
Tb121 O148 2.658 . S
Tb121 O149 2.409 . S
Tb121 O150 2.378 . S
C122 Tb120 2.809 . S
C122 C123 1.514 . S
C122 O140 1.248 . S
C122 O141 1.266 . S
C123 C122 1.514 . S
C123 C124 1.359 . S
C123 C128 1.348 . S
C124 C123 1.359 . S
C124 C125 1.380 . S
C124 H152 0.929 . S
C125 C124 1.380 . S
C125 C126 1.347 . S
C125 H153 0.931 . S
C126 C125 1.347 . S
C126 C127 1.369 . S
C127 C126 1.369 . S
C127 C128 1.408 . S
C127 H154 0.930 . S
C128 C123 1.348 . S
C128 C127 1.408 . S
C128 H155 0.930 . S
C129 O142 1.281 . S
C129 O143 1.254 . S
C130 O144 1.236 . S
C130 O145 1.266 . S
C131 Tb121 2.809 . S
C131 C132 1.514 . S
C131 O146 1.248 . S
C131 O147 1.266 . S
C132 C131 1.514 . S
C132 C133 1.359 1_455 S
C132 C137 1.348 1_455 S
C133 C132 1.359 1_655 S
C133 C134 1.380 . S
C133 H156 0.939 . S
C134 C133 1.380 . S
C134 C135 1.347 . S
C134 H157 0.931 . S
C135 C134 1.347 . S
C135 C136 1.369 . S
C136 C135 1.369 . S
C136 C137 1.408 . S
C136 H158 0.930 . S
C137 C132 1.348 1_655 S
C137 C136 1.408 . S
C137 H159 0.930 . S
C138 O148 1.281 . S
C138 O149 1.254 . S
C139 O150 1.236 . S
C139 O151 1.266 . S
O140 Tb120 2.484 . S
O140 C122 1.248 . S
O141 Tb120 2.440 . S
O141 C122 1.266 . S
O142 Tb120 2.658 . S
O142 Tb121 2.325 . S
O142 C129 1.281 . S
O143 Tb120 2.409 . S
O143 C129 1.254 . S
O144 Tb120 2.378 . S
O144 C130 1.236 . S
O145 Tb121 2.341 . S
O145 C130 1.266 . S
O146 Tb121 2.484 . S
O146 C131 1.248 . S
O147 Tb121 2.440 . S
O147 C131 1.266 . S
O148 Tb120 2.325 . S
O148 Tb121 2.658 . S
O148 C138 1.281 . S
O149 Tb121 2.409 . S
O149 C138 1.254 . S
O150 Tb121 2.378 . S
O150 C139 1.236 . S
O151 Tb120 2.341 . S
O151 C139 1.266 . S
H152 C124 0.929 . S
H153 C125 0.931 . S
H154 C127 0.930 . S
H155 C128 0.930 . S
H156 C133 0.939 . S
H157 C134 0.931 . S
H158 C136 0.930 . S
H159 C137 0.930 . S
Tb160 C162 2.809 . S
Tb160 O180 2.484 . S
Tb160 O181 2.440 . S
Tb160 O182 2.658 . S
Tb160 O183 2.409 . S
Tb160 O184 2.378 . S
Tb160 O188 2.325 . S
Tb160 O191 2.341 . S
Tb161 C171 2.809 . S
Tb161 O182 2.325 1_455 S
Tb161 O185 2.341 1_455 S
Tb161 O186 2.484 . S
Tb161 O187 2.440 . S
Tb161 O188 2.658 1_455 S
Tb161 O189 2.409 . S
Tb161 O190 2.378 . S
C162 Tb160 2.809 . S
C162 C163 1.514 . S
C162 O180 1.248 . S
C162 O181 1.266 . S
C163 C162 1.514 . S
C163 C164 1.359 . S
C163 C168 1.348 . S
C164 C163 1.359 . S
C164 C165 1.380 . S
C164 H192 0.929 . S
C165 C164 1.380 . S
C165 C166 1.347 . S
C165 H193 0.931 . S
C166 C165 1.347 . S
C166 C167 1.369 . S
C167 C166 1.369 . S
C167 C168 1.408 . S
C167 H194 0.930 . S
C168 C163 1.348 . S
C168 C167 1.408 . S
C168 H195 0.930 . S
C169 O182 1.281 . S
C169 O183 1.254 . S
C170 O184 1.236 . S
C170 O185 1.266 . S
C171 Tb161 2.809 . S
C171 C172 1.514 . S
C171 O186 1.248 . S
C171 O187 1.266 . S
C172 C171 1.514 . S
C172 C173 1.359 . S
C172 C177 1.348 . S
C173 C172 1.359 . S
C173 C174 1.380 . S
C173 H196 0.929 . S
C174 C173 1.380 . S
C174 C175 1.347 . S
C174 H197 0.931 . S
C175 C174 1.347 . S
C175 C176 1.369 . S
C176 C175 1.369 . S
C176 C177 1.408 . S
C176 H198 0.930 . S
C177 C172 1.348 . S
C177 C176 1.408 . S
C177 H199 0.930 . S
C178 O188 1.281 . S
C178 O189 1.254 1_655 S
C179 O190 1.236 . S
C179 O191 1.266 1_455 S
O180 Tb160 2.484 . S
O180 C162 1.248 . S
O181 Tb160 2.440 . S
O181 C162 1.266 . S
O182 Tb160 2.658 . S
O182 Tb161 2.325 1_655 S
O182 C169 1.281 . S
O183 Tb160 2.409 . S
O183 C169 1.254 . S
O184 Tb160 2.378 . S
O184 C170 1.236 . S
O185 Tb161 2.341 1_655 S
O185 C170 1.266 . S
O186 Tb161 2.484 . S
O186 C171 1.248 . S
O187 Tb161 2.440 . S
O187 C171 1.266 . S
O188 Tb160 2.325 . S
O188 Tb161 2.658 1_655 S
O188 C178 1.281 . S
O189 Tb161 2.409 . S
O189 C178 1.254 1_455 S
O190 Tb161 2.378 . S
O190 C179 1.236 . S
O191 Tb160 2.341 . S
O191 C179 1.266 1_655 S
H192 C164 0.929 . S
H193 C165 0.931 . S
H194 C167 0.930 . S
H195 C168 0.930 . S
H196 C173 0.929 . S
H197 C174 0.931 . S
H198 C176 0.930 . S
H199 C177 0.930 . S
Tb200 C202 2.809 . S
Tb200 O220 2.484 . S
Tb200 O221 2.440 . S
Tb200 O222 2.658 . S
Tb200 O223 2.409 . S
Tb200 O224 2.378 . S
Tb200 O228 2.325 . S
Tb200 O231 2.341 . S
Tb201 C211 2.809 . S
Tb201 O222 2.325 . S
Tb201 O225 2.341 . S
Tb201 O226 2.484 . S
Tb201 O227 2.440 . S
Tb201 O228 2.658 . S
Tb201 O229 2.409 . S
Tb201 O230 2.378 . S
C202 Tb200 2.809 . S
C202 C203 1.514 . S
C202 O220 1.248 . S
C202 O221 1.266 . S
C203 C202 1.514 . S
C203 C204 1.359 1_655 S
C203 C208 1.348 1_655 S
C204 C203 1.359 1_455 S
C204 C205 1.380 . S
C204 H232 0.939 . S
C205 C204 1.380 . S
C205 C206 1.347 . S
C205 H233 0.931 . S
C206 C205 1.347 . S
C206 C207 1.369 . S
C207 C206 1.369 . S
C207 C208 1.408 . S
C207 H234 0.930 . S
C208 C203 1.348 1_455 S
C208 C207 1.408 . S
C208 H235 0.930 . S
C209 O222 1.281 . S
C209 O223 1.254 . S
C210 O224 1.236 . S
C210 O225 1.266 . S
C211 Tb201 2.809 . S
C211 C212 1.514 . S
C211 O226 1.248 . S
C211 O227 1.266 . S
C212 C211 1.514 . S
C212 C213 1.359 . S
C212 C217 1.348 . S
C213 C212 1.359 . S
C213 C214 1.380 . S
C213 H236 0.929 . S
C214 C213 1.380 . S
C214 C215 1.347 . S
C214 H237 0.931 . S
C215 C214 1.347 . S
C215 C216 1.369 . S
C216 C215 1.369 . S
C216 C217 1.408 . S
C216 H238 0.930 . S
C217 C212 1.348 . S
C217 C216 1.408 . S
C217 H239 0.930 . S
C218 O228 1.281 . S
C218 O229 1.254 . S
C219 O230 1.236 . S
C219 O231 1.266 . S
O220 Tb200 2.484 . S
O220 C202 1.248 . S
O221 Tb200 2.440 . S
O221 C202 1.266 . S
O222 Tb200 2.658 . S
O222 Tb201 2.325 . S
O222 C209 1.281 . S
O223 Tb200 2.409 . S
O223 C209 1.254 . S
O224 Tb200 2.378 . S
O224 C210 1.236 . S
O225 Tb201 2.341 . S
O225 C210 1.266 . S
O226 Tb201 2.484 . S
O226 C211 1.248 . S
O227 Tb201 2.440 . S
O227 C211 1.266 . S
O228 Tb200 2.325 . S
O228 Tb201 2.658 . S
O228 C218 1.281 . S
O229 Tb201 2.409 . S
O229 C218 1.254 . S
O230 Tb201 2.378 . S
O230 C219 1.236 . S
O231 Tb200 2.341 . S
O231 C219 1.266 . S
H232 C204 0.939 . S
H233 C205 0.931 . S
H234 C207 0.930 . S
H235 C208 0.930 . S
H236 C213 0.929 . S
H237 C214 0.931 . S
H238 C216 0.930 . S
H239 C217 0.930 . S
Tb240 C242 2.809 . S
Tb240 O260 2.484 . S
Tb240 O261 2.440 . S
Tb240 O262 2.658 . S
Tb240 O263 2.409 . S
Tb240 O264 2.378 . S
Tb240 O268 2.325 . S
Tb240 O271 2.341 . S
Tb241 C251 2.809 . S
Tb241 O262 2.325 1_455 S
Tb241 O265 2.341 1_455 S
Tb241 O266 2.484 . S
Tb241 O267 2.440 . S
Tb241 O268 2.658 1_455 S
Tb241 O269 2.409 . S
Tb241 O270 2.378 . S
C242 Tb240 2.809 . S
C242 C243 1.514 . S
C242 O260 1.248 . S
C242 O261 1.266 . S
C243 C242 1.514 . S
C243 C244 1.359 . S
C243 C248 1.348 . S
C244 C243 1.359 . S
C244 C245 1.380 . S
C244 H272 0.929 . S
C245 C244 1.380 . S
C245 C246 1.347 . S
C245 H273 0.931 . S
C246 C245 1.347 . S
C246 C247 1.369 . S
C247 C246 1.369 . S
C247 C248 1.408 . S
C247 H274 0.930 . S
C248 C243 1.348 . S
C248 C247 1.408 . S
C248 H275 0.930 . S
C249 O262 1.281 . S
C249 O263 1.254 . S
C250 O264 1.236 . S
C250 O265 1.266 . S
C251 Tb241 2.809 . S
C251 C252 1.514 . S
C251 O266 1.248 . S
C251 O267 1.266 . S
C252 C251 1.514 . S
C252 C253 1.359 . S
C252 C257 1.348 . S
C253 C252 1.359 . S
C253 C254 1.380 . S
C253 H276 0.929 . S
C254 C253 1.380 . S
C254 C255 1.347 . S
C254 H277 0.931 . S
C255 C254 1.347 . S
C255 C256 1.369 . S
C256 C255 1.369 . S
C256 C257 1.408 . S
C256 H278 0.930 . S
C257 C252 1.348 . S
C257 C256 1.408 . S
C257 H279 0.930 . S
C258 O268 1.281 . S
C258 O269 1.254 1_655 S
C259 O270 1.236 . S
C259 O271 1.266 1_455 S
O260 Tb240 2.484 . S
O260 C242 1.248 . S
O261 Tb240 2.440 . S
O261 C242 1.266 . S
O262 Tb240 2.658 . S
O262 Tb241 2.325 1_655 S
O262 C249 1.281 . S
O263 Tb240 2.409 . S
O263 C249 1.254 . S
O264 Tb240 2.378 . S
O264 C250 1.236 . S
O265 Tb241 2.341 1_655 S
O265 C250 1.266 . S
O266 Tb241 2.484 . S
O266 C251 1.248 . S
O267 Tb241 2.440 . S
O267 C251 1.266 . S
O268 Tb240 2.325 . S
O268 Tb241 2.658 1_655 S
O268 C258 1.281 . S
O269 Tb241 2.409 . S
O269 C258 1.254 1_455 S
O270 Tb241 2.378 . S
O270 C259 1.236 . S
O271 Tb240 2.341 . S
O271 C259 1.266 1_655 S
H272 C244 0.929 . S
H273 C245 0.931 . S
H274 C247 0.930 . S
H275 C248 0.930 . S
H276 C253 0.929 . S
H277 C254 0.931 . S
H278 C256 0.930 . S
H279 C257 0.930 . S
Tb280 C282 2.809 . S
Tb280 O300 2.484 . S
Tb280 O301 2.440 . S
Tb280 O302 2.658 . S
Tb280 O303 2.409 . S
Tb280 O304 2.378 . S
Tb280 O308 2.325 . S
Tb280 O311 2.341 . S
Tb281 C291 2.809 . S
Tb281 O302 2.325 . S
Tb281 O305 2.341 . S
Tb281 O306 2.484 . S
Tb281 O307 2.440 . S
Tb281 O308 2.658 . S
Tb281 O309 2.409 . S
Tb281 O310 2.378 . S
C282 Tb280 2.809 . S
C282 C283 1.514 . S
C282 O300 1.248 . S
C282 O301 1.266 . S
C283 C282 1.514 . S
C283 C284 1.359 1_655 S
C283 C288 1.348 1_655 S
C284 C283 1.359 1_455 S
C284 C285 1.380 . S
C284 H312 0.939 . S
C285 C284 1.380 . S
C285 C286 1.347 . S
C285 H313 0.931 . S
C286 C285 1.347 . S
C286 C287 1.369 . S
C287 C286 1.369 . S
C287 C288 1.408 . S
C287 H314 0.930 . S
C288 C283 1.348 1_455 S
C288 C287 1.408 . S
C288 H315 0.930 . S
C289 O302 1.281 . S
C289 O303 1.254 . S
C290 O304 1.236 . S
C290 O305 1.266 . S
C291 Tb281 2.809 . S
C291 C292 1.514 . S
C291 O306 1.248 . S
C291 O307 1.266 . S
C292 C291 1.514 . S
C292 C293 1.359 . S
C292 C297 1.348 . S
C293 C292 1.359 . S
C293 C294 1.380 . S
C293 H316 0.929 . S
C294 C293 1.380 . S
C294 C295 1.347 . S
C294 H317 0.931 . S
C295 C294 1.347 . S
C295 C296 1.369 . S
C296 C295 1.369 . S
C296 C297 1.408 . S
C296 H318 0.930 . S
C297 C292 1.348 . S
C297 C296 1.408 . S
C297 H319 0.930 . S
C298 O308 1.281 . S
C298 O309 1.254 . S
C299 O310 1.236 . S
C299 O311 1.266 . S
O300 Tb280 2.484 . S
O300 C282 1.248 . S
O301 Tb280 2.440 . S
O301 C282 1.266 . S
O302 Tb280 2.658 . S
O302 Tb281 2.325 . S
O302 C289 1.281 . S
O303 Tb280 2.409 . S
O303 C289 1.254 . S
O304 Tb280 2.378 . S
O304 C290 1.236 . S
O305 Tb281 2.341 . S
O305 C290 1.266 . S
O306 Tb281 2.484 . S
O306 C291 1.248 . S
O307 Tb281 2.440 . S
O307 C291 1.266 . S
O308 Tb280 2.325 . S
O308 Tb281 2.658 . S
O308 C298 1.281 . S
O309 Tb281 2.409 . S
O309 C298 1.254 . S
O310 Tb281 2.378 . S
O310 C299 1.236 . S
O311 Tb280 2.341 . S
O311 C299 1.266 . S
H312 C284 0.939 . S
H313 C285 0.931 . S
H314 C287 0.930 . S
H315 C288 0.930 . S
H316 C293 0.929 . S
H317 C294 0.931 . S
H318 C296 0.930 . S
H319 C297 0.930 . S
Tb320 C322 2.809 1_545 S
Tb320 O340 2.484 1_545 S
Tb320 O341 2.440 . S
Tb320 O342 2.658 1_645 S
Tb320 O343 2.409 . S
Tb320 O344 2.378 1_545 S
Tb320 O348 2.325 1_645 S
Tb320 O351 2.341 1_655 S
Tb321 C331 2.809 . S
Tb321 O342 2.325 . S
Tb321 O345 2.341 . S
Tb321 O346 2.484 . S
Tb321 O347 2.440 . S
Tb321 O348 2.658 . S
Tb321 O349 2.409 . S
Tb321 O350 2.378 1_565 S
C322 Tb320 2.809 1_565 S
C322 C323 1.514 . S
C322 O340 1.248 . S
C322 O341 1.266 1_565 S
C323 C322 1.514 . S
C323 C324 1.359 . S
C323 C328 1.348 . S
C324 C323 1.359 . S
C324 C325 1.380 . S
C324 H352 0.929 . S
C325 C324 1.380 . S
C325 C326 1.347 . S
C325 H353 0.931 . S
C326 C325 1.347 . S
C326 C327 1.369 . S
C327 C326 1.369 . S
C327 C328 1.408 . S
C327 H354 0.930 . S
C328 C323 1.348 . S
C328 C327 1.408 . S
C328 H355 0.930 . S
C329 O342 1.281 . S
C329 O343 1.254 1_465 S
C330 O344 1.236 . S
C330 O345 1.266 1_655 S
C331 Tb321 2.809 . S
C331 C332 1.514 . S
C331 O346 1.248 . S
C331 O347 1.266 . S
C332 C331 1.514 . S
C332 C333 1.359 1_565 S
C332 C337 1.348 . S
C333 C332 1.359 1_545 S
C333 C334 1.380 . S
C333 H356 0.929 . S
C334 C333 1.380 . S
C334 C335 1.347 . S
C334 H357 0.931 . S
C335 C334 1.347 . S
C335 C336 1.360 1_545 S
C336 C335 1.360 1_565 S
C336 C337 1.416 . S
C336 H358 0.933 . S
C337 C332 1.348 . S
C337 C336 1.416 . S
C337 H359 0.930 . S
C338 O348 1.281 . S
C338 O349 1.254 . S
C339 O350 1.236 . S
C339 O351 1.266 . S
O340 Tb320 2.484 1_565 S
O340 C322 1.248 . S
O341 Tb320 2.440 . S
O341 C322 1.266 1_545 S
O342 Tb320 2.658 1_465 S
O342 Tb321 2.325 . S
O342 C329 1.281 . S
O343 Tb320 2.409 . S
O343 C329 1.254 1_645 S
O344 Tb320 2.378 1_565 S
O344 C330 1.236 . S
O345 Tb321 2.341 . S
O345 C330 1.266 1_455 S
O346 Tb321 2.484 . S
O346 C331 1.248 . S
O347 Tb321 2.440 . S
O347 C331 1.266 . S
O348 Tb320 2.325 1_465 S
O348 Tb321 2.658 . S
O348 C338 1.281 . S
O349 Tb321 2.409 . S
O349 C338 1.254 . S
O350 Tb321 2.378 1_545 S
O350 C339 1.236 . S
O351 Tb320 2.341 1_455 S
O351 C339 1.266 . S
H352 C324 0.929 . S
H353 C325 0.931 . S
H354 C327 0.930 . S
H355 C328 0.930 . S
H356 C333 0.929 . S
H357 C334 0.931 . S
H358 C336 0.933 . S
H359 C337 0.930 . S
Tb360 C362 2.809 . S
Tb360 O380 2.484 . S
Tb360 O381 2.440 . S
Tb360 O382 2.658 . S
Tb360 O383 2.409 . S
Tb360 O384 2.378 . S
Tb360 O388 2.325 . S
Tb360 O391 2.341 . S
Tb361 C371 2.809 . S
Tb361 O382 2.325 . S
Tb361 O385 2.341 . S
Tb361 O386 2.484 . S
Tb361 O387 2.440 . S
Tb361 O388 2.658 . S
Tb361 O389 2.409 . S
Tb361 O390 2.378 . S
C362 Tb360 2.809 . S
C362 C363 1.514 . S
C362 O380 1.248 . S
C362 O381 1.266 . S
C363 C362 1.514 . S
C363 C364 1.359 . S
C363 C368 1.348 . S
C364 C363 1.359 . S
C364 C365 1.380 . S
C364 H392 0.929 . S
C365 C364 1.380 . S
C365 C366 1.347 . S
C365 H393 0.931 . S
C366 C365 1.347 . S
C366 C367 1.369 . S
C367 C366 1.369 . S
C367 C368 1.408 . S
C367 H394 0.930 . S
C368 C363 1.348 . S
C368 C367 1.408 . S
C368 H395 0.930 . S
C369 O382 1.281 . S
C369 O383 1.254 . S
C370 O384 1.236 . S
C370 O385 1.266 . S
C371 Tb361 2.809 . S
C371 C372 1.514 . S
C371 O386 1.248 . S
C371 O387 1.266 . S
C372 C371 1.514 . S
C372 C373 1.359 1_455 S
C372 C377 1.348 1_455 S
C373 C372 1.359 1_655 S
C373 C374 1.380 . S
C373 H396 0.939 . S
C374 C373 1.380 . S
C374 C375 1.347 . S
C374 H397 0.931 . S
C375 C374 1.347 . S
C375 C376 1.369 . S
C376 C375 1.369 . S
C376 C377 1.408 . S
C376 H398 0.930 . S
C377 C372 1.348 1_655 S
C377 C376 1.408 . S
C377 H399 0.930 . S
C378 O388 1.281 . S
C378 O389 1.254 . S
C379 O390 1.236 . S
C379 O391 1.266 . S
O380 Tb360 2.484 . S
O380 C362 1.248 . S
O381 Tb360 2.440 . S
O381 C362 1.266 . S
O382 Tb360 2.658 . S
O382 Tb361 2.325 . S
O382 C369 1.281 . S
O383 Tb360 2.409 . S
O383 C369 1.254 . S
O384 Tb360 2.378 . S
O384 C370 1.236 . S
O385 Tb361 2.341 . S
O385 C370 1.266 . S
O386 Tb361 2.484 . S
O386 C371 1.248 . S
O387 Tb361 2.440 . S
O387 C371 1.266 . S
O388 Tb360 2.325 . S
O388 Tb361 2.658 . S
O388 C378 1.281 . S
O389 Tb361 2.409 . S
O389 C378 1.254 . S
O390 Tb361 2.378 . S
O390 C379 1.236 . S
O391 Tb360 2.341 . S
O391 C379 1.266 . S
H392 C364 0.929 . S
H393 C365 0.931 . S
H394 C367 0.930 . S
H395 C368 0.930 . S
H396 C373 0.939 . S
H397 C374 0.931 . S
H398 C376 0.930 . S
H399 C377 0.930 . S
Tb400 C402 2.809 . S
Tb400 O420 2.484 . S
Tb400 O421 2.440 . S
Tb400 O422 2.658 1_655 S
Tb400 O423 2.409 . S
Tb400 O424 2.378 . S
Tb400 O428 2.325 1_655 S
Tb400 O431 2.341 1_655 S
Tb401 C411 2.809 . S
Tb401 O422 2.325 . S
Tb401 O425 2.341 . S
Tb401 O426 2.484 . S
Tb401 O427 2.440 . S
Tb401 O428 2.658 . S
Tb401 O429 2.409 . S
Tb401 O430 2.378 . S
C402 Tb400 2.809 . S
C402 C403 1.514 . S
C402 O420 1.248 . S
C402 O421 1.266 . S
C403 C402 1.514 . S
C403 C404 1.359 . S
C403 C408 1.348 . S
C404 C403 1.359 . S
C404 C405 1.380 . S
C404 H432 0.929 . S
C405 C404 1.380 . S
C405 C406 1.347 . S
C405 H433 0.931 . S
C406 C405 1.347 . S
C406 C407 1.369 . S
C407 C406 1.369 . S
C407 C408 1.408 . S
C407 H434 0.930 . S
C408 C403 1.348 . S
C408 C407 1.408 . S
C408 H435 0.930 . S
C409 O422 1.281 . S
C409 O423 1.254 1_455 S
C410 O424 1.236 . S
C410 O425 1.266 1_655 S
C411 Tb401 2.809 . S
C411 C412 1.514 . S
C411 O426 1.248 . S
C411 O427 1.266 . S
C412 C411 1.514 . S
C412 C413 1.359 . S
C412 C417 1.348 . S
C413 C412 1.359 . S
C413 C414 1.380 . S
C413 H436 0.929 . S
C414 C413 1.380 . S
C414 C415 1.347 . S
C414 H437 0.931 . S
C415 C414 1.347 . S
C415 C416 1.369 . S
C416 C415 1.369 . S
C416 C417 1.408 . S
C416 H438 0.930 . S
C417 C412 1.348 . S
C417 C416 1.408 . S
C417 H439 0.930 . S
C418 O428 1.281 . S
C418 O429 1.254 . S
C419 O430 1.236 . S
C419 O431 1.266 . S
O420 Tb400 2.484 . S
O420 C402 1.248 . S
O421 Tb400 2.440 . S
O421 C402 1.266 . S
O422 Tb400 2.658 1_455 S
O422 Tb401 2.325 . S
O422 C409 1.281 . S
O423 Tb400 2.409 . S
O423 C409 1.254 1_655 S
O424 Tb400 2.378 . S
O424 C410 1.236 . S
O425 Tb401 2.341 . S
O425 C410 1.266 1_455 S
O426 Tb401 2.484 . S
O426 C411 1.248 . S
O427 Tb401 2.440 . S
O427 C411 1.266 . S
O428 Tb400 2.325 1_455 S
O428 Tb401 2.658 . S
O428 C418 1.281 . S
O429 Tb401 2.409 . S
O429 C418 1.254 . S
O430 Tb401 2.378 . S
O430 C419 1.236 . S
O431 Tb400 2.341 1_455 S
O431 C419 1.266 . S
H432 C404 0.929 . S
H433 C405 0.931 . S
H434 C407 0.930 . S
H435 C408 0.930 . S
H436 C413 0.929 . S
H437 C414 0.931 . S
H438 C416 0.930 . S
H439 C417 0.930 . S
Tb440 C442 2.809 1_545 S
Tb440 O460 2.484 1_545 S
Tb440 O461 2.440 . S
Tb440 O462 2.658 1_545 S
Tb440 O463 2.409 . S
Tb440 O464 2.378 1_545 S
Tb440 O468 2.325 1_545 S
Tb440 O471 2.341 . S
Tb441 C451 2.809 . S
Tb441 O462 2.325 . S
Tb441 O465 2.341 . S
Tb441 O466 2.484 . S
Tb441 O467 2.440 . S
Tb441 O468 2.658 . S
Tb441 O469 2.409 . S
Tb441 O470 2.378 1_565 S
C442 Tb440 2.809 1_565 S
C442 C443 1.514 . S
C442 O460 1.248 . S
C442 O461 1.266 1_565 S
C443 C442 1.514 . S
C443 C444 1.359 . S
C443 C448 1.348 . S
C444 C443 1.359 . S
C444 C445 1.380 . S
C444 H472 0.929 . S
C445 C444 1.380 . S
C445 C446 1.347 . S
C445 H473 0.931 . S
C446 C445 1.347 . S
C446 C447 1.369 . S
C447 C446 1.369 . S
C447 C448 1.408 . S
C447 H474 0.930 . S
C448 C443 1.348 . S
C448 C447 1.408 . S
C448 H475 0.930 . S
C449 O462 1.281 . S
C449 O463 1.254 1_565 S
C450 O464 1.236 . S
C450 O465 1.266 . S
C451 Tb441 2.809 . S
C451 C452 1.514 . S
C451 O466 1.248 . S
C451 O467 1.266 . S
C452 C451 1.514 . S
C452 C453 1.359 1_465 S
C452 C457 1.348 1_455 S
C453 C452 1.359 1_645 S
C453 C454 1.380 . S
C453 H476 0.939 . S
C454 C453 1.380 . S
C454 C455 1.347 . S
C454 H477 0.931 . S
C455 C454 1.347 . S
C455 C456 1.360 1_545 S
C456 C455 1.360 1_565 S
C456 C457 1.416 . S
C456 H478 0.933 . S
C457 C452 1.348 1_655 S
C457 C456 1.416 . S
C457 H479 0.930 . S
C458 O468 1.281 . S
C458 O469 1.254 . S
C459 O470 1.236 . S
C459 O471 1.266 . S
O460 Tb440 2.484 1_565 S
O460 C442 1.248 . S
O461 Tb440 2.440 . S
O461 C442 1.266 1_545 S
O462 Tb440 2.658 1_565 S
O462 Tb441 2.325 . S
O462 C449 1.281 . S
O463 Tb440 2.409 . S
O463 C449 1.254 1_545 S
O464 Tb440 2.378 1_565 S
O464 C450 1.236 . S
O465 Tb441 2.341 . S
O465 C450 1.266 . S
O466 Tb441 2.484 . S
O466 C451 1.248 . S
O467 Tb441 2.440 . S
O467 C451 1.266 . S
O468 Tb440 2.325 1_565 S
O468 Tb441 2.658 . S
O468 C458 1.281 . S
O469 Tb441 2.409 . S
O469 C458 1.254 . S
O470 Tb441 2.378 1_545 S
O470 C459 1.236 . S
O471 Tb440 2.341 . S
O471 C459 1.266 . S
H472 C444 0.929 . S
H473 C445 0.931 . S
H474 C447 0.930 . S
H475 C448 0.930 . S
H476 C453 0.939 . S
H477 C454 0.931 . S
H478 C456 0.933 . S
H479 C457 0.930 . S
Tb480 C482 2.809 . S
Tb480 O500 2.484 . S
Tb480 O501 2.440 . S
Tb480 O502 2.658 . S
Tb480 O503 2.409 . S
Tb480 O504 2.378 1_545 S
Tb480 O508 2.325 . S
Tb480 O511 2.341 . S
Tb481 C491 2.809 1_565 S
Tb481 O502 2.325 1_465 S
Tb481 O505 2.341 1_455 S
Tb481 O506 2.484 1_565 S
Tb481 O507 2.440 . S
Tb481 O508 2.658 1_465 S
Tb481 O509 2.409 . S
Tb481 O510 2.378 1_565 S
C482 Tb480 2.809 . S
C482 C483 1.514 . S
C482 O500 1.248 . S
C482 O501 1.266 . S
C483 C482 1.514 . S
C483 C484 1.359 1_545 S
C483 C488 1.348 . S
C484 C483 1.359 1_565 S
C484 C485 1.380 . S
C484 H512 0.929 . S
C485 C484 1.380 . S
C485 C486 1.347 . S
C485 H513 0.931 . S
C486 C485 1.347 . S
C486 C487 1.360 1_565 S
C487 C486 1.360 1_545 S
C487 C488 1.416 . S
C487 H514 0.933 . S
C488 C483 1.348 . S
C488 C487 1.416 . S
C488 H515 0.930 . S
C489 O502 1.281 . S
C489 O503 1.254 . S
C490 O504 1.236 . S
C490 O505 1.266 . S
C491 Tb481 2.809 1_545 S
C491 C492 1.514 . S
C491 O506 1.248 . S
C491 O507 1.266 1_545 S
C492 C491 1.514 . S
C492 C493 1.359 . S
C492 C497 1.348 . S
C493 C492 1.359 . S
C493 C494 1.380 . S
C493 H516 0.929 . S
C494 C493 1.380 . S
C494 C495 1.347 . S
C494 H517 0.931 . S
C495 C494 1.347 . S
C495 C496 1.369 . S
C496 C495 1.369 . S
C496 C497 1.408 . S
C496 H518 0.930 . S
C497 C492 1.348 . S
C497 C496 1.408 . S
C497 H519 0.930 . S
C498 O508 1.281 . S
C498 O509 1.254 1_645 S
C499 O510 1.236 . S
C499 O511 1.266 1_455 S
O500 Tb480 2.484 . S
O500 C482 1.248 . S
O501 Tb480 2.440 . S
O501 C482 1.266 . S
O502 Tb480 2.658 . S
O502 Tb481 2.325 1_645 S
O502 C489 1.281 . S
O503 Tb480 2.409 . S
O503 C489 1.254 . S
O504 Tb480 2.378 1_565 S
O504 C490 1.236 . S
O505 Tb481 2.341 1_655 S
O505 C490 1.266 . S
O506 Tb481 2.484 1_545 S
O506 C491 1.248 . S
O507 Tb481 2.440 . S
O507 C491 1.266 1_565 S
O508 Tb480 2.325 . S
O508 Tb481 2.658 1_645 S
O508 C498 1.281 . S
O509 Tb481 2.409 . S
O509 C498 1.254 1_465 S
O510 Tb481 2.378 1_545 S
O510 C499 1.236 . S
O511 Tb480 2.341 . S
O511 C499 1.266 1_655 S
H512 C484 0.929 . S
H513 C485 0.931 . S
H514 C487 0.933 . S
H515 C488 0.930 . S
H516 C493 0.929 . S
H517 C494 0.931 . S
H518 C496 0.930 . S
H519 C497 0.930 . S
Tb520 C522 2.809 . S
Tb520 O540 2.484 . S
Tb520 O541 2.440 . S
Tb520 O542 2.658 . S
Tb520 O543 2.409 . S
Tb520 O544 2.378 . S
Tb520 O548 2.325 . S
Tb520 O551 2.341 . S
Tb521 C531 2.809 . S
Tb521 O542 2.325 . S
Tb521 O545 2.341 . S
Tb521 O546 2.484 . S
Tb521 O547 2.440 . S
Tb521 O548 2.658 . S
Tb521 O549 2.409 . S
Tb521 O550 2.378 . S
C522 Tb520 2.809 . S
C522 C523 1.514 . S
C522 O540 1.248 . S
C522 O541 1.266 . S
C523 C522 1.514 . S
C523 C524 1.359 1_655 S
C523 C528 1.348 1_655 S
C524 C523 1.359 1_455 S
C524 C525 1.380 . S
C524 H552 0.939 . S
C525 C524 1.380 . S
C525 C526 1.347 . S
C525 H553 0.931 . S
C526 C525 1.347 . S
C526 C527 1.369 . S
C527 C526 1.369 . S
C527 C528 1.408 . S
C527 H554 0.930 . S
C528 C523 1.348 1_455 S
C528 C527 1.408 . S
C528 H555 0.930 . S
C529 O542 1.281 . S
C529 O543 1.254 . S
C530 O544 1.236 . S
C530 O545 1.266 . S
C531 Tb521 2.809 . S
C531 C532 1.514 . S
C531 O546 1.248 . S
C531 O547 1.266 . S
C532 C531 1.514 . S
C532 C533 1.359 . S
C532 C537 1.348 . S
C533 C532 1.359 . S
C533 C534 1.380 . S
C533 H556 0.929 . S
C534 C533 1.380 . S
C534 C535 1.347 . S
C534 H557 0.931 . S
C535 C534 1.347 . S
C535 C536 1.369 . S
C536 C535 1.369 . S
C536 C537 1.408 . S
C536 H558 0.930 . S
C537 C532 1.348 . S
C537 C536 1.408 . S
C537 H559 0.930 . S
C538 O548 1.281 . S
C538 O549 1.254 . S
C539 O550 1.236 . S
C539 O551 1.266 . S
O540 Tb520 2.484 . S
O540 C522 1.248 . S
O541 Tb520 2.440 . S
O541 C522 1.266 . S
O542 Tb520 2.658 . S
O542 Tb521 2.325 . S
O542 C529 1.281 . S
O543 Tb520 2.409 . S
O543 C529 1.254 . S
O544 Tb520 2.378 . S
O544 C530 1.236 . S
O545 Tb521 2.341 . S
O545 C530 1.266 . S
O546 Tb521 2.484 . S
O546 C531 1.248 . S
O547 Tb521 2.440 . S
O547 C531 1.266 . S
O548 Tb520 2.325 . S
O548 Tb521 2.658 . S
O548 C538 1.281 . S
O549 Tb521 2.409 . S
O549 C538 1.254 . S
O550 Tb521 2.378 . S
O550 C539 1.236 . S
O551 Tb520 2.341 . S
O551 C539 1.266 . S
H552 C524 0.939 . S
H553 C525 0.931 . S
H554 C527 0.930 . S
H555 C528 0.930 . S
H556 C533 0.929 . S
H557 C534 0.931 . S
H558 C536 0.930 . S
H559 C537 0.930 . S
Tb560 C562 2.809 . S
Tb560 O580 2.484 . S
Tb560 O581 2.440 . S
Tb560 O582 2.658 . S
Tb560 O583 2.409 . S
Tb560 O584 2.378 . S
Tb560 O588 2.325 . S
Tb560 O591 2.341 . S
Tb561 C571 2.809 . S
Tb561 O582 2.325 1_455 S
Tb561 O585 2.341 1_455 S
Tb561 O586 2.484 . S
Tb561 O587 2.440 . S
Tb561 O588 2.658 1_455 S
Tb561 O589 2.409 . S
Tb561 O590 2.378 . S
C562 Tb560 2.809 . S
C562 C563 1.514 . S
C562 O580 1.248 . S
C562 O581 1.266 . S
C563 C562 1.514 . S
C563 C564 1.359 . S
C563 C568 1.348 . S
C564 C563 1.359 . S
C564 C565 1.380 . S
C564 H592 0.929 . S
C565 C564 1.380 . S
C565 C566 1.347 . S
C565 H593 0.931 . S
C566 C565 1.347 . S
C566 C567 1.369 . S
C567 C566 1.369 . S
C567 C568 1.408 . S
C567 H594 0.930 . S
C568 C563 1.348 . S
C568 C567 1.408 . S
C568 H595 0.930 . S
C569 O582 1.281 . S
C569 O583 1.254 . S
C570 O584 1.236 . S
C570 O585 1.266 . S
C571 Tb561 2.809 . S
C571 C572 1.514 . S
C571 O586 1.248 . S
C571 O587 1.266 . S
C572 C571 1.514 . S
C572 C573 1.359 . S
C572 C577 1.348 . S
C573 C572 1.359 . S
C573 C574 1.380 . S
C573 H596 0.929 . S
C574 C573 1.380 . S
C574 C575 1.347 . S
C574 H597 0.931 . S
C575 C574 1.347 . S
C575 C576 1.369 . S
C576 C575 1.369 . S
C576 C577 1.408 . S
C576 H598 0.930 . S
C577 C572 1.348 . S
C577 C576 1.408 . S
C577 H599 0.930 . S
C578 O588 1.281 . S
C578 O589 1.254 1_655 S
C579 O590 1.236 . S
C579 O591 1.266 1_455 S
O580 Tb560 2.484 . S
O580 C562 1.248 . S
O581 Tb560 2.440 . S
O581 C562 1.266 . S
O582 Tb560 2.658 . S
O582 Tb561 2.325 1_655 S
O582 C569 1.281 . S
O583 Tb560 2.409 . S
O583 C569 1.254 . S
O584 Tb560 2.378 . S
O584 C570 1.236 . S
O585 Tb561 2.341 1_655 S
O585 C570 1.266 . S
O586 Tb561 2.484 . S
O586 C571 1.248 . S
O587 Tb561 2.440 . S
O587 C571 1.266 . S
O588 Tb560 2.325 . S
O588 Tb561 2.658 1_655 S
O588 C578 1.281 . S
O589 Tb561 2.409 . S
O589 C578 1.254 1_455 S
O590 Tb561 2.378 . S
O590 C579 1.236 . S
O591 Tb560 2.341 . S
O591 C579 1.266 1_655 S
H592 C564 0.929 . S
H593 C565 0.931 . S
H594 C567 0.930 . S
H595 C568 0.930 . S
H596 C573 0.929 . S
H597 C574 0.931 . S
H598 C576 0.930 . S
H599 C577 0.930 . S
Tb600 C602 2.809 . S
Tb600 O620 2.484 . S
Tb600 O621 2.440 . S
Tb600 O622 2.658 . S
Tb600 O623 2.409 . S
Tb600 O624 2.378 1_545 S
Tb600 O628 2.325 . S
Tb600 O631 2.341 . S
Tb601 C611 2.809 1_565 S
Tb601 O622 2.325 1_565 S
Tb601 O625 2.341 . S
Tb601 O626 2.484 1_565 S
Tb601 O627 2.440 . S
Tb601 O628 2.658 1_565 S
Tb601 O629 2.409 . S
Tb601 O630 2.378 1_565 S
C602 Tb600 2.809 . S
C602 C603 1.514 . S
C602 O620 1.248 . S
C602 O621 1.266 . S
C603 C602 1.514 . S
C603 C604 1.359 1_645 S
C603 C608 1.348 1_655 S
C604 C603 1.359 1_465 S
C604 C605 1.380 . S
C604 H632 0.939 . S
C605 C604 1.380 . S
C605 C606 1.347 . S
C605 H633 0.931 . S
C606 C605 1.347 . S
C606 C607 1.360 1_565 S
C607 C606 1.360 1_545 S
C607 C608 1.416 . S
C607 H634 0.933 . S
C608 C603 1.348 1_455 S
C608 C607 1.416 . S
C608 H635 0.930 . S
C609 O622 1.281 . S
C609 O623 1.254 . S
C610 O624 1.236 . S
C610 O625 1.266 . S
C611 Tb601 2.809 1_545 S
C611 C612 1.514 . S
C611 O626 1.248 . S
C611 O627 1.266 1_545 S
C612 C611 1.514 . S
C612 C613 1.359 . S
C612 C617 1.348 . S
C613 C612 1.359 . S
C613 C614 1.380 . S
C613 H636 0.929 . S
C614 C613 1.380 . S
C614 C615 1.347 . S
C614 H637 0.931 . S
C615 C614 1.347 . S
C615 C616 1.369 . S
C616 C615 1.369 . S
C616 C617 1.408 . S
C616 H638 0.930 . S
C617 C612 1.348 . S
C617 C616 1.408 . S
C617 H639 0.930 . S
C618 O628 1.281 . S
C618 O629 1.254 1_545 S
C619 O630 1.236 . S
C619 O631 1.266 . S
O620 Tb600 2.484 . S
O620 C602 1.248 . S
O621 Tb600 2.440 . S
O621 C602 1.266 . S
O622 Tb600 2.658 . S
O622 Tb601 2.325 1_545 S
O622 C609 1.281 . S
O623 Tb600 2.409 . S
O623 C609 1.254 . S
O624 Tb600 2.378 1_565 S
O624 C610 1.236 . S
O625 Tb601 2.341 . S
O625 C610 1.266 . S
O626 Tb601 2.484 1_545 S
O626 C611 1.248 . S
O627 Tb601 2.440 . S
O627 C611 1.266 1_565 S
O628 Tb600 2.325 . S
O628 Tb601 2.658 1_545 S
O628 C618 1.281 . S
O629 Tb601 2.409 . S
O629 C618 1.254 1_565 S
O630 Tb601 2.378 1_545 S
O630 C619 1.236 . S
O631 Tb600 2.341 . S
O631 C619 1.266 . S
H632 C604 0.939 . S
H633 C605 0.931 . S
H634 C607 0.933 . S
H635 C608 0.930 . S
H636 C613 0.929 . S
H637 C614 0.931 . S
H638 C616 0.930 . S
H639 C617 0.930 . S
Tb640 C642 2.809 . S
Tb640 O660 2.484 . S
Tb640 O661 2.440 . S
Tb640 O662 2.658 . S
Tb640 O663 2.409 . S
Tb640 O664 2.378 . S
Tb640 O668 2.325 . S
Tb640 O671 2.341 . S
Tb641 C651 2.809 . S
Tb641 O662 2.325 . S
Tb641 O665 2.341 . S
Tb641 O666 2.484 . S
Tb641 O667 2.440 . S
Tb641 O668 2.658 . S
Tb641 O669 2.409 . S
Tb641 O670 2.378 . S
C642 Tb640 2.809 . S
C642 C643 1.514 . S
C642 O660 1.248 . S
C642 O661 1.266 . S
C643 C642 1.514 . S
C643 C644 1.359 . S
C643 C648 1.348 . S
C644 C643 1.359 . S
C644 C645 1.380 . S
C644 H672 0.929 . S
C645 C644 1.380 . S
C645 C646 1.347 . S
C645 H673 0.931 . S
C646 C645 1.347 . S
C646 C647 1.369 . S
C647 C646 1.369 . S
C647 C648 1.408 . S
C647 H674 0.930 . S
C648 C643 1.348 . S
C648 C647 1.408 . S
C648 H675 0.930 . S
C649 O662 1.281 . S
C649 O663 1.254 . S
C650 O664 1.236 . S
C650 O665 1.266 . S
C651 Tb641 2.809 . S
C651 C652 1.514 . S
C651 O666 1.248 . S
C651 O667 1.266 . S
C652 C651 1.514 . S
C652 C653 1.359 . S
C652 C657 1.348 . S
C653 C652 1.359 . S
C653 C654 1.380 . S
C653 H676 0.929 . S
C654 C653 1.380 . S
C654 C655 1.347 . S
C654 H677 0.931 . S
C655 C654 1.347 . S
C655 C656 1.369 . S
C656 C655 1.369 . S
C656 C657 1.408 . S
C656 H678 0.930 . S
C657 C652 1.348 . S
C657 C656 1.408 . S
C657 H679 0.930 . S
C658 O668 1.281 . S
C658 O669 1.254 . S
C659 O670 1.236 . S
C659 O671 1.266 . S
O660 Tb640 2.484 . S
O660 C642 1.248 . S
O661 Tb640 2.440 . S
O661 C642 1.266 . S
O662 Tb640 2.658 . S
O662 Tb641 2.325 . S
O662 C649 1.281 . S
O663 Tb640 2.409 . S
O663 C649 1.254 . S
O664 Tb640 2.378 . S
O664 C650 1.236 . S
O665 Tb641 2.341 . S
O665 C650 1.266 . S
O666 Tb641 2.484 . S
O666 C651 1.248 . S
O667 Tb641 2.440 . S
O667 C651 1.266 . S
O668 Tb640 2.325 . S
O668 Tb641 2.658 . S
O668 C658 1.281 . S
O669 Tb641 2.409 . S
O669 C658 1.254 . S
O670 Tb641 2.378 . S
O670 C659 1.236 . S
O671 Tb640 2.341 . S
O671 C659 1.266 . S
H672 C644 0.929 . S
H673 C645 0.931 . S
H674 C647 0.930 . S
H675 C648 0.930 . S
H676 C653 0.929 . S
H677 C654 0.931 . S
H678 C656 0.930 . S
H679 C657 0.930 . S
Tb680 C682 2.809 . S
Tb680 O700 2.484 . S
Tb680 O701 2.440 . S
Tb680 O702 2.658 . S
Tb680 O703 2.409 . S
Tb680 O704 2.378 . S
Tb680 O708 2.325 . S
Tb680 O711 2.341 . S
Tb681 C691 2.809 . S
Tb681 O702 2.325 . S
Tb681 O705 2.341 . S
Tb681 O706 2.484 . S
Tb681 O707 2.440 . S
Tb681 O708 2.658 . S
Tb681 O709 2.409 . S
Tb681 O710 2.378 . S
C682 Tb680 2.809 . S
C682 C683 1.514 . S
C682 O700 1.248 . S
C682 O701 1.266 . S
C683 C682 1.514 . S
C683 C684 1.359 . S
C683 C688 1.348 . S
C684 C683 1.359 . S
C684 C685 1.380 1_655 S
C684 H712 0.929 . S
C685 C684 1.380 1_455 S
C685 C686 1.347 . S
C685 H713 0.931 . S
C686 C685 1.347 . S
C686 C687 1.369 . S
C687 C686 1.369 . S
C687 C688 1.408 1_455 S
C687 H714 0.930 . S
C688 C683 1.348 . S
C688 C687 1.408 1_655 S
C688 H715 0.930 . S
C689 O702 1.281 . S
C689 O703 1.254 . S
C690 O704 1.236 . S
C690 O705 1.266 . S
C691 Tb681 2.809 . S
C691 C692 1.514 . S
C691 O706 1.248 . S
C691 O707 1.266 . S
C692 C691 1.514 . S
C692 C693 1.359 . S
C692 C697 1.348 . S
C693 C692 1.359 . S
C693 C694 1.380 . S
C693 H716 0.929 . S
C694 C693 1.380 . S
C694 C695 1.347 . S
C694 H717 0.931 . S
C695 C694 1.347 . S
C695 C696 1.369 . S
C696 C695 1.369 . S
C696 C697 1.408 . S
C696 H718 0.930 . S
C697 C692 1.348 . S
C697 C696 1.408 . S
C697 H719 0.930 . S
C698 O708 1.281 . S
C698 O709 1.254 . S
C699 O710 1.236 . S
C699 O711 1.266 . S
O700 Tb680 2.484 . S
O700 C682 1.248 . S
O701 Tb680 2.440 . S
O701 C682 1.266 . S
O702 Tb680 2.658 . S
O702 Tb681 2.325 . S
O702 C689 1.281 . S
O703 Tb680 2.409 . S
O703 C689 1.254 . S
O704 Tb680 2.378 . S
O704 C690 1.236 . S
O705 Tb681 2.341 . S
O705 C690 1.266 . S
O706 Tb681 2.484 . S
O706 C691 1.248 . S
O707 Tb681 2.440 . S
O707 C691 1.266 . S
O708 Tb680 2.325 . S
O708 Tb681 2.658 . S
O708 C698 1.281 . S
O709 Tb681 2.409 . S
O709 C698 1.254 . S
O710 Tb681 2.378 . S
O710 C699 1.236 . S
O711 Tb680 2.341 . S
O711 C699 1.266 . S
H712 C684 0.929 . S
H713 C685 0.931 . S
H714 C687 0.930 . S
H715 C688 0.930 . S
H716 C693 0.929 . S
H717 C694 0.931 . S
H718 C696 0.930 . S
H719 C697 0.930 . S
Tb720 C722 2.809 . S
Tb720 O740 2.484 . S
Tb720 O741 2.440 . S
Tb720 O742 2.658 . S
Tb720 O743 2.409 . S
Tb720 O744 2.378 . S
Tb720 O748 2.325 . S
Tb720 O751 2.341 . S
Tb721 C731 2.809 . S
Tb721 O742 2.325 . S
Tb721 O745 2.341 . S
Tb721 O746 2.484 . S
Tb721 O747 2.440 . S
Tb721 O748 2.658 . S
Tb721 O749 2.409 . S
Tb721 O750 2.378 . S
C722 Tb720 2.809 . S
C722 C723 1.514 . S
C722 O740 1.248 . S
C722 O741 1.266 . S
C723 C722 1.514 . S
C723 C724 1.359 . S
C723 C728 1.348 . S
C724 C723 1.359 . S
C724 C725 1.380 . S
C724 H752 0.929 . S
C725 C724 1.380 . S
C725 C726 1.347 . S
C725 H753 0.931 . S
C726 C725 1.347 . S
C726 C727 1.369 . S
C727 C726 1.369 . S
C727 C728 1.408 . S
C727 H754 0.930 . S
C728 C723 1.348 . S
C728 C727 1.408 . S
C728 H755 0.930 . S
C729 O742 1.281 . S
C729 O743 1.254 . S
C730 O744 1.236 . S
C730 O745 1.266 . S
C731 Tb721 2.809 . S
C731 C732 1.514 . S
C731 O746 1.248 . S
C731 O747 1.266 . S
C732 C731 1.514 . S
C732 C733 1.359 . S
C732 C737 1.348 . S
C733 C732 1.359 . S
C733 C734 1.380 . S
C733 H756 0.929 . S
C734 C733 1.380 . S
C734 C735 1.347 . S
C734 H757 0.931 . S
C735 C734 1.347 . S
C735 C736 1.369 . S
C736 C735 1.369 . S
C736 C737 1.408 . S
C736 H758 0.930 . S
C737 C732 1.348 . S
C737 C736 1.408 . S
C737 H759 0.930 . S
C738 O748 1.281 . S
C738 O749 1.254 . S
C739 O750 1.236 . S
C739 O751 1.266 . S
O740 Tb720 2.484 . S
O740 C722 1.248 . S
O741 Tb720 2.440 . S
O741 C722 1.266 . S
O742 Tb720 2.658 . S
O742 Tb721 2.325 . S
O742 C729 1.281 . S
O743 Tb720 2.409 . S
O743 C729 1.254 . S
O744 Tb720 2.378 . S
O744 C730 1.236 . S
O745 Tb721 2.341 . S
O745 C730 1.266 . S
O746 Tb721 2.484 . S
O746 C731 1.248 . S
O747 Tb721 2.440 . S
O747 C731 1.266 . S
O748 Tb720 2.325 . S
O748 Tb721 2.658 . S
O748 C738 1.281 . S
O749 Tb721 2.409 . S
O749 C738 1.254 . S
O750 Tb721 2.378 . S
O750 C739 1.236 . S
O751 Tb720 2.341 . S
O751 C739 1.266 . S
H752 C724 0.929 . S
H753 C725 0.931 . S
H754 C727 0.930 . S
H755 C728 0.930 . S
H756 C733 0.929 . S
H757 C734 0.931 . S
H758 C736 0.930 . S
H759 C737 0.930 . S
Tb760 C762 2.809 . S
Tb760 O780 2.484 . S
Tb760 O781 2.440 . S
Tb760 O782 2.658 . S
Tb760 O783 2.409 . S
Tb760 O784 2.378 . S
Tb760 O788 2.325 . S
Tb760 O791 2.341 . S
Tb761 C771 2.809 . S
Tb761 O782 2.325 . S
Tb761 O785 2.341 . S
Tb761 O786 2.484 . S
Tb761 O787 2.440 . S
Tb761 O788 2.658 . S
Tb761 O789 2.409 . S
Tb761 O790 2.378 . S
C762 Tb760 2.809 . S
C762 C763 1.514 . S
C762 O780 1.248 . S
C762 O781 1.266 . S
C763 C762 1.514 . S
C763 C764 1.359 . S
C763 C768 1.348 . S
C764 C763 1.359 . S
C764 C765 1.380 1_655 S
C764 H792 0.929 . S
C765 C764 1.380 1_455 S
C765 C766 1.347 . S
C765 H793 0.931 . S
C766 C765 1.347 . S
C766 C767 1.369 . S
C767 C766 1.369 . S
C767 C768 1.408 1_455 S
C767 H794 0.930 . S
C768 C763 1.348 . S
C768 C767 1.408 1_655 S
C768 H795 0.930 . S
C769 O782 1.281 . S
C769 O783 1.254 . S
C770 O784 1.236 . S
C770 O785 1.266 . S
C771 Tb761 2.809 . S
C771 C772 1.514 . S
C771 O786 1.248 . S
C771 O787 1.266 . S
C772 C771 1.514 . S
C772 C773 1.359 . S
C772 C777 1.348 . S
C773 C772 1.359 . S
C773 C774 1.380 . S
C773 H796 0.929 . S
C774 C773 1.380 . S
C774 C775 1.347 . S
C774 H797 0.931 . S
C775 C774 1.347 . S
C775 C776 1.369 . S
C776 C775 1.369 . S
C776 C777 1.408 . S
C776 H798 0.930 . S
C777 C772 1.348 . S
C777 C776 1.408 . S
C777 H799 0.930 . S
C778 O788 1.281 . S
C778 O789 1.254 . S
C779 O790 1.236 . S
C779 O791 1.266 . S
O780 Tb760 2.484 . S
O780 C762 1.248 . S
O781 Tb760 2.440 . S
O781 C762 1.266 . S
O782 Tb760 2.658 . S
O782 Tb761 2.325 . S
O782 C769 1.281 . S
O783 Tb760 2.409 . S
O783 C769 1.254 . S
O784 Tb760 2.378 . S
O784 C770 1.236 . S
O785 Tb761 2.341 . S
O785 C770 1.266 . S
O786 Tb761 2.484 . S
O786 C771 1.248 . S
O787 Tb761 2.440 . S
O787 C771 1.266 . S
O788 Tb760 2.325 . S
O788 Tb761 2.658 . S
O788 C778 1.281 . S
O789 Tb761 2.409 . S
O789 C778 1.254 . S
O790 Tb761 2.378 . S
O790 C779 1.236 . S
O791 Tb760 2.341 . S
O791 C779 1.266 . S
H792 C764 0.929 . S
H793 C765 0.931 . S
H794 C767 0.930 . S
H795 C768 0.930 . S
H796 C773 0.929 . S
H797 C774 0.931 . S
H798 C776 0.930 . S
H799 C777 0.930 . S
Tb800 C802 2.809 . S
Tb800 O820 2.484 . S
Tb800 O821 2.440 . S
Tb800 O822 2.658 . S
Tb800 O823 2.409 . S
Tb800 O824 2.378 . S
Tb800 O828 2.325 . S
Tb800 O831 2.341 . S
Tb801 C811 2.809 . S
Tb801 O822 2.325 . S
Tb801 O825 2.341 . S
Tb801 O826 2.484 . S
Tb801 O827 2.440 . S
Tb801 O828 2.658 . S
Tb801 O829 2.409 . S
Tb801 O830 2.378 . S
C802 Tb800 2.809 . S
C802 C803 1.514 . S
C802 O820 1.248 . S
C802 O821 1.266 . S
C803 C802 1.514 . S
C803 C804 1.359 . S
C803 C808 1.348 . S
C804 C803 1.359 . S
C804 C805 1.380 . S
C804 H832 0.929 . S
C805 C804 1.380 . S
C805 C806 1.347 . S
C805 H833 0.931 . S
C806 C805 1.347 . S
C806 C807 1.369 . S
C807 C806 1.369 . S
C807 C808 1.408 . S
C807 H834 0.930 . S
C808 C803 1.348 . S
C808 C807 1.408 . S
C808 H835 0.930 . S
C809 O822 1.281 . S
C809 O823 1.254 . S
C810 O824 1.236 . S
C810 O825 1.266 . S
C811 Tb801 2.809 . S
C811 C812 1.514 . S
C811 O826 1.248 . S
C811 O827 1.266 . S
C812 C811 1.514 . S
C812 C813 1.359 . S
C812 C817 1.348 . S
C813 C812 1.359 . S
C813 C814 1.380 . S
C813 H836 0.929 . S
C814 C813 1.380 . S
C814 C815 1.347 . S
C814 H837 0.931 . S
C815 C814 1.347 . S
C815 C816 1.369 . S
C816 C815 1.369 . S
C816 C817 1.408 . S
C816 H838 0.930 . S
C817 C812 1.348 . S
C817 C816 1.408 . S
C817 H839 0.930 . S
C818 O828 1.281 . S
C818 O829 1.254 . S
C819 O830 1.236 . S
C819 O831 1.266 . S
O820 Tb800 2.484 . S
O820 C802 1.248 . S
O821 Tb800 2.440 . S
O821 C802 1.266 . S
O822 Tb800 2.658 . S
O822 Tb801 2.325 . S
O822 C809 1.281 . S
O823 Tb800 2.409 . S
O823 C809 1.254 . S
O824 Tb800 2.378 . S
O824 C810 1.236 . S
O825 Tb801 2.341 . S
O825 C810 1.266 . S
O826 Tb801 2.484 . S
O826 C811 1.248 . S
O827 Tb801 2.440 . S
O827 C811 1.266 . S
O828 Tb800 2.325 . S
O828 Tb801 2.658 . S
O828 C818 1.281 . S
O829 Tb801 2.409 . S
O829 C818 1.254 . S
O830 Tb801 2.378 . S
O830 C819 1.236 . S
O831 Tb800 2.341 . S
O831 C819 1.266 . S
H832 C804 0.929 . S
H833 C805 0.931 . S
H834 C807 0.930 . S
H835 C808 0.930 . S
H836 C813 0.929 . S
H837 C814 0.931 . S
H838 C816 0.930 . S
H839 C817 0.930 . S
Tb840 C842 2.809 . S
Tb840 O860 2.484 . S
Tb840 O861 2.440 . S
Tb840 O862 2.658 . S
Tb840 O863 2.409 . S
Tb840 O864 2.378 . S
Tb840 O868 2.325 . S
Tb840 O871 2.341 . S
Tb841 C851 2.809 . S
Tb841 O862 2.325 . S
Tb841 O865 2.341 . S
Tb841 O866 2.484 . S
Tb841 O867 2.440 . S
Tb841 O868 2.658 . S
Tb841 O869 2.409 . S
Tb841 O870 2.378 . S
C842 Tb840 2.809 . S
C842 C843 1.514 . S
C842 O860 1.248 . S
C842 O861 1.266 . S
C843 C842 1.514 . S
C843 C844 1.359 . S
C843 C848 1.348 . S
C844 C843 1.359 . S
C844 C845 1.380 . S
C844 H872 0.929 . S
C845 C844 1.380 . S
C845 C846 1.347 . S
C845 H873 0.931 . S
C846 C845 1.347 . S
C846 C847 1.369 . S
C847 C846 1.369 . S
C847 C848 1.408 . S
C847 H874 0.930 . S
C848 C843 1.348 . S
C848 C847 1.408 . S
C848 H875 0.930 . S
C849 O862 1.281 . S
C849 O863 1.254 . S
C850 O864 1.236 . S
C850 O865 1.266 . S
C851 Tb841 2.809 . S
C851 C852 1.514 . S
C851 O866 1.248 . S
C851 O867 1.266 . S
C852 C851 1.514 . S
C852 C853 1.359 . S
C852 C857 1.348 . S
C853 C852 1.359 . S
C853 C854 1.380 1_455 S
C853 H876 0.929 . S
C854 C853 1.380 1_655 S
C854 C855 1.347 . S
C854 H877 0.931 . S
C855 C854 1.347 . S
C855 C856 1.369 . S
C856 C855 1.369 . S
C856 C857 1.408 1_655 S
C856 H878 0.930 . S
C857 C852 1.348 . S
C857 C856 1.408 1_455 S
C857 H879 0.930 . S
C858 O868 1.281 . S
C858 O869 1.254 . S
C859 O870 1.236 . S
C859 O871 1.266 . S
O860 Tb840 2.484 . S
O860 C842 1.248 . S
O861 Tb840 2.440 . S
O861 C842 1.266 . S
O862 Tb840 2.658 . S
O862 Tb841 2.325 . S
O862 C849 1.281 . S
O863 Tb840 2.409 . S
O863 C849 1.254 . S
O864 Tb840 2.378 . S
O864 C850 1.236 . S
O865 Tb841 2.341 . S
O865 C850 1.266 . S
O866 Tb841 2.484 . S
O866 C851 1.248 . S
O867 Tb841 2.440 . S
O867 C851 1.266 . S
O868 Tb840 2.325 . S
O868 Tb841 2.658 . S
O868 C858 1.281 . S
O869 Tb841 2.409 . S
O869 C858 1.254 . S
O870 Tb841 2.378 . S
O870 C859 1.236 . S
O871 Tb840 2.341 . S
O871 C859 1.266 . S
H872 C844 0.929 . S
H873 C845 0.931 . S
H874 C847 0.930 . S
H875 C848 0.930 . S
H876 C853 0.929 . S
H877 C854 0.931 . S
H878 C856 0.930 . S
H879 C857 0.930 . S
Tb880 C882 2.809 . S
Tb880 O900 2.484 . S
Tb880 O901 2.440 . S
Tb880 O902 2.658 . S
Tb880 O903 2.409 . S
Tb880 O904 2.378 . S
Tb880 O908 2.325 . S
Tb880 O911 2.341 . S
Tb881 C891 2.809 . S
Tb881 O902 2.325 . S
Tb881 O905 2.341 . S
Tb881 O906 2.484 . S
Tb881 O907 2.440 . S
Tb881 O908 2.658 . S
Tb881 O909 2.409 . S
Tb881 O910 2.378 . S
C882 Tb880 2.809 . S
C882 C883 1.514 . S
C882 O900 1.248 . S
C882 O901 1.266 . S
C883 C882 1.514 . S
C883 C884 1.359 . S
C883 C888 1.348 . S
C884 C883 1.359 . S
C884 C885 1.380 . S
C884 H912 0.929 . S
C885 C884 1.380 . S
C885 C886 1.347 . S
C885 H913 0.931 . S
C886 C885 1.347 . S
C886 C887 1.369 . S
C887 C886 1.369 . S
C887 C888 1.408 . S
C887 H914 0.930 . S
C888 C883 1.348 . S
C888 C887 1.408 . S
C888 H915 0.930 . S
C889 O902 1.281 . S
C889 O903 1.254 . S
C890 O904 1.236 . S
C890 O905 1.266 . S
C891 Tb881 2.809 . S
C891 C892 1.514 . S
C891 O906 1.248 . S
C891 O907 1.266 . S
C892 C891 1.514 . S
C892 C893 1.359 . S
C892 C897 1.348 . S
C893 C892 1.359 . S
C893 C894 1.380 . S
C893 H916 0.929 . S
C894 C893 1.380 . S
C894 C895 1.347 . S
C894 H917 0.931 . S
C895 C894 1.347 . S
C895 C896 1.369 . S
C896 C895 1.369 . S
C896 C897 1.408 . S
C896 H918 0.930 . S
C897 C892 1.348 . S
C897 C896 1.408 . S
C897 H919 0.930 . S
C898 O908 1.281 . S
C898 O909 1.254 . S
C899 O910 1.236 . S
C899 O911 1.266 . S
O900 Tb880 2.484 . S
O900 C882 1.248 . S
O901 Tb880 2.440 . S
O901 C882 1.266 . S
O902 Tb880 2.658 . S
O902 Tb881 2.325 . S
O902 C889 1.281 . S
O903 Tb880 2.409 . S
O903 C889 1.254 . S
O904 Tb880 2.378 . S
O904 C890 1.236 . S
O905 Tb881 2.341 . S
O905 C890 1.266 . S
O906 Tb881 2.484 . S
O906 C891 1.248 . S
O907 Tb881 2.440 . S
O907 C891 1.266 . S
O908 Tb880 2.325 . S
O908 Tb881 2.658 . S
O908 C898 1.281 . S
O909 Tb881 2.409 . S
O909 C898 1.254 . S
O910 Tb881 2.378 . S
O910 C899 1.236 . S
O911 Tb880 2.341 . S
O911 C899 1.266 . S
H912 C884 0.929 . S
H913 C885 0.931 . S
H914 C887 0.930 . S
H915 C888 0.930 . S
H916 C893 0.929 . S
H917 C894 0.931 . S
H918 C896 0.930 . S
H919 C897 0.930 . S
Tb920 C922 2.809 . S
Tb920 O940 2.484 . S
Tb920 O941 2.440 . S
Tb920 O942 2.658 . S
Tb920 O943 2.409 . S
Tb920 O944 2.378 . S
Tb920 O948 2.325 . S
Tb920 O951 2.341 . S
Tb921 C931 2.809 . S
Tb921 O942 2.325 . S
Tb921 O945 2.341 . S
Tb921 O946 2.484 . S
Tb921 O947 2.440 . S
Tb921 O948 2.658 . S
Tb921 O949 2.409 . S
Tb921 O950 2.378 . S
C922 Tb920 2.809 . S
C922 C923 1.514 . S
C922 O940 1.248 . S
C922 O941 1.266 . S
C923 C922 1.514 . S
C923 C924 1.359 . S
C923 C928 1.348 . S
C924 C923 1.359 . S
C924 C925 1.380 . S
C924 H952 0.929 . S
C925 C924 1.380 . S
C925 C926 1.347 . S
C925 H953 0.931 . S
C926 C925 1.347 . S
C926 C927 1.369 . S
C927 C926 1.369 . S
C927 C928 1.408 . S
C927 H954 0.930 . S
C928 C923 1.348 . S
C928 C927 1.408 . S
C928 H955 0.930 . S
C929 O942 1.281 . S
C929 O943 1.254 . S
C930 O944 1.236 . S
C930 O945 1.266 . S
C931 Tb921 2.809 . S
C931 C932 1.514 . S
C931 O946 1.248 . S
C931 O947 1.266 . S
C932 C931 1.514 . S
C932 C933 1.359 . S
C932 C937 1.348 . S
C933 C932 1.359 . S
C933 C934 1.380 1_455 S
C933 H956 0.929 . S
C934 C933 1.380 1_655 S
C934 C935 1.347 . S
C934 H957 0.931 . S
C935 C934 1.347 . S
C935 C936 1.369 . S
C936 C935 1.369 . S
C936 C937 1.408 1_655 S
C936 H958 0.930 . S
C937 C932 1.348 . S
C937 C936 1.408 1_455 S
C937 H959 0.930 . S
C938 O948 1.281 . S
C938 O949 1.254 . S
C939 O950 1.236 . S
C939 O951 1.266 . S
O940 Tb920 2.484 . S
O940 C922 1.248 . S
O941 Tb920 2.440 . S
O941 C922 1.266 . S
O942 Tb920 2.658 . S
O942 Tb921 2.325 . S
O942 C929 1.281 . S
O943 Tb920 2.409 . S
O943 C929 1.254 . S
O944 Tb920 2.378 . S
O944 C930 1.236 . S
O945 Tb921 2.341 . S
O945 C930 1.266 . S
O946 Tb921 2.484 . S
O946 C931 1.248 . S
O947 Tb921 2.440 . S
O947 C931 1.266 . S
O948 Tb920 2.325 . S
O948 Tb921 2.658 . S
O948 C938 1.281 . S
O949 Tb921 2.409 . S
O949 C938 1.254 . S
O950 Tb921 2.378 . S
O950 C939 1.236 . S
O951 Tb920 2.341 . S
O951 C939 1.266 . S
H952 C924 0.929 . S
H953 C925 0.931 . S
H954 C927 0.930 . S
H955 C928 0.930 . S
H956 C933 0.929 . S
H957 C934 0.931 . S
H958 C936 0.930 . S
H959 C937 0.930 . S
Tb960 C962 2.809 1_545 S
Tb960 O980 2.484 1_545 S
Tb960 O981 2.440 . S
Tb960 O982 2.658 1_545 S
Tb960 O983 2.409 . S
Tb960 O984 2.378 1_545 S
Tb960 O988 2.325 1_545 S
Tb960 O991 2.341 . S
Tb961 C971 2.809 . S
Tb961 O982 2.325 . S
Tb961 O985 2.341 . S
Tb961 O986 2.484 . S
Tb961 O987 2.440 . S
Tb961 O988 2.658 . S
Tb961 O989 2.409 . S
Tb961 O990 2.378 1_565 S
C962 Tb960 2.809 1_565 S
C962 C963 1.514 . S
C962 O980 1.248 . S
C962 O981 1.266 1_565 S
C963 C962 1.514 . S
C963 C964 1.359 . S
C963 C968 1.348 . S
C964 C963 1.359 . S
C964 C965 1.380 . S
C964 H992 0.929 . S
C965 C964 1.380 . S
C965 C966 1.347 . S
C965 H993 0.931 . S
C966 C965 1.347 . S
C966 C967 1.369 . S
C967 C966 1.369 . S
C967 C968 1.408 . S
C967 H994 0.930 . S
C968 C963 1.348 . S
C968 C967 1.408 . S
C968 H995 0.930 . S
C969 O982 1.281 . S
C969 O983 1.254 1_565 S
C970 O984 1.236 . S
C970 O985 1.266 . S
C971 Tb961 2.809 . S
C971 C972 1.514 . S
C971 O986 1.248 . S
C971 O987 1.266 . S
C972 C971 1.514 . S
C972 C973 1.359 1_565 S
C972 C977 1.348 . S
C973 C972 1.359 1_545 S
C973 C974 1.380 . S
C973 H996 0.929 . S
C974 C973 1.380 . S
C974 C975 1.347 . S
C974 H997 0.931 . S
C975 C974 1.347 . S
C975 C976 1.360 1_545 S
C976 C975 1.360 1_565 S
C976 C977 1.416 . S
C976 H998 0.933 . S
C977 C972 1.348 . S
C977 C976 1.416 . S
C977 H999 0.930 . S
C978 O988 1.281 . S
C978 O989 1.254 . S
C979 O990 1.236 . S
C979 O991 1.266 . S
O980 Tb960 2.484 1_565 S
O980 C962 1.248 . S
O981 Tb960 2.440 . S
O981 C962 1.266 1_545 S
O982 Tb960 2.658 1_565 S
O982 Tb961 2.325 . S
O982 C969 1.281 . S
O983 Tb960 2.409 . S
O983 C969 1.254 1_545 S
O984 Tb960 2.378 1_565 S
O984 C970 1.236 . S
O985 Tb961 2.341 . S
O985 C970 1.266 . S
O986 Tb961 2.484 . S
O986 C971 1.248 . S
O987 Tb961 2.440 . S
O987 C971 1.266 . S
O988 Tb960 2.325 1_565 S
O988 Tb961 2.658 . S
O988 C978 1.281 . S
O989 Tb961 2.409 . S
O989 C978 1.254 . S
O990 Tb961 2.378 1_545 S
O990 C979 1.236 . S
O991 Tb960 2.341 . S
O991 C979 1.266 . S
H992 C964 0.929 . S
H993 C965 0.931 . S
H994 C967 0.930 . S
H995 C968 0.930 . S
H996 C973 0.929 . S
H997 C974 0.931 . S
H998 C976 0.933 . S
H999 C977 0.930 . S
Tb1000 C1002 2.809 . S
Tb1000 O1020 2.484 . S
Tb1000 O1021 2.440 . S
Tb1000 O1022 2.658 . S
Tb1000 O1023 2.409 . S
Tb1000 O1024 2.378 . S
Tb1000 O1028 2.325 . S
Tb1000 O1031 2.341 . S
Tb1001 C1011 2.809 . S
Tb1001 O1022 2.325 . S
Tb1001 O1025 2.341 . S
Tb1001 O1026 2.484 . S
Tb1001 O1027 2.440 . S
Tb1001 O1028 2.658 . S
Tb1001 O1029 2.409 . S
Tb1001 O1030 2.378 . S
C1002 Tb1000 2.809 . S
C1002 C1003 1.514 . S
C1002 O1020 1.248 . S
C1002 O1021 1.266 . S
C1003 C1002 1.514 . S
C1003 C1004 1.359 . S
C1003 C1008 1.348 . S
C1004 C1003 1.359 . S
C1004 C1005 1.380 1_655 S
C1004 H1032 0.929 . S
C1005 C1004 1.380 1_455 S
C1005 C1006 1.347 . S
C1005 H1033 0.931 . S
C1006 C1005 1.347 . S
C1006 C1007 1.369 . S
C1007 C1006 1.369 . S
C1007 C1008 1.408 1_455 S
C1007 H1034 0.930 . S
C1008 C1003 1.348 . S
C1008 C1007 1.408 1_655 S
C1008 H1035 0.930 . S
C1009 O1022 1.281 . S
C1009 O1023 1.254 . S
C1010 O1024 1.236 . S
C1010 O1025 1.266 . S
C1011 Tb1001 2.809 . S
C1011 C1012 1.514 . S
C1011 O1026 1.248 . S
C1011 O1027 1.266 . S
C1012 C1011 1.514 . S
C1012 C1013 1.359 . S
C1012 C1017 1.348 . S
C1013 C1012 1.359 . S
C1013 C1014 1.380 . S
C1013 H1036 0.929 . S
C1014 C1013 1.380 . S
C1014 C1015 1.347 . S
C1014 H1037 0.931 . S
C1015 C1014 1.347 . S
C1015 C1016 1.369 . S
C1016 C1015 1.369 . S
C1016 C1017 1.408 . S
C1016 H1038 0.930 . S
C1017 C1012 1.348 . S
C1017 C1016 1.408 . S
C1017 H1039 0.930 . S
C1018 O1028 1.281 . S
C1018 O1029 1.254 . S
C1019 O1030 1.236 . S
C1019 O1031 1.266 . S
O1020 Tb1000 2.484 . S
O1020 C1002 1.248 . S
O1021 Tb1000 2.440 . S
O1021 C1002 1.266 . S
O1022 Tb1000 2.658 . S
O1022 Tb1001 2.325 . S
O1022 C1009 1.281 . S
O1023 Tb1000 2.409 . S
O1023 C1009 1.254 . S
O1024 Tb1000 2.378 . S
O1024 C1010 1.236 . S
O1025 Tb1001 2.341 . S
O1025 C1010 1.266 . S
O1026 Tb1001 2.484 . S
O1026 C1011 1.248 . S
O1027 Tb1001 2.440 . S
O1027 C1011 1.266 . S
O1028 Tb1000 2.325 . S
O1028 Tb1001 2.658 . S
O1028 C1018 1.281 . S
O1029 Tb1001 2.409 . S
O1029 C1018 1.254 . S
O1030 Tb1001 2.378 . S
O1030 C1019 1.236 . S
O1031 Tb1000 2.341 . S
O1031 C1019 1.266 . S
H1032 C1004 0.929 . S
H1033 C1005 0.931 . S
H1034 C1007 0.930 . S
H1035 C1008 0.930 . S
H1036 C1013 0.929 . S
H1037 C1014 0.931 . S
H1038 C1016 0.930 . S
H1039 C1017 0.930 . S
Tb1040 C1042 2.809 . S
Tb1040 O1060 2.484 . S
Tb1040 O1061 2.440 . S
Tb1040 O1062 2.658 . S
Tb1040 O1063 2.409 . S
Tb1040 O1064 2.378 . S
Tb1040 O1068 2.325 . S
Tb1040 O1071 2.341 . S
Tb1041 C1051 2.809 . S
Tb1041 O1062 2.325 . S
Tb1041 O1065 2.341 . S
Tb1041 O1066 2.484 . S
Tb1041 O1067 2.440 . S
Tb1041 O1068 2.658 . S
Tb1041 O1069 2.409 . S
Tb1041 O1070 2.378 . S
C1042 Tb1040 2.809 . S
C1042 C1043 1.514 . S
C1042 O1060 1.248 . S
C1042 O1061 1.266 . S
C1043 C1042 1.514 . S
C1043 C1044 1.359 . S
C1043 C1048 1.348 . S
C1044 C1043 1.359 . S
C1044 C1045 1.380 . S
C1044 H1072 0.929 . S
C1045 C1044 1.380 . S
C1045 C1046 1.347 . S
C1045 H1073 0.931 . S
C1046 C1045 1.347 . S
C1046 C1047 1.369 . S
C1047 C1046 1.369 . S
C1047 C1048 1.408 . S
C1047 H1074 0.930 . S
C1048 C1043 1.348 . S
C1048 C1047 1.408 . S
C1048 H1075 0.930 . S
C1049 O1062 1.281 . S
C1049 O1063 1.254 . S
C1050 O1064 1.236 . S
C1050 O1065 1.266 . S
C1051 Tb1041 2.809 . S
C1051 C1052 1.514 . S
C1051 O1066 1.248 . S
C1051 O1067 1.266 . S
C1052 C1051 1.514 . S
C1052 C1053 1.359 . S
C1052 C1057 1.348 . S
C1053 C1052 1.359 . S
C1053 C1054 1.380 . S
C1053 H1076 0.929 . S
C1054 C1053 1.380 . S
C1054 C1055 1.347 . S
C1054 H1077 0.931 . S
C1055 C1054 1.347 . S
C1055 C1056 1.369 . S
C1056 C1055 1.369 . S
C1056 C1057 1.408 . S
C1056 H1078 0.930 . S
C1057 C1052 1.348 . S
C1057 C1056 1.408 . S
C1057 H1079 0.930 . S
C1058 O1068 1.281 . S
C1058 O1069 1.254 . S
C1059 O1070 1.236 . S
C1059 O1071 1.266 . S
O1060 Tb1040 2.484 . S
O1060 C1042 1.248 . S
O1061 Tb1040 2.440 . S
O1061 C1042 1.266 . S
O1062 Tb1040 2.658 . S
O1062 Tb1041 2.325 . S
O1062 C1049 1.281 . S
O1063 Tb1040 2.409 . S
O1063 C1049 1.254 . S
O1064 Tb1040 2.378 . S
O1064 C1050 1.236 . S
O1065 Tb1041 2.341 . S
O1065 C1050 1.266 . S
O1066 Tb1041 2.484 . S
O1066 C1051 1.248 . S
O1067 Tb1041 2.440 . S
O1067 C1051 1.266 . S
O1068 Tb1040 2.325 . S
O1068 Tb1041 2.658 . S
O1068 C1058 1.281 . S
O1069 Tb1041 2.409 . S
O1069 C1058 1.254 . S
O1070 Tb1041 2.378 . S
O1070 C1059 1.236 . S
O1071 Tb1040 2.341 . S
O1071 C1059 1.266 . S
H1072 C1044 0.929 . S
H1073 C1045 0.931 . S
H1074 C1047 0.930 . S
H1075 C1048 0.930 . S
H1076 C1053 0.929 . S
H1077 C1054 0.931 . S
H1078 C1056 0.930 . S
H1079 C1057 0.930 . S
Tb1080 C1082 2.809 1_545 S
Tb1080 O1100 2.484 1_545 S
Tb1080 O1101 2.440 . S
Tb1080 O1102 2.658 1_545 S
Tb1080 O1103 2.409 . S
Tb1080 O1104 2.378 1_545 S
Tb1080 O1108 2.325 1_545 S
Tb1080 O1111 2.341 . S
Tb1081 C1091 2.809 . S
Tb1081 O1102 2.325 . S
Tb1081 O1105 2.341 . S
Tb1081 O1106 2.484 . S
Tb1081 O1107 2.440 . S
Tb1081 O1108 2.658 . S
Tb1081 O1109 2.409 . S
Tb1081 O1110 2.378 1_565 S
C1082 Tb1080 2.809 1_565 S
C1082 C1083 1.514 . S
C1082 O1100 1.248 . S
C1082 O1101 1.266 1_565 S
C1083 C1082 1.514 . S
C1083 C1084 1.359 . S
C1083 C1088 1.348 . S
C1084 C1083 1.359 . S
C1084 C1085 1.380 1_655 S
C1084 H1112 0.929 . S
C1085 C1084 1.380 1_455 S
C1085 C1086 1.347 . S
C1085 H1113 0.931 . S
C1086 C1085 1.347 . S
C1086 C1087 1.369 . S
C1087 C1086 1.369 . S
C1087 C1088 1.408 1_455 S
C1087 H1114 0.930 . S
C1088 C1083 1.348 . S
C1088 C1087 1.408 1_655 S
C1088 H1115 0.930 . S
C1089 O1102 1.281 . S
C1089 O1103 1.254 1_565 S
C1090 O1104 1.236 . S
C1090 O1105 1.266 . S
C1091 Tb1081 2.809 . S
C1091 C1092 1.514 . S
C1091 O1106 1.248 . S
C1091 O1107 1.266 . S
C1092 C1091 1.514 . S
C1092 C1093 1.359 1_565 S
C1092 C1097 1.348 . S
C1093 C1092 1.359 1_545 S
C1093 C1094 1.380 . S
C1093 H1116 0.929 . S
C1094 C1093 1.380 . S
C1094 C1095 1.347 . S
C1094 H1117 0.931 . S
C1095 C1094 1.347 . S
C1095 C1096 1.360 1_545 S
C1096 C1095 1.360 1_565 S
C1096 C1097 1.416 . S
C1096 H1118 0.933 . S
C1097 C1092 1.348 . S
C1097 C1096 1.416 . S
C1097 H1119 0.930 . S
C1098 O1108 1.281 . S
C1098 O1109 1.254 . S
C1099 O1110 1.236 . S
C1099 O1111 1.266 . S
O1100 Tb1080 2.484 1_565 S
O1100 C1082 1.248 . S
O1101 Tb1080 2.440 . S
O1101 C1082 1.266 1_545 S
O1102 Tb1080 2.658 1_565 S
O1102 Tb1081 2.325 . S
O1102 C1089 1.281 . S
O1103 Tb1080 2.409 . S
O1103 C1089 1.254 1_545 S
O1104 Tb1080 2.378 1_565 S
O1104 C1090 1.236 . S
O1105 Tb1081 2.341 . S
O1105 C1090 1.266 . S
O1106 Tb1081 2.484 . S
O1106 C1091 1.248 . S
O1107 Tb1081 2.440 . S
O1107 C1091 1.266 . S
O1108 Tb1080 2.325 1_565 S
O1108 Tb1081 2.658 . S
O1108 C1098 1.281 . S
O1109 Tb1081 2.409 . S
O1109 C1098 1.254 . S
O1110 Tb1081 2.378 1_545 S
O1110 C1099 1.236 . S
O1111 Tb1080 2.341 . S
O1111 C1099 1.266 . S
H1112 C1084 0.929 . S
H1113 C1085 0.931 . S
H1114 C1087 0.930 . S
H1115 C1088 0.930 . S
H1116 C1093 0.929 . S
H1117 C1094 0.931 . S
H1118 C1096 0.933 . S
H1119 C1097 0.930 . S
Tb1120 C1122 2.809 . S
Tb1120 O1140 2.484 . S
Tb1120 O1141 2.440 . S
Tb1120 O1142 2.658 . S
Tb1120 O1143 2.409 . S
Tb1120 O1144 2.378 1_545 S
Tb1120 O1148 2.325 . S
Tb1120 O1151 2.341 . S
Tb1121 C1131 2.809 1_565 S
Tb1121 O1142 2.325 1_565 S
Tb1121 O1145 2.341 . S
Tb1121 O1146 2.484 1_565 S
Tb1121 O1147 2.440 . S
Tb1121 O1148 2.658 1_565 S
Tb1121 O1149 2.409 . S
Tb1121 O1150 2.378 1_565 S
C1122 Tb1120 2.809 . S
C1122 C1123 1.514 . S
C1122 O1140 1.248 . S
C1122 O1141 1.266 . S
C1123 C1122 1.514 . S
C1123 C1124 1.359 1_545 S
C1123 C1128 1.348 . S
C1124 C1123 1.359 1_565 S
C1124 C1125 1.380 . S
C1124 H1152 0.929 . S
C1125 C1124 1.380 . S
C1125 C1126 1.347 . S
C1125 H1153 0.931 . S
C1126 C1125 1.347 . S
C1126 C1127 1.360 1_565 S
C1127 C1126 1.360 1_545 S
C1127 C1128 1.416 . S
C1127 H1154 0.933 . S
C1128 C1123 1.348 . S
C1128 C1127 1.416 . S
C1128 H1155 0.930 . S
C1129 O1142 1.281 . S
C1129 O1143 1.254 . S
C1130 O1144 1.236 . S
C1130 O1145 1.266 . S
C1131 Tb1121 2.809 1_545 S
C1131 C1132 1.514 . S
C1131 O1146 1.248 . S
C1131 O1147 1.266 1_545 S
C1132 C1131 1.514 . S
C1132 C1133 1.359 . S
C1132 C1137 1.348 . S
C1133 C1132 1.359 . S
C1133 C1134 1.380 . S
C1133 H1156 0.929 . S
C1134 C1133 1.380 . S
C1134 C1135 1.347 . S
C1134 H1157 0.931 . S
C1135 C1134 1.347 . S
C1135 C1136 1.369 . S
C1136 C1135 1.369 . S
C1136 C1137 1.408 . S
C1136 H1158 0.930 . S
C1137 C1132 1.348 . S
C1137 C1136 1.408 . S
C1137 H1159 0.930 . S
C1138 O1148 1.281 . S
C1138 O1149 1.254 1_545 S
C1139 O1150 1.236 . S
C1139 O1151 1.266 . S
O1140 Tb1120 2.484 . S
O1140 C1122 1.248 . S
O1141 Tb1120 2.440 . S
O1141 C1122 1.266 . S
O1142 Tb1120 2.658 . S
O1142 Tb1121 2.325 1_545 S
O1142 C1129 1.281 . S
O1143 Tb1120 2.409 . S
O1143 C1129 1.254 . S
O1144 Tb1120 2.378 1_565 S
O1144 C1130 1.236 . S
O1145 Tb1121 2.341 . S
O1145 C1130 1.266 . S
O1146 Tb1121 2.484 1_545 S
O1146 C1131 1.248 . S
O1147 Tb1121 2.440 . S
O1147 C1131 1.266 1_565 S
O1148 Tb1120 2.325 . S
O1148 Tb1121 2.658 1_545 S
O1148 C1138 1.281 . S
O1149 Tb1121 2.409 . S
O1149 C1138 1.254 1_565 S
O1150 Tb1121 2.378 1_545 S
O1150 C1139 1.236 . S
O1151 Tb1120 2.341 . S
O1151 C1139 1.266 . S
H1152 C1124 0.929 . S
H1153 C1125 0.931 . S
H1154 C1127 0.933 . S
H1155 C1128 0.930 . S
H1156 C1133 0.929 . S
H1157 C1134 0.931 . S
H1158 C1136 0.930 . S
H1159 C1137 0.930 . S
Tb1160 C1162 2.809 . S
Tb1160 O1180 2.484 . S
Tb1160 O1181 2.440 . S
Tb1160 O1182 2.658 . S
Tb1160 O1183 2.409 . S
Tb1160 O1184 2.378 . S
Tb1160 O1188 2.325 . S
Tb1160 O1191 2.341 . S
Tb1161 C1171 2.809 . S
Tb1161 O1182 2.325 . S
Tb1161 O1185 2.341 . S
Tb1161 O1186 2.484 . S
Tb1161 O1187 2.440 . S
Tb1161 O1188 2.658 . S
Tb1161 O1189 2.409 . S
Tb1161 O1190 2.378 . S
C1162 Tb1160 2.809 . S
C1162 C1163 1.514 . S
C1162 O1180 1.248 . S
C1162 O1181 1.266 . S
C1163 C1162 1.514 . S
C1163 C1164 1.359 . S
C1163 C1168 1.348 . S
C1164 C1163 1.359 . S
C1164 C1165 1.380 . S
C1164 H1192 0.929 . S
C1165 C1164 1.380 . S
C1165 C1166 1.347 . S
C1165 H1193 0.931 . S
C1166 C1165 1.347 . S
C1166 C1167 1.369 . S
C1167 C1166 1.369 . S
C1167 C1168 1.408 . S
C1167 H1194 0.930 . S
C1168 C1163 1.348 . S
C1168 C1167 1.408 . S
C1168 H1195 0.930 . S
C1169 O1182 1.281 . S
C1169 O1183 1.254 . S
C1170 O1184 1.236 . S
C1170 O1185 1.266 . S
C1171 Tb1161 2.809 . S
C1171 C1172 1.514 . S
C1171 O1186 1.248 . S
C1171 O1187 1.266 . S
C1172 C1171 1.514 . S
C1172 C1173 1.359 . S
C1172 C1177 1.348 . S
C1173 C1172 1.359 . S
C1173 C1174 1.380 1_455 S
C1173 H1196 0.929 . S
C1174 C1173 1.380 1_655 S
C1174 C1175 1.347 . S
C1174 H1197 0.931 . S
C1175 C1174 1.347 . S
C1175 C1176 1.369 . S
C1176 C1175 1.369 . S
C1176 C1177 1.408 1_655 S
C1176 H1198 0.930 . S
C1177 C1172 1.348 . S
C1177 C1176 1.408 1_455 S
C1177 H1199 0.930 . S
C1178 O1188 1.281 . S
C1178 O1189 1.254 . S
C1179 O1190 1.236 . S
C1179 O1191 1.266 . S
O1180 Tb1160 2.484 . S
O1180 C1162 1.248 . S
O1181 Tb1160 2.440 . S
O1181 C1162 1.266 . S
O1182 Tb1160 2.658 . S
O1182 Tb1161 2.325 . S
O1182 C1169 1.281 . S
O1183 Tb1160 2.409 . S
O1183 C1169 1.254 . S
O1184 Tb1160 2.378 . S
O1184 C1170 1.236 . S
O1185 Tb1161 2.341 . S
O1185 C1170 1.266 . S
O1186 Tb1161 2.484 . S
O1186 C1171 1.248 . S
O1187 Tb1161 2.440 . S
O1187 C1171 1.266 . S
O1188 Tb1160 2.325 . S
O1188 Tb1161 2.658 . S
O1188 C1178 1.281 . S
O1189 Tb1161 2.409 . S
O1189 C1178 1.254 . S
O1190 Tb1161 2.378 . S
O1190 C1179 1.236 . S
O1191 Tb1160 2.341 . S
O1191 C1179 1.266 . S
H1192 C1164 0.929 . S
H1193 C1165 0.931 . S
H1194 C1167 0.930 . S
H1195 C1168 0.930 . S
H1196 C1173 0.929 . S
H1197 C1174 0.931 . S
H1198 C1176 0.930 . S
H1199 C1177 0.930 . S
Tb1200 C1202 2.809 . S
Tb1200 O1220 2.484 . S
Tb1200 O1221 2.440 . S
Tb1200 O1222 2.658 . S
Tb1200 O1223 2.409 . S
Tb1200 O1224 2.378 . S
Tb1200 O1228 2.325 . S
Tb1200 O1231 2.341 . S
Tb1201 C1211 2.809 . S
Tb1201 O1222 2.325 . S
Tb1201 O1225 2.341 . S
Tb1201 O1226 2.484 . S
Tb1201 O1227 2.440 . S
Tb1201 O1228 2.658 . S
Tb1201 O1229 2.409 . S
Tb1201 O1230 2.378 . S
C1202 Tb1200 2.809 . S
C1202 C1203 1.514 . S
C1202 O1220 1.248 . S
C1202 O1221 1.266 . S
C1203 C1202 1.514 . S
C1203 C1204 1.359 . S
C1203 C1208 1.348 . S
C1204 C1203 1.359 . S
C1204 C1205 1.380 . S
C1204 H1232 0.929 . S
C1205 C1204 1.380 . S
C1205 C1206 1.347 . S
C1205 H1233 0.931 . S
C1206 C1205 1.347 . S
C1206 C1207 1.369 . S
C1207 C1206 1.369 . S
C1207 C1208 1.408 . S
C1207 H1234 0.930 . S
C1208 C1203 1.348 . S
C1208 C1207 1.408 . S
C1208 H1235 0.930 . S
C1209 O1222 1.281 . S
C1209 O1223 1.254 . S
C1210 O1224 1.236 . S
C1210 O1225 1.266 . S
C1211 Tb1201 2.809 . S
C1211 C1212 1.514 . S
C1211 O1226 1.248 . S
C1211 O1227 1.266 . S
C1212 C1211 1.514 . S
C1212 C1213 1.359 . S
C1212 C1217 1.348 . S
C1213 C1212 1.359 . S
C1213 C1214 1.380 . S
C1213 H1236 0.929 . S
C1214 C1213 1.380 . S
C1214 C1215 1.347 . S
C1214 H1237 0.931 . S
C1215 C1214 1.347 . S
C1215 C1216 1.369 . S
C1216 C1215 1.369 . S
C1216 C1217 1.408 . S
C1216 H1238 0.930 . S
C1217 C1212 1.348 . S
C1217 C1216 1.408 . S
C1217 H1239 0.930 . S
C1218 O1228 1.281 . S
C1218 O1229 1.254 . S
C1219 O1230 1.236 . S
C1219 O1231 1.266 . S
O1220 Tb1200 2.484 . S
O1220 C1202 1.248 . S
O1221 Tb1200 2.440 . S
O1221 C1202 1.266 . S
O1222 Tb1200 2.658 . S
O1222 Tb1201 2.325 . S
O1222 C1209 1.281 . S
O1223 Tb1200 2.409 . S
O1223 C1209 1.254 . S
O1224 Tb1200 2.378 . S
O1224 C1210 1.236 . S
O1225 Tb1201 2.341 . S
O1225 C1210 1.266 . S
O1226 Tb1201 2.484 . S
O1226 C1211 1.248 . S
O1227 Tb1201 2.440 . S
O1227 C1211 1.266 . S
O1228 Tb1200 2.325 . S
O1228 Tb1201 2.658 . S
O1228 C1218 1.281 . S
O1229 Tb1201 2.409 . S
O1229 C1218 1.254 . S
O1230 Tb1201 2.378 . S
O1230 C1219 1.236 . S
O1231 Tb1200 2.341 . S
O1231 C1219 1.266 . S
H1232 C1204 0.929 . S
H1233 C1205 0.931 . S
H1234 C1207 0.930 . S
H1235 C1208 0.930 . S
H1236 C1213 0.929 . S
H1237 C1214 0.931 . S
H1238 C1216 0.930 . S
H1239 C1217 0.930 . S
Tb1240 C1242 2.809 . S
Tb1240 O1260 2.484 . S
Tb1240 O1261 2.440 . S
Tb1240 O1262 2.658 . S
Tb1240 O1263 2.409 . S
Tb1240 O1264 2.378 1_545 S
Tb1240 O1268 2.325 . S
Tb1240 O1271 2.341 . S
Tb1241 C1251 2.809 1_565 S
Tb1241 O1262 2.325 1_565 S
Tb1241 O1265 2.341 . S
Tb1241 O1266 2.484 1_565 S
Tb1241 O1267 2.440 . S
Tb1241 O1268 2.658 1_565 S
Tb1241 O1269 2.409 . S
Tb1241 O1270 2.378 1_565 S
C1242 Tb1240 2.809 . S
C1242 C1243 1.514 . S
C1242 O1260 1.248 . S
C1242 O1261 1.266 . S
C1243 C1242 1.514 . S
C1243 C1244 1.359 1_545 S
C1243 C1248 1.348 . S
C1244 C1243 1.359 1_565 S
C1244 C1245 1.380 . S
C1244 H1272 0.929 . S
C1245 C1244 1.380 . S
C1245 C1246 1.347 . S
C1245 H1273 0.931 . S
C1246 C1245 1.347 . S
C1246 C1247 1.360 1_565 S
C1247 C1246 1.360 1_545 S
C1247 C1248 1.416 . S
C1247 H1274 0.933 . S
C1248 C1243 1.348 . S
C1248 C1247 1.416 . S
C1248 H1275 0.930 . S
C1249 O1262 1.281 . S
C1249 O1263 1.254 . S
C1250 O1264 1.236 . S
C1250 O1265 1.266 . S
C1251 Tb1241 2.809 1_545 S
C1251 C1252 1.514 . S
C1251 O1266 1.248 . S
C1251 O1267 1.266 1_545 S
C1252 C1251 1.514 . S
C1252 C1253 1.359 . S
C1252 C1257 1.348 . S
C1253 C1252 1.359 . S
C1253 C1254 1.380 1_455 S
C1253 H1276 0.929 . S
C1254 C1253 1.380 1_655 S
C1254 C1255 1.347 . S
C1254 H1277 0.931 . S
C1255 C1254 1.347 . S
C1255 C1256 1.369 . S
C1256 C1255 1.369 . S
C1256 C1257 1.408 1_655 S
C1256 H1278 0.930 . S
C1257 C1252 1.348 . S
C1257 C1256 1.408 1_455 S
C1257 H1279 0.930 . S
C1258 O1268 1.281 . S
C1258 O1269 1.254 1_545 S
C1259 O1270 1.236 . S
C1259 O1271 1.266 . S
O1260 Tb1240 2.484 . S
O1260 C1242 1.248 . S
O1261 Tb1240 2.440 . S
O1261 C1242 1.266 . S
O1262 Tb1240 2.658 . S
O1262 Tb1241 2.325 1_545 S
O1262 C1249 1.281 . S
O1263 Tb1240 2.409 . S
O1263 C1249 1.254 . S
O1264 Tb1240 2.378 1_565 S
O1264 C1250 1.236 . S
O1265 Tb1241 2.341 . S
O1265 C1250 1.266 . S
O1266 Tb1241 2.484 1_545 S
O1266 C1251 1.248 . S
O1267 Tb1241 2.440 . S
O1267 C1251 1.266 1_565 S
O1268 Tb1240 2.325 . S
O1268 Tb1241 2.658 1_545 S
O1268 C1258 1.281 . S
O1269 Tb1241 2.409 . S
O1269 C1258 1.254 1_565 S
O1270 Tb1241 2.378 1_545 S
O1270 C1259 1.236 . S
O1271 Tb1240 2.341 . S
O1271 C1259 1.266 . S
H1272 C1244 0.929 . S
H1273 C1245 0.931 . S
H1274 C1247 0.933 . S
H1275 C1248 0.930 . S
H1276 C1253 0.929 . S
H1277 C1254 0.931 . S
H1278 C1256 0.930 . S
H1279 C1257 0.930 . S
H1280 C1288 0.950 . S
H1281 C1293 0.950 . S
H1282 C1290 0.950 . S
H1283 C1292 0.950 . S
H1284 C1294 0.950 . S
H1285 C1296 0.950 . S
H1286 C1298 0.950 . S
H1287 C1299 0.950 . S
C1288 H1280 0.950 . S
C1288 C1289 1.386 . S
C1288 C1290 1.391 . S
C1289 C1288 1.386 . S
C1289 C1293 1.393 . S
C1290 H1282 0.950 . S
C1290 C1288 1.391 . S
C1290 C1291 1.400 . S
C1291 C1290 1.400 . S
C1291 C1292 1.398 . S
C1291 C1297 1.491 . S
C1292 H1283 0.950 . S
C1292 C1291 1.398 . S
C1292 C1293 1.391 . S
C1293 H1281 0.950 . S
C1293 C1289 1.393 . S
C1293 C1292 1.391 . S
C1294 H1284 0.950 . S
C1294 C1295 1.386 . S
C1294 C1296 1.391 . S
C1295 C1294 1.386 . S
C1295 C1299 1.393 . S
C1296 H1285 0.950 . S
C1296 C1294 1.391 . S
C1296 C1297 1.400 . S
C1297 C1291 1.491 . S
C1297 C1296 1.400 . S
C1297 C1298 1.398 . S
C1298 H1286 0.950 . S
C1298 C1297 1.398 . S
C1298 C1299 1.391 . S
C1299 H1287 0.950 . S
C1299 C1295 1.393 . S
C1299 C1298 1.391 . S
H1300 C1308 0.950 . S
H1301 C1313 0.950 . S
H1302 C1310 0.950 . S
H1303 C1312 0.950 . S
H1304 C1314 0.950 . S
H1305 C1316 0.950 . S
H1306 C1318 0.950 . S
H1307 C1319 0.950 . S
C1308 H1300 0.950 . S
C1308 C1309 1.386 . S
C1308 C1310 1.391 . S
C1309 C1308 1.386 . S
C1309 C1313 1.393 . S
C1310 H1302 0.950 . S
C1310 C1308 1.391 . S
C1310 C1311 1.400 . S
C1311 C1310 1.400 . S
C1311 C1312 1.398 . S
C1311 C1317 1.491 . S
C1312 H1303 0.950 . S
C1312 C1311 1.398 . S
C1312 C1313 1.391 . S
C1313 H1301 0.950 . S
C1313 C1309 1.393 . S
C1313 C1312 1.391 . S
C1314 H1304 0.950 . S
C1314 C1315 1.386 . S
C1314 C1316 1.391 . S
C1315 C1314 1.386 . S
C1315 C1319 1.393 . S
C1316 H1305 0.950 . S
C1316 C1314 1.391 . S
C1316 C1317 1.400 . S
C1317 C1311 1.491 . S
C1317 C1316 1.400 . S
C1317 C1318 1.398 . S
C1318 H1306 0.950 . S
C1318 C1317 1.398 . S
C1318 C1319 1.391 . S
C1319 H1307 0.950 . S
C1319 C1315 1.393 . S
C1319 C1318 1.391 . S
H1320 C1328 0.950 . S
H1321 C1333 0.950 . S
H1322 C1330 0.950 . S
H1323 C1332 0.950 . S
H1324 C1334 0.950 . S
H1325 C1336 0.950 . S
H1326 C1338 0.950 . S
H1327 C1339 0.950 . S
C1328 H1320 0.950 . S
C1328 C1329 1.386 . S
C1328 C1330 1.391 . S
C1329 C1328 1.386 . S
C1329 C1333 1.393 . S
C1330 H1322 0.950 . S
C1330 C1328 1.391 . S
C1330 C1331 1.400 . S
C1331 C1330 1.400 . S
C1331 C1332 1.398 . S
C1331 C1337 1.491 . S
C1332 H1323 0.950 . S
C1332 C1331 1.398 . S
C1332 C1333 1.391 . S
C1333 H1321 0.950 . S
C1333 C1329 1.393 . S
C1333 C1332 1.391 . S
C1334 H1324 0.950 . S
C1334 C1335 1.386 . S
C1334 C1336 1.391 . S
C1335 C1334 1.386 . S
C1335 C1339 1.393 . S
C1336 H1325 0.950 . S
C1336 C1334 1.391 . S
C1336 C1337 1.400 . S
C1337 C1331 1.491 . S
C1337 C1336 1.400 . S
C1337 C1338 1.398 . S
C1338 H1326 0.950 . S
C1338 C1337 1.398 . S
C1338 C1339 1.391 . S
C1339 H1327 0.950 . S
C1339 C1335 1.393 . S
C1339 C1338 1.391 . S
H1340 C1348 0.950 . S
H1341 C1353 0.950 . S
H1342 C1350 0.950 . S
H1343 C1352 0.950 . S
H1344 C1354 0.950 . S
H1345 C1356 0.950 . S
H1346 C1358 0.950 . S
H1347 C1359 0.950 . S
C1348 H1340 0.950 . S
C1348 C1349 1.386 . S
C1348 C1350 1.391 . S
C1349 C1348 1.386 . S
C1349 C1353 1.393 . S
C1350 H1342 0.950 . S
C1350 C1348 1.391 . S
C1350 C1351 1.400 . S
C1351 C1350 1.400 . S
C1351 C1352 1.398 . S
C1351 C1357 1.491 . S
C1352 H1343 0.950 . S
C1352 C1351 1.398 . S
C1352 C1353 1.391 . S
C1353 H1341 0.950 . S
C1353 C1349 1.393 . S
C1353 C1352 1.391 . S
C1354 H1344 0.950 . S
C1354 C1355 1.386 . S
C1354 C1356 1.391 . S
C1355 C1354 1.386 . S
C1355 C1359 1.393 . S
C1356 H1345 0.950 . S
C1356 C1354 1.391 . S
C1356 C1357 1.400 . S
C1357 C1351 1.491 . S
C1357 C1356 1.400 . S
C1357 C1358 1.398 . S
C1358 H1346 0.950 . S
C1358 C1357 1.398 . S
C1358 C1359 1.391 . S
C1359 H1347 0.950 . S
C1359 C1355 1.393 . S
C1359 C1358 1.391 . S
H1360 C1368 0.950 . S
H1361 C1373 0.950 . S
H1362 C1370 0.950 . S
H1363 C1372 0.950 . S
H1364 C1374 0.950 . S
H1365 C1376 0.950 . S
H1366 C1378 0.950 . S
H1367 C1379 0.950 . S
C1368 H1360 0.950 . S
C1368 C1369 1.386 . S
C1368 C1370 1.391 . S
C1369 C1368 1.386 . S
C1369 C1373 1.393 . S
C1370 H1362 0.950 . S
C1370 C1368 1.391 . S
C1370 C1371 1.400 . S
C1371 C1370 1.400 . S
C1371 C1372 1.398 . S
C1371 C1377 1.491 . S
C1372 H1363 0.950 . S
C1372 C1371 1.398 . S
C1372 C1373 1.391 . S
C1373 H1361 0.950 . S
C1373 C1369 1.393 . S
C1373 C1372 1.391 . S
C1374 H1364 0.950 . S
C1374 C1375 1.386 . S
C1374 C1376 1.391 . S
C1375 C1374 1.386 . S
C1375 C1379 1.393 . S
C1376 H1365 0.950 . S
C1376 C1374 1.391 . S
C1376 C1377 1.400 . S
C1377 C1371 1.491 . S
C1377 C1376 1.400 . S
C1377 C1378 1.398 . S
C1378 H1366 0.950 . S
C1378 C1377 1.398 . S
C1378 C1379 1.391 . S
C1379 H1367 0.950 . S
C1379 C1375 1.393 . S
C1379 C1378 1.391 . S
H1380 C1388 0.950 . S
H1381 C1393 0.950 . S
H1382 C1390 0.950 . S
H1383 C1392 0.950 . S
H1384 C1394 0.950 . S
H1385 C1396 0.950 . S
H1386 C1398 0.950 . S
H1387 C1399 0.950 . S
C1388 H1380 0.950 . S
C1388 C1389 1.386 . S
C1388 C1390 1.391 . S
C1389 C1388 1.386 . S
C1389 C1393 1.393 . S
C1390 H1382 0.950 . S
C1390 C1388 1.391 . S
C1390 C1391 1.400 . S
C1391 C1390 1.400 . S
C1391 C1392 1.398 . S
C1391 C1397 1.491 . S
C1392 H1383 0.950 . S
C1392 C1391 1.398 . S
C1392 C1393 1.391 . S
C1393 H1381 0.950 . S
C1393 C1389 1.393 . S
C1393 C1392 1.391 . S
C1394 H1384 0.950 . S
C1394 C1395 1.386 . S
C1394 C1396 1.391 . S
C1395 C1394 1.386 . S
C1395 C1399 1.393 . S
C1396 H1385 0.950 . S
C1396 C1394 1.391 . S
C1396 C1397 1.400 . S
C1397 C1391 1.491 . S
C1397 C1396 1.400 . S
C1397 C1398 1.398 . S
C1398 H1386 0.950 . S
C1398 C1397 1.398 . S
C1398 C1399 1.391 . S
C1399 H1387 0.950 . S
C1399 C1395 1.393 . S
C1399 C1398 1.391 . S
H1400 C1408 0.950 . S
H1401 C1413 0.950 . S
H1402 C1410 0.950 . S
H1403 C1412 0.950 . S
H1404 C1414 0.950 . S
H1405 C1416 0.950 . S
H1406 C1418 0.950 . S
H1407 C1419 0.950 . S
C1408 H1400 0.950 . S
C1408 C1409 1.386 . S
C1408 C1410 1.391 . S
C1409 C1408 1.386 . S
C1409 C1413 1.393 . S
C1410 H1402 0.950 . S
C1410 C1408 1.391 . S
C1410 C1411 1.400 . S
C1411 C1410 1.400 . S
C1411 C1412 1.398 . S
C1411 C1417 1.491 . S
C1412 H1403 0.950 . S
C1412 C1411 1.398 . S
C1412 C1413 1.391 . S
C1413 H1401 0.950 . S
C1413 C1409 1.393 . S
C1413 C1412 1.391 . S
C1414 H1404 0.950 . S
C1414 C1415 1.386 . S
C1414 C1416 1.391 . S
C1415 C1414 1.386 . S
C1415 C1419 1.393 . S
C1416 H1405 0.950 . S
C1416 C1414 1.391 . S
C1416 C1417 1.400 . S
C1417 C1411 1.491 . S
C1417 C1416 1.400 . S
C1417 C1418 1.398 . S
C1418 H1406 0.950 . S
C1418 C1417 1.398 . S
C1418 C1419 1.391 . S
C1419 H1407 0.950 . S
C1419 C1415 1.393 . S
C1419 C1418 1.391 . S
H1420 C1428 0.950 . S
H1421 C1433 0.950 . S
H1422 C1430 0.950 . S
H1423 C1432 0.950 . S
H1424 C1434 0.950 . S
H1425 C1436 0.950 . S
H1426 C1438 0.950 . S
H1427 C1439 0.950 . S
C1428 H1420 0.950 . S
C1428 C1429 1.386 . S
C1428 C1430 1.391 . S
C1429 C1428 1.386 . S
C1429 C1433 1.393 . S
C1430 H1422 0.950 . S
C1430 C1428 1.391 . S
C1430 C1431 1.400 . S
C1431 C1430 1.400 . S
C1431 C1432 1.398 . S
C1431 C1437 1.491 . S
C1432 H1423 0.950 . S
C1432 C1431 1.398 . S
C1432 C1433 1.391 . S
C1433 H1421 0.950 . S
C1433 C1429 1.393 . S
C1433 C1432 1.391 . S
C1434 H1424 0.950 . S
C1434 C1435 1.386 . S
C1434 C1436 1.391 . S
C1435 C1434 1.386 . S
C1435 C1439 1.393 . S
C1436 H1425 0.950 . S
C1436 C1434 1.391 . S
C1436 C1437 1.400 . S
C1437 C1431 1.491 . S
C1437 C1436 1.400 . S
C1437 C1438 1.398 . S
C1438 H1426 0.950 . S
C1438 C1437 1.398 . S
C1438 C1439 1.391 . S
C1439 H1427 0.950 . S
C1439 C1435 1.393 . S
C1439 C1438 1.391 . S
H1440 C1448 0.950 . S
H1441 C1453 0.950 . S
H1442 C1450 0.950 . S
H1443 C1452 0.950 . S
H1444 C1454 0.950 . S
H1445 C1456 0.950 . S
H1446 C1458 0.950 . S
H1447 C1459 0.950 . S
C1448 H1440 0.950 . S
C1448 C1449 1.386 . S
C1448 C1450 1.391 . S
C1449 C1448 1.386 . S
C1449 C1453 1.393 . S
C1450 H1442 0.950 . S
C1450 C1448 1.391 . S
C1450 C1451 1.400 . S
C1451 C1450 1.400 . S
C1451 C1452 1.398 . S
C1451 C1457 1.491 . S
C1452 H1443 0.950 . S
C1452 C1451 1.398 . S
C1452 C1453 1.391 . S
C1453 H1441 0.950 . S
C1453 C1449 1.393 . S
C1453 C1452 1.391 . S
C1454 H1444 0.950 . S
C1454 C1455 1.386 . S
C1454 C1456 1.391 . S
C1455 C1454 1.386 . S
C1455 C1459 1.393 . S
C1456 H1445 0.950 . S
C1456 C1454 1.391 . S
C1456 C1457 1.400 . S
C1457 C1451 1.491 . S
C1457 C1456 1.400 . S
C1457 C1458 1.398 . S
C1458 H1446 0.950 . S
C1458 C1457 1.398 . S
C1458 C1459 1.391 . S
C1459 H1447 0.950 . S
C1459 C1455 1.393 . S
C1459 C1458 1.391 . S
H1460 C1468 0.950 . S
H1461 C1473 0.950 . S
H1462 C1470 0.950 . S
H1463 C1472 0.950 . S
H1464 C1474 0.950 . S
H1465 C1476 0.950 . S
H1466 C1478 0.950 . S
H1467 C1479 0.950 . S
C1468 H1460 0.950 . S
C1468 C1469 1.386 . S
C1468 C1470 1.391 . S
C1469 C1468 1.386 . S
C1469 C1473 1.393 . S
C1470 H1462 0.950 . S
C1470 C1468 1.391 . S
C1470 C1471 1.400 . S
C1471 C1470 1.400 . S
C1471 C1472 1.398 . S
C1471 C1477 1.491 . S
C1472 H1463 0.950 . S
C1472 C1471 1.398 . S
C1472 C1473 1.391 . S
C1473 H1461 0.950 . S
C1473 C1469 1.393 . S
C1473 C1472 1.391 . S
C1474 H1464 0.950 . S
C1474 C1475 1.386 . S
C1474 C1476 1.391 . S
C1475 C1474 1.386 . S
C1475 C1479 1.393 . S
C1476 H1465 0.950 . S
C1476 C1474 1.391 . S
C1476 C1477 1.400 . S
C1477 C1471 1.491 . S
C1477 C1476 1.400 . S
C1477 C1478 1.398 . S
C1478 H1466 0.950 . S
C1478 C1477 1.398 . S
C1478 C1479 1.391 . S
C1479 H1467 0.950 . S
C1479 C1475 1.393 . S
C1479 C1478 1.391 . S
H1480 C1488 0.950 . S
H1481 C1493 0.950 . S
H1482 C1490 0.950 . S
H1483 C1492 0.950 . S
H1484 C1494 0.950 . S
H1485 C1496 0.950 . S
H1486 C1498 0.950 . S
H1487 C1499 0.950 . S
C1488 H1480 0.950 . S
C1488 C1489 1.386 . S
C1488 C1490 1.391 . S
C1489 C1488 1.386 . S
C1489 C1493 1.393 . S
C1490 H1482 0.950 . S
C1490 C1488 1.391 . S
C1490 C1491 1.400 . S
C1491 C1490 1.400 . S
C1491 C1492 1.398 . S
C1491 C1497 1.491 . S
C1492 H1483 0.950 . S
C1492 C1491 1.398 . S
C1492 C1493 1.391 . S
C1493 H1481 0.950 . S
C1493 C1489 1.393 . S
C1493 C1492 1.391 . S
C1494 H1484 0.950 . S
C1494 C1495 1.386 . S
C1494 C1496 1.391 . S
C1495 C1494 1.386 . S
C1495 C1499 1.393 . S
C1496 H1485 0.950 . S
C1496 C1494 1.391 . S
C1496 C1497 1.400 . S
C1497 C1491 1.491 . S
C1497 C1496 1.400 . S
C1497 C1498 1.398 . S
C1498 H1486 0.950 . S
C1498 C1497 1.398 . S
C1498 C1499 1.391 . S
C1499 H1487 0.950 . S
C1499 C1495 1.393 . S
C1499 C1498 1.391 . S
H1500 C1508 0.950 . S
H1501 C1513 0.950 . S
H1502 C1510 0.950 . S
H1503 C1512 0.950 . S
H1504 C1514 0.950 . S
H1505 C1516 0.950 . S
H1506 C1518 0.950 . S
H1507 C1519 0.950 . S
C1508 H1500 0.950 . S
C1508 C1509 1.386 . S
C1508 C1510 1.391 . S
C1509 C1508 1.386 . S
C1509 C1513 1.393 . S
C1510 H1502 0.950 . S
C1510 C1508 1.391 . S
C1510 C1511 1.400 . S
C1511 C1510 1.400 . S
C1511 C1512 1.398 . S
C1511 C1517 1.491 . S
C1512 H1503 0.950 . S
C1512 C1511 1.398 . S
C1512 C1513 1.391 . S
C1513 H1501 0.950 . S
C1513 C1509 1.393 . S
C1513 C1512 1.391 . S
C1514 H1504 0.950 . S
C1514 C1515 1.386 . S
C1514 C1516 1.391 . S
C1515 C1514 1.386 . S
C1515 C1519 1.393 . S
C1516 H1505 0.950 . S
C1516 C1514 1.391 . S
C1516 C1517 1.400 . S
C1517 C1511 1.491 . S
C1517 C1516 1.400 . S
C1517 C1518 1.398 . S
C1518 H1506 0.950 . S
C1518 C1517 1.398 . S
C1518 C1519 1.391 . S
C1519 H1507 0.950 . S
C1519 C1515 1.393 . S
C1519 C1518 1.391 . S
H1520 C1528 0.950 . S
H1521 C1533 0.950 . S
H1522 C1530 0.950 . S
H1523 C1532 0.950 . S
H1524 C1534 0.950 . S
H1525 C1536 0.950 . S
H1526 C1538 0.950 . S
H1527 C1539 0.950 . S
C1528 H1520 0.950 . S
C1528 C1529 1.386 . S
C1528 C1530 1.391 . S
C1529 C1528 1.386 . S
C1529 C1533 1.393 . S
C1530 H1522 0.950 . S
C1530 C1528 1.391 . S
C1530 C1531 1.400 . S
C1531 C1530 1.400 . S
C1531 C1532 1.398 . S
C1531 C1537 1.491 . S
C1532 H1523 0.950 . S
C1532 C1531 1.398 . S
C1532 C1533 1.391 . S
C1533 H1521 0.950 . S
C1533 C1529 1.393 . S
C1533 C1532 1.391 . S
C1534 H1524 0.950 . S
C1534 C1535 1.386 . S
C1534 C1536 1.391 . S
C1535 C1534 1.386 . S
C1535 C1539 1.393 . S
C1536 H1525 0.950 . S
C1536 C1534 1.391 . S
C1536 C1537 1.400 . S
C1537 C1531 1.491 . S
C1537 C1536 1.400 . S
C1537 C1538 1.398 . S
C1538 H1526 0.950 . S
C1538 C1537 1.398 . S
C1538 C1539 1.391 . S
C1539 H1527 0.950 . S
C1539 C1535 1.393 . S
C1539 C1538 1.391 . S
H1540 C1548 0.950 . S
H1541 C1553 0.950 . S
H1542 C1550 0.950 . S
H1543 C1552 0.950 . S
H1544 C1554 0.950 . S
H1545 C1556 0.950 . S
H1546 C1558 0.950 . S
H1547 C1559 0.950 . S
C1548 H1540 0.950 . S
C1548 C1549 1.386 . S
C1548 C1550 1.391 . S
C1549 C1548 1.386 . S
C1549 C1553 1.393 . S
C1550 H1542 0.950 . S
C1550 C1548 1.391 . S
C1550 C1551 1.400 . S
C1551 C1550 1.400 . S
C1551 C1552 1.398 . S
C1551 C1557 1.491 . S
C1552 H1543 0.950 . S
C1552 C1551 1.398 . S
C1552 C1553 1.391 . S
C1553 H1541 0.950 . S
C1553 C1549 1.393 . S
C1553 C1552 1.391 . S
C1554 H1544 0.950 . S
C1554 C1555 1.386 . S
C1554 C1556 1.391 . S
C1555 C1554 1.386 . S
C1555 C1559 1.393 . S
C1556 H1545 0.950 . S
C1556 C1554 1.391 . S
C1556 C1557 1.400 . S
C1557 C1551 1.491 . S
C1557 C1556 1.400 . S
C1557 C1558 1.398 . S
C1558 H1546 0.950 . S
C1558 C1557 1.398 . S
C1558 C1559 1.391 . S
C1559 H1547 0.950 . S
C1559 C1555 1.393 . S
C1559 C1558 1.391 . S
H1560 C1568 0.950 . S
H1561 C1573 0.950 . S
H1562 C1570 0.950 . S
H1563 C1572 0.950 . S
H1564 C1574 0.950 . S
H1565 C1576 0.950 . S
H1566 C1578 0.950 . S
H1567 C1579 0.950 1_655 S
C1568 H1560 0.950 . S
C1568 C1569 1.386 . S
C1568 C1570 1.391 . S
C1569 C1568 1.386 . S
C1569 C1573 1.393 . S
C1570 H1562 0.950 . S
C1570 C1568 1.391 . S
C1570 C1571 1.400 . S
C1571 C1570 1.400 . S
C1571 C1572 1.398 . S
C1571 C1577 1.491 . S
C1572 H1563 0.950 . S
C1572 C1571 1.398 . S
C1572 C1573 1.391 . S
C1573 H1561 0.950 . S
C1573 C1569 1.393 . S
C1573 C1572 1.391 . S
C1574 H1564 0.950 . S
C1574 C1575 1.386 . S
C1574 C1576 1.391 . S
C1575 C1574 1.386 . S
C1575 C1579 1.393 . S
C1576 H1565 0.950 . S
C1576 C1574 1.391 . S
C1576 C1577 1.400 . S
C1577 C1571 1.491 . S
C1577 C1576 1.400 . S
C1577 C1578 1.398 . S
C1578 H1566 0.950 . S
C1578 C1577 1.398 . S
C1578 C1579 1.391 . S
C1579 H1567 0.950 1_455 S
C1579 C1575 1.393 . S
C1579 C1578 1.391 . S
H1580 C1588 0.950 . S
H1581 C1593 0.950 . S
H1582 C1590 0.950 . S
H1583 C1592 0.950 . S
H1584 C1594 0.950 . S
H1585 C1596 0.950 . S
H1586 C1598 0.950 . S
H1587 C1599 0.950 . S
C1588 H1580 0.950 . S
C1588 C1589 1.386 . S
C1588 C1590 1.391 . S
C1589 C1588 1.386 . S
C1589 C1593 1.393 . S
C1590 H1582 0.950 . S
C1590 C1588 1.391 . S
C1590 C1591 1.400 . S
C1591 C1590 1.400 . S
C1591 C1592 1.398 . S
C1591 C1597 1.491 . S
C1592 H1583 0.950 . S
C1592 C1591 1.398 . S
C1592 C1593 1.391 . S
C1593 H1581 0.950 . S
C1593 C1589 1.393 . S
C1593 C1592 1.391 . S
C1594 H1584 0.950 . S
C1594 C1595 1.386 . S
C1594 C1596 1.391 . S
C1595 C1594 1.386 . S
C1595 C1599 1.393 . S
C1596 H1585 0.950 . S
C1596 C1594 1.391 . S
C1596 C1597 1.400 . S
C1597 C1591 1.491 . S
C1597 C1596 1.400 . S
C1597 C1598 1.398 . S
C1598 H1586 0.950 . S
C1598 C1597 1.398 . S
C1598 C1599 1.391 . S
C1599 H1587 0.950 . S
C1599 C1595 1.393 . S
C1599 C1598 1.391 . S
H1600 C1608 0.950 . S
H1601 C1613 0.950 . S
H1602 C1610 0.950 . S
H1603 C1612 0.950 . S
H1604 C1614 0.950 . S
H1605 C1616 0.950 . S
H1606 C1618 0.950 . S
H1607 C1619 0.950 . S
C1608 H1600 0.950 . S
C1608 C1609 1.386 . S
C1608 C1610 1.391 . S
C1609 C1608 1.386 . S
C1609 C1613 1.393 . S
C1610 H1602 0.950 . S
C1610 C1608 1.391 . S
C1610 C1611 1.400 . S
C1611 C1610 1.400 . S
C1611 C1612 1.398 . S
C1611 C1617 1.491 . S
C1612 H1603 0.950 . S
C1612 C1611 1.398 . S
C1612 C1613 1.391 . S
C1613 H1601 0.950 . S
C1613 C1609 1.393 . S
C1613 C1612 1.391 . S
C1614 H1604 0.950 . S
C1614 C1615 1.386 . S
C1614 C1616 1.391 . S
C1615 C1614 1.386 . S
C1615 C1619 1.393 . S
C1616 H1605 0.950 . S
C1616 C1614 1.391 . S
C1616 C1617 1.400 . S
C1617 C1611 1.491 . S
C1617 C1616 1.400 . S
C1617 C1618 1.398 . S
C1618 H1606 0.950 . S
C1618 C1617 1.398 . S
C1618 C1619 1.391 . S
C1619 H1607 0.950 . S
C1619 C1615 1.393 . S
C1619 C1618 1.391 . S
H1620 C1628 0.950 . S
H1621 C1633 0.950 . S
H1622 C1630 0.950 . S
H1623 C1632 0.950 . S
H1624 C1634 0.950 . S
H1625 C1636 0.950 . S
H1626 C1638 0.950 . S
H1627 C1639 0.950 . S
C1628 H1620 0.950 . S
C1628 C1629 1.386 . S
C1628 C1630 1.391 . S
C1629 C1628 1.386 . S
C1629 C1633 1.393 . S
C1630 H1622 0.950 . S
C1630 C1628 1.391 . S
C1630 C1631 1.400 . S
C1631 C1630 1.400 . S
C1631 C1632 1.398 . S
C1631 C1637 1.491 . S
C1632 H1623 0.950 . S
C1632 C1631 1.398 . S
C1632 C1633 1.391 . S
C1633 H1621 0.950 . S
C1633 C1629 1.393 . S
C1633 C1632 1.391 . S
C1634 H1624 0.950 . S
C1634 C1635 1.386 . S
C1634 C1636 1.391 . S
C1635 C1634 1.386 . S
C1635 C1639 1.393 . S
C1636 H1625 0.950 . S
C1636 C1634 1.391 . S
C1636 C1637 1.400 . S
C1637 C1631 1.491 . S
C1637 C1636 1.400 . S
C1637 C1638 1.398 . S
C1638 H1626 0.950 . S
C1638 C1637 1.398 . S
C1638 C1639 1.391 . S
C1639 H1627 0.950 . S
C1639 C1635 1.393 . S
C1639 C1638 1.391 . S
H1640 C1648 0.950 . S
H1641 C1653 0.950 . S
H1642 C1650 0.950 . S
H1643 C1652 0.950 . S
H1644 C1654 0.950 . S
H1645 C1656 0.950 . S
H1646 C1658 0.950 . S
H1647 C1659 0.950 . S
C1648 H1640 0.950 . S
C1648 C1649 1.386 . S
C1648 C1650 1.391 . S
C1649 C1648 1.386 . S
C1649 C1653 1.393 . S
C1650 H1642 0.950 . S
C1650 C1648 1.391 . S
C1650 C1651 1.400 . S
C1651 C1650 1.400 . S
C1651 C1652 1.398 . S
C1651 C1657 1.491 . S
C1652 H1643 0.950 . S
C1652 C1651 1.398 . S
C1652 C1653 1.391 . S
C1653 H1641 0.950 . S
C1653 C1649 1.393 . S
C1653 C1652 1.391 . S
C1654 H1644 0.950 . S
C1654 C1655 1.386 . S
C1654 C1656 1.391 . S
C1655 C1654 1.386 . S
C1655 C1659 1.393 . S
C1656 H1645 0.950 . S
C1656 C1654 1.391 . S
C1656 C1657 1.400 . S
C1657 C1651 1.491 . S
C1657 C1656 1.400 . S
C1657 C1658 1.398 . S
C1658 H1646 0.950 . S
C1658 C1657 1.398 . S
C1658 C1659 1.391 . S
C1659 H1647 0.950 . S
C1659 C1655 1.393 . S
C1659 C1658 1.391 . S
H1660 C1668 0.950 . S
H1661 C1673 0.950 . S
H1662 C1670 0.950 . S
H1663 C1672 0.950 . S
H1664 C1674 0.950 . S
H1665 C1676 0.950 . S
H1666 C1678 0.950 . S
H1667 C1679 0.950 . S
C1668 H1660 0.950 . S
C1668 C1669 1.386 . S
C1668 C1670 1.391 . S
C1669 C1668 1.386 . S
C1669 C1673 1.393 . S
C1670 H1662 0.950 . S
C1670 C1668 1.391 . S
C1670 C1671 1.400 . S
C1671 C1670 1.400 . S
C1671 C1672 1.398 . S
C1671 C1677 1.491 . S
C1672 H1663 0.950 . S
C1672 C1671 1.398 . S
C1672 C1673 1.391 . S
C1673 H1661 0.950 . S
C1673 C1669 1.393 . S
C1673 C1672 1.391 . S
C1674 H1664 0.950 . S
C1674 C1675 1.386 . S
C1674 C1676 1.391 . S
C1675 C1674 1.386 . S
C1675 C1679 1.393 . S
C1676 H1665 0.950 . S
C1676 C1674 1.391 . S
C1676 C1677 1.400 . S
C1677 C1671 1.491 . S
C1677 C1676 1.400 . S
C1677 C1678 1.398 . S
C1678 H1666 0.950 . S
C1678 C1677 1.398 . S
C1678 C1679 1.391 . S
C1679 H1667 0.950 . S
C1679 C1675 1.393 . S
C1679 C1678 1.391 . S
H1680 C1688 0.950 . S
H1681 C1693 0.950 . S
H1682 C1690 0.950 . S
H1683 C1692 0.950 . S
H1684 C1694 0.950 . S
H1685 C1696 0.950 . S
H1686 C1698 0.950 . S
H1687 C1699 0.950 . S
C1688 H1680 0.950 . S
C1688 C1689 1.386 . S
C1688 C1690 1.391 . S
C1689 C1688 1.386 . S
C1689 C1693 1.393 . S
C1690 H1682 0.950 . S
C1690 C1688 1.391 . S
C1690 C1691 1.400 . S
C1691 C1690 1.400 . S
C1691 C1692 1.398 . S
C1691 C1697 1.491 . S
C1692 H1683 0.950 . S
C1692 C1691 1.398 . S
C1692 C1693 1.391 . S
C1693 H1681 0.950 . S
C1693 C1689 1.393 . S
C1693 C1692 1.391 . S
C1694 H1684 0.950 . S
C1694 C1695 1.386 . S
C1694 C1696 1.391 . S
C1695 C1694 1.386 . S
C1695 C1699 1.393 . S
C1696 H1685 0.950 . S
C1696 C1694 1.391 . S
C1696 C1697 1.400 . S
C1697 C1691 1.491 . S
C1697 C1696 1.400 . S
C1697 C1698 1.398 . S
C1698 H1686 0.950 . S
C1698 C1697 1.398 . S
C1698 C1699 1.391 . S
C1699 H1687 0.950 . S
C1699 C1695 1.393 . S
C1699 C1698 1.391 . S
H1700 C1708 0.950 . S
H1701 C1713 0.950 . S
H1702 C1710 0.950 . S
H1703 C1712 0.950 . S
H1704 C1714 0.950 . S
H1705 C1716 0.950 . S
H1706 C1718 0.950 . S
H1707 C1719 0.950 . S
C1708 H1700 0.950 . S
C1708 C1709 1.386 . S
C1708 C1710 1.391 . S
C1709 C1708 1.386 . S
C1709 C1713 1.393 . S
C1710 H1702 0.950 . S
C1710 C1708 1.391 . S
C1710 C1711 1.400 . S
C1711 C1710 1.400 . S
C1711 C1712 1.398 . S
C1711 C1717 1.491 . S
C1712 H1703 0.950 . S
C1712 C1711 1.398 . S
C1712 C1713 1.391 . S
C1713 H1701 0.950 . S
C1713 C1709 1.393 . S
C1713 C1712 1.391 . S
C1714 H1704 0.950 . S
C1714 C1715 1.386 . S
C1714 C1716 1.391 . S
C1715 C1714 1.386 . S
C1715 C1719 1.393 . S
C1716 H1705 0.950 . S
C1716 C1714 1.391 . S
C1716 C1717 1.400 . S
C1717 C1711 1.491 . S
C1717 C1716 1.400 . S
C1717 C1718 1.398 . S
C1718 H1706 0.950 . S
C1718 C1717 1.398 . S
C1718 C1719 1.391 . S
C1719 H1707 0.950 . S
C1719 C1715 1.393 . S
C1719 C1718 1.391 . S
H1720 C1728 0.950 . S
H1721 C1733 0.950 . S
H1722 C1730 0.950 . S
H1723 C1732 0.950 . S
H1724 C1734 0.950 . S
H1725 C1736 0.950 . S
H1726 C1738 0.950 . S
H1727 C1739 0.950 . S
C1728 H1720 0.950 . S
C1728 C1729 1.386 1_565 S
C1728 C1730 1.391 . S
C1729 C1728 1.386 1_545 S
C1729 C1733 1.393 . S
C1730 H1722 0.950 . S
C1730 C1728 1.391 . S
C1730 C1731 1.400 1_565 S
C1731 C1730 1.400 1_545 S
C1731 C1732 1.398 . S
C1731 C1737 1.491 . S
C1732 H1723 0.950 . S
C1732 C1731 1.398 . S
C1732 C1733 1.391 . S
C1733 H1721 0.950 . S
C1733 C1729 1.393 . S
C1733 C1732 1.391 . S
C1734 H1724 0.950 . S
C1734 C1735 1.386 . S
C1734 C1736 1.391 . S
C1735 C1734 1.386 . S
C1735 C1739 1.393 1_545 S
C1736 H1725 0.950 . S
C1736 C1734 1.391 . S
C1736 C1737 1.400 . S
C1737 C1731 1.491 . S
C1737 C1736 1.400 . S
C1737 C1738 1.398 1_545 S
C1738 H1726 0.950 . S
C1738 C1737 1.398 1_565 S
C1738 C1739 1.391 . S
C1739 H1727 0.950 . S
C1739 C1735 1.393 1_565 S
C1739 C1738 1.391 . S
H1740 C1748 0.950 . S
H1741 C1753 0.950 . S
H1742 C1750 0.950 . S
H1743 C1752 0.950 . S
H1744 C1754 0.950 . S
H1745 C1756 0.950 . S
H1746 C1758 0.950 . S
H1747 C1759 0.950 . S
C1748 H1740 0.950 . S
C1748 C1749 1.386 . S
C1748 C1750 1.391 . S
C1749 C1748 1.386 . S
C1749 C1753 1.393 . S
C1750 H1742 0.950 . S
C1750 C1748 1.391 . S
C1750 C1751 1.400 . S
C1751 C1750 1.400 . S
C1751 C1752 1.398 . S
C1751 C1757 1.491 . S
C1752 H1743 0.950 . S
C1752 C1751 1.398 . S
C1752 C1753 1.391 . S
C1753 H1741 0.950 . S
C1753 C1749 1.393 . S
C1753 C1752 1.391 . S
C1754 H1744 0.950 . S
C1754 C1755 1.386 . S
C1754 C1756 1.391 . S
C1755 C1754 1.386 . S
C1755 C1759 1.393 . S
C1756 H1745 0.950 . S
C1756 C1754 1.391 . S
C1756 C1757 1.400 . S
C1757 C1751 1.491 . S
C1757 C1756 1.400 . S
C1757 C1758 1.398 . S
C1758 H1746 0.950 . S
C1758 C1757 1.398 . S
C1758 C1759 1.391 . S
C1759 H1747 0.950 . S
C1759 C1755 1.393 . S
C1759 C1758 1.391 . S
H1760 C1768 0.950 . S
H1761 C1773 0.950 . S
H1762 C1770 0.950 . S
H1763 C1772 0.950 . S
H1764 C1774 0.950 . S
H1765 C1776 0.950 . S
H1766 C1778 0.950 . S
H1767 C1779 0.950 . S
C1768 H1760 0.950 . S
C1768 C1769 1.386 . S
C1768 C1770 1.391 . S
C1769 C1768 1.386 . S
C1769 C1773 1.393 . S
C1770 H1762 0.950 . S
C1770 C1768 1.391 . S
C1770 C1771 1.400 . S
C1771 C1770 1.400 . S
C1771 C1772 1.398 . S
C1771 C1777 1.491 . S
C1772 H1763 0.950 . S
C1772 C1771 1.398 . S
C1772 C1773 1.391 . S
C1773 H1761 0.950 . S
C1773 C1769 1.393 . S
C1773 C1772 1.391 . S
C1774 H1764 0.950 . S
C1774 C1775 1.386 . S
C1774 C1776 1.391 . S
C1775 C1774 1.386 . S
C1775 C1779 1.393 . S
C1776 H1765 0.950 . S
C1776 C1774 1.391 . S
C1776 C1777 1.400 . S
C1777 C1771 1.491 . S
C1777 C1776 1.400 . S
C1777 C1778 1.398 . S
C1778 H1766 0.950 . S
C1778 C1777 1.398 . S
C1778 C1779 1.391 . S
C1779 H1767 0.950 . S
C1779 C1775 1.393 . S
C1779 C1778 1.391 . S
H1780 C1788 0.950 . S
H1781 C1793 0.950 . S
H1782 C1790 0.950 . S
H1783 C1792 0.950 . S
H1784 C1794 0.950 . S
H1785 C1796 0.950 . S
H1786 C1798 0.950 . S
H1787 C1799 0.950 . S
C1788 H1780 0.950 . S
C1788 C1789 1.386 . S
C1788 C1790 1.391 . S
C1789 C1788 1.386 . S
C1789 C1793 1.393 . S
C1790 H1782 0.950 . S
C1790 C1788 1.391 . S
C1790 C1791 1.400 . S
C1791 C1790 1.400 . S
C1791 C1792 1.398 . S
C1791 C1797 1.491 . S
C1792 H1783 0.950 . S
C1792 C1791 1.398 . S
C1792 C1793 1.391 . S
C1793 H1781 0.950 . S
C1793 C1789 1.393 . S
C1793 C1792 1.391 . S
C1794 H1784 0.950 . S
C1794 C1795 1.386 . S
C1794 C1796 1.391 . S
C1795 C1794 1.386 . S
C1795 C1799 1.393 . S
C1796 H1785 0.950 . S
C1796 C1794 1.391 . S
C1796 C1797 1.400 . S
C1797 C1791 1.491 . S
C1797 C1796 1.400 . S
C1797 C1798 1.398 . S
C1798 H1786 0.950 . S
C1798 C1797 1.398 . S
C1798 C1799 1.391 . S
C1799 H1787 0.950 . S
C1799 C1795 1.393 . S
C1799 C1798 1.391 . S
H1800 C1808 0.950 . S
H1801 C1813 0.950 . S
H1802 C1810 0.950 . S
H1803 C1812 0.950 . S
H1804 C1814 0.950 . S
H1805 C1816 0.950 . S
H1806 C1818 0.950 . S
H1807 C1819 0.950 . S
C1808 H1800 0.950 . S
C1808 C1809 1.386 . S
C1808 C1810 1.391 . S
C1809 C1808 1.386 . S
C1809 C1813 1.393 . S
C1810 H1802 0.950 . S
C1810 C1808 1.391 . S
C1810 C1811 1.400 . S
C1811 C1810 1.400 . S
C1811 C1812 1.398 . S
C1811 C1817 1.491 . S
C1812 H1803 0.950 . S
C1812 C1811 1.398 . S
C1812 C1813 1.391 . S
C1813 H1801 0.950 . S
C1813 C1809 1.393 . S
C1813 C1812 1.391 . S
C1814 H1804 0.950 . S
C1814 C1815 1.386 . S
C1814 C1816 1.391 . S
C1815 C1814 1.386 . S
C1815 C1819 1.393 . S
C1816 H1805 0.950 . S
C1816 C1814 1.391 . S
C1816 C1817 1.400 . S
C1817 C1811 1.491 . S
C1817 C1816 1.400 . S
C1817 C1818 1.398 . S
C1818 H1806 0.950 . S
C1818 C1817 1.398 . S
C1818 C1819 1.391 . S
C1819 H1807 0.950 . S
C1819 C1815 1.393 . S
C1819 C1818 1.391 . S
H1820 C1828 0.950 . S
H1821 C1833 0.950 . S
H1822 C1830 0.950 . S
H1823 C1832 0.950 . S
H1824 C1834 0.950 . S
H1825 C1836 0.950 . S
H1826 C1838 0.950 . S
H1827 C1839 0.950 . S
C1828 H1820 0.950 . S
C1828 C1829 1.386 . S
C1828 C1830 1.391 . S
C1829 C1828 1.386 . S
C1829 C1833 1.393 . S
C1830 H1822 0.950 . S
C1830 C1828 1.391 . S
C1830 C1831 1.400 . S
C1831 C1830 1.400 . S
C1831 C1832 1.398 . S
C1831 C1837 1.491 . S
C1832 H1823 0.950 . S
C1832 C1831 1.398 . S
C1832 C1833 1.391 . S
C1833 H1821 0.950 . S
C1833 C1829 1.393 . S
C1833 C1832 1.391 . S
C1834 H1824 0.950 . S
C1834 C1835 1.386 . S
C1834 C1836 1.391 . S
C1835 C1834 1.386 . S
C1835 C1839 1.393 . S
C1836 H1825 0.950 . S
C1836 C1834 1.391 . S
C1836 C1837 1.400 . S
C1837 C1831 1.491 . S
C1837 C1836 1.400 . S
C1837 C1838 1.398 . S
C1838 H1826 0.950 . S
C1838 C1837 1.398 . S
C1838 C1839 1.391 . S
C1839 H1827 0.950 . S
C1839 C1835 1.393 . S
C1839 C1838 1.391 . S
H1840 C1848 0.941 1_545 S
H1841 C1853 0.950 . S
H1842 C1850 0.936 1_545 S
H1843 C1852 0.950 . S
H1844 C1854 0.950 . S
H1845 C1856 0.950 . S
H1846 C1858 0.950 1_545 S
H1847 C1859 0.950 1_545 S
C1848 H1840 0.941 1_565 S
C1848 C1849 1.395 . S
C1848 C1850 1.391 . S
C1849 C1848 1.395 . S
C1849 C1853 1.393 . S
C1850 H1842 0.936 1_565 S
C1850 C1848 1.391 . S
C1850 C1851 1.415 . S
C1851 C1850 1.415 . S
C1851 C1852 1.398 . S
C1851 C1857 1.491 . S
C1852 H1843 0.950 . S
C1852 C1851 1.398 . S
C1852 C1853 1.391 . S
C1853 H1841 0.950 . S
C1853 C1849 1.393 . S
C1853 C1852 1.391 . S
C1854 H1844 0.950 . S
C1854 C1855 1.386 . S
C1854 C1856 1.391 . S
C1855 C1854 1.386 . S
C1855 C1859 1.393 . S
C1856 H1845 0.950 . S
C1856 C1854 1.391 . S
C1856 C1857 1.400 . S
C1857 C1851 1.491 . S
C1857 C1856 1.400 . S
C1857 C1858 1.398 . S
C1858 H1846 0.950 1_565 S
C1858 C1857 1.398 . S
C1858 C1859 1.391 . S
C1859 H1847 0.950 1_565 S
C1859 C1855 1.393 . S
C1859 C1858 1.391 . S
H1860 C1868 0.950 . S
H1861 C1873 0.950 . S
H1862 C1870 0.950 . S
H1863 C1872 0.950 . S
H1864 C1874 0.950 . S
H1865 C1876 0.950 . S
H1866 C1878 0.950 . S
H1867 C1879 0.950 . S
C1868 H1860 0.950 . S
C1868 C1869 1.386 . S
C1868 C1870 1.391 . S
C1869 C1868 1.386 . S
C1869 C1873 1.393 . S
C1870 H1862 0.950 . S
C1870 C1868 1.391 . S
C1870 C1871 1.400 . S
C1871 C1870 1.400 . S
C1871 C1872 1.398 . S
C1871 C1877 1.491 . S
C1872 H1863 0.950 . S
C1872 C1871 1.398 . S
C1872 C1873 1.391 . S
C1873 H1861 0.950 . S
C1873 C1869 1.393 . S
C1873 C1872 1.391 . S
C1874 H1864 0.950 . S
C1874 C1875 1.386 . S
C1874 C1876 1.391 . S
C1875 C1874 1.386 . S
C1875 C1879 1.393 . S
C1876 H1865 0.950 . S
C1876 C1874 1.391 . S
C1876 C1877 1.400 . S
C1877 C1871 1.491 . S
C1877 C1876 1.400 . S
C1877 C1878 1.398 . S
C1878 H1866 0.950 . S
C1878 C1877 1.398 . S
C1878 C1879 1.391 . S
C1879 H1867 0.950 . S
C1879 C1875 1.393 . S
C1879 C1878 1.391 . S
H1880 C1888 0.950 1_565 S
H1881 C1893 0.950 . S
H1882 C1890 0.950 1_565 S
H1883 C1892 0.950 . S
H1884 C1894 0.950 . S
H1885 C1896 0.950 . S
H1886 C1898 0.964 . S
H1887 C1899 0.950 . S
C1888 H1880 0.950 1_545 S
C1888 C1889 1.386 . S
C1888 C1890 1.391 . S
C1889 C1888 1.386 . S
C1889 C1893 1.393 . S
C1890 H1882 0.950 1_545 S
C1890 C1888 1.391 . S
C1890 C1891 1.400 . S
C1891 C1890 1.400 . S
C1891 C1892 1.398 . S
C1891 C1897 1.491 . S
C1892 H1883 0.950 . S
C1892 C1891 1.398 . S
C1892 C1893 1.391 . S
C1893 H1881 0.950 . S
C1893 C1889 1.393 . S
C1893 C1892 1.391 . S
C1894 H1884 0.950 . S
C1894 C1895 1.386 . S
C1894 C1896 1.391 . S
C1895 C1894 1.386 . S
C1895 C1899 1.393 . S
C1896 H1885 0.950 . S
C1896 C1894 1.391 . S
C1896 C1897 1.400 . S
C1897 C1891 1.491 . S
C1897 C1896 1.400 . S
C1897 C1898 1.398 . S
C1898 H1886 0.964 . S
C1898 C1897 1.398 . S
C1898 C1899 1.391 . S
C1899 H1887 0.950 . S
C1899 C1895 1.393 . S
C1899 C1898 1.391 . S
H1900 C1908 0.950 . S
H1901 C1913 0.950 . S
H1902 C1910 0.950 . S
H1903 C1912 0.950 . S
H1904 C1914 0.950 . S
H1905 C1916 0.950 . S
H1906 C1918 0.950 . S
H1907 C1919 0.950 . S
C1908 H1900 0.950 . S
C1908 C1909 1.386 . S
C1908 C1910 1.391 . S
C1909 C1908 1.386 . S
C1909 C1913 1.393 . S
C1910 H1902 0.950 . S
C1910 C1908 1.391 . S
C1910 C1911 1.400 . S
C1911 C1910 1.400 . S
C1911 C1912 1.398 . S
C1911 C1917 1.491 . S
C1912 H1903 0.950 . S
C1912 C1911 1.398 . S
C1912 C1913 1.391 . S
C1913 H1901 0.950 . S
C1913 C1909 1.393 . S
C1913 C1912 1.391 . S
C1914 H1904 0.950 . S
C1914 C1915 1.386 . S
C1914 C1916 1.391 . S
C1915 C1914 1.386 . S
C1915 C1919 1.393 . S
C1916 H1905 0.950 . S
C1916 C1914 1.391 . S
C1916 C1917 1.400 . S
C1917 C1911 1.491 . S
C1917 C1916 1.400 . S
C1917 C1918 1.398 . S
C1918 H1906 0.950 . S
C1918 C1917 1.398 . S
C1918 C1919 1.391 . S
C1919 H1907 0.950 . S
C1919 C1915 1.393 . S
C1919 C1918 1.391 . S
H1920 C1928 0.950 . S
H1921 C1933 0.950 . S
H1922 C1930 0.950 . S
H1923 C1932 0.950 . S
H1924 C1934 0.950 . S
H1925 C1936 0.950 . S
H1926 C1938 0.950 . S
H1927 C1939 0.950 . S
C1928 H1920 0.950 . S
C1928 C1929 1.386 . S
C1928 C1930 1.391 . S
C1929 C1928 1.386 . S
C1929 C1933 1.393 . S
C1930 H1922 0.950 . S
C1930 C1928 1.391 . S
C1930 C1931 1.400 . S
C1931 C1930 1.400 . S
C1931 C1932 1.398 . S
C1931 C1937 1.491 . S
C1932 H1923 0.950 . S
C1932 C1931 1.398 . S
C1932 C1933 1.391 . S
C1933 H1921 0.950 . S
C1933 C1929 1.393 . S
C1933 C1932 1.391 . S
C1934 H1924 0.950 . S
C1934 C1935 1.386 . S
C1934 C1936 1.391 . S
C1935 C1934 1.386 . S
C1935 C1939 1.393 . S
C1936 H1925 0.950 . S
C1936 C1934 1.391 . S
C1936 C1937 1.400 . S
C1937 C1931 1.491 . S
C1937 C1936 1.400 . S
C1937 C1938 1.398 . S
C1938 H1926 0.950 . S
C1938 C1937 1.398 . S
C1938 C1939 1.391 . S
C1939 H1927 0.950 . S
C1939 C1935 1.393 . S
C1939 C1938 1.391 . S
H1940 C1948 0.950 . S
H1941 C1953 0.950 . S
H1942 C1950 0.950 . S
H1943 C1952 0.950 . S
H1944 C1954 0.950 . S
H1945 C1956 0.950 . S
H1946 C1958 0.950 . S
H1947 C1959 0.950 . S
C1948 H1940 0.950 . S
C1948 C1949 1.386 . S
C1948 C1950 1.391 . S
C1949 C1948 1.386 . S
C1949 C1953 1.393 . S
C1950 H1942 0.950 . S
C1950 C1948 1.391 . S
C1950 C1951 1.400 . S
C1951 C1950 1.400 . S
C1951 C1952 1.398 . S
C1951 C1957 1.491 . S
C1952 H1943 0.950 . S
C1952 C1951 1.398 . S
C1952 C1953 1.391 . S
C1953 H1941 0.950 . S
C1953 C1949 1.393 . S
C1953 C1952 1.391 . S
C1954 H1944 0.950 . S
C1954 C1955 1.386 . S
C1954 C1956 1.391 . S
C1955 C1954 1.386 . S
C1955 C1959 1.393 . S
C1956 H1945 0.950 . S
C1956 C1954 1.391 . S
C1956 C1957 1.400 . S
C1957 C1951 1.491 . S
C1957 C1956 1.400 . S
C1957 C1958 1.398 . S
C1958 H1946 0.950 . S
C1958 C1957 1.398 . S
C1958 C1959 1.391 . S
C1959 H1947 0.950 . S
C1959 C1955 1.393 . S
C1959 C1958 1.391 . S
H1960 C1968 0.950 . S
H1961 C1973 0.950 . S
H1962 C1970 0.950 . S
H1963 C1972 0.950 . S
H1964 C1974 0.950 . S
H1965 C1976 0.950 . S
H1966 C1978 0.950 . S
H1967 C1979 0.950 . S
C1968 H1960 0.950 . S
C1968 C1969 1.386 . S
C1968 C1970 1.391 . S
C1969 C1968 1.386 . S
C1969 C1973 1.393 . S
C1970 H1962 0.950 . S
C1970 C1968 1.391 . S
C1970 C1971 1.400 . S
C1971 C1970 1.400 . S
C1971 C1972 1.398 . S
C1971 C1977 1.491 . S
C1972 H1963 0.950 . S
C1972 C1971 1.398 . S
C1972 C1973 1.391 . S
C1973 H1961 0.950 . S
C1973 C1969 1.393 . S
C1973 C1972 1.391 . S
C1974 H1964 0.950 . S
C1974 C1975 1.386 . S
C1974 C1976 1.391 . S
C1975 C1974 1.386 . S
C1975 C1979 1.393 . S
C1976 H1965 0.950 . S
C1976 C1974 1.391 . S
C1976 C1977 1.400 . S
C1977 C1971 1.491 . S
C1977 C1976 1.400 . S
C1977 C1978 1.398 . S
C1978 H1966 0.950 . S
C1978 C1977 1.398 . S
C1978 C1979 1.391 . S
C1979 H1967 0.950 . S
C1979 C1975 1.393 . S
C1979 C1978 1.391 . S
H1980 C1988 0.950 . S
H1981 C1993 0.950 . S
H1982 C1990 0.950 . S
H1983 C1992 0.950 . S
H1984 C1994 0.950 . S
H1985 C1996 0.950 . S
H1986 C1998 0.950 . S
H1987 C1999 0.950 . S
C1988 H1980 0.950 . S
C1988 C1989 1.386 . S
C1988 C1990 1.391 . S
C1989 C1988 1.386 . S
C1989 C1993 1.393 . S
C1990 H1982 0.950 . S
C1990 C1988 1.391 . S
C1990 C1991 1.400 . S
C1991 C1990 1.400 . S
C1991 C1992 1.398 . S
C1991 C1997 1.491 . S
C1992 H1983 0.950 . S
C1992 C1991 1.398 . S
C1992 C1993 1.391 . S
C1993 H1981 0.950 . S
C1993 C1989 1.393 . S
C1993 C1992 1.391 . S
C1994 H1984 0.950 . S
C1994 C1995 1.386 . S
C1994 C1996 1.391 . S
C1995 C1994 1.386 . S
C1995 C1999 1.393 . S
C1996 H1985 0.950 . S
C1996 C1994 1.391 . S
C1996 C1997 1.400 . S
C1997 C1991 1.491 . S
C1997 C1996 1.400 . S
C1997 C1998 1.398 . S
C1998 H1986 0.950 . S
C1998 C1997 1.398 . S
C1998 C1999 1.391 . S
C1999 H1987 0.950 . S
C1999 C1995 1.393 . S
C1999 C1998 1.391 . S
H2000 C2008 0.950 . S
H2001 C2013 0.950 . S
H2002 C2010 0.950 . S
H2003 C2012 0.950 . S
H2004 C2014 0.950 . S
H2005 C2016 0.950 . S
H2006 C2018 0.950 . S
H2007 C2019 0.950 . S
C2008 H2000 0.950 . S
C2008 C2009 1.386 . S
C2008 C2010 1.391 . S
C2009 C2008 1.386 . S
C2009 C2013 1.393 . S
C2010 H2002 0.950 . S
C2010 C2008 1.391 . S
C2010 C2011 1.400 . S
C2011 C2010 1.400 . S
C2011 C2012 1.398 . S
C2011 C2017 1.491 . S
C2012 H2003 0.950 . S
C2012 C2011 1.398 . S
C2012 C2013 1.391 . S
C2013 H2001 0.950 . S
C2013 C2009 1.393 . S
C2013 C2012 1.391 . S
C2014 H2004 0.950 . S
C2014 C2015 1.386 . S
C2014 C2016 1.391 . S
C2015 C2014 1.386 . S
C2015 C2019 1.393 . S
C2016 H2005 0.950 . S
C2016 C2014 1.391 . S
C2016 C2017 1.400 . S
C2017 C2011 1.491 . S
C2017 C2016 1.400 . S
C2017 C2018 1.398 . S
C2018 H2006 0.950 . S
C2018 C2017 1.398 . S
C2018 C2019 1.391 . S
C2019 H2007 0.950 . S
C2019 C2015 1.393 . S
C2019 C2018 1.391 . S
H2020 C2028 0.950 . S
H2021 C2033 0.950 . S
H2022 C2030 0.950 . S
H2023 C2032 0.950 . S
H2024 C2034 0.950 . S
H2025 C2036 0.950 . S
H2026 C2038 0.950 . S
H2027 C2039 0.950 . S
C2028 H2020 0.950 . S
C2028 C2029 1.386 . S
C2028 C2030 1.391 . S
C2029 C2028 1.386 . S
C2029 C2033 1.393 . S
C2030 H2022 0.950 . S
C2030 C2028 1.391 . S
C2030 C2031 1.400 . S
C2031 C2030 1.400 . S
C2031 C2032 1.398 . S
C2031 C2037 1.491 . S
C2032 H2023 0.950 . S
C2032 C2031 1.398 . S
C2032 C2033 1.391 . S
C2033 H2021 0.950 . S
C2033 C2029 1.393 . S
C2033 C2032 1.391 . S
C2034 H2024 0.950 . S
C2034 C2035 1.386 . S
C2034 C2036 1.391 . S
C2035 C2034 1.386 . S
C2035 C2039 1.393 . S
C2036 H2025 0.950 . S
C2036 C2034 1.391 . S
C2036 C2037 1.400 . S
C2037 C2031 1.491 . S
C2037 C2036 1.400 . S
C2037 C2038 1.398 . S
C2038 H2026 0.950 . S
C2038 C2037 1.398 . S
C2038 C2039 1.391 . S
C2039 H2027 0.950 . S
C2039 C2035 1.393 . S
C2039 C2038 1.391 . S
H2040 C2048 0.950 . S
H2041 C2053 0.950 . S
H2042 C2050 0.950 . S
H2043 C2052 0.950 . S
H2044 C2054 0.950 . S
H2045 C2056 0.950 . S
H2046 C2058 0.950 . S
H2047 C2059 0.950 . S
C2048 H2040 0.950 . S
C2048 C2049 1.386 . S
C2048 C2050 1.391 . S
C2049 C2048 1.386 . S
C2049 C2053 1.393 . S
C2050 H2042 0.950 . S
C2050 C2048 1.391 . S
C2050 C2051 1.400 . S
C2051 C2050 1.400 . S
C2051 C2052 1.398 . S
C2051 C2057 1.491 . S
C2052 H2043 0.950 . S
C2052 C2051 1.398 . S
C2052 C2053 1.391 . S
C2053 H2041 0.950 . S
C2053 C2049 1.393 . S
C2053 C2052 1.391 . S
C2054 H2044 0.950 . S
C2054 C2055 1.386 . S
C2054 C2056 1.391 . S
C2055 C2054 1.386 . S
C2055 C2059 1.393 . S
C2056 H2045 0.950 . S
C2056 C2054 1.391 . S
C2056 C2057 1.400 . S
C2057 C2051 1.491 . S
C2057 C2056 1.400 . S
C2057 C2058 1.398 . S
C2058 H2046 0.950 . S
C2058 C2057 1.398 . S
C2058 C2059 1.391 . S
C2059 H2047 0.950 . S
C2059 C2055 1.393 . S
C2059 C2058 1.391 . S
H2060 C2068 0.950 . S
H2061 C2073 0.950 . S
H2062 C2070 0.950 . S
H2063 C2072 0.950 . S
H2064 C2074 0.950 . S
H2065 C2076 0.950 . S
H2066 C2078 0.950 . S
H2067 C2079 0.950 . S
C2068 H2060 0.950 . S
C2068 C2069 1.386 . S
C2068 C2070 1.391 . S
C2069 C2068 1.386 . S
C2069 C2073 1.393 . S
C2070 H2062 0.950 . S
C2070 C2068 1.391 . S
C2070 C2071 1.400 . S
C2071 C2070 1.400 . S
C2071 C2072 1.398 . S
C2071 C2077 1.491 . S
C2072 H2063 0.950 . S
C2072 C2071 1.398 . S
C2072 C2073 1.391 . S
C2073 H2061 0.950 . S
C2073 C2069 1.393 . S
C2073 C2072 1.391 . S
C2074 H2064 0.950 . S
C2074 C2075 1.386 . S
C2074 C2076 1.391 . S
C2075 C2074 1.386 . S
C2075 C2079 1.393 . S
C2076 H2065 0.950 . S
C2076 C2074 1.391 . S
C2076 C2077 1.400 . S
C2077 C2071 1.491 . S
C2077 C2076 1.400 . S
C2077 C2078 1.398 . S
C2078 H2066 0.950 . S
C2078 C2077 1.398 . S
C2078 C2079 1.391 . S
C2079 H2067 0.950 . S
C2079 C2075 1.393 . S
C2079 C2078 1.391 . S
H2080 C2088 0.950 . S
H2081 C2093 0.950 . S
H2082 C2090 0.950 . S
H2083 C2092 0.950 . S
H2084 C2094 0.950 . S
H2085 C2096 0.950 . S
H2086 C2098 0.950 . S
H2087 C2099 0.950 . S
C2088 H2080 0.950 . S
C2088 C2089 1.386 . S
C2088 C2090 1.391 . S
C2089 C2088 1.386 . S
C2089 C2093 1.393 . S
C2090 H2082 0.950 . S
C2090 C2088 1.391 . S
C2090 C2091 1.400 . S
C2091 C2090 1.400 . S
C2091 C2092 1.398 . S
C2091 C2097 1.491 . S
C2092 H2083 0.950 . S
C2092 C2091 1.398 . S
C2092 C2093 1.391 . S
C2093 H2081 0.950 . S
C2093 C2089 1.393 . S
C2093 C2092 1.391 . S
C2094 H2084 0.950 . S
C2094 C2095 1.386 . S
C2094 C2096 1.391 . S
C2095 C2094 1.386 . S
C2095 C2099 1.393 . S
C2096 H2085 0.950 . S
C2096 C2094 1.391 . S
C2096 C2097 1.400 . S
C2097 C2091 1.491 . S
C2097 C2096 1.400 . S
C2097 C2098 1.398 . S
C2098 H2086 0.950 . S
C2098 C2097 1.398 . S
C2098 C2099 1.391 . S
C2099 H2087 0.950 . S
C2099 C2095 1.393 . S
C2099 C2098 1.391 . S
H2100 C2108 0.950 . S
H2101 C2113 0.950 . S
H2102 C2110 0.950 . S
H2103 C2112 0.950 . S
H2104 C2114 0.950 . S
H2105 C2116 0.950 . S
H2106 C2118 0.950 . S
H2107 C2119 0.950 . S
C2108 H2100 0.950 . S
C2108 C2109 1.386 . S
C2108 C2110 1.391 . S
C2109 C2108 1.386 . S
C2109 C2113 1.393 . S
C2110 H2102 0.950 . S
C2110 C2108 1.391 . S
C2110 C2111 1.400 . S
C2111 C2110 1.400 . S
C2111 C2112 1.398 . S
C2111 C2117 1.491 . S
C2112 H2103 0.950 . S
C2112 C2111 1.398 . S
C2112 C2113 1.391 . S
C2113 H2101 0.950 . S
C2113 C2109 1.393 . S
C2113 C2112 1.391 . S
C2114 H2104 0.950 . S
C2114 C2115 1.386 . S
C2114 C2116 1.391 . S
C2115 C2114 1.386 . S
C2115 C2119 1.393 . S
C2116 H2105 0.950 . S
C2116 C2114 1.391 . S
C2116 C2117 1.400 . S
C2117 C2111 1.491 . S
C2117 C2116 1.400 . S
C2117 C2118 1.398 . S
C2118 H2106 0.950 . S
C2118 C2117 1.398 . S
C2118 C2119 1.391 . S
C2119 H2107 0.950 . S
C2119 C2115 1.393 . S
C2119 C2118 1.391 . S
H2120 C2128 0.950 . S
H2121 C2133 0.950 . S
H2122 C2130 0.950 . S
H2123 C2132 0.950 . S
H2124 C2134 0.950 . S
H2125 C2136 0.950 . S
H2126 C2138 0.950 . S
H2127 C2139 0.950 . S
C2128 H2120 0.950 . S
C2128 C2129 1.386 . S
C2128 C2130 1.391 . S
C2129 C2128 1.386 . S
C2129 C2133 1.393 . S
C2130 H2122 0.950 . S
C2130 C2128 1.391 . S
C2130 C2131 1.400 . S
C2131 C2130 1.400 . S
C2131 C2132 1.398 . S
C2131 C2137 1.491 . S
C2132 H2123 0.950 . S
C2132 C2131 1.398 . S
C2132 C2133 1.391 . S
C2133 H2121 0.950 . S
C2133 C2129 1.393 . S
C2133 C2132 1.391 . S
C2134 H2124 0.950 . S
C2134 C2135 1.386 . S
C2134 C2136 1.391 . S
C2135 C2134 1.386 . S
C2135 C2139 1.393 . S
C2136 H2125 0.950 . S
C2136 C2134 1.391 . S
C2136 C2137 1.400 . S
C2137 C2131 1.491 . S
C2137 C2136 1.400 . S
C2137 C2138 1.398 . S
C2138 H2126 0.950 . S
C2138 C2137 1.398 . S
C2138 C2139 1.391 . S
C2139 H2127 0.950 . S
C2139 C2135 1.393 . S
C2139 C2138 1.391 . S
H2140 C2148 0.950 . S
H2141 C2153 0.950 . S
H2142 C2150 0.950 . S
H2143 C2152 0.950 . S
H2144 C2154 0.950 . S
H2145 C2156 0.950 . S
H2146 C2158 0.950 . S
H2147 C2159 0.950 . S
C2148 H2140 0.950 . S
C2148 C2149 1.386 . S
C2148 C2150 1.391 . S
C2149 C2148 1.386 . S
C2149 C2153 1.393 . S
C2150 H2142 0.950 . S
C2150 C2148 1.391 . S
C2150 C2151 1.400 . S
C2151 C2150 1.400 . S
C2151 C2152 1.398 . S
C2151 C2157 1.491 . S
C2152 H2143 0.950 . S
C2152 C2151 1.398 . S
C2152 C2153 1.391 . S
C2153 H2141 0.950 . S
C2153 C2149 1.393 . S
C2153 C2152 1.391 . S
C2154 H2144 0.950 . S
C2154 C2155 1.386 . S
C2154 C2156 1.391 . S
C2155 C2154 1.386 . S
C2155 C2159 1.393 . S
C2156 H2145 0.950 . S
C2156 C2154 1.391 . S
C2156 C2157 1.400 . S
C2157 C2151 1.491 . S
C2157 C2156 1.400 . S
C2157 C2158 1.398 . S
C2158 H2146 0.950 . S
C2158 C2157 1.398 . S
C2158 C2159 1.391 . S
C2159 H2147 0.950 . S
C2159 C2155 1.393 . S
C2159 C2158 1.391 . S
H2160 C2168 0.950 . S
H2161 C2173 0.950 . S
H2162 C2170 0.950 . S
H2163 C2172 0.950 . S
H2164 C2174 0.950 . S
H2165 C2176 0.950 . S
H2166 C2178 0.950 . S
H2167 C2179 0.950 . S
C2168 H2160 0.950 . S
C2168 C2169 1.386 . S
C2168 C2170 1.391 . S
C2169 C2168 1.386 . S
C2169 C2173 1.393 . S
C2170 H2162 0.950 . S
C2170 C2168 1.391 . S
C2170 C2171 1.400 . S
C2171 C2170 1.400 . S
C2171 C2172 1.398 . S
C2171 C2177 1.491 . S
C2172 H2163 0.950 . S
C2172 C2171 1.398 . S
C2172 C2173 1.391 . S
C2173 H2161 0.950 . S
C2173 C2169 1.393 . S
C2173 C2172 1.391 . S
C2174 H2164 0.950 . S
C2174 C2175 1.386 . S
C2174 C2176 1.391 . S
C2175 C2174 1.386 . S
C2175 C2179 1.393 . S
C2176 H2165 0.950 . S
C2176 C2174 1.391 . S
C2176 C2177 1.400 . S
C2177 C2171 1.491 . S
C2177 C2176 1.400 . S
C2177 C2178 1.398 . S
C2178 H2166 0.950 . S
C2178 C2177 1.398 . S
C2178 C2179 1.391 . S
C2179 H2167 0.950 . S
C2179 C2175 1.393 . S
C2179 C2178 1.391 . S
H2180 C2188 0.950 . S
H2181 C2193 0.950 . S
H2182 C2190 0.950 . S
H2183 C2192 0.950 . S
H2184 C2194 0.950 . S
H2185 C2196 0.950 . S
H2186 C2198 0.950 . S
H2187 C2199 0.950 . S
C2188 H2180 0.950 . S
C2188 C2189 1.386 . S
C2188 C2190 1.391 . S
C2189 C2188 1.386 . S
C2189 C2193 1.393 . S
C2190 H2182 0.950 . S
C2190 C2188 1.391 . S
C2190 C2191 1.400 . S
C2191 C2190 1.400 . S
C2191 C2192 1.398 . S
C2191 C2197 1.491 . S
C2192 H2183 0.950 . S
C2192 C2191 1.398 . S
C2192 C2193 1.391 . S
C2193 H2181 0.950 . S
C2193 C2189 1.393 . S
C2193 C2192 1.391 . S
C2194 H2184 0.950 . S
C2194 C2195 1.386 . S
C2194 C2196 1.391 . S
C2195 C2194 1.386 . S
C2195 C2199 1.393 . S
C2196 H2185 0.950 . S
C2196 C2194 1.391 . S
C2196 C2197 1.400 . S
C2197 C2191 1.491 . S
C2197 C2196 1.400 . S
C2197 C2198 1.398 . S
C2198 H2186 0.950 . S
C2198 C2197 1.398 . S
C2198 C2199 1.391 . S
C2199 H2187 0.950 . S
C2199 C2195 1.393 . S
C2199 C2198 1.391 . S
H2200 C2208 0.950 . S
H2201 C2213 0.950 . S
H2202 C2210 0.950 . S
H2203 C2212 0.950 . S
H2204 C2214 0.950 . S
H2205 C2216 0.950 . S
H2206 C2218 0.950 . S
H2207 C2219 0.950 . S
C2208 H2200 0.950 . S
C2208 C2209 1.386 . S
C2208 C2210 1.391 . S
C2209 C2208 1.386 . S
C2209 C2213 1.393 . S
C2210 H2202 0.950 . S
C2210 C2208 1.391 . S
C2210 C2211 1.400 . S
C2211 C2210 1.400 . S
C2211 C2212 1.398 . S
C2211 C2217 1.491 . S
C2212 H2203 0.950 . S
C2212 C2211 1.398 . S
C2212 C2213 1.391 . S
C2213 H2201 0.950 . S
C2213 C2209 1.393 . S
C2213 C2212 1.391 . S
C2214 H2204 0.950 . S
C2214 C2215 1.386 . S
C2214 C2216 1.391 . S
C2215 C2214 1.386 . S
C2215 C2219 1.393 . S
C2216 H2205 0.950 . S
C2216 C2214 1.391 . S
C2216 C2217 1.400 . S
C2217 C2211 1.491 . S
C2217 C2216 1.400 . S
C2217 C2218 1.398 . S
C2218 H2206 0.950 . S
C2218 C2217 1.398 . S
C2218 C2219 1.391 . S
C2219 H2207 0.950 . S
C2219 C2215 1.393 . S
C2219 C2218 1.391 . S
H2220 C2228 0.950 . S
H2221 C2233 0.950 . S
H2222 C2230 0.950 . S
H2223 C2232 0.950 . S
H2224 C2234 0.950 . S
H2225 C2236 0.950 . S
H2226 C2238 0.950 . S
H2227 C2239 0.950 . S
C2228 H2220 0.950 . S
C2228 C2229 1.386 . S
C2228 C2230 1.391 . S
C2229 C2228 1.386 . S
C2229 C2233 1.393 . S
C2230 H2222 0.950 . S
C2230 C2228 1.391 . S
C2230 C2231 1.400 . S
C2231 C2230 1.400 . S
C2231 C2232 1.398 . S
C2231 C2237 1.491 . S
C2232 H2223 0.950 . S
C2232 C2231 1.398 . S
C2232 C2233 1.391 . S
C2233 H2221 0.950 . S
C2233 C2229 1.393 . S
C2233 C2232 1.391 . S
C2234 H2224 0.950 . S
C2234 C2235 1.386 . S
C2234 C2236 1.391 . S
C2235 C2234 1.386 . S
C2235 C2239 1.393 . S
C2236 H2225 0.950 . S
C2236 C2234 1.391 . S
C2236 C2237 1.400 . S
C2237 C2231 1.491 . S
C2237 C2236 1.400 . S
C2237 C2238 1.398 . S
C2238 H2226 0.950 . S
C2238 C2237 1.398 . S
C2238 C2239 1.391 . S
C2239 H2227 0.950 . S
C2239 C2235 1.393 . S
C2239 C2238 1.391 . S
H2240 C2248 0.950 . S
H2241 C2253 0.950 . S
H2242 C2250 0.950 . S
H2243 C2252 0.950 . S
H2244 C2254 0.950 . S
H2245 C2256 0.950 . S
H2246 C2258 0.950 . S
H2247 C2259 0.950 . S
C2248 H2240 0.950 . S
C2248 C2249 1.386 . S
C2248 C2250 1.391 . S
C2249 C2248 1.386 . S
C2249 C2253 1.393 . S
C2250 H2242 0.950 . S
C2250 C2248 1.391 . S
C2250 C2251 1.400 . S
C2251 C2250 1.400 . S
C2251 C2252 1.398 . S
C2251 C2257 1.491 . S
C2252 H2243 0.950 . S
C2252 C2251 1.398 . S
C2252 C2253 1.391 . S
C2253 H2241 0.950 . S
C2253 C2249 1.393 . S
C2253 C2252 1.391 . S
C2254 H2244 0.950 . S
C2254 C2255 1.386 . S
C2254 C2256 1.391 . S
C2255 C2254 1.386 . S
C2255 C2259 1.393 . S
C2256 H2245 0.950 . S
C2256 C2254 1.391 . S
C2256 C2257 1.400 . S
C2257 C2251 1.491 . S
C2257 C2256 1.400 . S
C2257 C2258 1.398 . S
C2258 H2246 0.950 . S
C2258 C2257 1.398 . S
C2258 C2259 1.391 . S
C2259 H2247 0.950 . S
C2259 C2255 1.393 . S
C2259 C2258 1.391 . S
H2260 C2268 0.950 . S
H2261 C2273 0.950 . S
H2262 C2270 0.950 . S
H2263 C2272 0.950 . S
H2264 C2274 0.950 . S
H2265 C2276 0.950 . S
H2266 C2278 0.950 . S
H2267 C2279 0.950 . S
C2268 H2260 0.950 . S
C2268 C2269 1.386 . S
C2268 C2270 1.391 . S
C2269 C2268 1.386 . S
C2269 C2273 1.393 . S
C2270 H2262 0.950 . S
C2270 C2268 1.391 . S
C2270 C2271 1.400 . S
C2271 C2270 1.400 . S
C2271 C2272 1.398 . S
C2271 C2277 1.491 . S
C2272 H2263 0.950 . S
C2272 C2271 1.398 . S
C2272 C2273 1.391 . S
C2273 H2261 0.950 . S
C2273 C2269 1.393 . S
C2273 C2272 1.391 . S
C2274 H2264 0.950 . S
C2274 C2275 1.386 . S
C2274 C2276 1.391 . S
C2275 C2274 1.386 . S
C2275 C2279 1.393 . S
C2276 H2265 0.950 . S
C2276 C2274 1.391 . S
C2276 C2277 1.400 . S
C2277 C2271 1.491 . S
C2277 C2276 1.400 . S
C2277 C2278 1.398 . S
C2278 H2266 0.950 . S
C2278 C2277 1.398 . S
C2278 C2279 1.391 . S
C2279 H2267 0.950 . S
C2279 C2275 1.393 . S
C2279 C2278 1.391 . S
H2280 C2288 0.950 . S
H2281 C2293 0.950 . S
H2282 C2290 0.950 . S
H2283 C2292 0.950 . S
H2284 C2294 0.950 . S
H2285 C2296 0.950 . S
H2286 C2298 0.950 . S
H2287 C2299 0.950 . S
C2288 H2280 0.950 . S
C2288 C2289 1.386 . S
C2288 C2290 1.391 . S
C2289 C2288 1.386 . S
C2289 C2293 1.393 . S
C2290 H2282 0.950 . S
C2290 C2288 1.391 . S
C2290 C2291 1.400 . S
C2291 C2290 1.400 . S
C2291 C2292 1.398 . S
C2291 C2297 1.491 . S
C2292 H2283 0.950 . S
C2292 C2291 1.398 . S
C2292 C2293 1.391 . S
C2293 H2281 0.950 . S
C2293 C2289 1.393 . S
C2293 C2292 1.391 . S
C2294 H2284 0.950 . S
C2294 C2295 1.386 . S
C2294 C2296 1.391 . S
C2295 C2294 1.386 . S
C2295 C2299 1.393 . S
C2296 H2285 0.950 . S
C2296 C2294 1.391 . S
C2296 C2297 1.400 . S
C2297 C2291 1.491 . S
C2297 C2296 1.400 . S
C2297 C2298 1.398 . S
C2298 H2286 0.950 . S
C2298 C2297 1.398 . S
C2298 C2299 1.391 . S
C2299 H2287 0.950 . S
C2299 C2295 1.393 . S
C2299 C2298 1.391 . S
H2300 C2308 0.950 . S
H2301 C2313 0.950 . S
H2302 C2310 0.950 . S
H2303 C2312 0.950 . S
H2304 C2314 0.950 . S
H2305 C2316 0.950 . S
H2306 C2318 0.950 . S
H2307 C2319 0.950 . S
C2308 H2300 0.950 . S
C2308 C2309 1.386 . S
C2308 C2310 1.391 . S
C2309 C2308 1.386 . S
C2309 C2313 1.393 . S
C2310 H2302 0.950 . S
C2310 C2308 1.391 . S
C2310 C2311 1.400 . S
C2311 C2310 1.400 . S
C2311 C2312 1.398 . S
C2311 C2317 1.491 . S
C2312 H2303 0.950 . S
C2312 C2311 1.398 . S
C2312 C2313 1.391 . S
C2313 H2301 0.950 . S
C2313 C2309 1.393 . S
C2313 C2312 1.391 . S
C2314 H2304 0.950 . S
C2314 C2315 1.386 . S
C2314 C2316 1.391 . S
C2315 C2314 1.386 . S
C2315 C2319 1.393 . S
C2316 H2305 0.950 . S
C2316 C2314 1.391 . S
C2316 C2317 1.400 . S
C2317 C2311 1.491 . S
C2317 C2316 1.400 . S
C2317 C2318 1.398 . S
C2318 H2306 0.950 . S
C2318 C2317 1.398 . S
C2318 C2319 1.391 . S
C2319 H2307 0.950 . S
C2319 C2315 1.393 . S
C2319 C2318 1.391 . S
H2320 C2328 0.950 . S
H2321 C2333 0.950 . S
H2322 C2330 0.950 . S
H2323 C2332 0.950 . S
H2324 C2334 0.950 . S
H2325 C2336 0.950 . S
H2326 C2338 0.950 . S
H2327 C2339 0.950 . S
C2328 H2320 0.950 . S
C2328 C2329 1.386 . S
C2328 C2330 1.391 . S
C2329 C2328 1.386 . S
C2329 C2333 1.393 . S
C2330 H2322 0.950 . S
C2330 C2328 1.391 . S
C2330 C2331 1.400 . S
C2331 C2330 1.400 . S
C2331 C2332 1.398 . S
C2331 C2337 1.491 . S
C2332 H2323 0.950 . S
C2332 C2331 1.398 . S
C2332 C2333 1.391 . S
C2333 H2321 0.950 . S
C2333 C2329 1.393 . S
C2333 C2332 1.391 . S
C2334 H2324 0.950 . S
C2334 C2335 1.386 . S
C2334 C2336 1.391 . S
C2335 C2334 1.386 . S
C2335 C2339 1.393 . S
C2336 H2325 0.950 . S
C2336 C2334 1.391 . S
C2336 C2337 1.400 . S
C2337 C2331 1.491 . S
C2337 C2336 1.400 . S
C2337 C2338 1.398 . S
C2338 H2326 0.950 . S
C2338 C2337 1.398 . S
C2338 C2339 1.391 . S
C2339 H2327 0.950 . S
C2339 C2335 1.393 . S
C2339 C2338 1.391 . S
H2340 C2348 0.950 . S
H2341 C2353 0.950 . S
H2342 C2350 0.950 . S
H2343 C2352 0.950 . S
H2344 C2354 0.950 . S
H2345 C2356 0.950 . S
H2346 C2358 0.950 . S
H2347 C2359 0.950 . S
C2348 H2340 0.950 . S
C2348 C2349 1.386 . S
C2348 C2350 1.391 . S
C2349 C2348 1.386 . S
C2349 C2353 1.393 . S
C2350 H2342 0.950 . S
C2350 C2348 1.391 . S
C2350 C2351 1.400 . S
C2351 C2350 1.400 . S
C2351 C2352 1.398 . S
C2351 C2357 1.491 . S
C2352 H2343 0.950 . S
C2352 C2351 1.398 . S
C2352 C2353 1.391 . S
C2353 H2341 0.950 . S
C2353 C2349 1.393 . S
C2353 C2352 1.391 . S
C2354 H2344 0.950 . S
C2354 C2355 1.386 . S
C2354 C2356 1.391 . S
C2355 C2354 1.386 . S
C2355 C2359 1.393 . S
C2356 H2345 0.950 . S
C2356 C2354 1.391 . S
C2356 C2357 1.400 . S
C2357 C2351 1.491 . S
C2357 C2356 1.400 . S
C2357 C2358 1.398 . S
C2358 H2346 0.950 . S
C2358 C2357 1.398 . S
C2358 C2359 1.391 . S
C2359 H2347 0.950 . S
C2359 C2355 1.393 . S
C2359 C2358 1.391 . S
H2360 C2368 0.950 . S
H2361 C2373 0.950 . S
H2362 C2370 0.950 . S
H2363 C2372 0.950 . S
H2364 C2374 0.950 . S
H2365 C2376 0.950 . S
H2366 C2378 0.950 . S
H2367 C2379 0.950 . S
C2368 H2360 0.950 . S
C2368 C2369 1.386 . S
C2368 C2370 1.391 . S
C2369 C2368 1.386 . S
C2369 C2373 1.393 . S
C2370 H2362 0.950 . S
C2370 C2368 1.391 . S
C2370 C2371 1.400 . S
C2371 C2370 1.400 . S
C2371 C2372 1.398 . S
C2371 C2377 1.491 . S
C2372 H2363 0.950 . S
C2372 C2371 1.398 . S
C2372 C2373 1.391 . S
C2373 H2361 0.950 . S
C2373 C2369 1.393 . S
C2373 C2372 1.391 . S
C2374 H2364 0.950 . S
C2374 C2375 1.386 . S
C2374 C2376 1.391 . S
C2375 C2374 1.386 . S
C2375 C2379 1.393 . S
C2376 H2365 0.950 . S
C2376 C2374 1.391 . S
C2376 C2377 1.400 . S
C2377 C2371 1.491 . S
C2377 C2376 1.400 . S
C2377 C2378 1.398 . S
C2378 H2366 0.950 . S
C2378 C2377 1.398 . S
C2378 C2379 1.391 . S
C2379 H2367 0.950 . S
C2379 C2375 1.393 . S
C2379 C2378 1.391 . S
H2380 C2388 0.950 . S
H2381 C2393 0.950 . S
H2382 C2390 0.950 . S
H2383 C2392 0.950 . S
H2384 C2394 0.950 . S
H2385 C2396 0.950 . S
H2386 C2398 0.950 . S
H2387 C2399 0.950 . S
C2388 H2380 0.950 . S
C2388 C2389 1.386 . S
C2388 C2390 1.391 . S
C2389 C2388 1.386 . S
C2389 C2393 1.393 . S
C2390 H2382 0.950 . S
C2390 C2388 1.391 . S
C2390 C2391 1.400 . S
C2391 C2390 1.400 . S
C2391 C2392 1.398 . S
C2391 C2397 1.491 . S
C2392 H2383 0.950 . S
C2392 C2391 1.398 . S
C2392 C2393 1.391 . S
C2393 H2381 0.950 . S
C2393 C2389 1.393 . S
C2393 C2392 1.391 . S
C2394 H2384 0.950 . S
C2394 C2395 1.386 . S
C2394 C2396 1.391 . S
C2395 C2394 1.386 . S
C2395 C2399 1.393 . S
C2396 H2385 0.950 . S
C2396 C2394 1.391 . S
C2396 C2397 1.400 . S
C2397 C2391 1.491 . S
C2397 C2396 1.400 . S
C2397 C2398 1.398 . S
C2398 H2386 0.950 . S
C2398 C2397 1.398 . S
C2398 C2399 1.391 . S
C2399 H2387 0.950 . S
C2399 C2395 1.393 . S
C2399 C2398 1.391 . S
H2400 C2408 0.950 . S
H2401 C2413 0.950 . S
H2402 C2410 0.950 . S
H2403 C2412 0.950 . S
H2404 C2414 0.950 . S
H2405 C2416 0.950 . S
H2406 C2418 0.950 . S
H2407 C2419 0.950 . S
C2408 H2400 0.950 . S
C2408 C2409 1.386 1_565 S
C2408 C2410 1.391 . S
C2409 C2408 1.386 1_545 S
C2409 C2413 1.393 . S
C2410 H2402 0.950 . S
C2410 C2408 1.391 . S
C2410 C2411 1.400 . S
C2411 C2410 1.400 . S
C2411 C2412 1.398 1_565 S
C2411 C2417 1.491 . S
C2412 H2403 0.950 . S
C2412 C2411 1.398 1_545 S
C2412 C2413 1.391 . S
C2413 H2401 0.950 . S
C2413 C2409 1.393 . S
C2413 C2412 1.391 . S
C2414 H2404 0.950 . S
C2414 C2415 1.386 . S
C2414 C2416 1.391 . S
C2415 C2414 1.386 . S
C2415 C2419 1.393 . S
C2416 H2405 0.950 . S
C2416 C2414 1.391 . S
C2416 C2417 1.400 . S
C2417 C2411 1.491 . S
C2417 C2416 1.400 . S
C2417 C2418 1.398 . S
C2418 H2406 0.950 . S
C2418 C2417 1.398 . S
C2418 C2419 1.391 . S
C2419 H2407 0.950 . S
C2419 C2415 1.393 . S
C2419 C2418 1.391 . S
H2420 C2428 0.950 . S
H2421 C2433 0.950 . S
H2422 C2430 0.950 . S
H2423 C2432 0.950 . S
H2424 C2434 0.950 . S
H2425 C2436 0.950 . S
H2426 C2438 0.950 . S
H2427 C2439 0.950 . S
C2428 H2420 0.950 . S
C2428 C2429 1.386 . S
C2428 C2430 1.391 . S
C2429 C2428 1.386 . S
C2429 C2433 1.393 . S
C2430 H2422 0.950 . S
C2430 C2428 1.391 . S
C2430 C2431 1.400 . S
C2431 C2430 1.400 . S
C2431 C2432 1.398 . S
C2431 C2437 1.491 . S
C2432 H2423 0.950 . S
C2432 C2431 1.398 . S
C2432 C2433 1.391 . S
C2433 H2421 0.950 . S
C2433 C2429 1.393 . S
C2433 C2432 1.391 . S
C2434 H2424 0.950 . S
C2434 C2435 1.386 . S
C2434 C2436 1.391 . S
C2435 C2434 1.386 . S
C2435 C2439 1.393 . S
C2436 H2425 0.950 . S
C2436 C2434 1.391 . S
C2436 C2437 1.400 . S
C2437 C2431 1.491 . S
C2437 C2436 1.400 . S
C2437 C2438 1.398 . S
C2438 H2426 0.950 . S
C2438 C2437 1.398 . S
C2438 C2439 1.391 . S
C2439 H2427 0.950 . S
C2439 C2435 1.393 . S
C2439 C2438 1.391 . S
H2440 C2448 0.950 . S
H2441 C2453 0.950 . S
H2442 C2450 0.950 . S
H2443 C2452 0.950 . S
H2444 C2454 0.950 . S
H2445 C2456 0.950 . S
H2446 C2458 0.950 . S
H2447 C2459 0.950 . S
C2448 H2440 0.950 . S
C2448 C2449 1.386 . S
C2448 C2450 1.391 . S
C2449 C2448 1.386 . S
C2449 C2453 1.393 . S
C2450 H2442 0.950 . S
C2450 C2448 1.391 . S
C2450 C2451 1.400 . S
C2451 C2450 1.400 . S
C2451 C2452 1.398 . S
C2451 C2457 1.491 . S
C2452 H2443 0.950 . S
C2452 C2451 1.398 . S
C2452 C2453 1.391 . S
C2453 H2441 0.950 . S
C2453 C2449 1.393 . S
C2453 C2452 1.391 . S
C2454 H2444 0.950 . S
C2454 C2455 1.386 . S
C2454 C2456 1.391 . S
C2455 C2454 1.386 . S
C2455 C2459 1.393 . S
C2456 H2445 0.950 . S
C2456 C2454 1.391 . S
C2456 C2457 1.400 . S
C2457 C2451 1.491 . S
C2457 C2456 1.400 . S
C2457 C2458 1.398 . S
C2458 H2446 0.950 . S
C2458 C2457 1.398 . S
C2458 C2459 1.391 . S
C2459 H2447 0.950 . S
C2459 C2455 1.393 . S
C2459 C2458 1.391 . S
H2460 C2468 0.950 . S
H2461 C2473 0.950 . S
H2462 C2470 0.950 . S
H2463 C2472 0.950 . S
H2464 C2474 0.950 . S
H2465 C2476 0.950 . S
H2466 C2478 0.950 . S
H2467 C2479 0.950 . S
C2468 H2460 0.950 . S
C2468 C2469 1.386 . S
C2468 C2470 1.391 . S
C2469 C2468 1.386 . S
C2469 C2473 1.393 1_545 S
C2470 H2462 0.950 . S
C2470 C2468 1.391 . S
C2470 C2471 1.400 1_545 S
C2471 C2470 1.400 1_565 S
C2471 C2472 1.398 . S
C2471 C2477 1.491 . S
C2472 H2463 0.950 . S
C2472 C2471 1.398 . S
C2472 C2473 1.391 . S
C2473 H2461 0.950 . S
C2473 C2469 1.393 1_565 S
C2473 C2472 1.391 . S
C2474 H2464 0.950 . S
C2474 C2475 1.386 . S
C2474 C2476 1.391 . S
C2475 C2474 1.386 . S
C2475 C2479 1.393 1_565 S
C2476 H2465 0.950 . S
C2476 C2474 1.391 . S
C2476 C2477 1.400 . S
C2477 C2471 1.491 . S
C2477 C2476 1.400 . S
C2477 C2478 1.398 1_565 S
C2478 H2466 0.950 . S
C2478 C2477 1.398 1_545 S
C2478 C2479 1.391 . S
C2479 H2467 0.950 . S
C2479 C2475 1.393 1_545 S
C2479 C2478 1.391 . S
H2480 C2488 0.950 . S
H2481 C2493 0.950 . S
H2482 C2490 0.950 . S
H2483 C2492 0.950 . S
H2484 C2494 0.950 . S
H2485 C2496 0.950 1_565 S
H2486 C2498 0.950 . S
H2487 C2499 0.950 . S
C2488 H2480 0.950 . S
C2488 C2489 1.386 1_545 S
C2488 C2490 1.391 . S
C2489 C2488 1.386 1_565 S
C2489 C2493 1.393 . S
C2490 H2482 0.950 . S
C2490 C2488 1.391 . S
C2490 C2491 1.400 . S
C2491 C2490 1.400 . S
C2491 C2492 1.398 1_545 S
C2491 C2497 1.491 . S
C2492 H2483 0.950 . S
C2492 C2491 1.398 1_565 S
C2492 C2493 1.391 . S
C2493 H2481 0.950 . S
C2493 C2489 1.393 . S
C2493 C2492 1.391 . S
C2494 H2484 0.950 . S
C2494 C2495 1.386 . S
C2494 C2496 1.391 . S
C2495 C2494 1.386 . S
C2495 C2499 1.393 . S
C2496 H2485 0.950 1_545 S
C2496 C2494 1.391 . S
C2496 C2497 1.400 . S
C2497 C2491 1.491 . S
C2497 C2496 1.400 . S
C2497 C2498 1.398 . S
C2498 H2486 0.950 . S
C2498 C2497 1.398 . S
C2498 C2499 1.391 . S
C2499 H2487 0.950 . S
C2499 C2495 1.393 . S
C2499 C2498 1.391 . S
H2500 C2508 0.950 . S
H2501 C2513 0.950 . S
H2502 C2510 0.950 . S
H2503 C2512 0.950 . S
H2504 C2514 0.950 . S
H2505 C2516 0.950 . S
H2506 C2518 0.950 . S
H2507 C2519 0.950 . S
C2508 H2500 0.950 . S
C2508 C2509 1.386 . S
C2508 C2510 1.391 . S
C2509 C2508 1.386 . S
C2509 C2513 1.393 . S
C2510 H2502 0.950 . S
C2510 C2508 1.391 . S
C2510 C2511 1.400 . S
C2511 C2510 1.400 . S
C2511 C2512 1.398 . S
C2511 C2517 1.491 . S
C2512 H2503 0.950 . S
C2512 C2511 1.398 . S
C2512 C2513 1.391 . S
C2513 H2501 0.950 . S
C2513 C2509 1.393 . S
C2513 C2512 1.391 . S
C2514 H2504 0.950 . S
C2514 C2515 1.386 . S
C2514 C2516 1.391 . S
C2515 C2514 1.386 . S
C2515 C2519 1.393 . S
C2516 H2505 0.950 . S
C2516 C2514 1.391 . S
C2516 C2517 1.400 . S
C2517 C2511 1.491 . S
C2517 C2516 1.400 . S
C2517 C2518 1.398 . S
C2518 H2506 0.950 . S
C2518 C2517 1.398 . S
C2518 C2519 1.391 . S
C2519 H2507 0.950 . S
C2519 C2515 1.393 . S
C2519 C2518 1.391 . S
H2520 C2528 0.950 . S
H2521 C2533 0.950 . S
H2522 C2530 0.950 . S
H2523 C2532 0.950 . S
H2524 C2534 0.950 . S
H2525 C2536 0.950 . S
H2526 C2538 0.950 . S
H2527 C2539 0.950 . S
C2528 H2520 0.950 . S
C2528 C2529 1.386 . S
C2528 C2530 1.391 . S
C2529 C2528 1.386 . S
C2529 C2533 1.393 . S
C2530 H2522 0.950 . S
C2530 C2528 1.391 . S
C2530 C2531 1.400 . S
C2531 C2530 1.400 . S
C2531 C2532 1.398 . S
C2531 C2537 1.491 . S
C2532 H2523 0.950 . S
C2532 C2531 1.398 . S
C2532 C2533 1.391 . S
C2533 H2521 0.950 . S
C2533 C2529 1.393 . S
C2533 C2532 1.391 . S
C2534 H2524 0.950 . S
C2534 C2535 1.386 . S
C2534 C2536 1.391 . S
C2535 C2534 1.386 . S
C2535 C2539 1.393 . S
C2536 H2525 0.950 . S
C2536 C2534 1.391 . S
C2536 C2537 1.400 . S
C2537 C2531 1.491 . S
C2537 C2536 1.400 . S
C2537 C2538 1.398 . S
C2538 H2526 0.950 . S
C2538 C2537 1.398 . S
C2538 C2539 1.391 . S
C2539 H2527 0.950 . S
C2539 C2535 1.393 . S
C2539 C2538 1.391 . S
H2540 C2548 0.950 . S
H2541 C2553 0.950 . S
H2542 C2550 0.950 . S
H2543 C2552 0.950 . S
H2544 C2554 0.950 . S
H2545 C2556 0.950 . S
H2546 C2558 0.950 . S
H2547 C2559 0.950 1_565 S
C2548 H2540 0.950 . S
C2548 C2549 1.386 . S
C2548 C2550 1.391 . S
C2549 C2548 1.386 . S
C2549 C2553 1.393 1_565 S
C2550 H2542 0.950 . S
C2550 C2548 1.391 . S
C2550 C2551 1.400 1_565 S
C2551 C2550 1.400 1_545 S
C2551 C2552 1.398 . S
C2551 C2557 1.491 . S
C2552 H2543 0.950 . S
C2552 C2551 1.398 . S
C2552 C2553 1.391 . S
C2553 H2541 0.950 . S
C2553 C2549 1.393 1_545 S
C2553 C2552 1.391 . S
C2554 H2544 0.950 . S
C2554 C2555 1.386 . S
C2554 C2556 1.391 . S
C2555 C2554 1.386 . S
C2555 C2559 1.393 . S
C2556 H2545 0.950 . S
C2556 C2554 1.391 . S
C2556 C2557 1.400 . S
C2557 C2551 1.491 . S
C2557 C2556 1.400 . S
C2557 C2558 1.399 1_545 S
C2558 H2546 0.950 . S
C2558 C2557 1.399 1_565 S
C2558 C2559 1.391 1_565 S
C2559 H2547 0.950 1_545 S
C2559 C2555 1.393 . S
C2559 C2558 1.391 1_545 S
H2560 C2568 0.950 . S
H2561 C2573 0.950 . S
H2562 C2570 0.950 . S
H2563 C2572 0.950 . S
H2564 C2574 0.950 . S
H2565 C2576 0.950 . S
H2566 C2578 0.950 1_455 S
H2567 C2579 0.950 . S
C2568 H2560 0.950 . S
C2568 C2569 1.386 . S
C2568 C2570 1.391 . S
C2569 C2568 1.386 . S
C2569 C2573 1.393 . S
C2570 H2562 0.950 . S
C2570 C2568 1.391 . S
C2570 C2571 1.400 . S
C2571 C2570 1.400 . S
C2571 C2572 1.398 . S
C2571 C2577 1.491 . S
C2572 H2563 0.950 . S
C2572 C2571 1.398 . S
C2572 C2573 1.391 . S
C2573 H2561 0.950 . S
C2573 C2569 1.393 . S
C2573 C2572 1.391 . S
C2574 H2564 0.950 . S
C2574 C2575 1.386 . S
C2574 C2576 1.391 . S
C2575 C2574 1.386 . S
C2575 C2579 1.393 . S
C2576 H2565 0.950 . S
C2576 C2574 1.391 . S
C2576 C2577 1.400 1_655 S
C2577 C2571 1.491 . S
C2577 C2576 1.400 1_455 S
C2577 C2578 1.398 1_455 S
C2578 H2566 0.950 1_655 S
C2578 C2577 1.398 1_655 S
C2578 C2579 1.391 . S
C2579 H2567 0.950 . S
C2579 C2575 1.393 . S
C2579 C2578 1.391 . S
H2580 C2588 0.950 . S
H2581 C2593 0.950 . S
H2582 C2590 0.950 . S
H2583 C2592 0.950 . S
H2584 C2594 0.950 . S
H2585 C2596 0.950 . S
H2586 C2598 0.950 . S
H2587 C2599 0.950 . S
C2588 H2580 0.950 . S
C2588 C2589 1.386 . S
C2588 C2590 1.391 . S
C2589 C2588 1.386 . S
C2589 C2593 1.393 . S
C2590 H2582 0.950 . S
C2590 C2588 1.391 . S
C2590 C2591 1.400 . S
C2591 C2590 1.400 . S
C2591 C2592 1.398 . S
C2591 C2597 1.491 . S
C2592 H2583 0.950 . S
C2592 C2591 1.398 . S
C2592 C2593 1.391 . S
C2593 H2581 0.950 . S
C2593 C2589 1.393 . S
C2593 C2592 1.391 . S
C2594 H2584 0.950 . S
C2594 C2595 1.386 . S
C2594 C2596 1.391 . S
C2595 C2594 1.386 . S
C2595 C2599 1.393 . S
C2596 H2585 0.950 . S
C2596 C2594 1.391 . S
C2596 C2597 1.400 . S
C2597 C2591 1.491 . S
C2597 C2596 1.400 . S
C2597 C2598 1.398 . S
C2598 H2586 0.950 . S
C2598 C2597 1.398 . S
C2598 C2599 1.391 . S
C2599 H2587 0.950 . S
C2599 C2595 1.393 . S
C2599 C2598 1.391 . S
H2600 C2608 0.950 . S
H2601 C2613 0.950 . S
H2602 C2610 0.950 . S
H2603 C2612 0.950 1_455 S
H2604 C2614 0.950 . S
H2605 C2616 0.950 . S
H2606 C2618 0.950 . S
H2607 C2619 0.950 . S
C2608 H2600 0.950 . S
C2608 C2609 1.386 . S
C2608 C2610 1.391 . S
C2609 C2608 1.386 . S
C2609 C2613 1.393 . S
C2610 H2602 0.950 . S
C2610 C2608 1.391 . S
C2610 C2611 1.400 1_655 S
C2611 C2610 1.400 1_455 S
C2611 C2612 1.398 1_455 S
C2611 C2617 1.491 . S
C2612 H2603 0.950 1_655 S
C2612 C2611 1.398 1_655 S
C2612 C2613 1.391 . S
C2613 H2601 0.950 . S
C2613 C2609 1.393 . S
C2613 C2612 1.391 . S
C2614 H2604 0.950 . S
C2614 C2615 1.386 . S
C2614 C2616 1.391 . S
C2615 C2614 1.386 . S
C2615 C2619 1.393 . S
C2616 H2605 0.950 . S
C2616 C2614 1.391 . S
C2616 C2617 1.400 . S
C2617 C2611 1.491 . S
C2617 C2616 1.400 . S
C2617 C2618 1.398 . S
C2618 H2606 0.950 . S
C2618 C2617 1.398 . S
C2618 C2619 1.391 . S
C2619 H2607 0.950 . S
C2619 C2615 1.393 . S
C2619 C2618 1.391 . S
H2620 C2628 0.950 . S
H2621 C2633 0.950 . S
H2622 C2630 0.950 . S
H2623 C2632 0.950 . S
H2624 C2634 0.950 . S
H2625 C2636 0.950 . S
H2626 C2638 0.950 . S
H2627 C2639 0.950 . S
C2628 H2620 0.950 . S
C2628 C2629 1.386 . S
C2628 C2630 1.391 . S
C2629 C2628 1.386 . S
C2629 C2633 1.393 . S
C2630 H2622 0.950 . S
C2630 C2628 1.391 . S
C2630 C2631 1.400 . S
C2631 C2630 1.400 . S
C2631 C2632 1.398 . S
C2631 C2637 1.491 . S
C2632 H2623 0.950 . S
C2632 C2631 1.398 . S
C2632 C2633 1.391 . S
C2633 H2621 0.950 . S
C2633 C2629 1.393 . S
C2633 C2632 1.391 . S
C2634 H2624 0.950 . S
C2634 C2635 1.386 . S
C2634 C2636 1.391 . S
C2635 C2634 1.386 . S
C2635 C2639 1.393 . S
C2636 H2625 0.950 . S
C2636 C2634 1.391 . S
C2636 C2637 1.400 . S
C2637 C2631 1.491 . S
C2637 C2636 1.400 . S
C2637 C2638 1.398 . S
C2638 H2626 0.950 . S
C2638 C2637 1.398 . S
C2638 C2639 1.391 . S
C2639 H2627 0.950 . S
C2639 C2635 1.393 . S
C2639 C2638 1.391 . S
H2640 C2648 0.950 . S
H2641 C2653 0.950 . S
H2642 C2650 0.950 . S
H2643 C2652 0.950 . S
H2644 C2654 0.950 . S
H2645 C2656 0.950 . S
H2646 C2658 0.950 1_655 S
H2647 C2659 0.950 . S
C2648 H2640 0.950 . S
C2648 C2649 1.386 . S
C2648 C2650 1.391 . S
C2649 C2648 1.386 . S
C2649 C2653 1.393 . S
C2650 H2642 0.950 . S
C2650 C2648 1.391 . S
C2650 C2651 1.400 . S
C2651 C2650 1.400 . S
C2651 C2652 1.398 . S
C2651 C2657 1.491 . S
C2652 H2643 0.950 . S
C2652 C2651 1.398 . S
C2652 C2653 1.391 . S
C2653 H2641 0.950 . S
C2653 C2649 1.393 . S
C2653 C2652 1.391 . S
C2654 H2644 0.950 . S
C2654 C2655 1.386 . S
C2654 C2656 1.391 . S
C2655 C2654 1.386 . S
C2655 C2659 1.393 . S
C2656 H2645 0.950 . S
C2656 C2654 1.391 . S
C2656 C2657 1.400 1_455 S
C2657 C2651 1.491 . S
C2657 C2656 1.400 1_655 S
C2657 C2658 1.398 1_655 S
C2658 H2646 0.950 1_455 S
C2658 C2657 1.398 1_455 S
C2658 C2659 1.391 . S
C2659 H2647 0.950 . S
C2659 C2655 1.393 . S
C2659 C2658 1.391 . S
H2660 C2668 0.950 . S
H2661 C2673 0.950 . S
H2662 C2670 0.950 . S
H2663 C2672 0.950 . S
H2664 C2674 0.950 . S
H2665 C2676 0.950 . S
H2666 C2678 0.950 . S
H2667 C2679 0.950 . S
C2668 H2660 0.950 . S
C2668 C2669 1.386 . S
C2668 C2670 1.391 . S
C2669 C2668 1.386 . S
C2669 C2673 1.393 . S
C2670 H2662 0.950 . S
C2670 C2668 1.391 . S
C2670 C2671 1.400 . S
C2671 C2670 1.400 . S
C2671 C2672 1.398 . S
C2671 C2677 1.491 . S
C2672 H2663 0.950 . S
C2672 C2671 1.398 . S
C2672 C2673 1.391 . S
C2673 H2661 0.950 . S
C2673 C2669 1.393 . S
C2673 C2672 1.391 . S
C2674 H2664 0.950 . S
C2674 C2675 1.386 . S
C2674 C2676 1.391 . S
C2675 C2674 1.386 . S
C2675 C2679 1.393 . S
C2676 H2665 0.950 . S
C2676 C2674 1.391 . S
C2676 C2677 1.400 . S
C2677 C2671 1.491 . S
C2677 C2676 1.400 . S
C2677 C2678 1.398 . S
C2678 H2666 0.950 . S
C2678 C2677 1.398 . S
C2678 C2679 1.391 . S
C2679 H2667 0.950 . S
C2679 C2675 1.393 . S
C2679 C2678 1.391 . S
H2680 C2688 0.950 . S
H2681 C2693 0.950 . S
H2682 C2690 0.950 . S
H2683 C2692 0.950 1_655 S
H2684 C2694 0.950 . S
H2685 C2696 0.950 . S
H2686 C2698 0.950 . S
H2687 C2699 0.950 . S
C2688 H2680 0.950 . S
C2688 C2689 1.386 . S
C2688 C2690 1.391 . S
C2689 C2688 1.386 . S
C2689 C2693 1.393 . S
C2690 H2682 0.950 . S
C2690 C2688 1.391 . S
C2690 C2691 1.400 1_455 S
C2691 C2690 1.400 1_655 S
C2691 C2692 1.398 1_655 S
C2691 C2697 1.491 . S
C2692 H2683 0.950 1_455 S
C2692 C2691 1.398 1_455 S
C2692 C2693 1.391 . S
C2693 H2681 0.950 . S
C2693 C2689 1.393 . S
C2693 C2692 1.391 . S
C2694 H2684 0.950 . S
C2694 C2695 1.386 . S
C2694 C2696 1.391 . S
C2695 C2694 1.386 . S
C2695 C2699 1.393 . S
C2696 H2685 0.950 . S
C2696 C2694 1.391 . S
C2696 C2697 1.400 . S
C2697 C2691 1.491 . S
C2697 C2696 1.400 . S
C2697 C2698 1.398 . S
C2698 H2686 0.950 . S
C2698 C2697 1.398 . S
C2698 C2699 1.391 . S
C2699 H2687 0.950 . S
C2699 C2695 1.393 . S
C2699 C2698 1.391 . S
H2700 C2708 0.950 . S
H2701 C2713 0.950 . S
H2702 C2710 0.950 . S
H2703 C2712 0.950 . S
H2704 C2714 0.950 . S
H2705 C2716 0.950 . S
H2706 C2718 0.950 . S
H2707 C2719 0.950 . S
C2708 H2700 0.950 . S
C2708 C2709 1.386 . S
C2708 C2710 1.391 . S
C2709 C2708 1.386 . S
C2709 C2713 1.393 . S
C2710 H2702 0.950 . S
C2710 C2708 1.391 . S
C2710 C2711 1.400 . S
C2711 C2710 1.400 . S
C2711 C2712 1.398 . S
C2711 C2717 1.491 . S
C2712 H2703 0.950 . S
C2712 C2711 1.398 . S
C2712 C2713 1.391 . S
C2713 H2701 0.950 . S
C2713 C2709 1.393 . S
C2713 C2712 1.391 . S
C2714 H2704 0.950 . S
C2714 C2715 1.386 . S
C2714 C2716 1.391 . S
C2715 C2714 1.386 . S
C2715 C2719 1.393 . S
C2716 H2705 0.950 . S
C2716 C2714 1.391 . S
C2716 C2717 1.400 . S
C2717 C2711 1.491 . S
C2717 C2716 1.400 . S
C2717 C2718 1.398 . S
C2718 H2706 0.950 . S
C2718 C2717 1.398 . S
C2718 C2719 1.391 . S
C2719 H2707 0.950 . S
C2719 C2715 1.393 . S
C2719 C2718 1.391 . S
H2720 C2728 0.950 . S
H2721 C2733 0.950 . S
H2722 C2730 0.950 . S
H2723 C2732 0.950 1_455 S
H2724 C2734 0.950 . S
H2725 C2736 0.950 . S
H2726 C2738 0.950 . S
H2727 C2739 0.950 . S
C2728 H2720 0.950 . S
C2728 C2729 1.386 1_565 S
C2728 C2730 1.391 . S
C2729 C2728 1.386 1_545 S
C2729 C2733 1.393 . S
C2730 H2722 0.950 . S
C2730 C2728 1.391 . S
C2730 C2731 1.400 1_655 S
C2731 C2730 1.400 1_455 S
C2731 C2732 1.398 1_465 S
C2731 C2737 1.491 . S
C2732 H2723 0.950 1_655 S
C2732 C2731 1.398 1_645 S
C2732 C2733 1.391 . S
C2733 H2721 0.950 . S
C2733 C2729 1.393 . S
C2733 C2732 1.391 . S
C2734 H2724 0.950 . S
C2734 C2735 1.386 1_545 S
C2734 C2736 1.391 . S
C2735 C2734 1.386 1_565 S
C2735 C2739 1.393 . S
C2736 H2725 0.950 . S
C2736 C2734 1.391 . S
C2736 C2737 1.400 1_545 S
C2737 C2731 1.491 . S
C2737 C2736 1.400 1_565 S
C2737 C2738 1.398 . S
C2738 H2726 0.950 . S
C2738 C2737 1.398 . S
C2738 C2739 1.391 . S
C2739 H2727 0.950 . S
C2739 C2735 1.393 . S
C2739 C2738 1.391 . S
H2740 C2748 0.950 . S
H2741 C2753 0.950 . S
H2742 C2750 0.950 . S
H2743 C2752 0.950 . S
H2744 C2754 0.950 . S
H2745 C2756 0.950 . S
H2746 C2758 0.950 . S
H2747 C2759 0.950 . S
C2748 H2740 0.950 . S
C2748 C2749 1.386 . S
C2748 C2750 1.391 . S
C2749 C2748 1.386 . S
C2749 C2753 1.393 . S
C2750 H2742 0.950 . S
C2750 C2748 1.391 . S
C2750 C2751 1.400 . S
C2751 C2750 1.400 . S
C2751 C2752 1.398 . S
C2751 C2757 1.491 . S
C2752 H2743 0.950 . S
C2752 C2751 1.398 . S
C2752 C2753 1.391 . S
C2753 H2741 0.950 . S
C2753 C2749 1.393 . S
C2753 C2752 1.391 . S
C2754 H2744 0.950 . S
C2754 C2755 1.386 . S
C2754 C2756 1.391 . S
C2755 C2754 1.386 . S
C2755 C2759 1.393 . S
C2756 H2745 0.950 . S
C2756 C2754 1.391 . S
C2756 C2757 1.400 . S
C2757 C2751 1.491 . S
C2757 C2756 1.400 . S
C2757 C2758 1.398 . S
C2758 H2746 0.950 . S
C2758 C2757 1.398 . S
C2758 C2759 1.391 . S
C2759 H2747 0.950 . S
C2759 C2755 1.393 . S
C2759 C2758 1.391 . S
H2760 C2768 0.950 . S
H2761 C2773 0.950 . S
H2762 C2770 0.950 . S
H2763 C2772 0.950 . S
H2764 C2774 0.950 . S
H2765 C2776 0.950 . S
H2766 C2778 0.950 . S
H2767 C2779 0.950 . S
C2768 H2760 0.950 . S
C2768 C2769 1.386 . S
C2768 C2770 1.391 . S
C2769 C2768 1.386 . S
C2769 C2773 1.393 . S
C2770 H2762 0.950 . S
C2770 C2768 1.391 . S
C2770 C2771 1.400 1_655 S
C2771 C2770 1.400 1_455 S
C2771 C2772 1.398 1_455 S
C2771 C2777 1.491 . S
C2772 H2763 0.950 . S
C2772 C2771 1.398 1_655 S
C2772 C2773 1.391 . S
C2773 H2761 0.950 . S
C2773 C2769 1.393 . S
C2773 C2772 1.391 . S
C2774 H2764 0.950 . S
C2774 C2775 1.386 . S
C2774 C2776 1.391 . S
C2775 C2774 1.386 . S
C2775 C2779 1.393 . S
C2776 H2765 0.950 . S
C2776 C2774 1.391 . S
C2776 C2777 1.400 . S
C2777 C2771 1.491 . S
C2777 C2776 1.400 . S
C2777 C2778 1.398 . S
C2778 H2766 0.950 . S
C2778 C2777 1.398 . S
C2778 C2779 1.391 . S
C2779 H2767 0.950 . S
C2779 C2775 1.393 . S
C2779 C2778 1.391 . S
H2780 C2788 0.950 . S
H2781 C2793 0.950 . S
H2782 C2790 0.950 . S
H2783 C2792 0.950 . S
H2784 C2794 0.950 1_545 S
H2785 C2796 0.950 . S
H2786 C2798 0.950 . S
H2787 C2799 0.950 . S
C2788 H2780 0.950 . S
C2788 C2789 1.386 1_565 S
C2788 C2790 1.391 . S
C2789 C2788 1.386 1_545 S
C2789 C2793 1.393 . S
C2790 H2782 0.950 . S
C2790 C2788 1.391 . S
C2790 C2791 1.400 . S
C2791 C2790 1.400 . S
C2791 C2792 1.398 1_565 S
C2791 C2797 1.491 . S
C2792 H2783 0.950 . S
C2792 C2791 1.398 1_545 S
C2792 C2793 1.391 . S
C2793 H2781 0.950 . S
C2793 C2789 1.393 . S
C2793 C2792 1.391 . S
C2794 H2784 0.950 1_565 S
C2794 C2795 1.386 . S
C2794 C2796 1.391 1_565 S
C2795 C2794 1.386 . S
C2795 C2799 1.393 . S
C2796 H2785 0.950 . S
C2796 C2794 1.391 1_545 S
C2796 C2797 1.400 1_545 S
C2797 C2791 1.491 . S
C2797 C2796 1.400 1_565 S
C2797 C2798 1.398 . S
C2798 H2786 0.950 . S
C2798 C2797 1.398 . S
C2798 C2799 1.391 . S
C2799 H2787 0.950 . S
C2799 C2795 1.393 . S
C2799 C2798 1.391 . S
H2800 C2808 0.950 . S
H2801 C2813 0.950 . S
H2802 C2810 0.950 . S
H2803 C2812 0.950 . S
H2804 C2814 0.950 . S
H2805 C2816 0.950 1_655 S
H2806 C2818 0.950 . S
H2807 C2819 0.950 . S
C2808 H2800 0.950 . S
C2808 C2809 1.386 . S
C2808 C2810 1.391 . S
C2809 C2808 1.386 . S
C2809 C2813 1.393 1_545 S
C2810 H2802 0.950 . S
C2810 C2808 1.391 . S
C2810 C2811 1.400 . S
C2811 C2810 1.400 . S
C2811 C2812 1.398 1_545 S
C2811 C2817 1.491 . S
C2812 H2803 0.950 . S
C2812 C2811 1.398 1_565 S
C2812 C2813 1.391 . S
C2813 H2801 0.950 . S
C2813 C2809 1.393 1_565 S
C2813 C2812 1.391 . S
C2814 H2804 0.950 . S
C2814 C2815 1.386 . S
C2814 C2816 1.391 . S
C2815 C2814 1.386 . S
C2815 C2819 1.393 1_565 S
C2816 H2805 0.950 1_455 S
C2816 C2814 1.391 . S
C2816 C2817 1.400 1_465 S
C2817 C2811 1.491 . S
C2817 C2816 1.400 1_645 S
C2817 C2818 1.398 1_655 S
C2818 H2806 0.950 . S
C2818 C2817 1.398 1_455 S
C2818 C2819 1.391 . S
C2819 H2807 0.950 . S
C2819 C2815 1.393 1_545 S
C2819 C2818 1.391 . S
H2820 C2828 0.950 . S
H2821 C2833 0.950 . S
H2822 C2830 0.950 . S
H2823 C2832 0.950 . S
H2824 C2834 0.950 . S
H2825 C2836 0.950 . S
H2826 C2838 0.950 . S
H2827 C2839 0.950 . S
C2828 H2820 0.950 . S
C2828 C2829 1.386 . S
C2828 C2830 1.391 . S
C2829 C2828 1.386 . S
C2829 C2833 1.393 . S
C2830 H2822 0.950 . S
C2830 C2828 1.391 . S
C2830 C2831 1.400 . S
C2831 C2830 1.400 . S
C2831 C2832 1.398 . S
C2831 C2837 1.491 . S
C2832 H2823 0.950 . S
C2832 C2831 1.398 . S
C2832 C2833 1.391 . S
C2833 H2821 0.950 . S
C2833 C2829 1.393 . S
C2833 C2832 1.391 . S
C2834 H2824 0.950 . S
C2834 C2835 1.386 . S
C2834 C2836 1.391 . S
C2835 C2834 1.386 . S
C2835 C2839 1.393 . S
C2836 H2825 0.950 . S
C2836 C2834 1.391 . S
C2836 C2837 1.400 . S
C2837 C2831 1.491 . S
C2837 C2836 1.400 . S
C2837 C2838 1.398 . S
C2838 H2826 0.950 . S
C2838 C2837 1.398 . S
C2838 C2839 1.391 . S
C2839 H2827 0.950 . S
C2839 C2835 1.393 . S
C2839 C2838 1.391 . S
H2840 C2848 0.950 . S
H2841 C2853 0.950 . S
H2842 C2850 0.950 1_655 S
H2843 C2852 0.950 . S
H2844 C2854 0.950 . S
H2845 C2856 0.950 . S
H2846 C2858 0.950 . S
H2847 C2859 0.950 . S
C2848 H2840 0.950 . S
C2848 C2849 1.386 . S
C2848 C2850 1.391 . S
C2849 C2848 1.386 . S
C2849 C2853 1.393 . S
C2850 H2842 0.950 1_455 S
C2850 C2848 1.391 . S
C2850 C2851 1.400 1_455 S
C2851 C2850 1.400 1_655 S
C2851 C2852 1.398 1_655 S
C2851 C2857 1.491 . S
C2852 H2843 0.950 . S
C2852 C2851 1.398 1_455 S
C2852 C2853 1.391 . S
C2853 H2841 0.950 . S
C2853 C2849 1.393 . S
C2853 C2852 1.391 . S
C2854 H2844 0.950 . S
C2854 C2855 1.386 . S
C2854 C2856 1.391 . S
C2855 C2854 1.386 . S
C2855 C2859 1.393 . S
C2856 H2845 0.950 . S
C2856 C2854 1.391 . S
C2856 C2857 1.400 . S
C2857 C2851 1.491 . S
C2857 C2856 1.400 . S
C2857 C2858 1.398 . S
C2858 H2846 0.950 . S
C2858 C2857 1.398 . S
C2858 C2859 1.391 . S
C2859 H2847 0.950 . S
C2859 C2855 1.393 . S
C2859 C2858 1.391 . S
H2860 C2868 0.950 . S
H2861 C2873 0.950 . S
H2862 C2870 0.950 . S
H2863 C2872 0.950 . S
H2864 C2874 0.950 . S
H2865 C2876 0.950 . S
H2866 C2878 0.950 . S
H2867 C2879 0.950 1_565 S
C2868 H2860 0.950 . S
C2868 C2869 1.386 . S
C2868 C2870 1.391 . S
C2869 C2868 1.386 . S
C2869 C2873 1.393 1_565 S
C2870 H2862 0.950 . S
C2870 C2868 1.391 . S
C2870 C2871 1.400 1_565 S
C2871 C2870 1.400 1_545 S
C2871 C2872 1.398 . S
C2871 C2877 1.491 . S
C2872 H2863 0.950 . S
C2872 C2871 1.398 . S
C2872 C2873 1.391 . S
C2873 H2861 0.950 . S
C2873 C2869 1.393 1_545 S
C2873 C2872 1.391 . S
C2874 H2864 0.950 . S
C2874 C2875 1.386 . S
C2874 C2876 1.391 . S
C2875 C2874 1.386 . S
C2875 C2879 1.393 . S
C2876 H2865 0.950 . S
C2876 C2874 1.391 . S
C2876 C2877 1.400 . S
C2877 C2871 1.491 . S
C2877 C2876 1.400 . S
C2877 C2878 1.398 1_545 S
C2878 H2866 0.950 . S
C2878 C2877 1.398 1_565 S
C2878 C2879 1.391 1_565 S
C2879 H2867 0.950 1_545 S
C2879 C2875 1.393 . S
C2879 C2878 1.391 1_545 S
H2880 C2888 0.950 . S
H2881 C2893 0.950 . S
H2882 C2890 0.950 . S
H2883 C2892 0.950 . S
H2884 C2894 0.950 . S
H2885 C2896 0.950 . S
H2886 C2898 0.950 . S
H2887 C2899 0.950 . S
C2888 H2880 0.950 . S
C2888 C2889 1.386 1_655 S
C2888 C2890 1.391 . S
C2889 C2888 1.386 1_455 S
C2889 C2893 1.393 . S
C2890 H2882 0.950 . S
C2890 C2888 1.391 . S
C2890 C2891 1.400 1_655 S
C2891 C2890 1.400 1_455 S
C2891 C2892 1.398 . S
C2891 C2897 1.491 1_454 S
C2892 H2883 0.950 . S
C2892 C2891 1.398 . S
C2892 C2893 1.391 . S
C2893 H2881 0.950 . S
C2893 C2889 1.393 . S
C2893 C2892 1.391 . S
C2894 H2884 0.950 . S
C2894 C2895 1.386 1_455 S
C2894 C2896 1.391 . S
C2895 C2894 1.386 1_655 S
C2895 C2899 1.393 . S
C2896 H2885 0.950 . S
C2896 C2894 1.391 . S
C2896 C2897 1.400 1_455 S
C2897 C2891 1.491 1_656 S
C2897 C2896 1.400 1_655 S
C2897 C2898 1.398 . S
C2898 H2886 0.950 . S
C2898 C2897 1.398 . S
C2898 C2899 1.391 . S
C2899 H2887 0.950 . S
C2899 C2895 1.393 . S
C2899 C2898 1.391 . S
H2900 C2908 0.950 . S
H2901 C2913 0.950 . S
H2902 C2910 0.950 . S
H2903 C2912 0.950 . S
H2904 C2914 0.950 . S
H2905 C2916 0.950 . S
H2906 C2918 0.950 . S
H2907 C2919 0.950 . S
C2908 H2900 0.950 . S
C2908 C2909 1.386 . S
C2908 C2910 1.391 . S
C2909 C2908 1.386 . S
C2909 C2913 1.393 . S
C2910 H2902 0.950 . S
C2910 C2908 1.391 . S
C2910 C2911 1.400 . S
C2911 C2910 1.400 . S
C2911 C2912 1.398 . S
C2911 C2917 1.491 1_556 S
C2912 H2903 0.950 . S
C2912 C2911 1.398 . S
C2912 C2913 1.391 . S
C2913 H2901 0.950 . S
C2913 C2909 1.393 . S
C2913 C2912 1.391 . S
C2914 H2904 0.950 . S
C2914 C2915 1.386 . S
C2914 C2916 1.391 . S
C2915 C2914 1.386 . S
C2915 C2919 1.393 . S
C2916 H2905 0.950 . S
C2916 C2914 1.391 . S
C2916 C2917 1.400 . S
C2917 C2911 1.491 1_554 S
C2917 C2916 1.400 . S
C2917 C2918 1.398 . S
C2918 H2906 0.950 . S
C2918 C2917 1.398 . S
C2918 C2919 1.391 . S
C2919 H2907 0.950 . S
C2919 C2915 1.393 . S
C2919 C2918 1.391 . S
H2920 C2928 0.950 . S
H2921 C2933 0.950 . S
H2922 C2930 0.950 . S
H2923 C2932 0.950 . S
H2924 C2934 0.950 . S
H2925 C2936 0.950 . S
H2926 C2938 0.950 . S
H2927 C2939 0.950 . S
C2928 H2920 0.950 . S
C2928 C2929 1.386 1_455 S
C2928 C2930 1.391 . S
C2929 C2928 1.386 1_655 S
C2929 C2933 1.393 . S
C2930 H2922 0.950 . S
C2930 C2928 1.391 . S
C2930 C2931 1.400 1_455 S
C2931 C2930 1.400 1_655 S
C2931 C2932 1.398 . S
C2931 C2937 1.491 1_655 S
C2932 H2923 0.950 . S
C2932 C2931 1.398 . S
C2932 C2933 1.391 . S
C2933 H2921 0.950 . S
C2933 C2929 1.393 . S
C2933 C2932 1.391 . S
C2934 H2924 0.950 . S
C2934 C2935 1.386 1_655 S
C2934 C2936 1.391 . S
C2935 C2934 1.386 1_455 S
C2935 C2939 1.393 . S
C2936 H2925 0.950 . S
C2936 C2934 1.391 . S
C2936 C2937 1.400 1_655 S
C2937 C2931 1.491 1_455 S
C2937 C2936 1.400 1_455 S
C2937 C2938 1.398 . S
C2938 H2926 0.950 . S
C2938 C2937 1.398 . S
C2938 C2939 1.391 . S
C2939 H2927 0.950 . S
C2939 C2935 1.393 . S
C2939 C2938 1.391 . S
H2940 C2948 0.950 . S
H2941 C2953 0.950 . S
H2942 C2950 0.950 . S
H2943 C2952 0.950 . S
H2944 C2954 0.950 . S
H2945 C2956 0.950 . S
H2946 C2958 0.950 . S
H2947 C2959 0.950 . S
C2948 H2940 0.950 . S
C2948 C2949 1.386 . S
C2948 C2950 1.391 . S
C2949 C2948 1.386 . S
C2949 C2953 1.393 . S
C2950 H2942 0.950 . S
C2950 C2948 1.391 . S
C2950 C2951 1.400 . S
C2951 C2950 1.400 . S
C2951 C2952 1.398 . S
C2951 C2957 1.491 . S
C2952 H2943 0.950 . S
C2952 C2951 1.398 . S
C2952 C2953 1.391 . S
C2953 H2941 0.950 . S
C2953 C2949 1.393 . S
C2953 C2952 1.391 . S
C2954 H2944 0.950 . S
C2954 C2955 1.386 . S
C2954 C2956 1.391 . S
C2955 C2954 1.386 . S
C2955 C2959 1.393 . S
C2956 H2945 0.950 . S
C2956 C2954 1.391 . S
C2956 C2957 1.400 . S
C2957 C2951 1.491 . S
C2957 C2956 1.400 . S
C2957 C2958 1.398 . S
C2958 H2946 0.950 . S
C2958 C2957 1.398 . S
C2958 C2959 1.391 . S
C2959 H2947 0.950 . S
C2959 C2955 1.393 . S
C2959 C2958 1.391 . S
H2960 C2968 0.950 . S
H2961 C2973 0.950 . S
H2962 C2970 0.950 . S
H2963 C2972 0.950 . S
H2964 C2974 0.950 . S
H2965 C2976 0.950 . S
H2966 C2978 0.950 . S
H2967 C2979 0.950 . S
C2968 H2960 0.950 . S
C2968 C2969 1.386 . S
C2968 C2970 1.391 . S
C2969 C2968 1.386 . S
C2969 C2973 1.393 . S
C2970 H2962 0.950 . S
C2970 C2968 1.391 . S
C2970 C2971 1.400 . S
C2971 C2970 1.400 . S
C2971 C2972 1.398 . S
C2971 C2977 1.491 1_556 S
C2972 H2963 0.950 . S
C2972 C2971 1.398 . S
C2972 C2973 1.391 . S
C2973 H2961 0.950 . S
C2973 C2969 1.393 . S
C2973 C2972 1.391 . S
C2974 H2964 0.950 . S
C2974 C2975 1.386 . S
C2974 C2976 1.391 . S
C2975 C2974 1.386 . S
C2975 C2979 1.393 . S
C2976 H2965 0.950 . S
C2976 C2974 1.391 . S
C2976 C2977 1.400 . S
C2977 C2971 1.491 1_554 S
C2977 C2976 1.400 . S
C2977 C2978 1.398 . S
C2978 H2966 0.950 . S
C2978 C2977 1.398 . S
C2978 C2979 1.391 . S
C2979 H2967 0.950 . S
C2979 C2975 1.393 . S
C2979 C2978 1.391 . S
H2980 C2988 0.950 . S
H2981 C2993 0.950 . S
H2982 C2990 0.950 . S
H2983 C2992 0.950 . S
H2984 C2994 0.950 . S
H2985 C2996 0.950 . S
H2986 C2998 0.950 . S
H2987 C2999 0.950 . S
C2988 H2980 0.950 . S
C2988 C2989 1.386 . S
C2988 C2990 1.391 . S
C2989 C2988 1.386 . S
C2989 C2993 1.393 1_655 S
C2990 H2982 0.950 . S
C2990 C2988 1.391 . S
C2990 C2991 1.400 . S
C2991 C2990 1.400 . S
C2991 C2992 1.398 1_655 S
C2991 C2997 1.491 1_655 S
C2992 H2983 0.950 . S
C2992 C2991 1.398 1_455 S
C2992 C2993 1.391 . S
C2993 H2981 0.950 . S
C2993 C2989 1.393 1_455 S
C2993 C2992 1.391 . S
C2994 H2984 0.950 . S
C2994 C2995 1.386 . S
C2994 C2996 1.391 . S
C2995 C2994 1.386 . S
C2995 C2999 1.393 1_455 S
C2996 H2985 0.950 . S
C2996 C2994 1.391 . S
C2996 C2997 1.400 . S
C2997 C2991 1.491 1_455 S
C2997 C2996 1.400 . S
C2997 C2998 1.398 1_455 S
C2998 H2986 0.950 . S
C2998 C2997 1.398 1_655 S
C2998 C2999 1.391 . S
C2999 H2987 0.950 . S
C2999 C2995 1.393 1_655 S
C2999 C2998 1.391 . S
H3000 C3008 0.950 . S
H3001 C3013 0.950 . S
H3002 C3010 0.950 . S
H3003 C3012 0.950 . S
H3004 C3014 0.950 . S
H3005 C3016 0.950 . S
H3006 C3018 0.950 . S
H3007 C3019 0.950 . S
C3008 H3000 0.950 . S
C3008 C3009 1.386 . S
C3008 C3010 1.391 . S
C3009 C3008 1.386 . S
C3009 C3013 1.393 . S
C3010 H3002 0.950 . S
C3010 C3008 1.391 . S
C3010 C3011 1.400 . S
C3011 C3010 1.400 . S
C3011 C3012 1.398 . S
C3011 C3017 1.491 . S
C3012 H3003 0.950 . S
C3012 C3011 1.398 . S
C3012 C3013 1.391 . S
C3013 H3001 0.950 . S
C3013 C3009 1.393 . S
C3013 C3012 1.391 . S
C3014 H3004 0.950 . S
C3014 C3015 1.386 . S
C3014 C3016 1.391 . S
C3015 C3014 1.386 . S
C3015 C3019 1.393 . S
C3016 H3005 0.950 . S
C3016 C3014 1.391 . S
C3016 C3017 1.400 . S
C3017 C3011 1.491 . S
C3017 C3016 1.400 . S
C3017 C3018 1.398 . S
C3018 H3006 0.950 . S
C3018 C3017 1.398 . S
C3018 C3019 1.391 . S
C3019 H3007 0.950 . S
C3019 C3015 1.393 . S
C3019 C3018 1.391 . S
H3020 C3028 0.950 . S
H3021 C3033 0.950 . S
H3022 C3030 0.950 . S
H3023 C3032 0.950 . S
H3024 C3034 0.950 . S
H3025 C3036 0.950 . S
H3026 C3038 0.950 . S
H3027 C3039 0.950 . S
C3028 H3020 0.950 . S
C3028 C3029 1.386 1_655 S
C3028 C3030 1.391 . S
C3029 C3028 1.386 1_455 S
C3029 C3033 1.393 1_565 S
C3030 H3022 0.950 . S
C3030 C3028 1.391 . S
C3030 C3031 1.404 1_655 S
C3031 C3030 1.404 1_455 S
C3031 C3032 1.395 1_565 S
C3031 C3037 1.490 1_465 S
C3032 H3023 0.950 . S
C3032 C3031 1.395 1_545 S
C3032 C3033 1.391 . S
C3033 H3021 0.950 . S
C3033 C3029 1.393 1_545 S
C3033 C3032 1.391 . S
C3034 H3024 0.950 . S
C3034 C3035 1.386 1_455 S
C3034 C3036 1.391 . S
C3035 C3034 1.386 1_655 S
C3035 C3039 1.393 1_545 S
C3036 H3025 0.950 . S
C3036 C3034 1.391 . S
C3036 C3037 1.404 1_455 S
C3037 C3031 1.490 1_645 S
C3037 C3036 1.404 1_655 S
C3037 C3038 1.395 1_545 S
C3038 H3026 0.950 . S
C3038 C3037 1.395 1_565 S
C3038 C3039 1.391 . S
C3039 H3027 0.950 . S
C3039 C3035 1.393 1_565 S
C3039 C3038 1.391 . S
H3040 C3048 0.950 . S
H3041 C3053 0.950 . S
H3042 C3050 0.950 . S
H3043 C3052 0.950 . S
H3044 C3054 0.950 . S
H3045 C3056 0.950 . S
H3046 C3058 0.950 . S
H3047 C3059 0.950 . S
C3048 H3040 0.950 . S
C3048 C3049 1.386 . S
C3048 C3050 1.391 . S
C3049 C3048 1.386 . S
C3049 C3053 1.393 . S
C3050 H3042 0.950 . S
C3050 C3048 1.391 . S
C3050 C3051 1.400 . S
C3051 C3050 1.400 . S
C3051 C3052 1.398 . S
C3051 C3057 1.491 . S
C3052 H3043 0.950 . S
C3052 C3051 1.398 . S
C3052 C3053 1.391 . S
C3053 H3041 0.950 . S
C3053 C3049 1.393 . S
C3053 C3052 1.391 . S
C3054 H3044 0.950 . S
C3054 C3055 1.386 . S
C3054 C3056 1.391 . S
C3055 C3054 1.386 . S
C3055 C3059 1.393 . S
C3056 H3045 0.950 . S
C3056 C3054 1.391 . S
C3056 C3057 1.400 . S
C3057 C3051 1.491 . S
C3057 C3056 1.400 . S
C3057 C3058 1.398 . S
C3058 H3046 0.950 . S
C3058 C3057 1.398 . S
C3058 C3059 1.391 . S
C3059 H3047 0.950 . S
C3059 C3055 1.393 . S
C3059 C3058 1.391 . S
H3060 C3068 0.950 . S
H3061 C3073 0.950 . S
H3062 C3070 0.950 . S
H3063 C3072 0.950 . S
H3064 C3074 0.950 . S
H3065 C3076 0.950 . S
H3066 C3078 0.950 . S
H3067 C3079 0.950 . S
C3068 H3060 0.950 . S
C3068 C3069 1.386 1_565 S
C3068 C3070 1.391 . S
C3069 C3068 1.386 1_545 S
C3069 C3073 1.393 . S
C3070 H3062 0.950 . S
C3070 C3068 1.391 . S
C3070 C3071 1.392 1_565 S
C3071 C3070 1.392 1_545 S
C3071 C3072 1.407 . S
C3071 C3077 1.490 1_545 S
C3072 H3063 0.950 . S
C3072 C3071 1.407 . S
C3072 C3073 1.391 . S
C3073 H3061 0.950 . S
C3073 C3069 1.393 . S
C3073 C3072 1.391 . S
C3074 H3064 0.950 . S
C3074 C3075 1.386 1_545 S
C3074 C3076 1.391 . S
C3075 C3074 1.386 1_565 S
C3075 C3079 1.393 . S
C3076 H3065 0.950 . S
C3076 C3074 1.391 . S
C3076 C3077 1.392 1_545 S
C3077 C3071 1.490 1_565 S
C3077 C3076 1.392 1_565 S
C3077 C3078 1.407 . S
C3078 H3066 0.950 . S
C3078 C3077 1.407 . S
C3078 C3079 1.391 . S
C3079 H3067 0.950 . S
C3079 C3075 1.393 . S
C3079 C3078 1.391 . S
H3080 C3088 0.950 . S
H3081 C3093 0.950 . S
H3082 C3090 0.950 . S
H3083 C3092 0.950 . S
H3084 C3094 0.950 . S
H3085 C3096 0.950 . S
H3086 C3098 0.950 . S
H3087 C3099 0.950 . S
C3088 H3080 0.950 . S
C3088 C3089 1.386 . S
C3088 C3090 1.391 . S
C3089 C3088 1.386 . S
C3089 C3093 1.393 . S
C3090 H3082 0.950 . S
C3090 C3088 1.391 . S
C3090 C3091 1.400 . S
C3091 C3090 1.400 . S
C3091 C3092 1.398 . S
C3091 C3097 1.491 . S
C3092 H3083 0.950 . S
C3092 C3091 1.398 . S
C3092 C3093 1.391 . S
C3093 H3081 0.950 . S
C3093 C3089 1.393 . S
C3093 C3092 1.391 . S
C3094 H3084 0.950 . S
C3094 C3095 1.386 . S
C3094 C3096 1.391 . S
C3095 C3094 1.386 . S
C3095 C3099 1.393 . S
C3096 H3085 0.950 . S
C3096 C3094 1.391 . S
C3096 C3097 1.400 . S
C3097 C3091 1.491 . S
C3097 C3096 1.400 . S
C3097 C3098 1.398 . S
C3098 H3086 0.950 . S
C3098 C3097 1.398 . S
C3098 C3099 1.391 . S
C3099 H3087 0.950 . S
C3099 C3095 1.393 . S
C3099 C3098 1.391 . S
H3100 C3108 0.950 . S
H3101 C3113 0.950 . S
H3102 C3110 0.950 . S
H3103 C3112 0.950 . S
H3104 C3114 0.950 . S
H3105 C3116 0.950 . S
H3106 C3118 0.950 . S
H3107 C3119 0.950 . S
C3108 H3100 0.950 . S
C3108 C3109 1.386 . S
C3108 C3110 1.391 . S
C3109 C3108 1.386 . S
C3109 C3113 1.393 1_565 S
C3110 H3102 0.950 . S
C3110 C3108 1.391 . S
C3110 C3111 1.435 . S
C3111 C3110 1.435 . S
C3111 C3112 1.367 1_565 S
C3111 C3117 1.487 1_565 S
C3112 H3103 0.950 . S
C3112 C3111 1.367 1_545 S
C3112 C3113 1.391 . S
C3113 H3101 0.950 . S
C3113 C3109 1.393 1_545 S
C3113 C3112 1.391 . S
C3114 H3104 0.950 . S
C3114 C3115 1.386 . S
C3114 C3116 1.391 . S
C3115 C3114 1.386 . S
C3115 C3119 1.393 1_545 S
C3116 H3105 0.950 . S
C3116 C3114 1.391 . S
C3116 C3117 1.435 . S
C3117 C3111 1.487 1_545 S
C3117 C3116 1.435 . S
C3117 C3118 1.367 1_545 S
C3118 H3106 0.950 . S
C3118 C3117 1.367 1_565 S
C3118 C3119 1.391 . S
C3119 H3107 0.950 . S
C3119 C3115 1.393 1_565 S
C3119 C3118 1.391 . S
H3120 C3128 0.950 . S
H3121 C3133 0.950 . S
H3122 C3130 0.950 . S
H3123 C3132 0.950 . S
H3124 C3134 0.950 . S
H3125 C3136 0.950 . S
H3126 C3138 0.950 . S
H3127 C3139 0.950 . S
C3128 H3120 0.950 . S
C3128 C3129 1.386 . S
C3128 C3130 1.391 . S
C3129 C3128 1.386 . S
C3129 C3133 1.393 . S
C3130 H3122 0.950 . S
C3130 C3128 1.391 . S
C3130 C3131 1.400 . S
C3131 C3130 1.400 . S
C3131 C3132 1.398 . S
C3131 C3137 1.491 . S
C3132 H3123 0.950 . S
C3132 C3131 1.398 . S
C3132 C3133 1.391 . S
C3133 H3121 0.950 . S
C3133 C3129 1.393 . S
C3133 C3132 1.391 . S
C3134 H3124 0.950 . S
C3134 C3135 1.386 . S
C3134 C3136 1.391 . S
C3135 C3134 1.386 . S
C3135 C3139 1.393 . S
C3136 H3125 0.950 . S
C3136 C3134 1.391 . S
C3136 C3137 1.400 . S
C3137 C3131 1.491 . S
C3137 C3136 1.400 . S
C3137 C3138 1.398 . S
C3138 H3126 0.950 . S
C3138 C3137 1.398 . S
C3138 C3139 1.391 . S
C3139 H3127 0.950 . S
C3139 C3135 1.393 . S
C3139 C3138 1.391 . S
H3140 C3148 0.950 . S
H3141 C3153 0.950 . S
H3142 C3150 0.950 . S
H3143 C3152 0.950 . S
H3144 C3154 0.950 . S
H3145 C3156 0.950 . S
H3146 C3158 0.950 . S
H3147 C3159 0.950 . S
C3148 H3140 0.950 . S
C3148 C3149 1.386 . S
C3148 C3150 1.391 . S
C3149 C3148 1.386 . S
C3149 C3153 1.393 . S
C3150 H3142 0.950 . S
C3150 C3148 1.391 . S
C3150 C3151 1.400 . S
C3151 C3150 1.400 . S
C3151 C3152 1.398 . S
C3151 C3157 1.491 . S
C3152 H3143 0.950 . S
C3152 C3151 1.398 . S
C3152 C3153 1.391 . S
C3153 H3141 0.950 . S
C3153 C3149 1.393 . S
C3153 C3152 1.391 . S
C3154 H3144 0.950 . S
C3154 C3155 1.386 . S
C3154 C3156 1.391 . S
C3155 C3154 1.386 . S
C3155 C3159 1.393 . S
C3156 H3145 0.950 . S
C3156 C3154 1.391 . S
C3156 C3157 1.400 . S
C3157 C3151 1.491 . S
C3157 C3156 1.400 . S
C3157 C3158 1.398 . S
C3158 H3146 0.950 . S
C3158 C3157 1.398 . S
C3158 C3159 1.391 . S
C3159 H3147 0.950 . S
C3159 C3155 1.393 . S
C3159 C3158 1.391 . S
H3160 C3168 0.950 . S
H3161 C3173 0.950 . S
H3162 C3170 0.950 . S
H3163 C3172 0.950 . S
H3164 C3174 0.950 . S
H3165 C3176 0.950 . S
H3166 C3178 0.950 . S
H3167 C3179 0.950 . S
C3168 H3160 0.950 . S
C3168 C3169 1.386 . S
C3168 C3170 1.391 . S
C3169 C3168 1.386 . S
C3169 C3173 1.393 . S
C3170 H3162 0.950 . S
C3170 C3168 1.391 . S
C3170 C3171 1.400 . S
C3171 C3170 1.400 . S
C3171 C3172 1.398 . S
C3171 C3177 1.491 . S
C3172 H3163 0.950 . S
C3172 C3171 1.398 . S
C3172 C3173 1.391 . S
C3173 H3161 0.950 . S
C3173 C3169 1.393 . S
C3173 C3172 1.391 . S
C3174 H3164 0.950 . S
C3174 C3175 1.386 . S
C3174 C3176 1.391 . S
C3175 C3174 1.386 . S
C3175 C3179 1.393 . S
C3176 H3165 0.950 . S
C3176 C3174 1.391 . S
C3176 C3177 1.400 . S
C3177 C3171 1.491 . S
C3177 C3176 1.400 . S
C3177 C3178 1.398 . S
C3178 H3166 0.950 . S
C3178 C3177 1.398 . S
C3178 C3179 1.391 . S
C3179 H3167 0.950 . S
C3179 C3175 1.393 . S
C3179 C3178 1.391 . S
H3180 C3188 0.950 . S
H3181 C3193 0.950 . S
H3182 C3190 0.950 . S
H3183 C3192 0.950 . S
H3184 C3194 0.950 . S
H3185 C3196 0.950 . S
H3186 C3198 0.950 . S
H3187 C3199 0.950 . S
C3188 H3180 0.950 . S
C3188 C3189 1.386 1_545 S
C3188 C3190 1.391 . S
C3189 C3188 1.386 1_565 S
C3189 C3193 1.393 . S
C3190 H3182 0.950 . S
C3190 C3188 1.391 . S
C3190 C3191 1.367 1_545 S
C3191 C3190 1.367 1_565 S
C3191 C3192 1.435 . S
C3191 C3197 1.488 1_564 S
C3192 H3183 0.950 . S
C3192 C3191 1.435 . S
C3192 C3193 1.391 . S
C3193 H3181 0.950 . S
C3193 C3189 1.393 . S
C3193 C3192 1.391 . S
C3194 H3184 0.950 . S
C3194 C3195 1.386 1_565 S
C3194 C3196 1.391 . S
C3195 C3194 1.386 1_545 S
C3195 C3199 1.393 . S
C3196 H3185 0.950 . S
C3196 C3194 1.391 . S
C3196 C3197 1.367 1_565 S
C3197 C3191 1.488 1_546 S
C3197 C3196 1.367 1_545 S
C3197 C3198 1.435 . S
C3198 H3186 0.950 . S
C3198 C3197 1.435 . S
C3198 C3199 1.391 . S
C3199 H3187 0.950 . S
C3199 C3195 1.393 . S
C3199 C3198 1.391 . S
C1289 C10 1.546 . S
C1295 C1010 1.553 . S
C1309 C970 1.554 . S
C1315 C50 1.545 . S
C1329 C1090 1.546 . S
C1335 C90 1.553 . S
C1349 C130 1.551 . S
C1355 C1050 1.547 . S
C1369 C179 1.548 . S
C1375 C1179 1.552 . S
C1389 C219 1.554 . S
C1395 C1139 1.545 . S
C1409 C259 1.547 . S
C1415 C1259 1.552 . S
C1429 C1219 1.552 . S
C1435 C299 1.547 . S
C1449 C330 1.552 . S
C1455 C690 1.546 . S
C1469 C370 1.548 . S
C1475 C650 1.552 . S
C1489 C410 1.548 . S
C1495 C770 1.552 . S
C1509 C730 1.550 . S
C1515 C450 1.548 . S
C1529 C499 1.552 . S
C1535 C859 1.548 . S
C1549 C539 1.552 . S
C1555 C819 1.548 . S
C1569 C939 1.545 . S
C1575 C579 1.554 . S
C1589 C619 1.548 . S
C1595 C899 1.552 . S
C1609 C9 1.607 . S
C1615 C129 1.591 . S
C1629 C49 1.592 . S
C1635 C89 1.602 . S
C1649 C298 1.606 . S
C1655 C178 1.591 . S
C1669 C258 1.595 . S
C1675 C218 1.597 . S
C1689 C329 1.591 . S
C1695 C449 1.606 . S
C1709 C369 1.591 . S
C1715 C409 1.603 . S
C1729 C498 1.599 . S
C1735 C618 1.604 . S
C1749 C578 1.599 . S
C1755 C538 1.594 . S
C1769 C649 1.594 . S
C1775 C769 1.607 . S
C1789 C689 1.601 . S
C1795 C729 1.592 . S
C1809 C938 1.601 . S
C1815 C818 1.593 . S
C1829 C858 1.600 . S
C1835 C898 1.593 . S
C1849 C1089 1.591 . S
C1855 C969 1.604 . S
C1869 C1009 1.607 . S
C1875 C1049 1.592 . S
C1889 C1258 1.593 . S
C1895 C1138 1.607 . S
C1909 C1218 1.600 . S
C1915 C1178 1.603 . S
C1929 C59 1.616 . S
C1935 C19 1.609 . S
C1949 C99 1.627 . S
C1955 C139 1.620 . S
C1969 C210 1.627 . S
C1975 C170 1.620 . S
C1989 C290 1.616 . S
C1995 C250 1.624 . S
C2009 C339 1.621 . S
C2015 C379 1.627 . S
C2029 C419 1.607 . S
C2035 C459 1.611 . S
C2049 C530 1.619 . S
C2055 C490 1.611 . S
C2069 C570 1.617 . S
C2075 C610 1.625 . S
C2089 C659 1.629 . S
C2095 C699 1.625 . S
C2109 C779 1.625 . S
C2115 C739 1.629 . S
C2129 C810 1.621 . S
C2135 C850 1.628 . S
C2149 C890 1.613 . S
C2155 C930 1.608 . S
C2169 C979 1.623 . S
C2175 C1019 1.615 . S
C2189 C1059 1.625 . S
C2195 C1099 1.618 . S
C2209 C1170 1.610 . S
C2215 C1130 1.607 . S
C2229 C1210 1.610 . S
C2235 C1250 1.607 . S
C2249 C6 1.678 . S
C2255 C15 1.678 . S
C2269 C46 1.681 . S
C2275 C55 1.681 . S
C2289 C86 1.679 . S
C2295 C95 1.679 . S
C2309 C135 1.665 . S
C2315 C126 1.665 . S
C2329 C166 1.666 . S
C2335 C175 1.666 . S
C2349 C215 1.678 . S
C2355 C206 1.678 . S
C2369 C246 1.667 . S
C2375 C255 1.667 . S
C2389 C286 1.681 . S
C2395 C295 1.681 . S
C2409 C335 1.681 . S
C2415 C326 1.681 . S
C2429 C366 1.676 . S
C2435 C375 1.676 . S
C2449 C406 1.666 . S
C2455 C415 1.666 . S
C2469 C455 1.668 . S
C2475 C446 1.668 . S
C2489 C486 1.679 . S
C2495 C495 1.679 . S
C2509 C535 1.667 . S
C2515 C526 1.667 . S
C2529 C575 1.679 . S
C2535 C566 1.679 . S
C2549 C606 1.668 . S
C2555 C615 1.668 . S
C2569 C646 1.674 . S
C2575 C655 1.674 . S
C2589 C695 1.667 . S
C2595 C686 1.667 . S
C2609 C735 1.679 . S
C2615 C726 1.679 . S
C2629 C766 1.681 . S
C2635 C775 1.681 . S
C2649 C815 1.679 . S
C2655 C806 1.679 . S
C2669 C855 1.667 . S
C2675 C846 1.667 . S
C2689 C886 1.681 . S
C2695 C895 1.681 . S
C2709 C935 1.669 . S
C2715 C926 1.669 . S
C2729 C975 1.676 . S
C2735 C966 1.676 . S
C2749 C1006 1.678 . S
C2755 C1015 1.678 . S
C2769 C1055 1.665 . S
C2775 C1046 1.665 . S
C2789 C1095 1.681 . S
C2795 C1086 1.681 . S
C2809 C1135 1.668 . S
C2815 C1126 1.668 . S
C2829 C1175 1.670 . S
C2835 C1166 1.670 . S
C2849 C1206 1.665 . S
C2855 C1215 1.665 . S
C2869 C1246 1.669 . S
C2875 C1255 1.669 . S
C2889 C18 1.478 . S
C2895 C169 1.478 . S
C2909 C1169 1.465 . S
C2915 C58 1.465 . S
C2929 C569 1.480 . S
C2935 C98 1.480 . S
C2949 C138 1.472 . S
C2955 C929 1.472 . S
C2969 C209 1.466 . S
C2975 C1018 1.466 . S
C2989 C249 1.473 . S
C2995 C418 1.473 . S
C3009 C289 1.470 . S
C3015 C778 1.470 . S
C3029 C338 1.483 . S
C3035 C489 1.483 . S
C3049 C849 1.485 . S
C3055 C378 1.485 . S
C3069 C1249 1.487 . S
C3075 C458 1.487 . S
C3089 C529 1.467 . S
C3095 C698 1.467 . S
C3109 C1098 1.481 . S
C3115 C609 1.481 . S
C3129 C658 1.476 . S
C3135 C809 1.476 . S
C3149 C1209 1.483 . S
C3155 C738 1.483 . S
C3169 C889 1.480 . S
C3175 C1058 1.480 . S
C3189 C978 1.460 . S
C3195 C1129 1.460 . S
