# Generated by pormake.
# Topology unp, (4)-cn, num edge types: 1
# Building blocks:
#     Node 0, Type 0, BuildingBlock: AZAVOO_clean_sbu_0, # of connection points: 4
#     Node 1, Type 0, BuildingBlock: AZAVOO_clean_sbu_0, # of connection points: 4
#     Node 2, Type 0, BuildingBlock: AZAVOO_clean_sbu_0, # of connection points: 4
#     Node 3, Type 0, BuildingBlock: AZAVOO_clean_sbu_0, # of connection points: 4
#     Node 4, Type 0, BuildingBlock: AZAVOO_clean_sbu_0, # of connection points: 4
#     Node 5, Type 0, BuildingBlock: AZAVOO_clean_sbu_0, # of connection points: 4
#     Node 6, Type 0, BuildingBlock: AZAVOO_clean_sbu_0, # of connection points: 4
#     Node 7, Type 0, BuildingBlock: AZAVOO_clean_sbu_0, # of connection points: 4
#     Node 8, Type 0, BuildingBlock: AZAVOO_clean_sbu_0, # of connection points: 4
#     Node 9, Type 0, BuildingBlock: AZAVOO_clean_sbu_0, # of connection points: 4
#     Node 10, Type 0, BuildingBlock: AZAVOO_clean_sbu_0, # of connection points: 4
#     Node 11, Type 0, BuildingBlock: AZAVOO_clean_sbu_0, # of connection points: 4
#     Node 12, Type 0, BuildingBlock: AZAVOO_clean_sbu_0, # of connection points: 4
#     Node 13, Type 0, BuildingBlock: AZAVOO_clean_sbu_0, # of connection points: 4
#     Node 14, Type 0, BuildingBlock: AZAVOO_clean_sbu_0, # of connection points: 4
#     Node 15, Type 0, BuildingBlock: AZAVOO_clean_sbu_0, # of connection points: 4
#     Node 16, Type 0, BuildingBlock: AZAVOO_clean_sbu_0, # of connection points: 4
#     Node 17, Type 0, BuildingBlock: AZAVOO_clean_sbu_0, # of connection points: 4
#     Edge 18, Type (0, 0), BuildingBlock: XIVTED_clean_linker_0, # of connection points: 2
#     Edge 19, Type (0, 0), BuildingBlock: XIVTED_clean_linker_0, # of connection points: 2
#     Edge 20, Type (0, 0), BuildingBlock: XIVTED_clean_linker_0, # of connection points: 2
#     Edge 21, Type (0, 0), BuildingBlock: XIVTED_clean_linker_0, # of connection points: 2
#     Edge 22, Type (0, 0), BuildingBlock: XIVTED_clean_linker_0, # of connection points: 2
#     Edge 23, Type (0, 0), BuildingBlock: XIVTED_clean_linker_0, # of connection points: 2
#     Edge 24, Type (0, 0), BuildingBlock: XIVTED_clean_linker_0, # of connection points: 2
#     Edge 25, Type (0, 0), BuildingBlock: XIVTED_clean_linker_0, # of connection points: 2
#     Edge 26, Type (0, 0), BuildingBlock: XIVTED_clean_linker_0, # of connection points: 2
#     Edge 27, Type (0, 0), BuildingBlock: XIVTED_clean_linker_0, # of connection points: 2
#     Edge 28, Type (0, 0), BuildingBlock: XIVTED_clean_linker_0, # of connection points: 2
#     Edge 29, Type (0, 0), BuildingBlock: XIVTED_clean_linker_0, # of connection points: 2
#     Edge 30, Type (0, 0), BuildingBlock: XIVTED_clean_linker_0, # of connection points: 2
#     Edge 31, Type (0, 0), BuildingBlock: XIVTED_clean_linker_0, # of connection points: 2
#     Edge 32, Type (0, 0), BuildingBlock: XIVTED_clean_linker_0, # of connection points: 2
#     Edge 33, Type (0, 0), BuildingBlock: XIVTED_clean_linker_0, # of connection points: 2
#     Edge 34, Type (0, 0), BuildingBlock: XIVTED_clean_linker_0, # of connection points: 2
#     Edge 35, Type (0, 0), BuildingBlock: XIVTED_clean_linker_0, # of connection points: 2
#     Edge 36, Type (0, 0), BuildingBlock: XIVTED_clean_linker_0, # of connection points: 2
#     Edge 37, Type (0, 0), BuildingBlock: XIVTED_clean_linker_0, # of connection points: 2
#     Edge 38, Type (0, 0), BuildingBlock: XIVTED_clean_linker_0, # of connection points: 2
#     Edge 39, Type (0, 0), BuildingBlock: XIVTED_clean_linker_0, # of connection points: 2
#     Edge 40, Type (0, 0), BuildingBlock: XIVTED_clean_linker_0, # of connection points: 2
#     Edge 41, Type (0, 0), BuildingBlock: XIVTED_clean_linker_0, # of connection points: 2
#     Edge 42, Type (0, 0), BuildingBlock: XIVTED_clean_linker_0, # of connection points: 2
#     Edge 43, Type (0, 0), BuildingBlock: XIVTED_clean_linker_0, # of connection points: 2
#     Edge 44, Type (0, 0), BuildingBlock: XIVTED_clean_linker_0, # of connection points: 2
#     Edge 45, Type (0, 0), BuildingBlock: XIVTED_clean_linker_0, # of connection points: 2
#     Edge 46, Type (0, 0), BuildingBlock: XIVTED_clean_linker_0, # of connection points: 2
#     Edge 47, Type (0, 0), BuildingBlock: XIVTED_clean_linker_0, # of connection points: 2
#     Edge 48, Type (0, 0), BuildingBlock: XIVTED_clean_linker_0, # of connection points: 2
#     Edge 49, Type (0, 0), BuildingBlock: XIVTED_clean_linker_0, # of connection points: 2
#     Edge 50, Type (0, 0), BuildingBlock: XIVTED_clean_linker_0, # of connection points: 2
#     Edge 51, Type (0, 0), BuildingBlock: XIVTED_clean_linker_0, # of connection points: 2
#     Edge 52, Type (0, 0), BuildingBlock: XIVTED_clean_linker_0, # of connection points: 2
#     Edge 53, Type (0, 0), BuildingBlock: XIVTED_clean_linker_0, # of connection points: 2
# Relax obj value: 0.365
# Max RMSD: 0.197
# Mean RMSD: 0.188
data_MOF--net-unp--node1-AZAVOO_clean_sbu_0--edge1-XIVTED_clean_linker_0
_symmetry_space_group_name_H-M    P1
_symmetry_Int_Tables_number       1
_symmetry_cell_setting            triclinic
loop_
_symmetry_equiv_pos_as_xyz
'x, y, z'
_cell_length_a     41.706161
_cell_length_b     41.705043
_cell_length_c     74.474601
_cell_angle_alpha  90.201236
_cell_angle_beta   89.819996
_cell_angle_gamma 120.50665
loop_
_atom_site_label
_atom_site_type_symbol
_atom_site_fract_x
_atom_site_fract_y
_atom_site_fract_z
_atom_type_partial_charge
Mg0 Mg 0.16149 0.2393 0.09606 0.0
O1 O 0.14986 0.17935 0.09629 0.0
O2 O 0.0999 0.14486 0.07908 0.0
Mg3 Mg 0.08426 0.18403 0.06519 0.0
C4 C 0.12521 0.14805 0.08981 0.0
C5 C 0.21511 0.24911 0.12748 0.0
O6 O 0.18276 0.22759 0.1352 0.0
O7 O 0.19055 0.24857 0.06879 0.0
O8 O 0.14116 0.21527 0.05109 0.0
O9 O 0.11813 0.22179 0.11754 0.0
O10 O 0.1063 0.22051 0.08857 0.0
C11 C 0.17616 0.23662 0.05332 0.0
C12 C 0.09402 0.21135 0.1047 0.0
O13 O 0.21594 0.25837 0.11115 0.0
Mg14 Mg 0.75772 0.92711 0.10028 0.0
O15 O 0.81754 0.97651 0.09783 0.0
O16 O 0.85034 0.95717 0.08198 0.0
Mg17 Mg 0.81004 0.89852 0.07132 0.0
C18 C 0.84817 0.98192 0.09118 0.0
C19 C 0.75304 0.98093 0.12795 0.0
O20 O 0.77963 0.97717 0.13519 0.0
O21 O 0.74533 0.93933 0.07201 0.0
O22 O 0.77725 0.91981 0.05561 0.0
O23 O 0.77789 0.90764 0.12328 0.0
O24 O 0.77608 0.88972 0.09516 0.0
C25 C 0.75587 0.93335 0.05688 0.0
C26 C 0.78695 0.89091 0.1114 0.0
O27 O 0.73908 0.96484 0.11308 0.0
Mg28 Mg 0.06823 0.84017 0.10473 0.0
O29 O 0.02081 0.85284 0.10355 0.0
O30 O 0.03921 0.90264 0.08596 0.0
Mg31 Mg 0.09526 0.91731 0.07332 0.0
C32 C 0.01554 0.87765 0.0965 0.0
C33 C 0.0206 0.78731 0.13582 0.0
O34 O 0.03132 0.81986 0.14321 0.0
O35 O 0.04977 0.81092 0.07743 0.0
O36 O 0.0689 0.86026 0.05943 0.0
O37 O 0.09361 0.88383 0.12616 0.0
O38 O 0.10676 0.89488 0.09728 0.0
C39 C 0.05392 0.82522 0.06184 0.0
C40 C 0.10907 0.90758 0.11326 0.0
O41 O 0.03031 0.78608 0.11974 0.0
Mg42 Mg 0.24042 0.15755 0.89938 0.0
O43 O 0.18124 0.14778 0.90107 0.0
O44 O 0.15052 0.10388 0.92187 0.0
Mg45 Mg 0.18945 0.08491 0.93296 0.0
C46 C 0.15192 0.12691 0.91017 0.0
C47 C 0.29289 0.23585 0.88358 0.0
O48 O 0.31566 0.23173 0.89419 0.0
O49 O 0.25438 0.18973 0.92613 0.0
O50 O 0.22492 0.14259 0.94551 0.0
O51 O 0.21876 0.11212 0.87887 0.0
O52 O 0.22118 0.1032 0.90796 0.0
C53 C 0.24585 0.17719 0.94215 0.0
C54 C 0.2096 0.08935 0.89224 0.0
O55 O 0.25889 0.21028 0.88303 0.0
Mg56 Mg 0.83665 0.06277 0.89957 0.0
O57 O 0.84756 0.01417 0.90026 0.0
O58 O 0.89321 0.02806 0.91999 0.0
Mg59 Mg 0.90724 0.08274 0.93399 0.0
C60 C 0.87004 0.00662 0.90816 0.0
C61 C 0.78588 0.03654 0.86577 0.0
O62 O 0.81599 0.06542 0.85929 0.0
O63 O 0.80223 0.04077 0.92547 0.0
O64 O 0.84818 0.05655 0.94531 0.0
O65 O 0.88489 0.09175 0.8803 0.0
O66 O 0.88978 0.09885 0.9097 0.0
C67 C 0.81381 0.04282 0.94153 0.0
C68 C 0.90589 0.10482 0.89435 0.0
O69 O 0.7854 0.02781 0.88215 0.0
Mg70 Mg 0.92594 0.75443 0.90311 0.0
O71 O 0.97401 0.81502 0.90398 0.0
O72 O 0.95492 0.84815 0.91972 0.0
Mg73 Mg 0.8978 0.80754 0.93182 0.0
C74 C 0.97918 0.84589 0.91015 0.0
C75 C 0.9775 0.74942 0.87433 0.0
O76 O 0.97068 0.77381 0.86683 0.0
O77 O 0.94214 0.7459 0.9313 0.0
O78 O 0.92269 0.77808 0.94756 0.0
O79 O 0.90297 0.77114 0.88023 0.0
O80 O 0.88764 0.77155 0.90862 0.0
C81 C 0.93733 0.75767 0.94636 0.0
C82 C 0.88698 0.78079 0.89225 0.0
O83 O 0.96406 0.73681 0.88979 0.0
Mg84 Mg 0.81568 0.56536 0.44215 0.0
O85 O 0.80438 0.50598 0.43757 0.0
O86 O 0.75466 0.47663 0.41958 0.0
Mg87 Mg 0.73941 0.51925 0.40978 0.0
C88 C 0.77981 0.47681 0.42941 0.0
C89 C 0.89544 0.61479 0.45664 0.0
O90 O 0.89076 0.63853 0.44709 0.0
O91 O 0.84556 0.5825 0.41497 0.0
O92 O 0.79672 0.55395 0.39648 0.0
O93 O 0.77182 0.54135 0.46345 0.0
O94 O 0.76084 0.54858 0.43517 0.0
C95 C 0.83164 0.57469 0.3992 0.0
C96 C 0.74811 0.53468 0.45075 0.0
O97 O 0.86954 0.5809 0.45697 0.0
Mg98 Mg 0.41727 0.25108 0.4287 0.0
O99 O 0.47729 0.30003 0.42956 0.0
O100 O 0.51087 0.28908 0.40962 0.0
Mg101 Mg 0.47107 0.23597 0.39405 0.0
C102 C 0.5082 0.30884 0.42202 0.0
C103 C 0.39936 0.2814 0.46367 0.0
O104 O 0.4097 0.25946 0.47099 0.0
O105 O 0.40669 0.27543 0.40327 0.0
O106 O 0.43848 0.26231 0.38317 0.0
O107 O 0.43502 0.22025 0.44729 0.0
O108 O 0.43524 0.21661 0.41778 0.0
C109 C 0.41734 0.27514 0.38719 0.0
C110 C 0.44416 0.209 0.43299 0.0
O111 O 0.39956 0.28402 0.44666 0.0
Mg112 Mg 0.72976 0.16338 0.43172 0.0
O113 O 0.67859 0.16962 0.42832 0.0
O114 O 0.69294 0.21432 0.40796 0.0
Mg115 Mg 0.75324 0.2371 0.39872 0.0
C116 C 0.67014 0.1899 0.41899 0.0
C117 C 0.70239 0.10702 0.46294 0.0
O118 O 0.73025 0.13675 0.47032 0.0
O119 O 0.71747 0.13302 0.40455 0.0
O120 O 0.736 0.18088 0.38565 0.0
O121 O 0.74862 0.20758 0.45285 0.0
O122 O 0.76445 0.21893 0.42424 0.0
C123 C 0.72357 0.14641 0.38867 0.0
C124 C 0.76373 0.23141 0.43995 0.0
O125 O 0.69429 0.10857 0.44664 0.0
Mg126 Mg 0.90178 0.50655 0.24371 0.0
O127 O 0.84107 0.49243 0.24364 0.0
O128 O 0.80882 0.44522 0.26266 0.0
Mg129 Mg 0.85017 0.43311 0.277 0.0
C130 C 0.81056 0.4685 0.25103 0.0
C131 C 0.91096 0.55527 0.21008 0.0
O132 O 0.89431 0.52208 0.20266 0.0
O133 O 0.911 0.53914 0.27001 0.0
O134 O 0.88051 0.49165 0.28913 0.0
O135 O 0.88559 0.45966 0.22392 0.0
O136 O 0.88584 0.4535 0.25328 0.0
C137 C 0.90049 0.52641 0.28587 0.0
C138 C 0.87728 0.43809 0.23773 0.0
O139 O 0.91761 0.55823 0.22685 0.0
Mg140 Mg 0.4991 0.41212 0.23483 0.0
O141 O 0.50853 0.36295 0.23827 0.0
O142 O 0.55246 0.37866 0.25922 0.0
Mg143 Mg 0.57147 0.43795 0.26896 0.0
C144 C 0.52933 0.35558 0.24783 0.0
C145 C 0.44734 0.3724 0.20201 0.0
O146 O 0.4798 0.39075 0.19395 0.0
O147 O 0.46685 0.39695 0.26155 0.0
O148 O 0.51379 0.41678 0.28114 0.0
O149 O 0.54503 0.43412 0.2145 0.0
O150 O 0.55357 0.44883 0.2433 0.0
C151 C 0.47927 0.40273 0.27763 0.0
C152 C 0.56762 0.44949 0.22783 0.0
O153 O 0.4458 0.37485 0.21898 0.0
Mg154 Mg 0.59272 0.10151 0.2358 0.0
O155 O 0.64318 0.1604 0.23826 0.0
O156 O 0.63305 0.18808 0.26159 0.0
Mg157 Mg 0.57517 0.14809 0.27316 0.0
C158 C 0.65337 0.1883 0.24866 0.0
C159 C 0.61987 0.08029 0.20076 0.0
O160 O 0.59278 0.08374 0.19392 0.0
O161 O 0.61227 0.08373 0.26081 0.0
O162 O 0.59603 0.10992 0.28258 0.0
O163 O 0.56636 0.12494 0.2178 0.0
O164 O 0.55878 0.11956 0.24716 0.0
C165 C 0.60883 0.08939 0.2774 0.0
C166 C 0.55397 0.13214 0.23231 0.0
O167 O 0.62662 0.08579 0.21748 0.0
Mg168 Mg 0.49621 0.90231 0.76339 0.0
O169 O 0.48665 0.84326 0.76035 0.0
O170 O 0.43607 0.81059 0.74321 0.0
Mg171 Mg 0.41861 0.85077 0.73226 0.0
C172 C 0.46225 0.81286 0.753 0.0
C173 C 0.55279 0.90668 0.79221 0.0
O174 O 0.5218 0.87942 0.79899 0.0
O175 O 0.52447 0.91708 0.73588 0.0
O176 O 0.47506 0.88522 0.71802 0.0
O177 O 0.45373 0.87978 0.78535 0.0
O178 O 0.44054 0.88299 0.75693 0.0
C179 C 0.50997 0.90712 0.72029 0.0
C180 C 0.42906 0.87084 0.77288 0.0
O181 O 0.55158 0.92114 0.77741 0.0
Mg182 Mg 0.09537 0.58421 0.76809 0.0
O183 O 0.15554 0.63264 0.76582 0.0
O184 O 0.18554 0.61663 0.74604 0.0
Mg185 Mg 0.14302 0.56048 0.73358 0.0
C186 C 0.18507 0.63931 0.75747 0.0
C187 C 0.08073 0.61921 0.80203 0.0
O188 O 0.08933 0.59622 0.80966 0.0
O189 O 0.08104 0.60313 0.74186 0.0
O190 O 0.10938 0.58511 0.72208 0.0
O191 O 0.1158 0.55734 0.78769 0.0
O192 O 0.1111 0.54702 0.75851 0.0
C193 C 0.08914 0.59916 0.72574 0.0
C194 C 0.12242 0.54276 0.77384 0.0
O195 O 0.0809 0.62108 0.78498 0.0
Mg196 Mg 0.40921 0.49978 0.76452 0.0
O197 O 0.35781 0.50619 0.7637 0.0
O198 O 0.36742 0.54724 0.74202 0.0
Mg199 Mg 0.42503 0.568 0.7296 0.0
C200 C 0.34733 0.52495 0.75445 0.0
C201 C 0.39669 0.44722 0.79558 0.0
O202 O 0.43129 0.47432 0.79762 0.0
O203 O 0.38939 0.46471 0.73861 0.0
O204 O 0.40391 0.50956 0.71831 0.0
O205 O 0.43379 0.54726 0.78394 0.0
O206 O 0.4421 0.55371 0.75457 0.0
C207 C 0.39171 0.47558 0.72237 0.0
C208 C 0.44555 0.56883 0.77006 0.0
O209 O 0.37816 0.44852 0.78237 0.0
Mg210 Mg 0.56944 0.82076 0.56884 0.0
O211 O 0.51058 0.81204 0.57048 0.0
O212 O 0.4816 0.77276 0.59325 0.0
Mg213 Mg 0.52042 0.75457 0.60523 0.0
C214 C 0.48214 0.79351 0.58052 0.0
C215 C 0.57769 0.87162 0.53531 0.0
O216 O 0.55352 0.83972 0.52792 0.0
O217 O 0.58528 0.85718 0.59427 0.0
O218 O 0.55753 0.81379 0.61556 0.0
O219 O 0.54674 0.77113 0.55025 0.0
O220 O 0.55037 0.76827 0.57967 0.0
C221 C 0.57831 0.84758 0.61074 0.0
C222 C 0.5386 0.75109 0.56464 0.0
O223 O 0.58832 0.87208 0.55134 0.0
Mg224 Mg 0.16697 0.73309 0.57122 0.0
O225 O 0.1754 0.68273 0.57183 0.0
O226 O 0.22087 0.69563 0.59156 0.0
Mg227 Mg 0.23704 0.75081 0.60558 0.0
C228 C 0.19734 0.67446 0.57978 0.0
C229 C 0.11425 0.7199 0.54023 0.0
O230 O 0.14102 0.75471 0.53841 0.0
O231 O 0.13223 0.71207 0.59715 0.0
O232 O 0.1782 0.72684 0.61684 0.0
O233 O 0.21525 0.7608 0.55189 0.0
O234 O 0.22048 0.76757 0.58129 0.0
C235 C 0.14393 0.71415 0.61321 0.0
C236 C 0.23641 0.77323 0.56591 0.0
O237 O 0.11588 0.70118 0.55328 0.0
Mg238 Mg 0.24988 0.41631 0.56996 0.0
O239 O 0.30081 0.47517 0.57132 0.0
O240 O 0.28871 0.50701 0.59185 0.0
Mg241 Mg 0.22996 0.46913 0.60307 0.0
C242 C 0.31013 0.50488 0.5802 0.0
C243 C 0.29507 0.40796 0.53848 0.0
O244 O 0.28813 0.43265 0.53143 0.0
O245 O 0.26675 0.40234 0.5969 0.0
O246 O 0.25017 0.43286 0.61607 0.0
O247 O 0.22715 0.43801 0.54915 0.0
O248 O 0.21563 0.43672 0.5782 0.0
C249 C 0.26287 0.41127 0.61286 0.0
C250 C 0.21376 0.44784 0.56237 0.0
O251 O 0.28374 0.39633 0.55431 0.0
H252 H 0.37543 0.32951 0.21405 0.0
H253 H 0.28709 0.29125 0.11556 0.0
H254 H 0.44089 0.36642 0.16544 0.0
H255 H 0.22241 0.24171 0.16352 0.0
H256 H 0.3438 0.3187 0.13362 0.0
H257 H 0.31902 0.29684 0.19583 0.0
C258 C 0.37798 0.33063 0.19956 0.0
C259 C 0.41297 0.3509 0.19127 0.0
C260 C 0.31721 0.30167 0.14018 0.0
C261 C 0.34848 0.31368 0.17033 0.0
C262 C 0.2848 0.286 0.12987 0.0
C263 C 0.24989 0.26426 0.13803 0.0
C264 C 0.31475 0.2958 0.15883 0.0
C265 C 0.24868 0.25832 0.15664 0.0
C266 C 0.34575 0.31193 0.18916 0.0
C267 C 0.41455 0.35125 0.17243 0.0
N268 N 0.2806 0.27418 0.16642 0.0
N269 N 0.38278 0.33313 0.16261 0.0
H270 H 0.77269 0.01354 0.16115 0.0
H271 H 0.61029 0.06255 0.16494 0.0
H272 H 0.69678 0.99263 0.11741 0.0
H273 H 0.67913 0.0727 0.21028 0.0
H274 H 0.6452 0.04218 0.14645 0.0
H275 H 0.74258 0.04096 0.17834 0.0
C276 C 0.74987 0.01496 0.15509 0.0
C277 C 0.73709 0.0005 0.13784 0.0
C278 C 0.65274 0.04897 0.16043 0.0
C279 C 0.70234 0.03178 0.15752 0.0
C280 C 0.63282 0.06063 0.17101 0.0
C281 C 0.64162 0.06916 0.18924 0.0
C282 C 0.68178 0.04588 0.16811 0.0
C283 C 0.67121 0.06625 0.19633 0.0
C284 C 0.73261 0.03055 0.16495 0.0
C285 C 0.70745 0.00324 0.13069 0.0
N286 N 0.69013 0.05477 0.18576 0.0
N287 N 0.69098 0.01838 0.14059 0.0
H288 H 0.90872 0.5593 0.17346 0.0
H289 H 0.0036 0.78112 0.17163 0.0
H290 H 0.94145 0.62779 0.22115 0.0
H291 H 0.99125 0.71497 0.12462 0.0
H292 H 0.97379 0.72441 0.18964 0.0
H293 H 0.93193 0.61528 0.15512 0.0
C294 C 0.92061 0.58608 0.18009 0.0
C295 C 0.92333 0.58884 0.19889 0.0
C296 C 0.97747 0.72229 0.17537 0.0
C297 C 0.94991 0.65307 0.17793 0.0
C298 C 0.9944 0.75466 0.16505 0.0
C299 C 0.00017 0.75286 0.14658 0.0
C300 C 0.96602 0.68776 0.16718 0.0
C301 C 0.98758 0.71772 0.13882 0.0
C302 C 0.93393 0.61804 0.1696 0.0
C303 C 0.93897 0.62433 0.20671 0.0
N304 N 0.97118 0.68658 0.14916 0.0
N305 N 0.95171 0.65504 0.1962 0.0
H306 H 0.32506 0.38755 0.79657 0.0
H307 H 0.36333 0.29626 0.88231 0.0
H308 H 0.43019 0.43622 0.82442 0.0
H309 H 0.25552 0.2497 0.85723 0.0
H310 H 0.3878 0.34805 0.86125 0.0
H311 H 0.29865 0.33685 0.81853 0.0
C312 C 0.34258 0.38759 0.80728 0.0
C313 C 0.37993 0.41617 0.80862 0.0
C314 C 0.35875 0.32661 0.86037 0.0
C315 C 0.3499 0.35831 0.83379 0.0
C316 C 0.34472 0.29699 0.87242 0.0
C317 C 0.30732 0.26849 0.87152 0.0
C318 C 0.3353 0.3278 0.84721 0.0
C319 C 0.28455 0.27104 0.85842 0.0
C320 C 0.32747 0.35868 0.81983 0.0
C321 C 0.40129 0.41481 0.82281 0.0
N322 N 0.29894 0.30008 0.84672 0.0
N323 N 0.386 0.38639 0.83479 0.0
H324 H 0.77748 0.04911 0.83053 0.0
H325 H 0.56425 0.88573 0.8253 0.0
H326 H 0.71861 0.97552 0.87471 0.0
H327 H 0.62175 0.96373 0.78241 0.0
H328 H 0.62175 0.91513 0.84278 0.0
H329 H 0.72192 0.01523 0.812 0.0
C330 C 0.75291 0.02574 0.83634 0.0
C331 C 0.75269 0.01529 0.85426 0.0
C332 C 0.62183 0.9257 0.82951 0.0
C333 C 0.68882 0.9763 0.83305 0.0
C334 C 0.58901 0.90888 0.81949 0.0
C335 C 0.58807 0.92241 0.80239 0.0
C336 C 0.65402 0.9563 0.82239 0.0
C337 C 0.62108 0.95244 0.79556 0.0
C338 C 0.72115 0.00639 0.82573 0.0
C339 C 0.72002 0.98468 0.861 0.0
N340 N 0.65263 0.96846 0.80561 0.0
N341 N 0.68937 0.96634 0.85041 0.0
H342 H 0.07291 0.61795 0.83857 0.0
H343 H 0.00307 0.76482 0.83971 0.0
H344 H 0.06295 0.67102 0.79096 0.0
H345 H 0.99741 0.69939 0.8857 0.0
H346 H 0.03163 0.73597 0.82239 0.0
H347 H 0.0517 0.6526 0.85665 0.0
C348 C 0.06642 0.637 0.8319 0.0
C349 C 0.0695 0.64138 0.81318 0.0
C350 C 0.0243 0.72805 0.83629 0.0
C351 C 0.04519 0.68121 0.83387 0.0
C352 C 0.00808 0.74459 0.84623 0.0
C353 C 0.99757 0.73434 0.86417 0.0
C354 C 0.03023 0.70111 0.84435 0.0
C355 C 0.00485 0.70801 0.87188 0.0
C356 C 0.05425 0.65676 0.84226 0.0
C357 C 0.0608 0.66659 0.80533 0.0
N358 N 0.0206 0.69221 0.86191 0.0
N359 N 0.04895 0.68547 0.8157 0.0
H360 H 0.91076 0.5755 0.48134 0.0
H361 H 0.10292 0.75394 0.51177 0.0
H362 H 0.95664 0.68466 0.45786 0.0
H363 H 0.05428 0.64831 0.53913 0.0
H364 H 0.0512 0.72731 0.49072 0.0
H365 H 0.96485 0.59985 0.50126 0.0
C366 C 0.9323 0.6045 0.48027 0.0
C367 C 0.92906 0.62811 0.46795 0.0
C368 C 0.05176 0.70985 0.50129 0.0
C369 C 0.99091 0.65613 0.49074 0.0
C370 C 0.08137 0.72507 0.51336 0.0
C371 C 0.08294 0.70338 0.52731 0.0
C372 C 0.02334 0.67256 0.5031 0.0
C373 C 0.05415 0.6661 0.52862 0.0
C374 C 0.9631 0.61839 0.4917 0.0
C375 C 0.95782 0.66544 0.46719 0.0
N376 N 0.02548 0.65186 0.51668 0.0
N377 N 0.9874 0.67826 0.47844 0.0
H378 H 0.31695 0.4219 0.50327 0.0
H379 H 0.39092 0.27829 0.50023 0.0
H380 H 0.31558 0.35793 0.54903 0.0
H381 H 0.37889 0.33151 0.4532 0.0
H382 H 0.3682 0.3111 0.51876 0.0
H383 H 0.34463 0.39309 0.48525 0.0
C384 C 0.32264 0.40195 0.50957 0.0
C385 C 0.31374 0.39221 0.52769 0.0
C386 C 0.37059 0.31566 0.50439 0.0
C387 C 0.34543 0.35903 0.50707 0.0
C388 C 0.38361 0.29695 0.49379 0.0
C389 C 0.38667 0.302 0.4751 0.0
C390 C 0.36065 0.33973 0.49629 0.0
C391 C 0.37685 0.32662 0.46754 0.0
C392 C 0.33838 0.38543 0.49924 0.0
C393 C 0.32181 0.36618 0.5351 0.0
N394 N 0.36424 0.34451 0.47815 0.0
N395 N 0.33712 0.35046 0.52476 0.0
H396 H 0.64569 0.03872 0.45162 0.0
H397 H 0.6279 0.94192 0.5468 0.0
H398 H 0.71171 0.09596 0.4982 0.0
H399 H 0.56451 0.88143 0.50017 0.0
H400 H 0.65632 0.99915 0.52936 0.0
H401 H 0.61326 0.98139 0.4693 0.0
C402 C 0.6533 0.03929 0.46556 0.0
C403 C 0.68158 0.07221 0.47342 0.0
C404 C 0.63614 0.97342 0.52291 0.0
C405 C 0.64459 0.00675 0.49369 0.0
C406 C 0.61984 0.94065 0.53289 0.0
C407 C 0.59385 0.9067 0.52493 0.0
C408 C 0.62651 0.97243 0.50478 0.0
C409 C 0.58447 0.90693 0.50685 0.0
C410 C 0.63479 0.00654 0.47564 0.0
C411 C 0.69022 0.07128 0.49154 0.0
N412 N 0.60088 0.93926 0.49736 0.0
N413 N 0.67187 0.03913 0.50102 0.0
H414 H 0.06885 0.14948 0.12535 0.0
H415 H 0.85745 0.0516 0.09403 0.0
H416 H 0.03191 0.2043 0.08898 0.0
H417 H 0.91701 0.99228 0.09762 0.0
H418 H 0.91584 0.11008 0.10032 0.0
H419 H 0.00668 0.09352 0.12401 0.0
C420 C 0.04724 0.15014 0.11761 0.0
C421 C 0.05519 0.1815 0.10739 0.0
C422 C 0.91589 0.08414 0.0998 0.0
C423 C 0.98458 0.11799 0.10577 0.0
C424 C 0.88277 0.05092 0.09623 0.0
C425 C 0.88268 0.01729 0.09508 0.0
C426 C 0.94869 0.08336 0.1028 0.0
C427 C 0.91611 0.01777 0.09811 0.0
C428 C 0.01205 0.11816 0.11668 0.0
C429 C 0.02662 0.18066 0.09714 0.0
N430 N 0.94778 0.05029 0.10195 0.0
N431 N 0.99244 0.14934 0.09659 0.0
H432 H 0.79063 0.83089 0.10009 0.0
H433 H 0.00725 0.93823 0.09966 0.0
H434 H 0.85249 0.9348 0.12863 0.0
H435 H 0.94663 0.81856 0.1043 0.0
H436 H 0.95026 0.93871 0.10735 0.0
H437 H 0.8466 0.82558 0.09923 0.0
C438 C 0.81576 0.85199 0.10662 0.0
C439 C 0.81698 0.88299 0.11469 0.0
C440 C 0.94959 0.91241 0.10681 0.0
C441 C 0.88115 0.87806 0.113 0.0
C442 C 0.98189 0.91207 0.10224 0.0
C443 C 0.98145 0.87826 0.1012 0.0
C444 C 0.91646 0.87865 0.1099 0.0
C445 C 0.94804 0.84519 0.10493 0.0
C446 C 0.84763 0.84906 0.10606 0.0
C447 C 0.85034 0.9101 0.12261 0.0
N448 N 0.91665 0.84613 0.10885 0.0
N449 N 0.88143 0.90743 0.12123 0.0
H450 H 0.06477 0.07935 0.09556 0.0
H451 H 0.16848 0.96894 0.09901 0.0
H452 H 0.18475 0.13993 0.09764 0.0
H453 H 0.06956 0.93358 0.13076 0.0
H454 H 0.1752 0.03069 0.09601 0.0
H455 H 0.06451 0.02316 0.10542 0.0
C456 C 0.09103 0.08072 0.09802 0.0
C457 C 0.12486 0.11412 0.09564 0.0
C458 C 0.1526 0.00968 0.10401 0.0
C459 C 0.12471 0.05022 0.10682 0.0
C460 C 0.14889 0.97465 0.10581 0.0
C461 C 0.1188 0.94654 0.11538 0.0
C462 C 0.12518 0.01598 0.11126 0.0
C463 C 0.09356 0.95484 0.12359 0.0
C464 C 0.09084 0.04886 0.10383 0.0
C465 C 0.15811 0.11463 0.09928 0.0
N466 N 0.09682 0.98863 0.12099 0.0
N467 N 0.15727 0.08293 0.10442 0.0
H468 H 0.98783 0.91384 0.90301 0.0
H469 H 0.20367 0.02925 0.90955 0.0
H470 H 0.04901 0.85612 0.90638 0.0
H471 H 0.14618 0.06179 0.87248 0.0
H472 H 0.14775 0.96718 0.9116 0.0
H473 H 0.04576 0.97115 0.89526 0.0
C474 C 0.01352 0.91334 0.90219 0.0
C475 C 0.01386 0.88042 0.90546 0.0
C476 C 0.14773 0.98771 0.90274 0.0
C477 C 0.07986 0.9456 0.89677 0.0
C478 C 0.17953 0.02295 0.90153 0.0
C479 C 0.1795 0.05032 0.89067 0.0
C480 C 0.11541 0.98043 0.89355 0.0
C481 C 0.14742 0.04116 0.88077 0.0
C482 C 0.04637 0.94584 0.8976 0.0
C483 C 0.04772 0.88103 0.90397 0.0
N484 N 0.11629 0.00715 0.88273 0.0
N485 N 0.07959 0.91333 0.90001 0.0
H486 H 0.09919 0.11746 0.93457 0.0
H487 H 0.94658 0.09672 0.86729 0.0
H488 H 0.12806 0.14118 0.87857 0.0
H489 H 0.95707 0.14374 0.92016 0.0
H490 H 0.01024 0.10782 0.87005 0.0
H491 H 0.04251 0.1196 0.92909 0.0
C492 C 0.09356 0.12315 0.92112 0.0
C493 C 0.11824 0.1292 0.907 0.0
C494 C 0.99865 0.11621 0.88087 0.0
C495 C 0.05338 0.13121 0.9006 0.0
C496 C 0.96248 0.11007 0.87928 0.0
C497 C 0.94626 0.11859 0.89368 0.0
C498 C 0.01813 0.13035 0.89704 0.0
C499 C 0.96811 0.1358 0.90892 0.0
C500 C 0.06141 0.12462 0.91803 0.0
C501 C 0.10973 0.13661 0.88982 0.0
N502 N 0.00259 0.1404 0.91036 0.0
N503 N 0.07763 0.13689 0.88701 0.0
H504 H 0.92973 0.84523 0.87412 0.0
H505 H 0.81024 0.93895 0.8993 0.0
H506 H 0.82728 0.78487 0.90392 0.0
H507 H 0.92958 0.99668 0.90528 0.0
H508 H 0.81086 0.8818 0.89163 0.0
H509 H 0.924 0.90098 0.8755 0.0
C510 C 0.90528 0.84336 0.8803 0.0
C511 C 0.87866 0.81048 0.88875 0.0
C512 C 0.83683 0.90715 0.8945 0.0
C513 C 0.87211 0.87371 0.89041 0.0
C514 C 0.83653 0.93962 0.89885 0.0
C515 C 0.86988 0.97232 0.9031 0.0
C516 C 0.87081 0.90788 0.89384 0.0
C517 C 0.90324 0.97185 0.90232 0.0
C518 C 0.90232 0.8752 0.88129 0.0
C519 C 0.84812 0.80972 0.89711 0.0
N520 N 0.90291 0.94014 0.89768 0.0
N521 N 0.84562 0.84096 0.89775 0.0
H522 H 0.68608 0.53305 0.43837 0.0
H523 H 0.57797 0.31903 0.42451 0.0
H524 H 0.72337 0.46578 0.46452 0.0
H525 H 0.51571 0.37421 0.4343 0.0
H526 H 0.63428 0.37448 0.43553 0.0
H527 H 0.62472 0.47714 0.43389 0.0
C528 C 0.68089 0.50665 0.44363 0.0
C529 C 0.70939 0.50393 0.45208 0.0
C530 C 0.60819 0.37426 0.43535 0.0
C531 C 0.64045 0.44008 0.44622 0.0
C532 C 0.57624 0.3429 0.42891 0.0
C533 C 0.5423 0.34225 0.42841 0.0
C534 C 0.60634 0.40549 0.44086 0.0
C535 C 0.54141 0.3737 0.43447 0.0
C536 C 0.6461 0.47486 0.441 0.0
C537 C 0.70177 0.46904 0.45828 0.0
N538 N 0.57315 0.40438 0.4402 0.0
N539 N 0.66821 0.43823 0.45486 0.0
H540 H 0.49042 0.21362 0.46055 0.0
H541 H 0.62839 0.19974 0.394 0.0
H542 H 0.45885 0.17388 0.40622 0.0
H543 H 0.62846 0.17207 0.44976 0.0
H544 H 0.56877 0.19661 0.3987 0.0
H545 H 0.54297 0.20271 0.45794 0.0
C546 C 0.49405 0.20193 0.44823 0.0
C547 C 0.47072 0.1954 0.43343 0.0
C548 C 0.58168 0.19088 0.40987 0.0
C549 C 0.53087 0.18381 0.43028 0.0
C550 C 0.61573 0.19285 0.40721 0.0
C551 C 0.63323 0.18606 0.4215 0.0
C552 C 0.56548 0.18305 0.42704 0.0
C553 C 0.61563 0.17721 0.43837 0.0
C554 C 0.52408 0.19588 0.44674 0.0
C555 C 0.47673 0.18027 0.41779 0.0
N556 N 0.58289 0.17648 0.44077 0.0
N557 N 0.5066 0.1757 0.4165 0.0
H558 H 0.71891 0.40762 0.43282 0.0
H559 H 0.81921 0.29351 0.42392 0.0
H560 H 0.83892 0.46592 0.43285 0.0
H561 H 0.72493 0.25603 0.45935 0.0
H562 H 0.82558 0.3554 0.42314 0.0
H563 H 0.71789 0.34909 0.43818 0.0
C564 C 0.74501 0.408 0.43384 0.0
C565 C 0.77907 0.44148 0.43229 0.0
C566 C 0.80395 0.33376 0.43132 0.0
C567 C 0.77803 0.37492 0.43825 0.0
C568 C 0.80036 0.29861 0.4318 0.0
C569 C 0.77179 0.26995 0.44188 0.0
C570 C 0.77795 0.3397 0.44045 0.0
C571 C 0.74767 0.27764 0.45165 0.0
C572 C 0.74439 0.37476 0.43707 0.0
C573 C 0.81213 0.44061 0.43397 0.0
N574 N 0.75083 0.31166 0.45042 0.0
N575 N 0.81083 0.40769 0.4366 0.0
H576 H 0.69008 0.21532 0.21671 0.0
H577 H 0.86636 0.38636 0.26275 0.0
H578 H 0.69929 0.23841 0.27358 0.0
H579 H 0.82943 0.39731 0.21027 0.0
H580 H 0.81439 0.32248 0.26428 0.0
H581 H 0.74949 0.27371 0.21202 0.0
C582 C 0.70479 0.23247 0.2282 0.0
C583 C 0.68976 0.22223 0.24556 0.0
C584 C 0.81797 0.33871 0.25233 0.0
C585 C 0.75756 0.28808 0.24031 0.0
C586 C 0.84763 0.37512 0.2514 0.0
C587 C 0.8517 0.39744 0.23653 0.0
C588 C 0.79237 0.32423 0.23819 0.0
C589 C 0.82711 0.38111 0.22204 0.0
C590 C 0.73848 0.26569 0.22549 0.0
C591 C 0.70976 0.24545 0.25997 0.0
N592 N 0.79809 0.34545 0.2233 0.0
N593 N 0.74271 0.27718 0.25703 0.0
H594 H 0.74157 0.40715 0.2473 0.0
H595 H 0.62825 0.50778 0.24333 0.0
H596 H 0.80106 0.52672 0.24227 0.0
H597 H 0.59413 0.40942 0.21127 0.0
H598 H 0.69011 0.51475 0.24667 0.0
H599 H 0.68419 0.40544 0.23817 0.0
C600 C 0.74247 0.43301 0.24433 0.0
C601 C 0.77592 0.46714 0.24559 0.0
C602 C 0.66927 0.49214 0.2386 0.0
C603 C 0.7107 0.46537 0.23541 0.0
C604 C 0.63418 0.48824 0.23665 0.0
C605 C 0.60648 0.45834 0.2268 0.0
C606 C 0.67601 0.46511 0.23124 0.0
C607 C 0.61509 0.43324 0.21868 0.0
C608 C 0.70992 0.43197 0.23898 0.0
C609 C 0.77575 0.49986 0.24143 0.0
N610 N 0.64894 0.43672 0.22139 0.0
N611 N 0.74345 0.49825 0.23678 0.0
H612 H 0.54186 0.31543 0.27272 0.0
H613 H 0.55834 0.17939 0.20539 0.0
H614 H 0.51313 0.31424 0.21702 0.0
H615 H 0.52075 0.14738 0.25996 0.0
H616 H 0.54701 0.23154 0.20852 0.0
H617 H 0.54126 0.25703 0.26793 0.0
C618 C 0.53533 0.30279 0.2595 0.0
C619 C 0.52747 0.31956 0.24525 0.0
C620 C 0.54093 0.21274 0.2197 0.0
C621 C 0.5273 0.25323 0.23963 0.0
C622 C 0.54728 0.18298 0.21793 0.0
C623 C 0.54138 0.15954 0.2326 0.0
C624 C 0.5292 0.21925 0.23632 0.0
C625 C 0.52687 0.16543 0.24849 0.0
C626 C 0.53479 0.26942 0.2568 0.0
C627 C 0.51909 0.30198 0.22838 0.0
N628 N 0.52194 0.19506 0.25004 0.0
N629 N 0.51972 0.26994 0.22594 0.0
H630 H 0.25493 0.6494 0.75867 0.0
H631 H 0.36557 0.86575 0.76018 0.0
H632 H 0.19486 0.70756 0.76599 0.0
H633 H 0.40629 0.80485 0.78959 0.0
H634 H 0.30387 0.80911 0.7587 0.0
H635 H 0.31304 0.70703 0.76591 0.0
C636 C 0.25405 0.67436 0.76172 0.0
C637 C 0.22019 0.6739 0.76165 0.0
C638 C 0.32615 0.80845 0.76581 0.0
C639 C 0.28627 0.73959 0.76975 0.0
C640 C 0.36116 0.84066 0.76672 0.0
C641 C 0.39066 0.83993 0.77528 0.0
C642 C 0.32121 0.77511 0.7729 0.0
C643 C 0.38395 0.80662 0.78321 0.0
C644 C 0.28706 0.70701 0.76601 0.0
C645 C 0.22045 0.70685 0.76591 0.0
N646 N 0.35005 0.77523 0.7815 0.0
N647 N 0.25312 0.73862 0.76953 0.0
H648 H 0.29971 0.52823 0.73071 0.0
H649 H 0.17436 0.55497 0.79986 0.0
H650 H 0.31255 0.51371 0.78704 0.0
H651 H 0.13163 0.50051 0.74888 0.0
H652 H 0.22699 0.54436 0.79645 0.0
H653 H 0.2405 0.52458 0.73738 0.0
C654 C 0.28996 0.52417 0.74448 0.0
C655 C 0.3109 0.52122 0.75835 0.0
C656 C 0.20562 0.53419 0.78622 0.0
C657 C 0.2436 0.51756 0.76609 0.0
C658 C 0.17556 0.54006 0.78818 0.0
C659 C 0.14905 0.52929 0.77444 0.0
C660 C 0.2092 0.51803 0.77032 0.0
C661 C 0.15197 0.51014 0.75958 0.0
C662 C 0.25612 0.52185 0.74826 0.0
C663 C 0.29698 0.51586 0.77597 0.0
N664 N 0.18191 0.50582 0.75773 0.0
N665 N 0.26435 0.51476 0.77942 0.0
H666 H 0.5229 0.80422 0.75511 0.0
H667 H 0.41203 0.59682 0.79113 0.0
H668 H 0.40328 0.74411 0.76001 0.0
H669 H 0.49684 0.62809 0.75061 0.0
H670 H 0.41835 0.6585 0.78843 0.0
H671 H 0.52278 0.74621 0.76152 0.0
C672 C 0.49672 0.77885 0.75761 0.0
C673 C 0.46301 0.77862 0.75683 0.0
C674 C 0.43602 0.65196 0.78042 0.0
C675 C 0.46287 0.71321 0.76473 0.0
C676 C 0.43274 0.61708 0.78207 0.0
C677 C 0.45413 0.60765 0.77113 0.0
C678 C 0.46149 0.67771 0.76809 0.0
C679 C 0.47998 0.63452 0.7593 0.0
C680 C 0.4967 0.74597 0.76125 0.0
C681 C 0.42978 0.74519 0.76024 0.0
N682 N 0.48306 0.6685 0.7581 0.0
N683 N 0.43055 0.71381 0.76419 0.0
H684 H 0.52508 0.70182 0.59149 0.0
H685 H 0.34834 0.52709 0.54837 0.0
H686 H 0.48911 0.70838 0.53804 0.0
H687 H 0.35485 0.55855 0.60407 0.0
H688 H 0.40807 0.58472 0.54283 0.0
H689 H 0.47148 0.63916 0.5944 0.0
C690 C 0.5061 0.68996 0.58027 0.0
C691 C 0.51101 0.71076 0.56468 0.0
C692 C 0.39638 0.5787 0.55625 0.0
C693 C 0.45001 0.63873 0.56787 0.0
C694 C 0.36254 0.54592 0.55944 0.0
C695 C 0.34672 0.53825 0.5767 0.0
C696 C 0.4148 0.6032 0.57053 0.0
C697 C 0.366 0.56358 0.59056 0.0
C698 C 0.47557 0.65419 0.58197 0.0
C699 C 0.48615 0.69343 0.55037 0.0
N700 N 0.39915 0.5948 0.5872 0.0
N701 N 0.45637 0.65837 0.55236 0.0
H702 H 0.27627 0.76443 0.53865 0.0
H703 H 0.43147 0.78755 0.60534 0.0
H704 H 0.28809 0.8114 0.59162 0.0
H705 H 0.4565 0.80517 0.54873 0.0
H706 H 0.37493 0.78994 0.60015 0.0
H707 H 0.33982 0.77507 0.54103 0.0
C708 C 0.29243 0.77765 0.55059 0.0
C709 C 0.27664 0.78633 0.56512 0.0
C710 C 0.39294 0.79357 0.58887 0.0
C711 C 0.34844 0.79768 0.56804 0.0
C712 C 0.42503 0.79195 0.59181 0.0
C713 C 0.44859 0.79612 0.57744 0.0
C714 C 0.38379 0.79851 0.57137 0.0
C715 C 0.43905 0.80199 0.56017 0.0
C716 C 0.32855 0.78355 0.55196 0.0
C717 C 0.2988 0.80337 0.58029 0.0
N718 N 0.407 0.80249 0.55755 0.0
N719 N 0.33326 0.80782 0.58149 0.0
H720 H 0.25114 0.51074 0.54232 0.0
H721 H 0.13646 0.60574 0.57352 0.0
H722 H 0.15881 0.45399 0.57892 0.0
H723 H 0.25644 0.66489 0.57449 0.0
H724 H 0.13646 0.54799 0.56625 0.0
H725 H 0.2448 0.56614 0.54428 0.0
C726 C 0.22879 0.50958 0.55028 0.0
C727 C 0.20527 0.47786 0.5604 0.0
C728 C 0.16267 0.57378 0.56793 0.0
C729 C 0.19789 0.54058 0.56261 0.0
C730 C 0.16272 0.60656 0.57203 0.0
C731 C 0.19651 0.63983 0.57477 0.0
C732 C 0.19664 0.57481 0.56595 0.0
C733 C 0.22983 0.63961 0.5727 0.0
C734 C 0.22547 0.54119 0.55153 0.0
C735 C 0.17732 0.47797 0.57088 0.0
N736 N 0.22909 0.60761 0.56829 0.0
N737 N 0.17432 0.50892 0.57171 0.0
H738 H 0.16387 0.2539 0.01993 0.0
H739 H 0.27168 0.17193 0.97477 0.0
H740 H 0.24196 0.23728 0.05035 0.0
H741 H 0.23887 0.23864 0.94468 0.0
H742 H 0.26789 0.20143 0.00249 0.0
H743 H 0.19591 0.25459 0.99228 0.0
C744 C 0.18834 0.25123 0.02077 0.0
C745 C 0.20017 0.2452 0.03736 0.0
C746 C 0.26268 0.21056 0.9898 0.0
C747 C 0.23637 0.24495 0.00579 0.0
C748 C 0.26493 0.19379 0.97398 0.0
C749 C 0.25541 0.20283 0.95749 0.0
C750 C 0.24955 0.23557 0.98915 0.0
C751 C 0.24655 0.23105 0.95715 0.0
C752 C 0.20671 0.25176 0.00501 0.0
C753 C 0.23203 0.24198 0.03779 0.0
N754 N 0.24278 0.24571 0.97283 0.0
N755 N 0.2485 0.24091 0.02215 0.0
H756 H 0.75509 0.97197 0.94471 0.0
H757 H 0.75093 0.99548 0.05104 0.0
H758 H 0.8146 0.07675 0.97271 0.0
H759 H 0.73998 0.89836 0.0245 0.0
H760 H 0.74984 0.02129 0.02157 0.0
H761 H 0.72502 0.94156 0.97314 0.0
C762 C 0.76059 0.98875 0.9567 0.0
C763 C 0.78737 0.02674 0.95653 0.0
C764 C 0.74663 0.99387 0.02229 0.0
C765 C 0.75359 0.99246 0.98884 0.0
C766 C 0.74708 0.9791 0.03906 0.0
C767 C 0.74613 0.94507 0.04009 0.0
C768 C 0.74464 0.97412 0.00659 0.0
C769 C 0.74136 0.92499 0.02419 0.0
C770 C 0.74373 0.97142 0.9729 0.0
C771 C 0.79414 0.0473 0.97242 0.0
N772 N 0.74119 0.93998 0.00807 0.0
N773 N 0.77768 0.02983 0.98801 0.0
H774 H 0.00409 0.76153 0.95136 0.0
H775 H 0.9862 0.76164 0.05832 0.0
H776 H 0.90443 0.7403 0.97923 0.0
H777 H 0.08633 0.83526 0.02908 0.0
H778 H 0.95609 0.73146 0.02983 0.0
H779 H 0.0337 0.76591 0.9805 0.0
C780 C 0.98807 0.75652 0.96358 0.0
C781 C 0.95199 0.75093 0.963 0.0
C782 C 0.98498 0.75354 0.02978 0.0
C783 C 0.98535 0.75564 0.99609 0.0
C784 C 0.00218 0.77056 0.04598 0.0
C785 C 0.03858 0.80111 0.04592 0.0
C786 C 0.00469 0.76682 0.01358 0.0
C787 C 0.05805 0.81197 0.02959 0.0
C788 C 0.005 0.75924 0.98015 0.0
C789 C 0.93247 0.74501 0.97918 0.0
N790 N 0.04078 0.79502 0.01403 0.0
N791 N 0.94951 0.74783 0.99511 0.0
H792 H 0.88791 0.58441 0.28872 0.0
H793 H 0.89971 0.58038 0.39561 0.0
H794 H 0.92935 0.52405 0.31801 0.0
H795 H 0.81852 0.59449 0.36649 0.0
H796 H 0.93131 0.58421 0.36711 0.0
H797 H 0.88376 0.61252 0.31708 0.0
C798 C 0.89754 0.5783 0.30102 0.0
C799 C 0.9087 0.55178 0.30118 0.0
C800 C 0.90717 0.58752 0.36707 0.0
C801 C 0.90389 0.58336 0.33341 0.0
C802 C 0.88928 0.58552 0.3833 0.0
C803 C 0.85617 0.5865 0.38329 0.0
C804 C 0.89202 0.59101 0.35086 0.0
C805 C 0.84368 0.59301 0.36699 0.0
C806 C 0.8949 0.59405 0.31717 0.0
C807 C 0.92037 0.54425 0.31745 0.0
N808 N 0.86135 0.59458 0.35139 0.0
N809 N 0.91726 0.55962 0.33297 0.0
H810 H 0.48747 0.43594 0.31008 0.0
H811 H 0.38825 0.24391 0.35499 0.0
H812 H 0.4139 0.3364 0.28044 0.0
H813 H 0.42533 0.34434 0.38572 0.0
H814 H 0.38773 0.2766 0.32797 0.0
H815 H 0.45635 0.40468 0.33789 0.0
C816 C 0.4639 0.40781 0.30941 0.0
C817 C 0.45346 0.38851 0.29303 0.0
C818 C 0.39495 0.29136 0.34066 0.0
C819 C 0.41856 0.35209 0.32483 0.0
C820 C 0.39522 0.27266 0.35608 0.0
C821 C 0.40709 0.29164 0.37248 0.0
C822 C 0.40792 0.32967 0.34156 0.0
C823 C 0.41598 0.32883 0.37327 0.0
C824 C 0.44614 0.38992 0.3253 0.0
C825 C 0.4228 0.35218 0.29283 0.0
N826 N 0.41719 0.34698 0.35789 0.0
N827 N 0.40707 0.33473 0.30859 0.0
H828 H 0.76034 0.15863 0.35699 0.0
H829 H 0.57397 0.05235 0.30776 0.0
H830 H 0.65989 0.07901 0.38425 0.0
H831 H 0.67848 0.09909 0.27959 0.0
H832 H 0.60478 0.0506 0.33524 0.0
H833 H 0.73329 0.1277 0.32851 0.0
C834 C 0.73294 0.13387 0.357 0.0
C835 C 0.71207 0.12157 0.3729 0.0
C836 C 0.62089 0.06009 0.32297 0.0
C837 C 0.68036 0.08677 0.34029 0.0
C838 C 0.60322 0.06093 0.30726 0.0
C839 C 0.62385 0.07609 0.2915 0.0
C840 C 0.6597 0.07581 0.32303 0.0
C841 C 0.66167 0.08714 0.29151 0.0
C842 C 0.71745 0.11618 0.34074 0.0
C843 C 0.6768 0.08938 0.37224 0.0
N844 N 0.67867 0.0878 0.30719 0.0
N845 N 0.66158 0.07367 0.35611 0.0
H846 H 0.61108 0.8502 0.64253 0.0
H847 H 0.49501 0.92268 0.68699 0.0
H848 H 0.56748 0.90668 0.61167 0.0
H849 H 0.57877 0.91445 0.717 0.0
H850 H 0.52755 0.92557 0.65919 0.0
H851 H 0.6082 0.88201 0.66956 0.0
C852 C 0.60227 0.87048 0.64138 0.0
C853 C 0.58934 0.8758 0.62495 0.0
C854 C 0.53947 0.92416 0.67185 0.0
C855 C 0.58433 0.91096 0.65586 0.0
C856 C 0.5208 0.92237 0.68772 0.0
C857 C 0.53401 0.91781 0.70424 0.0
C858 C 0.57089 0.92014 0.67248 0.0
C859 C 0.56763 0.9178 0.70449 0.0
C860 C 0.60046 0.88854 0.65681 0.0
C861 C 0.57781 0.902 0.62412 0.0
N862 N 0.58442 0.91787 0.68878 0.0
N863 N 0.57449 0.91782 0.63949 0.0
H864 H 0.08097 0.64578 0.6162 0.0
H865 H 0.09169 0.66586 0.72285 0.0
H866 H 0.14916 0.7482 0.64497 0.0
H867 H 0.06195 0.56503 0.69376 0.0
H868 H 0.08937 0.69489 0.69457 0.0
H869 H 0.05076 0.61571 0.64465 0.0
C870 C 0.08845 0.66226 0.62839 0.0
C871 C 0.11773 0.69929 0.62839 0.0
C872 C 0.08224 0.66604 0.69451 0.0
C873 C 0.08386 0.66533 0.66076 0.0
C874 C 0.08333 0.64945 0.71063 0.0
C875 C 0.07753 0.61329 0.71048 0.0
C876 C 0.07494 0.64605 0.67831 0.0
C877 C 0.06711 0.59322 0.69431 0.0
C878 C 0.07148 0.6451 0.64461 0.0
C879 C 0.12685 0.71943 0.64453 0.0
N880 N 0.06662 0.61001 0.67882 0.0
N881 N 0.11035 0.70207 0.66013 0.0
H882 H 0.23116 0.38907 0.6458 0.0
H883 H 0.42309 0.47863 0.69 0.0
H884 H 0.32826 0.41122 0.61531 0.0
H885 H 0.32309 0.41286 0.72081 0.0
H886 H 0.38969 0.44626 0.66276 0.0
H887 H 0.26263 0.38872 0.67333 0.0
C888 C 0.25878 0.39277 0.64489 0.0
C889 C 0.27733 0.40051 0.62834 0.0
C890 C 0.37524 0.43794 0.67551 0.0
C891 C 0.31403 0.40143 0.65982 0.0
C892 C 0.39436 0.45637 0.69107 0.0
C893 C 0.37569 0.44842 0.70759 0.0
C894 C 0.33685 0.41235 0.67643 0.0
C895 C 0.33844 0.41963 0.7083 0.0
C896 C 0.27676 0.39257 0.66061 0.0
C897 C 0.31305 0.40515 0.62784 0.0
N898 N 0.31989 0.40332 0.69283 0.0
N899 N 0.33069 0.40658 0.64344 0.0
loop_
_geom_bond_atom_site_label_1
_geom_bond_atom_site_label_2
_geom_bond_distance
_geom_bond_site_symmetry_2
_ccdc_geom_bond_type
Mg0 O1 2.028 . S
Mg0 O7 1.986 . S
Mg0 O9 2.114 . S
Mg0 O10 2.251 . S
Mg0 O13 2.010 . S
O1 Mg0 2.028 . S
O1 C4 1.250 . S
O2 Mg3 2.028 . S
O2 C4 1.248 . S
Mg3 O2 2.028 . S
Mg3 O8 2.032 . S
Mg3 O10 2.079 . S
C4 O1 1.250 . S
C4 O2 1.248 . S
C5 O6 1.264 . S
C5 O13 1.249 . S
O6 C5 1.264 . S
O7 Mg0 1.986 . S
O7 C11 1.246 . S
O8 Mg3 2.032 . S
O8 C11 1.259 . S
O9 Mg0 2.114 . S
O9 C12 1.252 . S
O10 Mg0 2.251 . S
O10 Mg3 2.079 . S
O10 C12 1.273 . S
C11 O7 1.246 . S
C11 O8 1.259 . S
C12 O9 1.252 . S
C12 O10 1.273 . S
O13 Mg0 2.010 . S
O13 C5 1.249 . S
Mg14 O15 2.028 1_565 S
Mg14 O21 1.986 . S
Mg14 O23 2.114 . S
Mg14 O24 2.251 . S
Mg14 O27 2.010 . S
O15 Mg14 2.028 1_545 S
O15 C18 1.250 . S
O16 Mg17 2.028 1_545 S
O16 C18 1.248 . S
Mg17 O16 2.028 1_565 S
Mg17 O22 2.032 . S
Mg17 O24 2.079 . S
C18 O15 1.250 . S
C18 O16 1.248 . S
C19 O20 1.264 1_545 S
C19 O27 1.249 1_545 S
O20 C19 1.264 1_565 S
O21 Mg14 1.986 . S
O21 C25 1.246 . S
O22 Mg17 2.032 . S
O22 C25 1.259 . S
O23 Mg14 2.114 . S
O23 C26 1.252 . S
O24 Mg14 2.251 . S
O24 Mg17 2.079 . S
O24 C26 1.273 . S
C25 O21 1.246 . S
C25 O22 1.259 . S
C26 O23 1.252 . S
C26 O24 1.273 . S
O27 Mg14 2.010 . S
O27 C19 1.249 1_565 S
Mg28 O29 2.028 1_455 S
Mg28 O35 1.986 . S
Mg28 O37 2.114 . S
Mg28 O38 2.251 . S
Mg28 O41 2.010 . S
O29 Mg28 2.028 1_655 S
O29 C32 1.250 . S
O30 Mg31 2.028 1_655 S
O30 C32 1.248 . S
Mg31 O30 2.028 1_455 S
Mg31 O36 2.032 . S
Mg31 O38 2.079 . S
C32 O29 1.250 . S
C32 O30 1.248 . S
C33 O34 1.264 1_655 S
C33 O41 1.249 1_655 S
O34 C33 1.264 1_455 S
O35 Mg28 1.986 . S
O35 C39 1.246 . S
O36 Mg31 2.032 . S
O36 C39 1.259 . S
O37 Mg28 2.114 . S
O37 C40 1.252 . S
O38 Mg28 2.251 . S
O38 Mg31 2.079 . S
O38 C40 1.273 . S
C39 O35 1.246 . S
C39 O36 1.259 . S
C40 O37 1.252 . S
C40 O38 1.273 . S
O41 Mg28 2.010 . S
O41 C33 1.249 1_455 S
Mg42 O43 2.028 . S
Mg42 O49 1.986 . S
Mg42 O51 2.114 . S
Mg42 O52 2.251 . S
Mg42 O55 2.010 . S
O43 Mg42 2.028 . S
O43 C46 1.250 . S
O44 Mg45 2.028 . S
O44 C46 1.248 . S
Mg45 O44 2.028 . S
Mg45 O50 2.032 . S
Mg45 O52 2.079 . S
C46 O43 1.250 . S
C46 O44 1.248 . S
C47 O48 1.264 . S
C47 O55 1.249 . S
O48 C47 1.264 . S
O49 Mg42 1.986 . S
O49 C53 1.246 . S
O50 Mg45 2.032 . S
O50 C53 1.259 . S
O51 Mg42 2.114 . S
O51 C54 1.252 . S
O52 Mg42 2.251 . S
O52 Mg45 2.079 . S
O52 C54 1.273 . S
C53 O49 1.246 . S
C53 O50 1.259 . S
C54 O51 1.252 . S
C54 O52 1.273 . S
O55 Mg42 2.010 . S
O55 C47 1.249 . S
Mg56 O57 2.028 1_545 S
Mg56 O63 1.986 . S
Mg56 O65 2.114 . S
Mg56 O66 2.251 . S
Mg56 O69 2.010 . S
O57 Mg56 2.028 1_565 S
O57 C60 1.250 . S
O58 Mg59 2.028 1_565 S
O58 C60 1.248 . S
Mg59 O58 2.028 1_545 S
Mg59 O64 2.032 . S
Mg59 O66 2.079 . S
C60 O57 1.250 . S
C60 O58 1.248 . S
C61 O62 1.264 1_565 S
C61 O69 1.249 1_565 S
O62 C61 1.264 1_545 S
O63 Mg56 1.986 . S
O63 C67 1.246 . S
O64 Mg59 2.032 . S
O64 C67 1.259 . S
O65 Mg56 2.114 . S
O65 C68 1.252 . S
O66 Mg56 2.251 . S
O66 Mg59 2.079 . S
O66 C68 1.273 . S
C67 O63 1.246 . S
C67 O64 1.259 . S
C68 O65 1.252 . S
C68 O66 1.273 . S
O69 Mg56 2.010 . S
O69 C61 1.249 1_545 S
Mg70 O71 2.028 1_655 S
Mg70 O77 1.986 . S
Mg70 O79 2.114 . S
Mg70 O80 2.251 . S
Mg70 O83 2.010 . S
O71 Mg70 2.028 1_455 S
O71 C74 1.250 . S
O72 Mg73 2.028 1_455 S
O72 C74 1.248 . S
Mg73 O72 2.028 1_655 S
Mg73 O78 2.032 . S
Mg73 O80 2.079 . S
C74 O71 1.250 . S
C74 O72 1.248 . S
C75 O76 1.264 1_455 S
C75 O83 1.249 1_455 S
O76 C75 1.264 1_655 S
O77 Mg70 1.986 . S
O77 C81 1.246 . S
O78 Mg73 2.032 . S
O78 C81 1.259 . S
O79 Mg70 2.114 . S
O79 C82 1.252 . S
O80 Mg70 2.251 . S
O80 Mg73 2.079 . S
O80 C82 1.273 . S
C81 O77 1.246 . S
C81 O78 1.259 . S
C82 O79 1.252 . S
C82 O80 1.273 . S
O83 Mg70 2.010 . S
O83 C75 1.249 1_655 S
Mg84 O85 2.028 . S
Mg84 O91 1.986 . S
Mg84 O93 2.114 . S
Mg84 O94 2.251 . S
Mg84 O97 2.010 . S
O85 Mg84 2.028 . S
O85 C88 1.250 . S
O86 Mg87 2.028 . S
O86 C88 1.248 . S
Mg87 O86 2.028 . S
Mg87 O92 2.032 . S
Mg87 O94 2.079 . S
C88 O85 1.250 . S
C88 O86 1.248 . S
C89 O90 1.264 . S
C89 O97 1.249 . S
O90 C89 1.264 . S
O91 Mg84 1.986 . S
O91 C95 1.246 . S
O92 Mg87 2.032 . S
O92 C95 1.259 . S
O93 Mg84 2.114 . S
O93 C96 1.252 . S
O94 Mg84 2.251 . S
O94 Mg87 2.079 . S
O94 C96 1.273 . S
C95 O91 1.246 . S
C95 O92 1.259 . S
C96 O93 1.252 . S
C96 O94 1.273 . S
O97 Mg84 2.010 . S
O97 C89 1.249 . S
Mg98 O99 2.028 . S
Mg98 O105 1.986 . S
Mg98 O107 2.114 . S
Mg98 O108 2.251 . S
Mg98 O111 2.010 . S
O99 Mg98 2.028 . S
O99 C102 1.250 . S
O100 Mg101 2.028 . S
O100 C102 1.248 . S
Mg101 O100 2.028 . S
Mg101 O106 2.032 . S
Mg101 O108 2.079 . S
C102 O99 1.250 . S
C102 O100 1.248 . S
C103 O104 1.264 . S
C103 O111 1.249 . S
O104 C103 1.264 . S
O105 Mg98 1.986 . S
O105 C109 1.246 . S
O106 Mg101 2.032 . S
O106 C109 1.259 . S
O107 Mg98 2.114 . S
O107 C110 1.252 . S
O108 Mg98 2.251 . S
O108 Mg101 2.079 . S
O108 C110 1.273 . S
C109 O105 1.246 . S
C109 O106 1.259 . S
C110 O107 1.252 . S
C110 O108 1.273 . S
O111 Mg98 2.010 . S
O111 C103 1.249 . S
Mg112 O113 2.028 . S
Mg112 O119 1.986 . S
Mg112 O121 2.114 . S
Mg112 O122 2.251 . S
Mg112 O125 2.010 . S
O113 Mg112 2.028 . S
O113 C116 1.250 . S
O114 Mg115 2.028 . S
O114 C116 1.248 . S
Mg115 O114 2.028 . S
Mg115 O120 2.032 . S
Mg115 O122 2.079 . S
C116 O113 1.250 . S
C116 O114 1.248 . S
C117 O118 1.264 . S
C117 O125 1.249 . S
O118 C117 1.264 . S
O119 Mg112 1.986 . S
O119 C123 1.246 . S
O120 Mg115 2.032 . S
O120 C123 1.259 . S
O121 Mg112 2.114 . S
O121 C124 1.252 . S
O122 Mg112 2.251 . S
O122 Mg115 2.079 . S
O122 C124 1.273 . S
C123 O119 1.246 . S
C123 O120 1.259 . S
C124 O121 1.252 . S
C124 O122 1.273 . S
O125 Mg112 2.010 . S
O125 C117 1.249 . S
Mg126 O127 2.028 . S
Mg126 O133 1.986 . S
Mg126 O135 2.114 . S
Mg126 O136 2.251 . S
Mg126 O139 2.010 . S
O127 Mg126 2.028 . S
O127 C130 1.250 . S
O128 Mg129 2.028 . S
O128 C130 1.248 . S
Mg129 O128 2.028 . S
Mg129 O134 2.032 . S
Mg129 O136 2.079 . S
C130 O127 1.250 . S
C130 O128 1.248 . S
C131 O132 1.264 . S
C131 O139 1.249 . S
O132 C131 1.264 . S
O133 Mg126 1.986 . S
O133 C137 1.246 . S
O134 Mg129 2.032 . S
O134 C137 1.259 . S
O135 Mg126 2.114 . S
O135 C138 1.252 . S
O136 Mg126 2.251 . S
O136 Mg129 2.079 . S
O136 C138 1.273 . S
C137 O133 1.246 . S
C137 O134 1.259 . S
C138 O135 1.252 . S
C138 O136 1.273 . S
O139 Mg126 2.010 . S
O139 C131 1.249 . S
Mg140 O141 2.028 . S
Mg140 O147 1.986 . S
Mg140 O149 2.114 . S
Mg140 O150 2.251 . S
Mg140 O153 2.010 . S
O141 Mg140 2.028 . S
O141 C144 1.250 . S
O142 Mg143 2.028 . S
O142 C144 1.248 . S
Mg143 O142 2.028 . S
Mg143 O148 2.032 . S
Mg143 O150 2.079 . S
C144 O141 1.250 . S
C144 O142 1.248 . S
C145 O146 1.264 . S
C145 O153 1.249 . S
O146 C145 1.264 . S
O147 Mg140 1.986 . S
O147 C151 1.246 . S
O148 Mg143 2.032 . S
O148 C151 1.259 . S
O149 Mg140 2.114 . S
O149 C152 1.252 . S
O150 Mg140 2.251 . S
O150 Mg143 2.079 . S
O150 C152 1.273 . S
C151 O147 1.246 . S
C151 O148 1.259 . S
C152 O149 1.252 . S
C152 O150 1.273 . S
O153 Mg140 2.010 . S
O153 C145 1.249 . S
Mg154 O155 2.028 . S
Mg154 O161 1.986 . S
Mg154 O163 2.114 . S
Mg154 O164 2.251 . S
Mg154 O167 2.010 . S
O155 Mg154 2.028 . S
O155 C158 1.250 . S
O156 Mg157 2.028 . S
O156 C158 1.248 . S
Mg157 O156 2.028 . S
Mg157 O162 2.032 . S
Mg157 O164 2.079 . S
C158 O155 1.250 . S
C158 O156 1.248 . S
C159 O160 1.264 . S
C159 O167 1.249 . S
O160 C159 1.264 . S
O161 Mg154 1.986 . S
O161 C165 1.246 . S
O162 Mg157 2.032 . S
O162 C165 1.259 . S
O163 Mg154 2.114 . S
O163 C166 1.252 . S
O164 Mg154 2.251 . S
O164 Mg157 2.079 . S
O164 C166 1.273 . S
C165 O161 1.246 . S
C165 O162 1.259 . S
C166 O163 1.252 . S
C166 O164 1.273 . S
O167 Mg154 2.010 . S
O167 C159 1.249 . S
Mg168 O169 2.028 . S
Mg168 O175 1.986 . S
Mg168 O177 2.114 . S
Mg168 O178 2.251 . S
Mg168 O181 2.010 . S
O169 Mg168 2.028 . S
O169 C172 1.250 . S
O170 Mg171 2.028 . S
O170 C172 1.248 . S
Mg171 O170 2.028 . S
Mg171 O176 2.032 . S
Mg171 O178 2.079 . S
C172 O169 1.250 . S
C172 O170 1.248 . S
C173 O174 1.264 . S
C173 O181 1.249 . S
O174 C173 1.264 . S
O175 Mg168 1.986 . S
O175 C179 1.246 . S
O176 Mg171 2.032 . S
O176 C179 1.259 . S
O177 Mg168 2.114 . S
O177 C180 1.252 . S
O178 Mg168 2.251 . S
O178 Mg171 2.079 . S
O178 C180 1.273 . S
C179 O175 1.246 . S
C179 O176 1.259 . S
C180 O177 1.252 . S
C180 O178 1.273 . S
O181 Mg168 2.010 . S
O181 C173 1.249 . S
Mg182 O183 2.028 . S
Mg182 O189 1.986 . S
Mg182 O191 2.114 . S
Mg182 O192 2.251 . S
Mg182 O195 2.010 . S
O183 Mg182 2.028 . S
O183 C186 1.250 . S
O184 Mg185 2.028 . S
O184 C186 1.248 . S
Mg185 O184 2.028 . S
Mg185 O190 2.032 . S
Mg185 O192 2.079 . S
C186 O183 1.250 . S
C186 O184 1.248 . S
C187 O188 1.264 . S
C187 O195 1.249 . S
O188 C187 1.264 . S
O189 Mg182 1.986 . S
O189 C193 1.246 . S
O190 Mg185 2.032 . S
O190 C193 1.259 . S
O191 Mg182 2.114 . S
O191 C194 1.252 . S
O192 Mg182 2.251 . S
O192 Mg185 2.079 . S
O192 C194 1.273 . S
C193 O189 1.246 . S
C193 O190 1.259 . S
C194 O191 1.252 . S
C194 O192 1.273 . S
O195 Mg182 2.010 . S
O195 C187 1.249 . S
Mg196 O197 2.028 . S
Mg196 O203 1.986 . S
Mg196 O205 2.114 . S
Mg196 O206 2.251 . S
Mg196 O209 2.010 . S
O197 Mg196 2.028 . S
O197 C200 1.250 . S
O198 Mg199 2.028 . S
O198 C200 1.248 . S
Mg199 O198 2.028 . S
Mg199 O204 2.032 . S
Mg199 O206 2.079 . S
C200 O197 1.250 . S
C200 O198 1.248 . S
C201 O202 1.264 . S
C201 O209 1.249 . S
O202 C201 1.264 . S
O203 Mg196 1.986 . S
O203 C207 1.246 . S
O204 Mg199 2.032 . S
O204 C207 1.259 . S
O205 Mg196 2.114 . S
O205 C208 1.252 . S
O206 Mg196 2.251 . S
O206 Mg199 2.079 . S
O206 C208 1.273 . S
C207 O203 1.246 . S
C207 O204 1.259 . S
C208 O205 1.252 . S
C208 O206 1.273 . S
O209 Mg196 2.010 . S
O209 C201 1.249 . S
Mg210 O211 2.028 . S
Mg210 O217 1.986 . S
Mg210 O219 2.114 . S
Mg210 O220 2.251 . S
Mg210 O223 2.010 . S
O211 Mg210 2.028 . S
O211 C214 1.250 . S
O212 Mg213 2.028 . S
O212 C214 1.248 . S
Mg213 O212 2.028 . S
Mg213 O218 2.032 . S
Mg213 O220 2.079 . S
C214 O211 1.250 . S
C214 O212 1.248 . S
C215 O216 1.264 . S
C215 O223 1.249 . S
O216 C215 1.264 . S
O217 Mg210 1.986 . S
O217 C221 1.246 . S
O218 Mg213 2.032 . S
O218 C221 1.259 . S
O219 Mg210 2.114 . S
O219 C222 1.252 . S
O220 Mg210 2.251 . S
O220 Mg213 2.079 . S
O220 C222 1.273 . S
C221 O217 1.246 . S
C221 O218 1.259 . S
C222 O219 1.252 . S
C222 O220 1.273 . S
O223 Mg210 2.010 . S
O223 C215 1.249 . S
Mg224 O225 2.028 . S
Mg224 O231 1.986 . S
Mg224 O233 2.114 . S
Mg224 O234 2.251 . S
Mg224 O237 2.010 . S
O225 Mg224 2.028 . S
O225 C228 1.250 . S
O226 Mg227 2.028 . S
O226 C228 1.248 . S
Mg227 O226 2.028 . S
Mg227 O232 2.032 . S
Mg227 O234 2.079 . S
C228 O225 1.250 . S
C228 O226 1.248 . S
C229 O230 1.264 . S
C229 O237 1.249 . S
O230 C229 1.264 . S
O231 Mg224 1.986 . S
O231 C235 1.246 . S
O232 Mg227 2.032 . S
O232 C235 1.259 . S
O233 Mg224 2.114 . S
O233 C236 1.252 . S
O234 Mg224 2.251 . S
O234 Mg227 2.079 . S
O234 C236 1.273 . S
C235 O231 1.246 . S
C235 O232 1.259 . S
C236 O233 1.252 . S
C236 O234 1.273 . S
O237 Mg224 2.010 . S
O237 C229 1.249 . S
Mg238 O239 2.028 . S
Mg238 O245 1.986 . S
Mg238 O247 2.114 . S
Mg238 O248 2.251 . S
Mg238 O251 2.010 . S
O239 Mg238 2.028 . S
O239 C242 1.250 . S
O240 Mg241 2.028 . S
O240 C242 1.248 . S
Mg241 O240 2.028 . S
Mg241 O246 2.032 . S
Mg241 O248 2.079 . S
C242 O239 1.250 . S
C242 O240 1.248 . S
C243 O244 1.264 . S
C243 O251 1.249 . S
O244 C243 1.264 . S
O245 Mg238 1.986 . S
O245 C249 1.246 . S
O246 Mg241 2.032 . S
O246 C249 1.259 . S
O247 Mg238 2.114 . S
O247 C250 1.252 . S
O248 Mg238 2.251 . S
O248 Mg241 2.079 . S
O248 C250 1.273 . S
C249 O245 1.246 . S
C249 O246 1.259 . S
C250 O247 1.252 . S
C250 O248 1.273 . S
O251 Mg238 2.010 . S
O251 C243 1.249 . S
H252 C258 0.930 . S
H253 C262 0.930 . S
H254 C267 0.929 . S
H255 C265 0.929 . S
H256 C260 0.929 . S
H257 C266 0.929 . S
C258 H252 0.930 . S
C258 C259 1.367 . S
C258 C266 1.378 . S
C259 C258 1.367 . S
C259 C267 1.433 . S
C260 H256 0.929 . S
C260 C262 1.378 . S
C260 C264 1.350 . S
C261 C264 1.463 . S
C261 C266 1.350 . S
C261 N269 1.427 . S
C262 H253 0.930 . S
C262 C260 1.378 . S
C262 C263 1.367 . S
C263 C262 1.367 . S
C263 C265 1.433 . S
C264 C260 1.350 . S
C264 C261 1.463 . S
C264 N268 1.427 . S
C265 H255 0.929 . S
C265 C263 1.433 . S
C265 N268 1.384 . S
C266 H257 0.929 . S
C266 C258 1.378 . S
C266 C261 1.350 . S
C267 H254 0.929 . S
C267 C259 1.433 . S
C267 N269 1.384 . S
N268 C264 1.427 . S
N268 C265 1.384 . S
N269 C261 1.427 . S
N269 C267 1.384 . S
H270 C276 0.930 . S
H271 C280 0.930 . S
H272 C285 0.929 . S
H273 C283 0.929 . S
H274 C278 0.929 . S
H275 C284 0.929 . S
C276 H270 0.930 . S
C276 C277 1.367 . S
C276 C284 1.378 . S
C277 C276 1.367 . S
C277 C285 1.433 . S
C278 H274 0.929 . S
C278 C280 1.378 . S
C278 C282 1.350 . S
C279 C282 1.463 . S
C279 C284 1.350 . S
C279 N287 1.427 . S
C280 H271 0.930 . S
C280 C278 1.378 . S
C280 C281 1.367 . S
C281 C280 1.367 . S
C281 C283 1.433 . S
C282 C278 1.350 . S
C282 C279 1.463 . S
C282 N286 1.427 . S
C283 H273 0.929 . S
C283 C281 1.433 . S
C283 N286 1.384 . S
C284 H275 0.929 . S
C284 C276 1.378 . S
C284 C279 1.350 . S
C285 H272 0.929 . S
C285 C277 1.433 . S
C285 N287 1.384 . S
N286 C282 1.427 . S
N286 C283 1.384 . S
N287 C279 1.427 . S
N287 C285 1.384 . S
H288 C294 0.930 . S
H289 C298 0.930 1_455 S
H290 C303 0.929 . S
H291 C301 0.929 . S
H292 C296 0.929 . S
H293 C302 0.929 . S
C294 H288 0.930 . S
C294 C295 1.367 . S
C294 C302 1.378 . S
C295 C294 1.367 . S
C295 C303 1.433 . S
C296 H292 0.929 . S
C296 C298 1.378 . S
C296 C300 1.350 . S
C297 C300 1.463 . S
C297 C302 1.350 . S
C297 N305 1.427 . S
C298 H289 0.930 1_655 S
C298 C296 1.378 . S
C298 C299 1.367 . S
C299 C298 1.367 . S
C299 C301 1.433 . S
C300 C296 1.350 . S
C300 C297 1.463 . S
C300 N304 1.427 . S
C301 H291 0.929 . S
C301 C299 1.433 . S
C301 N304 1.384 . S
C302 H293 0.929 . S
C302 C294 1.378 . S
C302 C297 1.350 . S
C303 H290 0.929 . S
C303 C295 1.433 . S
C303 N305 1.384 . S
N304 C300 1.427 . S
N304 C301 1.384 . S
N305 C297 1.427 . S
N305 C303 1.384 . S
H306 C312 0.930 . S
H307 C316 0.930 . S
H308 C321 0.929 . S
H309 C319 0.929 . S
H310 C314 0.929 . S
H311 C320 0.929 . S
C312 H306 0.930 . S
C312 C313 1.367 . S
C312 C320 1.378 . S
C313 C312 1.367 . S
C313 C321 1.433 . S
C314 H310 0.929 . S
C314 C316 1.378 . S
C314 C318 1.350 . S
C315 C318 1.463 . S
C315 C320 1.350 . S
C315 N323 1.427 . S
C316 H307 0.930 . S
C316 C314 1.378 . S
C316 C317 1.367 . S
C317 C316 1.367 . S
C317 C319 1.433 . S
C318 C314 1.350 . S
C318 C315 1.463 . S
C318 N322 1.427 . S
C319 H309 0.929 . S
C319 C317 1.433 . S
C319 N322 1.384 . S
C320 H311 0.929 . S
C320 C312 1.378 . S
C320 C315 1.350 . S
C321 H308 0.929 . S
C321 C313 1.433 . S
C321 N323 1.384 . S
N322 C318 1.427 . S
N322 C319 1.384 . S
N323 C315 1.427 . S
N323 C321 1.384 . S
H324 C330 0.927 1_545 S
H325 C334 0.930 . S
H326 C339 0.929 . S
H327 C337 0.929 . S
H328 C332 0.929 . S
H329 C338 0.929 1_545 S
C330 H324 0.927 1_565 S
C330 C331 1.371 . S
C330 C338 1.378 . S
C331 C330 1.371 . S
C331 C339 1.433 . S
C332 H328 0.929 . S
C332 C334 1.378 . S
C332 C336 1.350 . S
C333 C336 1.463 . S
C333 C338 1.350 . S
C333 N341 1.427 . S
C334 H325 0.930 . S
C334 C332 1.378 . S
C334 C335 1.367 . S
C335 C334 1.367 . S
C335 C337 1.433 . S
C336 C332 1.350 . S
C336 C333 1.463 . S
C336 N340 1.427 . S
C337 H327 0.929 . S
C337 C335 1.433 . S
C337 N340 1.384 . S
C338 H329 0.929 1_565 S
C338 C330 1.378 . S
C338 C333 1.350 . S
C339 H326 0.929 . S
C339 C331 1.433 . S
C339 N341 1.384 . S
N340 C336 1.427 . S
N340 C337 1.384 . S
N341 C333 1.427 . S
N341 C339 1.384 . S
H342 C348 0.930 . S
H343 C352 0.930 . S
H344 C357 0.929 . S
H345 C355 0.929 . S
H346 C350 0.929 . S
H347 C356 0.929 . S
C348 H342 0.930 . S
C348 C349 1.367 . S
C348 C356 1.378 . S
C349 C348 1.367 . S
C349 C357 1.433 . S
C350 H346 0.929 . S
C350 C352 1.378 . S
C350 C354 1.350 . S
C351 C354 1.463 . S
C351 C356 1.350 . S
C351 N359 1.427 . S
C352 H343 0.930 . S
C352 C350 1.378 . S
C352 C353 1.367 . S
C353 C352 1.367 . S
C353 C355 1.433 . S
C354 C350 1.350 . S
C354 C351 1.463 . S
C354 N358 1.427 . S
C355 H345 0.929 . S
C355 C353 1.433 . S
C355 N358 1.384 . S
C356 H347 0.929 . S
C356 C348 1.378 . S
C356 C351 1.350 . S
C357 H344 0.929 . S
C357 C349 1.433 . S
C357 N359 1.384 . S
N358 C354 1.427 . S
N358 C355 1.384 . S
N359 C351 1.427 . S
N359 C357 1.384 . S
H360 C366 0.930 . S
H361 C370 0.930 . S
H362 C375 0.929 . S
H363 C373 0.929 . S
H364 C368 0.929 . S
H365 C374 0.929 . S
C366 H360 0.930 . S
C366 C367 1.367 . S
C366 C374 1.378 . S
C367 C366 1.367 . S
C367 C375 1.433 . S
C368 H364 0.929 . S
C368 C370 1.378 . S
C368 C372 1.350 . S
C369 C372 1.463 1_655 S
C369 C374 1.350 . S
C369 N377 1.427 . S
C370 H361 0.930 . S
C370 C368 1.378 . S
C370 C371 1.367 . S
C371 C370 1.367 . S
C371 C373 1.433 . S
C372 C368 1.350 . S
C372 C369 1.463 1_455 S
C372 N376 1.427 . S
C373 H363 0.929 . S
C373 C371 1.433 . S
C373 N376 1.384 . S
C374 H365 0.929 . S
C374 C366 1.378 . S
C374 C369 1.350 . S
C375 H362 0.929 . S
C375 C367 1.433 . S
C375 N377 1.384 . S
N376 C372 1.427 . S
N376 C373 1.384 . S
N377 C369 1.427 . S
N377 C375 1.384 . S
H378 C384 0.930 . S
H379 C388 0.930 . S
H380 C393 0.929 . S
H381 C391 0.929 . S
H382 C386 0.929 . S
H383 C392 0.929 . S
C384 H378 0.930 . S
C384 C385 1.367 . S
C384 C392 1.378 . S
C385 C384 1.367 . S
C385 C393 1.433 . S
C386 H382 0.929 . S
C386 C388 1.378 . S
C386 C390 1.350 . S
C387 C390 1.463 . S
C387 C392 1.350 . S
C387 N395 1.427 . S
C388 H379 0.930 . S
C388 C386 1.378 . S
C388 C389 1.367 . S
C389 C388 1.367 . S
C389 C391 1.433 . S
C390 C386 1.350 . S
C390 C387 1.463 . S
C390 N394 1.427 . S
C391 H381 0.929 . S
C391 C389 1.433 . S
C391 N394 1.384 . S
C392 H383 0.929 . S
C392 C384 1.378 . S
C392 C387 1.350 . S
C393 H380 0.929 . S
C393 C385 1.433 . S
C393 N395 1.384 . S
N394 C390 1.427 . S
N394 C391 1.384 . S
N395 C387 1.427 . S
N395 C393 1.384 . S
H396 C402 0.930 . S
H397 C406 0.930 . S
H398 C411 0.929 . S
H399 C409 0.929 . S
H400 C404 0.929 1_545 S
H401 C410 0.929 1_565 S
C402 H396 0.930 . S
C402 C403 1.367 . S
C402 C410 1.378 . S
C403 C402 1.367 . S
C403 C411 1.433 . S
C404 H400 0.929 1_565 S
C404 C406 1.378 . S
C404 C408 1.350 . S
C405 C408 1.463 1_545 S
C405 C410 1.350 . S
C405 N413 1.427 . S
C406 H397 0.930 . S
C406 C404 1.378 . S
C406 C407 1.367 . S
C407 C406 1.367 . S
C407 C409 1.433 . S
C408 C404 1.350 . S
C408 C405 1.463 1_565 S
C408 N412 1.427 . S
C409 H399 0.929 . S
C409 C407 1.433 . S
C409 N412 1.384 . S
C410 H401 0.929 1_545 S
C410 C402 1.378 . S
C410 C405 1.350 . S
C411 H398 0.929 . S
C411 C403 1.433 . S
C411 N413 1.384 . S
N412 C408 1.427 . S
N412 C409 1.384 . S
N413 C405 1.427 . S
N413 C411 1.384 . S
H414 C420 0.930 . S
H415 C424 0.930 . S
H416 C429 0.929 . S
H417 C427 0.929 . S
H418 C422 0.929 . S
H419 C428 0.929 . S
C420 H414 0.930 . S
C420 C421 1.367 . S
C420 C428 1.378 . S
C421 C420 1.367 . S
C421 C429 1.433 . S
C422 H418 0.929 . S
C422 C424 1.378 . S
C422 C426 1.350 . S
C423 C426 1.463 1_455 S
C423 C428 1.350 . S
C423 N431 1.427 . S
C424 H415 0.930 . S
C424 C422 1.378 . S
C424 C425 1.367 . S
C425 C424 1.367 . S
C425 C427 1.433 . S
C426 C422 1.350 . S
C426 C423 1.463 1_655 S
C426 N430 1.427 . S
C427 H417 0.929 . S
C427 C425 1.433 . S
C427 N430 1.384 . S
C428 H419 0.929 . S
C428 C420 1.378 . S
C428 C423 1.350 . S
C429 H416 0.929 . S
C429 C421 1.433 . S
C429 N431 1.384 . S
N430 C426 1.427 . S
N430 C427 1.384 . S
N431 C423 1.427 . S
N431 C429 1.384 . S
H432 C438 0.930 . S
H433 C442 0.930 . S
H434 C447 0.929 . S
H435 C445 0.929 . S
H436 C440 0.929 . S
H437 C446 0.929 . S
C438 H432 0.930 . S
C438 C439 1.367 . S
C438 C446 1.378 . S
C439 C438 1.367 . S
C439 C447 1.433 . S
C440 H436 0.929 . S
C440 C442 1.378 . S
C440 C444 1.350 . S
C441 C444 1.463 . S
C441 C446 1.350 . S
C441 N449 1.427 . S
C442 H433 0.930 . S
C442 C440 1.378 . S
C442 C443 1.367 . S
C443 C442 1.367 . S
C443 C445 1.433 . S
C444 C440 1.350 . S
C444 C441 1.463 . S
C444 N448 1.427 . S
C445 H435 0.929 . S
C445 C443 1.433 . S
C445 N448 1.384 . S
C446 H437 0.929 . S
C446 C438 1.378 . S
C446 C441 1.350 . S
C447 H434 0.929 . S
C447 C439 1.433 . S
C447 N449 1.384 . S
N448 C444 1.427 . S
N448 C445 1.384 . S
N449 C441 1.427 . S
N449 C447 1.384 . S
H450 C456 0.930 . S
H451 C460 0.930 . S
H452 C465 0.929 . S
H453 C463 0.929 . S
H454 C458 0.929 . S
H455 C464 0.929 . S
C456 H450 0.930 . S
C456 C457 1.367 . S
C456 C464 1.378 . S
C457 C456 1.367 . S
C457 C465 1.433 . S
C458 H454 0.929 . S
C458 C460 1.378 . S
C458 C462 1.350 . S
C459 C462 1.463 1_545 S
C459 C464 1.350 . S
C459 N467 1.427 . S
C460 H451 0.930 . S
C460 C458 1.378 . S
C460 C461 1.367 . S
C461 C460 1.367 . S
C461 C463 1.433 . S
C462 C458 1.350 . S
C462 C459 1.463 1_565 S
C462 N466 1.427 . S
C463 H453 0.929 . S
C463 C461 1.433 . S
C463 N466 1.384 . S
C464 H455 0.929 . S
C464 C456 1.378 . S
C464 C459 1.350 . S
C465 H452 0.929 . S
C465 C457 1.433 . S
C465 N467 1.384 . S
N466 C462 1.427 . S
N466 C463 1.384 . S
N467 C459 1.427 . S
N467 C465 1.384 . S
H468 C474 0.930 . S
H469 C478 0.930 . S
H470 C483 0.929 . S
H471 C481 0.929 . S
H472 C476 0.929 . S
H473 C482 0.929 . S
C474 H468 0.930 . S
C474 C475 1.367 . S
C474 C482 1.378 . S
C475 C474 1.367 . S
C475 C483 1.433 . S
C476 H472 0.929 . S
C476 C478 1.378 . S
C476 C480 1.350 . S
C477 C480 1.463 1_565 S
C477 C482 1.350 . S
C477 N485 1.427 . S
C478 H469 0.930 . S
C478 C476 1.378 . S
C478 C479 1.367 . S
C479 C478 1.367 . S
C479 C481 1.433 . S
C480 C476 1.350 . S
C480 C477 1.463 1_545 S
C480 N484 1.427 . S
C481 H471 0.929 . S
C481 C479 1.433 . S
C481 N484 1.384 . S
C482 H473 0.929 . S
C482 C474 1.378 . S
C482 C477 1.350 . S
C483 H470 0.929 . S
C483 C475 1.433 . S
C483 N485 1.384 . S
N484 C480 1.427 . S
N484 C481 1.384 . S
N485 C477 1.427 . S
N485 C483 1.384 . S
H486 C492 0.930 . S
H487 C496 0.930 . S
H488 C501 0.929 . S
H489 C499 0.929 . S
H490 C494 0.929 . S
H491 C500 0.929 . S
C492 H486 0.930 . S
C492 C493 1.367 . S
C492 C500 1.378 . S
C493 C492 1.367 . S
C493 C501 1.433 . S
C494 H490 0.929 . S
C494 C496 1.378 . S
C494 C498 1.350 . S
C495 C498 1.463 1_455 S
C495 C500 1.350 . S
C495 N503 1.427 . S
C496 H487 0.930 . S
C496 C494 1.378 . S
C496 C497 1.367 . S
C497 C496 1.367 . S
C497 C499 1.433 . S
C498 C494 1.350 . S
C498 C495 1.463 1_655 S
C498 N502 1.427 . S
C499 H489 0.929 . S
C499 C497 1.433 . S
C499 N502 1.384 . S
C500 H491 0.929 . S
C500 C492 1.378 . S
C500 C495 1.350 . S
C501 H488 0.929 . S
C501 C493 1.433 . S
C501 N503 1.384 . S
N502 C498 1.427 . S
N502 C499 1.384 . S
N503 C495 1.427 . S
N503 C501 1.384 . S
H504 C510 0.930 . S
H505 C514 0.930 . S
H506 C519 0.929 . S
H507 C517 0.929 . S
H508 C512 0.929 . S
H509 C518 0.929 . S
C510 H504 0.930 . S
C510 C511 1.367 . S
C510 C518 1.378 . S
C511 C510 1.367 . S
C511 C519 1.433 . S
C512 H508 0.929 . S
C512 C514 1.378 . S
C512 C516 1.350 . S
C513 C516 1.463 . S
C513 C518 1.350 . S
C513 N521 1.427 . S
C514 H505 0.930 . S
C514 C512 1.378 . S
C514 C515 1.367 . S
C515 C514 1.367 . S
C515 C517 1.433 . S
C516 C512 1.350 . S
C516 C513 1.463 . S
C516 N520 1.427 . S
C517 H507 0.929 . S
C517 C515 1.433 . S
C517 N520 1.384 . S
C518 H509 0.929 . S
C518 C510 1.378 . S
C518 C513 1.350 . S
C519 H506 0.929 . S
C519 C511 1.433 . S
C519 N521 1.384 . S
N520 C516 1.427 . S
N520 C517 1.384 . S
N521 C513 1.427 . S
N521 C519 1.384 . S
H522 C528 0.930 . S
H523 C532 0.930 . S
H524 C537 0.929 . S
H525 C535 0.929 . S
H526 C530 0.929 . S
H527 C536 0.929 . S
C528 H522 0.930 . S
C528 C529 1.367 . S
C528 C536 1.378 . S
C529 C528 1.367 . S
C529 C537 1.433 . S
C530 H526 0.929 . S
C530 C532 1.378 . S
C530 C534 1.350 . S
C531 C534 1.463 . S
C531 C536 1.350 . S
C531 N539 1.427 . S
C532 H523 0.930 . S
C532 C530 1.378 . S
C532 C533 1.367 . S
C533 C532 1.367 . S
C533 C535 1.433 . S
C534 C530 1.350 . S
C534 C531 1.463 . S
C534 N538 1.427 . S
C535 H525 0.929 . S
C535 C533 1.433 . S
C535 N538 1.384 . S
C536 H527 0.929 . S
C536 C528 1.378 . S
C536 C531 1.350 . S
C537 H524 0.929 . S
C537 C529 1.433 . S
C537 N539 1.384 . S
N538 C534 1.427 . S
N538 C535 1.384 . S
N539 C531 1.427 . S
N539 C537 1.384 . S
H540 C546 0.930 . S
H541 C550 0.930 . S
H542 C555 0.929 . S
H543 C553 0.929 . S
H544 C548 0.929 . S
H545 C554 0.929 . S
C546 H540 0.930 . S
C546 C547 1.367 . S
C546 C554 1.378 . S
C547 C546 1.367 . S
C547 C555 1.433 . S
C548 H544 0.929 . S
C548 C550 1.378 . S
C548 C552 1.350 . S
C549 C552 1.463 . S
C549 C554 1.350 . S
C549 N557 1.427 . S
C550 H541 0.930 . S
C550 C548 1.378 . S
C550 C551 1.367 . S
C551 C550 1.367 . S
C551 C553 1.433 . S
C552 C548 1.350 . S
C552 C549 1.463 . S
C552 N556 1.427 . S
C553 H543 0.929 . S
C553 C551 1.433 . S
C553 N556 1.384 . S
C554 H545 0.929 . S
C554 C546 1.378 . S
C554 C549 1.350 . S
C555 H542 0.929 . S
C555 C547 1.433 . S
C555 N557 1.384 . S
N556 C552 1.427 . S
N556 C553 1.384 . S
N557 C549 1.427 . S
N557 C555 1.384 . S
H558 C564 0.930 . S
H559 C568 0.930 . S
H560 C573 0.929 . S
H561 C571 0.929 . S
H562 C566 0.929 . S
H563 C572 0.929 . S
C564 H558 0.930 . S
C564 C565 1.367 . S
C564 C572 1.378 . S
C565 C564 1.367 . S
C565 C573 1.433 . S
C566 H562 0.929 . S
C566 C568 1.378 . S
C566 C570 1.350 . S
C567 C570 1.463 . S
C567 C572 1.350 . S
C567 N575 1.427 . S
C568 H559 0.930 . S
C568 C566 1.378 . S
C568 C569 1.367 . S
C569 C568 1.367 . S
C569 C571 1.433 . S
C570 C566 1.350 . S
C570 C567 1.463 . S
C570 N574 1.427 . S
C571 H561 0.929 . S
C571 C569 1.433 . S
C571 N574 1.384 . S
C572 H563 0.929 . S
C572 C564 1.378 . S
C572 C567 1.350 . S
C573 H560 0.929 . S
C573 C565 1.433 . S
C573 N575 1.384 . S
N574 C570 1.427 . S
N574 C571 1.384 . S
N575 C567 1.427 . S
N575 C573 1.384 . S
H576 C582 0.930 . S
H577 C586 0.930 . S
H578 C591 0.929 . S
H579 C589 0.929 . S
H580 C584 0.929 . S
H581 C590 0.929 . S
C582 H576 0.930 . S
C582 C583 1.367 . S
C582 C590 1.378 . S
C583 C582 1.367 . S
C583 C591 1.433 . S
C584 H580 0.929 . S
C584 C586 1.378 . S
C584 C588 1.350 . S
C585 C588 1.463 . S
C585 C590 1.350 . S
C585 N593 1.427 . S
C586 H577 0.930 . S
C586 C584 1.378 . S
C586 C587 1.367 . S
C587 C586 1.367 . S
C587 C589 1.433 . S
C588 C584 1.350 . S
C588 C585 1.463 . S
C588 N592 1.427 . S
C589 H579 0.929 . S
C589 C587 1.433 . S
C589 N592 1.384 . S
C590 H581 0.929 . S
C590 C582 1.378 . S
C590 C585 1.350 . S
C591 H578 0.929 . S
C591 C583 1.433 . S
C591 N593 1.384 . S
N592 C588 1.427 . S
N592 C589 1.384 . S
N593 C585 1.427 . S
N593 C591 1.384 . S
H594 C600 0.930 . S
H595 C604 0.930 . S
H596 C609 0.929 . S
H597 C607 0.929 . S
H598 C602 0.929 . S
H599 C608 0.929 . S
C600 H594 0.930 . S
C600 C601 1.367 . S
C600 C608 1.378 . S
C601 C600 1.367 . S
C601 C609 1.433 . S
C602 H598 0.929 . S
C602 C604 1.378 . S
C602 C606 1.350 . S
C603 C606 1.463 . S
C603 C608 1.350 . S
C603 N611 1.427 . S
C604 H595 0.930 . S
C604 C602 1.378 . S
C604 C605 1.367 . S
C605 C604 1.367 . S
C605 C607 1.433 . S
C606 C602 1.350 . S
C606 C603 1.463 . S
C606 N610 1.427 . S
C607 H597 0.929 . S
C607 C605 1.433 . S
C607 N610 1.384 . S
C608 H599 0.929 . S
C608 C600 1.378 . S
C608 C603 1.350 . S
C609 H596 0.929 . S
C609 C601 1.433 . S
C609 N611 1.384 . S
N610 C606 1.427 . S
N610 C607 1.384 . S
N611 C603 1.427 . S
N611 C609 1.384 . S
H612 C618 0.930 . S
H613 C622 0.930 . S
H614 C627 0.929 . S
H615 C625 0.929 . S
H616 C620 0.929 . S
H617 C626 0.929 . S
C618 H612 0.930 . S
C618 C619 1.367 . S
C618 C626 1.378 . S
C619 C618 1.367 . S
C619 C627 1.433 . S
C620 H616 0.929 . S
C620 C622 1.378 . S
C620 C624 1.350 . S
C621 C624 1.463 . S
C621 C626 1.350 . S
C621 N629 1.427 . S
C622 H613 0.930 . S
C622 C620 1.378 . S
C622 C623 1.367 . S
C623 C622 1.367 . S
C623 C625 1.433 . S
C624 C620 1.350 . S
C624 C621 1.463 . S
C624 N628 1.427 . S
C625 H615 0.929 . S
C625 C623 1.433 . S
C625 N628 1.384 . S
C626 H617 0.929 . S
C626 C618 1.378 . S
C626 C621 1.350 . S
C627 H614 0.929 . S
C627 C619 1.433 . S
C627 N629 1.384 . S
N628 C624 1.427 . S
N628 C625 1.384 . S
N629 C621 1.427 . S
N629 C627 1.384 . S
H630 C636 0.930 . S
H631 C640 0.930 . S
H632 C645 0.929 . S
H633 C643 0.929 . S
H634 C638 0.929 . S
H635 C644 0.929 . S
C636 H630 0.930 . S
C636 C637 1.367 . S
C636 C644 1.378 . S
C637 C636 1.367 . S
C637 C645 1.433 . S
C638 H634 0.929 . S
C638 C640 1.378 . S
C638 C642 1.350 . S
C639 C642 1.463 . S
C639 C644 1.350 . S
C639 N647 1.427 . S
C640 H631 0.930 . S
C640 C638 1.378 . S
C640 C641 1.367 . S
C641 C640 1.367 . S
C641 C643 1.433 . S
C642 C638 1.350 . S
C642 C639 1.463 . S
C642 N646 1.427 . S
C643 H633 0.929 . S
C643 C641 1.433 . S
C643 N646 1.384 . S
C644 H635 0.929 . S
C644 C636 1.378 . S
C644 C639 1.350 . S
C645 H632 0.929 . S
C645 C637 1.433 . S
C645 N647 1.384 . S
N646 C642 1.427 . S
N646 C643 1.384 . S
N647 C639 1.427 . S
N647 C645 1.384 . S
H648 C654 0.930 . S
H649 C658 0.930 . S
H650 C663 0.929 . S
H651 C661 0.929 . S
H652 C656 0.929 . S
H653 C662 0.929 . S
C654 H648 0.930 . S
C654 C655 1.367 . S
C654 C662 1.378 . S
C655 C654 1.367 . S
C655 C663 1.433 . S
C656 H652 0.929 . S
C656 C658 1.378 . S
C656 C660 1.350 . S
C657 C660 1.463 . S
C657 C662 1.350 . S
C657 N665 1.427 . S
C658 H649 0.930 . S
C658 C656 1.378 . S
C658 C659 1.367 . S
C659 C658 1.367 . S
C659 C661 1.433 . S
C660 C656 1.350 . S
C660 C657 1.463 . S
C660 N664 1.427 . S
C661 H651 0.929 . S
C661 C659 1.433 . S
C661 N664 1.384 . S
C662 H653 0.929 . S
C662 C654 1.378 . S
C662 C657 1.350 . S
C663 H650 0.929 . S
C663 C655 1.433 . S
C663 N665 1.384 . S
N664 C660 1.427 . S
N664 C661 1.384 . S
N665 C657 1.427 . S
N665 C663 1.384 . S
H666 C672 0.930 . S
H667 C676 0.930 . S
H668 C681 0.929 . S
H669 C679 0.929 . S
H670 C674 0.929 . S
H671 C680 0.929 . S
C672 H666 0.930 . S
C672 C673 1.367 . S
C672 C680 1.378 . S
C673 C672 1.367 . S
C673 C681 1.433 . S
C674 H670 0.929 . S
C674 C676 1.378 . S
C674 C678 1.350 . S
C675 C678 1.463 . S
C675 C680 1.350 . S
C675 N683 1.427 . S
C676 H667 0.930 . S
C676 C674 1.378 . S
C676 C677 1.367 . S
C677 C676 1.367 . S
C677 C679 1.433 . S
C678 C674 1.350 . S
C678 C675 1.463 . S
C678 N682 1.427 . S
C679 H669 0.929 . S
C679 C677 1.433 . S
C679 N682 1.384 . S
C680 H671 0.929 . S
C680 C672 1.378 . S
C680 C675 1.350 . S
C681 H668 0.929 . S
C681 C673 1.433 . S
C681 N683 1.384 . S
N682 C678 1.427 . S
N682 C679 1.384 . S
N683 C675 1.427 . S
N683 C681 1.384 . S
H684 C690 0.930 . S
H685 C694 0.930 . S
H686 C699 0.929 . S
H687 C697 0.929 . S
H688 C692 0.929 . S
H689 C698 0.929 . S
C690 H684 0.930 . S
C690 C691 1.367 . S
C690 C698 1.378 . S
C691 C690 1.367 . S
C691 C699 1.433 . S
C692 H688 0.929 . S
C692 C694 1.378 . S
C692 C696 1.350 . S
C693 C696 1.463 . S
C693 C698 1.350 . S
C693 N701 1.427 . S
C694 H685 0.930 . S
C694 C692 1.378 . S
C694 C695 1.367 . S
C695 C694 1.367 . S
C695 C697 1.433 . S
C696 C692 1.350 . S
C696 C693 1.463 . S
C696 N700 1.427 . S
C697 H687 0.929 . S
C697 C695 1.433 . S
C697 N700 1.384 . S
C698 H689 0.929 . S
C698 C690 1.378 . S
C698 C693 1.350 . S
C699 H686 0.929 . S
C699 C691 1.433 . S
C699 N701 1.384 . S
N700 C696 1.427 . S
N700 C697 1.384 . S
N701 C693 1.427 . S
N701 C699 1.384 . S
H702 C708 0.930 . S
H703 C712 0.930 . S
H704 C717 0.929 . S
H705 C715 0.929 . S
H706 C710 0.929 . S
H707 C716 0.929 . S
C708 H702 0.930 . S
C708 C709 1.367 . S
C708 C716 1.378 . S
C709 C708 1.367 . S
C709 C717 1.433 . S
C710 H706 0.929 . S
C710 C712 1.378 . S
C710 C714 1.350 . S
C711 C714 1.463 . S
C711 C716 1.350 . S
C711 N719 1.427 . S
C712 H703 0.930 . S
C712 C710 1.378 . S
C712 C713 1.367 . S
C713 C712 1.367 . S
C713 C715 1.433 . S
C714 C710 1.350 . S
C714 C711 1.463 . S
C714 N718 1.427 . S
C715 H705 0.929 . S
C715 C713 1.433 . S
C715 N718 1.384 . S
C716 H707 0.929 . S
C716 C708 1.378 . S
C716 C711 1.350 . S
C717 H704 0.929 . S
C717 C709 1.433 . S
C717 N719 1.384 . S
N718 C714 1.427 . S
N718 C715 1.384 . S
N719 C711 1.427 . S
N719 C717 1.384 . S
H720 C726 0.930 . S
H721 C730 0.930 . S
H722 C735 0.929 . S
H723 C733 0.929 . S
H724 C728 0.929 . S
H725 C734 0.929 . S
C726 H720 0.930 . S
C726 C727 1.367 . S
C726 C734 1.378 . S
C727 C726 1.367 . S
C727 C735 1.433 . S
C728 H724 0.929 . S
C728 C730 1.378 . S
C728 C732 1.350 . S
C729 C732 1.463 . S
C729 C734 1.350 . S
C729 N737 1.427 . S
C730 H721 0.930 . S
C730 C728 1.378 . S
C730 C731 1.367 . S
C731 C730 1.367 . S
C731 C733 1.433 . S
C732 C728 1.350 . S
C732 C729 1.463 . S
C732 N736 1.427 . S
C733 H723 0.929 . S
C733 C731 1.433 . S
C733 N736 1.384 . S
C734 H725 0.929 . S
C734 C726 1.378 . S
C734 C729 1.350 . S
C735 H722 0.929 . S
C735 C727 1.433 . S
C735 N737 1.384 . S
N736 C732 1.427 . S
N736 C733 1.384 . S
N737 C729 1.427 . S
N737 C735 1.384 . S
H738 C744 0.930 . S
H739 C748 0.930 . S
H740 C753 0.929 . S
H741 C751 0.929 . S
H742 C746 0.929 . S
H743 C752 0.929 . S
C744 H738 0.930 . S
C744 C745 1.367 . S
C744 C752 1.378 . S
C745 C744 1.367 . S
C745 C753 1.433 . S
C746 H742 0.929 . S
C746 C748 1.378 . S
C746 C750 1.350 . S
C747 C750 1.463 1_554 S
C747 C752 1.350 . S
C747 N755 1.427 . S
C748 H739 0.930 . S
C748 C746 1.378 . S
C748 C749 1.367 . S
C749 C748 1.367 . S
C749 C751 1.433 . S
C750 C746 1.350 . S
C750 C747 1.463 1_556 S
C750 N754 1.427 . S
C751 H741 0.929 . S
C751 C749 1.433 . S
C751 N754 1.384 . S
C752 H743 0.929 . S
C752 C744 1.378 . S
C752 C747 1.350 . S
C753 H740 0.929 . S
C753 C745 1.433 . S
C753 N755 1.384 . S
N754 C750 1.427 . S
N754 C751 1.384 . S
N755 C747 1.427 . S
N755 C753 1.384 . S
H756 C762 0.930 . S
H757 C766 0.930 . S
H758 C771 0.929 . S
H759 C769 0.929 . S
H760 C764 0.929 . S
H761 C770 0.929 . S
C762 H756 0.930 . S
C762 C763 1.367 1_565 S
C762 C770 1.378 . S
C763 C762 1.367 1_545 S
C763 C771 1.433 . S
C764 H760 0.929 . S
C764 C766 1.378 . S
C764 C768 1.356 . S
C765 C768 1.462 1_566 S
C765 C770 1.358 . S
C765 N773 1.419 1_565 S
C766 H757 0.930 . S
C766 C764 1.378 . S
C766 C767 1.367 1_545 S
C767 C766 1.367 1_565 S
C767 C769 1.433 . S
C768 C764 1.356 . S
C768 C765 1.462 1_544 S
C768 N772 1.421 1_545 S
C769 H759 0.929 . S
C769 C767 1.433 . S
C769 N772 1.384 . S
C770 H761 0.929 . S
C770 C762 1.378 . S
C770 C765 1.358 . S
C771 H758 0.929 . S
C771 C763 1.433 . S
C771 N773 1.384 . S
N772 C768 1.421 1_565 S
N772 C769 1.384 . S
N773 C765 1.419 1_545 S
N773 C771 1.384 . S
H774 C780 0.930 . S
H775 C784 0.930 . S
H776 C789 0.929 . S
H777 C787 0.929 . S
H778 C782 0.929 . S
H779 C788 0.929 . S
C780 H774 0.930 . S
C780 C781 1.367 1_455 S
C780 C788 1.378 . S
C781 C780 1.367 1_655 S
C781 C789 1.433 . S
C782 H778 0.929 . S
C782 C784 1.378 . S
C782 C786 1.341 1_655 S
C783 C786 1.463 1_656 S
C783 C788 1.352 1_655 S
C783 N791 1.426 . S
C784 H775 0.930 . S
C784 C782 1.378 . S
C784 C785 1.367 1_655 S
C785 C784 1.367 1_455 S
C785 C787 1.433 . S
C786 C782 1.341 1_455 S
C786 C783 1.463 1_454 S
C786 N790 1.436 . S
C787 H777 0.929 . S
C787 C785 1.433 . S
C787 N790 1.384 . S
C788 H779 0.929 . S
C788 C780 1.378 . S
C788 C783 1.352 1_455 S
C789 H776 0.929 . S
C789 C781 1.433 . S
C789 N791 1.384 . S
N790 C786 1.436 . S
N790 C787 1.384 . S
N791 C783 1.426 . S
N791 C789 1.384 . S
H792 C798 0.930 . S
H793 C802 0.930 . S
H794 C807 0.929 . S
H795 C805 0.929 . S
H796 C800 0.929 . S
H797 C806 0.929 . S
C798 H792 0.930 . S
C798 C799 1.367 . S
C798 C806 1.378 . S
C799 C798 1.367 . S
C799 C807 1.433 . S
C800 H796 0.929 . S
C800 C802 1.378 . S
C800 C804 1.350 . S
C801 C804 1.463 . S
C801 C806 1.350 . S
C801 N809 1.427 . S
C802 H793 0.930 . S
C802 C800 1.378 . S
C802 C803 1.367 . S
C803 C802 1.367 . S
C803 C805 1.433 . S
C804 C800 1.350 . S
C804 C801 1.463 . S
C804 N808 1.427 . S
C805 H795 0.929 . S
C805 C803 1.433 . S
C805 N808 1.384 . S
C806 H797 0.929 . S
C806 C798 1.378 . S
C806 C801 1.350 . S
C807 H794 0.929 . S
C807 C799 1.433 . S
C807 N809 1.384 . S
N808 C804 1.427 . S
N808 C805 1.384 . S
N809 C801 1.427 . S
N809 C807 1.384 . S
H810 C816 0.930 . S
H811 C820 0.930 . S
H812 C825 0.929 . S
H813 C823 0.929 . S
H814 C818 0.929 . S
H815 C824 0.929 . S
C816 H810 0.930 . S
C816 C817 1.367 . S
C816 C824 1.378 . S
C817 C816 1.367 . S
C817 C825 1.433 . S
C818 H814 0.929 . S
C818 C820 1.378 . S
C818 C822 1.350 . S
C819 C822 1.463 . S
C819 C824 1.350 . S
C819 N827 1.427 . S
C820 H811 0.930 . S
C820 C818 1.378 . S
C820 C821 1.367 . S
C821 C820 1.367 . S
C821 C823 1.433 . S
C822 C818 1.350 . S
C822 C819 1.463 . S
C822 N826 1.427 . S
C823 H813 0.929 . S
C823 C821 1.433 . S
C823 N826 1.384 . S
C824 H815 0.929 . S
C824 C816 1.378 . S
C824 C819 1.350 . S
C825 H812 0.929 . S
C825 C817 1.433 . S
C825 N827 1.384 . S
N826 C822 1.427 . S
N826 C823 1.384 . S
N827 C819 1.427 . S
N827 C825 1.384 . S
H828 C834 0.930 . S
H829 C838 0.930 . S
H830 C843 0.929 . S
H831 C841 0.929 . S
H832 C836 0.929 . S
H833 C842 0.929 . S
C834 H828 0.930 . S
C834 C835 1.367 . S
C834 C842 1.378 . S
C835 C834 1.367 . S
C835 C843 1.433 . S
C836 H832 0.929 . S
C836 C838 1.378 . S
C836 C840 1.350 . S
C837 C840 1.463 . S
C837 C842 1.350 . S
C837 N845 1.427 . S
C838 H829 0.930 . S
C838 C836 1.378 . S
C838 C839 1.367 . S
C839 C838 1.367 . S
C839 C841 1.433 . S
C840 C836 1.350 . S
C840 C837 1.463 . S
C840 N844 1.427 . S
C841 H831 0.929 . S
C841 C839 1.433 . S
C841 N844 1.384 . S
C842 H833 0.929 . S
C842 C834 1.378 . S
C842 C837 1.350 . S
C843 H830 0.929 . S
C843 C835 1.433 . S
C843 N845 1.384 . S
N844 C840 1.427 . S
N844 C841 1.384 . S
N845 C837 1.427 . S
N845 C843 1.384 . S
H846 C852 0.930 . S
H847 C856 0.930 . S
H848 C861 0.929 . S
H849 C859 0.929 . S
H850 C854 0.929 . S
H851 C860 0.929 . S
C852 H846 0.930 . S
C852 C853 1.367 . S
C852 C860 1.378 . S
C853 C852 1.367 . S
C853 C861 1.433 . S
C854 H850 0.929 . S
C854 C856 1.378 . S
C854 C858 1.350 . S
C855 C858 1.463 . S
C855 C860 1.350 . S
C855 N863 1.427 . S
C856 H847 0.930 . S
C856 C854 1.378 . S
C856 C857 1.367 . S
C857 C856 1.367 . S
C857 C859 1.433 . S
C858 C854 1.350 . S
C858 C855 1.463 . S
C858 N862 1.427 . S
C859 H849 0.929 . S
C859 C857 1.433 . S
C859 N862 1.384 . S
C860 H851 0.929 . S
C860 C852 1.378 . S
C860 C855 1.350 . S
C861 H848 0.929 . S
C861 C853 1.433 . S
C861 N863 1.384 . S
N862 C858 1.427 . S
N862 C859 1.384 . S
N863 C855 1.427 . S
N863 C861 1.384 . S
H864 C870 0.930 . S
H865 C874 0.930 . S
H866 C879 0.929 . S
H867 C877 0.929 . S
H868 C872 0.929 . S
H869 C878 0.929 . S
C870 H864 0.930 . S
C870 C871 1.367 . S
C870 C878 1.378 . S
C871 C870 1.367 . S
C871 C879 1.433 . S
C872 H868 0.929 . S
C872 C874 1.378 . S
C872 C876 1.350 . S
C873 C876 1.463 . S
C873 C878 1.350 . S
C873 N881 1.427 . S
C874 H865 0.930 . S
C874 C872 1.378 . S
C874 C875 1.367 . S
C875 C874 1.367 . S
C875 C877 1.433 . S
C876 C872 1.350 . S
C876 C873 1.463 . S
C876 N880 1.427 . S
C877 H867 0.929 . S
C877 C875 1.433 . S
C877 N880 1.384 . S
C878 H869 0.929 . S
C878 C870 1.378 . S
C878 C873 1.350 . S
C879 H866 0.929 . S
C879 C871 1.433 . S
C879 N881 1.384 . S
N880 C876 1.427 . S
N880 C877 1.384 . S
N881 C873 1.427 . S
N881 C879 1.384 . S
H882 C888 0.930 . S
H883 C892 0.930 . S
H884 C897 0.929 . S
H885 C895 0.929 . S
H886 C890 0.929 . S
H887 C896 0.929 . S
C888 H882 0.930 . S
C888 C889 1.367 . S
C888 C896 1.378 . S
C889 C888 1.367 . S
C889 C897 1.433 . S
C890 H886 0.929 . S
C890 C892 1.378 . S
C890 C894 1.350 . S
C891 C894 1.463 . S
C891 C896 1.350 . S
C891 N899 1.427 . S
C892 H883 0.930 . S
C892 C890 1.378 . S
C892 C893 1.367 . S
C893 C892 1.367 . S
C893 C895 1.433 . S
C894 C890 1.350 . S
C894 C891 1.463 . S
C894 N898 1.427 . S
C895 H885 0.929 . S
C895 C893 1.433 . S
C895 N898 1.384 . S
C896 H887 0.929 . S
C896 C888 1.378 . S
C896 C891 1.350 . S
C897 H884 0.929 . S
C897 C889 1.433 . S
C897 N899 1.384 . S
N898 C894 1.427 . S
N898 C895 1.384 . S
N899 C891 1.427 . S
N899 C897 1.384 . S
C259 C145 0.998 . S
C263 C5 0.996 . S
C277 C19 0.981 . S
C281 C159 0.990 . S
C295 C131 1.000 . S
C299 C33 0.958 . S
C313 C201 1.014 . S
C317 C47 0.986 . S
C331 C61 0.952 . S
C335 C173 1.008 . S
C349 C187 0.990 . S
C353 C75 0.979 . S
C367 C89 1.050 . S
C371 C229 1.013 . S
C385 C243 1.005 . S
C389 C103 1.018 . S
C403 C117 1.033 . S
C407 C215 1.023 . S
C421 C12 0.939 . S
C425 C18 0.970 . S
C439 C26 0.966 . S
C443 C32 0.940 . S
C457 C4 1.013 . S
C461 C40 1.016 . S
C475 C74 0.947 . S
C479 C54 0.968 . S
C493 C46 1.008 . S
C497 C68 1.014 . S
C511 C82 0.944 . S
C515 C60 0.960 . S
C529 C96 1.013 . S
C533 C102 1.013 . S
C547 C110 0.990 . S
C551 C116 0.993 . S
C565 C88 0.992 . S
C569 C124 1.009 . S
C583 C158 1.027 . S
C587 C138 1.014 . S
C601 C130 0.979 . S
C605 C152 0.976 . S
C619 C144 0.989 . S
C623 C166 0.982 . S
C637 C186 1.014 . S
C641 C180 1.025 . S
C655 C200 0.988 . S
C659 C194 0.983 . S
C673 C172 0.980 . S
C677 C208 0.966 . S
C691 C222 0.993 . S
C695 C242 1.029 . S
C709 C236 0.997 . S
C713 C214 0.999 . S
C727 C250 0.978 . S
C731 C228 1.004 . S
C745 C11 1.407 . S
C749 C53 1.398 . S
C763 C67 1.356 . S
C767 C25 1.349 . S
C781 C81 1.356 . S
C785 C39 1.355 . S
C799 C137 1.396 . S
C803 C95 1.396 . S
C817 C151 1.390 . S
C821 C109 1.380 . S
C835 C123 1.404 . S
C839 C165 1.411 . S
C853 C221 1.397 . S
C857 C179 1.399 . S
C871 C235 1.396 . S
C875 C193 1.414 . S
C889 C249 1.377 . S
C893 C207 1.392 . S
