# Generated by pormake.
# Topology smu, (6)-cn, num edge types: 1
# Building blocks:
#     Node 0, Type 0, BuildingBlock: BETDEL_clean_sbu_0, # of connection points: 6
#     Node 1, Type 0, BuildingBlock: BETDEL_clean_sbu_0, # of connection points: 6
#     Node 2, Type 0, BuildingBlock: BETDEL_clean_sbu_0, # of connection points: 6
#     Node 3, Type 0, BuildingBlock: BETDEL_clean_sbu_0, # of connection points: 6
#     Node 4, Type 0, BuildingBlock: BETDEL_clean_sbu_0, # of connection points: 6
#     Node 5, Type 0, BuildingBlock: BETDEL_clean_sbu_0, # of connection points: 6
#     Edge 6, Type (0, 0), BuildingBlock: KIFKEQ_clean_linker_1, # of connection points: 2
#     Edge 7, Type (0, 0), BuildingBlock: KIFKEQ_clean_linker_1, # of connection points: 2
#     Edge 8, Type (0, 0), BuildingBlock: KIFKEQ_clean_linker_1, # of connection points: 2
#     Edge 9, Type (0, 0), BuildingBlock: KIFKEQ_clean_linker_1, # of connection points: 2
#     Edge 10, Type (0, 0), BuildingBlock: KIFKEQ_clean_linker_1, # of connection points: 2
#     Edge 11, Type (0, 0), BuildingBlock: KIFKEQ_clean_linker_1, # of connection points: 2
#     Edge 12, Type (0, 0), BuildingBlock: KIFKEQ_clean_linker_1, # of connection points: 2
#     Edge 13, Type (0, 0), BuildingBlock: KIFKEQ_clean_linker_1, # of connection points: 2
#     Edge 14, Type (0, 0), BuildingBlock: KIFKEQ_clean_linker_1, # of connection points: 2
#     Edge 15, Type (0, 0), BuildingBlock: KIFKEQ_clean_linker_1, # of connection points: 2
#     Edge 16, Type (0, 0), BuildingBlock: KIFKEQ_clean_linker_1, # of connection points: 2
#     Edge 17, Type (0, 0), BuildingBlock: KIFKEQ_clean_linker_1, # of connection points: 2
#     Edge 18, Type (0, 0), BuildingBlock: KIFKEQ_clean_linker_1, # of connection points: 2
#     Edge 19, Type (0, 0), BuildingBlock: KIFKEQ_clean_linker_1, # of connection points: 2
#     Edge 20, Type (0, 0), BuildingBlock: KIFKEQ_clean_linker_1, # of connection points: 2
#     Edge 21, Type (0, 0), BuildingBlock: KIFKEQ_clean_linker_1, # of connection points: 2
#     Edge 22, Type (0, 0), BuildingBlock: KIFKEQ_clean_linker_1, # of connection points: 2
#     Edge 23, Type (0, 0), BuildingBlock: KIFKEQ_clean_linker_1, # of connection points: 2
# Relax obj value: 0.190
# Max RMSD: 0.265
# Mean RMSD: 0.265
data_MOF--net-smu--node1-BETDEL_clean_sbu_0--edge1-KIFKEQ_clean_linker_1
_symmetry_space_group_name_H-M    P1
_symmetry_Int_Tables_number       1
_symmetry_cell_setting            triclinic
loop_
_symmetry_equiv_pos_as_xyz
'x, y, z'
_cell_length_a     32.35477
_cell_length_b     32.215118
_cell_length_c     26.529079
_cell_angle_alpha  90.807934
_cell_angle_beta   89.682644
_cell_angle_gamma 120.16545
loop_
_atom_site_label
_atom_site_type_symbol
_atom_site_fract_x
_atom_site_fract_y
_atom_site_fract_z
_atom_type_partial_charge
Dy0 Dy 0.38187 0.09766 0.30586 0.0
C1 C 0.23844 0.15154 0.31258 0.0
C2 C 0.45635 0.08237 0.28701 0.0
Dy3 Dy 0.30428 0.12292 0.3009 0.0
O4 O 0.42866 0.06698 0.32638 0.0
O5 O 0.44101 0.10301 0.25673 0.0
O6 O 0.40066 0.12823 0.38462 0.0
O7 O 0.33043 0.09577 0.36118 0.0
C8 C 0.35732 0.11484 0.39886 0.0
C9 C 0.33768 0.11257 0.20922 0.0
O10 O 0.367 0.19325 0.32111 0.0
O11 O 0.42135 0.17654 0.28537 0.0
O12 O 0.2367 0.12186 0.27771 0.0
O13 O 0.27441 0.16311 0.34236 0.0
O14 O 0.32454 0.14382 0.21908 0.0
O15 O 0.33111 0.0889 0.24838 0.0
O16 O 0.31626 0.02245 0.30325 0.0
O17 O 0.25888 0.04544 0.31787 0.0
C18 C 0.40962 0.20804 0.30231 0.0
C19 C 0.27135 0.01211 0.31271 0.0
Dy20 Dy 0.72829 0.64247 0.29791 0.0
C21 C 0.92944 0.77859 0.30892 0.0
C22 C 0.63744 0.56673 0.28144 0.0
Dy23 Dy 0.83298 0.72054 0.29596 0.0
O24 O 0.6521 0.59279 0.3224 0.0
O25 O 0.67135 0.58506 0.24814 0.0
O26 O 0.73914 0.62197 0.37581 0.0
O27 O 0.77858 0.69165 0.35461 0.0
C28 C 0.77008 0.6648 0.3918 0.0
C29 C 0.78556 0.7157 0.21214 0.0
O30 O 0.84135 0.65632 0.28727 0.0
O31 O 0.76195 0.59759 0.28034 0.0
O32 O 0.9052 0.77821 0.26995 0.0
O33 O 0.90066 0.74828 0.342 0.0
O34 O 0.82181 0.75479 0.22972 0.0
O35 O 0.77945 0.67945 0.23702 0.0
O36 O 0.72177 0.70972 0.29941 0.0
O37 O 0.79924 0.75998 0.32959 0.0
C38 C 0.80791 0.61126 0.2799 0.0
C39 C 0.7554 0.75148 0.31934 0.0
Dy40 Dy 0.92117 0.28597 0.30235 0.0
C41 C 0.85072 0.08762 0.33739 0.0
C42 C 0.91167 0.3644 0.28745 0.0
Dy43 Dy 0.89595 0.18395 0.32327 0.0
O44 O 0.89409 0.33458 0.32432 0.0
O45 O 0.93668 0.3524 0.25779 0.0
O46 O 0.96169 0.3145 0.3728 0.0
O47 O 0.9035 0.24324 0.37204 0.0
C48 C 0.93898 0.27499 0.39772 0.0
C49 C 0.93011 0.21324 0.23004 0.0
O50 O 0.82405 0.17548 0.33015 0.0
O51 O 0.84114 0.24467 0.28947 0.0
O52 O 0.84816 0.10873 0.29739 0.0
O53 O 0.87923 0.11932 0.37064 0.0
O54 O 0.93597 0.18271 0.25572 0.0
O55 O 0.90238 0.22401 0.25358 0.0
O56 O 0.99333 0.28941 0.29422 0.0
O57 O 0.97245 0.2222 0.3438 0.0
C58 C 0.80997 0.20251 0.30829 0.0
C59 C 1.00496 0.26148 0.32067 0.0
Dy60 Dy 0.05641 0.30211 0.80537 0.0
C61 C 0.25594 0.44014 0.82336 0.0
C62 C 0.96655 0.23152 0.7793 0.0
Dy63 Dy 0.16098 0.37409 0.81027 0.0
O64 O 0.97737 0.25729 0.82066 0.0
O65 O 1.00425 0.24717 0.75114 0.0
O66 O 0.06373 0.26759 0.87372 0.0
O67 O 0.10448 0.34209 0.86937 0.0
C68 C 0.09378 0.30651 0.89734 0.0
C69 C 0.12118 0.34497 0.71684 0.0
O70 O 0.16181 0.3071 0.8239 0.0
O71 O 0.09356 0.26236 0.77761 0.0
O72 O 0.22844 0.44187 0.78894 0.0
O73 O 0.23107 0.40326 0.85184 0.0
O74 O 0.16291 0.35128 0.72809 0.0
O75 O 0.10495 0.35506 0.75465 0.0
O76 O 0.05276 0.37075 0.81008 0.0
O77 O 0.13292 0.42223 0.83165 0.0
C78 C 0.13327 0.26805 0.79813 0.0
C79 C 0.08883 0.41372 0.82436 0.0
Dy80 Dy 0.24501 0.9561 0.78646 0.0
C81 C 0.18555 0.75906 0.80555 0.0
C82 C 0.26189 0.04511 0.75981 0.0
Dy83 Dy 0.22287 0.85619 0.79408 0.0
O84 O 0.27546 0.03531 0.80177 0.0
O85 O 0.2417 1.00681 0.73172 0.0
O86 O 0.21309 0.95291 0.86099 0.0
O87 O 0.25131 0.91664 0.85102 0.0
C88 C 0.22898 0.92806 0.88298 0.0
C89 C 0.24014 0.89374 0.69962 0.0
O90 O 0.15385 0.84892 0.81911 0.0
O91 O 0.16483 0.91598 0.77825 0.0
O92 O 0.17092 0.77887 0.77351 0.0
O93 O 0.22115 0.79239 0.83127 0.0
O94 O 0.25651 0.86687 0.71558 0.0
O95 O 0.21555 0.89748 0.73389 0.0
O96 O 0.31806 0.9614 0.77475 0.0
O97 O 0.29918 0.88898 0.81114 0.0
C98 C 0.13637 0.87447 0.80017 0.0
C99 C 0.33081 0.93102 0.79317 0.0
Dy100 Dy 0.70985 0.76658 0.80316 0.0
C101 C 0.56731 0.82137 0.79664 0.0
C102 C 0.78259 0.74769 0.79048 0.0
Dy103 Dy 0.63318 0.7914 0.79215 0.0
O104 O 0.75587 0.73718 0.83053 0.0
O105 O 0.76747 0.76576 0.75677 0.0
O106 O 0.73486 0.81142 0.87282 0.0
O107 O 0.66165 0.77164 0.85893 0.0
C108 C 0.69299 0.79788 0.89145 0.0
C109 C 0.67087 0.77809 0.7048 0.0
O110 O 0.69523 0.86206 0.80996 0.0
O111 O 0.74905 0.8437 0.77592 0.0
O112 O 0.56487 0.78814 0.76613 0.0
O113 O 0.60437 0.83633 0.82569 0.0
O114 O 0.65902 0.81085 0.7101 0.0
O115 O 0.66031 0.75468 0.74436 0.0
O116 O 0.64374 0.69194 0.80842 0.0
O117 O 0.58656 0.71597 0.81492 0.0
C118 C 0.73741 0.87595 0.79066 0.0
C119 C 0.59885 0.68249 0.81553 0.0
H120 H 0.31403 0.94883 0.92877 0.0
H121 H 0.17926 0.94207 0.95634 0.0
H122 H 0.34582 0.99501 1.00772 0.0
H123 H 0.21092 0.98829 1.03423 0.0
H124 H 0.35919 0.04366 0.18217 0.0
H125 H 0.33438 0.99346 0.10553 0.0
H126 H 0.27463 0.07633 1.047 0.0
H127 H 0.29981 0.12674 0.1232 0.0
C128 C 0.29066 0.95562 0.95251 0.0
C129 C 0.24402 0.94166 0.93635 0.0
C130 C 0.30905 0.98259 0.99741 0.0
C131 C 0.28129 0.99647 1.02652 0.0
C132 C 0.23364 0.97929 1.01208 0.0
C133 C 0.21524 0.95214 0.96781 0.0
C134 C 0.34178 0.05186 0.15234 0.0
C135 C 0.33147 0.08923 0.15882 0.0
C136 C 0.32745 0.02298 0.10854 0.0
C137 C 0.30179 0.03031 0.07054 0.0
C138 C 0.29363 0.06921 0.07598 0.0
C139 C 0.30853 0.09849 0.11941 0.0
H140 H 0.69088 0.81921 0.61028 0.0
H141 H 0.69294 0.70748 0.69608 0.0
H142 H 0.71892 0.79417 0.53576 0.0
H143 H 0.72143 0.68318 0.62265 0.0
H144 H 0.80976 0.67652 0.48718 0.0
H145 H 0.79014 0.70801 0.56337 0.0
H146 H 0.68481 0.72282 0.47865 0.0
H147 H 0.70353 0.6907 0.40402 0.0
C148 C 0.6977 0.7897 0.61339 0.0
C149 C 0.68981 0.76556 0.65923 0.0
C150 C 0.71369 0.77522 0.57074 0.0
C151 C 0.72266 0.73663 0.57314 0.0
C152 C 0.71568 0.71338 0.6194 0.0
C153 C 0.69913 0.72734 0.66157 0.0
C154 C 0.7823 0.68628 0.48523 0.0
C155 C 0.75834 0.68129 0.43963 0.0
C156 C 0.77108 0.70445 0.52867 0.0
C157 C 0.7362 0.71859 0.52709 0.0
C158 C 0.71245 0.71335 0.48127 0.0
C159 C 0.72305 0.69464 0.43847 0.0
H160 H 0.00801 0.20987 0.20171 0.0
H161 H 0.92149 0.27069 0.15802 0.0
H162 H 0.05843 0.24436 0.12933 0.0
H163 H 0.97055 0.30264 0.08151 0.0
H164 H 0.08059 0.37076 0.95503 0.0
H165 H 0.04567 0.35597 1.03991 0.0
H166 H 0.05096 0.22459 1.04507 0.0
H167 H 0.08696 0.24048 0.96232 0.0
C168 C 0.99947 0.2305 0.17624 0.0
C169 C 0.96036 0.23714 0.18549 0.0
C170 C 0.02842 0.25011 0.13422 0.0
C171 C 0.01818 0.27541 0.09847 0.0
C172 C 0.97978 0.28353 0.10827 0.0
C173 C 0.95132 0.26488 0.15176 0.0
C174 C 0.07612 0.33991 0.97552 0.0
C175 C 0.0871 0.30702 0.95245 0.0
C176 C 0.05517 0.33087 1.0237 0.0
C177 C 0.04501 0.28889 1.04963 0.0
C178 C 0.0588 0.25777 1.02722 0.0
C179 C 0.07969 0.26686 0.97956 0.0
H180 H 0.26539 0.06101 0.43188 0.0
H181 H 0.41121 0.11423 0.47868 0.0
H182 H 0.23701 1.00705 0.50324 0.0
H183 H 0.38284 0.06124 0.55134 0.0
H184 H 0.31939 0.92 0.63972 0.0
H185 H 0.34805 0.9776 0.57051 0.0
H186 H 0.22647 0.99751 0.59078 0.0
H187 H 0.19735 0.93888 0.65794 0.0
C188 C 0.29143 0.06219 0.45823 0.0
C189 C 0.34064 0.09195 0.44915 0.0
C190 C 0.27513 0.03104 0.49936 0.0
C191 C 0.30751 0.02889 0.53309 0.0
C192 C 0.35672 0.06082 0.52568 0.0
C193 C 0.37305 0.09192 0.48436 0.0
C194 C 0.29864 0.93633 0.62883 0.0
C195 C 0.25627 0.92509 0.65454 0.0
C196 C 0.31533 0.9699 0.58957 0.0
C197 C 0.28995 0.99291 0.57494 0.0
C198 C 0.24698 0.98055 0.60024 0.0
C199 C 0.23035 0.94702 0.63913 0.0
H200 H 0.74492 0.85493 0.96933 0.0
H201 H 0.63338 0.71045 0.93445 0.0
H202 H 0.75606 0.82921 1.05132 0.0
H203 H 0.64408 0.68425 1.01725 0.0
H204 H 0.74008 0.65402 0.13107 0.0
H205 H 0.70529 0.67159 0.05774 0.0
H206 H 0.7257 0.80043 0.13285 0.0
H207 H 0.76178 0.7839 0.20401 0.0
C208 C 0.72134 0.81801 0.98014 0.0
C209 C 0.68783 0.78506 0.94562 0.0
C210 C 0.72783 0.80299 1.02722 0.0
C211 C 0.7012 0.75437 1.04118 0.0
C212 C 0.6656 0.72181 1.00773 0.0
C213 C 0.65882 0.73703 0.96059 0.0
C214 C 0.73587 0.68531 0.13217 0.0
C215 C 0.75397 0.71776 0.17305 0.0
C216 C 0.71597 0.69552 0.09019 0.0
C217 C 0.71353 0.73812 0.08871 0.0
C218 C 0.72809 0.76808 0.13174 0.0
C219 C 0.74841 0.75831 0.1729 0.0
H220 H 0.89763 0.2181 0.48224 0.0
H221 H 0.03286 0.3199 0.41603 0.0
H222 H 0.93981 0.22311 0.56162 0.0
H223 H 0.07412 0.32337 0.49271 0.0
H224 H 0.14418 0.31031 0.6318 0.0
H225 H 0.09583 0.2779 0.55464 0.0
H226 H 0.98473 0.29727 0.62168 0.0
H227 H 0.033 0.33051 0.69733 0.0
C228 C 0.9362 0.24013 0.48401 0.0
C229 C 0.96184 0.26846 0.44288 0.0
C230 C 0.96035 0.24316 0.52928 0.0
C231 C 0.01044 0.27347 0.53324 0.0
C232 C 0.03583 0.29917 0.49089 0.0
C233 C 0.01186 0.29731 0.44686 0.0
C234 C 0.10932 0.30725 0.63 0.0
C235 C 0.09255 0.32316 0.67047 0.0
C236 C 0.08147 0.28837 0.58614 0.0
C237 C 0.03614 0.28448 0.58236 0.0
C238 C 0.01888 0.29877 0.62371 0.0
C239 C 0.04693 0.31834 0.66688 0.0
H240 H 0.52123 0.12331 0.2114 0.0
H241 H 0.50298 0.06129 0.35872 0.0
H242 H 0.6066 0.15086 0.2146 0.0
H243 H 0.58842 0.0896 0.36256 0.0
H244 H 0.738 0.11481 0.33761 0.0
H245 H 0.65249 0.08111 0.32846 0.0
H246 H 0.67661 0.21208 0.25939 0.0
H247 H 0.763 0.24577 0.26753 0.0
C248 C 0.53535 0.11478 0.24409 0.0
C249 C 0.5054 0.09001 0.28476 0.0
C250 C 0.58441 0.13117 0.24624 0.0
C251 C 0.60466 0.12314 0.28912 0.0
C252 C 0.57414 0.09623 0.32875 0.0
C253 C 0.52506 0.07982 0.32656 0.0
C254 C 0.72533 0.1367 0.32049 0.0
C255 C 0.75764 0.18324 0.30343 0.0
C256 C 0.67604 0.11726 0.31542 0.0
C257 C 0.65744 0.14375 0.29324 0.0
C258 C 0.68967 0.19034 0.27604 0.0
C259 C 0.73922 0.20987 0.28106 0.0
H260 H 0.57175 0.51793 0.35475 0.0
H261 H 0.61498 0.50047 0.20552 0.0
H262 H 0.51713 0.43152 0.35899 0.0
H263 H 0.5597 0.41388 0.20926 0.0
H264 H 0.49996 0.25668 0.26014 0.0
H265 H 0.55189 0.34379 0.25239 0.0
H266 H 0.44489 0.36565 0.32618 0.0
H267 H 0.39398 0.27965 0.33485 0.0
C268 C 0.56867 0.49575 0.3223 0.0
C269 C 0.59752 0.51617 0.27971 0.0
C270 C 0.53741 0.44605 0.32473 0.0
C271 C 0.53419 0.41536 0.28464 0.0
C272 C 0.56178 0.43615 0.24121 0.0
C273 C 0.59297 0.48593 0.23875 0.0
C274 C 0.48771 0.28014 0.27492 0.0
C275 C 0.44279 0.26087 0.29833 0.0
C276 C 0.51729 0.33012 0.27009 0.0
C277 C 0.50269 0.36202 0.28866 0.0
C278 C 0.45779 0.34252 0.31205 0.0
C279 C 0.4284 0.29287 0.31683 0.0
H280 H 0.84982 0.37781 0.34332 0.0
H281 H 0.94427 0.43617 0.21551 0.0
H282 H 0.8247 0.43634 0.33368 0.0
H283 H 0.91883 0.49627 0.206 0.0
H284 H 0.8985 0.62719 0.26364 0.0
H285 H 0.92429 0.56787 0.25791 0.0
H286 H 0.77768 0.45399 0.27173 0.0
H287 H 0.75169 0.51311 0.27767 0.0
C288 C 0.86537 0.40329 0.31299 0.0
C289 C 0.89914 0.4023 0.28013 0.0
C290 C 0.85051 0.43666 0.30725 0.0
C291 C 0.8692 0.47053 0.26871 0.0
C292 C 0.9037 0.4704 0.23602 0.0
C293 C 0.91828 0.43616 0.24141 0.0
C294 C 0.87161 0.58948 0.265 0.0
C295 C 0.82297 0.57499 0.27185 0.0
C296 C 0.88647 0.55552 0.26122 0.0
C297 C 0.85312 0.50631 0.26469 0.0
C298 C 0.80432 0.49174 0.26944 0.0
C299 C 0.7894 0.52563 0.2728 0.0
H300 H 0.10837 0.47248 0.90525 0.0
H301 H 0.06126 0.45266 0.75073 0.0
H302 H 0.12444 0.55495 0.90445 0.0
H303 H 0.0796 0.53604 0.74848 0.0
H304 H 0.104 0.68734 0.76249 0.0
H305 H 0.06892 0.60079 0.77205 0.0
H306 H 0.18552 0.62615 0.87076 0.0
H307 H 0.21906 0.71244 0.86267 0.0
C308 C 0.10005 0.48552 0.87155 0.0
C309 C 0.08297 0.45615 0.8283 0.0
C310 C 0.11017 0.53311 0.87066 0.0
C311 C 0.10467 0.55296 0.82598 0.0
C312 C 0.08416 0.52227 0.78372 0.0
C313 C 0.07324 0.47425 0.78498 0.0
C314 C 0.12187 0.67425 0.78646 0.0
C315 C 0.16431 0.70661 0.81181 0.0
C316 C 0.10187 0.62457 0.79181 0.0
C317 C 0.12406 0.60598 0.82236 0.0
C318 C 0.16655 0.63873 0.84783 0.0
C319 C 0.18622 0.68836 0.84285 0.0
H320 H 0.38791 0.94129 0.87135 0.0
H321 H 0.38002 0.93199 0.7093 0.0
H322 H 0.44991 0.9196 0.87029 0.0
H323 H 0.44285 0.91063 0.70763 0.0
H324 H 0.49133 0.79863 0.73404 0.0
H325 H 0.44335 0.83786 0.72995 0.0
H326 H 0.52849 0.93559 0.84955 0.0
H327 H 0.57541 0.89565 0.85424 0.0
C328 C 0.40145 0.93717 0.83528 0.0
C329 C 0.37996 0.93946 0.79038 0.0
C330 C 0.43671 0.92416 0.83459 0.0
C331 C 0.45103 0.91249 0.78889 0.0
C332 C 0.43216 0.91854 0.74359 0.0
C333 C 0.39698 0.93193 0.74436 0.0
C334 C 0.49955 0.82835 0.75955 0.0
C335 C 0.53678 0.84366 0.79483 0.0
C336 C 0.47249 0.85133 0.75681 0.0
C337 C 0.48207 0.89023 0.78926 0.0
C338 C 0.51965 0.90557 0.82427 0.0
C339 C 0.54658 0.8826 0.82702 0.0
H340 H 0.31308 0.50692 0.75512 0.0
H341 H 0.31763 0.44274 0.89515 0.0
H342 H 0.40017 0.55549 0.75529 0.0
H343 H 0.40516 0.4917 0.89552 0.0
H344 H 0.54869 0.64534 0.90082 0.0
H345 H 0.46586 0.57979 0.90442 0.0
H346 H 0.47301 0.54704 0.74733 0.0
H347 H 0.55619 0.61273 0.74417 0.0
C348 C 0.33274 0.50332 0.78603 0.0
C349 C 0.30857 0.47129 0.82528 0.0
C350 C 0.38268 0.53068 0.78582 0.0
C351 C 0.40967 0.527 0.8251 0.0
C352 C 0.3854 0.49525 0.86469 0.0
C353 C 0.33535 0.4674 0.86457 0.0
C354 C 0.53328 0.62241 0.86789 0.0
C355 C 0.55899 0.63332 0.82251 0.0
C356 C 0.48568 0.58514 0.86976 0.0
C357 C 0.46262 0.55872 0.82594 0.0
C358 C 0.48966 0.56717 0.78157 0.0
C359 C 0.53751 0.60413 0.77992 0.0
H360 H 0.24224 0.21593 0.38211 0.0
H361 H 0.17199 0.1433 0.24364 0.0
H362 H 0.19842 0.2593 0.38214 0.0
H363 H 0.12763 0.18656 0.24389 0.0
H364 H 0.0474 0.24596 0.39922 0.0
H365 H 0.11221 0.22944 0.39549 0.0
H366 H 0.13559 0.27058 0.23913 0.0
H367 H 0.07117 0.29004 0.24395 0.0
C368 C 0.21727 0.20913 0.35175 0.0
C369 C 0.20986 0.17565 0.31334 0.0
C370 C 0.1925 0.23426 0.35156 0.0
C371 C 0.15986 0.22662 0.31283 0.0
C372 C 0.15317 0.19382 0.27377 0.0
C373 C 0.17788 0.16846 0.27408 0.0
C374 C 0.06787 0.25414 0.36473 0.0
C375 C 0.0539 0.26906 0.32175 0.0
C376 C 0.10492 0.24413 0.36246 0.0
C377 C 0.12845 0.24783 0.31679 0.0
C378 C 0.11747 0.26675 0.27468 0.0
C379 C 0.08091 0.27818 0.27747 0.0
H380 H 0.9865 0.7799 0.38564 0.0
H381 H 0.99133 0.83749 0.23842 0.0
H382 H 0.07412 0.8238 0.38866 0.0
H383 H 0.07823 0.88165 0.24153 0.0
H384 H 0.23273 0.94242 0.24016 0.0
H385 H 0.15008 0.87547 0.24059 0.0
H386 H 0.1366 0.9074 0.39654 0.0
H387 H 0.21894 0.9732 0.39589 0.0
C388 C 1.00632 0.80199 0.35402 0.0
C389 C 0.98219 0.80567 0.312 0.0
C390 C 0.05643 0.82697 0.35563 0.0
C391 C 0.08333 0.8559 0.3151 0.0
C392 C 0.05886 0.8589 0.27292 0.0
C393 C 0.00896 0.83413 0.27142 0.0
C394 C 0.21276 0.93326 0.27512 0.0
C395 C 0.23209 0.96246 0.31811 0.0
C396 C 0.16519 0.89557 0.27523 0.0
C397 C 0.13633 0.88674 0.31831 0.0
C398 C 0.15762 0.91293 0.36278 0.0
C399 C 0.20496 0.95056 0.36254 0.0
H400 H 0.81321 0.02291 0.26167 0.0
H401 H 0.82761 0.03415 0.42359 0.0
H402 H 0.77239 0.93647 0.26602 0.0
H403 H 0.7833 0.94646 0.42888 0.0
H404 H 0.78787 0.80637 0.40292 0.0
H405 H 0.79815 0.88526 0.41454 0.0
H406 H 0.7089 0.86177 0.28394 0.0
H407 H 0.70147 0.78291 0.27068 0.0
C408 C 0.80681 1.0066 0.29846 0.0
C409 C 0.82437 0.03507 0.34226 0.0
C410 C 0.7825 0.95674 0.3011 0.0
C411 C 0.77417 0.93381 0.34783 0.0
C412 C 0.78979 0.96261 0.39206 0.0
C413 C 0.81523 0.01283 0.38922 0.0
C414 C 0.76948 0.81765 0.37733 0.0
C415 C 0.74532 0.78948 0.33487 0.0
C416 C 0.775 0.86301 0.38427 0.0
C417 C 0.75589 0.88108 0.34914 0.0
C418 C 0.72583 0.84986 0.31062 0.0
C419 C 0.72083 0.80436 0.30332 0.0
H420 H 0.13204 0.22343 0.70955 0.0
H421 H 0.17261 0.23666 0.86601 0.0
H422 H 0.17094 0.17635 0.69261 0.0
H423 H 0.20838 0.18706 0.85063 0.0
H424 H 0.30226 0.12965 0.81284 0.0
H425 H 0.27349 0.18652 0.81685 0.0
H426 H 0.16863 0.10435 0.70152 0.0
H427 H 0.20011 0.05024 0.69509 0.0
C428 C 0.14818 0.215 0.7405 0.0
C429 C 0.14927 0.23324 0.78905 0.0
C430 C 0.17065 0.18817 0.73092 0.0
C431 C 0.1937 0.17827 0.77004 0.0
C432 C 0.19272 0.19517 0.81903 0.0
C433 C 0.17143 0.2229 0.8282 0.0
C434 C 0.27415 0.12489 0.78728 0.0
C435 C 0.25324 0.08551 0.75394 0.0
C436 C 0.25693 0.1569 0.79012 0.0
C437 C 0.21747 0.14935 0.7607 0.0
C438 C 0.19901 0.11173 0.72478 0.0
C439 C 0.21708 0.08051 0.72107 0.0
H440 H 0.08465 0.91086 0.7569 0.0
H441 H 0.06901 0.79151 0.8442 0.0
H442 H 0.99781 0.874 0.75335 0.0
H443 H 0.98245 0.75447 0.83987 0.0
H444 H 0.83136 0.73618 0.86767 0.0
H445 H 0.91717 0.7654 0.87065 0.0
H446 H 0.92927 0.8044 0.71386 0.0
H447 H 0.84376 0.77582 0.7112 0.0
C448 C 0.06278 0.87692 0.77548 0.0
C449 C 0.08387 0.85421 0.80079 0.0
C450 C 0.01298 0.85552 0.77301 0.0
C451 C 0.98316 0.81099 0.79588 0.0
C452 C 1.00432 0.78883 0.82207 0.0
C453 C 0.05404 0.81013 0.82443 0.0
C454 C 0.85219 0.74983 0.83355 0.0
C455 C 0.83099 0.75391 0.78928 0.0
C456 C 0.90139 0.76677 0.83527 0.0
C457 C 0.93023 0.78812 0.79274 0.0
C458 C 0.90828 0.78924 0.7476 0.0
C459 C 0.85919 0.77229 0.74589 0.0
H460 H 0.89453 0.18247 0.8465 0.0
H461 H 0.94742 0.16886 0.70107 0.0
H462 H 0.83869 0.09618 0.8465 0.0
H463 H 0.89113 0.08245 0.7007 0.0
H464 H 0.83008 0.92451 0.75404 0.0
H465 H 0.88192 0.01185 0.74676 0.0
H466 H 0.76871 0.03239 0.80583 0.0
H467 H 0.71798 0.94667 0.81401 0.0
C468 C 0.89321 0.16124 0.81387 0.0
C469 C 0.92524 0.18241 0.77381 0.0
C470 C 0.86139 0.11169 0.8139 0.0
C471 C 0.86092 0.08225 0.77385 0.0
C472 C 0.89126 0.10393 0.73254 0.0
C473 C 0.92298 0.15352 0.73245 0.0
C474 C 0.81646 0.94779 0.76546 0.0
C475 C 0.77003 0.92842 0.785 0.0
C476 C 0.84593 0.99776 0.76097 0.0
C477 C 0.82947 0.02914 0.77599 0.0
C478 C 0.78287 0.00948 0.79473 0.0
C479 C 0.75367 0.96001 0.79923 0.0
loop_
_geom_bond_atom_site_label_1
_geom_bond_atom_site_label_2
_geom_bond_distance
_geom_bond_site_symmetry_2
_ccdc_geom_bond_type
Dy0 O4 2.398 . S
Dy0 O5 2.491 . S
Dy0 O6 2.403 . S
Dy0 O7 2.664 . S
Dy0 O11 2.326 . S
Dy0 O15 2.310 . S
Dy0 O16 2.351 . S
C1 O12 1.185 . S
C1 O13 1.355 . S
C2 O4 1.185 . S
C2 O5 1.355 . S
Dy3 O7 2.310 . S
Dy3 O10 2.351 . S
Dy3 O12 2.398 . S
Dy3 O13 2.491 . S
Dy3 O14 2.403 . S
Dy3 O15 2.664 . S
Dy3 O17 2.326 . S
O4 Dy0 2.398 . S
O4 C2 1.185 . S
O5 Dy0 2.491 . S
O5 C2 1.355 . S
O6 Dy0 2.403 . S
O6 C8 1.254 . S
O7 Dy0 2.664 . S
O7 Dy3 2.310 . S
O7 C8 1.268 . S
C8 O6 1.254 . S
C8 O7 1.268 . S
C9 O14 1.254 . S
C9 O15 1.268 . S
O10 Dy3 2.351 . S
O10 C18 1.249 . S
O11 Dy0 2.326 . S
O11 C18 1.267 . S
O12 C1 1.185 . S
O12 Dy3 2.398 . S
O13 C1 1.355 . S
O13 Dy3 2.491 . S
O14 Dy3 2.403 . S
O14 C9 1.254 . S
O15 Dy0 2.310 . S
O15 Dy3 2.664 . S
O15 C9 1.268 . S
O16 Dy0 2.351 . S
O16 C19 1.249 . S
O17 Dy3 2.326 . S
O17 C19 1.267 . S
C18 O10 1.249 . S
C18 O11 1.267 . S
C19 O16 1.249 . S
C19 O17 1.267 . S
Dy20 O24 2.398 . S
Dy20 O25 2.491 . S
Dy20 O26 2.403 . S
Dy20 O27 2.664 . S
Dy20 O31 2.326 . S
Dy20 O35 2.310 . S
Dy20 O36 2.351 . S
C21 O32 1.185 . S
C21 O33 1.355 . S
C22 O24 1.185 . S
C22 O25 1.355 . S
Dy23 O27 2.310 . S
Dy23 O30 2.351 . S
Dy23 O32 2.398 . S
Dy23 O33 2.491 . S
Dy23 O34 2.403 . S
Dy23 O35 2.664 . S
Dy23 O37 2.326 . S
O24 Dy20 2.398 . S
O24 C22 1.185 . S
O25 Dy20 2.491 . S
O25 C22 1.355 . S
O26 Dy20 2.403 . S
O26 C28 1.254 . S
O27 Dy20 2.664 . S
O27 Dy23 2.310 . S
O27 C28 1.268 . S
C28 O26 1.254 . S
C28 O27 1.268 . S
C29 O34 1.254 . S
C29 O35 1.268 . S
O30 Dy23 2.351 . S
O30 C38 1.249 . S
O31 Dy20 2.326 . S
O31 C38 1.267 . S
O32 C21 1.185 . S
O32 Dy23 2.398 . S
O33 C21 1.355 . S
O33 Dy23 2.491 . S
O34 Dy23 2.403 . S
O34 C29 1.254 . S
O35 Dy20 2.310 . S
O35 Dy23 2.664 . S
O35 C29 1.268 . S
O36 Dy20 2.351 . S
O36 C39 1.249 . S
O37 Dy23 2.326 . S
O37 C39 1.267 . S
C38 O30 1.249 . S
C38 O31 1.267 . S
C39 O36 1.249 . S
C39 O37 1.267 . S
Dy40 O44 2.398 . S
Dy40 O45 2.491 . S
Dy40 O46 2.403 . S
Dy40 O47 2.664 . S
Dy40 O51 2.326 . S
Dy40 O55 2.310 . S
Dy40 O56 2.351 . S
C41 O52 1.185 . S
C41 O53 1.355 . S
C42 O44 1.185 . S
C42 O45 1.355 . S
Dy43 O47 2.310 . S
Dy43 O50 2.351 . S
Dy43 O52 2.398 . S
Dy43 O53 2.491 . S
Dy43 O54 2.403 . S
Dy43 O55 2.664 . S
Dy43 O57 2.326 . S
O44 Dy40 2.398 . S
O44 C42 1.185 . S
O45 Dy40 2.491 . S
O45 C42 1.355 . S
O46 Dy40 2.403 . S
O46 C48 1.254 . S
O47 Dy40 2.664 . S
O47 Dy43 2.310 . S
O47 C48 1.268 . S
C48 O46 1.254 . S
C48 O47 1.268 . S
C49 O54 1.254 . S
C49 O55 1.268 . S
O50 Dy43 2.351 . S
O50 C58 1.249 . S
O51 Dy40 2.326 . S
O51 C58 1.267 . S
O52 C41 1.185 . S
O52 Dy43 2.398 . S
O53 C41 1.355 . S
O53 Dy43 2.491 . S
O54 Dy43 2.403 . S
O54 C49 1.254 . S
O55 Dy40 2.310 . S
O55 Dy43 2.664 . S
O55 C49 1.268 . S
O56 Dy40 2.351 . S
O56 C59 1.249 . S
O57 Dy43 2.326 . S
O57 C59 1.267 . S
C58 O50 1.249 . S
C58 O51 1.267 . S
C59 O56 1.249 . S
C59 O57 1.267 . S
Dy60 O64 2.398 1_455 S
Dy60 O65 2.491 1_455 S
Dy60 O66 2.403 . S
Dy60 O67 2.664 . S
Dy60 O71 2.326 . S
Dy60 O75 2.310 . S
Dy60 O76 2.351 . S
C61 O72 1.185 . S
C61 O73 1.355 . S
C62 O64 1.185 . S
C62 O65 1.355 . S
Dy63 O67 2.310 . S
Dy63 O70 2.351 . S
Dy63 O72 2.398 . S
Dy63 O73 2.491 . S
Dy63 O74 2.403 . S
Dy63 O75 2.664 . S
Dy63 O77 2.326 . S
O64 Dy60 2.398 1_655 S
O64 C62 1.185 . S
O65 Dy60 2.491 1_655 S
O65 C62 1.355 . S
O66 Dy60 2.403 . S
O66 C68 1.254 . S
O67 Dy60 2.664 . S
O67 Dy63 2.310 . S
O67 C68 1.268 . S
C68 O66 1.254 . S
C68 O67 1.268 . S
C69 O74 1.254 . S
C69 O75 1.268 . S
O70 Dy63 2.351 . S
O70 C78 1.249 . S
O71 Dy60 2.326 . S
O71 C78 1.267 . S
O72 C61 1.185 . S
O72 Dy63 2.398 . S
O73 C61 1.355 . S
O73 Dy63 2.491 . S
O74 Dy63 2.403 . S
O74 C69 1.254 . S
O75 Dy60 2.310 . S
O75 Dy63 2.664 . S
O75 C69 1.268 . S
O76 Dy60 2.351 . S
O76 C79 1.249 . S
O77 Dy63 2.326 . S
O77 C79 1.267 . S
C78 O70 1.249 . S
C78 O71 1.267 . S
C79 O76 1.249 . S
C79 O77 1.267 . S
Dy80 O84 2.398 1_565 S
Dy80 O85 2.491 1_565 S
Dy80 O86 2.403 . S
Dy80 O87 2.664 . S
Dy80 O91 2.326 . S
Dy80 O95 2.310 . S
Dy80 O96 2.351 . S
C81 O92 1.185 . S
C81 O93 1.355 . S
C82 O84 1.185 . S
C82 O85 1.355 . S
Dy83 O87 2.310 . S
Dy83 O90 2.351 . S
Dy83 O92 2.398 . S
Dy83 O93 2.491 . S
Dy83 O94 2.403 . S
Dy83 O95 2.664 . S
Dy83 O97 2.326 . S
O84 Dy80 2.398 1_545 S
O84 C82 1.185 . S
O85 Dy80 2.491 1_545 S
O85 C82 1.355 . S
O86 Dy80 2.403 . S
O86 C88 1.254 . S
O87 Dy80 2.664 . S
O87 Dy83 2.310 . S
O87 C88 1.268 . S
C88 O86 1.254 . S
C88 O87 1.268 . S
C89 O94 1.254 . S
C89 O95 1.268 . S
O90 Dy83 2.351 . S
O90 C98 1.249 . S
O91 Dy80 2.326 . S
O91 C98 1.267 . S
O92 C81 1.185 . S
O92 Dy83 2.398 . S
O93 C81 1.355 . S
O93 Dy83 2.491 . S
O94 Dy83 2.403 . S
O94 C89 1.254 . S
O95 Dy80 2.310 . S
O95 Dy83 2.664 . S
O95 C89 1.268 . S
O96 Dy80 2.351 . S
O96 C99 1.249 . S
O97 Dy83 2.326 . S
O97 C99 1.267 . S
C98 O90 1.249 . S
C98 O91 1.267 . S
C99 O96 1.249 . S
C99 O97 1.267 . S
Dy100 O104 2.398 . S
Dy100 O105 2.491 . S
Dy100 O106 2.403 . S
Dy100 O107 2.664 . S
Dy100 O111 2.326 . S
Dy100 O115 2.310 . S
Dy100 O116 2.351 . S
C101 O112 1.185 . S
C101 O113 1.355 . S
C102 O104 1.185 . S
C102 O105 1.355 . S
Dy103 O107 2.310 . S
Dy103 O110 2.351 . S
Dy103 O112 2.398 . S
Dy103 O113 2.491 . S
Dy103 O114 2.403 . S
Dy103 O115 2.664 . S
Dy103 O117 2.326 . S
O104 Dy100 2.398 . S
O104 C102 1.185 . S
O105 Dy100 2.491 . S
O105 C102 1.355 . S
O106 Dy100 2.403 . S
O106 C108 1.254 . S
O107 Dy100 2.664 . S
O107 Dy103 2.310 . S
O107 C108 1.268 . S
C108 O106 1.254 . S
C108 O107 1.268 . S
C109 O114 1.254 . S
C109 O115 1.268 . S
O110 Dy103 2.351 . S
O110 C118 1.249 . S
O111 Dy100 2.326 . S
O111 C118 1.267 . S
O112 C101 1.185 . S
O112 Dy103 2.398 . S
O113 C101 1.355 . S
O113 Dy103 2.491 . S
O114 Dy103 2.403 . S
O114 C109 1.254 . S
O115 Dy100 2.310 . S
O115 Dy103 2.664 . S
O115 C109 1.268 . S
O116 Dy100 2.351 . S
O116 C119 1.249 . S
O117 Dy103 2.326 . S
O117 C119 1.267 . S
C118 O110 1.249 . S
C118 O111 1.267 . S
C119 O116 1.249 . S
C119 O117 1.267 . S
H120 C128 0.950 . S
H121 C133 0.950 . S
H122 C130 0.950 1_545 S
H123 C132 0.950 1_554 S
H124 C134 0.950 . S
H125 C136 0.950 . S
H126 C138 0.950 1_556 S
H127 C139 0.950 . S
C128 H120 0.950 . S
C128 C129 1.386 . S
C128 C130 1.391 . S
C129 C128 1.386 . S
C129 C133 1.393 . S
C130 H122 0.950 1_565 S
C130 C128 1.391 . S
C130 C131 1.400 . S
C131 C130 1.400 . S
C131 C132 1.398 . S
C131 C137 1.491 1_566 S
C132 H123 0.950 1_556 S
C132 C131 1.398 . S
C132 C133 1.391 . S
C133 H121 0.950 . S
C133 C129 1.393 . S
C133 C132 1.391 . S
C134 H124 0.950 . S
C134 C135 1.386 . S
C134 C136 1.391 1_545 S
C135 C134 1.386 . S
C135 C139 1.393 . S
C136 H125 0.950 . S
C136 C134 1.391 1_565 S
C136 C137 1.400 1_565 S
C137 C131 1.491 1_544 S
C137 C136 1.400 1_545 S
C137 C138 1.398 . S
C138 H126 0.950 1_554 S
C138 C137 1.398 . S
C138 C139 1.391 . S
C139 H127 0.950 . S
C139 C135 1.393 . S
C139 C138 1.391 . S
H140 C148 0.950 . S
H141 C153 0.950 . S
H142 C150 0.950 . S
H143 C152 0.950 . S
H144 C154 0.950 . S
H145 C156 0.950 . S
H146 C158 0.950 . S
H147 C159 0.950 . S
C148 H140 0.950 . S
C148 C149 1.386 . S
C148 C150 1.391 . S
C149 C148 1.386 . S
C149 C153 1.393 . S
C150 H142 0.950 . S
C150 C148 1.391 . S
C150 C151 1.400 . S
C151 C150 1.400 . S
C151 C152 1.398 . S
C151 C157 1.491 . S
C152 H143 0.950 . S
C152 C151 1.398 . S
C152 C153 1.391 . S
C153 H141 0.950 . S
C153 C149 1.393 . S
C153 C152 1.391 . S
C154 H144 0.950 . S
C154 C155 1.386 . S
C154 C156 1.391 . S
C155 C154 1.386 . S
C155 C159 1.393 . S
C156 H145 0.950 . S
C156 C154 1.391 . S
C156 C157 1.400 . S
C157 C151 1.491 . S
C157 C156 1.400 . S
C157 C158 1.398 . S
C158 H146 0.950 . S
C158 C157 1.398 . S
C158 C159 1.391 . S
C159 H147 0.950 . S
C159 C155 1.393 . S
C159 C158 1.391 . S
H160 C168 0.950 . S
H161 C173 0.950 . S
H162 C170 0.950 . S
H163 C172 0.950 1_556 S
H164 C174 0.950 . S
H165 C176 0.959 . S
H166 C178 0.950 1_554 S
H167 C179 0.950 . S
C168 H160 0.950 . S
C168 C169 1.386 . S
C168 C170 1.391 1_655 S
C169 C168 1.386 . S
C169 C173 1.393 . S
C170 H162 0.950 . S
C170 C168 1.391 1_455 S
C170 C171 1.400 1_455 S
C171 C170 1.400 1_655 S
C171 C172 1.398 . S
C171 C177 1.491 1_654 S
C172 H163 0.950 1_554 S
C172 C171 1.398 . S
C172 C173 1.391 . S
C173 H161 0.950 . S
C173 C169 1.393 . S
C173 C172 1.391 . S
C174 H164 0.950 . S
C174 C175 1.386 . S
C174 C176 1.387 1_455 S
C175 C174 1.386 . S
C175 C179 1.393 . S
C176 H165 0.959 . S
C176 C174 1.387 1_655 S
C176 C177 1.396 1_655 S
C177 C171 1.491 1_456 S
C177 C176 1.396 1_455 S
C177 C178 1.398 . S
C178 H166 0.950 1_556 S
C178 C177 1.398 . S
C178 C179 1.391 . S
C179 H167 0.950 . S
C179 C175 1.393 . S
C179 C178 1.391 . S
H180 C188 0.950 . S
H181 C193 0.950 . S
H182 C190 0.950 . S
H183 C192 0.950 1_565 S
H184 C194 0.950 . S
H185 C196 0.950 . S
H186 C198 0.950 1_545 S
H187 C199 0.950 . S
C188 H180 0.950 . S
C188 C189 1.386 . S
C188 C190 1.391 . S
C189 C188 1.386 . S
C189 C193 1.393 . S
C190 H182 0.950 . S
C190 C188 1.391 . S
C190 C191 1.400 . S
C191 C190 1.400 . S
C191 C192 1.398 . S
C191 C197 1.491 1_545 S
C192 H183 0.950 1_545 S
C192 C191 1.398 . S
C192 C193 1.391 . S
C193 H181 0.950 . S
C193 C189 1.393 . S
C193 C192 1.391 . S
C194 H184 0.950 . S
C194 C195 1.386 . S
C194 C196 1.391 . S
C195 C194 1.386 . S
C195 C199 1.393 . S
C196 H185 0.950 . S
C196 C194 1.391 . S
C196 C197 1.400 . S
C197 C191 1.491 1_565 S
C197 C196 1.400 . S
C197 C198 1.398 . S
C198 H186 0.950 1_565 S
C198 C197 1.398 . S
C198 C199 1.391 . S
C199 H187 0.950 . S
C199 C195 1.393 . S
C199 C198 1.391 . S
H200 C208 0.950 . S
H201 C213 0.950 . S
H202 C210 0.950 1_554 S
H203 C212 0.950 . S
H204 C214 0.950 . S
H205 C216 0.950 1_556 S
H206 C218 0.950 . S
H207 C219 0.950 . S
C208 H200 0.950 . S
C208 C209 1.386 . S
C208 C210 1.391 . S
C209 C208 1.386 . S
C209 C213 1.393 . S
C210 H202 0.950 1_556 S
C210 C208 1.391 . S
C210 C211 1.400 . S
C211 C210 1.400 . S
C211 C212 1.398 . S
C211 C217 1.491 1_556 S
C212 H203 0.950 . S
C212 C211 1.398 . S
C212 C213 1.391 . S
C213 H201 0.950 . S
C213 C209 1.393 . S
C213 C212 1.391 . S
C214 H204 0.950 . S
C214 C215 1.386 . S
C214 C216 1.391 . S
C215 C214 1.386 . S
C215 C219 1.393 . S
C216 H205 0.950 1_554 S
C216 C214 1.391 . S
C216 C217 1.400 . S
C217 C211 1.491 1_554 S
C217 C216 1.400 . S
C217 C218 1.398 . S
C218 H206 0.950 . S
C218 C217 1.398 . S
C218 C219 1.391 . S
C219 H207 0.950 . S
C219 C215 1.393 . S
C219 C218 1.391 . S
H220 C228 0.950 . S
H221 C233 0.950 . S
H222 C230 0.950 . S
H223 C232 0.950 . S
H224 C234 0.950 . S
H225 C236 0.950 . S
H226 C238 0.950 . S
H227 C239 0.950 . S
C228 H220 0.950 . S
C228 C229 1.386 . S
C228 C230 1.391 . S
C229 C228 1.386 . S
C229 C233 1.393 . S
C230 H222 0.950 . S
C230 C228 1.391 . S
C230 C231 1.400 . S
C231 C230 1.400 . S
C231 C232 1.398 . S
C231 C237 1.491 1_655 S
C232 H223 0.950 . S
C232 C231 1.398 . S
C232 C233 1.391 . S
C233 H221 0.950 . S
C233 C229 1.393 . S
C233 C232 1.391 . S
C234 H224 0.950 . S
C234 C235 1.386 . S
C234 C236 1.391 . S
C235 C234 1.386 . S
C235 C239 1.393 . S
C236 H225 0.950 . S
C236 C234 1.391 . S
C236 C237 1.400 . S
C237 C231 1.491 1_455 S
C237 C236 1.400 . S
C237 C238 1.398 . S
C238 H226 0.950 . S
C238 C237 1.398 . S
C238 C239 1.391 . S
C239 H227 0.950 . S
C239 C235 1.393 . S
C239 C238 1.391 . S
H240 C248 0.950 . S
H241 C253 0.950 . S
H242 C250 0.950 . S
H243 C252 0.950 . S
H244 C254 0.950 . S
H245 C256 0.950 . S
H246 C258 0.950 . S
H247 C259 0.950 . S
C248 H240 0.950 . S
C248 C249 1.386 . S
C248 C250 1.391 . S
C249 C248 1.386 . S
C249 C253 1.393 . S
C250 H242 0.950 . S
C250 C248 1.391 . S
C250 C251 1.400 . S
C251 C250 1.400 . S
C251 C252 1.398 . S
C251 C257 1.491 . S
C252 H243 0.950 . S
C252 C251 1.398 . S
C252 C253 1.391 . S
C253 H241 0.950 . S
C253 C249 1.393 . S
C253 C252 1.391 . S
C254 H244 0.950 . S
C254 C255 1.386 . S
C254 C256 1.391 . S
C255 C254 1.386 . S
C255 C259 1.393 . S
C256 H245 0.950 . S
C256 C254 1.391 . S
C256 C257 1.400 . S
C257 C251 1.491 . S
C257 C256 1.400 . S
C257 C258 1.398 . S
C258 H246 0.950 . S
C258 C257 1.398 . S
C258 C259 1.391 . S
C259 H247 0.950 . S
C259 C255 1.393 . S
C259 C258 1.391 . S
H260 C268 0.950 . S
H261 C273 0.950 . S
H262 C270 0.950 . S
H263 C272 0.950 . S
H264 C274 0.950 . S
H265 C276 0.950 . S
H266 C278 0.950 . S
H267 C279 0.950 . S
C268 H260 0.950 . S
C268 C269 1.386 . S
C268 C270 1.391 . S
C269 C268 1.386 . S
C269 C273 1.393 . S
C270 H262 0.950 . S
C270 C268 1.391 . S
C270 C271 1.400 . S
C271 C270 1.400 . S
C271 C272 1.398 . S
C271 C277 1.491 . S
C272 H263 0.950 . S
C272 C271 1.398 . S
C272 C273 1.391 . S
C273 H261 0.950 . S
C273 C269 1.393 . S
C273 C272 1.391 . S
C274 H264 0.950 . S
C274 C275 1.386 . S
C274 C276 1.391 . S
C275 C274 1.386 . S
C275 C279 1.393 . S
C276 H265 0.950 . S
C276 C274 1.391 . S
C276 C277 1.400 . S
C277 C271 1.491 . S
C277 C276 1.400 . S
C277 C278 1.398 . S
C278 H266 0.950 . S
C278 C277 1.398 . S
C278 C279 1.391 . S
C279 H267 0.950 . S
C279 C275 1.393 . S
C279 C278 1.391 . S
H280 C288 0.950 . S
H281 C293 0.950 . S
H282 C290 0.950 . S
H283 C292 0.950 . S
H284 C294 0.950 . S
H285 C296 0.950 . S
H286 C298 0.950 . S
H287 C299 0.950 . S
C288 H280 0.950 . S
C288 C289 1.386 . S
C288 C290 1.391 . S
C289 C288 1.386 . S
C289 C293 1.393 . S
C290 H282 0.950 . S
C290 C288 1.391 . S
C290 C291 1.400 . S
C291 C290 1.400 . S
C291 C292 1.398 . S
C291 C297 1.491 . S
C292 H283 0.950 . S
C292 C291 1.398 . S
C292 C293 1.391 . S
C293 H281 0.950 . S
C293 C289 1.393 . S
C293 C292 1.391 . S
C294 H284 0.950 . S
C294 C295 1.386 . S
C294 C296 1.391 . S
C295 C294 1.386 . S
C295 C299 1.393 . S
C296 H285 0.950 . S
C296 C294 1.391 . S
C296 C297 1.400 . S
C297 C291 1.491 . S
C297 C296 1.400 . S
C297 C298 1.398 . S
C298 H286 0.950 . S
C298 C297 1.398 . S
C298 C299 1.391 . S
C299 H287 0.950 . S
C299 C295 1.393 . S
C299 C298 1.391 . S
H300 C308 0.950 . S
H301 C313 0.950 . S
H302 C310 0.950 . S
H303 C312 0.950 . S
H304 C314 0.950 . S
H305 C316 0.950 . S
H306 C318 0.950 . S
H307 C319 0.950 . S
C308 H300 0.950 . S
C308 C309 1.386 . S
C308 C310 1.391 . S
C309 C308 1.386 . S
C309 C313 1.393 . S
C310 H302 0.950 . S
C310 C308 1.391 . S
C310 C311 1.400 . S
C311 C310 1.400 . S
C311 C312 1.398 . S
C311 C317 1.491 . S
C312 H303 0.950 . S
C312 C311 1.398 . S
C312 C313 1.391 . S
C313 H301 0.950 . S
C313 C309 1.393 . S
C313 C312 1.391 . S
C314 H304 0.950 . S
C314 C315 1.386 . S
C314 C316 1.391 . S
C315 C314 1.386 . S
C315 C319 1.393 . S
C316 H305 0.950 . S
C316 C314 1.391 . S
C316 C317 1.400 . S
C317 C311 1.491 . S
C317 C316 1.400 . S
C317 C318 1.398 . S
C318 H306 0.950 . S
C318 C317 1.398 . S
C318 C319 1.391 . S
C319 H307 0.950 . S
C319 C315 1.393 . S
C319 C318 1.391 . S
H320 C328 0.950 . S
H321 C333 0.950 . S
H322 C330 0.950 . S
H323 C332 0.950 . S
H324 C334 0.950 . S
H325 C336 0.950 . S
H326 C338 0.950 . S
H327 C339 0.950 . S
C328 H320 0.950 . S
C328 C329 1.386 . S
C328 C330 1.391 . S
C329 C328 1.386 . S
C329 C333 1.393 . S
C330 H322 0.950 . S
C330 C328 1.391 . S
C330 C331 1.400 . S
C331 C330 1.400 . S
C331 C332 1.398 . S
C331 C337 1.491 . S
C332 H323 0.950 . S
C332 C331 1.398 . S
C332 C333 1.391 . S
C333 H321 0.950 . S
C333 C329 1.393 . S
C333 C332 1.391 . S
C334 H324 0.950 . S
C334 C335 1.386 . S
C334 C336 1.391 . S
C335 C334 1.386 . S
C335 C339 1.393 . S
C336 H325 0.950 . S
C336 C334 1.391 . S
C336 C337 1.400 . S
C337 C331 1.491 . S
C337 C336 1.400 . S
C337 C338 1.398 . S
C338 H326 0.950 . S
C338 C337 1.398 . S
C338 C339 1.391 . S
C339 H327 0.950 . S
C339 C335 1.393 . S
C339 C338 1.391 . S
H340 C348 0.950 . S
H341 C353 0.950 . S
H342 C350 0.950 . S
H343 C352 0.950 . S
H344 C354 0.950 . S
H345 C356 0.950 . S
H346 C358 0.950 . S
H347 C359 0.950 . S
C348 H340 0.950 . S
C348 C349 1.386 . S
C348 C350 1.391 . S
C349 C348 1.386 . S
C349 C353 1.393 . S
C350 H342 0.950 . S
C350 C348 1.391 . S
C350 C351 1.400 . S
C351 C350 1.400 . S
C351 C352 1.398 . S
C351 C357 1.491 . S
C352 H343 0.950 . S
C352 C351 1.398 . S
C352 C353 1.391 . S
C353 H341 0.950 . S
C353 C349 1.393 . S
C353 C352 1.391 . S
C354 H344 0.950 . S
C354 C355 1.386 . S
C354 C356 1.391 . S
C355 C354 1.386 . S
C355 C359 1.393 . S
C356 H345 0.950 . S
C356 C354 1.391 . S
C356 C357 1.400 . S
C357 C351 1.491 . S
C357 C356 1.400 . S
C357 C358 1.398 . S
C358 H346 0.950 . S
C358 C357 1.398 . S
C358 C359 1.391 . S
C359 H347 0.950 . S
C359 C355 1.393 . S
C359 C358 1.391 . S
H360 C368 0.950 . S
H361 C373 0.950 . S
H362 C370 0.950 . S
H363 C372 0.950 . S
H364 C374 0.950 . S
H365 C376 0.950 . S
H366 C378 0.950 . S
H367 C379 0.950 . S
C368 H360 0.950 . S
C368 C369 1.386 . S
C368 C370 1.391 . S
C369 C368 1.386 . S
C369 C373 1.393 . S
C370 H362 0.950 . S
C370 C368 1.391 . S
C370 C371 1.400 . S
C371 C370 1.400 . S
C371 C372 1.398 . S
C371 C377 1.491 . S
C372 H363 0.950 . S
C372 C371 1.398 . S
C372 C373 1.391 . S
C373 H361 0.950 . S
C373 C369 1.393 . S
C373 C372 1.391 . S
C374 H364 0.950 . S
C374 C375 1.386 1_655 S
C374 C376 1.391 1_655 S
C375 C374 1.386 1_455 S
C375 C379 1.393 . S
C376 H365 0.950 . S
C376 C374 1.391 1_455 S
C376 C377 1.400 . S
C377 C371 1.491 . S
C377 C376 1.400 . S
C377 C378 1.398 . S
C378 H366 0.950 . S
C378 C377 1.398 . S
C378 C379 1.391 . S
C379 H367 0.950 . S
C379 C375 1.393 . S
C379 C378 1.391 . S
H380 C388 0.950 . S
H381 C393 0.950 . S
H382 C390 0.950 . S
H383 C392 0.950 . S
H384 C394 0.950 . S
H385 C396 0.950 . S
H386 C398 0.950 . S
H387 C399 0.966 . S
C388 H380 0.950 . S
C388 C389 1.386 . S
C388 C390 1.391 1_655 S
C389 C388 1.386 . S
C389 C393 1.393 . S
C390 H382 0.950 . S
C390 C388 1.391 1_455 S
C390 C391 1.400 . S
C391 C390 1.400 . S
C391 C392 1.398 . S
C391 C397 1.491 . S
C392 H383 0.950 . S
C392 C391 1.398 . S
C392 C393 1.391 1_455 S
C393 H381 0.950 . S
C393 C389 1.393 . S
C393 C392 1.391 1_655 S
C394 H384 0.950 . S
C394 C395 1.386 . S
C394 C396 1.391 . S
C395 C394 1.386 . S
C395 C399 1.379 1_565 S
C396 H385 0.950 . S
C396 C394 1.391 . S
C396 C397 1.400 . S
C397 C391 1.491 . S
C397 C396 1.400 . S
C397 C398 1.398 . S
C398 H386 0.950 . S
C398 C397 1.398 . S
C398 C399 1.388 1_565 S
C399 H387 0.966 . S
C399 C395 1.379 1_545 S
C399 C398 1.388 1_545 S
H400 C408 0.950 . S
H401 C413 0.950 . S
H402 C410 0.950 . S
H403 C412 0.950 . S
H404 C414 0.950 . S
H405 C416 0.950 . S
H406 C418 0.950 . S
H407 C419 0.950 . S
C408 H400 0.950 . S
C408 C409 1.386 . S
C408 C410 1.391 1_545 S
C409 C408 1.386 . S
C409 C413 1.393 . S
C410 H402 0.950 . S
C410 C408 1.391 1_565 S
C410 C411 1.400 . S
C411 C410 1.400 . S
C411 C412 1.398 . S
C411 C417 1.491 . S
C412 H403 0.950 . S
C412 C411 1.398 . S
C412 C413 1.391 1_565 S
C413 H401 0.950 . S
C413 C409 1.393 . S
C413 C412 1.391 1_545 S
C414 H404 0.950 . S
C414 C415 1.386 . S
C414 C416 1.391 . S
C415 C414 1.386 . S
C415 C419 1.393 . S
C416 H405 0.950 . S
C416 C414 1.391 . S
C416 C417 1.400 . S
C417 C411 1.491 . S
C417 C416 1.400 . S
C417 C418 1.398 . S
C418 H406 0.950 . S
C418 C417 1.398 . S
C418 C419 1.391 . S
C419 H407 0.950 . S
C419 C415 1.393 . S
C419 C418 1.391 . S
H420 C428 0.950 . S
H421 C433 0.950 . S
H422 C430 0.950 . S
H423 C432 0.950 . S
H424 C434 0.950 . S
H425 C436 0.950 . S
H426 C438 0.950 . S
H427 C439 0.950 . S
C428 H420 0.950 . S
C428 C429 1.386 . S
C428 C430 1.391 . S
C429 C428 1.386 . S
C429 C433 1.393 . S
C430 H422 0.950 . S
C430 C428 1.391 . S
C430 C431 1.400 . S
C431 C430 1.400 . S
C431 C432 1.398 . S
C431 C437 1.491 . S
C432 H423 0.950 . S
C432 C431 1.398 . S
C432 C433 1.391 . S
C433 H421 0.950 . S
C433 C429 1.393 . S
C433 C432 1.391 . S
C434 H424 0.950 . S
C434 C435 1.386 . S
C434 C436 1.391 . S
C435 C434 1.386 . S
C435 C439 1.393 . S
C436 H425 0.950 . S
C436 C434 1.391 . S
C436 C437 1.400 . S
C437 C431 1.491 . S
C437 C436 1.400 . S
C437 C438 1.398 . S
C438 H426 0.950 . S
C438 C437 1.398 . S
C438 C439 1.391 . S
C439 H427 0.950 . S
C439 C435 1.393 . S
C439 C438 1.391 . S
H440 C448 0.950 . S
H441 C453 0.950 . S
H442 C450 0.950 . S
H443 C452 0.950 . S
H444 C454 0.950 . S
H445 C456 0.950 . S
H446 C458 0.950 . S
H447 C459 0.950 . S
C448 H440 0.950 . S
C448 C449 1.386 . S
C448 C450 1.391 . S
C449 C448 1.386 . S
C449 C453 1.393 . S
C450 H442 0.950 . S
C450 C448 1.391 . S
C450 C451 1.400 . S
C451 C450 1.400 . S
C451 C452 1.398 . S
C451 C457 1.491 1_455 S
C452 H443 0.950 . S
C452 C451 1.398 . S
C452 C453 1.391 . S
C453 H441 0.950 . S
C453 C449 1.393 . S
C453 C452 1.391 . S
C454 H444 0.950 . S
C454 C455 1.386 . S
C454 C456 1.391 . S
C455 C454 1.386 . S
C455 C459 1.393 . S
C456 H445 0.950 . S
C456 C454 1.391 . S
C456 C457 1.400 . S
C457 C451 1.491 1_655 S
C457 C456 1.400 . S
C457 C458 1.398 . S
C458 H446 0.950 . S
C458 C457 1.398 . S
C458 C459 1.391 . S
C459 H447 0.950 . S
C459 C455 1.393 . S
C459 C458 1.391 . S
H460 C468 0.950 . S
H461 C473 0.950 . S
H462 C470 0.950 . S
H463 C472 0.950 . S
H464 C474 0.950 . S
H465 C476 0.950 . S
H466 C478 0.950 . S
H467 C479 0.950 . S
C468 H460 0.950 . S
C468 C469 1.386 . S
C468 C470 1.391 . S
C469 C468 1.386 . S
C469 C473 1.393 . S
C470 H462 0.950 . S
C470 C468 1.391 . S
C470 C471 1.400 . S
C471 C470 1.400 . S
C471 C472 1.398 . S
C471 C477 1.491 1_545 S
C472 H463 0.950 . S
C472 C471 1.398 . S
C472 C473 1.391 . S
C473 H461 0.950 . S
C473 C469 1.393 . S
C473 C472 1.391 . S
C474 H464 0.950 . S
C474 C475 1.386 . S
C474 C476 1.391 . S
C475 C474 1.386 . S
C475 C479 1.393 . S
C476 H465 0.950 . S
C476 C474 1.391 . S
C476 C477 1.400 . S
C477 C471 1.491 1_565 S
C477 C476 1.400 . S
C477 C478 1.398 . S
C478 H466 0.950 . S
C478 C477 1.398 . S
C478 C479 1.391 . S
C479 H467 0.950 . S
C479 C475 1.393 . S
C479 C478 1.391 . S
C129 C88 1.945 . S
C135 C9 2.188 . S
C149 C109 2.174 . S
C155 C28 1.950 . S
C169 C49 2.180 . S
C175 C68 1.960 . S
C189 C8 1.954 . S
C195 C89 2.173 . S
C209 C108 1.957 . S
C215 C29 2.178 . S
C229 C48 1.977 . S
C235 C69 2.176 . S
C249 C2 1.703 . S
C255 C58 1.662 . S
C269 C22 1.707 . S
C275 C18 1.654 . S
C289 C42 1.705 . S
C295 C38 1.664 . S
C309 C79 1.678 . S
C315 C81 1.593 . S
C329 C99 1.672 . S
C335 C101 1.590 . S
C349 C61 1.618 . S
C355 C119 1.682 . S
C369 C1 0.992 . S
C375 C59 1.046 1_455 S
C389 C21 0.985 . S
C395 C19 1.029 1_565 S
C409 C41 1.025 . S
C415 C39 1.054 . S
C429 C78 1.019 . S
C435 C82 1.050 . S
C449 C98 1.036 . S
C455 C102 1.051 . S
C469 C62 1.058 . S
C475 C118 1.015 . S
