# Generated by pormake.
# Topology zfs, (5)-cn, num edge types: 1
# Building blocks:
#     Node 0, Type 0, BuildingBlock: XOMCOT_clean_sbu_1, # of connection points: 5
#     Node 1, Type 0, BuildingBlock: XOMCOT_clean_sbu_1, # of connection points: 5
#     Node 2, Type 0, BuildingBlock: XOMCOT_clean_sbu_1, # of connection points: 5
#     Node 3, Type 0, BuildingBlock: XOMCOT_clean_sbu_1, # of connection points: 5
#     Node 4, Type 0, BuildingBlock: XOMCOT_clean_sbu_1, # of connection points: 5
#     Node 5, Type 0, BuildingBlock: XOMCOT_clean_sbu_1, # of connection points: 5
#     Node 6, Type 0, BuildingBlock: XOMCOT_clean_sbu_1, # of connection points: 5
#     Node 7, Type 0, BuildingBlock: XOMCOT_clean_sbu_1, # of connection points: 5
#     Edge 8, Type (0, 0), BuildingBlock: TEMPAE_clean_linker_10, # of connection points: 2
#     Edge 9, Type (0, 0), BuildingBlock: TEMPAE_clean_linker_10, # of connection points: 2
#     Edge 10, Type (0, 0), BuildingBlock: TEMPAE_clean_linker_10, # of connection points: 2
#     Edge 11, Type (0, 0), BuildingBlock: TEMPAE_clean_linker_10, # of connection points: 2
#     Edge 12, Type (0, 0), BuildingBlock: TEMPAE_clean_linker_10, # of connection points: 2
#     Edge 13, Type (0, 0), BuildingBlock: TEMPAE_clean_linker_10, # of connection points: 2
#     Edge 14, Type (0, 0), BuildingBlock: TEMPAE_clean_linker_10, # of connection points: 2
#     Edge 15, Type (0, 0), BuildingBlock: TEMPAE_clean_linker_10, # of connection points: 2
#     Edge 16, Type (0, 0), BuildingBlock: TEMPAE_clean_linker_10, # of connection points: 2
#     Edge 17, Type (0, 0), BuildingBlock: TEMPAE_clean_linker_10, # of connection points: 2
#     Edge 18, Type (0, 0), BuildingBlock: TEMPAE_clean_linker_10, # of connection points: 2
#     Edge 19, Type (0, 0), BuildingBlock: TEMPAE_clean_linker_10, # of connection points: 2
#     Edge 20, Type (0, 0), BuildingBlock: TEMPAE_clean_linker_10, # of connection points: 2
#     Edge 21, Type (0, 0), BuildingBlock: TEMPAE_clean_linker_10, # of connection points: 2
#     Edge 22, Type (0, 0), BuildingBlock: TEMPAE_clean_linker_10, # of connection points: 2
#     Edge 23, Type (0, 0), BuildingBlock: TEMPAE_clean_linker_10, # of connection points: 2
#     Edge 24, Type (0, 0), BuildingBlock: TEMPAE_clean_linker_10, # of connection points: 2
#     Edge 25, Type (0, 0), BuildingBlock: TEMPAE_clean_linker_10, # of connection points: 2
#     Edge 26, Type (0, 0), BuildingBlock: TEMPAE_clean_linker_10, # of connection points: 2
#     Edge 27, Type (0, 0), BuildingBlock: TEMPAE_clean_linker_10, # of connection points: 2
# Relax obj value: 0.145
# Max RMSD: 0.154
# Mean RMSD: 0.154
data_MOF--net-zfs--node1-XOMCOT_clean_sbu_1--edge1-TEMPAE_clean_linker_10
_symmetry_space_group_name_H-M    P1
_symmetry_Int_Tables_number       1
_symmetry_cell_setting            triclinic
loop_
_symmetry_equiv_pos_as_xyz
'x, y, z'
_cell_length_a     34.915673
_cell_length_b     34.96969
_cell_length_c     40.988627
_cell_angle_alpha  90.05934
_cell_angle_beta   89.995605
_cell_angle_gamma 89.996666
loop_
_atom_site_label
_atom_site_type_symbol
_atom_site_fract_x
_atom_site_fract_y
_atom_site_fract_z
_atom_type_partial_charge
C0 C 0.1086 0.26663 0.22757 0.0
C1 C 0.13423 0.2601 0.25238 0.0
N2 N 0.12078 0.23093 0.27043 0.0
N3 N 0.07946 0.2415 0.23009 0.0
C4 C 0.08766 0.22006 0.25641 0.0
H5 H 0.11111 0.28799 0.20862 0.0
Co6 Co 0.03969 0.23753 0.20086 0.0
C7 C 0.97578 0.22202 0.24783 0.0
O8 O 0.95725 0.25253 0.23783 0.0
N9 N 1.00169 0.23302 0.16971 0.0
C10 C 0.95654 0.21359 0.1352 0.0
C11 C 0.96621 0.21775 0.1677 0.0
C12 C 0.01293 0.23728 0.13858 0.0
N13 N 0.98639 0.22552 0.11706 0.0
O14 O 0.05833 0.18811 0.18669 0.0
H15 H 0.94961 0.20707 0.18792 0.0
H16 H 0.04122 0.24729 0.13202 0.0
O17 O 1.00755 0.21259 0.23448 0.0
C18 C 0.08929 0.18786 0.17015 0.0
O19 O 0.10805 0.22001 0.16596 0.0
N20 N 0.02337 0.28767 0.21293 0.0
C21 C 0.01222 0.36523 0.22767 0.0
C22 C 0.0166 0.33813 0.25261 0.0
C23 C 0.02248 0.29962 0.24475 0.0
C24 C 0.01938 0.31384 0.18846 0.0
C25 C 0.01323 0.35249 0.19526 0.0
H26 H 0.02739 0.27952 0.26433 0.0
H27 H 0.02279 0.30545 0.16335 0.0
H28 H 0.07028 0.19635 0.26471 0.0
H29 H 0.16054 0.27559 0.25694 0.0
H30 H 0.93086 0.20023 0.12576 0.0
H31 H 0.01622 0.3467 0.27801 0.0
H32 H 0.0112 0.37251 0.17519 0.0
C33 C 0.73834 0.10124 0.48719 0.0
C34 C 0.74288 0.12568 0.51324 0.0
N35 N 0.77732 0.1187 0.52678 0.0
N36 N 0.76953 0.07866 0.48485 0.0
C37 C 0.79295 0.09026 0.50901 0.0
H38 H 0.71385 0.09976 0.47107 0.0
Co39 Co 0.77809 0.04103 0.45408 0.0
C40 C 0.80426 0.97607 0.49486 0.0
O41 O 0.77983 0.95415 0.47916 0.0
N42 N 0.78764 1.00506 0.42132 0.0
C43 C 0.82271 0.97317 0.38488 0.0
C44 C 0.81687 0.98001 0.41762 0.0
C45 C 0.77693 0.01331 0.39053 0.0
N46 N 0.79791 0.99483 0.36788 0.0
O47 O 0.82365 0.06739 0.43947 0.0
H48 H 0.83643 0.97138 0.43663 0.0
H49 H 0.75706 0.03601 0.38485 0.0
O50 O 0.80753 0.01127 0.48671 0.0
C51 C 0.8149 0.09269 0.41829 0.0
O52 O 0.77841 0.10028 0.41375 0.0
N53 N 0.73102 0.01706 0.46659 0.0
C54 C 0.65539 0.99854 0.48346 0.0
C55 C 0.68351 1.00294 0.50761 0.0
C56 C 0.72118 0.01207 0.49867 0.0
C57 C 0.70384 0.01232 0.44296 0.0
C58 C 0.66624 1.00239 0.45079 0.0
H59 H 0.74186 0.01751 0.51775 0.0
H60 H 0.71008 0.01858 0.41792 0.0
H61 H 0.82079 0.07781 0.51369 0.0
H62 H 0.7227 0.14719 0.52134 0.0
H63 H 0.84628 0.95715 0.37449 0.0
H64 H 0.67618 1.00061 0.5332 0.0
H65 H 0.64521 1.00028 0.43143 0.0
C66 C 0.90603 0.74244 0.73805 0.0
C67 C 0.88352 0.74781 0.76519 0.0
N68 N 0.89526 0.78 0.7802 0.0
N69 N 0.93216 0.77078 0.73643 0.0
C70 C 0.92457 0.79354 0.76219 0.0
H71 H 0.90384 0.71919 0.72072 0.0
Co72 Co 0.96942 0.77573 0.70461 0.0
C73 C 0.03644 0.79056 0.74896 0.0
O74 O 0.05441 0.76021 0.73787 0.0
N75 N 1.00488 0.78143 0.67122 0.0
C76 C 0.04916 0.79999 0.63558 0.0
C77 C 0.04098 0.79491 0.66824 0.0
C78 C 0.99175 0.77926 0.6404 0.0
N79 N 0.01785 0.79044 0.61821 0.0
O80 O 0.94962 0.82544 0.69243 0.0
H81 H 0.05944 0.80334 0.68804 0.0
H82 H 0.96275 0.77068 0.6346 0.0
O83 O 1.00397 0.80007 0.73692 0.0
C84 C 0.91664 0.82753 0.6791 0.0
O85 O 0.89495 0.79687 0.6782 0.0
N86 N 0.98726 0.7252 0.7145 0.0
C87 C 1.00203 0.64739 0.72603 0.0
C88 C 0.99828 0.67325 0.75205 0.0
C89 C 0.99072 0.71191 0.7458 0.0
C90 C 0.99038 0.70016 0.68902 0.0
C91 C 0.99836 0.66147 0.69419 0.0
H92 H 0.98667 0.73105 0.76624 0.0
H93 H 0.98511 0.70954 0.6644 0.0
H94 H 0.94052 0.81924 0.76789 0.0
H95 H 0.86011 0.72977 0.77311 0.0
H96 H 0.07524 0.81195 0.6256 0.0
H97 H 1.00067 0.66361 0.77706 0.0
H98 H 0.99991 0.64239 0.6734 0.0
C99 C 0.2781 0.90976 0.98359 0.0
C100 C 0.2736 0.88544 0.00969 0.0
N101 N 0.23979 0.89345 0.02395 0.0
N102 N 0.24755 0.93328 0.98199 0.0
C103 C 0.22448 0.92232 0.00657 0.0
H104 H 0.30231 0.91075 0.96714 0.0
Co105 Co 0.23984 0.97218 0.95238 0.0
C106 C 0.21646 0.03647 0.99552 0.0
O107 O 0.24229 0.05809 0.98124 0.0
N108 N 0.23114 0.00994 0.92094 0.0
C109 C 0.20009 0.04895 0.88707 0.0
C110 C 0.20434 0.03783 0.91905 0.0
C111 C 0.24161 1.00404 0.8897 0.0
N112 N 0.22342 0.02727 0.86863 0.0
O113 O 0.19299 0.94817 0.93782 0.0
H114 H 0.18555 0.04662 0.93855 0.0
H115 H 0.25867 0.97982 0.8821 0.0
O116 O 0.212 1.00184 0.98606 0.0
C117 C 0.20049 0.92417 0.91521 0.0
O118 O 0.23662 0.91629 0.90918 0.0
N119 N 0.28818 0.99361 0.96459 0.0
C120 C 0.36498 0.00978 0.97982 0.0
C121 C 0.3372 1.0071 0.0045 0.0
C122 C 0.29903 0.9988 0.99642 0.0
C123 C 0.31508 0.99594 0.9405 0.0
C124 C 0.35322 1.00462 0.94746 0.0
H125 H 0.27864 0.99455 0.01592 0.0
H126 H 0.30796 0.98865 0.91579 0.0
H127 H 0.19731 0.93577 0.01208 0.0
H128 H 0.2935 0.86356 0.01754 0.0
H129 H 0.17927 0.06923 0.87796 0.0
H130 H 0.34506 0.01038 0.02991 0.0
H131 H 0.3738 1.005 0.92768 0.0
C132 C 0.11219 0.74476 0.26734 0.0
C133 C 0.13687 0.75024 0.24166 0.0
N134 N 0.1264 0.78248 0.22614 0.0
N135 N 0.08604 0.77316 0.26759 0.0
C136 C 0.0957 0.79599 0.24244 0.0
H137 H 0.11273 0.72123 0.28444 0.0
Co138 Co 0.0456 0.77704 0.29662 0.0
C139 C 0.98361 0.79726 0.24776 0.0
O140 O 0.96465 0.76578 0.25406 0.0
N141 N 1.00538 0.7809 0.32732 0.0
C142 C 0.95459 0.7696 0.35893 0.0
C143 C 0.96987 0.76531 0.32818 0.0
C144 C 0.01053 0.79469 0.35782 0.0
N145 N 0.98026 0.78836 0.3773 0.0
O146 O 0.06604 0.82536 0.31232 0.0
H147 H 0.95733 0.74789 0.30934 0.0
H148 H 0.03736 0.80572 0.36688 0.0
O149 O 0.01473 0.80471 0.26311 0.0
C150 C 0.09633 0.82163 0.32959 0.0
O151 O 0.11098 0.78722 0.3328 0.0
N152 N 0.02888 0.72782 0.28326 0.0
C153 C 0.01708 0.65044 0.26871 0.0
C154 C 0.02043 0.67762 0.24368 0.0
C155 C 0.02686 0.71609 0.25145 0.0
C156 C 0.02691 0.7015 0.30777 0.0
C157 C 0.02025 0.66293 0.30111 0.0
H158 H 0.03135 0.73631 0.23188 0.0
H159 H 0.03166 0.71028 0.33275 0.0
H160 H 0.08 0.82147 0.23568 0.0
H161 H 0.16064 0.732 0.2349 0.0
H162 H 0.92811 0.75729 0.36779 0.0
H163 H 0.01876 0.66917 0.2183 0.0
H164 H 0.01928 0.64281 0.32116 0.0
C165 C 0.27819 0.10727 0.51053 0.0
C166 C 0.27264 0.13072 0.48405 0.0
N167 N 0.24165 0.11799 0.46783 0.0
N168 N 0.25061 0.08028 0.51085 0.0
C169 C 0.22875 0.08754 0.48457 0.0
H170 H 0.30054 0.10989 0.52867 0.0
Co171 Co 0.2446 0.04358 0.5424 0.0
C172 C 0.18792 0.99218 0.51193 0.0
O173 O 0.16737 0.99313 0.53877 0.0
N174 N 0.23918 0.008 0.57491 0.0
C175 C 0.23781 0.95918 0.60936 0.0
C176 C 0.24151 0.96959 0.57696 0.0
C177 C 0.23448 0.02017 0.60564 0.0
N178 N 0.23362 0.99134 0.62726 0.0
O179 O 0.19564 0.06541 0.55517 0.0
H180 H 0.24653 0.95066 0.55652 0.0
H181 H 0.23225 0.0501 0.6119 0.0
O182 O 0.21973 0.01011 0.51067 0.0
C183 C 0.19468 0.09854 0.56825 0.0
O184 O 0.22608 0.11919 0.56881 0.0
N185 N 0.29315 0.02393 0.53203 0.0
C186 C 0.36979 1.00573 0.52016 0.0
C187 C 0.34238 1.00295 0.49517 0.0
C188 C 0.304 0.01202 0.50165 0.0
C189 C 0.31942 0.02675 0.55651 0.0
C190 C 0.35773 0.01726 0.55125 0.0
H191 H 0.28341 0.01106 0.48197 0.0
H192 H 0.31081 0.03758 0.58012 0.0
H193 H 0.20324 0.07156 0.4783 0.0
H194 H 0.28998 0.15507 0.47717 0.0
H195 H 0.23944 0.93043 0.61901 0.0
H196 H 0.35067 0.99441 0.47076 0.0
H197 H 0.37807 0.02055 0.57101 0.0
C198 C 0.91629 0.27489 0.76303 0.0
C199 C 0.8909 0.27029 0.73766 0.0
N200 N 0.89869 0.23672 0.72293 0.0
N201 N 0.94021 0.24464 0.76378 0.0
C202 C 0.92854 0.22168 0.73934 0.0
H203 H 0.91745 0.29878 0.77978 0.0
Co204 Co 0.97941 0.23682 0.79313 0.0
C205 C 0.04427 0.2125 0.75107 0.0
O206 O 0.06645 0.23659 0.76688 0.0
N207 N 0.01738 0.22794 0.82456 0.0
C208 C 0.05149 0.19221 0.85902 0.0
C209 C 0.04125 0.19753 0.82694 0.0
C210 C 0.0132 0.23991 0.85569 0.0
N211 N 0.03354 0.21888 0.87699 0.0
O212 O 0.95566 0.1898 0.80729 0.0
H213 H 0.04664 0.17699 0.8078 0.0
H214 H 0.99094 0.25938 0.86343 0.0
O215 O 0.009 0.20933 0.75921 0.0
C216 C 0.93321 0.19608 0.83124 0.0
O217 O 0.9264 0.23173 0.8396 0.0
N218 N 1.00079 0.28509 0.7808 0.0
C219 C 0.01512 0.36169 0.76412 0.0
C220 C 0.0137 0.33317 0.74003 0.0
C221 C 1.00641 0.29509 0.74884 0.0
C222 C 1.00212 0.3127 0.80434 0.0
C223 C 0.00996 0.35079 0.79667 0.0
H224 H 1.00284 0.27415 0.72967 0.0
H225 H 0.99438 0.30624 0.82904 0.0
H226 H 0.94195 0.19463 0.73346 0.0
H227 H 0.86821 0.2898 0.73082 0.0
H228 H 0.0676 0.16833 0.86872 0.0
H229 H 0.01696 0.34041 0.71449 0.0
H230 H 0.00945 0.37198 0.81597 0.0
C231 C 0.744 0.91315 0.02075 0.0
C232 C 0.74977 0.88711 0.99603 0.0
N233 N 0.78285 0.89605 0.98097 0.0
N234 N 0.77298 0.93864 0.02067 0.0
C235 C 0.79647 0.92716 0.9965 0.0
H236 H 0.71991 0.91399 0.03733 0.0
Co237 Co 0.77825 0.98039 0.04791 0.0
C238 C 0.79661 0.04126 -0.00035 0.0
O239 O 0.76859 0.06194 0.01181 0.0
N240 N 0.78458 0.02121 0.07696 0.0
C241 C 0.81276 0.06529 0.10808 0.0
C242 C 0.8087 0.05149 0.07677 0.0
C243 C 0.77521 0.01693 0.10864 0.0
N244 N 0.79172 0.0432 0.12808 0.0
O245 O 0.82641 0.96022 0.06386 0.0
H246 H 0.82593 0.06051 0.05633 0.0
H247 H 0.76018 0.99214 0.11783 0.0
O248 O 0.80451 0.00879 0.01246 0.0
C249 C 0.81997 0.93713 0.08736 0.0
O250 O 0.7842 0.92802 0.09364 0.0
N251 N 0.72865 0.99792 0.03455 0.0
C252 C 0.65134 0.01083 0.0189 0.0
C253 C 0.67877 1.00539 0.99427 0.0
C254 C 0.71718 0.99871 0.00259 0.0
C255 C 0.70201 1.00254 0.05863 0.0
C256 C 0.66361 0.00968 0.0514 0.0
H257 H 0.73744 0.9927 0.9833 0.0
H258 H 0.70963 0.99861 0.08378 0.0
H259 H 0.8226 0.94188 0.98985 0.0
H260 H 0.73117 0.86351 0.98958 0.0
H261 H 0.83202 0.08781 0.11577 0.0
H262 H 0.67052 1.00553 0.9688 0.0
H263 H 0.64332 0.01226 0.07127 0.0
C264 C 0.03509 0.59168 0.23697 0.0
C265 C 0.01276 0.60895 0.26134 0.0
C266 C 0.03334 0.55207 0.23134 0.0
C267 C 0.00853 0.52912 0.25043 0.0
C268 C 0.98526 0.5465 0.27453 0.0
C269 C 0.98773 0.58615 0.27975 0.0
C270 C 0.05879 0.53464 0.20551 0.0
C271 C 0.95821 0.52312 0.29519 0.0
C272 C 0.98389 0.43023 0.21761 0.0
C273 C 0.00932 0.40684 0.23506 0.0
C274 C 0.98279 0.46996 0.22277 0.0
C275 C 1.00789 0.4868 0.24581 0.0
C276 C 0.03314 0.46326 0.26391 0.0
C277 C 0.03349 0.42361 0.25837 0.0
C278 C 0.95522 0.494 0.20319 0.0
C279 C 0.0605 0.48009 0.28859 0.0
H280 H 0.05488 0.60898 0.22295 0.0
H281 H 0.9701 0.59937 0.29839 0.0
H282 H 0.07904 0.51422 0.21697 0.0
H283 H 0.04129 0.51826 0.18774 0.0
H284 H 0.07555 0.55654 0.19205 0.0
H285 H 0.9409 0.54115 0.31196 0.0
H286 H 0.93849 0.50652 0.27937 0.0
H287 H 0.97469 0.50224 0.30994 0.0
H288 H 0.96486 0.41743 0.19978 0.0
H289 H 0.05362 0.40585 0.27161 0.0
H290 H 0.97137 0.51447 0.18777 0.0
H291 H 0.93681 0.51108 0.21977 0.0
H292 H 0.93657 0.47639 0.18716 0.0
H293 H 0.08052 0.50003 0.27625 0.0
H294 H 0.07752 0.4578 0.30133 0.0
H295 H 0.04447 0.49687 0.30707 0.0
C296 C 0.59153 0.96682 0.4758 0.0
C297 C 0.61421 0.99405 0.4919 0.0
C298 C 0.55171 0.96528 0.48079 0.0
C299 C 0.53402 0.99212 0.50186 0.0
C300 C 0.55695 0.01911 0.51875 0.0
C301 C 0.59679 0.01952 0.51377 0.0
C302 C 0.52845 0.93557 0.46285 0.0
C303 C 0.53924 0.04859 0.54107 0.0
C304 C 0.42937 0.01812 0.4878 0.0
C305 C 0.41121 0.99931 0.51372 0.0
C306 C 0.46923 0.01562 0.48343 0.0
C307 C 0.49142 0.99322 0.50517 0.0
C308 C 0.473 0.97306 0.5307 0.0
C309 C 0.43319 0.97666 0.53486 0.0
C310 C 0.48776 0.03804 0.45621 0.0
C311 C 0.49544 0.94827 0.55399 0.0
H312 H 0.60495 0.94702 0.45894 0.0
H313 H 0.61413 0.04098 0.52588 0.0
H314 H 0.51015 0.91953 0.48024 0.0
H315 H 0.50912 0.94978 0.44514 0.0
H316 H 0.54679 0.91491 0.44941 0.0
H317 H 0.56112 0.06675 0.55322 0.0
H318 H 0.51977 0.06733 0.52686 0.0
H319 H 0.52174 0.03439 0.56011 0.0
H320 H 0.41255 0.03605 0.47168 0.0
H321 H 0.41918 0.96192 0.55482 0.0
H322 H 0.50456 0.01866 0.44025 0.0
H323 H 0.50802 0.05926 0.4666 0.0
H324 H 0.46642 0.05343 0.44099 0.0
H325 H 0.51303 0.92734 0.5402 0.0
H326 H 0.47658 0.93245 0.57112 0.0
H327 H 0.51542 0.96624 0.56841 0.0
C328 C 0.03362 0.58445 0.71316 0.0
C329 C 1.00742 0.60562 0.73186 0.0
C330 C 0.03758 0.5447 0.71735 0.0
C331 C 0.01445 0.52547 0.74051 0.0
C332 C 0.98814 0.54676 0.75962 0.0
C333 C 0.98511 0.58652 0.7552 0.0
C334 C 0.06635 0.52324 0.69682 0.0
C335 C 0.96262 0.5274 0.78433 0.0
C336 C 0.99479 0.41874 0.73121 0.0
C337 C 0.01816 0.40303 0.75561 0.0
C338 C 0.99389 0.45842 0.72558 0.0
C339 C 0.01724 0.48305 0.74455 0.0
C340 C 0.04197 0.46718 0.76836 0.0
C341 C 0.04194 0.42746 0.77374 0.0
C342 C 0.96683 0.4741 0.70017 0.0
C343 C 0.06775 0.49228 0.78876 0.0
H344 H 0.05117 0.59906 0.69527 0.0
H345 H 0.96442 0.60256 0.76941 0.0
H346 H 0.08654 0.50744 0.71278 0.0
H347 H 0.05142 0.50177 0.68146 0.0
H348 H 0.08304 0.54252 0.68066 0.0
H349 H 0.94386 0.54801 0.7974 0.0
H350 H 0.94429 0.50588 0.77198 0.0
H351 H 0.98027 0.51195 0.80255 0.0
H352 H 0.97595 0.40013 0.71742 0.0
H353 H 0.06024 0.41547 0.7925 0.0
H354 H 0.98265 0.49225 0.68256 0.0
H355 H 0.94504 0.4925 0.71211 0.0
H356 H 0.95185 0.45111 0.68649 0.0
H357 H 0.08534 0.51092 0.7728 0.0
H358 H 0.08718 0.47536 0.80463 0.0
H359 H 0.05013 0.51125 0.80444 0.0
C360 C 0.42955 0.03868 0.96831 0.0
C361 C 0.4065 0.01461 0.98744 0.0
C362 C 0.46939 0.04063 0.97306 0.0
C363 C 0.48681 0.01776 0.99739 0.0
C364 C 0.46359 0.9941 0.01732 0.0
C365 C 0.42376 0.99292 0.01218 0.0
C366 C 0.49296 0.06658 0.95155 0.0
C367 C 0.48098 0.96911 0.04343 0.0
C368 C 0.5921 0.99058 0.98856 0.0
C369 C 0.60972 0.01486 0.01133 0.0
C370 C 0.55225 0.99158 0.98349 0.0
C371 C 0.52939 0.01769 0.00143 0.0
C372 C 0.54716 0.04302 0.02376 0.0
C373 C 0.58701 0.04121 0.02851 0.0
C374 C 0.53448 0.96393 0.95957 0.0
C375 C 0.52397 0.07158 0.04309 0.0
H376 H 0.41639 0.05578 0.94932 0.0
H377 H 0.4063 0.97385 0.02677 0.0
H378 H 0.51049 0.08617 0.96674 0.0
H379 H 0.51306 0.04925 0.93666 0.0
H380 H 0.47492 0.08394 0.93486 0.0
H381 H 0.45893 0.95333 0.05758 0.0
H382 H 0.50071 0.94807 0.03209 0.0
H383 H 0.49814 0.98673 0.06055 0.0
H384 H 0.60931 0.96979 0.97551 0.0
H385 H 0.60045 0.06031 0.04593 0.0
H386 H 0.51762 0.97973 0.94102 0.0
H387 H 0.5144 0.94464 0.97256 0.0
H388 H 0.55628 0.94621 0.94684 0.0
H389 H 0.50678 0.08968 0.02639 0.0
H390 H 0.54227 0.09043 0.05838 0.0
H391 H 0.50359 0.05629 0.05924 0.0
C392 C 0.21049 0.10995 0.4147 0.0
C393 C 0.22495 0.13401 0.43906 0.0
C394 C 0.19373 0.12515 0.38654 0.0
C395 C 0.19077 0.16531 0.38321 0.0
C396 C 0.20509 0.18973 0.40792 0.0
C397 C 0.22245 0.1737 0.43547 0.0
C398 C 0.17941 0.09831 0.36035 0.0
C399 C 0.20163 0.23268 0.40544 0.0
C400 C 0.17796 0.20874 0.29948 0.0
C401 C 0.13831 0.21434 0.2986 0.0
C402 C 0.19543 0.19216 0.32675 0.0
C403 C 0.17261 0.18186 0.35389 0.0
C404 C 0.13253 0.18775 0.35317 0.0
C405 C 0.11577 0.2036 0.32528 0.0
C406 C 0.23816 0.18549 0.32648 0.0
C407 C 0.10746 0.17778 0.38197 0.0
H408 H 0.21285 0.07923 0.41755 0.0
H409 H 0.23329 0.19211 0.45465 0.0
H410 H 0.14826 0.10255 0.35651 0.0
H411 H 0.19388 0.10472 0.33688 0.0
H412 H 0.18452 0.06782 0.36656 0.0
H413 H 0.21363 0.24753 0.42712 0.0
H414 H 0.21682 0.24304 0.38338 0.0
H415 H 0.17107 0.24086 0.40282 0.0
H416 H 0.19513 0.21672 0.27854 0.0
H417 H 0.08512 0.20838 0.32448 0.0
H418 H 0.24436 0.1548 0.33086 0.0
H419 H 0.25188 0.20192 0.34647 0.0
H420 H 0.25153 0.19407 0.303 0.0
H421 H 0.11003 0.14688 0.38766 0.0
H422 H 0.0768 0.18448 0.37748 0.0
H423 H 0.1171 0.1938 0.40386 0.0
C424 C 0.77069 0.14885 0.58075 0.0
C425 C 0.79391 0.13716 0.55472 0.0
C426 C 0.7867 0.16565 0.60866 0.0
C427 C 0.82679 0.17129 0.61026 0.0
C428 C 0.85031 0.16009 0.5838 0.0
C429 C 0.83356 0.14292 0.5564 0.0
C430 C 0.76083 0.17674 0.63665 0.0
C431 C 0.89314 0.16614 0.58448 0.0
C432 C 0.8659 0.2441 0.67019 0.0
C433 C 0.87965 0.22045 0.69514 0.0
C434 C 0.84848 0.22849 0.64239 0.0
C435 C 0.84431 0.18834 0.63982 0.0
C436 C 0.85756 0.16437 0.66522 0.0
C437 C 0.87532 0.18074 0.69252 0.0
C438 C 0.83518 0.25487 0.61553 0.0
C439 C 0.85313 0.12144 0.6635 0.0
H440 H 0.74008 0.14396 0.57958 0.0
H441 H 0.85144 0.13431 0.53608 0.0
H442 H 0.76926 0.16085 0.65894 0.0
H443 H 0.76399 0.20766 0.6421 0.0
H444 H 0.73021 0.1707 0.6314 0.0
H445 H 0.90717 0.15689 0.56146 0.0
H446 H 0.89968 0.19681 0.58863 0.0
H447 H 0.90592 0.1499 0.60501 0.0
H448 H 0.86967 0.27477 0.67208 0.0
H449 H 0.88551 0.16252 0.71203 0.0
H450 H 0.80418 0.25062 0.61088 0.0
H451 H 0.85052 0.24798 0.59255 0.0
H452 H 0.84017 0.28546 0.62151 0.0
H453 H 0.82254 0.11386 0.66003 0.0
H454 H 0.86381 0.10699 0.68584 0.0
H455 H 0.86907 0.11008 0.64218 0.0
C456 C 0.77569 0.86506 0.9275 0.0
C457 C 0.79927 0.8778 0.9529 0.0
C458 C 0.79145 0.84894 0.8992 0.0
C459 C 0.83167 0.84482 0.89667 0.0
C460 C 0.85557 0.85696 0.92258 0.0
C461 C 0.83904 0.87371 0.95029 0.0
C462 C 0.76513 0.83698 0.87179 0.0
C463 C 0.89853 0.8523 0.92101 0.0
C464 C 0.86838 0.77256 0.83521 0.0
C465 C 0.87985 0.7963 0.80952 0.0
C466 C 0.85322 0.78801 0.864 0.0
C467 C 0.84875 0.82811 0.86676 0.0
C468 C 0.86017 0.85223 0.84079 0.0
C469 C 0.876 0.83599 0.81256 0.0
C470 C 0.84211 0.76149 0.89147 0.0
C471 C 0.85517 0.89507 0.84265 0.0
H472 H 0.74496 0.86875 0.92943 0.0
H473 H 0.85714 0.88331 0.97015 0.0
H474 H 0.77261 0.85281 0.84922 0.0
H475 H 0.76885 0.80609 0.86651 0.0
H476 H 0.73451 0.84236 0.87757 0.0
H477 H 0.91289 0.86199 0.94375 0.0
H478 H 0.90593 0.82185 0.91669 0.0
H479 H 0.9102 0.86894 0.90024 0.0
H480 H 0.87188 0.74189 0.83289 0.0
H481 H 0.88457 0.85422 0.79248 0.0
H482 H 0.81104 0.76416 0.89661 0.0
H483 H 0.85759 0.76961 0.91409 0.0
H484 H 0.84857 0.73109 0.88579 0.0
H485 H 0.82452 0.90213 0.84653 0.0
H486 H 0.86519 0.90971 0.82017 0.0
H487 H 0.87128 0.90667 0.86377 0.0
C488 C 0.18428 0.87066 0.05519 0.0
C489 C 0.22388 0.87622 0.05266 0.0
C490 C 0.16816 0.85482 0.0834 0.0
C491 C 0.19228 0.84499 0.10984 0.0
C492 C 0.23233 0.85061 0.10743 0.0
C493 C 0.2477 0.86588 0.07867 0.0
C494 C 0.12539 0.84858 0.08491 0.0
C495 C 0.25882 0.84105 0.13538 0.0
C496 C 0.14624 0.83786 0.19335 0.0
C497 C 0.14328 0.79819 0.1972 0.0
C498 C 0.1626 0.85354 0.16514 0.0
C499 C 0.17557 0.82886 0.14007 0.0
C500 C 0.17235 0.78876 0.14376 0.0
C501 C 0.15651 0.7739 0.17247 0.0
C502 C 0.16617 0.89645 0.16223 0.0
C503 C 0.18518 0.76161 0.11724 0.0
H504 H 0.16599 0.87835 0.03488 0.0
H505 H 0.27827 0.87071 0.07679 0.0
H506 H 0.11915 0.81805 0.09001 0.0
H507 H 0.11293 0.86557 0.10516 0.0
H508 H 0.11084 0.8568 0.06186 0.0
H509 H 0.28924 0.84747 0.12964 0.0
H510 H 0.25041 0.85756 0.15738 0.0
H511 H 0.25635 0.81029 0.1416 0.0
H512 H 0.13628 0.85653 0.21268 0.0
H513 H 0.15368 0.74323 0.17535 0.0
H514 H 0.14978 0.9067 0.14077 0.0
H515 H 0.19658 0.90442 0.15827 0.0
H516 H 0.15551 0.91156 0.18429 0.0
H517 H 0.16949 0.76784 0.09431 0.0
H518 H 0.1803 0.7312 0.12385 0.0
H519 H 0.21611 0.76571 0.11217 0.0
C520 C 0.96043 0.22612 0.06115 0.0
C521 C 0.99158 0.22237 0.08236 0.0
C522 C 0.96569 0.2253 0.02721 0.0
C523 C 1.00305 0.21999 0.01432 0.0
C524 C 0.03453 0.21587 0.03572 0.0
C525 C 0.02833 0.21662 0.06941 0.0
C526 C 0.93086 0.23015 0.00583 0.0
C527 C 0.07497 0.2112 0.02319 0.0
C528 C 0.02092 0.18439 0.92823 0.0
C529 C 0.02761 0.21877 0.91163 0.0
C530 C 0.0117 0.18438 0.96154 0.0
C531 C 0.00988 0.21954 0.97861 0.0
C532 C 0.01667 0.25429 0.96191 0.0
C533 C 0.02514 0.25347 0.92851 0.0
C534 C 1.00371 0.14684 0.97839 0.0
C535 C 0.0151 0.29227 0.97939 0.0
H536 H 0.93202 0.23064 0.07107 0.0
H537 H 0.05247 0.21271 0.08563 0.0
H538 H 0.9116 0.25241 0.0161 0.0
H539 H 0.93791 0.23806 0.98036 0.0
H540 H 0.91457 0.20291 0.00567 0.0
H541 H 0.09653 0.21551 0.04276 0.0
H542 H 0.07863 0.18202 0.01303 0.0
H543 H 0.08101 0.23189 0.00334 0.0
H544 H 0.02176 0.15762 0.91491 0.0
H545 H 0.02999 0.27995 0.91544 0.0
H546 H 0.97747 0.14902 0.99357 0.0
H547 H 0.02785 0.13974 0.9949 0.0
H548 H 1.00004 0.12299 0.96073 0.0
H549 H 0.98618 0.29653 0.99004 0.0
H550 H 0.02154 0.31666 0.96293 0.0
H551 H 0.03598 0.29248 -0.00018 0.0
C552 C 0.76177 0.02609 0.18024 0.0
C553 C 0.79302 0.04123 0.16312 0.0
C554 C 0.76389 0.01919 0.2138 0.0
C555 C 0.79803 0.02803 0.23076 0.0
C556 C 0.82933 0.04451 0.21392 0.0
C557 C 0.82646 0.05092 0.1802 0.0
C558 C 0.72977 1.00188 0.23099 0.0
C559 C 0.86594 0.05486 0.23142 0.0
C560 C 0.78815 0.03963 0.32209 0.0
C561 C 0.79931 1.00343 0.33351 0.0
C562 C 0.78826 0.04821 0.28877 0.0
C563 C 0.80056 0.02021 0.26624 0.0
C564 C 0.8131 0.98405 0.27752 0.0
C565 C 0.8122 0.97603 0.31107 0.0
C566 C 0.77444 0.087 0.27763 0.0
C567 C 0.82654 0.95357 0.25407 0.0
H568 H 0.73574 0.01907 0.16715 0.0
H569 H 0.85086 0.06222 0.16707 0.0
H570 H 0.73794 0.97409 0.24204 0.0
H571 H 0.72026 0.02087 0.25112 0.0
H572 H 0.70522 0.99706 0.21424 0.0
H573 H 0.8882 0.066 0.21456 0.0
H574 H 0.85994 0.07698 0.25014 0.0
H575 H 0.87758 0.0295 0.24431 0.0
H576 H 0.77935 0.06153 0.33913 0.0
H577 H 0.8209 0.94809 0.31972 0.0
H578 H 0.75023 0.0837 0.26033 0.0
H579 H 0.7977 0.10204 0.26443 0.0
H580 H 0.76478 0.10517 0.29829 0.0
H581 H 0.80265 0.94527 0.23768 0.0
H582 H 0.83702 0.92759 0.26684 0.0
H583 H 0.84991 0.96485 0.23846 0.0
C584 C 0.97507 0.80069 0.57115 0.0
C585 C 0.01193 0.79393 0.58356 0.0
C586 C 0.9682 0.80145 0.5375 0.0
C587 C 0.99909 0.79624 0.51566 0.0
C588 C 0.03661 0.7907 0.52795 0.0
C589 C 0.04257 0.78956 0.5618 0.0
C590 C 0.92776 0.80777 0.52559 0.0
C591 C 0.07021 0.78478 0.50532 0.0
C592 C 0.97638 0.75848 0.43117 0.0
C593 C 0.98098 0.7913 0.41213 0.0
C594 C 0.98225 0.75973 0.46496 0.0
C595 C 0.99201 0.7949 0.47998 0.0
C596 C 0.99513 0.82848 0.46092 0.0
C597 C 0.99028 0.82611 0.427 0.0
C598 C 0.9785 0.72338 0.48455 0.0
C599 C 1.00332 0.8668 0.47638 0.0
H600 H 0.95139 0.80531 0.58775 0.0
H601 H 0.07103 0.78417 0.57125 0.0
H602 H 0.92385 0.83851 0.5198 0.0
H603 H 0.92145 0.79119 0.50316 0.0
H604 H 0.9065 0.79956 0.54445 0.0
H605 H 0.09786 0.78319 0.51867 0.0
H606 H 0.06621 0.75785 0.49138 0.0
H607 H 0.07184 0.80842 0.48735 0.0
H608 H 0.96979 0.73155 0.41934 0.0
H609 H 0.99385 0.85133 0.41194 0.0
H610 H 0.95584 0.72683 0.50331 0.0
H611 H 1.00574 0.71741 0.49756 0.0
H612 H 0.97128 0.69831 0.46906 0.0
H613 H 0.97878 0.87516 0.49206 0.0
H614 H 1.008 0.88958 0.45792 0.0
H615 H 0.0289 0.86503 0.49234 0.0
C616 C 0.21634 0.96579 0.68152 0.0
C617 C 0.2307 0.99548 0.66213 0.0
C618 C 0.21291 0.97026 0.71544 0.0
C619 C 0.22396 1.00526 0.73008 0.0
C620 C 0.23799 0.03543 0.71061 0.0
C621 C 0.24164 0.03 0.67702 0.0
C622 C 0.19817 0.9374 0.73567 0.0
C623 C 0.24974 0.07334 0.7253 0.0
C624 C 0.19086 0.03168 0.81521 0.0
C625 C 0.2236 0.02321 0.83369 0.0
C626 C 0.19025 0.02536 0.78142 0.0
C627 C 0.22304 0.00996 0.76595 0.0
C628 C 0.25608 1.00129 0.78445 0.0
C629 C 0.25605 0.00834 0.81802 0.0
C630 C 0.15469 0.03531 0.76223 0.0
C631 C 0.29165 0.98495 0.76872 0.0
H632 H 0.20754 0.93922 0.67019 0.0
H633 H 0.25373 0.05285 0.66256 0.0
H634 H 0.22162 0.92644 0.75134 0.0
H635 H 0.17482 0.94718 0.75203 0.0
H636 H 0.18734 0.91348 0.72038 0.0
H637 H 0.25816 0.09456 0.70647 0.0
H638 H 0.22583 0.08548 0.73983 0.0
H639 H 0.27426 0.06909 0.74212 0.0
H640 H 0.16546 0.04256 0.82717 0.0
H641 H 0.28157 1.00224 0.8321 0.0
H642 H 0.14422 0.00978 0.74884 0.0
H643 H 0.16151 0.05748 0.74377 0.0
H644 H 0.13125 0.04615 0.77807 0.0
H645 H 0.28442 0.95861 0.75493 0.0
H646 H 0.3142 0.97795 0.78688 0.0
H647 H 0.30356 1.00579 0.75103 0.0
C648 C 0.07784 0.14033 0.12592 0.0
C649 C 0.10136 0.15427 0.15093 0.0
C650 C 0.09275 0.11617 0.10149 0.0
C651 C 0.13179 0.10493 0.10275 0.0
C652 C 0.1546 0.11652 0.12961 0.0
C653 C 0.13931 0.14165 0.153 0.0
C654 C 0.06772 0.10564 0.07285 0.0
C655 C 0.19609 0.10481 0.13237 0.0
C656 C 0.1735 0.0299 0.04471 0.0
C657 C 0.19229 0.0531 0.02181 0.0
C658 C 0.15288 0.04616 0.0709 0.0
C659 C 0.1505 0.08651 0.07388 0.0
C660 C 0.16828 0.10987 0.05006 0.0
C661 C 0.18915 0.09295 0.02462 0.0
C662 C 0.13483 0.02025 0.09596 0.0
C663 C 0.16649 0.15297 0.05197 0.0
H664 H 0.0487 0.15083 0.12396 0.0
H665 H 0.15757 0.15284 0.17216 0.0
H666 H 0.07774 0.12114 0.05083 0.0
H667 H 0.06987 0.0746 0.06757 0.0
H668 H 0.03719 0.11311 0.0771 0.0
H669 H 0.20798 0.111 0.15695 0.0
H670 H 0.19945 0.07384 0.12723 0.0
H671 H 0.21328 0.12064 0.11405 0.0
H672 H 0.17591 0.99908 0.04278 0.0
H673 H 0.20328 0.11114 0.00692 0.0
H674 H 0.10412 0.02749 0.09911 0.0
H675 H 0.14897 0.02461 0.11992 0.0
H676 H 0.13725 0.98957 0.08918 0.0
H677 H 0.1371 0.16264 0.05796 0.0
H678 H 0.17551 0.16673 0.02879 0.0
H679 H 0.1857 0.16312 0.07172 0.0
C680 C 0.95761 0.16026 0.27497 0.0
C681 C 0.96032 0.20022 0.27581 0.0
C682 C 0.93821 0.14022 0.29984 0.0
C683 C 0.9226 0.1606 0.32672 0.0
C684 C 0.92786 0.20072 0.32861 0.0
C685 C 0.94596 0.22006 0.30287 0.0
C686 C 0.93291 0.09755 0.29663 0.0
C687 C 0.91241 0.22359 0.35697 0.0
C688 C 0.83061 0.12634 0.36644 0.0
C689 C 0.84354 0.10943 0.3955 0.0
C690 C 0.85617 0.14194 0.34371 0.0
C691 C 0.89597 0.14138 0.35017 0.0
C692 C 0.90945 0.12429 0.37939 0.0
C693 C 0.88307 0.10809 0.4016 0.0
C694 C 0.84046 0.15907 0.31263 0.0
C695 C 0.95159 0.12378 0.38744 0.0
H696 H 0.96881 0.14492 0.25404 0.0
H697 H 0.94848 0.25096 0.3037 0.0
H698 H 0.94828 0.08284 0.31669 0.0
H699 H 0.90215 0.08998 0.29887 0.0
H700 H 0.94382 0.08644 0.27299 0.0
H701 H 0.92359 0.25334 0.35718 0.0
H702 H 0.8807 0.22481 0.35547 0.0
H703 H 0.91992 0.20967 0.38043 0.0
H704 H 0.80022 0.12711 0.36113 0.0
H705 H 0.89331 0.09497 0.4239 0.0
H706 H 0.85187 0.14317 0.29128 0.0
H707 H 0.84977 0.18925 0.31017 0.0
H708 H 0.80869 0.15837 0.31174 0.0
H709 H 0.96761 0.10847 0.36807 0.0
H710 H 0.95751 0.10975 0.41122 0.0
H711 H 0.96277 0.15347 0.38828 0.0
C712 C 0.84378 0.9832 0.54617 0.0
C713 C 0.82637 0.95974 0.52262 0.0
C714 C 0.86171 0.96732 0.57391 0.0
C715 C 0.86274 0.92703 0.57794 0.0
C716 C 0.84614 0.90335 0.55367 0.0
C717 C 0.82808 0.91994 0.52658 0.0
C718 C 0.87805 0.99365 0.59955 0.0
C719 C 0.8455 0.86033 0.55679 0.0
C720 C 0.93113 0.8739 0.63447 0.0
C721 C 0.90579 0.86043 0.65837 0.0
C722 C 0.91813 0.8976 0.60898 0.0
C723 C 0.87916 0.90914 0.60807 0.0
C724 C 0.8544 0.89812 0.63381 0.0
C725 C 0.86781 0.8733 0.65824 0.0
C726 C 0.94516 0.90726 0.58148 0.0
C727 C 0.8129 0.91019 0.6343 0.0
H728 H 0.84229 0.014 0.54351 0.0
H729 H 0.81475 0.90146 0.50862 0.0
H730 H 0.86176 0.99024 0.62262 0.0
H731 H 0.90825 0.98597 0.60479 0.0
H732 H 0.87683 0.02416 0.59207 0.0
H733 H 0.84382 0.84629 0.5325 0.0
H734 H 0.87103 0.84936 0.5698 0.0
H735 H 0.81978 0.85177 0.57091 0.0
H736 H 0.96034 0.86335 0.63415 0.0
H737 H 0.84813 0.86268 0.67659 0.0
H738 H 0.94471 0.93843 0.57653 0.0
H739 H 0.93562 0.89257 0.55889 0.0
H740 H 0.97507 0.89838 0.58679 0.0
H741 H 0.81007 0.94091 0.62798 0.0
H742 H 0.79949 0.90525 0.65851 0.0
H743 H 0.79676 0.89353 0.61581 0.0
C744 C 0.04836 0.85219 0.77926 0.0
C745 C 0.05379 0.8126 0.77619 0.0
C746 C 0.06779 0.87327 0.80353 0.0
C747 C 0.09235 0.85413 0.82575 0.0
C748 C 0.09604 0.81385 0.82379 0.0
C749 C 0.07719 0.79374 0.79885 0.0
C750 C 0.06365 0.91621 0.80425 0.0
C751 C 0.12129 0.79205 0.84721 0.0
C752 C 0.18136 0.90164 0.8601 0.0
C753 C 0.17084 0.90942 0.89247 0.0
C754 C 0.15547 0.88542 0.83793 0.0
C755 C 0.11797 0.8761 0.8483 0.0
C756 C 0.10662 0.88502 0.88072 0.0
C757 C 0.13315 0.90198 0.9024 0.0
C758 C 0.16882 0.87705 0.8036 0.0
C759 C 0.06707 0.87515 0.89285 0.0
H760 H 0.03028 0.8669 0.76182 0.0
H761 H 0.08102 0.76304 0.79693 0.0
H762 H 0.05802 0.92632 0.82945 0.0
H763 H 0.09086 0.92958 0.79612 0.0
H764 H 0.04021 0.92632 0.78809 0.0
H765 H 0.11756 0.76061 0.84492 0.0
H766 H 0.15176 0.79904 0.8424 0.0
H767 H 0.11496 0.80056 0.87274 0.0
H768 H 0.21023 0.90807 0.85202 0.0
H769 H 0.12486 0.90806 0.92736 0.0
H770 H 0.14867 0.88965 0.78567 0.0
H771 H 0.16923 0.84571 0.7994 0.0
H772 H 0.19799 0.88839 0.79882 0.0
H773 H 0.045 0.88618 0.87582 0.0
H774 H 0.06148 0.88694 0.91758 0.0
H775 H 0.06381 0.84361 0.89377 0.0
C776 C 0.14659 0.84785 0.36656 0.0
C777 C 0.11122 0.85281 0.35081 0.0
C778 C 0.15913 0.87324 0.39083 0.0
C779 C 0.13594 0.9048 0.39962 0.0
C780 C 0.10106 0.91117 0.38269 0.0
C781 C 0.08904 0.88505 0.35849 0.0
C782 C 0.19641 0.86511 0.40821 0.0
C783 C 0.07558 0.94457 0.39117 0.0
C784 C 0.14813 0.94024 0.48694 0.0
C785 C 0.17386 0.97068 0.48304 0.0
C786 C 0.13504 0.9191 0.45995 0.0
C787 C 0.14719 0.92917 0.42809 0.0
C788 C 0.1723 0.96065 0.42393 0.0
C789 C 0.18572 0.98069 0.45146 0.0
C790 C 0.10924 0.88511 0.46567 0.0
C791 C 0.18527 0.97293 0.39041 0.0
H792 H 0.16409 0.82317 0.36069 0.0
H793 H 0.06157 0.88901 0.34665 0.0
H794 H 0.21528 0.89061 0.40748 0.0
H795 H 0.19065 0.85867 0.43426 0.0
H796 H 0.21206 0.84054 0.39735 0.0
H797 H 0.05214 0.94844 0.37315 0.0
H798 H 0.0626 0.93987 0.41555 0.0
H799 H 0.09256 0.97135 0.39252 0.0
H800 H 0.13894 0.93226 0.51127 0.0
H801 H 0.20526 1.00448 0.44823 0.0
H802 H 0.12446 0.85847 0.4587 0.0
H803 H 0.08333 0.8871 0.45013 0.0
H804 H 0.10022 0.88266 0.49158 0.0
H805 H 0.20189 0.9496 0.37872 0.0
H806 H 0.20337 0.99904 0.39119 0.0
H807 H 0.16002 0.9786 0.3747 0.0
C808 C 0.14461 0.08441 0.61033 0.0
C809 C 0.16227 0.11058 0.58921 0.0
C810 C 0.12072 0.09711 0.63587 0.0
C811 C 0.11371 0.13681 0.63985 0.0
C812 C 0.12919 0.16291 0.61694 0.0
C813 C 0.15367 0.14954 0.59224 0.0
C814 C 0.10558 0.06828 0.66001 0.0
C815 C 0.12203 0.20537 0.6198 0.0
C816 C 0.03792 0.17692 0.69789 0.0
C817 C 0.06069 0.18949 0.72399 0.0
C818 C 0.05443 0.15845 0.6707 0.0
C819 C 0.09451 0.15181 0.66991 0.0
C820 C 0.11716 0.16261 0.69709 0.0
C821 C 0.10008 0.18167 0.72353 0.0
C822 C 0.02927 0.14747 0.64227 0.0
C823 C 0.15979 0.15519 0.69783 0.0
H824 H 0.15168 0.0543 0.60842 0.0
H825 H 0.16738 0.16982 0.576 0.0
H826 H 0.12251 0.07007 0.68288 0.0
H827 H 0.07529 0.07441 0.66629 0.0
H828 H 0.10767 0.03858 0.65053 0.0
H829 H 0.13203 0.22121 0.59792 0.0
H830 H 0.09106 0.21113 0.62333 0.0
H831 H 0.13735 0.21672 0.64146 0.0
H832 H 1.00746 0.18291 0.6981 0.0
H833 H 0.11776 0.1908 0.74383 0.0
H834 H 0.03425 0.11719 0.63538 0.0
H835 H 0.03674 0.16526 0.62079 0.0
H836 H 0.99836 0.15144 0.64776 0.0
H837 H 0.16578 0.12464 0.69255 0.0
H838 H 0.17277 0.16257 0.72177 0.0
H839 H 0.17412 0.17239 0.67864 0.0
C840 C 0.90358 0.13139 0.84158 0.0
C841 C 0.92009 0.16525 0.85328 0.0
C842 C 0.88615 0.10526 0.86327 0.0
C843 C 0.88594 0.11306 0.89729 0.0
C844 C 0.90524 0.14586 0.90909 0.0
C845 C 0.92164 0.17164 0.88699 0.0
C846 C 0.86602 0.07061 0.84965 0.0
C847 C 0.90656 0.15519 0.945 0.0
C848 C 0.80311 0.08603 0.95258 0.0
C849 C 0.81869 0.05637 0.97141 0.0
C850 C 0.82392 0.10296 0.92712 0.0
C851 C 0.86165 0.09038 0.92034 0.0
C852 C 0.87711 0.05942 0.93841 0.0
C853 C 0.85533 0.04257 0.96361 0.0
C854 C 0.80603 0.13562 0.90843 0.0
C855 C 0.91733 0.04541 0.93226 0.0
H856 H 0.90246 0.12638 0.81549 0.0
H857 H 0.93502 0.19753 0.89614 0.0
H858 H 0.87339 0.04472 0.86396 0.0
H859 H 0.83458 0.07473 0.85155 0.0
H860 H 0.8734 0.06555 0.82364 0.0
H861 H 0.92779 0.17792 0.95029 0.0
H862 H 0.87795 0.16524 0.95313 0.0
H863 H 0.91397 0.12952 0.95955 0.0
H864 H 0.7746 0.09651 0.95803 0.0
H865 H 0.86755 0.01959 0.97795 0.0
H866 H 0.80883 0.13077 0.88179 0.0
H867 H 0.82128 0.1626 0.91431 0.0
H868 H 0.77522 0.13941 0.91438 0.0
H869 H 0.92235 0.04137 0.90576 0.0
H870 H 0.92329 0.01805 0.94505 0.0
H871 H 0.9381 0.06717 0.94097 0.0
C872 C 0.95007 0.80509 0.19467 0.0
C873 C 0.9694 0.82205 0.22096 0.0
C874 C 0.93179 0.82725 0.17078 0.0
C875 C 0.93208 0.86763 0.17342 0.0
C876 C 0.95333 0.88507 0.19897 0.0
C877 C 0.97212 0.86202 0.22232 0.0
C878 C 0.91002 0.80723 0.14389 0.0
C879 C 0.95414 0.92795 0.20289 0.0
C880 C 0.88906 0.92071 0.10034 0.0
C881 C 0.85048 0.92312 0.1097 0.0
C882 C 0.91665 0.90432 0.12137 0.0
C883 C 0.90538 0.89049 0.1525 0.0
C884 C 0.86683 0.89481 0.16252 0.0
C885 C 0.84004 0.91087 0.14108 0.0
C886 C 0.95742 0.90025 0.10973 0.0
C887 C 0.85334 0.88076 0.19543 0.0
H888 H 0.94838 0.77417 0.19317 0.0
H889 H 0.98706 0.87527 0.24257 0.0
H890 H 0.8788 0.81076 0.14795 0.0
H891 H 0.9169 0.82011 0.11987 0.0
H892 H 0.91652 0.77616 0.14286 0.0
H893 H 0.97658 0.93728 0.22039 0.0
H894 H 0.95923 0.9421 0.17907 0.0
H895 H 0.92594 0.93792 0.21205 0.0
H896 H 0.8974 0.93033 0.07623 0.0
H897 H 0.81047 0.91333 0.14889 0.0
H898 H 0.9637 0.86964 0.10501 0.0
H899 H 0.97768 0.91016 0.1288 0.0
H900 H 0.96276 0.9166 0.08696 0.0
H901 H 0.85547 0.84913 0.1964 0.0
H902 H 0.8232 0.88896 0.20055 0.0
H903 H 0.87186 0.89237 0.21506 0.0
loop_
_geom_bond_atom_site_label_1
_geom_bond_atom_site_label_2
_geom_bond_distance
_geom_bond_site_symmetry_2
_ccdc_geom_bond_type
C0 C1 1.351 . S
C0 N3 1.368 . S
C0 H5 0.931 . S
C1 C0 1.351 . S
C1 N2 1.373 . S
C1 H29 0.930 . S
N2 C1 1.373 . S
N2 C4 1.340 . S
N3 C0 1.368 . S
N3 C4 1.321 . S
N3 Co6 2.135 . S
C4 N2 1.340 . S
C4 N3 1.321 . S
C4 H28 0.930 . S
H5 C0 0.931 . S
Co6 N3 2.135 . S
Co6 N9 2.121 . S
Co6 O14 2.055 . S
Co6 O17 2.039 . S
Co6 N20 2.140 . S
C7 O8 1.227 . S
C7 O17 1.265 . S
O8 C7 1.227 . S
N9 Co6 2.121 . S
N9 C11 1.375 . S
N9 C12 1.313 . S
C10 C11 1.338 1_655 S
C10 N13 1.377 1_655 S
C10 H30 0.930 . S
C11 N9 1.375 . S
C11 C10 1.338 1_455 S
C11 H15 0.931 1_455 S
C12 N9 1.313 . S
C12 N13 1.344 . S
C12 H16 0.930 . S
N13 C10 1.377 1_455 S
N13 C12 1.344 . S
O14 Co6 2.055 . S
O14 C18 1.253 . S
H15 C11 0.931 1_655 S
H16 C12 0.930 . S
O17 Co6 2.039 . S
O17 C7 1.265 . S
C18 O14 1.253 . S
C18 O19 1.227 . S
O19 C18 1.227 . S
N20 Co6 2.140 . S
N20 C23 1.346 . S
N20 C24 1.345 . S
C21 C22 1.387 . S
C21 C25 1.391 . S
C22 C21 1.387 . S
C22 C23 1.369 . S
C22 H31 0.929 . S
C23 N20 1.346 . S
C23 C22 1.369 . S
C23 H26 0.928 . S
C24 N20 1.345 . S
C24 C25 1.371 . S
C24 H27 0.931 . S
C25 C21 1.391 . S
C25 C24 1.371 . S
C25 H32 0.930 . S
H26 C23 0.928 . S
H27 C24 0.931 . S
H28 C4 0.930 . S
H29 C1 0.930 . S
H30 C10 0.930 . S
H31 C22 0.929 . S
H32 C25 0.930 . S
C33 C34 1.351 . S
C33 N36 1.368 . S
C33 H38 0.931 . S
C34 C33 1.351 . S
C34 N35 1.373 . S
C34 H62 0.930 . S
N35 C34 1.373 . S
N35 C37 1.340 . S
N36 C33 1.368 . S
N36 C37 1.321 . S
N36 Co39 2.135 . S
C37 N35 1.340 . S
C37 N36 1.321 . S
C37 H61 0.930 . S
H38 C33 0.931 . S
Co39 N36 2.135 . S
Co39 N42 2.121 . S
Co39 O47 2.055 . S
Co39 O50 2.039 . S
Co39 N53 2.140 . S
C40 O41 1.227 . S
C40 O50 1.265 . S
O41 C40 1.227 . S
N42 Co39 2.121 . S
N42 C44 1.375 . S
N42 C45 1.313 . S
C43 C44 1.338 1_565 S
C43 N46 1.377 1_565 S
C43 H63 0.930 . S
C44 N42 1.375 . S
C44 C43 1.338 1_545 S
C44 H48 0.931 1_545 S
C45 N42 1.313 . S
C45 N46 1.344 . S
C45 H49 0.930 . S
N46 C43 1.377 1_545 S
N46 C45 1.344 . S
O47 Co39 2.055 . S
O47 C51 1.253 . S
H48 C44 0.931 1_565 S
H49 C45 0.930 . S
O50 Co39 2.039 . S
O50 C40 1.265 . S
C51 O47 1.253 . S
C51 O52 1.227 . S
O52 C51 1.227 . S
N53 Co39 2.140 . S
N53 C56 1.346 . S
N53 C57 1.345 . S
C54 C55 1.387 . S
C54 C58 1.391 . S
C55 C54 1.387 . S
C55 C56 1.369 . S
C55 H64 0.929 . S
C56 N53 1.346 . S
C56 C55 1.369 . S
C56 H59 0.928 . S
C57 N53 1.345 . S
C57 C58 1.371 . S
C57 H60 0.931 . S
C58 C54 1.391 . S
C58 C57 1.371 . S
C58 H65 0.930 . S
H59 C56 0.928 . S
H60 C57 0.931 . S
H61 C37 0.930 . S
H62 C34 0.930 . S
H63 C43 0.930 . S
H64 C55 0.929 . S
H65 C58 0.930 . S
C66 C67 1.351 . S
C66 N69 1.368 . S
C66 H71 0.931 . S
C67 C66 1.351 . S
C67 N68 1.373 . S
C67 H95 0.930 . S
N68 C67 1.373 . S
N68 C70 1.340 . S
N69 C66 1.368 . S
N69 C70 1.321 . S
N69 Co72 2.135 . S
C70 N68 1.340 . S
C70 N69 1.321 . S
C70 H94 0.930 . S
H71 C66 0.931 . S
Co72 N69 2.135 . S
Co72 N75 2.121 . S
Co72 O80 2.055 . S
Co72 O83 2.039 . S
Co72 N86 2.140 . S
C73 O74 1.227 . S
C73 O83 1.265 . S
O74 C73 1.227 . S
N75 Co72 2.121 . S
N75 C77 1.375 . S
N75 C78 1.313 . S
C76 C77 1.338 1_455 S
C76 N79 1.377 1_455 S
C76 H96 0.930 . S
C77 N75 1.375 . S
C77 C76 1.338 1_655 S
C77 H81 0.931 1_655 S
C78 N75 1.313 . S
C78 N79 1.344 . S
C78 H82 0.930 . S
N79 C76 1.377 1_655 S
N79 C78 1.344 . S
O80 Co72 2.055 . S
O80 C84 1.253 . S
H81 C77 0.931 1_455 S
H82 C78 0.930 . S
O83 Co72 2.039 . S
O83 C73 1.265 . S
C84 O80 1.253 . S
C84 O85 1.227 . S
O85 C84 1.227 . S
N86 Co72 2.140 . S
N86 C89 1.346 . S
N86 C90 1.345 . S
C87 C88 1.387 . S
C87 C91 1.391 . S
C88 C87 1.387 . S
C88 C89 1.369 . S
C88 H97 0.929 . S
C89 N86 1.346 . S
C89 C88 1.369 . S
C89 H92 0.928 . S
C90 N86 1.345 . S
C90 C91 1.371 . S
C90 H93 0.931 . S
C91 C87 1.391 . S
C91 C90 1.371 . S
C91 H98 0.930 . S
H92 C89 0.928 . S
H93 C90 0.931 . S
H94 C70 0.930 . S
H95 C67 0.930 . S
H96 C76 0.930 . S
H97 C88 0.929 . S
H98 C91 0.930 . S
C99 C100 1.351 1_556 S
C99 N102 1.368 . S
C99 H104 0.931 . S
C100 C99 1.351 1_554 S
C100 N101 1.373 . S
C100 H128 0.930 . S
N101 C100 1.373 . S
N101 C103 1.340 . S
N102 C99 1.368 . S
N102 C103 1.321 1_556 S
N102 Co105 2.135 . S
C103 N101 1.340 . S
C103 N102 1.321 1_554 S
C103 H127 0.930 . S
H104 C99 0.931 . S
Co105 N102 2.135 . S
Co105 N108 2.121 . S
Co105 O113 2.055 . S
Co105 O116 2.039 . S
Co105 N119 2.140 . S
C106 O107 1.232 . S
C106 O116 1.265 . S
O107 C106 1.232 . S
N108 Co105 2.121 . S
N108 C110 1.375 . S
N108 C111 1.313 . S
C109 C110 1.338 1_545 S
C109 N112 1.377 1_545 S
C109 H129 0.930 . S
C110 N108 1.375 . S
C110 C109 1.338 1_565 S
C110 H114 0.931 1_565 S
C111 N108 1.313 . S
C111 N112 1.344 . S
C111 H115 0.930 . S
N112 C109 1.377 1_565 S
N112 C111 1.344 . S
O113 Co105 2.055 . S
O113 C117 1.253 . S
H114 C110 0.931 1_545 S
H115 C111 0.930 . S
O116 Co105 2.039 . S
O116 C106 1.265 . S
C117 O113 1.253 . S
C117 O118 1.227 . S
O118 C117 1.227 . S
N119 Co105 2.140 . S
N119 C122 1.346 . S
N119 C123 1.345 . S
C120 C121 1.387 . S
C120 C124 1.391 . S
C121 C120 1.387 . S
C121 C122 1.369 . S
C121 H130 0.929 1_556 S
C122 N119 1.346 . S
C122 C121 1.369 . S
C122 H125 0.928 1_556 S
C123 N119 1.345 . S
C123 C124 1.371 . S
C123 H126 0.931 . S
C124 C120 1.391 . S
C124 C123 1.371 . S
C124 H131 0.930 . S
H125 C122 0.928 1_554 S
H126 C123 0.931 . S
H127 C103 0.930 . S
H128 C100 0.930 . S
H129 C109 0.930 . S
H130 C121 0.929 1_554 S
H131 C124 0.930 . S
C132 C133 1.351 . S
C132 N135 1.368 . S
C132 H137 0.931 . S
C133 C132 1.351 . S
C133 N134 1.373 . S
C133 H161 0.930 . S
N134 C133 1.373 . S
N134 C136 1.340 . S
N135 C132 1.368 . S
N135 C136 1.321 . S
N135 Co138 2.135 . S
C136 N134 1.340 . S
C136 N135 1.321 . S
C136 H160 0.930 . S
H137 C132 0.931 . S
Co138 N135 2.135 . S
Co138 N141 2.121 . S
Co138 O146 2.055 . S
Co138 O149 2.039 . S
Co138 N152 2.140 . S
C139 O140 1.227 . S
C139 O149 1.265 . S
O140 C139 1.227 . S
N141 Co138 2.121 . S
N141 C143 1.375 . S
N141 C144 1.313 . S
C142 C143 1.338 1_655 S
C142 N145 1.377 1_655 S
C142 H162 0.930 . S
C143 N141 1.375 . S
C143 C142 1.338 1_455 S
C143 H147 0.931 1_455 S
C144 N141 1.313 . S
C144 N145 1.344 . S
C144 H148 0.930 . S
N145 C142 1.377 1_455 S
N145 C144 1.344 . S
O146 Co138 2.055 . S
O146 C150 1.253 . S
H147 C143 0.931 1_655 S
H148 C144 0.930 . S
O149 Co138 2.039 . S
O149 C139 1.265 . S
C150 O146 1.253 . S
C150 O151 1.227 . S
O151 C150 1.227 . S
N152 Co138 2.140 . S
N152 C155 1.346 . S
N152 C156 1.345 . S
C153 C154 1.387 . S
C153 C157 1.391 . S
C154 C153 1.387 . S
C154 C155 1.369 . S
C154 H163 0.929 . S
C155 N152 1.346 . S
C155 C154 1.369 . S
C155 H158 0.928 . S
C156 N152 1.345 . S
C156 C157 1.371 . S
C156 H159 0.931 . S
C157 C153 1.391 . S
C157 C156 1.371 . S
C157 H164 0.930 . S
H158 C155 0.928 . S
H159 C156 0.931 . S
H160 C136 0.930 . S
H161 C133 0.930 . S
H162 C142 0.930 . S
H163 C154 0.929 . S
H164 C157 0.930 . S
C165 C166 1.351 . S
C165 N168 1.368 . S
C165 H170 0.931 . S
C166 C165 1.351 . S
C166 N167 1.373 . S
C166 H194 0.930 . S
N167 C166 1.373 . S
N167 C169 1.340 . S
N168 C165 1.368 . S
N168 C169 1.321 . S
N168 Co171 2.135 . S
C169 N167 1.340 . S
C169 N168 1.321 . S
C169 H193 0.930 . S
H170 C165 0.931 . S
Co171 N168 2.135 . S
Co171 N174 2.121 . S
Co171 O179 2.055 . S
Co171 O182 2.039 . S
Co171 N185 2.140 . S
C172 O173 1.227 . S
C172 O182 1.265 . S
O173 C172 1.227 . S
N174 Co171 2.121 . S
N174 C176 1.375 . S
N174 C177 1.313 . S
C175 C176 1.338 1_565 S
C175 N178 1.377 1_565 S
C175 H195 0.930 . S
C176 N174 1.375 . S
C176 C175 1.338 1_545 S
C176 H180 0.931 1_545 S
C177 N174 1.313 . S
C177 N178 1.344 . S
C177 H181 0.930 . S
N178 C175 1.377 1_545 S
N178 C177 1.344 . S
O179 Co171 2.055 . S
O179 C183 1.253 . S
H180 C176 0.931 1_565 S
H181 C177 0.930 . S
O182 Co171 2.039 . S
O182 C172 1.265 . S
C183 O179 1.253 . S
C183 O184 1.227 . S
O184 C183 1.227 . S
N185 Co171 2.140 . S
N185 C188 1.346 . S
N185 C189 1.345 . S
C186 C187 1.387 . S
C186 C190 1.391 . S
C187 C186 1.387 . S
C187 C188 1.369 . S
C187 H196 0.929 . S
C188 N185 1.346 . S
C188 C187 1.369 . S
C188 H191 0.928 . S
C189 N185 1.345 . S
C189 C190 1.371 . S
C189 H192 0.931 . S
C190 C186 1.391 . S
C190 C189 1.371 . S
C190 H197 0.930 . S
H191 C188 0.928 . S
H192 C189 0.931 . S
H193 C169 0.930 . S
H194 C166 0.930 . S
H195 C175 0.930 . S
H196 C187 0.929 . S
H197 C190 0.930 . S
C198 C199 1.351 . S
C198 N201 1.368 . S
C198 H203 0.931 . S
C199 C198 1.351 . S
C199 N200 1.373 . S
C199 H227 0.930 . S
N200 C199 1.373 . S
N200 C202 1.340 . S
N201 C198 1.368 . S
N201 C202 1.321 . S
N201 Co204 2.135 . S
C202 N200 1.340 . S
C202 N201 1.321 . S
C202 H226 0.930 . S
H203 C198 0.931 . S
Co204 N201 2.135 . S
Co204 N207 2.121 . S
Co204 O212 2.055 . S
Co204 O215 2.039 . S
Co204 N218 2.140 . S
C205 O206 1.227 . S
C205 O215 1.265 . S
O206 C205 1.227 . S
N207 Co204 2.121 . S
N207 C209 1.375 . S
N207 C210 1.313 . S
C208 C209 1.338 1_455 S
C208 N211 1.377 1_455 S
C208 H228 0.930 . S
C209 N207 1.375 . S
C209 C208 1.338 1_655 S
C209 H213 0.931 1_655 S
C210 N207 1.313 . S
C210 N211 1.344 . S
C210 H214 0.930 . S
N211 C208 1.377 1_655 S
N211 C210 1.344 . S
O212 Co204 2.055 . S
O212 C216 1.253 . S
H213 C209 0.931 1_455 S
H214 C210 0.930 . S
O215 Co204 2.039 . S
O215 C205 1.265 . S
C216 O212 1.253 . S
C216 O217 1.227 . S
O217 C216 1.227 . S
N218 Co204 2.140 . S
N218 C221 1.346 . S
N218 C222 1.345 . S
C219 C220 1.387 . S
C219 C223 1.391 . S
C220 C219 1.387 . S
C220 C221 1.369 . S
C220 H229 0.929 . S
C221 N218 1.346 . S
C221 C220 1.369 . S
C221 H224 0.928 . S
C222 N218 1.345 . S
C222 C223 1.371 . S
C222 H225 0.931 . S
C223 C219 1.391 . S
C223 C222 1.371 . S
C223 H230 0.930 . S
H224 C221 0.928 . S
H225 C222 0.931 . S
H226 C202 0.930 . S
H227 C199 0.930 . S
H228 C208 0.930 . S
H229 C220 0.929 . S
H230 C223 0.930 . S
C231 C232 1.351 1_554 S
C231 N234 1.368 . S
C231 H236 0.931 . S
C232 C231 1.351 1_556 S
C232 N233 1.373 . S
C232 H260 0.930 . S
N233 C232 1.373 . S
N233 C235 1.340 . S
N234 C231 1.368 . S
N234 C235 1.321 1_554 S
N234 Co237 2.135 . S
C235 N233 1.340 . S
C235 N234 1.321 1_556 S
C235 H259 0.930 . S
H236 C231 0.931 . S
Co237 N234 2.135 . S
Co237 N240 2.121 . S
Co237 O245 2.055 . S
Co237 O248 2.039 . S
Co237 N251 2.140 . S
C238 O239 1.232 . S
C238 O248 1.265 . S
O239 C238 1.232 . S
N240 Co237 2.121 . S
N240 C242 1.375 . S
N240 C243 1.313 . S
C241 C242 1.338 1_545 S
C241 N244 1.377 1_545 S
C241 H261 0.930 . S
C242 N240 1.375 . S
C242 C241 1.338 1_565 S
C242 H246 0.931 1_565 S
C243 N240 1.313 . S
C243 N244 1.344 . S
C243 H247 0.930 . S
N244 C241 1.377 1_565 S
N244 C243 1.344 . S
O245 Co237 2.055 . S
O245 C249 1.253 . S
H246 C242 0.931 1_545 S
H247 C243 0.930 . S
O248 Co237 2.039 . S
O248 C238 1.265 . S
C249 O245 1.253 . S
C249 O250 1.227 . S
O250 C249 1.227 . S
N251 Co237 2.140 . S
N251 C254 1.346 . S
N251 C255 1.345 . S
C252 C253 1.387 . S
C252 C256 1.391 . S
C253 C252 1.387 . S
C253 C254 1.369 . S
C253 H262 0.929 1_554 S
C254 N251 1.346 . S
C254 C253 1.369 . S
C254 H257 0.928 1_554 S
C255 N251 1.345 . S
C255 C256 1.371 . S
C255 H258 0.931 . S
C256 C252 1.391 . S
C256 C255 1.371 . S
C256 H263 0.930 . S
H257 C254 0.928 1_556 S
H258 C255 0.931 . S
H259 C235 0.930 . S
H260 C232 0.930 . S
H261 C241 0.930 . S
H262 C253 0.929 1_556 S
H263 C256 0.930 . S
C264 C265 1.391 . S
C264 C266 1.394 . S
C264 H280 0.931 . S
C265 C264 1.391 . S
C265 C269 1.376 . S
C266 C264 1.394 . S
C266 C267 1.369 . S
C266 C270 1.531 . S
C267 C266 1.369 . S
C267 C268 1.410 . S
C267 C275 1.503 . S
C268 C267 1.410 . S
C268 C269 1.392 . S
C268 C271 1.511 . S
C269 C265 1.376 . S
C269 C268 1.392 . S
C269 H281 0.929 . S
C270 C266 1.531 . S
C270 H282 0.960 . S
C270 H283 0.962 . S
C270 H284 0.960 . S
C271 C268 1.511 . S
C271 H285 0.961 . S
C271 H286 0.961 . S
C271 H287 0.961 . S
C272 C273 1.370 . S
C272 C274 1.363 . S
C272 H288 0.931 . S
C273 C272 1.370 . S
C273 C277 1.408 . S
C274 C272 1.363 . S
C274 C275 1.370 . S
C274 C278 1.524 . S
C275 C267 1.503 . S
C275 C274 1.370 . S
C275 C276 1.403 . S
C276 C275 1.403 . S
C276 C277 1.404 . S
C276 C279 1.539 . S
C277 C273 1.408 . S
C277 C276 1.404 . S
C277 H289 0.930 . S
C278 C274 1.524 . S
C278 H290 0.956 . S
C278 H291 0.961 . S
C278 H292 0.961 . S
C279 C276 1.539 . S
C279 H293 0.958 . S
C279 H294 0.961 . S
C279 H295 0.960 . S
H280 C264 0.931 . S
H281 C269 0.929 . S
H282 C270 0.960 . S
H283 C270 0.962 . S
H284 C270 0.960 . S
H285 C271 0.961 . S
H286 C271 0.961 . S
H287 C271 0.961 . S
H288 C272 0.931 . S
H289 C277 0.930 . S
H290 C278 0.956 . S
H291 C278 0.961 . S
H292 C278 0.961 . S
H293 C279 0.958 . S
H294 C279 0.961 . S
H295 C279 0.960 . S
C296 C297 1.391 . S
C296 C298 1.394 . S
C296 H312 0.931 . S
C297 C296 1.391 . S
C297 C301 1.376 . S
C298 C296 1.394 . S
C298 C299 1.369 . S
C298 C302 1.531 . S
C299 C298 1.369 . S
C299 C300 1.410 . S
C299 C307 1.503 . S
C300 C299 1.410 . S
C300 C301 1.392 . S
C300 C303 1.511 . S
C301 C297 1.376 . S
C301 C300 1.392 . S
C301 H313 0.929 . S
C302 C298 1.531 . S
C302 H314 0.960 . S
C302 H315 0.962 . S
C302 H316 0.960 . S
C303 C300 1.511 . S
C303 H317 0.961 . S
C303 H318 0.961 . S
C303 H319 0.961 . S
C304 C305 1.370 . S
C304 C306 1.363 . S
C304 H320 0.931 . S
C305 C304 1.370 . S
C305 C309 1.408 . S
C306 C304 1.363 . S
C306 C307 1.370 . S
C306 C310 1.524 . S
C307 C299 1.503 . S
C307 C306 1.370 . S
C307 C308 1.403 . S
C308 C307 1.403 . S
C308 C309 1.404 . S
C308 C311 1.539 . S
C309 C305 1.408 . S
C309 C308 1.404 . S
C309 H321 0.930 . S
C310 C306 1.524 . S
C310 H322 0.956 . S
C310 H323 0.961 . S
C310 H324 0.961 . S
C311 C308 1.539 . S
C311 H325 0.958 . S
C311 H326 0.961 . S
C311 H327 0.960 . S
H312 C296 0.931 . S
H313 C301 0.929 . S
H314 C302 0.960 . S
H315 C302 0.962 . S
H316 C302 0.960 . S
H317 C303 0.961 . S
H318 C303 0.961 . S
H319 C303 0.961 . S
H320 C304 0.931 . S
H321 C309 0.930 . S
H322 C310 0.956 . S
H323 C310 0.961 . S
H324 C310 0.961 . S
H325 C311 0.958 . S
H326 C311 0.961 . S
H327 C311 0.960 . S
C328 C329 1.391 . S
C328 C330 1.394 . S
C328 H344 0.931 . S
C329 C328 1.391 . S
C329 C333 1.376 . S
C330 C328 1.394 . S
C330 C331 1.369 . S
C330 C334 1.531 . S
C331 C330 1.369 . S
C331 C332 1.410 . S
C331 C339 1.503 . S
C332 C331 1.410 . S
C332 C333 1.392 . S
C332 C335 1.511 . S
C333 C329 1.376 . S
C333 C332 1.392 . S
C333 H345 0.929 . S
C334 C330 1.531 . S
C334 H346 0.960 . S
C334 H347 0.962 . S
C334 H348 0.960 . S
C335 C332 1.511 . S
C335 H349 0.961 . S
C335 H350 0.961 . S
C335 H351 0.961 . S
C336 C337 1.370 . S
C336 C338 1.363 . S
C336 H352 0.931 . S
C337 C336 1.370 . S
C337 C341 1.408 . S
C338 C336 1.363 . S
C338 C339 1.370 . S
C338 C342 1.524 . S
C339 C331 1.503 . S
C339 C338 1.370 . S
C339 C340 1.403 . S
C340 C339 1.403 . S
C340 C341 1.404 . S
C340 C343 1.539 . S
C341 C337 1.408 . S
C341 C340 1.404 . S
C341 H353 0.930 . S
C342 C338 1.524 . S
C342 H354 0.956 . S
C342 H355 0.961 . S
C342 H356 0.961 . S
C343 C340 1.539 . S
C343 H357 0.958 . S
C343 H358 0.961 . S
C343 H359 0.960 . S
H344 C328 0.931 . S
H345 C333 0.929 . S
H346 C334 0.960 . S
H347 C334 0.962 . S
H348 C334 0.960 . S
H349 C335 0.961 . S
H350 C335 0.961 . S
H351 C335 0.961 . S
H352 C336 0.931 . S
H353 C341 0.930 . S
H354 C342 0.956 . S
H355 C342 0.961 . S
H356 C342 0.961 . S
H357 C343 0.958 . S
H358 C343 0.961 . S
H359 C343 0.960 . S
C360 C361 1.391 . S
C360 C362 1.394 . S
C360 H376 0.931 . S
C361 C360 1.391 . S
C361 C365 1.376 . S
C362 C360 1.394 . S
C362 C363 1.369 . S
C362 C366 1.531 . S
C363 C362 1.369 . S
C363 C364 1.410 1_556 S
C363 C371 1.503 1_556 S
C364 C363 1.410 1_554 S
C364 C365 1.392 1_554 S
C364 C367 1.511 . S
C365 C361 1.376 . S
C365 C364 1.392 1_556 S
C365 H377 0.929 1_556 S
C366 C362 1.531 . S
C366 H378 0.960 . S
C366 H379 0.962 . S
C366 H380 0.960 . S
C367 C364 1.511 . S
C367 H381 0.961 . S
C367 H382 0.961 . S
C367 H383 0.961 . S
C368 C369 1.370 . S
C368 C370 1.363 1_554 S
C368 H384 0.931 1_554 S
C369 C368 1.370 . S
C369 C373 1.408 . S
C370 C368 1.363 1_556 S
C370 C371 1.370 1_556 S
C370 C374 1.524 . S
C371 C363 1.503 1_554 S
C371 C370 1.370 1_554 S
C371 C372 1.403 . S
C372 C371 1.403 . S
C372 C373 1.404 . S
C372 C375 1.539 . S
C373 C369 1.408 . S
C373 C372 1.404 . S
C373 H385 0.930 . S
C374 C370 1.524 . S
C374 H386 0.956 . S
C374 H387 0.961 . S
C374 H388 0.961 . S
C375 C372 1.539 . S
C375 H389 0.958 . S
C375 H390 0.961 . S
C375 H391 0.960 . S
H376 C360 0.931 . S
H377 C365 0.929 1_554 S
H378 C366 0.960 . S
H379 C366 0.962 . S
H380 C366 0.960 . S
H381 C367 0.961 . S
H382 C367 0.961 . S
H383 C367 0.961 . S
H384 C368 0.931 1_556 S
H385 C373 0.930 . S
H386 C374 0.956 . S
H387 C374 0.961 . S
H388 C374 0.961 . S
H389 C375 0.958 . S
H390 C375 0.961 . S
H391 C375 0.960 . S
C392 C393 1.391 . S
C392 C394 1.394 . S
C392 H408 0.931 . S
C393 C392 1.391 . S
C393 C397 1.376 . S
C394 C392 1.394 . S
C394 C395 1.369 . S
C394 C398 1.531 . S
C395 C394 1.369 . S
C395 C396 1.410 . S
C395 C403 1.503 . S
C396 C395 1.410 . S
C396 C397 1.392 . S
C396 C399 1.511 . S
C397 C393 1.376 . S
C397 C396 1.392 . S
C397 H409 0.929 . S
C398 C394 1.531 . S
C398 H410 0.960 . S
C398 H411 0.962 . S
C398 H412 0.960 . S
C399 C396 1.511 . S
C399 H413 0.961 . S
C399 H414 0.961 . S
C399 H415 0.961 . S
C400 C401 1.370 . S
C400 C402 1.363 . S
C400 H416 0.931 . S
C401 C400 1.370 . S
C401 C405 1.408 . S
C402 C400 1.363 . S
C402 C403 1.370 . S
C402 C406 1.524 . S
C403 C395 1.503 . S
C403 C402 1.370 . S
C403 C404 1.403 . S
C404 C403 1.403 . S
C404 C405 1.404 . S
C404 C407 1.539 . S
C405 C401 1.408 . S
C405 C404 1.404 . S
C405 H417 0.930 . S
C406 C402 1.524 . S
C406 H418 0.956 . S
C406 H419 0.961 . S
C406 H420 0.961 . S
C407 C404 1.539 . S
C407 H421 0.958 . S
C407 H422 0.961 . S
C407 H423 0.960 . S
H408 C392 0.931 . S
H409 C397 0.929 . S
H410 C398 0.960 . S
H411 C398 0.962 . S
H412 C398 0.960 . S
H413 C399 0.961 . S
H414 C399 0.961 . S
H415 C399 0.961 . S
H416 C400 0.931 . S
H417 C405 0.930 . S
H418 C406 0.956 . S
H419 C406 0.961 . S
H420 C406 0.961 . S
H421 C407 0.958 . S
H422 C407 0.961 . S
H423 C407 0.960 . S
C424 C425 1.391 . S
C424 C426 1.394 . S
C424 H440 0.931 . S
C425 C424 1.391 . S
C425 C429 1.376 . S
C426 C424 1.394 . S
C426 C427 1.369 . S
C426 C430 1.531 . S
C427 C426 1.369 . S
C427 C428 1.410 . S
C427 C435 1.503 . S
C428 C427 1.410 . S
C428 C429 1.392 . S
C428 C431 1.511 . S
C429 C425 1.376 . S
C429 C428 1.392 . S
C429 H441 0.929 . S
C430 C426 1.531 . S
C430 H442 0.960 . S
C430 H443 0.962 . S
C430 H444 0.960 . S
C431 C428 1.511 . S
C431 H445 0.961 . S
C431 H446 0.961 . S
C431 H447 0.961 . S
C432 C433 1.370 . S
C432 C434 1.363 . S
C432 H448 0.931 . S
C433 C432 1.370 . S
C433 C437 1.408 . S
C434 C432 1.363 . S
C434 C435 1.370 . S
C434 C438 1.524 . S
C435 C427 1.503 . S
C435 C434 1.370 . S
C435 C436 1.403 . S
C436 C435 1.403 . S
C436 C437 1.404 . S
C436 C439 1.539 . S
C437 C433 1.408 . S
C437 C436 1.404 . S
C437 H449 0.930 . S
C438 C434 1.524 . S
C438 H450 0.956 . S
C438 H451 0.961 . S
C438 H452 0.961 . S
C439 C436 1.539 . S
C439 H453 0.958 . S
C439 H454 0.961 . S
C439 H455 0.960 . S
H440 C424 0.931 . S
H441 C429 0.929 . S
H442 C430 0.960 . S
H443 C430 0.962 . S
H444 C430 0.960 . S
H445 C431 0.961 . S
H446 C431 0.961 . S
H447 C431 0.961 . S
H448 C432 0.931 . S
H449 C437 0.930 . S
H450 C438 0.956 . S
H451 C438 0.961 . S
H452 C438 0.961 . S
H453 C439 0.958 . S
H454 C439 0.961 . S
H455 C439 0.960 . S
C456 C457 1.391 . S
C456 C458 1.394 . S
C456 H472 0.931 . S
C457 C456 1.391 . S
C457 C461 1.376 . S
C458 C456 1.394 . S
C458 C459 1.369 . S
C458 C462 1.531 . S
C459 C458 1.369 . S
C459 C460 1.410 . S
C459 C467 1.503 . S
C460 C459 1.410 . S
C460 C461 1.392 . S
C460 C463 1.511 . S
C461 C457 1.376 . S
C461 C460 1.392 . S
C461 H473 0.929 . S
C462 C458 1.531 . S
C462 H474 0.960 . S
C462 H475 0.962 . S
C462 H476 0.960 . S
C463 C460 1.511 . S
C463 H477 0.961 . S
C463 H478 0.961 . S
C463 H479 0.961 . S
C464 C465 1.370 . S
C464 C466 1.363 . S
C464 H480 0.931 . S
C465 C464 1.370 . S
C465 C469 1.408 . S
C466 C464 1.363 . S
C466 C467 1.370 . S
C466 C470 1.524 . S
C467 C459 1.503 . S
C467 C466 1.370 . S
C467 C468 1.403 . S
C468 C467 1.403 . S
C468 C469 1.404 . S
C468 C471 1.539 . S
C469 C465 1.408 . S
C469 C468 1.404 . S
C469 H481 0.930 . S
C470 C466 1.524 . S
C470 H482 0.956 . S
C470 H483 0.961 . S
C470 H484 0.961 . S
C471 C468 1.539 . S
C471 H485 0.958 . S
C471 H486 0.961 . S
C471 H487 0.960 . S
H472 C456 0.931 . S
H473 C461 0.929 . S
H474 C462 0.960 . S
H475 C462 0.962 . S
H476 C462 0.960 . S
H477 C463 0.961 . S
H478 C463 0.961 . S
H479 C463 0.961 . S
H480 C464 0.931 . S
H481 C469 0.930 . S
H482 C470 0.956 . S
H483 C470 0.961 . S
H484 C470 0.961 . S
H485 C471 0.958 . S
H486 C471 0.961 . S
H487 C471 0.960 . S
C488 C489 1.391 . S
C488 C490 1.394 . S
C488 H504 0.931 . S
C489 C488 1.391 . S
C489 C493 1.376 . S
C490 C488 1.394 . S
C490 C491 1.369 . S
C490 C494 1.531 . S
C491 C490 1.369 . S
C491 C492 1.410 . S
C491 C499 1.503 . S
C492 C491 1.410 . S
C492 C493 1.392 . S
C492 C495 1.511 . S
C493 C489 1.376 . S
C493 C492 1.392 . S
C493 H505 0.929 . S
C494 C490 1.531 . S
C494 H506 0.960 . S
C494 H507 0.962 . S
C494 H508 0.960 . S
C495 C492 1.511 . S
C495 H509 0.961 . S
C495 H510 0.961 . S
C495 H511 0.961 . S
C496 C497 1.370 . S
C496 C498 1.363 . S
C496 H512 0.931 . S
C497 C496 1.370 . S
C497 C501 1.408 . S
C498 C496 1.363 . S
C498 C499 1.370 . S
C498 C502 1.524 . S
C499 C491 1.503 . S
C499 C498 1.370 . S
C499 C500 1.403 . S
C500 C499 1.403 . S
C500 C501 1.404 . S
C500 C503 1.539 . S
C501 C497 1.408 . S
C501 C500 1.404 . S
C501 H513 0.930 . S
C502 C498 1.524 . S
C502 H514 0.956 . S
C502 H515 0.961 . S
C502 H516 0.961 . S
C503 C500 1.539 . S
C503 H517 0.958 . S
C503 H518 0.961 . S
C503 H519 0.960 . S
H504 C488 0.931 . S
H505 C493 0.929 . S
H506 C494 0.960 . S
H507 C494 0.962 . S
H508 C494 0.960 . S
H509 C495 0.961 . S
H510 C495 0.961 . S
H511 C495 0.961 . S
H512 C496 0.931 . S
H513 C501 0.930 . S
H514 C502 0.956 . S
H515 C502 0.961 . S
H516 C502 0.961 . S
H517 C503 0.958 . S
H518 C503 0.961 . S
H519 C503 0.960 . S
C520 C521 1.391 1_655 S
C520 C522 1.394 . S
C520 H536 0.931 . S
C521 C520 1.391 1_455 S
C521 C525 1.376 . S
C522 C520 1.394 . S
C522 C523 1.369 1_655 S
C522 C526 1.531 . S
C523 C522 1.369 1_455 S
C523 C524 1.410 . S
C523 C531 1.503 1_554 S
C524 C523 1.410 . S
C524 C525 1.392 . S
C524 C527 1.511 . S
C525 C521 1.376 . S
C525 C524 1.392 . S
C525 H537 0.929 . S
C526 C522 1.531 . S
C526 H538 0.960 . S
C526 H539 0.962 . S
C526 H540 0.960 . S
C527 C524 1.511 . S
C527 H541 0.961 . S
C527 H542 0.961 1_554 S
C527 H543 0.961 . S
C528 C529 1.370 . S
C528 C530 1.363 . S
C528 H544 0.931 . S
C529 C528 1.370 . S
C529 C533 1.408 1_655 S
C530 C528 1.363 . S
C530 C531 1.370 1_655 S
C530 C534 1.524 . S
C531 C523 1.503 1_556 S
C531 C530 1.370 1_455 S
C531 C532 1.403 . S
C532 C531 1.403 . S
C532 C533 1.404 . S
C532 C535 1.539 . S
C533 C529 1.408 1_455 S
C533 C532 1.404 . S
C533 H545 0.930 . S
C534 C530 1.524 . S
C534 H546 0.956 1_556 S
C534 H547 0.961 1_556 S
C534 H548 0.961 . S
C535 C532 1.539 . S
C535 H549 0.958 . S
C535 H550 0.961 . S
C535 H551 0.960 . S
H536 C520 0.931 . S
H537 C525 0.929 . S
H538 C526 0.960 . S
H539 C526 0.962 . S
H540 C526 0.960 . S
H541 C527 0.961 . S
H542 C527 0.961 1_556 S
H543 C527 0.961 . S
H544 C528 0.931 . S
H545 C533 0.930 . S
H546 C534 0.956 1_554 S
H547 C534 0.961 1_554 S
H548 C534 0.961 . S
H549 C535 0.958 . S
H550 C535 0.961 . S
H551 C535 0.960 . S
C552 C553 1.391 . S
C552 C554 1.394 . S
C552 H568 0.931 . S
C553 C552 1.391 . S
C553 C557 1.376 1_565 S
C554 C552 1.394 . S
C554 C555 1.369 . S
C554 C558 1.531 . S
C555 C554 1.369 . S
C555 C556 1.410 1_565 S
C555 C563 1.503 . S
C556 C555 1.410 1_545 S
C556 C557 1.392 . S
C556 C559 1.511 . S
C557 C553 1.376 1_545 S
C557 C556 1.392 . S
C557 H569 0.929 . S
C558 C554 1.531 . S
C558 H570 0.960 . S
C558 H571 0.962 . S
C558 H572 0.960 . S
C559 C556 1.511 . S
C559 H573 0.961 . S
C559 H574 0.961 . S
C559 H575 0.961 . S
C560 C561 1.370 . S
C560 C562 1.363 . S
C560 H576 0.931 . S
C561 C560 1.370 . S
C561 C565 1.408 1_545 S
C562 C560 1.363 . S
C562 C563 1.370 1_545 S
C562 C566 1.524 . S
C563 C555 1.503 . S
C563 C562 1.370 1_565 S
C563 C564 1.403 . S
C564 C563 1.403 . S
C564 C565 1.404 . S
C564 C567 1.539 . S
C565 C561 1.408 1_565 S
C565 C564 1.404 . S
C565 H577 0.930 . S
C566 C562 1.524 . S
C566 H578 0.956 . S
C566 H579 0.961 . S
C566 H580 0.961 . S
C567 C564 1.539 . S
C567 H581 0.958 . S
C567 H582 0.961 . S
C567 H583 0.960 . S
H568 C552 0.931 . S
H569 C557 0.929 . S
H570 C558 0.960 . S
H571 C558 0.962 . S
H572 C558 0.960 . S
H573 C559 0.961 . S
H574 C559 0.961 . S
H575 C559 0.961 . S
H576 C560 0.931 . S
H577 C565 0.930 . S
H578 C566 0.956 . S
H579 C566 0.961 . S
H580 C566 0.961 . S
H581 C567 0.958 . S
H582 C567 0.961 . S
H583 C567 0.960 . S
C584 C585 1.391 . S
C584 C586 1.394 . S
C584 H600 0.931 . S
C585 C584 1.391 . S
C585 C589 1.376 1_655 S
C586 C584 1.394 . S
C586 C587 1.369 1_655 S
C586 C590 1.531 . S
C587 C586 1.369 1_455 S
C587 C588 1.410 . S
C587 C595 1.503 . S
C588 C587 1.410 . S
C588 C589 1.392 . S
C588 C591 1.511 . S
C589 C585 1.376 1_455 S
C589 C588 1.392 . S
C589 H601 0.929 . S
C590 C586 1.531 . S
C590 H602 0.960 . S
C590 H603 0.962 . S
C590 H604 0.960 . S
C591 C588 1.511 . S
C591 H605 0.961 . S
C591 H606 0.961 . S
C591 H607 0.961 . S
C592 C593 1.370 1_655 S
C592 C594 1.363 . S
C592 H608 0.931 . S
C593 C592 1.370 1_455 S
C593 C597 1.408 . S
C594 C592 1.363 . S
C594 C595 1.370 1_655 S
C594 C598 1.524 . S
C595 C587 1.503 . S
C595 C594 1.370 1_455 S
C595 C596 1.403 . S
C596 C595 1.403 . S
C596 C597 1.404 . S
C596 C599 1.539 . S
C597 C593 1.408 . S
C597 C596 1.404 . S
C597 H609 0.930 . S
C598 C594 1.524 . S
C598 H610 0.956 . S
C598 H611 0.961 . S
C598 H612 0.961 . S
C599 C596 1.539 . S
C599 H613 0.958 . S
C599 H614 0.961 . S
C599 H615 0.960 . S
H600 C584 0.931 . S
H601 C589 0.929 . S
H602 C590 0.960 . S
H603 C590 0.962 . S
H604 C590 0.960 . S
H605 C591 0.961 . S
H606 C591 0.961 . S
H607 C591 0.961 . S
H608 C592 0.931 . S
H609 C597 0.930 . S
H610 C598 0.956 . S
H611 C598 0.961 . S
H612 C598 0.961 . S
H613 C599 0.958 . S
H614 C599 0.961 . S
H615 C599 0.960 . S
C616 C617 1.391 1_565 S
C616 C618 1.394 . S
C616 H632 0.931 . S
C617 C616 1.391 1_545 S
C617 C621 1.376 . S
C618 C616 1.394 . S
C618 C619 1.369 . S
C618 C622 1.531 . S
C619 C618 1.369 . S
C619 C620 1.410 1_565 S
C619 C627 1.503 . S
C620 C619 1.410 1_545 S
C620 C621 1.392 . S
C620 C623 1.511 . S
C621 C617 1.376 . S
C621 C620 1.392 . S
C621 H633 0.929 . S
C622 C618 1.531 . S
C622 H634 0.960 . S
C622 H635 0.962 . S
C622 H636 0.960 . S
C623 C620 1.511 . S
C623 H637 0.961 . S
C623 H638 0.961 . S
C623 H639 0.961 . S
C624 C625 1.370 1_545 S
C624 C626 1.363 . S
C624 H640 0.931 . S
C625 C624 1.370 1_565 S
C625 C629 1.408 . S
C626 C624 1.363 . S
C626 C627 1.370 1_545 S
C626 C630 1.524 . S
C627 C619 1.503 . S
C627 C626 1.370 1_565 S
C627 C628 1.403 . S
C628 C627 1.403 . S
C628 C629 1.404 . S
C628 C631 1.539 . S
C629 C625 1.408 . S
C629 C628 1.404 . S
C629 H641 0.930 . S
C630 C626 1.524 . S
C630 H642 0.956 . S
C630 H643 0.961 . S
C630 H644 0.961 . S
C631 C628 1.539 . S
C631 H645 0.958 . S
C631 H646 0.961 . S
C631 H647 0.960 . S
H632 C616 0.931 . S
H633 C621 0.929 . S
H634 C622 0.960 . S
H635 C622 0.962 . S
H636 C622 0.960 . S
H637 C623 0.961 . S
H638 C623 0.961 . S
H639 C623 0.961 . S
H640 C624 0.931 . S
H641 C629 0.930 . S
H642 C630 0.956 . S
H643 C630 0.961 . S
H644 C630 0.961 . S
H645 C631 0.958 . S
H646 C631 0.961 . S
H647 C631 0.960 . S
C648 C649 1.391 . S
C648 C650 1.394 . S
C648 H664 0.931 . S
C649 C648 1.391 . S
C649 C653 1.376 . S
C650 C648 1.394 . S
C650 C651 1.369 . S
C650 C654 1.531 . S
C651 C650 1.369 . S
C651 C652 1.410 . S
C651 C659 1.503 . S
C652 C651 1.410 . S
C652 C653 1.392 . S
C652 C655 1.511 . S
C653 C649 1.376 . S
C653 C652 1.392 . S
C653 H665 0.929 . S
C654 C650 1.531 . S
C654 H666 0.960 . S
C654 H667 0.962 . S
C654 H668 0.960 . S
C655 C652 1.511 . S
C655 H669 0.961 . S
C655 H670 0.961 . S
C655 H671 0.961 . S
C656 C657 1.370 . S
C656 C658 1.363 . S
C656 H672 0.916 1_545 S
C657 C656 1.370 . S
C657 C661 1.408 . S
C658 C656 1.363 . S
C658 C659 1.370 . S
C658 C662 1.524 . S
C659 C651 1.503 . S
C659 C658 1.370 . S
C659 C660 1.403 . S
C660 C659 1.403 . S
C660 C661 1.404 . S
C660 C663 1.539 . S
C661 C657 1.408 . S
C661 C660 1.404 . S
C661 H673 0.930 1_554 S
C662 C658 1.524 . S
C662 H674 0.956 . S
C662 H675 0.961 . S
C662 H676 0.961 . S
C663 C660 1.539 . S
C663 H677 0.953 1_554 S
C663 H678 0.961 1_554 S
C663 H679 0.960 . S
H664 C648 0.931 . S
H665 C653 0.929 . S
H666 C654 0.960 . S
H667 C654 0.962 . S
H668 C654 0.960 . S
H669 C655 0.961 . S
H670 C655 0.961 . S
H671 C655 0.961 . S
H672 C656 0.916 1_565 S
H673 C661 0.930 1_556 S
H674 C662 0.956 . S
H675 C662 0.961 . S
H676 C662 0.961 . S
H677 C663 0.953 1_556 S
H678 C663 0.961 1_556 S
H679 C663 0.960 . S
C680 C681 1.391 . S
C680 C682 1.394 . S
C680 H696 0.931 . S
C681 C680 1.391 . S
C681 C685 1.376 . S
C682 C680 1.394 . S
C682 C683 1.369 . S
C682 C686 1.531 . S
C683 C682 1.369 . S
C683 C684 1.410 . S
C683 C691 1.503 . S
C684 C683 1.410 . S
C684 C685 1.392 . S
C684 C687 1.511 . S
C685 C681 1.376 . S
C685 C684 1.392 . S
C685 H697 0.929 . S
C686 C682 1.531 . S
C686 H698 0.960 . S
C686 H699 0.962 . S
C686 H700 0.960 . S
C687 C684 1.511 . S
C687 H701 0.961 . S
C687 H702 0.961 . S
C687 H703 0.961 . S
C688 C689 1.370 . S
C688 C690 1.363 . S
C688 H704 0.931 . S
C689 C688 1.370 . S
C689 C693 1.408 . S
C690 C688 1.363 . S
C690 C691 1.370 . S
C690 C694 1.524 . S
C691 C683 1.503 . S
C691 C690 1.370 . S
C691 C692 1.403 . S
C692 C691 1.403 . S
C692 C693 1.404 . S
C692 C695 1.539 . S
C693 C689 1.408 . S
C693 C692 1.404 . S
C693 H705 0.930 . S
C694 C690 1.524 . S
C694 H706 0.956 . S
C694 H707 0.961 . S
C694 H708 0.961 . S
C695 C692 1.539 . S
C695 H709 0.958 . S
C695 H710 0.961 . S
C695 H711 0.960 . S
H696 C680 0.931 . S
H697 C685 0.929 . S
H698 C686 0.960 . S
H699 C686 0.962 . S
H700 C686 0.960 . S
H701 C687 0.961 . S
H702 C687 0.961 . S
H703 C687 0.961 . S
H704 C688 0.931 . S
H705 C693 0.930 . S
H706 C694 0.956 . S
H707 C694 0.961 . S
H708 C694 0.961 . S
H709 C695 0.958 . S
H710 C695 0.961 . S
H711 C695 0.960 . S
C712 C713 1.391 . S
C712 C714 1.394 . S
C712 H728 0.931 1_565 S
C713 C712 1.391 . S
C713 C717 1.376 . S
C714 C712 1.394 . S
C714 C715 1.369 . S
C714 C718 1.531 . S
C715 C714 1.369 . S
C715 C716 1.410 . S
C715 C723 1.503 . S
C716 C715 1.410 . S
C716 C717 1.392 . S
C716 C719 1.511 . S
C717 C713 1.376 . S
C717 C716 1.392 . S
C717 H729 0.929 . S
C718 C714 1.531 . S
C718 H730 0.960 . S
C718 H731 0.962 . S
C718 H732 0.960 . S
C719 C716 1.511 . S
C719 H733 0.961 . S
C719 H734 0.961 . S
C719 H735 0.961 . S
C720 C721 1.370 . S
C720 C722 1.363 . S
C720 H736 0.931 . S
C721 C720 1.370 . S
C721 C725 1.408 . S
C722 C720 1.363 . S
C722 C723 1.370 . S
C722 C726 1.524 . S
C723 C715 1.503 . S
C723 C722 1.370 . S
C723 C724 1.403 . S
C724 C723 1.403 . S
C724 C725 1.404 . S
C724 C727 1.539 . S
C725 C721 1.408 . S
C725 C724 1.404 . S
C725 H737 0.930 . S
C726 C722 1.524 . S
C726 H738 0.956 . S
C726 H739 0.961 . S
C726 H740 0.961 . S
C727 C724 1.539 . S
C727 H741 0.958 . S
C727 H742 0.961 . S
C727 H743 0.960 . S
H728 C712 0.931 1_545 S
H729 C717 0.929 . S
H730 C718 0.960 . S
H731 C718 0.962 . S
H732 C718 0.960 . S
H733 C719 0.961 . S
H734 C719 0.961 . S
H735 C719 0.961 . S
H736 C720 0.931 . S
H737 C725 0.930 . S
H738 C726 0.956 . S
H739 C726 0.961 . S
H740 C726 0.961 . S
H741 C727 0.958 . S
H742 C727 0.961 . S
H743 C727 0.960 . S
C744 C745 1.391 . S
C744 C746 1.394 . S
C744 H760 0.931 . S
C745 C744 1.391 . S
C745 C749 1.376 . S
C746 C744 1.394 . S
C746 C747 1.369 . S
C746 C750 1.531 . S
C747 C746 1.369 . S
C747 C748 1.410 . S
C747 C755 1.503 . S
C748 C747 1.410 . S
C748 C749 1.392 . S
C748 C751 1.511 . S
C749 C745 1.376 . S
C749 C748 1.392 . S
C749 H761 0.929 . S
C750 C746 1.531 . S
C750 H762 0.960 . S
C750 H763 0.962 . S
C750 H764 0.960 . S
C751 C748 1.511 . S
C751 H765 0.961 . S
C751 H766 0.961 . S
C751 H767 0.961 . S
C752 C753 1.370 . S
C752 C754 1.363 . S
C752 H768 0.931 . S
C753 C752 1.370 . S
C753 C757 1.408 . S
C754 C752 1.363 . S
C754 C755 1.370 . S
C754 C758 1.524 . S
C755 C747 1.503 . S
C755 C754 1.370 . S
C755 C756 1.403 . S
C756 C755 1.403 . S
C756 C757 1.404 . S
C756 C759 1.539 . S
C757 C753 1.408 . S
C757 C756 1.404 . S
C757 H769 0.930 . S
C758 C754 1.524 . S
C758 H770 0.956 . S
C758 H771 0.961 . S
C758 H772 0.961 . S
C759 C756 1.539 . S
C759 H773 0.958 . S
C759 H774 0.961 . S
C759 H775 0.960 . S
H760 C744 0.931 . S
H761 C749 0.929 . S
H762 C750 0.960 . S
H763 C750 0.962 . S
H764 C750 0.960 . S
H765 C751 0.961 . S
H766 C751 0.961 . S
H767 C751 0.961 . S
H768 C752 0.931 . S
H769 C757 0.930 . S
H770 C758 0.956 . S
H771 C758 0.961 . S
H772 C758 0.961 . S
H773 C759 0.958 . S
H774 C759 0.961 . S
H775 C759 0.960 . S
C776 C777 1.391 . S
C776 C778 1.394 . S
C776 H792 0.931 . S
C777 C776 1.391 . S
C777 C781 1.376 . S
C778 C776 1.394 . S
C778 C779 1.369 . S
C778 C782 1.531 . S
C779 C778 1.369 . S
C779 C780 1.410 . S
C779 C787 1.503 . S
C780 C779 1.410 . S
C780 C781 1.392 . S
C780 C783 1.511 . S
C781 C777 1.376 . S
C781 C780 1.392 . S
C781 H793 0.929 . S
C782 C778 1.531 . S
C782 H794 0.960 . S
C782 H795 0.962 . S
C782 H796 0.960 . S
C783 C780 1.511 . S
C783 H797 0.961 . S
C783 H798 0.961 . S
C783 H799 0.961 . S
C784 C785 1.370 . S
C784 C786 1.363 . S
C784 H800 0.931 . S
C785 C784 1.370 . S
C785 C789 1.408 . S
C786 C784 1.363 . S
C786 C787 1.370 . S
C786 C790 1.524 . S
C787 C779 1.503 . S
C787 C786 1.370 . S
C787 C788 1.403 . S
C788 C787 1.403 . S
C788 C789 1.404 . S
C788 C791 1.539 . S
C789 C785 1.408 . S
C789 C788 1.404 . S
C789 H801 0.930 1_565 S
C790 C786 1.524 . S
C790 H802 0.956 . S
C790 H803 0.961 . S
C790 H804 0.961 . S
C791 C788 1.539 . S
C791 H805 0.958 . S
C791 H806 0.961 . S
C791 H807 0.960 . S
H792 C776 0.931 . S
H793 C781 0.929 . S
H794 C782 0.960 . S
H795 C782 0.962 . S
H796 C782 0.960 . S
H797 C783 0.961 . S
H798 C783 0.961 . S
H799 C783 0.961 . S
H800 C784 0.931 . S
H801 C789 0.930 1_545 S
H802 C790 0.956 . S
H803 C790 0.961 . S
H804 C790 0.961 . S
H805 C791 0.958 . S
H806 C791 0.961 . S
H807 C791 0.960 . S
C808 C809 1.391 . S
C808 C810 1.394 . S
C808 H824 0.931 . S
C809 C808 1.391 . S
C809 C813 1.376 . S
C810 C808 1.394 . S
C810 C811 1.369 . S
C810 C814 1.531 . S
C811 C810 1.369 . S
C811 C812 1.410 . S
C811 C819 1.503 . S
C812 C811 1.410 . S
C812 C813 1.392 . S
C812 C815 1.511 . S
C813 C809 1.376 . S
C813 C812 1.392 . S
C813 H825 0.929 . S
C814 C810 1.531 . S
C814 H826 0.960 . S
C814 H827 0.962 . S
C814 H828 0.960 . S
C815 C812 1.511 . S
C815 H829 0.961 . S
C815 H830 0.961 . S
C815 H831 0.961 . S
C816 C817 1.370 . S
C816 C818 1.363 . S
C816 H832 0.924 1_455 S
C817 C816 1.370 . S
C817 C821 1.408 . S
C818 C816 1.363 . S
C818 C819 1.370 . S
C818 C822 1.524 . S
C819 C811 1.503 . S
C819 C818 1.370 . S
C819 C820 1.403 . S
C820 C819 1.403 . S
C820 C821 1.404 . S
C820 C823 1.539 . S
C821 C817 1.408 . S
C821 C820 1.404 . S
C821 H833 0.930 . S
C822 C818 1.524 . S
C822 H834 0.956 . S
C822 H835 0.961 . S
C822 H836 0.961 . S
C823 C820 1.539 . S
C823 H837 0.958 . S
C823 H838 0.961 . S
C823 H839 0.960 . S
H824 C808 0.931 . S
H825 C813 0.929 . S
H826 C814 0.960 . S
H827 C814 0.962 . S
H828 C814 0.960 . S
H829 C815 0.961 . S
H830 C815 0.961 . S
H831 C815 0.961 . S
H832 C816 0.924 1_655 S
H833 C821 0.930 . S
H834 C822 0.956 . S
H835 C822 0.961 . S
H836 C822 0.961 . S
H837 C823 0.958 . S
H838 C823 0.961 . S
H839 C823 0.960 . S
C840 C841 1.391 . S
C840 C842 1.394 . S
C840 H856 0.931 . S
C841 C840 1.391 . S
C841 C845 1.376 . S
C842 C840 1.394 . S
C842 C843 1.369 . S
C842 C846 1.531 . S
C843 C842 1.369 . S
C843 C844 1.410 . S
C843 C851 1.503 . S
C844 C843 1.410 . S
C844 C845 1.392 . S
C844 C847 1.511 . S
C845 C841 1.376 . S
C845 C844 1.392 . S
C845 H857 0.929 . S
C846 C842 1.531 . S
C846 H858 0.960 . S
C846 H859 0.962 . S
C846 H860 0.960 . S
C847 C844 1.511 . S
C847 H861 0.961 . S
C847 H862 0.961 . S
C847 H863 0.961 . S
C848 C849 1.370 . S
C848 C850 1.363 . S
C848 H864 0.931 . S
C849 C848 1.370 . S
C849 C853 1.408 . S
C850 C848 1.363 . S
C850 C851 1.370 . S
C850 C854 1.524 . S
C851 C843 1.503 . S
C851 C850 1.370 . S
C851 C852 1.403 . S
C852 C851 1.403 . S
C852 C853 1.404 . S
C852 C855 1.539 . S
C853 C849 1.408 . S
C853 C852 1.404 . S
C853 H865 0.930 1_556 S
C854 C850 1.524 . S
C854 H866 0.956 . S
C854 H867 0.961 . S
C854 H868 0.961 . S
C855 C852 1.539 . S
C855 H869 0.958 . S
C855 H870 0.961 1_556 S
C855 H871 0.960 . S
H856 C840 0.931 . S
H857 C845 0.929 . S
H858 C846 0.960 . S
H859 C846 0.962 . S
H860 C846 0.960 . S
H861 C847 0.961 . S
H862 C847 0.961 . S
H863 C847 0.961 . S
H864 C848 0.931 . S
H865 C853 0.930 1_554 S
H866 C854 0.956 . S
H867 C854 0.961 . S
H868 C854 0.961 . S
H869 C855 0.958 . S
H870 C855 0.961 1_554 S
H871 C855 0.960 . S
C872 C873 1.391 . S
C872 C874 1.394 . S
C872 H888 0.931 . S
C873 C872 1.391 . S
C873 C877 1.376 . S
C874 C872 1.394 . S
C874 C875 1.369 . S
C874 C878 1.531 . S
C875 C874 1.369 . S
C875 C876 1.410 . S
C875 C883 1.503 . S
C876 C875 1.410 . S
C876 C877 1.392 . S
C876 C879 1.511 . S
C877 C873 1.376 . S
C877 C876 1.392 . S
C877 H889 0.929 . S
C878 C874 1.531 . S
C878 H890 0.960 . S
C878 H891 0.962 . S
C878 H892 0.960 . S
C879 C876 1.511 . S
C879 H893 0.961 . S
C879 H894 0.961 . S
C879 H895 0.961 . S
C880 C881 1.370 . S
C880 C882 1.363 . S
C880 H896 0.931 . S
C881 C880 1.370 . S
C881 C885 1.408 . S
C882 C880 1.363 . S
C882 C883 1.370 . S
C882 C886 1.524 . S
C883 C875 1.503 . S
C883 C882 1.370 . S
C883 C884 1.403 . S
C884 C883 1.403 . S
C884 C885 1.404 . S
C884 C887 1.539 . S
C885 C881 1.408 . S
C885 C884 1.404 . S
C885 H897 0.930 . S
C886 C882 1.524 . S
C886 H898 0.956 . S
C886 H899 0.961 . S
C886 H900 0.961 . S
C887 C884 1.539 . S
C887 H901 0.958 . S
C887 H902 0.961 . S
C887 H903 0.960 . S
H888 C872 0.931 . S
H889 C877 0.929 . S
H890 C878 0.960 . S
H891 C878 0.962 . S
H892 C878 0.960 . S
H893 C879 0.961 . S
H894 C879 0.961 . S
H895 C879 0.961 . S
H896 C880 0.931 . S
H897 C885 0.930 . S
H898 C886 0.956 . S
H899 C886 0.961 . S
H900 C886 0.961 . S
H901 C887 0.958 . S
H902 C887 0.961 . S
H903 C887 0.960 . S
C265 C153 1.301 . S
C273 C21 1.283 . S
C297 C54 1.270 . S
C305 C186 1.296 . S
C329 C87 1.272 . S
C337 C219 1.296 . S
C361 C120 1.268 . S
C369 C252 1.292 . S
C393 N167 0.639 . S
C401 N2 0.718 . S
C425 N35 0.720 . S
C433 N200 0.687 . S
C457 N233 0.716 . S
C465 N68 0.688 . S
C489 N101 0.639 . S
C497 N134 0.717 . S
C521 N13 1.027 . S
C529 N211 1.024 . S
C553 N244 1.020 . S
C561 N46 1.022 . S
C585 N79 1.017 . S
C593 N145 1.023 . S
C617 N178 1.021 . S
C625 N112 1.026 . S
C649 C18 1.998 . S
C657 C106 1.999 1_544 S
C681 C7 1.983 1_655 S
C689 C51 1.994 . S
C713 C40 1.977 1_565 S
C721 C84 2.003 . S
C745 C73 1.985 1_455 S
C753 C117 1.994 . S
C777 C150 1.989 . S
C785 C172 1.990 1_565 S
C809 C183 2.000 . S
C817 C205 1.998 1_455 S
C841 C216 1.985 . S
C849 C238 2.001 1_546 S
C873 C139 1.997 1_655 S
C881 C249 2.002 . S
