# Generated by pormake.
# Topology wjc, (7)-cn, num edge types: 1
# Building blocks:
#     Node 0, Type 0, BuildingBlock: HICVOG_clean_sbu_0, # of connection points: 7
#     Node 1, Type 0, BuildingBlock: HICVOG_clean_sbu_0, # of connection points: 7
#     Node 2, Type 0, BuildingBlock: HICVOG_clean_sbu_0, # of connection points: 7
#     Node 3, Type 0, BuildingBlock: HICVOG_clean_sbu_0, # of connection points: 7
#     Node 4, Type 0, BuildingBlock: HICVOG_clean_sbu_0, # of connection points: 7
#     Node 5, Type 0, BuildingBlock: HICVOG_clean_sbu_0, # of connection points: 7
#     Node 6, Type 0, BuildingBlock: HICVOG_clean_sbu_0, # of connection points: 7
#     Node 7, Type 0, BuildingBlock: HICVOG_clean_sbu_0, # of connection points: 7
#     Node 8, Type 0, BuildingBlock: HICVOG_clean_sbu_0, # of connection points: 7
#     Node 9, Type 0, BuildingBlock: HICVOG_clean_sbu_0, # of connection points: 7
#     Node 10, Type 0, BuildingBlock: HICVOG_clean_sbu_0, # of connection points: 7
#     Node 11, Type 0, BuildingBlock: HICVOG_clean_sbu_0, # of connection points: 7
#     Node 12, Type 0, BuildingBlock: HICVOG_clean_sbu_0, # of connection points: 7
#     Node 13, Type 0, BuildingBlock: HICVOG_clean_sbu_0, # of connection points: 7
#     Node 14, Type 0, BuildingBlock: HICVOG_clean_sbu_0, # of connection points: 7
#     Node 15, Type 0, BuildingBlock: HICVOG_clean_sbu_0, # of connection points: 7
#     Node 16, Type 0, BuildingBlock: HICVOG_clean_sbu_0, # of connection points: 7
#     Node 17, Type 0, BuildingBlock: HICVOG_clean_sbu_0, # of connection points: 7
#     Node 18, Type 0, BuildingBlock: HICVOG_clean_sbu_0, # of connection points: 7
#     Node 19, Type 0, BuildingBlock: HICVOG_clean_sbu_0, # of connection points: 7
#     Node 20, Type 0, BuildingBlock: HICVOG_clean_sbu_0, # of connection points: 7
#     Node 21, Type 0, BuildingBlock: HICVOG_clean_sbu_0, # of connection points: 7
#     Node 22, Type 0, BuildingBlock: HICVOG_clean_sbu_0, # of connection points: 7
#     Node 23, Type 0, BuildingBlock: HICVOG_clean_sbu_0, # of connection points: 7
#     Edge 24, Type (0, 0), None
#     Edge 25, Type (0, 0), None
#     Edge 26, Type (0, 0), None
#     Edge 27, Type (0, 0), None
#     Edge 28, Type (0, 0), None
#     Edge 29, Type (0, 0), None
#     Edge 30, Type (0, 0), None
#     Edge 31, Type (0, 0), None
#     Edge 32, Type (0, 0), None
#     Edge 33, Type (0, 0), None
#     Edge 34, Type (0, 0), None
#     Edge 35, Type (0, 0), None
#     Edge 36, Type (0, 0), None
#     Edge 37, Type (0, 0), None
#     Edge 38, Type (0, 0), None
#     Edge 39, Type (0, 0), None
#     Edge 40, Type (0, 0), None
#     Edge 41, Type (0, 0), None
#     Edge 42, Type (0, 0), None
#     Edge 43, Type (0, 0), None
#     Edge 44, Type (0, 0), None
#     Edge 45, Type (0, 0), None
#     Edge 46, Type (0, 0), None
#     Edge 47, Type (0, 0), None
#     Edge 48, Type (0, 0), None
#     Edge 49, Type (0, 0), None
#     Edge 50, Type (0, 0), None
#     Edge 51, Type (0, 0), None
#     Edge 52, Type (0, 0), None
#     Edge 53, Type (0, 0), None
#     Edge 54, Type (0, 0), None
#     Edge 55, Type (0, 0), None
#     Edge 56, Type (0, 0), None
#     Edge 57, Type (0, 0), None
#     Edge 58, Type (0, 0), None
#     Edge 59, Type (0, 0), None
#     Edge 60, Type (0, 0), None
#     Edge 61, Type (0, 0), None
#     Edge 62, Type (0, 0), None
#     Edge 63, Type (0, 0), None
#     Edge 64, Type (0, 0), None
#     Edge 65, Type (0, 0), None
#     Edge 66, Type (0, 0), None
#     Edge 67, Type (0, 0), None
#     Edge 68, Type (0, 0), None
#     Edge 69, Type (0, 0), None
#     Edge 70, Type (0, 0), None
#     Edge 71, Type (0, 0), None
#     Edge 72, Type (0, 0), None
#     Edge 73, Type (0, 0), None
#     Edge 74, Type (0, 0), None
#     Edge 75, Type (0, 0), None
#     Edge 76, Type (0, 0), None
#     Edge 77, Type (0, 0), None
#     Edge 78, Type (0, 0), None
#     Edge 79, Type (0, 0), None
#     Edge 80, Type (0, 0), None
#     Edge 81, Type (0, 0), None
#     Edge 82, Type (0, 0), None
#     Edge 83, Type (0, 0), None
#     Edge 84, Type (0, 0), None
#     Edge 85, Type (0, 0), None
#     Edge 86, Type (0, 0), None
#     Edge 87, Type (0, 0), None
#     Edge 88, Type (0, 0), None
#     Edge 89, Type (0, 0), None
#     Edge 90, Type (0, 0), None
#     Edge 91, Type (0, 0), None
#     Edge 92, Type (0, 0), None
#     Edge 93, Type (0, 0), None
#     Edge 94, Type (0, 0), None
#     Edge 95, Type (0, 0), None
#     Edge 96, Type (0, 0), None
#     Edge 97, Type (0, 0), None
#     Edge 98, Type (0, 0), None
#     Edge 99, Type (0, 0), None
#     Edge 100, Type (0, 0), None
#     Edge 101, Type (0, 0), None
#     Edge 102, Type (0, 0), None
#     Edge 103, Type (0, 0), None
#     Edge 104, Type (0, 0), None
#     Edge 105, Type (0, 0), None
#     Edge 106, Type (0, 0), None
#     Edge 107, Type (0, 0), None
# Relax obj value: 0.243
# Max RMSD: 0.231
# Mean RMSD: 0.231
data_MOF--net-wjc--node1-HICVOG_clean_sbu_0--edge1-none
_symmetry_space_group_name_H-M    P1
_symmetry_Int_Tables_number       1
_symmetry_cell_setting            triclinic
loop_
_symmetry_equiv_pos_as_xyz
'x, y, z'
_cell_length_a     20.343431
_cell_length_b     20.33387
_cell_length_c     46.049924
_cell_angle_alpha  89.844255
_cell_angle_beta   90.089677
_cell_angle_gamma 119.99004
loop_
_atom_site_label
_atom_site_type_symbol
_atom_site_fract_x
_atom_site_fract_y
_atom_site_fract_z
_atom_type_partial_charge
Zn0 Zn 0.36062 0.05101 0.13917 0.0
C1 C 0.59107 0.16071 0.14002 0.0
N2 N 0.58426 0.09595 0.12985 0.0
C3 C 0.50957 0.04708 0.13237 0.0
N4 N 0.47153 0.08161 0.14296 0.0
N5 N 0.52492 0.15164 0.14974 0.0
C6 C 0.57141 0.34649 0.14388 0.0
O7 O 0.52477 0.29097 0.12683 0.0
O8 O 0.28849 0.94274 0.15225 0.0
Zn9 Zn 0.51887 0.22179 0.17657 0.0
N10 N 0.3371 0.05465 0.0983 0.0
C11 C 0.25663 0.06912 0.0643 0.0
C12 C 0.2786 0.0674 0.09279 0.0
C13 C 0.3761 0.04584 0.07613 0.0
N14 N 0.29549 0.06043 0.0422 0.0
C15 C 0.35516 0.04931 0.0472 0.0
O16 O 0.42573 0.22455 0.17323 0.0
C17 C 0.35625 0.18839 0.16711 0.0
O18 O 0.32537 0.1216 0.15668 0.0
H19 H 0.24834 0.07533 0.11043 0.0
H20 H 0.42311 0.03696 0.08101 0.0
C21 C 0.53446 0.25423 0.23646 0.0
C22 C 0.52088 0.23541 0.26606 0.0
C23 C 0.48461 0.10786 0.25438 0.0
C24 C 0.49856 0.12699 0.22511 0.0
N25 N 0.52285 0.19958 0.21677 0.0
N26 N 0.49592 0.16217 0.27412 0.0
H27 H 0.55056 0.31074 0.22886 0.0
C28 C 0.21827 0.90401 0.14536 0.0
O29 O 0.18649 0.93497 0.13 0.0
O30 O 0.5913 0.33032 0.16769 0.0
H31 H 0.48658 0.08378 0.209 0.0
H32 H 0.2097 0.0784 0.05974 0.0
H33 H 0.46307 0.04984 0.26127 0.0
Zn34 Zn 0.30776 0.51189 0.17644 0.0
C35 C 0.48961 0.52878 0.13425 0.0
N36 N 0.51119 0.60285 0.13354 0.0
C37 C 0.44904 0.60274 0.14366 0.0
N38 N 0.39394 0.53326 0.15166 0.0
N39 N 0.41665 0.48533 0.14368 0.0
C40 C 0.31942 0.23439 0.16387 0.0
O41 O 0.25419 0.20543 0.15015 0.0
O42 O 0.26876 0.58324 0.16988 0.0
Zn43 Zn 0.34603 0.37485 0.13725 0.0
N44 N 0.3246 0.50642 0.21735 0.0
C45 C 0.37358 0.46599 0.25593 0.0
C46 C 0.37108 0.48064 0.22649 0.0
C47 C 0.28051 0.51839 0.23641 0.0
N48 N 0.32984 0.47808 0.27504 0.0
C49 C 0.28298 0.50407 0.26618 0.0
O50 O 0.23253 0.34025 0.1384 0.0
C51 C 0.18883 0.35851 0.15145 0.0
O52 O 0.21424 0.41756 0.16675 0.0
H53 H 0.40386 0.46919 0.21092 0.0
H54 H 0.24226 0.53662 0.22823 0.0
C55 C 0.3565 0.38748 0.07496 0.0
C56 C 0.36575 0.36768 0.04655 0.0
C57 C 0.39095 0.2745 0.06601 0.0
C58 C 0.3814 0.29412 0.09402 0.0
N59 N 0.36409 0.35004 0.09807 0.0
N60 N 0.38267 0.31138 0.04297 0.0
H61 H 0.3424 0.43146 0.07882 0.0
C62 C 0.23411 0.56629 0.14576 0.0
O63 O 0.24953 0.52789 0.12675 0.0
O64 O 0.36288 0.30648 0.16437 0.0
H65 H 0.38784 0.26469 0.11226 0.0
H66 H 0.40896 0.44376 0.26345 0.0
H67 H 0.40477 0.23017 0.0626 0.0
Zn68 Zn 0.96037 0.31371 0.13856 0.0
C69 C 0.85056 0.43452 0.14 0.0
N70 N 0.9153 0.49269 0.12987 0.0
C71 C 0.96414 0.46675 0.13218 0.0
N72 N 0.92958 0.39386 0.14258 0.0
N73 N 0.85959 0.37712 0.14949 0.0
C74 C 0.66489 0.22857 0.14362 0.0
O75 O 0.72038 0.23722 0.12661 0.0
O76 O 0.06821 0.34962 0.15208 0.0
Zn77 Zn 0.78943 0.30045 0.17634 0.0
N78 N 0.95801 0.28789 0.09756 0.0
C79 C 0.94546 0.19422 0.06343 0.0
C80 C 0.94648 0.21716 0.09196 0.0
C81 C 0.96616 0.33583 0.07544 0.0
N82 N 0.9534 0.24187 0.04138 0.0
C83 C 0.9632 0.3121 0.04645 0.0
O84 O 0.7869 0.20459 0.17306 0.0
C85 C 0.82289 0.17133 0.16661 0.0
O86 O 0.88925 0.20733 0.15575 0.0
H87 H 0.93876 0.17871 0.10956 0.0
H88 H 0.9739 0.39122 0.08039 0.0
C89 C 0.75651 0.28297 0.23626 0.0
C90 C 0.77515 0.28808 0.26588 0.0
C91 C 0.90259 0.37975 0.25418 0.0
C92 C 0.88363 0.37469 0.22489 0.0
N93 N 0.81119 0.32625 0.21656 0.0
N94 N 0.84827 0.3365 0.27393 0.0
H95 H 0.70012 0.24249 0.22867 0.0
C96 C 0.10704 0.31799 0.14559 0.0
O97 O 0.07638 0.25509 0.13044 0.0
O98 O 0.68101 0.26446 0.16741 0.0
H99 H 0.92688 0.40614 0.20878 0.0
H100 H 0.93716 0.13843 0.05882 0.0
H101 H 0.96051 0.41633 0.26106 0.0
Zn102 Zn 0.49967 0.79992 0.17642 0.0
C103 C 0.48223 0.96495 0.1342 0.0
N104 N 0.40821 0.91248 0.13361 0.0
C105 C 0.40842 0.85038 0.14376 0.0
N106 N 0.47796 0.86474 0.15164 0.0
N107 N 0.52579 0.93539 0.14353 0.0
C108 C 0.77685 0.08848 0.16346 0.0
O109 O 0.8057 0.05226 0.14969 0.0
O110 O 0.42832 0.6896 0.16999 0.0
Zn111 Zn 0.63624 0.97539 0.13681 0.0
N112 N 0.50537 0.82187 0.21736 0.0
C113 C 0.54595 0.91088 0.25593 0.0
C114 C 0.53126 0.89407 0.2265 0.0
C115 C 0.49333 0.76555 0.23643 0.0
N116 N 0.53378 0.85479 0.27504 0.0
C117 C 0.50768 0.782 0.26619 0.0
O118 O 0.67065 0.89625 0.13774 0.0
C119 C 0.65266 0.83438 0.15096 0.0
O120 O 0.59398 0.80091 0.16651 0.0
H121 H 0.54273 0.93849 0.21093 0.0
H122 H 0.47498 0.70912 0.22825 0.0
C123 C 0.62229 0.97575 0.07447 0.0
C124 C 0.64215 0.00574 0.04613 0.0
C125 C 0.73805 0.12212 0.06575 0.0
C126 C 0.71827 0.09209 0.09368 0.0
N127 N 0.66104 0.01935 0.09764 0.0
N128 N 0.69986 0.07836 0.04265 0.0
H129 H 0.57716 0.91805 0.07821 0.0
C130 C 0.44495 0.672 0.14582 0.0
O131 O 0.48327 0.7259 0.12674 0.0
O132 O 0.70479 0.05999 0.16402 0.0
H133 H 0.74863 0.12701 0.11192 0.0
H134 H 0.56821 0.96842 0.26345 0.0
H135 H 0.78347 0.17986 0.06243 0.0
Zn136 Zn 0.69731 0.65052 0.13852 0.0
C137 C 0.57688 0.42014 0.14029 0.0
N138 N 0.51861 0.42666 0.1302 0.0
C139 C 0.54439 0.5014 0.13252 0.0
N140 N 0.61724 0.53973 0.14286 0.0
N141 N 0.63414 0.4865 0.14976 0.0
C142 C 0.78275 0.44048 0.14377 0.0
O143 O 0.77396 0.48751 0.12681 0.0
O144 O 0.66167 0.72266 0.15192 0.0
Zn145 Zn 0.71078 0.49272 0.1766 0.0
N146 N 0.72246 0.67363 0.09741 0.0
C147 C 0.81584 0.75405 0.06295 0.0
C148 C 0.79343 0.73211 0.09156 0.0
C149 C 0.67365 0.63465 0.07546 0.0
N150 N 0.76731 0.71517 0.04107 0.0
C151 C 0.69674 0.65554 0.04639 0.0
O152 O 0.80655 0.58623 0.17341 0.0
C153 C 0.83972 0.65547 0.16678 0.0
O154 O 0.80373 0.68562 0.15564 0.0
H155 H 0.83242 0.76236 0.10901 0.0
H156 H 0.61797 0.58768 0.08061 0.0
C157 C 0.72803 0.4764 0.23652 0.0
C158 C 0.72282 0.48958 0.26614 0.0
C159 C 0.63112 0.52543 0.25448 0.0
C160 C 0.63627 0.51187 0.22519 0.0
N161 N 0.68477 0.488 0.21684 0.0
N162 N 0.67433 0.51413 0.27421 0.0
H163 H 0.76858 0.46064 0.2289 0.0
C164 C 0.69299 0.79293 0.14504 0.0
O165 O 0.7553 0.82477 0.1295 0.0
O166 O 0.74701 0.42046 0.16761 0.0
H167 H 0.60486 0.52387 0.2091 0.0
H168 H 0.87184 0.80095 0.05813 0.0
H169 H 0.59451 0.54668 0.26138 0.0
Zn170 Zn 0.21108 0.70311 0.17647 0.0
C171 C 0.04623 0.52152 0.13409 0.0
N172 N 0.09874 0.50001 0.13338 0.0
C173 C 0.16072 0.56209 0.14361 0.0
N174 N 0.14626 0.61706 0.15164 0.0
N175 N 0.07565 0.59439 0.14358 0.0
C176 C 0.92262 0.69244 0.16379 0.0
O177 O 0.95885 0.7576 0.14996 0.0
O178 O 0.32149 0.74229 0.17003 0.0
Zn179 Zn 0.03565 0.66503 0.13706 0.0
N180 N 0.18907 0.68619 0.2174 0.0
C181 C 0.10014 0.63731 0.25605 0.0
C182 C 0.1169 0.63985 0.22659 0.0
C183 C 0.2454 0.7301 0.23643 0.0
N184 N 0.15625 0.68088 0.27512 0.0
C185 C 0.22901 0.72759 0.26621 0.0
O186 O 0.11492 0.77858 0.13794 0.0
C187 C 0.17673 0.82212 0.15117 0.0
O188 O 0.21007 0.79653 0.16666 0.0
H189 H 0.07245 0.6072 0.21106 0.0
H190 H 0.30181 0.76823 0.22821 0.0
C191 C 0.03431 0.65063 0.07468 0.0
C192 C 1.00369 0.64035 0.04647 0.0
C193 C 0.88785 0.62023 0.06649 0.0
C194 C 0.91848 0.63066 0.09429 0.0
N195 N 0.99126 0.64612 0.098 0.0
N196 N 0.93107 0.62556 0.04325 0.0
H197 H 0.09202 0.66306 0.0782 0.0
C198 C 0.33924 0.77694 0.14588 0.0
O199 O 0.28547 0.76163 0.1268 0.0
O200 O 0.95122 0.64893 0.16443 0.0
H201 H 0.8839 0.62612 0.11263 0.0
H202 H 0.04263 0.60203 0.26362 0.0
H203 H 0.83005 0.60787 0.06338 0.0
Zn204 Zn 0.96156 0.6492 0.41454 0.0
C205 C 0.85117 0.41845 0.41424 0.0
N206 N 0.91603 0.42519 0.4243 0.0
C207 C 0.96482 0.49987 0.42167 0.0
N208 N 0.93025 0.53802 0.41111 0.0
N209 N 0.8601 0.48465 0.40448 0.0
C210 C 0.66599 0.43969 0.41077 0.0
O211 O 0.72181 0.4877 0.42741 0.0
O212 O 0.06919 0.72065 0.40028 0.0
Zn213 Zn 0.78955 0.49035 0.37755 0.0
N214 N 0.9609 0.67388 0.45552 0.0
C215 C 0.94978 0.75571 0.48972 0.0
C216 C 0.95016 0.73354 0.46117 0.0
C217 C 0.96883 0.63386 0.47762 0.0
N218 N 0.95741 0.7157 0.51175 0.0
C219 C 0.96638 0.6548 0.50662 0.0
O220 O 0.78733 0.58416 0.37987 0.0
C221 C 0.82329 0.65341 0.38638 0.0
O222 O 0.88928 0.68352 0.39761 0.0
H223 H 0.94231 0.76425 0.4436 0.0
H224 H 0.97582 0.58579 0.47263 0.0
C225 C 0.75721 0.47878 0.31783 0.0
C226 C 0.77393 0.48472 0.28802 0.0
C227 C 0.89288 0.49545 0.29942 0.0
C228 C 0.87588 0.48938 0.32891 0.0
N229 N 0.80854 0.48131 0.33746 0.0
N230 N 0.84185 0.49293 0.27969 0.0
H231 H 0.70522 0.47504 0.32556 0.0
C232 C 0.10795 0.79149 0.4062 0.0
O233 O 0.07733 0.82422 0.42108 0.0
O234 O 0.68165 0.41881 0.38717 0.0
H235 H 0.91692 0.49375 0.34488 0.0
H236 H 0.94208 0.80354 0.49438 0.0
H237 H 0.94694 0.50367 0.29236 0.0
Zn238 Zn 0.30984 0.79761 0.37725 0.0
C239 C 0.49038 0.9636 0.41978 0.0
N240 N 0.51204 0.91126 0.42104 0.0
C241 C 0.45015 0.84892 0.41097 0.0
N242 N 0.39514 0.86297 0.40244 0.0
N243 N 0.41767 0.93385 0.41 0.0
C244 C 0.32104 0.0882 0.38903 0.0
O245 O 0.25525 0.05158 0.40234 0.0
O246 O 0.2701 0.68784 0.38502 0.0
Zn247 Zn 0.34673 0.97352 0.41583 0.0
N248 N 0.33046 0.81572 0.33628 0.0
C249 C 0.40299 0.89281 0.29678 0.0
C250 C 0.39291 0.87913 0.32655 0.0
C251 C 0.27755 0.76528 0.31749 0.0
N252 N 0.35059 0.84248 0.27794 0.0
C253 C 0.28754 0.77859 0.28739 0.0
O254 O 0.23346 0.89405 0.41393 0.0
C255 C 0.18988 0.83271 0.40044 0.0
O256 O 0.21543 0.79924 0.38507 0.0
H257 H 0.43366 0.91923 0.34179 0.0
H258 H 0.22774 0.71593 0.32606 0.0
C259 C 0.35652 0.97069 0.47818 0.0
C260 C 0.36534 0.9994 0.50663 0.0
C261 C 0.38831 0.11723 0.48737 0.0
C262 C 0.37927 0.08843 0.45932 0.0
N263 N 0.36324 0.01563 0.45514 0.0
N264 N 0.38094 0.07216 0.51034 0.0
H265 H 0.34358 0.91299 0.47422 0.0
C266 C 0.23436 0.67139 0.40887 0.0
O267 O 0.24838 0.72624 0.4272 0.0
O268 O 0.36453 0.05957 0.38883 0.0
H269 H 0.38523 0.12433 0.44116 0.0
H270 H 0.45151 0.94372 0.28875 0.0
H271 H 0.40111 0.17504 0.49088 0.0
Zn272 Zn 0.52093 0.3006 0.37742 0.0
C273 C 0.51042 0.46533 0.42163 0.0
N274 N 0.585 0.4911 0.4245 0.0
C275 C 0.59205 0.43332 0.41433 0.0
N276 N 0.52617 0.37643 0.40428 0.0
N277 N 0.47261 0.39302 0.41078 0.0
C278 C 0.2191 0.31727 0.40627 0.0
O279 O 0.18667 0.25383 0.42121 0.0
O280 O 0.59248 0.26415 0.38698 0.0
Zn281 Zn 0.36146 0.31294 0.41393 0.0
N282 N 0.52964 0.32893 0.33734 0.0
C283 C 0.51478 0.39917 0.29935 0.0
C284 C 0.52125 0.38815 0.32882 0.0
C285 C 0.53212 0.2803 0.3177 0.0
N286 N 0.51727 0.35085 0.27961 0.0
C287 C 0.52581 0.29121 0.28792 0.0
O288 O 0.32713 0.20689 0.39668 0.0
C289 C 0.3579 0.17115 0.38596 0.0
O290 O 0.42737 0.20455 0.37984 0.0
H291 H 0.51688 0.42465 0.34481 0.0
H292 H 0.53608 0.23206 0.32542 0.0
C293 C 0.37595 0.33342 0.47697 0.0
C294 C 0.35471 0.309 0.50587 0.0
C295 C 0.25495 0.1915 0.48865 0.0
C296 C 0.27734 0.21512 0.46018 0.0
N297 N 0.33657 0.286 0.45475 0.0
N298 N 0.29426 0.23865 0.5108 0.0
H299 H 0.42365 0.38892 0.47216 0.0
C300 C 0.57143 0.22736 0.41059 0.0
O301 O 0.52358 0.2353 0.42726 0.0
O302 O 0.2898 0.34936 0.40008 0.0
H303 H 0.24704 0.17707 0.4425 0.0
H304 H 0.50626 0.44494 0.29232 0.0
H305 H 0.20745 0.13559 0.49315 0.0
Zn306 Zn 0.21271 0.51307 0.37725 0.0
C307 C 0.04683 0.52726 0.4199 0.0
N308 N 0.0992 0.60122 0.4212 0.0
C309 C 0.16151 0.6017 0.41109 0.0
N310 N 0.1474 0.53271 0.40252 0.0
N311 N 0.0765 0.48432 0.41009 0.0
C312 C 0.92267 0.23334 0.3888 0.0
O313 O 0.95927 0.20415 0.40219 0.0
O314 O 0.32259 0.58296 0.38484 0.0
Zn315 Zn 0.03656 0.37344 0.41582 0.0
N316 N 0.19446 0.51594 0.33631 0.0
C317 C 0.11727 0.51158 0.29688 0.0
C318 C 0.13092 0.51481 0.32664 0.0
C319 C 0.24506 0.51399 0.31748 0.0
N320 N 0.16777 0.51002 0.278 0.0
C321 C 0.23178 0.51105 0.2874 0.0
O322 O 0.11637 0.33992 0.41415 0.0
C323 C 0.17767 0.35787 0.40058 0.0
O324 O 0.21092 0.41692 0.38511 0.0
H325 H 0.09071 0.51507 0.34193 0.0
H326 H 0.29452 0.51367 0.32601 0.0
C327 C 0.03596 0.38529 0.47827 0.0
C328 C 0.00562 0.36457 0.5065 0.0
C329 C 0.88992 0.26844 0.48653 0.0
C330 C 0.92026 0.28904 0.4587 0.0
N331 N 0.99283 0.34676 0.45496 0.0
N332 N 0.9332 0.30636 0.50975 0.0
H333 H 0.09347 0.43097 0.47473 0.0
C334 C 0.33912 0.56366 0.40871 0.0
O335 O 0.28433 0.52282 0.42712 0.0
O336 O 0.95133 0.30551 0.38848 0.0
H337 H 0.88554 0.25905 0.44039 0.0
H338 H 0.0663 0.50909 0.28889 0.0
H339 H 0.83228 0.22271 0.48966 0.0
Zn340 Zn 0.69754 0.04909 0.41447 0.0
C341 C 0.57737 0.15948 0.41413 0.0
N342 N 0.51924 0.09453 0.42416 0.0
C343 C 0.54499 0.04567 0.42145 0.0
N344 N 0.61762 0.08026 0.4109 0.0
N345 N 0.63446 0.15053 0.40431 0.0
C346 C 0.78354 0.34458 0.41055 0.0
O347 O 0.77558 0.28851 0.42716 0.0
O348 O 0.66151 0.94143 0.40039 0.0
Zn349 Zn 0.71038 0.22125 0.37731 0.0
N350 N 0.72299 0.0498 0.45548 0.0
C351 C 0.8164 0.06191 0.48978 0.0
C352 C 0.79389 0.06193 0.46121 0.0
C353 C 0.67439 0.03986 0.47751 0.0
N354 N 0.76808 0.05222 0.51174 0.0
C355 C 0.6976 0.04166 0.50654 0.0
O356 O 0.80639 0.22339 0.37947 0.0
C357 C 0.83965 0.18734 0.386 0.0
O358 O 0.80389 0.12145 0.3974 0.0
H359 H 0.83278 0.07096 0.44369 0.0
H360 H 0.61881 0.03153 0.47246 0.0
C361 C 0.73043 0.25367 0.31758 0.0
C362 C 0.71935 0.23697 0.28779 0.0
C363 C 0.61118 0.11802 0.29926 0.0
C364 C 0.6224 0.13499 0.32874 0.0
N365 N 0.6818 0.20233 0.33725 0.0
N366 N 0.65952 0.16907 0.27949 0.0
H367 H 0.77879 0.30563 0.32528 0.0
C368 C 0.6933 0.90259 0.40676 0.0
O369 O 0.75608 0.93314 0.42204 0.0
O370 O 0.74704 0.32926 0.38691 0.0
H371 H 0.58589 0.09392 0.34474 0.0
H372 H 0.87235 0.07074 0.4945 0.0
H373 H 0.56526 0.06395 0.29223 0.0
Zn374 Zn 0.49808 0.70099 0.37731 0.0
C375 C 0.48306 0.52 0.4199 0.0
N376 N 0.4091 0.49836 0.42102 0.0
C377 C 0.40876 0.5604 0.41092 0.0
N378 N 0.4779 0.61549 0.40253 0.0
N379 N 0.52615 0.59285 0.41023 0.0
C380 C 0.77722 0.69033 0.3893 0.0
O381 O 0.80637 0.75596 0.4027 0.0
O382 O 0.42805 0.74068 0.38489 0.0
Zn383 Zn 0.63683 0.66362 0.41627 0.0
N384 N 0.49547 0.68061 0.33633 0.0
C385 C 0.49935 0.60797 0.29685 0.0
C386 C 0.49622 0.61809 0.32662 0.0
C387 C 0.49771 0.73355 0.31751 0.0
N388 N 0.50118 0.66039 0.27799 0.0
C389 C 0.50054 0.7235 0.28741 0.0
O390 O 0.67032 0.77697 0.41464 0.0
C391 C 0.65282 0.82066 0.40096 0.0
O392 O 0.59421 0.79525 0.38529 0.0
H393 H 0.49568 0.57728 0.34189 0.0
H394 H 0.49827 0.78337 0.32606 0.0
C395 C 0.62366 0.64977 0.47872 0.0
C396 C 0.6439 0.63983 0.50703 0.0
C397 C 0.74109 0.6216 0.48731 0.0
C398 C 0.7209 0.63158 0.45941 0.0
N399 N 0.66286 0.64591 0.45551 0.0
N400 N 0.70243 0.62615 0.51043 0.0
H401 H 0.57778 0.66125 0.47503 0.0
C402 C 0.44705 0.77609 0.40878 0.0
O403 O 0.48781 0.76199 0.42721 0.0
O404 O 0.70511 0.64673 0.38904 0.0
H405 H 0.7515 0.62754 0.44117 0.0
H406 H 0.5015 0.55937 0.28884 0.0
H407 H 0.78712 0.61016 0.49057 0.0
Zn408 Zn 0.62403 0.95513 0.92896 0.0
C409 C 0.41635 0.85058 0.90474 0.0
N410 N 0.41806 0.91565 0.9115 0.0
C411 C 0.4928 0.96621 0.91118 0.0
N412 N 0.53459 0.93258 0.90543 0.0
N413 N 0.48557 0.86095 0.89953 0.0
C414 C 0.43214 0.6622 0.90543 0.0
O415 O 0.46705 0.71141 0.9263 0.0
O416 O 0.7071 0.06252 0.92035 0.0
Zn417 Zn 0.50883 0.79568 0.87754 0.0
N418 N 0.58858 0.93865 0.9691 0.0
C419 C 0.4919 0.85286 1.00137 0.0
C420 C 0.52084 0.87417 0.97344 0.0
C421 C 0.62939 0.98237 0.99197 0.0
N422 N 0.53244 0.89617 1.02417 0.0
C423 C 0.60072 0.96041 1.02043 0.0
O424 O 0.59729 0.79122 0.89337 0.0
C425 C 0.65143 0.82253 0.91138 0.0
O426 O 0.6659 0.88274 0.92498 0.0
H427 H 0.49006 0.83835 0.95538 0.0
H428 H 0.68378 0.03261 0.98806 0.0
C429 C 0.52374 0.77435 0.81753 0.0
C430 C 0.53038 0.79194 0.78775 0.0
C431 C 0.53641 0.90881 0.79905 0.0
C432 C 0.52942 0.8908 0.8285 0.0
N433 N 0.52316 0.82399 0.83712 0.0
N434 N 0.53647 0.85911 0.7794 0.0
H435 H 0.51792 0.72135 0.82523 0.0
C436 C 0.77563 0.10239 0.92883 0.0
O437 O 0.80381 0.07542 0.94805 0.0
O438 O 0.42842 0.68689 0.88057 0.0
H439 H 0.52844 0.92949 0.84432 0.0
H440 H 0.43805 0.8017 1.00498 0.0
H441 H 0.54169 0.96192 0.79189 0.0
Zn442 Zn 0.72332 0.52675 0.87467 0.0
C443 C 0.52439 0.48643 0.90602 0.0
N444 N 0.50145 0.41539 0.89696 0.0
C445 C 0.56746 0.41934 0.88971 0.0
N446 N 0.62694 0.48914 0.89361 0.0
N447 N 0.60106 0.53072 0.9055 0.0
C448 C 0.68549 0.77728 0.92109 0.0
O449 O 0.74509 0.80647 0.9382 0.0
O450 O 0.75074 0.44679 0.86907 0.0
Zn451 Zn 0.66247 0.61933 0.93045 0.0
N452 N 0.7271 0.56748 0.83631 0.0
C453 C 0.68907 0.62529 0.80015 0.0
C454 C 0.68554 0.60024 0.82869 0.0
C455 C 0.77263 0.55953 0.81671 0.0
N456 N 0.733 0.61545 0.78034 0.0
C457 C 0.77527 0.58307 0.78784 0.0
O458 O 0.77675 0.65674 0.93279 0.0
C459 C 0.82586 0.64604 0.91982 0.0
O460 O 0.80862 0.6011 0.89855 0.0
H461 H 0.64981 0.6064 0.84456 0.0
H462 H 0.80503 0.53319 0.82348 0.0
C463 C 0.66672 0.63565 0.99281 0.0
C464 C 0.64884 0.61023 1.02183 0.0
C465 C 0.55068 0.49165 1.00499 0.0
C466 C 0.56955 0.51629 0.97643 0.0
N467 N 0.62656 0.58823 0.97063 0.0
N468 N 0.59069 0.53881 0.02697 0.0
H469 H 0.71406 0.69128 0.98777 0.0
C470 C 0.77166 0.43149 0.8927 0.0
O471 O 0.748 0.44618 0.91703 0.0
O472 O 0.64805 0.70592 0.91667 0.0
H473 H 0.54056 0.47625 0.95941 0.0
H474 H 0.65691 0.6521 0.79379 0.0
H475 H 0.50696 0.4341 1.00965 0.0
Zn476 Zn 0.05223 0.67699 0.9296 0.0
C477 C 0.15579 0.57453 0.9029 0.0
N478 N 0.09091 0.51128 0.90995 0.0
C479 C 0.04068 0.53581 0.91038 0.0
N480 N 0.0743 0.61143 0.90494 0.0
N481 N 0.14554 0.63386 0.8983 0.0
C482 C 0.34614 0.77828 0.90338 0.0
O483 O 0.29897 0.76143 0.92523 0.0
O484 O 0.94448 0.65236 0.92186 0.0
Zn485 Zn 0.2109 0.72529 0.87764 0.0
N486 N 0.06914 0.65495 0.96922 0.0
C487 C 0.15384 0.64022 1.00085 0.0
C488 C 0.13267 0.64968 0.9731 0.0
C489 C 0.02634 0.65234 0.99235 0.0
N490 N 0.11145 0.63784 1.02391 0.0
C491 C 0.04824 0.64393 1.0206 0.0
O492 O 0.21686 0.8153 0.89629 0.0
C493 C 0.18537 0.83785 0.91422 0.0
O494 O 0.12354 0.79204 0.92693 0.0
H495 H 0.16793 0.65465 0.95484 0.0
H496 H 0.97696 0.65821 0.9888 0.0
C497 C 0.23326 0.76034 0.81745 0.0
C498 C 0.21156 0.75822 0.78833 0.0
C499 C 0.08303 0.67754 0.80199 0.0
C500 C 0.10496 0.67934 0.83078 0.0
N501 N 0.17958 0.7204 0.83788 0.0
N502 N 0.13655 0.71648 0.78143 0.0
H503 H 0.2922 0.79302 0.82393 0.0
C504 C 0.90392 0.67977 0.9308 0.0
O505 O 0.93055 0.73446 0.95012 0.0
O506 O 0.31925 0.75203 0.87854 0.0
H507 H 0.06289 0.64884 0.84736 0.0
H508 H 0.20423 0.63591 1.0041 0.0
H509 H 0.02385 0.64619 0.79617 0.0
Zn510 Zn 0.38861 0.05282 0.93137 0.0
C511 C 0.58793 0.15912 0.89108 0.0
N512 N 0.59169 0.09641 0.89754 0.0
C513 C 0.52037 0.04748 0.90606 0.0
N514 N 0.47621 0.08003 0.90599 0.0
N515 N 0.51811 0.14869 0.89501 0.0
C516 C 0.57423 0.35144 0.8893 0.0
O517 O 0.56507 0.31657 0.91427 0.0
O518 O 0.30166 0.95153 0.91858 0.0
Zn519 Zn 0.47791 0.2037 0.87449 0.0
N520 N 0.42145 0.04869 0.9712 0.0
C521 C 0.51912 0.06994 1.00506 0.0
C522 C 0.49374 0.06425 0.97662 0.0
C523 C 0.37433 0.04051 0.99359 0.0
N524 N 0.47221 0.06188 0.02727 0.0
C525 C 0.40041 0.04783 1.02246 0.0
O526 O 0.40351 0.21498 0.89816 0.0
C527 C 0.3601 0.18825 0.91995 0.0
O528 O 0.35113 0.12965 0.93353 0.0
H529 H 0.53334 0.07565 0.95936 0.0
H530 H 0.31832 0.03153 0.98882 0.0
C531 C 0.43249 0.20656 0.81667 0.0
C532 C 0.41222 0.18119 0.78797 0.0
C533 C 0.39662 0.06166 0.8019 0.0
C534 C 0.41831 0.08774 0.83025 0.0
N535 N 0.43637 0.15983 0.83699 0.0
N536 N 0.39498 0.10904 0.78138 0.0
H537 H 0.4484 0.26411 0.8226 0.0
C538 C 0.23083 0.91675 0.92414 0.0
O539 O 0.20253 0.94655 0.94195 0.0
O540 O 0.55414 0.31189 0.86646 0.0
H541 H 0.42225 0.05148 0.84656 0.0
H542 H 0.57692 0.08424 1.00944 0.0
H543 H 0.38243 0.0046 0.79617 0.0
Zn544 Zn 0.28726 0.49914 0.87724 0.0
C545 C 0.47096 0.5136 0.91234 0.0
N546 N 0.49536 0.58832 0.91375 0.0
C547 C 0.43244 0.59104 0.90708 0.0
N548 N 0.3737 0.52238 0.90085 0.0
N549 N 0.39582 0.47265 0.90615 0.0
C550 C 0.32655 0.23273 0.93089 0.0
O551 O 0.27291 0.20525 0.95067 0.0
O552 O 0.25806 0.57928 0.8781 0.0
Zn553 Zn 0.32854 0.38321 0.92952 0.0
N554 N 0.30587 0.48433 0.8374 0.0
C555 C 0.38957 0.48761 0.80076 0.0
C556 C 0.37412 0.49255 0.82986 0.0
C557 C 0.25212 0.47097 0.81704 0.0
N558 N 0.33647 0.47545 0.78032 0.0
C559 C 0.26771 0.4668 0.78759 0.0
O560 O 0.21474 0.34158 0.92464 0.0
C561 C 0.16951 0.35637 0.91073 0.0
O562 O 0.19297 0.41073 0.89269 0.0
H563 H 0.41663 0.5039 0.84621 0.0
H564 H 0.19876 0.46578 0.82377 0.0
C565 C 0.35261 0.37926 0.99244 0.0
C566 C 0.35829 0.4074 1.02089 0.0
C567 C 0.35096 0.51206 1.00192 0.0
C568 C 0.34433 0.48356 0.97399 0.0
N569 N 0.34585 0.41819 0.96963 0.0
N570 N 0.35754 0.47337 1.02466 0.0
H571 H 0.3524 0.32676 0.98848 0.0
C572 C 0.22833 0.57682 0.90249 0.0
O573 O 0.24254 0.54409 0.92429 0.0
O574 O 0.3534 0.3004 0.92156 0.0
H575 H 0.3364 0.51269 0.95593 0.0
H576 H 0.44346 0.49363 0.79446 0.0
H577 H 0.34989 0.56405 1.00556 0.0
Zn578 Zn 0.95539 0.34448 0.93026 0.0
C579 C 0.84611 0.43833 0.89331 0.0
N580 N 0.90922 0.50488 0.89915 0.0
C581 C 0.959 0.48237 0.90637 0.0
N582 N 0.9266 0.40566 0.90609 0.0
N583 N 0.8569 0.37897 0.89636 0.0
C584 C 0.65579 0.23357 0.89106 0.0
O585 O 0.69198 0.2567 0.91588 0.0
O586 O 0.0565 0.36013 0.91607 0.0
Zn587 Zn 0.80219 0.2863 0.87471 0.0
N588 N 0.9605 0.37945 0.97057 0.0
C589 C 0.93874 0.4543 1.00493 0.0
C590 C 0.9439 0.43527 0.97639 0.0
C591 C 0.97009 0.34057 0.99276 0.0
N592 N 0.9483 0.41566 0.02691 0.0
C593 C 0.96331 0.3587 1.02178 0.0
O594 O 0.79265 0.19811 0.89651 0.0
C595 C 0.81998 0.18071 0.91799 0.0
O596 O 0.87831 0.23004 0.93173 0.0
H597 H 0.93114 0.46323 0.95941 0.0
H598 H 0.97974 0.29411 0.98774 0.0
C599 C 0.80311 0.23866 0.81699 0.0
C600 C 0.82213 0.2502 0.78736 0.0
C601 C 0.92303 0.37416 0.79837 0.0
C602 C 0.90332 0.36266 0.82763 0.0
N603 N 0.84346 0.29551 0.83631 0.0
N604 N 0.88174 0.31824 0.77894 0.0
H605 H 0.75394 0.18698 0.82448 0.0
C606 C 0.09005 0.32217 0.92015 0.0
O607 O 0.05921 0.26176 0.93691 0.0
O608 O 0.69404 0.25495 0.86792 0.0
H609 H 0.93346 0.40798 0.84308 0.0
H610 H 0.92365 0.4971 1.0096 0.0
H611 H 0.96957 0.42792 0.79104 0.0
Zn612 Zn 0.21218 0.48691 0.6754 0.0
C613 C 0.04233 0.50627 0.64236 0.0
N614 N 0.09259 0.58105 0.64271 0.0
C615 C 0.15741 0.5827 0.64987 0.0
N616 N 0.14704 0.51313 0.65464 0.0
N617 N 0.07585 0.46425 0.64796 0.0
C618 C 0.90554 0.22537 0.62215 0.0
O619 O 0.93218 0.19723 0.60287 0.0
O620 O 0.32056 0.5685 0.67478 0.0
Zn621 Zn 0.05385 0.37651 0.62337 0.0
N622 N 0.18019 0.45995 0.71505 0.0
C623 C 0.08301 0.40552 0.75065 0.0
C624 C 0.10543 0.42611 0.72194 0.0
C625 C 0.23352 0.4735 0.73561 0.0
N626 N 0.13618 0.4199 0.77135 0.0
C627 C 0.21132 0.45343 0.76465 0.0
O628 O 0.125 0.33267 0.62614 0.0
C629 C 0.18688 0.34885 0.63885 0.0
O630 O 0.21835 0.403 0.65674 0.0
H631 H 0.06364 0.41468 0.70525 0.0
H632 H 0.29258 0.49996 0.7293 0.0
C633 C 0.02815 0.37532 0.56063 0.0
C634 C 0.05022 0.40551 0.53238 0.0
C635 C 0.15615 0.51457 0.55214 0.0
C636 C 0.13481 0.48403 0.57989 0.0
N637 N 0.07104 0.41541 0.58376 0.0
N638 N 0.11367 0.47465 0.52907 0.0
H639 H 0.97858 0.32019 0.56419 0.0
C640 C 0.3477 0.56934 0.64997 0.0
O641 O 0.3007 0.53937 0.62805 0.0
O642 O 0.94607 0.29339 0.63106 0.0
H643 H 0.17012 0.51421 0.59816 0.0
H644 H 0.02371 0.37748 0.7563 0.0
H645 H 0.20673 0.56913 0.54889 0.0
Zn646 Zn 0.72508 0.19795 0.67828 0.0
C647 C 0.52609 0.03941 0.64707 0.0
N648 N 0.50321 0.08753 0.65615 0.0
C649 C 0.56929 0.14969 0.6633 0.0
N650 N 0.62876 0.13942 0.65929 0.0
N651 N 0.60277 0.07187 0.64747 0.0
C652 C 0.68707 0.90954 0.6322 0.0
O653 O 0.74662 0.93985 0.61507 0.0
O654 O 0.75283 0.30542 0.68391 0.0
Zn655 Zn 0.66405 0.04436 0.62258 0.0
N656 N 0.72838 0.16058 0.7166 0.0
C657 C 0.68903 0.06432 0.75265 0.0
C658 C 0.68617 0.08624 0.72411 0.0
C659 C 0.77394 0.21372 0.73632 0.0
N660 N 0.73298 0.11775 0.77257 0.0
C661 C 0.77592 0.19242 0.76519 0.0
O662 O 0.77834 0.12122 0.62017 0.0
C663 C 0.8275 0.18103 0.63315 0.0
O664 O 0.81034 0.20876 0.65443 0.0
H665 H 0.65039 0.04465 0.70816 0.0
H666 H 0.8068 0.2725 0.72965 0.0
C667 C 0.6681 0.03192 0.56018 0.0
C668 C 0.64993 0.03916 0.53117 0.0
C669 C 0.55162 0.05926 0.54806 0.0
C670 C 0.57075 0.05375 0.57661 0.0
N671 N 0.62797 0.03914 0.58239 0.0
N672 N 0.59157 0.05213 0.52607 0.0
H673 H 0.71561 0.02387 0.5652 0.0
C674 C 0.77344 0.3415 0.66024 0.0
O675 O 0.74947 0.30298 0.63595 0.0
O676 O 0.64962 0.94347 0.63654 0.0
H677 H 0.54174 0.06473 0.59364 0.0
H678 H 0.65628 0.00533 0.75894 0.0
H679 H 0.50773 0.07285 0.54341 0.0
Zn680 Zn 0.62539 0.67023 0.62427 0.0
C681 C 0.41783 0.5671 0.6487 0.0
N682 N 0.41945 0.50375 0.64184 0.0
C683 C 0.4942 0.52795 0.64203 0.0
N684 N 0.53605 0.60335 0.64781 0.0
N685 N 0.48711 0.62596 0.65382 0.0
C686 C 0.43386 0.77134 0.64788 0.0
O687 O 0.46883 0.75706 0.62703 0.0
O688 O 0.70855 0.64594 0.63284 0.0
Zn689 Zn 0.51046 0.71453 0.67582 0.0
N690 N 0.5897 0.65126 0.58415 0.0
C691 C 0.4925 0.63954 0.55195 0.0
C692 C 0.52156 0.64718 0.57987 0.0
C693 C 0.63081 0.64924 0.56122 0.0
N694 N 0.53335 0.63767 0.52911 0.0
C695 C 0.60205 0.64261 0.53278 0.0
O696 O 0.59907 0.80755 0.66005 0.0
C697 C 0.65304 0.83028 0.64197 0.0
O698 O 0.66721 0.78443 0.62829 0.0
H699 H 0.49053 0.65161 0.59796 0.0
H700 H 0.68552 0.65409 0.56508 0.0
C701 C 0.5247 0.7504 0.73585 0.0
C702 C 0.53053 0.73901 0.76565 0.0
C703 C 0.53615 0.62795 0.75437 0.0
C704 C 0.52998 0.63941 0.72489 0.0
N705 N 0.5243 0.70028 0.71626 0.0
N706 N 0.53603 0.67761 0.77402 0.0
H707 H 0.51927 0.7978 0.72814 0.0
C708 C 0.77715 0.67477 0.62445 0.0
O709 O 0.80543 0.73017 0.60533 0.0
O710 O 0.43008 0.74291 0.67273 0.0
H711 H 0.52908 0.59979 0.70907 0.0
H712 H 0.43832 0.63618 0.5484 0.0
H713 H 0.54093 0.57984 0.76155 0.0
Zn714 Zn 0.80352 0.51676 0.67829 0.0
C715 C 0.96068 0.47807 0.64638 0.0
N716 N 0.9109 0.4057 0.65349 0.0
C717 C 0.84789 0.40911 0.6595 0.0
N718 N 0.85877 0.47934 0.65668 0.0
N719 N 0.92839 0.52248 0.64689 0.0
C720 C 0.09177 0.7695 0.63296 0.0
O721 O 0.0611 0.79903 0.61608 0.0
O722 O 0.69534 0.43951 0.68467 0.0
Zn723 Zn 0.95703 0.61264 0.62282 0.0
N724 N 0.84382 0.54786 0.71689 0.0
C725 C 0.92168 0.54672 0.75512 0.0
C726 C 0.90286 0.53942 0.72577 0.0
C727 C 0.80344 0.56461 0.73609 0.0
N728 N 0.88037 0.56166 0.77442 0.0
C729 C 0.82157 0.5712 0.7658 0.0
O730 O 0.87983 0.64984 0.62148 0.0
C731 C 0.82149 0.64071 0.63523 0.0
O732 O 0.79413 0.5958 0.65665 0.0
H733 H 0.93298 0.52402 0.71041 0.0
H734 H 0.75487 0.56799 0.72843 0.0
C735 C 0.97229 0.63227 0.56033 0.0
C736 C 0.96607 0.60791 0.53125 0.0
C737 C 0.94158 0.48754 0.54785 0.0
C738 C 0.94616 0.51119 0.57644 0.0
N739 N 0.96248 0.58346 0.58242 0.0
N740 N 0.95137 0.53609 0.52598 0.0
H741 H 0.98176 0.68826 0.56547 0.0
C742 C 0.65761 0.42359 0.66142 0.0
O743 O 0.69444 0.43763 0.63672 0.0
O744 O 0.05805 0.69801 0.63712 0.0
H745 H 0.93323 0.4702 0.59333 0.0
H746 H 0.96754 0.53859 0.76261 0.0
H747 H 0.92682 0.4298 0.54305 0.0
Zn748 Zn 0.3303 0.94675 0.62362 0.0
C749 C 0.43416 0.84279 0.64622 0.0
N750 N 0.4971 0.90844 0.63956 0.0
C751 C 0.47268 0.95874 0.64086 0.0
N752 N 0.39752 0.9245 0.647 0.0
N753 N 0.37532 0.85264 0.65234 0.0
C754 C 0.22991 0.65299 0.65043 0.0
O755 O 0.24422 0.70018 0.62871 0.0
O756 O 0.35516 0.05444 0.63157 0.0
Zn757 Zn 0.28879 0.78938 0.6759 0.0
N758 N 0.34764 0.92923 0.5835 0.0
C759 C 0.35385 0.84133 0.55106 0.0
C760 C 0.3472 0.8629 0.57904 0.0
C761 C 0.35329 0.97459 0.56073 0.0
N762 N 0.35934 0.8863 0.52836 0.0
C763 C 0.35897 0.95243 0.53223 0.0
O764 O 0.19459 0.7837 0.66044 0.0
C765 C 0.17122 0.81469 0.6424 0.0
O766 O 0.21651 0.87464 0.62847 0.0
H767 H 0.34009 0.826 0.59706 0.0
H768 H 0.35223 0.02641 0.56476 0.0
C769 C 0.25314 0.78184 0.73604 0.0
C770 C 0.26831 0.8014 0.76552 0.0
C771 C 0.39027 0.90268 0.75262 0.0
C772 C 0.37523 0.88251 0.72348 0.0
N773 N 0.30712 0.82245 0.71579 0.0
N774 N 0.33693 0.86153 0.77294 0.0
H775 H 0.19988 0.73369 0.72919 0.0
C776 C 0.32812 0.09514 0.62228 0.0
O777 O 0.27419 0.06876 0.6026 0.0
O778 O 0.25951 0.68001 0.67488 0.0
H779 H 0.4179 0.91387 0.70721 0.0
H780 H 0.35364 0.78871 0.54735 0.0
H781 H 0.44402 0.95061 0.75903 0.0
Zn782 Zn 0.47979 0.27582 0.6785 0.0
C783 C 0.52189 0.47425 0.64686 0.0
N784 N 0.59349 0.49668 0.65499 0.0
C785 C 0.5898 0.43023 0.66141 0.0
N786 N 0.51978 0.37087 0.65789 0.0
N787 N 0.47759 0.39754 0.64712 0.0
C788 C 0.23232 0.31536 0.62898 0.0
O789 O 0.20404 0.25727 0.61117 0.0
O790 O 0.55596 0.24379 0.68655 0.0
Zn791 Zn 0.39 0.33709 0.62174 0.0
N792 N 0.43831 0.27846 0.71596 0.0
C793 C 0.39985 0.33806 0.75102 0.0
C794 C 0.42152 0.33338 0.7227 0.0
C795 C 0.43317 0.22723 0.73625 0.0
N796 N 0.39693 0.28838 0.77151 0.0
C797 C 0.41288 0.23257 0.76492 0.0
O798 O 0.35258 0.22276 0.61957 0.0
C799 C 0.36169 0.17322 0.63316 0.0
O800 O 0.40527 0.19004 0.65491 0.0
H801 H 0.42647 0.37408 0.70644 0.0
H802 H 0.44815 0.18491 0.73032 0.0
C803 C 0.37493 0.33597 0.55954 0.0
C804 C 0.40057 0.3551 0.53065 0.0
C805 C 0.5199 0.45082 0.54798 0.0
C806 C 0.49497 0.43064 0.57644 0.0
N807 N 0.42257 0.37425 0.58191 0.0
N808 N 0.47248 0.41262 0.5258 0.0
H809 H 0.31881 0.28919 0.56435 0.0
C810 C 0.57601 0.22434 0.6637 0.0
O811 O 0.56683 0.25007 0.63874 0.0
O812 O 0.30312 0.3514 0.63458 0.0
H813 H 0.53496 0.45824 0.59364 0.0
H814 H 0.38671 0.38166 0.75675 0.0
H815 H 0.57772 0.49421 0.54353 0.0
loop_
_geom_bond_atom_site_label_1
_geom_bond_atom_site_label_2
_geom_bond_distance
_geom_bond_site_symmetry_2
_ccdc_geom_bond_type
Zn0 N4 2.020 . S
Zn0 O8 2.019 1_545 S
Zn0 N10 2.119 . S
Zn0 O18 1.975 . S
C1 N2 1.334 . S
C1 N5 1.336 . S
N2 C1 1.334 . S
N2 C3 1.334 . S
C3 N2 1.334 . S
C3 N4 1.336 . S
N4 Zn0 2.020 . S
N4 C3 1.336 . S
N4 N5 1.354 . S
N5 C1 1.336 . S
N5 N4 1.354 . S
N5 Zn9 2.020 . S
C6 O7 1.244 . S
C6 O30 1.257 . S
O7 C6 1.244 . S
O8 Zn0 2.019 1_565 S
O8 C28 1.257 . S
Zn9 N5 2.020 . S
Zn9 O16 1.975 . S
Zn9 N25 2.119 . S
Zn9 O30 2.019 . S
N10 Zn0 2.119 . S
N10 C12 1.334 . S
N10 C13 1.328 . S
C11 C12 1.391 . S
C11 N14 1.329 . S
C11 H32 0.930 . S
C12 N10 1.334 . S
C12 C11 1.391 . S
C12 H19 0.930 . S
C13 N10 1.328 . S
C13 C15 1.392 . S
C13 H20 0.930 1_545 S
N14 C11 1.329 . S
N14 C15 1.331 . S
C15 C13 1.392 . S
C15 N14 1.331 . S
O16 Zn9 1.975 . S
O16 C17 1.252 . S
C17 O16 1.252 . S
C17 O18 1.252 . S
O18 Zn0 1.975 . S
O18 C17 1.252 . S
H19 C12 0.930 . S
H20 C13 0.930 1_565 S
C21 C22 1.392 . S
C21 N25 1.328 . S
C21 H27 0.930 . S
C22 C21 1.392 . S
C22 N26 1.331 . S
C23 C24 1.391 . S
C23 N26 1.329 . S
C23 H33 0.930 . S
C24 C23 1.391 . S
C24 N25 1.334 . S
C24 H31 0.930 . S
N25 Zn9 2.119 . S
N25 C21 1.328 . S
N25 C24 1.334 . S
N26 C22 1.331 . S
N26 C23 1.329 . S
H27 C21 0.930 . S
C28 O8 1.257 . S
C28 O29 1.244 . S
O29 C28 1.244 . S
O30 C6 1.257 . S
O30 Zn9 2.019 . S
H31 C24 0.930 . S
H32 C11 0.930 . S
H33 C23 0.930 . S
Zn34 N38 2.020 . S
Zn34 O42 2.019 . S
Zn34 N44 2.119 . S
Zn34 O52 1.975 . S
C35 N36 1.334 . S
C35 N39 1.336 . S
N36 C35 1.334 . S
N36 C37 1.334 . S
C37 N36 1.334 . S
C37 N38 1.336 . S
N38 Zn34 2.020 . S
N38 C37 1.336 . S
N38 N39 1.354 . S
N39 C35 1.336 . S
N39 N38 1.354 . S
N39 Zn43 2.020 . S
C40 O41 1.244 . S
C40 O64 1.257 . S
O41 C40 1.244 . S
O42 Zn34 2.019 . S
O42 C62 1.257 . S
Zn43 N39 2.020 . S
Zn43 O50 1.975 . S
Zn43 N59 2.119 . S
Zn43 O64 2.019 . S
N44 Zn34 2.119 . S
N44 C46 1.334 . S
N44 C47 1.328 . S
C45 C46 1.391 . S
C45 N48 1.329 . S
C45 H66 0.930 . S
C46 N44 1.334 . S
C46 C45 1.391 . S
C46 H53 0.930 . S
C47 N44 1.328 . S
C47 C49 1.392 . S
C47 H54 0.930 . S
N48 C45 1.329 . S
N48 C49 1.331 . S
C49 C47 1.392 . S
C49 N48 1.331 . S
O50 Zn43 1.975 . S
O50 C51 1.252 . S
C51 O50 1.252 . S
C51 O52 1.252 . S
O52 Zn34 1.975 . S
O52 C51 1.252 . S
H53 C46 0.930 . S
H54 C47 0.930 . S
C55 C56 1.392 . S
C55 N59 1.328 . S
C55 H61 0.930 . S
C56 C55 1.392 . S
C56 N60 1.331 . S
C57 C58 1.391 . S
C57 N60 1.329 . S
C57 H67 0.930 . S
C58 C57 1.391 . S
C58 N59 1.334 . S
C58 H65 0.930 . S
N59 Zn43 2.119 . S
N59 C55 1.328 . S
N59 C58 1.334 . S
N60 C56 1.331 . S
N60 C57 1.329 . S
H61 C55 0.930 . S
C62 O42 1.257 . S
C62 O63 1.244 . S
O63 C62 1.244 . S
O64 C40 1.257 . S
O64 Zn43 2.019 . S
H65 C58 0.930 . S
H66 C45 0.930 . S
H67 C57 0.930 . S
Zn68 N72 2.020 . S
Zn68 O76 2.019 1_655 S
Zn68 N78 2.119 . S
Zn68 O86 1.975 . S
C69 N70 1.334 . S
C69 N73 1.336 . S
N70 C69 1.334 . S
N70 C71 1.334 . S
C71 N70 1.334 . S
C71 N72 1.336 . S
N72 Zn68 2.020 . S
N72 C71 1.336 . S
N72 N73 1.354 . S
N73 C69 1.336 . S
N73 N72 1.354 . S
N73 Zn77 2.020 . S
C74 O75 1.244 . S
C74 O98 1.257 . S
O75 C74 1.244 . S
O76 Zn68 2.019 1_455 S
O76 C96 1.257 . S
Zn77 N73 2.020 . S
Zn77 O84 1.975 . S
Zn77 N93 2.119 . S
Zn77 O98 2.019 . S
N78 Zn68 2.119 . S
N78 C80 1.334 . S
N78 C81 1.328 . S
C79 C80 1.391 . S
C79 N82 1.329 . S
C79 H100 0.930 . S
C80 N78 1.334 . S
C80 C79 1.391 . S
C80 H87 0.930 . S
C81 N78 1.328 . S
C81 C83 1.392 . S
C81 H88 0.930 1_655 S
N82 C79 1.329 . S
N82 C83 1.331 . S
C83 C81 1.392 . S
C83 N82 1.331 . S
O84 Zn77 1.975 . S
O84 C85 1.252 . S
C85 O84 1.252 . S
C85 O86 1.252 . S
O86 Zn68 1.975 . S
O86 C85 1.252 . S
H87 C80 0.930 . S
H88 C81 0.930 1_455 S
C89 C90 1.392 . S
C89 N93 1.328 . S
C89 H95 0.930 . S
C90 C89 1.392 . S
C90 N94 1.331 . S
C91 C92 1.391 . S
C91 N94 1.329 . S
C91 H101 0.930 . S
C92 C91 1.391 . S
C92 N93 1.334 . S
C92 H99 0.930 . S
N93 Zn77 2.119 . S
N93 C89 1.328 . S
N93 C92 1.334 . S
N94 C90 1.331 . S
N94 C91 1.329 . S
H95 C89 0.930 . S
C96 O76 1.257 . S
C96 O97 1.244 . S
O97 C96 1.244 . S
O98 C74 1.257 . S
O98 Zn77 2.019 . S
H99 C92 0.930 . S
H100 C79 0.930 . S
H101 C91 0.930 . S
Zn102 N106 2.020 . S
Zn102 O110 2.019 . S
Zn102 N112 2.119 . S
Zn102 O120 1.975 . S
C103 N104 1.334 . S
C103 N107 1.336 . S
N104 C103 1.334 . S
N104 C105 1.334 . S
C105 N104 1.334 . S
C105 N106 1.336 . S
N106 Zn102 2.020 . S
N106 C105 1.336 . S
N106 N107 1.354 . S
N107 C103 1.336 . S
N107 N106 1.354 . S
N107 Zn111 2.020 . S
C108 O109 1.244 . S
C108 O132 1.257 . S
O109 C108 1.244 . S
O110 Zn102 2.019 . S
O110 C130 1.257 . S
Zn111 N107 2.020 . S
Zn111 O118 1.975 . S
Zn111 N127 2.119 . S
Zn111 O132 2.019 1_565 S
N112 Zn102 2.119 . S
N112 C114 1.334 . S
N112 C115 1.328 . S
C113 C114 1.391 . S
C113 N116 1.329 . S
C113 H134 0.930 . S
C114 N112 1.334 . S
C114 C113 1.391 . S
C114 H121 0.930 . S
C115 N112 1.328 . S
C115 C117 1.392 . S
C115 H122 0.930 . S
N116 C113 1.329 . S
N116 C117 1.331 . S
C117 C115 1.392 . S
C117 N116 1.331 . S
O118 Zn111 1.975 . S
O118 C119 1.252 . S
C119 O118 1.252 . S
C119 O120 1.252 . S
O120 Zn102 1.975 . S
O120 C119 1.252 . S
H121 C114 0.930 . S
H122 C115 0.930 . S
C123 C124 1.392 . S
C123 N127 1.328 . S
C123 H129 0.930 1_565 S
C124 C123 1.392 . S
C124 N128 1.331 . S
C125 C126 1.391 . S
C125 N128 1.329 . S
C125 H135 0.930 . S
C126 C125 1.391 . S
C126 N127 1.334 . S
C126 H133 0.930 . S
N127 Zn111 2.119 . S
N127 C123 1.328 . S
N127 C126 1.334 . S
N128 C124 1.331 . S
N128 C125 1.329 . S
H129 C123 0.930 1_545 S
C130 O110 1.257 . S
C130 O131 1.244 . S
O131 C130 1.244 . S
O132 C108 1.257 . S
O132 Zn111 2.019 1_545 S
H133 C126 0.930 . S
H134 C113 0.930 . S
H135 C125 0.930 . S
Zn136 N140 2.020 . S
Zn136 O144 2.019 . S
Zn136 N146 2.119 . S
Zn136 O154 1.975 . S
C137 N138 1.334 . S
C137 N141 1.336 . S
N138 C137 1.334 . S
N138 C139 1.334 . S
C139 N138 1.334 . S
C139 N140 1.336 . S
N140 Zn136 2.020 . S
N140 C139 1.336 . S
N140 N141 1.354 . S
N141 C137 1.336 . S
N141 N140 1.354 . S
N141 Zn145 2.020 . S
C142 O143 1.244 . S
C142 O166 1.257 . S
O143 C142 1.244 . S
O144 Zn136 2.019 . S
O144 C164 1.257 . S
Zn145 N141 2.020 . S
Zn145 O152 1.975 . S
Zn145 N161 2.119 . S
Zn145 O166 2.019 . S
N146 Zn136 2.119 . S
N146 C148 1.334 . S
N146 C149 1.328 . S
C147 C148 1.391 . S
C147 N150 1.329 . S
C147 H168 0.930 . S
C148 N146 1.334 . S
C148 C147 1.391 . S
C148 H155 0.930 . S
C149 N146 1.328 . S
C149 C151 1.392 . S
C149 H156 0.930 . S
N150 C147 1.329 . S
N150 C151 1.331 . S
C151 C149 1.392 . S
C151 N150 1.331 . S
O152 Zn145 1.975 . S
O152 C153 1.252 . S
C153 O152 1.252 . S
C153 O154 1.252 . S
O154 Zn136 1.975 . S
O154 C153 1.252 . S
H155 C148 0.930 . S
H156 C149 0.930 . S
C157 C158 1.392 . S
C157 N161 1.328 . S
C157 H163 0.930 . S
C158 C157 1.392 . S
C158 N162 1.331 . S
C159 C160 1.391 . S
C159 N162 1.329 . S
C159 H169 0.930 . S
C160 C159 1.391 . S
C160 N161 1.334 . S
C160 H167 0.930 . S
N161 Zn145 2.119 . S
N161 C157 1.328 . S
N161 C160 1.334 . S
N162 C158 1.331 . S
N162 C159 1.329 . S
H163 C157 0.930 . S
C164 O144 1.257 . S
C164 O165 1.244 . S
O165 C164 1.244 . S
O166 C142 1.257 . S
O166 Zn145 2.019 . S
H167 C160 0.930 . S
H168 C147 0.930 . S
H169 C159 0.930 . S
Zn170 N174 2.020 . S
Zn170 O178 2.019 . S
Zn170 N180 2.119 . S
Zn170 O188 1.975 . S
C171 N172 1.334 . S
C171 N175 1.336 . S
N172 C171 1.334 . S
N172 C173 1.334 . S
C173 N172 1.334 . S
C173 N174 1.336 . S
N174 Zn170 2.020 . S
N174 C173 1.336 . S
N174 N175 1.354 . S
N175 C171 1.336 . S
N175 N174 1.354 . S
N175 Zn179 2.020 . S
C176 O177 1.244 . S
C176 O200 1.257 . S
O177 C176 1.244 . S
O178 Zn170 2.019 . S
O178 C198 1.257 . S
Zn179 N175 2.020 . S
Zn179 O186 1.975 . S
Zn179 N195 2.119 . S
Zn179 O200 2.019 1_455 S
N180 Zn170 2.119 . S
N180 C182 1.334 . S
N180 C183 1.328 . S
C181 C182 1.391 . S
C181 N184 1.329 . S
C181 H202 0.930 . S
C182 N180 1.334 . S
C182 C181 1.391 . S
C182 H189 0.930 . S
C183 N180 1.328 . S
C183 C185 1.392 . S
C183 H190 0.930 . S
N184 C181 1.329 . S
N184 C185 1.331 . S
C185 C183 1.392 . S
C185 N184 1.331 . S
O186 Zn179 1.975 . S
O186 C187 1.252 . S
C187 O186 1.252 . S
C187 O188 1.252 . S
O188 Zn170 1.975 . S
O188 C187 1.252 . S
H189 C182 0.930 . S
H190 C183 0.930 . S
C191 C192 1.392 . S
C191 N195 1.328 . S
C191 H197 0.930 1_455 S
C192 C191 1.392 . S
C192 N196 1.331 . S
C193 C194 1.391 . S
C193 N196 1.329 . S
C193 H203 0.930 . S
C194 C193 1.391 . S
C194 N195 1.334 . S
C194 H201 0.930 . S
N195 Zn179 2.119 . S
N195 C191 1.328 . S
N195 C194 1.334 . S
N196 C192 1.331 . S
N196 C193 1.329 . S
H197 C191 0.930 1_655 S
C198 O178 1.257 . S
C198 O199 1.244 . S
O199 C198 1.244 . S
O200 C176 1.257 . S
O200 Zn179 2.019 1_655 S
H201 C194 0.930 . S
H202 C181 0.930 . S
H203 C193 0.930 . S
Zn204 N208 2.020 . S
Zn204 O212 2.019 1_655 S
Zn204 N214 2.119 . S
Zn204 O222 1.975 . S
C205 N206 1.334 . S
C205 N209 1.336 . S
N206 C205 1.334 . S
N206 C207 1.334 . S
C207 N206 1.334 . S
C207 N208 1.336 . S
N208 Zn204 2.020 . S
N208 C207 1.336 . S
N208 N209 1.354 . S
N209 C205 1.336 . S
N209 N208 1.354 . S
N209 Zn213 2.020 . S
C210 O211 1.244 . S
C210 O234 1.257 . S
O211 C210 1.244 . S
O212 Zn204 2.019 1_455 S
O212 C232 1.257 . S
Zn213 N209 2.020 . S
Zn213 O220 1.975 . S
Zn213 N229 2.119 . S
Zn213 O234 2.019 . S
N214 Zn204 2.119 . S
N214 C216 1.334 . S
N214 C217 1.328 . S
C215 C216 1.391 . S
C215 N218 1.329 . S
C215 H236 0.930 . S
C216 N214 1.334 . S
C216 C215 1.391 . S
C216 H223 0.930 . S
C217 N214 1.328 . S
C217 C219 1.392 . S
C217 H224 0.930 1_655 S
N218 C215 1.329 . S
N218 C219 1.331 . S
C219 C217 1.392 . S
C219 N218 1.331 . S
O220 Zn213 1.975 . S
O220 C221 1.252 . S
C221 O220 1.252 . S
C221 O222 1.252 . S
O222 Zn204 1.975 . S
O222 C221 1.252 . S
H223 C216 0.930 . S
H224 C217 0.930 1_455 S
C225 C226 1.392 . S
C225 N229 1.328 . S
C225 H231 0.930 . S
C226 C225 1.392 . S
C226 N230 1.331 . S
C227 C228 1.391 . S
C227 N230 1.329 . S
C227 H237 0.930 . S
C228 C227 1.391 . S
C228 N229 1.334 . S
C228 H235 0.930 . S
N229 Zn213 2.119 . S
N229 C225 1.328 . S
N229 C228 1.334 . S
N230 C226 1.331 . S
N230 C227 1.329 . S
H231 C225 0.930 . S
C232 O212 1.257 . S
C232 O233 1.244 . S
O233 C232 1.244 . S
O234 C210 1.257 . S
O234 Zn213 2.019 . S
H235 C228 0.930 . S
H236 C215 0.930 . S
H237 C227 0.930 . S
Zn238 N242 2.020 . S
Zn238 O246 2.019 . S
Zn238 N248 2.119 . S
Zn238 O256 1.975 . S
C239 N240 1.334 . S
C239 N243 1.336 . S
N240 C239 1.334 . S
N240 C241 1.334 . S
C241 N240 1.334 . S
C241 N242 1.336 . S
N242 Zn238 2.020 . S
N242 C241 1.336 . S
N242 N243 1.354 . S
N243 C239 1.336 . S
N243 N242 1.354 . S
N243 Zn247 2.020 . S
C244 O245 1.244 . S
C244 O268 1.257 . S
O245 C244 1.244 . S
O246 Zn238 2.019 . S
O246 C266 1.257 . S
Zn247 N243 2.020 . S
Zn247 O254 1.975 . S
Zn247 N263 2.119 . S
Zn247 O268 2.019 1_565 S
N248 Zn238 2.119 . S
N248 C250 1.334 . S
N248 C251 1.328 . S
C249 C250 1.391 . S
C249 N252 1.329 . S
C249 H270 0.930 . S
C250 N248 1.334 . S
C250 C249 1.391 . S
C250 H257 0.930 . S
C251 N248 1.328 . S
C251 C253 1.392 . S
C251 H258 0.930 . S
N252 C249 1.329 . S
N252 C253 1.331 . S
C253 C251 1.392 . S
C253 N252 1.331 . S
O254 Zn247 1.975 . S
O254 C255 1.252 . S
C255 O254 1.252 . S
C255 O256 1.252 . S
O256 Zn238 1.975 . S
O256 C255 1.252 . S
H257 C250 0.930 . S
H258 C251 0.930 . S
C259 C260 1.392 . S
C259 N263 1.328 . S
C259 H265 0.930 1_565 S
C260 C259 1.392 . S
C260 N264 1.331 . S
C261 C262 1.391 . S
C261 N264 1.329 . S
C261 H271 0.930 . S
C262 C261 1.391 . S
C262 N263 1.334 . S
C262 H269 0.930 . S
N263 Zn247 2.119 . S
N263 C259 1.328 . S
N263 C262 1.334 . S
N264 C260 1.331 . S
N264 C261 1.329 . S
H265 C259 0.930 1_545 S
C266 O246 1.257 . S
C266 O267 1.244 . S
O267 C266 1.244 . S
O268 C244 1.257 . S
O268 Zn247 2.019 1_545 S
H269 C262 0.930 . S
H270 C249 0.930 . S
H271 C261 0.930 . S
Zn272 N276 2.020 . S
Zn272 O280 2.019 . S
Zn272 N282 2.119 . S
Zn272 O290 1.975 . S
C273 N274 1.334 . S
C273 N277 1.336 . S
N274 C273 1.334 . S
N274 C275 1.334 . S
C275 N274 1.334 . S
C275 N276 1.336 . S
N276 Zn272 2.020 . S
N276 C275 1.336 . S
N276 N277 1.354 . S
N277 C273 1.336 . S
N277 N276 1.354 . S
N277 Zn281 2.020 . S
C278 O279 1.244 . S
C278 O302 1.257 . S
O279 C278 1.244 . S
O280 Zn272 2.019 . S
O280 C300 1.257 . S
Zn281 N277 2.020 . S
Zn281 O288 1.975 . S
Zn281 N297 2.119 . S
Zn281 O302 2.019 . S
N282 Zn272 2.119 . S
N282 C284 1.334 . S
N282 C285 1.328 . S
C283 C284 1.391 . S
C283 N286 1.329 . S
C283 H304 0.930 . S
C284 N282 1.334 . S
C284 C283 1.391 . S
C284 H291 0.930 . S
C285 N282 1.328 . S
C285 C287 1.392 . S
C285 H292 0.930 . S
N286 C283 1.329 . S
N286 C287 1.331 . S
C287 C285 1.392 . S
C287 N286 1.331 . S
O288 Zn281 1.975 . S
O288 C289 1.252 . S
C289 O288 1.252 . S
C289 O290 1.252 . S
O290 Zn272 1.975 . S
O290 C289 1.252 . S
H291 C284 0.930 . S
H292 C285 0.930 . S
C293 C294 1.392 . S
C293 N297 1.328 . S
C293 H299 0.930 . S
C294 C293 1.392 . S
C294 N298 1.331 . S
C295 C296 1.391 . S
C295 N298 1.329 . S
C295 H305 0.930 . S
C296 C295 1.391 . S
C296 N297 1.334 . S
C296 H303 0.930 . S
N297 Zn281 2.119 . S
N297 C293 1.328 . S
N297 C296 1.334 . S
N298 C294 1.331 . S
N298 C295 1.329 . S
H299 C293 0.930 . S
C300 O280 1.257 . S
C300 O301 1.244 . S
O301 C300 1.244 . S
O302 C278 1.257 . S
O302 Zn281 2.019 . S
H303 C296 0.930 . S
H304 C283 0.930 . S
H305 C295 0.930 . S
Zn306 N310 2.020 . S
Zn306 O314 2.019 . S
Zn306 N316 2.119 . S
Zn306 O324 1.975 . S
C307 N308 1.334 . S
C307 N311 1.336 . S
N308 C307 1.334 . S
N308 C309 1.334 . S
C309 N308 1.334 . S
C309 N310 1.336 . S
N310 Zn306 2.020 . S
N310 C309 1.336 . S
N310 N311 1.354 . S
N311 C307 1.336 . S
N311 N310 1.354 . S
N311 Zn315 2.020 . S
C312 O313 1.244 . S
C312 O336 1.257 . S
O313 C312 1.244 . S
O314 Zn306 2.019 . S
O314 C334 1.257 . S
Zn315 N311 2.020 . S
Zn315 O322 1.975 . S
Zn315 N331 2.119 . S
Zn315 O336 2.019 1_455 S
N316 Zn306 2.119 . S
N316 C318 1.334 . S
N316 C319 1.328 . S
C317 C318 1.391 . S
C317 N320 1.329 . S
C317 H338 0.930 . S
C318 N316 1.334 . S
C318 C317 1.391 . S
C318 H325 0.930 . S
C319 N316 1.328 . S
C319 C321 1.392 . S
C319 H326 0.930 . S
N320 C317 1.329 . S
N320 C321 1.331 . S
C321 C319 1.392 . S
C321 N320 1.331 . S
O322 Zn315 1.975 . S
O322 C323 1.252 . S
C323 O322 1.252 . S
C323 O324 1.252 . S
O324 Zn306 1.975 . S
O324 C323 1.252 . S
H325 C318 0.930 . S
H326 C319 0.930 . S
C327 C328 1.392 . S
C327 N331 1.328 . S
C327 H333 0.930 1_455 S
C328 C327 1.392 . S
C328 N332 1.331 . S
C329 C330 1.391 . S
C329 N332 1.329 . S
C329 H339 0.930 . S
C330 C329 1.391 . S
C330 N331 1.334 . S
C330 H337 0.930 . S
N331 Zn315 2.119 . S
N331 C327 1.328 . S
N331 C330 1.334 . S
N332 C328 1.331 . S
N332 C329 1.329 . S
H333 C327 0.930 1_655 S
C334 O314 1.257 . S
C334 O335 1.244 . S
O335 C334 1.244 . S
O336 C312 1.257 . S
O336 Zn315 2.019 1_655 S
H337 C330 0.930 . S
H338 C317 0.930 . S
H339 C329 0.930 . S
Zn340 N344 2.020 . S
Zn340 O348 2.019 1_545 S
Zn340 N350 2.119 . S
Zn340 O358 1.975 . S
C341 N342 1.334 . S
C341 N345 1.336 . S
N342 C341 1.334 . S
N342 C343 1.334 . S
C343 N342 1.334 . S
C343 N344 1.336 . S
N344 Zn340 2.020 . S
N344 C343 1.336 . S
N344 N345 1.354 . S
N345 C341 1.336 . S
N345 N344 1.354 . S
N345 Zn349 2.020 . S
C346 O347 1.244 . S
C346 O370 1.257 . S
O347 C346 1.244 . S
O348 Zn340 2.019 1_565 S
O348 C368 1.257 . S
Zn349 N345 2.020 . S
Zn349 O356 1.975 . S
Zn349 N365 2.119 . S
Zn349 O370 2.019 . S
N350 Zn340 2.119 . S
N350 C352 1.334 . S
N350 C353 1.328 . S
C351 C352 1.391 . S
C351 N354 1.329 . S
C351 H372 0.930 . S
C352 N350 1.334 . S
C352 C351 1.391 . S
C352 H359 0.930 . S
C353 N350 1.328 . S
C353 C355 1.392 . S
C353 H360 0.930 1_545 S
N354 C351 1.329 . S
N354 C355 1.331 . S
C355 C353 1.392 . S
C355 N354 1.331 . S
O356 Zn349 1.975 . S
O356 C357 1.252 . S
C357 O356 1.252 . S
C357 O358 1.252 . S
O358 Zn340 1.975 . S
O358 C357 1.252 . S
H359 C352 0.930 . S
H360 C353 0.930 1_565 S
C361 C362 1.392 . S
C361 N365 1.328 . S
C361 H367 0.930 . S
C362 C361 1.392 . S
C362 N366 1.331 . S
C363 C364 1.391 . S
C363 N366 1.329 . S
C363 H373 0.930 . S
C364 C363 1.391 . S
C364 N365 1.334 . S
C364 H371 0.930 . S
N365 Zn349 2.119 . S
N365 C361 1.328 . S
N365 C364 1.334 . S
N366 C362 1.331 . S
N366 C363 1.329 . S
H367 C361 0.930 . S
C368 O348 1.257 . S
C368 O369 1.244 . S
O369 C368 1.244 . S
O370 C346 1.257 . S
O370 Zn349 2.019 . S
H371 C364 0.930 . S
H372 C351 0.930 . S
H373 C363 0.930 . S
Zn374 N378 2.020 . S
Zn374 O382 2.019 . S
Zn374 N384 2.119 . S
Zn374 O392 1.975 . S
C375 N376 1.334 . S
C375 N379 1.336 . S
N376 C375 1.334 . S
N376 C377 1.334 . S
C377 N376 1.334 . S
C377 N378 1.336 . S
N378 Zn374 2.020 . S
N378 C377 1.336 . S
N378 N379 1.354 . S
N379 C375 1.336 . S
N379 N378 1.354 . S
N379 Zn383 2.020 . S
C380 O381 1.244 . S
C380 O404 1.257 . S
O381 C380 1.244 . S
O382 Zn374 2.019 . S
O382 C402 1.257 . S
Zn383 N379 2.020 . S
Zn383 O390 1.975 . S
Zn383 N399 2.119 . S
Zn383 O404 2.019 . S
N384 Zn374 2.119 . S
N384 C386 1.334 . S
N384 C387 1.328 . S
C385 C386 1.391 . S
C385 N388 1.329 . S
C385 H406 0.930 . S
C386 N384 1.334 . S
C386 C385 1.391 . S
C386 H393 0.930 . S
C387 N384 1.328 . S
C387 C389 1.392 . S
C387 H394 0.930 . S
N388 C385 1.329 . S
N388 C389 1.331 . S
C389 C387 1.392 . S
C389 N388 1.331 . S
O390 Zn383 1.975 . S
O390 C391 1.252 . S
C391 O390 1.252 . S
C391 O392 1.252 . S
O392 Zn374 1.975 . S
O392 C391 1.252 . S
H393 C386 0.930 . S
H394 C387 0.930 . S
C395 C396 1.392 . S
C395 N399 1.328 . S
C395 H401 0.930 . S
C396 C395 1.392 . S
C396 N400 1.331 . S
C397 C398 1.391 . S
C397 N400 1.329 . S
C397 H407 0.930 . S
C398 C397 1.391 . S
C398 N399 1.334 . S
C398 H405 0.930 . S
N399 Zn383 2.119 . S
N399 C395 1.328 . S
N399 C398 1.334 . S
N400 C396 1.331 . S
N400 C397 1.329 . S
H401 C395 0.930 . S
C402 O382 1.257 . S
C402 O403 1.244 . S
O403 C402 1.244 . S
O404 C380 1.257 . S
O404 Zn383 2.019 . S
H405 C398 0.930 . S
H406 C385 0.930 . S
H407 C397 0.930 . S
Zn408 N412 2.020 . S
Zn408 O416 2.019 1_565 S
Zn408 N418 2.119 . S
Zn408 O426 1.975 . S
C409 N410 1.334 . S
C409 N413 1.336 . S
N410 C409 1.334 . S
N410 C411 1.334 . S
C411 N410 1.334 . S
C411 N412 1.336 . S
N412 Zn408 2.020 . S
N412 C411 1.336 . S
N412 N413 1.354 . S
N413 C409 1.336 . S
N413 N412 1.354 . S
N413 Zn417 2.020 . S
C414 O415 1.244 . S
C414 O438 1.257 . S
O415 C414 1.244 . S
O416 Zn408 2.019 1_545 S
O416 C436 1.257 . S
Zn417 N413 2.020 . S
Zn417 O424 1.975 . S
Zn417 N433 2.119 . S
Zn417 O438 2.019 . S
N418 Zn408 2.119 . S
N418 C420 1.334 . S
N418 C421 1.328 . S
C419 C420 1.391 . S
C419 N422 1.329 . S
C419 H440 0.930 . S
C420 N418 1.334 . S
C420 C419 1.391 . S
C420 H427 0.930 . S
C421 N418 1.328 . S
C421 C423 1.392 . S
C421 H428 0.930 1_565 S
N422 C419 1.329 . S
N422 C423 1.331 . S
C423 C421 1.392 . S
C423 N422 1.331 . S
O424 Zn417 1.975 . S
O424 C425 1.252 . S
C425 O424 1.252 . S
C425 O426 1.252 . S
O426 Zn408 1.975 . S
O426 C425 1.252 . S
H427 C420 0.930 . S
H428 C421 0.930 1_545 S
C429 C430 1.392 . S
C429 N433 1.328 . S
C429 H435 0.930 . S
C430 C429 1.392 . S
C430 N434 1.331 . S
C431 C432 1.391 . S
C431 N434 1.329 . S
C431 H441 0.930 . S
C432 C431 1.391 . S
C432 N433 1.334 . S
C432 H439 0.930 . S
N433 Zn417 2.119 . S
N433 C429 1.328 . S
N433 C432 1.334 . S
N434 C430 1.331 . S
N434 C431 1.329 . S
H435 C429 0.930 . S
C436 O416 1.257 . S
C436 O437 1.244 . S
O437 C436 1.244 . S
O438 C414 1.257 . S
O438 Zn417 2.019 . S
H439 C432 0.930 . S
H440 C419 0.930 . S
H441 C431 0.930 . S
Zn442 N446 2.020 . S
Zn442 O450 2.019 . S
Zn442 N452 2.119 . S
Zn442 O460 1.975 . S
C443 N444 1.334 . S
C443 N447 1.336 . S
N444 C443 1.334 . S
N444 C445 1.334 . S
C445 N444 1.334 . S
C445 N446 1.336 . S
N446 Zn442 2.020 . S
N446 C445 1.336 . S
N446 N447 1.354 . S
N447 C443 1.336 . S
N447 N446 1.354 . S
N447 Zn451 2.020 . S
C448 O449 1.244 . S
C448 O472 1.257 . S
O449 C448 1.244 . S
O450 Zn442 2.019 . S
O450 C470 1.257 . S
Zn451 N447 2.020 . S
Zn451 O458 1.975 . S
Zn451 N467 2.119 . S
Zn451 O472 2.019 . S
N452 Zn442 2.119 . S
N452 C454 1.334 . S
N452 C455 1.328 . S
C453 C454 1.391 . S
C453 N456 1.329 . S
C453 H474 0.930 . S
C454 N452 1.334 . S
C454 C453 1.391 . S
C454 H461 0.930 . S
C455 N452 1.328 . S
C455 C457 1.392 . S
C455 H462 0.930 . S
N456 C453 1.329 . S
N456 C457 1.331 . S
C457 C455 1.392 . S
C457 N456 1.331 . S
O458 Zn451 1.975 . S
O458 C459 1.252 . S
C459 O458 1.252 . S
C459 O460 1.252 . S
O460 Zn442 1.975 . S
O460 C459 1.252 . S
H461 C454 0.930 . S
H462 C455 0.930 . S
C463 C464 1.392 . S
C463 N467 1.328 . S
C463 H469 0.930 . S
C464 C463 1.392 . S
C464 N468 1.331 . S
C465 C466 1.391 . S
C465 N468 1.329 . S
C465 H475 0.930 . S
C466 C465 1.391 . S
C466 N467 1.334 . S
C466 H473 0.930 . S
N467 Zn451 2.119 . S
N467 C463 1.328 . S
N467 C466 1.334 . S
N468 C464 1.331 . S
N468 C465 1.329 . S
H469 C463 0.930 . S
C470 O450 1.257 . S
C470 O471 1.244 . S
O471 C470 1.244 . S
O472 C448 1.257 . S
O472 Zn451 2.019 . S
H473 C466 0.930 . S
H474 C453 0.930 . S
H475 C465 0.930 . S
Zn476 N480 2.020 . S
Zn476 O484 2.019 1_455 S
Zn476 N486 2.119 . S
Zn476 O494 1.975 . S
C477 N478 1.334 . S
C477 N481 1.336 . S
N478 C477 1.334 . S
N478 C479 1.334 . S
C479 N478 1.334 . S
C479 N480 1.336 . S
N480 Zn476 2.020 . S
N480 C479 1.336 . S
N480 N481 1.354 . S
N481 C477 1.336 . S
N481 N480 1.354 . S
N481 Zn485 2.020 . S
C482 O483 1.244 . S
C482 O506 1.257 . S
O483 C482 1.244 . S
O484 Zn476 2.019 1_655 S
O484 C504 1.257 . S
Zn485 N481 2.020 . S
Zn485 O492 1.975 . S
Zn485 N501 2.119 . S
Zn485 O506 2.019 . S
N486 Zn476 2.119 . S
N486 C488 1.334 . S
N486 C489 1.328 . S
C487 C488 1.391 . S
C487 N490 1.329 . S
C487 H508 0.930 . S
C488 N486 1.334 . S
C488 C487 1.391 . S
C488 H495 0.930 . S
C489 N486 1.328 . S
C489 C491 1.392 . S
C489 H496 0.930 1_455 S
N490 C487 1.329 . S
N490 C491 1.331 . S
C491 C489 1.392 . S
C491 N490 1.331 . S
O492 Zn485 1.975 . S
O492 C493 1.252 . S
C493 O492 1.252 . S
C493 O494 1.252 . S
O494 Zn476 1.975 . S
O494 C493 1.252 . S
H495 C488 0.930 . S
H496 C489 0.930 1_655 S
C497 C498 1.392 . S
C497 N501 1.328 . S
C497 H503 0.930 . S
C498 C497 1.392 . S
C498 N502 1.331 . S
C499 C500 1.391 . S
C499 N502 1.329 . S
C499 H509 0.930 . S
C500 C499 1.391 . S
C500 N501 1.334 . S
C500 H507 0.930 . S
N501 Zn485 2.119 . S
N501 C497 1.328 . S
N501 C500 1.334 . S
N502 C498 1.331 . S
N502 C499 1.329 . S
H503 C497 0.930 . S
C504 O484 1.257 . S
C504 O505 1.244 . S
O505 C504 1.244 . S
O506 C482 1.257 . S
O506 Zn485 2.019 . S
H507 C500 0.930 . S
H508 C487 0.930 . S
H509 C499 0.930 . S
Zn510 N514 2.020 . S
Zn510 O518 2.019 1_545 S
Zn510 N520 2.119 . S
Zn510 O528 1.975 . S
C511 N512 1.334 . S
C511 N515 1.336 . S
N512 C511 1.334 . S
N512 C513 1.334 . S
C513 N512 1.334 . S
C513 N514 1.336 . S
N514 Zn510 2.020 . S
N514 C513 1.336 . S
N514 N515 1.354 . S
N515 C511 1.336 . S
N515 N514 1.354 . S
N515 Zn519 2.020 . S
C516 O517 1.244 . S
C516 O540 1.257 . S
O517 C516 1.244 . S
O518 Zn510 2.019 1_565 S
O518 C538 1.257 . S
Zn519 N515 2.020 . S
Zn519 O526 1.975 . S
Zn519 N535 2.119 . S
Zn519 O540 2.019 . S
N520 Zn510 2.119 . S
N520 C522 1.334 . S
N520 C523 1.328 . S
C521 C522 1.391 . S
C521 N524 1.329 . S
C521 H542 0.930 . S
C522 N520 1.334 . S
C522 C521 1.391 . S
C522 H529 0.930 . S
C523 N520 1.328 . S
C523 C525 1.392 . S
C523 H530 0.930 1_545 S
N524 C521 1.329 . S
N524 C525 1.331 . S
C525 C523 1.392 . S
C525 N524 1.331 . S
O526 Zn519 1.975 . S
O526 C527 1.252 . S
C527 O526 1.252 . S
C527 O528 1.252 . S
O528 Zn510 1.975 . S
O528 C527 1.252 . S
H529 C522 0.930 . S
H530 C523 0.930 1_565 S
C531 C532 1.392 . S
C531 N535 1.328 . S
C531 H537 0.930 . S
C532 C531 1.392 . S
C532 N536 1.331 . S
C533 C534 1.391 . S
C533 N536 1.329 . S
C533 H543 0.930 . S
C534 C533 1.391 . S
C534 N535 1.334 . S
C534 H541 0.930 . S
N535 Zn519 2.119 . S
N535 C531 1.328 . S
N535 C534 1.334 . S
N536 C532 1.331 . S
N536 C533 1.329 . S
H537 C531 0.930 . S
C538 O518 1.257 . S
C538 O539 1.244 . S
O539 C538 1.244 . S
O540 C516 1.257 . S
O540 Zn519 2.019 . S
H541 C534 0.930 . S
H542 C521 0.930 . S
H543 C533 0.930 . S
Zn544 N548 2.020 . S
Zn544 O552 2.019 . S
Zn544 N554 2.119 . S
Zn544 O562 1.975 . S
C545 N546 1.334 . S
C545 N549 1.336 . S
N546 C545 1.334 . S
N546 C547 1.334 . S
C547 N546 1.334 . S
C547 N548 1.336 . S
N548 Zn544 2.020 . S
N548 C547 1.336 . S
N548 N549 1.354 . S
N549 C545 1.336 . S
N549 N548 1.354 . S
N549 Zn553 2.020 . S
C550 O551 1.244 . S
C550 O574 1.257 . S
O551 C550 1.244 . S
O552 Zn544 2.019 . S
O552 C572 1.257 . S
Zn553 N549 2.020 . S
Zn553 O560 1.975 . S
Zn553 N569 2.119 . S
Zn553 O574 2.019 . S
N554 Zn544 2.119 . S
N554 C556 1.334 . S
N554 C557 1.328 . S
C555 C556 1.391 . S
C555 N558 1.329 . S
C555 H576 0.930 . S
C556 N554 1.334 . S
C556 C555 1.391 . S
C556 H563 0.930 . S
C557 N554 1.328 . S
C557 C559 1.392 . S
C557 H564 0.930 . S
N558 C555 1.329 . S
N558 C559 1.331 . S
C559 C557 1.392 . S
C559 N558 1.331 . S
O560 Zn553 1.975 . S
O560 C561 1.252 . S
C561 O560 1.252 . S
C561 O562 1.252 . S
O562 Zn544 1.975 . S
O562 C561 1.252 . S
H563 C556 0.930 . S
H564 C557 0.930 . S
C565 C566 1.392 . S
C565 N569 1.328 . S
C565 H571 0.930 . S
C566 C565 1.392 . S
C566 N570 1.331 . S
C567 C568 1.391 . S
C567 N570 1.329 . S
C567 H577 0.930 . S
C568 C567 1.391 . S
C568 N569 1.334 . S
C568 H575 0.930 . S
N569 Zn553 2.119 . S
N569 C565 1.328 . S
N569 C568 1.334 . S
N570 C566 1.331 . S
N570 C567 1.329 . S
H571 C565 0.930 . S
C572 O552 1.257 . S
C572 O573 1.244 . S
O573 C572 1.244 . S
O574 C550 1.257 . S
O574 Zn553 2.019 . S
H575 C568 0.930 . S
H576 C555 0.930 . S
H577 C567 0.930 . S
Zn578 N582 2.020 . S
Zn578 O586 2.019 1_655 S
Zn578 N588 2.119 . S
Zn578 O596 1.975 . S
C579 N580 1.334 . S
C579 N583 1.336 . S
N580 C579 1.334 . S
N580 C581 1.334 . S
C581 N580 1.334 . S
C581 N582 1.336 . S
N582 Zn578 2.020 . S
N582 C581 1.336 . S
N582 N583 1.354 . S
N583 C579 1.336 . S
N583 N582 1.354 . S
N583 Zn587 2.020 . S
C584 O585 1.244 . S
C584 O608 1.257 . S
O585 C584 1.244 . S
O586 Zn578 2.019 1_455 S
O586 C606 1.257 . S
Zn587 N583 2.020 . S
Zn587 O594 1.975 . S
Zn587 N603 2.119 . S
Zn587 O608 2.019 . S
N588 Zn578 2.119 . S
N588 C590 1.334 . S
N588 C591 1.328 . S
C589 C590 1.391 . S
C589 N592 1.329 . S
C589 H610 0.930 . S
C590 N588 1.334 . S
C590 C589 1.391 . S
C590 H597 0.930 . S
C591 N588 1.328 . S
C591 C593 1.392 . S
C591 H598 0.930 1_655 S
N592 C589 1.329 . S
N592 C593 1.331 . S
C593 C591 1.392 . S
C593 N592 1.331 . S
O594 Zn587 1.975 . S
O594 C595 1.252 . S
C595 O594 1.252 . S
C595 O596 1.252 . S
O596 Zn578 1.975 . S
O596 C595 1.252 . S
H597 C590 0.930 . S
H598 C591 0.930 1_455 S
C599 C600 1.392 . S
C599 N603 1.328 . S
C599 H605 0.930 . S
C600 C599 1.392 . S
C600 N604 1.331 . S
C601 C602 1.391 . S
C601 N604 1.329 . S
C601 H611 0.930 . S
C602 C601 1.391 . S
C602 N603 1.334 . S
C602 H609 0.930 . S
N603 Zn587 2.119 . S
N603 C599 1.328 . S
N603 C602 1.334 . S
N604 C600 1.331 . S
N604 C601 1.329 . S
H605 C599 0.930 . S
C606 O586 1.257 . S
C606 O607 1.244 . S
O607 C606 1.244 . S
O608 C584 1.257 . S
O608 Zn587 2.019 . S
H609 C602 0.930 . S
H610 C589 0.930 . S
H611 C601 0.930 . S
Zn612 N616 2.020 . S
Zn612 O620 2.019 . S
Zn612 N622 2.119 . S
Zn612 O630 1.975 . S
C613 N614 1.334 . S
C613 N617 1.336 . S
N614 C613 1.334 . S
N614 C615 1.334 . S
C615 N614 1.334 . S
C615 N616 1.336 . S
N616 Zn612 2.020 . S
N616 C615 1.336 . S
N616 N617 1.354 . S
N617 C613 1.336 . S
N617 N616 1.354 . S
N617 Zn621 2.020 . S
C618 O619 1.244 . S
C618 O642 1.257 . S
O619 C618 1.244 . S
O620 Zn612 2.019 . S
O620 C640 1.257 . S
Zn621 N617 2.020 . S
Zn621 O628 1.975 . S
Zn621 N637 2.119 . S
Zn621 O642 2.019 1_455 S
N622 Zn612 2.119 . S
N622 C624 1.334 . S
N622 C625 1.328 . S
C623 C624 1.391 . S
C623 N626 1.329 . S
C623 H644 0.930 . S
C624 N622 1.334 . S
C624 C623 1.391 . S
C624 H631 0.930 . S
C625 N622 1.328 . S
C625 C627 1.392 . S
C625 H632 0.930 . S
N626 C623 1.329 . S
N626 C627 1.331 . S
C627 C625 1.392 . S
C627 N626 1.331 . S
O628 Zn621 1.975 . S
O628 C629 1.252 . S
C629 O628 1.252 . S
C629 O630 1.252 . S
O630 Zn612 1.975 . S
O630 C629 1.252 . S
H631 C624 0.930 . S
H632 C625 0.930 . S
C633 C634 1.392 . S
C633 N637 1.328 . S
C633 H639 0.930 1_455 S
C634 C633 1.392 . S
C634 N638 1.331 . S
C635 C636 1.391 . S
C635 N638 1.329 . S
C635 H645 0.930 . S
C636 C635 1.391 . S
C636 N637 1.334 . S
C636 H643 0.930 . S
N637 Zn621 2.119 . S
N637 C633 1.328 . S
N637 C636 1.334 . S
N638 C634 1.331 . S
N638 C635 1.329 . S
H639 C633 0.930 1_655 S
C640 O620 1.257 . S
C640 O641 1.244 . S
O641 C640 1.244 . S
O642 C618 1.257 . S
O642 Zn621 2.019 1_655 S
H643 C636 0.930 . S
H644 C623 0.930 . S
H645 C635 0.930 . S
Zn646 N650 2.020 . S
Zn646 O654 2.019 . S
Zn646 N656 2.119 . S
Zn646 O664 1.975 . S
C647 N648 1.334 . S
C647 N651 1.336 . S
N648 C647 1.334 . S
N648 C649 1.334 . S
C649 N648 1.334 . S
C649 N650 1.336 . S
N650 Zn646 2.020 . S
N650 C649 1.336 . S
N650 N651 1.354 . S
N651 C647 1.336 . S
N651 N650 1.354 . S
N651 Zn655 2.020 . S
C652 O653 1.244 . S
C652 O676 1.257 . S
O653 C652 1.244 . S
O654 Zn646 2.019 . S
O654 C674 1.257 . S
Zn655 N651 2.020 . S
Zn655 O662 1.975 . S
Zn655 N671 2.119 . S
Zn655 O676 2.019 1_545 S
N656 Zn646 2.119 . S
N656 C658 1.334 . S
N656 C659 1.328 . S
C657 C658 1.391 . S
C657 N660 1.329 . S
C657 H678 0.930 . S
C658 N656 1.334 . S
C658 C657 1.391 . S
C658 H665 0.930 . S
C659 N656 1.328 . S
C659 C661 1.392 . S
C659 H666 0.930 . S
N660 C657 1.329 . S
N660 C661 1.331 . S
C661 C659 1.392 . S
C661 N660 1.331 . S
O662 Zn655 1.975 . S
O662 C663 1.252 . S
C663 O662 1.252 . S
C663 O664 1.252 . S
O664 Zn646 1.975 . S
O664 C663 1.252 . S
H665 C658 0.930 . S
H666 C659 0.930 . S
C667 C668 1.392 . S
C667 N671 1.328 . S
C667 H673 0.930 1_545 S
C668 C667 1.392 . S
C668 N672 1.331 . S
C669 C670 1.391 . S
C669 N672 1.329 . S
C669 H679 0.930 . S
C670 C669 1.391 . S
C670 N671 1.334 . S
C670 H677 0.930 . S
N671 Zn655 2.119 . S
N671 C667 1.328 . S
N671 C670 1.334 . S
N672 C668 1.331 . S
N672 C669 1.329 . S
H673 C667 0.930 1_565 S
C674 O654 1.257 . S
C674 O675 1.244 . S
O675 C674 1.244 . S
O676 C652 1.257 . S
O676 Zn655 2.019 1_565 S
H677 C670 0.930 . S
H678 C657 0.930 . S
H679 C669 0.930 . S
Zn680 N684 2.020 . S
Zn680 O688 2.019 . S
Zn680 N690 2.119 . S
Zn680 O698 1.975 . S
C681 N682 1.334 . S
C681 N685 1.336 . S
N682 C681 1.334 . S
N682 C683 1.334 . S
C683 N682 1.334 . S
C683 N684 1.336 . S
N684 Zn680 2.020 . S
N684 C683 1.336 . S
N684 N685 1.354 . S
N685 C681 1.336 . S
N685 N684 1.354 . S
N685 Zn689 2.020 . S
C686 O687 1.244 . S
C686 O710 1.257 . S
O687 C686 1.244 . S
O688 Zn680 2.019 . S
O688 C708 1.257 . S
Zn689 N685 2.020 . S
Zn689 O696 1.975 . S
Zn689 N705 2.119 . S
Zn689 O710 2.019 . S
N690 Zn680 2.119 . S
N690 C692 1.334 . S
N690 C693 1.328 . S
C691 C692 1.391 . S
C691 N694 1.329 . S
C691 H712 0.930 . S
C692 N690 1.334 . S
C692 C691 1.391 . S
C692 H699 0.930 . S
C693 N690 1.328 . S
C693 C695 1.392 . S
C693 H700 0.930 . S
N694 C691 1.329 . S
N694 C695 1.331 . S
C695 C693 1.392 . S
C695 N694 1.331 . S
O696 Zn689 1.975 . S
O696 C697 1.252 . S
C697 O696 1.252 . S
C697 O698 1.252 . S
O698 Zn680 1.975 . S
O698 C697 1.252 . S
H699 C692 0.930 . S
H700 C693 0.930 . S
C701 C702 1.392 . S
C701 N705 1.328 . S
C701 H707 0.930 . S
C702 C701 1.392 . S
C702 N706 1.331 . S
C703 C704 1.391 . S
C703 N706 1.329 . S
C703 H713 0.930 . S
C704 C703 1.391 . S
C704 N705 1.334 . S
C704 H711 0.930 . S
N705 Zn689 2.119 . S
N705 C701 1.328 . S
N705 C704 1.334 . S
N706 C702 1.331 . S
N706 C703 1.329 . S
H707 C701 0.930 . S
C708 O688 1.257 . S
C708 O709 1.244 . S
O709 C708 1.244 . S
O710 C686 1.257 . S
O710 Zn689 2.019 . S
H711 C704 0.930 . S
H712 C691 0.930 . S
H713 C703 0.930 . S
Zn714 N718 2.020 . S
Zn714 O722 2.019 . S
Zn714 N724 2.119 . S
Zn714 O732 1.975 . S
C715 N716 1.334 . S
C715 N719 1.336 . S
N716 C715 1.334 . S
N716 C717 1.334 . S
C717 N716 1.334 . S
C717 N718 1.336 . S
N718 Zn714 2.020 . S
N718 C717 1.336 . S
N718 N719 1.354 . S
N719 C715 1.336 . S
N719 N718 1.354 . S
N719 Zn723 2.020 . S
C720 O721 1.244 . S
C720 O744 1.257 . S
O721 C720 1.244 . S
O722 Zn714 2.019 . S
O722 C742 1.257 . S
Zn723 N719 2.020 . S
Zn723 O730 1.975 . S
Zn723 N739 2.119 . S
Zn723 O744 2.019 1_655 S
N724 Zn714 2.119 . S
N724 C726 1.334 . S
N724 C727 1.328 . S
C725 C726 1.391 . S
C725 N728 1.329 . S
C725 H746 0.930 . S
C726 N724 1.334 . S
C726 C725 1.391 . S
C726 H733 0.930 . S
C727 N724 1.328 . S
C727 C729 1.392 . S
C727 H734 0.930 . S
N728 C725 1.329 . S
N728 C729 1.331 . S
C729 C727 1.392 . S
C729 N728 1.331 . S
O730 Zn723 1.975 . S
O730 C731 1.252 . S
C731 O730 1.252 . S
C731 O732 1.252 . S
O732 Zn714 1.975 . S
O732 C731 1.252 . S
H733 C726 0.930 . S
H734 C727 0.930 . S
C735 C736 1.392 . S
C735 N739 1.328 . S
C735 H741 0.930 1_655 S
C736 C735 1.392 . S
C736 N740 1.331 . S
C737 C738 1.391 . S
C737 N740 1.329 . S
C737 H747 0.930 . S
C738 C737 1.391 . S
C738 N739 1.334 . S
C738 H745 0.930 . S
N739 Zn723 2.119 . S
N739 C735 1.328 . S
N739 C738 1.334 . S
N740 C736 1.331 . S
N740 C737 1.329 . S
H741 C735 0.930 1_455 S
C742 O722 1.257 . S
C742 O743 1.244 . S
O743 C742 1.244 . S
O744 C720 1.257 . S
O744 Zn723 2.019 1_455 S
H745 C738 0.930 . S
H746 C725 0.930 . S
H747 C737 0.930 . S
Zn748 N752 2.020 . S
Zn748 O756 2.019 1_565 S
Zn748 N758 2.119 . S
Zn748 O766 1.975 . S
C749 N750 1.334 . S
C749 N753 1.336 . S
N750 C749 1.334 . S
N750 C751 1.334 . S
C751 N750 1.334 . S
C751 N752 1.336 . S
N752 Zn748 2.020 . S
N752 C751 1.336 . S
N752 N753 1.354 . S
N753 C749 1.336 . S
N753 N752 1.354 . S
N753 Zn757 2.020 . S
C754 O755 1.244 . S
C754 O778 1.257 . S
O755 C754 1.244 . S
O756 Zn748 2.019 1_545 S
O756 C776 1.257 . S
Zn757 N753 2.020 . S
Zn757 O764 1.975 . S
Zn757 N773 2.119 . S
Zn757 O778 2.019 . S
N758 Zn748 2.119 . S
N758 C760 1.334 . S
N758 C761 1.328 . S
C759 C760 1.391 . S
C759 N762 1.329 . S
C759 H780 0.930 . S
C760 N758 1.334 . S
C760 C759 1.391 . S
C760 H767 0.930 . S
C761 N758 1.328 . S
C761 C763 1.392 . S
C761 H768 0.930 1_565 S
N762 C759 1.329 . S
N762 C763 1.331 . S
C763 C761 1.392 . S
C763 N762 1.331 . S
O764 Zn757 1.975 . S
O764 C765 1.252 . S
C765 O764 1.252 . S
C765 O766 1.252 . S
O766 Zn748 1.975 . S
O766 C765 1.252 . S
H767 C760 0.930 . S
H768 C761 0.930 1_545 S
C769 C770 1.392 . S
C769 N773 1.328 . S
C769 H775 0.930 . S
C770 C769 1.392 . S
C770 N774 1.331 . S
C771 C772 1.391 . S
C771 N774 1.329 . S
C771 H781 0.930 . S
C772 C771 1.391 . S
C772 N773 1.334 . S
C772 H779 0.930 . S
N773 Zn757 2.119 . S
N773 C769 1.328 . S
N773 C772 1.334 . S
N774 C770 1.331 . S
N774 C771 1.329 . S
H775 C769 0.930 . S
C776 O756 1.257 . S
C776 O777 1.244 . S
O777 C776 1.244 . S
O778 C754 1.257 . S
O778 Zn757 2.019 . S
H779 C772 0.930 . S
H780 C759 0.930 . S
H781 C771 0.930 . S
Zn782 N786 2.020 . S
Zn782 O790 2.019 . S
Zn782 N792 2.119 . S
Zn782 O800 1.975 . S
C783 N784 1.334 . S
C783 N787 1.336 . S
N784 C783 1.334 . S
N784 C785 1.334 . S
C785 N784 1.334 . S
C785 N786 1.336 . S
N786 Zn782 2.020 . S
N786 C785 1.336 . S
N786 N787 1.354 . S
N787 C783 1.336 . S
N787 N786 1.354 . S
N787 Zn791 2.020 . S
C788 O789 1.244 . S
C788 O812 1.257 . S
O789 C788 1.244 . S
O790 Zn782 2.019 . S
O790 C810 1.257 . S
Zn791 N787 2.020 . S
Zn791 O798 1.975 . S
Zn791 N807 2.119 . S
Zn791 O812 2.019 . S
N792 Zn782 2.119 . S
N792 C794 1.334 . S
N792 C795 1.328 . S
C793 C794 1.391 . S
C793 N796 1.329 . S
C793 H814 0.930 . S
C794 N792 1.334 . S
C794 C793 1.391 . S
C794 H801 0.930 . S
C795 N792 1.328 . S
C795 C797 1.392 . S
C795 H802 0.930 . S
N796 C793 1.329 . S
N796 C797 1.331 . S
C797 C795 1.392 . S
C797 N796 1.331 . S
O798 Zn791 1.975 . S
O798 C799 1.252 . S
C799 O798 1.252 . S
C799 O800 1.252 . S
O800 Zn782 1.975 . S
O800 C799 1.252 . S
H801 C794 0.930 . S
H802 C795 0.930 . S
C803 C804 1.392 . S
C803 N807 1.328 . S
C803 H809 0.930 . S
C804 C803 1.392 . S
C804 N808 1.331 . S
C805 C806 1.391 . S
C805 N808 1.329 . S
C805 H815 0.930 . S
C806 C805 1.391 . S
C806 N807 1.334 . S
C806 H813 0.930 . S
N807 Zn791 2.119 . S
N807 C803 1.328 . S
N807 C806 1.334 . S
N808 C804 1.331 . S
N808 C805 1.329 . S
H809 C803 0.930 . S
C810 O790 1.257 . S
C810 O811 1.244 . S
O811 C810 1.244 . S
O812 C788 1.257 . S
O812 Zn791 2.019 . S
H813 C806 0.930 . S
H814 C793 0.930 . S
H815 C805 0.930 . S
C28 C187 1.439 . S
C40 C17 1.439 . S
C96 C51 1.439 . S
C85 C108 1.439 . S
C164 C119 1.439 . S
C176 C153 1.439 . S
C255 C232 1.439 . S
C289 C244 1.439 . S
C323 C278 1.439 . S
C312 C357 1.439 . S
C391 C368 1.439 . S
C380 C221 1.439 . S
C595 C436 1.439 . S
C425 C448 1.439 . S
C504 C459 1.439 . S
C538 C493 1.439 . S
C550 C527 1.439 . S
C606 C561 1.439 . S
C663 C618 1.439 . S
C697 C652 1.439 . S
C708 C731 1.439 . S
C720 C765 1.439 . S
C776 C799 1.439 . S
C629 C788 1.439 . S
C15 C525 1.797 1_554 S
C56 C566 1.797 1_554 S
C83 C593 1.797 1_554 S
C423 C124 1.797 1_556 S
C151 C464 1.797 1_554 S
C192 C491 1.797 1_554 S
C736 C219 1.797 . S
C763 C260 1.797 . S
C804 C294 1.797 . S
C634 C328 1.797 . S
C355 C668 1.797 . S
C396 C695 1.797 . S
C22 C287 1.444 . S
C49 C321 1.444 . S
C90 C362 1.444 . S
C117 C389 1.444 . S
C158 C226 1.444 . S
C185 C253 1.444 . S
C702 C430 1.444 . S
C457 C729 1.444 . S
C770 C498 1.444 . S
C532 C797 1.444 . S
C559 C627 1.444 . S
C600 C661 1.444 . S
C3 C103 1.679 1_545 S
C139 C35 1.680 . S
C71 C171 1.679 1_655 S
C307 C207 1.679 1_455 S
C343 C239 1.679 1_545 S
C273 C375 1.680 . S
C513 C411 1.679 1_545 S
C545 C443 1.680 . S
C479 C581 1.679 1_455 S
C715 C613 1.679 1_655 S
C647 C751 1.679 1_545 S
C783 C683 1.680 . S
C74 C1 1.664 . S
C37 C130 1.664 . S
C142 C69 1.664 . S
C198 C105 1.664 . S
C137 C6 1.664 . S
C173 C62 1.664 . S
C205 C346 1.664 . S
C402 C241 1.664 . S
C210 C275 1.664 . S
C309 C266 1.664 . S
C341 C300 1.664 . S
C377 C334 1.664 . S
C409 C482 1.664 . S
C445 C516 1.664 . S
C477 C572 1.664 . S
C584 C511 1.664 . S
C547 C414 1.664 . S
C470 C579 1.664 . S
C615 C754 1.664 . S
C810 C649 1.664 . S
C681 C640 1.664 . S
C674 C717 1.664 . S
C686 C749 1.664 . S
C785 C742 1.664 . S
