# Generated by pormake.
# Topology reo, (8)-cn, num edge types: 1
# Building blocks:
#     Node 0, Type 0, BuildingBlock: TAGTUT_clean_sbu_3, # of connection points: 8
#     Node 1, Type 0, BuildingBlock: TAGTUT_clean_sbu_3, # of connection points: 8
#     Node 2, Type 0, BuildingBlock: TAGTUT_clean_sbu_3, # of connection points: 8
#     Edge 3, Type (0, 0), BuildingBlock: FUNLAD_clean_linker_1, # of connection points: 2
#     Edge 4, Type (0, 0), BuildingBlock: FUNLAD_clean_linker_1, # of connection points: 2
#     Edge 5, Type (0, 0), BuildingBlock: FUNLAD_clean_linker_1, # of connection points: 2
#     Edge 6, Type (0, 0), BuildingBlock: FUNLAD_clean_linker_1, # of connection points: 2
#     Edge 7, Type (0, 0), BuildingBlock: FUNLAD_clean_linker_1, # of connection points: 2
#     Edge 8, Type (0, 0), BuildingBlock: FUNLAD_clean_linker_1, # of connection points: 2
#     Edge 9, Type (0, 0), BuildingBlock: FUNLAD_clean_linker_1, # of connection points: 2
#     Edge 10, Type (0, 0), BuildingBlock: FUNLAD_clean_linker_1, # of connection points: 2
#     Edge 11, Type (0, 0), BuildingBlock: FUNLAD_clean_linker_1, # of connection points: 2
#     Edge 12, Type (0, 0), BuildingBlock: FUNLAD_clean_linker_1, # of connection points: 2
#     Edge 13, Type (0, 0), BuildingBlock: FUNLAD_clean_linker_1, # of connection points: 2
#     Edge 14, Type (0, 0), BuildingBlock: FUNLAD_clean_linker_1, # of connection points: 2
# Relax obj value: 0.169
# Max RMSD: 0.190
# Mean RMSD: 0.190
data_MOF--net-reo--node1-TAGTUT_clean_sbu_3--edge1-FUNLAD_clean_linker_1
_symmetry_space_group_name_H-M    P1
_symmetry_Int_Tables_number       1
_symmetry_cell_setting            triclinic
loop_
_symmetry_equiv_pos_as_xyz
'x, y, z'
_cell_length_a     24.405233
_cell_length_b     24.345874
_cell_length_c     24.428028
_cell_angle_alpha  91.155557
_cell_angle_beta   91.295715
_cell_angle_gamma 90.802742
loop_
_atom_site_label
_atom_site_type_symbol
_atom_site_fract_x
_atom_site_fract_y
_atom_site_fract_z
_atom_type_partial_charge
C0 C 0.9854 0.88893 0.55959 0.0
C1 C 0.79364 0.98739 0.56171 0.0
C2 C 0.85004 0.05137 0.40762 0.0
Mg3 Mg 0.09838 0.9348 0.50881 0.0
Mg4 Mg 0.11651 0.06757 0.48266 0.0
O5 O 0.07377 0.00326 0.47035 0.0
Mg6 Mg -0.00174 0.00478 0.49924 0.0
O7 O 0.92296 0.00301 0.52784 0.0
Mg8 Mg 0.8936 0.94153 0.47925 0.0
Mg9 Mg 0.88405 0.0698 0.52767 0.0
C10 C 0.00886 0.12037 0.43271 0.0
O11 O 0.01987 0.06863 0.56584 0.0
O12 O 0.17993 0.94623 0.46197 0.0
O13 O 0.9447 0.12055 0.57455 0.0
O14 O 0.1362 0.98239 0.58237 0.0
O15 O 0.18729 0.03629 0.44234 0.0
O16 O 0.13473 0.07293 0.56934 0.0
O17 O 0.97564 0.94204 0.43303 0.0
O18 O 0.05227 0.89157 0.43768 0.0
C19 C 0.00434 0.90095 0.41749 0.0
C20 C 0.20497 0.98689 0.44022 0.0
O21 O 0.98114 0.07786 0.44572 0.0
O22 O 0.81589 0.94889 0.53334 0.0
O23 O 0.06014 0.1267 0.44509 0.0
O24 O 0.8572 0.00032 0.41584 0.0
O25 O 0.81308 0.03655 0.56526 0.0
O26 O 0.86026 0.08804 0.44455 0.0
O27 O 0.016 0.93123 0.55179 0.0
O28 O 0.93625 0.88566 0.53993 0.0
C29 C 0.14389 0.03184 0.59957 0.0
C30 C 0.99515 0.11007 0.58613 0.0
C31 C 0.38949 0.98772 0.9192 0.0
C32 C 0.44268 0.1912 0.96932 0.0
C33 C 0.60798 0.12293 0.97989 0.0
Mg34 Mg 0.45246 0.87479 0.95321 0.0
Mg35 Mg 0.52339 0.87166 0.07068 0.0
O36 O 0.51393 0.90478 0.00178 0.0
Mg37 Mg 0.49438 0.98367 0.00094 0.0
O38 O 0.47361 0.06223 0.99594 0.0
Mg39 Mg 0.49267 0.07394 0.91731 0.0
Mg40 Mg 0.50507 0.11188 0.04784 0.0
C41 C 0.59925 0.97829 0.08783 0.0
O42 O 0.4564 0.98442 0.08497 0.0
O43 O 0.50139 0.79243 0.95647 0.0
O44 O 0.48047 0.06775 0.12107 0.0
O45 O 0.4013 0.8509 0.02664 0.0
O46 O 0.54954 0.79483 0.03649 0.0
O47 O 0.44484 0.85928 0.10765 0.0
O48 O 0.53034 0.98746 0.91643 0.0
O49 O 0.50172 0.90599 0.8813 0.0
C50 C 0.52638 0.95237 0.87673 0.0
C51 C 0.53587 0.77141 0.99057 0.0
O52 O 0.57588 0.00219 0.04735 0.0
O53 O 0.45166 0.15864 0.92856 0.0
O54 O 0.5829 0.93147 0.1054 0.0
O55 O 0.57745 0.1125 0.93778 0.0
O56 O 0.45967 0.18162 0.01833 0.0
O57 O 0.59016 0.12021 0.02847 0.0
O58 O 0.41409 0.96101 0.95681 0.0
O59 O 0.41 0.03188 0.90003 0.0
C60 C 0.40153 0.84962 0.07886 0.0
C61 C 0.45935 0.0193 0.12493 0.0
C62 C 0.88331 0.53682 0.96109 0.0
C63 C 0.00969 0.53783 0.78765 0.0
C64 C 0.07989 0.39559 0.86443 0.0
Mg65 Mg 0.91602 0.49899 0.08323 0.0
Mg66 Mg 0.04453 0.50932 0.12612 0.0
O67 O 0.99446 0.47561 0.07574 0.0
Mg68 Mg 0.00458 0.49504 -0.00217 0.0
O69 O 0.01059 0.51428 0.91975 0.0
Mg70 Mg 0.95875 0.4578 0.88642 0.0
Mg71 Mg 0.08203 0.51742 0.89181 0.0
C72 C 0.12665 0.45708 0.04182 0.0
O73 O 0.05177 0.57466 0.01842 0.0
O74 O 0.92311 0.45918 0.16992 0.0
O75 O 0.11673 0.57496 0.95402 0.0
O76 O 0.93755 0.58422 0.11914 0.0
O77 O 0.01234 0.4689 0.19544 0.0
O78 O 0.0276 0.59525 0.13361 0.0
O79 O 0.95711 0.41721 0.9723 0.0
O80 O 0.89637 0.41735 0.0398 0.0
C81 C 0.91586 0.39599 0.99603 0.0
C82 C 0.9634 0.45208 0.20402 0.0
O83 O 0.08919 0.45392 0.00387 0.0
O84 O 0.97096 0.50692 0.80558 0.0
O85 O 0.1193 0.48057 0.08857 0.0
O86 O 0.02798 0.40024 0.86426 0.0
O87 O 0.05489 0.54684 0.81431 0.0
O88 O 0.11217 0.43559 0.87742 0.0
O89 O 0.92145 0.53472 0.99757 0.0
O90 O 0.88879 0.5144 0.91366 0.0
C91 C 0.97918 0.61418 0.13222 0.0
C92 C 0.0956 0.59442 -0.00194 0.0
H93 H 0.99351 0.41279 0.27782 0.0
C94 C 0.95688 0.41759 0.25222 0.0
H95 H 0.87725 0.38737 0.23364 0.0
H96 H 0.96161 0.15213 0.2983 0.0
H97 H 0.91253 0.13482 0.21248 0.0
H98 H 0.86612 0.20989 0.16439 0.0
H99 H 0.86888 0.30264 0.2021 0.0
C100 C 0.91318 0.38486 0.26041 0.0
C101 C 0.91979 0.33759 0.29799 0.0
C102 C 0.91624 0.28318 0.27619 0.0
C103 C 0.94199 0.23967 0.30461 0.0
C104 C 0.94113 0.18644 0.27993 0.0
C105 C 0.91352 0.17596 0.23018 0.0
C106 C 0.88749 0.21821 0.20307 0.0
C107 C 0.88939 0.27138 0.22521 0.0
H108 H 0.9345 0.15778 0.39833 0.0
C109 C 0.97861 0.16329 0.40365 0.0
H110 H 0.04636 0.21522 0.38933 0.0
H111 H 0.91622 0.43261 0.35843 0.0
H112 H 0.95644 0.449 0.44965 0.0
H113 H 0.00322 0.37458 0.49848 0.0
H114 H 0.0092 0.28335 0.45723 0.0
C115 C 0.00263 0.20782 0.38305 0.0
C116 C 0.96958 0.25072 0.35565 0.0
C117 C 0.96659 0.30365 0.38052 0.0
C118 C 0.94072 0.34682 0.35204 0.0
C119 C 0.93703 0.39904 0.37806 0.0
C120 C 0.95948 0.40875 0.43037 0.0
C121 C 0.98571 0.36682 0.45792 0.0
C122 C 0.98915 0.31473 0.43361 0.0
H123 H 0.78016 0.07858 0.35889 0.0
C124 C 0.82268 0.06649 0.3562 0.0
H125 H 0.88698 0.04133 0.3075 0.0
H126 H 0.73717 0.91553 0.13362 0.0
H127 H 0.81892 0.86022 0.13956 0.0
H128 H 0.89792 0.89033 0.19749 0.0
H129 H 0.8956 0.97466 0.25112 0.0
C130 C 0.84464 0.05416 0.30748 0.0
C131 C 0.80925 0.04668 0.25679 0.0
C132 C 0.81248 0.99733 0.22501 0.0
C133 C 0.7672 0.98021 0.1908 0.0
C134 C 0.7703 0.93012 0.16057 0.0
C135 C 0.817 0.89808 0.16342 0.0
C136 C 0.8614 0.91491 0.19636 0.0
C137 C 0.8593 0.96358 0.22723 0.0
H138 H 0.66502 0.0416 0.0955 0.0
C139 C 0.64712 0.006 0.11478 0.0
H140 H 0.65182 0.95201 0.18102 0.0
H141 H 0.80328 0.15398 0.28967 0.0
H142 H 0.72465 0.21354 0.2778 0.0
H143 H 0.6418 0.18059 0.22655 0.0
H144 H 0.63774 0.08919 0.18525 0.0
C145 C 0.6687 0.9884 0.16219 0.0
C146 C 0.71959 0.01272 0.18774 0.0
C147 C 0.72002 0.06577 0.2128 0.0
C148 C 0.76613 0.08355 0.24549 0.0
C149 C 0.76762 0.1378 0.26725 0.0
C150 C 0.72309 0.1723 0.26037 0.0
C151 C 0.67653 0.15379 0.23135 0.0
C152 C 0.6748 0.10122 0.20764 0.0
H153 H 0.99513 0.82078 0.37717 0.0
C154 C 0.98424 0.86381 0.37385 0.0
H155 H 0.95884 0.92583 0.31988 0.0
H156 H 0.07048 0.76456 0.145 0.0
H157 H 0.12622 0.84752 0.13836 0.0
H158 H 0.10758 0.9295 0.19571 0.0
H159 H 0.03252 0.92917 0.2596 0.0
C160 C 0.96466 0.8822 0.32603 0.0
C161 C 0.96298 0.84313 0.27874 0.0
C162 C 0.00579 0.84469 0.24066 0.0
C163 C 0.01684 0.79733 0.20811 0.0
C164 C 0.06067 0.79932 0.17114 0.0
C165 C 0.09291 0.84667 0.16687 0.0
C166 C 0.08239 0.89283 0.19914 0.0
C167 C 0.0394 0.89207 0.23576 0.0
H168 H 0.92976 0.68865 0.13854 0.0
C169 C 0.96909 0.67101 0.1496 0.0
H170 H 0.04131 0.68012 0.19824 0.0
H171 H 0.86933 0.8343 0.33604 0.0
H172 H 0.81257 0.75184 0.34422 0.0
H173 H 0.83634 0.66591 0.29554 0.0
H174 H 0.91524 0.66208 0.23781 0.0
C175 C 0.00205 0.69729 0.18625 0.0
C176 C 0.98499 0.74881 0.214 0.0
C177 C 0.93927 0.74889 0.2492 0.0
C178 C 0.92722 0.79712 0.27986 0.0
C179 C 0.88075 0.79764 0.31342 0.0
C180 C 0.84794 0.75086 0.31828 0.0
C181 C 0.86119 0.7026 0.29068 0.0
C182 C 0.90647 0.70122 0.25691 0.0
H183 H 0.39148 0.98437 0.16975 0.0
C184 C 0.43119 0.00484 0.17493 0.0
H185 H 0.4917 0.03657 0.22973 0.0
H186 H 0.31854 0.09742 0.40898 0.0
H187 H 0.3768 0.17886 0.40658 0.0
H188 H 0.45386 0.1837 0.34316 0.0
H189 H 0.47369 0.1071 0.28263 0.0
C190 C 0.45165 0.01681 0.22527 0.0
C191 C 0.4169 0.00875 0.27405 0.0
C192 C 0.40645 0.05406 0.30938 0.0
C193 C 0.36124 0.0518 0.34494 0.0
C194 C 0.35155 0.09748 0.38012 0.0
C195 C 0.38482 0.14438 0.37938 0.0
C196 C 0.42822 0.14708 0.34373 0.0
C197 C 0.43905 0.10268 0.30897 0.0
H198 H 0.28124 0.9419 0.42368 0.0
C199 C 0.25643 0.97658 0.41173 0.0
H200 H 0.247 0.04399 0.36006 0.0
H201 H 0.44065 0.90832 0.22976 0.0
H202 H 0.38355 0.82559 0.23238 0.0
H203 H 0.29716 0.82552 0.28289 0.0
H204 H 0.26809 0.90681 0.33199 0.0
C205 C 0.27226 0.00933 0.37127 0.0
C206 C 0.3259 0.00497 0.34398 0.0
C207 C 0.33978 0.95756 0.31273 0.0
C208 C 0.38724 0.95876 0.2801 0.0
C209 C 0.40316 0.91003 0.25257 0.0
C210 C 0.37105 0.8624 0.25405 0.0
C211 C 0.3225 0.86232 0.28263 0.0
C212 C 0.30661 0.9093 0.31133 0.0
H213 H 0.04807 0.84483 0.60825 0.0
C214 C 0.00701 0.84198 0.59014 0.0
H215 H 0.93567 0.79269 0.57687 0.0
H216 H 0.02896 0.56124 0.62401 0.0
H217 H 0.01356 0.5547 0.52544 0.0
H218 H 0.99031 0.63685 0.4726 0.0
H219 H 0.98214 0.72593 0.51787 0.0
C220 C 0.97603 0.79642 0.59644 0.0
C221 C 0.99501 0.74846 0.62786 0.0
C222 C 0.0 0.69679 0.60057 0.0
C223 C 0.01368 0.64946 0.63085 0.0
C224 C 0.01844 0.59837 0.60279 0.0
C225 C 0.00982 0.59409 0.54628 0.0
C226 C 0.99669 0.64035 0.51654 0.0
C227 C 0.99191 0.69121 0.54309 0.0
H228 H 0.95754 0.57218 0.72185 0.0
C229 C -0.00083 0.57069 0.7385 0.0
H230 H 0.07908 0.60544 0.73801 0.0
H231 H 0.98209 0.83982 0.69432 0.0
H232 H -0.00186 0.8459 0.79227 0.0
H233 H 0.02736 0.76493 0.84386 0.0
H234 H 0.03919 0.67703 0.79777 0.0
C235 C 0.03775 0.60556 0.72048 0.0
C236 C 0.02278 0.65412 0.68812 0.0
C237 C 0.01841 0.70581 0.71543 0.0
C238 C 0.00341 0.75289 0.68545 0.0
C239 C 0.99555 0.80311 0.71443 0.0
C240 C 0.00415 0.80712 0.77092 0.0
C241 C 0.0205 0.76154 0.79998 0.0
C242 C 0.02733 0.71133 0.77287 0.0
H243 H 0.33476 0.9351 0.86838 0.0
C244 C 0.33578 0.96972 0.89719 0.0
H245 H 0.29772 0.04118 0.92564 0.0
H246 H 0.25546 0.08861 0.67552 0.0
H247 H 0.31612 0.16292 0.70473 0.0
H248 H 0.35057 0.17057 0.80027 0.0
H249 H 0.32536 0.1029 0.8664 0.0
C250 C 0.295 0.00623 0.89723 0.0
C251 C 0.25964 0.01143 0.84749 0.0
C252 C 0.27144 0.05401 0.81052 0.0
C253 C 0.24881 0.05154 0.7564 0.0
C254 C 0.26732 0.09052 0.7183 0.0
C255 C 0.30317 0.13315 0.7343 0.0
C256 C 0.32278 0.1373 0.78795 0.0
C257 C 0.30787 0.09796 0.82557 0.0
H258 H 0.15763 0.08159 0.67529 0.0
C259 C 0.16337 0.04141 0.65637 0.0
H260 H 0.19532 0.96198 0.66424 0.0
H261 H 0.22147 0.93066 0.91268 0.0
H262 H 0.15278 0.86069 0.88733 0.0
H263 H 0.10937 0.85849 0.79517 0.0
H264 H 0.13325 0.92637 0.72812 0.0
C265 C 0.1899 0.00205 0.68368 0.0
C266 C 0.21054 0.00904 0.74119 0.0
C267 C 0.19473 0.96975 0.78031 0.0
C268 C 0.21975 0.97074 0.83338 0.0
C269 C 0.20401 0.93089 0.87155 0.0
C270 C 0.16454 0.89083 0.85764 0.0
C271 C 0.13996 0.88968 0.80577 0.0
C272 C 0.15444 0.9287 0.76751 0.0
H273 H 0.07678 0.30735 0.8543 0.0
C274 C 0.10055 0.34342 0.84313 0.0
H275 H 0.14651 0.37937 0.78159 0.0
H276 H 0.05838 0.11849 0.7214 0.0
H277 H 0.12583 0.08883 0.7884 0.0
H278 H 0.18635 0.15609 0.83773 0.0
H279 H 0.17802 0.25406 0.82156 0.0
C280 C 0.12565 0.34242 0.79488 0.0
C281 C 0.10472 0.30203 0.75248 0.0
C282 C 0.11214 0.24504 0.75978 0.0
C283 C 0.07939 0.20619 0.72897 0.0
C284 C 0.08413 0.14978 0.74122 0.0
C285 C 0.12241 0.13217 0.78006 0.0
C286 C 0.15631 0.17005 0.80802 0.0
C287 C 0.15107 0.22597 0.79851 0.0
H288 H 0.07247 0.14435 0.62101 0.0
C289 C 0.02815 0.14768 0.62196 0.0
H290 H 0.96205 0.18949 0.65675 0.0
H291 H 0.08285 0.4088 0.72472 0.0
H292 H 0.02039 0.43836 0.65355 0.0
H293 H 0.96816 0.3708 0.59589 0.0
H294 H 0.97791 0.27317 0.60961 0.0
C295 C 0.00626 0.18487 0.6558 0.0
C296 C 0.0417 0.22454 0.68821 0.0
C297 C 0.03737 0.28148 0.67808 0.0
C298 C 0.06851 0.32033 0.7105 0.0
C299 C 0.06114 0.37712 0.70107 0.0
C300 C 0.02529 0.39484 0.66016 0.0
C301 C 0.9959 0.35683 0.62771 0.0
C302 C 0.00176 0.30083 0.63626 0.0
H303 H 0.5232 0.96105 0.78736 0.0
C304 C 0.54936 0.96553 0.82381 0.0
H305 H 0.62892 0.97938 0.85635 0.0
H306 H 0.64824 0.92808 0.5854 0.0
H307 H 0.60008 0.8419 0.60018 0.0
H308 H 0.56955 0.81783 0.6924 0.0
H309 H 0.58439 0.88083 0.76938 0.0
C310 C 0.60305 0.97608 0.81954 0.0
C311 C 0.6285 0.98564 0.76573 0.0
C312 C 0.62405 0.94561 0.7226 0.0
C313 C 0.64667 0.95678 0.67085 0.0
C314 C 0.63562 0.91953 0.62656 0.0
C315 C 0.60757 0.87021 0.63436 0.0
C316 C 0.59005 0.85685 0.68616 0.0
C317 C 0.59822 0.89384 0.72993 0.0
H318 H 0.74842 0.93279 0.6157 0.0
C319 C 0.74839 0.97325 0.59772 0.0
H320 H 0.71322 0.0514 0.59516 0.0
H321 H 0.64037 0.07308 0.83785 0.0
H322 H 0.69399 0.1559 0.82488 0.0
H323 H 0.74493 0.1692 0.74003 0.0
H324 H 0.74054 0.10108 0.66683 0.0
C325 C 0.71277 0.0115 0.61429 0.0
C326 C 0.67985 0.00441 0.6644 0.0
C327 C 0.68495 0.04414 0.70779 0.0
C328 C 0.65796 0.03533 0.7579 0.0
C329 C 0.66135 0.0768 0.79953 0.0
C330 C 0.69196 0.1247 0.79265 0.0
C331 C 0.7204 0.13227 0.7448 0.0
C332 C 0.71726 0.09265 0.70285 0.0
H333 H 0.21125 0.43629 0.06554 0.0
C334 C 0.17965 0.4302 0.03379 0.0
H335 H 0.1573 0.38633 0.9608 0.0
H336 H 0.4164 0.34438 0.93003 0.0
H337 H 0.40515 0.41992 0.86755 0.0
H338 H 0.31758 0.46908 0.86085 0.0
H339 H 0.24078 0.44327 0.91704 0.0
C340 C 0.18844 0.39465 0.99233 0.0
C341 C 0.23908 0.36159 0.99198 0.0
C342 C 0.28293 0.37622 0.95797 0.0
C343 C 0.33301 0.34708 0.96103 0.0
C344 C 0.37698 0.36409 0.92827 0.0
C345 C 0.37116 0.4076 0.89248 0.0
C346 C 0.32188 0.43536 0.88878 0.0
C347 C 0.27817 0.42018 0.92121 0.0
H348 H 0.38328 0.2385 0.92074 0.0
C349 C 0.40475 0.23697 0.96017 0.0
H350 H 0.41004 0.26842 0.04116 0.0
H351 H 0.16057 0.3196 0.05847 0.0
H352 H 0.17031 0.24235 0.11877 0.0
H353 H 0.25678 0.19126 0.12392 0.0
H354 H 0.33388 0.21709 0.06892 0.0
C355 C 0.39006 0.27096 0.00109 0.0
C356 C 0.33844 0.30256 0.99726 0.0
C357 C 0.2938 0.28693 0.03009 0.0
C358 C 0.24401 0.31635 0.02726 0.0
C359 C 0.1997 0.29928 0.0597 0.0
C360 C 0.20459 0.25477 0.09429 0.0
C361 C 0.25325 0.22602 0.09718 0.0
C362 C 0.29735 0.24153 0.06545 0.0
H363 H 0.09497 0.67053 0.04871 0.0
C364 C 0.12083 0.64333 0.02508 0.0
H365 H 0.19953 0.62819 0.99567 0.0
H366 H 0.29904 0.86 0.97934 0.0
H367 H 0.28478 0.83431 0.88433 0.0
H368 H 0.22826 0.75311 0.85734 0.0
H369 H 0.18714 0.69617 0.92589 0.0
C370 C 0.1741 0.65545 0.01972 0.0
C371 C 0.19834 0.70945 0.03734 0.0
C372 C 0.22009 0.7438 0.99673 0.0
C373 C 0.25127 0.79145 0.01234 0.0
C374 C 0.27463 0.82345 0.9706 0.0
C375 C 0.26667 0.80927 0.91548 0.0
C376 C 0.23498 0.76352 0.90029 0.0
C377 C 0.21181 0.73108 0.94017 0.0
H378 H 0.35407 0.79097 0.12525 0.0
C379 C 0.35129 0.8299 0.10443 0.0
H380 H 0.30117 0.88629 0.0648 0.0
H381 H 0.15897 0.65486 0.12627 0.0
H382 H 0.16527 0.68587 0.22105 0.0
H383 H 0.21386 0.77229 0.24719 0.0
H384 H 0.25754 0.82787 0.17818 0.0
C385 C 0.3027 0.84678 0.08464 0.0
C386 C 0.25993 0.805 0.06877 0.0
C387 C 0.23328 0.77401 0.109 0.0
C388 C 0.20326 0.72541 0.09351 0.0
C389 C 0.18024 0.69333 0.13513 0.0
C390 C 0.18398 0.71043 0.18989 0.0
C391 C 0.21156 0.75901 0.20465 0.0
C392 C 0.2365 0.79034 0.16487 0.0
H393 H 0.66867 0.16928 0.93435 0.0
C394 C 0.66293 0.1458 0.97124 0.0
H395 H 0.6972 0.12018 0.04592 0.0
H396 H 0.86269 0.2783 0.89066 0.0
H397 H 0.86035 0.20295 0.82392 0.0
H398 H 0.81028 0.11671 0.84221 0.0
H399 H 0.76021 0.1063 0.92666 0.0
C400 C 0.70313 0.14412 0.00951 0.0
C401 C 0.74987 0.18385 0.00779 0.0
C402 C 0.78171 0.18786 0.9601 0.0
C403 C 0.81308 0.23631 0.95099 0.0
C404 C 0.84014 0.24148 0.9007 0.0
C405 C 0.83893 0.19861 0.86195 0.0
C406 C 0.81057 0.15011 0.87215 0.0
C407 C 0.78188 0.14471 0.92047 0.0
H408 H 0.92092 0.3089 0.97025 0.0
C409 C 0.89309 0.34262 0.97732 0.0
H410 H 0.81269 0.36866 0.98844 0.0
H411 H 0.70186 0.18478 0.109 0.0
H412 H 0.7123 0.25569 0.17933 0.0
H413 H 0.77323 0.33556 0.16687 0.0
H414 H 0.82247 0.34628 0.08282 0.0
C415 C 0.83898 0.33373 0.98058 0.0
C416 C 0.81517 0.27878 0.99148 0.0
C417 C 0.7899 0.27097 0.04256 0.0
C418 C 0.75648 0.22379 0.05054 0.0
C419 C 0.72851 0.21919 0.10057 0.0
C420 C 0.73435 0.25946 0.14169 0.0
C421 C 0.76839 0.30467 0.13454 0.0
C422 C 0.79613 0.31046 0.08584 0.0
H423 H 0.82876 0.58187 0.01618 0.0
C424 C 0.83255 0.56569 0.97463 0.0
H425 H 0.79538 0.55866 0.89572 0.0
H426 H 0.55587 0.60879 0.97668 0.0
H427 H 0.54545 0.51456 0.94312 0.0
H428 H 0.62563 0.46216 0.91325 0.0
H429 H 0.71671 0.50354 0.91669 0.0
C430 C 0.79278 0.57529 0.93718 0.0
C431 C 0.74393 0.60823 0.95152 0.0
C432 C 0.69085 0.58361 0.9485 0.0
C433 C 0.6445 0.61386 0.96557 0.0
C434 C 0.59225 0.58787 0.96353 0.0
C435 C 0.58575 0.53377 0.94456 0.0
C436 C 0.63091 0.50425 0.92775 0.0
C437 C 0.68297 0.52856 0.92982 0.0
H438 H 0.56538 0.71065 0.92985 0.0
C439 C 0.56723 0.72289 0.9729 0.0
H440 H 0.6073 0.71339 0.04948 0.0
H441 H 0.83805 0.6716 0.9524 0.0
H442 H 0.84832 0.76549 0.98587 0.0
H443 H 0.76882 0.81639 0.01975 0.0
H444 H 0.67858 0.77389 0.01945 0.0
C445 C 0.60443 0.70017 0.00673 0.0
C446 C 0.65141 0.66862 0.98547 0.0
C447 C 0.70424 0.69381 0.98693 0.0
C448 C 0.75035 0.66399 0.96895 0.0
C449 C 0.80202 0.69129 0.96803 0.0
C450 C 0.80843 0.74552 0.98655 0.0
C451 C 0.76368 0.7742 0.00549 0.0
C452 C 0.71207 0.74908 0.00535 0.0
loop_
_geom_bond_atom_site_label_1
_geom_bond_atom_site_label_2
_geom_bond_distance
_geom_bond_site_symmetry_2
_ccdc_geom_bond_type
C0 O27 1.312 1_655 S
C0 O28 1.208 . S
C1 O22 1.331 . S
C1 O25 1.244 1_565 S
C2 O24 1.264 1_545 S
C2 O26 1.273 . S
Mg3 O5 1.936 1_565 S
Mg3 O12 2.081 . S
Mg3 O14 2.023 . S
Mg3 O18 2.031 . S
Mg3 O27 2.291 . S
Mg4 O5 1.963 . S
Mg4 O15 1.942 . S
Mg4 O16 1.955 . S
Mg4 O23 1.986 . S
O5 Mg3 1.936 1_545 S
O5 Mg4 1.963 . S
O5 Mg6 1.915 . S
Mg6 O5 1.915 . S
Mg6 O7 1.915 1_455 S
Mg6 O11 2.013 . S
Mg6 O17 2.114 1_445 S
Mg6 O21 2.013 1_455 S
Mg6 O27 2.114 1_545 S
O7 Mg6 1.915 1_655 S
O7 Mg8 1.936 1_545 S
O7 Mg9 1.963 . S
Mg8 O7 1.936 1_565 S
Mg8 O17 2.291 . S
Mg8 O22 2.081 . S
Mg8 O24 2.023 . S
Mg8 O28 2.031 . S
Mg9 O7 1.963 . S
Mg9 O13 1.986 . S
Mg9 O25 1.942 . S
Mg9 O26 1.955 . S
C10 O21 1.191 1_455 S
C10 O23 1.307 . S
O11 Mg6 2.013 . S
O11 C30 1.191 1_455 S
O12 Mg3 2.081 . S
O12 C20 1.331 . S
O13 Mg9 1.986 . S
O13 C30 1.307 . S
O14 Mg3 2.023 . S
O14 C29 1.264 1_565 S
O15 Mg4 1.942 . S
O15 C20 1.244 1_545 S
O16 Mg4 1.955 . S
O16 C29 1.273 . S
O17 Mg6 2.114 1_665 S
O17 Mg8 2.291 . S
O17 C19 1.312 1_655 S
O18 Mg3 2.031 . S
O18 C19 1.208 . S
C19 O17 1.312 1_455 S
C19 O18 1.208 . S
C20 O12 1.331 . S
C20 O15 1.244 1_565 S
O21 Mg6 2.013 1_655 S
O21 C10 1.191 1_655 S
O22 C1 1.331 . S
O22 Mg8 2.081 . S
O23 Mg4 1.986 . S
O23 C10 1.307 . S
O24 C2 1.264 1_565 S
O24 Mg8 2.023 . S
O25 C1 1.244 1_545 S
O25 Mg9 1.942 . S
O26 C2 1.273 . S
O26 Mg9 1.955 . S
O27 C0 1.312 1_455 S
O27 Mg3 2.291 . S
O27 Mg6 2.114 1_565 S
O28 C0 1.208 . S
O28 Mg8 2.031 . S
C29 O14 1.264 1_545 S
C29 O16 1.273 . S
C30 O11 1.191 1_655 S
C30 O13 1.307 . S
C31 O58 1.312 1_545 S
C31 O59 1.208 . S
C32 O53 1.331 . S
C32 O56 1.244 1_556 S
C33 O55 1.264 1_554 S
C33 O57 1.273 . S
Mg34 O36 1.936 1_556 S
Mg34 O43 2.081 . S
Mg34 O45 2.023 . S
Mg34 O49 2.031 . S
Mg34 O58 2.291 . S
Mg35 O36 1.963 . S
Mg35 O46 1.942 . S
Mg35 O47 1.955 . S
Mg35 O54 1.986 . S
O36 Mg34 1.936 1_554 S
O36 Mg35 1.963 . S
O36 Mg37 1.915 1_565 S
Mg37 O36 1.915 1_545 S
Mg37 O38 1.915 . S
Mg37 O42 2.013 1_545 S
Mg37 O48 2.114 1_554 S
Mg37 O52 2.013 . S
Mg37 O58 2.114 1_544 S
O38 Mg37 1.915 . S
O38 Mg39 1.936 1_554 S
O38 Mg40 1.963 . S
Mg39 O38 1.936 1_556 S
Mg39 O48 2.291 . S
Mg39 O53 2.081 . S
Mg39 O55 2.023 . S
Mg39 O59 2.031 . S
Mg40 O38 1.963 . S
Mg40 O44 1.986 . S
Mg40 O56 1.942 . S
Mg40 O57 1.955 . S
C41 O52 1.191 1_565 S
C41 O54 1.307 . S
O42 Mg37 2.013 1_565 S
O42 C61 1.191 1_565 S
O43 Mg34 2.081 . S
O43 C51 1.331 . S
O44 Mg40 1.986 . S
O44 C61 1.307 . S
O45 Mg34 2.023 . S
O45 C60 1.264 1_556 S
O46 Mg35 1.942 . S
O46 C51 1.244 1_554 S
O47 Mg35 1.955 . S
O47 C60 1.273 . S
O48 Mg37 2.114 1_556 S
O48 Mg39 2.291 . S
O48 C50 1.312 1_545 S
O49 Mg34 2.031 . S
O49 C50 1.208 . S
C50 O48 1.312 1_565 S
C50 O49 1.208 . S
C51 O43 1.331 . S
C51 O46 1.244 1_556 S
O52 Mg37 2.013 . S
O52 C41 1.191 1_545 S
O53 C32 1.331 . S
O53 Mg39 2.081 . S
O54 Mg35 1.986 . S
O54 C41 1.307 . S
O55 C33 1.264 1_556 S
O55 Mg39 2.023 . S
O56 C32 1.244 1_554 S
O56 Mg40 1.942 . S
O57 C33 1.273 . S
O57 Mg40 1.955 . S
O58 C31 1.312 1_565 S
O58 Mg34 2.291 . S
O58 Mg37 2.114 1_566 S
O59 C31 1.208 . S
O59 Mg39 2.031 . S
C60 O45 1.264 1_554 S
C60 O47 1.273 . S
C61 O42 1.191 1_545 S
C61 O44 1.307 . S
C62 O89 1.312 1_556 S
C62 O90 1.208 . S
C63 O84 1.331 . S
C63 O87 1.244 1_655 S
C64 O86 1.264 1_455 S
C64 O88 1.273 . S
Mg65 O67 1.936 1_655 S
Mg65 O74 2.081 . S
Mg65 O76 2.023 . S
Mg65 O80 2.031 . S
Mg65 O89 2.291 . S
Mg66 O67 1.963 . S
Mg66 O77 1.942 . S
Mg66 O78 1.955 . S
Mg66 O85 1.986 . S
O67 Mg65 1.936 1_455 S
O67 Mg66 1.963 . S
O67 Mg68 1.915 . S
Mg68 O67 1.915 . S
Mg68 O69 1.915 1_554 S
Mg68 O73 2.013 . S
Mg68 O79 2.114 1_454 S
Mg68 O83 2.013 1_554 S
Mg68 O89 2.114 1_455 S
O69 Mg68 1.915 1_556 S
O69 Mg70 1.936 1_455 S
O69 Mg71 1.963 . S
Mg70 O69 1.936 1_655 S
Mg70 O79 2.291 . S
Mg70 O84 2.081 . S
Mg70 O86 2.023 . S
Mg70 O90 2.031 . S
Mg71 O69 1.963 . S
Mg71 O75 1.986 . S
Mg71 O87 1.942 . S
Mg71 O88 1.955 . S
C72 O83 1.191 1_554 S
C72 O85 1.307 . S
O73 Mg68 2.013 . S
O73 C92 1.191 1_554 S
O74 Mg65 2.081 . S
O74 C82 1.331 . S
O75 Mg71 1.986 . S
O75 C92 1.307 . S
O76 Mg65 2.023 . S
O76 C91 1.264 1_655 S
O77 Mg66 1.942 . S
O77 C82 1.244 1_455 S
O78 Mg66 1.955 . S
O78 C91 1.273 . S
O79 Mg68 2.114 1_656 S
O79 Mg70 2.291 . S
O79 C81 1.312 1_556 S
O80 Mg65 2.031 . S
O80 C81 1.208 . S
C81 O79 1.312 1_554 S
C81 O80 1.208 . S
C82 O74 1.331 . S
C82 O77 1.244 1_655 S
O83 Mg68 2.013 1_556 S
O83 C72 1.191 1_556 S
O84 C63 1.331 . S
O84 Mg70 2.081 . S
O85 Mg66 1.986 . S
O85 C72 1.307 . S
O86 C64 1.264 1_655 S
O86 Mg70 2.023 . S
O87 C63 1.244 1_455 S
O87 Mg71 1.942 . S
O88 C64 1.273 . S
O88 Mg71 1.955 . S
O89 C62 1.312 1_554 S
O89 Mg65 2.291 . S
O89 Mg68 2.114 1_655 S
O90 C62 1.208 . S
O90 Mg70 2.031 . S
C91 O76 1.264 1_455 S
C91 O78 1.273 . S
C92 O73 1.191 1_556 S
C92 O75 1.307 . S
H93 C94 0.951 1_455 S
C94 H93 0.951 1_655 S
C94 C100 1.265 . S
H95 C100 0.950 . S
H96 C104 0.949 1_455 S
H97 C105 0.950 . S
H98 C106 0.951 . S
H99 C107 0.951 . S
C100 C94 1.265 . S
C100 H95 0.950 . S
C100 C101 1.478 . S
C101 C100 1.478 . S
C101 C102 1.397 . S
C101 C118 1.394 . S
C102 C101 1.397 . S
C102 C103 1.438 . S
C102 C107 1.429 . S
C103 C102 1.438 . S
C103 C104 1.428 . S
C103 C116 1.394 1_655 S
C104 H96 0.949 1_655 S
C104 C103 1.428 . S
C104 C105 1.345 . S
C105 H97 0.950 . S
C105 C104 1.345 . S
C105 C106 1.424 . S
C106 H98 0.951 . S
C106 C105 1.424 . S
C106 C107 1.347 . S
C107 H99 0.951 . S
C107 C102 1.429 . S
C107 C106 1.347 . S
H108 C109 0.951 . S
C109 H108 0.951 . S
C109 C115 1.265 1_655 S
H110 C115 0.950 . S
H111 C119 0.950 1_655 S
H112 C120 0.950 . S
H113 C121 0.951 . S
H114 C122 0.951 . S
C115 C109 1.265 1_455 S
C115 H110 0.950 . S
C115 C116 1.478 . S
C116 C103 1.394 1_455 S
C116 C115 1.478 . S
C116 C117 1.397 . S
C117 C116 1.397 . S
C117 C118 1.438 1_455 S
C117 C122 1.429 . S
C118 C101 1.394 . S
C118 C117 1.438 1_655 S
C118 C119 1.428 1_655 S
C119 H111 0.950 1_455 S
C119 C118 1.428 1_455 S
C119 C120 1.344 . S
C120 H112 0.950 . S
C120 C119 1.344 . S
C120 C121 1.424 . S
C121 H113 0.951 . S
C121 C120 1.424 . S
C121 C122 1.347 . S
C122 H114 0.951 . S
C122 C117 1.429 . S
C122 C121 1.347 . S
H123 C124 0.951 . S
C124 H123 0.951 . S
C124 C130 1.265 . S
H125 C130 0.950 . S
H126 C134 0.949 . S
H127 C135 0.950 . S
H128 C136 0.951 . S
H129 C137 0.951 . S
C130 C124 1.265 . S
C130 H125 0.950 . S
C130 C131 1.478 . S
C131 C130 1.478 . S
C131 C132 1.397 1_545 S
C131 C148 1.394 . S
C132 C131 1.397 1_565 S
C132 C133 1.438 . S
C132 C137 1.429 . S
C133 C132 1.438 . S
C133 C134 1.428 . S
C133 C146 1.394 1_565 S
C134 H126 0.949 . S
C134 C133 1.428 . S
C134 C135 1.345 . S
C135 H127 0.950 . S
C135 C134 1.345 . S
C135 C136 1.424 . S
C136 H128 0.951 . S
C136 C135 1.424 . S
C136 C137 1.347 . S
C137 H129 0.951 . S
C137 C132 1.429 . S
C137 C136 1.347 . S
H138 C139 0.951 . S
C139 H138 0.951 . S
C139 C145 1.265 . S
H140 C145 0.950 . S
H141 C149 0.949 . S
H142 C150 0.950 . S
H143 C151 0.951 . S
H144 C152 0.951 . S
C145 C139 1.265 . S
C145 H140 0.950 . S
C145 C146 1.478 . S
C146 C133 1.394 1_545 S
C146 C145 1.478 . S
C146 C147 1.397 . S
C147 C146 1.397 . S
C147 C148 1.438 . S
C147 C152 1.429 . S
C148 C131 1.394 . S
C148 C147 1.438 . S
C148 C149 1.428 . S
C149 H141 0.949 . S
C149 C148 1.428 . S
C149 C150 1.345 . S
C150 H142 0.950 . S
C150 C149 1.345 . S
C150 C151 1.424 . S
C151 H143 0.951 . S
C151 C150 1.424 . S
C151 C152 1.347 . S
C152 H144 0.951 . S
C152 C147 1.429 . S
C152 C151 1.347 . S
H153 C154 0.951 . S
C154 H153 0.951 . S
C154 C160 1.265 1_455 S
H155 C160 0.950 . S
H156 C164 0.949 . S
H157 C165 0.950 . S
H158 C166 0.951 . S
H159 C167 0.951 . S
C160 C154 1.265 1_655 S
C160 H155 0.950 . S
C160 C161 1.478 . S
C161 C160 1.478 . S
C161 C162 1.397 . S
C161 C178 1.394 1_655 S
C162 C161 1.397 . S
C162 C163 1.438 . S
C162 C167 1.429 . S
C163 C162 1.438 . S
C163 C164 1.428 . S
C163 C176 1.394 1_655 S
C164 H156 0.949 . S
C164 C163 1.428 . S
C164 C165 1.345 . S
C165 H157 0.950 . S
C165 C164 1.345 . S
C165 C166 1.424 . S
C166 H158 0.951 . S
C166 C165 1.424 . S
C166 C167 1.347 . S
C167 H159 0.951 . S
C167 C162 1.429 . S
C167 C166 1.347 . S
H168 C169 0.951 1_655 S
C169 H168 0.951 1_455 S
C169 C175 1.265 . S
H170 C175 0.950 . S
H171 C179 0.949 . S
H172 C180 0.950 . S
H173 C181 0.951 . S
H174 C182 0.951 . S
C175 C169 1.265 . S
C175 H170 0.950 . S
C175 C176 1.478 . S
C176 C163 1.394 1_455 S
C176 C175 1.478 . S
C176 C177 1.397 . S
C177 C176 1.397 . S
C177 C178 1.438 . S
C177 C182 1.429 . S
C178 C161 1.394 1_455 S
C178 C177 1.438 . S
C178 C179 1.428 . S
C179 H171 0.949 . S
C179 C178 1.428 . S
C179 C180 1.345 . S
C180 H172 0.950 . S
C180 C179 1.345 . S
C180 C181 1.424 . S
C181 H173 0.951 . S
C181 C180 1.424 . S
C181 C182 1.347 . S
C182 H174 0.951 . S
C182 C177 1.429 . S
C182 C181 1.347 . S
H183 C184 0.951 1_565 S
C184 H183 0.951 1_545 S
C184 C190 1.265 . S
H185 C190 0.950 . S
H186 C194 0.949 . S
H187 C195 0.950 . S
H188 C196 0.951 . S
H189 C197 0.951 . S
C190 C184 1.265 . S
C190 H185 0.950 . S
C190 C191 1.478 . S
C191 C190 1.478 . S
C191 C192 1.397 . S
C191 C208 1.394 1_545 S
C192 C191 1.397 . S
C192 C193 1.438 . S
C192 C197 1.429 . S
C193 C192 1.438 . S
C193 C194 1.428 . S
C193 C206 1.394 1_545 S
C194 H186 0.949 . S
C194 C193 1.428 . S
C194 C195 1.345 . S
C195 H187 0.950 . S
C195 C194 1.345 . S
C195 C196 1.424 . S
C196 H188 0.951 . S
C196 C195 1.424 . S
C196 C197 1.347 . S
C197 H189 0.951 . S
C197 C192 1.429 . S
C197 C196 1.347 . S
H198 C199 0.951 . S
C199 H198 0.951 . S
C199 C205 1.265 . S
H200 C205 0.950 . S
H201 C209 0.949 . S
H202 C210 0.950 . S
H203 C211 0.951 . S
H204 C212 0.951 . S
C205 C199 1.265 . S
C205 H200 0.950 . S
C205 C206 1.478 . S
C206 C193 1.394 1_565 S
C206 C205 1.478 . S
C206 C207 1.397 . S
C207 C206 1.397 . S
C207 C208 1.438 . S
C207 C212 1.429 . S
C208 C191 1.394 1_565 S
C208 C207 1.438 . S
C208 C209 1.428 . S
C209 H201 0.949 . S
C209 C208 1.428 . S
C209 C210 1.345 . S
C210 H202 0.950 . S
C210 C209 1.345 . S
C210 C211 1.424 . S
C211 H203 0.951 . S
C211 C210 1.424 . S
C211 C212 1.347 . S
C212 H204 0.951 . S
C212 C207 1.429 . S
C212 C211 1.347 . S
H213 C214 0.951 . S
C214 H213 0.951 . S
C214 C220 1.265 1_455 S
H215 C220 0.950 . S
H216 C224 0.949 . S
H217 C225 0.950 . S
H218 C226 0.951 . S
H219 C227 0.951 . S
C220 C214 1.265 1_655 S
C220 H215 0.950 . S
C220 C221 1.478 . S
C221 C220 1.478 . S
C221 C222 1.397 . S
C221 C238 1.394 1_655 S
C222 C221 1.397 . S
C222 C223 1.438 . S
C222 C227 1.429 . S
C223 C222 1.438 . S
C223 C224 1.428 . S
C223 C236 1.394 1_655 S
C224 H216 0.949 . S
C224 C223 1.428 . S
C224 C225 1.345 . S
C225 H217 0.950 . S
C225 C224 1.345 . S
C225 C226 1.424 . S
C226 H218 0.951 . S
C226 C225 1.424 . S
C226 C227 1.347 . S
C227 H219 0.951 . S
C227 C222 1.429 . S
C227 C226 1.347 . S
H228 C229 0.951 . S
C229 H228 0.951 . S
C229 C235 1.265 1_655 S
H230 C235 0.950 . S
H231 C239 0.949 . S
H232 C240 0.950 . S
H233 C241 0.951 . S
H234 C242 0.951 . S
C235 C229 1.265 1_455 S
C235 H230 0.950 . S
C235 C236 1.478 . S
C236 C223 1.394 1_455 S
C236 C235 1.478 . S
C236 C237 1.397 . S
C237 C236 1.397 . S
C237 C238 1.438 . S
C237 C242 1.429 . S
C238 C221 1.394 1_455 S
C238 C237 1.438 . S
C238 C239 1.428 . S
C239 H231 0.949 . S
C239 C238 1.428 . S
C239 C240 1.345 . S
C240 H232 0.950 . S
C240 C239 1.345 . S
C240 C241 1.424 . S
C241 H233 0.951 . S
C241 C240 1.424 . S
C241 C242 1.347 . S
C242 H234 0.951 . S
C242 C237 1.429 . S
C242 C241 1.347 . S
H243 C244 0.951 1_545 S
C244 H243 0.951 1_565 S
C244 C250 1.265 1_565 S
H245 C250 0.950 . S
H246 C254 0.949 . S
H247 C255 0.950 . S
H248 C256 0.951 . S
H249 C257 0.951 . S
C250 C244 1.265 1_545 S
C250 H245 0.950 . S
C250 C251 1.478 . S
C251 C250 1.478 . S
C251 C252 1.397 . S
C251 C268 1.394 1_545 S
C252 C251 1.397 . S
C252 C253 1.438 . S
C252 C257 1.429 . S
C253 C252 1.438 . S
C253 C254 1.428 . S
C253 C266 1.394 . S
C254 H246 0.949 . S
C254 C253 1.428 . S
C254 C255 1.345 . S
C255 H247 0.950 . S
C255 C254 1.345 . S
C255 C256 1.424 . S
C256 H248 0.951 . S
C256 C255 1.424 . S
C256 C257 1.347 . S
C257 H249 0.951 . S
C257 C252 1.429 . S
C257 C256 1.347 . S
H258 C259 0.951 . S
C259 H258 0.951 . S
C259 C265 1.265 . S
H260 C265 0.950 . S
H261 C269 0.949 . S
H262 C270 0.950 . S
H263 C271 0.951 . S
H264 C272 0.951 . S
C265 C259 1.265 . S
C265 H260 0.950 . S
C265 C266 1.478 . S
C266 C253 1.394 . S
C266 C265 1.478 . S
C266 C267 1.397 1_545 S
C267 C266 1.397 1_565 S
C267 C268 1.438 . S
C267 C272 1.429 . S
C268 C251 1.394 1_565 S
C268 C267 1.438 . S
C268 C269 1.428 . S
C269 H261 0.949 . S
C269 C268 1.428 . S
C269 C270 1.345 . S
C270 H262 0.950 . S
C270 C269 1.345 . S
C270 C271 1.424 . S
C271 H263 0.951 . S
C271 C270 1.424 . S
C271 C272 1.347 . S
C272 H264 0.951 . S
C272 C267 1.429 . S
C272 C271 1.347 . S
H273 C274 0.951 1_655 S
C274 H273 0.951 1_455 S
C274 C280 1.265 . S
H275 C280 0.950 . S
H276 C284 0.949 . S
H277 C285 0.950 . S
H278 C286 0.951 . S
H279 C287 0.951 . S
C280 C274 1.265 . S
C280 H275 0.950 . S
C280 C281 1.478 . S
C281 C280 1.478 . S
C281 C282 1.397 . S
C281 C298 1.394 . S
C282 C281 1.397 . S
C282 C283 1.435 1_455 S
C282 C287 1.429 . S
C283 C282 1.435 1_655 S
C283 C284 1.430 . S
C283 C296 1.395 . S
C284 H276 0.949 . S
C284 C283 1.430 . S
C284 C285 1.345 . S
C285 H277 0.950 . S
C285 C284 1.345 . S
C285 C286 1.424 1_655 S
C286 H278 0.951 . S
C286 C285 1.424 1_455 S
C286 C287 1.347 . S
C287 H279 0.951 . S
C287 C282 1.429 . S
C287 C286 1.347 . S
H288 C289 0.951 . S
C289 H288 0.951 . S
C289 C295 1.265 1_455 S
H290 C295 0.950 . S
H291 C299 0.949 . S
H292 C300 0.950 . S
H293 C301 0.951 . S
H294 C302 0.954 . S
C295 C289 1.265 1_655 S
C295 H290 0.950 . S
C295 C296 1.478 . S
C296 C283 1.395 . S
C296 C295 1.478 . S
C296 C297 1.397 1_655 S
C297 C296 1.397 1_455 S
C297 C298 1.438 . S
C297 C302 1.428 1_455 S
C298 C281 1.394 . S
C298 C297 1.438 . S
C298 C299 1.428 . S
C299 H291 0.949 . S
C299 C298 1.428 . S
C299 C300 1.345 . S
C300 H292 0.950 . S
C300 C299 1.345 . S
C300 C301 1.424 . S
C301 H293 0.951 . S
C301 C300 1.424 . S
C301 C302 1.345 1_455 S
C302 H294 0.954 . S
C302 C297 1.428 1_655 S
C302 C301 1.345 1_655 S
H303 C304 0.951 . S
C304 H303 0.951 . S
C304 C310 1.264 1_545 S
H305 C310 0.951 . S
H306 C314 0.949 . S
H307 C315 0.950 . S
H308 C316 0.951 . S
H309 C317 0.951 . S
C310 C304 1.264 1_565 S
C310 H305 0.951 . S
C310 C311 1.478 . S
C311 C310 1.478 . S
C311 C312 1.397 . S
C311 C328 1.394 1_565 S
C312 C311 1.397 . S
C312 C313 1.438 . S
C312 C317 1.429 . S
C313 C312 1.438 . S
C313 C314 1.428 . S
C313 C326 1.394 . S
C314 H306 0.949 . S
C314 C313 1.428 . S
C314 C315 1.345 . S
C315 H307 0.950 . S
C315 C314 1.345 . S
C315 C316 1.424 . S
C316 H308 0.951 . S
C316 C315 1.424 . S
C316 C317 1.347 . S
C317 H309 0.951 . S
C317 C312 1.429 . S
C317 C316 1.347 . S
H318 C319 0.951 . S
C319 H318 0.951 . S
C319 C325 1.265 . S
H320 C325 0.950 . S
H321 C329 0.949 . S
H322 C330 0.950 . S
H323 C331 0.951 . S
H324 C332 0.951 . S
C325 C319 1.265 . S
C325 H320 0.950 . S
C325 C326 1.478 . S
C326 C313 1.394 . S
C326 C325 1.478 . S
C326 C327 1.397 1_565 S
C327 C326 1.397 1_545 S
C327 C328 1.438 . S
C327 C332 1.429 . S
C328 C311 1.394 1_545 S
C328 C327 1.438 . S
C328 C329 1.428 . S
C329 H321 0.949 . S
C329 C328 1.428 . S
C329 C330 1.345 . S
C330 H322 0.950 . S
C330 C329 1.345 . S
C330 C331 1.424 . S
C331 H323 0.951 . S
C331 C330 1.424 . S
C331 C332 1.347 . S
C332 H324 0.951 . S
C332 C327 1.429 . S
C332 C331 1.347 . S
H333 C334 0.951 . S
C334 H333 0.951 . S
C334 C340 1.265 1_554 S
H335 C340 0.950 . S
H336 C344 0.949 . S
H337 C345 0.950 . S
H338 C346 0.951 . S
H339 C347 0.951 . S
C340 C334 1.265 1_556 S
C340 H335 0.950 . S
C340 C341 1.478 . S
C341 C340 1.478 . S
C341 C342 1.397 . S
C341 C358 1.394 1_556 S
C342 C341 1.397 . S
C342 C343 1.438 . S
C342 C347 1.429 . S
C343 C342 1.438 . S
C343 C344 1.428 . S
C343 C356 1.394 . S
C344 H336 0.949 . S
C344 C343 1.428 . S
C344 C345 1.345 . S
C345 H337 0.950 . S
C345 C344 1.345 . S
C345 C346 1.424 . S
C346 H338 0.951 . S
C346 C345 1.424 . S
C346 C347 1.347 . S
C347 H339 0.951 . S
C347 C342 1.429 . S
C347 C346 1.347 . S
H348 C349 0.951 . S
C349 H348 0.951 . S
C349 C355 1.264 . S
H350 C355 0.950 1_554 S
H351 C359 0.949 . S
H352 C360 0.950 . S
H353 C361 0.951 . S
H354 C362 0.951 . S
C355 C349 1.264 . S
C355 H350 0.950 1_556 S
C355 C356 1.478 . S
C356 C343 1.394 . S
C356 C355 1.478 . S
C356 C357 1.397 1_556 S
C357 C356 1.397 1_554 S
C357 C358 1.438 . S
C357 C362 1.429 . S
C358 C341 1.394 1_554 S
C358 C357 1.438 . S
C358 C359 1.428 . S
C359 H351 0.949 . S
C359 C358 1.428 . S
C359 C360 1.345 . S
C360 H352 0.950 . S
C360 C359 1.345 . S
C360 C361 1.424 . S
C361 H353 0.951 . S
C361 C360 1.424 . S
C361 C362 1.347 . S
C362 H354 0.951 . S
C362 C357 1.429 . S
C362 C361 1.347 . S
H363 C364 0.951 . S
C364 H363 0.951 . S
C364 C370 1.265 1_554 S
H365 C370 0.950 . S
H366 C374 0.949 . S
H367 C375 0.950 . S
H368 C376 0.951 . S
H369 C377 0.951 . S
C370 C364 1.265 1_556 S
C370 H365 0.950 . S
C370 C371 1.478 1_556 S
C371 C370 1.478 1_554 S
C371 C372 1.397 1_554 S
C371 C388 1.394 . S
C372 C371 1.397 1_556 S
C372 C373 1.438 . S
C372 C377 1.429 . S
C373 C372 1.438 . S
C373 C374 1.428 . S
C373 C386 1.394 1_556 S
C374 H366 0.949 . S
C374 C373 1.428 . S
C374 C375 1.345 . S
C375 H367 0.950 . S
C375 C374 1.345 . S
C375 C376 1.424 . S
C376 H368 0.951 . S
C376 C375 1.424 . S
C376 C377 1.347 . S
C377 H369 0.951 . S
C377 C372 1.429 . S
C377 C376 1.347 . S
H378 C379 0.951 . S
C379 H378 0.951 . S
C379 C385 1.265 . S
H380 C385 0.950 . S
H381 C389 0.949 . S
H382 C390 0.950 . S
H383 C391 0.951 . S
H384 C392 0.951 . S
C385 C379 1.265 . S
C385 H380 0.950 . S
C385 C386 1.478 . S
C386 C373 1.394 1_554 S
C386 C385 1.478 . S
C386 C387 1.397 . S
C387 C386 1.397 . S
C387 C388 1.438 . S
C387 C392 1.429 . S
C388 C371 1.394 . S
C388 C387 1.438 . S
C388 C389 1.428 . S
C389 H381 0.949 . S
C389 C388 1.428 . S
C389 C390 1.345 . S
C390 H382 0.950 . S
C390 C389 1.345 . S
C390 C391 1.424 . S
C391 H383 0.951 . S
C391 C390 1.424 . S
C391 C392 1.347 . S
C392 H384 0.951 . S
C392 C387 1.429 . S
C392 C391 1.347 . S
H393 C394 0.951 1_556 S
C394 H393 0.951 1_554 S
C394 C400 1.265 . S
H395 C400 0.950 . S
H396 C404 0.949 . S
H397 C405 0.950 . S
H398 C406 0.951 . S
H399 C407 0.951 . S
C400 C394 1.265 . S
C400 H395 0.950 . S
C400 C401 1.478 . S
C401 C400 1.478 . S
C401 C402 1.397 1_554 S
C401 C418 1.394 . S
C402 C401 1.397 1_556 S
C402 C403 1.438 . S
C402 C407 1.429 . S
C403 C402 1.438 . S
C403 C404 1.428 . S
C403 C416 1.393 . S
C404 H396 0.949 . S
C404 C403 1.428 . S
C404 C405 1.345 . S
C405 H397 0.950 . S
C405 C404 1.345 . S
C405 C406 1.424 . S
C406 H398 0.951 . S
C406 C405 1.424 . S
C406 C407 1.347 . S
C407 H399 0.951 . S
C407 C402 1.429 . S
C407 C406 1.347 . S
H408 C409 0.951 . S
C409 H408 0.951 . S
C409 C415 1.265 1_554 S
H410 C415 0.950 . S
H411 C419 0.949 . S
H412 C420 0.950 . S
H413 C421 0.951 . S
H414 C422 0.951 . S
C415 C409 1.265 1_556 S
C415 H410 0.950 . S
C415 C416 1.478 . S
C416 C403 1.393 . S
C416 C415 1.478 . S
C416 C417 1.398 1_556 S
C417 C416 1.398 1_554 S
C417 C418 1.438 . S
C417 C422 1.429 . S
C418 C401 1.394 . S
C418 C417 1.438 . S
C418 C419 1.428 . S
C419 H411 0.949 . S
C419 C418 1.428 . S
C419 C420 1.345 . S
C420 H412 0.950 . S
C420 C419 1.345 . S
C420 C421 1.424 . S
C421 H413 0.951 . S
C421 C420 1.424 . S
C421 C422 1.347 . S
C422 H414 0.951 . S
C422 C417 1.429 . S
C422 C421 1.347 . S
H423 C424 0.951 . S
C424 H423 0.951 . S
C424 C430 1.265 1_554 S
H425 C430 0.950 . S
H426 C434 0.949 . S
H427 C435 0.950 . S
H428 C436 0.951 . S
H429 C437 0.951 . S
C430 C424 1.265 1_556 S
C430 H425 0.950 . S
C430 C431 1.478 . S
C431 C430 1.478 . S
C431 C432 1.397 . S
C431 C448 1.394 1_556 S
C432 C431 1.397 . S
C432 C433 1.438 . S
C432 C437 1.429 . S
C433 C432 1.438 . S
C433 C434 1.428 . S
C433 C446 1.394 . S
C434 H426 0.949 . S
C434 C433 1.428 . S
C434 C435 1.345 . S
C435 H427 0.950 . S
C435 C434 1.345 . S
C435 C436 1.424 . S
C436 H428 0.951 . S
C436 C435 1.424 . S
C436 C437 1.347 . S
C437 H429 0.951 . S
C437 C432 1.429 . S
C437 C436 1.347 . S
H438 C439 0.951 . S
C439 H438 0.951 . S
C439 C445 1.265 . S
H440 C445 0.950 1_554 S
H441 C449 0.949 . S
H442 C450 0.950 . S
H443 C451 0.951 . S
H444 C452 0.951 . S
C445 C439 1.265 . S
C445 H440 0.950 1_556 S
C445 C446 1.478 . S
C446 C433 1.394 . S
C446 C445 1.478 . S
C446 C447 1.397 1_556 S
C447 C446 1.397 1_554 S
C447 C448 1.438 . S
C447 C452 1.429 . S
C448 C431 1.394 1_554 S
C448 C447 1.438 . S
C448 C449 1.428 . S
C449 H441 0.949 . S
C449 C448 1.428 . S
C449 C450 1.345 . S
C450 H442 0.950 . S
C450 C449 1.345 . S
C450 C451 1.424 . S
C451 H443 0.951 . S
C451 C450 1.424 . S
C451 C452 1.347 . S
C452 H444 0.951 . S
C452 C447 1.429 . S
C452 C451 1.347 . S
C94 C82 1.231 . S
C109 C10 1.263 1_655 S
C124 C2 1.291 . S
C139 C41 1.305 1_545 S
C154 C19 1.263 . S
C169 C91 1.357 . S
C184 C61 1.265 . S
C199 C20 1.244 . S
C214 C0 1.209 1_455 S
C229 C63 1.295 . S
C244 C31 1.250 1_565 S
C259 C29 1.378 . S
C274 C64 1.290 . S
C289 C30 1.311 1_455 S
C304 C50 1.162 1_545 S
C319 C1 1.283 . S
C334 C72 1.180 . S
C349 C32 1.262 . S
C364 C92 1.307 1_554 S
C379 C60 1.290 . S
C394 C33 1.354 . S
C409 C81 1.330 . S
C424 C62 1.171 1_554 S
C439 C51 1.287 . S
