# Generated by pormake.
# Topology fnt, (5)-cn, num edge types: 1
# Building blocks:
#     Node 0, Type 0, BuildingBlock: BEQFEK_clean_sbu_0, # of connection points: 5
#     Node 1, Type 0, BuildingBlock: BEQFEK_clean_sbu_0, # of connection points: 5
#     Node 2, Type 0, BuildingBlock: BEQFEK_clean_sbu_0, # of connection points: 5
#     Node 3, Type 0, BuildingBlock: BEQFEK_clean_sbu_0, # of connection points: 5
#     Node 4, Type 0, BuildingBlock: BEQFEK_clean_sbu_0, # of connection points: 5
#     Node 5, Type 0, BuildingBlock: BEQFEK_clean_sbu_0, # of connection points: 5
#     Edge 6, Type (0, 0), BuildingBlock: OJICUG_clean_linker_0, # of connection points: 2
#     Edge 7, Type (0, 0), BuildingBlock: OJICUG_clean_linker_0, # of connection points: 2
#     Edge 8, Type (0, 0), BuildingBlock: OJICUG_clean_linker_0, # of connection points: 2
#     Edge 9, Type (0, 0), BuildingBlock: OJICUG_clean_linker_0, # of connection points: 2
#     Edge 10, Type (0, 0), BuildingBlock: OJICUG_clean_linker_0, # of connection points: 2
#     Edge 11, Type (0, 0), BuildingBlock: OJICUG_clean_linker_0, # of connection points: 2
#     Edge 12, Type (0, 0), BuildingBlock: OJICUG_clean_linker_0, # of connection points: 2
#     Edge 13, Type (0, 0), BuildingBlock: OJICUG_clean_linker_0, # of connection points: 2
#     Edge 14, Type (0, 0), BuildingBlock: OJICUG_clean_linker_0, # of connection points: 2
#     Edge 15, Type (0, 0), BuildingBlock: OJICUG_clean_linker_0, # of connection points: 2
#     Edge 16, Type (0, 0), BuildingBlock: OJICUG_clean_linker_0, # of connection points: 2
#     Edge 17, Type (0, 0), BuildingBlock: OJICUG_clean_linker_0, # of connection points: 2
#     Edge 18, Type (0, 0), BuildingBlock: OJICUG_clean_linker_0, # of connection points: 2
#     Edge 19, Type (0, 0), BuildingBlock: OJICUG_clean_linker_0, # of connection points: 2
#     Edge 20, Type (0, 0), BuildingBlock: OJICUG_clean_linker_0, # of connection points: 2
# Relax obj value: 0.204
# Max RMSD: 0.166
# Mean RMSD: 0.166
data_MOF--net-fnt--node1-BEQFEK_clean_sbu_0--edge1-OJICUG_clean_linker_0
_symmetry_space_group_name_H-M    P1
_symmetry_Int_Tables_number       1
_symmetry_cell_setting            triclinic
loop_
_symmetry_equiv_pos_as_xyz
'x, y, z'
_cell_length_a     19.319211
_cell_length_b     19.256288
_cell_length_c     42.084183
_cell_angle_alpha  88.319116
_cell_angle_beta   90.936561
_cell_angle_gamma 119.69894
loop_
_atom_site_label
_atom_site_type_symbol
_atom_site_fract_x
_atom_site_fract_y
_atom_site_fract_z
_atom_type_partial_charge
Co0 Co 0.17873 0.40169 0.08736 0.0
Co1 Co 0.20195 0.38534 1.01448 0.0
C2 C 0.33387 0.42767 0.06151 0.0
O3 O 0.29175 0.42349 0.08531 0.0
O4 O 0.30679 0.41874 0.03326 0.0
C5 C 0.14489 0.33672 0.15082 0.0
O6 O 0.17486 0.29347 0.14044 0.0
C7 C 0.25187 0.34751 0.95375 0.0
C8 C 0.14148 0.3041 0.92551 0.0
C9 C 0.2172 0.31308 0.92503 0.0
N10 N 0.19814 0.35573 0.97089 0.0
N11 N 0.13278 0.33083 0.95355 0.0
C12 C 0.33564 0.37514 0.96413 0.0
H13 H 0.33684 0.32637 0.97834 0.0
H14 H 0.37568 0.39009 0.94337 0.0
H15 H 0.35787 0.42892 0.97878 0.0
C16 C 0.04304 0.23816 0.07598 0.0
N17 N 0.10906 0.30552 0.06661 0.0
N18 N 0.12917 0.29537 0.0382 0.0
C19 C 0.08278 0.21915 0.02998 0.0
C20 C 0.02464 0.18034 0.05328 0.0
C21 C -0.00653 0.23292 0.10391 0.0
H22 H 0.00308 0.29301 0.1095 0.0
H23 H 0.01025 0.20843 0.1249 0.0
H24 H 0.92927 0.19258 0.09891 0.0
O25 O 0.16324 0.48576 0.06736 0.0
O26 O 0.16417 0.46516 1.0157 0.0
H27 H 0.06887 0.1813 0.98173 0.0
H28 H 0.08894 0.12051 1.00965 0.0
C29 C 0.10314 0.18249 1.00329 0.0
H30 H 0.16764 0.21783 0.99786 0.0
H31 H 0.08115 0.3296 0.96131 0.0
O32 O 0.14454 0.3901 0.13244 0.0
C33 C 0.15223 0.50001 0.03855 0.0
Co34 Co 0.7979 0.18316 0.4202 0.0
Co35 Co 0.84119 0.20911 0.34712 0.0
C36 C 0.92825 0.33999 0.39343 0.0
O37 O 0.88901 0.2966 0.41735 0.0
O38 O 0.91193 0.31425 0.36519 0.0
C39 C 0.81931 0.14408 0.48533 0.0
O40 O 0.89378 0.17271 0.47663 0.0
C41 C 0.93148 0.258 0.28635 0.0
C42 C 0.85807 0.15249 0.25722 0.0
C43 C 0.92782 0.22553 0.25696 0.0
N44 N 0.86699 0.20625 0.30334 0.0
N45 N 0.82285 0.14387 0.28554 0.0
C46 C -0.00044 0.33161 0.29964 0.0
H47 H 0.02002 0.31485 0.32181 0.0
H48 H 0.05033 0.36116 0.2829 0.0
H49 H 0.97881 0.37403 0.30563 0.0
C50 C 0.82749 0.04739 0.40975 0.0
N51 N 0.82576 0.1137 0.39991 0.0
N52 N 0.85625 0.13419 0.37122 0.0
C53 C 0.88588 0.08733 0.36312 0.0
C54 C 0.86691 0.02898 0.38696 0.0
C55 C 0.78394 -0.00238 0.43834 0.0
H56 H 0.73281 0.00618 0.44395 0.0
H57 H 0.82487 0.01541 0.45902 0.0
H58 H 0.76169 0.9333 0.43416 0.0
O59 O 0.70015 0.16892 0.39987 0.0
O60 O 0.72483 0.1728 0.34829 0.0
H61 H 0.90732 0.07373 0.31448 0.0
H62 H -0.01179 0.09082 0.34118 0.0
C63 C 0.94146 0.1068 0.33562 0.0
H64 H 0.97171 0.17166 0.32991 0.0
H65 H 0.77001 0.09399 0.29319 0.0
O66 O 0.77021 0.14667 0.46551 0.0
C67 C 0.6769 0.15983 0.37105 0.0
Co68 Co 0.57409 0.77129 0.75291 0.0
Co69 Co 0.60025 0.82155 0.67968 0.0
C70 C 0.54941 0.90417 0.72535 0.0
O71 O 0.55098 0.8627 0.74936 0.0
O72 O 0.56313 0.89079 0.69729 0.0
C73 C 0.62592 0.79314 0.8181 0.0
O74 O 0.66378 0.86867 0.80873 0.0
C75 C 0.65428 0.92003 0.61959 0.0
C76 C 0.68453 0.845 0.59065 0.0
C77 C 0.68637 0.91778 0.59059 0.0
N78 N 0.63491 0.85183 0.63616 0.0
N79 N 0.65211 0.80688 0.61841 0.0
C80 C 0.65089 -0.01069 0.63289 0.0
H81 H 0.67627 0.0002 0.65724 0.0
H82 H 0.68429 0.04447 0.61805 0.0
H83 H 0.58766 0.97424 0.63441 0.0
C84 C 0.73852 0.79885 0.74377 0.0
N85 N 0.67295 0.80053 0.73348 0.0
N86 N 0.68642 0.83325 0.70478 0.0
C87 C 0.76272 0.86043 0.69704 0.0
C88 C 0.79809 0.83742 0.7211 0.0
C89 C 0.74107 0.75396 0.773 0.0
H90 H 0.68102 0.70282 0.7783 0.0
H91 H 0.76153 0.7945 0.79345 0.0
H92 H 0.7831 0.73109 0.76986 0.0
O93 O 0.49389 0.67513 0.73182 0.0
O94 O 0.51972 0.70474 0.68034 0.0
H95 H 0.80122 0.88405 0.64846 0.0
H96 H 0.86568 0.96138 0.67535 0.0
C97 C 0.80284 0.91764 0.66968 0.0
H98 H 0.77191 0.95182 0.66408 0.0
H99 H 0.64464 0.75138 0.62581 0.0
O100 O 0.57992 0.74109 0.7985 0.0
C101 C 0.48249 0.65468 0.70286 0.0
Co102 Co 0.82736 0.62848 0.08856 0.0
Co103 Co 0.78715 0.62612 1.01506 0.0
C104 C 0.66304 0.52186 0.06172 0.0
O105 O 0.71065 0.55113 0.08524 0.0
O106 O 0.68651 0.54078 0.03296 0.0
C107 C 0.8934 0.61386 0.14868 0.0
O108 O 0.89546 0.55456 0.13491 0.0
C109 C 0.71821 0.64719 0.95278 0.0
C110 C 0.83145 0.7247 0.92763 0.0
C111 C 0.74987 0.69317 0.92508 0.0
N112 N 0.77906 0.65324 0.9711 0.0
N113 N 0.84609 0.69812 0.95539 0.0
C114 C 0.63285 0.60587 0.96298 0.0
H115 H 0.62759 0.59354 0.98898 0.0
H116 H 0.60512 0.64275 0.95621 0.0
H117 H 0.5999 0.54824 0.9506 0.0
C118 C 0.87222 0.79704 0.07854 0.0
N119 N 0.84437 0.72287 0.0679 0.0
N120 N 0.81494 0.71806 0.0392 0.0
C121 C 0.8154 0.78666 0.03186 0.0
C122 C 0.85373 0.84036 0.05615 0.0
C123 C 0.92304 0.82653 0.10775 0.0
H124 H 0.95151 0.7898 0.11327 0.0
H125 H 0.88539 0.82205 0.1282 0.0
H126 H 0.97101 0.88949 0.10441 0.0
O127 O 0.89682 0.59647 0.06869 0.0
O128 O 0.87608 0.59974 1.0168 0.0
H129 H 0.80489 0.81092 0.98255 0.0
H130 H 0.75315 0.84221 1.00907 0.0
C131 C 0.76923 0.79545 1.00465 0.0
H132 H 0.71335 0.73827 1.00144 0.0
H133 H 0.90255 0.71445 0.9645 0.0
O134 O 0.86214 0.6502 0.13388 0.0
C135 C 0.914 0.59107 0.04024 0.0
Co136 Co 0.22537 0.83266 0.42142 0.0
Co137 Co 0.19013 0.79725 0.34866 0.0
C138 C 0.16678 0.66899 0.39518 0.0
O139 O 0.18347 0.71488 0.41881 0.0
O140 O 0.17465 0.69534 0.36653 0.0
C141 C 0.19608 0.84332 0.48906 0.0
O142 O 0.12296 0.78478 0.48465 0.0
C143 C 0.10509 0.72756 0.28726 0.0
C144 C 0.13749 0.84006 0.26053 0.0
C145 C 0.09156 0.75775 0.25876 0.0
N146 N 0.15579 0.78977 0.3051 0.0
N147 N 0.17564 0.85648 0.28864 0.0
C148 C 0.06457 0.64201 0.29858 0.0
H149 H 0.06398 0.6377 0.32489 0.0
H150 H 0.00254 0.60922 0.28944 0.0
H151 H 0.09759 0.61314 0.28958 0.0
C152 C 0.10315 0.88137 0.4121 0.0
N153 N 0.14962 0.85336 0.40151 0.0
N154 N 0.12571 0.82443 0.37307 0.0
C155 C 0.05783 0.82472 0.366 0.0
C156 C 0.04182 0.86286 0.3901 0.0
C157 C 0.12453 0.93392 0.44033 0.0
H158 H 0.18863 0.95958 0.44617 0.0
H159 H 0.08873 0.8984 0.46114 0.0
H160 H 0.11253 0.98392 0.43547 0.0
O161 O 0.32694 0.90102 0.40092 0.0
O162 O 0.30431 0.88603 0.34913 0.0
H163 H 0.02329 0.81516 0.31698 0.0
H164 H 0.94106 0.76054 0.34429 0.0
C165 C 0.00401 0.77848 0.33927 0.0
H166 H 0.0073 0.72343 0.33596 0.0
H167 H 0.21284 0.91363 0.29721 0.0
O168 O 0.24491 0.86817 0.46608 0.0
C169 C 0.3502 0.92109 0.37243 0.0
Co170 Co 0.34064 0.19395 0.75186 0.0
Co171 Co 0.34667 0.16341 0.67934 0.0
C172 C 0.44786 0.13653 0.72642 0.0
O173 O 0.41705 0.15169 0.75008 0.0
O174 O 0.43098 0.14597 0.69771 0.0
C175 C 0.34015 0.20986 0.82295 0.0
O176 O 0.39798 0.19334 0.82735 0.0
C177 C 0.33025 0.07927 0.6183 0.0
C178 C 0.24507 0.10822 0.59393 0.0
C179 C 0.28196 0.06274 0.59152 0.0
N180 N 0.32056 0.13102 0.63609 0.0
N181 N 0.27112 0.14931 0.62086 0.0
C182 C 0.37692 0.03931 0.62841 0.0
H183 H 0.34539 0.97574 0.62143 0.0
H184 H 0.43551 0.06981 0.61624 0.0
H185 H 0.38729 0.043 0.65441 0.0
C186 C 0.17401 0.07065 0.74317 0.0
N187 N 0.24724 0.11996 0.73174 0.0
N188 N 0.25418 0.09708 0.70353 0.0
C189 C 0.18858 0.02709 0.69741 0.0
C190 C 0.13408 0.00846 0.72196 0.0
C191 C 0.14198 0.08906 0.77199 0.0
H192 H 0.17447 0.15424 0.77607 0.0
H193 H 0.14975 0.05776 0.79314 0.0
H194 H 0.07803 0.07038 0.76904 0.0
O195 O 0.37689 0.29764 0.73137 0.0
O196 O 0.37316 0.27864 0.67961 0.0
H197 H 0.16646 -0.00964 0.64901 0.0
H198 H 0.14212 0.9096 0.67768 0.0
C199 C 0.1847 0.97321 0.67168 0.0
H200 H 0.24415 0.97917 0.66856 0.0
H201 H 0.2512 0.1862 0.62991 0.0
O202 O 0.31367 0.20967 0.79515 0.0
C203 C 0.38301 0.32337 0.70291 0.0
C204 C 0.46383 0.4823 0.09145 0.0
C205 C 0.41491 0.43923 0.06601 0.0
H206 H 0.58252 0.5412 0.11049 0.0
C207 C 0.44547 0.40977 0.0432 0.0
H208 H 0.44145 0.50464 0.10965 0.0
C209 C 0.52531 0.43015 0.04363 0.0
C210 C 0.57635 0.47967 0.06722 0.0
H211 H 0.40829 0.37318 1.02422 0.0
H212 H 0.54817 0.41118 1.02436 0.0
C213 C 0.54426 0.50239 0.09207 0.0
C214 C 0.00312 0.46765 0.42389 0.0
C215 C -0.00257 0.42083 0.39794 0.0
H216 H 0.06379 0.58454 0.44384 0.0
C217 C 0.05811 0.45301 0.37498 0.0
H218 H 0.95792 0.44406 0.44223 0.0
C219 C 0.11864 0.53225 0.37599 0.0
C220 C 0.1204 0.58148 0.40018 0.0
H221 H 0.05769 0.41783 0.35548 0.0
H222 H 0.16127 0.55635 0.35669 0.0
C223 C 0.0643 0.54768 0.42499 0.0
C224 C 0.53923 0.09177 0.70687 0.0
C225 C 0.49082 0.09149 0.73136 0.0
H226 H 0.59566 0.03368 0.68613 0.0
C227 C 0.47032 0.03498 0.75657 0.0
H228 H 0.55647 0.13477 0.68724 0.0
C229 C 0.49217 0.97549 0.75567 0.0
C230 C 0.53445 0.97179 0.72951 0.0
H231 H 0.43237 0.03289 0.77566 0.0
H232 H 0.4721 0.93 0.77441 0.0
C233 C 0.56068 0.03279 0.70599 0.0
C234 C 0.4621 0.53642 0.67194 0.0
C235 C 0.43893 0.56801 0.69681 0.0
H236 H 0.46279 0.43288 0.65429 0.0
C237 C 0.38716 0.51564 0.72026 0.0
H238 H 0.50242 0.57551 0.65361 0.0
C239 C 0.36604 0.4353 0.72091 0.0
C240 C 0.39552 0.40505 0.69796 0.0
H241 H 0.36763 0.5379 0.73953 0.0
H242 H 0.32942 0.39751 0.74037 0.0
C243 C 0.44022 0.45509 0.67246 0.0
C244 C 0.04437 0.60884 0.05842 0.0
C245 C 0.98385 0.58069 0.03527 0.0
H246 H 0.14794 0.60871 0.07665 0.0
C247 C -0.01014 0.54025 1.00915 0.0
H248 H 0.04276 0.64237 0.07836 0.0
C249 C 0.05104 0.52101 1.00812 0.0
C250 C 0.10696 0.54263 0.0331 0.0
H251 H 0.94458 0.51896 0.99077 0.0
H252 H 0.05046 0.48366 0.98925 0.0
C253 C 0.10538 0.59046 0.05725 0.0
C254 C 0.47787 -0.00061 0.34136 0.0
C255 C 0.42991 -0.00842 0.36742 0.0
H256 H 0.59568 0.06147 0.32161 0.0
C257 C 0.4602 0.05076 0.39057 0.0
H258 H 0.45544 0.9552 0.32297 0.0
C259 C 0.53908 0.11198 0.38952 0.0
C260 C 0.58996 0.1151 0.36546 0.0
H261 H 0.42378 0.0478 0.41045 0.0
H262 H 0.56177 0.15333 0.40893 0.0
C263 C 0.55775 0.06079 0.34043 0.0
C264 C 0.94041 0.05175 0.08374 0.0
C265 C 0.96336 0.09473 0.05467 0.0
H266 H 0.87848 0.93729 0.10693 0.0
C267 C 0.93454 0.05307 1.0264 0.0
H268 H 0.96049 0.08097 0.1062 0.0
C269 C 0.89752 0.97026 1.02679 0.0
C270 C 0.87998 0.92685 0.05576 0.0
H271 H 0.94609 0.08424 1.00364 0.0
H272 H 0.88774 0.94176 1.00419 0.0
C273 C 0.89575 0.96854 0.08418 0.0
C274 C 0.95283 0.90366 0.36111 0.0
C275 C 0.98069 0.88808 0.38999 0.0
H276 H 0.88425 0.94909 0.33809 0.0
C277 C 0.95507 0.90418 0.41849 0.0
H278 H 0.97127 0.89386 0.33842 0.0
C279 C 0.91452 0.94719 0.41793 0.0
C280 C 0.89245 0.96821 0.38882 0.0
H281 H 0.97035 0.88823 0.44129 0.0
H282 H 0.9054 0.96771 0.44024 0.0
C283 C 0.90514 0.93881 0.36078 0.0
C284 C 0.00768 0.91812 0.75165 0.0
C285 C 0.04943 0.94438 0.72279 0.0
H286 H 0.89475 0.87004 0.77413 0.0
C287 C 0.00687 0.91573 0.69431 0.0
H288 H 0.03854 0.93333 0.77422 0.0
C289 C 0.92455 0.86873 0.69466 0.0
C290 C 0.88251 0.85792 0.72285 0.0
H291 H 0.03522 0.9339 0.67137 0.0
H292 H 0.89373 0.84823 0.67225 0.0
C293 C 0.92464 0.87863 0.7517 0.0
C294 C 0.22734 0.29027 0.86771 0.0
C295 C 0.24984 0.28672 0.89929 0.0
H296 H 0.23816 0.26925 0.81905 0.0
C297 C 0.3003 0.25471 0.90587 0.0
H298 H 0.18788 0.31373 0.8619 0.0
C299 C 0.32988 0.22952 0.88121 0.0
C300 C 0.30832 0.23444 0.84955 0.0
H301 H 0.3159 0.24756 0.93006 0.0
H302 H 0.36902 0.20568 0.88697 0.0
C303 C 0.25622 0.26458 0.84315 0.0
C304 C 0.06869 0.23501 0.19357 0.0
C305 C 0.0965 0.3121 0.18023 0.0
H306 H -0.00776 0.147 0.22801 0.0
C307 C 0.07089 0.36192 0.19333 0.0
H308 H 0.08648 0.19479 0.18383 0.0
C309 C 0.01747 0.33461 0.21884 0.0
C310 C -0.012 0.25674 0.23141 0.0
H311 H 0.09085 0.42141 0.18346 0.0
H312 H -0.00267 0.37345 0.22812 0.0
C313 C 0.01423 0.20732 0.21865 0.0
C314 C 0.83171 0.05936 0.52885 0.0
C315 C 0.78894 0.0937 0.51469 0.0
H316 H 0.83176 0.97567 0.56361 0.0
C317 C 0.71356 0.07285 0.52695 0.0
H318 H 0.88951 0.07342 0.51981 0.0
C319 C 0.68108 0.01762 0.55239 0.0
C320 C 0.72275 0.98122 0.56561 0.0
H321 H 0.679 0.09799 0.51646 0.0
H322 H 0.62224 0.00125 0.56098 0.0
C323 C 0.79848 0.00293 0.55376 0.0
C324 C 0.71714 0.82364 0.86489 0.0
C325 C 0.64969 0.7679 0.84816 0.0
H326 H 0.80121 0.8432 0.90207 0.0
C327 C 0.61095 0.68725 0.85872 0.0
H328 H 0.7487 0.88611 0.8575 0.0
C329 C 0.6409 0.66271 0.88473 0.0
C330 C 0.71073 0.71819 0.90025 0.0
H331 H 0.55895 0.64271 0.84631 0.0
H332 H 0.61165 0.59999 0.8917 0.0
C333 C 0.7476 0.79897 0.89037 0.0
C334 C 0.94628 0.71673 0.19097 0.0
C335 C 0.93692 0.64525 0.17897 0.0
H336 H 0.00227 0.80768 0.22553 0.0
C337 C 0.97506 0.60789 0.19479 0.0
H338 H 0.91794 0.74723 0.17945 0.0
C339 C 0.02352 0.64269 0.22138 0.0
C340 C 0.03488 0.71558 0.23261 0.0
H341 H 0.96941 0.55293 0.1861 0.0
H342 H 0.05453 0.61419 0.23223 0.0
C343 C -0.005 0.75163 0.21733 0.0
C344 C 0.31979 -0.00588 0.55123 0.0
C345 C 0.2608 0.00012 0.56788 0.0
H346 H 0.3453 0.93933 0.51291 0.0
C347 C 0.18023 0.94888 0.56042 0.0
H348 H 0.38226 0.03332 0.55646 0.0
C349 C 0.15891 0.89417 0.53605 0.0
C350 C 0.21791 0.89097 0.51818 0.0
H351 H 0.13363 0.95216 0.57312 0.0
H352 H 0.09642 0.8573 0.5302 0.0
C353 C 0.29854 0.94051 0.52634 0.0
loop_
_geom_bond_atom_site_label_1
_geom_bond_atom_site_label_2
_geom_bond_distance
_geom_bond_site_symmetry_2
_ccdc_geom_bond_type
Co0 O3 1.970 . S
Co0 N17 1.989 . S
Co0 O25 1.967 . S
Co0 O32 1.920 . S
Co1 O4 1.966 1_556 S
Co1 N10 2.022 . S
Co1 N18 1.993 1_556 S
Co1 O26 1.941 . S
C2 O3 1.258 . S
C2 O4 1.263 . S
O3 Co0 1.970 . S
O3 C2 1.258 . S
O4 Co1 1.966 1_554 S
O4 C2 1.263 . S
C5 O6 1.235 . S
C5 O32 1.289 . S
O6 C5 1.235 . S
C7 C9 1.400 . S
C7 N10 1.351 . S
C7 C12 1.501 . S
C8 C9 1.387 . S
C8 N11 1.341 . S
C9 C7 1.400 . S
C9 C8 1.387 . S
N10 Co1 2.022 . S
N10 C7 1.351 . S
N10 N11 1.365 . S
N11 C8 1.341 . S
N11 N10 1.365 . S
N11 H31 0.862 . S
C12 C7 1.501 . S
C12 H13 0.961 . S
C12 H14 0.961 . S
C12 H15 0.960 . S
H13 C12 0.961 . S
H14 C12 0.961 . S
H15 C12 0.960 . S
C16 N17 1.342 . S
C16 C20 1.401 . S
C16 C21 1.499 . S
N17 Co0 1.989 . S
N17 C16 1.342 . S
N17 N18 1.388 . S
N18 Co1 1.993 1_554 S
N18 N17 1.388 . S
N18 C19 1.346 1_554 S
C19 N18 1.346 1_556 S
C19 C20 1.396 1_556 S
C19 C29 1.510 . S
C20 C16 1.401 . S
C20 C19 1.396 1_554 S
C21 C16 1.499 . S
C21 H22 0.959 . S
C21 H23 0.960 . S
C21 H24 0.961 1_455 S
H22 C21 0.959 . S
H23 C21 0.960 . S
H24 C21 0.961 1_655 S
O25 Co0 1.967 . S
O25 C33 1.258 . S
O26 Co1 1.941 . S
O26 C33 1.266 1_556 S
H27 C29 0.959 . S
H28 C29 0.961 . S
C29 C19 1.510 . S
C29 H27 0.959 . S
C29 H28 0.961 . S
C29 H30 0.960 . S
H30 C29 0.960 . S
H31 N11 0.862 . S
O32 Co0 1.920 . S
O32 C5 1.289 . S
C33 O25 1.258 . S
C33 O26 1.266 1_554 S
Co34 O37 1.970 . S
Co34 N51 1.989 . S
Co34 O59 1.967 . S
Co34 O66 1.920 . S
Co35 O38 1.966 . S
Co35 N44 2.022 . S
Co35 N52 1.993 . S
Co35 O60 1.941 . S
C36 O37 1.258 . S
C36 O38 1.263 . S
O37 Co34 1.970 . S
O37 C36 1.258 . S
O38 Co35 1.966 . S
O38 C36 1.263 . S
C39 O40 1.235 . S
C39 O66 1.289 . S
O40 C39 1.235 . S
C41 C43 1.400 . S
C41 N44 1.351 . S
C41 C46 1.501 . S
C42 C43 1.387 . S
C42 N45 1.341 . S
C43 C41 1.400 . S
C43 C42 1.387 . S
N44 Co35 2.022 . S
N44 C41 1.351 . S
N44 N45 1.365 . S
N45 C42 1.341 . S
N45 N44 1.365 . S
N45 H65 0.862 . S
C46 C41 1.501 . S
C46 H47 0.961 . S
C46 H48 0.961 1_655 S
C46 H49 0.960 . S
H47 C46 0.961 . S
H48 C46 0.961 1_455 S
H49 C46 0.960 . S
C50 N51 1.342 . S
C50 C54 1.401 . S
C50 C55 1.499 . S
N51 Co34 1.989 . S
N51 C50 1.342 . S
N51 N52 1.388 . S
N52 Co35 1.993 . S
N52 N51 1.388 . S
N52 C53 1.346 . S
C53 N52 1.346 . S
C53 C54 1.396 . S
C53 C63 1.510 . S
C54 C50 1.401 . S
C54 C53 1.396 . S
C55 C50 1.499 . S
C55 H56 0.959 . S
C55 H57 0.960 . S
C55 H58 0.961 1_545 S
H56 C55 0.959 . S
H57 C55 0.960 . S
H58 C55 0.961 1_565 S
O59 Co34 1.967 . S
O59 C67 1.258 . S
O60 Co35 1.941 . S
O60 C67 1.266 . S
H61 C63 0.959 . S
H62 C63 0.961 1_455 S
C63 C53 1.510 . S
C63 H61 0.959 . S
C63 H62 0.961 1_655 S
C63 H64 0.960 . S
H64 C63 0.960 . S
H65 N45 0.862 . S
O66 Co34 1.920 . S
O66 C39 1.289 . S
C67 O59 1.258 . S
C67 O60 1.266 . S
Co68 O71 1.970 . S
Co68 N85 1.989 . S
Co68 O93 1.967 . S
Co68 O100 1.920 . S
Co69 O72 1.966 . S
Co69 N78 2.022 . S
Co69 N86 1.993 . S
Co69 O94 1.941 . S
C70 O71 1.258 . S
C70 O72 1.263 . S
O71 Co68 1.970 . S
O71 C70 1.258 . S
O72 Co69 1.966 . S
O72 C70 1.263 . S
C73 O74 1.235 . S
C73 O100 1.289 . S
O74 C73 1.235 . S
C75 C77 1.400 . S
C75 N78 1.351 . S
C75 C80 1.501 . S
C76 C77 1.387 . S
C76 N79 1.341 . S
C77 C75 1.400 . S
C77 C76 1.387 . S
N78 Co69 2.022 . S
N78 C75 1.351 . S
N78 N79 1.365 . S
N79 C76 1.341 . S
N79 N78 1.365 . S
N79 H99 0.862 . S
C80 C75 1.501 . S
C80 H81 0.961 . S
C80 H82 0.961 1_565 S
C80 H83 0.960 . S
H81 C80 0.961 . S
H82 C80 0.961 1_545 S
H83 C80 0.960 . S
C84 N85 1.342 . S
C84 C88 1.401 . S
C84 C89 1.499 . S
N85 Co68 1.989 . S
N85 C84 1.342 . S
N85 N86 1.388 . S
N86 Co69 1.993 . S
N86 N85 1.388 . S
N86 C87 1.346 . S
C87 N86 1.346 . S
C87 C88 1.396 . S
C87 C97 1.510 . S
C88 C84 1.401 . S
C88 C87 1.396 . S
C89 C84 1.499 . S
C89 H90 0.959 . S
C89 H91 0.960 . S
C89 H92 0.961 . S
H90 C89 0.959 . S
H91 C89 0.960 . S
H92 C89 0.961 . S
O93 Co68 1.967 . S
O93 C101 1.258 . S
O94 Co69 1.941 . S
O94 C101 1.266 . S
H95 C97 0.959 . S
H96 C97 0.961 1_545 S
C97 C87 1.510 . S
C97 H95 0.959 . S
C97 H96 0.961 1_565 S
C97 H98 0.960 . S
H98 C97 0.960 . S
H99 N79 0.862 . S
O100 Co68 1.920 . S
O100 C73 1.289 . S
C101 O93 1.258 . S
C101 O94 1.266 . S
Co102 O105 1.970 . S
Co102 N119 1.989 . S
Co102 O127 1.967 . S
Co102 O134 1.920 . S
Co103 O106 1.966 1_556 S
Co103 N112 2.022 . S
Co103 N120 1.993 1_556 S
Co103 O128 1.941 . S
C104 O105 1.258 . S
C104 O106 1.263 . S
O105 Co102 1.970 . S
O105 C104 1.258 . S
O106 Co103 1.966 1_554 S
O106 C104 1.263 . S
C107 O108 1.235 . S
C107 O134 1.289 . S
O108 C107 1.235 . S
C109 C111 1.400 . S
C109 N112 1.351 . S
C109 C114 1.501 . S
C110 C111 1.387 . S
C110 N113 1.341 . S
C111 C109 1.400 . S
C111 C110 1.387 . S
N112 Co103 2.022 . S
N112 C109 1.351 . S
N112 N113 1.365 . S
N113 C110 1.341 . S
N113 N112 1.365 . S
N113 H133 0.862 . S
C114 C109 1.501 . S
C114 H115 0.961 . S
C114 H116 0.961 . S
C114 H117 0.960 . S
H115 C114 0.961 . S
H116 C114 0.961 . S
H117 C114 0.960 . S
C118 N119 1.342 . S
C118 C122 1.401 . S
C118 C123 1.499 . S
N119 Co102 1.989 . S
N119 C118 1.342 . S
N119 N120 1.388 . S
N120 Co103 1.993 1_554 S
N120 N119 1.388 . S
N120 C121 1.346 1_554 S
C121 N120 1.346 1_556 S
C121 C122 1.396 1_556 S
C121 C131 1.510 . S
C122 C118 1.401 . S
C122 C121 1.396 1_554 S
C123 C118 1.499 . S
C123 H124 0.959 . S
C123 H125 0.960 . S
C123 H126 0.961 1_655 S
H124 C123 0.959 . S
H125 C123 0.960 . S
H126 C123 0.961 1_455 S
O127 Co102 1.967 . S
O127 C135 1.258 . S
O128 Co103 1.941 . S
O128 C135 1.266 1_556 S
H129 C131 0.959 . S
H130 C131 0.961 . S
C131 C121 1.510 . S
C131 H129 0.959 . S
C131 H130 0.961 . S
C131 H132 0.960 . S
H132 C131 0.960 . S
H133 N113 0.862 . S
O134 Co102 1.920 . S
O134 C107 1.289 . S
C135 O127 1.258 . S
C135 O128 1.266 1_554 S
Co136 O139 1.970 . S
Co136 N153 1.989 . S
Co136 O161 1.967 . S
Co136 O168 1.920 . S
Co137 O140 1.966 . S
Co137 N146 2.022 . S
Co137 N154 1.993 . S
Co137 O162 1.941 . S
C138 O139 1.258 . S
C138 O140 1.263 . S
O139 Co136 1.970 . S
O139 C138 1.258 . S
O140 Co137 1.966 . S
O140 C138 1.263 . S
C141 O142 1.235 . S
C141 O168 1.289 . S
O142 C141 1.235 . S
C143 C145 1.400 . S
C143 N146 1.351 . S
C143 C148 1.501 . S
C144 C145 1.387 . S
C144 N147 1.341 . S
C145 C143 1.400 . S
C145 C144 1.387 . S
N146 Co137 2.022 . S
N146 C143 1.351 . S
N146 N147 1.365 . S
N147 C144 1.341 . S
N147 N146 1.365 . S
N147 H167 0.862 . S
C148 C143 1.501 . S
C148 H149 0.961 . S
C148 H150 0.961 1_455 S
C148 H151 0.960 . S
H149 C148 0.961 . S
H150 C148 0.961 1_655 S
H151 C148 0.960 . S
C152 N153 1.342 . S
C152 C156 1.401 . S
C152 C157 1.499 . S
N153 Co136 1.989 . S
N153 C152 1.342 . S
N153 N154 1.388 . S
N154 Co137 1.993 . S
N154 N153 1.388 . S
N154 C155 1.346 . S
C155 N154 1.346 . S
C155 C156 1.396 . S
C155 C165 1.510 . S
C156 C152 1.401 . S
C156 C155 1.396 . S
C157 C152 1.499 . S
C157 H158 0.959 . S
C157 H159 0.960 . S
C157 H160 0.961 1_565 S
H158 C157 0.959 . S
H159 C157 0.960 . S
H160 C157 0.961 1_545 S
O161 Co136 1.967 . S
O161 C169 1.258 . S
O162 Co137 1.941 . S
O162 C169 1.266 . S
H163 C165 0.959 . S
H164 C165 0.961 1_655 S
C165 C155 1.510 . S
C165 H163 0.959 . S
C165 H164 0.961 1_455 S
C165 H166 0.960 . S
H166 C165 0.960 . S
H167 N147 0.862 . S
O168 Co136 1.920 . S
O168 C141 1.289 . S
C169 O161 1.258 . S
C169 O162 1.266 . S
Co170 O173 1.970 . S
Co170 N187 1.989 . S
Co170 O195 1.967 . S
Co170 O202 1.920 . S
Co171 O174 1.966 . S
Co171 N180 2.022 . S
Co171 N188 1.993 . S
Co171 O196 1.941 . S
C172 O173 1.258 . S
C172 O174 1.263 . S
O173 Co170 1.970 . S
O173 C172 1.258 . S
O174 Co171 1.966 . S
O174 C172 1.263 . S
C175 O176 1.235 . S
C175 O202 1.289 . S
O176 C175 1.235 . S
C177 C179 1.400 . S
C177 N180 1.351 . S
C177 C182 1.501 . S
C178 C179 1.387 . S
C178 N181 1.341 . S
C179 C177 1.400 . S
C179 C178 1.387 . S
N180 Co171 2.022 . S
N180 C177 1.351 . S
N180 N181 1.365 . S
N181 C178 1.341 . S
N181 N180 1.365 . S
N181 H201 0.862 . S
C182 C177 1.501 . S
C182 H183 0.961 . S
C182 H184 0.961 1_545 S
C182 H185 0.960 . S
H183 C182 0.961 . S
H184 C182 0.961 1_565 S
H185 C182 0.960 . S
C186 N187 1.342 . S
C186 C190 1.401 . S
C186 C191 1.499 . S
N187 Co170 1.989 . S
N187 C186 1.342 . S
N187 N188 1.388 . S
N188 Co171 1.993 . S
N188 N187 1.388 . S
N188 C189 1.346 . S
C189 N188 1.346 . S
C189 C190 1.396 . S
C189 C199 1.510 . S
C190 C186 1.401 . S
C190 C189 1.396 . S
C191 C186 1.499 . S
C191 H192 0.959 . S
C191 H193 0.960 . S
C191 H194 0.961 . S
H192 C191 0.959 . S
H193 C191 0.960 . S
H194 C191 0.961 . S
O195 Co170 1.967 . S
O195 C203 1.258 . S
O196 Co171 1.941 . S
O196 C203 1.266 . S
H197 C199 0.959 . S
H198 C199 0.961 1_565 S
C199 C189 1.510 . S
C199 H197 0.959 . S
C199 H198 0.961 1_545 S
C199 H200 0.960 . S
H200 C199 0.960 . S
H201 N181 0.862 . S
O202 Co170 1.920 . S
O202 C175 1.289 . S
C203 O195 1.258 . S
C203 O196 1.266 . S
C204 C205 1.387 . S
C204 H208 0.950 . S
C204 C213 1.390 . S
C205 C204 1.387 . S
C205 C207 1.387 . S
H206 C213 0.950 . S
C207 C205 1.387 . S
C207 C209 1.390 . S
C207 H211 0.950 1_554 S
H208 C204 0.950 . S
C209 C207 1.390 . S
C209 C210 1.387 . S
C209 H212 0.950 1_554 S
C210 C209 1.387 . S
C210 C213 1.387 . S
H211 C207 0.950 1_556 S
H212 C209 0.950 1_556 S
C213 C204 1.390 . S
C213 H206 0.950 . S
C213 C210 1.387 . S
C214 C215 1.387 . S
C214 H218 0.950 . S
C214 C223 1.390 1_655 S
C215 C214 1.387 . S
C215 C217 1.387 . S
H216 C223 0.950 . S
C217 C215 1.387 . S
C217 C219 1.390 1_655 S
C217 H221 0.950 . S
H218 C214 0.950 . S
C219 C217 1.390 1_455 S
C219 C220 1.387 . S
C219 H222 0.950 . S
C220 C219 1.387 . S
C220 C223 1.387 . S
H221 C217 0.950 . S
H222 C219 0.950 . S
C223 C214 1.390 1_455 S
C223 H216 0.950 . S
C223 C220 1.387 . S
C224 C225 1.387 . S
C224 H228 0.950 . S
C224 C233 1.390 1_545 S
C225 C224 1.387 . S
C225 C227 1.387 . S
H226 C233 0.950 . S
C227 C225 1.387 . S
C227 C229 1.390 1_545 S
C227 H231 0.950 . S
H228 C224 0.950 . S
C229 C227 1.390 1_565 S
C229 C230 1.387 . S
C229 H232 0.950 . S
C230 C229 1.387 . S
C230 C233 1.387 . S
H231 C227 0.950 . S
H232 C229 0.950 . S
C233 C224 1.390 1_565 S
C233 H226 0.950 . S
C233 C230 1.387 . S
C234 C235 1.387 . S
C234 H238 0.950 . S
C234 C243 1.390 . S
C235 C234 1.387 . S
C235 C237 1.387 . S
H236 C243 0.950 . S
C237 C235 1.387 . S
C237 C239 1.390 . S
C237 H241 0.950 . S
H238 C234 0.950 . S
C239 C237 1.390 . S
C239 C240 1.387 . S
C239 H242 0.950 . S
C240 C239 1.387 . S
C240 C243 1.387 . S
H241 C237 0.950 . S
H242 C239 0.950 . S
C243 C234 1.390 . S
C243 H236 0.950 . S
C243 C240 1.387 . S
C244 C245 1.387 . S
C244 H248 0.950 . S
C244 C253 1.390 1_655 S
C245 C244 1.387 . S
C245 C247 1.387 1_554 S
H246 C253 0.950 . S
C247 C245 1.387 1_556 S
C247 C249 1.390 1_655 S
C247 H251 0.950 . S
H248 C244 0.950 . S
C249 C247 1.390 1_455 S
C249 C250 1.387 1_556 S
C249 H252 0.950 . S
C250 C249 1.387 1_554 S
C250 C253 1.387 . S
H251 C247 0.950 . S
H252 C249 0.950 . S
C253 C244 1.390 1_455 S
C253 H246 0.950 . S
C253 C250 1.387 . S
C254 C255 1.387 . S
C254 H258 0.950 . S
C254 C263 1.390 1_565 S
C255 C254 1.387 . S
C255 C257 1.387 . S
H256 C263 0.950 . S
C257 C255 1.387 . S
C257 C259 1.390 1_565 S
C257 H261 0.950 . S
H258 C254 0.950 . S
C259 C257 1.390 1_545 S
C259 C260 1.387 . S
C259 H262 0.950 . S
C260 C259 1.387 . S
C260 C263 1.387 . S
H261 C257 0.950 . S
H262 C259 0.950 . S
C263 C254 1.390 1_545 S
C263 H256 0.950 . S
C263 C260 1.387 . S
C264 C265 1.387 . S
C264 H268 0.950 . S
C264 C273 1.390 1_445 S
C265 C264 1.387 . S
C265 C267 1.387 1_554 S
H266 C273 0.950 . S
C267 C265 1.387 1_556 S
C267 C269 1.390 1_445 S
C267 H271 0.950 . S
H268 C264 0.950 . S
C269 C267 1.390 1_665 S
C269 C270 1.387 1_556 S
C269 H272 0.950 . S
C270 C269 1.387 1_554 S
C270 C273 1.387 . S
H271 C267 0.950 . S
H272 C269 0.950 . S
C273 C264 1.390 1_665 S
C273 H266 0.950 . S
C273 C270 1.387 . S
C274 C275 1.387 . S
C274 H278 0.950 . S
C274 C283 1.390 1_465 S
C275 C274 1.387 . S
C275 C277 1.387 . S
H276 C283 0.950 . S
C277 C275 1.387 . S
C277 C279 1.390 1_465 S
C277 H281 0.950 . S
H278 C274 0.950 . S
C279 C277 1.390 1_645 S
C279 C280 1.387 . S
C279 H282 0.950 . S
C280 C279 1.387 . S
C280 C283 1.387 . S
H281 C277 0.950 . S
H282 C279 0.950 . S
C283 C274 1.390 1_645 S
C283 H276 0.950 . S
C283 C280 1.387 . S
C284 C285 1.387 . S
C284 H288 0.950 . S
C284 C293 1.390 1_445 S
C285 C284 1.387 . S
C285 C287 1.387 . S
H286 C293 0.950 . S
C287 C285 1.387 . S
C287 C289 1.390 1_445 S
C287 H291 0.950 . S
H288 C284 0.950 . S
C289 C287 1.390 1_665 S
C289 C290 1.387 . S
C289 H292 0.950 . S
C290 C289 1.387 . S
C290 C293 1.387 . S
H291 C287 0.950 . S
H292 C289 0.950 . S
C293 C284 1.390 1_665 S
C293 H286 0.950 . S
C293 C290 1.387 . S
C294 C295 1.387 . S
C294 H298 0.950 . S
C294 C303 1.390 . S
C295 C294 1.387 . S
C295 C297 1.387 . S
H296 C303 0.950 . S
C297 C295 1.387 . S
C297 C299 1.390 . S
C297 H301 0.950 . S
H298 C294 0.950 . S
C299 C297 1.390 . S
C299 C300 1.387 . S
C299 H302 0.950 . S
C300 C299 1.387 . S
C300 C303 1.387 . S
H301 C297 0.950 . S
H302 C299 0.950 . S
C303 C294 1.390 . S
C303 H296 0.950 . S
C303 C300 1.387 . S
C304 C305 1.387 . S
C304 H308 0.950 . S
C304 C313 1.390 . S
C305 C304 1.387 . S
C305 C307 1.387 . S
H306 C313 0.950 1_655 S
C307 C305 1.387 . S
C307 C309 1.390 . S
C307 H311 0.950 . S
H308 C304 0.950 . S
C309 C307 1.390 . S
C309 C310 1.387 . S
C309 H312 0.950 . S
C310 C309 1.387 . S
C310 C313 1.387 . S
H311 C307 0.950 . S
H312 C309 0.950 . S
C313 C304 1.390 . S
C313 H306 0.950 1_455 S
C313 C310 1.387 . S
C314 C315 1.387 . S
C314 H318 0.950 . S
C314 C323 1.390 . S
C315 C314 1.387 . S
C315 C317 1.387 . S
H316 C323 0.950 1_565 S
C317 C315 1.387 . S
C317 C319 1.390 . S
C317 H321 0.950 . S
H318 C314 0.950 . S
C319 C317 1.390 . S
C319 C320 1.387 . S
C319 H322 0.950 . S
C320 C319 1.387 . S
C320 C323 1.387 . S
H321 C317 0.950 . S
H322 C319 0.950 . S
C323 C314 1.390 . S
C323 H316 0.950 1_545 S
C323 C320 1.387 . S
C324 C325 1.387 . S
C324 H328 0.950 . S
C324 C333 1.390 . S
C325 C324 1.387 . S
C325 C327 1.387 . S
H326 C333 0.950 . S
C327 C325 1.387 . S
C327 C329 1.390 . S
C327 H331 0.950 . S
H328 C324 0.950 . S
C329 C327 1.390 . S
C329 C330 1.387 . S
C329 H332 0.950 . S
C330 C329 1.387 . S
C330 C333 1.387 . S
H331 C327 0.950 . S
H332 C329 0.950 . S
C333 C324 1.390 . S
C333 H326 0.950 . S
C333 C330 1.387 . S
C334 C335 1.387 . S
C334 H338 0.950 . S
C334 C343 1.390 . S
C335 C334 1.387 . S
C335 C337 1.387 . S
H336 C343 0.950 . S
C337 C335 1.387 . S
C337 C339 1.390 . S
C337 H341 0.950 . S
H338 C334 0.950 . S
C339 C337 1.390 . S
C339 C340 1.387 . S
C339 H342 0.950 1_655 S
C340 C339 1.387 . S
C340 C343 1.387 . S
H341 C337 0.950 . S
H342 C339 0.950 1_455 S
C343 C334 1.390 . S
C343 H336 0.950 . S
C343 C340 1.387 . S
C344 C345 1.387 . S
C344 H348 0.950 . S
C344 C353 1.390 . S
C345 C344 1.387 . S
C345 C347 1.387 . S
H346 C353 0.950 . S
C347 C345 1.387 . S
C347 C349 1.390 . S
C347 H351 0.950 . S
H348 C344 0.950 . S
C349 C347 1.390 . S
C349 C350 1.387 . S
C349 H352 0.950 . S
C350 C349 1.387 . S
C350 C353 1.387 . S
H351 C347 0.950 . S
H352 C349 0.950 . S
C353 C344 1.390 . S
C353 H346 0.950 . S
C353 C350 1.387 . S
C205 C2 1.532 . S
C210 C104 1.532 . S
C215 C36 1.532 . S
C220 C138 1.532 . S
C225 C172 1.530 . S
C230 C70 1.530 . S
C235 C101 1.935 . S
C240 C203 1.935 . S
C245 C135 1.934 . S
C250 C33 1.934 . S
C255 C169 1.935 . S
C260 C67 1.935 . S
C265 C20 0.370 . S
C270 C122 0.370 . S
C275 C156 0.382 . S
C280 C54 0.382 . S
C285 C190 0.370 . S
C290 C88 0.370 . S
C295 C9 1.674 . S
C300 C175 1.700 . S
C305 C5 1.698 . S
C310 C43 1.675 1_455 S
C315 C39 1.699 . S
C320 C77 1.674 1_545 S
C325 C73 1.698 . S
C330 C111 1.676 . S
C335 C107 1.700 . S
C340 C145 1.674 1_655 S
C345 C179 1.674 1_565 S
C350 C141 1.700 . S
