# Generated by pormake.
# Topology svf, (7)-cn, num edge types: 1
# Building blocks:
#     Node 0, Type 0, BuildingBlock: HICVOG_clean_sbu_0, # of connection points: 7
#     Node 1, Type 0, BuildingBlock: HICVOG_clean_sbu_0, # of connection points: 7
#     Node 2, Type 0, BuildingBlock: HICVOG_clean_sbu_0, # of connection points: 7
#     Node 3, Type 0, BuildingBlock: HICVOG_clean_sbu_0, # of connection points: 7
#     Node 4, Type 0, BuildingBlock: HICVOG_clean_sbu_0, # of connection points: 7
#     Node 5, Type 0, BuildingBlock: HICVOG_clean_sbu_0, # of connection points: 7
#     Node 6, Type 0, BuildingBlock: HICVOG_clean_sbu_0, # of connection points: 7
#     Node 7, Type 0, BuildingBlock: HICVOG_clean_sbu_0, # of connection points: 7
#     Edge 8, Type (0, 0), BuildingBlock: CIFDUS_clean_linker_0, # of connection points: 2
#     Edge 9, Type (0, 0), BuildingBlock: CIFDUS_clean_linker_0, # of connection points: 2
#     Edge 10, Type (0, 0), BuildingBlock: CIFDUS_clean_linker_0, # of connection points: 2
#     Edge 11, Type (0, 0), BuildingBlock: CIFDUS_clean_linker_0, # of connection points: 2
#     Edge 12, Type (0, 0), BuildingBlock: CIFDUS_clean_linker_0, # of connection points: 2
#     Edge 13, Type (0, 0), BuildingBlock: CIFDUS_clean_linker_0, # of connection points: 2
#     Edge 14, Type (0, 0), BuildingBlock: CIFDUS_clean_linker_0, # of connection points: 2
#     Edge 15, Type (0, 0), BuildingBlock: CIFDUS_clean_linker_0, # of connection points: 2
#     Edge 16, Type (0, 0), BuildingBlock: CIFDUS_clean_linker_0, # of connection points: 2
#     Edge 17, Type (0, 0), BuildingBlock: CIFDUS_clean_linker_0, # of connection points: 2
#     Edge 18, Type (0, 0), BuildingBlock: CIFDUS_clean_linker_0, # of connection points: 2
#     Edge 19, Type (0, 0), BuildingBlock: CIFDUS_clean_linker_0, # of connection points: 2
#     Edge 20, Type (0, 0), BuildingBlock: CIFDUS_clean_linker_0, # of connection points: 2
#     Edge 21, Type (0, 0), BuildingBlock: CIFDUS_clean_linker_0, # of connection points: 2
#     Edge 22, Type (0, 0), BuildingBlock: CIFDUS_clean_linker_0, # of connection points: 2
#     Edge 23, Type (0, 0), BuildingBlock: CIFDUS_clean_linker_0, # of connection points: 2
#     Edge 24, Type (0, 0), BuildingBlock: CIFDUS_clean_linker_0, # of connection points: 2
#     Edge 25, Type (0, 0), BuildingBlock: CIFDUS_clean_linker_0, # of connection points: 2
#     Edge 26, Type (0, 0), BuildingBlock: CIFDUS_clean_linker_0, # of connection points: 2
#     Edge 27, Type (0, 0), BuildingBlock: CIFDUS_clean_linker_0, # of connection points: 2
#     Edge 28, Type (0, 0), BuildingBlock: CIFDUS_clean_linker_0, # of connection points: 2
#     Edge 29, Type (0, 0), BuildingBlock: CIFDUS_clean_linker_0, # of connection points: 2
#     Edge 30, Type (0, 0), BuildingBlock: CIFDUS_clean_linker_0, # of connection points: 2
#     Edge 31, Type (0, 0), BuildingBlock: CIFDUS_clean_linker_0, # of connection points: 2
#     Edge 32, Type (0, 0), BuildingBlock: CIFDUS_clean_linker_0, # of connection points: 2
#     Edge 33, Type (0, 0), BuildingBlock: CIFDUS_clean_linker_0, # of connection points: 2
#     Edge 34, Type (0, 0), BuildingBlock: CIFDUS_clean_linker_0, # of connection points: 2
#     Edge 35, Type (0, 0), BuildingBlock: CIFDUS_clean_linker_0, # of connection points: 2
# Relax obj value: 0.377
# Max RMSD: 0.195
# Mean RMSD: 0.195
data_MOF--net-svf--node1-HICVOG_clean_sbu_0--edge1-CIFDUS_clean_linker_0
_symmetry_space_group_name_H-M    P1
_symmetry_Int_Tables_number       1
_symmetry_cell_setting            triclinic
loop_
_symmetry_equiv_pos_as_xyz
'x, y, z'
_cell_length_a     29.570175
_cell_length_b     29.359419
_cell_length_c     20.297004
_cell_angle_alpha  90.418074
_cell_angle_beta   90.04808
_cell_angle_gamma 90.009129
loop_
_atom_site_label
_atom_site_type_symbol
_atom_site_fract_x
_atom_site_fract_y
_atom_site_fract_z
_atom_type_partial_charge
Zn0 Zn 0.17558 0.35903 1.05391 0.0
C1 C 0.22464 0.26507 0.17502 0.0
N2 N 0.24021 0.24528 0.11799 0.0
C3 C 0.22014 0.26992 1.06906 0.0
N4 N 0.19288 0.30255 1.09568 0.0
N5 N 0.19558 0.29968 0.16075 0.0
C6 C 0.19551 0.42876 0.24435 0.0
O7 O 0.17823 0.43498 0.18568 0.0
O8 O 0.14948 0.3461 0.96367 0.0
Zn9 Zn 0.15991 0.33812 0.2222 0.0
N10 N 0.23175 0.39337 1.05939 0.0
C11 C 0.29531 0.41185 0.12745 0.0
C12 C 0.25442 0.38943 0.11763 0.0
C13 C 0.24971 0.41778 1.00938 0.0
N14 N 0.31261 0.43727 1.07828 0.0
C15 C 0.29114 0.4403 1.01935 0.0
O16 O 0.10263 0.3725 0.18968 0.0
C17 C 0.09483 0.39778 0.13997 0.0
O18 O 0.12192 0.39747 1.09113 0.0
H19 H 0.24078 0.36959 0.15708 0.0
H20 H 0.23162 0.42039 0.96315 0.0
C21 C 0.14809 0.30328 0.35177 0.0
C22 C 0.14229 0.26764 0.39684 0.0
C23 C 0.12063 0.21865 0.30823 0.0
C24 C 0.12624 0.25416 0.26415 0.0
N25 N 0.14061 0.29534 0.28673 0.0
N26 N 0.12867 0.22624 0.37312 0.0
H27 H 0.16063 0.33627 0.36688 0.0
C28 C 0.11039 0.32897 0.9735 0.0
O29 O 0.09982 0.31574 1.03326 0.0
O30 O 0.19582 0.38874 0.26836 0.0
H31 H 0.12139 0.24849 0.21191 0.0
H32 H 0.31293 0.40941 0.17403 0.0
H33 H 0.11019 0.18528 0.29116 0.0
Zn34 Zn 0.67222 0.17294 0.15845 0.0
C35 C 0.72723 0.26246 1.03599 0.0
N36 N 0.74455 0.28139 1.0926 0.0
C37 C 0.72291 0.25865 0.14207 0.0
N38 N 0.69303 0.22801 0.11606 0.0
N39 N 0.69601 0.23006 1.051 0.0
C40 C 0.69297 0.10702 0.96271 0.0
O41 O 0.67859 0.10038 1.02288 0.0
O42 O 0.64302 0.18706 0.24577 0.0
Zn43 Zn 0.65696 0.19617 0.98942 0.0
N44 N 0.72847 0.14001 0.1627 0.0
C45 C 0.79638 0.12095 1.10542 0.0
C46 C 0.75315 0.13953 1.10606 0.0
C47 C 0.74632 0.12447 0.21975 0.0
N48 N 0.8138 0.10419 0.16193 0.0
C49 C 0.79017 0.10602 0.21932 0.0
O50 O 0.59982 0.16128 1.02162 0.0
C51 C 0.59318 0.13355 1.06892 0.0
O52 O 0.62068 0.13263 0.11748 0.0
H53 H 0.73991 0.1545 1.06181 0.0
H54 H 0.72644 0.12613 0.26447 0.0
C55 C 0.64632 0.2401 0.86528 0.0
C56 C 0.64184 0.27906 0.82578 0.0
C57 C 0.6199 0.32162 0.9208 0.0
C58 C 0.62438 0.28293 0.95928 0.0
N59 N 0.63808 0.24326 0.93087 0.0
N60 N 0.62864 0.31875 0.85535 0.0
H61 H 0.65856 0.20812 0.84578 0.0
C62 C 0.60342 0.20246 0.23489 0.0
O63 O 0.59234 0.21361 0.17441 0.0
O64 O 0.69047 0.1468 0.93838 0.0
H65 H 0.61921 0.28487 1.01199 0.0
H66 H 0.81601 0.12004 1.06048 0.0
H67 H 0.60977 0.35371 0.9427 0.0
Zn68 Zn 0.81171 0.62923 1.03065 0.0
C69 C 0.78238 0.72842 0.15849 0.0
N70 N 0.75988 0.74776 1.1072 0.0
C71 C 0.77108 0.7211 1.05441 0.0
N72 N 0.79927 0.68713 1.07358 0.0
N73 N 0.80813 0.69298 0.13694 0.0
C74 C 0.85682 0.62718 0.25605 0.0
O75 O 0.83237 0.61627 0.20442 0.0
O76 O 0.83693 0.64199 0.93874 0.0
Zn77 Zn 0.87131 0.68435 0.1632 0.0
N78 N 0.75461 0.59816 1.04393 0.0
C79 C 0.6987 0.5788 0.12402 0.0
C80 C 0.74015 0.59825 1.10765 0.0
C81 C 0.72842 0.58024 0.99559 0.0
N82 N 0.6728 0.56008 1.07587 0.0
C83 C 0.68631 0.56103 1.01198 0.0
O84 O 0.90844 0.62815 0.12799 0.0
C85 C 0.89954 0.59092 1.09767 0.0
O86 O 0.86227 0.58626 1.0664 0.0
H87 H 0.76034 0.61388 0.14564 0.0
H88 H 0.74056 0.58032 0.94526 0.0
C89 C 0.93164 0.76231 0.17615 0.0
C90 C 0.95047 0.80387 0.15587 0.0
C91 C 0.90719 0.80125 1.05851 0.0
C92 C 0.88766 0.76062 1.07929 0.0
N93 N 0.90077 0.74119 0.13716 0.0
N94 N 0.93813 0.82224 1.09745 0.0
H95 H 0.94083 0.74736 0.22291 0.0
C96 C 0.87466 0.66102 0.95222 0.0
O97 O 0.88378 0.66988 1.01404 0.0
O98 O 0.87472 0.66666 0.25878 0.0
H99 H 0.86181 0.7454 1.04921 0.0
H100 H 0.68728 0.57848 0.17463 0.0
H101 H 0.89714 0.81644 1.01235 0.0
Zn102 Zn 0.36283 0.84702 1.03561 0.0
C103 C 0.26703 0.81236 0.16407 0.0
N104 N 0.24658 0.79173 0.11175 0.0
C105 C 0.2716 0.80504 1.05898 0.0
N106 N 0.30563 0.83335 1.07898 0.0
N107 N 0.30194 0.83882 0.1436 0.0
C108 C 0.39566 0.86879 0.25552 0.0
O109 O 0.40455 0.86448 0.19265 0.0
O110 O 0.3527 0.86738 0.94258 0.0
Zn111 Zn 0.32156 0.89475 0.18778 0.0
N112 N 0.39455 0.78994 1.04918 0.0
C113 C 0.41076 0.73127 0.12674 0.0
C114 C 0.39333 0.77404 0.11209 0.0
C115 C 0.41065 0.76335 0.99961 0.0
N116 N 0.42767 0.70508 1.0775 0.0
C117 C 0.42721 0.71966 1.01416 0.0
O118 O 0.366 0.9397 0.14347 0.0
C119 C 0.39813 0.93806 1.10167 0.0
O120 O 0.40296 0.90291 1.06482 0.0
H121 H 0.37738 0.79347 0.1506 0.0
H122 H 0.41038 0.77596 0.94961 0.0
C123 C 0.23665 0.92318 0.24608 0.0
C124 C 0.19299 0.94219 0.2417 0.0
C125 C 0.20898 0.96587 0.13271 0.0
C126 C 0.25236 0.94784 0.13787 0.0
N127 N 0.26535 0.92703 0.19438 0.0
N128 N 0.18057 0.96324 0.18494 0.0
H129 H 0.24831 0.9065 0.29032 0.0
C130 C 0.32312 0.89879 0.94345 0.0
O131 O 0.29379 0.8998 0.99186 0.0
O132 O 0.35596 0.88112 0.27251 0.0
H133 H 0.27531 0.94935 1.0966 0.0
H134 H 0.41026 0.71873 0.17672 0.0
H135 H 0.19816 0.98237 1.0879 0.0
Zn136 Zn 0.17824 0.67747 0.68548 0.0
C137 C 0.22732 0.7656 0.5581 0.0
N138 N 0.2513 0.77982 0.61182 0.0
C139 C 0.22977 0.75999 0.66346 0.0
N140 N 0.1951 0.73344 0.64165 0.0
N141 N 0.19317 0.73737 0.57677 0.0
C142 C 0.18388 0.65775 0.44958 0.0
O143 O 0.19423 0.64824 0.5108 0.0
O144 O 0.1417 0.69054 0.76727 0.0
Zn145 Zn 0.14031 0.7177 0.52777 0.0
N146 N 0.23767 0.65245 0.69875 0.0
C147 C 0.30991 0.64114 0.64908 0.0
C148 C 0.26449 0.65288 0.64424 0.0
C149 C 0.25477 0.64131 0.7584 0.0
N150 N 0.32666 0.62819 0.70811 0.0
C151 C 0.30037 0.62825 0.76303 0.0
O152 O 0.10207 0.66235 0.55811 0.0
C153 C 0.10568 0.62868 0.59716 0.0
O154 O 0.13663 0.62823 0.64111 0.0
H155 H 0.2511 0.66373 0.5976 0.0
H156 H 0.23276 0.64118 0.80101 0.0
C157 C 0.08619 0.7916 0.47587 0.0
C158 C 0.06537 0.83459 0.48058 0.0
C159 C 0.07943 0.8361 0.59517 0.0
C160 C 0.10109 0.79406 0.59001 0.0
N161 N 0.10372 0.77237 0.53059 0.0
N162 N 0.06183 0.8554 0.54038 0.0
H163 H 0.08883 0.77361 0.42928 0.0
C164 C 0.10146 0.70043 0.74992 0.0
O165 O 0.09301 0.70703 0.6873 0.0
O166 O 0.15995 0.693 0.43873 0.0
H167 H 0.11668 0.7795 0.63299 0.0
H168 H 0.33151 0.64158 0.6061 0.0
H169 H 0.077 0.85343 0.64224 0.0
Zn170 Zn 0.33032 0.13378 0.54476 0.0
C171 C 0.28292 0.22524 0.67645 0.0
N172 N 0.26001 0.24315 0.62424 0.0
C173 C 0.27709 0.22055 0.57033 0.0
N174 N 0.30894 0.18977 0.58976 0.0
N175 N 0.31373 0.19411 0.65446 0.0
C176 C 0.33478 0.1471 0.80592 0.0
O177 O 0.30169 0.143 0.76331 0.0
O178 O 0.35117 0.14916 0.45282 0.0
Zn179 Zn 0.37262 0.18054 0.6933 0.0
N180 N 0.28043 0.09315 0.56173 0.0
C181 C 0.24437 0.05263 0.64856 0.0
C182 C 0.2807 0.07789 0.62487 0.0
C183 C 0.24492 0.08437 0.52131 0.0
N184 N 0.20901 0.04337 0.60803 0.0
C185 C 0.20797 0.05915 0.54521 0.0
O186 O 0.40655 0.12085 0.67193 0.0
C187 C 0.41112 0.09192 0.62553 0.0
O188 O 0.38592 0.09476 0.57489 0.0
H189 H 0.30878 0.08606 0.65697 0.0
H190 H 0.24592 0.09564 0.47078 0.0
C191 C 0.45403 0.21812 0.64296 0.0
C192 C 0.47939 0.24755 0.60261 0.0
C193 C 0.41621 0.29712 0.59665 0.0
C194 C 0.39148 0.2679 0.63663 0.0
N195 N 0.41075 0.22881 0.65894 0.0
N196 N 0.45953 0.2865 0.58097 0.0
H197 H 0.46818 0.18688 0.66176 0.0
C198 C 0.38671 0.17288 0.46267 0.0
O199 O 0.39634 0.18554 0.52324 0.0
O200 O 0.36843 0.17201 0.79118 0.0
H201 H 0.35662 0.27571 0.64723 0.0
H202 H 0.24439 0.04027 0.69864 0.0
H203 H 0.40108 0.32803 0.57811 0.0
Zn204 Zn 0.88677 0.33715 0.53493 0.0
C205 C 0.78016 0.3026 0.6402 0.0
N206 N 0.76384 0.28252 0.5838 0.0
C207 C 0.79087 0.29933 0.53481 0.0
N208 N 0.82346 0.32684 0.56155 0.0
N209 N 0.81506 0.33063 0.62533 0.0
C210 C 0.88882 0.35012 0.75188 0.0
O211 O 0.89809 0.33716 0.69136 0.0
O212 O 0.88996 0.35753 0.4403 0.0
Zn213 Zn 0.82788 0.38718 0.67156 0.0
N214 N 0.91731 0.28155 0.56177 0.0
C215 C 0.91144 0.2067 0.60561 0.0
C216 C 0.89255 0.24313 0.57176 0.0
C217 C 0.96053 0.28457 0.58384 0.0
N218 N 0.9548 0.20953 0.62698 0.0
C219 C 0.98034 0.24748 0.6173 0.0
O220 O 0.87979 0.42991 0.64288 0.0
C221 C 0.91667 0.42682 0.6107 0.0
O222 O 0.92434 0.39186 0.57474 0.0
H223 H 0.8579 0.24104 0.55568 0.0
H224 H 0.97889 0.31562 0.57438 0.0
C225 C 0.74455 0.43911 0.70372 0.0
C226 C 0.70318 0.45897 0.68479 0.0
C227 C 0.71832 0.44112 0.57359 0.0
C228 C 0.75876 0.42075 0.59244 0.0
N229 N 0.77161 0.42041 0.65693 0.0
N230 N 0.69145 0.46011 0.62017 0.0
H231 H 0.75511 0.4387 0.75481 0.0
C232 C 0.87216 0.3969 0.44557 0.0
O233 O 0.85057 0.40754 0.49984 0.0
O234 O 0.85208 0.37186 0.76244 0.0
H235 H 0.77929 0.40455 0.5556 0.0
H236 H 0.89188 0.17621 0.61445 0.0
H237 H 0.70826 0.44163 0.52234 0.0
Zn238 Zn 0.69179 0.85556 0.53214 0.0
C239 C 0.72732 0.75938 0.65915 0.0
N240 N 0.74741 0.73863 0.60665 0.0
C241 C 0.7341 0.76411 0.55411 0.0
N242 N 0.70632 0.79848 0.57445 0.0
N243 N 0.70158 0.79493 0.63902 0.0
C244 C 0.68161 0.87831 0.75815 0.0
O245 O 0.69001 0.88792 0.69634 0.0
O246 O 0.66317 0.84455 0.44296 0.0
Zn247 Zn 0.64614 0.81231 0.68346 0.0
N248 N 0.74942 0.88665 0.53553 0.0
C249 C 0.81572 0.90245 0.59901 0.0
C250 C 0.77309 0.88264 0.59286 0.0
C251 C 0.76738 0.90878 0.48347 0.0
N252 N 0.83329 0.92552 0.54745 0.0
C253 C 0.81041 0.92848 0.48962 0.0
O254 O 0.60212 0.86175 0.64525 0.0
C255 C 0.60692 0.89571 0.60679 0.0
O256 O 0.64175 0.89855 0.56981 0.0
H257 H 0.75936 0.8638 0.63354 0.0
H258 H 0.74812 0.91156 0.43827 0.0
C259 C 0.6059 0.73234 0.74249 0.0
C260 C 0.58986 0.68729 0.73975 0.0
C261 C 0.59897 0.68647 0.62416 0.0
C262 C 0.61446 0.73123 0.6269 0.0
N263 N 0.61689 0.75364 0.68578 0.0
N264 N 0.58618 0.66571 0.68053 0.0
H265 H 0.60863 0.75066 0.78882 0.0
C266 C 0.62399 0.82847 0.45458 0.0
O267 O 0.6148 0.8149 0.51447 0.0
O268 O 0.6619 0.84083 0.771 0.0
H269 H 0.62588 0.74741 0.58253 0.0
H270 H 0.83454 0.89976 0.64454 0.0
H271 H 0.59679 0.66849 0.57755 0.0
H272 H 0.0394 0.42882 1.0396 0.0
H273 H 0.06591 0.44656 0.24703 0.0
H274 H 0.01022 0.50818 0.25245 0.0
H275 H 0.955 0.55959 0.19758 0.0
H276 H 0.92182 0.53589 0.99348 0.0
H277 H 0.97856 0.47517 0.98737 0.0
C278 C 0.03278 0.44595 1.08611 0.0
C279 C 0.05731 0.43272 0.14286 0.0
C280 C 0.99945 0.48094 1.08937 0.0
C281 C 0.04764 0.4554 0.20263 0.0
C282 C 0.01584 0.49104 0.20569 0.0
C283 C 0.95999 0.541 0.15183 0.0
C284 C 0.93397 0.55289 1.09588 0.0
C285 C 0.9917 0.50453 0.14932 0.0
C286 C 0.94102 0.52781 1.03735 0.0
C287 C 0.97367 0.49295 1.0338 0.0
H288 H 0.44334 0.98188 0.99923 0.0
H289 H 0.43392 0.97802 0.211 0.0
H290 H 0.49233 0.0366 0.22042 0.0
H291 H 0.5476 0.08934 0.16923 0.0
H292 H 0.55324 0.09816 0.95755 0.0
H293 H 0.49564 0.03856 0.94771 0.0
C294 C 0.45415 0.9938 1.04741 0.0
C295 C 0.43401 0.97486 1.10438 0.0
C296 C 0.48741 0.02896 1.05267 0.0
C297 C 0.44834 0.99166 0.16622 0.0
C298 C 0.48203 0.0253 0.17172 0.0
C299 C 0.5362 0.07839 0.12086 0.0
C300 C 0.55538 0.09869 1.06423 0.0
C301 C 0.50201 0.04432 0.11542 0.0
C302 C 0.53935 0.08383 1.0022 0.0
C303 C 0.50634 0.04933 0.99647 0.0
H304 H 0.05407 0.58655 0.69269 0.0
H305 H 0.08304 0.58225 0.48485 0.0
H306 H 0.0299 0.51879 0.47034 0.0
H307 H 0.97362 0.46414 0.51642 0.0
H308 H 0.93886 0.4743 0.72212 0.0
H309 H 0.99495 0.53478 0.73754 0.0
C310 C 0.049 0.57148 0.64431 0.0
C311 C 0.07332 0.58908 0.59006 0.0
C312 C 0.01686 0.53569 0.63583 0.0
C313 C 0.06521 0.56955 0.52756 0.0
C314 C 0.03468 0.53308 0.51923 0.0
C315 C 0.97842 0.47946 0.56468 0.0
C316 C 0.95183 0.46401 0.61814 0.0
C317 C 0.01009 0.51575 0.5729 0.0
C318 C 0.95844 0.48516 0.67996 0.0
C319 C 0.99076 0.51989 0.68891 0.0
H320 H 0.55533 0.93777 0.70438 0.0
H321 H 0.57501 0.93447 0.49413 0.0
H322 H 0.51579 0.99187 0.48017 0.0
H323 H 0.45827 0.04503 0.5275 0.0
H324 H 0.44438 0.05391 0.73858 0.0
H325 H 0.50029 0.99346 0.752 0.0
C326 C 0.54656 0.94949 0.65548 0.0
C327 C 0.56992 0.93117 0.60036 0.0
C328 C 0.51305 0.98407 0.64779 0.0
C329 C 0.55811 0.94767 0.53759 0.0
C330 C 0.52397 0.98065 0.52951 0.0
C331 C 0.46726 0.03364 0.57648 0.0
C332 C 0.44604 0.05422 0.63187 0.0
C333 C 0.50116 0.99943 0.58418 0.0
C334 C 0.45934 0.03904 0.69478 0.0
C335 C 0.49164 1.00422 0.70261 0.0
H336 H 0.2234 0.57569 0.46614 0.0
H337 H 0.16392 0.66148 0.31743 0.0
H338 H 0.16819 0.59859 0.23768 0.0
H339 H 0.18048 0.51738 0.21487 0.0
H340 H 0.23426 0.43054 0.36692 0.0
H341 H 0.24094 0.49625 0.44097 0.0
C342 C 0.21189 0.58103 0.41604 0.0
C343 C 0.19284 0.62313 0.39792 0.0
C344 C 0.21313 0.54446 0.37139 0.0
C345 C 0.17842 0.62936 0.3327 0.0
C346 C 0.18073 0.59337 0.28725 0.0
C347 C 0.1944 0.51283 0.26383 0.0
C348 C 0.20658 0.46898 0.28555 0.0
C349 C 0.19676 0.55043 0.30671 0.0
C350 C 0.2245 0.46382 0.34912 0.0
C351 C 0.22816 0.50136 0.3915 0.0
H352 H 0.47508 0.19065 0.4811 0.0
H353 H 0.37522 0.17094 0.32833 0.0
H354 H 0.43393 0.18112 0.24423 0.0
H355 H 0.5137 0.19323 0.21515 0.0
H356 H 0.61386 0.20797 0.36863 0.0
H357 H 0.55444 0.20251 0.45234 0.0
C358 C 0.46591 0.18915 0.42941 0.0
C359 C 0.42078 0.18049 0.41078 0.0
C360 C 0.49981 0.19408 0.3819 0.0
C361 C 0.4097 0.17761 0.34369 0.0
C362 C 0.44322 0.18347 0.29581 0.0
C363 C 0.52247 0.1958 0.26695 0.0
C364 C 0.568 0.20145 0.28594 0.0
C365 C 0.48838 0.19144 0.31446 0.0
C366 C 0.57905 0.20372 0.35307 0.0
C367 C 0.54512 0.20059 0.40075 0.0
H368 H 0.88778 0.48367 0.47738 0.0
H369 H 0.87596 0.39238 0.31068 0.0
H370 H 0.87525 0.45795 0.23606 0.0
H371 H 0.86673 0.53996 0.22156 0.0
H372 H 0.87711 0.63161 0.38813 0.0
H373 H 0.88972 0.56627 0.46105 0.0
C374 C 0.88559 0.47814 0.42454 0.0
C375 C 0.88085 0.43367 0.39901 0.0
C376 C 0.88428 0.51568 0.38289 0.0
C377 C 0.87931 0.42647 0.33087 0.0
C378 C 0.87854 0.46385 0.28863 0.0
C379 C 0.8721 0.54576 0.27384 0.0
C380 C 0.87001 0.59021 0.3002 0.0
C381 C 0.87912 0.50843 0.31457 0.0
C382 C 0.87821 0.59754 0.36734 0.0
C383 C 0.88527 0.5603 0.40868 0.0
H384 H 0.53551 0.83542 0.48473 0.0
H385 H 0.62806 0.83553 0.32028 0.0
H386 H 0.56456 0.84758 0.24459 0.0
H387 H 0.48384 0.85868 0.22618 0.0
H388 H 0.39137 0.86269 0.39073 0.0
H389 H 0.45453 0.84849 0.46638 0.0
C390 C 0.54182 0.83753 0.43219 0.0
C391 C 0.58632 0.83392 0.40774 0.0
C392 C 0.50544 0.84542 0.38956 0.0
C393 C 0.59408 0.83792 0.33994 0.0
C394 C 0.55786 0.84486 0.2969 0.0
C395 C 0.47722 0.85626 0.27859 0.0
C396 C 0.43279 0.86113 0.30287 0.0
C397 C 0.51353 0.84875 0.32132 0.0
C398 C 0.42513 0.85866 0.37091 0.0
C399 C 0.4612 0.85057 0.41399 0.0
H400 H 0.67076 0.42282 0.79631 0.0
H401 H 0.67261 0.5456 0.68137 0.0
H402 H 0.65018 0.59038 0.77791 0.0
H403 H 0.65599 0.59541 0.89816 0.0
H404 H 0.66064 0.47296 1.01337 0.0
H405 H 0.65272 0.4266 0.91375 0.0
C406 C 0.66432 0.45909 0.79219 0.0
C407 C 0.67468 0.48158 0.7336 0.0
C408 C 0.65302 0.48446 0.84808 0.0
C409 C 0.66549 0.52817 0.72709 0.0
C410 C 0.65294 0.55369 0.78219 0.0
C411 C 0.65268 0.55867 0.90125 0.0
C412 C 0.66028 0.53711 0.9615 0.0
C413 C 0.65036 0.53253 0.84374 0.0
C414 C 0.65545 0.4898 0.96663 0.0
C415 C 0.65146 0.46337 0.90973 0.0
H416 H 0.50476 0.65988 0.74761 0.0
H417 H 0.62726 0.67383 0.86086 0.0
H418 H 0.58388 0.6706 0.96336 0.0
H419 H 0.51127 0.68752 1.01579 0.0
H420 H 0.38975 0.69097 0.89868 0.0
H421 H 0.43157 0.66304 0.80257 0.0
C422 C 0.52187 0.66015 0.79497 0.0
C423 C 0.56857 0.66765 0.79774 0.0
C424 C 0.49642 0.66278 0.85268 0.0
C425 C 0.59105 0.66833 0.85854 0.0
C426 C 0.56622 0.66704 0.91678 0.0
C427 C 0.49395 0.68054 0.96963 0.0
C428 C 0.44821 0.6918 0.96295 0.0
C429 C 0.51882 0.66798 0.914 0.0
C430 C 0.42537 0.68298 0.90369 0.0
C431 C 0.44925 0.66721 0.84904 0.0
H432 H 0.29935 0.5303 1.03005 0.0
H433 H 0.32234 0.41687 0.89848 0.0
H434 H 0.34126 0.46922 0.80918 0.0
H435 H 0.33561 0.54565 0.76479 0.0
H436 H 0.29822 0.65806 0.89107 0.0
H437 H 0.30223 0.60843 0.98761 0.0
C438 C 0.30957 0.51742 0.98205 0.0
C439 C 0.30923 0.47049 0.96952 0.0
C440 C 0.3177 0.54762 0.93062 0.0
C441 C 0.32212 0.45325 0.90792 0.0
C442 C 0.3329 0.48305 0.85732 0.0
C443 C 0.32999 0.55948 0.81387 0.0
C444 C 0.31631 0.6048 0.82168 0.0
C445 C 0.32867 0.53015 0.86742 0.0
C446 C 0.30852 0.62287 0.88476 0.0
C447 C 0.31042 0.5945 0.93948 0.0
H448 H 0.54234 0.31341 0.58618 0.0
H449 H 0.52966 0.16746 0.59768 0.0
H450 H 0.60151 0.16308 0.65596 0.0
H451 H 0.64286 0.20358 0.74205 0.0
H452 H 0.64915 0.3505 0.74027 0.0
H453 H 0.6075 0.35146 0.63711 0.0
C454 C 0.55628 0.28036 0.59849 0.0
C455 C 0.52882 0.24135 0.59474 0.0
C456 C 0.59618 0.27854 0.63545 0.0
C457 C 0.54866 0.19854 0.60583 0.0
C458 C 0.58983 0.19601 0.63914 0.0
C459 C 0.63675 0.23596 0.71866 0.0
C460 C 0.64446 0.27726 0.75264 0.0
C461 C 0.61027 0.23633 0.66154 0.0
C462 C 0.64015 0.31824 0.71762 0.0
C463 C 0.61616 0.31887 0.65849 0.0
H464 H 0.71772 0.96148 0.73905 0.0
H465 H 0.66581 0.8738 0.89129 0.0
H466 H 0.67105 0.93664 0.971 0.0
H467 H 0.68168 0.01812 0.99317 0.0
H468 H 0.72788 0.10661 0.83798 0.0
H469 H 0.73402 0.04122 0.76332 0.0
C470 C 0.70798 0.95579 0.78984 0.0
C471 C 0.6907 0.91322 0.80909 0.0
C472 C 0.70982 0.99222 0.83452 0.0
C473 C 0.67877 0.90639 0.87519 0.0
C474 C 0.68168 0.9423 0.92063 0.0
C475 C 0.69383 0.0231 0.94334 0.0
C476 C 0.70391 0.06725 0.92086 0.0
C477 C 0.69583 0.98567 0.90024 0.0
C478 C 0.71964 0.07304 0.85625 0.0
C479 C 0.72302 0.03571 0.81357 0.0
H480 H 0.01396 0.68407 0.71922 0.0
H481 H 0.10337 0.70897 0.88395 0.0
H482 H 0.03969 0.70088 0.95999 0.0
H483 H 0.96039 0.68479 0.97915 0.0
H484 H 0.87059 0.6554 0.81629 0.0
H485 H 0.93341 0.66737 0.73898 0.0
C486 C 0.01944 0.68823 0.77177 0.0
C487 C 0.06321 0.69755 0.79618 0.0
C488 C 0.98294 0.68251 0.815 0.0
C489 C 0.07001 0.70193 0.86424 0.0
C490 C 0.03367 0.69729 0.90752 0.0
C491 C 0.95412 0.68118 0.9267 0.0
C492 C 0.91071 0.6693 0.90337 0.0
C493 C 0.99021 0.68729 0.88335 0.0
C494 C 0.90364 0.66448 0.83535 0.0
C495 C 0.93951 0.67134 0.79136 0.0
H496 H 0.36421 0.06701 0.76403 0.0
H497 H 0.31752 0.13851 0.93698 0.0
H498 H 0.31161 0.06603 0.99621 0.0
H499 H 0.31215 0.98281 0.99346 0.0
H500 H 0.35748 0.91073 0.81962 0.0
H501 H 0.37198 0.98369 0.76489 0.0
C502 C 0.35446 0.06663 0.81551 0.0
C503 C 0.34226 0.10748 0.84718 0.0
C504 C 0.34985 0.02506 0.8478 0.0
C505 C 0.32795 0.10721 0.91278 0.0
C506 C 0.32405 0.06589 0.946 0.0
C507 C 0.32489 0.98299 0.94336 0.0
C508 C 0.33246 0.94171 0.90946 0.0
C509 C 0.33343 0.02465 0.91308 0.0
C510 C 0.35066 0.94228 0.84578 0.0
C511 C 0.35908 0.98382 0.81487 0.0
H512 H 0.97777 0.33599 0.73064 0.0
H513 H 0.88003 0.35435 0.88654 0.0
H514 H 0.9406 0.34776 0.96868 0.0
H515 H 0.02103 0.33783 0.99532 0.0
H516 H 0.11917 0.32461 0.83914 0.0
H517 H 0.05828 0.32824 0.75718 0.0
C518 C 0.96951 0.33818 0.78264 0.0
C519 C 0.92433 0.34519 0.80267 0.0
C520 C 1.00448 0.33536 0.82909 0.0
C521 C 0.91445 0.34883 0.87006 0.0
C522 C 0.94904 0.34505 0.91685 0.0
C523 C 0.02908 0.33529 0.94328 0.0
C524 C 0.07445 0.33039 0.92306 0.0
C525 C 0.99411 0.33838 0.89682 0.0
C526 C 0.08452 0.32825 0.85565 0.0
C527 C 0.04972 0.33024 0.80898 0.0
H528 H 0.14455 0.01615 0.27378 0.0
H529 H 0.17924 0.88255 0.34405 0.0
H530 H 0.16771 0.90769 0.45747 0.0
H531 H 0.17897 0.97339 0.53068 0.0
H532 H 0.1595 0.10914 0.45657 0.0
H533 H 0.13253 0.0782 0.35178 0.0
C534 C 0.14756 0.99199 0.31376 0.0
C535 C 0.16527 0.94842 0.30142 0.0
C536 C 0.14486 1.00794 0.37866 0.0
C537 C 0.16757 0.91691 0.35304 0.0
C538 C 0.16127 0.93145 0.41791 0.0
C539 C 0.16658 0.99601 0.49265 0.0
C540 C 0.17288 0.04315 0.49941 0.0
C541 C 0.15483 0.97796 0.43103 0.0
C542 C 0.1561 0.07255 0.45096 0.0
C543 C 0.14103 0.05484 0.39101 0.0
H544 H 0.14873 0.20278 0.49068 0.0
H545 H 0.14245 0.34895 0.47002 0.0
H546 H 0.10251 0.35533 0.57325 0.0
H547 H 0.04176 0.31796 0.63382 0.0
H548 H 0.03319 0.17141 0.63193 0.0
H549 H 0.10677 0.16647 0.57961 0.0
C550 C 0.13988 0.23623 0.50981 0.0
C551 C 0.14442 0.27465 0.46936 0.0
C552 C 0.11265 0.23935 0.56591 0.0
C553 C 0.13665 0.31804 0.49729 0.0
C554 C 0.11339 0.32187 0.55682 0.0
C555 C 0.05638 0.28489 0.62308 0.0
C556 C 0.02991 0.24535 0.62912 0.0
C557 C 0.0962 0.28246 0.58608 0.0
C558 C 0.05146 0.20276 0.62311 0.0
C559 C 0.09356 0.19983 0.59238 0.0
H560 H 0.82913 0.02427 0.22286 0.0
H561 H 0.79173 0.13865 0.34563 0.0
H562 H 0.80726 0.09406 0.44454 0.0
H563 H 0.81536 0.01856 0.49354 0.0
H564 H 0.84044 0.9018 0.36925 0.0
H565 H 0.84737 0.95114 0.27294 0.0
C566 C 0.82569 0.03967 0.27138 0.0
C567 C 0.80858 0.08395 0.27777 0.0
C568 C 0.83225 1.01317 0.32733 0.0
C569 C 0.80403 0.10405 0.34031 0.0
C570 C 0.81291 0.07866 0.39655 0.0
C571 C 0.82395 1.00446 0.44555 0.0
C572 C 0.82743 0.95729 0.43732 0.0
C573 C 0.82464 0.03256 0.39045 0.0
C574 C 0.83782 0.93839 0.37564 0.0
C575 C 0.84137 0.96647 0.3209 0.0
H576 H 0.09969 0.84009 0.35784 0.0
H577 H 0.98263 0.87401 0.47451 0.0
H578 H 0.93673 0.87977 0.37483 0.0
H579 H 0.92636 0.85223 0.26144 0.0
H580 H 0.04165 0.80899 0.14763 0.0
H581 H 0.09235 0.82981 0.23864 0.0
C582 C 0.06442 0.84993 0.36089 0.0
C583 C 0.04375 0.85456 0.42267 0.0
C584 C 0.03798 0.85042 0.30402 0.0
C585 C 0.99875 0.86931 0.42702 0.0
C586 C 0.97247 0.87211 0.3702 0.0
C587 C 0.96277 0.84907 0.2562 0.0
C588 C 0.98082 0.8286 0.19964 0.0
C589 C 0.99103 0.85916 0.30936 0.0
C590 C 0.02766 0.82451 0.19172 0.0
C591 C 0.05639 0.83613 0.24364 0.0
H592 H 0.26744 0.1677 0.45379 0.0
H593 H 0.26437 0.30644 0.5225 0.0
H594 H 0.25214 0.33265 0.4097 0.0
H595 H 0.24105 0.31688 0.28927 0.0
H596 H 0.23928 0.17796 0.22077 0.0
H597 H 0.25543 0.15165 0.33292 0.0
C598 C 0.26441 0.20358 0.44435 0.0
C599 C 0.26748 0.23461 0.49855 0.0
C600 C 0.25649 0.2187 0.37801 0.0
C601 C 0.26235 0.2812 0.48344 0.0
C602 C 0.2556 0.29642 0.41814 0.0
C603 C 0.2438 0.28081 0.29862 0.0
C604 C 0.23765 0.24975 0.24507 0.0
C605 C 0.25239 0.26562 0.36464 0.0
C606 C 0.24316 0.20312 0.25964 0.0
C607 C 0.25228 0.18791 0.32452 0.0
H608 H 0.80287 0.25974 0.21958 0.0
H609 H 0.65902 0.27879 0.23479 0.0
H610 H 0.66572 0.28939 0.35413 0.0
H611 H 0.71252 0.29511 0.4571 0.0
H612 H 0.85664 0.278 0.44245 0.0
H613 H 0.84996 0.26576 0.3233 0.0
C614 C 0.7729 0.26626 0.24882 0.0
C615 C 0.72992 0.26697 0.21658 0.0
C616 C 0.7772 0.27322 0.31905 0.0
C617 C 0.69217 0.27609 0.25699 0.0
C618 C 0.69613 0.28274 0.32592 0.0
C619 C 0.7426 0.28844 0.42814 0.0
C620 C 0.78545 0.28849 0.46061 0.0
C621 C 0.73841 0.28131 0.35809 0.0
C622 C 0.82342 0.27972 0.42037 0.0
C623 C 0.81949 0.27225 0.35143 0.0
H624 H 0.74329 0.82006 0.44225 0.0
H625 H 0.75518 0.68052 0.5034 0.0
H626 H 0.77248 0.65746 0.39033 0.0
H627 H 0.77956 0.67554 0.27119 0.0
H628 H 0.76806 0.81469 0.20865 0.0
H629 H 0.75335 0.8387 0.3228 0.0
C630 C 0.74866 0.78456 0.43099 0.0
C631 C 0.7465 0.75226 0.48278 0.0
C632 C 0.75857 0.77121 0.36449 0.0
C633 C 0.7561 0.70655 0.46589 0.0
C634 C 0.76592 0.69314 0.40057 0.0
C635 C 0.77566 0.71133 0.28256 0.0
C636 C 0.77673 0.7432 0.2303 0.0
C637 C 0.76697 0.72499 0.34908 0.0
C638 C 0.76825 0.78916 0.2469 0.0
C639 C 0.75969 0.80298 0.31266 0.0
H640 H 0.31942 0.80567 0.27728 0.0
H641 H 0.18119 0.7992 0.21195 0.0
H642 H 0.1565 0.78436 0.32504 0.0
H643 H 0.17368 0.77649 0.44504 0.0
H644 H 0.31196 0.7823 0.50996 0.0
H645 H 0.33647 0.79761 0.39719 0.0
C646 C 0.28373 0.80329 0.28807 0.0
C647 C 0.25229 0.80581 0.23533 0.0
C648 C 0.26951 0.7952 0.35425 0.0
C649 C 0.20638 0.79846 0.25069 0.0
C650 C 0.19212 0.79003 0.31588 0.0
C651 C 0.20914 0.78016 0.43466 0.0
C652 C 0.24061 0.77692 0.48729 0.0
C653 C 0.22326 0.78864 0.36849 0.0
C654 C 0.28652 0.78422 0.47167 0.0
C655 C 0.30073 0.79295 0.40659 0.0
H656 H 0.74433 0.81161 0.77008 0.0
H657 H 0.72616 0.67222 0.70967 0.0
H658 H 0.73702 0.64742 0.8241 0.0
H659 H 0.7522 0.66562 0.94354 0.0
H660 H 0.7656 0.80609 1.00278 0.0
H661 H 0.75402 0.83004 0.88902 0.0
C662 C 0.74081 0.77599 0.78214 0.0
C663 C 0.73267 0.74425 0.73049 0.0
C664 C 0.74646 0.762 0.84885 0.0
C665 C 0.73184 0.69777 0.74754 0.0
C666 C 0.73802 0.68352 0.81347 0.0
C667 C 0.75282 0.7014 0.93172 0.0
C668 C 0.76051 0.73372 0.98312 0.0
C669 C 0.74557 0.71528 0.86493 0.0
C670 C 0.75983 0.7801 0.96556 0.0
C671 C 0.75339 0.79397 0.89988 0.0
H672 H 0.17798 0.76936 0.77692 0.0
H673 H 0.31647 0.76382 0.71258 0.0
H674 H 0.34224 0.77491 0.82661 0.0
H675 H 0.32552 0.78716 0.94675 0.0
H676 H 0.18672 0.79468 1.0093 0.0
H677 H 0.1615 0.77996 0.89649 0.0
C678 C 0.21381 0.76935 0.78785 0.0
C679 C 0.24501 0.76468 0.7351 0.0
C680 C 0.22858 0.77634 0.85431 0.0
C681 C 0.29138 0.76706 0.75117 0.0
C682 C 0.30623 0.77342 0.81689 0.0
C683 C 0.28983 0.78669 0.93567 0.0
C684 C 0.2584 0.79366 0.98776 0.0
C685 C 0.27522 0.77861 0.8692 0.0
C686 C 0.21213 0.79005 0.97143 0.0
C687 C 0.19749 0.78171 0.90627 0.0
H688 H 0.29698 0.27728 0.98704 0.0
H689 H 0.15581 0.24189 0.9809 0.0
H690 H 0.16085 0.22833 0.86187 0.0
H691 H 0.20587 0.22387 0.75697 0.0
H692 H 0.34697 0.25966 0.76294 0.0
H693 H 0.3414 0.27548 0.88111 0.0
C694 C 0.26725 0.26652 0.95985 0.0
C695 C 0.22569 0.26114 0.99459 0.0
C696 C 0.27042 0.25867 0.88979 0.0
C697 C 0.18803 0.24714 0.95682 0.0
C698 C 0.19099 0.23911 0.88805 0.0
C699 C 0.2354 0.23569 0.78374 0.0
C700 C 0.27713 0.24008 0.74907 0.0
C701 C 0.23199 0.24462 0.85346 0.0
C702 C 0.31447 0.25549 0.78645 0.0
C703 C 0.31131 0.26447 0.85502 0.0
H704 H 0.76754 0.35644 0.75452 0.0
H705 H 0.76406 0.21702 0.68859 0.0
H706 H 0.75192 0.19211 0.80228 0.0
H707 H 0.74361 0.20939 0.92302 0.0
H708 H 0.7409 0.34907 0.98774 0.0
H709 H 0.75578 0.37401 0.87456 0.0
C710 C 0.76436 0.32064 0.76459 0.0
C711 C 0.76741 0.28902 0.71107 0.0
C712 C 0.75683 0.30637 0.8313 0.0
C713 C 0.7619 0.24266 0.72709 0.0
C714 C 0.75538 0.22822 0.7929 0.0
C715 C 0.74549 0.24529 0.91253 0.0
C716 C 0.73978 0.27699 0.96544 0.0
C717 C 0.75298 0.25963 0.84585 0.0
C718 C 0.74466 0.32344 0.9495 0.0
C719 C 0.75299 0.33784 0.88403 0.0
loop_
_geom_bond_atom_site_label_1
_geom_bond_atom_site_label_2
_geom_bond_distance
_geom_bond_site_symmetry_2
_ccdc_geom_bond_type
Zn0 N4 2.020 . S
Zn0 O8 2.019 . S
Zn0 N10 2.119 . S
Zn0 O18 1.975 . S
C1 N2 1.334 . S
C1 N5 1.336 . S
N2 C1 1.334 . S
N2 C3 1.334 1_554 S
C3 N2 1.334 1_556 S
C3 N4 1.336 . S
N4 Zn0 2.020 . S
N4 C3 1.336 . S
N4 N5 1.354 1_556 S
N5 C1 1.336 . S
N5 N4 1.354 1_554 S
N5 Zn9 2.020 . S
C6 O7 1.244 . S
C6 O30 1.257 . S
O7 C6 1.244 . S
O8 Zn0 2.019 . S
O8 C28 1.257 . S
Zn9 N5 2.020 . S
Zn9 O16 1.975 . S
Zn9 N25 2.119 . S
Zn9 O30 2.019 . S
N10 Zn0 2.119 . S
N10 C12 1.334 . S
N10 C13 1.328 . S
C11 C12 1.391 . S
C11 N14 1.329 . S
C11 H32 0.930 . S
C12 N10 1.334 . S
C12 C11 1.391 . S
C12 H19 0.930 . S
C13 N10 1.328 . S
C13 C15 1.392 . S
C13 H20 0.930 . S
N14 C11 1.329 . S
N14 C15 1.331 . S
C15 C13 1.392 . S
C15 N14 1.331 . S
O16 Zn9 1.975 . S
O16 C17 1.252 . S
C17 O16 1.252 . S
C17 O18 1.252 1_554 S
O18 Zn0 1.975 . S
O18 C17 1.252 1_556 S
H19 C12 0.930 . S
H20 C13 0.930 . S
C21 C22 1.392 . S
C21 N25 1.328 . S
C21 H27 0.930 . S
C22 C21 1.392 . S
C22 N26 1.331 . S
C23 C24 1.391 . S
C23 N26 1.329 . S
C23 H33 0.930 . S
C24 C23 1.391 . S
C24 N25 1.334 . S
C24 H31 0.930 . S
N25 Zn9 2.119 . S
N25 C21 1.328 . S
N25 C24 1.334 . S
N26 C22 1.331 . S
N26 C23 1.329 . S
H27 C21 0.930 . S
C28 O8 1.257 . S
C28 O29 1.244 . S
O29 C28 1.244 . S
O30 C6 1.257 . S
O30 Zn9 2.019 . S
H31 C24 0.930 . S
H32 C11 0.930 . S
H33 C23 0.930 . S
Zn34 N38 2.020 . S
Zn34 O42 2.019 . S
Zn34 N44 2.119 . S
Zn34 O52 1.975 . S
C35 N36 1.334 1_556 S
C35 N39 1.336 . S
N36 C35 1.334 1_554 S
N36 C37 1.334 . S
C37 N36 1.334 . S
C37 N38 1.336 . S
N38 Zn34 2.020 . S
N38 C37 1.336 . S
N38 N39 1.354 1_554 S
N39 C35 1.336 . S
N39 N38 1.354 1_556 S
N39 Zn43 2.020 . S
C40 O41 1.244 . S
C40 O64 1.257 . S
O41 C40 1.244 . S
O42 Zn34 2.019 . S
O42 C62 1.257 . S
Zn43 N39 2.020 . S
Zn43 O50 1.975 . S
Zn43 N59 2.119 . S
Zn43 O64 2.019 . S
N44 Zn34 2.119 . S
N44 C46 1.334 . S
N44 C47 1.328 . S
C45 C46 1.391 . S
C45 N48 1.329 . S
C45 H66 0.930 . S
C46 N44 1.334 . S
C46 C45 1.391 . S
C46 H53 0.930 . S
C47 N44 1.328 . S
C47 C49 1.392 . S
C47 H54 0.930 . S
N48 C45 1.329 . S
N48 C49 1.331 . S
C49 C47 1.392 . S
C49 N48 1.331 . S
O50 Zn43 1.975 . S
O50 C51 1.252 1_556 S
C51 O50 1.252 1_554 S
C51 O52 1.252 . S
O52 Zn34 1.975 . S
O52 C51 1.252 . S
H53 C46 0.930 . S
H54 C47 0.930 . S
C55 C56 1.392 . S
C55 N59 1.328 . S
C55 H61 0.930 . S
C56 C55 1.392 . S
C56 N60 1.331 . S
C57 C58 1.391 . S
C57 N60 1.329 . S
C57 H67 0.930 . S
C58 C57 1.391 . S
C58 N59 1.334 . S
C58 H65 0.930 . S
N59 Zn43 2.119 . S
N59 C55 1.328 . S
N59 C58 1.334 . S
N60 C56 1.331 . S
N60 C57 1.329 . S
H61 C55 0.930 . S
C62 O42 1.257 . S
C62 O63 1.244 . S
O63 C62 1.244 . S
O64 C40 1.257 . S
O64 Zn43 2.019 . S
H65 C58 0.930 . S
H66 C45 0.930 . S
H67 C57 0.930 . S
Zn68 N72 2.020 . S
Zn68 O76 2.019 . S
Zn68 N78 2.119 . S
Zn68 O86 1.975 . S
C69 N70 1.334 . S
C69 N73 1.336 . S
N70 C69 1.334 . S
N70 C71 1.334 1_554 S
C71 N70 1.334 1_556 S
C71 N72 1.336 . S
N72 Zn68 2.020 . S
N72 C71 1.336 . S
N72 N73 1.354 1_556 S
N73 C69 1.336 . S
N73 N72 1.354 1_554 S
N73 Zn77 2.020 . S
C74 O75 1.244 . S
C74 O98 1.257 . S
O75 C74 1.244 . S
O76 Zn68 2.019 . S
O76 C96 1.257 . S
Zn77 N73 2.020 . S
Zn77 O84 1.975 . S
Zn77 N93 2.119 . S
Zn77 O98 2.019 . S
N78 Zn68 2.119 . S
N78 C80 1.334 . S
N78 C81 1.328 . S
C79 C80 1.391 . S
C79 N82 1.329 . S
C79 H100 0.930 . S
C80 N78 1.334 . S
C80 C79 1.391 . S
C80 H87 0.930 . S
C81 N78 1.328 . S
C81 C83 1.392 . S
C81 H88 0.930 . S
N82 C79 1.329 . S
N82 C83 1.331 . S
C83 C81 1.392 . S
C83 N82 1.331 . S
O84 Zn77 1.975 . S
O84 C85 1.252 . S
C85 O84 1.252 . S
C85 O86 1.252 1_554 S
O86 Zn68 1.975 . S
O86 C85 1.252 1_556 S
H87 C80 0.930 . S
H88 C81 0.930 . S
C89 C90 1.392 . S
C89 N93 1.328 . S
C89 H95 0.930 . S
C90 C89 1.392 . S
C90 N94 1.331 . S
C91 C92 1.391 . S
C91 N94 1.329 . S
C91 H101 0.930 . S
C92 C91 1.391 . S
C92 N93 1.334 . S
C92 H99 0.930 . S
N93 Zn77 2.119 . S
N93 C89 1.328 . S
N93 C92 1.334 . S
N94 C90 1.331 . S
N94 C91 1.329 . S
H95 C89 0.930 . S
C96 O76 1.257 . S
C96 O97 1.244 . S
O97 C96 1.244 . S
O98 C74 1.257 . S
O98 Zn77 2.019 . S
H99 C92 0.930 . S
H100 C79 0.930 . S
H101 C91 0.930 . S
Zn102 N106 2.020 . S
Zn102 O110 2.019 . S
Zn102 N112 2.119 . S
Zn102 O120 1.975 . S
C103 N104 1.334 . S
C103 N107 1.336 . S
N104 C103 1.334 . S
N104 C105 1.334 1_554 S
C105 N104 1.334 1_556 S
C105 N106 1.336 . S
N106 Zn102 2.020 . S
N106 C105 1.336 . S
N106 N107 1.354 1_556 S
N107 C103 1.336 . S
N107 N106 1.354 1_554 S
N107 Zn111 2.020 . S
C108 O109 1.244 . S
C108 O132 1.257 . S
O109 C108 1.244 . S
O110 Zn102 2.019 . S
O110 C130 1.257 . S
Zn111 N107 2.020 . S
Zn111 O118 1.975 . S
Zn111 N127 2.119 . S
Zn111 O132 2.019 . S
N112 Zn102 2.119 . S
N112 C114 1.334 . S
N112 C115 1.328 . S
C113 C114 1.391 . S
C113 N116 1.329 . S
C113 H134 0.930 . S
C114 N112 1.334 . S
C114 C113 1.391 . S
C114 H121 0.930 . S
C115 N112 1.328 . S
C115 C117 1.392 . S
C115 H122 0.930 . S
N116 C113 1.329 . S
N116 C117 1.331 . S
C117 C115 1.392 . S
C117 N116 1.331 . S
O118 Zn111 1.975 . S
O118 C119 1.252 . S
C119 O118 1.252 . S
C119 O120 1.252 1_554 S
O120 Zn102 1.975 . S
O120 C119 1.252 1_556 S
H121 C114 0.930 . S
H122 C115 0.930 . S
C123 C124 1.392 . S
C123 N127 1.328 . S
C123 H129 0.930 . S
C124 C123 1.392 . S
C124 N128 1.331 . S
C125 C126 1.391 . S
C125 N128 1.329 . S
C125 H135 0.930 . S
C126 C125 1.391 . S
C126 N127 1.334 . S
C126 H133 0.930 . S
N127 Zn111 2.119 . S
N127 C123 1.328 . S
N127 C126 1.334 . S
N128 C124 1.331 . S
N128 C125 1.329 . S
H129 C123 0.930 . S
C130 O110 1.257 . S
C130 O131 1.244 . S
O131 C130 1.244 . S
O132 C108 1.257 . S
O132 Zn111 2.019 . S
H133 C126 0.930 . S
H134 C113 0.930 . S
H135 C125 0.930 . S
Zn136 N140 2.020 . S
Zn136 O144 2.019 . S
Zn136 N146 2.119 . S
Zn136 O154 1.975 . S
C137 N138 1.334 . S
C137 N141 1.336 . S
N138 C137 1.334 . S
N138 C139 1.334 . S
C139 N138 1.334 . S
C139 N140 1.336 . S
N140 Zn136 2.020 . S
N140 C139 1.336 . S
N140 N141 1.354 . S
N141 C137 1.336 . S
N141 N140 1.354 . S
N141 Zn145 2.020 . S
C142 O143 1.244 . S
C142 O166 1.257 . S
O143 C142 1.244 . S
O144 Zn136 2.019 . S
O144 C164 1.257 . S
Zn145 N141 2.020 . S
Zn145 O152 1.975 . S
Zn145 N161 2.119 . S
Zn145 O166 2.019 . S
N146 Zn136 2.119 . S
N146 C148 1.334 . S
N146 C149 1.328 . S
C147 C148 1.391 . S
C147 N150 1.329 . S
C147 H168 0.930 . S
C148 N146 1.334 . S
C148 C147 1.391 . S
C148 H155 0.930 . S
C149 N146 1.328 . S
C149 C151 1.392 . S
C149 H156 0.930 . S
N150 C147 1.329 . S
N150 C151 1.331 . S
C151 C149 1.392 . S
C151 N150 1.331 . S
O152 Zn145 1.975 . S
O152 C153 1.252 . S
C153 O152 1.252 . S
C153 O154 1.252 . S
O154 Zn136 1.975 . S
O154 C153 1.252 . S
H155 C148 0.930 . S
H156 C149 0.930 . S
C157 C158 1.392 . S
C157 N161 1.328 . S
C157 H163 0.930 . S
C158 C157 1.392 . S
C158 N162 1.331 . S
C159 C160 1.391 . S
C159 N162 1.329 . S
C159 H169 0.930 . S
C160 C159 1.391 . S
C160 N161 1.334 . S
C160 H167 0.930 . S
N161 Zn145 2.119 . S
N161 C157 1.328 . S
N161 C160 1.334 . S
N162 C158 1.331 . S
N162 C159 1.329 . S
H163 C157 0.930 . S
C164 O144 1.257 . S
C164 O165 1.244 . S
O165 C164 1.244 . S
O166 C142 1.257 . S
O166 Zn145 2.019 . S
H167 C160 0.930 . S
H168 C147 0.930 . S
H169 C159 0.930 . S
Zn170 N174 2.020 . S
Zn170 O178 2.019 . S
Zn170 N180 2.119 . S
Zn170 O188 1.975 . S
C171 N172 1.334 . S
C171 N175 1.336 . S
N172 C171 1.334 . S
N172 C173 1.334 . S
C173 N172 1.334 . S
C173 N174 1.336 . S
N174 Zn170 2.020 . S
N174 C173 1.336 . S
N174 N175 1.354 . S
N175 C171 1.336 . S
N175 N174 1.354 . S
N175 Zn179 2.020 . S
C176 O177 1.244 . S
C176 O200 1.257 . S
O177 C176 1.244 . S
O178 Zn170 2.019 . S
O178 C198 1.257 . S
Zn179 N175 2.020 . S
Zn179 O186 1.975 . S
Zn179 N195 2.119 . S
Zn179 O200 2.019 . S
N180 Zn170 2.119 . S
N180 C182 1.334 . S
N180 C183 1.328 . S
C181 C182 1.391 . S
C181 N184 1.329 . S
C181 H202 0.930 . S
C182 N180 1.334 . S
C182 C181 1.391 . S
C182 H189 0.930 . S
C183 N180 1.328 . S
C183 C185 1.392 . S
C183 H190 0.930 . S
N184 C181 1.329 . S
N184 C185 1.331 . S
C185 C183 1.392 . S
C185 N184 1.331 . S
O186 Zn179 1.975 . S
O186 C187 1.252 . S
C187 O186 1.252 . S
C187 O188 1.252 . S
O188 Zn170 1.975 . S
O188 C187 1.252 . S
H189 C182 0.930 . S
H190 C183 0.930 . S
C191 C192 1.392 . S
C191 N195 1.328 . S
C191 H197 0.930 . S
C192 C191 1.392 . S
C192 N196 1.331 . S
C193 C194 1.391 . S
C193 N196 1.329 . S
C193 H203 0.930 . S
C194 C193 1.391 . S
C194 N195 1.334 . S
C194 H201 0.930 . S
N195 Zn179 2.119 . S
N195 C191 1.328 . S
N195 C194 1.334 . S
N196 C192 1.331 . S
N196 C193 1.329 . S
H197 C191 0.930 . S
C198 O178 1.257 . S
C198 O199 1.244 . S
O199 C198 1.244 . S
O200 C176 1.257 . S
O200 Zn179 2.019 . S
H201 C194 0.930 . S
H202 C181 0.930 . S
H203 C193 0.930 . S
Zn204 N208 2.020 . S
Zn204 O212 2.019 . S
Zn204 N214 2.119 . S
Zn204 O222 1.975 . S
C205 N206 1.334 . S
C205 N209 1.336 . S
N206 C205 1.334 . S
N206 C207 1.334 . S
C207 N206 1.334 . S
C207 N208 1.336 . S
N208 Zn204 2.020 . S
N208 C207 1.336 . S
N208 N209 1.354 . S
N209 C205 1.336 . S
N209 N208 1.354 . S
N209 Zn213 2.020 . S
C210 O211 1.244 . S
C210 O234 1.257 . S
O211 C210 1.244 . S
O212 Zn204 2.019 . S
O212 C232 1.257 . S
Zn213 N209 2.020 . S
Zn213 O220 1.975 . S
Zn213 N229 2.119 . S
Zn213 O234 2.019 . S
N214 Zn204 2.119 . S
N214 C216 1.334 . S
N214 C217 1.328 . S
C215 C216 1.391 . S
C215 N218 1.329 . S
C215 H236 0.930 . S
C216 N214 1.334 . S
C216 C215 1.391 . S
C216 H223 0.930 . S
C217 N214 1.328 . S
C217 C219 1.392 . S
C217 H224 0.930 . S
N218 C215 1.329 . S
N218 C219 1.331 . S
C219 C217 1.392 . S
C219 N218 1.331 . S
O220 Zn213 1.975 . S
O220 C221 1.252 . S
C221 O220 1.252 . S
C221 O222 1.252 . S
O222 Zn204 1.975 . S
O222 C221 1.252 . S
H223 C216 0.930 . S
H224 C217 0.930 . S
C225 C226 1.392 . S
C225 N229 1.328 . S
C225 H231 0.930 . S
C226 C225 1.392 . S
C226 N230 1.331 . S
C227 C228 1.391 . S
C227 N230 1.329 . S
C227 H237 0.930 . S
C228 C227 1.391 . S
C228 N229 1.334 . S
C228 H235 0.930 . S
N229 Zn213 2.119 . S
N229 C225 1.328 . S
N229 C228 1.334 . S
N230 C226 1.331 . S
N230 C227 1.329 . S
H231 C225 0.930 . S
C232 O212 1.257 . S
C232 O233 1.244 . S
O233 C232 1.244 . S
O234 C210 1.257 . S
O234 Zn213 2.019 . S
H235 C228 0.930 . S
H236 C215 0.930 . S
H237 C227 0.930 . S
Zn238 N242 2.020 . S
Zn238 O246 2.019 . S
Zn238 N248 2.119 . S
Zn238 O256 1.975 . S
C239 N240 1.334 . S
C239 N243 1.336 . S
N240 C239 1.334 . S
N240 C241 1.334 . S
C241 N240 1.334 . S
C241 N242 1.336 . S
N242 Zn238 2.020 . S
N242 C241 1.336 . S
N242 N243 1.354 . S
N243 C239 1.336 . S
N243 N242 1.354 . S
N243 Zn247 2.020 . S
C244 O245 1.244 . S
C244 O268 1.257 . S
O245 C244 1.244 . S
O246 Zn238 2.019 . S
O246 C266 1.257 . S
Zn247 N243 2.020 . S
Zn247 O254 1.975 . S
Zn247 N263 2.119 . S
Zn247 O268 2.019 . S
N248 Zn238 2.119 . S
N248 C250 1.334 . S
N248 C251 1.328 . S
C249 C250 1.391 . S
C249 N252 1.329 . S
C249 H270 0.930 . S
C250 N248 1.334 . S
C250 C249 1.391 . S
C250 H257 0.930 . S
C251 N248 1.328 . S
C251 C253 1.392 . S
C251 H258 0.930 . S
N252 C249 1.329 . S
N252 C253 1.331 . S
C253 C251 1.392 . S
C253 N252 1.331 . S
O254 Zn247 1.975 . S
O254 C255 1.252 . S
C255 O254 1.252 . S
C255 O256 1.252 . S
O256 Zn238 1.975 . S
O256 C255 1.252 . S
H257 C250 0.930 . S
H258 C251 0.930 . S
C259 C260 1.392 . S
C259 N263 1.328 . S
C259 H265 0.930 . S
C260 C259 1.392 . S
C260 N264 1.331 . S
C261 C262 1.391 . S
C261 N264 1.329 . S
C261 H271 0.930 . S
C262 C261 1.391 . S
C262 N263 1.334 . S
C262 H269 0.930 . S
N263 Zn247 2.119 . S
N263 C259 1.328 . S
N263 C262 1.334 . S
N264 C260 1.331 . S
N264 C261 1.329 . S
H265 C259 0.930 . S
C266 O246 1.257 . S
C266 O267 1.244 . S
O267 C266 1.244 . S
O268 C244 1.257 . S
O268 Zn247 2.019 . S
H269 C262 0.930 . S
H270 C249 0.930 . S
H271 C261 0.930 . S
H272 C278 0.930 . S
H273 C281 0.930 . S
H274 C282 0.930 . S
H275 C283 0.930 . S
H276 C286 0.930 . S
H277 C287 0.930 . S
C278 H272 0.930 . S
C278 C279 1.354 1_556 S
C278 C280 1.415 1_455 S
C279 C278 1.354 1_554 S
C279 C281 1.419 . S
C280 C278 1.415 1_655 S
C280 C285 1.425 1_656 S
C280 C287 1.409 . S
C281 H273 0.930 . S
C281 C279 1.419 . S
C281 C282 1.362 . S
C282 H274 0.930 . S
C282 C281 1.362 . S
C282 C285 1.409 . S
C283 H275 0.930 . S
C283 C284 1.354 . S
C283 C285 1.415 1_655 S
C284 C283 1.354 . S
C284 C286 1.419 1_554 S
C285 C280 1.425 1_454 S
C285 C282 1.409 . S
C285 C283 1.415 1_455 S
C286 H276 0.930 . S
C286 C284 1.419 1_556 S
C286 C287 1.362 . S
C287 H277 0.930 . S
C287 C280 1.409 . S
C287 C286 1.362 . S
H288 C294 0.930 . S
H289 C297 0.930 . S
H290 C298 0.930 . S
H291 C299 0.930 . S
H292 C302 0.930 . S
H293 C303 0.930 . S
C294 H288 0.930 . S
C294 C295 1.356 . S
C294 C296 1.415 1_565 S
C295 C294 1.356 . S
C295 C297 1.417 1_556 S
C296 C294 1.415 1_545 S
C296 C301 1.425 1_546 S
C296 C303 1.409 . S
C297 H289 0.930 . S
C297 C295 1.417 1_554 S
C297 C298 1.362 . S
C298 H290 0.930 . S
C298 C297 1.362 . S
C298 C301 1.409 . S
C299 H291 0.930 . S
C299 C300 1.357 . S
C299 C301 1.415 1_545 S
C300 C299 1.357 . S
C300 C302 1.416 1_554 S
C301 C296 1.425 1_564 S
C301 C298 1.409 . S
C301 C299 1.415 1_565 S
C302 H292 0.930 . S
C302 C300 1.416 1_556 S
C302 C303 1.362 . S
C303 H293 0.930 . S
C303 C296 1.409 . S
C303 C302 1.362 . S
H304 C310 0.930 . S
H305 C313 0.930 . S
H306 C314 0.930 . S
H307 C315 0.930 . S
H308 C318 0.930 . S
H309 C319 0.930 . S
C310 H304 0.930 . S
C310 C311 1.355 . S
C310 C312 1.415 . S
C311 C310 1.355 . S
C311 C313 1.419 . S
C312 C310 1.415 . S
C312 C317 1.425 1_455 S
C312 C319 1.409 . S
C313 H305 0.930 . S
C313 C311 1.419 . S
C313 C314 1.362 1_455 S
C314 H306 0.930 . S
C314 C313 1.362 1_655 S
C314 C317 1.409 . S
C315 H307 0.930 . S
C315 C316 1.355 . S
C315 C317 1.415 . S
C316 C315 1.355 . S
C316 C318 1.419 . S
C317 C312 1.425 1_655 S
C317 C314 1.409 . S
C317 C315 1.415 . S
C318 H308 0.930 . S
C318 C316 1.419 . S
C318 C319 1.362 1_655 S
C319 H309 0.930 . S
C319 C312 1.409 . S
C319 C318 1.362 1_455 S
H320 C326 0.930 . S
H321 C329 0.930 . S
H322 C330 0.930 . S
H323 C331 0.930 . S
H324 C334 0.930 . S
H325 C335 0.930 . S
C326 H320 0.930 . S
C326 C327 1.355 . S
C326 C328 1.415 . S
C327 C326 1.355 . S
C327 C329 1.419 . S
C328 C326 1.415 . S
C328 C333 1.425 1_565 S
C328 C335 1.409 . S
C329 H321 0.930 . S
C329 C327 1.419 . S
C329 C330 1.362 1_565 S
C330 H322 0.930 . S
C330 C329 1.362 1_545 S
C330 C333 1.409 . S
C331 H323 0.930 . S
C331 C332 1.355 . S
C331 C333 1.415 . S
C332 C331 1.355 . S
C332 C334 1.419 . S
C333 C328 1.425 1_545 S
C333 C330 1.409 . S
C333 C331 1.415 . S
C334 H324 0.930 . S
C334 C332 1.419 . S
C334 C335 1.362 1_545 S
C335 H325 0.930 . S
C335 C328 1.409 . S
C335 C334 1.362 1_565 S
H336 C342 0.930 . S
H337 C345 0.930 . S
H338 C346 0.930 . S
H339 C347 0.930 . S
H340 C350 0.930 . S
H341 C351 0.930 . S
C342 H336 0.930 . S
C342 C343 1.355 . S
C342 C344 1.415 . S
C343 C342 1.355 . S
C343 C345 1.419 . S
C344 C342 1.415 . S
C344 C349 1.425 . S
C344 C351 1.409 . S
C345 H337 0.930 . S
C345 C343 1.419 . S
C345 C346 1.362 . S
C346 H338 0.930 . S
C346 C345 1.362 . S
C346 C349 1.409 . S
C347 H339 0.930 . S
C347 C348 1.355 . S
C347 C349 1.415 . S
C348 C347 1.355 . S
C348 C350 1.419 . S
C349 C344 1.425 . S
C349 C346 1.409 . S
C349 C347 1.415 . S
C350 H340 0.930 . S
C350 C348 1.419 . S
C350 C351 1.362 . S
C351 H341 0.930 . S
C351 C344 1.409 . S
C351 C350 1.362 . S
H352 C358 0.930 . S
H353 C361 0.930 . S
H354 C362 0.930 . S
H355 C363 0.930 . S
H356 C366 0.930 . S
H357 C367 0.930 . S
C358 H352 0.930 . S
C358 C359 1.355 . S
C358 C360 1.415 . S
C359 C358 1.355 . S
C359 C361 1.419 . S
C360 C358 1.415 . S
C360 C365 1.425 . S
C360 C367 1.409 . S
C361 H353 0.930 . S
C361 C359 1.419 . S
C361 C362 1.362 . S
C362 H354 0.930 . S
C362 C361 1.362 . S
C362 C365 1.409 . S
C363 H355 0.930 . S
C363 C364 1.355 . S
C363 C365 1.415 . S
C364 C363 1.355 . S
C364 C366 1.419 . S
C365 C360 1.425 . S
C365 C362 1.409 . S
C365 C363 1.415 . S
C366 H356 0.930 . S
C366 C364 1.419 . S
C366 C367 1.362 . S
C367 H357 0.930 . S
C367 C360 1.409 . S
C367 C366 1.362 . S
H368 C374 0.930 . S
H369 C377 0.930 . S
H370 C378 0.930 . S
H371 C379 0.930 . S
H372 C382 0.930 . S
H373 C383 0.930 . S
C374 H368 0.930 . S
C374 C375 1.355 . S
C374 C376 1.415 . S
C375 C374 1.355 . S
C375 C377 1.419 . S
C376 C374 1.415 . S
C376 C381 1.425 . S
C376 C383 1.409 . S
C377 H369 0.930 . S
C377 C375 1.419 . S
C377 C378 1.362 . S
C378 H370 0.930 . S
C378 C377 1.362 . S
C378 C381 1.409 . S
C379 H371 0.930 . S
C379 C380 1.355 . S
C379 C381 1.415 . S
C380 C379 1.355 . S
C380 C382 1.419 . S
C381 C376 1.425 . S
C381 C378 1.409 . S
C381 C379 1.415 . S
C382 H372 0.930 . S
C382 C380 1.419 . S
C382 C383 1.362 . S
C383 H373 0.930 . S
C383 C376 1.409 . S
C383 C382 1.362 . S
H384 C390 0.930 . S
H385 C393 0.930 . S
H386 C394 0.930 . S
H387 C395 0.930 . S
H388 C398 0.930 . S
H389 C399 0.930 . S
C390 H384 0.930 . S
C390 C391 1.355 . S
C390 C392 1.415 . S
C391 C390 1.355 . S
C391 C393 1.419 . S
C392 C390 1.415 . S
C392 C397 1.425 . S
C392 C399 1.409 . S
C393 H385 0.930 . S
C393 C391 1.419 . S
C393 C394 1.362 . S
C394 H386 0.930 . S
C394 C393 1.362 . S
C394 C397 1.409 . S
C395 H387 0.930 . S
C395 C396 1.355 . S
C395 C397 1.415 . S
C396 C395 1.355 . S
C396 C398 1.419 . S
C397 C392 1.425 . S
C397 C394 1.409 . S
C397 C395 1.415 . S
C398 H388 0.930 . S
C398 C396 1.419 . S
C398 C399 1.362 . S
C399 H389 0.930 . S
C399 C392 1.409 . S
C399 C398 1.362 . S
H400 C406 0.930 . S
H401 C409 0.930 . S
H402 C410 0.930 . S
H403 C411 0.930 . S
H404 C414 0.930 . S
H405 C415 0.930 . S
C406 H400 0.930 . S
C406 C407 1.355 . S
C406 C408 1.415 . S
C407 C406 1.355 . S
C407 C409 1.419 . S
C408 C406 1.415 . S
C408 C413 1.425 . S
C408 C415 1.409 . S
C409 H401 0.930 . S
C409 C407 1.419 . S
C409 C410 1.362 . S
C410 H402 0.930 . S
C410 C409 1.362 . S
C410 C413 1.409 . S
C411 H403 0.930 . S
C411 C412 1.355 . S
C411 C413 1.415 . S
C412 C411 1.355 . S
C412 C414 1.419 . S
C413 C408 1.425 . S
C413 C410 1.409 . S
C413 C411 1.415 . S
C414 H404 0.930 . S
C414 C412 1.419 . S
C414 C415 1.362 . S
C415 H405 0.930 . S
C415 C408 1.409 . S
C415 C414 1.362 . S
H416 C422 0.930 . S
H417 C425 0.930 . S
H418 C426 0.930 . S
H419 C427 0.930 . S
H420 C430 0.930 . S
H421 C431 0.930 . S
C422 H416 0.930 . S
C422 C423 1.355 . S
C422 C424 1.415 . S
C423 C422 1.355 . S
C423 C425 1.419 . S
C424 C422 1.415 . S
C424 C429 1.425 . S
C424 C431 1.409 . S
C425 H417 0.930 . S
C425 C423 1.419 . S
C425 C426 1.362 . S
C426 H418 0.930 . S
C426 C425 1.362 . S
C426 C429 1.409 . S
C427 H419 0.930 . S
C427 C428 1.355 . S
C427 C429 1.415 . S
C428 C427 1.355 . S
C428 C430 1.419 . S
C429 C424 1.425 . S
C429 C426 1.409 . S
C429 C427 1.415 . S
C430 H420 0.930 . S
C430 C428 1.419 . S
C430 C431 1.362 . S
C431 H421 0.930 . S
C431 C424 1.409 . S
C431 C430 1.362 . S
H432 C438 0.930 . S
H433 C441 0.930 . S
H434 C442 0.930 . S
H435 C443 0.930 . S
H436 C446 0.930 . S
H437 C447 0.930 . S
C438 H432 0.930 . S
C438 C439 1.355 . S
C438 C440 1.415 . S
C439 C438 1.355 . S
C439 C441 1.419 . S
C440 C438 1.415 . S
C440 C445 1.425 . S
C440 C447 1.409 . S
C441 H433 0.930 . S
C441 C439 1.419 . S
C441 C442 1.362 . S
C442 H434 0.930 . S
C442 C441 1.362 . S
C442 C445 1.409 . S
C443 H435 0.930 . S
C443 C444 1.355 . S
C443 C445 1.415 . S
C444 C443 1.355 . S
C444 C446 1.419 . S
C445 C440 1.425 . S
C445 C442 1.409 . S
C445 C443 1.415 . S
C446 H436 0.930 . S
C446 C444 1.419 . S
C446 C447 1.362 . S
C447 H437 0.930 . S
C447 C440 1.409 . S
C447 C446 1.362 . S
H448 C454 0.930 . S
H449 C457 0.930 . S
H450 C458 0.930 . S
H451 C459 0.930 . S
H452 C462 0.930 . S
H453 C463 0.930 . S
C454 H448 0.930 . S
C454 C455 1.355 . S
C454 C456 1.415 . S
C455 C454 1.355 . S
C455 C457 1.419 . S
C456 C454 1.415 . S
C456 C461 1.425 . S
C456 C463 1.409 . S
C457 H449 0.930 . S
C457 C455 1.419 . S
C457 C458 1.362 . S
C458 H450 0.930 . S
C458 C457 1.362 . S
C458 C461 1.409 . S
C459 H451 0.930 . S
C459 C460 1.355 . S
C459 C461 1.415 . S
C460 C459 1.355 . S
C460 C462 1.419 . S
C461 C456 1.425 . S
C461 C458 1.409 . S
C461 C459 1.415 . S
C462 H452 0.930 . S
C462 C460 1.419 . S
C462 C463 1.362 . S
C463 H453 0.930 . S
C463 C456 1.409 . S
C463 C462 1.362 . S
H464 C470 0.930 . S
H465 C473 0.930 . S
H466 C474 0.930 . S
H467 C475 0.930 . S
H468 C478 0.930 . S
H469 C479 0.930 . S
C470 H464 0.930 . S
C470 C471 1.355 . S
C470 C472 1.415 1_565 S
C471 C470 1.355 . S
C471 C473 1.419 . S
C472 C470 1.415 1_545 S
C472 C477 1.425 1_545 S
C472 C479 1.409 . S
C473 H465 0.930 . S
C473 C471 1.419 . S
C473 C474 1.362 . S
C474 H466 0.930 . S
C474 C473 1.362 . S
C474 C477 1.409 . S
C475 H467 0.930 . S
C475 C476 1.355 . S
C475 C477 1.415 1_545 S
C476 C475 1.355 . S
C476 C478 1.419 . S
C477 C472 1.425 1_565 S
C477 C474 1.409 . S
C477 C475 1.415 1_565 S
C478 H468 0.930 . S
C478 C476 1.419 . S
C478 C479 1.362 . S
C479 H469 0.930 . S
C479 C472 1.409 . S
C479 C478 1.362 . S
H480 C486 0.930 . S
H481 C489 0.930 . S
H482 C490 0.930 . S
H483 C491 0.930 . S
H484 C494 0.930 . S
H485 C495 0.930 . S
C486 H480 0.930 . S
C486 C487 1.355 . S
C486 C488 1.415 1_455 S
C487 C486 1.355 . S
C487 C489 1.419 . S
C488 C486 1.415 1_655 S
C488 C493 1.425 1_655 S
C488 C495 1.409 . S
C489 H481 0.930 . S
C489 C487 1.419 . S
C489 C490 1.362 . S
C490 H482 0.930 . S
C490 C489 1.362 . S
C490 C493 1.409 . S
C491 H483 0.930 . S
C491 C492 1.355 . S
C491 C493 1.415 1_655 S
C492 C491 1.355 . S
C492 C494 1.419 . S
C493 C488 1.425 1_455 S
C493 C490 1.409 . S
C493 C491 1.415 1_455 S
C494 H484 0.930 . S
C494 C492 1.419 . S
C494 C495 1.362 . S
C495 H485 0.930 . S
C495 C488 1.409 . S
C495 C494 1.362 . S
H496 C502 0.930 . S
H497 C505 0.930 . S
H498 C506 0.930 . S
H499 C507 0.930 . S
H500 C510 0.930 . S
H501 C511 0.930 . S
C502 H496 0.930 . S
C502 C503 1.355 . S
C502 C504 1.415 . S
C503 C502 1.355 . S
C503 C505 1.419 . S
C504 C502 1.415 . S
C504 C509 1.425 1_545 S
C504 C511 1.409 1_545 S
C505 H497 0.930 . S
C505 C503 1.419 . S
C505 C506 1.362 . S
C506 H498 0.930 . S
C506 C505 1.362 . S
C506 C509 1.409 1_545 S
C507 H499 0.930 . S
C507 C508 1.355 . S
C507 C509 1.415 . S
C508 C507 1.355 . S
C508 C510 1.419 . S
C509 C504 1.425 1_565 S
C509 C506 1.409 1_565 S
C509 C507 1.415 . S
C510 H500 0.930 . S
C510 C508 1.419 . S
C510 C511 1.362 . S
C511 H501 0.930 . S
C511 C504 1.409 1_565 S
C511 C510 1.362 . S
H512 C518 0.930 . S
H513 C521 0.930 . S
H514 C522 0.930 . S
H515 C523 0.930 . S
H516 C526 0.930 . S
H517 C527 0.930 . S
C518 H512 0.930 . S
C518 C519 1.355 . S
C518 C520 1.415 1_655 S
C519 C518 1.355 . S
C519 C521 1.419 . S
C520 C518 1.415 1_455 S
C520 C525 1.425 1_455 S
C520 C527 1.409 . S
C521 H513 0.930 . S
C521 C519 1.419 . S
C521 C522 1.362 . S
C522 H514 0.930 . S
C522 C521 1.362 . S
C522 C525 1.409 . S
C523 H515 0.930 . S
C523 C524 1.355 . S
C523 C525 1.415 1_455 S
C524 C523 1.355 . S
C524 C526 1.419 . S
C525 C520 1.425 1_655 S
C525 C522 1.409 . S
C525 C523 1.415 1_655 S
C526 H516 0.930 . S
C526 C524 1.419 . S
C526 C527 1.362 . S
C527 H517 0.930 . S
C527 C520 1.409 . S
C527 C526 1.362 . S
H528 C534 0.930 . S
H529 C537 0.930 . S
H530 C538 0.930 . S
H531 C539 0.930 . S
H532 C542 0.930 . S
H533 C543 0.930 . S
C534 H528 0.930 . S
C534 C535 1.355 . S
C534 C536 1.415 1_565 S
C535 C534 1.355 . S
C535 C537 1.419 . S
C536 C534 1.415 1_545 S
C536 C541 1.425 1_545 S
C536 C543 1.409 . S
C537 H529 0.930 . S
C537 C535 1.419 . S
C537 C538 1.362 . S
C538 H530 0.930 . S
C538 C537 1.362 . S
C538 C541 1.409 . S
C539 H531 0.930 . S
C539 C540 1.355 . S
C539 C541 1.415 1_545 S
C540 C539 1.355 . S
C540 C542 1.419 . S
C541 C536 1.425 1_565 S
C541 C538 1.409 . S
C541 C539 1.415 1_565 S
C542 H532 0.930 . S
C542 C540 1.419 . S
C542 C543 1.362 . S
C543 H533 0.930 . S
C543 C536 1.409 . S
C543 C542 1.362 . S
H544 C550 0.930 . S
H545 C553 0.930 . S
H546 C554 0.930 . S
H547 C555 0.930 . S
H548 C558 0.930 . S
H549 C559 0.930 . S
C550 H544 0.930 . S
C550 C551 1.355 . S
C550 C552 1.415 1_455 S
C551 C550 1.355 . S
C551 C553 1.419 . S
C552 C550 1.415 1_655 S
C552 C557 1.425 1_655 S
C552 C559 1.409 . S
C553 H545 0.930 . S
C553 C551 1.419 . S
C553 C554 1.362 . S
C554 H546 0.930 . S
C554 C553 1.362 . S
C554 C557 1.409 . S
C555 H547 0.930 . S
C555 C556 1.355 . S
C555 C557 1.415 1_655 S
C556 C555 1.355 . S
C556 C558 1.419 . S
C557 C552 1.425 1_455 S
C557 C554 1.409 . S
C557 C555 1.415 1_455 S
C558 H548 0.930 . S
C558 C556 1.419 . S
C558 C559 1.362 . S
C559 H549 0.930 . S
C559 C552 1.409 . S
C559 C558 1.362 . S
H560 C566 0.930 . S
H561 C569 0.930 . S
H562 C570 0.930 . S
H563 C571 0.930 . S
H564 C574 0.930 . S
H565 C575 0.930 . S
C566 H560 0.930 . S
C566 C567 1.355 . S
C566 C568 1.415 1_545 S
C567 C566 1.355 . S
C567 C569 1.419 . S
C568 C566 1.415 1_565 S
C568 C573 1.425 1_565 S
C568 C575 1.409 . S
C569 H561 0.930 . S
C569 C567 1.419 . S
C569 C570 1.362 . S
C570 H562 0.930 . S
C570 C569 1.362 . S
C570 C573 1.409 . S
C571 H563 0.930 . S
C571 C572 1.355 . S
C571 C573 1.415 1_565 S
C572 C571 1.355 . S
C572 C574 1.419 . S
C573 C568 1.425 1_545 S
C573 C570 1.409 . S
C573 C571 1.415 1_545 S
C574 H564 0.930 . S
C574 C572 1.419 . S
C574 C575 1.362 . S
C575 H565 0.930 . S
C575 C568 1.409 . S
C575 C574 1.362 . S
H576 C582 0.930 . S
H577 C585 0.930 . S
H578 C586 0.930 . S
H579 C587 0.930 . S
H580 C590 0.930 . S
H581 C591 0.930 . S
C582 H576 0.930 . S
C582 C583 1.355 . S
C582 C584 1.415 . S
C583 C582 1.355 . S
C583 C585 1.419 . S
C584 C582 1.415 . S
C584 C589 1.425 1_455 S
C584 C591 1.409 . S
C585 H577 0.930 . S
C585 C583 1.419 . S
C585 C586 1.362 1_455 S
C586 H578 0.930 . S
C586 C585 1.362 1_655 S
C586 C589 1.409 . S
C587 H579 0.930 . S
C587 C588 1.355 . S
C587 C589 1.415 . S
C588 C587 1.355 . S
C588 C590 1.419 . S
C589 C584 1.425 1_655 S
C589 C586 1.409 . S
C589 C587 1.415 . S
C590 H580 0.930 . S
C590 C588 1.419 . S
C590 C591 1.362 1_655 S
C591 H581 0.930 . S
C591 C584 1.409 . S
C591 C590 1.362 1_455 S
H592 C598 0.930 . S
H593 C601 0.930 . S
H594 C602 0.930 . S
H595 C603 0.930 . S
H596 C606 0.930 . S
H597 C607 0.930 . S
C598 H592 0.930 . S
C598 C599 1.355 . S
C598 C600 1.415 . S
C599 C598 1.355 . S
C599 C601 1.419 . S
C600 C598 1.415 . S
C600 C605 1.425 . S
C600 C607 1.409 . S
C601 H593 0.930 . S
C601 C599 1.419 . S
C601 C602 1.362 . S
C602 H594 0.930 . S
C602 C601 1.362 . S
C602 C605 1.409 . S
C603 H595 0.930 . S
C603 C604 1.355 . S
C603 C605 1.415 . S
C604 C603 1.355 . S
C604 C606 1.419 . S
C605 C600 1.425 . S
C605 C602 1.409 . S
C605 C603 1.415 . S
C606 H596 0.930 . S
C606 C604 1.419 . S
C606 C607 1.362 . S
C607 H597 0.930 . S
C607 C600 1.409 . S
C607 C606 1.362 . S
H608 C614 0.930 . S
H609 C617 0.930 . S
H610 C618 0.930 . S
H611 C619 0.930 . S
H612 C622 0.930 . S
H613 C623 0.930 . S
C614 H608 0.930 . S
C614 C615 1.355 . S
C614 C616 1.415 . S
C615 C614 1.355 . S
C615 C617 1.419 . S
C616 C614 1.415 . S
C616 C621 1.425 . S
C616 C623 1.409 . S
C617 H609 0.930 . S
C617 C615 1.419 . S
C617 C618 1.362 . S
C618 H610 0.930 . S
C618 C617 1.362 . S
C618 C621 1.409 . S
C619 H611 0.930 . S
C619 C620 1.355 . S
C619 C621 1.415 . S
C620 C619 1.355 . S
C620 C622 1.419 . S
C621 C616 1.425 . S
C621 C618 1.409 . S
C621 C619 1.415 . S
C622 H612 0.930 . S
C622 C620 1.419 . S
C622 C623 1.362 . S
C623 H613 0.930 . S
C623 C616 1.409 . S
C623 C622 1.362 . S
H624 C630 0.930 . S
H625 C633 0.930 . S
H626 C634 0.930 . S
H627 C635 0.930 . S
H628 C638 0.930 . S
H629 C639 0.930 . S
C630 H624 0.930 . S
C630 C631 1.355 . S
C630 C632 1.415 . S
C631 C630 1.355 . S
C631 C633 1.419 . S
C632 C630 1.415 . S
C632 C637 1.425 . S
C632 C639 1.409 . S
C633 H625 0.930 . S
C633 C631 1.419 . S
C633 C634 1.362 . S
C634 H626 0.930 . S
C634 C633 1.362 . S
C634 C637 1.409 . S
C635 H627 0.930 . S
C635 C636 1.355 . S
C635 C637 1.415 . S
C636 C635 1.355 . S
C636 C638 1.419 . S
C637 C632 1.425 . S
C637 C634 1.409 . S
C637 C635 1.415 . S
C638 H628 0.930 . S
C638 C636 1.419 . S
C638 C639 1.362 . S
C639 H629 0.930 . S
C639 C632 1.409 . S
C639 C638 1.362 . S
H640 C646 0.930 . S
H641 C649 0.930 . S
H642 C650 0.930 . S
H643 C651 0.930 . S
H644 C654 0.930 . S
H645 C655 0.930 . S
C646 H640 0.930 . S
C646 C647 1.355 . S
C646 C648 1.415 . S
C647 C646 1.355 . S
C647 C649 1.419 . S
C648 C646 1.415 . S
C648 C653 1.425 . S
C648 C655 1.409 . S
C649 H641 0.930 . S
C649 C647 1.419 . S
C649 C650 1.362 . S
C650 H642 0.930 . S
C650 C649 1.362 . S
C650 C653 1.409 . S
C651 H643 0.930 . S
C651 C652 1.355 . S
C651 C653 1.415 . S
C652 C651 1.355 . S
C652 C654 1.419 . S
C653 C648 1.425 . S
C653 C650 1.409 . S
C653 C651 1.415 . S
C654 H644 0.930 . S
C654 C652 1.419 . S
C654 C655 1.362 . S
C655 H645 0.930 . S
C655 C648 1.409 . S
C655 C654 1.362 . S
H656 C662 0.930 . S
H657 C665 0.930 . S
H658 C666 0.930 . S
H659 C667 0.930 . S
H660 C670 0.930 . S
H661 C671 0.930 . S
C662 H656 0.930 . S
C662 C663 1.355 . S
C662 C664 1.415 . S
C663 C662 1.355 . S
C663 C665 1.419 . S
C664 C662 1.415 . S
C664 C669 1.425 . S
C664 C671 1.409 . S
C665 H657 0.930 . S
C665 C663 1.419 . S
C665 C666 1.362 . S
C666 H658 0.930 . S
C666 C665 1.362 . S
C666 C669 1.409 . S
C667 H659 0.930 . S
C667 C668 1.355 . S
C667 C669 1.415 . S
C668 C667 1.355 . S
C668 C670 1.419 . S
C669 C664 1.425 . S
C669 C666 1.409 . S
C669 C667 1.415 . S
C670 H660 0.930 . S
C670 C668 1.419 . S
C670 C671 1.362 . S
C671 H661 0.930 . S
C671 C664 1.409 . S
C671 C670 1.362 . S
H672 C678 0.930 . S
H673 C681 0.930 . S
H674 C682 0.930 . S
H675 C683 0.930 . S
H676 C686 0.930 . S
H677 C687 0.930 . S
C678 H672 0.930 . S
C678 C679 1.355 . S
C678 C680 1.415 . S
C679 C678 1.355 . S
C679 C681 1.419 . S
C680 C678 1.415 . S
C680 C685 1.425 . S
C680 C687 1.409 . S
C681 H673 0.930 . S
C681 C679 1.419 . S
C681 C682 1.362 . S
C682 H674 0.930 . S
C682 C681 1.362 . S
C682 C685 1.409 . S
C683 H675 0.930 . S
C683 C684 1.355 . S
C683 C685 1.415 . S
C684 C683 1.355 . S
C684 C686 1.419 . S
C685 C680 1.425 . S
C685 C682 1.409 . S
C685 C683 1.415 . S
C686 H676 0.930 . S
C686 C684 1.419 . S
C686 C687 1.362 . S
C687 H677 0.930 . S
C687 C680 1.409 . S
C687 C686 1.362 . S
H688 C694 0.930 . S
H689 C697 0.930 . S
H690 C698 0.930 . S
H691 C699 0.930 . S
H692 C702 0.930 . S
H693 C703 0.930 . S
C694 H688 0.930 . S
C694 C695 1.355 . S
C694 C696 1.415 . S
C695 C694 1.355 . S
C695 C697 1.419 . S
C696 C694 1.415 . S
C696 C701 1.425 . S
C696 C703 1.409 . S
C697 H689 0.930 . S
C697 C695 1.419 . S
C697 C698 1.362 . S
C698 H690 0.930 . S
C698 C697 1.362 . S
C698 C701 1.409 . S
C699 H691 0.930 . S
C699 C700 1.355 . S
C699 C701 1.415 . S
C700 C699 1.355 . S
C700 C702 1.419 . S
C701 C696 1.425 . S
C701 C698 1.409 . S
C701 C699 1.415 . S
C702 H692 0.930 . S
C702 C700 1.419 . S
C702 C703 1.362 . S
C703 H693 0.930 . S
C703 C696 1.409 . S
C703 C702 1.362 . S
H704 C710 0.930 . S
H705 C713 0.930 . S
H706 C714 0.930 . S
H707 C715 0.930 . S
H708 C718 0.930 . S
H709 C719 0.930 . S
C710 H704 0.930 . S
C710 C711 1.355 . S
C710 C712 1.415 . S
C711 C710 1.355 . S
C711 C713 1.419 . S
C712 C710 1.415 . S
C712 C717 1.425 . S
C712 C719 1.409 . S
C713 H705 0.930 . S
C713 C711 1.419 . S
C713 C714 1.362 . S
C714 H706 0.930 . S
C714 C713 1.362 . S
C714 C717 1.409 . S
C715 H707 0.930 . S
C715 C716 1.355 . S
C715 C717 1.415 . S
C716 C715 1.355 . S
C716 C718 1.419 . S
C717 C712 1.425 . S
C717 C714 1.409 . S
C717 C715 1.415 . S
C718 H708 0.930 . S
C718 C716 1.419 . S
C718 C719 1.362 . S
C719 H709 0.930 . S
C719 C712 1.409 . S
C719 C718 1.362 . S
C279 C17 1.361 . S
C284 C85 1.361 . S
C295 C119 1.361 1_556 S
C300 C51 1.361 . S
C311 C153 1.361 . S
C316 C221 1.361 . S
C327 C255 1.361 . S
C332 C187 1.361 . S
C343 C142 1.120 . S
C348 C6 1.104 . S
C359 C198 1.173 . S
C364 C62 1.143 . S
C375 C232 1.176 . S
C380 C74 1.127 . S
C391 C266 1.162 . S
C396 C108 1.159 . S
C407 C226 0.420 . S
C412 C83 0.409 . S
C423 C260 0.668 . S
C428 C117 0.663 . S
C439 C15 0.545 . S
C444 C151 0.585 . S
C455 C192 0.430 . S
C460 C56 0.413 . S
C471 C244 1.176 . S
C476 C40 1.128 . S
C487 C164 1.161 . S
C492 C96 1.164 . S
C503 C176 1.127 . S
C508 C130 1.178 . S
C519 C210 1.176 . S
C524 C28 1.127 . S
C535 C124 0.663 . S
C540 C185 0.667 . S
C551 C22 0.642 . S
C556 C219 0.658 . S
C567 C49 0.636 . S
C572 C253 0.655 . S
C583 C158 0.411 . S
C588 C90 0.406 . S
C599 C173 2.942 . S
C604 C1 2.932 . S
C615 C37 2.942 . S
C620 C207 2.936 . S
C631 C241 2.936 . S
C636 C69 2.937 . S
C647 C103 2.942 . S
C652 C137 2.932 . S
C663 C239 2.935 . S
C668 C71 2.943 . S
C679 C139 2.934 . S
C684 C105 2.945 . S
C695 C3 2.943 . S
C700 C171 2.938 . S
C711 C205 2.939 . S
C716 C35 2.938 . S
