# Generated by pormake.
# Topology vbv, (6)-cn, num edge types: 1
# Building blocks:
#     Node 0, Type 0, BuildingBlock: IZENUY_clean_sbu_0, # of connection points: 6
#     Node 1, Type 0, BuildingBlock: IZENUY_clean_sbu_0, # of connection points: 6
#     Node 2, Type 0, BuildingBlock: IZENUY_clean_sbu_0, # of connection points: 6
#     Node 3, Type 0, BuildingBlock: IZENUY_clean_sbu_0, # of connection points: 6
#     Node 4, Type 0, BuildingBlock: IZENUY_clean_sbu_0, # of connection points: 6
#     Node 5, Type 0, BuildingBlock: IZENUY_clean_sbu_0, # of connection points: 6
#     Node 6, Type 0, BuildingBlock: IZENUY_clean_sbu_0, # of connection points: 6
#     Node 7, Type 0, BuildingBlock: IZENUY_clean_sbu_0, # of connection points: 6
#     Node 8, Type 0, BuildingBlock: IZENUY_clean_sbu_0, # of connection points: 6
#     Node 9, Type 0, BuildingBlock: IZENUY_clean_sbu_0, # of connection points: 6
#     Node 10, Type 0, BuildingBlock: IZENUY_clean_sbu_0, # of connection points: 6
#     Node 11, Type 0, BuildingBlock: IZENUY_clean_sbu_0, # of connection points: 6
#     Node 12, Type 0, BuildingBlock: IZENUY_clean_sbu_0, # of connection points: 6
#     Node 13, Type 0, BuildingBlock: IZENUY_clean_sbu_0, # of connection points: 6
#     Node 14, Type 0, BuildingBlock: IZENUY_clean_sbu_0, # of connection points: 6
#     Node 15, Type 0, BuildingBlock: IZENUY_clean_sbu_0, # of connection points: 6
#     Edge 16, Type (0, 0), BuildingBlock: EZIPEK_clean_linker_0, # of connection points: 2
#     Edge 17, Type (0, 0), BuildingBlock: EZIPEK_clean_linker_0, # of connection points: 2
#     Edge 18, Type (0, 0), BuildingBlock: EZIPEK_clean_linker_0, # of connection points: 2
#     Edge 19, Type (0, 0), BuildingBlock: EZIPEK_clean_linker_0, # of connection points: 2
#     Edge 20, Type (0, 0), BuildingBlock: EZIPEK_clean_linker_0, # of connection points: 2
#     Edge 21, Type (0, 0), BuildingBlock: EZIPEK_clean_linker_0, # of connection points: 2
#     Edge 22, Type (0, 0), BuildingBlock: EZIPEK_clean_linker_0, # of connection points: 2
#     Edge 23, Type (0, 0), BuildingBlock: EZIPEK_clean_linker_0, # of connection points: 2
#     Edge 24, Type (0, 0), BuildingBlock: EZIPEK_clean_linker_0, # of connection points: 2
#     Edge 25, Type (0, 0), BuildingBlock: EZIPEK_clean_linker_0, # of connection points: 2
#     Edge 26, Type (0, 0), BuildingBlock: EZIPEK_clean_linker_0, # of connection points: 2
#     Edge 27, Type (0, 0), BuildingBlock: EZIPEK_clean_linker_0, # of connection points: 2
#     Edge 28, Type (0, 0), BuildingBlock: EZIPEK_clean_linker_0, # of connection points: 2
#     Edge 29, Type (0, 0), BuildingBlock: EZIPEK_clean_linker_0, # of connection points: 2
#     Edge 30, Type (0, 0), BuildingBlock: EZIPEK_clean_linker_0, # of connection points: 2
#     Edge 31, Type (0, 0), BuildingBlock: EZIPEK_clean_linker_0, # of connection points: 2
#     Edge 32, Type (0, 0), BuildingBlock: EZIPEK_clean_linker_0, # of connection points: 2
#     Edge 33, Type (0, 0), BuildingBlock: EZIPEK_clean_linker_0, # of connection points: 2
#     Edge 34, Type (0, 0), BuildingBlock: EZIPEK_clean_linker_0, # of connection points: 2
#     Edge 35, Type (0, 0), BuildingBlock: EZIPEK_clean_linker_0, # of connection points: 2
#     Edge 36, Type (0, 0), BuildingBlock: EZIPEK_clean_linker_0, # of connection points: 2
#     Edge 37, Type (0, 0), BuildingBlock: EZIPEK_clean_linker_0, # of connection points: 2
#     Edge 38, Type (0, 0), BuildingBlock: EZIPEK_clean_linker_0, # of connection points: 2
#     Edge 39, Type (0, 0), BuildingBlock: EZIPEK_clean_linker_0, # of connection points: 2
#     Edge 40, Type (0, 0), BuildingBlock: EZIPEK_clean_linker_0, # of connection points: 2
#     Edge 41, Type (0, 0), BuildingBlock: EZIPEK_clean_linker_0, # of connection points: 2
#     Edge 42, Type (0, 0), BuildingBlock: EZIPEK_clean_linker_0, # of connection points: 2
#     Edge 43, Type (0, 0), BuildingBlock: EZIPEK_clean_linker_0, # of connection points: 2
#     Edge 44, Type (0, 0), BuildingBlock: EZIPEK_clean_linker_0, # of connection points: 2
#     Edge 45, Type (0, 0), BuildingBlock: EZIPEK_clean_linker_0, # of connection points: 2
#     Edge 46, Type (0, 0), BuildingBlock: EZIPEK_clean_linker_0, # of connection points: 2
#     Edge 47, Type (0, 0), BuildingBlock: EZIPEK_clean_linker_0, # of connection points: 2
#     Edge 48, Type (0, 0), BuildingBlock: EZIPEK_clean_linker_0, # of connection points: 2
#     Edge 49, Type (0, 0), BuildingBlock: EZIPEK_clean_linker_0, # of connection points: 2
#     Edge 50, Type (0, 0), BuildingBlock: EZIPEK_clean_linker_0, # of connection points: 2
#     Edge 51, Type (0, 0), BuildingBlock: EZIPEK_clean_linker_0, # of connection points: 2
#     Edge 52, Type (0, 0), BuildingBlock: EZIPEK_clean_linker_0, # of connection points: 2
#     Edge 53, Type (0, 0), BuildingBlock: EZIPEK_clean_linker_0, # of connection points: 2
#     Edge 54, Type (0, 0), BuildingBlock: EZIPEK_clean_linker_0, # of connection points: 2
#     Edge 55, Type (0, 0), BuildingBlock: EZIPEK_clean_linker_0, # of connection points: 2
#     Edge 56, Type (0, 0), BuildingBlock: EZIPEK_clean_linker_0, # of connection points: 2
#     Edge 57, Type (0, 0), BuildingBlock: EZIPEK_clean_linker_0, # of connection points: 2
#     Edge 58, Type (0, 0), BuildingBlock: EZIPEK_clean_linker_0, # of connection points: 2
#     Edge 59, Type (0, 0), BuildingBlock: EZIPEK_clean_linker_0, # of connection points: 2
#     Edge 60, Type (0, 0), BuildingBlock: EZIPEK_clean_linker_0, # of connection points: 2
#     Edge 61, Type (0, 0), BuildingBlock: EZIPEK_clean_linker_0, # of connection points: 2
#     Edge 62, Type (0, 0), BuildingBlock: EZIPEK_clean_linker_0, # of connection points: 2
#     Edge 63, Type (0, 0), BuildingBlock: EZIPEK_clean_linker_0, # of connection points: 2
# Relax obj value: 0.262
# Max RMSD: 0.241
# Mean RMSD: 0.241
data_MOF--net-vbv--node1-IZENUY_clean_sbu_0--edge1-EZIPEK_clean_linker_0
_symmetry_space_group_name_H-M    P1
_symmetry_Int_Tables_number       1
_symmetry_cell_setting            triclinic
loop_
_symmetry_equiv_pos_as_xyz
'x, y, z'
_cell_length_a     39.760223
_cell_length_b     19.708205
_cell_length_c     34.925292
_cell_angle_alpha  90.042664
_cell_angle_beta   90.020553
_cell_angle_gamma 89.974136
loop_
_atom_site_label
_atom_site_type_symbol
_atom_site_fract_x
_atom_site_fract_y
_atom_site_fract_z
_atom_type_partial_charge
Fe0 Fe 0.13705 0.40591 0.1202 0.0
Fe1 Fe 0.18128 0.27565 0.12067 0.0
O2 O 0.15254 0.33168 0.09727 0.0
Fe3 Fe 0.13968 0.31175 0.04931 0.0
O4 O 0.12957 0.39676 0.03245 0.0
O5 O 0.1457 0.46111 0.07919 0.0
O6 O 0.17979 0.43349 0.1367 0.0
C7 C 0.20902 0.40592 0.1355 0.0
C8 C 0.07968 0.33398 0.08776 0.0
O9 O 0.2118 0.34306 0.12898 0.0
C10 C 0.14335 0.18289 0.08149 0.0
O11 O 0.12679 0.3637 0.1655 0.0
O12 O 0.16481 0.28378 0.16848 0.0
O13 O 0.09717 0.29855 0.06505 0.0
O14 O 0.09238 0.38532 0.10565 0.0
C15 C 0.20671 0.29015 0.04643 0.0
O16 O 0.15317 0.20239 0.11411 0.0
O17 O 0.14598 0.22147 0.05323 0.0
C18 C 0.14142 0.31685 0.18352 0.0
O19 O 0.2039 0.25718 0.07719 0.0
O20 O 0.18231 0.3228 0.03232 0.0
C21 C 0.13929 0.45327 0.04425 0.0
Fe22 Fe 0.39058 0.70498 0.04894 0.0
Fe23 Fe 0.39542 0.62256 0.12294 0.0
O24 O 0.37536 0.68586 0.09526 0.0
Fe25 Fe 0.3394 0.72837 0.11281 0.0
O26 O 0.31479 0.69652 0.07394 0.0
O27 O 0.3496 0.72511 0.02877 0.0
O28 O 0.38338 0.61929 0.03296 0.0
C29 C 0.39722 0.56788 0.04704 0.0
C30 C 0.37518 0.83286 0.07066 0.0
O31 O 0.40884 0.57014 0.08104 0.0
C32 C 0.37702 0.72428 0.17806 0.0
O33 O 0.4345 0.68927 0.06135 0.0
O34 O 0.43481 0.67068 0.12302 0.0
O35 O 0.34894 0.8099 0.08726 0.0
O36 O 0.39816 0.79224 0.06132 0.0
C37 C 0.32746 0.59211 0.13432 0.0
O38 O 0.38608 0.6643 0.16919 0.0
O39 O 0.36172 0.76086 0.15401 0.0
C40 C 0.44867 0.69564 0.09362 0.0
O41 O 0.35656 0.57152 0.12457 0.0
O42 O 0.32272 0.65509 0.14002 0.0
C43 C 0.32081 0.70601 0.03916 0.0
Fe44 Fe 0.63237 0.62561 0.40138 0.0
Fe45 Fe 0.67838 0.75147 0.40309 0.0
O46 O 0.64759 0.69956 0.42528 0.0
Fe47 Fe 0.63113 0.72168 0.47106 0.0
O48 O 0.64455 0.64143 0.49161 0.0
O49 O 0.62434 0.57597 0.44628 0.0
O50 O 0.67448 0.58676 0.40095 0.0
C51 C 0.70148 0.61413 0.38919 0.0
C52 C 0.57446 0.68896 0.42787 0.0
O53 O 0.7019 0.67778 0.38135 0.0
C54 C 0.63515 0.84979 0.44177 0.0
O55 O 0.63762 0.66043 0.352 0.0
O56 O 0.65285 0.7658 0.36146 0.0
O57 O 0.58896 0.69019 0.46017 0.0
O58 O 0.58974 0.66152 0.40013 0.0
C59 C 0.69993 0.75682 0.47618 0.0
O60 O 0.66148 0.83296 0.42309 0.0
O61 O 0.61659 0.80386 0.45512 0.0
C62 C 0.64133 0.72084 0.33971 0.0
O63 O 0.7063 0.74335 0.44204 0.0
O64 O 0.67035 0.75818 0.48929 0.0
C65 C 0.63644 0.58332 0.47988 0.0
Fe66 Fe 0.8874 0.34331 0.47829 0.0
Fe67 Fe 0.89431 0.41888 0.4017 0.0
O68 O 0.87443 0.35547 0.42972 0.0
Fe69 Fe 0.84114 0.3038 0.41176 0.0
O70 O 0.81886 0.3079 0.45689 0.0
O71 O 0.8473 0.37667 0.49494 0.0
O72 O 0.90695 0.42523 0.48771 0.0
C73 C 0.90132 0.48207 0.47336 0.0
C74 C 0.87125 0.21003 0.45958 0.0
O75 O 0.8916 0.4841 0.43922 0.0
C76 C 0.88134 0.31847 0.34482 0.0
O77 O 0.92696 0.30952 0.46176 0.0
O78 O 0.93717 0.38716 0.41662 0.0
O79 O 0.86308 0.22358 0.42527 0.0
O80 O 0.87216 0.25716 0.48356 0.0
C81 C 0.82315 0.43711 0.38704 0.0
O82 O 0.89902 0.36549 0.35898 0.0
O83 O 0.85736 0.29289 0.36339 0.0
C84 C 0.94641 0.33572 0.43702 0.0
O85 O 0.85382 0.45632 0.3847 0.0
O86 O 0.81567 0.3773 0.39741 0.0
C87 C 0.81963 0.35144 0.48365 0.0
Fe88 Fe 0.88627 0.72224 0.97863 0.0
Fe89 Fe 0.83982 0.75057 0.91038 0.0
O90 O 0.87207 0.70043 0.93157 0.0
Fe91 Fe 0.8902 0.62966 0.90755 0.0
O92 O 0.8838 0.57277 0.94854 0.0
O93 O 0.90213 0.63951 0.99304 0.0
O94 O 0.84566 0.70096 0.99872 0.0
C95 C 0.81913 0.72811 0.98583 0.0
C96 C 0.94493 0.71012 0.93789 0.0
O97 O 0.81872 0.76209 0.95527 0.0
C98 C 0.88086 0.72075 0.84614 0.0
O99 O 0.87477 0.81082 0.97713 0.0
O100 O 0.86394 0.83052 0.91697 0.0
O101 O 0.93399 0.65519 0.92233 0.0
O102 O 0.92629 0.74555 0.95932 0.0
C103 C 0.81845 0.6154 0.89389 0.0
O104 O 0.85543 0.74717 0.86149 0.0
O105 O 0.89825 0.67654 0.86326 0.0
C106 C 0.87354 0.85131 0.94967 0.0
O107 O 0.81217 0.67652 0.90311 0.0
O108 O 0.84896 0.59573 0.88986 0.0
C109 C 0.89212 0.5823 0.98281 0.0
Fe110 Fe 0.6231 0.33393 0.97194 0.0
Fe111 Fe 0.67415 0.30092 0.90944 0.0
O112 O 0.64191 0.35341 0.92747 0.0
Fe113 Fe 0.6272 0.42303 0.90091 0.0
O114 O 0.61823 0.47613 0.9446 0.0
O115 O 0.63637 0.41308 0.99253 0.0
O116 O 0.66161 0.29765 0.99325 0.0
C117 C 0.69196 0.30685 0.98368 0.0
C118 C 0.56781 0.36401 0.92718 0.0
O119 O 0.6999 0.321 0.94987 0.0
C120 C 0.6388 0.32049 0.84341 0.0
O121 O 0.60879 0.25375 0.95273 0.0
O122 O 0.65821 0.22182 0.93378 0.0
O123 O 0.5847 0.38443 0.89868 0.0
O124 O 0.58184 0.3681 0.95942 0.0
C125 C 0.69678 0.43452 0.89072 0.0
O126 O 0.65022 0.27826 0.86731 0.0
O127 O 0.63416 0.38213 0.85343 0.0
C128 C 0.62967 0.20713 0.94863 0.0
O129 O 0.69635 0.37102 0.88358 0.0
O130 O 0.66943 0.46271 0.90112 0.0
C131 C 0.62951 0.47035 0.97887 0.0
Fe132 Fe 0.39461 0.42876 0.62298 0.0
Fe133 Fe 0.39785 0.33891 0.55169 0.0
O134 O 0.38016 0.35718 0.59702 0.0
Fe135 Fe 0.34954 0.30204 0.61701 0.0
O136 O 0.32565 0.37234 0.64139 0.0
O137 O 0.35173 0.4659 0.62333 0.0
O138 O 0.40308 0.48182 0.57938 0.0
C139 C 0.39203 0.47648 0.54514 0.0
C140 C 0.38621 0.32766 0.68151 0.0
O141 O 0.3838 0.41925 0.53204 0.0
C142 C 0.39361 0.21042 0.57478 0.0
O143 O 0.43784 0.39333 0.62428 0.0
O144 O 0.43926 0.37257 0.56348 0.0
O145 O 0.37507 0.28434 0.65829 0.0
O146 O 0.3888 0.38926 0.67098 0.0
C147 C 0.32915 0.30164 0.54396 0.0
O148 O 0.41346 0.25818 0.56871 0.0
O149 O 0.36672 0.22288 0.59361 0.0
C150 C 0.45358 0.36936 0.5957 0.0
O151 O 0.35912 0.30137 0.532 0.0
O152 O 0.32184 0.31452 0.57798 0.0
C153 C 0.32491 0.43613 0.6342 0.0
Fe154 Fe 0.12947 0.62739 0.62815 0.0
Fe155 Fe 0.13823 0.70824 0.55399 0.0
O156 O 0.15038 0.69037 0.60167 0.0
Fe157 Fe 0.18406 0.73403 0.62276 0.0
O158 O 0.19902 0.66006 0.65162 0.0
O159 O 0.16854 0.57569 0.63074 0.0
O160 O 0.11754 0.57441 0.58556 0.0
C161 C 0.13108 0.57129 0.55247 0.0
C162 C 0.14434 0.72945 0.68464 0.0
O163 O 0.14607 0.62202 0.539 0.0
C164 C 0.15193 0.83727 0.57504 0.0
O165 O 0.09062 0.67884 0.62545 0.0
O166 O 0.09326 0.69124 0.56342 0.0
O167 O 0.15769 0.76789 0.6603 0.0
O168 O 0.13773 0.66796 0.67582 0.0
C169 C 0.2095 0.71576 0.55371 0.0
O170 O 0.12958 0.79622 0.56463 0.0
O171 O 0.1764 0.81583 0.59563 0.0
C172 C 0.07756 0.7011 0.59453 0.0
O173 O 0.18142 0.7289 0.53797 0.0
O174 O 0.21136 0.70008 0.58784 0.0
C175 C 0.19684 0.59758 0.64253 0.0
Fe176 Fe 0.63165 0.91542 0.12414 0.0
Fe177 Fe 0.68333 0.79787 0.11641 0.0
O178 O 0.65023 0.84847 0.09723 0.0
Fe179 Fe 0.63579 0.83081 0.04977 0.0
O180 O 0.62097 0.91528 0.0376 0.0
O181 O 0.6369 0.97752 0.08562 0.0
O182 O 0.67305 0.94812 0.14265 0.0
C183 C 0.70368 0.93115 0.13601 0.0
C184 C 0.57695 0.83932 0.09074 0.0
O185 O 0.71046 0.87212 0.12372 0.0
C186 C 0.64864 0.69993 0.07632 0.0
O187 O 0.62405 0.86212 0.16631 0.0
O188 O 0.66929 0.79865 0.16607 0.0
O189 O 0.5956 0.80657 0.06813 0.0
O190 O 0.58795 0.89158 0.10877 0.0
C191 C 0.7028 0.82487 0.04131 0.0
O192 O 0.65937 0.71817 0.10905 0.0
O193 O 0.64677 0.74207 0.04966 0.0
C194 C 0.64316 0.81985 0.18254 0.0
O195 O 0.70359 0.78847 0.07087 0.0
O196 O 0.67613 0.85278 0.02986 0.0
C197 C 0.62954 0.97169 0.05075 0.0
Fe198 Fe 0.88695 0.23 0.05398 0.0
Fe199 Fe 0.89136 0.13127 0.12191 0.0
O200 O 0.87366 0.20407 0.10023 0.0
Fe201 Fe 0.8426 0.25155 0.12514 0.0
O202 O 0.81264 0.23526 0.08879 0.0
O203 O 0.84492 0.25917 0.03935 0.0
O204 O 0.87614 0.15037 0.03203 0.0
C205 C 0.88496 0.0922 0.04255 0.0
C206 C 0.88002 0.35521 0.08529 0.0
O207 O 0.89749 0.08355 0.07593 0.0
C208 C 0.88376 0.22601 0.18508 0.0
O209 O 0.93072 0.20519 0.06119 0.0
O210 O 0.93382 0.16953 0.12033 0.0
O211 O 0.85386 0.33513 0.103 0.0
O212 O 0.8995 0.3119 0.07134 0.0
C213 C 0.82337 0.11504 0.13983 0.0
O214 O 0.88822 0.1659 0.172 0.0
O215 O 0.87076 0.27065 0.16396 0.0
C216 C 0.94713 0.20023 0.09214 0.0
O217 O 0.84953 0.08999 0.12434 0.0
O218 O 0.82447 0.1767 0.15067 0.0
C219 C 0.81625 0.24818 0.054 0.0
Fe220 Fe 0.17977 0.24537 0.40145 0.0
Fe221 Fe 0.13629 0.21695 0.47184 0.0
O222 O 0.14876 0.19617 0.42442 0.0
Fe223 Fe 0.13161 0.12523 0.40053 0.0
O224 O 0.17382 0.08472 0.39647 0.0
O225 O 0.19819 0.17457 0.3729 0.0
O226 O 0.20872 0.22027 0.43693 0.0
C227 C 0.2067 0.23727 0.47091 0.0
C228 C 0.13855 0.22705 0.34121 0.0
O229 O 0.17841 0.24791 0.48668 0.0
C230 C 0.07613 0.18995 0.43299 0.0
O231 O 0.16851 0.32665 0.4273 0.0
O232 O 0.12258 0.30061 0.45788 0.0
O233 O 0.13442 0.16569 0.35227 0.0
O234 O 0.15194 0.2698 0.36336 0.0
C235 C 0.13879 0.0783 0.47771 0.0
O236 O 0.09255 0.1908 0.46418 0.0
O237 O 0.08923 0.16246 0.40365 0.0
C238 C 0.14285 0.34497 0.4468 0.0
O239 O 0.14878 0.13478 0.48998 0.0
O240 O 0.12549 0.07319 0.44463 0.0
C241 C 0.19994 0.11232 0.38226 0.0
Fe242 Fe 0.39475 0.92292 0.39449 0.0
Fe243 Fe 0.34335 0.80782 0.4007 0.0
O244 O 0.37722 0.85408 0.41984 0.0
Fe245 Fe 0.39287 0.8328 0.46575 0.0
O246 O 0.3809 0.91573 0.48446 0.0
O247 O 0.40535 0.97297 0.43846 0.0
O248 O 0.35366 0.96796 0.39356 0.0
C249 C 0.32536 0.94354 0.38316 0.0
C250 C 0.45034 0.85479 0.42313 0.0
O251 O 0.3234 0.88046 0.37592 0.0
C252 C 0.38407 0.70517 0.43956 0.0
O253 O 0.38746 0.88446 0.34658 0.0
O254 O 0.36669 0.7833 0.35887 0.0
O255 O 0.43554 0.86019 0.45498 0.0
O256 O 0.43616 0.88035 0.39395 0.0
C257 C 0.3236 0.80994 0.47299 0.0
O258 O 0.35695 0.72547 0.42347 0.0
O259 O 0.40525 0.74889 0.45018 0.0
C260 C 0.38019 0.82434 0.33587 0.0
O261 O 0.3178 0.8323 0.44041 0.0
O262 O 0.35328 0.79929 0.48396 0.0
C263 C 0.39284 0.97091 0.47215 0.0
Fe264 Fe 0.34956 0.24511 0.90522 0.0
Fe265 Fe 0.39326 0.11823 0.89462 0.0
O266 O 0.38058 0.1886 0.92233 0.0
Fe267 Fe 0.40019 0.20414 0.96696 0.0
O268 O 0.36282 0.24388 0.98931 0.0
O269 O 0.32381 0.22814 0.94573 0.0
O270 O 0.32478 0.17764 0.87991 0.0
C271 C 0.32332 0.11382 0.88638 0.0
C272 C 0.3969 0.33252 0.94514 0.0
O273 O 0.35022 0.08261 0.89539 0.0
C274 C 0.45373 0.1727 0.92021 0.0
O275 O 0.37337 0.26575 0.86295 0.0
O276 O 0.38663 0.16113 0.84777 0.0
O277 O 0.41641 0.28365 0.9494 0.0
O278 O 0.36826 0.32193 0.92948 0.0
C279 C 0.39094 0.06779 0.9716 0.0
O280 O 0.43654 0.1525 0.89194 0.0
O281 O 0.44049 0.1671 0.95293 0.0
C282 C 0.38395 0.22355 0.83866 0.0
O283 O 0.40185 0.06287 0.93723 0.0
O284 O 0.38518 0.12498 0.98621 0.0
C285 C 0.33229 0.24105 0.9794 0.0
Fe286 Fe 0.13069 0.91713 0.90357 0.0
Fe287 Fe 0.13261 0.82303 0.97337 0.0
O288 O 0.14876 0.84863 0.92865 0.0
Fe289 Fe 0.18247 0.8026 0.90892 0.0
O290 O 0.20129 0.87724 0.88361 0.0
O291 O 0.17082 0.96355 0.90217 0.0
O292 O 0.12135 0.96617 0.94858 0.0
C293 C 0.13274 0.95906 0.98279 0.0
C294 C 0.14487 0.81853 0.84479 0.0
O295 O 0.142 0.90225 0.99486 0.0
C296 C 0.14432 0.69906 0.94889 0.0
O297 O 0.08936 0.87376 0.90284 0.0
O298 O 0.08965 0.84839 0.96357 0.0
O299 O 0.15719 0.77669 0.8683 0.0
O300 O 0.13848 0.8794 0.8552 0.0
C301 C 0.20297 0.81326 0.98177 0.0
O302 O 0.12152 0.74145 0.95381 0.0
O303 O 0.17162 0.71945 0.9333 0.0
C304 C 0.07483 0.84803 0.93174 0.0
O305 O 0.17381 0.79489 0.99171 0.0
O306 O 0.20857 0.82778 0.94752 0.0
C307 C 0.19908 0.94051 0.89129 0.0
Fe308 Fe 0.89428 0.92002 0.6332 0.0
Fe309 Fe 0.89066 0.83417 0.55985 0.0
O310 O 0.87672 0.85197 0.60702 0.0
Fe311 Fe 0.84481 0.802 0.62799 0.0
O312 O 0.82576 0.87328 0.65619 0.0
O313 O 0.85307 0.96258 0.63583 0.0
O314 O 0.9027 0.9747 0.59005 0.0
C315 C 0.88944 0.97319 0.55666 0.0
C316 C 0.88656 0.81471 0.68933 0.0
O317 O 0.87903 0.91796 0.54307 0.0
C318 C 0.88292 0.70424 0.58231 0.0
O319 O 0.93597 0.87918 0.63144 0.0
O320 O 0.93441 0.85912 0.56965 0.0
O321 O 0.87192 0.77529 0.66637 0.0
O322 O 0.88863 0.87768 0.68081 0.0
C323 C 0.82001 0.81403 0.55763 0.0
O324 O 0.90348 0.74915 0.5725 0.0
O325 O 0.85675 0.72154 0.60138 0.0
C326 C 0.94968 0.85516 0.60152 0.0
O327 O 0.84893 0.8051 0.54302 0.0
O328 O 0.81632 0.82738 0.5921 0.0
C329 C 0.82584 0.93624 0.64744 0.0
Fe330 Fe 0.63224 0.12708 0.62289 0.0
Fe331 Fe 0.6385 0.22393 0.55422 0.0
O332 O 0.65175 0.19704 0.60031 0.0
Fe333 Fe 0.68492 0.24068 0.6237 0.0
O334 O 0.70166 0.16488 0.64967 0.0
O335 O 0.67268 0.08044 0.62555 0.0
O336 O 0.62421 0.07912 0.57731 0.0
C337 C 0.63571 0.08585 0.54329 0.0
C338 C 0.64302 0.22326 0.68445 0.0
O339 O 0.64684 0.14244 0.53256 0.0
C340 C 0.65068 0.34873 0.58203 0.0
O341 O 0.59106 0.17032 0.62173 0.0
O342 O 0.59414 0.2041 0.56238 0.0
O343 O 0.65843 0.2647 0.66322 0.0
O344 O 0.63681 0.16333 0.67221 0.0
C345 C 0.70994 0.23479 0.55232 0.0
O346 O 0.62858 0.30785 0.57109 0.0
O347 O 0.67582 0.32556 0.60071 0.0
C348 C 0.57826 0.20244 0.59382 0.0
O349 O 0.68103 0.24945 0.5392 0.0
O350 O 0.71309 0.21766 0.58651 0.0
C351 C 0.69979 0.10247 0.64037 0.0
C352 C 0.105 0.10093 0.05129 0.0
C353 C 0.13521 0.11163 0.07188 0.0
C354 C 0.16292 1.02219 0.03527 0.0
C355 C 0.13346 1.01484 1.01188 0.0
N356 N 0.07404 0.03669 1.00359 0.0
N357 N 0.18782 0.06771 0.09361 0.0
C358 C 0.10368 0.05109 0.02167 0.0
C359 C 0.16235 0.06664 0.06738 0.0
N360 N 0.07802 0.14122 0.05952 0.0
N361 N 0.19203 0.98912 0.0258 0.0
H362 H 0.18723 0.09962 0.11744 0.0
H363 H 0.20742 0.03273 0.09422 0.0
H364 H 0.19435 0.95742 1.00215 0.0
H365 H 0.21497 0.99709 0.0394 0.0
H366 H 0.0563 0.14366 0.04305 0.0
H367 H 0.07803 0.17333 0.08333 0.0
H368 H 0.0508 0.0558 1.01202 0.0
H369 H 0.07214 1.0026 0.98099 0.0
C370 C 0.41482 0.97792 0.01546 0.0
C371 C 0.38651 1.00712 0.99706 0.0
C372 C 0.34876 0.93731 0.03758 0.0
C373 C 0.37737 0.90346 0.05334 0.0
N374 N 0.43617 0.91141 0.06876 0.0
N375 N 0.32655 1.01651 0.98996 0.0
C376 C 0.41001 0.92984 0.04554 0.0
C377 C 0.35344 0.9874 1.00815 0.0
N378 N 0.44646 0.99537 1.00374 0.0
N379 N 0.31745 0.92423 0.05192 0.0
H380 H 0.32918 0.05133 0.96771 0.0
H381 H 0.30147 1.00618 0.99573 0.0
H382 H 0.31348 0.89736 0.07708 0.0
H383 H 0.29532 0.94624 0.04218 0.0
H384 H 0.46818 0.97066 1.01284 0.0
H385 H 0.45095 0.03135 0.98248 0.0
H386 H 0.46018 0.93224 0.06714 0.0
H387 H 0.43276 0.88065 0.09279 0.0
C388 C 0.66051 1.01796 0.48698 0.0
C389 C 0.63342 0.02946 0.5134 0.0
C390 C 0.60171 0.93822 0.48001 0.0
C391 C 0.63069 0.92122 0.4581 0.0
N392 N 0.67694 0.97289 0.42514 0.0
N393 N 0.57581 1.00478 0.53073 0.0
C394 C 0.65703 0.96927 0.45689 0.0
C395 C 0.60326 0.99086 0.50854 0.0
N396 N 0.69049 0.05091 0.49122 0.0
N397 N 0.57171 0.90924 0.47026 0.0
H398 H 0.57351 0.04863 0.54717 0.0
H399 H 0.5553 0.97232 0.53336 0.0
H400 H 0.56928 0.87713 0.44664 0.0
H401 H 0.54871 0.9239 0.48171 0.0
H402 H 0.71201 0.03746 0.47595 0.0
H403 H 0.69506 0.08751 0.51191 0.0
H404 H 0.69469 1.01106 0.42089 0.0
H405 H 0.6723 0.9437 0.40078 0.0
C406 C 0.85846 0.07876 0.53508 0.0
C407 C 0.88679 0.03548 0.53142 0.0
C408 C 0.90342 0.10117 0.47383 0.0
C409 C 0.8732 0.13961 0.476 0.0
N410 N 0.81783 0.15024 0.5028 0.0
N411 N 0.93435 1.00022 0.49349 0.0
C412 C 0.84934 0.12294 0.50459 0.0
C413 C 0.90859 0.04482 0.49939 0.0
N414 N 0.84131 0.08113 0.56874 0.0
N415 N 0.92778 0.12028 0.4485 0.0
H416 H 0.93985 0.96107 0.51258 0.0
H417 H 0.94901 0.99999 0.46878 0.0
H418 H 0.92409 0.15926 0.42871 0.0
H419 H 0.95197 0.09999 0.44849 0.0
H420 H 0.82179 0.11504 0.57405 0.0
H421 H 0.84956 0.05524 0.59282 0.0
H422 H 0.79834 0.1351 0.52082 0.0
H423 H 0.81038 0.18182 0.48038 0.0
C424 C 0.8515 1.02065 0.99443 0.0
C425 C 0.88268 0.03516 0.0134 0.0
C426 C 0.90929 0.94589 0.97371 0.0
C427 C 0.87726 0.92421 0.96061 0.0
N428 N 0.81727 0.93824 0.96054 0.0
N429 N 0.94222 1.01246 0.01882 0.0
C430 C 0.8483 0.96153 0.97108 0.0
C431 C 0.9119 0.99801 1.00227 0.0
N432 N 0.82473 0.06351 0.99802 0.0
N433 N 0.93728 0.91637 0.95827 0.0
H434 H 0.94591 0.05339 0.03721 0.0
H435 H 0.96355 0.9824 0.01559 0.0
H436 H 0.93561 0.87941 0.9369 0.0
H437 H 0.96172 0.93262 0.96358 0.0
H438 H 0.80297 0.05955 0.98154 0.0
H439 H 0.8252 0.10705 0.01453 0.0
H440 H 0.79489 0.9563 0.97226 0.0
H441 H 0.81398 0.89813 0.94143 0.0
C442 C 0.60797 0.14564 1.00931 0.0
C443 C 0.62573 0.14451 0.97322 0.0
C444 C 0.64979 0.03521 0.99222 0.0
C445 C 0.62856 0.03211 0.02486 0.0
N446 N 0.58047 0.07771 0.05789 0.0
N447 N 0.6556 0.07545 0.92723 0.0
C448 C 0.60519 0.08485 0.03106 0.0
C449 C 0.64383 0.08488 0.96354 0.0
N450 N 0.59648 0.20452 0.02547 0.0
N451 N 0.67747 0.99473 0.98998 0.0
H452 H 0.65022 0.10897 0.90493 0.0
H453 H 0.66714 0.03046 0.91855 0.0
H454 H 0.68561 0.96684 0.01345 0.0
H455 H 0.69497 0.99813 0.96784 0.0
H456 H 0.58603 0.20609 0.05283 0.0
H457 H 0.60141 0.253 0.01552 0.0
H458 H 0.56071 0.11223 0.06058 0.0
H459 H 0.57789 0.03427 0.07469 0.0
C460 C 0.39903 0.02455 0.53911 0.0
C461 C 0.39456 0.03215 0.49864 0.0
C462 C 0.39826 0.15584 0.508 0.0
C463 C 0.39598 0.14863 0.54885 0.0
N464 N 0.39075 0.07257 0.60254 0.0
N465 N 0.3812 0.11019 0.44716 0.0
C466 C 0.39481 0.08183 0.56409 0.0
C467 C 0.39165 0.09911 0.4839 0.0
N468 N 0.40992 0.96417 0.5538 0.0
N469 N 0.40751 0.21556 0.49104 0.0
H470 H 0.37511 0.07189 0.42801 0.0
H471 H 0.37466 0.15824 0.43708 0.0
H472 H 0.41389 0.25993 0.50511 0.0
H473 H 0.41289 0.2189 0.46187 0.0
H474 H 0.41612 0.95769 0.58255 0.0
H475 H 0.4173 0.92342 0.53675 0.0
H476 H 0.38599 0.02517 0.61461 0.0
H477 H 0.39001 0.11266 0.62203 0.0
C478 C 0.12043 0.94314 0.55459 0.0
C479 C 0.1514 0.90682 0.55596 0.0
C480 C 0.17483 0.98861 0.50885 0.0
C481 C 0.1426 1.01775 0.50351 0.0
N482 N 0.08409 1.02198 0.52024 0.0
N483 N 0.20767 0.89388 0.53073 0.0
C484 C 0.11522 0.99474 0.52619 0.0
C485 C 0.1786 0.92998 0.53248 0.0
N486 N 0.09625 0.92908 0.58125 0.0
N487 N 0.20223 1.01731 0.49152 0.0
H488 H 0.21252 0.85443 0.54912 0.0
H489 H 0.22612 0.90091 0.50993 0.0
H490 H 0.20053 0.05765 0.4723 0.0
H491 H 0.22694 1.00447 0.49831 0.0
H492 H 0.07424 0.95702 0.58449 0.0
H493 H 0.09978 0.89313 0.60282 0.0
H494 H 0.0624 1.00611 0.53413 0.0
H495 H 0.07957 0.05824 0.4992 0.0
C496 C 0.66645 0.55499 1.0125 0.0
C497 C 0.63354 0.52976 1.0053 0.0
C498 C 0.61168 0.6039 0.05656 0.0
C499 C 0.64471 0.62819 0.06381 0.0
N500 N 0.70415 0.61531 0.05564 0.0
N501 N 0.57559 0.52138 0.02484 0.0
C502 C 0.67229 0.59916 0.04418 0.0
C503 C 0.60636 0.55144 0.02881 0.0
N504 N 0.69196 0.53877 0.98801 0.0
N505 N 0.5853 0.63339 0.0753 0.0
H506 H 0.57055 0.48527 1.00376 0.0
H507 H 0.5556 0.52951 0.04352 0.0
H508 H 0.5889 0.66882 0.09718 0.0
H509 H 0.56019 0.62455 0.06856 0.0
H510 H 0.71612 0.55853 0.98993 0.0
H511 H 0.68854 0.50749 0.96434 0.0
H512 H 0.72576 0.5924 0.04484 0.0
H513 H 0.70865 0.64727 0.07893 0.0
C514 C 0.91666 0.44572 0.0559 0.0
C515 C 0.88461 0.42695 0.07066 0.0
C516 C 0.8583 0.51563 0.03127 0.0
C517 C 0.88954 0.52733 1.01236 0.0
N518 N 0.94889 0.50518 1.00709 0.0
N519 N 0.82935 0.46786 0.08641 0.0
C520 C 0.91899 0.49357 0.02527 0.0
C521 C 0.85667 0.46939 0.06277 0.0
N522 N 0.94486 0.41947 0.07273 0.0
N523 N 0.82994 0.54729 0.01832 0.0
H524 H 0.82934 0.44087 0.11204 0.0
H525 H 0.80876 0.5001 0.08374 0.0
H526 H 0.83004 0.57876 0.99445 0.0
H527 H 0.80589 0.53827 0.02888 0.0
H528 H 0.9693 0.43345 0.06565 0.0
H529 H 0.94349 0.38847 0.09693 0.0
H530 H 0.97071 0.47748 1.01219 0.0
H531 H 0.95143 0.54004 0.98481 0.0
C532 C 0.10864 0.50767 0.49422 0.0
C533 C 0.12917 0.50915 0.52769 0.0
C534 C 0.16404 0.42022 0.49988 0.0
C535 C 0.14158 0.41119 0.46869 0.0
N536 N 0.0892 0.44271 0.43901 0.0
N537 N 0.16878 0.44866 0.5668 0.0
C538 C 0.11272 0.45384 0.46679 0.0
C539 C 0.15427 0.45934 0.53199 0.0
N540 N 0.08542 0.55766 0.48858 0.0
N541 N 0.1957 0.39497 0.49807 0.0
H542 H 0.16047 0.47364 0.59129 0.0
H543 H 0.18586 0.40946 0.57182 0.0
H544 H 0.20514 0.37768 0.47231 0.0
H545 H 0.21362 0.40242 0.51944 0.0
H546 H 0.07217 0.56364 0.46306 0.0
H547 H 0.08061 0.59496 0.50907 0.0
H548 H 0.06594 0.46703 0.43847 0.0
H549 H 0.09253 0.40651 0.4175 0.0
C550 C 0.35958 0.56055 0.50511 0.0
C551 C 0.39117 0.53617 0.51801 0.0
C552 C 0.41885 0.61084 0.47043 0.0
C553 C 0.3868 0.63537 0.45808 0.0
N554 N 0.3282 0.60535 0.45164 0.0
N555 N 0.45125 0.53293 0.51053 0.0
C556 C 0.35755 0.60187 0.47175 0.0
C557 C 0.421 0.55987 0.49986 0.0
N558 N 0.33137 0.54642 0.52575 0.0
N559 N 0.44714 0.63549 0.45311 0.0
H560 H 0.45357 0.49882 0.53314 0.0
H561 H 0.47399 0.54278 0.49696 0.0
H562 H 0.44601 0.66508 0.42836 0.0
H563 H 0.47154 0.62614 0.46238 0.0
H564 H 0.30791 0.56755 0.51968 0.0
H565 H 0.33266 0.52078 0.55175 0.0
H566 H 0.30665 0.5786 0.45941 0.0
H567 H 0.32711 0.62511 0.42403 0.0
C568 C 0.40239 0.4594 0.95612 0.0
C569 C 0.40201 0.39263 0.97108 0.0
C570 C 0.39831 0.44006 0.03624 0.0
C571 C 0.40164 0.50681 0.02167 0.0
N572 N 0.41909 0.57563 0.96776 0.0
N573 N 0.41359 0.32347 0.028 0.0
C574 C 0.40719 0.51537 0.98152 0.0
C575 C 0.40456 0.38395 1.01177 0.0
N576 N 0.39888 0.46971 0.91767 0.0
N577 N 0.3876 0.42878 0.07285 0.0
H578 H 0.42053 0.2802 0.01313 0.0
H579 H 0.4185 0.31873 0.05721 0.0
H580 H 0.38169 0.4671 0.09209 0.0
H581 H 0.38092 0.38068 0.08269 0.0
H582 H 0.39542 0.51773 0.9058 0.0
H583 H 0.39732 0.42997 0.898 0.0
H584 H 0.42597 0.58267 0.93925 0.0
H585 H 0.42637 0.61547 0.98559 0.0
C586 C 0.15665 0.51388 0.98216 0.0
C587 C 0.13897 0.51356 0.01779 0.0
C588 C 0.12746 0.63478 1.00987 0.0
C589 C 0.1427 0.63473 0.9725 0.0
N590 N 0.16476 0.56796 0.92036 0.0
N591 N 0.09774 0.56896 0.05738 0.0
C592 C 0.15536 0.57244 0.95792 0.0
C593 C 0.1214 0.5725 0.02904 0.0
N594 N 0.17546 0.45914 0.97162 0.0
N595 N 0.12023 0.69374 0.02884 0.0
H596 H 0.09139 0.52378 0.07114 0.0
H597 H 0.08155 0.60903 0.06381 0.0
H598 H 0.12496 0.74204 0.01863 0.0
H599 H 0.11298 0.69467 0.05752 0.0
H600 H 0.19236 0.45992 0.94883 0.0
H601 H 0.17596 0.41438 0.98715 0.0
H602 H 0.17075 0.52224 0.90702 0.0
H603 H 0.16326 0.60869 0.90141 0.0
C604 C 0.91379 0.59579 0.56309 0.0
C605 C 0.88513 0.63858 0.55971 0.0
C606 C 0.8774 0.59651 0.49396 0.0
C607 C 0.90143 0.54429 0.4994 0.0
N608 N 0.94667 0.50089 0.53854 0.0
N609 N 0.83403 0.66025 0.52539 0.0
C610 C 0.92077 0.54567 0.53405 0.0
C611 C 0.86526 0.63271 0.52622 0.0
N612 N 0.93454 0.60393 0.59388 0.0
N613 N 0.86738 0.61515 0.45813 0.0
H614 H 0.82271 0.6761 0.55053 0.0
H615 H 0.81813 0.65701 0.50183 0.0
H616 H 0.87884 0.59707 0.43335 0.0
H617 H 0.85131 0.65612 0.45333 0.0
H618 H 0.958 0.58097 0.59652 0.0
H619 H 0.92823 0.63581 0.61661 0.0
H620 H 0.95885 0.49241 0.56449 0.0
H621 H 0.95624 0.4725 0.51581 0.0
C622 C 0.67293 0.49751 0.51517 0.0
C623 C 0.64033 0.5241 0.5073 0.0
C624 C 0.61704 0.44903 0.55759 0.0
C625 C 0.64932 0.41905 0.56376 0.0
N626 N 0.70957 0.43156 0.55662 0.0
N627 N 0.58083 0.52246 0.51928 0.0
C628 C 0.67778 0.44829 0.54504 0.0
C629 C 0.61227 0.49929 0.52826 0.0
N630 N 0.69921 0.5171 0.49254 0.0
N631 N 0.59119 0.43127 0.58141 0.0
H632 H 0.57663 0.55971 0.49864 0.0
H633 H 0.55868 0.50205 0.53012 0.0
H634 H 0.59454 0.39828 0.60448 0.0
H635 H 0.56748 0.45351 0.58104 0.0
H636 H 0.72312 0.49581 0.4935 0.0
H637 H 0.69627 0.55121 0.47008 0.0
H638 H 0.73124 0.45509 0.54657 0.0
H639 H 0.71471 0.40041 0.57982 0.0
C640 C 0.1362 0.20259 0.26899 0.0
C641 C 0.13205 0.24837 0.30033 0.0
C642 C 0.12894 0.34285 0.25392 0.0
C643 C 0.13114 0.2961 0.22312 0.0
N644 N 0.12194 0.18084 0.20281 0.0
N645 N 0.11216 0.35975 0.31977 0.0
C646 C 0.12949 0.22577 0.23128 0.0
C647 C 0.12437 0.31776 0.29191 0.0
N648 N 0.14942 0.13918 0.2739 0.0
N649 N 0.13302 0.41073 0.24771 0.0
H650 H 0.10671 0.34332 0.34741 0.0
H651 H 0.10366 0.40875 0.31407 0.0
H652 H 0.13671 0.43163 0.22068 0.0
H653 H 0.13543 0.44566 0.26997 0.0
H654 H 0.15501 0.10737 0.25089 0.0
H655 H 0.15929 0.12141 0.29954 0.0
H656 H 0.11823 0.12925 0.20791 0.0
H657 H 0.11523 0.19694 0.17538 0.0
C658 C 0.38452 0.82136 0.22549 0.0
C659 C 0.38164 0.75034 0.21833 0.0
C660 C 0.38996 0.73183 0.28715 0.0
C661 C 0.3844 0.8018 0.29496 0.0
N662 N 0.36796 0.91104 0.26839 0.0
N663 N 0.37213 0.63945 0.24715 0.0
C664 C 0.37952 0.8464 0.26333 0.0
C665 C 0.38192 0.70563 0.2504 0.0
N666 N 0.39274 0.8653 0.19676 0.0
N667 N 0.40308 0.68994 0.31449 0.0
H668 H 0.36152 0.61895 0.2225 0.0
H669 H 0.36996 0.60757 0.27085 0.0
H670 H 0.41134 0.70747 0.34105 0.0
H671 H 0.40956 0.63966 0.30874 0.0
H672 H 0.39742 0.91662 0.20181 0.0
H673 H 0.39919 0.84948 0.16926 0.0
H674 H 0.36161 0.9423 0.2454 0.0
H675 H 0.36053 0.93073 0.29468 0.0
C676 C 0.6276 0.83598 0.25322 0.0
C677 C 0.63547 0.79269 0.22191 0.0
C678 C 0.64473 0.69879 0.26718 0.0
C679 C 0.63503 0.74075 0.29851 0.0
N680 N 0.60595 0.8431 0.31789 0.0
N681 N 0.63792 0.67712 0.19948 0.0
C682 C 0.62274 0.8073 0.29036 0.0
C683 C 0.6396 0.72221 0.22906 0.0
N684 N 0.62671 0.90473 0.24848 0.0
N685 N 0.66109 0.63885 0.27308 0.0
H686 H 0.63152 0.69218 0.17182 0.0
H687 H 0.63829 0.6247 0.2035 0.0
H688 H 0.66794 0.62143 0.29998 0.0
H689 H 0.67133 0.61033 0.25079 0.0
H690 H 0.62464 0.9384 0.27139 0.0
H691 H 0.63125 0.9286 0.22241 0.0
H692 H 0.59398 0.88912 0.31236 0.0
H693 H 0.60061 0.82319 0.34487 0.0
C694 C 0.89872 0.31292 0.23603 0.0
C695 C 0.88945 0.2448 0.22679 0.0
C696 C 0.88586 0.22255 0.29632 0.0
C697 C 0.88774 0.29317 0.30457 0.0
N698 N 0.88949 0.40726 0.27894 0.0
N699 N 0.86744 0.13794 0.25093 0.0
C700 C 0.89275 0.33888 0.27359 0.0
C701 C 0.88151 0.20004 0.25766 0.0
N702 N 0.91348 0.35336 0.2091 0.0
N703 N 0.88873 0.17647 0.32532 0.0
H704 H 0.86122 0.11992 0.22389 0.0
H705 H 0.85831 0.1072 0.27287 0.0
H706 H 0.89356 0.19078 0.35356 0.0
H707 H 0.89039 0.12437 0.32048 0.0
H708 H 0.92347 0.40091 0.21557 0.0
H709 H 0.91919 0.33671 0.18155 0.0
H710 H 0.8895 0.44173 0.25631 0.0
H711 H 0.8829 0.42925 0.30499 0.0
C712 C 0.90494 0.83092 0.75965 0.0
C713 C 0.89513 0.78751 0.72901 0.0
C714 C 0.88462 0.69553 0.77547 0.0
C715 C 0.88952 0.74154 0.80615 0.0
N716 N 0.90618 0.85222 0.82835 0.0
N717 N 0.8955 0.66969 0.70911 0.0
C718 C 0.90047 0.80895 0.79845 0.0
C719 C 0.89087 0.71702 0.73724 0.0
N720 N 0.92161 0.88988 0.75179 0.0
N721 N 0.87215 0.6321 0.78247 0.0
H722 H 0.90419 0.68196 0.68188 0.0
H723 H 0.89571 0.61764 0.71425 0.0
H724 H 0.8675 0.6137 0.80994 0.0
H725 H 0.86381 0.59975 0.76085 0.0
H726 H 0.93123 0.92228 0.7726 0.0
H727 H 0.93037 0.90158 0.72449 0.0
H728 H 0.90961 0.90426 0.82523 0.0
H729 H 0.90618 0.83621 0.85681 0.0
C730 C 0.62678 0.228 0.79435 0.0
C731 C 0.63413 0.29743 0.8023 0.0
C732 C 0.63243 0.31679 0.73283 0.0
C733 C 0.63513 0.24589 0.72512 0.0
N734 N 0.63977 0.13309 0.75349 0.0
N735 N 0.65149 0.40547 0.77484 0.0
C736 C 0.63343 0.20087 0.75715 0.0
C737 C 0.63884 0.34155 0.77043 0.0
N738 N 0.61249 0.18797 0.82178 0.0
N739 N 0.62309 0.36091 0.70463 0.0
H740 H 0.66054 0.42451 0.80062 0.0
H741 H 0.65725 0.43633 0.75149 0.0
H742 H 0.61516 0.34468 0.67766 0.0
H743 H 0.61886 0.41231 0.70994 0.0
H744 H 0.60456 0.13848 0.81624 0.0
H745 H 0.6044 0.20701 0.84809 0.0
H746 H 0.64173 0.10111 0.77717 0.0
H747 H 0.64664 0.10949 0.72813 0.0
C748 C 0.39261 0.34763 0.7551 0.0
C749 C 0.393 0.30422 0.72225 0.0
C750 C 0.3884 0.206 0.76544 0.0
C751 C 0.39056 0.2486 0.79833 0.0
N752 N 0.41109 0.35751 0.82076 0.0
N753 N 0.40952 0.19162 0.70128 0.0
C754 C 0.39786 0.31866 0.79207 0.0
C755 C 0.3969 0.23326 0.72904 0.0
N756 N 0.38613 0.4155 0.75243 0.0
N757 N 0.37649 0.14116 0.7675 0.0
H758 H 0.41954 0.21024 0.67575 0.0
H759 H 0.41434 0.1403 0.70616 0.0
H760 H 0.36593 0.12 0.79192 0.0
H761 H 0.37291 0.11147 0.74308 0.0
H762 H 0.38242 0.44564 0.77663 0.0
H763 H 0.38139 0.44137 0.72719 0.0
H764 H 0.41893 0.40741 0.81642 0.0
H765 H 0.41871 0.33728 0.84695 0.0
C766 C 0.11384 0.79766 0.78186 0.0
C767 C 0.14441 0.79895 0.80316 0.0
C768 C 0.17498 0.76275 0.74528 0.0
C769 C 0.14405 0.75248 0.72558 0.0
N770 N 0.0835 0.75435 0.72641 0.0
N771 N 0.20408 0.77297 0.80544 0.0
C772 C 0.11329 0.76797 0.74437 0.0
C773 C 0.17485 0.77828 0.78501 0.0
N774 N 0.08544 0.82596 0.797 0.0
N775 N 0.2049 0.76041 0.72602 0.0
H776 H 0.20704 0.78971 0.8334 0.0
H777 H 0.22527 0.74768 0.79517 0.0
H778 H 0.20711 0.74922 0.69714 0.0
H779 H 0.22759 0.7766 0.73784 0.0
H780 H 0.06324 0.8325 0.78163 0.0
H781 H 0.08485 0.84856 0.82394 0.0
H782 H 0.06023 0.7573 0.73997 0.0
H783 H 0.0822 0.73531 0.69858 0.0
C784 C 0.27043 0.4365 0.11625 0.0
C785 C 0.24135 0.44884 0.13973 0.0
C786 C 0.27293 0.54773 0.16657 0.0
C787 C 0.29795 0.54249 0.13733 0.0
N788 N 0.31298 0.48973 0.0773 0.0
N789 N 0.21715 0.51804 0.18983 0.0
C790 C 0.29448 0.4892 0.11025 0.0
C791 C 0.24316 0.5056 0.16531 0.0
N792 N 0.27686 0.37425 0.10065 0.0
N793 N 0.27845 0.58976 0.19705 0.0
H794 H 0.19789 0.48334 0.19485 0.0
H795 H 0.21449 0.56348 0.20479 0.0
H796 H 0.30045 0.61787 0.20035 0.0
H797 H 0.26304 0.59123 0.22114 0.0
H798 H 0.2995 0.36346 0.08681 0.0
H799 H 0.2631 0.3306 0.1057 0.0
H800 H 0.30981 0.45397 0.05563 0.0
H801 H 0.32827 0.53019 0.06931 0.0
C802 C 0.73882 0.52216 0.3569 0.0
C803 C 0.73377 0.57107 0.38657 0.0
C804 C 0.78821 0.53386 0.41518 0.0
C805 C 0.79446 0.48872 0.3841 0.0
N806 N 0.77712 0.44575 0.32294 0.0
N807 N 0.7544 0.62117 0.44471 0.0
C808 C 0.77009 0.4848 0.35425 0.0
C809 C 0.75907 0.57684 0.41536 0.0
N810 N 0.71307 0.50908 0.33213 0.0
N811 N 0.80782 0.52944 0.44724 0.0
H812 H 0.73073 0.63882 0.4519 0.0
H813 H 0.77373 0.63875 0.46215 0.0
H814 H 0.82846 0.49723 0.44933 0.0
H815 H 0.80158 0.5516 0.47333 0.0
H816 H 0.71336 0.46994 0.31213 0.0
H817 H 0.68999 0.53385 0.3339 0.0
H818 H 0.76243 0.44498 0.29828 0.0
H819 H 0.79945 0.41818 0.32044 0.0
C820 C 0.75891 0.58513 0.86865 0.0
C821 C 0.78866 0.56545 0.88876 0.0
C822 C 0.7613 0.45299 0.90004 0.0
C823 C 0.72944 0.4769 0.88614 0.0
N824 N 0.6995 0.56801 0.85488 0.0
N825 N 0.81457 0.48115 0.92925 0.0
C826 C 0.72879 0.54388 0.8701 0.0
C827 C 0.78887 0.49932 0.90556 0.0
N828 N 0.75999 0.64146 0.84588 0.0
N829 N 0.76616 0.38578 0.90797 0.0
H830 H 0.83399 0.5135 0.93629 0.0
H831 H 0.81496 0.4367 0.94527 0.0
H832 H 0.74802 0.34844 0.90562 0.0
H833 H 0.78986 0.3649 0.9128 0.0
H834 H 0.74069 0.65558 0.82739 0.0
H835 H 0.78176 0.67019 0.84213 0.0
H836 H 0.69548 0.61906 0.8487 0.0
H837 H 0.67887 0.53716 0.84896 0.0
C838 C 0.24107 0.52704 0.60586 0.0
C839 C 0.22875 0.55286 0.64145 0.0
C840 C 0.28062 0.50576 0.6725 0.0
C841 C 0.2916 0.47621 0.63728 0.0
N842 N 0.27883 0.45221 0.5713 0.0
N843 N 0.23587 0.56027 0.70964 0.0
C844 C 0.27069 0.48505 0.60441 0.0
C845 C 0.24846 0.54052 0.675 0.0
N846 N 0.22566 0.54603 0.57259 0.0
N847 N 0.3014 0.50185 0.70356 0.0
H848 H 0.21284 0.58521 0.71241 0.0
H849 H 0.24674 0.54775 0.7358 0.0
H850 H 0.3242 0.47565 0.70288 0.0
H851 H 0.29731 0.52779 0.72908 0.0
H852 H 0.23595 0.538 0.54555 0.0
H853 H 0.20353 0.57408 0.57183 0.0
H854 H 0.26274 0.44789 0.54794 0.0
H855 H 0.3015 0.42695 0.56764 0.0
C856 C 0.79376 1.00156 0.15718 0.0
C857 C 0.79147 0.07122 0.1458 0.0
C858 C 0.73138 0.0501 0.12962 0.0
C859 C 0.73309 0.98127 0.14218 0.0
N860 N 0.76479 0.89926 0.1784 0.0
N861 N 0.75229 0.16456 0.13558 0.0
C862 C 0.76408 0.95924 0.15879 0.0
C863 C 0.75853 0.09643 0.13697 0.0
N864 N 0.82423 0.97571 0.16782 0.0
N865 N 0.70484 0.07115 0.10794 0.0
H866 H 0.76987 0.20187 0.14152 0.0
H867 H 0.72808 0.1844 0.13313 0.0
H868 H 0.68637 0.03832 0.09846 0.0
H869 H 0.70348 0.11878 0.09509 0.0
H870 H 0.82884 0.9239 0.1705 0.0
H871 H 0.84514 1.00605 0.1733 0.0
H872 H 0.78538 0.88283 0.19431 0.0
H873 H 0.74344 0.86945 0.18253 0.0
C874 C 0.26294 0.09315 0.39713 0.0
C875 C 0.2331 0.07235 0.37765 0.0
C876 C 0.26679 0.97431 0.35377 0.0
C877 C 0.2936 0.98837 0.38018 0.0
N878 N 0.3077 0.05201 0.43732 0.0
N879 N 0.20722 0.98647 0.33832 0.0
C880 C 0.28894 0.04511 0.40488 0.0
C881 C 0.23511 1.01031 0.35666 0.0
N882 N 0.268 0.15934 0.40655 0.0
N883 N 0.27192 0.92989 0.32434 0.0
H884 H 0.18472 1.0136 0.33714 0.0
H885 H 0.20609 0.93821 0.32615 0.0
H886 H 0.2952 0.90776 0.31873 0.0
H887 H 0.25436 0.92191 0.30266 0.0
H888 H 0.28995 0.17599 0.42 0.0
H889 H 0.25375 0.19801 0.39448 0.0
H890 H 0.30339 0.09092 0.45703 0.0
H891 H 0.32388 1.01417 0.44706 0.0
C892 C 0.23382 0.04737 0.91062 0.0
C893 C 0.22986 0.98835 0.88703 0.0
C894 C 0.28736 1.01281 0.86132 0.0
C895 C 0.28984 0.07438 0.88284 0.0
N896 N 0.2573 0.15993 0.91635 0.0
N897 N 0.25034 0.93121 0.83043 0.0
C898 C 0.26058 0.09475 0.90366 0.0
C899 C 0.25607 0.97542 0.85983 0.0
N900 N 0.21319 0.05789 0.94128 0.0
N901 N 0.31451 0.99071 0.84091 0.0
H902 H 0.22691 0.90937 0.82541 0.0
H903 H 0.2672 0.92367 0.808 0.0
H904 H 0.33619 1.01969 0.83723 0.0
H905 H 0.31586 0.94233 0.82894 0.0
H906 H 0.2172 0.09637 0.96117 0.0
H907 H 0.19458 0.02449 0.94983 0.0
H908 H 0.23529 0.17837 0.9288 0.0
H909 H 0.27395 0.19835 0.90934 0.0
C910 C 0.77706 1.00101 0.68075 0.0
C911 C 0.79305 0.9779 0.64654 0.0
C912 C 0.74792 0.03572 0.60898 0.0
C913 C 0.73119 0.05693 0.64307 0.0
N914 N 0.72839 0.05405 0.71172 0.0
N915 N 0.79164 0.97002 0.57771 0.0
C916 C 0.74554 0.03807 0.67905 0.0
C917 C 0.77776 0.99449 0.6107 0.0
N918 N 0.79272 0.98944 0.71496 0.0
N919 N 0.7363 0.0585 0.5745 0.0
H920 H 0.81557 0.94887 0.57667 0.0
H921 H 0.7793 0.96926 0.55143 0.0
H922 H 0.71444 0.08704 0.57185 0.0
H923 H 0.74946 0.05415 0.54888 0.0
H924 H 0.78488 1.00989 0.74092 0.0
H925 H 0.81515 0.9622 0.71707 0.0
H926 H 0.73504 0.03713 0.73888 0.0
H927 H 0.70586 0.08115 0.71135 0.0
C928 C 0.29125 0.32628 1.0023 0.0
C929 C 0.3053 0.26027 1.00531 0.0
C930 C 0.25196 0.21453 0.02534 0.0
C931 C 0.23822 0.28096 0.02567 0.0
N932 N 0.24613 0.40234 0.02047 0.0
N933 N 0.30253 0.14739 0.03041 0.0
C934 C 0.25806 0.33781 0.01545 0.0
C935 C 0.28676 0.2064 0.0207 0.0
N936 N 0.30975 0.37761 0.9869 0.0
N937 N 0.23145 0.15923 0.02823 0.0
H938 H 0.32855 0.14185 0.02794 0.0
H939 H 0.29052 0.10783 0.0447 0.0
H940 H 0.2053 0.16354 0.02829 0.0
H941 H 0.24016 0.10956 0.02589 0.0
H942 H 0.29977 0.42432 0.97883 0.0
H943 H 0.33534 0.37241 0.98194 0.0
H944 H 0.26045 0.4458 0.01604 0.0
H945 H 0.22259 0.41312 0.032 0.0
C946 C 0.26035 0.69315 0.02817 0.0
C947 C 0.29138 0.71888 0.0149 0.0
C948 C 0.26407 0.81902 0.98997 0.0
C949 C 0.2329 0.79441 1.00407 0.0
N950 N 0.20431 0.72175 0.04913 0.0
N951 N 0.31942 0.78744 0.96779 0.0
C952 C 0.23168 0.73509 0.02678 0.0
C953 C 0.29235 0.77628 0.99098 0.0
N954 N 0.25891 0.62873 0.04236 0.0
N955 N 0.2661 0.88297 0.97514 0.0
H956 H 0.33851 0.7515 0.96465 0.0
H957 H 0.32063 0.82666 0.94787 0.0
H958 H 0.2458 0.91654 0.97605 0.0
H959 H 0.28837 0.9043 0.96519 0.0
H960 H 0.23657 0.60472 0.05004 0.0
H961 H 0.2801 0.59743 0.04234 0.0
H962 H 0.20291 0.68058 0.06773 0.0
H963 H 0.18523 0.75731 0.05327 0.0
C964 C 0.7373 0.73413 0.53097 0.0
C965 C 0.72826 0.77579 0.49995 0.0
C966 C 0.7814 0.83701 0.50377 0.0
C967 C 0.78934 0.79876 0.53671 0.0
N968 N 0.77092 0.72071 0.58713 0.0
N969 N 0.73746 0.87644 0.46201 0.0
C970 C 0.76597 0.751 0.5523 0.0
C971 C 0.74911 0.83006 0.4878 0.0
N972 N 0.72005 0.67563 0.53854 0.0
N973 N 0.80427 0.88069 0.48805 0.0
H974 H 0.71361 0.87325 0.4502 0.0
H975 H 0.74989 0.92142 0.45536 0.0
H976 H 0.82741 0.8918 0.50045 0.0
H977 H 0.80113 0.90307 0.46127 0.0
H978 H 0.7286 0.63876 0.55759 0.0
H979 H 0.69892 0.6605 0.52326 0.0
H980 H 0.7519 0.69471 0.60149 0.0
H981 H 0.79312 0.72278 0.60275 0.0
C982 C 0.79262 0.32393 0.54408 0.0
C983 C 0.78933 0.35272 0.5076 0.0
C984 C 0.73647 0.29314 0.49715 0.0
C985 C 0.74041 0.26107 0.53298 0.0
N986 N 0.77979 0.2262 0.58243 0.0
N987 N 0.75305 0.38557 0.45627 0.0
C988 C 0.77056 0.27103 0.55454 0.0
C989 C 0.75898 0.34506 0.48698 0.0
N990 N 0.81703 0.34673 0.5683 0.0
N991 N 0.71336 0.26937 0.47147 0.0
H992 H 0.77022 0.42283 0.44892 0.0
H993 H 0.73034 0.38685 0.44138 0.0
H994 H 0.6998 0.22484 0.4763 0.0
H995 H 0.71099 0.28791 0.44369 0.0
H996 H 0.81915 0.33064 0.59662 0.0
H997 H 0.83221 0.38808 0.56132 0.0
H998 H 0.80245 0.22945 0.5973 0.0
H999 H 0.76761 0.17996 0.58634 0.0
C1000 C 0.75951 0.715 0.99136 0.0
C1001 C 0.7895 0.73811 1.00896 0.0
C1002 C 0.76142 0.84005 0.03147 0.0
C1003 C 0.7311 0.81487 0.01626 0.0
N1004 N 0.70014 0.7333 0.97934 0.0
N1005 N 0.81837 0.81424 0.05145 0.0
C1006 C 0.73001 0.75434 0.99464 0.0
C1007 C 0.79008 0.79786 0.03129 0.0
N1008 N 0.76038 0.65767 0.96938 0.0
N1009 N 0.76191 0.90355 0.04718 0.0
H1010 H 0.83933 0.78239 0.05209 0.0
H1011 H 0.82006 0.85558 0.06991 0.0
H1012 H 0.74046 0.93421 0.04729 0.0
H1013 H 0.78358 0.9275 0.05703 0.0
H1014 H 0.74132 0.643 0.95073 0.0
H1015 H 0.7813 0.62575 0.96915 0.0
H1016 H 0.69623 0.6859 0.967 0.0
H1017 H 0.67886 0.76428 0.97936 0.0
C1018 C 0.72778 0.22374 0.01854 0.0
C1019 C 0.71965 0.29186 1.00985 0.0
C1020 C 0.77696 0.32763 0.02231 0.0
C1021 C 0.78514 0.26023 0.03289 0.0
N1022 N 0.76709 0.14557 0.0474 0.0
N1023 N 0.73224 0.40992 0.01583 0.0
C1024 C 0.76017 0.20848 0.03279 0.0
C1025 C 0.74303 0.34423 0.01572 0.0
N1026 N 0.70457 0.17387 0.0131 0.0
N1027 N 0.80132 0.37574 0.01819 0.0
H1028 H 0.70673 0.42141 0.01337 0.0
H1029 H 0.74742 0.45102 0.02316 0.0
H1030 H 0.82684 0.36586 0.02111 0.0
H1031 H 0.79633 0.4241 1.00778 0.0
H1032 H 0.71018 0.1223 1.0127 0.0
H1033 H 0.6794 0.18491 1.00875 0.0
H1034 H 0.7496 0.10663 0.04967 0.0
H1035 H 0.79004 0.13259 0.0597 0.0
C1036 C 0.28311 0.22148 0.53202 0.0
C1037 C 0.30198 0.27829 0.5197 0.0
C1038 C 0.26083 0.30156 0.47078 0.0
C1039 C 0.23848 0.2545 0.48905 0.0
N1040 N 0.2282 0.1713 0.53859 0.0
N1041 N 0.30745 0.37779 0.48008 0.0
C1042 C 0.24941 0.21541 0.52048 0.0
C1043 C 0.29074 0.31955 0.48957 0.0
N1044 N 0.29807 0.17154 0.55297 0.0
N1045 N 0.25404 0.3292 0.43568 0.0
H1046 H 0.33011 0.39216 0.49263 0.0
H1047 H 0.29745 0.41426 0.46168 0.0
H1048 H 0.23148 0.32371 0.42102 0.0
H1049 H 0.27204 0.35565 0.41992 0.0
H1050 H 0.28618 0.12629 0.56032 0.0
H1051 H 0.32381 0.17116 0.55772 0.0
H1052 H 0.23444 0.14695 0.5641 0.0
H1053 H 0.20352 0.16268 0.52989 0.0
C1054 C 0.27247 0.73682 0.47612 0.0
C1055 C 0.29598 0.781 0.49453 0.0
C1056 C 0.26503 0.77522 0.55414 0.0
C1057 C 0.24108 0.73241 0.53521 0.0
N1058 N 0.2282 0.65425 0.48441 0.0
N1059 N 0.31854 0.83201 0.55222 0.0
C1060 C 0.24661 0.70782 0.49802 0.0
C1061 C 0.29383 0.79575 0.53403 0.0
N1062 N 0.27432 0.7224 0.43784 0.0
N1063 N 0.25893 0.80267 0.58963 0.0
H1064 H 0.33685 0.8603 0.53815 0.0
H1065 H 0.32173 0.83186 0.58183 0.0
H1066 H 0.23793 0.79379 0.60643 0.0
H1067 H 0.27319 0.84159 0.60156 0.0
H1068 H 0.25452 0.70074 0.4226 0.0
H1069 H 0.29478 0.73309 0.42046 0.0
H1070 H 0.2339 0.62855 0.45916 0.0
H1071 H 0.20943 0.63046 0.50036 0.0
C1072 C 0.02652 0.29121 0.05724 0.0
C1073 C 0.04313 0.3124 0.09118 0.0
C1074 C 0.99542 0.2638 0.12784 0.0
C1075 C 0.98204 0.23268 0.09392 0.0
N1076 N 0.99388 0.20205 0.02813 0.0
N1077 N 0.04461 0.30831 0.16025 0.0
C1078 C 1.00016 0.24242 0.05912 0.0
C1079 C 0.02788 0.29591 0.1269 0.0
N1080 N 0.03607 0.31756 0.02278 0.0
N1081 N 0.97708 0.26598 0.16085 0.0
H1082 H 0.06713 0.33472 0.16134 0.0
H1083 H 0.03703 0.28859 0.18656 0.0
H1084 H 0.95348 0.2445 0.16404 0.0
H1085 H 0.98415 0.29505 0.18446 0.0
H1086 H 0.02304 0.30775 0.99745 0.0
H1087 H 0.05443 0.35522 0.02051 0.0
H1088 H 1.00811 0.20428 1.00308 0.0
H1089 H 0.97809 0.15992 0.02943 0.0
C1090 C 0.50264 0.73405 0.06269 0.0
C1091 C 0.48179 0.73272 0.09567 0.0
C1092 C 0.52311 0.80739 0.1278 0.0
C1093 C 0.5411 0.81506 0.09282 0.0
N1094 N 0.538 0.80535 0.02391 0.0
N1095 N 0.46863 0.78762 0.15628 0.0
C1096 C 0.52743 0.78505 0.05927 0.0
C1097 C 0.49091 0.77491 0.12741 0.0
N1098 N 0.50025 0.68482 0.03528 0.0
N1099 N 0.53665 0.82862 0.16164 0.0
H1100 H 0.4441 0.76965 0.15648 0.0
H1101 H 0.47335 0.82299 0.17784 0.0
H1102 H 0.55956 0.85362 0.16369 0.0
H1103 H 0.526 0.81666 0.18807 0.0
H1104 H 0.51671 0.68229 1.01206 0.0
H1105 H 0.48535 0.64168 0.03859 0.0
H1106 H 0.52708 0.78732 0.9987 0.0
H1107 H 0.55452 0.84599 0.02017 0.0
C1108 C 0.49513 0.78218 0.38723 0.0
C1109 C 0.48313 0.8147 0.42129 0.0
C1110 C 0.52275 0.74319 0.45722 0.0
C1111 C 0.54031 0.72361 0.42349 0.0
N1112 N 0.54379 0.73963 0.35399 0.0
N1113 N 0.49653 0.83844 0.48791 0.0
C1114 C 0.52688 0.74751 0.38774 0.0
C1115 C 0.50032 0.79912 0.45602 0.0
N1116 N 0.47612 0.78 0.35468 0.0
N1117 N 0.52622 0.70737 0.4904 0.0
H1118 H 0.48473 0.88568 0.48732 0.0
H1119 H 0.50992 0.82914 0.51308 0.0
H1120 H 0.53867 0.66083 0.49148 0.0
H1121 H 0.51228 0.71872 0.5149 0.0
H1122 H 0.48292 0.75087 0.33096 0.0
H1123 H 0.45191 0.79908 0.35242 0.0
H1124 H 0.53617 0.76399 0.32892 0.0
H1125 H 0.5665 0.71467 0.35066 0.0
C1126 C 0.02942 0.25829 0.3981 0.0
C1127 C 0.04176 0.22421 0.43155 0.0
C1128 C 0.99691 0.28104 0.46819 0.0
C1129 C 0.98124 0.30499 0.4342 0.0
N1130 N 0.98025 0.30009 0.36496 0.0
N1131 N 0.02781 0.18834 0.49592 0.0
C1132 C 0.99678 0.28899 0.39859 0.0
C1133 C 0.02272 0.23128 0.46587 0.0
N1134 N 0.04893 0.2652 0.36622 0.0
N1135 N 0.9878 0.30671 0.503 0.0
H1136 H 0.04354 0.14632 0.49404 0.0
H1137 H 1.01274 0.18892 0.52037 0.0
H1138 H 0.97077 0.34667 0.5059 0.0
H1139 H 1.00036 0.29405 0.52824 0.0
H1140 H 0.04194 0.29552 0.34309 0.0
H1141 H 0.07346 0.24797 0.36422 0.0
H1142 H 0.98908 0.28215 0.33872 0.0
H1143 H 0.95634 0.32088 0.36358 0.0
C1144 C 0.99919 0.73734 0.90008 0.0
C1145 C 0.98088 0.73385 0.93509 0.0
C1146 C 0.02004 0.81608 0.96296 0.0
C1147 C 0.04091 0.81389 0.92997 0.0
N1148 N 0.05454 0.75099 0.87236 0.0
N1149 N 0.9838 0.74994 1.00361 0.0
C1150 C 0.03172 0.76862 0.89977 0.0
C1151 C 0.99461 0.76669 0.96773 0.0
N1152 N 0.9858 0.71268 0.86695 0.0
N1153 N 0.02362 0.8664 0.9895 0.0
H1154 H 0.96697 0.71022 1.00847 0.0
H1155 H 0.99482 0.76963 0.02835 0.0
H1156 H 0.03996 0.90704 0.98564 0.0
H1157 H 1.00723 0.87209 1.01261 0.0
H1158 H 0.99694 0.72087 0.84031 0.0
H1159 H 0.96259 0.6886 0.86563 0.0
H1160 H 0.04966 0.7141 0.85168 0.0
H1161 H 0.07954 0.76646 0.87322 0.0
C1162 C 0.5197 0.30795 0.88718 0.0
C1163 C 0.53533 0.32219 0.92327 0.0
C1164 C 0.50532 0.22408 0.95036 0.0
C1165 C 0.48627 0.2139 0.91651 0.0
N1166 N 0.47702 0.24793 0.85052 0.0
N1167 N 0.52733 0.31029 0.99181 0.0
C1168 C 0.49413 0.25593 0.88413 0.0
C1169 C 0.52355 0.2852 0.95563 0.0
N1170 N 0.52847 0.345 0.85573 0.0
N1171 N 0.50648 0.17485 0.97778 0.0
H1172 H 0.53469 0.36019 0.99711 0.0
H1173 H 0.51761 0.28568 0.01583 0.0
H1174 H 0.49568 0.12712 0.97366 0.0
H1175 H 0.52185 0.17873 1.00192 0.0
H1176 H 0.5236 0.32966 0.82774 0.0
H1177 H 0.53992 0.39236 0.85767 0.0
H1178 H 0.47684 0.28395 0.82874 0.0
H1179 H 0.46337 0.20477 0.8436 0.0
C1180 C 0.52786 0.26115 0.56314 0.0
C1181 C 0.54498 0.24118 0.59709 0.0
C1182 C 0.5001 0.3017 0.63301 0.0
C1183 C 0.48738 0.33209 0.59858 0.0
N1184 N 0.50213 0.35718 0.53263 0.0
N1185 N 0.5504 0.26451 0.66545 0.0
C1186 C 0.50527 0.31703 0.56421 0.0
C1187 C 0.53209 0.26772 0.63244 0.0
N1188 N 0.5319 0.22598 0.52979 0.0
N1189 N 0.48199 0.30201 0.66621 0.0
H1190 H 0.57467 0.2456 0.6671 0.0
H1191 H 0.54285 0.28897 0.69052 0.0
H1192 H 0.4582 0.32278 0.66919 0.0
H1193 H 0.48944 0.27435 0.69022 0.0
H1194 H 0.51835 0.23795 0.5051 0.0
H1195 H 0.54458 0.17971 0.52847 0.0
H1196 H 0.5162 0.34887 0.50783 0.0
H1197 H 0.48978 0.40378 0.53336 0.0
C1198 C 0.0364 0.79339 0.56889 0.0
C1199 C 0.04354 0.738 0.59464 0.0
C1200 C 0.98845 0.76084 0.62614 0.0
C1201 C 0.98345 0.81947 0.60292 0.0
N1202 N 1.0063 0.89927 0.55835 0.0
N1203 N 0.02355 0.66631 0.64588 0.0
C1204 C 1.00855 0.83769 0.5762 0.0
C1205 C 0.0189 0.72185 0.62306 0.0
N1206 N 0.05477 0.80337 0.53624 0.0
N1207 N 0.963 0.73928 0.64937 0.0
H1208 H 0.03966 0.62663 0.63863 0.0
H1209 H 1.01123 0.65892 0.67183 0.0
H1210 H 0.93999 0.76387 0.65115 0.0
H1211 H 0.96338 0.69448 0.66503 0.0
H1212 H 0.04751 0.83693 0.51475 0.0
H1213 H 0.07481 0.7742 0.52707 0.0
H1214 H 0.02506 0.91904 0.54093 0.0
H1215 H 0.98719 0.93409 0.56415 0.0
loop_
_geom_bond_atom_site_label_1
_geom_bond_atom_site_label_2
_geom_bond_distance
_geom_bond_site_symmetry_2
_ccdc_geom_bond_type
Fe0 O2 1.918 . S
Fe0 O5 1.997 . S
Fe0 O6 2.002 . S
Fe0 O11 1.976 . S
Fe0 O14 1.996 . S
Fe1 O2 1.918 . S
Fe1 O9 1.997 . S
Fe1 O12 1.996 . S
Fe1 O16 1.976 . S
Fe1 O19 2.002 . S
O2 Fe0 1.918 . S
O2 Fe1 1.918 . S
O2 Fe3 1.918 . S
Fe3 O2 1.918 . S
Fe3 O4 2.002 . S
Fe3 O13 1.976 . S
Fe3 O17 1.996 . S
Fe3 O20 1.997 . S
O4 Fe3 2.002 . S
O4 C21 1.295 . S
O5 Fe0 1.997 . S
O5 C21 1.235 . S
O6 Fe0 2.002 . S
O6 C7 1.295 . S
C7 O6 1.295 . S
C7 O9 1.235 . S
C8 O13 1.287 . S
C8 O14 1.255 . S
O9 Fe1 1.997 . S
O9 C7 1.235 . S
C10 O16 1.287 . S
C10 O17 1.255 . S
O11 Fe0 1.976 . S
O11 C18 1.287 . S
O12 Fe1 1.996 . S
O12 C18 1.255 . S
O13 Fe3 1.976 . S
O13 C8 1.287 . S
O14 Fe0 1.996 . S
O14 C8 1.255 . S
C15 O19 1.295 . S
C15 O20 1.235 . S
O16 Fe1 1.976 . S
O16 C10 1.287 . S
O17 Fe3 1.996 . S
O17 C10 1.255 . S
C18 O11 1.287 . S
C18 O12 1.255 . S
O19 Fe1 2.002 . S
O19 C15 1.295 . S
O20 Fe3 1.997 . S
O20 C15 1.235 . S
C21 O4 1.295 . S
C21 O5 1.235 . S
Fe22 O24 1.918 . S
Fe22 O27 1.997 . S
Fe22 O28 2.002 . S
Fe22 O33 1.976 . S
Fe22 O36 1.996 . S
Fe23 O24 1.918 . S
Fe23 O31 1.997 . S
Fe23 O34 1.996 . S
Fe23 O38 1.976 . S
Fe23 O41 2.002 . S
O24 Fe22 1.918 . S
O24 Fe23 1.918 . S
O24 Fe25 1.918 . S
Fe25 O24 1.918 . S
Fe25 O26 2.002 . S
Fe25 O35 1.976 . S
Fe25 O39 1.996 . S
Fe25 O42 1.997 . S
O26 Fe25 2.002 . S
O26 C43 1.295 . S
O27 Fe22 1.997 . S
O27 C43 1.235 . S
O28 Fe22 2.002 . S
O28 C29 1.295 . S
C29 O28 1.295 . S
C29 O31 1.235 . S
C30 O35 1.287 . S
C30 O36 1.255 . S
O31 Fe23 1.997 . S
O31 C29 1.235 . S
C32 O38 1.287 . S
C32 O39 1.255 . S
O33 Fe22 1.976 . S
O33 C40 1.287 . S
O34 Fe23 1.996 . S
O34 C40 1.255 . S
O35 Fe25 1.976 . S
O35 C30 1.287 . S
O36 Fe22 1.996 . S
O36 C30 1.255 . S
C37 O41 1.295 . S
C37 O42 1.235 . S
O38 Fe23 1.976 . S
O38 C32 1.287 . S
O39 Fe25 1.996 . S
O39 C32 1.255 . S
C40 O33 1.287 . S
C40 O34 1.255 . S
O41 Fe23 2.002 . S
O41 C37 1.295 . S
O42 Fe25 1.997 . S
O42 C37 1.235 . S
C43 O26 1.295 . S
C43 O27 1.235 . S
Fe44 O46 1.918 . S
Fe44 O49 1.997 . S
Fe44 O50 2.002 . S
Fe44 O55 1.976 . S
Fe44 O58 1.996 . S
Fe45 O46 1.918 . S
Fe45 O53 1.997 . S
Fe45 O56 1.996 . S
Fe45 O60 1.976 . S
Fe45 O63 2.002 . S
O46 Fe44 1.918 . S
O46 Fe45 1.918 . S
O46 Fe47 1.918 . S
Fe47 O46 1.918 . S
Fe47 O48 2.002 . S
Fe47 O57 1.976 . S
Fe47 O61 1.996 . S
Fe47 O64 1.997 . S
O48 Fe47 2.002 . S
O48 C65 1.295 . S
O49 Fe44 1.997 . S
O49 C65 1.235 . S
O50 Fe44 2.002 . S
O50 C51 1.295 . S
C51 O50 1.295 . S
C51 O53 1.235 . S
C52 O57 1.287 . S
C52 O58 1.255 . S
O53 Fe45 1.997 . S
O53 C51 1.235 . S
C54 O60 1.287 . S
C54 O61 1.255 . S
O55 Fe44 1.976 . S
O55 C62 1.287 . S
O56 Fe45 1.996 . S
O56 C62 1.255 . S
O57 Fe47 1.976 . S
O57 C52 1.287 . S
O58 Fe44 1.996 . S
O58 C52 1.255 . S
C59 O63 1.295 . S
C59 O64 1.235 . S
O60 Fe45 1.976 . S
O60 C54 1.287 . S
O61 Fe47 1.996 . S
O61 C54 1.255 . S
C62 O55 1.287 . S
C62 O56 1.255 . S
O63 Fe45 2.002 . S
O63 C59 1.295 . S
O64 Fe47 1.997 . S
O64 C59 1.235 . S
C65 O48 1.295 . S
C65 O49 1.235 . S
Fe66 O68 1.918 . S
Fe66 O71 1.997 . S
Fe66 O72 2.002 . S
Fe66 O77 1.976 . S
Fe66 O80 1.996 . S
Fe67 O68 1.918 . S
Fe67 O75 1.997 . S
Fe67 O78 1.996 . S
Fe67 O82 1.976 . S
Fe67 O85 2.002 . S
O68 Fe66 1.918 . S
O68 Fe67 1.918 . S
O68 Fe69 1.918 . S
Fe69 O68 1.918 . S
Fe69 O70 2.002 . S
Fe69 O79 1.976 . S
Fe69 O83 1.996 . S
Fe69 O86 1.997 . S
O70 Fe69 2.002 . S
O70 C87 1.295 . S
O71 Fe66 1.997 . S
O71 C87 1.235 . S
O72 Fe66 2.002 . S
O72 C73 1.295 . S
C73 O72 1.295 . S
C73 O75 1.235 . S
C74 O79 1.287 . S
C74 O80 1.255 . S
O75 Fe67 1.997 . S
O75 C73 1.235 . S
C76 O82 1.287 . S
C76 O83 1.255 . S
O77 Fe66 1.976 . S
O77 C84 1.287 . S
O78 Fe67 1.996 . S
O78 C84 1.255 . S
O79 Fe69 1.976 . S
O79 C74 1.287 . S
O80 Fe66 1.996 . S
O80 C74 1.255 . S
C81 O85 1.295 . S
C81 O86 1.235 . S
O82 Fe67 1.976 . S
O82 C76 1.287 . S
O83 Fe69 1.996 . S
O83 C76 1.255 . S
C84 O77 1.287 . S
C84 O78 1.255 . S
O85 Fe67 2.002 . S
O85 C81 1.295 . S
O86 Fe69 1.997 . S
O86 C81 1.235 . S
C87 O70 1.295 . S
C87 O71 1.235 . S
Fe88 O90 1.918 . S
Fe88 O93 1.997 . S
Fe88 O94 2.002 . S
Fe88 O99 1.976 . S
Fe88 O102 1.996 . S
Fe89 O90 1.918 . S
Fe89 O97 1.997 . S
Fe89 O100 1.996 . S
Fe89 O104 1.976 . S
Fe89 O107 2.002 . S
O90 Fe88 1.918 . S
O90 Fe89 1.918 . S
O90 Fe91 1.918 . S
Fe91 O90 1.918 . S
Fe91 O92 2.002 . S
Fe91 O101 1.976 . S
Fe91 O105 1.996 . S
Fe91 O108 1.997 . S
O92 Fe91 2.002 . S
O92 C109 1.295 . S
O93 Fe88 1.997 . S
O93 C109 1.235 . S
O94 Fe88 2.002 . S
O94 C95 1.295 . S
C95 O94 1.295 . S
C95 O97 1.235 . S
C96 O101 1.287 . S
C96 O102 1.255 . S
O97 Fe89 1.997 . S
O97 C95 1.235 . S
C98 O104 1.287 . S
C98 O105 1.255 . S
O99 Fe88 1.976 . S
O99 C106 1.287 . S
O100 Fe89 1.996 . S
O100 C106 1.255 . S
O101 Fe91 1.976 . S
O101 C96 1.287 . S
O102 Fe88 1.996 . S
O102 C96 1.255 . S
C103 O107 1.295 . S
C103 O108 1.235 . S
O104 Fe89 1.976 . S
O104 C98 1.287 . S
O105 Fe91 1.996 . S
O105 C98 1.255 . S
C106 O99 1.287 . S
C106 O100 1.255 . S
O107 Fe89 2.002 . S
O107 C103 1.295 . S
O108 Fe91 1.997 . S
O108 C103 1.235 . S
C109 O92 1.295 . S
C109 O93 1.235 . S
Fe110 O112 1.918 . S
Fe110 O115 1.997 . S
Fe110 O116 2.002 . S
Fe110 O121 1.976 . S
Fe110 O124 1.996 . S
Fe111 O112 1.918 . S
Fe111 O119 1.997 . S
Fe111 O122 1.996 . S
Fe111 O126 1.976 . S
Fe111 O129 2.002 . S
O112 Fe110 1.918 . S
O112 Fe111 1.918 . S
O112 Fe113 1.918 . S
Fe113 O112 1.918 . S
Fe113 O114 2.002 . S
Fe113 O123 1.976 . S
Fe113 O127 1.996 . S
Fe113 O130 1.997 . S
O114 Fe113 2.002 . S
O114 C131 1.295 . S
O115 Fe110 1.997 . S
O115 C131 1.235 . S
O116 Fe110 2.002 . S
O116 C117 1.295 . S
C117 O116 1.295 . S
C117 O119 1.235 . S
C118 O123 1.287 . S
C118 O124 1.255 . S
O119 Fe111 1.997 . S
O119 C117 1.235 . S
C120 O126 1.287 . S
C120 O127 1.255 . S
O121 Fe110 1.976 . S
O121 C128 1.287 . S
O122 Fe111 1.996 . S
O122 C128 1.255 . S
O123 Fe113 1.976 . S
O123 C118 1.287 . S
O124 Fe110 1.996 . S
O124 C118 1.255 . S
C125 O129 1.295 . S
C125 O130 1.235 . S
O126 Fe111 1.976 . S
O126 C120 1.287 . S
O127 Fe113 1.996 . S
O127 C120 1.255 . S
C128 O121 1.287 . S
C128 O122 1.255 . S
O129 Fe111 2.002 . S
O129 C125 1.295 . S
O130 Fe113 1.997 . S
O130 C125 1.235 . S
C131 O114 1.295 . S
C131 O115 1.235 . S
Fe132 O134 1.918 . S
Fe132 O137 1.997 . S
Fe132 O138 2.002 . S
Fe132 O143 1.976 . S
Fe132 O146 1.996 . S
Fe133 O134 1.918 . S
Fe133 O141 1.997 . S
Fe133 O144 1.996 . S
Fe133 O148 1.976 . S
Fe133 O151 2.002 . S
O134 Fe132 1.918 . S
O134 Fe133 1.918 . S
O134 Fe135 1.918 . S
Fe135 O134 1.918 . S
Fe135 O136 2.002 . S
Fe135 O145 1.976 . S
Fe135 O149 1.996 . S
Fe135 O152 1.997 . S
O136 Fe135 2.002 . S
O136 C153 1.295 . S
O137 Fe132 1.997 . S
O137 C153 1.235 . S
O138 Fe132 2.002 . S
O138 C139 1.295 . S
C139 O138 1.295 . S
C139 O141 1.235 . S
C140 O145 1.287 . S
C140 O146 1.255 . S
O141 Fe133 1.997 . S
O141 C139 1.235 . S
C142 O148 1.287 . S
C142 O149 1.255 . S
O143 Fe132 1.976 . S
O143 C150 1.287 . S
O144 Fe133 1.996 . S
O144 C150 1.255 . S
O145 Fe135 1.976 . S
O145 C140 1.287 . S
O146 Fe132 1.996 . S
O146 C140 1.255 . S
C147 O151 1.295 . S
C147 O152 1.235 . S
O148 Fe133 1.976 . S
O148 C142 1.287 . S
O149 Fe135 1.996 . S
O149 C142 1.255 . S
C150 O143 1.287 . S
C150 O144 1.255 . S
O151 Fe133 2.002 . S
O151 C147 1.295 . S
O152 Fe135 1.997 . S
O152 C147 1.235 . S
C153 O136 1.295 . S
C153 O137 1.235 . S
Fe154 O156 1.918 . S
Fe154 O159 1.997 . S
Fe154 O160 2.002 . S
Fe154 O165 1.976 . S
Fe154 O168 1.996 . S
Fe155 O156 1.918 . S
Fe155 O163 1.997 . S
Fe155 O166 1.996 . S
Fe155 O170 1.976 . S
Fe155 O173 2.002 . S
O156 Fe154 1.918 . S
O156 Fe155 1.918 . S
O156 Fe157 1.918 . S
Fe157 O156 1.918 . S
Fe157 O158 2.002 . S
Fe157 O167 1.976 . S
Fe157 O171 1.996 . S
Fe157 O174 1.997 . S
O158 Fe157 2.002 . S
O158 C175 1.295 . S
O159 Fe154 1.997 . S
O159 C175 1.235 . S
O160 Fe154 2.002 . S
O160 C161 1.295 . S
C161 O160 1.295 . S
C161 O163 1.235 . S
C162 O167 1.287 . S
C162 O168 1.255 . S
O163 Fe155 1.997 . S
O163 C161 1.235 . S
C164 O170 1.287 . S
C164 O171 1.255 . S
O165 Fe154 1.976 . S
O165 C172 1.287 . S
O166 Fe155 1.996 . S
O166 C172 1.255 . S
O167 Fe157 1.976 . S
O167 C162 1.287 . S
O168 Fe154 1.996 . S
O168 C162 1.255 . S
C169 O173 1.295 . S
C169 O174 1.235 . S
O170 Fe155 1.976 . S
O170 C164 1.287 . S
O171 Fe157 1.996 . S
O171 C164 1.255 . S
C172 O165 1.287 . S
C172 O166 1.255 . S
O173 Fe155 2.002 . S
O173 C169 1.295 . S
O174 Fe157 1.997 . S
O174 C169 1.235 . S
C175 O158 1.295 . S
C175 O159 1.235 . S
Fe176 O178 1.918 . S
Fe176 O181 1.997 . S
Fe176 O182 2.002 . S
Fe176 O187 1.976 . S
Fe176 O190 1.996 . S
Fe177 O178 1.918 . S
Fe177 O185 1.997 . S
Fe177 O188 1.996 . S
Fe177 O192 1.976 . S
Fe177 O195 2.002 . S
O178 Fe176 1.918 . S
O178 Fe177 1.918 . S
O178 Fe179 1.918 . S
Fe179 O178 1.918 . S
Fe179 O180 2.002 . S
Fe179 O189 1.976 . S
Fe179 O193 1.996 . S
Fe179 O196 1.997 . S
O180 Fe179 2.002 . S
O180 C197 1.295 . S
O181 Fe176 1.997 . S
O181 C197 1.235 . S
O182 Fe176 2.002 . S
O182 C183 1.295 . S
C183 O182 1.295 . S
C183 O185 1.235 . S
C184 O189 1.287 . S
C184 O190 1.255 . S
O185 Fe177 1.997 . S
O185 C183 1.235 . S
C186 O192 1.287 . S
C186 O193 1.255 . S
O187 Fe176 1.976 . S
O187 C194 1.287 . S
O188 Fe177 1.996 . S
O188 C194 1.255 . S
O189 Fe179 1.976 . S
O189 C184 1.287 . S
O190 Fe176 1.996 . S
O190 C184 1.255 . S
C191 O195 1.295 . S
C191 O196 1.235 . S
O192 Fe177 1.976 . S
O192 C186 1.287 . S
O193 Fe179 1.996 . S
O193 C186 1.255 . S
C194 O187 1.287 . S
C194 O188 1.255 . S
O195 Fe177 2.002 . S
O195 C191 1.295 . S
O196 Fe179 1.997 . S
O196 C191 1.235 . S
C197 O180 1.295 . S
C197 O181 1.235 . S
Fe198 O200 1.918 . S
Fe198 O203 1.997 . S
Fe198 O204 2.002 . S
Fe198 O209 1.976 . S
Fe198 O212 1.996 . S
Fe199 O200 1.918 . S
Fe199 O207 1.997 . S
Fe199 O210 1.996 . S
Fe199 O214 1.976 . S
Fe199 O217 2.002 . S
O200 Fe198 1.918 . S
O200 Fe199 1.918 . S
O200 Fe201 1.918 . S
Fe201 O200 1.918 . S
Fe201 O202 2.002 . S
Fe201 O211 1.976 . S
Fe201 O215 1.996 . S
Fe201 O218 1.997 . S
O202 Fe201 2.002 . S
O202 C219 1.295 . S
O203 Fe198 1.997 . S
O203 C219 1.235 . S
O204 Fe198 2.002 . S
O204 C205 1.295 . S
C205 O204 1.295 . S
C205 O207 1.235 . S
C206 O211 1.287 . S
C206 O212 1.255 . S
O207 Fe199 1.997 . S
O207 C205 1.235 . S
C208 O214 1.287 . S
C208 O215 1.255 . S
O209 Fe198 1.976 . S
O209 C216 1.287 . S
O210 Fe199 1.996 . S
O210 C216 1.255 . S
O211 Fe201 1.976 . S
O211 C206 1.287 . S
O212 Fe198 1.996 . S
O212 C206 1.255 . S
C213 O217 1.295 . S
C213 O218 1.235 . S
O214 Fe199 1.976 . S
O214 C208 1.287 . S
O215 Fe201 1.996 . S
O215 C208 1.255 . S
C216 O209 1.287 . S
C216 O210 1.255 . S
O217 Fe199 2.002 . S
O217 C213 1.295 . S
O218 Fe201 1.997 . S
O218 C213 1.235 . S
C219 O202 1.295 . S
C219 O203 1.235 . S
Fe220 O222 1.918 . S
Fe220 O225 1.997 . S
Fe220 O226 2.002 . S
Fe220 O231 1.976 . S
Fe220 O234 1.996 . S
Fe221 O222 1.918 . S
Fe221 O229 1.997 . S
Fe221 O232 1.996 . S
Fe221 O236 1.976 . S
Fe221 O239 2.002 . S
O222 Fe220 1.918 . S
O222 Fe221 1.918 . S
O222 Fe223 1.918 . S
Fe223 O222 1.918 . S
Fe223 O224 2.002 . S
Fe223 O233 1.976 . S
Fe223 O237 1.996 . S
Fe223 O240 1.997 . S
O224 Fe223 2.002 . S
O224 C241 1.295 . S
O225 Fe220 1.997 . S
O225 C241 1.235 . S
O226 Fe220 2.002 . S
O226 C227 1.295 . S
C227 O226 1.295 . S
C227 O229 1.235 . S
C228 O233 1.287 . S
C228 O234 1.255 . S
O229 Fe221 1.997 . S
O229 C227 1.235 . S
C230 O236 1.287 . S
C230 O237 1.255 . S
O231 Fe220 1.976 . S
O231 C238 1.287 . S
O232 Fe221 1.996 . S
O232 C238 1.255 . S
O233 Fe223 1.976 . S
O233 C228 1.287 . S
O234 Fe220 1.996 . S
O234 C228 1.255 . S
C235 O239 1.295 . S
C235 O240 1.235 . S
O236 Fe221 1.976 . S
O236 C230 1.287 . S
O237 Fe223 1.996 . S
O237 C230 1.255 . S
C238 O231 1.287 . S
C238 O232 1.255 . S
O239 Fe221 2.002 . S
O239 C235 1.295 . S
O240 Fe223 1.997 . S
O240 C235 1.235 . S
C241 O224 1.295 . S
C241 O225 1.235 . S
Fe242 O244 1.918 . S
Fe242 O247 1.997 . S
Fe242 O248 2.002 . S
Fe242 O253 1.976 . S
Fe242 O256 1.996 . S
Fe243 O244 1.918 . S
Fe243 O251 1.997 . S
Fe243 O254 1.996 . S
Fe243 O258 1.976 . S
Fe243 O261 2.002 . S
O244 Fe242 1.918 . S
O244 Fe243 1.918 . S
O244 Fe245 1.918 . S
Fe245 O244 1.918 . S
Fe245 O246 2.002 . S
Fe245 O255 1.976 . S
Fe245 O259 1.996 . S
Fe245 O262 1.997 . S
O246 Fe245 2.002 . S
O246 C263 1.295 . S
O247 Fe242 1.997 . S
O247 C263 1.235 . S
O248 Fe242 2.002 . S
O248 C249 1.295 . S
C249 O248 1.295 . S
C249 O251 1.235 . S
C250 O255 1.287 . S
C250 O256 1.255 . S
O251 Fe243 1.997 . S
O251 C249 1.235 . S
C252 O258 1.287 . S
C252 O259 1.255 . S
O253 Fe242 1.976 . S
O253 C260 1.287 . S
O254 Fe243 1.996 . S
O254 C260 1.255 . S
O255 Fe245 1.976 . S
O255 C250 1.287 . S
O256 Fe242 1.996 . S
O256 C250 1.255 . S
C257 O261 1.295 . S
C257 O262 1.235 . S
O258 Fe243 1.976 . S
O258 C252 1.287 . S
O259 Fe245 1.996 . S
O259 C252 1.255 . S
C260 O253 1.287 . S
C260 O254 1.255 . S
O261 Fe243 2.002 . S
O261 C257 1.295 . S
O262 Fe245 1.997 . S
O262 C257 1.235 . S
C263 O246 1.295 . S
C263 O247 1.235 . S
Fe264 O266 1.918 . S
Fe264 O269 1.997 . S
Fe264 O270 2.002 . S
Fe264 O275 1.976 . S
Fe264 O278 1.996 . S
Fe265 O266 1.918 . S
Fe265 O273 1.997 . S
Fe265 O276 1.996 . S
Fe265 O280 1.976 . S
Fe265 O283 2.002 . S
O266 Fe264 1.918 . S
O266 Fe265 1.918 . S
O266 Fe267 1.918 . S
Fe267 O266 1.918 . S
Fe267 O268 2.002 . S
Fe267 O277 1.976 . S
Fe267 O281 1.996 . S
Fe267 O284 1.997 . S
O268 Fe267 2.002 . S
O268 C285 1.295 . S
O269 Fe264 1.997 . S
O269 C285 1.235 . S
O270 Fe264 2.002 . S
O270 C271 1.295 . S
C271 O270 1.295 . S
C271 O273 1.235 . S
C272 O277 1.287 . S
C272 O278 1.255 . S
O273 Fe265 1.997 . S
O273 C271 1.235 . S
C274 O280 1.287 . S
C274 O281 1.255 . S
O275 Fe264 1.976 . S
O275 C282 1.287 . S
O276 Fe265 1.996 . S
O276 C282 1.255 . S
O277 Fe267 1.976 . S
O277 C272 1.287 . S
O278 Fe264 1.996 . S
O278 C272 1.255 . S
C279 O283 1.295 . S
C279 O284 1.235 . S
O280 Fe265 1.976 . S
O280 C274 1.287 . S
O281 Fe267 1.996 . S
O281 C274 1.255 . S
C282 O275 1.287 . S
C282 O276 1.255 . S
O283 Fe265 2.002 . S
O283 C279 1.295 . S
O284 Fe267 1.997 . S
O284 C279 1.235 . S
C285 O268 1.295 . S
C285 O269 1.235 . S
Fe286 O288 1.918 . S
Fe286 O291 1.997 . S
Fe286 O292 2.002 . S
Fe286 O297 1.976 . S
Fe286 O300 1.996 . S
Fe287 O288 1.918 . S
Fe287 O295 1.997 . S
Fe287 O298 1.996 . S
Fe287 O302 1.976 . S
Fe287 O305 2.002 . S
O288 Fe286 1.918 . S
O288 Fe287 1.918 . S
O288 Fe289 1.918 . S
Fe289 O288 1.918 . S
Fe289 O290 2.002 . S
Fe289 O299 1.976 . S
Fe289 O303 1.996 . S
Fe289 O306 1.997 . S
O290 Fe289 2.002 . S
O290 C307 1.295 . S
O291 Fe286 1.997 . S
O291 C307 1.235 . S
O292 Fe286 2.002 . S
O292 C293 1.295 . S
C293 O292 1.295 . S
C293 O295 1.235 . S
C294 O299 1.287 . S
C294 O300 1.255 . S
O295 Fe287 1.997 . S
O295 C293 1.235 . S
C296 O302 1.287 . S
C296 O303 1.255 . S
O297 Fe286 1.976 . S
O297 C304 1.287 . S
O298 Fe287 1.996 . S
O298 C304 1.255 . S
O299 Fe289 1.976 . S
O299 C294 1.287 . S
O300 Fe286 1.996 . S
O300 C294 1.255 . S
C301 O305 1.295 . S
C301 O306 1.235 . S
O302 Fe287 1.976 . S
O302 C296 1.287 . S
O303 Fe289 1.996 . S
O303 C296 1.255 . S
C304 O297 1.287 . S
C304 O298 1.255 . S
O305 Fe287 2.002 . S
O305 C301 1.295 . S
O306 Fe289 1.997 . S
O306 C301 1.235 . S
C307 O290 1.295 . S
C307 O291 1.235 . S
Fe308 O310 1.918 . S
Fe308 O313 1.997 . S
Fe308 O314 2.002 . S
Fe308 O319 1.976 . S
Fe308 O322 1.996 . S
Fe309 O310 1.918 . S
Fe309 O317 1.997 . S
Fe309 O320 1.996 . S
Fe309 O324 1.976 . S
Fe309 O327 2.002 . S
O310 Fe308 1.918 . S
O310 Fe309 1.918 . S
O310 Fe311 1.918 . S
Fe311 O310 1.918 . S
Fe311 O312 2.002 . S
Fe311 O321 1.976 . S
Fe311 O325 1.996 . S
Fe311 O328 1.997 . S
O312 Fe311 2.002 . S
O312 C329 1.295 . S
O313 Fe308 1.997 . S
O313 C329 1.235 . S
O314 Fe308 2.002 . S
O314 C315 1.295 . S
C315 O314 1.295 . S
C315 O317 1.235 . S
C316 O321 1.287 . S
C316 O322 1.255 . S
O317 Fe309 1.997 . S
O317 C315 1.235 . S
C318 O324 1.287 . S
C318 O325 1.255 . S
O319 Fe308 1.976 . S
O319 C326 1.287 . S
O320 Fe309 1.996 . S
O320 C326 1.255 . S
O321 Fe311 1.976 . S
O321 C316 1.287 . S
O322 Fe308 1.996 . S
O322 C316 1.255 . S
C323 O327 1.295 . S
C323 O328 1.235 . S
O324 Fe309 1.976 . S
O324 C318 1.287 . S
O325 Fe311 1.996 . S
O325 C318 1.255 . S
C326 O319 1.287 . S
C326 O320 1.255 . S
O327 Fe309 2.002 . S
O327 C323 1.295 . S
O328 Fe311 1.997 . S
O328 C323 1.235 . S
C329 O312 1.295 . S
C329 O313 1.235 . S
Fe330 O332 1.918 . S
Fe330 O335 1.997 . S
Fe330 O336 2.002 . S
Fe330 O341 1.976 . S
Fe330 O344 1.996 . S
Fe331 O332 1.918 . S
Fe331 O339 1.997 . S
Fe331 O342 1.996 . S
Fe331 O346 1.976 . S
Fe331 O349 2.002 . S
O332 Fe330 1.918 . S
O332 Fe331 1.918 . S
O332 Fe333 1.918 . S
Fe333 O332 1.918 . S
Fe333 O334 2.002 . S
Fe333 O343 1.976 . S
Fe333 O347 1.996 . S
Fe333 O350 1.997 . S
O334 Fe333 2.002 . S
O334 C351 1.295 . S
O335 Fe330 1.997 . S
O335 C351 1.235 . S
O336 Fe330 2.002 . S
O336 C337 1.295 . S
C337 O336 1.295 . S
C337 O339 1.235 . S
C338 O343 1.287 . S
C338 O344 1.255 . S
O339 Fe331 1.997 . S
O339 C337 1.235 . S
C340 O346 1.287 . S
C340 O347 1.255 . S
O341 Fe330 1.976 . S
O341 C348 1.287 . S
O342 Fe331 1.996 . S
O342 C348 1.255 . S
O343 Fe333 1.976 . S
O343 C338 1.287 . S
O344 Fe330 1.996 . S
O344 C338 1.255 . S
C345 O349 1.295 . S
C345 O350 1.235 . S
O346 Fe331 1.976 . S
O346 C340 1.287 . S
O347 Fe333 1.996 . S
O347 C340 1.255 . S
C348 O341 1.287 . S
C348 O342 1.255 . S
O349 Fe331 2.002 . S
O349 C345 1.295 . S
O350 Fe333 1.997 . S
O350 C345 1.235 . S
C351 O334 1.295 . S
C351 O335 1.235 . S
C352 C353 1.363 . S
C352 C358 1.379 1_554 S
C352 N360 1.356 . S
C353 C352 1.363 . S
C353 C359 1.363 . S
C354 C355 1.363 1_554 S
C354 C359 1.379 1_565 S
C354 N361 1.356 . S
C355 C354 1.363 1_556 S
C355 C358 1.363 1_565 S
N356 C358 1.356 . S
N356 H368 0.984 . S
N356 H369 0.985 1_545 S
N357 C359 1.356 . S
N357 H362 0.984 . S
N357 H363 0.985 1_545 S
C358 C352 1.379 1_556 S
C358 C355 1.363 1_545 S
C358 N356 1.356 . S
C359 C353 1.363 . S
C359 C354 1.379 1_545 S
C359 N357 1.356 . S
N360 C352 1.356 . S
N360 H366 0.984 . S
N360 H367 0.984 . S
N361 C354 1.356 . S
N361 H364 0.984 1_554 S
N361 H365 0.985 . S
H362 N357 0.984 . S
H363 N357 0.985 1_565 S
H364 N361 0.984 1_556 S
H365 N361 0.985 . S
H366 N360 0.984 . S
H367 N360 0.984 . S
H368 N356 0.984 . S
H369 N356 0.985 1_565 S
C370 C371 1.363 1_554 S
C370 C376 1.379 1_545 S
C370 N378 1.356 . S
C371 C370 1.363 1_556 S
C371 C377 1.363 1_545 S
C372 C373 1.363 . S
C372 C377 1.379 1_554 S
C372 N379 1.356 . S
C373 C372 1.363 . S
C373 C376 1.363 . S
N374 C376 1.356 . S
N374 H386 0.984 1_565 S
N374 H387 0.985 . S
N375 C377 1.356 . S
N375 H380 0.984 1_565 S
N375 H381 0.985 . S
C376 C370 1.379 1_565 S
C376 C373 1.363 . S
C376 N374 1.356 . S
C377 C371 1.363 1_565 S
C377 C372 1.379 1_556 S
C377 N375 1.356 . S
N378 C370 1.356 . S
N378 H384 0.984 . S
N378 H385 0.984 . S
N379 C372 1.356 . S
N379 H382 0.984 . S
N379 H383 0.985 1_554 S
H380 N375 0.984 1_545 S
H381 N375 0.985 . S
H382 N379 0.984 . S
H383 N379 0.985 1_556 S
H384 N378 0.984 . S
H385 N378 0.984 . S
H386 N374 0.984 1_545 S
H387 N374 0.985 . S
C388 C389 1.363 1_565 S
C388 C394 1.379 . S
C388 N396 1.356 1_565 S
C389 C388 1.363 1_545 S
C389 C395 1.363 1_545 S
C390 C391 1.363 . S
C390 C395 1.379 . S
C390 N397 1.356 . S
C391 C390 1.363 . S
C391 C394 1.363 . S
N392 C394 1.356 . S
N392 H404 0.984 . S
N392 H405 0.985 . S
N393 C395 1.356 1_545 S
N393 H398 0.984 . S
N393 H399 0.985 . S
C394 C388 1.379 . S
C394 C391 1.363 . S
C394 N392 1.356 . S
C395 C389 1.363 1_565 S
C395 C390 1.379 . S
C395 N393 1.356 1_565 S
N396 C388 1.356 1_545 S
N396 H402 0.984 . S
N396 H403 0.984 . S
N397 C390 1.356 . S
N397 H400 0.984 . S
N397 H401 0.985 . S
H398 N393 0.984 . S
H399 N393 0.985 . S
H400 N397 0.984 . S
H401 N397 0.985 . S
H402 N396 0.984 . S
H403 N396 0.984 . S
H404 N392 0.984 . S
H405 N392 0.985 . S
C406 C407 1.363 1_545 S
C406 C412 1.379 . S
C406 N414 1.356 . S
C407 C406 1.363 1_565 S
C407 C413 1.363 . S
C408 C409 1.363 . S
C408 C413 1.379 1_545 S
C408 N415 1.356 . S
C409 C408 1.363 . S
C409 C412 1.363 . S
N410 C412 1.356 . S
N410 H422 0.984 . S
N410 H423 0.985 . S
N411 C413 1.356 . S
N411 H416 0.984 . S
N411 H417 0.985 . S
C412 C406 1.379 . S
C412 C409 1.363 . S
C412 N410 1.356 . S
C413 C407 1.363 . S
C413 C408 1.379 1_565 S
C413 N411 1.356 . S
N414 C406 1.356 . S
N414 H420 0.984 . S
N414 H421 0.984 1_545 S
N415 C408 1.356 . S
N415 H418 0.984 . S
N415 H419 0.985 . S
H416 N411 0.984 . S
H417 N411 0.985 . S
H418 N415 0.984 . S
H419 N415 0.985 . S
H420 N414 0.984 . S
H421 N414 0.984 1_565 S
H422 N410 0.984 . S
H423 N410 0.985 . S
C424 C425 1.363 1_556 S
C424 C430 1.379 1_545 S
C424 N432 1.356 . S
C425 C424 1.363 1_554 S
C425 C431 1.363 1_545 S
C426 C427 1.363 . S
C426 C431 1.379 1_556 S
C426 N433 1.356 . S
C427 C426 1.363 . S
C427 C430 1.363 . S
N428 C430 1.356 . S
N428 H440 0.984 1_565 S
N428 H441 0.985 . S
N429 C431 1.356 . S
N429 H434 0.984 1_565 S
N429 H435 0.985 . S
C430 C424 1.379 1_565 S
C430 C427 1.363 . S
C430 N428 1.356 . S
C431 C425 1.363 1_565 S
C431 C426 1.379 1_554 S
C431 N429 1.356 . S
N432 C424 1.356 . S
N432 H438 0.984 . S
N432 H439 0.990 . S
N433 C426 1.356 . S
N433 H436 0.984 . S
N433 H437 0.985 1_556 S
H434 N429 0.984 1_545 S
H435 N429 0.985 . S
H436 N433 0.984 . S
H437 N433 0.985 1_554 S
H438 N432 0.984 . S
H439 N432 0.990 . S
H440 N428 0.984 1_545 S
H441 N428 0.985 . S
C442 C443 1.363 . S
C442 C448 1.379 1_556 S
C442 N450 1.356 . S
C443 C442 1.363 . S
C443 C449 1.363 . S
C444 C445 1.363 1_556 S
C444 C449 1.379 1_565 S
C444 N451 1.356 . S
C445 C444 1.363 1_554 S
C445 C448 1.363 1_565 S
N446 C448 1.356 . S
N446 H458 0.984 . S
N446 H459 0.985 1_545 S
N447 C449 1.356 . S
N447 H452 0.984 . S
N447 H453 0.985 1_545 S
C448 C442 1.379 1_554 S
C448 C445 1.363 1_545 S
C448 N446 1.356 . S
C449 C443 1.363 . S
C449 C444 1.379 1_545 S
C449 N447 1.356 . S
N450 C442 1.356 . S
N450 H456 0.984 1_556 S
N450 H457 0.984 . S
N451 C444 1.356 . S
N451 H454 0.984 . S
N451 H455 0.985 . S
H452 N447 0.984 . S
H453 N447 0.985 1_565 S
H454 N451 0.984 . S
H455 N451 0.985 . S
H456 N450 0.984 1_554 S
H457 N450 0.984 . S
H458 N446 0.984 . S
H459 N446 0.985 1_565 S
C460 C461 1.363 . S
C460 C466 1.379 1_565 S
C460 N468 1.356 . S
C461 C460 1.363 . S
C461 C467 1.363 1_565 S
C462 C463 1.363 . S
C462 C467 1.379 . S
C462 N469 1.356 . S
C463 C462 1.363 . S
C463 C466 1.363 . S
N464 C466 1.356 . S
N464 H476 0.984 1_545 S
N464 H477 0.985 . S
N465 C467 1.356 . S
N465 H470 0.984 1_545 S
N465 H471 0.985 . S
C466 C460 1.379 1_545 S
C466 C463 1.363 . S
C466 N464 1.356 . S
C467 C461 1.363 1_545 S
C467 C462 1.379 . S
C467 N465 1.356 . S
N468 C460 1.356 . S
N468 H474 0.984 . S
N468 H475 0.984 . S
N469 C462 1.356 . S
N469 H472 0.984 . S
N469 H473 0.985 . S
H470 N465 0.984 1_565 S
H471 N465 0.985 . S
H472 N469 0.984 . S
H473 N469 0.985 . S
H474 N468 0.984 . S
H475 N468 0.984 . S
H476 N464 0.984 1_565 S
H477 N464 0.985 . S
C478 C479 1.363 . S
C478 C484 1.379 1_565 S
C478 N486 1.356 . S
C479 C478 1.363 . S
C479 C485 1.363 . S
C480 C481 1.363 1_565 S
C480 C485 1.379 . S
C480 N487 1.356 . S
C481 C480 1.363 1_545 S
C481 C484 1.363 . S
N482 C484 1.356 . S
N482 H494 0.984 . S
N482 H495 0.985 . S
N483 C485 1.356 . S
N483 H488 0.984 . S
N483 H489 0.985 . S
C484 C478 1.379 1_545 S
C484 C481 1.363 . S
C484 N482 1.356 . S
C485 C479 1.363 . S
C485 C480 1.379 . S
C485 N483 1.356 . S
N486 C478 1.356 . S
N486 H492 0.984 . S
N486 H493 0.984 . S
N487 C480 1.356 . S
N487 H490 0.984 1_565 S
N487 H491 0.985 . S
H488 N483 0.984 . S
H489 N483 0.985 . S
H490 N487 0.984 1_545 S
H491 N487 0.985 . S
H492 N486 0.984 . S
H493 N486 0.984 . S
H494 N482 0.984 . S
H495 N482 0.985 . S
C496 C497 1.363 1_554 S
C496 C502 1.379 . S
C496 N504 1.356 . S
C497 C496 1.363 1_556 S
C497 C503 1.363 . S
C498 C499 1.363 . S
C498 C503 1.379 1_554 S
C498 N505 1.356 . S
C499 C498 1.363 . S
C499 C502 1.363 . S
N500 C502 1.356 . S
N500 H512 0.984 . S
N500 H513 0.985 . S
N501 C503 1.356 . S
N501 H506 0.984 . S
N501 H507 0.985 . S
C502 C496 1.379 . S
C502 C499 1.363 . S
C502 N500 1.356 . S
C503 C497 1.363 . S
C503 C498 1.379 1_556 S
C503 N501 1.356 . S
N504 C496 1.356 . S
N504 H510 0.984 . S
N504 H511 0.984 1_554 S
N505 C498 1.356 . S
N505 H508 0.984 . S
N505 H509 1.004 . S
H506 N501 0.984 . S
H507 N501 0.985 . S
H508 N505 0.984 . S
H509 N505 1.004 . S
H510 N504 0.984 . S
H511 N504 0.984 1_556 S
H512 N500 0.984 . S
H513 N500 0.985 . S
C514 C515 1.363 . S
C514 C520 1.379 1_554 S
C514 N522 1.356 . S
C515 C514 1.363 . S
C515 C521 1.363 . S
C516 C517 1.363 1_554 S
C516 C521 1.379 . S
C516 N523 1.356 . S
C517 C516 1.363 1_556 S
C517 C520 1.363 . S
N518 C520 1.356 . S
N518 H530 0.984 . S
N518 H531 0.985 . S
N519 C521 1.356 . S
N519 H524 0.984 . S
N519 H525 0.985 . S
C520 C514 1.379 1_556 S
C520 C517 1.363 . S
C520 N518 1.356 . S
C521 C515 1.363 . S
C521 C516 1.379 . S
C521 N519 1.356 . S
N522 C514 1.356 . S
N522 H528 0.984 . S
N522 H529 0.984 . S
N523 C516 1.356 . S
N523 H526 0.984 1_554 S
N523 H527 0.985 . S
H524 N519 0.984 . S
H525 N519 0.985 . S
H526 N523 0.984 1_556 S
H527 N523 0.985 . S
H528 N522 0.984 . S
H529 N522 0.984 . S
H530 N518 0.984 . S
H531 N518 0.985 . S
C532 C533 1.363 . S
C532 C538 1.379 . S
C532 N540 1.356 . S
C533 C532 1.363 . S
C533 C539 1.363 . S
C534 C535 1.363 . S
C534 C539 1.379 . S
C534 N541 1.356 . S
C535 C534 1.363 . S
C535 C538 1.363 . S
N536 C538 1.356 . S
N536 H548 0.984 . S
N536 H549 0.985 . S
N537 C539 1.356 . S
N537 H542 0.984 . S
N537 H543 0.985 . S
C538 C532 1.379 . S
C538 C535 1.363 . S
C538 N536 1.356 . S
C539 C533 1.363 . S
C539 C534 1.379 . S
C539 N537 1.356 . S
N540 C532 1.356 . S
N540 H546 0.984 . S
N540 H547 0.984 . S
N541 C534 1.356 . S
N541 H544 0.984 . S
N541 H545 0.985 . S
H542 N537 0.984 . S
H543 N537 0.985 . S
H544 N541 0.984 . S
H545 N541 0.985 . S
H546 N540 0.984 . S
H547 N540 0.984 . S
H548 N536 0.984 . S
H549 N536 0.985 . S
C550 C551 1.363 . S
C550 C556 1.379 . S
C550 N558 1.356 . S
C551 C550 1.363 . S
C551 C557 1.363 . S
C552 C553 1.363 . S
C552 C557 1.379 . S
C552 N559 1.356 . S
C553 C552 1.363 . S
C553 C556 1.363 . S
N554 C556 1.356 . S
N554 H566 0.984 . S
N554 H567 0.985 . S
N555 C557 1.356 . S
N555 H560 0.984 . S
N555 H561 0.985 . S
C556 C550 1.379 . S
C556 C553 1.363 . S
C556 N554 1.356 . S
C557 C551 1.363 . S
C557 C552 1.379 . S
C557 N555 1.356 . S
N558 C550 1.356 . S
N558 H564 0.984 . S
N558 H565 0.984 . S
N559 C552 1.356 . S
N559 H562 0.984 . S
N559 H563 0.985 . S
H560 N555 0.984 . S
H561 N555 0.985 . S
H562 N559 0.984 . S
H563 N559 0.985 . S
H564 N558 0.984 . S
H565 N558 0.984 . S
H566 N554 0.984 . S
H567 N554 0.985 . S
C568 C569 1.363 . S
C568 C574 1.379 . S
C568 N576 1.356 . S
C569 C568 1.363 . S
C569 C575 1.363 . S
C570 C571 1.363 . S
C570 C575 1.379 1_554 S
C570 N577 1.356 . S
C571 C570 1.363 . S
C571 C574 1.363 1_554 S
N572 C574 1.356 . S
N572 H584 0.984 . S
N572 H585 0.985 . S
N573 C575 1.356 . S
N573 H578 0.984 . S
N573 H579 0.985 1_556 S
C574 C568 1.379 . S
C574 C571 1.363 1_556 S
C574 N572 1.356 . S
C575 C569 1.363 . S
C575 C570 1.379 1_556 S
C575 N573 1.356 . S
N576 C568 1.356 . S
N576 H582 0.984 . S
N576 H583 0.984 . S
N577 C570 1.356 . S
N577 H580 0.984 . S
N577 H581 0.985 . S
H578 N573 0.984 . S
H579 N573 0.985 1_554 S
H580 N577 0.984 . S
H581 N577 0.985 . S
H582 N576 0.984 . S
H583 N576 0.984 . S
H584 N572 0.984 . S
H585 N572 0.985 . S
C586 C587 1.363 1_556 S
C586 C592 1.379 . S
C586 N594 1.356 . S
C587 C586 1.363 1_554 S
C587 C593 1.363 . S
C588 C589 1.363 . S
C588 C593 1.379 1_556 S
C588 N595 1.356 . S
C589 C588 1.363 . S
C589 C592 1.363 . S
N590 C592 1.356 . S
N590 H602 0.984 . S
N590 H603 0.985 . S
N591 C593 1.356 . S
N591 H596 0.984 . S
N591 H597 0.985 . S
C592 C586 1.379 . S
C592 C589 1.363 . S
C592 N590 1.356 . S
C593 C587 1.363 . S
C593 C588 1.379 1_554 S
C593 N591 1.356 . S
N594 C586 1.356 . S
N594 H600 0.984 . S
N594 H601 0.984 . S
N595 C588 1.356 . S
N595 H598 0.984 . S
N595 H599 0.985 1_556 S
H596 N591 0.984 . S
H597 N591 0.985 . S
H598 N595 0.984 . S
H599 N595 0.985 1_554 S
H600 N594 0.984 . S
H601 N594 0.984 . S
H602 N590 0.984 . S
H603 N590 0.985 . S
C604 C605 1.363 . S
C604 C610 1.379 . S
C604 N612 1.356 . S
C605 C604 1.363 . S
C605 C611 1.363 . S
C606 C607 1.363 . S
C606 C611 1.379 . S
C606 N613 1.356 . S
C607 C606 1.363 . S
C607 C610 1.363 . S
N608 C610 1.356 . S
N608 H620 0.984 . S
N608 H621 0.985 . S
N609 C611 1.356 . S
N609 H614 0.984 . S
N609 H615 0.985 . S
C610 C604 1.379 . S
C610 C607 1.363 . S
C610 N608 1.356 . S
C611 C605 1.363 . S
C611 C606 1.379 . S
C611 N609 1.356 . S
N612 C604 1.356 . S
N612 H618 0.984 . S
N612 H619 0.984 . S
N613 C606 1.356 . S
N613 H616 0.984 . S
N613 H617 0.985 . S
H614 N609 0.984 . S
H615 N609 0.985 . S
H616 N613 0.984 . S
H617 N613 0.985 . S
H618 N612 0.984 . S
H619 N612 0.984 . S
H620 N608 0.984 . S
H621 N608 0.985 . S
C622 C623 1.363 . S
C622 C628 1.379 . S
C622 N630 1.356 . S
C623 C622 1.363 . S
C623 C629 1.363 . S
C624 C625 1.363 . S
C624 C629 1.379 . S
C624 N631 1.356 . S
C625 C624 1.363 . S
C625 C628 1.363 . S
N626 C628 1.356 . S
N626 H638 0.984 . S
N626 H639 0.985 . S
N627 C629 1.356 . S
N627 H632 0.984 . S
N627 H633 0.985 . S
C628 C622 1.379 . S
C628 C625 1.363 . S
C628 N626 1.356 . S
C629 C623 1.363 . S
C629 C624 1.379 . S
C629 N627 1.356 . S
N630 C622 1.356 . S
N630 H636 0.984 . S
N630 H637 0.984 . S
N631 C624 1.356 . S
N631 H634 0.984 . S
N631 H635 0.985 . S
H632 N627 0.984 . S
H633 N627 0.985 . S
H634 N631 0.984 . S
H635 N631 0.985 . S
H636 N630 0.984 . S
H637 N630 0.984 . S
H638 N626 0.984 . S
H639 N626 0.985 . S
C640 C641 1.363 . S
C640 C646 1.379 . S
C640 N648 1.356 . S
C641 C640 1.363 . S
C641 C647 1.363 . S
C642 C643 1.363 . S
C642 C647 1.379 . S
C642 N649 1.356 . S
C643 C642 1.363 . S
C643 C646 1.363 . S
N644 C646 1.356 . S
N644 H656 0.984 . S
N644 H657 0.985 . S
N645 C647 1.356 . S
N645 H650 0.984 . S
N645 H651 0.985 . S
C646 C640 1.379 . S
C646 C643 1.363 . S
C646 N644 1.356 . S
C647 C641 1.363 . S
C647 C642 1.379 . S
C647 N645 1.356 . S
N648 C640 1.356 . S
N648 H654 0.984 . S
N648 H655 0.984 . S
N649 C642 1.356 . S
N649 H652 0.984 . S
N649 H653 0.985 . S
H650 N645 0.984 . S
H651 N645 0.985 . S
H652 N649 0.984 . S
H653 N649 0.985 . S
H654 N648 0.984 . S
H655 N648 0.984 . S
H656 N644 0.984 . S
H657 N644 0.985 . S
C658 C659 1.363 . S
C658 C664 1.379 . S
C658 N666 1.356 . S
C659 C658 1.363 . S
C659 C665 1.363 . S
C660 C661 1.363 . S
C660 C665 1.379 . S
C660 N667 1.356 . S
C661 C660 1.363 . S
C661 C664 1.363 . S
N662 C664 1.356 . S
N662 H674 0.984 . S
N662 H675 0.985 . S
N663 C665 1.356 . S
N663 H668 0.984 . S
N663 H669 0.985 . S
C664 C658 1.379 . S
C664 C661 1.363 . S
C664 N662 1.356 . S
C665 C659 1.363 . S
C665 C660 1.379 . S
C665 N663 1.356 . S
N666 C658 1.356 . S
N666 H672 0.984 . S
N666 H673 0.984 . S
N667 C660 1.356 . S
N667 H670 0.984 . S
N667 H671 0.985 . S
H668 N663 0.984 . S
H669 N663 0.985 . S
H670 N667 0.984 . S
H671 N667 0.985 . S
H672 N666 0.984 . S
H673 N666 0.984 . S
H674 N662 0.984 . S
H675 N662 0.985 . S
C676 C677 1.363 . S
C676 C682 1.379 . S
C676 N684 1.356 . S
C677 C676 1.363 . S
C677 C683 1.363 . S
C678 C679 1.363 . S
C678 C683 1.379 . S
C678 N685 1.356 . S
C679 C678 1.363 . S
C679 C682 1.363 . S
N680 C682 1.356 . S
N680 H692 0.984 . S
N680 H693 0.985 . S
N681 C683 1.356 . S
N681 H686 0.984 . S
N681 H687 0.985 . S
C682 C676 1.379 . S
C682 C679 1.363 . S
C682 N680 1.356 . S
C683 C677 1.363 . S
C683 C678 1.379 . S
C683 N681 1.356 . S
N684 C676 1.356 . S
N684 H690 0.984 . S
N684 H691 0.984 . S
N685 C678 1.356 . S
N685 H688 0.984 . S
N685 H689 0.985 . S
H686 N681 0.984 . S
H687 N681 0.985 . S
H688 N685 0.984 . S
H689 N685 0.985 . S
H690 N684 0.984 . S
H691 N684 0.984 . S
H692 N680 0.984 . S
H693 N680 0.985 . S
C694 C695 1.363 . S
C694 C700 1.379 . S
C694 N702 1.356 . S
C695 C694 1.363 . S
C695 C701 1.363 . S
C696 C697 1.363 . S
C696 C701 1.379 . S
C696 N703 1.356 . S
C697 C696 1.363 . S
C697 C700 1.363 . S
N698 C700 1.356 . S
N698 H710 0.984 . S
N698 H711 0.985 . S
N699 C701 1.356 . S
N699 H704 0.984 . S
N699 H705 0.985 . S
C700 C694 1.379 . S
C700 C697 1.363 . S
C700 N698 1.356 . S
C701 C695 1.363 . S
C701 C696 1.379 . S
C701 N699 1.356 . S
N702 C694 1.356 . S
N702 H708 0.984 . S
N702 H709 0.984 . S
N703 C696 1.356 . S
N703 H706 0.984 . S
N703 H707 0.985 . S
H704 N699 0.984 . S
H705 N699 0.985 . S
H706 N703 0.984 . S
H707 N703 0.985 . S
H708 N702 0.984 . S
H709 N702 0.984 . S
H710 N698 0.984 . S
H711 N698 0.985 . S
C712 C713 1.363 . S
C712 C718 1.379 . S
C712 N720 1.356 . S
C713 C712 1.363 . S
C713 C719 1.363 . S
C714 C715 1.363 . S
C714 C719 1.379 . S
C714 N721 1.356 . S
C715 C714 1.363 . S
C715 C718 1.363 . S
N716 C718 1.356 . S
N716 H728 0.984 . S
N716 H729 0.985 . S
N717 C719 1.356 . S
N717 H722 0.984 . S
N717 H723 0.985 . S
C718 C712 1.379 . S
C718 C715 1.363 . S
C718 N716 1.356 . S
C719 C713 1.363 . S
C719 C714 1.379 . S
C719 N717 1.356 . S
N720 C712 1.356 . S
N720 H726 0.984 . S
N720 H727 0.984 . S
N721 C714 1.356 . S
N721 H724 0.984 . S
N721 H725 0.985 . S
H722 N717 0.984 . S
H723 N717 0.985 . S
H724 N721 0.984 . S
H725 N721 0.985 . S
H726 N720 0.984 . S
H727 N720 0.984 . S
H728 N716 0.984 . S
H729 N716 0.985 . S
C730 C731 1.363 . S
C730 C736 1.379 . S
C730 N738 1.356 . S
C731 C730 1.363 . S
C731 C737 1.363 . S
C732 C733 1.363 . S
C732 C737 1.379 . S
C732 N739 1.356 . S
C733 C732 1.363 . S
C733 C736 1.363 . S
N734 C736 1.356 . S
N734 H746 0.984 . S
N734 H747 0.985 . S
N735 C737 1.356 . S
N735 H740 0.984 . S
N735 H741 0.985 . S
C736 C730 1.379 . S
C736 C733 1.363 . S
C736 N734 1.356 . S
C737 C731 1.363 . S
C737 C732 1.379 . S
C737 N735 1.356 . S
N738 C730 1.356 . S
N738 H744 0.984 . S
N738 H745 0.984 . S
N739 C732 1.356 . S
N739 H742 0.984 . S
N739 H743 0.985 . S
H740 N735 0.984 . S
H741 N735 0.985 . S
H742 N739 0.984 . S
H743 N739 0.985 . S
H744 N738 0.984 . S
H745 N738 0.984 . S
H746 N734 0.984 . S
H747 N734 0.985 . S
C748 C749 1.363 . S
C748 C754 1.379 . S
C748 N756 1.356 . S
C749 C748 1.363 . S
C749 C755 1.363 . S
C750 C751 1.363 . S
C750 C755 1.379 . S
C750 N757 1.356 . S
C751 C750 1.363 . S
C751 C754 1.363 . S
N752 C754 1.356 . S
N752 H764 0.984 . S
N752 H765 0.985 . S
N753 C755 1.356 . S
N753 H758 0.984 . S
N753 H759 0.985 . S
C754 C748 1.379 . S
C754 C751 1.363 . S
C754 N752 1.356 . S
C755 C749 1.363 . S
C755 C750 1.379 . S
C755 N753 1.356 . S
N756 C748 1.356 . S
N756 H762 0.984 . S
N756 H763 0.984 . S
N757 C750 1.356 . S
N757 H760 0.984 . S
N757 H761 0.985 . S
H758 N753 0.984 . S
H759 N753 0.985 . S
H760 N757 0.984 . S
H761 N757 0.985 . S
H762 N756 0.984 . S
H763 N756 0.984 . S
H764 N752 0.984 . S
H765 N752 0.985 . S
C766 C767 1.363 . S
C766 C772 1.379 . S
C766 N774 1.356 . S
C767 C766 1.363 . S
C767 C773 1.363 . S
C768 C769 1.363 . S
C768 C773 1.379 . S
C768 N775 1.356 . S
C769 C768 1.363 . S
C769 C772 1.363 . S
N770 C772 1.356 . S
N770 H782 0.984 . S
N770 H783 0.985 . S
N771 C773 1.356 . S
N771 H776 0.984 . S
N771 H777 0.985 . S
C772 C766 1.379 . S
C772 C769 1.363 . S
C772 N770 1.356 . S
C773 C767 1.363 . S
C773 C768 1.379 . S
C773 N771 1.356 . S
N774 C766 1.356 . S
N774 H780 0.984 . S
N774 H781 0.984 . S
N775 C768 1.356 . S
N775 H778 0.984 . S
N775 H779 0.985 . S
H776 N771 0.984 . S
H777 N771 0.985 . S
H778 N775 0.984 . S
H779 N775 0.985 . S
H780 N774 0.984 . S
H781 N774 0.984 . S
H782 N770 0.984 . S
H783 N770 0.985 . S
C784 C785 1.363 . S
C784 C790 1.379 . S
C784 N792 1.356 . S
C785 C784 1.363 . S
C785 C791 1.363 . S
C786 C787 1.363 . S
C786 C791 1.379 . S
C786 N793 1.356 . S
C787 C786 1.363 . S
C787 C790 1.363 . S
N788 C790 1.356 . S
N788 H800 0.984 . S
N788 H801 0.985 . S
N789 C791 1.356 . S
N789 H794 0.984 . S
N789 H795 0.985 . S
C790 C784 1.379 . S
C790 C787 1.363 . S
C790 N788 1.356 . S
C791 C785 1.363 . S
C791 C786 1.379 . S
C791 N789 1.356 . S
N792 C784 1.356 . S
N792 H798 0.984 . S
N792 H799 0.984 . S
N793 C786 1.356 . S
N793 H796 0.984 . S
N793 H797 0.985 . S
H794 N789 0.984 . S
H795 N789 0.985 . S
H796 N793 0.984 . S
H797 N793 0.985 . S
H798 N792 0.984 . S
H799 N792 0.984 . S
H800 N788 0.984 . S
H801 N788 0.985 . S
C802 C803 1.363 . S
C802 C808 1.379 . S
C802 N810 1.356 . S
C803 C802 1.363 . S
C803 C809 1.363 . S
C804 C805 1.363 . S
C804 C809 1.379 . S
C804 N811 1.356 . S
C805 C804 1.363 . S
C805 C808 1.363 . S
N806 C808 1.356 . S
N806 H818 0.984 . S
N806 H819 0.985 . S
N807 C809 1.356 . S
N807 H812 0.984 . S
N807 H813 0.985 . S
C808 C802 1.379 . S
C808 C805 1.363 . S
C808 N806 1.356 . S
C809 C803 1.363 . S
C809 C804 1.379 . S
C809 N807 1.356 . S
N810 C802 1.356 . S
N810 H816 0.984 . S
N810 H817 0.984 . S
N811 C804 1.356 . S
N811 H814 0.984 . S
N811 H815 0.985 . S
H812 N807 0.984 . S
H813 N807 0.985 . S
H814 N811 0.984 . S
H815 N811 0.985 . S
H816 N810 0.984 . S
H817 N810 0.984 . S
H818 N806 0.984 . S
H819 N806 0.985 . S
C820 C821 1.363 . S
C820 C826 1.379 . S
C820 N828 1.356 . S
C821 C820 1.363 . S
C821 C827 1.363 . S
C822 C823 1.363 . S
C822 C827 1.379 . S
C822 N829 1.356 . S
C823 C822 1.363 . S
C823 C826 1.363 . S
N824 C826 1.356 . S
N824 H836 0.984 . S
N824 H837 0.985 . S
N825 C827 1.356 . S
N825 H830 0.984 . S
N825 H831 0.985 . S
C826 C820 1.379 . S
C826 C823 1.363 . S
C826 N824 1.356 . S
C827 C821 1.363 . S
C827 C822 1.379 . S
C827 N825 1.356 . S
N828 C820 1.356 . S
N828 H834 0.984 . S
N828 H835 0.984 . S
N829 C822 1.356 . S
N829 H832 0.984 . S
N829 H833 0.985 . S
H830 N825 0.984 . S
H831 N825 0.985 . S
H832 N829 0.984 . S
H833 N829 0.985 . S
H834 N828 0.984 . S
H835 N828 0.984 . S
H836 N824 0.984 . S
H837 N824 0.985 . S
C838 C839 1.363 . S
C838 C844 1.379 . S
C838 N846 1.356 . S
C839 C838 1.363 . S
C839 C845 1.363 . S
C840 C841 1.363 . S
C840 C845 1.379 . S
C840 N847 1.356 . S
C841 C840 1.363 . S
C841 C844 1.363 . S
N842 C844 1.356 . S
N842 H854 0.984 . S
N842 H855 0.985 . S
N843 C845 1.356 . S
N843 H848 0.984 . S
N843 H849 0.985 . S
C844 C838 1.379 . S
C844 C841 1.363 . S
C844 N842 1.356 . S
C845 C839 1.363 . S
C845 C840 1.379 . S
C845 N843 1.356 . S
N846 C838 1.356 . S
N846 H852 0.984 . S
N846 H853 0.984 . S
N847 C840 1.356 . S
N847 H850 0.984 . S
N847 H851 0.985 . S
H848 N843 0.984 . S
H849 N843 0.985 . S
H850 N847 0.984 . S
H851 N847 0.985 . S
H852 N846 0.984 . S
H853 N846 0.984 . S
H854 N842 0.984 . S
H855 N842 0.985 . S
C856 C857 1.363 . S
C856 C862 1.379 1_545 S
C856 N864 1.356 . S
C857 C856 1.363 . S
C857 C863 1.363 . S
C858 C859 1.363 . S
C858 C863 1.379 1_565 S
C858 N865 1.356 . S
C859 C858 1.363 . S
C859 C862 1.363 . S
N860 C862 1.356 . S
N860 H872 0.984 . S
N860 H873 0.985 . S
N861 C863 1.356 . S
N861 H866 0.984 . S
N861 H867 0.985 . S
C862 C856 1.379 1_565 S
C862 C859 1.363 . S
C862 N860 1.356 . S
C863 C857 1.363 . S
C863 C858 1.379 1_545 S
C863 N861 1.356 . S
N864 C856 1.356 . S
N864 H870 0.984 1_545 S
N864 H871 0.984 . S
N865 C858 1.356 . S
N865 H868 0.984 . S
N865 H869 0.985 1_565 S
H866 N861 0.984 . S
H867 N861 0.985 . S
H868 N865 0.984 . S
H869 N865 0.985 1_545 S
H870 N864 0.984 1_565 S
H871 N864 0.984 . S
H872 N860 0.984 . S
H873 N860 0.985 . S
C874 C875 1.363 . S
C874 C880 1.379 1_545 S
C874 N882 1.356 . S
C875 C874 1.363 . S
C875 C881 1.363 . S
C876 C877 1.363 . S
C876 C881 1.379 1_565 S
C876 N883 1.356 . S
C877 C876 1.363 . S
C877 C880 1.363 . S
N878 C880 1.356 . S
N878 H890 0.984 1_565 S
N878 H891 0.985 . S
N879 C881 1.356 . S
N879 H884 0.984 . S
N879 H885 0.985 1_545 S
C880 C874 1.379 1_565 S
C880 C877 1.363 . S
C880 N878 1.356 . S
C881 C875 1.363 . S
C881 C876 1.379 1_545 S
C881 N879 1.356 . S
N882 C874 1.356 . S
N882 H888 0.984 . S
N882 H889 0.984 . S
N883 C876 1.356 . S
N883 H886 0.984 . S
N883 H887 0.985 . S
H884 N879 0.984 . S
H885 N879 0.985 1_565 S
H886 N883 0.984 . S
H887 N883 0.985 . S
H888 N882 0.984 . S
H889 N882 0.984 . S
H890 N878 0.984 1_545 S
H891 N878 0.985 . S
C892 C893 1.363 . S
C892 C898 1.379 1_565 S
C892 N900 1.356 . S
C893 C892 1.363 . S
C893 C899 1.363 . S
C894 C895 1.363 . S
C894 C899 1.379 1_545 S
C894 N901 1.356 . S
C895 C894 1.363 . S
C895 C898 1.363 . S
N896 C898 1.356 . S
N896 H908 0.984 . S
N896 H909 0.985 . S
N897 C899 1.356 . S
N897 H902 0.984 . S
N897 H903 0.985 . S
C898 C892 1.379 1_545 S
C898 C895 1.363 . S
C898 N896 1.356 . S
C899 C893 1.363 . S
C899 C894 1.379 1_565 S
C899 N897 1.356 . S
N900 C892 1.356 . S
N900 H906 0.983 1_565 S
N900 H907 0.984 . S
N901 C894 1.356 . S
N901 H904 0.984 . S
N901 H905 0.983 1_545 S
H902 N897 0.984 . S
H903 N897 0.985 . S
H904 N901 0.984 . S
H905 N901 0.983 1_565 S
H906 N900 0.983 1_545 S
H907 N900 0.984 . S
H908 N896 0.984 . S
H909 N896 0.985 . S
C910 C911 1.363 . S
C910 C916 1.379 1_565 S
C910 N918 1.356 . S
C911 C910 1.363 . S
C911 C917 1.363 . S
C912 C913 1.363 . S
C912 C917 1.379 1_545 S
C912 N919 1.356 . S
C913 C912 1.363 . S
C913 C916 1.363 . S
N914 C916 1.356 . S
N914 H926 0.983 1_545 S
N914 H927 0.985 . S
N915 C917 1.356 . S
N915 H920 0.984 . S
N915 H921 0.983 1_565 S
C916 C910 1.379 1_545 S
C916 C913 1.363 . S
C916 N914 1.356 . S
C917 C911 1.363 . S
C917 C912 1.379 1_565 S
C917 N915 1.356 . S
N918 C910 1.356 . S
N918 H924 0.984 . S
N918 H925 0.984 . S
N919 C912 1.356 . S
N919 H922 0.984 . S
N919 H923 0.985 . S
H920 N915 0.984 . S
H921 N915 0.983 1_545 S
H922 N919 0.984 . S
H923 N919 0.985 . S
H924 N918 0.984 . S
H925 N918 0.984 . S
H926 N914 0.983 1_565 S
H927 N914 0.985 . S
C928 C929 1.363 . S
C928 C934 1.379 . S
C928 N936 1.356 . S
C929 C928 1.363 . S
C929 C935 1.363 1_556 S
C930 C931 1.363 . S
C930 C935 1.379 . S
C930 N937 1.356 . S
C931 C930 1.363 . S
C931 C934 1.363 1_554 S
N932 C934 1.356 . S
N932 H944 0.984 . S
N932 H945 0.985 . S
N933 C935 1.356 . S
N933 H938 0.984 . S
N933 H939 0.985 . S
C934 C928 1.379 . S
C934 C931 1.363 1_556 S
C934 N932 1.356 . S
C935 C929 1.363 1_554 S
C935 C930 1.379 . S
C935 N933 1.356 . S
N936 C928 1.356 . S
N936 H942 0.984 . S
N936 H943 0.984 . S
N937 C930 1.356 . S
N937 H940 0.984 . S
N937 H941 0.985 . S
H938 N933 0.984 . S
H939 N933 0.985 . S
H940 N937 0.984 . S
H941 N937 0.985 . S
H942 N936 0.984 . S
H943 N936 0.984 . S
H944 N932 0.984 . S
H945 N932 0.985 . S
C946 C947 1.363 . S
C946 C952 1.379 . S
C946 N954 1.356 . S
C947 C946 1.363 . S
C947 C953 1.363 1_554 S
C948 C949 1.363 . S
C948 C953 1.379 . S
C948 N955 1.356 . S
C949 C948 1.363 . S
C949 C952 1.363 1_556 S
N950 C952 1.356 . S
N950 H962 0.984 . S
N950 H963 0.985 . S
N951 C953 1.356 . S
N951 H956 0.984 . S
N951 H957 0.985 . S
C952 C946 1.379 . S
C952 C949 1.363 1_554 S
C952 N950 1.356 . S
C953 C947 1.363 1_556 S
C953 C948 1.379 . S
C953 N951 1.356 . S
N954 C946 1.356 . S
N954 H960 0.984 . S
N954 H961 0.984 . S
N955 C948 1.356 . S
N955 H958 0.984 . S
N955 H959 0.985 . S
H956 N951 0.984 . S
H957 N951 0.985 . S
H958 N955 0.984 . S
H959 N955 0.985 . S
H960 N954 0.984 . S
H961 N954 0.984 . S
H962 N950 0.984 . S
H963 N950 0.985 . S
C964 C965 1.363 . S
C964 C970 1.379 . S
C964 N972 1.356 . S
C965 C964 1.363 . S
C965 C971 1.363 . S
C966 C967 1.363 . S
C966 C971 1.379 . S
C966 N973 1.356 . S
C967 C966 1.363 . S
C967 C970 1.363 . S
N968 C970 1.356 . S
N968 H980 0.984 . S
N968 H981 0.985 . S
N969 C971 1.356 . S
N969 H974 0.984 . S
N969 H975 0.985 . S
C970 C964 1.379 . S
C970 C967 1.363 . S
C970 N968 1.356 . S
C971 C965 1.363 . S
C971 C966 1.379 . S
C971 N969 1.356 . S
N972 C964 1.356 . S
N972 H978 0.984 . S
N972 H979 0.984 . S
N973 C966 1.356 . S
N973 H976 0.984 . S
N973 H977 0.985 . S
H974 N969 0.984 . S
H975 N969 0.985 . S
H976 N973 0.984 . S
H977 N973 0.985 . S
H978 N972 0.984 . S
H979 N972 0.984 . S
H980 N968 0.984 . S
H981 N968 0.985 . S
C982 C983 1.363 . S
C982 C988 1.379 . S
C982 N990 1.356 . S
C983 C982 1.363 . S
C983 C989 1.363 . S
C984 C985 1.363 . S
C984 C989 1.379 . S
C984 N991 1.356 . S
C985 C984 1.363 . S
C985 C988 1.363 . S
N986 C988 1.356 . S
N986 H998 0.984 . S
N986 H999 0.985 . S
N987 C989 1.356 . S
N987 H992 0.984 . S
N987 H993 0.985 . S
C988 C982 1.379 . S
C988 C985 1.363 . S
C988 N986 1.356 . S
C989 C983 1.363 . S
C989 C984 1.379 . S
C989 N987 1.356 . S
N990 C982 1.356 . S
N990 H996 0.984 . S
N990 H997 0.984 . S
N991 C984 1.356 . S
N991 H994 0.984 . S
N991 H995 0.985 . S
H992 N987 0.984 . S
H993 N987 0.985 . S
H994 N991 0.984 . S
H995 N991 0.985 . S
H996 N990 0.984 . S
H997 N990 0.984 . S
H998 N986 0.984 . S
H999 N986 0.985 . S
C1000 C1001 1.363 . S
C1000 C1006 1.379 . S
C1000 N1008 1.356 . S
C1001 C1000 1.363 . S
C1001 C1007 1.363 1_556 S
C1002 C1003 1.363 . S
C1002 C1007 1.379 . S
C1002 N1009 1.356 . S
C1003 C1002 1.363 . S
C1003 C1006 1.363 1_554 S
N1004 C1006 1.356 . S
N1004 H1016 0.984 . S
N1004 H1017 0.985 . S
N1005 C1007 1.356 . S
N1005 H1010 0.984 . S
N1005 H1011 0.985 . S
C1006 C1000 1.379 . S
C1006 C1003 1.363 1_556 S
C1006 N1004 1.356 . S
C1007 C1001 1.363 1_554 S
C1007 C1002 1.379 . S
C1007 N1005 1.356 . S
N1008 C1000 1.356 . S
N1008 H1014 0.984 . S
N1008 H1015 0.984 . S
N1009 C1002 1.356 . S
N1009 H1012 0.984 . S
N1009 H1013 0.985 . S
H1010 N1005 0.984 . S
H1011 N1005 0.985 . S
H1012 N1009 0.984 . S
H1013 N1009 0.985 . S
H1014 N1008 0.984 . S
H1015 N1008 0.984 . S
H1016 N1004 0.984 . S
H1017 N1004 0.985 . S
C1018 C1019 1.363 . S
C1018 C1024 1.379 . S
C1018 N1026 1.356 . S
C1019 C1018 1.363 . S
C1019 C1025 1.363 1_556 S
C1020 C1021 1.363 . S
C1020 C1025 1.379 . S
C1020 N1027 1.356 . S
C1021 C1020 1.363 . S
C1021 C1024 1.363 1_554 S
N1022 C1024 1.356 . S
N1022 H1034 0.984 . S
N1022 H1035 0.985 . S
N1023 C1025 1.356 . S
N1023 H1028 0.984 . S
N1023 H1029 0.985 . S
C1024 C1018 1.379 . S
C1024 C1021 1.363 1_556 S
C1024 N1022 1.356 . S
C1025 C1019 1.363 1_554 S
C1025 C1020 1.379 . S
C1025 N1023 1.356 . S
N1026 C1018 1.356 . S
N1026 H1032 0.984 . S
N1026 H1033 0.984 . S
N1027 C1020 1.356 . S
N1027 H1030 0.984 . S
N1027 H1031 0.985 . S
H1028 N1023 0.984 . S
H1029 N1023 0.985 . S
H1030 N1027 0.984 . S
H1031 N1027 0.985 . S
H1032 N1026 0.984 . S
H1033 N1026 0.984 . S
H1034 N1022 0.984 . S
H1035 N1022 0.985 . S
C1036 C1037 1.363 . S
C1036 C1042 1.379 . S
C1036 N1044 1.356 . S
C1037 C1036 1.363 . S
C1037 C1043 1.363 . S
C1038 C1039 1.363 . S
C1038 C1043 1.379 . S
C1038 N1045 1.356 . S
C1039 C1038 1.363 . S
C1039 C1042 1.363 . S
N1040 C1042 1.356 . S
N1040 H1052 0.984 . S
N1040 H1053 0.985 . S
N1041 C1043 1.356 . S
N1041 H1046 0.984 . S
N1041 H1047 0.985 . S
C1042 C1036 1.379 . S
C1042 C1039 1.363 . S
C1042 N1040 1.356 . S
C1043 C1037 1.363 . S
C1043 C1038 1.379 . S
C1043 N1041 1.356 . S
N1044 C1036 1.356 . S
N1044 H1050 0.984 . S
N1044 H1051 0.984 . S
N1045 C1038 1.356 . S
N1045 H1048 0.984 . S
N1045 H1049 0.985 . S
H1046 N1041 0.984 . S
H1047 N1041 0.985 . S
H1048 N1045 0.984 . S
H1049 N1045 0.985 . S
H1050 N1044 0.984 . S
H1051 N1044 0.984 . S
H1052 N1040 0.984 . S
H1053 N1040 0.985 . S
C1054 C1055 1.363 . S
C1054 C1060 1.379 . S
C1054 N1062 1.356 . S
C1055 C1054 1.363 . S
C1055 C1061 1.363 . S
C1056 C1057 1.363 . S
C1056 C1061 1.379 . S
C1056 N1063 1.356 . S
C1057 C1056 1.363 . S
C1057 C1060 1.363 . S
N1058 C1060 1.356 . S
N1058 H1070 0.984 . S
N1058 H1071 0.985 . S
N1059 C1061 1.356 . S
N1059 H1064 0.984 . S
N1059 H1065 0.985 . S
C1060 C1054 1.379 . S
C1060 C1057 1.363 . S
C1060 N1058 1.356 . S
C1061 C1055 1.363 . S
C1061 C1056 1.379 . S
C1061 N1059 1.356 . S
N1062 C1054 1.356 . S
N1062 H1068 0.984 . S
N1062 H1069 0.984 . S
N1063 C1056 1.356 . S
N1063 H1066 0.984 . S
N1063 H1067 0.985 . S
H1064 N1059 0.984 . S
H1065 N1059 0.985 . S
H1066 N1063 0.984 . S
H1067 N1063 0.985 . S
H1068 N1062 0.984 . S
H1069 N1062 0.984 . S
H1070 N1058 0.984 . S
H1071 N1058 0.985 . S
C1072 C1073 1.363 . S
C1072 C1078 1.379 1_455 S
C1072 N1080 1.356 . S
C1073 C1072 1.363 . S
C1073 C1079 1.363 . S
C1074 C1075 1.363 . S
C1074 C1079 1.379 1_655 S
C1074 N1081 1.356 . S
C1075 C1074 1.363 . S
C1075 C1078 1.363 . S
N1076 C1078 1.356 . S
N1076 H1088 0.984 . S
N1076 H1089 0.985 . S
N1077 C1079 1.356 . S
N1077 H1082 0.984 . S
N1077 H1083 0.985 . S
C1078 C1072 1.379 1_655 S
C1078 C1075 1.363 . S
C1078 N1076 1.356 . S
C1079 C1073 1.363 . S
C1079 C1074 1.379 1_455 S
C1079 N1077 1.356 . S
N1080 C1072 1.356 . S
N1080 H1086 0.984 . S
N1080 H1087 0.984 . S
N1081 C1074 1.356 . S
N1081 H1084 0.984 . S
N1081 H1085 0.985 . S
H1082 N1077 0.984 . S
H1083 N1077 0.985 . S
H1084 N1081 0.984 . S
H1085 N1081 0.985 . S
H1086 N1080 0.984 . S
H1087 N1080 0.984 . S
H1088 N1076 0.984 . S
H1089 N1076 0.985 . S
C1090 C1091 1.363 . S
C1090 C1096 1.379 . S
C1090 N1098 1.356 . S
C1091 C1090 1.363 . S
C1091 C1097 1.363 . S
C1092 C1093 1.363 . S
C1092 C1097 1.379 . S
C1092 N1099 1.356 . S
C1093 C1092 1.363 . S
C1093 C1096 1.363 . S
N1094 C1096 1.356 . S
N1094 H1106 0.984 . S
N1094 H1107 0.985 . S
N1095 C1097 1.356 . S
N1095 H1100 0.984 . S
N1095 H1101 0.985 . S
C1096 C1090 1.379 . S
C1096 C1093 1.363 . S
C1096 N1094 1.356 . S
C1097 C1091 1.363 . S
C1097 C1092 1.379 . S
C1097 N1095 1.356 . S
N1098 C1090 1.356 . S
N1098 H1104 0.984 . S
N1098 H1105 0.984 . S
N1099 C1092 1.356 . S
N1099 H1102 0.984 . S
N1099 H1103 0.985 . S
H1100 N1095 0.984 . S
H1101 N1095 0.985 . S
H1102 N1099 0.984 . S
H1103 N1099 0.985 . S
H1104 N1098 0.984 . S
H1105 N1098 0.984 . S
H1106 N1094 0.984 . S
H1107 N1094 0.985 . S
C1108 C1109 1.363 . S
C1108 C1114 1.379 . S
C1108 N1116 1.356 . S
C1109 C1108 1.363 . S
C1109 C1115 1.363 . S
C1110 C1111 1.363 . S
C1110 C1115 1.379 . S
C1110 N1117 1.356 . S
C1111 C1110 1.363 . S
C1111 C1114 1.363 . S
N1112 C1114 1.356 . S
N1112 H1124 0.984 . S
N1112 H1125 0.985 . S
N1113 C1115 1.356 . S
N1113 H1118 0.984 . S
N1113 H1119 0.985 . S
C1114 C1108 1.379 . S
C1114 C1111 1.363 . S
C1114 N1112 1.356 . S
C1115 C1109 1.363 . S
C1115 C1110 1.379 . S
C1115 N1113 1.356 . S
N1116 C1108 1.356 . S
N1116 H1122 0.984 . S
N1116 H1123 0.984 . S
N1117 C1110 1.356 . S
N1117 H1120 0.984 . S
N1117 H1121 0.985 . S
H1118 N1113 0.984 . S
H1119 N1113 0.985 . S
H1120 N1117 0.984 . S
H1121 N1117 0.985 . S
H1122 N1116 0.984 . S
H1123 N1116 0.984 . S
H1124 N1112 0.984 . S
H1125 N1112 0.985 . S
C1126 C1127 1.363 . S
C1126 C1132 1.379 1_455 S
C1126 N1134 1.356 . S
C1127 C1126 1.363 . S
C1127 C1133 1.363 . S
C1128 C1129 1.363 . S
C1128 C1133 1.379 1_655 S
C1128 N1135 1.356 . S
C1129 C1128 1.363 . S
C1129 C1132 1.363 . S
N1130 C1132 1.356 . S
N1130 H1142 0.984 . S
N1130 H1143 0.985 . S
N1131 C1133 1.356 . S
N1131 H1136 0.984 . S
N1131 H1137 0.985 . S
C1132 C1126 1.379 1_655 S
C1132 C1129 1.363 . S
C1132 N1130 1.356 . S
C1133 C1127 1.363 . S
C1133 C1128 1.379 1_455 S
C1133 N1131 1.356 . S
N1134 C1126 1.356 . S
N1134 H1140 0.984 . S
N1134 H1141 0.984 . S
N1135 C1128 1.356 . S
N1135 H1138 0.984 . S
N1135 H1139 0.985 . S
H1136 N1131 0.984 . S
H1137 N1131 0.985 . S
H1138 N1135 0.984 . S
H1139 N1135 0.985 . S
H1140 N1134 0.984 . S
H1141 N1134 0.984 . S
H1142 N1130 0.984 . S
H1143 N1130 0.985 . S
C1144 C1145 1.363 . S
C1144 C1150 1.379 1_655 S
C1144 N1152 1.356 . S
C1145 C1144 1.363 . S
C1145 C1151 1.363 . S
C1146 C1147 1.363 . S
C1146 C1151 1.379 1_455 S
C1146 N1153 1.356 . S
C1147 C1146 1.363 . S
C1147 C1150 1.363 . S
N1148 C1150 1.356 . S
N1148 H1160 0.984 . S
N1148 H1161 0.985 . S
N1149 C1151 1.356 . S
N1149 H1154 0.984 . S
N1149 H1155 0.985 . S
C1150 C1144 1.379 1_455 S
C1150 C1147 1.363 . S
C1150 N1148 1.356 . S
C1151 C1145 1.363 . S
C1151 C1146 1.379 1_655 S
C1151 N1149 1.356 . S
N1152 C1144 1.356 . S
N1152 H1158 0.984 . S
N1152 H1159 0.984 . S
N1153 C1146 1.356 . S
N1153 H1156 0.984 . S
N1153 H1157 0.985 . S
H1154 N1149 0.984 . S
H1155 N1149 0.985 . S
H1156 N1153 0.984 . S
H1157 N1153 0.985 . S
H1158 N1152 0.984 . S
H1159 N1152 0.984 . S
H1160 N1148 0.984 . S
H1161 N1148 0.985 . S
C1162 C1163 1.363 . S
C1162 C1168 1.379 . S
C1162 N1170 1.356 . S
C1163 C1162 1.363 . S
C1163 C1169 1.363 . S
C1164 C1165 1.363 . S
C1164 C1169 1.379 . S
C1164 N1171 1.356 . S
C1165 C1164 1.363 . S
C1165 C1168 1.363 . S
N1166 C1168 1.356 . S
N1166 H1178 0.984 . S
N1166 H1179 0.985 . S
N1167 C1169 1.356 . S
N1167 H1172 0.984 . S
N1167 H1173 0.985 . S
C1168 C1162 1.379 . S
C1168 C1165 1.363 . S
C1168 N1166 1.356 . S
C1169 C1163 1.363 . S
C1169 C1164 1.379 . S
C1169 N1167 1.356 . S
N1170 C1162 1.356 . S
N1170 H1176 0.984 . S
N1170 H1177 0.984 . S
N1171 C1164 1.356 . S
N1171 H1174 0.984 . S
N1171 H1175 0.985 . S
H1172 N1167 0.984 . S
H1173 N1167 0.985 . S
H1174 N1171 0.984 . S
H1175 N1171 0.985 . S
H1176 N1170 0.984 . S
H1177 N1170 0.984 . S
H1178 N1166 0.984 . S
H1179 N1166 0.985 . S
C1180 C1181 1.363 . S
C1180 C1186 1.379 . S
C1180 N1188 1.356 . S
C1181 C1180 1.363 . S
C1181 C1187 1.363 . S
C1182 C1183 1.363 . S
C1182 C1187 1.379 . S
C1182 N1189 1.356 . S
C1183 C1182 1.363 . S
C1183 C1186 1.363 . S
N1184 C1186 1.356 . S
N1184 H1196 0.984 . S
N1184 H1197 0.985 . S
N1185 C1187 1.356 . S
N1185 H1190 0.984 . S
N1185 H1191 0.985 . S
C1186 C1180 1.379 . S
C1186 C1183 1.363 . S
C1186 N1184 1.356 . S
C1187 C1181 1.363 . S
C1187 C1182 1.379 . S
C1187 N1185 1.356 . S
N1188 C1180 1.356 . S
N1188 H1194 0.984 . S
N1188 H1195 0.984 . S
N1189 C1182 1.356 . S
N1189 H1192 0.984 . S
N1189 H1193 0.985 . S
H1190 N1185 0.984 . S
H1191 N1185 0.985 . S
H1192 N1189 0.984 . S
H1193 N1189 0.985 . S
H1194 N1188 0.984 . S
H1195 N1188 0.984 . S
H1196 N1184 0.984 . S
H1197 N1184 0.985 . S
C1198 C1199 1.363 . S
C1198 C1204 1.379 1_455 S
C1198 N1206 1.356 . S
C1199 C1198 1.363 . S
C1199 C1205 1.363 . S
C1200 C1201 1.363 . S
C1200 C1205 1.379 1_655 S
C1200 N1207 1.356 . S
C1201 C1200 1.363 . S
C1201 C1204 1.363 . S
N1202 C1204 1.356 . S
N1202 H1214 0.984 . S
N1202 H1215 0.985 . S
N1203 C1205 1.356 . S
N1203 H1208 0.984 . S
N1203 H1209 0.985 . S
C1204 C1198 1.379 1_655 S
C1204 C1201 1.363 . S
C1204 N1202 1.356 . S
C1205 C1199 1.363 . S
C1205 C1200 1.379 1_455 S
C1205 N1203 1.356 . S
N1206 C1198 1.356 . S
N1206 H1212 0.984 . S
N1206 H1213 0.984 . S
N1207 C1200 1.356 . S
N1207 H1210 0.984 . S
N1207 H1211 0.985 . S
H1208 N1203 0.984 . S
H1209 N1203 0.985 . S
H1210 N1207 0.984 . S
H1211 N1207 0.985 . S
H1212 N1206 0.984 . S
H1213 N1206 0.984 . S
H1214 N1202 0.984 . S
H1215 N1202 0.985 . S
C353 C10 1.507 . S
C355 C293 1.585 . S
C371 C279 1.585 . S
C373 C30 1.507 . S
C389 C337 1.585 . S
C391 C54 1.507 . S
C407 C315 1.585 . S
C409 C74 1.507 . S
C425 C205 1.586 . S
C427 C106 1.525 . S
C443 C128 1.525 . S
C445 C197 1.586 . S
C461 C263 1.586 . S
C463 C142 1.525 . S
C479 C164 1.525 . S
C481 C235 1.586 . S
C497 C131 1.585 . S
C499 C186 1.507 . S
C515 C206 1.507 . S
C517 C109 1.585 . S
C533 C161 1.585 . S
C535 C238 1.507 . S
C551 C139 1.585 . S
C553 C252 1.507 . S
C569 C272 1.525 . S
C571 C29 1.586 . S
C587 C21 1.586 . S
C589 C296 1.525 . S
C605 C318 1.525 . S
C607 C73 1.586 . S
C623 C65 1.586 . S
C625 C340 1.525 . S
C641 C228 1.470 . S
C643 C18 1.470 . S
C659 C32 1.470 . S
C661 C260 1.470 . S
C677 C194 1.470 . S
C679 C62 1.470 . S
C695 C208 1.470 . S
C697 C76 1.470 . S
C713 C316 1.468 . S
C715 C98 1.468 . S
C731 C120 1.468 . S
C733 C338 1.468 . S
C749 C140 1.468 . S
C751 C282 1.468 . S
C767 C294 1.468 . S
C769 C162 1.468 . S
C785 C7 1.666 . S
C787 C37 1.666 . S
C803 C51 1.666 . S
C805 C81 1.666 . S
C821 C103 1.674 . S
C823 C125 1.674 . S
C839 C175 1.674 . S
C841 C153 1.674 . S
C857 C213 1.666 . S
C859 C183 1.666 . S
C875 C241 1.666 . S
C877 C249 1.666 . S
C893 C307 1.674 . S
C895 C271 1.674 . S
C911 C329 1.674 . S
C913 C351 1.674 . S
C929 C285 0.874 . S
C931 C15 0.869 . S
C947 C43 0.869 . S
C949 C301 0.874 . S
C965 C59 0.869 . S
C967 C323 0.874 . S
C983 C87 0.869 . S
C985 C345 0.874 . S
C1001 C95 0.874 . S
C1003 C191 0.869 . S
C1019 C117 0.874 . S
C1021 C219 0.869 . S
C1037 C147 0.874 . S
C1039 C227 0.869 . S
C1055 C257 0.869 . S
C1057 C169 0.874 . S
C1073 C8 1.576 . S
C1075 C216 1.576 . S
C1091 C40 1.576 . S
C1093 C184 1.576 . S
C1109 C250 1.576 . S
C1111 C52 1.576 . S
C1127 C230 1.576 . S
C1129 C84 1.576 . S
C1145 C96 1.556 . S
C1147 C304 1.556 . S
C1163 C118 1.556 . S
C1165 C274 1.556 . S
C1181 C348 1.556 . S
C1183 C150 1.556 . S
C1199 C172 1.556 . S
C1201 C326 1.556 . S
