# Generated by pormake.
# Topology wnz, (7)-cn, num edge types: 1
# Building blocks:
#     Node 0, Type 0, BuildingBlock: OLANEW_clean_sbu_0, # of connection points: 7
#     Node 1, Type 0, BuildingBlock: OLANEW_clean_sbu_0, # of connection points: 7
#     Node 2, Type 0, BuildingBlock: OLANEW_clean_sbu_0, # of connection points: 7
#     Node 3, Type 0, BuildingBlock: OLANEW_clean_sbu_0, # of connection points: 7
#     Node 4, Type 0, BuildingBlock: OLANEW_clean_sbu_0, # of connection points: 7
#     Node 5, Type 0, BuildingBlock: OLANEW_clean_sbu_0, # of connection points: 7
#     Node 6, Type 0, BuildingBlock: OLANEW_clean_sbu_0, # of connection points: 7
#     Node 7, Type 0, BuildingBlock: OLANEW_clean_sbu_0, # of connection points: 7
#     Node 8, Type 0, BuildingBlock: OLANEW_clean_sbu_0, # of connection points: 7
#     Node 9, Type 0, BuildingBlock: OLANEW_clean_sbu_0, # of connection points: 7
#     Node 10, Type 0, BuildingBlock: OLANEW_clean_sbu_0, # of connection points: 7
#     Node 11, Type 0, BuildingBlock: OLANEW_clean_sbu_0, # of connection points: 7
#     Node 12, Type 0, BuildingBlock: OLANEW_clean_sbu_0, # of connection points: 7
#     Node 13, Type 0, BuildingBlock: OLANEW_clean_sbu_0, # of connection points: 7
#     Node 14, Type 0, BuildingBlock: OLANEW_clean_sbu_0, # of connection points: 7
#     Node 15, Type 0, BuildingBlock: OLANEW_clean_sbu_0, # of connection points: 7
#     Node 16, Type 0, BuildingBlock: OLANEW_clean_sbu_0, # of connection points: 7
#     Node 17, Type 0, BuildingBlock: OLANEW_clean_sbu_0, # of connection points: 7
#     Node 18, Type 0, BuildingBlock: OLANEW_clean_sbu_0, # of connection points: 7
#     Node 19, Type 0, BuildingBlock: OLANEW_clean_sbu_0, # of connection points: 7
#     Node 20, Type 0, BuildingBlock: OLANEW_clean_sbu_0, # of connection points: 7
#     Node 21, Type 0, BuildingBlock: OLANEW_clean_sbu_0, # of connection points: 7
#     Node 22, Type 0, BuildingBlock: OLANEW_clean_sbu_0, # of connection points: 7
#     Node 23, Type 0, BuildingBlock: OLANEW_clean_sbu_0, # of connection points: 7
#     Node 24, Type 0, BuildingBlock: OLANEW_clean_sbu_0, # of connection points: 7
#     Node 25, Type 0, BuildingBlock: OLANEW_clean_sbu_0, # of connection points: 7
#     Node 26, Type 0, BuildingBlock: OLANEW_clean_sbu_0, # of connection points: 7
#     Node 27, Type 0, BuildingBlock: OLANEW_clean_sbu_0, # of connection points: 7
#     Node 28, Type 0, BuildingBlock: OLANEW_clean_sbu_0, # of connection points: 7
#     Node 29, Type 0, BuildingBlock: OLANEW_clean_sbu_0, # of connection points: 7
#     Node 30, Type 0, BuildingBlock: OLANEW_clean_sbu_0, # of connection points: 7
#     Node 31, Type 0, BuildingBlock: OLANEW_clean_sbu_0, # of connection points: 7
#     Node 32, Type 0, BuildingBlock: OLANEW_clean_sbu_0, # of connection points: 7
#     Node 33, Type 0, BuildingBlock: OLANEW_clean_sbu_0, # of connection points: 7
#     Node 34, Type 0, BuildingBlock: OLANEW_clean_sbu_0, # of connection points: 7
#     Node 35, Type 0, BuildingBlock: OLANEW_clean_sbu_0, # of connection points: 7
#     Edge 36, Type (0, 0), BuildingBlock: AJUNOK_clean_linker_0, # of connection points: 2
#     Edge 37, Type (0, 0), BuildingBlock: AJUNOK_clean_linker_0, # of connection points: 2
#     Edge 38, Type (0, 0), BuildingBlock: AJUNOK_clean_linker_0, # of connection points: 2
#     Edge 39, Type (0, 0), BuildingBlock: AJUNOK_clean_linker_0, # of connection points: 2
#     Edge 40, Type (0, 0), BuildingBlock: AJUNOK_clean_linker_0, # of connection points: 2
#     Edge 41, Type (0, 0), BuildingBlock: AJUNOK_clean_linker_0, # of connection points: 2
#     Edge 42, Type (0, 0), BuildingBlock: AJUNOK_clean_linker_0, # of connection points: 2
#     Edge 43, Type (0, 0), BuildingBlock: AJUNOK_clean_linker_0, # of connection points: 2
#     Edge 44, Type (0, 0), BuildingBlock: AJUNOK_clean_linker_0, # of connection points: 2
#     Edge 45, Type (0, 0), BuildingBlock: AJUNOK_clean_linker_0, # of connection points: 2
#     Edge 46, Type (0, 0), BuildingBlock: AJUNOK_clean_linker_0, # of connection points: 2
#     Edge 47, Type (0, 0), BuildingBlock: AJUNOK_clean_linker_0, # of connection points: 2
#     Edge 48, Type (0, 0), BuildingBlock: AJUNOK_clean_linker_0, # of connection points: 2
#     Edge 49, Type (0, 0), BuildingBlock: AJUNOK_clean_linker_0, # of connection points: 2
#     Edge 50, Type (0, 0), BuildingBlock: AJUNOK_clean_linker_0, # of connection points: 2
#     Edge 51, Type (0, 0), BuildingBlock: AJUNOK_clean_linker_0, # of connection points: 2
#     Edge 52, Type (0, 0), BuildingBlock: AJUNOK_clean_linker_0, # of connection points: 2
#     Edge 53, Type (0, 0), BuildingBlock: AJUNOK_clean_linker_0, # of connection points: 2
#     Edge 54, Type (0, 0), BuildingBlock: AJUNOK_clean_linker_0, # of connection points: 2
#     Edge 55, Type (0, 0), BuildingBlock: AJUNOK_clean_linker_0, # of connection points: 2
#     Edge 56, Type (0, 0), BuildingBlock: AJUNOK_clean_linker_0, # of connection points: 2
#     Edge 57, Type (0, 0), BuildingBlock: AJUNOK_clean_linker_0, # of connection points: 2
#     Edge 58, Type (0, 0), BuildingBlock: AJUNOK_clean_linker_0, # of connection points: 2
#     Edge 59, Type (0, 0), BuildingBlock: AJUNOK_clean_linker_0, # of connection points: 2
#     Edge 60, Type (0, 0), BuildingBlock: AJUNOK_clean_linker_0, # of connection points: 2
#     Edge 61, Type (0, 0), BuildingBlock: AJUNOK_clean_linker_0, # of connection points: 2
#     Edge 62, Type (0, 0), BuildingBlock: AJUNOK_clean_linker_0, # of connection points: 2
#     Edge 63, Type (0, 0), BuildingBlock: AJUNOK_clean_linker_0, # of connection points: 2
#     Edge 64, Type (0, 0), BuildingBlock: AJUNOK_clean_linker_0, # of connection points: 2
#     Edge 65, Type (0, 0), BuildingBlock: AJUNOK_clean_linker_0, # of connection points: 2
#     Edge 66, Type (0, 0), BuildingBlock: AJUNOK_clean_linker_0, # of connection points: 2
#     Edge 67, Type (0, 0), BuildingBlock: AJUNOK_clean_linker_0, # of connection points: 2
#     Edge 68, Type (0, 0), BuildingBlock: AJUNOK_clean_linker_0, # of connection points: 2
#     Edge 69, Type (0, 0), BuildingBlock: AJUNOK_clean_linker_0, # of connection points: 2
#     Edge 70, Type (0, 0), BuildingBlock: AJUNOK_clean_linker_0, # of connection points: 2
#     Edge 71, Type (0, 0), BuildingBlock: AJUNOK_clean_linker_0, # of connection points: 2
#     Edge 72, Type (0, 0), BuildingBlock: AJUNOK_clean_linker_0, # of connection points: 2
#     Edge 73, Type (0, 0), BuildingBlock: AJUNOK_clean_linker_0, # of connection points: 2
#     Edge 74, Type (0, 0), BuildingBlock: AJUNOK_clean_linker_0, # of connection points: 2
#     Edge 75, Type (0, 0), BuildingBlock: AJUNOK_clean_linker_0, # of connection points: 2
#     Edge 76, Type (0, 0), BuildingBlock: AJUNOK_clean_linker_0, # of connection points: 2
#     Edge 77, Type (0, 0), BuildingBlock: AJUNOK_clean_linker_0, # of connection points: 2
#     Edge 78, Type (0, 0), BuildingBlock: AJUNOK_clean_linker_0, # of connection points: 2
#     Edge 79, Type (0, 0), BuildingBlock: AJUNOK_clean_linker_0, # of connection points: 2
#     Edge 80, Type (0, 0), BuildingBlock: AJUNOK_clean_linker_0, # of connection points: 2
#     Edge 81, Type (0, 0), BuildingBlock: AJUNOK_clean_linker_0, # of connection points: 2
#     Edge 82, Type (0, 0), BuildingBlock: AJUNOK_clean_linker_0, # of connection points: 2
#     Edge 83, Type (0, 0), BuildingBlock: AJUNOK_clean_linker_0, # of connection points: 2
#     Edge 84, Type (0, 0), BuildingBlock: AJUNOK_clean_linker_0, # of connection points: 2
#     Edge 85, Type (0, 0), BuildingBlock: AJUNOK_clean_linker_0, # of connection points: 2
#     Edge 86, Type (0, 0), BuildingBlock: AJUNOK_clean_linker_0, # of connection points: 2
#     Edge 87, Type (0, 0), BuildingBlock: AJUNOK_clean_linker_0, # of connection points: 2
#     Edge 88, Type (0, 0), BuildingBlock: AJUNOK_clean_linker_0, # of connection points: 2
#     Edge 89, Type (0, 0), BuildingBlock: AJUNOK_clean_linker_0, # of connection points: 2
#     Edge 90, Type (0, 0), BuildingBlock: AJUNOK_clean_linker_0, # of connection points: 2
#     Edge 91, Type (0, 0), BuildingBlock: AJUNOK_clean_linker_0, # of connection points: 2
#     Edge 92, Type (0, 0), BuildingBlock: AJUNOK_clean_linker_0, # of connection points: 2
#     Edge 93, Type (0, 0), BuildingBlock: AJUNOK_clean_linker_0, # of connection points: 2
#     Edge 94, Type (0, 0), BuildingBlock: AJUNOK_clean_linker_0, # of connection points: 2
#     Edge 95, Type (0, 0), BuildingBlock: AJUNOK_clean_linker_0, # of connection points: 2
#     Edge 96, Type (0, 0), BuildingBlock: AJUNOK_clean_linker_0, # of connection points: 2
#     Edge 97, Type (0, 0), BuildingBlock: AJUNOK_clean_linker_0, # of connection points: 2
#     Edge 98, Type (0, 0), BuildingBlock: AJUNOK_clean_linker_0, # of connection points: 2
#     Edge 99, Type (0, 0), BuildingBlock: AJUNOK_clean_linker_0, # of connection points: 2
#     Edge 100, Type (0, 0), BuildingBlock: AJUNOK_clean_linker_0, # of connection points: 2
#     Edge 101, Type (0, 0), BuildingBlock: AJUNOK_clean_linker_0, # of connection points: 2
#     Edge 102, Type (0, 0), BuildingBlock: AJUNOK_clean_linker_0, # of connection points: 2
#     Edge 103, Type (0, 0), BuildingBlock: AJUNOK_clean_linker_0, # of connection points: 2
#     Edge 104, Type (0, 0), BuildingBlock: AJUNOK_clean_linker_0, # of connection points: 2
#     Edge 105, Type (0, 0), BuildingBlock: AJUNOK_clean_linker_0, # of connection points: 2
#     Edge 106, Type (0, 0), BuildingBlock: AJUNOK_clean_linker_0, # of connection points: 2
#     Edge 107, Type (0, 0), BuildingBlock: AJUNOK_clean_linker_0, # of connection points: 2
#     Edge 108, Type (0, 0), BuildingBlock: AJUNOK_clean_linker_0, # of connection points: 2
#     Edge 109, Type (0, 0), BuildingBlock: AJUNOK_clean_linker_0, # of connection points: 2
#     Edge 110, Type (0, 0), BuildingBlock: AJUNOK_clean_linker_0, # of connection points: 2
#     Edge 111, Type (0, 0), BuildingBlock: AJUNOK_clean_linker_0, # of connection points: 2
#     Edge 112, Type (0, 0), BuildingBlock: AJUNOK_clean_linker_0, # of connection points: 2
#     Edge 113, Type (0, 0), BuildingBlock: AJUNOK_clean_linker_0, # of connection points: 2
#     Edge 114, Type (0, 0), BuildingBlock: AJUNOK_clean_linker_0, # of connection points: 2
#     Edge 115, Type (0, 0), BuildingBlock: AJUNOK_clean_linker_0, # of connection points: 2
#     Edge 116, Type (0, 0), BuildingBlock: AJUNOK_clean_linker_0, # of connection points: 2
#     Edge 117, Type (0, 0), BuildingBlock: AJUNOK_clean_linker_0, # of connection points: 2
#     Edge 118, Type (0, 0), BuildingBlock: AJUNOK_clean_linker_0, # of connection points: 2
#     Edge 119, Type (0, 0), BuildingBlock: AJUNOK_clean_linker_0, # of connection points: 2
#     Edge 120, Type (0, 0), BuildingBlock: AJUNOK_clean_linker_0, # of connection points: 2
#     Edge 121, Type (0, 0), BuildingBlock: AJUNOK_clean_linker_0, # of connection points: 2
#     Edge 122, Type (0, 0), BuildingBlock: AJUNOK_clean_linker_0, # of connection points: 2
#     Edge 123, Type (0, 0), BuildingBlock: AJUNOK_clean_linker_0, # of connection points: 2
#     Edge 124, Type (0, 0), BuildingBlock: AJUNOK_clean_linker_0, # of connection points: 2
#     Edge 125, Type (0, 0), BuildingBlock: AJUNOK_clean_linker_0, # of connection points: 2
#     Edge 126, Type (0, 0), BuildingBlock: AJUNOK_clean_linker_0, # of connection points: 2
#     Edge 127, Type (0, 0), BuildingBlock: AJUNOK_clean_linker_0, # of connection points: 2
#     Edge 128, Type (0, 0), BuildingBlock: AJUNOK_clean_linker_0, # of connection points: 2
#     Edge 129, Type (0, 0), BuildingBlock: AJUNOK_clean_linker_0, # of connection points: 2
#     Edge 130, Type (0, 0), BuildingBlock: AJUNOK_clean_linker_0, # of connection points: 2
#     Edge 131, Type (0, 0), BuildingBlock: AJUNOK_clean_linker_0, # of connection points: 2
#     Edge 132, Type (0, 0), BuildingBlock: AJUNOK_clean_linker_0, # of connection points: 2
#     Edge 133, Type (0, 0), BuildingBlock: AJUNOK_clean_linker_0, # of connection points: 2
#     Edge 134, Type (0, 0), BuildingBlock: AJUNOK_clean_linker_0, # of connection points: 2
#     Edge 135, Type (0, 0), BuildingBlock: AJUNOK_clean_linker_0, # of connection points: 2
#     Edge 136, Type (0, 0), BuildingBlock: AJUNOK_clean_linker_0, # of connection points: 2
#     Edge 137, Type (0, 0), BuildingBlock: AJUNOK_clean_linker_0, # of connection points: 2
#     Edge 138, Type (0, 0), BuildingBlock: AJUNOK_clean_linker_0, # of connection points: 2
#     Edge 139, Type (0, 0), BuildingBlock: AJUNOK_clean_linker_0, # of connection points: 2
#     Edge 140, Type (0, 0), BuildingBlock: AJUNOK_clean_linker_0, # of connection points: 2
#     Edge 141, Type (0, 0), BuildingBlock: AJUNOK_clean_linker_0, # of connection points: 2
#     Edge 142, Type (0, 0), BuildingBlock: AJUNOK_clean_linker_0, # of connection points: 2
#     Edge 143, Type (0, 0), BuildingBlock: AJUNOK_clean_linker_0, # of connection points: 2
#     Edge 144, Type (0, 0), BuildingBlock: AJUNOK_clean_linker_0, # of connection points: 2
#     Edge 145, Type (0, 0), BuildingBlock: AJUNOK_clean_linker_0, # of connection points: 2
#     Edge 146, Type (0, 0), BuildingBlock: AJUNOK_clean_linker_0, # of connection points: 2
#     Edge 147, Type (0, 0), BuildingBlock: AJUNOK_clean_linker_0, # of connection points: 2
#     Edge 148, Type (0, 0), BuildingBlock: AJUNOK_clean_linker_0, # of connection points: 2
#     Edge 149, Type (0, 0), BuildingBlock: AJUNOK_clean_linker_0, # of connection points: 2
#     Edge 150, Type (0, 0), BuildingBlock: AJUNOK_clean_linker_0, # of connection points: 2
#     Edge 151, Type (0, 0), BuildingBlock: AJUNOK_clean_linker_0, # of connection points: 2
#     Edge 152, Type (0, 0), BuildingBlock: AJUNOK_clean_linker_0, # of connection points: 2
#     Edge 153, Type (0, 0), BuildingBlock: AJUNOK_clean_linker_0, # of connection points: 2
#     Edge 154, Type (0, 0), BuildingBlock: AJUNOK_clean_linker_0, # of connection points: 2
#     Edge 155, Type (0, 0), BuildingBlock: AJUNOK_clean_linker_0, # of connection points: 2
#     Edge 156, Type (0, 0), BuildingBlock: AJUNOK_clean_linker_0, # of connection points: 2
#     Edge 157, Type (0, 0), BuildingBlock: AJUNOK_clean_linker_0, # of connection points: 2
#     Edge 158, Type (0, 0), BuildingBlock: AJUNOK_clean_linker_0, # of connection points: 2
#     Edge 159, Type (0, 0), BuildingBlock: AJUNOK_clean_linker_0, # of connection points: 2
#     Edge 160, Type (0, 0), BuildingBlock: AJUNOK_clean_linker_0, # of connection points: 2
#     Edge 161, Type (0, 0), BuildingBlock: AJUNOK_clean_linker_0, # of connection points: 2
# Relax obj value: 0.197
# Max RMSD: 0.267
# Mean RMSD: 0.267
data_MOF--net-wnz--node1-OLANEW_clean_sbu_0--edge1-AJUNOK_clean_linker_0
_symmetry_space_group_name_H-M    P1
_symmetry_Int_Tables_number       1
_symmetry_cell_setting            triclinic
loop_
_symmetry_equiv_pos_as_xyz
'x, y, z'
_cell_length_a     36.787019
_cell_length_b     36.804632
_cell_length_c     141.58919
_cell_angle_alpha  89.988681
_cell_angle_beta   90.005595
_cell_angle_gamma 120.0137
loop_
_atom_site_label
_atom_site_type_symbol
_atom_site_fract_x
_atom_site_fract_y
_atom_site_fract_z
_atom_type_partial_charge
Cd0 Cd 0.44448 0.95211 0.13605 0.0
C1 C 0.50501 0.91031 0.1284 0.0
C2 C 0.62237 0.17279 0.1468 0.0
O3 O 0.65239 0.18083 0.15291 0.0
Cd4 Cd 0.43935 0.92942 0.11781 0.0
C5 C 0.59439 0.19037 0.14782 0.0
C6 C 0.53725 0.21913 0.14611 0.0
C7 C 0.53742 0.19008 0.13976 0.0
N8 N 0.56495 0.17697 0.14114 0.0
C9 C 0.59621 0.21952 0.15442 0.0
C10 C 0.56699 0.2337 0.15354 0.0
Co11 Co 0.56757 0.14305 0.13197 0.0
C12 C 0.51223 0.17249 0.13113 0.0
O13 O 0.48138 0.17905 0.1288 0.0
C14 C 0.4959 0.12095 0.11842 0.0
C15 C 0.47083 0.07843 0.11998 0.0
C16 C 0.45533 0.05033 0.11244 0.0
C17 C 0.45806 0.06593 0.10327 0.0
C18 C 0.47751 0.10956 0.10173 0.0
C19 C 0.49816 0.13726 0.10932 0.0
C20 C 0.44362 0.00653 0.11436 0.0
C21 C 0.63267 0.12014 0.13839 0.0
C22 C 0.62897 0.09367 0.14593 0.0
C23 C 0.65609 0.12184 0.13044 0.0
C24 C 0.67409 0.09627 0.12989 0.0
C25 C 0.66937 0.06917 0.13731 0.0
C26 C 0.64703 0.06789 0.14547 0.0
N27 N 0.61464 0.14687 0.13918 0.0
N28 N 0.52114 0.14623 0.12609 0.0
N29 N 0.5299 0.09017 0.13851 0.0
C30 C 0.50972 0.08551 0.14748 0.0
C31 C 0.51962 0.0682 0.1552 0.0
C32 C 0.47785 0.09549 0.1484 0.0
C33 C 0.49926 0.06247 0.16392 0.0
H34 H 0.54273 0.05856 0.15434 0.0
C35 C 0.46832 0.07401 0.16481 0.0
C36 C 0.45717 0.09028 0.15707 0.0
C37 C 0.5098 0.04396 0.17206 0.0
H38 H 0.46831 0.10616 0.14228 0.0
H39 H 0.45234 0.0696 0.1715 0.0
C40 C 0.42359 0.10124 0.15802 0.0
O41 O 0.48956 0.0379 0.18038 0.0
O42 O 0.53677 0.03397 0.17129 0.0
O43 O 0.41372 0.1152 0.15127 0.0
O44 O 0.40365 0.0958 0.16636 0.0
H45 H 0.49573 0.02563 0.18575 0.0
H46 H 0.38148 0.10248 0.16712 0.0
N47 N 0.56996 0.10933 0.12273 0.0
C48 C 0.59237 0.12874 0.11507 0.0
C49 C 0.59659 0.10442 0.10802 0.0
C50 C 0.57676 0.06049 0.10945 0.0
C51 C 0.55384 0.04194 0.11782 0.0
C52 C 0.55103 0.06824 0.12455 0.0
N53 N 0.6062 0.18985 0.12406 0.0
C54 C 0.61307 0.17482 0.11579 0.0
O55 O 0.64012 0.19978 0.10944 0.0
C56 C 0.52914 0.05703 0.13374 0.0
O57 O 0.39513 0.96559 0.14447 0.0
O58 O 0.43944 0.95912 0.1533 0.0
C59 C 0.63307 0.23223 0.1272 0.0
C60 C 0.61709 0.25964 0.1283 0.0
C61 C 0.64309 0.30052 0.13168 0.0
C62 C 0.68536 0.31418 0.13355 0.0
C63 C 0.70244 0.28831 0.13186 0.0
C64 C 0.67609 0.24704 0.12877 0.0
O65 O 0.48743 0.91623 0.13555 0.0
O66 O 0.49704 0.91789 0.12015 0.0
O67 O 0.44449 0.99621 0.12291 0.0
O68 O 0.44181 0.98233 0.1078 0.0
O69 O 0.51414 0.0183 0.13762 0.0
C70 C 0.36272 0.85484 0.12716 0.0
O71 O 0.37368 0.86778 0.11879 0.0
O72 O 0.38426 0.87772 0.13407 0.0
C73 C 0.40866 0.96562 0.15271 0.0
H74 H 0.51563 0.23077 0.14528 0.0
H75 H 0.61963 0.23143 0.15996 0.0
H76 H 0.56788 0.25648 0.1585 0.0
H77 H 0.46686 0.06719 0.12715 0.0
H78 H 0.44482 0.0443 0.0974 0.0
H79 H 0.51615 0.17082 0.10814 0.0
H80 H 0.61233 0.09361 0.15222 0.0
H81 H 0.66159 0.14366 0.12479 0.0
H82 H 0.6844 0.05039 0.13677 0.0
H83 H 0.61503 0.11872 0.10174 0.0
H84 H 0.57956 0.04093 0.10413 0.0
H85 H 0.53887 0.00842 0.11894 0.0
H86 H 0.58495 0.24953 0.12639 0.0
H87 H 0.70599 0.34652 0.13568 0.0
H88 H 0.68897 0.22671 0.12745 0.0
Cd89 Cd 0.21355 0.57496 0.13629 0.0
C90 C 0.25267 0.67694 0.12878 0.0
C91 C 0.98938 0.52445 0.14639 0.0
O92 O 0.98031 0.5446 0.15279 0.0
Cd93 Cd 0.23653 0.59285 0.11897 0.0
C94 C 0.97214 0.47879 0.14684 0.0
C95 C 0.94465 0.39363 0.14414 0.0
C96 C 0.97375 0.42443 0.13806 0.0
N97 N 0.98615 0.46458 0.13989 0.0
C98 C 0.94288 0.44979 0.15319 0.0
C99 C 0.92933 0.40678 0.1518 0.0
Co100 Co 0.02067 0.50344 0.13114 0.0
C101 C 0.99209 0.41901 0.12928 0.0
O102 O 0.98657 0.38238 0.1266 0.0
C103 C 0.04543 0.45734 0.11708 0.0
C104 C 0.08764 0.4758 0.11908 0.0
C105 C 0.1172 0.49127 0.11187 0.0
C106 C 0.10373 0.48039 0.10254 0.0
C107 C 0.06113 0.45147 0.10055 0.0
C108 C 0.03127 0.44252 0.10784 0.0
C109 C 0.16039 0.52287 0.11436 0.0
C110 C 0.04194 0.58976 0.13869 0.0
C111 C 0.0668 0.61138 0.14654 0.0
C112 C 0.04084 0.61287 0.13094 0.0
C113 C 0.06571 0.65659 0.13087 0.0
C114 C 0.09121 0.67781 0.13859 0.0
C115 C 0.09125 0.65543 0.14662 0.0
N116 N 0.01589 0.54471 0.13897 0.0
N117 N 0.01829 0.45529 0.12457 0.0
N118 N 0.07307 0.51758 0.13779 0.0
C119 C 0.07678 0.49995 0.14655 0.0
C120 C 0.09086 0.52465 0.15472 0.0
C121 C 0.06845 0.45847 0.14686 0.0
C122 C 0.09465 0.50769 0.16331 0.0
H123 H 0.09908 0.55715 0.15435 0.0
C124 C 0.08544 0.46575 0.16354 0.0
C125 C 0.07274 0.44101 0.15533 0.0
C126 C 0.10822 0.53363 0.17202 0.0
H127 H 0.05975 0.44019 0.14044 0.0
H128 H 0.08875 0.45253 0.1701 0.0
C129 C 0.06446 0.39717 0.15559 0.0
O130 O 0.10933 0.51634 0.18035 0.0
O131 O 0.11829 0.57071 0.17172 0.0
O132 O 0.05241 0.37528 0.1485 0.0
O133 O 0.07034 0.3812 0.16366 0.0
H134 H 0.11791 0.53261 0.18612 0.0
H135 H 0.0654 0.35279 0.16397 0.0
N136 N 0.05512 0.54189 0.12234 0.0
C137 C 0.0363 0.54646 0.11476 0.0
C138 C 0.06109 0.57705 0.10811 0.0
C139 C 0.10481 0.60139 0.10982 0.0
C140 C 0.1227 0.59527 0.11809 0.0
C141 C 0.09599 0.56421 0.12444 0.0
N142 N 0.97437 0.49686 0.12325 0.0
C143 C 0.99012 0.52059 0.11523 0.0
O144 O 0.96569 0.52415 0.10897 0.0
C145 C 0.10652 0.55153 0.13347 0.0
O146 O 0.19996 0.51257 0.14513 0.0
O147 O 0.20636 0.56443 0.15353 0.0
C148 C 0.93187 0.4813 0.12636 0.0
C149 C 0.90432 0.43788 0.12742 0.0
C150 C 0.86363 0.423 0.13094 0.0
C151 C 0.85018 0.45162 0.13297 0.0
C152 C 0.8761 0.49461 0.13133 0.0
C153 C 0.91721 0.50954 0.1281 0.0
O154 O 0.24638 0.65369 0.136 0.0
O155 O 0.24701 0.66131 0.12057 0.0
O156 O 0.16902 0.53139 0.12308 0.0
O157 O 0.18602 0.54662 0.10816 0.0
O158 O 0.1448 0.57472 0.13763 0.0
C159 C 0.31248 0.59277 0.12715 0.0
O160 O 0.2992 0.59123 0.11884 0.0
O161 O 0.28935 0.5902 0.13415 0.0
C162 C 0.19988 0.52713 0.15325 0.0
H163 H 0.93355 0.36068 0.14293 0.0
H164 H 0.93047 0.45978 0.15893 0.0
H165 H 0.90649 0.38362 0.15657 0.0
H166 H 0.09735 0.48136 0.12636 0.0
H167 H 0.12661 0.49334 0.09689 0.0
H168 H 0.99793 0.42391 0.10645 0.0
H169 H 0.06657 0.59375 0.15265 0.0
H170 H 0.02001 0.59749 0.12508 0.0
H171 H 0.10971 0.71173 0.1384 0.0
H172 H 0.04725 0.58258 0.10192 0.0
H173 H 0.12471 0.62532 0.1048 0.0
H174 H 0.15605 0.61403 0.11944 0.0
H175 H 0.91421 0.41582 0.1254 0.0
H176 H 0.81801 0.43996 0.13523 0.0
H177 H 0.93759 0.54281 0.12686 0.0
Cd178 Cd 0.59343 0.72079 0.13582 0.0
C179 C 0.49138 0.66081 0.12813 0.0
C180 C 0.63433 0.54185 0.14681 0.0
O181 O 0.61188 0.51255 0.15303 0.0
Cd182 Cd 0.57721 0.72804 0.11771 0.0
C183 C 0.68011 0.56924 0.14779 0.0
C184 C 0.76608 0.62679 0.14627 0.0
C185 C 0.73714 0.62607 0.13975 0.0
N186 N 0.69655 0.59808 0.141 0.0
C187 C 0.70716 0.56804 0.15458 0.0
C188 C 0.75059 0.5974 0.15377 0.0
Co189 Co 0.66012 0.59639 0.13194 0.0
C190 C 0.74482 0.65152 0.13114 0.0
O191 O 0.78224 0.68235 0.12882 0.0
C192 C 0.70932 0.66672 0.11821 0.0
C193 C 0.69243 0.69243 0.11961 0.0
C194 C 0.6787 0.70655 0.11201 0.0
C195 C 0.68934 0.70111 0.10281 0.0
C196 C 0.7122 0.68018 0.10131 0.0
C197 C 0.72064 0.66139 0.10906 0.0
C198 C 0.64767 0.71975 0.11402 0.0
C199 C 0.5719 0.53212 0.13813 0.0
C200 C 0.54895 0.53807 0.14527 0.0
C201 C 0.55073 0.50879 0.13012 0.0
C202 C 0.50783 0.49394 0.12902 0.0
C203 C 0.48549 0.50163 0.13595 0.0
C204 C 0.50583 0.52362 0.14421 0.0
N205 N 0.61653 0.54963 0.13913 0.0
N206 N 0.70969 0.64241 0.12605 0.0
N207 N 0.64659 0.63472 0.13864 0.0
C208 C 0.66564 0.65704 0.14722 0.0
C209 C 0.64375 0.64452 0.15578 0.0
C210 C 0.70602 0.69225 0.14704 0.0
C211 C 0.66187 0.66668 0.16417 0.0
H212 H 0.6126 0.61766 0.15588 0.0
C213 C 0.70253 0.70175 0.16388 0.0
C214 C 0.72498 0.71463 0.15535 0.0
C215 C 0.63857 0.65328 0.17324 0.0
H216 H 0.72264 0.70242 0.14042 0.0
H217 H 0.71676 0.71899 0.17031 0.0
C218 C 0.76823 0.75128 0.15516 0.0
O219 O 0.65371 0.6779 0.18097 0.0
O220 O 0.60563 0.61988 0.17378 0.0
O221 O 0.78723 0.76352 0.14769 0.0
O222 O 0.78696 0.77131 0.16326 0.0
H223 H 0.63895 0.66989 0.18695 0.0
H224 H 0.81513 0.79529 0.1633 0.0
N225 N 0.62389 0.59498 0.12286 0.0
C226 C 0.61976 0.57229 0.11517 0.0
C227 C 0.5906 0.56835 0.10832 0.0
C228 C 0.56706 0.58863 0.10996 0.0
C229 C 0.57255 0.6117 0.11836 0.0
C230 C 0.60222 0.61422 0.1249 0.0
N231 N 0.6671 0.55749 0.12389 0.0
C232 C 0.6446 0.55091 0.11573 0.0
O233 O 0.64156 0.52366 0.10932 0.0
C234 C 0.61419 0.63626 0.13409 0.0
O235 O 0.65592 0.77123 0.14427 0.0
O236 O 0.60539 0.7258 0.15299 0.0
C237 C 0.68288 0.53065 0.12688 0.0
C238 C 0.72638 0.54669 0.12788 0.0
C239 C 0.74144 0.52085 0.13126 0.0
C240 C 0.71293 0.47869 0.13324 0.0
C241 C 0.66984 0.46159 0.13171 0.0
C242 C 0.65474 0.48776 0.1286 0.0
O243 O 0.51475 0.67644 0.13538 0.0
O244 O 0.50719 0.67112 0.11992 0.0
O245 O 0.63667 0.71903 0.12258 0.0
O246 O 0.62616 0.7234 0.10751 0.0
O247 O 0.5916 0.65218 0.13813 0.0
C248 C 0.57625 0.80233 0.12711 0.0
O249 O 0.58173 0.79397 0.11874 0.0
O250 O 0.57605 0.77937 0.1339 0.0
C251 C 0.64242 0.75699 0.15248 0.0
H252 H 0.79934 0.64877 0.14555 0.0
H253 H 0.69539 0.54519 0.16023 0.0
H254 H 0.77227 0.59707 0.15889 0.0
H255 H 0.68608 0.69776 0.12676 0.0
H256 H 0.68003 0.71316 0.09686 0.0
H257 H 0.73499 0.64221 0.10799 0.0
H258 H 0.56464 0.55325 0.15175 0.0
H259 H 0.56706 0.5015 0.12479 0.0
H260 H 0.45233 0.49001 0.1349 0.0
H261 H 0.58553 0.54973 0.10202 0.0
H262 H 0.54423 0.58604 0.10479 0.0
H263 H 0.55439 0.62696 0.11966 0.0
H264 H 0.74831 0.57882 0.12594 0.0
H265 H 0.72476 0.45821 0.13541 0.0
H266 H 0.62142 0.47487 0.12743 0.0
Cd267 Cd 0.94491 0.44247 0.36041 0.0
C268 C 0.90982 0.51186 0.36481 0.0
C269 C 0.16979 0.61614 0.35274 0.0
O270 O 0.1791 0.64614 0.34653 0.0
Cd271 Cd 0.92504 0.44999 0.37692 0.0
C272 C 0.1865 0.5873 0.352 0.0
C273 C 0.21266 0.52829 0.35415 0.0
C274 C 0.18389 0.52986 0.36036 0.0
N275 N 0.17206 0.55823 0.35876 0.0
C276 C 0.21551 0.58777 0.34554 0.0
C277 C 0.22831 0.55757 0.34664 0.0
Co278 Co 0.13729 0.56167 0.36757 0.0
C279 C 0.16464 0.50474 0.36894 0.0
O280 O 0.16928 0.47278 0.37134 0.0
C281 C 0.10994 0.48834 0.38092 0.0
C282 C 0.068 0.46499 0.3786 0.0
C283 C 0.03745 0.45308 0.38557 0.0
C284 C 0.04942 0.45655 0.39506 0.0
C285 C 0.09146 0.46929 0.39748 0.0
C286 C 0.12246 0.48865 0.39035 0.0
C287 C 0.99578 0.44506 0.38261 0.0
C288 C 0.11783 0.62869 0.36084 0.0
C289 C 0.09193 0.62549 0.35324 0.0
C290 C 0.11963 0.65233 0.36876 0.0
C291 C 0.09432 0.67064 0.36925 0.0
C292 C 0.0677 0.66637 0.36176 0.0
C293 C 0.06702 0.64454 0.35357 0.0
N294 N 0.14342 0.60932 0.36022 0.0
N295 N 0.13824 0.51439 0.3737 0.0
N296 N 0.08509 0.52519 0.36061 0.0
C297 C 0.0816 0.50565 0.3516 0.0
C298 C 0.06563 0.51633 0.34374 0.0
C299 C 0.09182 0.47394 0.35072 0.0
C300 C 0.06149 0.4969 0.33495 0.0
H301 H 0.05584 0.53934 0.34453 0.0
C302 C 0.07334 0.46619 0.33412 0.0
C303 C 0.08837 0.45435 0.34198 0.0
C304 C 0.04442 0.50829 0.32668 0.0
H305 H 0.10142 0.46375 0.3569 0.0
H306 H 0.07023 0.451 0.32738 0.0
C307 C 0.10008 0.42131 0.34106 0.0
O308 O 0.03963 0.48876 0.31831 0.0
O309 O 0.03451 0.53533 0.32737 0.0
O310 O 0.11292 0.4108 0.34791 0.0
O311 O 0.09663 0.40261 0.33263 0.0
H312 H 0.02831 0.49548 0.31284 0.0
H313 H 0.10388 0.38084 0.33189 0.0
N314 N 0.10261 0.5648 0.37645 0.0
C315 C 0.12122 0.58702 0.38418 0.0
C316 C 0.0964 0.59262 0.39086 0.0
C317 C 0.05291 0.57441 0.389 0.0
C318 C 0.03527 0.55169 0.38056 0.0
C319 C 0.06194 0.54727 0.37422 0.0
N320 N 0.18336 0.59954 0.37576 0.0
C321 C 0.16737 0.60669 0.38384 0.0
O322 O 0.19167 0.6337 0.39028 0.0
C323 C 0.05163 0.52541 0.36501 0.0
O324 O 0.95831 0.39248 0.3522 0.0
O325 O 0.95553 0.43839 0.34323 0.0
C326 C 0.226 0.62674 0.37277 0.0
C327 C 0.25346 0.61083 0.37157 0.0
C328 C 0.29408 0.6368 0.36804 0.0
C329 C 0.30763 0.67901 0.36617 0.0
C330 C 0.28177 0.69603 0.36791 0.0
C331 C 0.24071 0.66976 0.37116 0.0
O332 O 0.9113 0.48736 0.35864 0.0
O333 O 0.92018 0.51022 0.37327 0.0
O334 O 0.98741 0.44043 0.3738 0.0
O335 O 0.97357 0.45296 0.38812 0.0
O336 O 0.01369 0.51158 0.36076 0.0
C337 C 0.84626 0.36917 0.37055 0.0
O338 O 0.85923 0.38831 0.37833 0.0
O339 O 0.86981 0.38294 0.36328 0.0
C340 C 0.96088 0.40698 0.34396 0.0
H341 H 0.22314 0.50581 0.35513 0.0
H342 H 0.22823 0.6108 0.33993 0.0
H343 H 0.25081 0.55728 0.34176 0.0
H344 H 0.05954 0.46106 0.37122 0.0
H345 H 0.0259 0.44862 0.40049 0.0
H346 H 0.15556 0.5033 0.39199 0.0
H347 H 0.09156 0.60839 0.34701 0.0
H348 H 0.14109 0.65747 0.37447 0.0
H349 H 0.04878 0.68127 0.36225 0.0
H350 H 0.11009 0.61108 0.39717 0.0
H351 H 0.03301 0.5784 0.39402 0.0
H352 H 1.00213 0.53812 0.37909 0.0
H353 H 0.24343 0.57866 0.37342 0.0
H354 H 0.33975 0.69954 0.36387 0.0
H355 H 0.22034 0.68261 0.37246 0.0
Cd356 Cd 0.707 0.58106 0.36122 0.0
C357 C 0.65406 0.4812 0.36985 0.0
C358 C 0.53276 0.62997 0.35129 0.0
O359 O 0.50232 0.60976 0.34515 0.0
Cd360 Cd 0.72903 0.5638 0.3826 0.0
C361 C 0.56212 0.67543 0.35059 0.0
C362 C 0.62178 0.76032 0.35289 0.0
C363 C 0.62039 0.72949 0.35891 0.0
N364 N 0.59163 0.68947 0.35726 0.0
C365 C 0.56147 0.70447 0.34431 0.0
C366 C 0.59194 0.74734 0.3455 0.0
Co367 Co 0.58772 0.65079 0.366 0.0
C368 C 0.64559 0.73468 0.36743 0.0
O369 O 0.6773 0.77114 0.36999 0.0
C370 C 0.65974 0.69578 0.37972 0.0
C371 C 0.68169 0.67488 0.37817 0.0
C372 C 0.69718 0.66239 0.3857 0.0
C373 C 0.69587 0.67649 0.39479 0.0
C374 C 0.68041 0.70422 0.39634 0.0
C375 C 0.66051 0.71242 0.38874 0.0
C376 C 0.71118 0.63196 0.38395 0.0
C377 C 0.51903 0.56502 0.35935 0.0
C378 C 0.52166 0.54172 0.35181 0.0
C379 C 0.49497 0.5438 0.36728 0.0
C380 C 0.47528 0.50011 0.36781 0.0
C381 C 0.47897 0.47712 0.36039 0.0
C382 C 0.50195 0.49776 0.35226 0.0
N383 N 0.53946 0.61001 0.3587 0.0
N384 N 0.6357 0.69826 0.37205 0.0
N385 N 0.62337 0.63456 0.35895 0.0
C386 C 0.64405 0.65147 0.35009 0.0
C387 C 0.63323 0.6259 0.34205 0.0
C388 C 0.67719 0.6929 0.34957 0.0
C389 C 0.65422 0.64183 0.33343 0.0
H390 H 0.60892 0.59339 0.34258 0.0
C391 C 0.68628 0.68403 0.33295 0.0
C392 C 0.69814 0.70979 0.341 0.0
C393 C 0.64326 0.61434 0.32499 0.0
H394 H 0.68742 0.71162 0.35592 0.0
H395 H 0.70259 0.69663 0.32633 0.0
C396 C 0.73273 0.75406 0.34046 0.0
O397 O 0.66479 0.62944 0.31684 0.0
O398 O 0.61486 0.57783 0.32536 0.0
O399 O 0.7433 0.77638 0.34748 0.0
O400 O 0.75279 0.76999 0.33219 0.0
H401 H 0.65847 0.61198 0.31128 0.0
H402 H 0.77561 0.7987 0.33169 0.0
N403 N 0.584 0.61244 0.3748 0.0
C404 C 0.56264 0.60943 0.38264 0.0
C405 C 0.55751 0.57934 0.38936 0.0
C406 C 0.57545 0.55387 0.38745 0.0
C407 C 0.59742 0.55844 0.37891 0.0
C408 C 0.6011 0.58904 0.37251 0.0
N409 N 0.55089 0.6598 0.37435 0.0
C410 C 0.54383 0.63666 0.38243 0.0
O411 O 0.5176 0.63469 0.38899 0.0
C412 C 0.6227 0.60061 0.36328 0.0
O413 O 0.75496 0.6465 0.35352 0.0
O414 O 0.71339 0.5961 0.34419 0.0
C415 C 0.52411 0.67587 0.37149 0.0
C416 C 0.54041 0.71936 0.37044 0.0
C417 C 0.51452 0.7346 0.36718 0.0
C418 C 0.47214 0.70626 0.36534 0.0
C419 C 0.45489 0.66323 0.36692 0.0
C420 C 0.48099 0.64797 0.36995 0.0
O421 O 0.66473 0.50365 0.3624 0.0
O422 O 0.67035 0.49694 0.37782 0.0
O423 O 0.70824 0.61741 0.37568 0.0
O424 O 0.7215 0.61632 0.39065 0.0
O425 O 0.63772 0.57749 0.35913 0.0
C426 C 0.79713 0.57419 0.3669 0.0
O427 O 0.79461 0.58185 0.37553 0.0
O428 O 0.76754 0.56721 0.36118 0.0
C429 C 0.74316 0.63376 0.34514 0.0
H430 H 0.64443 0.79318 0.35395 0.0
H431 H 0.53801 0.69465 0.33881 0.0
H432 H 0.59199 0.77054 0.34079 0.0
H433 H 0.68489 0.66661 0.37104 0.0
H434 H 0.70783 0.66657 0.40065 0.0
H435 H 0.64653 0.73197 0.38966 0.0
H436 H 0.53906 0.55797 0.34555 0.0
H437 H 0.49054 0.56071 0.37297 0.0
H438 H 0.46288 0.44325 0.36091 0.0
H439 H 0.53981 0.57512 0.39578 0.0
H440 H 0.57196 0.53034 0.39252 0.0
H441 H 0.61104 0.53891 0.37743 0.0
H442 H 0.57274 0.74114 0.37226 0.0
H443 H 0.45164 0.71818 0.36325 0.0
H444 H 0.46788 0.61468 0.37117 0.0
Cd445 Cd 0.56525 0.20528 0.36311 0.0
C446 C 0.66825 0.25031 0.37112 0.0
C447 C 0.52388 0.98554 0.35174 0.0
O448 O 0.54625 0.97874 0.34549 0.0
Cd449 Cd 0.58149 0.22802 0.3813 0.0
C450 C 0.4781 0.96715 0.35078 0.0
C451 C 0.39216 0.93883 0.35232 0.0
C452 C 0.42114 0.96706 0.35883 0.0
N453 N 0.46171 0.9796 0.35758 0.0
C454 C 0.45101 0.93892 0.34401 0.0
C455 C 0.40759 0.92487 0.34482 0.0
Co456 Co 0.49817 0.01417 0.36665 0.0
C457 C 0.41344 0.98472 0.36745 0.0
O458 O 0.37602 0.97817 0.36975 0.0
C459 C 0.44868 0.03504 0.38045 0.0
C460 C 0.4664 0.07775 0.37912 0.0
C461 C 0.47941 0.1053 0.38677 0.0
C462 C 0.46735 0.08895 0.39591 0.0
C463 C 0.44357 0.04515 0.39729 0.0
C464 C 0.43548 0.01804 0.38953 0.0
C465 C 0.51083 0.14949 0.38487 0.0
C466 C 0.58648 0.03886 0.36026 0.0
C467 C 0.60895 0.06731 0.35299 0.0
C468 C 0.60818 0.0376 0.36826 0.0
C469 C 0.65105 0.0661 0.36924 0.0
C470 C 0.67285 0.09571 0.36218 0.0
C471 C 0.65204 0.09651 0.35393 0.0
N472 N 0.54181 0.01123 0.3594 0.0
N473 N 0.4485 0.01046 0.37259 0.0
N474 N 0.51167 0.06612 0.36 0.0
C475 C 0.49217 0.06964 0.35152 0.0
C476 C 0.51282 0.07724 0.34282 0.0
C477 C 0.45273 0.06667 0.35193 0.0
C478 C 0.49447 0.08184 0.33453 0.0
H479 H 0.54314 0.07959 0.34254 0.0
C480 C 0.45501 0.07905 0.33508 0.0
C481 C 0.43384 0.07139 0.34375 0.0
C482 C 0.51626 0.08942 0.3253 0.0
H483 H 0.43684 0.06104 0.35863 0.0
H484 H 0.44074 0.08285 0.32874 0.0
C485 C 0.39215 0.06851 0.34424 0.0
O486 O 0.49984 0.09694 0.31751 0.0
O487 O 0.54905 0.08872 0.32467 0.0
O488 O 0.37405 0.06264 0.35181 0.0
O489 O 0.37392 0.07244 0.33632 0.0
H490 H 0.51356 0.10207 0.31142 0.0
H491 H 0.34689 0.07096 0.33649 0.0
N492 N 0.53442 0.04881 0.37575 0.0
C493 C 0.53847 0.03012 0.38342 0.0
C494 C 0.5675 0.05523 0.39031 0.0
C495 C 0.59103 0.09908 0.3887 0.0
C496 C 0.58569 0.11679 0.3803 0.0
C497 C 0.55614 0.08975 0.37373 0.0
N498 N 0.49125 0.96814 0.37465 0.0
C499 C 0.51368 0.98392 0.38283 0.0
O500 O 0.51662 0.95961 0.38922 0.0
C501 C 0.54421 0.09996 0.36455 0.0
O502 O 0.50306 0.19279 0.35428 0.0
O503 O 0.55548 0.20046 0.3459 0.0
C504 C 0.47531 0.92548 0.37166 0.0
C505 C 0.43176 0.89804 0.37075 0.0
C506 C 0.4165 0.85691 0.3675 0.0
C507 C 0.44489 0.84307 0.36554 0.0
C508 C 0.48804 0.86908 0.36699 0.0
C509 C 0.50332 0.91054 0.36998 0.0
O510 O 0.64454 0.24172 0.36389 0.0
O511 O 0.65231 0.24383 0.37934 0.0
O512 O 0.52187 0.16015 0.37632 0.0
O513 O 0.53262 0.17409 0.39144 0.0
O514 O 0.56684 0.13853 0.36055 0.0
C515 C 0.57976 0.30237 0.3721 0.0
O516 O 0.5759 0.28876 0.38046 0.0
O517 O 0.57959 0.27978 0.36524 0.0
C518 C 0.51814 0.19384 0.34615 0.0
H519 H 0.35891 0.92755 0.35304 0.0
H520 H 0.46274 0.92782 0.33835 0.0
H521 H 0.38588 0.90284 0.33971 0.0
H522 H 0.47369 0.08973 0.37203 0.0
H523 H 0.47611 0.11006 0.40189 0.0
H524 H 0.41997 0.98439 0.39056 0.0
H525 H 0.59296 0.0661 0.34651 0.0
H526 H 0.59229 0.01434 0.37369 0.0
H527 H 0.70597 0.11765 0.36316 0.0
H528 H 0.57245 0.04158 0.3966 0.0
H529 H 0.61373 0.11923 0.3939 0.0
H530 H 0.60383 0.15024 0.37904 0.0
H531 H 0.40994 0.9084 0.37267 0.0
H532 H 0.43293 0.81063 0.36347 0.0
H533 H 0.53669 0.93097 0.3711 0.0
Cd534 Cd 0.71731 0.20565 0.86286 0.0
C535 C 0.65797 0.24851 0.87074 0.0
C536 C 0.54058 0.98453 0.85125 0.0
O537 O 0.51091 0.97631 0.84502 0.0
Cd538 Cd 0.72315 0.22785 0.88089 0.0
C539 C 0.5689 0.96731 0.85036 0.0
C540 C 0.62675 0.93953 0.85226 0.0
C541 C 0.62555 0.96795 0.85864 0.0
N542 N 0.59769 0.98055 0.85718 0.0
C543 C 0.56811 0.93878 0.84372 0.0
C544 C 0.59769 0.9251 0.8447 0.0
Co545 Co 0.5941 0.0141 0.86632 0.0
C546 C 0.64996 0.98535 0.86737 0.0
O547 O 0.68086 0.97909 0.86983 0.0
C548 C 0.66444 0.03589 0.88022 0.0
C549 C 0.68981 0.07845 0.87878 0.0
C550 C 0.70474 0.10623 0.88639 0.0
C551 C 0.70072 0.09017 0.89555 0.0
C552 C 0.68053 0.04644 0.897 0.0
C553 C 0.66093 0.01913 0.88931 0.0
C554 C 0.71725 0.15026 0.88446 0.0
C555 C 0.52909 0.03666 0.85954 0.0
C556 C 0.53238 0.06253 0.85191 0.0
C557 C 0.50555 0.03512 0.86746 0.0
C558 C 0.48715 0.06036 0.86789 0.0
C559 C 0.49154 0.08693 0.86038 0.0
C560 C 0.51388 0.08791 0.85225 0.0
N561 N 0.54754 0.01026 0.85887 0.0
N562 N 0.64015 0.011 0.8724 0.0
N563 N 0.63223 0.06715 0.85992 0.0
C564 C 0.65377 0.07195 0.85115 0.0
C565 C 0.64285 0.08639 0.84308 0.0
C566 C 0.68732 0.06424 0.85072 0.0
C567 C 0.66373 0.09112 0.83447 0.0
H568 H 0.6182 0.09408 0.84356 0.0
C569 C 0.69677 0.08237 0.8341 0.0
C570 C 0.7091 0.06932 0.84222 0.0
C571 C 0.65113 0.10513 0.82586 0.0
H572 H 0.69711 0.05528 0.85707 0.0
H573 H 0.71335 0.08635 0.82751 0.0
C574 C 0.74494 0.06147 0.84182 0.0
O575 O 0.66925 0.10658 0.81746 0.0
O576 O 0.62417 0.11525 0.8263 0.0
O577 O 0.75548 0.04983 0.84887 0.0
O578 O 0.76624 0.06726 0.83367 0.0
H579 H 0.66143 0.11547 0.81176 0.0
H580 H 0.7899 0.06262 0.83327 0.0
N581 N 0.59084 0.04753 0.8755 0.0
C582 C 0.56823 0.02792 0.88313 0.0
C583 C 0.56391 0.05207 0.89019 0.0
C584 C 0.58392 0.09605 0.88884 0.0
C585 C 0.60714 0.11484 0.88052 0.0
C586 C 0.61001 0.0887 0.87375 0.0
N587 N 0.55497 0.96707 0.87409 0.0
C588 C 0.54766 0.98186 0.88234 0.0
O589 O 0.52022 0.95672 0.88861 0.0
C590 C 0.63266 0.10019 0.86465 0.0
O591 O 0.76715 0.19385 0.85402 0.0
O592 O 0.72128 0.19968 0.84562 0.0
C593 C 0.52797 0.92495 0.87082 0.0
C594 C 0.54372 0.89741 0.86959 0.0
C595 C 0.51766 0.85694 0.86602 0.0
C596 C 0.47552 0.8437 0.86409 0.0
C597 C 0.45864 0.86967 0.86589 0.0
C598 C 0.4851 0.91062 0.86916 0.0
O599 O 0.67417 0.2411 0.86355 0.0
O600 O 0.66646 0.24118 0.87897 0.0
O601 O 0.71659 0.16066 0.87591 0.0
O602 O 0.71964 0.17474 0.89102 0.0
O603 O 0.64808 0.13906 0.86082 0.0
C604 C 0.79776 0.30411 0.87196 0.0
O605 O 0.7883 0.29012 0.8803 0.0
O606 O 0.77609 0.2811 0.86507 0.0
C607 C 0.75258 0.19395 0.8459 0.0
H608 H 0.64866 0.92829 0.85316 0.0
H609 H 0.54525 0.92701 0.83806 0.0
H610 H 0.59763 0.90283 0.8397 0.0
H611 H 0.69456 0.09002 0.87162 0.0
H612 H 0.71341 0.11146 0.9015 0.0
H613 H 0.64272 0.98552 0.8904 0.0
H614 H 0.54901 0.06246 0.84563 0.0
H615 H 0.50021 0.01362 0.87317 0.0
H616 H 0.47631 0.10555 0.86083 0.0
H617 H 0.54535 0.03762 0.89645 0.0
H618 H 0.58111 0.1155 0.89419 0.0
H619 H 0.62238 0.14842 0.87946 0.0
H620 H 0.57574 0.90714 0.87154 0.0
H621 H 0.45482 0.81158 0.86183 0.0
H622 H 0.4724 0.93105 0.87055 0.0
Cd623 Cd 0.94774 0.58629 0.86368 0.0
C624 C 0.90607 0.48393 0.87113 0.0
C625 C 0.16872 0.63011 0.85217 0.0
O626 O 0.177 0.60858 0.84598 0.0
Cd627 Cd 0.92601 0.56901 0.88164 0.0
C628 C 0.1859 0.67563 0.85123 0.0
C629 C 0.21418 0.76133 0.85312 0.0
C630 C 0.18571 0.73183 0.85951 0.0
N631 N 0.17279 0.6913 0.85804 0.0
C632 C 0.21451 0.70326 0.84458 0.0
C633 C 0.22844 0.74656 0.84555 0.0
Co634 Co 0.13965 0.65439 0.86726 0.0
C635 C 0.16853 0.73902 0.86826 0.0
O636 O 0.17489 0.77624 0.87068 0.0
C637 C 0.11787 0.70322 0.88111 0.0
C638 C 0.07534 0.68629 0.87961 0.0
C639 C 0.04735 0.67315 0.88719 0.0
C640 C 0.06318 0.6849 0.89638 0.0
C641 C 0.10688 0.70841 0.8979 0.0
C642 C 0.13441 0.71621 0.89024 0.0
C643 C 0.0034 0.64139 0.88524 0.0
C644 C 0.11752 0.56667 0.86069 0.0
C645 C 0.09163 0.5432 0.85314 0.0
C646 C 0.12002 0.54553 0.86867 0.0
C647 C 0.09579 0.50184 0.86923 0.0
C648 C 0.06933 0.47873 0.86179 0.0
C649 C 0.06745 0.49922 0.85359 0.0
N650 N 0.1433 0.61154 0.85985 0.0
N651 N 0.14286 0.70367 0.87332 0.0
N652 N 0.08618 0.63895 0.86097 0.0
C653 C 0.08093 0.65363 0.85194 0.0
C654 C 0.06314 0.62571 0.84436 0.0
C655 C 0.09098 0.69541 0.85083 0.0
C656 C 0.05669 0.63951 0.83559 0.0
H657 H 0.05372 0.59307 0.84536 0.0
C658 C 0.06826 0.68192 0.83451 0.0
C659 C 0.08525 0.71008 0.84211 0.0
C660 C 0.03735 0.60966 0.82761 0.0
H661 H 0.10221 0.7162 0.85685 0.0
H662 H 0.06338 0.69286 0.82778 0.0
C663 C 0.09647 0.7546 0.84094 0.0
O664 O 0.03023 0.62296 0.81929 0.0
O665 O 0.0276 0.57284 0.82853 0.0
O666 O 0.11081 0.77902 0.84758 0.0
O667 O 0.09088 0.76844 0.83253 0.0
H668 H 0.01733 0.60397 0.81402 0.0
H669 H 0.09775 0.79727 0.83163 0.0
N670 N 0.10672 0.61804 0.87656 0.0
C671 C 0.12676 0.61568 0.88417 0.0
C672 C 0.10297 0.5879 0.89139 0.0
C673 C 0.05887 0.56398 0.89018 0.0
C674 C 0.03961 0.56782 0.88188 0.0
C675 C 0.0654 0.59618 0.87497 0.0
N676 N 0.18716 0.66278 0.87494 0.0
C677 C 0.17281 0.64119 0.88326 0.0
O678 O 0.19831 0.63935 0.88951 0.0
C679 C 0.05337 0.60677 0.86586 0.0
O680 O 0.95984 0.64854 0.85518 0.0
O681 O 0.95445 0.59805 0.84642 0.0
C682 C 0.22921 0.67797 0.87158 0.0
C683 C 0.25667 0.72127 0.87034 0.0
C684 C 0.29708 0.73584 0.86668 0.0
C685 C 0.3102 0.70698 0.86462 0.0
C686 C 0.28431 0.6641 0.8664 0.0
C687 C 0.24357 0.64951 0.86983 0.0
O688 O 0.91291 0.5078 0.86401 0.0
O689 O 0.9134 0.49937 0.8794 0.0
O690 O 0.99303 0.63086 0.87666 0.0
O691 O 0.97921 0.61851 0.89175 0.0
O692 O 0.01426 0.58299 0.86215 0.0
C693 C 0.84958 0.56817 0.87302 0.0
O694 O 0.86359 0.57178 0.88133 0.0
O695 O 0.87226 0.56959 0.86604 0.0
C696 C 0.96029 0.63508 0.84696 0.0
H697 H 0.22563 0.79452 0.85401 0.0
H698 H 0.2262 0.69205 0.83893 0.0
H699 H 0.25079 0.76869 0.84055 0.0
H700 H 0.06398 0.67973 0.87243 0.0
H701 H 0.04174 0.67601 0.90231 0.0
H702 H 0.16799 0.73144 0.89138 0.0
H703 H 0.09086 0.5593 0.84682 0.0
H704 H 0.14161 0.56239 0.87432 0.0
H705 H 0.05161 0.44486 0.86233 0.0
H706 H 0.11777 0.58434 0.89765 0.0
H707 H 0.0397 0.54228 0.89565 0.0
H708 H 0.00592 0.54959 0.88095 0.0
H709 H 0.24695 0.74349 0.87235 0.0
H710 H 0.3422 0.71841 0.86225 0.0
H711 H 0.22325 0.61636 0.87123 0.0
Cd712 Cd 0.56928 0.43853 0.86303 0.0
C713 C 0.67028 0.49834 0.87142 0.0
C714 C 0.52638 0.61613 0.85172 0.0
O715 O 0.5485 0.64613 0.84562 0.0
Cd716 Cd 0.58371 0.43095 0.88097 0.0
C717 C 0.48086 0.58797 0.85062 0.0
C718 C 0.39499 0.53023 0.85212 0.0
C719 C 0.42397 0.53099 0.85863 0.0
N720 N 0.4646 0.55885 0.85736 0.0
C721 C 0.45376 0.58922 0.84386 0.0
C722 C 0.41038 0.5597 0.84464 0.0
Co723 Co 0.50083 0.5618 0.86665 0.0
C724 C 0.41616 0.50596 0.86729 0.0
O725 O 0.37877 0.47492 0.86956 0.0
C726 C 0.45118 0.49063 0.88024 0.0
C727 C 0.4678 0.46477 0.87875 0.0
C728 C 0.48041 0.44945 0.88633 0.0
C729 C 0.46867 0.45362 0.89551 0.0
C730 C 0.44575 0.47442 0.89704 0.0
C731 C 0.43851 0.49454 0.88937 0.0
C732 C 0.51178 0.43672 0.88439 0.0
C733 C 0.58909 0.62786 0.86051 0.0
C734 C 0.61318 0.62502 0.85316 0.0
C735 C 0.60956 0.65154 0.86854 0.0
C736 C 0.65315 0.67048 0.86936 0.0
C737 C 0.67684 0.6665 0.86214 0.0
C738 C 0.65706 0.64403 0.8539 0.0
N739 N 0.54429 0.6088 0.85946 0.0
N740 N 0.45116 0.51542 0.87247 0.0
N741 N 0.51631 0.52408 0.86027 0.0
C742 C 0.50075 0.50352 0.85135 0.0
C743 C 0.52729 0.51509 0.84348 0.0
C744 C 0.45951 0.47012 0.85059 0.0
C745 C 0.51243 0.49495 0.83474 0.0
H746 H 0.55957 0.53963 0.8442 0.0
C747 C 0.47069 0.462 0.83404 0.0
C748 C 0.44409 0.44906 0.84196 0.0
C749 C 0.54035 0.50822 0.82634 0.0
H750 H 0.4398 0.45983 0.85679 0.0
H751 H 0.45909 0.44597 0.82736 0.0
C752 C 0.40047 0.41329 0.84122 0.0
O753 O 0.52493 0.49089 0.81781 0.0
O754 O 0.57739 0.535 0.82707 0.0
O755 O 0.37713 0.40235 0.84808 0.0
O756 O 0.38629 0.39248 0.83297 0.0
H757 H 0.54252 0.49916 0.81224 0.0
H758 H 0.35806 0.36888 0.83235 0.0
N759 N 0.53665 0.56443 0.87599 0.0
C760 C 0.53914 0.58677 0.88362 0.0
C761 C 0.56722 0.59091 0.89078 0.0
C762 C 0.59133 0.57101 0.88949 0.0
C763 C 0.58742 0.54805 0.88116 0.0
C764 C 0.55879 0.54535 0.87431 0.0
N765 N 0.4921 0.60034 0.87443 0.0
C766 C 0.51363 0.60734 0.88276 0.0
O767 O 0.51539 0.63444 0.88905 0.0
C768 C 0.54841 0.52322 0.86514 0.0
O769 O 0.50849 0.38917 0.85388 0.0
O770 O 0.56072 0.43576 0.84573 0.0
C771 C 0.47652 0.62696 0.87116 0.0
C772 C 0.43307 0.61093 0.87005 0.0
C773 C 0.41824 0.63666 0.86646 0.0
C774 C 0.44694 0.67864 0.86435 0.0
C775 C 0.48996 0.69569 0.86597 0.0
C776 C 0.50481 0.66971 0.86934 0.0
O777 O 0.64781 0.48224 0.86407 0.0
O778 O 0.65346 0.48869 0.87955 0.0
O779 O 0.52344 0.43819 0.87586 0.0
O780 O 0.53324 0.4334 0.89096 0.0
O781 O 0.57223 0.5081 0.86136 0.0
C782 C 0.58742 0.35778 0.87199 0.0
O783 O 0.58209 0.36642 0.88034 0.0
O784 O 0.58635 0.3799 0.86516 0.0
C785 C 0.52377 0.40426 0.84583 0.0
H786 H 0.36173 0.50832 0.85285 0.0
H787 H 0.46543 0.61237 0.83826 0.0
H788 H 0.38866 0.5601 0.83954 0.0
H789 H 0.47463 0.46017 0.87158 0.0
H790 H 0.47717 0.44066 0.90143 0.0
H791 H 0.42391 0.51347 0.8905 0.0
H792 H 0.59766 0.6083 0.8468 0.0
H793 H 0.59224 0.65656 0.87403 0.0
H794 H 0.71062 0.68216 0.86289 0.0
H795 H 0.57094 0.60929 0.89704 0.0
H796 H 0.61332 0.57371 0.89491 0.0
H797 H 0.60593 0.53295 0.88016 0.0
H798 H 0.41102 0.57894 0.87206 0.0
H799 H 0.43531 0.69909 0.86203 0.0
H800 H 0.53806 0.68262 0.87061 0.0
Cd801 Cd 0.20901 0.71807 0.63579 0.0
C802 C 0.25393 0.66212 0.62707 0.0
C803 C 0.98745 0.53878 0.6473 0.0
O804 O 0.97912 0.50864 0.6534 0.0
Cd805 Cd 0.23265 0.72915 0.61763 0.0
C806 C 0.97006 0.56691 0.64833 0.0
C807 C 0.94169 0.62433 0.64664 0.0
C808 C 0.97061 0.62398 0.64028 0.0
N809 N 0.98357 0.59633 0.64165 0.0
C810 C 0.94103 0.56526 0.65494 0.0
C811 C 0.92708 0.59466 0.65408 0.0
Co812 Co 0.01724 0.59343 0.63244 0.0
C813 C 0.98811 0.64897 0.63162 0.0
O814 O 0.98148 0.67971 0.62925 0.0
C815 C 0.03864 0.6642 0.61873 0.0
C816 C 0.08119 0.68997 0.62013 0.0
C817 C 0.10878 0.70561 0.6125 0.0
C818 C 0.09243 0.70165 0.60336 0.0
C819 C 0.0486 0.68083 0.60195 0.0
C820 C 0.02162 0.66053 0.60966 0.0
C821 C 0.15318 0.71926 0.61434 0.0
C822 C 0.04034 0.52856 0.63898 0.0
C823 C 0.06598 0.53159 0.64663 0.0
C824 C 0.03959 0.5059 0.63097 0.0
C825 C 0.06553 0.48829 0.63046 0.0
C826 C 0.09197 0.49255 0.63799 0.0
C827 C 0.09204 0.51387 0.64622 0.0
N828 N 0.01348 0.54648 0.6397 0.0
N829 N 0.01401 0.63968 0.62655 0.0
N830 N 0.07038 0.63135 0.63886 0.0
C831 C 0.07515 0.65181 0.64779 0.0
C832 C 0.09078 0.6408 0.65563 0.0
C833 C 0.06639 0.68455 0.64858 0.0
C834 C 0.09559 0.66067 0.66439 0.0
H835 H 0.09942 0.61692 0.65487 0.0
C836 C 0.08566 0.6928 0.66513 0.0
C837 C 0.07144 0.70527 0.65723 0.0
C838 C 0.11095 0.64797 0.67276 0.0
H839 H 0.0567 0.6946 0.64238 0.0
H840 H 0.08966 0.70859 0.67183 0.0
C841 C 0.06233 0.74018 0.65801 0.0
O842 O 0.11264 0.66513 0.6813 0.0
O843 O 0.122 0.6218 0.672 0.0
O844 O 0.04963 0.75082 0.65116 0.0
O845 O 0.06812 0.76052 0.66631 0.0
H846 H 0.12243 0.65724 0.68685 0.0
H847 H 0.06267 0.78356 0.66696 0.0
N848 N 0.05074 0.59081 0.62317 0.0
C849 C 0.0311 0.56849 0.61551 0.0
C850 C 0.05529 0.56467 0.60837 0.0
C851 C 0.09933 0.58489 0.60968 0.0
C852 C 0.11816 0.60787 0.61803 0.0
C853 C 0.09199 0.61024 0.62487 0.0
N854 N 0.97018 0.55472 0.6246 0.0
C855 C 0.985 0.54775 0.61632 0.0
O856 O 0.95986 0.52072 0.60999 0.0
C857 C 0.10354 0.63248 0.63402 0.0
O858 O 0.19607 0.76681 0.64475 0.0
O859 O 0.20275 0.72117 0.65304 0.0
C860 C 0.92776 0.52812 0.62777 0.0
C861 C 0.90032 0.54417 0.62876 0.0
C862 C 0.85943 0.51836 0.63217 0.0
C863 C 0.84581 0.47625 0.6342 0.0
C864 C 0.87179 0.45915 0.63267 0.0
C865 C 0.91298 0.48524 0.6295 0.0
O866 O 0.24496 0.6755 0.63453 0.0
O867 O 0.24833 0.67373 0.61901 0.0
O868 O 0.16377 0.71737 0.62281 0.0
O869 O 0.17841 0.72466 0.6077 0.0
O870 O 0.14265 0.64824 0.63777 0.0
C871 C 0.30714 0.80241 0.62734 0.0
O872 O 0.29299 0.79557 0.61899 0.0
O873 O 0.28476 0.77789 0.63398 0.0
C874 C 0.1964 0.75209 0.65284 0.0
H875 H 0.93016 0.64604 0.64581 0.0
H876 H 0.92905 0.54186 0.66048 0.0
H877 H 0.90441 0.59393 0.65906 0.0
H878 H 0.09293 0.69463 0.62728 0.0
H879 H 0.1136 0.7149 0.59741 0.0
H880 H 0.98801 0.64172 0.60861 0.0
H881 H 0.06523 0.54743 0.65299 0.0
H882 H 0.01822 0.50065 0.62523 0.0
H883 H 0.11119 0.47799 0.63748 0.0
H884 H 0.04081 0.54634 0.60209 0.0
H885 H 0.11879 0.58246 0.60428 0.0
H886 H 0.1518 0.6233 0.61904 0.0
H887 H 0.91048 0.57623 0.62677 0.0
H888 H 0.8135 0.45576 0.63637 0.0
H889 H 0.93335 0.47231 0.62829 0.0
Cd890 Cd 0.44355 0.57474 0.63663 0.0
C891 C 0.51085 0.67739 0.63004 0.0
C892 C 0.6191 0.52633 0.64624 0.0
O893 O 0.64927 0.54771 0.65236 0.0
Cd894 Cd 0.44531 0.59555 0.61956 0.0
C895 C 0.59055 0.48083 0.6472 0.0
C896 C 0.5322 0.39529 0.64542 0.0
C897 C 0.53303 0.42492 0.6391 0.0
N898 N 0.56107 0.46538 0.64053 0.0
C899 C 0.59175 0.45306 0.65377 0.0
C900 C 0.56187 0.40986 0.65287 0.0
Co901 Co 0.56424 0.50249 0.63143 0.0
C902 C 0.50788 0.41793 0.63048 0.0
O903 O 0.47639 0.38088 0.62817 0.0
C904 C 0.49185 0.45438 0.61799 0.0
C905 C 0.46748 0.47223 0.6199 0.0
C906 C 0.4541 0.48814 0.61262 0.0
C907 C 0.45785 0.47803 0.60328 0.0
C908 C 0.47403 0.45116 0.60126 0.0
C909 C 0.49343 0.44132 0.60872 0.0
C910 C 0.44418 0.52102 0.61505 0.0
C911 C 0.62948 0.58999 0.63815 0.0
C912 C 0.62635 0.61201 0.64591 0.0
C913 C 0.65188 0.6125 0.63016 0.0
C914 C 0.66892 0.656 0.62977 0.0
C915 C 0.66466 0.67759 0.63743 0.0
C916 C 0.64413 0.65584 0.64568 0.0
N917 N 0.61162 0.54515 0.6387 0.0
N918 N 0.51741 0.45337 0.62548 0.0
N919 N 0.52708 0.51822 0.63806 0.0
C920 C 0.50695 0.5027 0.64703 0.0
C921 C 0.51773 0.52967 0.65482 0.0
C922 C 0.47431 0.46115 0.6479 0.0
C923 C 0.49779 0.51497 0.66358 0.0
H924 H 0.54136 0.56224 0.654 0.0
C925 C 0.46571 0.47291 0.66439 0.0
C926 C 0.45342 0.44585 0.65656 0.0
C927 C 0.51027 0.54345 0.67187 0.0
H928 H 0.46429 0.44112 0.64176 0.0
H929 H 0.44981 0.4614 0.67109 0.0
C930 C 0.41842 0.4019 0.65741 0.0
O931 O 0.49259 0.52848 0.6804 0.0
O932 O 0.53673 0.58055 0.67105 0.0
O933 O 0.40831 0.37806 0.65066 0.0
O934 O 0.3974 0.38796 0.66565 0.0
H935 H 0.50037 0.54643 0.6859 0.0
H936 H 0.37429 0.35951 0.66634 0.0
N937 N 0.56712 0.53912 0.62227 0.0
C938 C 0.58933 0.54196 0.61458 0.0
C939 C 0.59395 0.57087 0.6076 0.0
C940 C 0.57474 0.59548 0.6091 0.0
C941 C 0.552 0.59124 0.61749 0.0
C942 C 0.54869 0.5617 0.62416 0.0
N943 N 0.6025 0.49396 0.62348 0.0
C944 C 0.60956 0.51611 0.61524 0.0
O945 O 0.63651 0.51812 0.60887 0.0
C946 C 0.52675 0.551 0.63336 0.0
O947 O 0.39399 0.51318 0.64555 0.0
O948 O 0.43972 0.56485 0.65394 0.0
C949 C 0.62929 0.4783 0.6266 0.0
C950 C 0.6132 0.43487 0.62768 0.0
C951 C 0.63895 0.41992 0.63118 0.0
C952 C 0.68108 0.44845 0.6332 0.0
C953 C 0.69825 0.49146 0.63161 0.0
C954 C 0.67221 0.50649 0.62835 0.0
O955 O 0.48988 0.65345 0.63688 0.0
O956 O 0.50495 0.66263 0.62173 0.0
O957 O 0.44206 0.52818 0.62378 0.0
O958 O 0.44784 0.5478 0.60896 0.0
O959 O 0.51245 0.57519 0.63733 0.0
C960 C 0.36767 0.59681 0.62638 0.0
O961 O 0.38319 0.59828 0.61832 0.0
O962 O 0.38443 0.59079 0.63367 0.0
C963 C 0.40846 0.52782 0.65367 0.0
H964 H 0.51009 0.36216 0.64457 0.0
H965 H 0.61514 0.46409 0.65931 0.0
H966 H 0.56219 0.38764 0.65782 0.0
H967 H 0.46326 0.47795 0.62718 0.0
H968 H 0.44755 0.49058 0.59762 0.0
H969 H 0.50886 0.4233 0.60752 0.0
H970 H 0.61036 0.59484 0.65219 0.0
H971 H 0.65713 0.59684 0.62433 0.0
H972 H 0.6786 0.71133 0.637 0.0
H973 H 0.61227 0.57491 0.6013 0.0
H974 H 0.57787 0.61815 0.60383 0.0
H975 H 0.53751 0.61017 0.61867 0.0
H976 H 0.58109 0.4129 0.62573 0.0
H977 H 0.70148 0.43669 0.63549 0.0
H978 H 0.68515 0.53977 0.62712 0.0
Cd979 Cd 0.58887 0.9517 0.63646 0.0
C980 C 0.48658 0.90842 0.62869 0.0
C981 C 0.6321 0.1723 0.64658 0.0
O982 O 0.61047 0.18079 0.65269 0.0
Cd983 Cd 0.57128 0.92586 0.61793 0.0
C984 C 0.67768 0.18966 0.64754 0.0
C985 C 0.76328 0.21663 0.64592 0.0
C986 C 0.73388 0.18838 0.63948 0.0
N987 N 0.69344 0.17633 0.64079 0.0
C988 C 0.70522 0.21804 0.65423 0.0
C989 C 0.74845 0.23134 0.65339 0.0
Co990 Co 0.65647 0.14196 0.63173 0.0
C991 C 0.74104 0.17023 0.63089 0.0
O992 O 0.77818 0.17596 0.6286 0.0
C993 C 0.70517 0.11878 0.61818 0.0
C994 C 0.68756 0.07631 0.61983 0.0
C995 C 0.67493 0.04786 0.61236 0.0
C996 C 0.68756 0.06303 0.60316 0.0
C997 C 0.71162 0.1066 0.6015 0.0
C998 C 0.71899 0.13466 0.60904 0.0
C999 C 0.64326 0.004 0.61442 0.0
C1000 C 0.56866 0.12071 0.63808 0.0
C1001 C 0.54488 0.09461 0.64558 0.0
C1002 C 0.54779 0.12318 0.63005 0.0
C1003 C 0.50415 0.09856 0.62936 0.0
C1004 C 0.48078 0.0717 0.63672 0.0
C1005 C 0.50094 0.06984 0.64498 0.0
N1006 N 0.61357 0.14636 0.63898 0.0
N1007 N 0.70572 0.14447 0.62583 0.0
N1008 N 0.64162 0.08975 0.63846 0.0
C1009 C 0.65854 0.08596 0.6473 0.0
C1010 C 0.63375 0.07383 0.65547 0.0
C1011 C 0.69935 0.09239 0.64772 0.0
C1012 C 0.65003 0.06998 0.66415 0.0
H1013 H 0.60178 0.0673 0.65502 0.0
C1014 C 0.69133 0.07726 0.6645 0.0
C1015 C 0.71612 0.08808 0.65629 0.0
C1016 C 0.62404 0.05837 0.67285 0.0
H1017 H 0.7177 0.09982 0.64132 0.0
H1018 H 0.70399 0.0739 0.67114 0.0
C1019 C 0.75925 0.09438 0.65668 0.0
O1020 O 0.64095 0.05786 0.68128 0.0
O1021 O 0.58726 0.04938 0.67245 0.0
O1022 O 0.78098 0.1042 0.64957 0.0
O1023 O 0.77473 0.08915 0.6649 0.0
H1024 H 0.62463 0.0505 0.68704 0.0
H1025 H 0.80264 0.09278 0.6653 0.0
N1026 N 0.61986 0.10757 0.62265 0.0
C1027 C 0.61665 0.12639 0.61491 0.0
C1028 C 0.58762 0.10153 0.60799 0.0
C1029 C 0.56337 0.05775 0.60963 0.0
C1030 C 0.56804 0.03986 0.61807 0.0
C1031 C 0.59757 0.06666 0.62467 0.0
N1032 N 0.66445 0.18819 0.62367 0.0
C1033 C 0.64225 0.17256 0.61545 0.0
O1034 O 0.63983 0.19705 0.60903 0.0
C1035 C 0.60883 0.05623 0.6339 0.0
O1036 O 0.65147 0.96641 0.64532 0.0
O1037 O 0.59919 0.9594 0.65367 0.0
C1038 C 0.67971 0.2306 0.62674 0.0
C1039 C 0.72301 0.25799 0.62807 0.0
C1040 C 0.73744 0.29845 0.63166 0.0
C1041 C 0.7086 0.31185 0.63347 0.0
C1042 C 0.66579 0.28598 0.63161 0.0
C1043 C 0.65125 0.24512 0.62829 0.0
O1044 O 0.51016 0.91572 0.63589 0.0
O1045 O 0.50195 0.91424 0.62043 0.0
O1046 O 0.63173 0.99419 0.62298 0.0
O1047 O 0.62169 0.97891 0.60791 0.0
O1048 O 0.58547 0.01789 0.63796 0.0
C1049 C 0.57576 0.85426 0.62839 0.0
O1050 O 0.57801 0.86601 0.61991 0.0
O1051 O 0.57585 0.87755 0.63507 0.0
C1052 C 0.63656 0.96603 0.65343 0.0
H1053 H 0.79642 0.22742 0.64516 0.0
H1054 H 0.69397 0.22988 0.65984 0.0
H1055 H 0.7705 0.25343 0.65844 0.0
H1056 H 0.68033 0.06533 0.62702 0.0
H1057 H 0.67905 0.04115 0.59733 0.0
H1058 H 0.73457 0.16817 0.60779 0.0
H1059 H 0.56066 0.09398 0.65196 0.0
H1060 H 0.56483 0.14491 0.62443 0.0
H1061 H 0.44696 0.05359 0.63607 0.0
H1062 H 0.58325 0.11534 0.60165 0.0
H1063 H 0.54065 0.03779 0.6044 0.0
H1064 H 0.54939 0.00645 0.61934 0.0
H1065 H 0.74526 0.24804 0.62627 0.0
H1066 H 0.72002 0.34389 0.63579 0.0
H1067 H 0.61812 0.22478 0.62688 0.0
Cd1068 Cd 0.10707 0.27983 0.47072 0.0
C1069 C 0.16575 0.23625 0.4628 0.0
C1070 C 0.28252 0.50252 0.47993 0.0
O1071 O 0.31232 0.51119 0.48616 0.0
Cd1072 Cd 0.09916 0.25536 0.45324 0.0
C1073 C 0.25437 0.52003 0.48067 0.0
C1074 C 0.19638 0.54754 0.47857 0.0
C1075 C 0.19748 0.51868 0.47232 0.0
N1076 N 0.22555 0.5064 0.47385 0.0
C1077 C 0.25526 0.54905 0.48718 0.0
C1078 C 0.22566 0.56264 0.48609 0.0
Co1079 Co 0.2284 0.47146 0.46499 0.0
C1080 C 0.17251 0.50022 0.46369 0.0
O1081 O 0.14105 0.50572 0.4613 0.0
C1082 C 0.15578 0.44666 0.45144 0.0
C1083 C 0.13231 0.4045 0.45349 0.0
C1084 C 0.11695 0.37484 0.44631 0.0
C1085 C 0.11791 0.38812 0.43702 0.0
C1086 C 0.13187 0.43078 0.43507 0.0
C1087 C 0.15398 0.4607 0.44226 0.0
C1088 C 0.10566 0.33169 0.44874 0.0
C1089 C 0.29502 0.45093 0.47167 0.0
C1090 C 0.29188 0.42452 0.47917 0.0
C1091 C 0.3196 0.45417 0.46382 0.0
C1092 C 0.33944 0.43028 0.46334 0.0
C1093 C 0.33535 0.40327 0.47072 0.0
C1094 C 0.31171 0.40034 0.47877 0.0
N1095 N 0.27541 0.47627 0.47242 0.0
N1096 N 0.18187 0.47387 0.45882 0.0
N1097 N 0.19094 0.41952 0.47187 0.0
C1098 C 0.17017 0.41618 0.48069 0.0
C1099 C 0.18149 0.40265 0.48885 0.0
C1100 C 0.13667 0.424 0.48107 0.0
C1101 C 0.16086 0.39862 0.49747 0.0
H1102 H 0.20616 0.39497 0.48844 0.0
C1103 C 0.12782 0.40738 0.49777 0.0
C1104 C 0.11522 0.41971 0.48958 0.0
C1105 C 0.17356 0.3851 0.50614 0.0
H1106 H 0.12656 0.43228 0.47467 0.0
H1107 H 0.11145 0.40395 0.50436 0.0
C1108 C 0.07934 0.4275 0.48991 0.0
O1109 O 0.15513 0.38357 0.5145 0.0
O1110 O 0.20081 0.37536 0.50578 0.0
O1111 O 0.06887 0.43901 0.48284 0.0
O1112 O 0.0579 0.42179 0.49804 0.0
H1113 H 0.16297 0.37493 0.52024 0.0
H1114 H 0.03422 0.4264 0.4984 0.0
N1115 N 0.23093 0.43647 0.45611 0.0
C1116 C 0.25345 0.45484 0.44839 0.0
C1117 C 0.25844 0.42966 0.44171 0.0
C1118 C 0.23927 0.38607 0.44354 0.0
C1119 C 0.2163 0.36868 0.45196 0.0
C1120 C 0.21276 0.39577 0.45833 0.0
N1121 N 0.26715 0.51722 0.45686 0.0
C1122 C 0.27393 0.50102 0.44876 0.0
O1123 O 0.30113 0.52506 0.44232 0.0
C1124 C 0.19085 0.38584 0.46753 0.0
O1125 O 0.05908 0.29408 0.47964 0.0
O1126 O 0.10486 0.28783 0.48797 0.0
C1127 C 0.29468 0.55974 0.45985 0.0
C1128 C 0.279 0.58724 0.46121 0.0
C1129 C 0.30535 0.62789 0.46466 0.0
C1130 C 0.34779 0.64144 0.46626 0.0
C1131 C 0.36463 0.61561 0.46427 0.0
C1132 C 0.33788 0.57443 0.46117 0.0
O1133 O 0.1508 0.24471 0.47008 0.0
O1134 O 0.15539 0.24186 0.45462 0.0
O1135 O 0.10663 0.3232 0.45743 0.0
O1136 O 0.10301 0.30597 0.44248 0.0
O1137 O 0.17618 0.34781 0.47178 0.0
C1138 C 0.02331 0.18169 0.46228 0.0
O1139 O 0.03333 0.19449 0.45388 0.0
O1140 O 0.04583 0.2047 0.46909 0.0
C1141 C 0.07399 0.29427 0.48774 0.0
H1142 H 0.17432 0.55856 0.47762 0.0
H1143 H 0.27816 0.56117 0.49282 0.0
H1144 H 0.22579 0.58527 0.49099 0.0
H1145 H 0.12928 0.39488 0.46077 0.0
H1146 H 0.10658 0.36512 0.43139 0.0
H1147 H 0.16876 0.49402 0.44085 0.0
H1148 H 0.27428 0.42322 0.48539 0.0
H1149 H 0.32462 0.47595 0.4582 0.0
H1150 H 0.35179 0.38582 0.47023 0.0
H1151 H 0.27709 0.44313 0.43541 0.0
H1152 H 0.24269 0.36588 0.4385 0.0
H1153 H 0.20193 0.33544 0.45341 0.0
H1154 H 0.24674 0.57735 0.45948 0.0
H1155 H 0.36865 0.67366 0.46843 0.0
H1156 H 0.35058 0.5541 0.45967 0.0
Cd1157 Cd 0.87364 0.90071 0.46985 0.0
C1158 C 0.9135 0.00378 0.46319 0.0
C1159 C 0.65097 0.85491 0.47932 0.0
O1160 O 0.64309 0.87639 0.48559 0.0
Cd1161 Cd 0.89723 0.92095 0.45231 0.0
C1162 C 0.63253 0.80903 0.47998 0.0
C1163 C 0.60426 0.72335 0.47787 0.0
C1164 C 0.63366 0.75324 0.47168 0.0
N1165 N 0.64609 0.79361 0.4732 0.0
C1166 C 0.60305 0.78098 0.48644 0.0
C1167 C 0.58903 0.7377 0.48533 0.0
Co1168 Co 0.68196 0.83132 0.46447 0.0
C1169 C 0.65263 0.74674 0.46312 0.0
O1170 O 0.64662 0.70971 0.46065 0.0
C1171 C 0.70583 0.78409 0.45072 0.0
C1172 C 0.74824 0.80257 0.45254 0.0
C1173 C 0.77737 0.81882 0.44524 0.0
C1174 C 0.76328 0.80918 0.43591 0.0
C1175 C 0.72018 0.78217 0.43392 0.0
C1176 C 0.69104 0.77151 0.44144 0.0
C1177 C 0.82072 0.85052 0.44768 0.0
C1178 C 0.70489 0.91863 0.47121 0.0
C1179 C 0.73294 0.94067 0.47858 0.0
C1180 C 0.70387 0.94082 0.46328 0.0
C1181 C 0.73237 0.98372 0.46244 0.0
C1182 C 0.76169 0.00508 0.46957 0.0
C1183 C 0.76213 0.98383 0.47778 0.0
N1184 N 0.67767 0.87385 0.47186 0.0
N1185 N 0.67931 0.78251 0.45831 0.0
N1186 N 0.73296 0.84423 0.4715 0.0
C1187 C 0.73515 0.82402 0.47999 0.0
C1188 C 0.74296 0.84455 0.4887 0.0
C1189 C 0.73041 0.78385 0.47959 0.0
C1190 C 0.7461 0.82539 0.49701 0.0
H1191 H 0.7467 0.87544 0.48898 0.0
C1192 C 0.74118 0.78506 0.49649 0.0
C1193 C 0.73302 0.76389 0.48781 0.0
C1194 C 0.75433 0.84726 0.50624 0.0
H1195 H 0.72493 0.76818 0.47286 0.0
H1196 H 0.74355 0.77005 0.50286 0.0
C1197 C 0.72706 0.72094 0.48738 0.0
O1198 O 0.76303 0.83126 0.51394 0.0
O1199 O 0.75318 0.87978 0.50695 0.0
O1200 O 0.72156 0.70308 0.47979 0.0
O1201 O 0.72757 0.70122 0.49538 0.0
H1202 H 0.76868 0.84508 0.52002 0.0
H1203 H 0.72376 0.67321 0.49527 0.0
N1204 N 0.71791 0.86887 0.45573 0.0
C1205 C 0.70031 0.87404 0.44799 0.0
C1206 C 0.72628 0.90468 0.44147 0.0
C1207 C 0.76976 0.92858 0.4435 0.0
C1208 C 0.78625 0.92203 0.45195 0.0
C1209 C 0.75843 0.89089 0.45814 0.0
N1210 N 0.63706 0.82529 0.45619 0.0
C1211 C 0.65402 0.8489 0.4482 0.0
O1212 O 0.63061 0.85276 0.44171 0.0
C1213 C 0.76734 0.87776 0.46733 0.0
O1214 O 0.86041 0.83718 0.47799 0.0
O1215 O 0.86587 0.88718 0.48693 0.0
C1216 C 0.59409 0.80931 0.45895 0.0
C1217 C 0.56658 0.76577 0.45979 0.0
C1218 C 0.52552 0.75048 0.46311 0.0
C1219 C 0.51175 0.77882 0.46516 0.0
C1220 C 0.53782 0.82197 0.46378 0.0
C1221 C 0.57921 0.83732 0.46072 0.0
O1222 O 0.90671 0.97937 0.47021 0.0
O1223 O 0.90817 0.98949 0.45484 0.0
O1224 O 0.82971 0.85874 0.4564 0.0
O1225 O 0.84599 0.87481 0.44149 0.0
O1226 O 0.80519 0.90011 0.47168 0.0
C1227 C 0.97249 0.91946 0.46079 0.0
O1228 O 0.9594 0.91795 0.45246 0.0
O1229 O 0.94932 0.9169 0.46777 0.0
C1230 C 0.85948 0.85002 0.48625 0.0
H1231 H 0.593 0.69022 0.47692 0.0
H1232 H 0.59094 0.79189 0.49206 0.0
H1233 H 0.56603 0.71527 0.49019 0.0
H1234 H 0.75852 0.80811 0.45978 0.0
H1235 H 0.78601 0.82204 0.43023 0.0
H1236 H 0.65757 0.75326 0.44026 0.0
H1237 H 0.73145 0.92423 0.485 0.0
H1238 H 0.68088 0.92524 0.45779 0.0
H1239 H 0.78367 0.03823 0.46868 0.0
H1240 H 0.71349 0.91066 0.43516 0.0
H1241 H 0.79055 0.95257 0.4386 0.0
H1242 H 0.81939 0.94054 0.45356 0.0
H1243 H 0.57691 0.74398 0.45783 0.0
H1244 H 0.47942 0.76691 0.46733 0.0
H1245 H 0.59973 0.87072 0.45972 0.0
Cd1246 Cd 0.25318 0.04595 0.46956 0.0
C1247 C 0.15103 0.98614 0.46177 0.0
C1248 C 0.29606 0.86857 0.48056 0.0
O1249 O 0.27446 0.83876 0.48675 0.0
Cd1250 Cd 0.23616 0.05246 0.45137 0.0
C1251 C 0.34168 0.89664 0.48146 0.0
C1252 C 0.42746 0.95409 0.47959 0.0
C1253 C 0.39793 0.95336 0.47325 0.0
N1254 N 0.35738 0.92566 0.4747 0.0
C1255 C 0.36934 0.8954 0.48807 0.0
C1256 C 0.41267 0.92477 0.4871 0.0
Co1257 Co 0.32036 0.92262 0.46559 0.0
C1258 C 0.40506 0.97817 0.46458 0.0
O1259 O 0.44232 0.00899 0.46214 0.0
C1260 C 0.36915 0.99332 0.4518 0.0
C1261 C 0.35222 0.01884 0.45332 0.0
C1262 C 0.33951 0.03416 0.44576 0.0
C1263 C 0.35157 0.03045 0.43657 0.0
C1264 C 0.37505 0.0102 0.43503 0.0
C1265 C 0.38225 0.98994 0.44268 0.0
C1266 C 0.30809 0.04677 0.44775 0.0
C1267 C 0.23253 0.8574 0.47224 0.0
C1268 C 0.20964 0.86055 0.47983 0.0
C1269 C 0.21079 0.83401 0.46429 0.0
C1270 C 0.16718 0.81575 0.46376 0.0
C1271 C 0.14472 0.82009 0.47121 0.0
C1272 C 0.16574 0.8422 0.47939 0.0
N1273 N 0.27742 0.87587 0.47296 0.0
N1274 N 0.36964 0.96875 0.45957 0.0
N1275 N 0.3056 0.96058 0.4721 0.0
C1276 C 0.322 0.98137 0.48097 0.0
C1277 C 0.29607 0.97036 0.48894 0.0
C1278 C 0.36343 0.01449 0.48156 0.0
C1279 C 0.31177 0.99073 0.49762 0.0
H1280 H 0.26361 0.9461 0.48833 0.0
C1281 C 0.35374 0.0233 0.49816 0.0
C1282 C 0.37972 0.03569 0.49014 0.0
C1283 C 0.28444 0.97817 0.50611 0.0
H1284 H 0.38262 0.02445 0.47528 0.0
H1285 H 0.36601 0.03947 0.50481 0.0
C1286 C 0.42362 0.07106 0.49072 0.0
O1287 O 0.30053 0.99595 0.51457 0.0
O1288 O 0.24727 0.95157 0.50553 0.0
O1289 O 0.44641 0.08152 0.48377 0.0
O1290 O 0.43866 0.09201 0.49893 0.0
H1291 H 0.28333 0.98816 0.5202 0.0
H1292 H 0.46709 0.11535 0.49945 0.0
N1293 N 0.28376 0.91986 0.45643 0.0
C1294 C 0.28044 0.89723 0.44879 0.0
C1295 C 0.25161 0.89285 0.4418 0.0
C1296 C 0.22763 0.91278 0.44325 0.0
C1297 C 0.2324 0.93599 0.45159 0.0
C1298 C 0.26175 0.93893 0.45827 0.0
N1299 N 0.32821 0.88382 0.45771 0.0
C1300 C 0.3059 0.87659 0.44949 0.0
O1301 O 0.30354 0.84932 0.44317 0.0
C1302 C 0.27299 0.96121 0.46742 0.0
O1303 O 0.31541 0.09498 0.47838 0.0
O1304 O 0.26338 0.04966 0.48678 0.0
C1305 C 0.34434 0.85749 0.46082 0.0
C1306 C 0.38791 0.87372 0.46165 0.0
C1307 C 0.40334 0.84817 0.46502 0.0
C1308 C 0.37507 0.80609 0.46715 0.0
C1309 C 0.33187 0.78878 0.46574 0.0
C1310 C 0.31644 0.81471 0.46267 0.0
O1311 O 0.17451 0.00294 0.46896 0.0
O1312 O 0.16671 0.99482 0.45353 0.0
O1313 O 0.29685 0.04562 0.45631 0.0
O1314 O 0.28625 0.0498 0.44123 0.0
O1315 O 0.24954 0.9764 0.47134 0.0
C1316 C 0.23557 0.127 0.4609 0.0
O1317 O 0.23899 0.11751 0.45248 0.0
O1318 O 0.23736 0.10514 0.46769 0.0
C1319 C 0.3006 0.08064 0.4865 0.0
H1320 H 0.46067 0.97587 0.4787 0.0
H1321 H 0.35812 0.87234 0.49368 0.0
H1322 H 0.43481 0.92436 0.49207 0.0
H1323 H 0.34543 0.02336 0.4605 0.0
H1324 H 0.34311 0.04353 0.43068 0.0
H1325 H 0.39728 0.97141 0.44155 0.0
H1326 H 0.2261 0.87697 0.48615 0.0
H1327 H 0.22714 0.82868 0.45861 0.0
H1328 H 0.11088 0.80495 0.47068 0.0
H1329 H 0.24721 0.87423 0.43554 0.0
H1330 H 0.20507 0.90988 0.43797 0.0
H1331 H 0.21397 0.95108 0.45273 0.0
H1332 H 0.4096 0.9057 0.45957 0.0
H1333 H 0.38717 0.78576 0.46925 0.0
H1334 H 0.28305 0.80165 0.46156 0.0
Cd1335 Cd 0.6134 0.77596 0.69553 0.0
C1336 C 0.57574 0.84152 0.70197 0.0
C1337 C 0.83702 0.94994 0.68562 0.0
O1338 O 0.84574 0.97963 0.67936 0.0
Cd1339 Cd 0.59463 0.77838 0.71248 0.0
C1340 C 0.854 0.92137 0.68485 0.0
C1341 C 0.8813 0.86327 0.68697 0.0
C1342 C 0.85295 0.86492 0.6933 0.0
N1343 N 0.84051 0.89283 0.69172 0.0
C1344 C 0.88254 0.92175 0.67826 0.0
C1345 C 0.89594 0.89201 0.67935 0.0
Co1346 Co 0.80663 0.89671 0.70072 0.0
C1347 C 0.83505 0.84053 0.70202 0.0
O1348 O 0.84046 0.80906 0.70444 0.0
C1349 C 0.78204 0.82452 0.71436 0.0
C1350 C 0.73982 0.80089 0.71236 0.0
C1351 C 0.71036 0.78743 0.7196 0.0
C1352 C 0.7238 0.78981 0.72892 0.0
C1353 C 0.76629 0.80303 0.73088 0.0
C1354 C 0.79619 0.82384 0.7236 0.0
C1355 C 0.66778 0.77795 0.71716 0.0
C1356 C 0.7861 0.9632 0.69394 0.0
C1357 C 0.76003 0.96044 0.6864 0.0
C1358 C 0.7894 0.98782 0.70179 0.0
C1359 C 0.76595 0.00813 0.70221 0.0
C1360 C 0.73937 0.00454 0.69478 0.0
C1361 C 0.73646 0.98093 0.68672 0.0
N1362 N 0.81131 0.94344 0.69322 0.0
N1363 N 0.80908 0.85029 0.70694 0.0
N1364 N 0.75365 0.85925 0.69413 0.0
C1365 C 0.74909 0.83921 0.68514 0.0
C1366 C 0.7318 0.84918 0.67742 0.0
C1367 C 0.75916 0.80742 0.6842 0.0
C1368 C 0.72579 0.82867 0.66871 0.0
H1369 H 0.7224 0.87248 0.67828 0.0
C1370 C 0.7373 0.79772 0.66781 0.0
C1371 C 0.75388 0.78676 0.67553 0.0
C1372 C 0.70699 0.83905 0.6606 0.0
H1373 H 0.76999 0.79795 0.6903 0.0
H1374 H 0.73271 0.78167 0.66112 0.0
C1375 C 0.76515 0.75344 0.67454 0.0
O1376 O 0.70069 0.81868 0.65229 0.0
O1377 O 0.69697 0.86597 0.66139 0.0
O1378 O 0.77918 0.74357 0.68127 0.0
O1379 O 0.75998 0.73376 0.66617 0.0
H1380 H 0.68816 0.82469 0.64694 0.0
H1381 H 0.76692 0.71179 0.66538 0.0
N1382 N 0.77288 0.90028 0.70978 0.0
C1383 C 0.79227 0.92299 0.71741 0.0
C1384 C 0.76803 0.92835 0.72429 0.0
C1385 C 0.72422 0.90927 0.72275 0.0
C1386 C 0.7057 0.88598 0.71443 0.0
C1387 C 0.73188 0.882 0.70786 0.0
N1388 N 0.85348 0.93562 0.7086 0.0
C1389 C 0.83836 0.94306 0.71678 0.0
O1390 O 0.8633 0.97051 0.72307 0.0
C1391 C 0.7206 0.85949 0.69874 0.0
O1392 O 0.62451 0.72506 0.6871 0.0
O1393 O 0.62044 0.77063 0.67824 0.0
C1394 C 0.89572 0.96274 0.70537 0.0
C1395 C 0.92312 0.94689 0.70406 0.0
C1396 C 0.96342 0.97276 0.70038 0.0
C1397 C 0.9768 0.01492 0.69848 0.0
C1398 C 0.95105 0.03196 0.70035 0.0
C1399 C 0.91023 0.00571 0.70374 0.0
O1400 O 0.57961 0.82089 0.69517 0.0
O1401 O 0.58548 0.83673 0.71028 0.0
O1402 O 0.65838 0.77522 0.70843 0.0
O1403 O 0.64486 0.78213 0.72322 0.0
O1404 O 0.68203 0.84493 0.69475 0.0
C1405 C 0.51584 0.70048 0.70601 0.0
O1406 O 0.53034 0.71614 0.71402 0.0
O1407 O 0.53822 0.7171 0.69865 0.0
C1408 C 0.62567 0.73908 0.67886 0.0
H1409 H 0.89228 0.84119 0.68794 0.0
H1410 H 0.8945 0.9444 0.67257 0.0
H1411 H 0.91814 0.89169 0.67439 0.0
H1412 H 0.73012 0.79709 0.70507 0.0
H1413 H 0.70099 0.78005 0.73458 0.0
H1414 H 0.82952 0.83852 0.72499 0.0
H1415 H 0.75866 0.94272 0.68019 0.0
H1416 H 0.81101 0.99261 0.70744 0.0
H1417 H 0.72234 0.02141 0.69521 0.0
H1418 H 0.78234 0.94714 0.73053 0.0
H1419 H 0.70473 0.91296 0.72794 0.0
H1420 H 0.67228 0.87161 0.71322 0.0
H1421 H 0.91336 0.91486 0.70598 0.0
H1422 H 0.00877 0.03544 0.69609 0.0
H1423 H 0.88995 0.01855 0.70516 0.0
Cd1424 Cd 0.38045 0.9219 0.69507 0.0
C1425 C 0.32145 0.82023 0.70329 0.0
C1426 C 0.20242 0.96425 0.68477 0.0
O1427 O 0.17201 0.94222 0.67874 0.0
Cd1428 Cd 0.38876 0.90586 0.71341 0.0
C1429 C 0.23039 0.00979 0.68369 0.0
C1430 C 0.28794 0.09565 0.68522 0.0
C1431 C 0.288 0.06654 0.69157 0.0
N1432 N 0.26017 0.02592 0.69029 0.0
C1433 C 0.22832 0.03701 0.67709 0.0
C1434 C 0.25773 0.08039 0.67789 0.0
Co1435 Co 0.25805 0.98952 0.69945 0.0
C1436 C 0.31366 0.07425 0.70012 0.0
O1437 O 0.34464 0.11166 0.70239 0.0
C1438 C 0.32993 0.03918 0.7129 0.0
C1439 C 0.35519 0.02196 0.71133 0.0
C1440 C 0.37078 0.00939 0.71886 0.0
C1441 C 0.36747 0.02164 0.72805 0.0
C1442 C 0.34723 0.04506 0.72963 0.0
C1443 C 0.32703 0.05257 0.72202 0.0
C1444 C 0.38312 0.97779 0.71687 0.0
C1445 C 0.19246 0.90138 0.69316 0.0
C1446 C 0.19552 0.87841 0.68559 0.0
C1447 C 0.16971 0.87986 0.7012 0.0
C1448 C 0.15191 0.83633 0.70181 0.0
C1449 C 0.15613 0.81377 0.69436 0.0
C1450 C 0.17771 0.83462 0.68611 0.0
N1451 N 0.21055 0.94615 0.69235 0.0
N1452 N 0.30475 0.03917 0.7052 0.0
N1453 N 0.29537 0.97439 0.69277 0.0
C1454 C 0.31574 0.99056 0.68385 0.0
C1455 C 0.30437 0.96444 0.67591 0.0
C1456 C 0.34895 0.03191 0.68318 0.0
C1457 C 0.32448 0.97985 0.66719 0.0
H1458 H 0.28011 0.93202 0.67657 0.0
C1459 C 0.35712 0.02176 0.66657 0.0
C1460 C 0.36988 0.04793 0.67456 0.0
C1461 C 0.31162 0.95228 0.65874 0.0
H1462 H 0.35926 0.05123 0.68944 0.0
H1463 H 0.3731 0.03381 0.6599 0.0
C1464 C 0.40539 0.09171 0.67391 0.0
O1465 O 0.32944 0.96802 0.65026 0.0
O1466 O 0.28477 0.91524 0.65938 0.0
O1467 O 0.41622 0.11464 0.68083 0.0
O1468 O 0.42608 0.1065 0.66566 0.0
H1469 H 0.32149 0.95065 0.64466 0.0
H1470 H 0.44951 0.13484 0.66509 0.0
N1471 N 0.2562 0.95352 0.70865 0.0
C1472 C 0.23428 0.95062 0.7164 0.0
C1473 C 0.23055 0.9222 0.72342 0.0
C1474 C 0.25028 0.89808 0.72188 0.0
C1475 C 0.27261 0.9023 0.71343 0.0
C1476 C 0.27496 0.93131 0.70672 0.0
N1477 N 0.21998 0.99778 0.7075 0.0
C1478 C 0.21353 0.97598 0.71576 0.0
O1479 O 0.18671 0.97386 0.72218 0.0
C1480 C 0.2963 0.94197 0.69746 0.0
O1481 O 0.42867 0.98416 0.68618 0.0
O1482 O 0.3838 0.93177 0.6778 0.0
C1483 C 0.19299 0.01316 0.7044 0.0
C1484 C 0.20892 0.05648 0.70322 0.0
C1485 C 0.18304 0.07116 0.69967 0.0
C1486 C 0.14096 0.04237 0.69766 0.0
C1487 C 0.124 0.99944 0.69937 0.0
C1488 C 0.15017 0.98477 0.70271 0.0
O1489 O 0.33764 0.84314 0.69599 0.0
O1490 O 0.33095 0.83641 0.71147 0.0
O1491 O 0.38119 0.96592 0.70834 0.0
O1492 O 0.3868 0.95651 0.72343 0.0
O1493 O 0.31092 0.91819 0.69346 0.0
C1494 C 0.46337 0.90695 0.7033 0.0
O1495 O 0.45446 0.91046 0.71176 0.0
O1496 O 0.44049 0.90756 0.69661 0.0
C1497 C 0.41452 0.96915 0.67806 0.0
H1498 H 0.30974 0.12891 0.68598 0.0
H1499 H 0.20459 0.02543 0.67162 0.0
H1500 H 0.25666 0.10221 0.67293 0.0
H1501 H 0.35921 0.01478 0.70415 0.0
H1502 H 0.38059 0.01316 0.73394 0.0
H1503 H 0.30872 0.06779 0.72321 0.0
H1504 H 0.21151 0.89476 0.67923 0.0
H1505 H 0.16461 0.8963 0.70689 0.0
H1506 H 0.14137 0.78 0.69496 0.0
H1507 H 0.21257 0.91818 0.72978 0.0
H1508 H 0.24787 0.87581 0.72719 0.0
H1509 H 0.2875 0.88372 0.71222 0.0
H1510 H 0.241 0.0786 0.70516 0.0
H1511 H 0.12035 0.05387 0.69538 0.0
H1512 H 0.13737 0.95158 0.70404 0.0
Cd1513 Cd 0.23578 0.54291 0.6971 0.0
C1514 C 0.33658 0.58772 0.70578 0.0
C1515 C 0.19284 0.3226 0.68506 0.0
O1516 O 0.21454 0.31471 0.67884 0.0
Cd1517 Cd 0.24849 0.567 0.71539 0.0
C1518 C 0.14729 0.30536 0.68411 0.0
C1519 C 0.06151 0.27712 0.68594 0.0
C1520 C 0.09094 0.3054 0.69237 0.0
N1521 N 0.1315 0.31829 0.69093 0.0
C1522 C 0.11974 0.27697 0.67741 0.0
C1523 C 0.07641 0.26307 0.67836 0.0
Co1524 Co 0.1683 0.35133 0.70017 0.0
C1525 C 0.08368 0.32247 0.70113 0.0
O1526 O 0.04641 0.31595 0.70357 0.0
C1527 C 0.11946 0.3725 0.71409 0.0
C1528 C 0.13615 0.41506 0.71273 0.0
C1529 C 0.14832 0.44251 0.7204 0.0
C1530 C 0.13628 0.42599 0.72953 0.0
C1531 C 0.11344 0.38214 0.73092 0.0
C1532 C 0.10653 0.35533 0.72316 0.0
C1533 C 0.17891 0.48698 0.71857 0.0
C1534 C 0.25617 0.37396 0.69361 0.0
C1535 C 0.27947 0.40048 0.68612 0.0
C1536 C 0.27747 0.37157 0.70157 0.0
C1537 C 0.32108 0.39671 0.70221 0.0
C1538 C 0.34396 0.42401 0.69486 0.0
C1539 C 0.32336 0.42577 0.68667 0.0
N1540 N 0.2113 0.34785 0.69276 0.0
N1541 N 0.11902 0.34802 0.7062 0.0
N1542 N 0.18359 0.40477 0.69391 0.0
C1543 C 0.16793 0.40998 0.68503 0.0
C1544 C 0.19458 0.42587 0.67718 0.0
C1545 C 0.12638 0.40115 0.68426 0.0
C1546 C 0.17949 0.431 0.66846 0.0
H1547 H 0.2271 0.43445 0.67792 0.0
C1548 C 0.13734 0.42091 0.66774 0.0
C1549 C 0.11063 0.40633 0.67563 0.0
C1550 C 0.20761 0.44693 0.66011 0.0
H1551 H 0.10663 0.39122 0.69046 0.0
H1552 H 0.12551 0.42507 0.66106 0.0
C1553 C 0.0665 0.39697 0.67487 0.0
O1554 O 0.19224 0.44951 0.65162 0.0
O1555 O 0.24478 0.4577 0.66084 0.0
O1556 O 0.04317 0.38402 0.68172 0.0
O1557 O 0.05184 0.40279 0.66659 0.0
H1558 H 0.20997 0.45973 0.64608 0.0
H1559 H 0.02327 0.39716 0.66595 0.0
N1560 N 0.20463 0.38421 0.70947 0.0
C1561 C 0.2073 0.36411 0.71704 0.0
C1562 C 0.23548 0.38782 0.7242 0.0
C1563 C 0.25945 0.4319 0.723 0.0
C1564 C 0.25528 0.45123 0.71474 0.0
C1565 C 0.22658 0.42551 0.70788 0.0
N1566 N 0.15982 0.30379 0.70783 0.0
C1567 C 0.18172 0.31807 0.71612 0.0
O1568 O 0.1836 0.29252 0.72233 0.0
C1569 C 0.21582 0.43758 0.69879 0.0
O1570 O 0.1745 0.52987 0.68794 0.0
O1571 O 0.22769 0.53747 0.67984 0.0
C1572 C 0.14385 0.26158 0.70452 0.0
C1573 C 0.10029 0.23419 0.70357 0.0
C1574 C 0.0851 0.19342 0.70006 0.0
C1575 C 0.11356 0.1799 0.6979 0.0
C1576 C 0.15668 0.20578 0.69941 0.0
C1577 C 0.17189 0.24689 0.70263 0.0
O1578 O 0.31407 0.57861 0.69834 0.0
O1579 O 0.3196 0.58243 0.71385 0.0
O1580 O 0.19146 0.49766 0.7101 0.0
O1581 O 0.19854 0.51226 0.72521 0.0
O1582 O 0.23935 0.47675 0.6951 0.0
C1583 C 0.24944 0.64106 0.70546 0.0
O1584 O 0.24237 0.62735 0.71385 0.0
O1585 O 0.25141 0.61838 0.69887 0.0
C1586 C 0.19033 0.53092 0.6799 0.0
H1587 H 0.0283 0.26569 0.68681 0.0
H1588 H 0.13103 0.26546 0.67175 0.0
H1589 H 0.05435 0.24091 0.67332 0.0
H1590 H 0.14296 0.42693 0.70559 0.0
H1591 H 0.14433 0.44704 0.73551 0.0
H1592 H 0.09186 0.32172 0.72417 0.0
H1593 H 0.26335 0.40104 0.67979 0.0
H1594 H 0.2608 0.3495 0.70715 0.0
H1595 H 0.37778 0.44257 0.69547 0.0
H1596 H 0.23935 0.37297 0.73041 0.0
H1597 H 0.28149 0.45101 0.72842 0.0
H1598 H 0.27362 0.4849 0.71381 0.0
H1599 H 0.07844 0.24426 0.70566 0.0
H1600 H 0.10165 0.14766 0.69568 0.0
H1601 H 0.20523 0.26717 0.70382 0.0
Cd1602 Cd 0.38609 0.54262 0.19483 0.0
C1603 C 0.32547 0.58398 0.20251 0.0
C1604 C 0.20645 0.31993 0.18509 0.0
O1605 O 0.17643 0.31195 0.17898 0.0
Cd1606 Cd 0.39147 0.56493 0.21255 0.0
C1607 C 0.23341 0.30106 0.18425 0.0
C1608 C 0.29132 0.27313 0.18576 0.0
C1609 C 0.29073 0.3016 0.19222 0.0
N1610 N 0.26251 0.3139 0.19099 0.0
C1611 C 0.23204 0.27252 0.17753 0.0
C1612 C 0.2616 0.25872 0.17833 0.0
Co1613 Co 0.26228 0.35058 0.19974 0.0
C1614 C 0.31711 0.32056 0.20064 0.0
O1615 O 0.34824 0.31434 0.2029 0.0
C1616 C 0.33413 0.37305 0.21319 0.0
C1617 C 0.35987 0.4153 0.21142 0.0
C1618 C 0.37548 0.44428 0.2188 0.0
C1619 C 0.37174 0.42956 0.22811 0.0
C1620 C 0.35116 0.38598 0.22991 0.0
C1621 C 0.33086 0.35767 0.22241 0.0
C1622 C 0.38761 0.48798 0.21648 0.0
C1623 C 0.19659 0.37323 0.19339 0.0
C1624 C 0.19949 0.39948 0.18587 0.0
C1625 C 0.17313 0.37113 0.20137 0.0
C1626 C 0.15451 0.39613 0.20198 0.0
C1627 C 0.15856 0.42308 0.19458 0.0
C1628 C 0.1808 0.4247 0.18638 0.0
N1629 N 0.21509 0.34686 0.19255 0.0
N1630 N 0.30857 0.34726 0.20561 0.0
N1631 N 0.30046 0.40084 0.19259 0.0
C1632 C 0.31996 0.4007 0.18382 0.0
C1633 C 0.30221 0.40254 0.17524 0.0
C1634 C 0.3546 0.39462 0.18382 0.0
C1635 C 0.31737 0.39628 0.16664 0.0
H1636 H 0.27617 0.40811 0.17528 0.0
C1637 C 0.35128 0.38877 0.16676 0.0
C1638 C 0.3706 0.38864 0.17532 0.0
C1639 C 0.29802 0.39772 0.15755 0.0
H1640 H 0.36864 0.39384 0.19046 0.0
H1641 H 0.36319 0.38389 0.16017 0.0
C1642 C 0.40724 0.38201 0.17535 0.0
O1643 O 0.31355 0.39285 0.1493 0.0
O1644 O 0.26799 0.40341 0.15745 0.0
O1645 O 0.42321 0.38057 0.18282 0.0
O1646 O 0.42329 0.37764 0.16713 0.0
H1647 H 0.30148 0.39377 0.14329 0.0
H1648 H 0.44724 0.37342 0.16699 0.0
N1649 N 0.26228 0.38729 0.20849 0.0
C1650 C 0.24005 0.37032 0.21632 0.0
C1651 C 0.2369 0.39698 0.22291 0.0
C1652 C 0.25744 0.44046 0.22084 0.0
C1653 C 0.27995 0.45629 0.21229 0.0
C1654 C 0.28169 0.42779 0.20604 0.0
N1655 N 0.2239 0.30653 0.2082 0.0
C1656 C 0.21814 0.324 0.2162 0.0
O1657 O 0.19116 0.30111 0.22279 0.0
C1658 C 0.30304 0.43593 0.19678 0.0
O1659 O 0.44258 0.54756 0.18499 0.0
O1660 O 0.38379 0.52909 0.17781 0.0
C1661 C 0.19683 0.26356 0.20554 0.0
C1662 C 0.21283 0.23603 0.20471 0.0
C1663 C 0.18721 0.19527 0.20123 0.0
C1664 C 0.14529 0.18182 0.19904 0.0
C1665 C 0.12832 0.20802 0.20037 0.0
C1666 C 0.15421 0.24907 0.2036 0.0
O1667 O 0.34262 0.5775 0.19538 0.0
O1668 O 0.33396 0.57719 0.21078 0.0
O1669 O 0.38744 0.49723 0.20779 0.0
O1670 O 0.38816 0.5126 0.22278 0.0
O1671 O 0.31901 0.47367 0.19237 0.0
C1672 C 0.46746 0.6403 0.20359 0.0
O1673 O 0.45755 0.62665 0.21194 0.0
O1674 O 0.44516 0.61787 0.19671 0.0
C1675 C 0.42174 0.53777 0.17735 0.0
H1676 H 0.31359 0.26222 0.18644 0.0
H1677 H 0.20907 0.26121 0.1719 0.0
H1678 H 0.26126 0.23663 0.17324 0.0
H1679 H 0.36399 0.4258 0.2042 0.0
H1680 H 0.38491 0.45173 0.23389 0.0
H1681 H 0.3122 0.32427 0.22375 0.0
H1682 H 0.21593 0.39994 0.17953 0.0
H1683 H 0.16799 0.34937 0.20701 0.0
H1684 H 0.14312 0.44145 0.19517 0.0
H1685 H 0.21869 0.38475 0.22931 0.0
H1686 H 0.25545 0.46179 0.22579 0.0
H1687 H 0.29539 0.48943 0.21068 0.0
H1688 H 0.24488 0.24624 0.20673 0.0
H1689 H 0.12491 0.14964 0.19677 0.0
H1690 H 0.14142 0.2697 0.20458 0.0
Cd1691 Cd 0.61805 0.92077 0.19591 0.0
C1692 C 0.58528 0.81742 0.20229 0.0
C1693 C 0.84163 0.96755 0.18598 0.0
O1694 O 0.85066 0.94574 0.18003 0.0
Cd1695 Cd 0.60608 0.89915 0.21227 0.0
C1696 C 0.85827 0.01282 0.18475 0.0
C1697 C 0.88545 0.09845 0.18606 0.0
C1698 C 0.85673 0.06941 0.19249 0.0
N1699 N 0.84424 0.02882 0.19128 0.0
C1700 C 0.88716 0.03997 0.17807 0.0
C1701 C 0.90048 0.08322 0.17874 0.0
Co1702 Co 0.81101 0.99267 0.20061 0.0
C1703 C 0.83911 0.07726 0.20107 0.0
O1704 O 0.84485 0.11454 0.2032 0.0
C1705 C 0.78779 0.04244 0.21381 0.0
C1706 C 0.74559 0.02614 0.21196 0.0
C1707 C 0.71644 0.01181 0.21931 0.0
C1708 C 0.7308 0.02248 0.22863 0.0
C1709 C 0.77422 0.04606 0.23049 0.0
C1710 C 0.80291 0.05449 0.22305 0.0
C1711 C 0.67389 0.97785 0.21703 0.0
C1712 C 0.78818 0.90453 0.19417 0.0
C1713 C 0.76416 0.88236 0.18629 0.0
C1714 C 0.78777 0.88211 0.2022 0.0
C1715 C 0.76258 0.83841 0.20242 0.0
C1716 C 0.7383 0.81658 0.19458 0.0
C1717 C 0.73967 0.83838 0.18632 0.0
N1718 N 0.81532 0.94933 0.19355 0.0
N1719 N 0.8137 0.04239 0.20629 0.0
N1720 N 0.75753 0.97622 0.19419 0.0
C1721 C 0.75225 0.99005 0.18506 0.0
C1722 C 0.73547 0.96164 0.17754 0.0
C1723 C 0.76139 0.03147 0.18376 0.0
C1724 C 0.73022 0.97482 0.16858 0.0
H1725 H 0.72618 0.92917 0.1787 0.0
C1726 C 0.74033 0.01673 0.16734 0.0
C1727 C 0.75545 0.04518 0.17492 0.0
C1728 C 0.7143 0.94496 0.16053 0.0
H1729 H 0.7719 0.05266 0.1897 0.0
H1730 H 0.73583 0.02705 0.16049 0.0
C1731 C 0.76449 0.08897 0.17362 0.0
O1732 O 0.71248 0.95863 0.15179 0.0
O1733 O 0.70305 0.9079 0.16174 0.0
O1734 O 0.77863 0.11405 0.18014 0.0
O1735 O 0.75699 0.10137 0.16522 0.0
H1736 H 0.70247 0.93978 0.14643 0.0
H1737 H 0.76235 0.12968 0.16423 0.0
N1738 N 0.77808 0.95715 0.21003 0.0
C1739 C 0.79808 0.95544 0.21772 0.0
C1740 C 0.77433 0.92812 0.22501 0.0
C1741 C 0.73031 0.90383 0.22378 0.0
C1742 C 0.71111 0.9069 0.21539 0.0
C1743 C 0.73681 0.93493 0.20842 0.0
N1744 N 0.85842 0.00203 0.20845 0.0
C1745 C 0.84406 0.98102 0.21684 0.0
O1746 O 0.86955 0.97979 0.22318 0.0
C1747 C 0.72476 0.94444 0.19919 0.0
O1748 O 0.62599 0.98026 0.18674 0.0
O1749 O 0.62481 0.93024 0.17857 0.0
C1750 C 0.90045 0.01692 0.20516 0.0
C1751 C 0.92768 0.06005 0.20371 0.0
C1752 C 0.96802 0.07438 0.20009 0.0
C1753 C 0.98156 0.04557 0.19835 0.0
C1754 C 0.95593 0.00288 0.20038 0.0
C1755 C 0.91502 0.98844 0.2037 0.0
O1756 O 0.58469 0.84137 0.19583 0.0
O1757 O 0.59994 0.83277 0.21035 0.0
O1758 O 0.66339 0.97182 0.20832 0.0
O1759 O 0.65417 0.94853 0.22291 0.0
O1760 O 0.68595 0.91956 0.19543 0.0
C1761 C 0.5209 0.88942 0.2071 0.0
O1762 O 0.53877 0.88875 0.21467 0.0
O1763 O 0.54191 0.89965 0.19943 0.0
C1764 C 0.62806 0.96625 0.17871 0.0
H1765 H 0.89656 0.13166 0.18675 0.0
H1766 H 0.89951 0.02844 0.17264 0.0
H1767 H 0.92302 0.10499 0.17372 0.0
H1768 H 0.73535 0.01973 0.2047 0.0
H1769 H 0.70842 0.01242 0.23439 0.0
H1770 H 0.83626 0.06929 0.22446 0.0
H1771 H 0.76539 0.89966 0.18003 0.0
H1772 H 0.80773 0.89797 0.20816 0.0
H1773 H 0.71962 0.7827 0.19489 0.0
H1774 H 0.78913 0.92514 0.23134 0.0
H1775 H 0.71113 0.88242 0.22929 0.0
H1776 H 0.67753 0.88837 0.21444 0.0
H1777 H 0.91777 0.08234 0.20552 0.0
H1778 H 0.01367 0.05704 0.19607 0.0
H1779 H 0.89479 0.95544 0.20526 0.0
Cd1780 Cd 0.24115 0.77653 0.19652 0.0
C1781 C 0.33899 0.81889 0.20625 0.0
C1782 C 0.19451 0.9534 0.18583 0.0
O1783 O 0.21545 0.98317 0.17959 0.0
Cd1784 Cd 0.24451 0.75358 0.21344 0.0
C1785 C 0.14886 0.92517 0.18513 0.0
C1786 C 0.06329 0.86793 0.18742 0.0
C1787 C 0.09344 0.86871 0.19358 0.0
N1788 N 0.13386 0.89625 0.19192 0.0
C1789 C 0.12057 0.92638 0.17871 0.0
C1790 C 0.07734 0.8971 0.17989 0.0
Co1791 Co 0.17176 0.89975 0.20085 0.0
C1792 C 0.08701 0.84431 0.20229 0.0
O1793 O 0.04997 0.81338 0.20482 0.0
C1794 C 0.1239 0.82858 0.21472 0.0
C1795 C 0.14281 0.80515 0.21292 0.0
C1796 C 0.15555 0.78907 0.22026 0.0
C1797 C 0.14218 0.79004 0.22943 0.0
C1798 C 0.11361 0.8044 0.23109 0.0
C1799 C 0.10686 0.82674 0.22377 0.0
C1800 C 0.18506 0.77454 0.21803 0.0
C1801 C 0.25884 0.96494 0.1938 0.0
C1802 C 0.2809 0.96183 0.18603 0.0
C1803 C 0.28144 0.98871 0.20164 0.0
C1804 C 0.32516 0.00738 0.20187 0.0
C1805 C 0.34686 0.00341 0.1942 0.0
C1806 C 0.32493 0.98143 0.1861 0.0
N1807 N 0.2139 0.94633 0.19331 0.0
N1808 N 0.12281 0.85377 0.20714 0.0
N1809 N 0.18652 0.86186 0.19421 0.0
C1810 C 0.1695 0.84061 0.18541 0.0
C1811 C 0.19521 0.85037 0.17742 0.0
C1812 C 0.1279 0.80774 0.18496 0.0
C1813 C 0.17931 0.82856 0.16889 0.0
H1814 H 0.22779 0.87451 0.17792 0.0
C1815 C 0.13718 0.79627 0.16849 0.0
C1816 C 0.11128 0.78543 0.17651 0.0
C1817 C 0.20675 0.83903 0.16045 0.0
H1818 H 0.10887 0.7987 0.19127 0.0
H1819 H 0.12471 0.77909 0.16197 0.0
C1820 C 0.06715 0.75045 0.17608 0.0
O1821 O 0.19143 0.81737 0.15233 0.0
O1822 O 0.24336 0.86726 0.16079 0.0
O1823 O 0.04474 0.74067 0.18308 0.0
O1824 O 0.05148 0.72911 0.16794 0.0
H1825 H 0.20881 0.82347 0.14676 0.0
H1826 H 0.02288 0.70603 0.16751 0.0
N1827 N 0.2093 0.90298 0.20982 0.0
C1828 C 0.21316 0.92581 0.21746 0.0
C1829 C 0.24289 0.93088 0.22428 0.0
C1830 C 0.26716 0.91137 0.22267 0.0
C1831 C 0.26186 0.88797 0.21434 0.0
C1832 C 0.23171 0.88442 0.20782 0.0
N1833 N 0.16447 0.93888 0.20879 0.0
C1834 C 0.18745 0.94626 0.21691 0.0
O1835 O 0.19035 0.9737 0.22325 0.0
C1836 C 0.21993 0.86184 0.1987 0.0
O1837 O 0.17914 0.72523 0.18821 0.0
O1838 O 0.22832 0.77165 0.17931 0.0
C1839 C 0.14873 0.9657 0.20573 0.0
C1840 C 0.10523 0.94974 0.20472 0.0
C1841 C 0.09024 0.97565 0.20133 0.0
C1842 C 0.11881 0.01781 0.19937 0.0
C1843 C 0.16184 0.03486 0.20096 0.0
C1844 C 0.1769 0.00867 0.20407 0.0
O1845 O 0.31993 0.81583 0.19849 0.0
O1846 O 0.31776 0.80074 0.21357 0.0
O1847 O 0.19776 0.7783 0.20954 0.0
O1848 O 0.20129 0.76289 0.22437 0.0
O1849 O 0.24303 0.84619 0.1947 0.0
C1850 C 0.24696 0.68546 0.2036 0.0
O1851 O 0.22966 0.68481 0.21136 0.0
O1852 O 0.25732 0.71621 0.19793 0.0
C1853 C 0.19178 0.73955 0.17996 0.0
H1854 H 0.03016 0.8463 0.18849 0.0
H1855 H 0.13124 0.9494 0.17309 0.0
H1856 H 0.05471 0.89753 0.17507 0.0
H1857 H 0.1497 0.80161 0.2057 0.0
H1858 H 0.15237 0.7778 0.23518 0.0
H1859 H 0.08804 0.84138 0.22498 0.0
H1860 H 0.26363 0.94463 0.17985 0.0
H1861 H 0.26567 0.99393 0.20745 0.0
H1862 H 0.38077 0.01873 0.19449 0.0
H1863 H 0.24779 0.94974 0.23052 0.0
H1864 H 0.29039 0.9148 0.22783 0.0
H1865 H 0.28056 0.87324 0.21308 0.0
H1866 H 0.08323 0.91769 0.20668 0.0
H1867 H 0.10708 0.03836 0.1972 0.0
H1868 H 0.2102 0.02158 0.20528 0.0
Cd1869 Cd 0.87575 0.0497 0.96879 0.0
C1870 C 0.91645 0.98792 0.96121 0.0
C1871 C 0.65359 0.86873 0.97968 0.0
O1872 O 0.64506 0.83826 0.9857 0.0
Cd1873 Cd 0.8963 0.05293 0.95101 0.0
C1874 C 0.63601 0.89666 0.98076 0.0
C1875 C 0.60763 0.95413 0.97923 0.0
C1876 C 0.6366 0.95402 0.97285 0.0
N1877 N 0.64947 0.92627 0.97413 0.0
C1878 C 0.60694 0.89477 0.9874 0.0
C1879 C 0.59296 0.92416 0.98661 0.0
Co1880 Co 0.6835 0.92393 0.96493 0.0
C1881 C 0.65426 0.97944 0.96425 0.0
O1882 O 0.64774 0.01034 0.96197 0.0
C1883 C 0.70499 0.9953 0.95138 0.0
C1884 C 0.74742 0.02125 0.9529 0.0
C1885 C 0.77545 0.03665 0.94534 0.0
C1886 C 0.7596 0.03278 0.93615 0.0
C1887 C 0.71583 0.01229 0.93463 0.0
C1888 C 0.68845 0.99178 0.94227 0.0
C1889 C 0.81945 0.04901 0.94732 0.0
C1890 C 0.70651 0.85864 0.97133 0.0
C1891 C 0.7312 0.86034 0.97906 0.0
C1892 C 0.70569 0.83614 0.96327 0.0
C1893 C 0.73055 0.8173 0.96284 0.0
C1894 C 0.75563 0.81976 0.97051 0.0
C1895 C 0.75525 0.84038 0.97882 0.0
N1896 N 0.6799 0.87686 0.97211 0.0
N1897 N 0.68009 0.97026 0.95912 0.0
N1898 N 0.73633 0.96193 0.97144 0.0
C1899 C 0.74075 0.98203 0.98039 0.0
C1900 C 0.75492 0.96981 0.98829 0.0
C1901 C 0.73337 0.01571 0.98115 0.0
C1902 C 0.75966 0.98943 0.99708 0.0
H1903 H 0.76244 0.94514 0.98756 0.0
C1904 C 0.75164 0.02288 0.99776 0.0
C1905 C 0.73894 0.03658 0.98981 0.0
C1906 C 0.77282 0.97501 0.00553 0.0
H1907 H 0.72443 0.02637 0.97493 0.0
H1908 H 0.75584 0.03864 0.00448 0.0
C1909 C 0.73206 0.07294 0.99054 0.0
O1910 O 0.77343 0.99132 0.01411 0.0
O1911 O 0.78288 0.94809 0.00479 0.0
O1912 O 0.72014 0.08432 0.98368 0.0
O1913 O 0.73912 0.09385 0.99879 0.0
H1914 H 0.78169 0.98222 0.01972 0.0
H1915 H 0.73517 0.11786 -0.00059 0.0
N1916 N 0.71739 0.92193 0.95568 0.0
C1917 C 0.69805 0.89983 0.94798 0.0
C1918 C 0.72256 0.89652 0.94084 0.0
C1919 C 0.76658 0.917 0.9422 0.0
C1920 C 0.78507 0.93973 0.95059 0.0
C1921 C 0.75861 0.94161 0.95742 0.0
N1922 N 0.63674 0.88519 0.95702 0.0
C1923 C 0.6519 0.87872 0.94872 0.0
O1924 O 0.62705 0.85192 0.94232 0.0
C1925 C 0.76979 0.96364 0.96661 0.0
O1926 O 0.86427 0.09966 0.97775 0.0
O1927 O 0.86942 0.05321 0.98604 0.0
C1928 C 0.59412 0.85852 0.96006 0.0
C1929 C 0.56675 0.87468 0.96095 0.0
C1930 C 0.52545 0.84875 0.9641 0.0
C1931 C 0.51137 0.80644 0.966 0.0
C1932 C 0.53725 0.78917 0.96455 0.0
C1933 C 0.57892 0.81542 0.96166 0.0
O1934 O 0.91099 0.00598 0.96833 0.0
O1935 O 0.90818 0.99541 0.95298 0.0
O1936 O 0.82979 0.04912 0.95592 0.0
O1937 O 0.84352 0.04981 0.94084 0.0
O1938 O 0.80887 0.97968 0.97041 0.0
C1939 C 0.97394 0.12916 0.9592 0.0
O1940 O 0.95969 0.11714 0.95096 0.0
O1941 O 0.95111 0.10934 0.96629 0.0
C1942 C 0.86412 0.08477 0.98584 0.0
H1943 H 0.59613 0.9759 0.97847 0.0
H1944 H 0.595 0.87121 0.9929 0.0
H1945 H 0.57026 0.92325 0.9916 0.0
H1946 H 0.75873 0.02576 0.96008 0.0
H1947 H 0.7811 0.0459 0.93025 0.0
H1948 H 0.6549 0.97295 0.94114 0.0
H1949 H 0.7308 0.87649 0.98538 0.0
H1950 H 0.68497 0.83182 0.95746 0.0
H1951 H 0.774 0.80426 0.97006 0.0
H1952 H 0.70835 0.87839 0.93452 0.0
H1953 H 0.78629 0.91497 0.9368 0.0
H1954 H 0.81869 0.95537 0.95165 0.0
H1955 H 0.57724 0.90689 0.95904 0.0
H1956 H 0.47876 0.78595 0.96796 0.0
H1957 H 0.59925 0.80242 0.9605 0.0
Cd1958 Cd 0.10694 0.90109 0.9703 0.0
C1959 C 0.16698 0.00155 0.96112 0.0
C1960 C 0.29505 0.86105 0.97793 0.0
O1961 O 0.32739 0.88477 0.98336 0.0
Cd1962 Cd 0.09968 0.91307 0.95304 0.0
C1963 C 0.26892 0.81541 0.97942 0.0
C1964 C 0.21119 0.72931 0.97924 0.0
C1965 C 0.2068 0.75717 0.97327 0.0
N1966 N 0.23493 0.79802 0.97392 0.0
C1967 C 0.27524 0.78955 0.98564 0.0
C1968 C 0.24571 0.74604 0.98554 0.0
Co1969 Co 0.23164 0.83256 0.965 0.0
C1970 C 0.17693 0.7477 0.96544 0.0
O1971 O 0.14605 0.70958 0.96367 0.0
C1972 C 0.15691 0.77955 0.9526 0.0
C1973 C 0.13058 0.79527 0.95437 0.0
C1974 C 0.11411 0.80782 0.94704 0.0
C1975 C 0.11744 0.79639 0.93774 0.0
C1976 C 0.13862 0.77397 0.93593 0.0
C1977 C 0.16013 0.7673 0.94339 0.0
C1978 C 0.10238 0.83975 0.9493 0.0
C1979 C 0.29457 0.92161 0.97075 0.0
C1980 C 0.28897 0.94141 0.97863 0.0
C1981 C 0.31547 0.94555 0.96279 0.0
C1982 C 0.32991 0.98861 0.96266 0.0
C1983 C 0.32444 0.0083 0.97054 0.0
C1984 C 0.30478 0.98498 0.9787 0.0
N1985 N 0.28099 0.87763 0.97113 0.0
N1986 N 0.18383 0.78149 0.9601 0.0
N1987 N 0.19515 0.8464 0.97257 0.0
C1988 C 0.175 0.82752 0.98139 0.0
C1989 C 0.19887 0.83052 0.98935 0.0
C1990 C 0.13103 0.80541 0.98209 0.0
C1991 C 0.1796 0.80848 0.99767 0.0
H1992 H 0.23244 0.85044 0.98912 0.0
C1993 C 0.1356 0.78422 0.99803 0.0
C1994 C 0.11098 0.78326 0.99035 0.0
C1995 C 0.20533 0.81078 0.00598 0.0
H1996 H 0.11231 0.80523 0.97621 0.0
H1997 H 0.12044 0.76685 0.00439 0.0
C1998 C 0.06441 0.75919 0.99098 0.0
O1999 O 0.18656 0.78982 0.01399 0.0
O2000 O 0.24364 0.8316 0.00563 0.0
O2001 O 0.04294 0.7571 0.98419 0.0
O2002 O 0.04544 0.7397 0.99911 0.0
H2003 H 0.20272 0.79094 0.01949 0.0
H2004 H 0.01516 0.72437 -0.00027 0.0
N2005 N 0.22858 0.86692 0.95602 0.0
C2006 C 0.24913 0.871 0.94797 0.0
C2007 C 0.24981 0.89882 0.94114 0.0
C2008 C 0.22882 0.9213 0.9432 0.0
C2009 C 0.20827 0.91608 0.95197 0.0
C2010 C 0.20888 0.88772 0.95845 0.0
N2011 N 0.26765 0.8251 0.95608 0.0
C2012 C 0.27147 0.84707 0.94798 0.0
O2013 O 0.29647 0.84975 0.94105 0.0
C2014 C 0.18985 0.87656 0.96796 0.0
O2015 O 0.05225 0.85047 0.98073 0.0
O2016 O 0.1098 0.89522 0.98767 0.0
C2017 C 0.29501 0.80897 0.95831 0.0
C2018 C 0.27883 0.76542 0.95914 0.0
C2019 C 0.30496 0.75003 0.96211 0.0
C2020 C 0.3474 0.77826 0.9639 0.0
C2021 C 0.36442 0.82144 0.96261 0.0
C2022 C 0.33816 0.83689 0.95981 0.0
O2023 O 0.15253 0.97977 0.96863 0.0
O2024 O 0.15566 0.98355 0.95315 0.0
O2025 O 0.10301 0.84976 0.95798 0.0
O2026 O 0.10211 0.86366 0.94292 0.0
O2027 O 0.17444 0.89911 0.97227 0.0
C2028 C 0.02611 0.91786 0.96076 0.0
O2029 O 0.03485 0.91061 0.95259 0.0
O2030 O 0.04866 0.91907 0.96775 0.0
C2031 C 0.07272 0.86431 0.98836 0.0
H2032 H 0.18949 0.69587 0.97892 0.0
H2033 H 0.30211 0.80225 0.99031 0.0
H2034 H 0.25003 0.7252 0.9902 0.0
H2035 H 0.12751 0.80249 0.96155 0.0
H2036 H 0.10373 0.80488 0.93198 0.0
H2037 H 0.17975 0.75364 0.94203 0.0
H2038 H 0.27267 0.92277 0.98476 0.0
H2039 H 0.3214 0.93123 0.95677 0.0
H2040 H 0.33679 0.04186 0.97034 0.0
H2041 H 0.26642 0.90359 0.93454 0.0
H2042 H 0.22888 0.94308 0.93806 0.0
H2043 H 0.19246 0.93343 0.95358 0.0
H2044 H 0.24622 0.74377 0.95752 0.0
H2045 H 0.36795 0.76627 0.9659 0.0
H2046 H 0.35094 0.87033 0.95889 0.0
Cd2047 Cd 0.25566 0.27966 0.96853 0.0
C2048 C 0.1542 0.2394 0.96028 0.0
C2049 C 0.28874 0.49759 0.97831 0.0
O2050 O 0.264 0.50387 0.98395 0.0
Cd2051 Cd 0.2412 0.25983 0.95077 0.0
C2052 C 0.33424 0.51715 0.98003 0.0
C2053 C 0.42108 0.54894 0.97984 0.0
C2054 C 0.39456 0.51938 0.97321 0.0
N2055 N 0.35333 0.50498 0.97385 0.0
C2056 C 0.35878 0.54667 0.9869 0.0
C2057 C 0.40266 0.56243 0.98677 0.0
Co2058 Co 0.32051 0.47027 0.96433 0.0
C2059 C 0.4057 0.50257 0.96492 0.0
O2060 O 0.44424 0.51081 0.96325 0.0
C2061 C 0.37542 0.45167 0.9518 0.0
C2062 C 0.35915 0.40913 0.95326 0.0
C2063 C 0.34668 0.38129 0.94565 0.0
C2064 C 0.35845 0.39745 0.93649 0.0
C2065 C 0.38096 0.4412 0.93501 0.0
C2066 C 0.38809 0.4684 0.94269 0.0
C2067 C 0.31475 0.33718 0.94751 0.0
C2068 C 0.22961 0.44127 0.9694 0.0
C2069 C 0.20624 0.41399 0.97681 0.0
C2070 C 0.2098 0.43763 0.96075 0.0
C2071 C 0.16956 0.40402 0.9591 0.0
C2072 C 0.14775 0.37488 0.96622 0.0
C2073 C 0.16489 0.38035 0.97536 0.0
N2074 N 0.27364 0.47137 0.97064 0.0
N2075 N 0.37254 0.47574 0.95941 0.0
N2076 N 0.30615 0.41827 0.97108 0.0
C2077 C 0.32271 0.41462 0.98 0.0
C2078 C 0.29709 0.40098 0.98802 0.0
C2079 C 0.364 0.42242 0.98063 0.0
C2080 C 0.31236 0.39535 0.99668 0.0
H2081 H 0.26522 0.39446 0.98743 0.0
C2082 C 0.35406 0.40394 0.99722 0.0
C2083 C 0.38019 0.41763 0.98923 0.0
C2084 C 0.28491 0.38027 0.00515 0.0
H2085 H 0.38337 0.4315 0.97438 0.0
H2086 H 0.36613 0.39971 0.00386 0.0
C2087 C 0.42423 0.42665 0.98989 0.0
O2088 O 0.29876 0.37148 0.0132 0.0
O2089 O 0.24964 0.37566 0.00491 0.0
O2090 O 0.44669 0.4375 0.98289 0.0
O2091 O 0.43983 0.42298 0.99825 0.0
H2092 H 0.28131 0.36137 0.01878 0.0
H2093 H 0.46841 0.4286 0.99884 0.0
N2094 N 0.28814 0.43571 0.95476 0.0
C2095 C 0.28658 0.4545 0.94683 0.0
C2096 C 0.26101 0.42933 0.93947 0.0
C2097 C 0.23809 0.38533 0.94089 0.0
C2098 C 0.24061 0.36751 0.94956 0.0
C2099 C 0.26691 0.39459 0.95659 0.0
N2100 N 0.32898 0.51632 0.95614 0.0
C2101 C 0.30983 0.5007 0.94762 0.0
O2102 O 0.30881 0.52502 0.94094 0.0
C2103 C 0.27581 0.38432 0.96611 0.0
O2104 O 0.3164 0.29131 0.9775 0.0
O2105 O 0.26483 0.28588 0.98587 0.0
C2106 C 0.34424 0.55903 0.959 0.0
C2107 C 0.3876 0.58668 0.96023 0.0
C2108 C 0.40215 0.62776 0.96344 0.0
C2109 C 0.37329 0.64133 0.96503 0.0
C2110 C 0.33044 0.61518 0.96323 0.0
C2111 C 0.31582 0.57376 0.96028 0.0
O2112 O 0.17688 0.2456 0.9676 0.0
O2113 O 0.17117 0.24714 0.95216 0.0
O2114 O 0.3034 0.32657 0.95604 0.0
O2115 O 0.29227 0.31327 0.94092 0.0
O2116 O 0.25201 0.34569 0.97001 0.0
C2117 C 0.23817 0.18185 0.95917 0.0
O2118 O 0.2422 0.19648 0.9509 0.0
O2119 O 0.23978 0.20442 0.96618 0.0
C2120 C 0.30193 0.29174 0.9856 0.0
H2121 H 0.45472 0.56175 0.9796 0.0
H2122 H 0.34481 0.55763 0.99207 0.0
H2123 H 0.42244 0.58554 0.99195 0.0
H2124 H 0.35158 0.39741 0.96039 0.0
H2125 H 0.34998 0.37622 0.93053 0.0
H2126 H 0.40207 0.50187 0.94155 0.0
H2127 H 0.22066 0.41929 0.98369 0.0
H2128 H 0.22555 0.46029 0.9552 0.0
H2129 H 0.11765 0.34823 0.96444 0.0
H2130 H 0.25818 0.44301 0.93294 0.0
H2131 H 0.21802 0.36512 0.93532 0.0
H2132 H 0.22297 0.33395 0.95067 0.0
H2133 H 0.40984 0.57651 0.9586 0.0
H2134 H 0.38473 0.67372 0.96706 0.0
H2135 H 0.28269 0.55318 0.95889 0.0
Cd2136 Cd 0.78006 0.61351 0.80462 0.0
C2137 C 0.84891 0.57921 0.79867 0.0
C2138 C 0.95223 0.83863 0.81332 0.0
O2139 O 0.98225 0.84815 0.81953 0.0
Cd2140 Cd 0.78347 0.5936 0.78773 0.0
C2141 C 0.9234 0.85535 0.814 0.0
C2142 C 0.8648 0.88194 0.81171 0.0
C2143 C 0.86592 0.85256 0.80563 0.0
N2144 N 0.89413 0.84055 0.80728 0.0
C2145 C 0.9243 0.88494 0.82035 0.0
C2146 C 0.89435 0.89802 0.81917 0.0
Co2147 Co 0.89785 0.80595 0.79846 0.0
C2148 C 0.84106 0.83352 0.79702 0.0
O2149 O 0.80939 0.8385 0.79453 0.0
C2150 C 0.82522 0.77956 0.78491 0.0
C2151 C 0.80198 0.73746 0.78705 0.0
C2152 C 0.78948 0.70752 0.77994 0.0
C2153 C 0.79249 0.72029 0.77053 0.0
C2154 C 0.80539 0.76253 0.76835 0.0
C2155 C 0.82517 0.79293 0.77557 0.0
C2156 C 0.78077 0.6654 0.78263 0.0
C2157 C 0.9637 0.78532 0.80559 0.0
C2158 C 0.96048 0.76063 0.81346 0.0
C2159 C 0.98662 0.78512 0.79772 0.0
C2160 C 0.00406 0.75898 0.79753 0.0
C2161 C 0.99966 0.73353 0.80528 0.0
C2162 C 0.97862 0.73489 0.81343 0.0
N2163 N 0.94526 0.81182 0.80592 0.0
N2164 N 0.85087 0.80725 0.79226 0.0
N2165 N 0.86103 0.75371 0.80532 0.0
C2166 C 0.84024 0.74984 0.81418 0.0
C2167 C 0.85109 0.7352 0.82223 0.0
C2168 C 0.80705 0.75808 0.81468 0.0
C2169 C 0.83056 0.73078 0.83088 0.0
H2170 H 0.87526 0.72686 0.82171 0.0
C2171 C 0.79786 0.74001 0.83131 0.0
C2172 C 0.78556 0.75325 0.82322 0.0
C2173 C 0.84307 0.71644 0.83945 0.0
H2174 H 0.79709 0.76699 0.80835 0.0
H2175 H 0.78151 0.73623 0.83792 0.0
C2176 C 0.74993 0.76141 0.82367 0.0
O2177 O 0.82479 0.71457 0.84785 0.0
O2178 O 0.87009 0.70641 0.83898 0.0
O2179 O 0.73984 0.77388 0.81669 0.0
O2180 O 0.72831 0.75497 0.8318 0.0
H2181 H 0.83257 0.70548 0.85353 0.0
H2182 H 0.7048 0.75982 0.83224 0.0
N2183 N 0.90126 0.77148 0.78958 0.0
C2184 C 0.92366 0.79018 0.78187 0.0
C2185 C 0.92927 0.76544 0.77517 0.0
C2186 C 0.91087 0.72192 0.77699 0.0
C2187 C 0.888 0.70419 0.7854 0.0
C2188 C 0.88367 0.73082 0.79177 0.0
N2189 N 0.93606 0.85206 0.79034 0.0
C2190 C 0.94343 0.83627 0.78226 0.0
O2191 O 0.97069 0.86069 0.77587 0.0
C2192 C 0.86165 0.72043 0.80095 0.0
O2193 O 0.72995 0.62569 0.81324 0.0
O2194 O 0.77571 0.62086 0.82187 0.0
C2195 C 0.96326 0.8945 0.7934 0.0
C2196 C 0.94748 0.92202 0.79459 0.0
C2197 C 0.9735 0.96257 0.79812 0.0
C2198 C 0.01566 0.97591 0.80005 0.0
C2199 C 0.03258 0.94996 0.79829 0.0
C2200 C 0.00619 0.90895 0.79505 0.0
O2201 O 0.8268 0.58153 0.80534 0.0
O2202 O 0.84386 0.58803 0.79029 0.0
O2203 O 0.77825 0.65686 0.79142 0.0
O2204 O 0.78551 0.64227 0.77674 0.0
O2205 O 0.84806 0.68262 0.80521 0.0
C2206 C 0.70547 0.51486 0.7946 0.0
O2207 O 0.72192 0.52823 0.78658 0.0
O2208 O 0.72115 0.53838 0.80182 0.0
C2209 C 0.74429 0.62632 0.82142 0.0
H2210 H 0.8426 0.89273 0.81065 0.0
H2211 H 0.94757 0.89799 0.82591 0.0
H2212 H 0.89451 0.92111 0.82392 0.0
H2213 H 0.79812 0.7283 0.79438 0.0
H2214 H 0.78384 0.69719 0.76497 0.0
H2215 H 0.8397 0.82613 0.77407 0.0
H2216 H 0.94411 0.76191 0.81966 0.0
H2217 H 0.99192 0.8057 0.79181 0.0
H2218 H 0.01388 0.71395 0.80501 0.0
H2219 H 0.94786 0.77921 0.76888 0.0
H2220 H 0.91481 0.70206 0.77195 0.0
H2221 H 0.87423 0.67103 0.78683 0.0
H2222 H 0.91539 0.91214 0.79267 0.0
H2223 H 0.03631 0.00803 0.80232 0.0
H2224 H 0.01891 0.88849 0.79373 0.0
Cd2225 Cd 0.54339 0.23371 0.80163 0.0
C2226 C 0.5878 0.33654 0.79409 0.0
C2227 C 0.32299 0.19034 0.81346 0.0
O2228 O 0.31483 0.21171 0.81972 0.0
Cd2229 Cd 0.56543 0.25088 0.78372 0.0
C2230 C 0.30581 0.14479 0.81433 0.0
C2231 C 0.27771 0.05916 0.81236 0.0
C2232 C 0.30604 0.08881 0.80597 0.0
N2233 N 0.31884 0.12929 0.80747 0.0
C2234 C 0.27738 0.11701 0.82099 0.0
C2235 C 0.26353 0.07375 0.81997 0.0
Co2236 Co 0.35192 0.16641 0.79828 0.0
C2237 C 0.32314 0.08185 0.79718 0.0
O2238 O 0.31675 0.0447 0.79468 0.0
C2239 C 0.37327 0.11797 0.78427 0.0
C2240 C 0.41576 0.13456 0.78568 0.0
C2241 C 0.44353 0.14765 0.77807 0.0
C2242 C 0.42736 0.1361 0.76889 0.0
C2243 C 0.38353 0.1128 0.76743 0.0
C2244 C 0.35641 0.10541 0.77516 0.0
C2245 C 0.48764 0.17904 0.78003 0.0
C2246 C 0.37445 0.25403 0.80506 0.0
C2247 C 0.40033 0.27702 0.81266 0.0
C2248 C 0.37234 0.27569 0.79714 0.0
C2249 C 0.39703 0.31937 0.79667 0.0
C2250 C 0.42362 0.34197 0.80414 0.0
C2251 C 0.42513 0.32097 0.81229 0.0
N2252 N 0.3484 0.20913 0.80579 0.0
N2253 N 0.34858 0.11731 0.79214 0.0
N2254 N 0.40535 0.18148 0.80452 0.0
C2255 C 0.41049 0.16585 0.81341 0.0
C2256 C 0.42606 0.19243 0.82127 0.0
C2257 C 0.40187 0.12438 0.81418 0.0
C2258 C 0.43097 0.17736 0.83001 0.0
H2259 H 0.4345 0.2249 0.82052 0.0
C2260 C 0.42125 0.13536 0.83073 0.0
C2261 C 0.4071 0.10872 0.82282 0.0
C2262 C 0.44614 0.20532 0.83839 0.0
H2263 H 0.39209 0.10466 0.80798 0.0
H2264 H 0.42535 0.12356 0.83742 0.0
C2265 C 0.39821 0.06477 0.82358 0.0
O2266 O 0.44758 0.18974 0.84694 0.0
O2267 O 0.45723 0.24255 0.83764 0.0
O2268 O 0.38543 0.04144 0.81673 0.0
O2269 O 0.4043 0.05029 0.83185 0.0
H2270 H 0.4572 0.20735 0.8525 0.0
H2271 H 0.39899 0.02184 0.83249 0.0
N2272 N 0.38483 0.20303 0.78902 0.0
C2273 C 0.36476 0.20588 0.78147 0.0
C2274 C 0.38852 0.23418 0.77433 0.0
C2275 C 0.43262 0.25806 0.77554 0.0
C2276 C 0.45191 0.25369 0.78378 0.0
C2277 C 0.42615 0.22487 0.79062 0.0
N2278 N 0.30443 0.15828 0.79065 0.0
C2279 C 0.31872 0.18034 0.78238 0.0
O2280 O 0.29317 0.18245 0.7762 0.0
C2281 C 0.43817 0.21387 0.79967 0.0
O2282 O 0.53172 0.17239 0.81065 0.0
O2283 O 0.53719 0.22436 0.81886 0.0
C2284 C 0.26232 0.14253 0.79401 0.0
C2285 C 0.2349 0.09906 0.79499 0.0
C2286 C 0.19419 0.08395 0.79852 0.0
C2287 C 0.18083 0.11248 0.80074 0.0
C2288 C 0.20675 0.15557 0.79921 0.0
C2289 C 0.24777 0.17066 0.79593 0.0
O2290 O 0.57981 0.3122 0.80116 0.0
O2291 O 0.58003 0.32129 0.7858 0.0
O2292 O 0.49802 0.18945 0.78861 0.0
O2293 O 0.51203 0.20181 0.77353 0.0
O2294 O 0.47726 0.23744 0.8034 0.0
C2295 C 0.64223 0.25304 0.79236 0.0
O2296 O 0.6282 0.2487 0.78403 0.0
O2297 O 0.61894 0.25091 0.79927 0.0
C2298 C 0.53172 0.18744 0.81871 0.0
H2299 H 0.26634 0.026 0.81143 0.0
H2300 H 0.2658 0.12809 0.82669 0.0
H2301 H 0.24132 0.05152 0.82498 0.0
H2302 H 0.42732 0.14092 0.79285 0.0
H2303 H 0.44867 0.14482 0.76294 0.0
H2304 H 0.3228 0.0906 0.7741 0.0
H2305 H 0.40062 0.26059 0.81896 0.0
H2306 H 0.35071 0.25925 0.79147 0.0
H2307 H 0.44174 0.37583 0.80367 0.0
H2308 H 0.37369 0.23818 0.76813 0.0
H2309 H 0.45177 0.28017 0.77013 0.0
H2310 H 0.4856 0.27195 0.78471 0.0
H2311 H 0.24488 0.07717 0.79286 0.0
H2312 H 0.14861 0.10067 0.80299 0.0
H2313 H 0.2681 0.20396 0.79471 0.0
Cd2314 Cd 0.92356 0.38069 0.80303 0.0
C2315 C 0.82281 0.32789 0.79411 0.0
C2316 C 0.96721 0.20404 0.81413 0.0
O2317 O 0.94582 0.1741 0.8203 0.0
Cd2318 Cd 0.91051 0.39725 0.78381 0.0
C2319 C 0.01275 0.23255 0.81504 0.0
C2320 C 0.09829 0.29096 0.81321 0.0
C2321 C 0.06859 0.28979 0.80686 0.0
N2322 N 0.02818 0.26159 0.80828 0.0
C2323 C 0.04059 0.23172 0.82166 0.0
C2324 C 0.0838 0.26155 0.8207 0.0
Co2325 Co 0.99094 0.25823 0.7992 0.0
C2326 C 0.0754 0.31464 0.7982 0.0
O2327 O 0.11248 0.34578 0.79578 0.0
C2328 C 0.03901 0.32909 0.78541 0.0
C2329 C 0.02135 0.35409 0.78684 0.0
C2330 C 0.00957 0.36999 0.77923 0.0
C2331 C 0.02224 0.3665 0.7701 0.0
C2332 C 0.0454 0.34594 0.76864 0.0
C2333 C 0.05274 0.32602 0.77633 0.0
C2334 C 0.97924 0.38415 0.78106 0.0
C2335 C 0.90353 0.19196 0.80573 0.0
C2336 C 0.88031 0.19489 0.81326 0.0
C2337 C 0.88217 0.16829 0.79777 0.0
C2338 C 0.83849 0.14932 0.79722 0.0
C2339 C 0.81564 0.15333 0.80463 0.0
C2340 C 0.83638 0.1759 0.81279 0.0
N2341 N 0.94842 0.21108 0.80652 0.0
N2342 N 0.03984 0.30486 0.79321 0.0
N2343 N 0.97566 0.2956 0.80578 0.0
C2344 C 0.99222 0.31659 0.81461 0.0
C2345 C 0.96671 0.30508 0.82266 0.0
C2346 C 0.03338 0.35028 0.81512 0.0
C2347 C 0.98261 0.32554 0.83133 0.0
H2348 H 0.9344 0.28038 0.82213 0.0
C2349 C 0.02437 0.35862 0.83178 0.0
C2350 C 0.04989 0.37152 0.82368 0.0
C2351 C 0.95571 0.31255 0.83989 0.0
H2352 H 0.05218 0.36061 0.80877 0.0
H2353 H 0.0368 0.37484 0.83841 0.0
C2354 C 0.09352 0.40745 0.82416 0.0
O2355 O 0.97195 0.33077 0.84831 0.0
O2356 O 0.91876 0.28526 0.8394 0.0
O2357 O 0.11588 0.41841 0.81714 0.0
O2358 O 0.10877 0.42838 0.83237 0.0
H2359 H 0.95501 0.32277 0.85398 0.0
H2360 H 0.13702 0.45209 0.83282 0.0
N2361 N 0.95411 0.25519 0.79007 0.0
C2362 C 0.95131 0.23314 0.78236 0.0
C2363 C 0.92274 0.22903 0.77533 0.0
C2364 C 0.89849 0.24866 0.77682 0.0
C2365 C 0.90275 0.27131 0.78522 0.0
C2366 C 0.93185 0.27397 0.79194 0.0
N2367 N 0.9993 0.21993 0.79125 0.0
C2368 C 0.97718 0.21292 0.78301 0.0
O2369 O 0.97509 0.18592 0.77665 0.0
C2370 C 0.94291 0.29602 0.80112 0.0
O2371 O 0.98592 0.42764 0.81203 0.0
O2372 O 0.93248 0.38321 0.82025 0.0
C2373 C 0.01461 0.19299 0.79443 0.0
C2374 C 0.05794 0.20886 0.79565 0.0
C2375 C 0.07255 0.1828 0.79914 0.0
C2376 C 0.0437 0.14062 0.80104 0.0
C2377 C 1.00081 0.1237 0.79926 0.0
C2378 C 0.9862 0.1501 0.79604 0.0
O2379 O 0.84542 0.33924 0.80155 0.0
O2380 O 0.83957 0.34141 0.78607 0.0
O2381 O 0.96544 0.38105 0.78945 0.0
O2382 O 0.96147 0.39223 0.77441 0.0
O2383 O 0.91947 0.31117 0.80505 0.0
C2384 C 0.91557 0.46951 0.79622 0.0
O2385 O 0.92229 0.46467 0.78767 0.0
O2386 O 0.91109 0.4422 0.80236 0.0
C2387 C 0.97011 0.41353 0.8201 0.0
H2388 H 0.13141 0.31314 0.81234 0.0
H2389 H 0.0296 0.20866 0.82727 0.0
H2390 H 0.10609 0.26146 0.82568 0.0
H2391 H 0.01396 0.35843 0.79398 0.0
H2392 H 0.01433 0.37982 0.76416 0.0
H2393 H 0.06819 0.30786 0.77525 0.0
H2394 H 0.89656 0.21168 0.81957 0.0
H2395 H 0.89888 0.16335 0.79212 0.0
H2396 H 0.78178 0.13768 0.80408 0.0
H2397 H 0.9188 0.21093 0.769 0.0
H2398 H 0.87617 0.24602 0.7715 0.0
H2399 H 0.8842 0.28627 0.78637 0.0
H2400 H 0.08012 0.24097 0.79376 0.0
H2401 H 0.0552 0.1199 0.80323 0.0
H2402 H 0.95304 0.13733 0.79466 0.0
Cd2403 Cd 0.27784 0.0996 0.02993 0.0
C2404 C 0.23919 0.16394 0.03676 0.0
C2405 C 0.50071 0.28097 0.01913 0.0
O2406 O 0.5091 0.31156 0.01316 0.0
Cd2407 Cd 0.25949 0.10068 0.04738 0.0
C2408 C 0.51811 0.25295 0.01793 0.0
C2409 C 0.54697 0.19584 0.01935 0.0
C2410 C 0.51767 0.19543 0.02572 0.0
N2411 N 0.50434 0.22284 0.02445 0.0
C2412 C 0.54752 0.25539 0.01132 0.0
C2413 C 0.56169 0.22612 0.01204 0.0
Co2414 Co 0.47077 0.22523 0.03376 0.0
C2415 C 0.50022 0.16989 0.0343 0.0
O2416 O 0.50701 0.13913 0.03655 0.0
C2417 C 0.44946 0.1537 0.0472 0.0
C2418 C 0.40703 0.1275 0.0457 0.0
C2419 C 0.37897 0.11325 0.05328 0.0
C2420 C 0.39484 0.11841 0.0625 0.0
C2421 C 0.43861 0.1392 0.06403 0.0
C2422 C 0.46599 0.15841 0.05634 0.0
C2423 C 0.33518 0.10161 0.05123 0.0
C2424 C 0.44663 0.28944 0.02737 0.0
C2425 C 0.42194 0.2868 0.01956 0.0
C2426 C 0.44614 0.3114 0.0354 0.0
C2427 C 0.42021 0.32908 0.0357 0.0
C2428 C 0.39534 0.32594 0.02793 0.0
C2429 C 0.39689 0.30569 0.01966 0.0
N2430 N 0.47433 0.27248 0.02671 0.0
N2431 N 0.47417 0.17871 0.03945 0.0
N2432 N 0.4173 0.18749 0.02736 0.0
C2433 C 0.41196 0.16837 0.01823 0.0
C2434 C 0.39257 0.17797 0.01088 0.0
C2435 C 0.42276 0.13732 0.01683 0.0
C2436 C 0.38533 0.15799 0.00206 0.0
H2437 H 0.3823 0.20039 0.01212 0.0
C2438 C 0.39758 0.12781 0.00069 0.0
C2439 C 0.41613 0.1171 0.00805 0.0
C2440 C 0.3644 0.16806 0.99435 0.0
H2441 H 0.43503 0.12792 0.02267 0.0
H2442 H 0.392 0.11212 0.99393 0.0
C2443 C 0.42795 0.08438 0.00659 0.0
O2444 O 0.35614 0.14758 0.98601 0.0
O2445 O 0.3544 0.19483 0.9955 0.0
O2446 O 0.44373 0.07475 0.01301 0.0
O2447 O 0.42129 0.06498 0.99814 0.0
H2448 H 0.3422 0.15337 0.98092 0.0
H2449 H 0.42853 0.0434 0.99705 0.0
N2450 N 0.43752 0.22735 0.04317 0.0
C2451 C 0.45737 0.24921 0.05086 0.0
C2452 C 0.43336 0.25209 0.05818 0.0
C2453 C 0.38925 0.23152 0.057 0.0
C2454 C 0.37018 0.20905 0.04862 0.0
C2455 C 0.39616 0.20747 0.04161 0.0
N2456 N 0.51808 0.26373 0.0416 0.0
C2457 C 0.50342 0.27015 0.04997 0.0
O2458 O 0.52869 0.29665 0.05637 0.0
C2459 C 0.38424 0.18559 0.03242 0.0
O2460 O 0.28967 0.05022 0.02101 0.0
O2461 O 0.28306 0.09549 0.01259 0.0
C2462 C 0.56062 0.29043 0.0385 0.0
C2463 C 0.58801 0.27431 0.03753 0.0
C2464 C 0.62935 0.30039 0.03442 0.0
C2465 C 0.6435 0.34283 0.03267 0.0
C2466 C 0.61765 0.36005 0.03423 0.0
C2467 C 0.57592 0.33365 0.03706 0.0
O2468 O 0.24307 0.14361 0.0299 0.0
O2469 O 0.24902 0.15882 0.04505 0.0
O2470 O 0.32467 0.09981 0.04259 0.0
O2471 O 0.31215 0.10391 0.05757 0.0
O2472 O 0.34486 0.16983 0.0288 0.0
C2473 C 0.18021 0.02277 0.04018 0.0
O2474 O 0.19478 0.03774 0.04826 0.0
O2475 O 0.20291 0.03996 0.03291 0.0
C2476 C 0.28918 0.06446 0.01288 0.0
H2477 H 0.55876 0.17431 0.0201 0.0
H2478 H 0.55968 0.27934 0.0059 0.0
H2479 H 0.58467 0.22747 0.00707 0.0
H2480 H 0.39578 0.12244 0.0385 0.0
H2481 H 0.37339 0.10625 0.06843 0.0
H2482 H 0.49953 0.17743 0.05746 0.0
H2483 H 0.42311 0.27071 0.01328 0.0
H2484 H 0.46658 0.31609 0.0413 0.0
H2485 H 0.37617 0.3406 0.02827 0.0
H2486 H 0.44801 0.2699 0.06451 0.0
H2487 H 0.36991 0.23321 0.06254 0.0
H2488 H 0.33648 0.19328 0.04771 0.0
H2489 H 0.57753 0.24202 0.03937 0.0
H2490 H 0.67613 0.36342 0.03074 0.0
H2491 H 0.55563 0.34663 0.03831 0.0
Cd2492 Cd 0.04489 0.2452 0.02691 0.0
C2493 C 0.98384 0.14299 0.03486 0.0
C2494 C 0.86433 0.29513 0.01985 0.0
O2495 O 0.83293 0.27357 0.01402 0.0
Cd2496 Cd 0.04868 0.22818 0.04377 0.0
C2497 C 0.89216 0.34087 0.01893 0.0
C2498 C 0.95334 0.42584 0.01996 0.0
C2499 C 0.9537 0.39616 0.02607 0.0
N2500 N 0.92414 0.356 0.02501 0.0
C2501 C 0.88987 0.36867 0.01254 0.0
C2502 C 0.9212 0.41155 0.01306 0.0
Co2503 Co 0.92438 0.31846 0.03351 0.0
C2504 C 0.98149 0.40289 0.03419 0.0
O2505 O 0.01365 0.43986 0.03627 0.0
C2506 C 0.99859 0.36675 0.04657 0.0
C2507 C 0.02219 0.34849 0.04437 0.0
C2508 C 0.03664 0.3326 0.05138 0.0
C2509 C 0.03439 0.3428 0.06079 0.0
C2510 C 0.02066 0.37149 0.06303 0.0
C2511 C 0.99942 0.38084 0.05589 0.0
C2512 C 0.04667 0.30016 0.04861 0.0
C2513 C 0.85839 0.23146 0.027 0.0
C2514 C 0.86438 0.21051 0.0194 0.0
C2515 C 0.83326 0.20818 0.03461 0.0
C2516 C 0.81463 0.16454 0.03467 0.0
C2517 C 0.82062 0.14371 0.02711 0.0
C2518 C 0.84543 0.16647 0.01934 0.0
N2519 N 0.87568 0.27612 0.02664 0.0
N2520 N 0.97215 0.36766 0.03926 0.0
N2521 N 0.96102 0.30498 0.02586 0.0
C2522 C 0.98209 0.32482 0.01719 0.0
C2523 C 0.95905 0.32255 0.00913 0.0
C2524 C 0.02611 0.34667 0.01668 0.0
C2525 C 0.97912 0.34558 0.00097 0.0
H2526 H 0.9255 0.30244 0.00915 0.0
C2527 C 0.02316 0.36945 0.00079 0.0
C2528 C 0.047 0.36923 0.00852 0.0
C2529 C 0.95418 0.34467 0.99263 0.0
H2530 H 0.04427 0.34618 0.02261 0.0
H2531 H 0.03896 0.38736 0.99454 0.0
C2532 C 0.0936 0.39234 0.00802 0.0
O2533 O 0.97369 0.36706 0.98482 0.0
O2534 O 0.91585 0.32376 0.99277 0.0
O2535 O 0.11444 0.39362 0.01487 0.0
O2536 O 0.11329 0.41177 -6e-05 0.0
H2537 H 0.95805 0.36689 0.9793 0.0
H2538 H 0.1436 0.42644 -0.00059 0.0
N2539 N 0.92451 0.28095 0.04205 0.0
C2540 C 0.90258 0.27524 0.04995 0.0
C2541 C 0.89881 0.24441 0.05631 0.0
C2542 C 0.91831 0.2208 0.05394 0.0
C2543 C 0.94038 0.22784 0.04533 0.0
C2544 C 0.94282 0.25913 0.03932 0.0
N2545 N 0.88738 0.32469 0.04237 0.0
C2546 C 0.88162 0.30048 0.0502 0.0
O2547 O 0.8553 0.29631 0.05696 0.0
C2548 C 0.96358 0.2723 0.03 0.0
O2549 O 0.09967 0.29701 0.01676 0.0
O2550 O 0.04216 0.25324 0.00964 0.0
C2551 C 0.85987 0.34054 0.04003 0.0
C2552 C 0.87596 0.38398 0.03904 0.0
C2553 C 0.84984 0.39906 0.03588 0.0
C2554 C 0.80739 0.37071 0.03415 0.0
C2555 C 0.79039 0.32764 0.0356 0.0
C2556 C 0.8167 0.31245 0.03853 0.0
O2557 O 1.00035 0.16651 0.02766 0.0
O2558 O 0.99252 0.15879 0.04306 0.0
O2559 O 0.0482 0.29356 0.03979 0.0
O2560 O 0.04431 0.27351 0.05458 0.0
O2561 O 0.97843 0.24984 0.02542 0.0
C2562 C 0.12532 0.2283 0.03652 0.0
O2563 O 0.11348 0.23104 0.04474 0.0
O2564 O 0.1047 0.22958 0.0294 0.0
C2565 C 0.07934 0.28409 0.00908 0.0
H2566 H 0.97656 0.45879 0.02053 0.0
H2567 H 0.86497 0.35783 0.00736 0.0
H2568 H 0.92025 0.43378 0.00821 0.0
H2569 H 0.02467 0.34229 0.0371 0.0
H2570 H 0.04418 0.32914 0.06631 0.0
H2571 H 0.98439 0.39901 0.05744 0.0
H2572 H 0.88365 0.22862 0.01349 0.0
H2573 H 0.82712 0.22352 0.04039 0.0
H2574 H 0.80478 0.10979 0.02724 0.0
H2575 H 0.88084 0.23813 0.06275 0.0
H2576 H 0.9158 0.19668 0.05871 0.0
H2577 H 0.9549 0.20951 0.04347 0.0
H2578 H 0.90852 0.4058 0.04066 0.0
H2579 H 0.78683 0.38255 0.03206 0.0
H2580 H 0.80392 0.27907 0.03955 0.0
Cd2581 Cd 0.89962 0.86624 0.02935 0.0
C2582 C 0.99964 0.91097 0.03876 0.0
C2583 C 0.86748 0.64953 0.02026 0.0
O2584 O 0.89232 0.64311 0.01469 0.0
Cd2585 Cd 0.90979 0.89005 0.04732 0.0
C2586 C 0.82188 0.62932 0.01858 0.0
C2587 C 0.73491 0.59668 0.01879 0.0
C2588 C 0.76138 0.62722 0.02527 0.0
N2589 N 0.80267 0.64193 0.02462 0.0
C2590 C 0.7974 0.59883 0.01188 0.0
C2591 C 0.75344 0.58264 0.01202 0.0
Co2592 Co 0.83544 0.67778 0.03399 0.0
C2593 C 0.75013 0.64466 0.03341 0.0
O2594 O 0.71148 0.63603 0.03508 0.0
C2595 C 0.78018 0.69647 0.04637 0.0
C2596 C 0.79649 0.73895 0.04484 0.0
C2597 C 0.80803 0.76696 0.05239 0.0
C2598 C 0.79567 0.75109 0.06154 0.0
C2599 C 0.77357 0.70743 0.0631 0.0
C2600 C 0.76703 0.67998 0.0555 0.0
C2601 C 0.83925 0.81122 0.05053 0.0
C2602 C 0.92649 0.70772 0.0288 0.0
C2603 C 0.94899 0.73449 0.02123 0.0
C2604 C 0.94692 0.71302 0.03744 0.0
C2605 C 0.98663 0.74774 0.03891 0.0
C2606 C 0.00738 0.7764 0.03164 0.0
C2607 C 0.98986 0.76934 0.0225 0.0
N2608 N 0.88256 0.67667 0.02777 0.0
N2609 N 0.78327 0.67222 0.03884 0.0
N2610 N 0.84913 0.72881 0.02694 0.0
C2611 C 0.83164 0.73145 0.01806 0.0
C2612 C 0.85632 0.74382 0.00989 0.0
C2613 C 0.79046 0.72409 0.01761 0.0
C2614 C 0.8403 0.74882 0.00128 0.0
H2615 H 0.88806 0.74988 0.01033 0.0
C2616 C 0.79877 0.74083 0.00093 0.0
C2617 C 0.77352 0.72828 0.00906 0.0
C2618 C 0.86684 0.76272 0.99265 0.0
H2619 H 0.77177 0.71585 0.02396 0.0
H2620 H 0.78613 0.7446 0.99433 0.0
C2621 C 0.72965 0.71991 0.00861 0.0
O2622 O 0.85244 0.77117 0.98465 0.0
O2623 O 0.90185 0.76665 0.99273 0.0
O2624 O 0.70794 0.70991 0.01573 0.0
O2625 O 0.71341 0.72326 0.00031 0.0
H2626 H 0.8693 0.7805 0.97897 0.0
H2627 H 0.68493 0.71808 -0.00014 0.0
N2628 N 0.86783 0.71347 0.04341 0.0
C2629 C 0.87 0.69566 0.05144 0.0
C2630 C 0.89592 0.72174 0.05865 0.0
C2631 C 0.91863 0.76556 0.05696 0.0
C2632 C 0.91561 0.78229 0.04818 0.0
C2633 C 0.88898 0.75431 0.04131 0.0
N2634 N 0.82754 0.63284 0.04246 0.0
C2635 C 0.84702 0.6494 0.0509 0.0
O2636 O 0.8484 0.62585 0.05772 0.0
C2637 C 0.87979 0.76329 0.0317 0.0
O2638 O 0.83824 0.8541 0.02064 0.0
O2639 O 0.88905 0.85882 0.01206 0.0
C2640 C 0.81171 0.58981 0.03986 0.0
C2641 C 0.76818 0.56221 0.03889 0.0
C2642 C 0.75317 0.52104 0.03569 0.0
C2643 C 0.78177 0.50737 0.03389 0.0
C2644 C 0.82486 0.53364 0.03537 0.0
C2645 C 0.83991 0.57505 0.03833 0.0
O2646 O 0.97828 0.9013 0.03112 0.0
O2647 O 0.98114 0.90602 0.04663 0.0
O2648 O 0.85281 0.82135 0.04211 0.0
O2649 O 0.85859 0.83662 0.05718 0.0
O2650 O 0.90372 0.8012 0.02753 0.0
C2651 C 0.91303 0.96413 0.03706 0.0
O2652 O 0.90391 0.95021 0.04541 0.0
O2653 O 0.91615 0.94145 0.03066 0.0
C2654 C 0.85202 0.85316 0.01248 0.0
H2655 H 0.70123 0.58352 0.01906 0.0
H2656 H 0.81146 0.58745 0.00683 0.0
H2657 H 0.73371 0.55876 0.00697 0.0
H2658 H 0.80454 0.75055 0.03771 0.0
H2659 H 0.80355 0.77248 0.06745 0.0
H2660 H 0.75322 0.64659 0.05672 0.0
H2661 H 0.93424 0.7279 0.01437 0.0
H2662 H 0.93192 0.6909 0.04311 0.0
H2663 H 0.03695 0.80395 0.03332 0.0
H2664 H 0.89921 0.70887 0.06526 0.0
H2665 H 0.93898 0.78647 0.06241 0.0
H2666 H 0.93321 0.81571 0.04686 0.0
H2667 H 0.74622 0.5726 0.04064 0.0
H2668 H 0.77008 0.47498 0.03181 0.0
H2669 H 0.87325 0.59574 0.03944 0.0
Cd2670 Cd 0.04778 0.87121 0.52983 0.0
C2671 C 0.98911 0.91432 0.53814 0.0
C2672 C 0.86979 0.64864 0.51923 0.0
O2673 O 0.83915 0.63955 0.51322 0.0
Cd2674 Cd 0.05596 0.89451 0.54786 0.0
C2675 C 0.89821 0.63163 0.51819 0.0
C2676 C 0.95616 0.60392 0.51988 0.0
C2677 C 0.95596 0.63319 0.52615 0.0
N2678 N 0.92804 0.6458 0.52478 0.0
C2679 C 0.89637 0.60221 0.51167 0.0
C2680 C 0.92602 0.58857 0.51254 0.0
Co2681 Co 0.92516 0.67974 0.53393 0.0
C2682 C 0.9813 0.65127 0.53473 0.0
O2683 O 0.01236 0.64509 0.53708 0.0
C2684 C 0.99673 0.70237 0.54749 0.0
C2685 C 0.02218 0.74483 0.54593 0.0
C2686 C 0.03739 0.77296 0.55347 0.0
C2687 C 0.03355 0.75733 0.56268 0.0
C2688 C 0.01315 0.71366 0.56425 0.0
C2689 C 0.9933 0.68603 0.55662 0.0
C2690 C 0.04978 0.81689 0.55146 0.0
C2691 C 0.85927 0.70153 0.52741 0.0
C2692 C 0.86147 0.72614 0.51963 0.0
C2693 C 0.83613 0.70055 0.53535 0.0
C2694 C 0.81675 0.72494 0.5356 0.0
C2695 C 0.81949 0.74979 0.52785 0.0
C2696 C 0.84112 0.74981 0.51967 0.0
N2697 N 0.87768 0.67511 0.52676 0.0
N2698 N 0.97194 0.67721 0.53977 0.0
N2699 N 0.96246 0.73262 0.52735 0.0
C2700 C 0.98232 0.7372 0.51835 0.0
C2701 C 0.971 0.75299 0.51058 0.0
C2702 C 0.01506 0.72848 0.51742 0.0
C2703 C 0.99046 0.75791 0.50176 0.0
H2704 H 0.94731 0.76181 0.51145 0.0
C2705 C 0.02263 0.74809 0.50089 0.0
C2706 C 0.03548 0.73379 0.50871 0.0
C2707 C 0.97731 0.77335 0.49348 0.0
H2708 H 0.02544 0.71877 0.52356 0.0
H2709 H 0.03815 0.75224 0.49414 0.0
C2710 C 0.07054 0.72495 0.50779 0.0
O2711 O 0.9945 0.77572 0.48491 0.0
O2712 O 0.95073 0.78381 0.49434 0.0
O2713 O 0.08132 0.71188 0.51455 0.0
O2714 O 0.09088 0.73142 0.49947 0.0
H2715 H 0.9863 0.78555 0.47941 0.0
H2716 H 0.11402 0.72616 0.49873 0.0
N2717 N 0.92258 0.71348 0.54315 0.0
C2718 C 0.90069 0.69415 0.55087 0.0
C2719 C 0.89707 0.71854 0.55799 0.0
C2720 C 0.91699 0.76247 0.55657 0.0
C2721 C 0.93943 0.78097 0.54815 0.0
C2722 C 0.94164 0.7546 0.54134 0.0
N2723 N 0.88701 0.63305 0.54191 0.0
C2724 C 0.88021 0.64807 0.55018 0.0
O2725 O 0.85338 0.62311 0.55656 0.0
C2726 C 0.9634 0.7658 0.53213 0.0
O2727 O 0.09638 0.85805 0.52081 0.0
O2728 O 0.05096 0.86509 0.51253 0.0
C2729 C 0.86022 0.59071 0.53877 0.0
C2730 C 0.8763 0.56342 0.53769 0.0
C2731 C 0.85061 0.52276 0.53418 0.0
C2732 C 0.80854 0.50928 0.53208 0.0
C2733 C 0.79139 0.53516 0.53368 0.0
C2734 C 0.81739 0.57611 0.53699 0.0
O2735 O 0.00434 0.90662 0.53081 0.0
O2736 O 0.99939 0.90813 0.54629 0.0
O2737 O 0.04827 0.82681 0.54291 0.0
O2738 O 0.05294 0.84176 0.55799 0.0
O2739 O 0.97831 0.80452 0.52825 0.0
C2740 C 0.13074 0.96905 0.53848 0.0
O2741 O 0.12176 0.95576 0.54687 0.0
O2742 O 0.10783 0.9462 0.5317 0.0
C2743 C 0.08187 0.85872 0.51272 0.0
H2744 H 0.97807 0.59263 0.52071 0.0
H2745 H 0.8726 0.58966 0.50621 0.0
H2746 H 0.92513 0.56558 0.50764 0.0
H2747 H 0.02658 0.75601 0.53874 0.0
H2748 H 0.04643 0.77889 0.56857 0.0
H2749 H 0.97489 0.65249 0.55779 0.0
H2750 H 0.87851 0.72602 0.51344 0.0
H2751 H 0.83182 0.6801 0.54123 0.0
H2752 H 0.80362 0.76783 0.52816 0.0
H2753 H 0.87917 0.7043 0.56433 0.0
H2754 H 0.91474 0.78211 0.56196 0.0
H2755 H 0.9546 0.81453 0.54705 0.0
H2756 H 0.90836 0.57353 0.53969 0.0
H2757 H 0.7881 0.47712 0.52981 0.0
H2758 H 0.80446 0.59645 0.53824 0.0
Cd2759 Cd 0.28056 0.24912 0.52853 0.0
C2760 C 0.23919 0.1476 0.53648 0.0
C2761 C 0.50404 0.29678 0.51839 0.0
O2762 O 0.51292 0.27561 0.51223 0.0
Cd2763 Cd 0.25679 0.23297 0.54631 0.0
C2764 C 0.52117 0.34234 0.51755 0.0
C2765 C 0.54806 0.42776 0.51946 0.0
C2766 C 0.51939 0.39791 0.52576 0.0
N2767 N 0.50732 0.35757 0.52431 0.0
C2768 C 0.55 0.37035 0.51099 0.0
C2769 C 0.56324 0.4135 0.51197 0.0
Co2770 Co 0.47286 0.32002 0.53328 0.0
C2771 C 0.50094 0.40451 0.53438 0.0
O2772 O 0.50645 0.44145 0.53676 0.0
C2773 C 0.44873 0.36767 0.54691 0.0
C2774 C 0.40631 0.34903 0.54515 0.0
C2775 C 0.37755 0.33488 0.55254 0.0
C2776 C 0.39209 0.34677 0.56178 0.0
C2777 C 0.43534 0.37377 0.56358 0.0
C2778 C 0.46406 0.38241 0.55606 0.0
C2779 C 0.33398 0.30319 0.55034 0.0
C2780 C 0.45238 0.23282 0.5267 0.0
C2781 C 0.42637 0.20949 0.51915 0.0
C2782 C 0.45484 0.21155 0.53466 0.0
C2783 C 0.43032 0.16789 0.53522 0.0
C2784 C 0.40354 0.14493 0.52781 0.0
C2785 C 0.40167 0.16555 0.51963 0.0
N2786 N 0.47787 0.27776 0.52594 0.0
N2787 N 0.47498 0.36887 0.53932 0.0
N2788 N 0.4205 0.30489 0.52652 0.0
C2789 C 0.41659 0.32211 0.51773 0.0
C2790 C 0.40383 0.29744 0.50954 0.0
C2791 C 0.42319 0.36298 0.5174 0.0
C2792 C 0.39943 0.31387 0.50093 0.0
H2793 H 0.39717 0.26542 0.50992 0.0
C2794 C 0.40682 0.3552 0.50068 0.0
C2795 C 0.41833 0.37988 0.5089 0.0
C2796 C 0.38714 0.28801 0.49221 0.0
H2797 H 0.43105 0.38122 0.52381 0.0
H2798 H 0.40302 0.36796 0.4941 0.0
C2799 C 0.42471 0.42304 0.50862 0.0
O2800 O 0.38624 0.3051 0.48383 0.0
O2801 O 0.37795 0.25118 0.49254 0.0
O2802 O 0.43521 0.44472 0.51575 0.0
O2803 O 0.41882 0.4386 0.50049 0.0
H2804 H 0.37848 0.28888 0.47806 0.0
H2805 H 0.4225 0.46653 0.50016 0.0
N2806 N 0.4384 0.28279 0.54227 0.0
C2807 C 0.45719 0.27939 0.55 0.0
C2808 C 0.43239 0.2498 0.55683 0.0
C2809 C 0.38868 0.22515 0.55512 0.0
C2810 C 0.37081 0.23001 0.5467 0.0
C2811 C 0.39755 0.26012 0.54019 0.0
N2812 N 0.51909 0.32799 0.54136 0.0
C2813 C 0.50335 0.3054 0.54953 0.0
O2814 O 0.52782 0.30298 0.55596 0.0
C2815 C 0.38703 0.27163 0.531 0.0
O2816 O 0.29299 0.31122 0.51982 0.0
O2817 O 0.28797 0.26017 0.51131 0.0
C2818 C 0.56166 0.3435 0.53835 0.0
C2819 C 0.58915 0.38688 0.53719 0.0
C2820 C 0.63002 0.40161 0.53382 0.0
C2821 C 0.64364 0.37295 0.53201 0.0
C2822 C 0.61763 0.33003 0.5337 0.0
C2823 C 0.57642 0.31522 0.53682 0.0
O2824 O 0.24629 0.17052 0.52917 0.0
O2825 O 0.2449 0.16369 0.54465 0.0
O2826 O 0.32462 0.29281 0.54172 0.0
O2827 O 0.30858 0.28102 0.55675 0.0
O2828 O 0.3486 0.24826 0.52692 0.0
C2829 C 0.18193 0.23293 0.53726 0.0
O2830 O 0.19531 0.23695 0.54564 0.0
O2831 O 0.20481 0.23329 0.53043 0.0
C2832 C 0.29355 0.29713 0.51167 0.0
H2833 H 0.55888 0.46083 0.52034 0.0
H2834 H 0.56226 0.35954 0.50538 0.0
H2835 H 0.58569 0.43591 0.50703 0.0
H2836 H 0.39576 0.34232 0.53793 0.0
H2837 H 0.36962 0.33565 0.56752 0.0
H2838 H 0.4976 0.40085 0.55714 0.0
H2839 H 0.42572 0.22564 0.51284 0.0
H2840 H 0.47646 0.22832 0.54031 0.0
H2841 H 0.38545 0.11109 0.52836 0.0
H2842 H 0.4462 0.24526 0.56314 0.0
H2843 H 0.36877 0.20198 0.56028 0.0
H2844 H 0.33746 0.21105 0.54537 0.0
H2845 H 0.57904 0.40898 0.53902 0.0
H2846 H 0.67593 0.38456 0.52985 0.0
H2847 H 0.55602 0.28201 0.53812 0.0
Cd2848 Cd 0.90068 0.10286 0.52869 0.0
C2849 C 0.00332 0.16571 0.53617 0.0
C2850 C 0.8583 0.28343 0.51908 0.0
O2851 O 0.88084 0.3139 0.51311 0.0
Cd2852 Cd 0.91811 0.10188 0.54576 0.0
C2853 C 0.81258 0.25646 0.518 0.0
C2854 C 0.72648 0.19915 0.51922 0.0
C2855 C 0.75498 0.19919 0.52577 0.0
N2856 N 0.79571 0.22702 0.52465 0.0
C2857 C 0.786 0.2584 0.5112 0.0
C2858 C 0.7425 0.22911 0.51184 0.0
Co2859 Co 0.83176 0.22711 0.53365 0.0
C2860 C 0.74671 0.17262 0.53419 0.0
O2861 O 0.7091 0.14152 0.53628 0.0
C2862 C 0.781 0.15432 0.54676 0.0
C2863 C 0.79675 0.128 0.54487 0.0
C2864 C 0.81045 0.11239 0.55219 0.0
C2865 C 0.80009 0.11633 0.56154 0.0
C2866 C 0.77751 0.13722 0.56345 0.0
C2867 C 0.76949 0.15779 0.55602 0.0
C2868 C 0.84273 0.10132 0.54982 0.0
C2869 C 0.92074 0.29308 0.52768 0.0
C2870 C 0.94488 0.29147 0.52017 0.0
C2871 C 0.9413 0.31551 0.53583 0.0
C2872 C 0.9849 0.33428 0.53662 0.0
C2873 C 0.00857 0.3314 0.52923 0.0
C2874 C 0.98877 0.31025 0.52087 0.0
N2875 N 0.87592 0.27454 0.52664 0.0
N2876 N 0.78151 0.18067 0.53928 0.0
N2877 N 0.84491 0.18916 0.52667 0.0
C2878 C 0.82783 0.17138 0.51761 0.0
C2879 C 0.85162 0.18816 0.50941 0.0
C2880 C 0.78598 0.13929 0.51687 0.0
C2881 C 0.83313 0.17537 0.50045 0.0
H2882 H 0.88432 0.21146 0.51004 0.0
C2883 C 0.79044 0.14455 0.49981 0.0
C2884 C 0.76684 0.12564 0.508 0.0
C2885 C 0.85829 0.19391 0.49175 0.0
H2886 H 0.76824 0.12529 0.52324 0.0
H2887 H 0.77588 0.13451 0.49294 0.0
C2888 C 0.72226 0.09189 0.50726 0.0
O2889 O 0.84063 0.18042 0.48316 0.0
O2890 O 0.89514 0.22142 0.4923 0.0
O2891 O 0.70134 0.07651 0.51439 0.0
O2892 O 0.70453 0.07784 0.4987 0.0
H2893 H 0.85647 0.192 0.47741 0.0
H2894 H 0.67554 0.05577 0.49806 0.0
N2895 N 0.86745 0.22693 0.54266 0.0
C2896 C 0.87134 0.24853 0.55052 0.0
C2897 C 0.89976 0.25089 0.5574 0.0
C2898 C 0.92279 0.23022 0.5556 0.0
C2899 C 0.91751 0.20828 0.54703 0.0
C2900 C 0.88857 0.20725 0.54048 0.0
N2901 N 0.82503 0.26528 0.54197 0.0
C2902 C 0.847 0.27049 0.55016 0.0
O2903 O 0.85011 0.29706 0.55675 0.0
C2904 C 0.87675 0.1863 0.53115 0.0
O2905 O 0.85092 0.04563 0.51867 0.0
O2906 O 0.88885 0.10519 0.51163 0.0
C2907 C 0.80974 0.29272 0.53917 0.0
C2908 C 0.76636 0.27709 0.53808 0.0
C2909 C 0.75185 0.30324 0.53461 0.0
C2910 C 0.78075 0.34534 0.53269 0.0
C2911 C 0.82371 0.36201 0.53432 0.0
C2912 C 0.8383 0.33552 0.5375 0.0
O2913 O 0.97963 0.14694 0.52913 0.0
O2914 O 0.98769 0.1592 0.5444 0.0
O2915 O 0.85025 0.09921 0.54108 0.0
O2916 O 0.86942 0.10509 0.55595 0.0
O2917 O 0.89942 0.17081 0.52694 0.0
C2918 C 0.92112 0.02578 0.53873 0.0
O2919 O 0.91784 0.03802 0.54686 0.0
O2920 O 0.91887 0.04525 0.53149 0.0
C2921 C 0.86078 0.06679 0.51109 0.0
H2922 H 0.69317 0.17716 0.5198 0.0
H2923 H 0.79818 0.28169 0.50564 0.0
H2924 H 0.72119 0.22991 0.50669 0.0
H2925 H 0.80285 0.12397 0.53761 0.0
H2926 H 0.80947 0.10328 0.56728 0.0
H2927 H 0.75537 0.17694 0.55745 0.0
H2928 H 0.92947 0.27606 0.5137 0.0
H2929 H 0.92411 0.31987 0.54146 0.0
H2930 H 0.04235 0.34695 0.52997 0.0
H2931 H 0.90459 0.26856 0.56385 0.0
H2932 H 0.94502 0.23157 0.56079 0.0
H2933 H 0.9352 0.19262 0.54563 0.0
H2934 H 0.74412 0.24495 0.53994 0.0
H2935 H 0.76932 0.36606 0.53045 0.0
H2936 H 0.87154 0.34804 0.53871 0.0
Cd2937 Cd 0.53521 0.37902 0.30274 0.0
C2938 C 0.58721 0.33006 0.29408 0.0
C2939 C 0.31446 0.20318 0.31319 0.0
O2940 O 0.30516 0.17348 0.31948 0.0
Cd2941 Cd 0.57209 0.40136 0.28236 0.0
C2942 C 0.29748 0.23181 0.31377 0.0
C2943 C 0.2708 0.29025 0.31131 0.0
C2944 C 0.30005 0.28881 0.30524 0.0
N2945 N 0.31196 0.26061 0.30695 0.0
C2946 C 0.26805 0.23125 0.32012 0.0
C2947 C 0.2549 0.2611 0.31885 0.0
Co2948 Co 0.34689 0.25688 0.29821 0.0
C2949 C 0.31921 0.3134 0.2966 0.0
O2950 O 0.31368 0.34453 0.29395 0.0
C2951 C 0.37177 0.32779 0.28423 0.0
C2952 C 0.41451 0.35174 0.28578 0.0
C2953 C 0.44257 0.36901 0.27828 0.0
C2954 C 0.42691 0.36764 0.26917 0.0
C2955 C 0.38328 0.34818 0.26763 0.0
C2956 C 0.35554 0.327 0.27518 0.0
C2957 C 0.4872 0.3838 0.28014 0.0
C2958 C 0.36653 0.19033 0.30528 0.0
C2959 C 0.39241 0.1939 0.31293 0.0
C2960 C 0.36408 0.16562 0.29753 0.0
C2961 C 0.38821 0.14601 0.2973 0.0
C2962 C 0.41471 0.1505 0.30483 0.0
C2963 C 0.41688 0.17436 0.31278 0.0
N2964 N 0.34105 0.20984 0.30576 0.0
N2965 N 0.34572 0.3036 0.29194 0.0
N2966 N 0.39871 0.29417 0.30508 0.0
C2967 C 0.40211 0.31572 0.31378 0.0
C2968 C 0.41497 0.30465 0.32207 0.0
C2969 C 0.39445 0.34931 0.31393 0.0
C2970 C 0.4181 0.32541 0.33062 0.0
H2971 H 0.42276 0.28004 0.32183 0.0
C2972 C 0.40898 0.3582 0.33072 0.0
C2973 C 0.39751 0.37067 0.32238 0.0
C2974 C 0.43102 0.31305 0.33944 0.0
H2975 H 0.38705 0.35941 0.30741 0.0
H2976 H 0.41155 0.37457 0.33727 0.0
C2977 C 0.3892 0.40622 0.32251 0.0
O2978 O 0.43213 0.33191 0.3477 0.0
O2979 O 0.44068 0.28572 0.33928 0.0
O2980 O 0.379 0.41692 0.31526 0.0
O2981 O 0.39293 0.42705 0.33063 0.0
H2982 H 0.44048 0.32438 0.35353 0.0
H2983 H 0.38794 0.4505 0.33086 0.0
N2984 N 0.38171 0.2534 0.28944 0.0
C2985 C 0.36334 0.23086 0.28172 0.0
C2986 C 0.38851 0.2258 0.27505 0.0
C2987 C 0.43214 0.24503 0.27687 0.0
C2988 C 0.44954 0.26815 0.28528 0.0
C2989 C 0.42241 0.27168 0.29164 0.0
N2990 N 0.30112 0.21846 0.29006 0.0
C2991 C 0.31719 0.21094 0.28204 0.0
O2992 O 0.29299 0.18362 0.27564 0.0
C2993 C 0.43228 0.29398 0.30078 0.0
O2994 O 0.51766 0.42566 0.31121 0.0
O2995 O 0.52685 0.38233 0.31983 0.0
C2996 C 0.25847 0.1917 0.29303 0.0
C2997 C 0.23112 0.20782 0.29396 0.0
C2998 C 0.19021 0.18214 0.29735 0.0
C2999 C 0.17644 0.14 0.29941 0.0
C3000 C 0.20232 0.12279 0.2979 0.0
C3001 C 0.24361 0.14884 0.29479 0.0
O3002 O 0.57304 0.33893 0.30142 0.0
O3003 O 0.58671 0.34573 0.2861 0.0
O3004 O 0.49823 0.38033 0.28846 0.0
O3005 O 0.51355 0.39412 0.27351 0.0
O3006 O 0.47044 0.30947 0.30495 0.0
C3007 C 0.63155 0.47007 0.29723 0.0
O3008 O 0.6211 0.46799 0.28864 0.0
O3009 O 0.60892 0.44021 0.30288 0.0
C3010 C 0.51893 0.41219 0.3194 0.0
H3011 H 0.26006 0.31245 0.3102 0.0
H3012 H 0.25524 0.20837 0.32575 0.0
H3013 H 0.23195 0.26121 0.32361 0.0
H3014 H 0.42596 0.35512 0.29292 0.0
H3015 H 0.4485 0.38209 0.26333 0.0
H3016 H 0.32193 0.30979 0.27402 0.0
H3017 H 0.39309 0.21165 0.31907 0.0
H3018 H 0.34273 0.16038 0.29178 0.0
H3019 H 0.4324 0.13427 0.30453 0.0
H3020 H 0.37505 0.2072 0.26875 0.0
H3021 H 0.45234 0.24162 0.27184 0.0
H3022 H 0.48284 0.28269 0.2867 0.0
H3023 H 0.24137 0.23987 0.29195 0.0
H3024 H 0.14408 0.11958 0.30156 0.0
H3025 H 0.26396 0.13585 0.29365 0.0
Cd3026 Cd 0.77189 0.23529 0.30314 0.0
C3027 C 0.83191 0.3371 0.29469 0.0
C3028 C 0.95236 0.19151 0.31266 0.0
O3029 O 0.98331 0.21411 0.31852 0.0
Cd3030 Cd 0.76726 0.24954 0.28608 0.0
C3031 C 0.92519 0.14591 0.31385 0.0
C3032 C 0.8675 0.0599 0.31283 0.0
C3033 C 0.8672 0.08827 0.3063 0.0
N3034 N 0.89519 0.12898 0.30733 0.0
C3035 C 0.92751 0.11948 0.32064 0.0
C3036 C 0.89799 0.07603 0.3201 0.0
Co3037 Co 0.89501 0.1648 0.2983 0.0
C3038 C 0.84019 0.07983 0.29795 0.0
O3039 O 0.80895 0.04221 0.29593 0.0
C3040 C 0.82155 0.11383 0.28539 0.0
C3041 C 0.79537 0.12976 0.28727 0.0
C3042 C 0.7793 0.14288 0.27993 0.0
C3043 C 0.78266 0.13179 0.27061 0.0
C3044 C 0.80343 0.10906 0.26873 0.0
C3045 C 0.82461 0.1018 0.27615 0.0
C3046 C 0.76814 0.17515 0.28221 0.0
C3047 C 0.96116 0.25376 0.30416 0.0
C3048 C 0.95998 0.27752 0.31178 0.0
C3049 C 0.98271 0.27464 0.29594 0.0
C3050 C 1.00077 0.31819 0.29522 0.0
C3051 C 0.9984 0.34149 0.30275 0.0
C3052 C 0.97878 0.32139 0.31122 0.0
N3053 N 0.94303 0.209 0.30514 0.0
N3054 N 0.84808 0.11451 0.29283 0.0
N3055 N 0.8576 0.17856 0.30536 0.0
C3056 C 0.84005 0.1618 0.31446 0.0
C3057 C 0.85688 0.18593 0.32261 0.0
C3058 C 0.80793 0.12002 0.31528 0.0
C3059 C 0.84426 0.16782 0.33161 0.0
H3060 H 0.88003 0.21863 0.32191 0.0
C3061 C 0.81339 0.1252 0.33233 0.0
C3062 C 0.79434 0.10128 0.32419 0.0
C3063 C 0.86308 0.19329 0.34025 0.0
H3064 H 0.79377 0.10205 0.30895 0.0
H3065 H 0.80343 0.11092 0.33923 0.0
C3066 C 0.76047 0.0568 0.32502 0.0
O3067 O 0.84983 0.17598 0.34888 0.0
O3068 O 0.89066 0.23007 0.33962 0.0
O3069 O 0.74498 0.03559 0.31793 0.0
O3070 O 0.74643 0.03947 0.33361 0.0
H3071 H 0.86163 0.192 0.3546 0.0
H3072 H 0.72428 0.01055 0.33431 0.0
N3073 N 0.89455 0.20024 0.28926 0.0
C3074 C 0.91574 0.20373 0.28135 0.0
C3075 C 0.91792 0.23195 0.27444 0.0
C3076 C 0.89747 0.25518 0.27626 0.0
C3077 C 0.87595 0.25032 0.28488 0.0
C3078 C 0.87514 0.2216 0.29146 0.0
N3079 N 0.93259 0.15749 0.28989 0.0
C3080 C 0.93755 0.17925 0.28168 0.0
O3081 O 0.96374 0.18198 0.27503 0.0
C3082 C 0.85468 0.2103 0.30084 0.0
O3083 O 0.71447 0.18623 0.31321 0.0
O3084 O 0.77411 0.22421 0.32024 0.0
C3085 C 0.96002 0.14208 0.29263 0.0
C3086 C 0.94424 0.0987 0.29373 0.0
C3087 C 0.97045 0.08406 0.29709 0.0
C3088 C 0.01271 0.11281 0.29891 0.0
C3089 C 0.02949 0.15576 0.29727 0.0
C3090 C 0.00298 0.17049 0.29419 0.0
O3091 O 0.81597 0.3143 0.30202 0.0
O3092 O 0.82312 0.32003 0.2866 0.0
O3093 O 0.76755 0.18408 0.29091 0.0
O3094 O 0.76996 0.20043 0.27592 0.0
O3095 O 0.83952 0.23329 0.30505 0.0
C3096 C 0.69405 0.2559 0.29339 0.0
O3097 O 0.70332 0.24901 0.28524 0.0
O3098 O 0.71523 0.25517 0.30046 0.0
C3099 C 0.73564 0.19624 0.32079 0.0
H3100 H 0.84538 0.02661 0.31231 0.0
H3101 H 0.95125 0.13173 0.3261 0.0
H3102 H 0.89906 0.05483 0.32524 0.0
H3103 H 0.79174 0.13635 0.29452 0.0
H3104 H 0.76928 0.14077 0.26487 0.0
H3105 H 0.8439 0.08781 0.27474 0.0
H3106 H 0.9449 0.26177 0.31825 0.0
H3107 H 0.98677 0.25775 0.2902 0.0
H3108 H 0.01304 0.37522 0.30205 0.0
H3109 H 0.93529 0.23648 0.26796 0.0
H3110 H 0.89868 0.27725 0.27105 0.0
H3111 H 0.86046 0.26817 0.28629 0.0
H3112 H 0.91195 0.07656 0.29196 0.0
H3113 H 0.03343 0.10127 0.30108 0.0
H3114 H 0.01558 0.20373 0.29297 0.0
Cd3115 Cd 0.91063 0.61198 0.30471 0.0
C3116 C 0.80709 0.57837 0.29982 0.0
C3117 C 0.96354 0.8374 0.3132 0.0
O3118 O 0.943 0.84711 0.31936 0.0
Cd3119 Cd 0.88455 0.59194 0.28783 0.0
C3120 C 0.00907 0.8539 0.31395 0.0
C3121 C 0.09427 0.8802 0.31173 0.0
C3122 C 0.06377 0.85089 0.30563 0.0
N3123 N 0.02356 0.83903 0.30725 0.0
C3124 C 0.03776 0.88346 0.3203 0.0
C3125 C 0.08079 0.89638 0.31916 0.0
Co3126 Co 0.98528 0.80455 0.2984 0.0
C3127 C 0.06956 0.8316 0.29705 0.0
O3128 O 0.10617 0.83643 0.29459 0.0
C3129 C 0.03112 0.77774 0.28491 0.0
C3130 C 0.01184 0.73556 0.28699 0.0
C3131 C 0.99298 0.7059 0.27985 0.0
C3132 C 1.00158 0.71894 0.27044 0.0
C3133 C 0.03147 0.761 0.26823 0.0
C3134 C 0.04359 0.79123 0.27554 0.0
C3135 C 0.95935 0.66393 0.28259 0.0
C3136 C 0.89886 0.78576 0.30512 0.0
C3137 C 0.87587 0.76029 0.31275 0.0
C3138 C 0.87724 0.78792 0.29719 0.0
C3139 C 0.83352 0.76351 0.29674 0.0
C3140 C 0.81085 0.73746 0.30428 0.0
C3141 C 0.8318 0.73641 0.31247 0.0
N3142 N 0.94387 0.81092 0.30574 0.0
N3143 N 0.03344 0.80532 0.2923 0.0
N3144 N 0.96916 0.7522 0.30531 0.0
C3145 C 0.98518 0.74821 0.31428 0.0
C3146 C 0.95854 0.73214 0.32214 0.0
C3147 C 0.02687 0.75745 0.31508 0.0
C3148 C 0.97354 0.72658 0.33083 0.0
H3149 H 0.92592 0.72327 0.32141 0.0
C3150 C 0.01584 0.73728 0.33158 0.0
C3151 C 0.04273 0.75259 0.32373 0.0
C3152 C 0.94499 0.70902 0.33909 0.0
H3153 H 0.04661 0.76724 0.30889 0.0
H3154 H 0.02769 0.73304 0.33825 0.0
C3155 C 0.08714 0.76292 0.32454 0.0
O3156 O 0.95933 0.70248 0.34734 0.0
O3157 O 0.90831 0.70022 0.33848 0.0
O3158 O 0.11045 0.77583 0.31769 0.0
O3159 O 0.10211 0.75811 0.33288 0.0
H3160 H 0.94118 0.69069 0.35278 0.0
H3161 H 0.1309 0.76444 0.33356 0.0
N3162 N 0.94742 0.77021 0.28949 0.0
C3163 C 0.94414 0.78899 0.28175 0.0
C3164 C 0.91378 0.76441 0.27503 0.0
C3165 C 0.88819 0.72096 0.27687 0.0
C3166 C 0.89292 0.70313 0.28531 0.0
C3167 C 0.92396 0.72958 0.29169 0.0
N3168 N 0.99394 0.85075 0.29022 0.0
C3169 C 0.97095 0.83504 0.28211 0.0
O3170 O 0.96867 0.85956 0.27567 0.0
C3171 C 0.93535 0.71901 0.30088 0.0
O3172 O 0.97414 0.6249 0.31272 0.0
O3173 O 0.92522 0.62032 0.3219 0.0
C3174 C 0.00967 0.89336 0.29321 0.0
C3175 C 0.05311 0.9207 0.29431 0.0
C3176 C 0.06811 0.96159 0.29769 0.0
C3177 C 0.03959 0.97532 0.29958 0.0
C3178 C 0.99659 0.94947 0.29794 0.0
C3179 C 0.98155 0.90827 0.2948 0.0
O3180 O 0.8323 0.57972 0.30619 0.0
O3181 O 0.81968 0.58765 0.29136 0.0
O3182 O 0.95428 0.65514 0.29137 0.0
O3183 O 0.93061 0.64122 0.27683 0.0
O3184 O 0.91115 0.68098 0.30507 0.0
C3185 C 0.88732 0.51409 0.29444 0.0
O3186 O 0.88142 0.52672 0.28659 0.0
O3187 O 0.89608 0.53756 0.3017 0.0
C3188 C 0.96211 0.62605 0.32104 0.0
H3189 H 0.12725 0.89084 0.3107 0.0
H3190 H 0.02755 0.8966 0.32584 0.0
H3191 H 0.10371 0.91942 0.32393 0.0
H3192 H 0.00701 0.72631 0.29432 0.0
H3193 H 0.98562 0.69616 0.26489 0.0
H3194 H 0.06254 0.82445 0.27409 0.0
H3195 H 0.89246 0.75955 0.31898 0.0
H3196 H 0.89382 0.80907 0.29145 0.0
H3197 H 0.77695 0.7193 0.30381 0.0
H3198 H 0.90931 0.77826 0.26871 0.0
H3199 H 0.86436 0.70124 0.27181 0.0
H3200 H 0.87318 0.67001 0.28675 0.0
H3201 H 0.07506 0.91045 0.29243 0.0
H3202 H 0.05135 0.00763 0.30174 0.0
H3203 H 0.94828 0.88799 0.29354 0.0
C3204 C 0.51941 0.85756 0.13616 0.0
C3205 C 0.53036 0.88947 0.1294 0.0
C3206 C 0.53679 0.83113 0.13583 0.0
C3207 C 0.5655 0.83568 0.12871 0.0
H3208 H 0.49536 0.85125 0.14136 0.0
H3209 H 0.52558 0.80536 0.1408 0.0
S3210 S 0.61056 0.91975 0.11059 0.0
N3211 N 0.57625 0.92802 0.11631 0.0
N3212 N 0.60865 0.87841 0.11566 0.0
C3213 C 0.57923 0.86968 0.12243 0.0
C3214 C 0.5617 0.89654 0.12279 0.0
C3215 C 0.30104 0.7445 0.13699 0.0
C3216 C 0.27237 0.72306 0.12966 0.0
C3217 C 0.32833 0.78811 0.13653 0.0
C3218 C 0.32778 0.81151 0.12872 0.0
H3219 H 0.30469 0.7272 0.14275 0.0
H3220 H 0.35194 0.80296 0.14198 0.0
S3221 S 0.25179 0.7715 0.10887 0.0
N3222 N 0.24004 0.7295 0.11525 0.0
N3223 N 0.2913 0.81113 0.11436 0.0
C3224 C 0.29636 0.79099 0.12186 0.0
C3225 C 0.26862 0.74682 0.12235 0.0
C3226 C 0.38031 0.6258 0.13623 0.0
C3227 C 0.35623 0.60169 0.1285 0.0
C3228 C 0.42405 0.64226 0.1365 0.0
C3229 C 0.44505 0.6351 0.12904 0.0
H3230 H 0.36581 0.63441 0.14179 0.0
H3231 H 0.44177 0.66307 0.14224 0.0
S3232 S 0.395 0.56622 0.10831 0.0
N3233 N 0.35573 0.56586 0.11403 0.0
N3234 N 0.43751 0.59663 0.11454 0.0
C3235 C 0.42071 0.60777 0.12176 0.0
C3236 C 0.37641 0.59112 0.12148 0.0
C3237 C 0.824 0.53398 0.35789 0.0
C3238 C 0.83184 0.56723 0.36402 0.0
C3239 C 0.85217 0.51875 0.35729 0.0
C3240 C 0.88891 0.53641 0.36281 0.0
H3241 H 0.79429 0.51719 0.35419 0.0
H3242 H 0.84313 0.49063 0.3532 0.0
S3243 S 0.9291 0.63116 0.37786 0.0
N3244 N 0.88285 0.62257 0.37416 0.0
N3245 N 0.93564 0.59398 0.37304 0.0
C3246 C 0.89945 0.57285 0.36801 0.0
C3247 C 0.87089 0.58826 0.36862 0.0
C3248 C 0.63095 0.41234 0.36191 0.0
C3249 C 0.62645 0.4352 0.36932 0.0
C3250 C 0.6129 0.36854 0.36249 0.0
C3251 C 0.58989 0.34632 0.37053 0.0
H3252 H 0.65089 0.42859 0.35593 0.0
H3253 H 0.61946 0.3525 0.35692 0.0
S3254 S 0.56179 0.39107 0.39087 0.0
N3255 N 0.5921 0.43199 0.38419 0.0
N3256 N 0.55809 0.34992 0.38531 0.0
C3257 C 0.58197 0.36854 0.37755 0.0
C3258 C 0.60032 0.41295 0.37694 0.0
C3259 C 0.73436 0.29772 0.3621 0.0
C3260 C 0.71483 0.27336 0.37019 0.0
C3261 C 0.77773 0.32691 0.36198 0.0
C3262 C 0.80292 0.33286 0.36996 0.0
H3263 H 0.71571 0.29618 0.35603 0.0
H3264 H 0.79101 0.34674 0.35582 0.0
S3265 S 0.76899 0.27086 0.39212 0.0
N3266 N 0.72564 0.2526 0.38579 0.0
N3267 N 0.80652 0.30768 0.38559 0.0
C3268 C 0.78445 0.30626 0.37776 0.0
C3269 C 0.7406 0.27642 0.37787 0.0
C3270 C 0.6082 0.26912 0.87742 0.0
C3271 C 0.63339 0.27031 0.86981 0.0
C3272 C 0.59129 0.29573 0.87774 0.0
C3273 C 0.59874 0.3247 0.87046 0.0
H3274 H 0.60296 0.24872 0.8834 0.0
H3275 H 0.57365 0.29472 0.88396 0.0
S3276 S 0.65849 0.33698 0.84841 0.0
N3277 N 0.66193 0.30031 0.8544 0.0
N3278 N 0.62976 0.35018 0.85497 0.0
C3279 C 0.62131 0.32416 0.86248 0.0
C3280 C 0.63876 0.29704 0.86217 0.0
C3281 C 0.85931 0.36989 0.87792 0.0
C3282 C 0.83104 0.34849 0.87052 0.0
C3283 C 0.88567 0.41345 0.87771 0.0
C3284 C 0.8849 0.43762 0.87009 0.0
H3285 H 0.85985 0.35311 0.88416 0.0
H3286 H 0.90543 0.42849 0.88379 0.0
S3287 S 0.82071 0.39633 0.84833 0.0
N3288 N 0.80706 0.35427 0.85487 0.0
N3289 N 0.85655 0.4364 0.85449 0.0
C3290 C 0.85913 0.41638 0.8623 0.0
C3291 C 0.83224 0.37176 0.86251 0.0
C3292 C 0.78185 0.53246 0.86399 0.0
C3293 C 0.80549 0.55789 0.87161 0.0
C3294 C 0.73812 0.51551 0.86358 0.0
C3295 C 0.71664 0.52362 0.87076 0.0
H3296 H 0.79677 0.52346 0.85861 0.0
H3297 H 0.72082 0.49397 0.85791 0.0
S3298 S 0.76516 0.59488 0.89121 0.0
N3299 N 0.80493 0.59504 0.88577 0.0
N3300 N 0.72305 0.5635 0.88496 0.0
C3301 C 0.74042 0.55179 0.87798 0.0
C3302 C 0.78476 0.56886 0.87841 0.0
C3303 C 0.32899 0.62599 0.63532 0.0
C3304 C 0.33271 0.60578 0.62724 0.0
C3305 C 0.30121 0.6418 0.63549 0.0
C3306 C 0.276 0.63767 0.62762 0.0
H3307 H 0.34942 0.63186 0.64133 0.0
H3308 H 0.30127 0.65939 0.64163 0.0
S3309 S 0.26808 0.58006 0.60549 0.0
N3310 N 0.30469 0.57746 0.61171 0.0
N3311 N 0.25234 0.6066 0.61207 0.0
C3312 C 0.27698 0.61446 0.61983 0.0
C3313 C 0.30535 0.59866 0.61963 0.0
C3314 C 0.54129 0.78736 0.63767 0.0
C3315 C 0.56834 0.81156 0.63031 0.0
C3316 C 0.52561 0.74387 0.63814 0.0
C3317 C 0.53665 0.7234 0.63128 0.0
H3318 H 0.52955 0.80141 0.64264 0.0
H3319 H 0.50217 0.72585 0.64343 0.0
S3320 S 0.61485 0.77456 0.61211 0.0
N3321 N 0.61143 0.81326 0.61712 0.0
N3322 N 0.5824 0.73184 0.61805 0.0
C3323 C 0.56735 0.74811 0.62457 0.0
C3324 C 0.58306 0.79215 0.62406 0.0
C3325 C 0.4191 0.85672 0.6365 0.0
C3326 C 0.44046 0.88833 0.62971 0.0
C3327 C 0.37521 0.83075 0.63616 0.0
C3328 C 0.35134 0.83559 0.629 0.0
H3329 H 0.43658 0.85016 0.64173 0.0
H3330 H 0.36033 0.80507 0.64114 0.0
S3331 S 0.39169 0.91962 0.61085 0.0
N3332 N 0.43401 0.92717 0.61658 0.0
N3333 N 0.3518 0.87871 0.61593 0.0
C3334 C 0.37209 0.86955 0.62272 0.0
C3335 C 0.41659 0.89581 0.62307 0.0
C3336 C 0.21463 0.21557 0.45573 0.0
C3337 C 0.19104 0.21521 0.46359 0.0
C3338 C 0.23134 0.18887 0.45524 0.0
C3339 C 0.2253 0.16067 0.46259 0.0
H3340 H 0.21853 0.23522 0.44968 0.0
H3341 H 0.2475 0.18903 0.44883 0.0
S3342 S 0.17146 0.15193 0.48536 0.0
N3343 N 0.16649 0.1877 0.47937 0.0
N3344 N 0.19832 0.13757 0.47848 0.0
C3345 C 0.20483 0.16243 0.47084 0.0
C3346 C 0.18756 0.18967 0.47133 0.0
C3347 C 0.96326 0.07031 0.47162 0.0
C3348 C 0.93321 0.04974 0.46447 0.0
C3349 C 0.99048 0.11402 0.47134 0.0
C3350 C 0.98841 0.13836 0.46391 0.0
H3351 H 0.96803 0.05228 0.47702 0.0
H3352 H 0.01521 0.12823 0.47657 0.0
S3353 S 0.90866 0.10063 0.44482 0.0
N3354 N 0.89819 0.05786 0.45075 0.0
N3355 N 0.94915 0.13964 0.45022 0.0
C3356 C 0.95565 0.11861 0.45731 0.0
C3357 C 0.92806 0.07437 0.4576 0.0
C3358 C 0.04064 0.95465 0.46966 0.0
C3359 C 0.01613 0.92846 0.46222 0.0
C3360 C 0.08432 0.97091 0.4699 0.0
C3361 C 0.10476 0.96127 0.46275 0.0
H3362 H 0.02653 0.96492 0.47496 0.0
H3363 H 0.10241 0.99322 0.47539 0.0
S3364 S 0.05339 0.88712 0.4429 0.0
N3365 N 0.01456 0.88871 0.44837 0.0
N3366 N 0.09628 0.91885 0.44888 0.0
C3367 C 0.07999 0.93214 0.45579 0.0
C3368 C 0.03575 0.91582 0.45551 0.0
C3369 C 0.5566 0.89316 0.70801 0.0
C3370 C 0.55415 0.86606 0.70071 0.0
C3371 C 0.52891 0.9087 0.7084 0.0
C3372 C 0.49782 0.8981 0.70147 0.0
H3373 H 0.57851 0.90054 0.71379 0.0
H3374 H 0.53057 0.9275 0.71445 0.0
S3375 S 0.48303 0.83447 0.67997 0.0
N3376 N 0.52171 0.83373 0.68572 0.0
N3377 N 0.46982 0.86352 0.6864 0.0
C3378 C 0.49761 0.87442 0.69364 0.0
C3379 C 0.52575 0.85824 0.69327 0.0
C3380 C 0.30633 0.75229 0.69586 0.0
C3381 C 0.29583 0.774 0.7025 0.0
C3382 C 0.28877 0.70851 0.69641 0.0
C3383 C 0.2603 0.6851 0.70365 0.0
H3384 H 0.33018 0.76944 0.69058 0.0
H3385 H 0.29966 0.69339 0.69152 0.0
S3386 S 0.21653 0.72635 0.72156 0.0
N3387 N 0.25076 0.76826 0.71563 0.0
N3388 N 0.21787 0.68627 0.71669 0.0
C3389 C 0.247 0.70614 0.70981 0.0
C3390 C 0.26478 0.75052 0.70924 0.0
C3391 C 0.40387 0.63439 0.69719 0.0
C3392 C 0.38307 0.60959 0.70514 0.0
C3393 C 0.44752 0.66189 0.69725 0.0
C3394 C 0.47179 0.66569 0.70527 0.0
H3395 H 0.3861 0.63434 0.69109 0.0
H3396 H 0.46187 0.68204 0.69118 0.0
S3397 S 0.43361 0.60214 0.72718 0.0
N3398 N 0.39101 0.58645 0.7207 0.0
N3399 N 0.47266 0.63823 0.72083 0.0
C3400 C 0.4518 0.63874 0.71295 0.0
C3401 C 0.40756 0.61068 0.71288 0.0
C3402 C 0.31199 0.63787 0.19518 0.0
C3403 C 0.29941 0.60381 0.20139 0.0
C3404 C 0.29283 0.66267 0.19545 0.0
C3405 C 0.26033 0.65403 0.2019 0.0
H3406 H 0.33852 0.64705 0.19051 0.0
H3407 H 0.30528 0.69016 0.19096 0.0
S3408 S 0.21044 0.56272 0.2182 0.0
N3409 N 0.24892 0.55902 0.21316 0.0
N3410 N 0.21222 0.60478 0.21358 0.0
C3411 C 0.24513 0.61769 0.20753 0.0
C3412 C 0.26492 0.59285 0.20731 0.0
C3413 C 0.53017 0.75179 0.19438 0.0
C3414 C 0.56236 0.77108 0.20116 0.0
C3415 C 0.50101 0.70857 0.19479 0.0
C3416 C 0.50292 0.68335 0.20202 0.0
H3417 H 0.52565 0.77055 0.18912 0.0
H3418 H 0.47522 0.69549 0.1898 0.0
S3419 S 0.58649 0.71662 0.22012 0.0
N3420 N 0.59851 0.76002 0.21428 0.0
N3421 N 0.54337 0.67928 0.21512 0.0
C3422 C 0.53713 0.70148 0.20827 0.0
C3423 C 0.56699 0.74522 0.20781 0.0
C3424 C 0.45504 0.88054 0.19934 0.0
C3425 C 0.47504 0.87441 0.20717 0.0
C3426 C 0.41117 0.8636 0.19914 0.0
C3427 C 0.38567 0.83982 0.20675 0.0
H3428 H 0.47329 0.89809 0.19327 0.0
H3429 H 0.39714 0.86867 0.19292 0.0
S3430 S 0.42254 0.8135 0.22884 0.0
N3431 N 0.4656 0.84227 0.22268 0.0
N3432 N 0.38413 0.81074 0.22233 0.0
C3433 C 0.40552 0.83394 0.21466 0.0
C3434 C 0.44988 0.85112 0.21487 0.0
C3435 C 0.96684 0.9714 0.9695 0.0
C3436 C 0.93753 0.96269 0.96221 0.0
C3437 C 0.99381 0.9546 0.96934 0.0
C3438 C 0.99237 0.92855 0.96189 0.0
H3439 H 0.97088 0.99343 0.97503 0.0
H3440 H 0.01755 0.96415 0.97479 0.0
S3441 S 0.91521 0.88921 0.94223 0.0
N3442 N 0.90437 0.92122 0.94817 0.0
N3443 N 0.95478 0.88977 0.94787 0.0
C3444 C 0.96071 0.91677 0.95504 0.0
C3445 C 0.93336 0.93379 0.9552 0.0
C3446 C 0.22499 0.11372 0.95238 0.0
C3447 C 0.22739 0.13735 0.96041 0.0
C3448 C 0.20806 0.07027 0.95286 0.0
C3449 C 0.19264 0.0482 0.9614 0.0
H3450 H 0.23454 0.12853 0.94551 0.0
H3451 H 0.20534 0.05368 0.94634 0.0
S3452 S 0.1988 0.09604 0.98487 0.0
N3453 N 0.21821 0.1361 0.97746 0.0
N3454 N 0.18629 0.05413 0.97837 0.0
C3455 C 0.19813 0.07174 0.96966 0.0
C3456 C 0.21547 0.11632 0.96917 0.0
C3457 C 0.04087 0.18588 0.95231 0.0
C3458 C 0.01835 0.16334 0.96035 0.0
C3459 C 0.08436 0.2127 0.95258 0.0
C3460 C 0.10756 0.21826 0.9609 0.0
H3461 H 0.02514 0.18146 0.94559 0.0
H3462 H 0.10008 0.22761 0.94605 0.0
S3463 S 0.06282 0.17272 0.98437 0.0
N3464 N 0.02181 0.15289 0.97723 0.0
N3465 N 0.10383 0.20344 0.97774 0.0
C3466 C 0.08508 0.19888 0.96921 0.0
C3467 C 0.04047 0.1714 0.96894 0.0
C3468 C 0.86141 0.5252 0.8063 0.0
C3469 C 0.875 0.55953 0.80012 0.0
C3470 C 0.87753 0.49782 0.8056 0.0
C3471 C 0.90761 0.50399 0.79868 0.0
H3472 H 0.83565 0.51729 0.81113 0.0
H3473 H 0.86381 0.46987 0.80996 0.0
S3474 S 0.96099 0.59536 0.78257 0.0
N3475 N 0.92586 0.60271 0.78819 0.0
N3476 N 0.95599 0.55132 0.78684 0.0
C3477 C 0.92477 0.54086 0.79325 0.0
C3478 C 0.90852 0.56868 0.79398 0.0
C3479 C 0.6165 0.40839 0.78735 0.0
C3480 C 0.61143 0.38293 0.79523 0.0
C3481 C 0.64534 0.45147 0.78744 0.0
C3482 C 0.67011 0.47115 0.79543 0.0
H3483 H 0.5995 0.39468 0.78086 0.0
H3484 H 0.64934 0.46921 0.78103 0.0
S3485 S 0.66545 0.41997 0.81834 0.0
N3486 N 0.6311 0.38145 0.81159 0.0
N3487 N 0.68492 0.46276 0.81177 0.0
C3488 C 0.66322 0.44685 0.80362 0.0
C3489 C 0.63399 0.40266 0.80351 0.0
C3490 C 0.70996 0.26249 0.78615 0.0
C3491 C 0.68697 0.26516 0.7938 0.0
C3492 C 0.75364 0.28064 0.78657 0.0
C3493 C 0.77635 0.30219 0.79467 0.0
H3494 H 0.69436 0.24779 0.7796 0.0
H3495 H 0.7699 0.27917 0.78033 0.0
S3496 S 0.73096 0.31422 0.81706 0.0
N3497 N 0.68999 0.28788 0.81008 0.0
N3498 N 0.77228 0.32214 0.81084 0.0
C3499 C 0.75364 0.30269 0.80262 0.0
C3500 C 0.70892 0.28413 0.8022 0.0
C3501 C 0.16024 0.19402 0.02807 0.0
C3502 C 0.16051 0.21988 0.03542 0.0
C3503 C 0.18826 0.1785 0.0281 0.0
C3504 C 0.21751 0.18846 0.03547 0.0
H3505 H 0.13645 0.18338 0.02261 0.0
H3506 H 0.185 0.15633 0.02267 0.0
S3507 S 0.23707 0.26274 0.05513 0.0
N3508 N 0.19686 0.26023 0.04937 0.0
N3509 N 0.24957 0.23148 0.04939 0.0
C3510 C 0.22068 0.21757 0.04233 0.0
C3511 C 0.19213 0.23314 0.04232 0.0
C3512 C 0.93206 0.07348 0.04144 0.0
C3513 C 0.95885 0.09682 0.03399 0.0
C3514 C 0.91505 0.03006 0.042 0.0
C3515 C 0.92418 0.00813 0.03514 0.0
H3516 H 0.92574 0.08915 0.04715 0.0
H3517 H 0.89619 0.01392 0.04812 0.0
S3518 S 0.98758 0.05386 0.01343 0.0
N3519 N 0.99006 0.09439 0.01903 0.0
N3520 N 0.9578 0.01244 0.02003 0.0
C3521 C 0.94812 0.03056 0.02723 0.0
C3522 C 0.96559 0.07503 0.02667 0.0
C3523 C 0.06819 0.94547 0.0473 0.0
C3524 C 0.04644 0.93284 0.03865 0.0
C3525 C 0.1116 0.97255 0.04765 0.0
C3526 C 0.13563 0.98842 0.03936 0.0
H3527 H 0.0514 0.93593 0.05395 0.0
H3528 H 0.12606 0.98246 0.05454 0.0
S3529 S 0.09546 0.95861 0.01485 0.0
N3530 N 0.05323 0.93355 0.02154 0.0
N3531 N 0.13515 0.98467 0.02219 0.0
C3532 C 0.11497 0.97337 0.03063 0.0
C3533 C 0.07039 0.94555 0.03028 0.0
C3534 C 0.96975 0.96232 0.52972 0.0
C3535 C 0.96401 0.93565 0.5374 0.0
C3536 C 0.95352 0.98976 0.5299 0.0
C3537 C 0.93107 0.99148 0.53779 0.0
H3538 H 0.98909 0.96398 0.52378 0.0
H3539 H 0.96076 0.01143 0.52408 0.0
S3540 S 0.89992 0.92178 0.55878 0.0
N3541 N 0.92876 0.90812 0.55241 0.0
N3542 N 0.89853 0.95954 0.55278 0.0
C3543 C 0.92212 0.96241 0.54513 0.0
C3544 C 0.93849 0.93452 0.54492 0.0
C3545 C 0.18861 0.07975 0.52869 0.0
C3546 C 0.21896 0.10144 0.53571 0.0
C3547 C 0.16196 0.03605 0.52921 0.0
C3548 C 0.16473 0.01277 0.53679 0.0
H3549 H 0.18352 0.09688 0.52312 0.0
H3550 H 0.13729 0.02095 0.524 0.0
S3551 S 0.24469 0.05385 0.55585 0.0
N3552 N 0.25447 0.09569 0.54962 0.0
N3553 N 0.20444 0.01385 0.55063 0.0
C3554 C 0.19741 0.03371 0.54336 0.0
C3555 C 0.2245 0.07799 0.54282 0.0
C3556 C 0.06982 0.17891 0.52827 0.0
C3557 C 0.04956 0.19028 0.53512 0.0
C3558 C 0.11352 0.19533 0.52853 0.0
C3559 C 0.13823 0.22349 0.53568 0.0
H3560 H 0.0516 0.1552 0.52304 0.0
H3561 H 0.12751 0.18375 0.5235 0.0
S3562 S 0.10143 0.2698 0.55398 0.0
N3563 N 0.05836 0.23631 0.54829 0.0
N3564 N 0.14015 0.26689 0.54882 0.0
C3565 C 0.11876 0.2378 0.54203 0.0
C3566 C 0.07449 0.22124 0.54175 0.0
C3567 C 0.63901 0.26842 0.28633 0.0
C3568 C 0.66148 0.26844 0.29439 0.0
C3569 C 0.61313 0.28617 0.2865 0.0
C3570 C 0.60825 0.30461 0.29475 0.0
H3571 H 0.64266 0.25609 0.27968 0.0
H3572 H 0.598 0.28678 0.27999 0.0
S3573 S 0.65573 0.30828 0.31813 0.0
N3574 N 0.6738 0.28494 0.31115 0.0
N3575 N 0.62501 0.3184 0.31146 0.0
C3576 C 0.6281 0.30232 0.30305 0.0
C3577 C 0.65473 0.28424 0.30288 0.0
C3578 C 0.85047 0.40373 0.3034 0.0
C3579 C 0.85485 0.3837 0.29534 0.0
C3580 C 0.8636 0.4468 0.30331 0.0
C3581 C 0.88126 0.4712 0.29515 0.0
H3582 H 0.83448 0.38562 0.30962 0.0
H3583 H 0.85743 0.46038 0.30946 0.0
S3584 S 0.90775 0.43606 0.27295 0.0
N3585 N 0.88444 0.39341 0.27954 0.0
N3586 N 0.90829 0.47379 0.27936 0.0
C3587 C 0.88905 0.45238 0.28736 0.0
C3588 C 0.87611 0.40881 0.28747 0.0
C3589 C 0.74119 0.52279 0.30729 0.0
C3590 C 0.76165 0.55903 0.30165 0.0
C3591 C 0.69765 0.49569 0.30655 0.0
C3592 C 0.67349 0.50413 0.30015 0.0
H3593 H 0.75928 0.5132 0.31159 0.0
H3594 H 0.68363 0.46623 0.31037 0.0
S3595 S 0.71081 0.60087 0.28589 0.0
N3596 N 0.75358 0.60628 0.29101 0.0
N3597 N 0.67187 0.55546 0.28961 0.0
C3598 C 0.69292 0.54287 0.29541 0.0
C3599 C 0.73705 0.57036 0.29617 0.0
C3600 C 0.47858 0.1192 0.07506 0.0
C3601 C 0.45519 0.13941 0.07359 0.0
C3602 C 0.48803 0.11182 0.08421 0.0
C3603 C 0.47508 0.1251 0.09221 0.0
H3604 H 0.48749 0.10683 0.0691 0.0
H3605 H 0.50408 0.09409 0.08507 0.0
S3606 S 0.41711 0.18345 0.09209 0.0
N3607 N 0.42217 0.17547 0.0808 0.0
N3608 N 0.4405 0.16222 0.09803 0.0
C3609 C 0.45411 0.14778 0.0908 0.0
C3610 C 0.44395 0.15473 0.08149 0.0
C3611 C 0.01218 0.42075 0.08636 0.0
C3612 C 0.04968 0.43013 0.09108 0.0
C3613 C 0.00261 0.40179 0.07733 0.0
C3614 C 0.03042 0.39196 0.07261 0.0
H3615 H 0.99023 0.42847 0.0896 0.0
H3616 H 0.97311 0.3946 0.07409 0.0
S3617 S 0.13291 0.41009 0.08191 0.0
N3618 N 0.11307 0.42479 0.09053 0.0
N3619 N 0.09856 0.39591 0.07326 0.0
C3620 C 0.06835 0.40205 0.07723 0.0
C3621 C 0.077 0.41923 0.08652 0.0
C3622 C 0.69969 0.66631 0.08392 0.0
C3623 C 0.72743 0.67894 0.09166 0.0
C3624 C 0.71468 0.67234 0.0746 0.0
C3625 C 0.75791 0.69165 0.07272 0.0
H3626 H 0.66634 0.65333 0.08508 0.0
H3627 H 0.69259 0.66435 0.06883 0.0
S3628 S 0.84317 0.72712 0.09041 0.0
N3629 N 0.79989 0.70871 0.09678 0.0
N3630 N 0.82795 0.72048 0.07925 0.0
C3631 C 0.7857 0.70218 0.08036 0.0
C3632 C 0.77047 0.69564 0.08984 0.0
C3633 C 0.14987 0.4788 0.42076 0.0
C3634 C 0.12127 0.44233 0.42571 0.0
C3635 C 0.14014 0.48792 0.41173 0.0
C3636 C 0.10162 0.46067 0.40723 0.0
H3637 H 0.18028 0.5001 0.42379 0.0
H3638 H 0.16306 0.51654 0.40827 0.0
S3639 S 0.01534 0.36137 0.41737 0.0
N3640 N 0.05116 0.38087 0.42574 0.0
N3641 N 0.03548 0.39451 0.4085 0.0
C3642 C 0.07296 0.42402 0.41216 0.0
C3643 C 0.08206 0.41583 0.42145 0.0
C3644 C 0.73572 0.75466 0.41928 0.0
C3645 C 0.70788 0.76368 0.4242 0.0
C3646 C 0.72684 0.73735 0.41027 0.0
C3647 C 0.6885 0.72569 0.40573 0.0
H3648 H 0.76494 0.76043 0.42244 0.0
H3649 H 0.75058 0.73271 0.40687 0.0
S3650 S 0.604 0.74256 0.41527 0.0
N3651 N 0.64066 0.76162 0.42352 0.0
N3652 N 0.622 0.72478 0.40684 0.0
C3653 C 0.65991 0.73431 0.41048 0.0
C3654 C 0.6698 0.75375 0.41965 0.0
C3655 C 0.36615 0.99961 0.41749 0.0
C3656 C 0.39243 0.01151 0.42548 0.0
C3657 C 0.38293 0.00772 0.40831 0.0
C3658 C 0.42655 0.02863 0.40682 0.0
H3659 H 0.33249 0.98541 0.41835 0.0
H3660 H 0.36177 0.99989 0.40236 0.0
S3661 S 0.50861 0.06328 0.42529 0.0
N3662 N 0.46405 0.04251 0.43125 0.0
N3663 N 0.49549 0.05831 0.41401 0.0
C3664 C 0.453 0.03873 0.41471 0.0
C3665 C 0.43594 0.02996 0.42405 0.0
C3666 C 0.71376 0.00172 0.91709 0.0
C3667 C 0.69953 0.01354 0.92511 0.0
C3668 C 0.70462 0.0096 0.90794 0.0
C3669 C 0.68157 0.03018 0.90651 0.0
H3670 H 0.73342 0.98774 0.91791 0.0
H3671 H 0.71781 0.00182 0.90196 0.0
S3672 S 0.6345 0.0646 0.9251 0.0
N3673 N 0.65875 0.04417 0.931 0.0
N3674 N 0.64225 0.05956 0.91379 0.0
C3675 C 0.66542 0.04024 0.91444 0.0
C3676 C 0.67418 0.0317 0.92375 0.0
C3677 C 0.14145 0.76848 0.90914 0.0
C3678 C 0.12273 0.72513 0.90747 0.0
C3679 C 0.14854 0.78448 0.91838 0.0
C3680 C 0.13773 0.75769 0.92627 0.0
H3681 H 0.14837 0.78989 0.90327 0.0
H3682 H 0.1612 0.81785 0.91938 0.0
S3683 S 0.09134 0.64211 0.92559 0.0
N3684 N 0.09597 0.65603 0.91436 0.0
N3685 N 0.10994 0.686 0.93174 0.0
C3686 C 0.12136 0.71456 0.92465 0.0
C3687 C 0.11362 0.69828 0.91525 0.0
C3688 C 0.45632 0.48666 0.91449 0.0
C3689 C 0.42925 0.47404 0.90663 0.0
C3690 C 0.44043 0.47886 0.92375 0.0
C3691 C 0.39695 0.45761 0.92543 0.0
H3692 H 0.48991 0.50101 0.91347 0.0
H3693 H 0.46216 0.48713 0.92959 0.0
S3694 S 0.31309 0.42141 0.90737 0.0
N3695 N 0.35708 0.44225 0.90119 0.0
N3696 N 0.32728 0.42705 0.91859 0.0
C3697 C 0.36971 0.44696 0.91767 0.0
C3698 C 0.38587 0.45539 0.90827 0.0
C3699 C 0.04577 0.66906 0.58446 0.0
C3700 C 0.03193 0.68154 0.59244 0.0
C3701 C 0.0367 0.67673 0.57529 0.0
C3702 C 0.01411 0.69774 0.5738 0.0
H3703 H 0.06517 0.65481 0.58532 0.0
H3704 H 0.04961 0.66846 0.56933 0.0
S3705 S 0.96795 0.73369 0.59227 0.0
N3706 N 0.99187 0.71308 0.59823 0.0
N3707 N 0.97547 0.72808 0.58098 0.0
C3708 C 0.99826 0.70839 0.58169 0.0
C3709 C 0.00696 0.70006 0.59102 0.0
C3710 C 0.42135 0.4051 0.57777 0.0
C3711 C 0.44828 0.39407 0.57312 0.0
C3712 C 0.43006 0.42255 0.58677 0.0
C3713 C 0.46736 0.43223 0.59158 0.0
H3714 H 0.39274 0.40022 0.57444 0.0
H3715 H 0.4066 0.4281 0.59001 0.0
S3716 S 0.55043 0.41206 0.58245 0.0
N3717 N 0.51426 0.39383 0.5741 0.0
N3718 N 0.53288 0.43094 0.59074 0.0
C3719 C 0.49555 0.42259 0.58696 0.0
C3720 C 0.48575 0.40301 0.5778 0.0
C3721 C 0.71831 0.11635 0.57479 0.0
C3722 C 0.76182 0.13655 0.57314 0.0
C3723 C 0.70216 0.10872 0.58402 0.0
C3724 C 0.72899 0.12176 0.59192 0.0
H3725 H 0.69658 0.10435 0.56891 0.0
H3726 H 0.66843 0.09116 0.585 0.0
S3727 S 0.84533 0.17948 0.59135 0.0
N3728 N 0.83145 0.17193 0.58011 0.0
N3729 N 0.80114 0.15829 0.59746 0.0
C3730 C 0.77255 0.14419 0.59034 0.0
C3731 C 0.78897 0.15136 0.58095 0.0
C3732 C 0.82397 0.81128 0.75414 0.0
C3733 C 0.79618 0.7733 0.75875 0.0
C3734 C 0.81473 0.82095 0.74511 0.0
C3735 C 0.77756 0.79281 0.7403 0.0
H3736 H 0.85317 0.83366 0.75749 0.0
H3737 H 0.83659 0.85085 0.74196 0.0
S3738 S 0.69462 0.68869 0.74913 0.0
N3739 N 0.7286 0.70856 0.75786 0.0
N3740 N 0.71448 0.72382 0.74062 0.0
C3741 C 0.75028 0.75426 0.74474 0.0
C3742 C 0.75867 0.74532 0.75401 0.0
C3743 C 0.37184 0.10557 0.74072 0.0
C3744 C 0.3485 0.06202 0.73919 0.0
C3745 C 0.3812 0.12215 0.74991 0.0
C3746 C 0.36695 0.09574 0.75788 0.0
H3747 H 0.38507 0.12679 0.73478 0.0
H3748 H 0.40107 0.15573 0.75079 0.0
S3749 S 0.30123 0.97971 0.7576 0.0
N3750 N 0.3089 0.99304 0.74633 0.0
N3751 N 0.32583 0.02409 0.7636 0.0
C3752 C 0.34132 0.05233 0.75642 0.0
C3753 C 0.33231 0.03547 0.74707 0.0
C3754 C 0.10607 0.37021 0.75761 0.0
C3755 C 0.0625 0.34682 0.75912 0.0
C3756 C 0.12272 0.37954 0.74842 0.0
C3757 C 0.09635 0.36525 0.74044 0.0
H3758 H 0.12724 0.38356 0.76356 0.0
H3759 H 0.15631 0.39952 0.74755 0.0
S3760 S 0.98032 0.29926 0.74068 0.0
N3761 N 0.99356 0.30701 0.75196 0.0
N3762 N 0.02476 0.32392 0.73469 0.0
C3763 C 0.05294 0.33948 0.74189 0.0
C3764 C 0.03601 0.33049 0.75123 0.0
C3765 C 0.38031 0.33777 0.25009 0.0
C3766 C 0.36777 0.35119 0.25814 0.0
C3767 C 0.37234 0.34691 0.24095 0.0
C3768 C 0.35231 0.37052 0.23953 0.0
H3769 H 0.39773 0.32138 0.25089 0.0
H3770 H 0.38395 0.33739 0.23496 0.0
S3771 S 0.31062 0.41035 0.25819 0.0
N3772 N 0.33188 0.38681 0.26407 0.0
N3773 N 0.31761 0.40465 0.24688 0.0
C3774 C 0.33802 0.38254 0.24749 0.0
C3775 C 0.34552 0.37264 0.2568 0.0
C3776 C 0.81454 0.12058 0.25126 0.0
C3777 C 0.80262 0.09322 0.25905 0.0
C3778 C 0.80801 0.10519 0.24197 0.0
C3779 C 0.78874 0.06189 0.24017 0.0
H3780 H 0.82774 0.15398 0.25236 0.0
H3781 H 0.81593 0.12707 0.23616 0.0
S3782 S 0.75439 0.97748 0.25803 0.0
N3783 N 0.77313 0.02103 0.26431 0.0
N3784 N 0.76022 0.99217 0.24685 0.0
C3785 C 0.77841 0.03442 0.24786 0.0
C3786 C 0.78559 0.05009 0.25731 0.0
C3787 C 0.08268 0.82164 0.24532 0.0
C3788 C 0.0898 0.79296 0.2402 0.0
C3789 C 0.06316 0.81118 0.25428 0.0
C3790 C 0.05053 0.77184 0.25852 0.0
H3791 H 0.09304 0.85265 0.24249 0.0
H3792 H 0.05817 0.83423 0.25789 0.0
S3793 S 0.06089 0.68502 0.24776 0.0
N3794 N 0.07863 0.72198 0.23964 0.0
N3795 N 0.04832 0.70476 0.25678 0.0
C3796 C 0.05758 0.74303 0.25338 0.0
C3797 C 0.07541 0.7529 0.24416 0.0
C3798 C 0.39847 0.96384 0.17028 0.0
C3799 C 0.38862 0.97185 0.16118 0.0
C3800 C 0.37841 0.96776 0.17834 0.0
C3801 C 0.34767 0.9797 0.17758 0.0
H3802 H 0.42138 0.95383 0.17119 0.0
H3803 H 0.3863 0.96044 0.18518 0.0
S3804 S 0.31351 0.00845 0.15554 0.0
N3805 N 0.34798 0.99509 0.15201 0.0
N3806 N 0.31078 0.00273 0.16713 0.0
C3807 C 0.33854 0.9891 0.16858 0.0
C3808 C 0.35886 0.98511 0.16039 0.0
C3809 C 0.17615 0.4343 0.16899 0.0
C3810 C 0.18363 0.4513 0.17816 0.0
C3811 C 0.1809 0.45893 0.16104 0.0
C3812 C 0.19325 0.50168 0.1619 0.0
H3813 H 0.1666 0.40156 0.16793 0.0
H3814 H 0.17496 0.44425 0.15415 0.0
S3815 S 0.21585 0.56131 0.18433 0.0
N3816 N 0.20358 0.51351 0.18766 0.0
N3817 N 0.21195 0.55977 0.1727 0.0
C3818 C 0.19992 0.51893 0.17104 0.0
C3819 C 0.19518 0.49378 0.17916 0.0
C3820 C 0.65057 0.7641 0.1701 0.0
C3821 C 0.66833 0.7764 0.16103 0.0
C3822 C 0.67402 0.78351 0.17826 0.0
C3823 C 0.71619 0.81578 0.17767 0.0
H3824 H 0.61804 0.73985 0.17092 0.0
H3825 H 0.65862 0.77394 0.18507 0.0
S3826 S 0.77883 0.85644 0.15567 0.0
N3827 N 0.73153 0.82119 0.152 0.0
N3828 N 0.77581 0.85639 0.16729 0.0
C3829 C 0.7348 0.82706 0.16866 0.0
C3830 C 0.71085 0.80772 0.16036 0.0
C3831 C 0.96527 0.37582 0.31853 0.0
C3832 C 0.97788 0.34566 0.31953 0.0
C3833 C 0.96077 0.3963 0.32643 0.0
C3834 C 0.96857 0.38727 0.33563 0.0
H3835 H 0.95756 0.38268 0.31162 0.0
H3836 H 0.95007 0.41857 0.32534 0.0
S3837 S 0.00728 0.31454 0.34193 0.0
N3838 N 1.00209 0.3109 0.33034 0.0
N3839 N 0.99278 0.3485 0.34517 0.0
C3840 C 0.98279 0.35838 0.33667 0.0
C3841 C 0.98766 0.33784 0.32864 0.0
C3842 C 0.77643 0.66901 0.31977 0.0
C3843 C 0.80797 0.71124 0.32081 0.0
C3844 C 0.75511 0.64433 0.32765 0.0
C3845 C 0.76443 0.66101 0.33686 0.0
H3846 H 0.76885 0.65463 0.31283 0.0
H3847 H 0.7316 0.61178 0.3265 0.0
S3848 S 0.84189 0.77107 0.34327 0.0
N3849 N 0.84542 0.76948 0.33168 0.0
N3850 N 0.80595 0.72324 0.34647 0.0
C3851 C 0.79517 0.70355 0.33795 0.0
C3852 C 0.81676 0.72861 0.32994 0.0
C3853 C 0.45092 0.1776 0.33825 0.0
C3854 C 0.49317 0.18798 0.33746 0.0
C3855 C 0.42653 0.17271 0.33025 0.0
C3856 C 0.4433 0.17805 0.32109 0.0
H3857 H 0.43636 0.17314 0.34513 0.0
H3858 H 0.39411 0.1645 0.33126 0.0
S3859 S 0.55234 0.2058 0.31506 0.0
N3860 N 0.55077 0.20341 0.3267 0.0
N3861 N 0.50495 0.19474 0.31167 0.0
C3862 C 0.48539 0.18811 0.32016 0.0
C3863 C 0.51031 0.19302 0.32833 0.0
C3864 C 0.82227 0.17123 0.83015 0.0
C3865 C 0.81273 0.17879 0.821 0.0
C3866 C 0.80228 0.17579 0.8381 0.0
C3867 C 0.77181 0.18804 0.83724 0.0
H3868 H 0.84547 0.16168 0.8312 0.0
H3869 H 0.81094 0.16966 0.84498 0.0
S3870 S 0.73548 0.21172 0.81483 0.0
N3871 N 0.77089 0.19927 0.8115 0.0
N3872 N 0.73281 0.20741 0.82645 0.0
C3873 C 0.76144 0.19511 0.82811 0.0
C3874 C 0.78195 0.19052 0.82 0.0
C3875 C 0.96305 0.66729 0.82128 0.0
C3876 C 0.97604 0.71024 0.82198 0.0
C3877 C 0.95845 0.64323 0.82937 0.0
C3878 C 0.9667 0.66125 0.83846 0.0
H3879 H 0.95548 0.65194 0.81446 0.0
H3880 H 0.94777 0.61015 0.8285 0.0
S3881 S 0.00552 0.77343 0.84399 0.0
N3882 N 1.00011 0.77044 0.8324 0.0
N3883 N 0.99099 0.72539 0.84757 0.0
C3884 C 0.98078 0.70443 0.83921 0.0
C3885 C 0.98557 0.72886 0.83099 0.0
C3886 C 0.43302 0.33447 0.82969 0.0
C3887 C 0.45092 0.34442 0.82061 0.0
C3888 C 0.45675 0.35441 0.83774 0.0
C3889 C 0.49945 0.38524 0.83707 0.0
H3890 H 0.40025 0.31099 0.83059 0.0
H3891 H 0.44137 0.3454 0.84455 0.0
S3892 S 0.56136 0.42282 0.81492 0.0
N3893 N 0.51396 0.38712 0.81139 0.0
N3894 N 0.55864 0.42507 0.82653 0.0
C3895 C 0.51768 0.39605 0.82801 0.0
C3896 C 0.4934 0.37559 0.81979 0.0
C3897 C 0.17688 0.80053 0.66076 0.0
C3898 C 0.19018 0.77084 0.66154 0.0
C3899 C 0.17221 0.82023 0.66875 0.0
C3900 C 0.18072 0.8112 0.67787 0.0
H3901 H 0.17003 0.80881 0.65391 0.0
H3902 H 0.16183 0.84281 0.66776 0.0
S3903 S 0.21656 0.736 0.68381 0.0
N3904 N 0.21148 0.73306 0.67221 0.0
N3905 N 0.20321 0.77062 0.68723 0.0
C3906 C 0.19348 0.78116 0.67879 0.0
C3907 C 0.19813 0.76091 0.67063 0.0
C3908 C 0.33875 0.43516 0.66936 0.0
C3909 C 0.34723 0.45245 0.6785 0.0
C3910 C 0.35918 0.45972 0.66144 0.0
C3911 C 0.38901 0.50265 0.66231 0.0
H3912 H 0.31605 0.40226 0.66831 0.0
H3913 H 0.35134 0.4448 0.65457 0.0
S3914 S 0.42235 0.5632 0.68469 0.0
N3915 N 0.38734 0.51515 0.688 0.0
N3916 N 0.42616 0.56141 0.6731 0.0
C3917 C 0.39831 0.52027 0.67143 0.0
C3918 C 0.37737 0.49516 0.67952 0.0
C3919 C 0.70353 0.9814 0.66131 0.0
C3920 C 0.66148 0.9717 0.66211 0.0
C3921 C 0.7275 0.9849 0.6693 0.0
C3922 C 0.71051 0.97885 0.67845 0.0
H3923 H 0.71818 0.98614 0.65444 0.0
H3924 H 0.75974 0.99248 0.66829 0.0
S3925 S 0.6022 0.95352 0.68449 0.0
N3926 N 0.60404 0.95686 0.67285 0.0
N3927 N 0.64908 0.96299 0.68788 0.0
C3928 C 0.66874 0.96986 0.67939 0.0
C3929 C 0.64424 0.96634 0.67123 0.0
C3930 C 0.02457 0.31278 0.49558 0.0
C3931 C 0.05512 0.30061 0.49641 0.0
C3932 C 0.00421 0.31677 0.50353 0.0
C3933 C 0.01334 0.30862 0.51267 0.0
H3934 H 0.01598 0.31906 0.4887 0.0
H3935 H 0.98089 0.32615 0.50248 0.0
S3936 S 0.09161 0.27689 0.51879 0.0
N3937 N 0.09447 0.28165 0.50718 0.0
N3938 N 0.05561 0.28849 0.52213 0.0
C3939 C 0.04453 0.29738 0.51366 0.0
C3940 C 0.06548 0.29348 0.50553 0.0
C3941 C 0.85177 0.81585 0.51189 0.0
C3942 C 0.84241 0.77393 0.51111 0.0
C3943 C 0.85645 0.84003 0.50383 0.0
C3944 C 0.85215 0.82326 0.49468 0.0
H3945 H 0.85673 0.8305 0.51876 0.0
H3946 H 0.86433 0.87236 0.50478 0.0
S3947 S 0.82338 0.71367 0.48885 0.0
N3948 N 0.82511 0.71553 0.50049 0.0
N3949 N 0.83527 0.76116 0.48538 0.0
C3950 C 0.84138 0.78093 0.49383 0.0
C3951 C 0.83617 0.75625 0.50202 0.0
C3952 C 0.39274 0.15079 0.50229 0.0
C3953 C 0.37534 0.14169 0.51142 0.0
C3954 C 0.36843 0.13041 0.49434 0.0
C3955 C 0.32563 0.10003 0.49517 0.0
H3956 H 0.42554 0.17393 0.50127 0.0
H3957 H 0.38341 0.13874 0.48747 0.0
S3958 S 0.26488 0.06494 0.51751 0.0
N3959 N 0.31269 0.1004 0.52086 0.0
N3960 N 0.2669 0.06169 0.50591 0.0
C3961 C 0.30792 0.09013 0.50428 0.0
C3962 C 0.33278 0.111 0.5124 0.0
C3963 C 0.62397 0.72828 0.6613 0.0
C3964 C 0.63228 0.71907 0.67043 0.0
C3965 C 0.62857 0.70835 0.6533 0.0
C3966 C 0.64171 0.67853 0.65414 0.0
H3967 H 0.61315 0.75051 0.66033 0.0
H3968 H 0.62085 0.71562 0.64643 0.0
S3969 S 0.67159 0.64641 0.67633 0.0
N3970 N 0.65688 0.67998 0.67975 0.0
N3971 N 0.66616 0.64332 0.66474 0.0
C3972 C 0.65144 0.67013 0.66319 0.0
C3973 C 0.64657 0.69016 0.67132 0.0
C3974 C 0.48532 0.06105 0.66229 0.0
C3975 C 0.47658 0.0436 0.65317 0.0
C3976 C 0.46453 0.03685 0.67023 0.0
C3977 C 0.43405 0.99411 0.66939 0.0
H3978 H 0.50853 0.09381 0.66332 0.0
H3979 H 0.47267 0.05188 0.67708 0.0
S3980 S 0.39954 0.93326 0.64706 0.0
N3981 N 0.43535 0.98095 0.64372 0.0
N3982 N 0.39585 0.93539 0.65865 0.0
C3983 C 0.42442 0.97635 0.66029 0.0
C3984 C 0.44572 1.00109 0.65218 0.0
C3985 C 0.09924 0.50686 0.66358 0.0
C3986 C 0.11779 0.51661 0.65457 0.0
C3987 C 0.12292 0.51113 0.67167 0.0
C3988 C 0.16617 0.52529 0.6711 0.0
H3989 H 0.06604 0.49579 0.6644 0.0
H3990 H 0.10705 0.50327 0.67844 0.0
S3991 S 0.22997 0.55563 0.64916 0.0
N3992 N 0.18206 0.54149 0.64552 0.0
N3993 N 0.22667 0.54916 0.66074 0.0
C3994 C 0.18509 0.53467 0.66211 0.0
C3995 C 0.16088 0.53036 0.65385 0.0
C3996 C 0.4229 0.49947 0.16299 0.0
C3997 C 0.44101 0.53632 0.16838 0.0
C3998 C 0.44332 0.49585 0.15499 0.0
C3999 C 0.48205 0.52963 0.15197 0.0
H4000 H 0.39363 0.47291 0.16522 0.0
H4001 H 0.4294 0.46595 0.15136 0.0
S4002 S 0.53675 0.63631 0.16251 0.0
N4003 N 0.49646 0.60886 0.16959 0.0
N4004 N 0.53353 0.60354 0.15415 0.0
C4005 C 0.49849 0.56789 0.15691 0.0
C4006 C 0.47831 0.57093 0.16522 0.0
C4007 C 0.64631 0.03396 0.17084 0.0
C4008 C 0.63408 0.99124 0.17002 0.0
C4009 C 0.65109 0.05843 0.16286 0.0
C4010 C 0.6437 0.04127 0.15371 0.0
H4011 H 0.65231 0.0488 0.17771 0.0
H4012 H 0.66073 0.09121 0.16389 0.0
S4013 S 0.61096 0.93102 0.14767 0.0
N4014 N 0.61506 0.93282 0.1593 0.0
N4015 N 0.6234 0.97879 0.14429 0.0
C4016 C 0.63199 0.99873 0.15276 0.0
C4017 C 0.6273 0.97374 0.16091 0.0
C4018 C 0.18253 0.72973 0.16238 0.0
C4019 C 0.16529 0.71905 0.17152 0.0
C4020 C 0.15834 0.70951 0.15435 0.0
C4021 C 0.11599 0.67782 0.15516 0.0
H4022 H 0.21514 0.75347 0.1614 0.0
H4023 H 0.17316 0.71816 0.14747 0.0
S4024 S 0.05466 0.64098 0.17739 0.0
N4025 N 0.10234 0.67634 0.18083 0.0
N4026 N 0.05702 0.63899 0.16578 0.0
C4027 C 0.09806 0.66774 0.16423 0.0
C4028 C 0.12264 0.68817 0.17239 0.0
C4029 C 0.84912 0.13652 0.99381 0.0
C4030 C 0.85865 0.10404 0.99456 0.0
C4031 C 0.84488 0.15631 0.00184 0.0
C4032 C 0.84996 0.1445 0.01098 0.0
H4033 H 0.84483 0.14686 0.98695 0.0
H4034 H 0.83714 0.18086 0.00087 0.0
S4035 S 0.87531 0.06144 0.01686 0.0
N4036 N 0.8729 0.06083 0.00522 0.0
N4037 N 0.86545 0.09847 0.02032 0.0
C4038 C 0.85923 0.11189 0.01186 0.0
C4039 C 0.86348 0.09162 0.00366 0.0
C4040 C 0.01014 0.82521 0.99869 0.0
C4041 C 0.05377 0.84472 0.99755 0.0
C4042 C 0.99054 0.80329 0.00696 0.0
C4043 C 0.01321 0.79781 0.01432 0.0
H4044 H 0.99082 0.82697 0.99313 0.0
H4045 H 0.95712 0.79036 0.00748 0.0
S4046 S 0.12976 0.84699 0.01505 0.0
N4047 N 0.12022 0.86205 0.00482 0.0
N4048 N 0.08341 0.81696 0.01995 0.0
C4049 C 0.05749 0.81876 0.01337 0.0
C4050 C 0.07765 0.84295 0.00508 0.0
C4051 C 0.3081 0.29 0.00325 0.0
C4052 C 0.32704 0.29788 0.99427 0.0
C4053 C 0.33099 0.29347 0.01147 0.0
C4054 C 0.37367 0.30509 0.01101 0.0
H4055 H 0.27512 0.28021 0.00392 0.0
H4056 H 0.31488 0.28592 0.01821 0.0
S4057 S 0.43927 0.33396 0.98936 0.0
N4058 N 0.39192 0.32083 0.98551 0.0
N4059 N 0.4349 0.32832 0.00093 0.0
C4060 C 0.39337 0.3148 0.00212 0.0
C4061 C 0.37009 0.31096 0.99376 0.0
C4062 C 0.67322 0.64918 0.83663 0.0
C4063 C 0.68172 0.64141 0.84587 0.0
C4064 C 0.6941 0.6448 0.82884 0.0
C4065 C 0.72447 0.63252 0.82993 0.0
H4066 H 0.65011 0.6587 0.83541 0.0
H4067 H 0.68616 0.65098 0.82188 0.0
S4068 S 0.75864 0.60885 0.85265 0.0
N4069 N 0.72274 0.62105 0.8557 0.0
N4070 N 0.7625 0.61328 0.84104 0.0
C4071 C 0.73395 0.62545 0.83915 0.0
C4072 C 0.71251 0.62983 0.84711 0.0
C4073 C 0.51318 0.12 0.82678 0.0
C4074 C 0.52599 0.1629 0.82746 0.0
C4075 C 0.5087 0.09603 0.83484 0.0
C4076 C 0.5169 0.11392 0.84392 0.0
H4077 H 0.50651 0.10463 0.81997 0.0
H4078 H 0.49867 0.0631 0.83394 0.0
S4079 S 0.55175 0.22495 0.8496 0.0
N4080 N 0.5468 0.22234 0.838 0.0
N4081 N 0.53876 0.17721 0.85314 0.0
C4082 C 0.52928 0.15665 0.84473 0.0
C4083 C 0.5338 0.18114 0.83651 0.0
C4084 C 0.06029 0.48458 0.83625 0.0
C4085 C 0.04206 0.47516 0.84529 0.0
C4086 C 0.03692 0.4639 0.82821 0.0
C4087 C 0.99428 0.43289 0.82887 0.0
H4088 H 0.09301 0.50822 0.83536 0.0
H4089 H 0.0525 0.47256 0.82141 0.0
S4090 S 0.93166 0.39658 0.85095 0.0
N4091 N 0.97885 0.43277 0.85448 0.0
N4092 N 0.9348 0.39352 0.83937 0.0
C4093 C 0.97575 0.42264 0.8379 0.0
C4094 C 0.99966 0.44381 0.8461 0.0
C4095 C 0.28802 0.0352 0.98705 0.0
C4096 C 0.30218 0.00608 0.98743 0.0
C4097 C 0.28437 0.0544 0.99529 0.0
C4098 C 0.29474 0.04515 0.0042 0.0
H4099 H 0.27894 0.04262 0.98036 0.0
H4100 H 0.27276 0.07615 0.99467 0.0
S4101 S 0.33723 0.97412 0.00887 0.0
N4102 N 0.32961 0.97137 0.99735 0.0
N4103 N 0.3222 0.00676 0.0128 0.0
C4104 C 0.30993 0.01687 0.00463 0.0
C4105 C 0.31378 0.99752 0.99626 0.0
C4106 C 0.14218 0.32178 0.99882 0.0
C4107 C 0.09877 0.30423 -1e-05 0.0
C4108 C 0.16239 0.34389 0.99062 0.0
C4109 C 0.14066 0.35155 0.9834 0.0
H4110 H 0.1608 0.31824 0.00428 0.0
H4111 H 0.19555 0.35525 0.99004 0.0
S4112 S 0.02486 0.30793 0.98278 0.0
N4113 N 0.03326 0.29096 0.99288 0.0
N4114 N 0.07151 0.33656 0.9779 0.0
C4115 C 0.09654 0.3326 0.98438 0.0
C4116 C 0.07565 0.30816 0.99258 0.0
C4117 C 0.82115 0.85103 0.98673 0.0
C4118 C 0.77877 0.84038 0.98736 0.0
C4119 C 0.84449 0.85419 0.99486 0.0
C4120 C 0.8263 0.84694 0.00391 0.0
H4121 H 0.83674 0.85815 0.97993 0.0
H4122 H 0.87725 0.86332 0.99404 0.0
S4123 S 0.71494 0.81319 0.00927 0.0
N4124 N 0.71851 0.81854 0.99768 0.0
N4125 N 0.76232 0.82543 0.01292 0.0
C4126 C 0.78349 0.83469 0.00459 0.0
C4127 C 0.75976 0.83118 0.99633 0.0
C4128 C 0.13118 0.84036 0.50476 0.0
C4129 C 0.10102 0.85309 0.50401 0.0
C4130 C 0.15134 0.8364 0.49677 0.0
C4131 C 0.14227 0.845 0.48766 0.0
H4132 H 0.13949 0.83345 0.5116 0.0
H4133 H 0.17426 0.82642 0.49773 0.0
S4134 S 0.0661 0.87969 0.48176 0.0
N4135 N 0.06293 0.87414 0.49336 0.0
N4136 N 0.10126 0.86707 0.47833 0.0
C4137 C 0.11182 0.85724 0.48676 0.0
C4138 C 0.09115 0.86123 0.49492 0.0
C4139 C 0.3145 0.38974 0.49617 0.0
C4140 C 0.3087 0.3735 0.48695 0.0
C4141 C 0.31007 0.36492 0.50405 0.0
C4142 C 0.2997 0.32275 0.50308 0.0
H4143 H 0.32261 0.42204 0.49731 0.0
H4144 H 0.31474 0.37904 0.51098 0.0
S4145 S 0.28161 0.26516 0.48047 0.0
N4146 N 0.29217 0.31259 0.47727 0.0
N4147 N 0.28437 0.26596 0.49211 0.0
C4148 C 0.29452 0.30623 0.49389 0.0
C4149 C 0.29895 0.33158 0.48583 0.0
C4150 C 0.82173 0.06619 0.49667 0.0
C4151 C 0.83969 0.04749 0.50213 0.0
C4152 C 0.79747 0.04599 0.48867 0.0
C4153 C 0.79144 0.00678 0.4857 0.0
H4154 H 0.82519 0.0958 0.49884 0.0
H4155 H 0.78229 0.06059 0.48498 0.0
S4156 S 0.84054 0.94982 0.49653 0.0
N4157 N 0.85449 0.99056 0.50352 0.0
N4158 N 0.81173 0.95381 0.48809 0.0
C4159 C 0.81224 0.98949 0.49075 0.0
C4160 C 0.83571 0.00952 0.49905 0.0
C4161 C 0.50049 0.462 0.32706 0.0
C4162 C 0.51291 0.43169 0.32799 0.0
C4163 C 0.49647 0.48264 0.33495 0.0
C4164 C 0.50467 0.47384 0.34411 0.0
H4165 H 0.49394 0.47011 0.32016 0.0
H4166 H 0.48683 0.50574 0.33386 0.0
S4167 S 0.53889 0.39781 0.35048 0.0
N4168 N 0.53358 0.39403 0.33889 0.0
N4169 N 0.52627 0.4332 0.35371 0.0
C4170 C 0.5167 0.44334 0.3452 0.0
C4171 C 0.52081 0.42223 0.33715 0.0
C4172 C 0.73486 0.15678 0.33516 0.0
C4173 C 0.71634 0.17512 0.32976 0.0
C4174 C 0.71452 0.13226 0.34312 0.0
C4175 C 0.67531 0.12624 0.34609 0.0
H4176 H 0.76442 0.16011 0.33296 0.0
H4177 H 0.72896 0.11681 0.34676 0.0
S4178 S 0.6187 0.17599 0.33543 0.0
N4179 N 0.65955 0.19021 0.32845 0.0
N4180 N 0.62244 0.14673 0.34379 0.0
C4181 C 0.65818 0.14734 0.34111 0.0
C4182 C 0.67839 0.17116 0.33286 0.0
C4183 C 0.99855 0.63008 0.34638 0.0
C4184 C 0.04114 0.64211 0.34527 0.0
C4185 C 0.97325 0.62551 0.33853 0.0
C4186 C 0.98965 0.63284 0.3293 0.0
H4187 H 0.98442 0.62317 0.35334 0.0
H4188 H 0.94047 0.61548 0.33971 0.0
S4189 S 0.10036 0.66895 0.32271 0.0
N4190 N 0.09934 0.66435 0.33432 0.0
N4191 N 0.05196 0.65525 0.31959 0.0
C4192 C 0.03252 0.64604 0.32814 0.0
C4193 C 0.0582 0.65081 0.33612 0.0
C4194 C 0.6357 0.35418 0.14074 0.0
C4195 C 0.6295 0.33215 0.13222 0.0
C4196 C 0.64253 0.39523 0.14076 0.0
C4197 C 0.64317 0.41538 0.13227 0.0
H4198 H 0.64021 0.34151 0.14726 0.0
H4199 H 0.6522 0.41293 0.14729 0.0
S4200 S 0.61988 0.36798 0.1084 0.0
N4201 N 0.61749 0.33075 0.11534 0.0
N4202 N 0.6301 0.40792 0.11539 0.0
C4203 C 0.63116 0.39159 0.12392 0.0
C4204 C 0.62433 0.3498 0.12389 0.0
C4205 C 0.81105 0.36213 0.14024 0.0
C4206 C 0.83201 0.37779 0.13159 0.0
C4207 C 0.77 0.32788 0.14049 0.0
C4208 C 0.74877 0.30813 0.13211 0.0
H4209 H 0.82456 0.37946 0.1467 0.0
H4210 H 0.75314 0.31995 0.14714 0.0
S4211 S 0.79306 0.33193 0.10794 0.0
N4212 N 0.83119 0.36692 0.11468 0.0
N4213 N 0.75404 0.30227 0.11516 0.0
C4214 C 0.77149 0.31982 0.12361 0.0
C4215 C 0.81326 0.35483 0.12335 0.0
C4216 C 0.84322 0.53137 0.12351 0.0
C4217 C 0.85654 0.52126 0.13193 0.0
C4218 C 0.80869 0.53793 0.12347 0.0
C4219 C 0.78671 0.53459 0.13185 0.0
H4220 H 0.85609 0.52908 0.1168 0.0
H4221 H 0.79615 0.54051 0.11674 0.0
S4222 S 0.81508 0.51805 0.15592 0.0
N4223 N 0.84984 0.51549 0.14898 0.0
N4224 N 0.78516 0.52795 0.14891 0.0
C4225 C 0.80343 0.5303 0.14042 0.0
C4226 C 0.83838 0.52358 0.14046 0.0
C4227 C 0.34468 0.61897 0.37529 0.0
C4228 C 0.32543 0.62302 0.36709 0.0
C4229 C 0.38581 0.62572 0.37498 0.0
C4230 C 0.40864 0.63673 0.36648 0.0
H4231 H 0.33002 0.61572 0.38211 0.0
H4232 H 0.40148 0.62745 0.38159 0.0
S4233 S 0.3687 0.64203 0.34283 0.0
N4234 N 0.32933 0.63131 0.35005 0.0
N4235 N 0.40651 0.64402 0.34949 0.0
C4236 C 0.38754 0.63506 0.35809 0.0
C4237 C 0.34584 0.62816 0.35839 0.0
C4238 C 0.52225 0.79565 0.35806 0.0
C4239 C 0.52841 0.77989 0.3666 0.0
C4240 C 0.51533 0.82982 0.358 0.0
C4241 C 0.51463 0.84941 0.36647 0.0
H4242 H 0.51776 0.7784 0.35155 0.0
H4243 H 0.50568 0.83777 0.35145 0.0
S4244 S 0.53775 0.8255 0.39038 0.0
N4245 N 0.54025 0.79063 0.38348 0.0
N4246 N 0.52756 0.85515 0.38336 0.0
C4247 C 0.52659 0.8377 0.37484 0.0
C4248 C 0.53347 0.80277 0.3749 0.0
C4249 C 0.3497 0.80706 0.3755 0.0
C4250 C 0.37119 0.82536 0.36705 0.0
C4251 C 0.31513 0.766 0.37559 0.0
C4252 C 0.30124 0.74223 0.36724 0.0
H4253 H 0.36267 0.82245 0.38219 0.0
H4254 H 0.30267 0.75111 0.38235 0.0
S4255 S 0.34135 0.77941 0.34311 0.0
N4256 N 0.37173 0.81951 0.35 0.0
N4257 N 0.30694 0.74245 0.35017 0.0
C4258 C 0.31892 0.76236 0.35864 0.0
C4259 C 0.35394 0.80399 0.35855 0.0
C4260 C 0.53514 0.80682 0.87365 0.0
C4261 C 0.53101 0.82519 0.8653 0.0
C4262 C 0.52814 0.76561 0.87362 0.0
C4263 C 0.5168 0.74181 0.86525 0.0
H4264 H 0.53864 0.82228 0.88037 0.0
H4265 H 0.52646 0.75068 0.88033 0.0
S4266 S 0.51155 0.7793 0.84131 0.0
N4267 N 0.52261 0.81951 0.84828 0.0
N4268 N 0.5093 0.7421 0.84824 0.0
C4269 C 0.51846 0.76201 0.85672 0.0
C4270 C 0.52565 0.80382 0.85675 0.0
C4271 C 0.35015 0.7964 0.85737 0.0
C4272 C 0.32889 0.78098 0.866 0.0
C4273 C 0.39131 0.83045 0.85716 0.0
C4274 C 0.41236 0.85022 0.86555 0.0
H4275 H 0.33678 0.77899 0.85091 0.0
H4276 H 0.40838 0.83815 0.85054 0.0
S4277 S 0.36718 0.8273 0.88965 0.0
N4278 N 0.32918 0.79232 0.88288 0.0
N4279 N 0.40654 0.85658 0.88247 0.0
C4280 C 0.38934 0.83889 0.87402 0.0
C4281 C 0.34744 0.8041 0.87424 0.0
C4282 C 0.35098 0.6198 0.87422 0.0
C4283 C 0.37302 0.62317 0.86584 0.0
C4284 C 0.31669 0.62673 0.87418 0.0
C4285 C 0.30367 0.63726 0.86578 0.0
H4286 H 0.36333 0.61693 0.88095 0.0
H4287 H 0.3038 0.62898 0.8809 0.0
S4288 S 0.34524 0.64057 0.84179 0.0
N4289 N 0.37481 0.63015 0.84879 0.0
N4290 N 0.3106 0.64333 0.84873 0.0
C4291 C 0.32181 0.63492 0.85725 0.0
C4292 C 0.35651 0.6278 0.85728 0.0
C4293 C 0.76859 0.52894 0.62409 0.0
C4294 C 0.74441 0.51818 0.6324 0.0
C4295 C 0.80977 0.53574 0.62422 0.0
C4296 C 0.82775 0.53194 0.63266 0.0
H4297 H 0.75398 0.52702 0.61732 0.0
H4298 H 0.8255 0.53883 0.61755 0.0
S4299 S 0.78061 0.51346 0.65652 0.0
N4300 N 0.74385 0.51123 0.64944 0.0
N4301 N 0.82114 0.52411 0.64969 0.0
C4302 C 0.80594 0.52698 0.64114 0.0
C4303 C 0.76419 0.52003 0.64101 0.0
C4304 C 0.62838 0.31798 0.62369 0.0
C4305 C 0.63889 0.30525 0.63214 0.0
C4306 C 0.62159 0.35233 0.62357 0.0
C4307 C 0.62513 0.37472 0.63189 0.0
H4308 H 0.63058 0.30482 0.61702 0.0
H4309 H 0.61877 0.36448 0.61681 0.0
S4310 S 0.64259 0.34781 0.65603 0.0
N4311 N 0.64504 0.31276 0.64917 0.0
N4312 N 0.63229 0.3772 0.64895 0.0
C4313 C 0.62969 0.35849 0.64051 0.0
C4314 C 0.63659 0.32369 0.64063 0.0
C4315 C 0.8407 0.38979 0.62477 0.0
C4316 C 0.8522 0.41295 0.63323 0.0
C4317 C 0.80625 0.34871 0.62449 0.0
C4318 C 0.78256 0.32983 0.63267 0.0
H4319 H 0.85492 0.40519 0.61816 0.0
H4320 H 0.7951 0.33382 0.61768 0.0
S4321 S 0.80599 0.3739 0.65686 0.0
N4322 N 0.84212 0.41144 0.65019 0.0
N4323 N 0.77756 0.33431 0.64967 0.0
C4324 C 0.79755 0.35051 0.64135 0.0
C4325 C 0.83241 0.39217 0.64163 0.0
C4326 C 0.29893 0.68084 0.47423 0.0
C4327 C 0.29179 0.65939 0.46559 0.0
C4328 C 0.30576 0.72186 0.47452 0.0
C4329 C 0.30544 0.74253 0.46619 0.0
H4330 H 0.30418 0.66775 0.4806 0.0
H4331 H 0.31615 0.73914 0.4811 0.0
S4332 S 0.27936 0.69664 0.44218 0.0
N4333 N 0.2778 0.65901 0.44884 0.0
N4334 N 0.29036 0.73612 0.44939 0.0
C4335 C 0.29243 0.71926 0.45777 0.0
C4336 C 0.28562 0.67752 0.45747 0.0
C4337 C 0.4328 0.65468 0.47269 0.0
C4338 C 0.41098 0.63535 0.46434 0.0
C4339 C 0.47379 0.68904 0.47238 0.0
C4340 C 0.49413 0.70519 0.46369 0.0
H4341 H 0.41641 0.64636 0.4794 0.0
H4342 H 0.48769 0.70605 0.47886 0.0
S4343 S 0.45361 0.6606 0.44003 0.0
N4344 N 0.41511 0.63047 0.44732 0.0
N4345 N 0.49217 0.69527 0.44673 0.0
C4346 C 0.47483 0.68267 0.45544 0.0
C4347 C 0.43311 0.64757 0.45576 0.0
C4348 C 0.4695 0.86527 0.45672 0.0
C4349 C 0.44865 0.86192 0.46528 0.0
C4350 C 0.504 0.85871 0.45641 0.0
C4351 C 0.51845 0.84866 0.46466 0.0
H4352 H 0.45606 0.86782 0.45011 0.0
H4353 H 0.51595 0.85638 0.44958 0.0
S4354 S 0.48029 0.84549 0.489 0.0
N4355 N 0.44944 0.85538 0.48231 0.0
N4356 N 0.51408 0.84291 0.48173 0.0
C4357 C 0.50147 0.85098 0.47336 0.0
C4358 C 0.46653 0.85769 0.47367 0.0
C4359 C 0.01377 0.95469 0.70763 0.0
C4360 C 0.99474 0.95899 0.69942 0.0
C4361 C 0.05487 0.96138 0.70735 0.0
C4362 C 0.07783 0.97259 0.69887 0.0
H4363 H 0.99902 0.95135 0.71445 0.0
H4364 H 0.07043 0.96302 0.71397 0.0
S4365 S 0.03815 0.97791 0.67519 0.0
N4366 N 0.99872 0.96724 0.68239 0.0
N4367 N 0.07589 0.97987 0.68188 0.0
C4368 C 0.05683 0.97092 0.69046 0.0
C4369 C 0.01517 0.96409 0.69074 0.0
C4370 C 0.19007 0.1318 0.69047 0.0
C4371 C 0.19656 0.11634 0.69902 0.0
C4372 C 0.18338 0.16609 0.69039 0.0
C4373 C 0.1832 0.18607 0.69884 0.0
H4374 H 0.18524 0.11428 0.68399 0.0
H4375 H 0.17347 0.17385 0.68385 0.0
S4376 S 0.20753 0.16313 0.72273 0.0
N4377 N 0.20943 0.12784 0.71586 0.0
N4378 N 0.19712 0.19258 0.71569 0.0
C4379 C 0.19557 0.17468 0.7072 0.0
C4380 C 0.20223 0.13963 0.70729 0.0
C4381 C 0.98429 0.10175 0.70814 0.0
C4382 C 0.97047 0.07818 0.69976 0.0
C4383 C 0.01856 0.14299 0.70808 0.0
C4384 C 0.03982 0.16169 0.69963 0.0
H4385 H 0.97201 0.08662 0.71489 0.0
H4386 H 0.03153 0.15824 0.71478 0.0
S4387 S 0.00992 0.11631 0.67564 0.0
N4388 N 0.97592 0.07894 0.68268 0.0
N4389 N 0.04009 0.15635 0.68256 0.0
C4390 C 0.02256 0.14047 0.69111 0.0
C4391 C 0.98787 0.09863 0.69117 0.0
C4392 C 0.19844 0.10428 0.20886 0.0
C4393 C 0.18846 0.08106 0.20041 0.0
C4394 C 0.20467 0.14522 0.20895 0.0
C4395 C 0.2011 0.1639 0.2006 0.0
H4396 H 0.19625 0.08899 0.21554 0.0
H4397 H 0.20717 0.16015 0.2157 0.0
S4398 S 0.18468 0.11952 0.17648 0.0
N4399 N 0.18259 0.08227 0.18337 0.0
N4400 N 0.19431 0.15908 0.18354 0.0
C4401 C 0.19695 0.14314 0.192 0.0
C4402 C 0.19062 0.10164 0.19191 0.0
C4403 C 0.01676 0.14269 0.20758 0.0
C4404 C 0.99942 0.11948 0.19927 0.0
C4405 C 0.05782 0.17713 0.20764 0.0
C4406 C 0.08239 0.18905 0.19939 0.0
H4407 H 1.00071 0.13111 0.21427 0.0
H4408 H 0.07208 0.1909 0.21437 0.0
S4409 S 0.04741 0.1447 0.17547 0.0
N4410 N 0.00663 0.1157 0.18232 0.0
N4411 N 0.0838 0.18033 0.18244 0.0
C4412 C 0.06307 0.16996 0.19083 0.0
C4413 C 0.02144 0.13507 0.19077 0.0
C4414 C 0.9952 0.97435 0.19181 0.0
C4415 C 0.97572 0.97631 0.20019 0.0
C4416 C 0.02926 0.96724 0.19206 0.0
C4417 C 0.045 0.96207 0.2007 0.0
H4418 H 0.98721 0.98311 0.18515 0.0
H4419 H 0.04642 0.97076 0.18558 0.0
S4420 S 0.99978 0.9563 0.22439 0.0
N4421 N 0.97018 0.96573 0.21716 0.0
N4422 N 0.03444 0.95263 0.21764 0.0
C4423 C 0.02227 0.95833 0.20896 0.0
C4424 C 0.98747 0.96543 0.20871 0.0
C4425 C 0.47644 0.8656 0.95572 0.0
C4426 C 0.49381 0.86239 0.96431 0.0
C4427 C 0.43522 0.85858 0.95534 0.0
C4428 C 0.41045 0.84827 0.96354 0.0
H4429 H 0.49269 0.86836 0.94914 0.0
H4430 H 0.42108 0.85618 0.94848 0.0
S4431 S 0.44483 0.8451 0.98794 0.0
N4432 N 0.48593 0.85549 0.98133 0.0
N4433 N 0.40855 0.84227 0.98061 0.0
C4434 C 0.42955 0.85066 0.97228 0.0
C4435 C 0.47134 0.85779 0.97266 0.0
C4436 C 0.30177 0.65432 0.97173 0.0
C4437 C 0.30371 0.63473 0.96337 0.0
C4438 C 0.29539 0.68881 0.97143 0.0
C4439 C 0.29078 0.70473 0.96276 0.0
H4440 H 0.3102 0.64617 0.97841 0.0
H4441 H 0.29907 0.70609 0.97789 0.0
S4442 S 0.28516 0.65941 0.93911 0.0
N4443 N 0.29376 0.62938 0.94638 0.0
N4444 N 0.28181 0.69435 0.94582 0.0
C4445 C 0.28695 0.68193 0.95451 0.0
C4446 C 0.2934 0.64676 0.95482 0.0
C4447 C 0.4621 0.6808 0.97292 0.0
C4448 C 0.44732 0.65952 0.96428 0.0
C4449 C 0.49642 0.72182 0.97322 0.0
C4450 C 0.51713 0.7428 0.96488 0.0
H4451 H 0.4441 0.66753 0.97932 0.0
H4452 H 0.5037 0.73887 0.97983 0.0
S4453 S 0.49561 0.69774 0.94078 0.0
N4454 N 0.4599 0.65986 0.94745 0.0
N4455 N 0.5246 0.73696 0.94801 0.0
C4456 C 0.50618 0.71982 0.95642 0.0
C4457 C 0.47113 0.67805 0.95611 0.0
C4458 C 0.96564 0.01501 0.80755 0.0
C4459 C 0.95997 0.99416 0.79888 0.0
C4460 C 0.97268 0.05611 0.80786 0.0
C4461 C 0.97406 0.07745 0.79951 0.0
H4462 H 0.96961 1.00139 0.81398 0.0
H4463 H 0.98192 0.0729 0.81451 0.0
S4464 S 0.95231 0.03334 0.77531 0.0
N4465 N 0.94921 0.99509 0.782 0.0
N4466 N 0.96219 0.07236 0.78258 0.0
C4467 C 0.96253 0.05481 0.79099 0.0
C4468 C 0.95551 0.01299 0.79068 0.0
C4469 C 0.1404 0.02197 0.80736 0.0
C4470 C 0.16231 0.03871 0.79886 0.0
C4471 C 0.09924 0.98788 0.80731 0.0
C4472 C 0.07883 0.96937 0.79877 0.0
H4473 H 0.15328 0.03837 0.81395 0.0
H4474 H 0.08167 0.97915 0.81387 0.0
S4475 S 0.1257 0.99616 0.77486 0.0
N4476 N 0.16321 0.03006 0.78189 0.0
N4477 N 0.08585 0.96573 0.78181 0.0
C4478 C 0.10245 0.98207 0.7904 0.0
C4479 C 0.14435 0.01691 0.79044 0.0
C4480 C 0.16742 0.18258 0.80829 0.0
C4481 C 0.18713 0.18217 0.79981 0.0
C4482 C 0.13329 0.18957 0.80825 0.0
C4483 C 0.11773 0.19613 0.79973 0.0
H4484 H 0.17527 0.17268 0.81481 0.0
H4485 H 0.11597 0.18491 0.81476 0.0
S4486 S 0.16373 0.20637 0.77595 0.0
N4487 N 0.19321 0.19581 0.78295 0.0
N4488 N 0.12879 0.20868 0.78287 0.0
C4489 C 0.14074 0.2015 0.79143 0.0
C4490 C 0.17562 0.19453 0.79147 0.0
C4491 C 0.71966 0.29005 0.04292 0.0
C4492 C 0.74432 0.30075 0.03469 0.0
C4493 C 0.67845 0.28308 0.04262 0.0
C4494 C 0.66095 0.28672 0.03409 0.0
H4495 H 0.7339 0.29212 0.04975 0.0
H4496 H 0.6623 0.28003 0.04923 0.0
S4497 S 0.70961 0.30518 0.0104 0.0
N4498 N 0.74596 0.30756 0.01764 0.0
N4499 N 0.66861 0.29448 0.01707 0.0
C4500 C 0.68329 0.29169 0.02569 0.0
C4501 C 0.72507 0.29875 0.026 0.0
C4502 C 0.86319 0.50236 0.04311 0.0
C4503 C 0.85177 0.51451 0.03471 0.0
C4504 C 0.86932 0.46761 0.04326 0.0
C4505 C 0.8641 0.44426 0.035 0.0
H4506 H 0.8621 0.51627 0.04977 0.0
H4507 H 0.8729 0.45597 0.05002 0.0
S4508 S 0.84348 0.46916 0.01095 0.0
N4509 N 0.8431 0.50547 0.01774 0.0
N4510 N 0.85405 0.43995 0.01802 0.0
C4511 C 0.85857 0.45981 0.02639 0.0
C4512 C 0.85258 0.49514 0.02624 0.0
C4513 C 0.69278 0.46896 0.02618 0.0
C4514 C 0.70791 0.48954 0.03489 0.0
C4515 C 0.65836 0.42802 0.02579 0.0
C4516 C 0.63787 0.40645 0.03409 0.0
H4517 H 0.7106 0.48267 0.01978 0.0
H4518 H 0.65083 0.41148 0.01911 0.0
S4519 S 0.66034 0.44961 0.05837 0.0
N4520 N 0.69594 0.48794 0.05177 0.0
N4521 N 0.63099 0.41101 0.05103 0.0
C4522 C 0.64918 0.42877 0.04265 0.0
C4523 C 0.68436 0.47044 0.04305 0.0
C4524 C 0.85847 0.46922 0.5252 0.0
C4525 C 0.86428 0.49121 0.5337 0.0
C4526 C 0.85175 0.42823 0.52521 0.0
C4527 C 0.85079 0.40812 0.53374 0.0
H4528 H 0.85413 0.48184 0.51865 0.0
H4529 H 0.84228 0.41048 0.51869 0.0
S4530 S 0.87339 0.45562 0.55759 0.0
N4531 N 0.8759 0.49277 0.55061 0.0
N4532 N 0.86343 0.41566 0.55063 0.0
C4533 C 0.86259 0.43195 0.54208 0.0
C4534 C 0.86933 0.47368 0.54206 0.0
C4535 C 0.68018 0.46924 0.54143 0.0
C4536 C 0.66165 0.44676 0.53309 0.0
C4537 C 0.72148 0.50337 0.54138 0.0
C4538 C 0.74521 0.51577 0.53299 0.0
H4539 H 0.66478 0.45731 0.54816 0.0
H4540 H 0.73651 0.51662 0.54808 0.0
S4541 S 0.70741 0.47292 0.50908 0.0
N4542 N 0.6672 0.4439 0.51607 0.0
N4543 N 0.74474 0.50786 0.51598 0.0
C4544 C 0.72489 0.49722 0.52448 0.0
C4545 C 0.683 0.46268 0.52452 0.0
C4546 C 0.64941 0.29274 0.54176 0.0
C4547 C 0.63711 0.3033 0.53326 0.0
C4548 C 0.68384 0.28606 0.54201 0.0
C4549 C 0.70673 0.28974 0.53377 0.0
H4550 H 0.6358 0.29478 0.54839 0.0
H4551 H 0.69558 0.28312 0.54882 0.0
S4552 S 0.68123 0.30757 0.50953 0.0
N4553 N 0.6457 0.3098 0.51625 0.0
N4554 N 0.71028 0.29727 0.51672 0.0
C4555 C 0.69103 0.29448 0.5251 0.0
C4556 C 0.65615 0.30126 0.52484 0.0
C4557 C 0.13695 0.19064 0.3063 0.0
C4558 C 0.15875 0.19596 0.29778 0.0
C4559 C 0.09597 0.18402 0.3063 0.0
C4560 C 0.07567 0.18267 0.29778 0.0
H4561 H 0.14971 0.18662 0.31286 0.0
H4562 H 0.07837 0.17495 0.31285 0.0
S4563 S 0.12255 0.20368 0.27386 0.0
N4564 N 0.15987 0.20653 0.28085 0.0
N4565 N 0.08279 0.19425 0.28084 0.0
C4566 C 0.09929 0.19389 0.2894 0.0
C4567 C 0.14101 0.20052 0.2894 0.0
C4568 C 0.95295 0.01603 0.28968 0.0
C4569 C 0.95678 0.03893 0.29793 0.0
C4570 C 0.95947 0.98151 0.28991 0.0
C4571 C 0.97002 0.96913 0.29841 0.0
H4572 H 0.95002 0.02783 0.28288 0.0
H4573 H 0.9614 0.96789 0.28328 0.0
S4574 S 0.97462 0.01323 0.32215 0.0
N4575 N 0.96446 0.04243 0.31498 0.0
N4576 N 0.97664 0.97764 0.31541 0.0
C4577 C 0.96814 0.98819 0.30683 0.0
C4578 C 0.96153 0.02317 0.30659 0.0
C4579 C 0.12903 0.01504 0.30682 0.0
C4580 C 0.11335 0.99316 0.29828 0.0
C4581 C 0.16309 0.0562 0.30689 0.0
C4582 C 0.18265 0.07656 0.29842 0.0
H4583 H 0.11178 0.00218 0.31333 0.0
H4584 H 0.171 0.07377 0.31343 0.0
S4585 S 0.15894 0.02968 0.27449 0.0
N4586 N 0.12415 0.99219 0.28139 0.0
N4587 N 0.18849 0.06952 0.28153 0.0
C4588 C 0.17105 0.05294 0.29004 0.0
C4589 C 0.13622 0.01108 0.28997 0.0
loop_
_geom_bond_atom_site_label_1
_geom_bond_atom_site_label_2
_geom_bond_distance
_geom_bond_site_symmetry_2
_ccdc_geom_bond_type
Cd0 O57 2.350 . S
Cd0 O58 2.277 . S
Cd0 O65 2.173 . S
Cd0 O67 2.263 . S
Cd0 O69 2.366 . S
Cd0 O72 2.329 . S
C1 O65 1.277 . S
C1 O66 1.230 . S
C2 O3 1.246 . S
C2 C5 1.481 . S
C2 N27 1.329 . S
O3 C2 1.246 . S
Cd4 O66 2.250 . S
Cd4 O68 2.308 . S
Cd4 O71 2.352 . S
C5 C2 1.481 . S
C5 N8 1.327 . S
C5 C9 1.407 . S
C6 C7 1.346 . S
C6 C10 1.390 . S
C6 H74 0.930 . S
C7 C6 1.346 . S
C7 N8 1.342 . S
C7 C12 1.516 . S
N8 C5 1.327 . S
N8 C7 1.342 . S
N8 Co11 1.864 . S
C9 C5 1.407 . S
C9 C10 1.364 . S
C9 H75 0.930 . S
C10 C6 1.390 . S
C10 C9 1.364 . S
C10 H76 0.931 . S
Co11 N8 1.864 . S
Co11 N27 1.955 . S
Co11 N28 1.958 . S
Co11 N29 1.953 . S
Co11 N47 1.869 . S
Co11 N53 1.974 . S
C12 C7 1.516 . S
C12 O13 1.238 . S
C12 N28 1.324 . S
O13 C12 1.238 . S
C14 C15 1.394 . S
C14 C19 1.395 . S
C14 N28 1.427 . S
C15 C14 1.394 . S
C15 C16 1.380 . S
C15 H77 0.929 . S
C16 C15 1.380 . S
C16 C17 1.384 . S
C16 C20 1.495 1_545 S
C17 C16 1.384 . S
C17 C18 1.382 . S
C17 H78 0.930 . S
C18 C17 1.382 . S
C18 C19 1.398 . S
C19 C14 1.395 . S
C19 C18 1.398 . S
C19 H79 0.930 . S
C20 C16 1.495 1_565 S
C20 O67 1.258 . S
C20 O68 1.274 . S
C21 C22 1.385 . S
C21 C23 1.381 . S
C21 N27 1.432 . S
C22 C21 1.385 . S
C22 C26 1.388 . S
C22 H80 0.929 . S
C23 C21 1.381 . S
C23 C24 1.371 . S
C23 H81 0.932 . S
C24 C23 1.371 . S
C24 C25 1.400 . S
C25 C24 1.400 . S
C25 C26 1.351 . S
C25 H82 0.930 . S
C26 C22 1.388 . S
C26 C25 1.351 . S
N27 C2 1.329 . S
N27 Co11 1.955 . S
N27 C21 1.432 . S
N28 Co11 1.958 . S
N28 C12 1.324 . S
N28 C14 1.427 . S
N29 Co11 1.953 . S
N29 C30 1.436 . S
N29 C56 1.316 . S
C30 N29 1.436 . S
C30 C31 1.421 . S
C30 C32 1.360 . S
C31 C30 1.421 . S
C31 C33 1.379 . S
C31 H34 0.929 . S
C32 C30 1.360 . S
C32 C36 1.393 . S
C32 H38 0.931 . S
C33 C31 1.379 . S
C33 C35 1.417 . S
C33 C37 1.505 . S
H34 C31 0.929 . S
C35 C33 1.417 . S
C35 C36 1.352 . S
C35 H39 0.929 . S
C36 C32 1.393 . S
C36 C35 1.352 . S
C36 C40 1.482 . S
C37 C33 1.505 . S
C37 O41 1.259 . S
C37 O42 1.229 . S
H38 C32 0.931 . S
H39 C35 0.929 . S
C40 C36 1.482 . S
C40 O43 1.207 . S
C40 O44 1.289 . S
O41 C37 1.259 . S
O41 H45 0.822 . S
O42 C37 1.229 . S
O43 C40 1.207 . S
O44 C40 1.289 . S
O44 H46 0.819 . S
H45 O41 0.822 . S
H46 O44 0.819 . S
N47 Co11 1.869 . S
N47 C48 1.330 . S
N47 C52 1.325 . S
C48 N47 1.330 . S
C48 C49 1.359 . S
C48 C54 1.504 . S
C49 C48 1.359 . S
C49 C50 1.366 . S
C49 H83 0.929 . S
C50 C49 1.366 . S
C50 C51 1.415 . S
C50 H84 0.932 . S
C51 C50 1.415 . S
C51 C52 1.366 . S
C51 H85 0.931 1_545 S
C52 N47 1.325 . S
C52 C51 1.366 . S
C52 C56 1.516 . S
N53 Co11 1.974 . S
N53 C54 1.309 . S
N53 C59 1.423 . S
C54 C48 1.504 . S
C54 N53 1.309 . S
C54 O55 1.258 . S
O55 C54 1.258 . S
C56 N29 1.316 . S
C56 C52 1.516 . S
C56 O69 1.263 1_545 S
O57 Cd0 2.350 . S
O57 C73 1.270 . S
O58 Cd0 2.277 . S
O58 C73 1.248 . S
C59 N53 1.423 . S
C59 C60 1.370 . S
C59 C64 1.403 . S
C60 C59 1.370 . S
C60 C61 1.389 . S
C60 H86 0.931 . S
C61 C60 1.389 . S
C61 C62 1.389 . S
C62 C61 1.389 . S
C62 C63 1.379 . S
C62 H87 0.929 . S
C63 C62 1.379 . S
C63 C64 1.405 . S
C64 C59 1.403 . S
C64 C63 1.405 . S
C64 H88 0.932 . S
O65 Cd0 2.173 . S
O65 C1 1.277 . S
O66 C1 1.230 . S
O66 Cd4 2.250 . S
O67 Cd0 2.263 . S
O67 C20 1.258 . S
O68 Cd4 2.308 . S
O68 C20 1.274 . S
O69 Cd0 2.366 . S
O69 C56 1.263 1_565 S
C70 O71 1.235 . S
C70 O72 1.270 . S
O71 Cd4 2.352 . S
O71 C70 1.235 . S
O72 Cd0 2.329 . S
O72 C70 1.270 . S
C73 O57 1.270 . S
C73 O58 1.248 . S
H74 C6 0.930 . S
H75 C9 0.930 . S
H76 C10 0.931 . S
H77 C15 0.929 . S
H78 C17 0.930 . S
H79 C19 0.930 . S
H80 C22 0.929 . S
H81 C23 0.932 . S
H82 C25 0.930 . S
H83 C49 0.929 . S
H84 C50 0.932 . S
H85 C51 0.931 1_565 S
H86 C60 0.931 . S
H87 C62 0.929 . S
H88 C64 0.932 . S
Cd89 O146 2.350 . S
Cd89 O147 2.277 . S
Cd89 O154 2.173 . S
Cd89 O156 2.263 . S
Cd89 O158 2.366 . S
Cd89 O161 2.329 . S
C90 O154 1.277 . S
C90 O155 1.230 . S
C91 O92 1.246 . S
C91 C94 1.481 . S
C91 N116 1.329 1_655 S
O92 C91 1.246 . S
Cd93 O155 2.250 . S
Cd93 O157 2.308 . S
Cd93 O160 2.352 . S
C94 C91 1.481 . S
C94 N97 1.327 . S
C94 C98 1.407 . S
C95 C96 1.346 . S
C95 C99 1.390 . S
C95 H163 0.930 . S
C96 C95 1.346 . S
C96 N97 1.342 . S
C96 C101 1.516 1_655 S
N97 C94 1.327 . S
N97 C96 1.342 . S
N97 Co100 1.864 1_655 S
C98 C94 1.407 . S
C98 C99 1.364 . S
C98 H164 0.930 . S
C99 C95 1.390 . S
C99 C98 1.364 . S
C99 H165 0.931 . S
Co100 N97 1.864 1_455 S
Co100 N116 1.955 . S
Co100 N117 1.958 . S
Co100 N118 1.953 . S
Co100 N136 1.869 . S
Co100 N142 1.974 1_455 S
C101 C96 1.516 1_455 S
C101 O102 1.238 1_455 S
C101 N117 1.324 . S
O102 C101 1.238 1_655 S
C103 C104 1.394 . S
C103 C108 1.395 . S
C103 N117 1.427 . S
C104 C103 1.394 . S
C104 C105 1.380 . S
C104 H166 0.929 . S
C105 C104 1.380 . S
C105 C106 1.384 . S
C105 C109 1.495 . S
C106 C105 1.384 . S
C106 C107 1.382 . S
C106 H167 0.930 . S
C107 C106 1.382 . S
C107 C108 1.398 . S
C108 C103 1.395 . S
C108 C107 1.398 . S
C108 H168 0.930 . S
C109 C105 1.495 . S
C109 O156 1.258 . S
C109 O157 1.274 . S
C110 C111 1.385 . S
C110 C112 1.381 . S
C110 N116 1.432 . S
C111 C110 1.385 . S
C111 C115 1.388 . S
C111 H169 0.929 . S
C112 C110 1.381 . S
C112 C113 1.371 . S
C112 H170 0.932 . S
C113 C112 1.371 . S
C113 C114 1.400 . S
C114 C113 1.400 . S
C114 C115 1.351 . S
C114 H171 0.930 . S
C115 C111 1.388 . S
C115 C114 1.351 . S
N116 C91 1.329 1_455 S
N116 Co100 1.955 . S
N116 C110 1.432 . S
N117 Co100 1.958 . S
N117 C101 1.324 . S
N117 C103 1.427 . S
N118 Co100 1.953 . S
N118 C119 1.436 . S
N118 C145 1.316 . S
C119 N118 1.436 . S
C119 C120 1.421 . S
C119 C121 1.360 . S
C120 C119 1.421 . S
C120 C122 1.379 . S
C120 H123 0.929 . S
C121 C119 1.360 . S
C121 C125 1.393 . S
C121 H127 0.931 . S
C122 C120 1.379 . S
C122 C124 1.417 . S
C122 C126 1.505 . S
H123 C120 0.929 . S
C124 C122 1.417 . S
C124 C125 1.352 . S
C124 H128 0.929 . S
C125 C121 1.393 . S
C125 C124 1.352 . S
C125 C129 1.482 . S
C126 C122 1.505 . S
C126 O130 1.259 . S
C126 O131 1.229 . S
H127 C121 0.931 . S
H128 C124 0.929 . S
C129 C125 1.482 . S
C129 O132 1.207 . S
C129 O133 1.289 . S
O130 C126 1.259 . S
O130 H134 0.822 . S
O131 C126 1.229 . S
O132 C129 1.207 . S
O133 C129 1.289 . S
O133 H135 0.819 . S
H134 O130 0.822 . S
H135 O133 0.819 . S
N136 Co100 1.869 . S
N136 C137 1.330 . S
N136 C141 1.325 . S
C137 N136 1.330 . S
C137 C138 1.359 . S
C137 C143 1.504 . S
C138 C137 1.359 . S
C138 C139 1.366 . S
C138 H172 0.929 . S
C139 C138 1.366 . S
C139 C140 1.415 . S
C139 H173 0.932 . S
C140 C139 1.415 . S
C140 C141 1.366 . S
C140 H174 0.931 . S
C141 N136 1.325 . S
C141 C140 1.366 . S
C141 C145 1.516 . S
N142 Co100 1.974 1_655 S
N142 C143 1.309 1_655 S
N142 C148 1.423 . S
C143 C137 1.504 . S
C143 N142 1.309 1_455 S
C143 O144 1.258 1_455 S
O144 C143 1.258 1_655 S
C145 N118 1.316 . S
C145 C141 1.516 . S
C145 O158 1.263 . S
O146 Cd89 2.350 . S
O146 C162 1.270 . S
O147 Cd89 2.277 . S
O147 C162 1.248 . S
C148 N142 1.423 . S
C148 C149 1.370 . S
C148 C153 1.403 . S
C149 C148 1.370 . S
C149 C150 1.389 . S
C149 H175 0.931 . S
C150 C149 1.389 . S
C150 C151 1.389 . S
C151 C150 1.389 . S
C151 C152 1.379 . S
C151 H176 0.929 . S
C152 C151 1.379 . S
C152 C153 1.405 . S
C153 C148 1.403 . S
C153 C152 1.405 . S
C153 H177 0.932 . S
O154 Cd89 2.173 . S
O154 C90 1.277 . S
O155 C90 1.230 . S
O155 Cd93 2.250 . S
O156 Cd89 2.263 . S
O156 C109 1.258 . S
O157 Cd93 2.308 . S
O157 C109 1.274 . S
O158 Cd89 2.366 . S
O158 C145 1.263 . S
C159 O160 1.235 . S
C159 O161 1.270 . S
O160 Cd93 2.352 . S
O160 C159 1.235 . S
O161 Cd89 2.329 . S
O161 C159 1.270 . S
C162 O146 1.270 . S
C162 O147 1.248 . S
H163 C95 0.930 . S
H164 C98 0.930 . S
H165 C99 0.931 . S
H166 C104 0.929 . S
H167 C106 0.930 . S
H168 C108 0.930 . S
H169 C111 0.929 . S
H170 C112 0.932 . S
H171 C114 0.930 . S
H172 C138 0.929 . S
H173 C139 0.932 . S
H174 C140 0.931 . S
H175 C149 0.931 . S
H176 C151 0.929 . S
H177 C153 0.932 . S
Cd178 O235 2.350 . S
Cd178 O236 2.277 . S
Cd178 O243 2.173 . S
Cd178 O245 2.263 . S
Cd178 O247 2.366 . S
Cd178 O250 2.329 . S
C179 O243 1.277 . S
C179 O244 1.230 . S
C180 O181 1.246 . S
C180 C183 1.481 . S
C180 N205 1.329 . S
O181 C180 1.246 . S
Cd182 O244 2.250 . S
Cd182 O246 2.308 . S
Cd182 O249 2.352 . S
C183 C180 1.481 . S
C183 N186 1.327 . S
C183 C187 1.407 . S
C184 C185 1.346 . S
C184 C188 1.390 . S
C184 H252 0.930 . S
C185 C184 1.346 . S
C185 N186 1.342 . S
C185 C190 1.516 . S
N186 C183 1.327 . S
N186 C185 1.342 . S
N186 Co189 1.864 . S
C187 C183 1.407 . S
C187 C188 1.364 . S
C187 H253 0.930 . S
C188 C184 1.390 . S
C188 C187 1.364 . S
C188 H254 0.931 . S
Co189 N186 1.864 . S
Co189 N205 1.955 . S
Co189 N206 1.958 . S
Co189 N207 1.953 . S
Co189 N225 1.869 . S
Co189 N231 1.974 . S
C190 C185 1.516 . S
C190 O191 1.238 . S
C190 N206 1.324 . S
O191 C190 1.238 . S
C192 C193 1.394 . S
C192 C197 1.395 . S
C192 N206 1.427 . S
C193 C192 1.394 . S
C193 C194 1.380 . S
C193 H255 0.929 . S
C194 C193 1.380 . S
C194 C195 1.384 . S
C194 C198 1.495 . S
C195 C194 1.384 . S
C195 C196 1.382 . S
C195 H256 0.930 . S
C196 C195 1.382 . S
C196 C197 1.398 . S
C197 C192 1.395 . S
C197 C196 1.398 . S
C197 H257 0.930 . S
C198 C194 1.495 . S
C198 O245 1.258 . S
C198 O246 1.274 . S
C199 C200 1.385 . S
C199 C201 1.381 . S
C199 N205 1.432 . S
C200 C199 1.385 . S
C200 C204 1.388 . S
C200 H258 0.929 . S
C201 C199 1.381 . S
C201 C202 1.371 . S
C201 H259 0.932 . S
C202 C201 1.371 . S
C202 C203 1.400 . S
C203 C202 1.400 . S
C203 C204 1.351 . S
C203 H260 0.930 . S
C204 C200 1.388 . S
C204 C203 1.351 . S
N205 C180 1.329 . S
N205 Co189 1.955 . S
N205 C199 1.432 . S
N206 Co189 1.958 . S
N206 C190 1.324 . S
N206 C192 1.427 . S
N207 Co189 1.953 . S
N207 C208 1.436 . S
N207 C234 1.316 . S
C208 N207 1.436 . S
C208 C209 1.421 . S
C208 C210 1.360 . S
C209 C208 1.421 . S
C209 C211 1.379 . S
C209 H212 0.929 . S
C210 C208 1.360 . S
C210 C214 1.393 . S
C210 H216 0.931 . S
C211 C209 1.379 . S
C211 C213 1.417 . S
C211 C215 1.505 . S
H212 C209 0.929 . S
C213 C211 1.417 . S
C213 C214 1.352 . S
C213 H217 0.929 . S
C214 C210 1.393 . S
C214 C213 1.352 . S
C214 C218 1.482 . S
C215 C211 1.505 . S
C215 O219 1.259 . S
C215 O220 1.229 . S
H216 C210 0.931 . S
H217 C213 0.929 . S
C218 C214 1.482 . S
C218 O221 1.207 . S
C218 O222 1.289 . S
O219 C215 1.259 . S
O219 H223 0.822 . S
O220 C215 1.229 . S
O221 C218 1.207 . S
O222 C218 1.289 . S
O222 H224 0.819 . S
H223 O219 0.822 . S
H224 O222 0.819 . S
N225 Co189 1.869 . S
N225 C226 1.330 . S
N225 C230 1.325 . S
C226 N225 1.330 . S
C226 C227 1.359 . S
C226 C232 1.504 . S
C227 C226 1.359 . S
C227 C228 1.366 . S
C227 H261 0.929 . S
C228 C227 1.366 . S
C228 C229 1.415 . S
C228 H262 0.932 . S
C229 C228 1.415 . S
C229 C230 1.366 . S
C229 H263 0.931 . S
C230 N225 1.325 . S
C230 C229 1.366 . S
C230 C234 1.516 . S
N231 Co189 1.974 . S
N231 C232 1.309 . S
N231 C237 1.423 . S
C232 C226 1.504 . S
C232 N231 1.309 . S
C232 O233 1.258 . S
O233 C232 1.258 . S
C234 N207 1.316 . S
C234 C230 1.516 . S
C234 O247 1.263 . S
O235 Cd178 2.350 . S
O235 C251 1.270 . S
O236 Cd178 2.277 . S
O236 C251 1.248 . S
C237 N231 1.423 . S
C237 C238 1.370 . S
C237 C242 1.403 . S
C238 C237 1.370 . S
C238 C239 1.389 . S
C238 H264 0.931 . S
C239 C238 1.389 . S
C239 C240 1.389 . S
C240 C239 1.389 . S
C240 C241 1.379 . S
C240 H265 0.929 . S
C241 C240 1.379 . S
C241 C242 1.405 . S
C242 C237 1.403 . S
C242 C241 1.405 . S
C242 H266 0.932 . S
O243 Cd178 2.173 . S
O243 C179 1.277 . S
O244 C179 1.230 . S
O244 Cd182 2.250 . S
O245 Cd178 2.263 . S
O245 C198 1.258 . S
O246 Cd182 2.308 . S
O246 C198 1.274 . S
O247 Cd178 2.366 . S
O247 C234 1.263 . S
C248 O249 1.235 . S
C248 O250 1.270 . S
O249 Cd182 2.352 . S
O249 C248 1.235 . S
O250 Cd178 2.329 . S
O250 C248 1.270 . S
C251 O235 1.270 . S
C251 O236 1.248 . S
H252 C184 0.930 . S
H253 C187 0.930 . S
H254 C188 0.931 . S
H255 C193 0.929 . S
H256 C195 0.930 . S
H257 C197 0.930 . S
H258 C200 0.929 . S
H259 C201 0.932 . S
H260 C203 0.930 . S
H261 C227 0.929 . S
H262 C228 0.932 . S
H263 C229 0.931 . S
H264 C238 0.931 . S
H265 C240 0.929 . S
H266 C242 0.932 . S
Cd267 O324 2.350 . S
Cd267 O325 2.277 . S
Cd267 O332 2.173 . S
Cd267 O334 2.263 . S
Cd267 O336 2.366 . S
Cd267 O339 2.329 . S
C268 O332 1.277 . S
C268 O333 1.230 . S
C269 O270 1.246 . S
C269 C272 1.481 . S
C269 N294 1.329 . S
O270 C269 1.246 . S
Cd271 O333 2.250 . S
Cd271 O335 2.308 . S
Cd271 O338 2.352 . S
C272 C269 1.481 . S
C272 N275 1.327 . S
C272 C276 1.407 . S
C273 C274 1.346 . S
C273 C277 1.390 . S
C273 H341 0.930 . S
C274 C273 1.346 . S
C274 N275 1.342 . S
C274 C279 1.516 . S
N275 C272 1.327 . S
N275 C274 1.342 . S
N275 Co278 1.864 . S
C276 C272 1.407 . S
C276 C277 1.364 . S
C276 H342 0.930 . S
C277 C273 1.390 . S
C277 C276 1.364 . S
C277 H343 0.931 . S
Co278 N275 1.864 . S
Co278 N294 1.955 . S
Co278 N295 1.958 . S
Co278 N296 1.953 . S
Co278 N314 1.869 . S
Co278 N320 1.974 . S
C279 C274 1.516 . S
C279 O280 1.238 . S
C279 N295 1.324 . S
O280 C279 1.238 . S
C281 C282 1.394 . S
C281 C286 1.395 . S
C281 N295 1.427 . S
C282 C281 1.394 . S
C282 C283 1.380 . S
C282 H344 0.929 . S
C283 C282 1.380 . S
C283 C284 1.384 . S
C283 C287 1.495 1_455 S
C284 C283 1.384 . S
C284 C285 1.382 . S
C284 H345 0.930 . S
C285 C284 1.382 . S
C285 C286 1.398 . S
C286 C281 1.395 . S
C286 C285 1.398 . S
C286 H346 0.930 . S
C287 C283 1.495 1_655 S
C287 O334 1.258 . S
C287 O335 1.274 . S
C288 C289 1.385 . S
C288 C290 1.381 . S
C288 N294 1.432 . S
C289 C288 1.385 . S
C289 C293 1.388 . S
C289 H347 0.929 . S
C290 C288 1.381 . S
C290 C291 1.371 . S
C290 H348 0.932 . S
C291 C290 1.371 . S
C291 C292 1.400 . S
C292 C291 1.400 . S
C292 C293 1.351 . S
C292 H349 0.930 . S
C293 C289 1.388 . S
C293 C292 1.351 . S
N294 C269 1.329 . S
N294 Co278 1.955 . S
N294 C288 1.432 . S
N295 Co278 1.958 . S
N295 C279 1.324 . S
N295 C281 1.427 . S
N296 Co278 1.953 . S
N296 C297 1.436 . S
N296 C323 1.316 . S
C297 N296 1.436 . S
C297 C298 1.421 . S
C297 C299 1.360 . S
C298 C297 1.421 . S
C298 C300 1.379 . S
C298 H301 0.929 . S
C299 C297 1.360 . S
C299 C303 1.393 . S
C299 H305 0.931 . S
C300 C298 1.379 . S
C300 C302 1.417 . S
C300 C304 1.505 . S
H301 C298 0.929 . S
C302 C300 1.417 . S
C302 C303 1.352 . S
C302 H306 0.929 . S
C303 C299 1.393 . S
C303 C302 1.352 . S
C303 C307 1.482 . S
C304 C300 1.505 . S
C304 O308 1.259 . S
C304 O309 1.229 . S
H305 C299 0.931 . S
H306 C302 0.929 . S
C307 C303 1.482 . S
C307 O310 1.207 . S
C307 O311 1.289 . S
O308 C304 1.259 . S
O308 H312 0.822 . S
O309 C304 1.229 . S
O310 C307 1.207 . S
O311 C307 1.289 . S
O311 H313 0.819 . S
H312 O308 0.822 . S
H313 O311 0.819 . S
N314 Co278 1.869 . S
N314 C315 1.330 . S
N314 C319 1.325 . S
C315 N314 1.330 . S
C315 C316 1.359 . S
C315 C321 1.504 . S
C316 C315 1.359 . S
C316 C317 1.366 . S
C316 H350 0.929 . S
C317 C316 1.366 . S
C317 C318 1.415 . S
C317 H351 0.932 . S
C318 C317 1.415 . S
C318 C319 1.366 . S
C318 H352 0.931 1_455 S
C319 N314 1.325 . S
C319 C318 1.366 . S
C319 C323 1.516 . S
N320 Co278 1.974 . S
N320 C321 1.309 . S
N320 C326 1.423 . S
C321 C315 1.504 . S
C321 N320 1.309 . S
C321 O322 1.258 . S
O322 C321 1.258 . S
C323 N296 1.316 . S
C323 C319 1.516 . S
C323 O336 1.263 1_455 S
O324 Cd267 2.350 . S
O324 C340 1.270 . S
O325 Cd267 2.277 . S
O325 C340 1.248 . S
C326 N320 1.423 . S
C326 C327 1.370 . S
C326 C331 1.403 . S
C327 C326 1.370 . S
C327 C328 1.389 . S
C327 H353 0.931 . S
C328 C327 1.389 . S
C328 C329 1.389 . S
C329 C328 1.389 . S
C329 C330 1.379 . S
C329 H354 0.929 . S
C330 C329 1.379 . S
C330 C331 1.405 . S
C331 C326 1.403 . S
C331 C330 1.405 . S
C331 H355 0.932 . S
O332 Cd267 2.173 . S
O332 C268 1.277 . S
O333 C268 1.230 . S
O333 Cd271 2.250 . S
O334 Cd267 2.263 . S
O334 C287 1.258 . S
O335 Cd271 2.308 . S
O335 C287 1.274 . S
O336 Cd267 2.366 . S
O336 C323 1.263 1_655 S
C337 O338 1.235 . S
C337 O339 1.270 . S
O338 Cd271 2.352 . S
O338 C337 1.235 . S
O339 Cd267 2.329 . S
O339 C337 1.270 . S
C340 O324 1.270 . S
C340 O325 1.248 . S
H341 C273 0.930 . S
H342 C276 0.930 . S
H343 C277 0.931 . S
H344 C282 0.929 . S
H345 C284 0.930 . S
H346 C286 0.930 . S
H347 C289 0.929 . S
H348 C290 0.932 . S
H349 C292 0.930 . S
H350 C316 0.929 . S
H351 C317 0.932 . S
H352 C318 0.931 1_655 S
H353 C327 0.931 . S
H354 C329 0.929 . S
H355 C331 0.932 . S
Cd356 O413 2.350 . S
Cd356 O414 2.277 . S
Cd356 O421 2.173 . S
Cd356 O423 2.263 . S
Cd356 O425 2.366 . S
Cd356 O428 2.329 . S
C357 O421 1.277 . S
C357 O422 1.230 . S
C358 O359 1.246 . S
C358 C361 1.481 . S
C358 N383 1.329 . S
O359 C358 1.246 . S
Cd360 O422 2.250 . S
Cd360 O424 2.308 . S
Cd360 O427 2.352 . S
C361 C358 1.481 . S
C361 N364 1.327 . S
C361 C365 1.407 . S
C362 C363 1.346 . S
C362 C366 1.390 . S
C362 H430 0.930 . S
C363 C362 1.346 . S
C363 N364 1.342 . S
C363 C368 1.516 . S
N364 C361 1.327 . S
N364 C363 1.342 . S
N364 Co367 1.864 . S
C365 C361 1.407 . S
C365 C366 1.364 . S
C365 H431 0.930 . S
C366 C362 1.390 . S
C366 C365 1.364 . S
C366 H432 0.931 . S
Co367 N364 1.864 . S
Co367 N383 1.955 . S
Co367 N384 1.958 . S
Co367 N385 1.953 . S
Co367 N403 1.869 . S
Co367 N409 1.974 . S
C368 C363 1.516 . S
C368 O369 1.238 . S
C368 N384 1.324 . S
O369 C368 1.238 . S
C370 C371 1.394 . S
C370 C375 1.395 . S
C370 N384 1.427 . S
C371 C370 1.394 . S
C371 C372 1.380 . S
C371 H433 0.929 . S
C372 C371 1.380 . S
C372 C373 1.384 . S
C372 C376 1.495 . S
C373 C372 1.384 . S
C373 C374 1.382 . S
C373 H434 0.930 . S
C374 C373 1.382 . S
C374 C375 1.398 . S
C375 C370 1.395 . S
C375 C374 1.398 . S
C375 H435 0.930 . S
C376 C372 1.495 . S
C376 O423 1.258 . S
C376 O424 1.274 . S
C377 C378 1.385 . S
C377 C379 1.381 . S
C377 N383 1.432 . S
C378 C377 1.385 . S
C378 C382 1.388 . S
C378 H436 0.929 . S
C379 C377 1.381 . S
C379 C380 1.371 . S
C379 H437 0.932 . S
C380 C379 1.371 . S
C380 C381 1.400 . S
C381 C380 1.400 . S
C381 C382 1.351 . S
C381 H438 0.930 . S
C382 C378 1.388 . S
C382 C381 1.351 . S
N383 C358 1.329 . S
N383 Co367 1.955 . S
N383 C377 1.432 . S
N384 Co367 1.958 . S
N384 C368 1.324 . S
N384 C370 1.427 . S
N385 Co367 1.953 . S
N385 C386 1.436 . S
N385 C412 1.316 . S
C386 N385 1.436 . S
C386 C387 1.421 . S
C386 C388 1.360 . S
C387 C386 1.421 . S
C387 C389 1.379 . S
C387 H390 0.929 . S
C388 C386 1.360 . S
C388 C392 1.393 . S
C388 H394 0.931 . S
C389 C387 1.379 . S
C389 C391 1.417 . S
C389 C393 1.505 . S
H390 C387 0.929 . S
C391 C389 1.417 . S
C391 C392 1.352 . S
C391 H395 0.929 . S
C392 C388 1.393 . S
C392 C391 1.352 . S
C392 C396 1.482 . S
C393 C389 1.505 . S
C393 O397 1.259 . S
C393 O398 1.229 . S
H394 C388 0.931 . S
H395 C391 0.929 . S
C396 C392 1.482 . S
C396 O399 1.207 . S
C396 O400 1.289 . S
O397 C393 1.259 . S
O397 H401 0.822 . S
O398 C393 1.229 . S
O399 C396 1.207 . S
O400 C396 1.289 . S
O400 H402 0.819 . S
H401 O397 0.822 . S
H402 O400 0.819 . S
N403 Co367 1.869 . S
N403 C404 1.330 . S
N403 C408 1.325 . S
C404 N403 1.330 . S
C404 C405 1.359 . S
C404 C410 1.504 . S
C405 C404 1.359 . S
C405 C406 1.366 . S
C405 H439 0.929 . S
C406 C405 1.366 . S
C406 C407 1.415 . S
C406 H440 0.932 . S
C407 C406 1.415 . S
C407 C408 1.366 . S
C407 H441 0.931 . S
C408 N403 1.325 . S
C408 C407 1.366 . S
C408 C412 1.516 . S
N409 Co367 1.974 . S
N409 C410 1.309 . S
N409 C415 1.423 . S
C410 C404 1.504 . S
C410 N409 1.309 . S
C410 O411 1.258 . S
O411 C410 1.258 . S
C412 N385 1.316 . S
C412 C408 1.516 . S
C412 O425 1.263 . S
O413 Cd356 2.350 . S
O413 C429 1.270 . S
O414 Cd356 2.277 . S
O414 C429 1.248 . S
C415 N409 1.423 . S
C415 C416 1.370 . S
C415 C420 1.403 . S
C416 C415 1.370 . S
C416 C417 1.389 . S
C416 H442 0.931 . S
C417 C416 1.389 . S
C417 C418 1.389 . S
C418 C417 1.389 . S
C418 C419 1.379 . S
C418 H443 0.929 . S
C419 C418 1.379 . S
C419 C420 1.405 . S
C420 C415 1.403 . S
C420 C419 1.405 . S
C420 H444 0.932 . S
O421 Cd356 2.173 . S
O421 C357 1.277 . S
O422 C357 1.230 . S
O422 Cd360 2.250 . S
O423 Cd356 2.263 . S
O423 C376 1.258 . S
O424 Cd360 2.308 . S
O424 C376 1.274 . S
O425 Cd356 2.366 . S
O425 C412 1.263 . S
C426 O427 1.235 . S
C426 O428 1.270 . S
O427 Cd360 2.352 . S
O427 C426 1.235 . S
O428 Cd356 2.329 . S
O428 C426 1.270 . S
C429 O413 1.270 . S
C429 O414 1.248 . S
H430 C362 0.930 . S
H431 C365 0.930 . S
H432 C366 0.931 . S
H433 C371 0.929 . S
H434 C373 0.930 . S
H435 C375 0.930 . S
H436 C378 0.929 . S
H437 C379 0.932 . S
H438 C381 0.930 . S
H439 C405 0.929 . S
H440 C406 0.932 . S
H441 C407 0.931 . S
H442 C416 0.931 . S
H443 C418 0.929 . S
H444 C420 0.932 . S
Cd445 O502 2.350 . S
Cd445 O503 2.277 . S
Cd445 O510 2.173 . S
Cd445 O512 2.263 . S
Cd445 O514 2.366 . S
Cd445 O517 2.329 . S
C446 O510 1.277 . S
C446 O511 1.230 . S
C447 O448 1.246 . S
C447 C450 1.481 . S
C447 N472 1.329 1_565 S
O448 C447 1.246 . S
Cd449 O511 2.250 . S
Cd449 O513 2.308 . S
Cd449 O516 2.352 . S
C450 C447 1.481 . S
C450 N453 1.327 . S
C450 C454 1.407 . S
C451 C452 1.346 . S
C451 C455 1.390 . S
C451 H519 0.930 . S
C452 C451 1.346 . S
C452 N453 1.342 . S
C452 C457 1.516 1_565 S
N453 C450 1.327 . S
N453 C452 1.342 . S
N453 Co456 1.864 1_565 S
C454 C450 1.407 . S
C454 C455 1.364 . S
C454 H520 0.930 . S
C455 C451 1.390 . S
C455 C454 1.364 . S
C455 H521 0.931 . S
Co456 N453 1.864 1_545 S
Co456 N472 1.955 . S
Co456 N473 1.958 . S
Co456 N474 1.953 . S
Co456 N492 1.869 . S
Co456 N498 1.974 1_545 S
C457 C452 1.516 1_545 S
C457 O458 1.238 1_545 S
C457 N473 1.324 . S
O458 C457 1.238 1_565 S
C459 C460 1.394 . S
C459 C464 1.395 . S
C459 N473 1.427 . S
C460 C459 1.394 . S
C460 C461 1.380 . S
C460 H522 0.929 . S
C461 C460 1.380 . S
C461 C462 1.384 . S
C461 C465 1.495 . S
C462 C461 1.384 . S
C462 C463 1.382 . S
C462 H523 0.930 . S
C463 C462 1.382 . S
C463 C464 1.398 . S
C464 C459 1.395 . S
C464 C463 1.398 . S
C464 H524 0.930 . S
C465 C461 1.495 . S
C465 O512 1.258 . S
C465 O513 1.274 . S
C466 C467 1.385 . S
C466 C468 1.381 . S
C466 N472 1.432 . S
C467 C466 1.385 . S
C467 C471 1.388 . S
C467 H525 0.929 . S
C468 C466 1.381 . S
C468 C469 1.371 . S
C468 H526 0.932 . S
C469 C468 1.371 . S
C469 C470 1.400 . S
C470 C469 1.400 . S
C470 C471 1.351 . S
C470 H527 0.930 . S
C471 C467 1.388 . S
C471 C470 1.351 . S
N472 C447 1.329 1_545 S
N472 Co456 1.955 . S
N472 C466 1.432 . S
N473 Co456 1.958 . S
N473 C457 1.324 . S
N473 C459 1.427 . S
N474 Co456 1.953 . S
N474 C475 1.436 . S
N474 C501 1.316 . S
C475 N474 1.436 . S
C475 C476 1.421 . S
C475 C477 1.360 . S
C476 C475 1.421 . S
C476 C478 1.379 . S
C476 H479 0.929 . S
C477 C475 1.360 . S
C477 C481 1.393 . S
C477 H483 0.931 . S
C478 C476 1.379 . S
C478 C480 1.417 . S
C478 C482 1.505 . S
H479 C476 0.929 . S
C480 C478 1.417 . S
C480 C481 1.352 . S
C480 H484 0.929 . S
C481 C477 1.393 . S
C481 C480 1.352 . S
C481 C485 1.482 . S
C482 C478 1.505 . S
C482 O486 1.259 . S
C482 O487 1.229 . S
H483 C477 0.931 . S
H484 C480 0.929 . S
C485 C481 1.482 . S
C485 O488 1.207 . S
C485 O489 1.289 . S
O486 C482 1.259 . S
O486 H490 0.822 . S
O487 C482 1.229 . S
O488 C485 1.207 . S
O489 C485 1.289 . S
O489 H491 0.819 . S
H490 O486 0.822 . S
H491 O489 0.819 . S
N492 Co456 1.869 . S
N492 C493 1.330 . S
N492 C497 1.325 . S
C493 N492 1.330 . S
C493 C494 1.359 . S
C493 C499 1.504 . S
C494 C493 1.359 . S
C494 C495 1.366 . S
C494 H528 0.929 . S
C495 C494 1.366 . S
C495 C496 1.415 . S
C495 H529 0.932 . S
C496 C495 1.415 . S
C496 C497 1.366 . S
C496 H530 0.931 . S
C497 N492 1.325 . S
C497 C496 1.366 . S
C497 C501 1.516 . S
N498 Co456 1.974 1_565 S
N498 C499 1.309 1_565 S
N498 C504 1.423 . S
C499 C493 1.504 . S
C499 N498 1.309 1_545 S
C499 O500 1.258 1_545 S
O500 C499 1.258 1_565 S
C501 N474 1.316 . S
C501 C497 1.516 . S
C501 O514 1.263 . S
O502 Cd445 2.350 . S
O502 C518 1.270 . S
O503 Cd445 2.277 . S
O503 C518 1.248 . S
C504 N498 1.423 . S
C504 C505 1.370 . S
C504 C509 1.403 . S
C505 C504 1.370 . S
C505 C506 1.389 . S
C505 H531 0.931 . S
C506 C505 1.389 . S
C506 C507 1.389 . S
C507 C506 1.389 . S
C507 C508 1.379 . S
C507 H532 0.929 . S
C508 C507 1.379 . S
C508 C509 1.405 . S
C509 C504 1.403 . S
C509 C508 1.405 . S
C509 H533 0.932 . S
O510 Cd445 2.173 . S
O510 C446 1.277 . S
O511 C446 1.230 . S
O511 Cd449 2.250 . S
O512 Cd445 2.263 . S
O512 C465 1.258 . S
O513 Cd449 2.308 . S
O513 C465 1.274 . S
O514 Cd445 2.366 . S
O514 C501 1.263 . S
C515 O516 1.235 . S
C515 O517 1.270 . S
O516 Cd449 2.352 . S
O516 C515 1.235 . S
O517 Cd445 2.329 . S
O517 C515 1.270 . S
C518 O502 1.270 . S
C518 O503 1.248 . S
H519 C451 0.930 . S
H520 C454 0.930 . S
H521 C455 0.931 . S
H522 C460 0.929 . S
H523 C462 0.930 . S
H524 C464 0.930 . S
H525 C467 0.929 . S
H526 C468 0.932 . S
H527 C470 0.930 . S
H528 C494 0.929 . S
H529 C495 0.932 . S
H530 C496 0.931 . S
H531 C505 0.931 . S
H532 C507 0.929 . S
H533 C509 0.932 . S
Cd534 O591 2.350 . S
Cd534 O592 2.277 . S
Cd534 O599 2.173 . S
Cd534 O601 2.263 . S
Cd534 O603 2.366 . S
Cd534 O606 2.329 . S
C535 O599 1.277 . S
C535 O600 1.230 . S
C536 O537 1.246 . S
C536 C539 1.481 . S
C536 N561 1.329 1_565 S
O537 C536 1.246 . S
Cd538 O600 2.250 . S
Cd538 O602 2.308 . S
Cd538 O605 2.352 . S
C539 C536 1.481 . S
C539 N542 1.327 . S
C539 C543 1.407 . S
C540 C541 1.346 . S
C540 C544 1.390 . S
C540 H608 0.930 . S
C541 C540 1.346 . S
C541 N542 1.342 . S
C541 C546 1.516 1_565 S
N542 C539 1.327 . S
N542 C541 1.342 . S
N542 Co545 1.864 1_565 S
C543 C539 1.407 . S
C543 C544 1.364 . S
C543 H609 0.930 . S
C544 C540 1.390 . S
C544 C543 1.364 . S
C544 H610 0.931 . S
Co545 N542 1.864 1_545 S
Co545 N561 1.955 . S
Co545 N562 1.958 . S
Co545 N563 1.953 . S
Co545 N581 1.869 . S
Co545 N587 1.974 1_545 S
C546 C541 1.516 1_545 S
C546 O547 1.238 1_545 S
C546 N562 1.324 . S
O547 C546 1.238 1_565 S
C548 C549 1.394 . S
C548 C553 1.395 . S
C548 N562 1.427 . S
C549 C548 1.394 . S
C549 C550 1.380 . S
C549 H611 0.929 . S
C550 C549 1.380 . S
C550 C551 1.384 . S
C550 C554 1.495 . S
C551 C550 1.384 . S
C551 C552 1.382 . S
C551 H612 0.930 . S
C552 C551 1.382 . S
C552 C553 1.398 . S
C553 C548 1.395 . S
C553 C552 1.398 . S
C553 H613 0.930 . S
C554 C550 1.495 . S
C554 O601 1.258 . S
C554 O602 1.274 . S
C555 C556 1.385 . S
C555 C557 1.381 . S
C555 N561 1.432 . S
C556 C555 1.385 . S
C556 C560 1.388 . S
C556 H614 0.929 . S
C557 C555 1.381 . S
C557 C558 1.371 . S
C557 H615 0.932 . S
C558 C557 1.371 . S
C558 C559 1.400 . S
C559 C558 1.400 . S
C559 C560 1.351 . S
C559 H616 0.930 . S
C560 C556 1.388 . S
C560 C559 1.351 . S
N561 C536 1.329 1_545 S
N561 Co545 1.955 . S
N561 C555 1.432 . S
N562 Co545 1.958 . S
N562 C546 1.324 . S
N562 C548 1.427 . S
N563 Co545 1.953 . S
N563 C564 1.436 . S
N563 C590 1.316 . S
C564 N563 1.436 . S
C564 C565 1.421 . S
C564 C566 1.360 . S
C565 C564 1.421 . S
C565 C567 1.379 . S
C565 H568 0.929 . S
C566 C564 1.360 . S
C566 C570 1.393 . S
C566 H572 0.931 . S
C567 C565 1.379 . S
C567 C569 1.417 . S
C567 C571 1.505 . S
H568 C565 0.929 . S
C569 C567 1.417 . S
C569 C570 1.352 . S
C569 H573 0.929 . S
C570 C566 1.393 . S
C570 C569 1.352 . S
C570 C574 1.482 . S
C571 C567 1.505 . S
C571 O575 1.259 . S
C571 O576 1.229 . S
H572 C566 0.931 . S
H573 C569 0.929 . S
C574 C570 1.482 . S
C574 O577 1.207 . S
C574 O578 1.289 . S
O575 C571 1.259 . S
O575 H579 0.822 . S
O576 C571 1.229 . S
O577 C574 1.207 . S
O578 C574 1.289 . S
O578 H580 0.819 . S
H579 O575 0.822 . S
H580 O578 0.819 . S
N581 Co545 1.869 . S
N581 C582 1.330 . S
N581 C586 1.325 . S
C582 N581 1.330 . S
C582 C583 1.359 . S
C582 C588 1.504 . S
C583 C582 1.359 . S
C583 C584 1.366 . S
C583 H617 0.929 . S
C584 C583 1.366 . S
C584 C585 1.415 . S
C584 H618 0.932 . S
C585 C584 1.415 . S
C585 C586 1.366 . S
C585 H619 0.931 . S
C586 N581 1.325 . S
C586 C585 1.366 . S
C586 C590 1.516 . S
N587 Co545 1.974 1_565 S
N587 C588 1.309 1_565 S
N587 C593 1.423 . S
C588 C582 1.504 . S
C588 N587 1.309 1_545 S
C588 O589 1.258 1_545 S
O589 C588 1.258 1_565 S
C590 N563 1.316 . S
C590 C586 1.516 . S
C590 O603 1.263 . S
O591 Cd534 2.350 . S
O591 C607 1.270 . S
O592 Cd534 2.277 . S
O592 C607 1.248 . S
C593 N587 1.423 . S
C593 C594 1.370 . S
C593 C598 1.403 . S
C594 C593 1.370 . S
C594 C595 1.389 . S
C594 H620 0.931 . S
C595 C594 1.389 . S
C595 C596 1.389 . S
C596 C595 1.389 . S
C596 C597 1.379 . S
C596 H621 0.929 . S
C597 C596 1.379 . S
C597 C598 1.405 . S
C598 C593 1.403 . S
C598 C597 1.405 . S
C598 H622 0.932 . S
O599 Cd534 2.173 . S
O599 C535 1.277 . S
O600 C535 1.230 . S
O600 Cd538 2.250 . S
O601 Cd534 2.263 . S
O601 C554 1.258 . S
O602 Cd538 2.308 . S
O602 C554 1.274 . S
O603 Cd534 2.366 . S
O603 C590 1.263 . S
C604 O605 1.235 . S
C604 O606 1.270 . S
O605 Cd538 2.352 . S
O605 C604 1.235 . S
O606 Cd534 2.329 . S
O606 C604 1.270 . S
C607 O591 1.270 . S
C607 O592 1.248 . S
H608 C540 0.930 . S
H609 C543 0.930 . S
H610 C544 0.931 . S
H611 C549 0.929 . S
H612 C551 0.930 . S
H613 C553 0.930 . S
H614 C556 0.929 . S
H615 C557 0.932 . S
H616 C559 0.930 . S
H617 C583 0.929 . S
H618 C584 0.932 . S
H619 C585 0.931 . S
H620 C594 0.931 . S
H621 C596 0.929 . S
H622 C598 0.932 . S
Cd623 O680 2.350 . S
Cd623 O681 2.277 . S
Cd623 O688 2.173 . S
Cd623 O690 2.263 . S
Cd623 O692 2.366 . S
Cd623 O695 2.329 . S
C624 O688 1.277 . S
C624 O689 1.230 . S
C625 O626 1.246 . S
C625 C628 1.481 . S
C625 N650 1.329 . S
O626 C625 1.246 . S
Cd627 O689 2.250 . S
Cd627 O691 2.308 . S
Cd627 O694 2.352 . S
C628 C625 1.481 . S
C628 N631 1.327 . S
C628 C632 1.407 . S
C629 C630 1.346 . S
C629 C633 1.390 . S
C629 H697 0.930 . S
C630 C629 1.346 . S
C630 N631 1.342 . S
C630 C635 1.516 . S
N631 C628 1.327 . S
N631 C630 1.342 . S
N631 Co634 1.864 . S
C632 C628 1.407 . S
C632 C633 1.364 . S
C632 H698 0.930 . S
C633 C629 1.390 . S
C633 C632 1.364 . S
C633 H699 0.931 . S
Co634 N631 1.864 . S
Co634 N650 1.955 . S
Co634 N651 1.958 . S
Co634 N652 1.953 . S
Co634 N670 1.869 . S
Co634 N676 1.974 . S
C635 C630 1.516 . S
C635 O636 1.238 . S
C635 N651 1.324 . S
O636 C635 1.238 . S
C637 C638 1.394 . S
C637 C642 1.395 . S
C637 N651 1.427 . S
C638 C637 1.394 . S
C638 C639 1.380 . S
C638 H700 0.929 . S
C639 C638 1.380 . S
C639 C640 1.384 . S
C639 C643 1.495 1_455 S
C640 C639 1.384 . S
C640 C641 1.382 . S
C640 H701 0.930 . S
C641 C640 1.382 . S
C641 C642 1.398 . S
C642 C637 1.395 . S
C642 C641 1.398 . S
C642 H702 0.930 . S
C643 C639 1.495 1_655 S
C643 O690 1.258 . S
C643 O691 1.274 . S
C644 C645 1.385 . S
C644 C646 1.381 . S
C644 N650 1.432 . S
C645 C644 1.385 . S
C645 C649 1.388 . S
C645 H703 0.929 . S
C646 C644 1.381 . S
C646 C647 1.371 . S
C646 H704 0.932 . S
C647 C646 1.371 . S
C647 C648 1.400 . S
C648 C647 1.400 . S
C648 C649 1.351 . S
C648 H705 0.930 . S
C649 C645 1.388 . S
C649 C648 1.351 . S
N650 C625 1.329 . S
N650 Co634 1.955 . S
N650 C644 1.432 . S
N651 Co634 1.958 . S
N651 C635 1.324 . S
N651 C637 1.427 . S
N652 Co634 1.953 . S
N652 C653 1.436 . S
N652 C679 1.316 . S
C653 N652 1.436 . S
C653 C654 1.421 . S
C653 C655 1.360 . S
C654 C653 1.421 . S
C654 C656 1.379 . S
C654 H657 0.929 . S
C655 C653 1.360 . S
C655 C659 1.393 . S
C655 H661 0.931 . S
C656 C654 1.379 . S
C656 C658 1.417 . S
C656 C660 1.505 . S
H657 C654 0.929 . S
C658 C656 1.417 . S
C658 C659 1.352 . S
C658 H662 0.929 . S
C659 C655 1.393 . S
C659 C658 1.352 . S
C659 C663 1.482 . S
C660 C656 1.505 . S
C660 O664 1.259 . S
C660 O665 1.229 . S
H661 C655 0.931 . S
H662 C658 0.929 . S
C663 C659 1.482 . S
C663 O666 1.207 . S
C663 O667 1.289 . S
O664 C660 1.259 . S
O664 H668 0.822 . S
O665 C660 1.229 . S
O666 C663 1.207 . S
O667 C663 1.289 . S
O667 H669 0.819 . S
H668 O664 0.822 . S
H669 O667 0.819 . S
N670 Co634 1.869 . S
N670 C671 1.330 . S
N670 C675 1.325 . S
C671 N670 1.330 . S
C671 C672 1.359 . S
C671 C677 1.504 . S
C672 C671 1.359 . S
C672 C673 1.366 . S
C672 H706 0.929 . S
C673 C672 1.366 . S
C673 C674 1.415 . S
C673 H707 0.932 . S
C674 C673 1.415 . S
C674 C675 1.366 . S
C674 H708 0.931 1_455 S
C675 N670 1.325 . S
C675 C674 1.366 . S
C675 C679 1.516 . S
N676 Co634 1.974 . S
N676 C677 1.309 . S
N676 C682 1.423 . S
C677 C671 1.504 . S
C677 N676 1.309 . S
C677 O678 1.258 . S
O678 C677 1.258 . S
C679 N652 1.316 . S
C679 C675 1.516 . S
C679 O692 1.263 1_455 S
O680 Cd623 2.350 . S
O680 C696 1.270 . S
O681 Cd623 2.277 . S
O681 C696 1.248 . S
C682 N676 1.423 . S
C682 C683 1.370 . S
C682 C687 1.403 . S
C683 C682 1.370 . S
C683 C684 1.389 . S
C683 H709 0.931 . S
C684 C683 1.389 . S
C684 C685 1.389 . S
C685 C684 1.389 . S
C685 C686 1.379 . S
C685 H710 0.929 . S
C686 C685 1.379 . S
C686 C687 1.405 . S
C687 C682 1.403 . S
C687 C686 1.405 . S
C687 H711 0.932 . S
O688 Cd623 2.173 . S
O688 C624 1.277 . S
O689 C624 1.230 . S
O689 Cd627 2.250 . S
O690 Cd623 2.263 . S
O690 C643 1.258 . S
O691 Cd627 2.308 . S
O691 C643 1.274 . S
O692 Cd623 2.366 . S
O692 C679 1.263 1_655 S
C693 O694 1.235 . S
C693 O695 1.270 . S
O694 Cd627 2.352 . S
O694 C693 1.235 . S
O695 Cd623 2.329 . S
O695 C693 1.270 . S
C696 O680 1.270 . S
C696 O681 1.248 . S
H697 C629 0.930 . S
H698 C632 0.930 . S
H699 C633 0.931 . S
H700 C638 0.929 . S
H701 C640 0.930 . S
H702 C642 0.930 . S
H703 C645 0.929 . S
H704 C646 0.932 . S
H705 C648 0.930 . S
H706 C672 0.929 . S
H707 C673 0.932 . S
H708 C674 0.931 1_655 S
H709 C683 0.931 . S
H710 C685 0.929 . S
H711 C687 0.932 . S
Cd712 O769 2.350 . S
Cd712 O770 2.277 . S
Cd712 O777 2.173 . S
Cd712 O779 2.263 . S
Cd712 O781 2.366 . S
Cd712 O784 2.329 . S
C713 O777 1.277 . S
C713 O778 1.230 . S
C714 O715 1.246 . S
C714 C717 1.481 . S
C714 N739 1.329 . S
O715 C714 1.246 . S
Cd716 O778 2.250 . S
Cd716 O780 2.308 . S
Cd716 O783 2.352 . S
C717 C714 1.481 . S
C717 N720 1.327 . S
C717 C721 1.407 . S
C718 C719 1.346 . S
C718 C722 1.390 . S
C718 H786 0.930 . S
C719 C718 1.346 . S
C719 N720 1.342 . S
C719 C724 1.516 . S
N720 C717 1.327 . S
N720 C719 1.342 . S
N720 Co723 1.864 . S
C721 C717 1.407 . S
C721 C722 1.364 . S
C721 H787 0.930 . S
C722 C718 1.390 . S
C722 C721 1.364 . S
C722 H788 0.931 . S
Co723 N720 1.864 . S
Co723 N739 1.955 . S
Co723 N740 1.958 . S
Co723 N741 1.953 . S
Co723 N759 1.869 . S
Co723 N765 1.974 . S
C724 C719 1.516 . S
C724 O725 1.238 . S
C724 N740 1.324 . S
O725 C724 1.238 . S
C726 C727 1.394 . S
C726 C731 1.395 . S
C726 N740 1.427 . S
C727 C726 1.394 . S
C727 C728 1.380 . S
C727 H789 0.929 . S
C728 C727 1.380 . S
C728 C729 1.384 . S
C728 C732 1.495 . S
C729 C728 1.384 . S
C729 C730 1.382 . S
C729 H790 0.930 . S
C730 C729 1.382 . S
C730 C731 1.398 . S
C731 C726 1.395 . S
C731 C730 1.398 . S
C731 H791 0.930 . S
C732 C728 1.495 . S
C732 O779 1.258 . S
C732 O780 1.274 . S
C733 C734 1.385 . S
C733 C735 1.381 . S
C733 N739 1.432 . S
C734 C733 1.385 . S
C734 C738 1.388 . S
C734 H792 0.929 . S
C735 C733 1.381 . S
C735 C736 1.371 . S
C735 H793 0.932 . S
C736 C735 1.371 . S
C736 C737 1.400 . S
C737 C736 1.400 . S
C737 C738 1.351 . S
C737 H794 0.930 . S
C738 C734 1.388 . S
C738 C737 1.351 . S
N739 C714 1.329 . S
N739 Co723 1.955 . S
N739 C733 1.432 . S
N740 Co723 1.958 . S
N740 C724 1.324 . S
N740 C726 1.427 . S
N741 Co723 1.953 . S
N741 C742 1.436 . S
N741 C768 1.316 . S
C742 N741 1.436 . S
C742 C743 1.421 . S
C742 C744 1.360 . S
C743 C742 1.421 . S
C743 C745 1.379 . S
C743 H746 0.929 . S
C744 C742 1.360 . S
C744 C748 1.393 . S
C744 H750 0.931 . S
C745 C743 1.379 . S
C745 C747 1.417 . S
C745 C749 1.505 . S
H746 C743 0.929 . S
C747 C745 1.417 . S
C747 C748 1.352 . S
C747 H751 0.929 . S
C748 C744 1.393 . S
C748 C747 1.352 . S
C748 C752 1.482 . S
C749 C745 1.505 . S
C749 O753 1.259 . S
C749 O754 1.229 . S
H750 C744 0.931 . S
H751 C747 0.929 . S
C752 C748 1.482 . S
C752 O755 1.207 . S
C752 O756 1.289 . S
O753 C749 1.259 . S
O753 H757 0.822 . S
O754 C749 1.229 . S
O755 C752 1.207 . S
O756 C752 1.289 . S
O756 H758 0.819 . S
H757 O753 0.822 . S
H758 O756 0.819 . S
N759 Co723 1.869 . S
N759 C760 1.330 . S
N759 C764 1.325 . S
C760 N759 1.330 . S
C760 C761 1.359 . S
C760 C766 1.504 . S
C761 C760 1.359 . S
C761 C762 1.366 . S
C761 H795 0.929 . S
C762 C761 1.366 . S
C762 C763 1.415 . S
C762 H796 0.932 . S
C763 C762 1.415 . S
C763 C764 1.366 . S
C763 H797 0.931 . S
C764 N759 1.325 . S
C764 C763 1.366 . S
C764 C768 1.516 . S
N765 Co723 1.974 . S
N765 C766 1.309 . S
N765 C771 1.423 . S
C766 C760 1.504 . S
C766 N765 1.309 . S
C766 O767 1.258 . S
O767 C766 1.258 . S
C768 N741 1.316 . S
C768 C764 1.516 . S
C768 O781 1.263 . S
O769 Cd712 2.350 . S
O769 C785 1.270 . S
O770 Cd712 2.277 . S
O770 C785 1.248 . S
C771 N765 1.423 . S
C771 C772 1.370 . S
C771 C776 1.403 . S
C772 C771 1.370 . S
C772 C773 1.389 . S
C772 H798 0.931 . S
C773 C772 1.389 . S
C773 C774 1.389 . S
C774 C773 1.389 . S
C774 C775 1.379 . S
C774 H799 0.929 . S
C775 C774 1.379 . S
C775 C776 1.405 . S
C776 C771 1.403 . S
C776 C775 1.405 . S
C776 H800 0.932 . S
O777 Cd712 2.173 . S
O777 C713 1.277 . S
O778 C713 1.230 . S
O778 Cd716 2.250 . S
O779 Cd712 2.263 . S
O779 C732 1.258 . S
O780 Cd716 2.308 . S
O780 C732 1.274 . S
O781 Cd712 2.366 . S
O781 C768 1.263 . S
C782 O783 1.235 . S
C782 O784 1.270 . S
O783 Cd716 2.352 . S
O783 C782 1.235 . S
O784 Cd712 2.329 . S
O784 C782 1.270 . S
C785 O769 1.270 . S
C785 O770 1.248 . S
H786 C718 0.930 . S
H787 C721 0.930 . S
H788 C722 0.931 . S
H789 C727 0.929 . S
H790 C729 0.930 . S
H791 C731 0.930 . S
H792 C734 0.929 . S
H793 C735 0.932 . S
H794 C737 0.930 . S
H795 C761 0.929 . S
H796 C762 0.932 . S
H797 C763 0.931 . S
H798 C772 0.931 . S
H799 C774 0.929 . S
H800 C776 0.932 . S
Cd801 O858 2.350 . S
Cd801 O859 2.277 . S
Cd801 O866 2.173 . S
Cd801 O868 2.263 . S
Cd801 O870 2.366 . S
Cd801 O873 2.329 . S
C802 O866 1.277 . S
C802 O867 1.230 . S
C803 O804 1.246 . S
C803 C806 1.481 . S
C803 N828 1.329 1_655 S
O804 C803 1.246 . S
Cd805 O867 2.250 . S
Cd805 O869 2.308 . S
Cd805 O872 2.352 . S
C806 C803 1.481 . S
C806 N809 1.327 . S
C806 C810 1.407 . S
C807 C808 1.346 . S
C807 C811 1.390 . S
C807 H875 0.930 . S
C808 C807 1.346 . S
C808 N809 1.342 . S
C808 C813 1.516 1_655 S
N809 C806 1.327 . S
N809 C808 1.342 . S
N809 Co812 1.864 1_655 S
C810 C806 1.407 . S
C810 C811 1.364 . S
C810 H876 0.930 . S
C811 C807 1.390 . S
C811 C810 1.364 . S
C811 H877 0.931 . S
Co812 N809 1.864 1_455 S
Co812 N828 1.955 . S
Co812 N829 1.958 . S
Co812 N830 1.953 . S
Co812 N848 1.869 . S
Co812 N854 1.974 1_455 S
C813 C808 1.516 1_455 S
C813 O814 1.238 1_455 S
C813 N829 1.324 . S
O814 C813 1.238 1_655 S
C815 C816 1.394 . S
C815 C820 1.395 . S
C815 N829 1.427 . S
C816 C815 1.394 . S
C816 C817 1.380 . S
C816 H878 0.929 . S
C817 C816 1.380 . S
C817 C818 1.384 . S
C817 C821 1.495 . S
C818 C817 1.384 . S
C818 C819 1.382 . S
C818 H879 0.930 . S
C819 C818 1.382 . S
C819 C820 1.398 . S
C820 C815 1.395 . S
C820 C819 1.398 . S
C820 H880 0.930 . S
C821 C817 1.495 . S
C821 O868 1.258 . S
C821 O869 1.274 . S
C822 C823 1.385 . S
C822 C824 1.381 . S
C822 N828 1.432 . S
C823 C822 1.385 . S
C823 C827 1.388 . S
C823 H881 0.929 . S
C824 C822 1.381 . S
C824 C825 1.371 . S
C824 H882 0.932 . S
C825 C824 1.371 . S
C825 C826 1.400 . S
C826 C825 1.400 . S
C826 C827 1.351 . S
C826 H883 0.930 . S
C827 C823 1.388 . S
C827 C826 1.351 . S
N828 C803 1.329 1_455 S
N828 Co812 1.955 . S
N828 C822 1.432 . S
N829 Co812 1.958 . S
N829 C813 1.324 . S
N829 C815 1.427 . S
N830 Co812 1.953 . S
N830 C831 1.436 . S
N830 C857 1.316 . S
C831 N830 1.436 . S
C831 C832 1.421 . S
C831 C833 1.360 . S
C832 C831 1.421 . S
C832 C834 1.379 . S
C832 H835 0.929 . S
C833 C831 1.360 . S
C833 C837 1.393 . S
C833 H839 0.931 . S
C834 C832 1.379 . S
C834 C836 1.417 . S
C834 C838 1.505 . S
H835 C832 0.929 . S
C836 C834 1.417 . S
C836 C837 1.352 . S
C836 H840 0.929 . S
C837 C833 1.393 . S
C837 C836 1.352 . S
C837 C841 1.482 . S
C838 C834 1.505 . S
C838 O842 1.259 . S
C838 O843 1.229 . S
H839 C833 0.931 . S
H840 C836 0.929 . S
C841 C837 1.482 . S
C841 O844 1.207 . S
C841 O845 1.289 . S
O842 C838 1.259 . S
O842 H846 0.822 . S
O843 C838 1.229 . S
O844 C841 1.207 . S
O845 C841 1.289 . S
O845 H847 0.819 . S
H846 O842 0.822 . S
H847 O845 0.819 . S
N848 Co812 1.869 . S
N848 C849 1.330 . S
N848 C853 1.325 . S
C849 N848 1.330 . S
C849 C850 1.359 . S
C849 C855 1.504 . S
C850 C849 1.359 . S
C850 C851 1.366 . S
C850 H884 0.929 . S
C851 C850 1.366 . S
C851 C852 1.415 . S
C851 H885 0.932 . S
C852 C851 1.415 . S
C852 C853 1.366 . S
C852 H886 0.931 . S
C853 N848 1.325 . S
C853 C852 1.366 . S
C853 C857 1.516 . S
N854 Co812 1.974 1_655 S
N854 C855 1.309 1_655 S
N854 C860 1.423 . S
C855 C849 1.504 . S
C855 N854 1.309 1_455 S
C855 O856 1.258 1_455 S
O856 C855 1.258 1_655 S
C857 N830 1.316 . S
C857 C853 1.516 . S
C857 O870 1.263 . S
O858 Cd801 2.350 . S
O858 C874 1.270 . S
O859 Cd801 2.277 . S
O859 C874 1.248 . S
C860 N854 1.423 . S
C860 C861 1.370 . S
C860 C865 1.403 . S
C861 C860 1.370 . S
C861 C862 1.389 . S
C861 H887 0.931 . S
C862 C861 1.389 . S
C862 C863 1.389 . S
C863 C862 1.389 . S
C863 C864 1.379 . S
C863 H888 0.929 . S
C864 C863 1.379 . S
C864 C865 1.405 . S
C865 C860 1.403 . S
C865 C864 1.405 . S
C865 H889 0.932 . S
O866 Cd801 2.173 . S
O866 C802 1.277 . S
O867 C802 1.230 . S
O867 Cd805 2.250 . S
O868 Cd801 2.263 . S
O868 C821 1.258 . S
O869 Cd805 2.308 . S
O869 C821 1.274 . S
O870 Cd801 2.366 . S
O870 C857 1.263 . S
C871 O872 1.235 . S
C871 O873 1.270 . S
O872 Cd805 2.352 . S
O872 C871 1.235 . S
O873 Cd801 2.329 . S
O873 C871 1.270 . S
C874 O858 1.270 . S
C874 O859 1.248 . S
H875 C807 0.930 . S
H876 C810 0.930 . S
H877 C811 0.931 . S
H878 C816 0.929 . S
H879 C818 0.930 . S
H880 C820 0.930 . S
H881 C823 0.929 . S
H882 C824 0.932 . S
H883 C826 0.930 . S
H884 C850 0.929 . S
H885 C851 0.932 . S
H886 C852 0.931 . S
H887 C861 0.931 . S
H888 C863 0.929 . S
H889 C865 0.932 . S
Cd890 O947 2.350 . S
Cd890 O948 2.277 . S
Cd890 O955 2.173 . S
Cd890 O957 2.263 . S
Cd890 O959 2.366 . S
Cd890 O962 2.329 . S
C891 O955 1.277 . S
C891 O956 1.230 . S
C892 O893 1.246 . S
C892 C895 1.481 . S
C892 N917 1.329 . S
O893 C892 1.246 . S
Cd894 O956 2.250 . S
Cd894 O958 2.308 . S
Cd894 O961 2.352 . S
C895 C892 1.481 . S
C895 N898 1.327 . S
C895 C899 1.407 . S
C896 C897 1.346 . S
C896 C900 1.390 . S
C896 H964 0.930 . S
C897 C896 1.346 . S
C897 N898 1.342 . S
C897 C902 1.516 . S
N898 C895 1.327 . S
N898 C897 1.342 . S
N898 Co901 1.864 . S
C899 C895 1.407 . S
C899 C900 1.364 . S
C899 H965 0.930 . S
C900 C896 1.390 . S
C900 C899 1.364 . S
C900 H966 0.931 . S
Co901 N898 1.864 . S
Co901 N917 1.955 . S
Co901 N918 1.958 . S
Co901 N919 1.953 . S
Co901 N937 1.869 . S
Co901 N943 1.974 . S
C902 C897 1.516 . S
C902 O903 1.238 . S
C902 N918 1.324 . S
O903 C902 1.238 . S
C904 C905 1.394 . S
C904 C909 1.395 . S
C904 N918 1.427 . S
C905 C904 1.394 . S
C905 C906 1.380 . S
C905 H967 0.929 . S
C906 C905 1.380 . S
C906 C907 1.384 . S
C906 C910 1.495 . S
C907 C906 1.384 . S
C907 C908 1.382 . S
C907 H968 0.930 . S
C908 C907 1.382 . S
C908 C909 1.398 . S
C909 C904 1.395 . S
C909 C908 1.398 . S
C909 H969 0.930 . S
C910 C906 1.495 . S
C910 O957 1.258 . S
C910 O958 1.274 . S
C911 C912 1.385 . S
C911 C913 1.381 . S
C911 N917 1.432 . S
C912 C911 1.385 . S
C912 C916 1.388 . S
C912 H970 0.929 . S
C913 C911 1.381 . S
C913 C914 1.371 . S
C913 H971 0.932 . S
C914 C913 1.371 . S
C914 C915 1.400 . S
C915 C914 1.400 . S
C915 C916 1.351 . S
C915 H972 0.930 . S
C916 C912 1.388 . S
C916 C915 1.351 . S
N917 C892 1.329 . S
N917 Co901 1.955 . S
N917 C911 1.432 . S
N918 Co901 1.958 . S
N918 C902 1.324 . S
N918 C904 1.427 . S
N919 Co901 1.953 . S
N919 C920 1.436 . S
N919 C946 1.316 . S
C920 N919 1.436 . S
C920 C921 1.421 . S
C920 C922 1.360 . S
C921 C920 1.421 . S
C921 C923 1.379 . S
C921 H924 0.929 . S
C922 C920 1.360 . S
C922 C926 1.393 . S
C922 H928 0.931 . S
C923 C921 1.379 . S
C923 C925 1.417 . S
C923 C927 1.505 . S
H924 C921 0.929 . S
C925 C923 1.417 . S
C925 C926 1.352 . S
C925 H929 0.929 . S
C926 C922 1.393 . S
C926 C925 1.352 . S
C926 C930 1.482 . S
C927 C923 1.505 . S
C927 O931 1.259 . S
C927 O932 1.229 . S
H928 C922 0.931 . S
H929 C925 0.929 . S
C930 C926 1.482 . S
C930 O933 1.207 . S
C930 O934 1.289 . S
O931 C927 1.259 . S
O931 H935 0.822 . S
O932 C927 1.229 . S
O933 C930 1.207 . S
O934 C930 1.289 . S
O934 H936 0.819 . S
H935 O931 0.822 . S
H936 O934 0.819 . S
N937 Co901 1.869 . S
N937 C938 1.330 . S
N937 C942 1.325 . S
C938 N937 1.330 . S
C938 C939 1.359 . S
C938 C944 1.504 . S
C939 C938 1.359 . S
C939 C940 1.366 . S
C939 H973 0.929 . S
C940 C939 1.366 . S
C940 C941 1.415 . S
C940 H974 0.932 . S
C941 C940 1.415 . S
C941 C942 1.366 . S
C941 H975 0.931 . S
C942 N937 1.325 . S
C942 C941 1.366 . S
C942 C946 1.516 . S
N943 Co901 1.974 . S
N943 C944 1.309 . S
N943 C949 1.423 . S
C944 C938 1.504 . S
C944 N943 1.309 . S
C944 O945 1.258 . S
O945 C944 1.258 . S
C946 N919 1.316 . S
C946 C942 1.516 . S
C946 O959 1.263 . S
O947 Cd890 2.350 . S
O947 C963 1.270 . S
O948 Cd890 2.277 . S
O948 C963 1.248 . S
C949 N943 1.423 . S
C949 C950 1.370 . S
C949 C954 1.403 . S
C950 C949 1.370 . S
C950 C951 1.389 . S
C950 H976 0.931 . S
C951 C950 1.389 . S
C951 C952 1.389 . S
C952 C951 1.389 . S
C952 C953 1.379 . S
C952 H977 0.929 . S
C953 C952 1.379 . S
C953 C954 1.405 . S
C954 C949 1.403 . S
C954 C953 1.405 . S
C954 H978 0.932 . S
O955 Cd890 2.173 . S
O955 C891 1.277 . S
O956 C891 1.230 . S
O956 Cd894 2.250 . S
O957 Cd890 2.263 . S
O957 C910 1.258 . S
O958 Cd894 2.308 . S
O958 C910 1.274 . S
O959 Cd890 2.366 . S
O959 C946 1.263 . S
C960 O961 1.235 . S
C960 O962 1.270 . S
O961 Cd894 2.352 . S
O961 C960 1.235 . S
O962 Cd890 2.329 . S
O962 C960 1.270 . S
C963 O947 1.270 . S
C963 O948 1.248 . S
H964 C896 0.930 . S
H965 C899 0.930 . S
H966 C900 0.931 . S
H967 C905 0.929 . S
H968 C907 0.930 . S
H969 C909 0.930 . S
H970 C912 0.929 . S
H971 C913 0.932 . S
H972 C915 0.930 . S
H973 C939 0.929 . S
H974 C940 0.932 . S
H975 C941 0.931 . S
H976 C950 0.931 . S
H977 C952 0.929 . S
H978 C954 0.932 . S
Cd979 O1036 2.350 . S
Cd979 O1037 2.277 . S
Cd979 O1044 2.173 . S
Cd979 O1046 2.263 . S
Cd979 O1048 2.366 . S
Cd979 O1051 2.329 . S
C980 O1044 1.277 . S
C980 O1045 1.230 . S
C981 O982 1.246 . S
C981 C984 1.481 . S
C981 N1006 1.329 . S
O982 C981 1.246 . S
Cd983 O1045 2.250 . S
Cd983 O1047 2.308 . S
Cd983 O1050 2.352 . S
C984 C981 1.481 . S
C984 N987 1.327 . S
C984 C988 1.407 . S
C985 C986 1.346 . S
C985 C989 1.390 . S
C985 H1053 0.930 . S
C986 C985 1.346 . S
C986 N987 1.342 . S
C986 C991 1.516 . S
N987 C984 1.327 . S
N987 C986 1.342 . S
N987 Co990 1.864 . S
C988 C984 1.407 . S
C988 C989 1.364 . S
C988 H1054 0.930 . S
C989 C985 1.390 . S
C989 C988 1.364 . S
C989 H1055 0.931 . S
Co990 N987 1.864 . S
Co990 N1006 1.955 . S
Co990 N1007 1.958 . S
Co990 N1008 1.953 . S
Co990 N1026 1.869 . S
Co990 N1032 1.974 . S
C991 C986 1.516 . S
C991 O992 1.238 . S
C991 N1007 1.324 . S
O992 C991 1.238 . S
C993 C994 1.394 . S
C993 C998 1.395 . S
C993 N1007 1.427 . S
C994 C993 1.394 . S
C994 C995 1.380 . S
C994 H1056 0.929 . S
C995 C994 1.380 . S
C995 C996 1.384 . S
C995 C999 1.495 1_545 S
C996 C995 1.384 . S
C996 C997 1.382 . S
C996 H1057 0.930 . S
C997 C996 1.382 . S
C997 C998 1.398 . S
C998 C993 1.395 . S
C998 C997 1.398 . S
C998 H1058 0.930 . S
C999 C995 1.495 1_565 S
C999 O1046 1.258 . S
C999 O1047 1.274 . S
C1000 C1001 1.385 . S
C1000 C1002 1.381 . S
C1000 N1006 1.432 . S
C1001 C1000 1.385 . S
C1001 C1005 1.388 . S
C1001 H1059 0.929 . S
C1002 C1000 1.381 . S
C1002 C1003 1.371 . S
C1002 H1060 0.932 . S
C1003 C1002 1.371 . S
C1003 C1004 1.400 . S
C1004 C1003 1.400 . S
C1004 C1005 1.351 . S
C1004 H1061 0.930 . S
C1005 C1001 1.388 . S
C1005 C1004 1.351 . S
N1006 C981 1.329 . S
N1006 Co990 1.955 . S
N1006 C1000 1.432 . S
N1007 Co990 1.958 . S
N1007 C991 1.324 . S
N1007 C993 1.427 . S
N1008 Co990 1.953 . S
N1008 C1009 1.436 . S
N1008 C1035 1.316 . S
C1009 N1008 1.436 . S
C1009 C1010 1.421 . S
C1009 C1011 1.360 . S
C1010 C1009 1.421 . S
C1010 C1012 1.379 . S
C1010 H1013 0.929 . S
C1011 C1009 1.360 . S
C1011 C1015 1.393 . S
C1011 H1017 0.931 . S
C1012 C1010 1.379 . S
C1012 C1014 1.417 . S
C1012 C1016 1.505 . S
H1013 C1010 0.929 . S
C1014 C1012 1.417 . S
C1014 C1015 1.352 . S
C1014 H1018 0.929 . S
C1015 C1011 1.393 . S
C1015 C1014 1.352 . S
C1015 C1019 1.482 . S
C1016 C1012 1.505 . S
C1016 O1020 1.259 . S
C1016 O1021 1.229 . S
H1017 C1011 0.931 . S
H1018 C1014 0.929 . S
C1019 C1015 1.482 . S
C1019 O1022 1.207 . S
C1019 O1023 1.289 . S
O1020 C1016 1.259 . S
O1020 H1024 0.822 . S
O1021 C1016 1.229 . S
O1022 C1019 1.207 . S
O1023 C1019 1.289 . S
O1023 H1025 0.819 . S
H1024 O1020 0.822 . S
H1025 O1023 0.819 . S
N1026 Co990 1.869 . S
N1026 C1027 1.330 . S
N1026 C1031 1.325 . S
C1027 N1026 1.330 . S
C1027 C1028 1.359 . S
C1027 C1033 1.504 . S
C1028 C1027 1.359 . S
C1028 C1029 1.366 . S
C1028 H1062 0.929 . S
C1029 C1028 1.366 . S
C1029 C1030 1.415 . S
C1029 H1063 0.932 . S
C1030 C1029 1.415 . S
C1030 C1031 1.366 . S
C1030 H1064 0.931 1_545 S
C1031 N1026 1.325 . S
C1031 C1030 1.366 . S
C1031 C1035 1.516 . S
N1032 Co990 1.974 . S
N1032 C1033 1.309 . S
N1032 C1038 1.423 . S
C1033 C1027 1.504 . S
C1033 N1032 1.309 . S
C1033 O1034 1.258 . S
O1034 C1033 1.258 . S
C1035 N1008 1.316 . S
C1035 C1031 1.516 . S
C1035 O1048 1.263 1_545 S
O1036 Cd979 2.350 . S
O1036 C1052 1.270 . S
O1037 Cd979 2.277 . S
O1037 C1052 1.248 . S
C1038 N1032 1.423 . S
C1038 C1039 1.370 . S
C1038 C1043 1.403 . S
C1039 C1038 1.370 . S
C1039 C1040 1.389 . S
C1039 H1065 0.931 . S
C1040 C1039 1.389 . S
C1040 C1041 1.389 . S
C1041 C1040 1.389 . S
C1041 C1042 1.379 . S
C1041 H1066 0.929 . S
C1042 C1041 1.379 . S
C1042 C1043 1.405 . S
C1043 C1038 1.403 . S
C1043 C1042 1.405 . S
C1043 H1067 0.932 . S
O1044 Cd979 2.173 . S
O1044 C980 1.277 . S
O1045 C980 1.230 . S
O1045 Cd983 2.250 . S
O1046 Cd979 2.263 . S
O1046 C999 1.258 . S
O1047 Cd983 2.308 . S
O1047 C999 1.274 . S
O1048 Cd979 2.366 . S
O1048 C1035 1.263 1_565 S
C1049 O1050 1.235 . S
C1049 O1051 1.270 . S
O1050 Cd983 2.352 . S
O1050 C1049 1.235 . S
O1051 Cd979 2.329 . S
O1051 C1049 1.270 . S
C1052 O1036 1.270 . S
C1052 O1037 1.248 . S
H1053 C985 0.930 . S
H1054 C988 0.930 . S
H1055 C989 0.931 . S
H1056 C994 0.929 . S
H1057 C996 0.930 . S
H1058 C998 0.930 . S
H1059 C1001 0.929 . S
H1060 C1002 0.932 . S
H1061 C1004 0.930 . S
H1062 C1028 0.929 . S
H1063 C1029 0.932 . S
H1064 C1030 0.931 1_565 S
H1065 C1039 0.931 . S
H1066 C1041 0.929 . S
H1067 C1043 0.932 . S
Cd1068 O1125 2.350 . S
Cd1068 O1126 2.277 . S
Cd1068 O1133 2.173 . S
Cd1068 O1135 2.263 . S
Cd1068 O1137 2.366 . S
Cd1068 O1140 2.329 . S
C1069 O1133 1.277 . S
C1069 O1134 1.230 . S
C1070 O1071 1.246 . S
C1070 C1073 1.481 . S
C1070 N1095 1.329 . S
O1071 C1070 1.246 . S
Cd1072 O1134 2.250 . S
Cd1072 O1136 2.308 . S
Cd1072 O1139 2.352 . S
C1073 C1070 1.481 . S
C1073 N1076 1.327 . S
C1073 C1077 1.407 . S
C1074 C1075 1.346 . S
C1074 C1078 1.390 . S
C1074 H1142 0.930 . S
C1075 C1074 1.346 . S
C1075 N1076 1.342 . S
C1075 C1080 1.516 . S
N1076 C1073 1.327 . S
N1076 C1075 1.342 . S
N1076 Co1079 1.864 . S
C1077 C1073 1.407 . S
C1077 C1078 1.364 . S
C1077 H1143 0.930 . S
C1078 C1074 1.390 . S
C1078 C1077 1.364 . S
C1078 H1144 0.931 . S
Co1079 N1076 1.864 . S
Co1079 N1095 1.955 . S
Co1079 N1096 1.958 . S
Co1079 N1097 1.953 . S
Co1079 N1115 1.869 . S
Co1079 N1121 1.974 . S
C1080 C1075 1.516 . S
C1080 O1081 1.238 . S
C1080 N1096 1.324 . S
O1081 C1080 1.238 . S
C1082 C1083 1.394 . S
C1082 C1087 1.395 . S
C1082 N1096 1.427 . S
C1083 C1082 1.394 . S
C1083 C1084 1.380 . S
C1083 H1145 0.929 . S
C1084 C1083 1.380 . S
C1084 C1085 1.384 . S
C1084 C1088 1.495 . S
C1085 C1084 1.384 . S
C1085 C1086 1.382 . S
C1085 H1146 0.930 . S
C1086 C1085 1.382 . S
C1086 C1087 1.398 . S
C1087 C1082 1.395 . S
C1087 C1086 1.398 . S
C1087 H1147 0.930 . S
C1088 C1084 1.495 . S
C1088 O1135 1.258 . S
C1088 O1136 1.274 . S
C1089 C1090 1.385 . S
C1089 C1091 1.381 . S
C1089 N1095 1.432 . S
C1090 C1089 1.385 . S
C1090 C1094 1.388 . S
C1090 H1148 0.929 . S
C1091 C1089 1.381 . S
C1091 C1092 1.371 . S
C1091 H1149 0.932 . S
C1092 C1091 1.371 . S
C1092 C1093 1.400 . S
C1093 C1092 1.400 . S
C1093 C1094 1.351 . S
C1093 H1150 0.930 . S
C1094 C1090 1.388 . S
C1094 C1093 1.351 . S
N1095 C1070 1.329 . S
N1095 Co1079 1.955 . S
N1095 C1089 1.432 . S
N1096 Co1079 1.958 . S
N1096 C1080 1.324 . S
N1096 C1082 1.427 . S
N1097 Co1079 1.953 . S
N1097 C1098 1.436 . S
N1097 C1124 1.316 . S
C1098 N1097 1.436 . S
C1098 C1099 1.421 . S
C1098 C1100 1.360 . S
C1099 C1098 1.421 . S
C1099 C1101 1.379 . S
C1099 H1102 0.929 . S
C1100 C1098 1.360 . S
C1100 C1104 1.393 . S
C1100 H1106 0.931 . S
C1101 C1099 1.379 . S
C1101 C1103 1.417 . S
C1101 C1105 1.505 . S
H1102 C1099 0.929 . S
C1103 C1101 1.417 . S
C1103 C1104 1.352 . S
C1103 H1107 0.929 . S
C1104 C1100 1.393 . S
C1104 C1103 1.352 . S
C1104 C1108 1.482 . S
C1105 C1101 1.505 . S
C1105 O1109 1.259 . S
C1105 O1110 1.229 . S
H1106 C1100 0.931 . S
H1107 C1103 0.929 . S
C1108 C1104 1.482 . S
C1108 O1111 1.207 . S
C1108 O1112 1.289 . S
O1109 C1105 1.259 . S
O1109 H1113 0.822 . S
O1110 C1105 1.229 . S
O1111 C1108 1.207 . S
O1112 C1108 1.289 . S
O1112 H1114 0.819 . S
H1113 O1109 0.822 . S
H1114 O1112 0.819 . S
N1115 Co1079 1.869 . S
N1115 C1116 1.330 . S
N1115 C1120 1.325 . S
C1116 N1115 1.330 . S
C1116 C1117 1.359 . S
C1116 C1122 1.504 . S
C1117 C1116 1.359 . S
C1117 C1118 1.366 . S
C1117 H1151 0.929 . S
C1118 C1117 1.366 . S
C1118 C1119 1.415 . S
C1118 H1152 0.932 . S
C1119 C1118 1.415 . S
C1119 C1120 1.366 . S
C1119 H1153 0.931 . S
C1120 N1115 1.325 . S
C1120 C1119 1.366 . S
C1120 C1124 1.516 . S
N1121 Co1079 1.974 . S
N1121 C1122 1.309 . S
N1121 C1127 1.423 . S
C1122 C1116 1.504 . S
C1122 N1121 1.309 . S
C1122 O1123 1.258 . S
O1123 C1122 1.258 . S
C1124 N1097 1.316 . S
C1124 C1120 1.516 . S
C1124 O1137 1.263 . S
O1125 Cd1068 2.350 . S
O1125 C1141 1.270 . S
O1126 Cd1068 2.277 . S
O1126 C1141 1.248 . S
C1127 N1121 1.423 . S
C1127 C1128 1.370 . S
C1127 C1132 1.403 . S
C1128 C1127 1.370 . S
C1128 C1129 1.389 . S
C1128 H1154 0.931 . S
C1129 C1128 1.389 . S
C1129 C1130 1.389 . S
C1130 C1129 1.389 . S
C1130 C1131 1.379 . S
C1130 H1155 0.929 . S
C1131 C1130 1.379 . S
C1131 C1132 1.405 . S
C1132 C1127 1.403 . S
C1132 C1131 1.405 . S
C1132 H1156 0.932 . S
O1133 Cd1068 2.173 . S
O1133 C1069 1.277 . S
O1134 C1069 1.230 . S
O1134 Cd1072 2.250 . S
O1135 Cd1068 2.263 . S
O1135 C1088 1.258 . S
O1136 Cd1072 2.308 . S
O1136 C1088 1.274 . S
O1137 Cd1068 2.366 . S
O1137 C1124 1.263 . S
C1138 O1139 1.235 . S
C1138 O1140 1.270 . S
O1139 Cd1072 2.352 . S
O1139 C1138 1.235 . S
O1140 Cd1068 2.329 . S
O1140 C1138 1.270 . S
C1141 O1125 1.270 . S
C1141 O1126 1.248 . S
H1142 C1074 0.930 . S
H1143 C1077 0.930 . S
H1144 C1078 0.931 . S
H1145 C1083 0.929 . S
H1146 C1085 0.930 . S
H1147 C1087 0.930 . S
H1148 C1090 0.929 . S
H1149 C1091 0.932 . S
H1150 C1093 0.930 . S
H1151 C1117 0.929 . S
H1152 C1118 0.932 . S
H1153 C1119 0.931 . S
H1154 C1128 0.931 . S
H1155 C1130 0.929 . S
H1156 C1132 0.932 . S
Cd1157 O1214 2.350 . S
Cd1157 O1215 2.277 . S
Cd1157 O1222 2.173 . S
Cd1157 O1224 2.263 . S
Cd1157 O1226 2.366 . S
Cd1157 O1229 2.329 . S
C1158 O1222 1.277 . S
C1158 O1223 1.230 . S
C1159 O1160 1.246 . S
C1159 C1162 1.481 . S
C1159 N1184 1.329 . S
O1160 C1159 1.246 . S
Cd1161 O1223 2.250 . S
Cd1161 O1225 2.308 . S
Cd1161 O1228 2.352 . S
C1162 C1159 1.481 . S
C1162 N1165 1.327 . S
C1162 C1166 1.407 . S
C1163 C1164 1.346 . S
C1163 C1167 1.390 . S
C1163 H1231 0.930 . S
C1164 C1163 1.346 . S
C1164 N1165 1.342 . S
C1164 C1169 1.516 . S
N1165 C1162 1.327 . S
N1165 C1164 1.342 . S
N1165 Co1168 1.864 . S
C1166 C1162 1.407 . S
C1166 C1167 1.364 . S
C1166 H1232 0.930 . S
C1167 C1163 1.390 . S
C1167 C1166 1.364 . S
C1167 H1233 0.931 . S
Co1168 N1165 1.864 . S
Co1168 N1184 1.955 . S
Co1168 N1185 1.958 . S
Co1168 N1186 1.953 . S
Co1168 N1204 1.869 . S
Co1168 N1210 1.974 . S
C1169 C1164 1.516 . S
C1169 O1170 1.238 . S
C1169 N1185 1.324 . S
O1170 C1169 1.238 . S
C1171 C1172 1.394 . S
C1171 C1176 1.395 . S
C1171 N1185 1.427 . S
C1172 C1171 1.394 . S
C1172 C1173 1.380 . S
C1172 H1234 0.929 . S
C1173 C1172 1.380 . S
C1173 C1174 1.384 . S
C1173 C1177 1.495 . S
C1174 C1173 1.384 . S
C1174 C1175 1.382 . S
C1174 H1235 0.930 . S
C1175 C1174 1.382 . S
C1175 C1176 1.398 . S
C1176 C1171 1.395 . S
C1176 C1175 1.398 . S
C1176 H1236 0.930 . S
C1177 C1173 1.495 . S
C1177 O1224 1.258 . S
C1177 O1225 1.274 . S
C1178 C1179 1.385 . S
C1178 C1180 1.381 . S
C1178 N1184 1.432 . S
C1179 C1178 1.385 . S
C1179 C1183 1.388 . S
C1179 H1237 0.929 . S
C1180 C1178 1.381 . S
C1180 C1181 1.371 . S
C1180 H1238 0.932 . S
C1181 C1180 1.371 . S
C1181 C1182 1.400 . S
C1182 C1181 1.400 . S
C1182 C1183 1.351 . S
C1182 H1239 0.930 1_565 S
C1183 C1179 1.388 . S
C1183 C1182 1.351 . S
N1184 C1159 1.329 . S
N1184 Co1168 1.955 . S
N1184 C1178 1.432 . S
N1185 Co1168 1.958 . S
N1185 C1169 1.324 . S
N1185 C1171 1.427 . S
N1186 Co1168 1.953 . S
N1186 C1187 1.436 . S
N1186 C1213 1.316 . S
C1187 N1186 1.436 . S
C1187 C1188 1.421 . S
C1187 C1189 1.360 . S
C1188 C1187 1.421 . S
C1188 C1190 1.379 . S
C1188 H1191 0.929 . S
C1189 C1187 1.360 . S
C1189 C1193 1.393 . S
C1189 H1195 0.931 . S
C1190 C1188 1.379 . S
C1190 C1192 1.417 . S
C1190 C1194 1.505 . S
H1191 C1188 0.929 . S
C1192 C1190 1.417 . S
C1192 C1193 1.352 . S
C1192 H1196 0.929 . S
C1193 C1189 1.393 . S
C1193 C1192 1.352 . S
C1193 C1197 1.482 . S
C1194 C1190 1.505 . S
C1194 O1198 1.259 . S
C1194 O1199 1.229 . S
H1195 C1189 0.931 . S
H1196 C1192 0.929 . S
C1197 C1193 1.482 . S
C1197 O1200 1.207 . S
C1197 O1201 1.289 . S
O1198 C1194 1.259 . S
O1198 H1202 0.822 . S
O1199 C1194 1.229 . S
O1200 C1197 1.207 . S
O1201 C1197 1.289 . S
O1201 H1203 0.819 . S
H1202 O1198 0.822 . S
H1203 O1201 0.819 . S
N1204 Co1168 1.869 . S
N1204 C1205 1.330 . S
N1204 C1209 1.325 . S
C1205 N1204 1.330 . S
C1205 C1206 1.359 . S
C1205 C1211 1.504 . S
C1206 C1205 1.359 . S
C1206 C1207 1.366 . S
C1206 H1240 0.929 . S
C1207 C1206 1.366 . S
C1207 C1208 1.415 . S
C1207 H1241 0.932 . S
C1208 C1207 1.415 . S
C1208 C1209 1.366 . S
C1208 H1242 0.931 . S
C1209 N1204 1.325 . S
C1209 C1208 1.366 . S
C1209 C1213 1.516 . S
N1210 Co1168 1.974 . S
N1210 C1211 1.309 . S
N1210 C1216 1.423 . S
C1211 C1205 1.504 . S
C1211 N1210 1.309 . S
C1211 O1212 1.258 . S
O1212 C1211 1.258 . S
C1213 N1186 1.316 . S
C1213 C1209 1.516 . S
C1213 O1226 1.263 . S
O1214 Cd1157 2.350 . S
O1214 C1230 1.270 . S
O1215 Cd1157 2.277 . S
O1215 C1230 1.248 . S
C1216 N1210 1.423 . S
C1216 C1217 1.370 . S
C1216 C1221 1.403 . S
C1217 C1216 1.370 . S
C1217 C1218 1.389 . S
C1217 H1243 0.931 . S
C1218 C1217 1.389 . S
C1218 C1219 1.389 . S
C1219 C1218 1.389 . S
C1219 C1220 1.379 . S
C1219 H1244 0.929 . S
C1220 C1219 1.379 . S
C1220 C1221 1.405 . S
C1221 C1216 1.403 . S
C1221 C1220 1.405 . S
C1221 H1245 0.932 . S
O1222 Cd1157 2.173 . S
O1222 C1158 1.277 . S
O1223 C1158 1.230 . S
O1223 Cd1161 2.250 . S
O1224 Cd1157 2.263 . S
O1224 C1177 1.258 . S
O1225 Cd1161 2.308 . S
O1225 C1177 1.274 . S
O1226 Cd1157 2.366 . S
O1226 C1213 1.263 . S
C1227 O1228 1.235 . S
C1227 O1229 1.270 . S
O1228 Cd1161 2.352 . S
O1228 C1227 1.235 . S
O1229 Cd1157 2.329 . S
O1229 C1227 1.270 . S
C1230 O1214 1.270 . S
C1230 O1215 1.248 . S
H1231 C1163 0.930 . S
H1232 C1166 0.930 . S
H1233 C1167 0.931 . S
H1234 C1172 0.929 . S
H1235 C1174 0.930 . S
H1236 C1176 0.930 . S
H1237 C1179 0.929 . S
H1238 C1180 0.932 . S
H1239 C1182 0.930 1_545 S
H1240 C1206 0.929 . S
H1241 C1207 0.932 . S
H1242 C1208 0.931 . S
H1243 C1217 0.931 . S
H1244 C1219 0.929 . S
H1245 C1221 0.932 . S
Cd1246 O1303 2.350 . S
Cd1246 O1304 2.277 . S
Cd1246 O1311 2.173 . S
Cd1246 O1313 2.263 . S
Cd1246 O1315 2.366 . S
Cd1246 O1318 2.329 . S
C1247 O1311 1.277 . S
C1247 O1312 1.230 . S
C1248 O1249 1.246 . S
C1248 C1251 1.481 . S
C1248 N1273 1.329 . S
O1249 C1248 1.246 . S
Cd1250 O1312 2.250 . S
Cd1250 O1314 2.308 . S
Cd1250 O1317 2.352 . S
C1251 C1248 1.481 . S
C1251 N1254 1.327 . S
C1251 C1255 1.407 . S
C1252 C1253 1.346 . S
C1252 C1256 1.390 . S
C1252 H1320 0.930 . S
C1253 C1252 1.346 . S
C1253 N1254 1.342 . S
C1253 C1258 1.516 . S
N1254 C1251 1.327 . S
N1254 C1253 1.342 . S
N1254 Co1257 1.864 . S
C1255 C1251 1.407 . S
C1255 C1256 1.364 . S
C1255 H1321 0.930 . S
C1256 C1252 1.390 . S
C1256 C1255 1.364 . S
C1256 H1322 0.931 . S
Co1257 N1254 1.864 . S
Co1257 N1273 1.955 . S
Co1257 N1274 1.958 . S
Co1257 N1275 1.953 . S
Co1257 N1293 1.869 . S
Co1257 N1299 1.974 . S
C1258 C1253 1.516 . S
C1258 O1259 1.238 1_565 S
C1258 N1274 1.324 . S
O1259 C1258 1.238 1_545 S
C1260 C1261 1.394 1_565 S
C1260 C1265 1.395 . S
C1260 N1274 1.427 . S
C1261 C1260 1.394 1_545 S
C1261 C1262 1.380 . S
C1261 H1323 0.929 . S
C1262 C1261 1.380 . S
C1262 C1263 1.384 . S
C1262 C1266 1.495 . S
C1263 C1262 1.384 . S
C1263 C1264 1.382 . S
C1263 H1324 0.930 . S
C1264 C1263 1.382 . S
C1264 C1265 1.398 1_545 S
C1265 C1260 1.395 . S
C1265 C1264 1.398 1_565 S
C1265 H1325 0.930 . S
C1266 C1262 1.495 . S
C1266 O1313 1.258 . S
C1266 O1314 1.274 . S
C1267 C1268 1.385 . S
C1267 C1269 1.381 . S
C1267 N1273 1.432 . S
C1268 C1267 1.385 . S
C1268 C1272 1.388 . S
C1268 H1326 0.929 . S
C1269 C1267 1.381 . S
C1269 C1270 1.371 . S
C1269 H1327 0.932 . S
C1270 C1269 1.371 . S
C1270 C1271 1.400 . S
C1271 C1270 1.400 . S
C1271 C1272 1.351 . S
C1271 H1328 0.930 . S
C1272 C1268 1.388 . S
C1272 C1271 1.351 . S
N1273 C1248 1.329 . S
N1273 Co1257 1.955 . S
N1273 C1267 1.432 . S
N1274 Co1257 1.958 . S
N1274 C1258 1.324 . S
N1274 C1260 1.427 . S
N1275 Co1257 1.953 . S
N1275 C1276 1.436 1_565 S
N1275 C1302 1.316 . S
C1276 N1275 1.436 1_545 S
C1276 C1277 1.421 1_545 S
C1276 C1278 1.360 . S
C1277 C1276 1.421 1_565 S
C1277 C1279 1.379 1_565 S
C1277 H1280 0.929 . S
C1278 C1276 1.360 . S
C1278 C1282 1.393 . S
C1278 H1284 0.931 . S
C1279 C1277 1.379 1_545 S
C1279 C1281 1.417 . S
C1279 C1283 1.505 . S
H1280 C1277 0.929 . S
C1281 C1279 1.417 . S
C1281 C1282 1.352 . S
C1281 H1285 0.929 . S
C1282 C1278 1.393 . S
C1282 C1281 1.352 . S
C1282 C1286 1.482 . S
C1283 C1279 1.505 . S
C1283 O1287 1.259 . S
C1283 O1288 1.229 1_545 S
H1284 C1278 0.931 . S
H1285 C1281 0.929 . S
C1286 C1282 1.482 . S
C1286 O1289 1.207 . S
C1286 O1290 1.289 . S
O1287 C1283 1.259 . S
O1287 H1291 0.822 . S
O1288 C1283 1.229 1_565 S
O1289 C1286 1.207 . S
O1290 C1286 1.289 . S
O1290 H1292 0.819 . S
H1291 O1287 0.822 . S
H1292 O1290 0.819 . S
N1293 Co1257 1.869 . S
N1293 C1294 1.330 . S
N1293 C1298 1.325 . S
C1294 N1293 1.330 . S
C1294 C1295 1.359 . S
C1294 C1300 1.504 . S
C1295 C1294 1.359 . S
C1295 C1296 1.366 . S
C1295 H1329 0.929 . S
C1296 C1295 1.366 . S
C1296 C1297 1.415 . S
C1296 H1330 0.932 . S
C1297 C1296 1.415 . S
C1297 C1298 1.366 . S
C1297 H1331 0.931 . S
C1298 N1293 1.325 . S
C1298 C1297 1.366 . S
C1298 C1302 1.516 . S
N1299 Co1257 1.974 . S
N1299 C1300 1.309 . S
N1299 C1305 1.423 . S
C1300 C1294 1.504 . S
C1300 N1299 1.309 . S
C1300 O1301 1.258 . S
O1301 C1300 1.258 . S
C1302 N1275 1.316 . S
C1302 C1298 1.516 . S
C1302 O1315 1.263 1_565 S
O1303 Cd1246 2.350 . S
O1303 C1319 1.270 . S
O1304 Cd1246 2.277 . S
O1304 C1319 1.248 . S
C1305 N1299 1.423 . S
C1305 C1306 1.370 . S
C1305 C1310 1.403 . S
C1306 C1305 1.370 . S
C1306 C1307 1.389 . S
C1306 H1332 0.931 . S
C1307 C1306 1.389 . S
C1307 C1308 1.389 . S
C1308 C1307 1.389 . S
C1308 C1309 1.379 . S
C1308 H1333 0.929 . S
C1309 C1308 1.379 . S
C1309 C1310 1.405 . S
C1310 C1305 1.403 . S
C1310 C1309 1.405 . S
C1310 H1334 0.932 . S
O1311 Cd1246 2.173 . S
O1311 C1247 1.277 . S
O1312 C1247 1.230 . S
O1312 Cd1250 2.250 . S
O1313 Cd1246 2.263 . S
O1313 C1266 1.258 . S
O1314 Cd1250 2.308 . S
O1314 C1266 1.274 . S
O1315 Cd1246 2.366 . S
O1315 C1302 1.263 1_545 S
C1316 O1317 1.235 . S
C1316 O1318 1.270 . S
O1317 Cd1250 2.352 . S
O1317 C1316 1.235 . S
O1318 Cd1246 2.329 . S
O1318 C1316 1.270 . S
C1319 O1303 1.270 . S
C1319 O1304 1.248 . S
H1320 C1252 0.930 . S
H1321 C1255 0.930 . S
H1322 C1256 0.931 . S
H1323 C1261 0.929 . S
H1324 C1263 0.930 . S
H1325 C1265 0.930 . S
H1326 C1268 0.929 . S
H1327 C1269 0.932 . S
H1328 C1271 0.930 . S
H1329 C1295 0.929 . S
H1330 C1296 0.932 . S
H1331 C1297 0.931 . S
H1332 C1306 0.931 . S
H1333 C1308 0.929 . S
H1334 C1310 0.932 . S
Cd1335 O1392 2.350 . S
Cd1335 O1393 2.277 . S
Cd1335 O1400 2.173 . S
Cd1335 O1402 2.263 . S
Cd1335 O1404 2.366 . S
Cd1335 O1407 2.329 . S
C1336 O1400 1.277 . S
C1336 O1401 1.230 . S
C1337 O1338 1.246 . S
C1337 C1340 1.481 . S
C1337 N1362 1.329 . S
O1338 C1337 1.246 . S
Cd1339 O1401 2.250 . S
Cd1339 O1403 2.308 . S
Cd1339 O1406 2.352 . S
C1340 C1337 1.481 . S
C1340 N1343 1.327 . S
C1340 C1344 1.407 . S
C1341 C1342 1.346 . S
C1341 C1345 1.390 . S
C1341 H1409 0.930 . S
C1342 C1341 1.346 . S
C1342 N1343 1.342 . S
C1342 C1347 1.516 . S
N1343 C1340 1.327 . S
N1343 C1342 1.342 . S
N1343 Co1346 1.864 . S
C1344 C1340 1.407 . S
C1344 C1345 1.364 . S
C1344 H1410 0.930 . S
C1345 C1341 1.390 . S
C1345 C1344 1.364 . S
C1345 H1411 0.931 . S
Co1346 N1343 1.864 . S
Co1346 N1362 1.955 . S
Co1346 N1363 1.958 . S
Co1346 N1364 1.953 . S
Co1346 N1382 1.869 . S
Co1346 N1388 1.974 . S
C1347 C1342 1.516 . S
C1347 O1348 1.238 . S
C1347 N1363 1.324 . S
O1348 C1347 1.238 . S
C1349 C1350 1.394 . S
C1349 C1354 1.395 . S
C1349 N1363 1.427 . S
C1350 C1349 1.394 . S
C1350 C1351 1.380 . S
C1350 H1412 0.929 . S
C1351 C1350 1.380 . S
C1351 C1352 1.384 . S
C1351 C1355 1.495 . S
C1352 C1351 1.384 . S
C1352 C1353 1.382 . S
C1352 H1413 0.930 . S
C1353 C1352 1.382 . S
C1353 C1354 1.398 . S
C1354 C1349 1.395 . S
C1354 C1353 1.398 . S
C1354 H1414 0.930 . S
C1355 C1351 1.495 . S
C1355 O1402 1.258 . S
C1355 O1403 1.274 . S
C1356 C1357 1.385 . S
C1356 C1358 1.381 . S
C1356 N1362 1.432 . S
C1357 C1356 1.385 . S
C1357 C1361 1.388 . S
C1357 H1415 0.929 . S
C1358 C1356 1.381 . S
C1358 C1359 1.371 . S
C1358 H1416 0.932 . S
C1359 C1358 1.371 . S
C1359 C1360 1.400 . S
C1360 C1359 1.400 . S
C1360 C1361 1.351 . S
C1360 H1417 0.930 . S
C1361 C1357 1.388 . S
C1361 C1360 1.351 . S
N1362 C1337 1.329 . S
N1362 Co1346 1.955 . S
N1362 C1356 1.432 . S
N1363 Co1346 1.958 . S
N1363 C1347 1.324 . S
N1363 C1349 1.427 . S
N1364 Co1346 1.953 . S
N1364 C1365 1.436 . S
N1364 C1391 1.316 . S
C1365 N1364 1.436 . S
C1365 C1366 1.421 . S
C1365 C1367 1.360 . S
C1366 C1365 1.421 . S
C1366 C1368 1.379 . S
C1366 H1369 0.929 . S
C1367 C1365 1.360 . S
C1367 C1371 1.393 . S
C1367 H1373 0.931 . S
C1368 C1366 1.379 . S
C1368 C1370 1.417 . S
C1368 C1372 1.505 . S
H1369 C1366 0.929 . S
C1370 C1368 1.417 . S
C1370 C1371 1.352 . S
C1370 H1374 0.929 . S
C1371 C1367 1.393 . S
C1371 C1370 1.352 . S
C1371 C1375 1.482 . S
C1372 C1368 1.505 . S
C1372 O1376 1.259 . S
C1372 O1377 1.229 . S
H1373 C1367 0.931 . S
H1374 C1370 0.929 . S
C1375 C1371 1.482 . S
C1375 O1378 1.207 . S
C1375 O1379 1.289 . S
O1376 C1372 1.259 . S
O1376 H1380 0.822 . S
O1377 C1372 1.229 . S
O1378 C1375 1.207 . S
O1379 C1375 1.289 . S
O1379 H1381 0.819 . S
H1380 O1376 0.822 . S
H1381 O1379 0.819 . S
N1382 Co1346 1.869 . S
N1382 C1383 1.330 . S
N1382 C1387 1.325 . S
C1383 N1382 1.330 . S
C1383 C1384 1.359 . S
C1383 C1389 1.504 . S
C1384 C1383 1.359 . S
C1384 C1385 1.366 . S
C1384 H1418 0.929 . S
C1385 C1384 1.366 . S
C1385 C1386 1.415 . S
C1385 H1419 0.932 . S
C1386 C1385 1.415 . S
C1386 C1387 1.366 . S
C1386 H1420 0.931 . S
C1387 N1382 1.325 . S
C1387 C1386 1.366 . S
C1387 C1391 1.516 . S
N1388 Co1346 1.974 . S
N1388 C1389 1.309 . S
N1388 C1394 1.423 . S
C1389 C1383 1.504 . S
C1389 N1388 1.309 . S
C1389 O1390 1.258 . S
O1390 C1389 1.258 . S
C1391 N1364 1.316 . S
C1391 C1387 1.516 . S
C1391 O1404 1.263 . S
O1392 Cd1335 2.350 . S
O1392 C1408 1.270 . S
O1393 Cd1335 2.277 . S
O1393 C1408 1.248 . S
C1394 N1388 1.423 . S
C1394 C1395 1.370 . S
C1394 C1399 1.403 . S
C1395 C1394 1.370 . S
C1395 C1396 1.389 . S
C1395 H1421 0.931 . S
C1396 C1395 1.389 . S
C1396 C1397 1.389 . S
C1397 C1396 1.389 . S
C1397 C1398 1.379 1_565 S
C1397 H1422 0.929 1_565 S
C1398 C1397 1.379 1_545 S
C1398 C1399 1.405 1_545 S
C1399 C1394 1.403 . S
C1399 C1398 1.405 1_565 S
C1399 H1423 0.932 1_565 S
O1400 Cd1335 2.173 . S
O1400 C1336 1.277 . S
O1401 C1336 1.230 . S
O1401 Cd1339 2.250 . S
O1402 Cd1335 2.263 . S
O1402 C1355 1.258 . S
O1403 Cd1339 2.308 . S
O1403 C1355 1.274 . S
O1404 Cd1335 2.366 . S
O1404 C1391 1.263 . S
C1405 O1406 1.235 . S
C1405 O1407 1.270 . S
O1406 Cd1339 2.352 . S
O1406 C1405 1.235 . S
O1407 Cd1335 2.329 . S
O1407 C1405 1.270 . S
C1408 O1392 1.270 . S
C1408 O1393 1.248 . S
H1409 C1341 0.930 . S
H1410 C1344 0.930 . S
H1411 C1345 0.931 . S
H1412 C1350 0.929 . S
H1413 C1352 0.930 . S
H1414 C1354 0.930 . S
H1415 C1357 0.929 . S
H1416 C1358 0.932 . S
H1417 C1360 0.930 . S
H1418 C1384 0.929 . S
H1419 C1385 0.932 . S
H1420 C1386 0.931 . S
H1421 C1395 0.931 . S
H1422 C1397 0.929 1_545 S
H1423 C1399 0.932 1_545 S
Cd1424 O1481 2.350 . S
Cd1424 O1482 2.277 . S
Cd1424 O1489 2.173 . S
Cd1424 O1491 2.263 . S
Cd1424 O1493 2.366 . S
Cd1424 O1496 2.329 . S
C1425 O1489 1.277 . S
C1425 O1490 1.230 . S
C1426 O1427 1.246 . S
C1426 C1429 1.481 1_565 S
C1426 N1451 1.329 . S
O1427 C1426 1.246 . S
Cd1428 O1490 2.250 . S
Cd1428 O1492 2.308 . S
Cd1428 O1495 2.352 . S
C1429 C1426 1.481 1_545 S
C1429 N1432 1.327 . S
C1429 C1433 1.407 . S
C1430 C1431 1.346 . S
C1430 C1434 1.390 . S
C1430 H1498 0.930 . S
C1431 C1430 1.346 . S
C1431 N1432 1.342 . S
C1431 C1436 1.516 . S
N1432 C1429 1.327 . S
N1432 C1431 1.342 . S
N1432 Co1435 1.864 1_545 S
C1433 C1429 1.407 . S
C1433 C1434 1.364 . S
C1433 H1499 0.930 . S
C1434 C1430 1.390 . S
C1434 C1433 1.364 . S
C1434 H1500 0.931 . S
Co1435 N1432 1.864 1_565 S
Co1435 N1451 1.955 . S
Co1435 N1452 1.958 1_565 S
Co1435 N1453 1.953 . S
Co1435 N1471 1.869 . S
Co1435 N1477 1.974 . S
C1436 C1431 1.516 . S
C1436 O1437 1.238 . S
C1436 N1452 1.324 . S
O1437 C1436 1.238 . S
C1438 C1439 1.393 . S
C1438 C1443 1.395 . S
C1438 N1452 1.427 . S
C1439 C1438 1.393 . S
C1439 C1440 1.381 1_545 S
C1439 H1501 0.929 1_545 S
C1440 C1439 1.381 1_565 S
C1440 C1441 1.384 . S
C1440 C1444 1.495 . S
C1441 C1440 1.384 . S
C1441 C1442 1.382 1_565 S
C1441 H1502 0.930 . S
C1442 C1441 1.382 1_545 S
C1442 C1443 1.398 . S
C1443 C1438 1.395 . S
C1443 C1442 1.398 . S
C1443 H1503 0.930 . S
C1444 C1440 1.495 . S
C1444 O1491 1.258 . S
C1444 O1492 1.274 . S
C1445 C1446 1.385 . S
C1445 C1447 1.381 . S
C1445 N1451 1.432 . S
C1446 C1445 1.385 . S
C1446 C1450 1.388 . S
C1446 H1504 0.929 . S
C1447 C1445 1.381 . S
C1447 C1448 1.371 . S
C1447 H1505 0.932 . S
C1448 C1447 1.371 . S
C1448 C1449 1.400 . S
C1449 C1448 1.400 . S
C1449 C1450 1.351 . S
C1449 H1506 0.930 . S
C1450 C1446 1.388 . S
C1450 C1449 1.351 . S
N1451 C1426 1.329 . S
N1451 Co1435 1.955 . S
N1451 C1445 1.432 . S
N1452 Co1435 1.958 1_545 S
N1452 C1436 1.324 . S
N1452 C1438 1.427 . S
N1453 Co1435 1.953 . S
N1453 C1454 1.436 . S
N1453 C1480 1.316 . S
C1454 N1453 1.436 . S
C1454 C1455 1.421 . S
C1454 C1456 1.360 1_565 S
C1455 C1454 1.421 . S
C1455 C1457 1.379 1_565 S
C1455 H1458 0.929 . S
C1456 C1454 1.360 1_545 S
C1456 C1460 1.393 . S
C1456 H1462 0.931 . S
C1457 C1455 1.379 1_545 S
C1457 C1459 1.417 . S
C1457 C1461 1.505 1_545 S
H1458 C1455 0.929 . S
C1459 C1457 1.417 . S
C1459 C1460 1.352 . S
C1459 H1463 0.929 . S
C1460 C1456 1.393 . S
C1460 C1459 1.352 . S
C1460 C1464 1.482 . S
C1461 C1457 1.505 1_565 S
C1461 O1465 1.259 1_565 S
C1461 O1466 1.229 . S
H1462 C1456 0.931 . S
H1463 C1459 0.929 . S
C1464 C1460 1.482 . S
C1464 O1467 1.207 . S
C1464 O1468 1.289 . S
O1465 C1461 1.259 1_545 S
O1465 H1469 0.822 . S
O1466 C1461 1.229 . S
O1467 C1464 1.207 . S
O1468 C1464 1.289 . S
O1468 H1470 0.819 . S
H1469 O1465 0.822 . S
H1470 O1468 0.819 . S
N1471 Co1435 1.869 . S
N1471 C1472 1.330 . S
N1471 C1476 1.325 . S
C1472 N1471 1.330 . S
C1472 C1473 1.359 . S
C1472 C1478 1.504 . S
C1473 C1472 1.359 . S
C1473 C1474 1.366 . S
C1473 H1507 0.929 . S
C1474 C1473 1.366 . S
C1474 C1475 1.415 . S
C1474 H1508 0.932 . S
C1475 C1474 1.415 . S
C1475 C1476 1.366 . S
C1475 H1509 0.931 . S
C1476 N1471 1.325 . S
C1476 C1475 1.366 . S
C1476 C1480 1.516 . S
N1477 Co1435 1.974 . S
N1477 C1478 1.309 . S
N1477 C1483 1.423 . S
C1478 C1472 1.504 . S
C1478 N1477 1.309 . S
C1478 O1479 1.258 . S
O1479 C1478 1.258 . S
C1480 N1453 1.316 . S
C1480 C1476 1.516 . S
C1480 O1493 1.263 . S
O1481 Cd1424 2.350 . S
O1481 C1497 1.270 . S
O1482 Cd1424 2.277 . S
O1482 C1497 1.248 . S
C1483 N1477 1.423 . S
C1483 C1484 1.370 1_565 S
C1483 C1488 1.403 . S
C1484 C1483 1.370 1_545 S
C1484 C1485 1.389 . S
C1484 H1510 0.931 . S
C1485 C1484 1.389 . S
C1485 C1486 1.389 . S
C1486 C1485 1.389 . S
C1486 C1487 1.379 1_545 S
C1486 H1511 0.929 . S
C1487 C1486 1.379 1_565 S
C1487 C1488 1.404 . S
C1488 C1483 1.403 . S
C1488 C1487 1.404 . S
C1488 H1512 0.932 . S
O1489 Cd1424 2.173 . S
O1489 C1425 1.277 . S
O1490 C1425 1.230 . S
O1490 Cd1428 2.250 . S
O1491 Cd1424 2.263 . S
O1491 C1444 1.258 . S
O1492 Cd1428 2.308 . S
O1492 C1444 1.274 . S
O1493 Cd1424 2.366 . S
O1493 C1480 1.263 . S
C1494 O1495 1.235 . S
C1494 O1496 1.270 . S
O1495 Cd1428 2.352 . S
O1495 C1494 1.235 . S
O1496 Cd1424 2.329 . S
O1496 C1494 1.270 . S
C1497 O1481 1.270 . S
C1497 O1482 1.248 . S
H1498 C1430 0.930 . S
H1499 C1433 0.930 . S
H1500 C1434 0.931 . S
H1501 C1439 0.929 1_565 S
H1502 C1441 0.930 . S
H1503 C1443 0.930 . S
H1504 C1446 0.929 . S
H1505 C1447 0.932 . S
H1506 C1449 0.930 . S
H1507 C1473 0.929 . S
H1508 C1474 0.932 . S
H1509 C1475 0.931 . S
H1510 C1484 0.931 . S
H1511 C1486 0.929 . S
H1512 C1488 0.932 . S
Cd1513 O1570 2.350 . S
Cd1513 O1571 2.277 . S
Cd1513 O1578 2.173 . S
Cd1513 O1580 2.263 . S
Cd1513 O1582 2.366 . S
Cd1513 O1585 2.329 . S
C1514 O1578 1.277 . S
C1514 O1579 1.230 . S
C1515 O1516 1.246 . S
C1515 C1518 1.481 . S
C1515 N1540 1.329 . S
O1516 C1515 1.246 . S
Cd1517 O1579 2.250 . S
Cd1517 O1581 2.308 . S
Cd1517 O1584 2.352 . S
C1518 C1515 1.481 . S
C1518 N1521 1.327 . S
C1518 C1522 1.407 . S
C1519 C1520 1.346 . S
C1519 C1523 1.390 . S
C1519 H1587 0.930 . S
C1520 C1519 1.346 . S
C1520 N1521 1.342 . S
C1520 C1525 1.516 . S
N1521 C1518 1.327 . S
N1521 C1520 1.342 . S
N1521 Co1524 1.864 . S
C1522 C1518 1.407 . S
C1522 C1523 1.364 . S
C1522 H1588 0.930 . S
C1523 C1519 1.390 . S
C1523 C1522 1.364 . S
C1523 H1589 0.931 . S
Co1524 N1521 1.864 . S
Co1524 N1540 1.955 . S
Co1524 N1541 1.958 . S
Co1524 N1542 1.953 . S
Co1524 N1560 1.869 . S
Co1524 N1566 1.974 . S
C1525 C1520 1.516 . S
C1525 O1526 1.238 . S
C1525 N1541 1.324 . S
O1526 C1525 1.238 . S
C1527 C1528 1.394 . S
C1527 C1532 1.395 . S
C1527 N1541 1.427 . S
C1528 C1527 1.394 . S
C1528 C1529 1.380 . S
C1528 H1590 0.929 . S
C1529 C1528 1.380 . S
C1529 C1530 1.384 . S
C1529 C1533 1.495 . S
C1530 C1529 1.384 . S
C1530 C1531 1.382 . S
C1530 H1591 0.930 . S
C1531 C1530 1.382 . S
C1531 C1532 1.398 . S
C1532 C1527 1.395 . S
C1532 C1531 1.398 . S
C1532 H1592 0.930 . S
C1533 C1529 1.495 . S
C1533 O1580 1.258 . S
C1533 O1581 1.274 . S
C1534 C1535 1.385 . S
C1534 C1536 1.381 . S
C1534 N1540 1.432 . S
C1535 C1534 1.385 . S
C1535 C1539 1.388 . S
C1535 H1593 0.929 . S
C1536 C1534 1.381 . S
C1536 C1537 1.371 . S
C1536 H1594 0.932 . S
C1537 C1536 1.371 . S
C1537 C1538 1.400 . S
C1538 C1537 1.400 . S
C1538 C1539 1.351 . S
C1538 H1595 0.930 . S
C1539 C1535 1.388 . S
C1539 C1538 1.351 . S
N1540 C1515 1.329 . S
N1540 Co1524 1.955 . S
N1540 C1534 1.432 . S
N1541 Co1524 1.958 . S
N1541 C1525 1.324 . S
N1541 C1527 1.427 . S
N1542 Co1524 1.953 . S
N1542 C1543 1.436 . S
N1542 C1569 1.316 . S
C1543 N1542 1.436 . S
C1543 C1544 1.421 . S
C1543 C1545 1.360 . S
C1544 C1543 1.421 . S
C1544 C1546 1.379 . S
C1544 H1547 0.929 . S
C1545 C1543 1.360 . S
C1545 C1549 1.393 . S
C1545 H1551 0.931 . S
C1546 C1544 1.379 . S
C1546 C1548 1.417 . S
C1546 C1550 1.505 . S
H1547 C1544 0.929 . S
C1548 C1546 1.417 . S
C1548 C1549 1.352 . S
C1548 H1552 0.929 . S
C1549 C1545 1.393 . S
C1549 C1548 1.352 . S
C1549 C1553 1.482 . S
C1550 C1546 1.505 . S
C1550 O1554 1.259 . S
C1550 O1555 1.229 . S
H1551 C1545 0.931 . S
H1552 C1548 0.929 . S
C1553 C1549 1.482 . S
C1553 O1556 1.207 . S
C1553 O1557 1.289 . S
O1554 C1550 1.259 . S
O1554 H1558 0.822 . S
O1555 C1550 1.229 . S
O1556 C1553 1.207 . S
O1557 C1553 1.289 . S
O1557 H1559 0.819 1_455 S
H1558 O1554 0.822 . S
H1559 O1557 0.819 1_655 S
N1560 Co1524 1.869 . S
N1560 C1561 1.330 . S
N1560 C1565 1.325 . S
C1561 N1560 1.330 . S
C1561 C1562 1.359 . S
C1561 C1567 1.504 . S
C1562 C1561 1.359 . S
C1562 C1563 1.366 . S
C1562 H1596 0.929 . S
C1563 C1562 1.366 . S
C1563 C1564 1.415 . S
C1563 H1597 0.932 . S
C1564 C1563 1.415 . S
C1564 C1565 1.366 . S
C1564 H1598 0.931 . S
C1565 N1560 1.325 . S
C1565 C1564 1.366 . S
C1565 C1569 1.516 . S
N1566 Co1524 1.974 . S
N1566 C1567 1.309 . S
N1566 C1572 1.423 . S
C1567 C1561 1.504 . S
C1567 N1566 1.309 . S
C1567 O1568 1.258 . S
O1568 C1567 1.258 . S
C1569 N1542 1.316 . S
C1569 C1565 1.516 . S
C1569 O1582 1.263 . S
O1570 Cd1513 2.350 . S
O1570 C1586 1.270 . S
O1571 Cd1513 2.277 . S
O1571 C1586 1.248 . S
C1572 N1566 1.423 . S
C1572 C1573 1.370 . S
C1572 C1577 1.403 . S
C1573 C1572 1.370 . S
C1573 C1574 1.389 . S
C1573 H1599 0.931 . S
C1574 C1573 1.389 . S
C1574 C1575 1.389 . S
C1575 C1574 1.389 . S
C1575 C1576 1.379 . S
C1575 H1600 0.929 . S
C1576 C1575 1.379 . S
C1576 C1577 1.405 . S
C1577 C1572 1.403 . S
C1577 C1576 1.405 . S
C1577 H1601 0.932 . S
O1578 Cd1513 2.173 . S
O1578 C1514 1.277 . S
O1579 C1514 1.230 . S
O1579 Cd1517 2.250 . S
O1580 Cd1513 2.263 . S
O1580 C1533 1.258 . S
O1581 Cd1517 2.308 . S
O1581 C1533 1.274 . S
O1582 Cd1513 2.366 . S
O1582 C1569 1.263 . S
C1583 O1584 1.235 . S
C1583 O1585 1.270 . S
O1584 Cd1517 2.352 . S
O1584 C1583 1.235 . S
O1585 Cd1513 2.329 . S
O1585 C1583 1.270 . S
C1586 O1570 1.270 . S
C1586 O1571 1.248 . S
H1587 C1519 0.930 . S
H1588 C1522 0.930 . S
H1589 C1523 0.931 . S
H1590 C1528 0.929 . S
H1591 C1530 0.930 . S
H1592 C1532 0.930 . S
H1593 C1535 0.929 . S
H1594 C1536 0.932 . S
H1595 C1538 0.930 . S
H1596 C1562 0.929 . S
H1597 C1563 0.932 . S
H1598 C1564 0.931 . S
H1599 C1573 0.931 . S
H1600 C1575 0.929 . S
H1601 C1577 0.932 . S
Cd1602 O1659 2.350 . S
Cd1602 O1660 2.277 . S
Cd1602 O1667 2.173 . S
Cd1602 O1669 2.263 . S
Cd1602 O1671 2.366 . S
Cd1602 O1674 2.329 . S
C1603 O1667 1.277 . S
C1603 O1668 1.230 . S
C1604 O1605 1.246 . S
C1604 C1607 1.481 . S
C1604 N1629 1.329 . S
O1605 C1604 1.246 . S
Cd1606 O1668 2.250 . S
Cd1606 O1670 2.308 . S
Cd1606 O1673 2.352 . S
C1607 C1604 1.481 . S
C1607 N1610 1.327 . S
C1607 C1611 1.407 . S
C1608 C1609 1.346 . S
C1608 C1612 1.390 . S
C1608 H1676 0.930 . S
C1609 C1608 1.346 . S
C1609 N1610 1.342 . S
C1609 C1614 1.516 . S
N1610 C1607 1.327 . S
N1610 C1609 1.342 . S
N1610 Co1613 1.864 . S
C1611 C1607 1.407 . S
C1611 C1612 1.364 . S
C1611 H1677 0.930 . S
C1612 C1608 1.390 . S
C1612 C1611 1.364 . S
C1612 H1678 0.931 . S
Co1613 N1610 1.864 . S
Co1613 N1629 1.955 . S
Co1613 N1630 1.958 . S
Co1613 N1631 1.953 . S
Co1613 N1649 1.869 . S
Co1613 N1655 1.974 . S
C1614 C1609 1.516 . S
C1614 O1615 1.238 . S
C1614 N1630 1.324 . S
O1615 C1614 1.238 . S
C1616 C1617 1.394 . S
C1616 C1621 1.395 . S
C1616 N1630 1.427 . S
C1617 C1616 1.394 . S
C1617 C1618 1.380 . S
C1617 H1679 0.929 . S
C1618 C1617 1.380 . S
C1618 C1619 1.384 . S
C1618 C1622 1.495 . S
C1619 C1618 1.384 . S
C1619 C1620 1.382 . S
C1619 H1680 0.930 . S
C1620 C1619 1.382 . S
C1620 C1621 1.398 . S
C1621 C1616 1.395 . S
C1621 C1620 1.398 . S
C1621 H1681 0.930 . S
C1622 C1618 1.495 . S
C1622 O1669 1.258 . S
C1622 O1670 1.274 . S
C1623 C1624 1.385 . S
C1623 C1625 1.381 . S
C1623 N1629 1.432 . S
C1624 C1623 1.385 . S
C1624 C1628 1.388 . S
C1624 H1682 0.929 . S
C1625 C1623 1.381 . S
C1625 C1626 1.371 . S
C1625 H1683 0.932 . S
C1626 C1625 1.371 . S
C1626 C1627 1.400 . S
C1627 C1626 1.400 . S
C1627 C1628 1.351 . S
C1627 H1684 0.930 . S
C1628 C1624 1.388 . S
C1628 C1627 1.351 . S
N1629 C1604 1.329 . S
N1629 Co1613 1.955 . S
N1629 C1623 1.432 . S
N1630 Co1613 1.958 . S
N1630 C1614 1.324 . S
N1630 C1616 1.427 . S
N1631 Co1613 1.953 . S
N1631 C1632 1.436 . S
N1631 C1658 1.316 . S
C1632 N1631 1.436 . S
C1632 C1633 1.421 . S
C1632 C1634 1.360 . S
C1633 C1632 1.421 . S
C1633 C1635 1.379 . S
C1633 H1636 0.929 . S
C1634 C1632 1.360 . S
C1634 C1638 1.393 . S
C1634 H1640 0.931 . S
C1635 C1633 1.379 . S
C1635 C1637 1.417 . S
C1635 C1639 1.505 . S
H1636 C1633 0.929 . S
C1637 C1635 1.417 . S
C1637 C1638 1.352 . S
C1637 H1641 0.929 . S
C1638 C1634 1.393 . S
C1638 C1637 1.352 . S
C1638 C1642 1.482 . S
C1639 C1635 1.505 . S
C1639 O1643 1.259 . S
C1639 O1644 1.229 . S
H1640 C1634 0.931 . S
H1641 C1637 0.929 . S
C1642 C1638 1.482 . S
C1642 O1645 1.207 . S
C1642 O1646 1.289 . S
O1643 C1639 1.259 . S
O1643 H1647 0.822 . S
O1644 C1639 1.229 . S
O1645 C1642 1.207 . S
O1646 C1642 1.289 . S
O1646 H1648 0.819 . S
H1647 O1643 0.822 . S
H1648 O1646 0.819 . S
N1649 Co1613 1.869 . S
N1649 C1650 1.330 . S
N1649 C1654 1.325 . S
C1650 N1649 1.330 . S
C1650 C1651 1.359 . S
C1650 C1656 1.504 . S
C1651 C1650 1.359 . S
C1651 C1652 1.366 . S
C1651 H1685 0.929 . S
C1652 C1651 1.366 . S
C1652 C1653 1.415 . S
C1652 H1686 0.932 . S
C1653 C1652 1.415 . S
C1653 C1654 1.366 . S
C1653 H1687 0.931 . S
C1654 N1649 1.325 . S
C1654 C1653 1.366 . S
C1654 C1658 1.516 . S
N1655 Co1613 1.974 . S
N1655 C1656 1.309 . S
N1655 C1661 1.423 . S
C1656 C1650 1.504 . S
C1656 N1655 1.309 . S
C1656 O1657 1.258 . S
O1657 C1656 1.258 . S
C1658 N1631 1.316 . S
C1658 C1654 1.516 . S
C1658 O1671 1.263 . S
O1659 Cd1602 2.350 . S
O1659 C1675 1.270 . S
O1660 Cd1602 2.277 . S
O1660 C1675 1.248 . S
C1661 N1655 1.423 . S
C1661 C1662 1.370 . S
C1661 C1666 1.403 . S
C1662 C1661 1.370 . S
C1662 C1663 1.389 . S
C1662 H1688 0.931 . S
C1663 C1662 1.389 . S
C1663 C1664 1.389 . S
C1664 C1663 1.389 . S
C1664 C1665 1.379 . S
C1664 H1689 0.929 . S
C1665 C1664 1.379 . S
C1665 C1666 1.405 . S
C1666 C1661 1.403 . S
C1666 C1665 1.405 . S
C1666 H1690 0.932 . S
O1667 Cd1602 2.173 . S
O1667 C1603 1.277 . S
O1668 C1603 1.230 . S
O1668 Cd1606 2.250 . S
O1669 Cd1602 2.263 . S
O1669 C1622 1.258 . S
O1670 Cd1606 2.308 . S
O1670 C1622 1.274 . S
O1671 Cd1602 2.366 . S
O1671 C1658 1.263 . S
C1672 O1673 1.235 . S
C1672 O1674 1.270 . S
O1673 Cd1606 2.352 . S
O1673 C1672 1.235 . S
O1674 Cd1602 2.329 . S
O1674 C1672 1.270 . S
C1675 O1659 1.270 . S
C1675 O1660 1.248 . S
H1676 C1608 0.930 . S
H1677 C1611 0.930 . S
H1678 C1612 0.931 . S
H1679 C1617 0.929 . S
H1680 C1619 0.930 . S
H1681 C1621 0.930 . S
H1682 C1624 0.929 . S
H1683 C1625 0.932 . S
H1684 C1627 0.930 . S
H1685 C1651 0.929 . S
H1686 C1652 0.932 . S
H1687 C1653 0.931 . S
H1688 C1662 0.931 . S
H1689 C1664 0.929 . S
H1690 C1666 0.932 . S
Cd1691 O1748 2.350 . S
Cd1691 O1749 2.277 . S
Cd1691 O1756 2.173 . S
Cd1691 O1758 2.263 . S
Cd1691 O1760 2.366 . S
Cd1691 O1763 2.329 . S
C1692 O1756 1.277 . S
C1692 O1757 1.230 . S
C1693 O1694 1.246 . S
C1693 C1696 1.481 1_565 S
C1693 N1718 1.329 . S
O1694 C1693 1.246 . S
Cd1695 O1757 2.250 . S
Cd1695 O1759 2.308 . S
Cd1695 O1762 2.352 . S
C1696 C1693 1.481 1_545 S
C1696 N1699 1.327 . S
C1696 C1700 1.407 . S
C1697 C1698 1.346 . S
C1697 C1701 1.390 . S
C1697 H1765 0.930 . S
C1698 C1697 1.346 . S
C1698 N1699 1.342 . S
C1698 C1703 1.516 . S
N1699 C1696 1.327 . S
N1699 C1698 1.342 . S
N1699 Co1702 1.864 1_545 S
C1700 C1696 1.407 . S
C1700 C1701 1.364 . S
C1700 H1766 0.930 . S
C1701 C1697 1.390 . S
C1701 C1700 1.364 . S
C1701 H1767 0.931 . S
Co1702 N1699 1.864 1_565 S
Co1702 N1718 1.955 . S
Co1702 N1719 1.958 1_565 S
Co1702 N1720 1.953 . S
Co1702 N1738 1.869 . S
Co1702 N1744 1.974 . S
C1703 C1698 1.516 . S
C1703 O1704 1.238 . S
C1703 N1719 1.324 . S
O1704 C1703 1.238 . S
C1705 C1706 1.394 . S
C1705 C1710 1.395 . S
C1705 N1719 1.427 . S
C1706 C1705 1.394 . S
C1706 C1707 1.380 1_545 S
C1706 H1768 0.929 1_545 S
C1707 C1706 1.380 1_565 S
C1707 C1708 1.384 . S
C1707 C1711 1.495 . S
C1708 C1707 1.384 . S
C1708 C1709 1.382 1_565 S
C1708 H1769 0.930 . S
C1709 C1708 1.382 1_545 S
C1709 C1710 1.398 . S
C1710 C1705 1.395 . S
C1710 C1709 1.398 . S
C1710 H1770 0.930 . S
C1711 C1707 1.495 . S
C1711 O1758 1.258 . S
C1711 O1759 1.274 . S
C1712 C1713 1.385 . S
C1712 C1714 1.381 . S
C1712 N1718 1.432 . S
C1713 C1712 1.385 . S
C1713 C1717 1.388 . S
C1713 H1771 0.929 . S
C1714 C1712 1.381 . S
C1714 C1715 1.371 . S
C1714 H1772 0.932 . S
C1715 C1714 1.371 . S
C1715 C1716 1.400 . S
C1716 C1715 1.400 . S
C1716 C1717 1.351 . S
C1716 H1773 0.930 . S
C1717 C1713 1.388 . S
C1717 C1716 1.351 . S
N1718 C1693 1.329 . S
N1718 Co1702 1.955 . S
N1718 C1712 1.432 . S
N1719 Co1702 1.958 1_545 S
N1719 C1703 1.324 . S
N1719 C1705 1.427 . S
N1720 Co1702 1.953 . S
N1720 C1721 1.436 . S
N1720 C1747 1.316 . S
C1721 N1720 1.436 . S
C1721 C1722 1.421 . S
C1721 C1723 1.360 1_565 S
C1722 C1721 1.421 . S
C1722 C1724 1.379 1_565 S
C1722 H1725 0.929 . S
C1723 C1721 1.360 1_545 S
C1723 C1727 1.393 . S
C1723 H1729 0.931 . S
C1724 C1722 1.379 1_545 S
C1724 C1726 1.417 . S
C1724 C1728 1.505 1_545 S
H1725 C1722 0.929 . S
C1726 C1724 1.417 . S
C1726 C1727 1.352 . S
C1726 H1730 0.929 . S
C1727 C1723 1.393 . S
C1727 C1726 1.352 . S
C1727 C1731 1.482 . S
C1728 C1724 1.505 1_565 S
C1728 O1732 1.259 1_565 S
C1728 O1733 1.229 . S
H1729 C1723 0.931 . S
H1730 C1726 0.929 . S
C1731 C1727 1.482 . S
C1731 O1734 1.207 . S
C1731 O1735 1.289 . S
O1732 C1728 1.259 1_545 S
O1732 H1736 0.822 . S
O1733 C1728 1.229 . S
O1734 C1731 1.207 . S
O1735 C1731 1.289 . S
O1735 H1737 0.819 . S
H1736 O1732 0.822 . S
H1737 O1735 0.819 . S
N1738 Co1702 1.869 . S
N1738 C1739 1.330 . S
N1738 C1743 1.325 . S
C1739 N1738 1.330 . S
C1739 C1740 1.359 . S
C1739 C1745 1.504 . S
C1740 C1739 1.359 . S
C1740 C1741 1.366 . S
C1740 H1774 0.929 . S
C1741 C1740 1.366 . S
C1741 C1742 1.415 . S
C1741 H1775 0.932 . S
C1742 C1741 1.415 . S
C1742 C1743 1.366 . S
C1742 H1776 0.931 . S
C1743 N1738 1.325 . S
C1743 C1742 1.366 . S
C1743 C1747 1.516 . S
N1744 Co1702 1.974 . S
N1744 C1745 1.309 . S
N1744 C1750 1.423 . S
C1745 C1739 1.504 . S
C1745 N1744 1.309 . S
C1745 O1746 1.258 . S
O1746 C1745 1.258 . S
C1747 N1720 1.316 . S
C1747 C1743 1.516 . S
C1747 O1760 1.263 . S
O1748 Cd1691 2.350 . S
O1748 C1764 1.270 . S
O1749 Cd1691 2.277 . S
O1749 C1764 1.248 . S
C1750 N1744 1.423 . S
C1750 C1751 1.370 1_565 S
C1750 C1755 1.403 . S
C1751 C1750 1.370 1_545 S
C1751 C1752 1.389 . S
C1751 H1777 0.931 . S
C1752 C1751 1.389 . S
C1752 C1753 1.389 . S
C1753 C1752 1.389 . S
C1753 C1754 1.380 1_545 S
C1753 H1778 0.929 . S
C1754 C1753 1.380 1_565 S
C1754 C1755 1.405 . S
C1755 C1750 1.403 . S
C1755 C1754 1.405 . S
C1755 H1779 0.932 . S
O1756 Cd1691 2.173 . S
O1756 C1692 1.277 . S
O1757 C1692 1.230 . S
O1757 Cd1695 2.250 . S
O1758 Cd1691 2.263 . S
O1758 C1711 1.258 . S
O1759 Cd1695 2.308 . S
O1759 C1711 1.274 . S
O1760 Cd1691 2.366 . S
O1760 C1747 1.263 . S
C1761 O1762 1.235 . S
C1761 O1763 1.270 . S
O1762 Cd1695 2.352 . S
O1762 C1761 1.235 . S
O1763 Cd1691 2.329 . S
O1763 C1761 1.270 . S
C1764 O1748 1.270 . S
C1764 O1749 1.248 . S
H1765 C1697 0.930 . S
H1766 C1700 0.930 . S
H1767 C1701 0.931 . S
H1768 C1706 0.929 1_565 S
H1769 C1708 0.930 . S
H1770 C1710 0.930 . S
H1771 C1713 0.929 . S
H1772 C1714 0.932 . S
H1773 C1716 0.930 . S
H1774 C1740 0.929 . S
H1775 C1741 0.932 . S
H1776 C1742 0.931 . S
H1777 C1751 0.931 . S
H1778 C1753 0.929 . S
H1779 C1755 0.932 . S
Cd1780 O1837 2.350 . S
Cd1780 O1838 2.277 . S
Cd1780 O1845 2.173 . S
Cd1780 O1847 2.263 . S
Cd1780 O1849 2.366 . S
Cd1780 O1852 2.329 . S
C1781 O1845 1.277 . S
C1781 O1846 1.230 . S
C1782 O1783 1.246 . S
C1782 C1785 1.481 . S
C1782 N1807 1.329 . S
O1783 C1782 1.246 . S
Cd1784 O1846 2.250 . S
Cd1784 O1848 2.308 . S
Cd1784 O1851 2.352 . S
C1785 C1782 1.481 . S
C1785 N1788 1.327 . S
C1785 C1789 1.407 . S
C1786 C1787 1.346 . S
C1786 C1790 1.390 . S
C1786 H1854 0.930 . S
C1787 C1786 1.346 . S
C1787 N1788 1.342 . S
C1787 C1792 1.516 . S
N1788 C1785 1.327 . S
N1788 C1787 1.342 . S
N1788 Co1791 1.864 . S
C1789 C1785 1.407 . S
C1789 C1790 1.364 . S
C1789 H1855 0.930 . S
C1790 C1786 1.390 . S
C1790 C1789 1.364 . S
C1790 H1856 0.931 . S
Co1791 N1788 1.864 . S
Co1791 N1807 1.955 . S
Co1791 N1808 1.958 . S
Co1791 N1809 1.953 . S
Co1791 N1827 1.869 . S
Co1791 N1833 1.974 . S
C1792 C1787 1.516 . S
C1792 O1793 1.238 . S
C1792 N1808 1.324 . S
O1793 C1792 1.238 . S
C1794 C1795 1.394 . S
C1794 C1799 1.395 . S
C1794 N1808 1.427 . S
C1795 C1794 1.394 . S
C1795 C1796 1.380 . S
C1795 H1857 0.929 . S
C1796 C1795 1.380 . S
C1796 C1797 1.384 . S
C1796 C1800 1.495 . S
C1797 C1796 1.384 . S
C1797 C1798 1.382 . S
C1797 H1858 0.930 . S
C1798 C1797 1.382 . S
C1798 C1799 1.398 . S
C1799 C1794 1.395 . S
C1799 C1798 1.398 . S
C1799 H1859 0.930 . S
C1800 C1796 1.495 . S
C1800 O1847 1.258 . S
C1800 O1848 1.274 . S
C1801 C1802 1.385 . S
C1801 C1803 1.381 . S
C1801 N1807 1.432 . S
C1802 C1801 1.385 . S
C1802 C1806 1.388 . S
C1802 H1860 0.929 . S
C1803 C1801 1.381 . S
C1803 C1804 1.371 . S
C1803 H1861 0.932 . S
C1804 C1803 1.371 . S
C1804 C1805 1.400 . S
C1805 C1804 1.400 . S
C1805 C1806 1.351 . S
C1805 H1862 0.930 . S
C1806 C1802 1.388 . S
C1806 C1805 1.351 . S
N1807 C1782 1.329 . S
N1807 Co1791 1.955 . S
N1807 C1801 1.432 . S
N1808 Co1791 1.958 . S
N1808 C1792 1.324 . S
N1808 C1794 1.427 . S
N1809 Co1791 1.953 . S
N1809 C1810 1.436 . S
N1809 C1836 1.316 . S
C1810 N1809 1.436 . S
C1810 C1811 1.421 . S
C1810 C1812 1.360 . S
C1811 C1810 1.421 . S
C1811 C1813 1.379 . S
C1811 H1814 0.929 . S
C1812 C1810 1.360 . S
C1812 C1816 1.393 . S
C1812 H1818 0.931 . S
C1813 C1811 1.379 . S
C1813 C1815 1.417 . S
C1813 C1817 1.505 . S
H1814 C1811 0.929 . S
C1815 C1813 1.417 . S
C1815 C1816 1.352 . S
C1815 H1819 0.929 . S
C1816 C1812 1.393 . S
C1816 C1815 1.352 . S
C1816 C1820 1.482 . S
C1817 C1813 1.505 . S
C1817 O1821 1.259 . S
C1817 O1822 1.229 . S
H1818 C1812 0.931 . S
H1819 C1815 0.929 . S
C1820 C1816 1.482 . S
C1820 O1823 1.207 . S
C1820 O1824 1.289 . S
O1821 C1817 1.259 . S
O1821 H1825 0.822 . S
O1822 C1817 1.229 . S
O1823 C1820 1.207 . S
O1824 C1820 1.289 . S
O1824 H1826 0.819 1_455 S
H1825 O1821 0.822 . S
H1826 O1824 0.819 1_655 S
N1827 Co1791 1.869 . S
N1827 C1828 1.330 . S
N1827 C1832 1.325 . S
C1828 N1827 1.330 . S
C1828 C1829 1.359 . S
C1828 C1834 1.504 . S
C1829 C1828 1.359 . S
C1829 C1830 1.366 . S
C1829 H1863 0.929 . S
C1830 C1829 1.366 . S
C1830 C1831 1.415 . S
C1830 H1864 0.932 . S
C1831 C1830 1.415 . S
C1831 C1832 1.366 . S
C1831 H1865 0.931 . S
C1832 N1827 1.325 . S
C1832 C1831 1.366 . S
C1832 C1836 1.516 . S
N1833 Co1791 1.974 . S
N1833 C1834 1.309 . S
N1833 C1839 1.423 . S
C1834 C1828 1.504 . S
C1834 N1833 1.309 . S
C1834 O1835 1.258 . S
O1835 C1834 1.258 . S
C1836 N1809 1.316 . S
C1836 C1832 1.516 . S
C1836 O1849 1.263 . S
O1837 Cd1780 2.350 . S
O1837 C1853 1.270 . S
O1838 Cd1780 2.277 . S
O1838 C1853 1.248 . S
C1839 N1833 1.423 . S
C1839 C1840 1.370 . S
C1839 C1844 1.403 . S
C1840 C1839 1.370 . S
C1840 C1841 1.389 . S
C1840 H1866 0.931 . S
C1841 C1840 1.389 . S
C1841 C1842 1.389 . S
C1842 C1841 1.389 . S
C1842 C1843 1.379 1_565 S
C1842 H1867 0.929 1_565 S
C1843 C1842 1.379 1_545 S
C1843 C1844 1.405 1_545 S
C1844 C1839 1.403 . S
C1844 C1843 1.405 1_565 S
C1844 H1868 0.932 1_565 S
O1845 Cd1780 2.173 . S
O1845 C1781 1.277 . S
O1846 C1781 1.230 . S
O1846 Cd1784 2.250 . S
O1847 Cd1780 2.263 . S
O1847 C1800 1.258 . S
O1848 Cd1784 2.308 . S
O1848 C1800 1.274 . S
O1849 Cd1780 2.366 . S
O1849 C1836 1.263 . S
C1850 O1851 1.235 . S
C1850 O1852 1.270 . S
O1851 Cd1784 2.352 . S
O1851 C1850 1.235 . S
O1852 Cd1780 2.329 . S
O1852 C1850 1.270 . S
C1853 O1837 1.270 . S
C1853 O1838 1.248 . S
H1854 C1786 0.930 . S
H1855 C1789 0.930 . S
H1856 C1790 0.931 . S
H1857 C1795 0.929 . S
H1858 C1797 0.930 . S
H1859 C1799 0.930 . S
H1860 C1802 0.929 . S
H1861 C1803 0.932 . S
H1862 C1805 0.930 . S
H1863 C1829 0.929 . S
H1864 C1830 0.932 . S
H1865 C1831 0.931 . S
H1866 C1840 0.931 . S
H1867 C1842 0.929 1_545 S
H1868 C1844 0.932 1_545 S
Cd1869 O1926 2.350 . S
Cd1869 O1927 2.277 . S
Cd1869 O1934 2.173 . S
Cd1869 O1936 2.263 . S
Cd1869 O1938 2.366 . S
Cd1869 O1941 2.329 . S
C1870 O1934 1.277 . S
C1870 O1935 1.230 . S
C1871 O1872 1.246 . S
C1871 C1874 1.481 . S
C1871 N1896 1.329 . S
O1872 C1871 1.246 . S
Cd1873 O1935 2.250 . S
Cd1873 O1937 2.308 . S
Cd1873 O1940 2.352 . S
C1874 C1871 1.481 . S
C1874 N1877 1.327 . S
C1874 C1878 1.407 . S
C1875 C1876 1.346 . S
C1875 C1879 1.390 . S
C1875 H1943 0.930 . S
C1876 C1875 1.346 . S
C1876 N1877 1.342 . S
C1876 C1881 1.516 . S
N1877 C1874 1.327 . S
N1877 C1876 1.342 . S
N1877 Co1880 1.864 . S
C1878 C1874 1.407 . S
C1878 C1879 1.364 . S
C1878 H1944 0.930 . S
C1879 C1875 1.390 . S
C1879 C1878 1.364 . S
C1879 H1945 0.931 . S
Co1880 N1877 1.864 . S
Co1880 N1896 1.955 . S
Co1880 N1897 1.958 . S
Co1880 N1898 1.953 . S
Co1880 N1916 1.869 . S
Co1880 N1922 1.974 . S
C1881 C1876 1.516 . S
C1881 O1882 1.238 1_565 S
C1881 N1897 1.324 . S
O1882 C1881 1.238 1_545 S
C1883 C1884 1.394 1_565 S
C1883 C1888 1.395 . S
C1883 N1897 1.427 . S
C1884 C1883 1.394 1_545 S
C1884 C1885 1.380 . S
C1884 H1946 0.929 . S
C1885 C1884 1.380 . S
C1885 C1886 1.384 . S
C1885 C1889 1.495 . S
C1886 C1885 1.384 . S
C1886 C1887 1.382 . S
C1886 H1947 0.930 . S
C1887 C1886 1.382 . S
C1887 C1888 1.398 1_545 S
C1888 C1883 1.395 . S
C1888 C1887 1.398 1_565 S
C1888 H1948 0.930 . S
C1889 C1885 1.495 . S
C1889 O1936 1.258 . S
C1889 O1937 1.274 . S
C1890 C1891 1.385 . S
C1890 C1892 1.381 . S
C1890 N1896 1.432 . S
C1891 C1890 1.385 . S
C1891 C1895 1.388 . S
C1891 H1949 0.929 . S
C1892 C1890 1.381 . S
C1892 C1893 1.371 . S
C1892 H1950 0.932 . S
C1893 C1892 1.371 . S
C1893 C1894 1.400 . S
C1894 C1893 1.400 . S
C1894 C1895 1.351 . S
C1894 H1951 0.930 . S
C1895 C1891 1.388 . S
C1895 C1894 1.351 . S
N1896 C1871 1.329 . S
N1896 Co1880 1.955 . S
N1896 C1890 1.432 . S
N1897 Co1880 1.958 . S
N1897 C1881 1.324 . S
N1897 C1883 1.427 . S
N1898 Co1880 1.953 . S
N1898 C1899 1.436 1_565 S
N1898 C1925 1.316 . S
C1899 N1898 1.436 1_545 S
C1899 C1900 1.421 1_545 S
C1899 C1901 1.360 . S
C1900 C1899 1.421 1_565 S
C1900 C1902 1.379 1_565 S
C1900 H1903 0.929 . S
C1901 C1899 1.360 . S
C1901 C1905 1.393 . S
C1901 H1907 0.931 . S
C1902 C1900 1.379 1_545 S
C1902 C1904 1.417 . S
C1902 C1906 1.505 1_556 S
H1903 C1900 0.929 . S
C1904 C1902 1.417 . S
C1904 C1905 1.352 . S
C1904 H1908 1.008 . S
C1905 C1901 1.393 . S
C1905 C1904 1.352 . S
C1905 C1909 1.482 . S
C1906 C1902 1.505 1_554 S
C1906 O1910 1.259 . S
C1906 O1911 1.229 1_545 S
H1907 C1901 0.931 . S
H1908 C1904 1.008 . S
C1909 C1905 1.482 . S
C1909 O1912 1.207 . S
C1909 O1913 1.289 . S
O1910 C1906 1.259 . S
O1910 H1914 0.822 . S
O1911 C1906 1.229 1_565 S
O1912 C1909 1.207 . S
O1913 C1909 1.289 . S
O1913 H1915 0.819 . S
H1914 O1910 0.822 . S
H1915 O1913 0.819 . S
N1916 Co1880 1.869 . S
N1916 C1917 1.330 . S
N1916 C1921 1.325 . S
C1917 N1916 1.330 . S
C1917 C1918 1.359 . S
C1917 C1923 1.504 . S
C1918 C1917 1.359 . S
C1918 C1919 1.366 . S
C1918 H1952 0.929 . S
C1919 C1918 1.366 . S
C1919 C1920 1.415 . S
C1919 H1953 0.932 . S
C1920 C1919 1.415 . S
C1920 C1921 1.366 . S
C1920 H1954 0.931 . S
C1921 N1916 1.325 . S
C1921 C1920 1.366 . S
C1921 C1925 1.516 . S
N1922 Co1880 1.974 . S
N1922 C1923 1.309 . S
N1922 C1928 1.423 . S
C1923 C1917 1.504 . S
C1923 N1922 1.309 . S
C1923 O1924 1.258 . S
O1924 C1923 1.258 . S
C1925 N1898 1.316 . S
C1925 C1921 1.516 . S
C1925 O1938 1.263 1_565 S
O1926 Cd1869 2.350 . S
O1926 C1942 1.270 . S
O1927 Cd1869 2.277 . S
O1927 C1942 1.248 . S
C1928 N1922 1.423 . S
C1928 C1929 1.370 . S
C1928 C1933 1.403 . S
C1929 C1928 1.370 . S
C1929 C1930 1.389 . S
C1929 H1955 0.931 . S
C1930 C1929 1.389 . S
C1930 C1931 1.389 . S
C1931 C1930 1.389 . S
C1931 C1932 1.379 . S
C1931 H1956 0.929 . S
C1932 C1931 1.379 . S
C1932 C1933 1.405 . S
C1933 C1928 1.403 . S
C1933 C1932 1.405 . S
C1933 H1957 0.932 . S
O1934 Cd1869 2.173 . S
O1934 C1870 1.277 . S
O1935 C1870 1.230 . S
O1935 Cd1873 2.250 . S
O1936 Cd1869 2.263 . S
O1936 C1889 1.258 . S
O1937 Cd1873 2.308 . S
O1937 C1889 1.274 . S
O1938 Cd1869 2.366 . S
O1938 C1925 1.263 1_545 S
C1939 O1940 1.235 . S
C1939 O1941 1.270 . S
O1940 Cd1873 2.352 . S
O1940 C1939 1.235 . S
O1941 Cd1869 2.329 . S
O1941 C1939 1.270 . S
C1942 O1926 1.270 . S
C1942 O1927 1.248 . S
H1943 C1875 0.930 . S
H1944 C1878 0.930 . S
H1945 C1879 0.931 . S
H1946 C1884 0.929 . S
H1947 C1886 0.930 . S
H1948 C1888 0.930 . S
H1949 C1891 0.929 . S
H1950 C1892 0.932 . S
H1951 C1894 0.930 . S
H1952 C1918 0.929 . S
H1953 C1919 0.932 . S
H1954 C1920 0.931 . S
H1955 C1929 0.931 . S
H1956 C1931 0.929 . S
H1957 C1933 0.932 . S
Cd1958 O2015 2.350 . S
Cd1958 O2016 2.277 . S
Cd1958 O2023 2.173 . S
Cd1958 O2025 2.263 . S
Cd1958 O2027 2.366 . S
Cd1958 O2030 2.329 . S
C1959 O2023 1.277 . S
C1959 O2024 1.230 . S
C1960 O1961 1.246 . S
C1960 C1963 1.481 . S
C1960 N1985 1.329 . S
O1961 C1960 1.246 . S
Cd1962 O2024 2.250 . S
Cd1962 O2026 2.308 . S
Cd1962 O2029 2.352 . S
C1963 C1960 1.481 . S
C1963 N1966 1.327 . S
C1963 C1967 1.407 . S
C1964 C1965 1.346 . S
C1964 C1968 1.390 . S
C1964 H2032 0.930 . S
C1965 C1964 1.346 . S
C1965 N1966 1.342 . S
C1965 C1970 1.516 . S
N1966 C1963 1.327 . S
N1966 C1965 1.342 . S
N1966 Co1969 1.864 . S
C1967 C1963 1.407 . S
C1967 C1968 1.364 . S
C1967 H2033 0.930 . S
C1968 C1964 1.390 . S
C1968 C1967 1.364 . S
C1968 H2034 0.931 . S
Co1969 N1966 1.864 . S
Co1969 N1985 1.955 . S
Co1969 N1986 1.958 . S
Co1969 N1987 1.953 . S
Co1969 N2005 1.869 . S
Co1969 N2011 1.974 . S
C1970 C1965 1.516 . S
C1970 O1971 1.238 . S
C1970 N1986 1.324 . S
O1971 C1970 1.238 . S
C1972 C1973 1.394 . S
C1972 C1977 1.395 . S
C1972 N1986 1.427 . S
C1973 C1972 1.394 . S
C1973 C1974 1.380 . S
C1973 H2035 0.929 . S
C1974 C1973 1.380 . S
C1974 C1975 1.384 . S
C1974 C1978 1.495 . S
C1975 C1974 1.384 . S
C1975 C1976 1.382 . S
C1975 H2036 0.930 . S
C1976 C1975 1.382 . S
C1976 C1977 1.398 . S
C1977 C1972 1.395 . S
C1977 C1976 1.398 . S
C1977 H2037 0.930 . S
C1978 C1974 1.495 . S
C1978 O2025 1.258 . S
C1978 O2026 1.274 . S
C1979 C1980 1.385 . S
C1979 C1981 1.381 . S
C1979 N1985 1.432 . S
C1980 C1979 1.385 . S
C1980 C1984 1.388 . S
C1980 H2038 0.929 . S
C1981 C1979 1.381 . S
C1981 C1982 1.371 . S
C1981 H2039 0.932 . S
C1982 C1981 1.371 . S
C1982 C1983 1.400 . S
C1983 C1982 1.400 . S
C1983 C1984 1.351 . S
C1983 H2040 0.930 1_565 S
C1984 C1980 1.388 . S
C1984 C1983 1.351 . S
N1985 C1960 1.329 . S
N1985 Co1969 1.955 . S
N1985 C1979 1.432 . S
N1986 Co1969 1.958 . S
N1986 C1970 1.324 . S
N1986 C1972 1.427 . S
N1987 Co1969 1.953 . S
N1987 C1988 1.436 . S
N1987 C2014 1.316 . S
C1988 N1987 1.436 . S
C1988 C1989 1.421 . S
C1988 C1990 1.360 . S
C1989 C1988 1.421 . S
C1989 C1991 1.379 . S
C1989 H1992 0.929 . S
C1990 C1988 1.360 . S
C1990 C1994 1.393 . S
C1990 H1996 0.931 . S
C1991 C1989 1.379 . S
C1991 C1993 1.417 . S
C1991 C1995 1.505 1_556 S
H1992 C1989 0.929 . S
C1993 C1991 1.417 . S
C1993 C1994 1.352 . S
C1993 H1997 1.008 . S
C1994 C1990 1.393 . S
C1994 C1993 1.352 . S
C1994 C1998 1.482 . S
C1995 C1991 1.505 1_554 S
C1995 O1999 1.259 . S
C1995 O2000 1.229 . S
H1996 C1990 0.931 . S
H1997 C1993 1.008 . S
C1998 C1994 1.482 . S
C1998 O2001 1.207 . S
C1998 O2002 1.289 . S
O1999 C1995 1.259 . S
O1999 H2003 0.822 . S
O2000 C1995 1.229 . S
O2001 C1998 1.207 . S
O2002 C1998 1.289 . S
O2002 H2004 0.819 . S
H2003 O1999 0.822 . S
H2004 O2002 0.819 . S
N2005 Co1969 1.869 . S
N2005 C2006 1.330 . S
N2005 C2010 1.325 . S
C2006 N2005 1.330 . S
C2006 C2007 1.359 . S
C2006 C2012 1.504 . S
C2007 C2006 1.359 . S
C2007 C2008 1.366 . S
C2007 H2041 0.929 . S
C2008 C2007 1.366 . S
C2008 C2009 1.415 . S
C2008 H2042 0.932 . S
C2009 C2008 1.415 . S
C2009 C2010 1.366 . S
C2009 H2043 0.931 . S
C2010 N2005 1.325 . S
C2010 C2009 1.366 . S
C2010 C2014 1.516 . S
N2011 Co1969 1.974 . S
N2011 C2012 1.309 . S
N2011 C2017 1.423 . S
C2012 C2006 1.504 . S
C2012 N2011 1.309 . S
C2012 O2013 1.258 . S
O2013 C2012 1.258 . S
C2014 N1987 1.316 . S
C2014 C2010 1.516 . S
C2014 O2027 1.263 . S
O2015 Cd1958 2.350 . S
O2015 C2031 1.270 . S
O2016 Cd1958 2.277 . S
O2016 C2031 1.248 . S
C2017 N2011 1.423 . S
C2017 C2018 1.370 . S
C2017 C2022 1.403 . S
C2018 C2017 1.370 . S
C2018 C2019 1.389 . S
C2018 H2044 0.931 . S
C2019 C2018 1.389 . S
C2019 C2020 1.389 . S
C2020 C2019 1.389 . S
C2020 C2021 1.379 . S
C2020 H2045 0.929 . S
C2021 C2020 1.379 . S
C2021 C2022 1.405 . S
C2022 C2017 1.403 . S
C2022 C2021 1.405 . S
C2022 H2046 0.932 . S
O2023 Cd1958 2.173 . S
O2023 C1959 1.277 . S
O2024 C1959 1.230 . S
O2024 Cd1962 2.250 . S
O2025 Cd1958 2.263 . S
O2025 C1978 1.258 . S
O2026 Cd1962 2.308 . S
O2026 C1978 1.274 . S
O2027 Cd1958 2.366 . S
O2027 C2014 1.263 . S
C2028 O2029 1.235 . S
C2028 O2030 1.270 . S
O2029 Cd1962 2.352 . S
O2029 C2028 1.235 . S
O2030 Cd1958 2.329 . S
O2030 C2028 1.270 . S
C2031 O2015 1.270 . S
C2031 O2016 1.248 . S
H2032 C1964 0.930 . S
H2033 C1967 0.930 . S
H2034 C1968 0.931 . S
H2035 C1973 0.929 . S
H2036 C1975 0.930 . S
H2037 C1977 0.930 . S
H2038 C1980 0.929 . S
H2039 C1981 0.932 . S
H2040 C1983 0.930 1_545 S
H2041 C2007 0.929 . S
H2042 C2008 0.932 . S
H2043 C2009 0.931 . S
H2044 C2018 0.931 . S
H2045 C2020 0.929 . S
H2046 C2022 0.932 . S
Cd2047 O2104 2.350 . S
Cd2047 O2105 2.277 . S
Cd2047 O2112 2.173 . S
Cd2047 O2114 2.263 . S
Cd2047 O2116 2.366 . S
Cd2047 O2119 2.329 . S
C2048 O2112 1.277 . S
C2048 O2113 1.230 . S
C2049 O2050 1.246 . S
C2049 C2052 1.481 . S
C2049 N2074 1.329 . S
O2050 C2049 1.246 . S
Cd2051 O2113 2.250 . S
Cd2051 O2115 2.308 . S
Cd2051 O2118 2.352 . S
C2052 C2049 1.481 . S
C2052 N2055 1.327 . S
C2052 C2056 1.407 . S
C2053 C2054 1.346 . S
C2053 C2057 1.390 . S
C2053 H2121 0.930 . S
C2054 C2053 1.346 . S
C2054 N2055 1.342 . S
C2054 C2059 1.516 . S
N2055 C2052 1.327 . S
N2055 C2054 1.342 . S
N2055 Co2058 1.864 . S
C2056 C2052 1.407 . S
C2056 C2057 1.364 . S
C2056 H2122 0.930 . S
C2057 C2053 1.390 . S
C2057 C2056 1.364 . S
C2057 H2123 0.931 . S
Co2058 N2055 1.864 . S
Co2058 N2074 1.955 . S
Co2058 N2075 1.958 . S
Co2058 N2076 1.953 . S
Co2058 N2094 1.869 . S
Co2058 N2100 1.974 . S
C2059 C2054 1.516 . S
C2059 O2060 1.238 . S
C2059 N2075 1.324 . S
O2060 C2059 1.238 . S
C2061 C2062 1.394 . S
C2061 C2066 1.395 . S
C2061 N2075 1.427 . S
C2062 C2061 1.394 . S
C2062 C2063 1.380 . S
C2062 H2124 0.929 . S
C2063 C2062 1.380 . S
C2063 C2064 1.384 . S
C2063 C2067 1.495 . S
C2064 C2063 1.384 . S
C2064 C2065 1.382 . S
C2064 H2125 0.930 . S
C2065 C2064 1.382 . S
C2065 C2066 1.398 . S
C2066 C2061 1.395 . S
C2066 C2065 1.398 . S
C2066 H2126 0.930 . S
C2067 C2063 1.495 . S
C2067 O2114 1.258 . S
C2067 O2115 1.274 . S
C2068 C2069 1.385 . S
C2068 C2070 1.381 . S
C2068 N2074 1.432 . S
C2069 C2068 1.385 . S
C2069 C2073 1.388 . S
C2069 H2127 0.929 . S
C2070 C2068 1.381 . S
C2070 C2071 1.371 . S
C2070 H2128 0.932 . S
C2071 C2070 1.371 . S
C2071 C2072 1.400 . S
C2072 C2071 1.400 . S
C2072 C2073 1.351 . S
C2072 H2129 0.930 . S
C2073 C2069 1.388 . S
C2073 C2072 1.351 . S
N2074 C2049 1.329 . S
N2074 Co2058 1.955 . S
N2074 C2068 1.432 . S
N2075 Co2058 1.958 . S
N2075 C2059 1.324 . S
N2075 C2061 1.427 . S
N2076 Co2058 1.953 . S
N2076 C2077 1.436 . S
N2076 C2103 1.316 . S
C2077 N2076 1.436 . S
C2077 C2078 1.421 . S
C2077 C2079 1.360 . S
C2078 C2077 1.421 . S
C2078 C2080 1.379 . S
C2078 H2081 0.929 . S
C2079 C2077 1.360 . S
C2079 C2083 1.393 . S
C2079 H2085 0.931 . S
C2080 C2078 1.379 . S
C2080 C2082 1.417 . S
C2080 C2084 1.505 1_556 S
H2081 C2078 0.929 . S
C2082 C2080 1.417 . S
C2082 C2083 1.352 . S
C2082 H2086 1.008 . S
C2083 C2079 1.393 . S
C2083 C2082 1.352 . S
C2083 C2087 1.482 . S
C2084 C2080 1.505 1_554 S
C2084 O2088 1.259 . S
C2084 O2089 1.229 . S
H2085 C2079 0.931 . S
H2086 C2082 1.008 . S
C2087 C2083 1.482 . S
C2087 O2090 1.207 . S
C2087 O2091 1.289 . S
O2088 C2084 1.259 . S
O2088 H2092 0.822 . S
O2089 C2084 1.229 . S
O2090 C2087 1.207 . S
O2091 C2087 1.289 . S
O2091 H2093 0.819 . S
H2092 O2088 0.822 . S
H2093 O2091 0.819 . S
N2094 Co2058 1.869 . S
N2094 C2095 1.330 . S
N2094 C2099 1.325 . S
C2095 N2094 1.330 . S
C2095 C2096 1.359 . S
C2095 C2101 1.504 . S
C2096 C2095 1.359 . S
C2096 C2097 1.366 . S
C2096 H2130 0.929 . S
C2097 C2096 1.366 . S
C2097 C2098 1.415 . S
C2097 H2131 0.932 . S
C2098 C2097 1.415 . S
C2098 C2099 1.366 . S
C2098 H2132 0.931 . S
C2099 N2094 1.325 . S
C2099 C2098 1.366 . S
C2099 C2103 1.516 . S
N2100 Co2058 1.974 . S
N2100 C2101 1.309 . S
N2100 C2106 1.423 . S
C2101 C2095 1.504 . S
C2101 N2100 1.309 . S
C2101 O2102 1.258 . S
O2102 C2101 1.258 . S
C2103 N2076 1.316 . S
C2103 C2099 1.516 . S
C2103 O2116 1.263 . S
O2104 Cd2047 2.350 . S
O2104 C2120 1.270 . S
O2105 Cd2047 2.277 . S
O2105 C2120 1.248 . S
C2106 N2100 1.423 . S
C2106 C2107 1.370 . S
C2106 C2111 1.403 . S
C2107 C2106 1.370 . S
C2107 C2108 1.389 . S
C2107 H2133 0.931 . S
C2108 C2107 1.389 . S
C2108 C2109 1.389 . S
C2109 C2108 1.389 . S
C2109 C2110 1.379 . S
C2109 H2134 0.929 . S
C2110 C2109 1.379 . S
C2110 C2111 1.405 . S
C2111 C2106 1.403 . S
C2111 C2110 1.405 . S
C2111 H2135 0.932 . S
O2112 Cd2047 2.173 . S
O2112 C2048 1.277 . S
O2113 C2048 1.230 . S
O2113 Cd2051 2.250 . S
O2114 Cd2047 2.263 . S
O2114 C2067 1.258 . S
O2115 Cd2051 2.308 . S
O2115 C2067 1.274 . S
O2116 Cd2047 2.366 . S
O2116 C2103 1.263 . S
C2117 O2118 1.235 . S
C2117 O2119 1.270 . S
O2118 Cd2051 2.352 . S
O2118 C2117 1.235 . S
O2119 Cd2047 2.329 . S
O2119 C2117 1.270 . S
C2120 O2104 1.270 . S
C2120 O2105 1.248 . S
H2121 C2053 0.930 . S
H2122 C2056 0.930 . S
H2123 C2057 0.931 . S
H2124 C2062 0.929 . S
H2125 C2064 0.930 . S
H2126 C2066 0.930 . S
H2127 C2069 0.929 . S
H2128 C2070 0.932 . S
H2129 C2072 0.930 . S
H2130 C2096 0.929 . S
H2131 C2097 0.932 . S
H2132 C2098 0.931 . S
H2133 C2107 0.931 . S
H2134 C2109 0.929 . S
H2135 C2111 0.932 . S
Cd2136 O2193 2.350 . S
Cd2136 O2194 2.277 . S
Cd2136 O2201 2.173 . S
Cd2136 O2203 2.263 . S
Cd2136 O2205 2.366 . S
Cd2136 O2208 2.329 . S
C2137 O2201 1.277 . S
C2137 O2202 1.230 . S
C2138 O2139 1.246 . S
C2138 C2141 1.481 . S
C2138 N2163 1.329 . S
O2139 C2138 1.246 . S
Cd2140 O2202 2.250 . S
Cd2140 O2204 2.308 . S
Cd2140 O2207 2.352 . S
C2141 C2138 1.481 . S
C2141 N2144 1.327 . S
C2141 C2145 1.407 . S
C2142 C2143 1.346 . S
C2142 C2146 1.390 . S
C2142 H2210 0.930 . S
C2143 C2142 1.346 . S
C2143 N2144 1.342 . S
C2143 C2148 1.516 . S
N2144 C2141 1.327 . S
N2144 C2143 1.342 . S
N2144 Co2147 1.864 . S
C2145 C2141 1.407 . S
C2145 C2146 1.364 . S
C2145 H2211 0.930 . S
C2146 C2142 1.390 . S
C2146 C2145 1.364 . S
C2146 H2212 0.931 . S
Co2147 N2144 1.864 . S
Co2147 N2163 1.955 . S
Co2147 N2164 1.958 . S
Co2147 N2165 1.953 . S
Co2147 N2183 1.869 . S
Co2147 N2189 1.974 . S
C2148 C2143 1.516 . S
C2148 O2149 1.238 . S
C2148 N2164 1.324 . S
O2149 C2148 1.238 . S
C2150 C2151 1.394 . S
C2150 C2155 1.395 . S
C2150 N2164 1.427 . S
C2151 C2150 1.394 . S
C2151 C2152 1.380 . S
C2151 H2213 0.929 . S
C2152 C2151 1.380 . S
C2152 C2153 1.384 . S
C2152 C2156 1.495 . S
C2153 C2152 1.384 . S
C2153 C2154 1.382 . S
C2153 H2214 0.930 . S
C2154 C2153 1.382 . S
C2154 C2155 1.398 . S
C2155 C2150 1.395 . S
C2155 C2154 1.398 . S
C2155 H2215 0.930 . S
C2156 C2152 1.495 . S
C2156 O2203 1.258 . S
C2156 O2204 1.274 . S
C2157 C2158 1.385 . S
C2157 C2159 1.381 . S
C2157 N2163 1.432 . S
C2158 C2157 1.385 . S
C2158 C2162 1.388 . S
C2158 H2216 0.929 . S
C2159 C2157 1.381 . S
C2159 C2160 1.371 . S
C2159 H2217 0.932 . S
C2160 C2159 1.371 . S
C2160 C2161 1.400 . S
C2161 C2160 1.400 . S
C2161 C2162 1.351 . S
C2161 H2218 0.930 . S
C2162 C2158 1.388 . S
C2162 C2161 1.351 . S
N2163 C2138 1.329 . S
N2163 Co2147 1.955 . S
N2163 C2157 1.432 . S
N2164 Co2147 1.958 . S
N2164 C2148 1.324 . S
N2164 C2150 1.427 . S
N2165 Co2147 1.953 . S
N2165 C2166 1.436 . S
N2165 C2192 1.316 . S
C2166 N2165 1.436 . S
C2166 C2167 1.421 . S
C2166 C2168 1.360 . S
C2167 C2166 1.421 . S
C2167 C2169 1.379 . S
C2167 H2170 0.929 . S
C2168 C2166 1.360 . S
C2168 C2172 1.393 . S
C2168 H2174 0.931 . S
C2169 C2167 1.379 . S
C2169 C2171 1.417 . S
C2169 C2173 1.505 . S
H2170 C2167 0.929 . S
C2171 C2169 1.417 . S
C2171 C2172 1.352 . S
C2171 H2175 0.929 . S
C2172 C2168 1.393 . S
C2172 C2171 1.352 . S
C2172 C2176 1.482 . S
C2173 C2169 1.505 . S
C2173 O2177 1.259 . S
C2173 O2178 1.229 . S
H2174 C2168 0.931 . S
H2175 C2171 0.929 . S
C2176 C2172 1.482 . S
C2176 O2179 1.207 . S
C2176 O2180 1.289 . S
O2177 C2173 1.259 . S
O2177 H2181 0.822 . S
O2178 C2173 1.229 . S
O2179 C2176 1.207 . S
O2180 C2176 1.289 . S
O2180 H2182 0.819 . S
H2181 O2177 0.822 . S
H2182 O2180 0.819 . S
N2183 Co2147 1.869 . S
N2183 C2184 1.330 . S
N2183 C2188 1.325 . S
C2184 N2183 1.330 . S
C2184 C2185 1.359 . S
C2184 C2190 1.504 . S
C2185 C2184 1.359 . S
C2185 C2186 1.366 . S
C2185 H2219 0.929 . S
C2186 C2185 1.366 . S
C2186 C2187 1.415 . S
C2186 H2220 0.932 . S
C2187 C2186 1.415 . S
C2187 C2188 1.366 . S
C2187 H2221 0.931 . S
C2188 N2183 1.325 . S
C2188 C2187 1.366 . S
C2188 C2192 1.516 . S
N2189 Co2147 1.974 . S
N2189 C2190 1.309 . S
N2189 C2195 1.423 . S
C2190 C2184 1.504 . S
C2190 N2189 1.309 . S
C2190 O2191 1.258 . S
O2191 C2190 1.258 . S
C2192 N2165 1.316 . S
C2192 C2188 1.516 . S
C2192 O2205 1.263 . S
O2193 Cd2136 2.350 . S
O2193 C2209 1.270 . S
O2194 Cd2136 2.277 . S
O2194 C2209 1.248 . S
C2195 N2189 1.423 . S
C2195 C2196 1.370 . S
C2195 C2200 1.403 . S
C2196 C2195 1.370 . S
C2196 C2197 1.389 . S
C2196 H2222 0.931 . S
C2197 C2196 1.389 . S
C2197 C2198 1.389 . S
C2198 C2197 1.389 . S
C2198 C2199 1.379 1_655 S
C2198 H2223 0.929 1_655 S
C2199 C2198 1.379 1_455 S
C2199 C2200 1.405 1_455 S
C2200 C2195 1.403 . S
C2200 C2199 1.405 1_655 S
C2200 H2224 0.932 1_655 S
O2201 Cd2136 2.173 . S
O2201 C2137 1.277 . S
O2202 C2137 1.230 . S
O2202 Cd2140 2.250 . S
O2203 Cd2136 2.263 . S
O2203 C2156 1.258 . S
O2204 Cd2140 2.308 . S
O2204 C2156 1.274 . S
O2205 Cd2136 2.366 . S
O2205 C2192 1.263 . S
C2206 O2207 1.235 . S
C2206 O2208 1.270 . S
O2207 Cd2140 2.352 . S
O2207 C2206 1.235 . S
O2208 Cd2136 2.329 . S
O2208 C2206 1.270 . S
C2209 O2193 1.270 . S
C2209 O2194 1.248 . S
H2210 C2142 0.930 . S
H2211 C2145 0.930 . S
H2212 C2146 0.931 . S
H2213 C2151 0.929 . S
H2214 C2153 0.930 . S
H2215 C2155 0.930 . S
H2216 C2158 0.929 . S
H2217 C2159 0.932 . S
H2218 C2161 0.930 . S
H2219 C2185 0.929 . S
H2220 C2186 0.932 . S
H2221 C2187 0.931 . S
H2222 C2196 0.931 . S
H2223 C2198 0.929 1_455 S
H2224 C2200 0.932 1_455 S
Cd2225 O2282 2.350 . S
Cd2225 O2283 2.277 . S
Cd2225 O2290 2.173 . S
Cd2225 O2292 2.263 . S
Cd2225 O2294 2.366 . S
Cd2225 O2297 2.329 . S
C2226 O2290 1.277 . S
C2226 O2291 1.230 . S
C2227 O2228 1.246 . S
C2227 C2230 1.481 . S
C2227 N2252 1.329 . S
O2228 C2227 1.246 . S
Cd2229 O2291 2.250 . S
Cd2229 O2293 2.308 . S
Cd2229 O2296 2.352 . S
C2230 C2227 1.481 . S
C2230 N2233 1.327 . S
C2230 C2234 1.407 . S
C2231 C2232 1.346 . S
C2231 C2235 1.390 . S
C2231 H2299 0.930 . S
C2232 C2231 1.346 . S
C2232 N2233 1.342 . S
C2232 C2237 1.516 . S
N2233 C2230 1.327 . S
N2233 C2232 1.342 . S
N2233 Co2236 1.864 . S
C2234 C2230 1.407 . S
C2234 C2235 1.364 . S
C2234 H2300 0.930 . S
C2235 C2231 1.390 . S
C2235 C2234 1.364 . S
C2235 H2301 0.931 . S
Co2236 N2233 1.864 . S
Co2236 N2252 1.955 . S
Co2236 N2253 1.958 . S
Co2236 N2254 1.953 . S
Co2236 N2272 1.869 . S
Co2236 N2278 1.974 . S
C2237 C2232 1.516 . S
C2237 O2238 1.238 . S
C2237 N2253 1.324 . S
O2238 C2237 1.238 . S
C2239 C2240 1.394 . S
C2239 C2244 1.395 . S
C2239 N2253 1.427 . S
C2240 C2239 1.394 . S
C2240 C2241 1.380 . S
C2240 H2302 0.929 . S
C2241 C2240 1.380 . S
C2241 C2242 1.384 . S
C2241 C2245 1.495 . S
C2242 C2241 1.384 . S
C2242 C2243 1.382 . S
C2242 H2303 0.930 . S
C2243 C2242 1.382 . S
C2243 C2244 1.398 . S
C2244 C2239 1.395 . S
C2244 C2243 1.398 . S
C2244 H2304 0.930 . S
C2245 C2241 1.495 . S
C2245 O2292 1.258 . S
C2245 O2293 1.274 . S
C2246 C2247 1.385 . S
C2246 C2248 1.381 . S
C2246 N2252 1.432 . S
C2247 C2246 1.385 . S
C2247 C2251 1.388 . S
C2247 H2305 0.929 . S
C2248 C2246 1.381 . S
C2248 C2249 1.371 . S
C2248 H2306 0.932 . S
C2249 C2248 1.371 . S
C2249 C2250 1.400 . S
C2250 C2249 1.400 . S
C2250 C2251 1.351 . S
C2250 H2307 0.930 . S
C2251 C2247 1.388 . S
C2251 C2250 1.351 . S
N2252 C2227 1.329 . S
N2252 Co2236 1.955 . S
N2252 C2246 1.432 . S
N2253 Co2236 1.958 . S
N2253 C2237 1.324 . S
N2253 C2239 1.427 . S
N2254 Co2236 1.953 . S
N2254 C2255 1.436 . S
N2254 C2281 1.316 . S
C2255 N2254 1.436 . S
C2255 C2256 1.421 . S
C2255 C2257 1.360 . S
C2256 C2255 1.421 . S
C2256 C2258 1.379 . S
C2256 H2259 0.929 . S
C2257 C2255 1.360 . S
C2257 C2261 1.393 . S
C2257 H2263 0.931 . S
C2258 C2256 1.379 . S
C2258 C2260 1.417 . S
C2258 C2262 1.505 . S
H2259 C2256 0.929 . S
C2260 C2258 1.417 . S
C2260 C2261 1.352 . S
C2260 H2264 0.929 . S
C2261 C2257 1.393 . S
C2261 C2260 1.352 . S
C2261 C2265 1.482 . S
C2262 C2258 1.505 . S
C2262 O2266 1.259 . S
C2262 O2267 1.229 . S
H2263 C2257 0.931 . S
H2264 C2260 0.929 . S
C2265 C2261 1.482 . S
C2265 O2268 1.207 . S
C2265 O2269 1.289 . S
O2266 C2262 1.259 . S
O2266 H2270 0.822 . S
O2267 C2262 1.229 . S
O2268 C2265 1.207 . S
O2269 C2265 1.289 . S
O2269 H2271 0.819 1_545 S
H2270 O2266 0.822 . S
H2271 O2269 0.819 1_565 S
N2272 Co2236 1.869 . S
N2272 C2273 1.330 . S
N2272 C2277 1.325 . S
C2273 N2272 1.330 . S
C2273 C2274 1.359 . S
C2273 C2279 1.504 . S
C2274 C2273 1.359 . S
C2274 C2275 1.366 . S
C2274 H2308 0.929 . S
C2275 C2274 1.366 . S
C2275 C2276 1.415 . S
C2275 H2309 0.932 . S
C2276 C2275 1.415 . S
C2276 C2277 1.366 . S
C2276 H2310 0.931 . S
C2277 N2272 1.325 . S
C2277 C2276 1.366 . S
C2277 C2281 1.516 . S
N2278 Co2236 1.974 . S
N2278 C2279 1.309 . S
N2278 C2284 1.423 . S
C2279 C2273 1.504 . S
C2279 N2278 1.309 . S
C2279 O2280 1.258 . S
O2280 C2279 1.258 . S
C2281 N2254 1.316 . S
C2281 C2277 1.516 . S
C2281 O2294 1.263 . S
O2282 Cd2225 2.350 . S
O2282 C2298 1.270 . S
O2283 Cd2225 2.277 . S
O2283 C2298 1.248 . S
C2284 N2278 1.423 . S
C2284 C2285 1.370 . S
C2284 C2289 1.403 . S
C2285 C2284 1.370 . S
C2285 C2286 1.389 . S
C2285 H2311 0.931 . S
C2286 C2285 1.389 . S
C2286 C2287 1.389 . S
C2287 C2286 1.389 . S
C2287 C2288 1.379 . S
C2287 H2312 0.929 . S
C2288 C2287 1.379 . S
C2288 C2289 1.405 . S
C2289 C2284 1.403 . S
C2289 C2288 1.405 . S
C2289 H2313 0.932 . S
O2290 Cd2225 2.173 . S
O2290 C2226 1.277 . S
O2291 C2226 1.230 . S
O2291 Cd2229 2.250 . S
O2292 Cd2225 2.263 . S
O2292 C2245 1.258 . S
O2293 Cd2229 2.308 . S
O2293 C2245 1.274 . S
O2294 Cd2225 2.366 . S
O2294 C2281 1.263 . S
C2295 O2296 1.235 . S
C2295 O2297 1.270 . S
O2296 Cd2229 2.352 . S
O2296 C2295 1.235 . S
O2297 Cd2225 2.329 . S
O2297 C2295 1.270 . S
C2298 O2282 1.270 . S
C2298 O2283 1.248 . S
H2299 C2231 0.930 . S
H2300 C2234 0.930 . S
H2301 C2235 0.931 . S
H2302 C2240 0.929 . S
H2303 C2242 0.930 . S
H2304 C2244 0.930 . S
H2305 C2247 0.929 . S
H2306 C2248 0.932 . S
H2307 C2250 0.930 . S
H2308 C2274 0.929 . S
H2309 C2275 0.932 . S
H2310 C2276 0.931 . S
H2311 C2285 0.931 . S
H2312 C2287 0.929 . S
H2313 C2289 0.932 . S
Cd2314 O2371 2.350 . S
Cd2314 O2372 2.277 . S
Cd2314 O2379 2.173 . S
Cd2314 O2381 2.263 . S
Cd2314 O2383 2.366 . S
Cd2314 O2386 2.329 . S
C2315 O2379 1.277 . S
C2315 O2380 1.230 . S
C2316 O2317 1.246 . S
C2316 C2319 1.481 1_655 S
C2316 N2341 1.329 . S
O2317 C2316 1.246 . S
Cd2318 O2380 2.250 . S
Cd2318 O2382 2.308 . S
Cd2318 O2385 2.352 . S
C2319 C2316 1.481 1_455 S
C2319 N2322 1.327 . S
C2319 C2323 1.407 . S
C2320 C2321 1.346 . S
C2320 C2324 1.390 . S
C2320 H2388 0.930 . S
C2321 C2320 1.346 . S
C2321 N2322 1.342 . S
C2321 C2326 1.516 . S
N2322 C2319 1.327 . S
N2322 C2321 1.342 . S
N2322 Co2325 1.864 1_455 S
C2323 C2319 1.407 . S
C2323 C2324 1.364 . S
C2323 H2389 0.930 . S
C2324 C2320 1.390 . S
C2324 C2323 1.364 . S
C2324 H2390 0.931 . S
Co2325 N2322 1.864 1_655 S
Co2325 N2341 1.955 . S
Co2325 N2342 1.958 1_655 S
Co2325 N2343 1.953 . S
Co2325 N2361 1.869 . S
Co2325 N2367 1.974 . S
C2326 C2321 1.516 . S
C2326 O2327 1.238 . S
C2326 N2342 1.324 . S
O2327 C2326 1.238 . S
C2328 C2329 1.394 . S
C2328 C2333 1.395 . S
C2328 N2342 1.427 . S
C2329 C2328 1.394 . S
C2329 C2330 1.380 1_455 S
C2329 H2391 0.929 1_455 S
C2330 C2329 1.380 1_655 S
C2330 C2331 1.384 . S
C2330 C2334 1.495 . S
C2331 C2330 1.384 . S
C2331 C2332 1.382 1_655 S
C2331 H2392 0.930 . S
C2332 C2331 1.382 1_455 S
C2332 C2333 1.398 . S
C2333 C2328 1.395 . S
C2333 C2332 1.398 . S
C2333 H2393 0.930 . S
C2334 C2330 1.495 . S
C2334 O2381 1.258 . S
C2334 O2382 1.274 . S
C2335 C2336 1.385 . S
C2335 C2337 1.381 . S
C2335 N2341 1.432 . S
C2336 C2335 1.385 . S
C2336 C2340 1.388 . S
C2336 H2394 0.929 . S
C2337 C2335 1.381 . S
C2337 C2338 1.371 . S
C2337 H2395 0.932 . S
C2338 C2337 1.371 . S
C2338 C2339 1.400 . S
C2339 C2338 1.400 . S
C2339 C2340 1.351 . S
C2339 H2396 0.930 . S
C2340 C2336 1.388 . S
C2340 C2339 1.351 . S
N2341 C2316 1.329 . S
N2341 Co2325 1.955 . S
N2341 C2335 1.432 . S
N2342 Co2325 1.958 1_455 S
N2342 C2326 1.324 . S
N2342 C2328 1.427 . S
N2343 Co2325 1.953 . S
N2343 C2344 1.436 . S
N2343 C2370 1.316 . S
C2344 N2343 1.436 . S
C2344 C2345 1.421 . S
C2344 C2346 1.360 1_655 S
C2345 C2344 1.421 . S
C2345 C2347 1.379 1_655 S
C2345 H2348 0.929 . S
C2346 C2344 1.360 1_455 S
C2346 C2350 1.393 . S
C2346 H2352 0.931 . S
C2347 C2345 1.379 1_455 S
C2347 C2349 1.417 . S
C2347 C2351 1.505 1_455 S
H2348 C2345 0.929 . S
C2349 C2347 1.417 . S
C2349 C2350 1.352 . S
C2349 H2353 0.929 . S
C2350 C2346 1.393 . S
C2350 C2349 1.352 . S
C2350 C2354 1.482 . S
C2351 C2347 1.505 1_655 S
C2351 O2355 1.259 1_655 S
C2351 O2356 1.229 . S
H2352 C2346 0.931 . S
H2353 C2349 0.929 . S
C2354 C2350 1.482 . S
C2354 O2357 1.207 . S
C2354 O2358 1.289 . S
O2355 C2351 1.259 1_455 S
O2355 H2359 0.822 . S
O2356 C2351 1.229 . S
O2357 C2354 1.207 . S
O2358 C2354 1.289 . S
O2358 H2360 0.819 . S
H2359 O2355 0.822 . S
H2360 O2358 0.819 . S
N2361 Co2325 1.869 . S
N2361 C2362 1.330 . S
N2361 C2366 1.325 . S
C2362 N2361 1.330 . S
C2362 C2363 1.359 . S
C2362 C2368 1.504 . S
C2363 C2362 1.359 . S
C2363 C2364 1.366 . S
C2363 H2397 0.929 . S
C2364 C2363 1.366 . S
C2364 C2365 1.415 . S
C2364 H2398 0.932 . S
C2365 C2364 1.415 . S
C2365 C2366 1.366 . S
C2365 H2399 0.931 . S
C2366 N2361 1.325 . S
C2366 C2365 1.366 . S
C2366 C2370 1.516 . S
N2367 Co2325 1.974 . S
N2367 C2368 1.309 . S
N2367 C2373 1.423 . S
C2368 C2362 1.504 . S
C2368 N2367 1.309 . S
C2368 O2369 1.258 . S
O2369 C2368 1.258 . S
C2370 N2343 1.316 . S
C2370 C2366 1.516 . S
C2370 O2383 1.263 . S
O2371 Cd2314 2.350 . S
O2371 C2387 1.270 . S
O2372 Cd2314 2.277 . S
O2372 C2387 1.248 . S
C2373 N2367 1.423 . S
C2373 C2374 1.370 1_655 S
C2373 C2378 1.403 . S
C2374 C2373 1.370 1_455 S
C2374 C2375 1.389 . S
C2374 H2400 0.931 . S
C2375 C2374 1.389 . S
C2375 C2376 1.389 . S
C2376 C2375 1.389 . S
C2376 C2377 1.380 1_455 S
C2376 H2401 0.929 . S
C2377 C2376 1.380 1_655 S
C2377 C2378 1.404 . S
C2378 C2373 1.403 . S
C2378 C2377 1.404 . S
C2378 H2402 0.932 . S
O2379 Cd2314 2.173 . S
O2379 C2315 1.277 . S
O2380 C2315 1.230 . S
O2380 Cd2318 2.250 . S
O2381 Cd2314 2.263 . S
O2381 C2334 1.258 . S
O2382 Cd2318 2.308 . S
O2382 C2334 1.274 . S
O2383 Cd2314 2.366 . S
O2383 C2370 1.263 . S
C2384 O2385 1.235 . S
C2384 O2386 1.270 . S
O2385 Cd2318 2.352 . S
O2385 C2384 1.235 . S
O2386 Cd2314 2.329 . S
O2386 C2384 1.270 . S
C2387 O2371 1.270 . S
C2387 O2372 1.248 . S
H2388 C2320 0.930 . S
H2389 C2323 0.930 . S
H2390 C2324 0.931 . S
H2391 C2329 0.929 1_655 S
H2392 C2331 0.930 . S
H2393 C2333 0.930 . S
H2394 C2336 0.929 . S
H2395 C2337 0.932 . S
H2396 C2339 0.930 . S
H2397 C2363 0.929 . S
H2398 C2364 0.932 . S
H2399 C2365 0.931 . S
H2400 C2374 0.931 . S
H2401 C2376 0.929 . S
H2402 C2378 0.932 . S
Cd2403 O2460 2.350 . S
Cd2403 O2461 2.277 . S
Cd2403 O2468 2.173 . S
Cd2403 O2470 2.263 . S
Cd2403 O2472 2.366 . S
Cd2403 O2475 2.329 . S
C2404 O2468 1.277 . S
C2404 O2469 1.230 . S
C2405 O2406 1.246 . S
C2405 C2408 1.481 . S
C2405 N2430 1.329 . S
O2406 C2405 1.246 . S
Cd2407 O2469 2.250 . S
Cd2407 O2471 2.308 . S
Cd2407 O2474 2.352 . S
C2408 C2405 1.481 . S
C2408 N2411 1.327 . S
C2408 C2412 1.407 . S
C2409 C2410 1.346 . S
C2409 C2413 1.390 . S
C2409 H2477 0.930 . S
C2410 C2409 1.346 . S
C2410 N2411 1.342 . S
C2410 C2415 1.516 . S
N2411 C2408 1.327 . S
N2411 C2410 1.342 . S
N2411 Co2414 1.864 . S
C2412 C2408 1.407 . S
C2412 C2413 1.364 . S
C2412 H2478 0.930 . S
C2413 C2409 1.390 . S
C2413 C2412 1.364 . S
C2413 H2479 0.931 . S
Co2414 N2411 1.864 . S
Co2414 N2430 1.955 . S
Co2414 N2431 1.958 . S
Co2414 N2432 1.953 . S
Co2414 N2450 1.869 . S
Co2414 N2456 1.974 . S
C2415 C2410 1.516 . S
C2415 O2416 1.238 . S
C2415 N2431 1.324 . S
O2416 C2415 1.238 . S
C2417 C2418 1.394 . S
C2417 C2422 1.395 . S
C2417 N2431 1.427 . S
C2418 C2417 1.394 . S
C2418 C2419 1.380 . S
C2418 H2480 0.929 . S
C2419 C2418 1.380 . S
C2419 C2420 1.384 . S
C2419 C2423 1.495 . S
C2420 C2419 1.384 . S
C2420 C2421 1.382 . S
C2420 H2481 0.930 . S
C2421 C2420 1.382 . S
C2421 C2422 1.398 . S
C2422 C2417 1.395 . S
C2422 C2421 1.398 . S
C2422 H2482 0.930 . S
C2423 C2419 1.495 . S
C2423 O2470 1.258 . S
C2423 O2471 1.274 . S
C2424 C2425 1.385 . S
C2424 C2426 1.381 . S
C2424 N2430 1.432 . S
C2425 C2424 1.385 . S
C2425 C2429 1.388 . S
C2425 H2483 0.929 . S
C2426 C2424 1.381 . S
C2426 C2427 1.371 . S
C2426 H2484 0.932 . S
C2427 C2426 1.371 . S
C2427 C2428 1.400 . S
C2428 C2427 1.400 . S
C2428 C2429 1.351 . S
C2428 H2485 0.930 . S
C2429 C2425 1.388 . S
C2429 C2428 1.351 . S
N2430 C2405 1.329 . S
N2430 Co2414 1.955 . S
N2430 C2424 1.432 . S
N2431 Co2414 1.958 . S
N2431 C2415 1.324 . S
N2431 C2417 1.427 . S
N2432 Co2414 1.953 . S
N2432 C2433 1.436 . S
N2432 C2459 1.316 . S
C2433 N2432 1.436 . S
C2433 C2434 1.421 . S
C2433 C2435 1.360 . S
C2434 C2433 1.421 . S
C2434 C2436 1.379 . S
C2434 H2437 0.929 . S
C2435 C2433 1.360 . S
C2435 C2439 1.393 . S
C2435 H2441 0.931 . S
C2436 C2434 1.379 . S
C2436 C2438 1.417 . S
C2436 C2440 1.505 1_554 S
H2437 C2434 0.929 . S
C2438 C2436 1.417 . S
C2438 C2439 1.352 . S
C2438 H2442 0.986 . S
C2439 C2435 1.393 . S
C2439 C2438 1.352 . S
C2439 C2443 1.482 . S
C2440 C2436 1.505 1_556 S
C2440 O2444 1.259 . S
C2440 O2445 1.229 . S
H2441 C2435 0.931 . S
H2442 C2438 0.986 . S
C2443 C2439 1.482 . S
C2443 O2446 1.207 . S
C2443 O2447 1.289 . S
O2444 C2440 1.259 . S
O2444 H2448 0.822 . S
O2445 C2440 1.229 . S
O2446 C2443 1.207 . S
O2447 C2443 1.289 . S
O2447 H2449 0.819 . S
H2448 O2444 0.822 . S
H2449 O2447 0.819 . S
N2450 Co2414 1.869 . S
N2450 C2451 1.330 . S
N2450 C2455 1.325 . S
C2451 N2450 1.330 . S
C2451 C2452 1.359 . S
C2451 C2457 1.504 . S
C2452 C2451 1.359 . S
C2452 C2453 1.366 . S
C2452 H2486 0.929 . S
C2453 C2452 1.366 . S
C2453 C2454 1.415 . S
C2453 H2487 0.932 . S
C2454 C2453 1.415 . S
C2454 C2455 1.366 . S
C2454 H2488 0.931 . S
C2455 N2450 1.325 . S
C2455 C2454 1.366 . S
C2455 C2459 1.516 . S
N2456 Co2414 1.974 . S
N2456 C2457 1.309 . S
N2456 C2462 1.423 . S
C2457 C2451 1.504 . S
C2457 N2456 1.309 . S
C2457 O2458 1.258 . S
O2458 C2457 1.258 . S
C2459 N2432 1.316 . S
C2459 C2455 1.516 . S
C2459 O2472 1.263 . S
O2460 Cd2403 2.350 . S
O2460 C2476 1.270 . S
O2461 Cd2403 2.277 . S
O2461 C2476 1.248 . S
C2462 N2456 1.423 . S
C2462 C2463 1.370 . S
C2462 C2467 1.403 . S
C2463 C2462 1.370 . S
C2463 C2464 1.389 . S
C2463 H2489 0.931 . S
C2464 C2463 1.389 . S
C2464 C2465 1.389 . S
C2465 C2464 1.389 . S
C2465 C2466 1.379 . S
C2465 H2490 0.929 . S
C2466 C2465 1.379 . S
C2466 C2467 1.405 . S
C2467 C2462 1.403 . S
C2467 C2466 1.405 . S
C2467 H2491 0.932 . S
O2468 Cd2403 2.173 . S
O2468 C2404 1.277 . S
O2469 C2404 1.230 . S
O2469 Cd2407 2.250 . S
O2470 Cd2403 2.263 . S
O2470 C2423 1.258 . S
O2471 Cd2407 2.308 . S
O2471 C2423 1.274 . S
O2472 Cd2403 2.366 . S
O2472 C2459 1.263 . S
C2473 O2474 1.235 . S
C2473 O2475 1.270 . S
O2474 Cd2407 2.352 . S
O2474 C2473 1.235 . S
O2475 Cd2403 2.329 . S
O2475 C2473 1.270 . S
C2476 O2460 1.270 . S
C2476 O2461 1.248 . S
H2477 C2409 0.930 . S
H2478 C2412 0.930 . S
H2479 C2413 0.931 . S
H2480 C2418 0.929 . S
H2481 C2420 0.930 . S
H2482 C2422 0.930 . S
H2483 C2425 0.929 . S
H2484 C2426 0.932 . S
H2485 C2428 0.930 . S
H2486 C2452 0.929 . S
H2487 C2453 0.932 . S
H2488 C2454 0.931 . S
H2489 C2463 0.931 . S
H2490 C2465 0.929 . S
H2491 C2467 0.932 . S
Cd2492 O2549 2.350 . S
Cd2492 O2550 2.277 . S
Cd2492 O2557 2.173 . S
Cd2492 O2559 2.263 . S
Cd2492 O2561 2.366 . S
Cd2492 O2564 2.329 . S
C2493 O2557 1.277 . S
C2493 O2558 1.230 . S
C2494 O2495 1.246 . S
C2494 C2497 1.481 . S
C2494 N2519 1.329 . S
O2495 C2494 1.246 . S
Cd2496 O2558 2.250 . S
Cd2496 O2560 2.308 . S
Cd2496 O2563 2.352 . S
C2497 C2494 1.481 . S
C2497 N2500 1.327 . S
C2497 C2501 1.407 . S
C2498 C2499 1.346 . S
C2498 C2502 1.390 . S
C2498 H2566 0.930 . S
C2499 C2498 1.346 . S
C2499 N2500 1.342 . S
C2499 C2504 1.516 . S
N2500 C2497 1.327 . S
N2500 C2499 1.342 . S
N2500 Co2503 1.864 . S
C2501 C2497 1.407 . S
C2501 C2502 1.364 . S
C2501 H2567 0.930 . S
C2502 C2498 1.390 . S
C2502 C2501 1.364 . S
C2502 H2568 0.931 . S
Co2503 N2500 1.864 . S
Co2503 N2519 1.955 . S
Co2503 N2520 1.958 . S
Co2503 N2521 1.953 . S
Co2503 N2539 1.869 . S
Co2503 N2545 1.974 . S
C2504 C2499 1.516 . S
C2504 O2505 1.238 1_655 S
C2504 N2520 1.324 . S
O2505 C2504 1.238 1_455 S
C2506 C2507 1.394 1_655 S
C2506 C2511 1.395 . S
C2506 N2520 1.427 . S
C2507 C2506 1.394 1_455 S
C2507 C2508 1.380 . S
C2507 H2569 0.929 . S
C2508 C2507 1.380 . S
C2508 C2509 1.384 . S
C2508 C2512 1.495 . S
C2509 C2508 1.384 . S
C2509 C2510 1.382 . S
C2509 H2570 0.930 . S
C2510 C2509 1.382 . S
C2510 C2511 1.398 1_455 S
C2511 C2506 1.395 . S
C2511 C2510 1.398 1_655 S
C2511 H2571 0.930 . S
C2512 C2508 1.495 . S
C2512 O2559 1.258 . S
C2512 O2560 1.274 . S
C2513 C2514 1.385 . S
C2513 C2515 1.381 . S
C2513 N2519 1.432 . S
C2514 C2513 1.385 . S
C2514 C2518 1.388 . S
C2514 H2572 0.929 . S
C2515 C2513 1.381 . S
C2515 C2516 1.371 . S
C2515 H2573 0.932 . S
C2516 C2515 1.371 . S
C2516 C2517 1.400 . S
C2517 C2516 1.400 . S
C2517 C2518 1.351 . S
C2517 H2574 0.930 . S
C2518 C2514 1.388 . S
C2518 C2517 1.351 . S
N2519 C2494 1.329 . S
N2519 Co2503 1.955 . S
N2519 C2513 1.432 . S
N2520 Co2503 1.958 . S
N2520 C2504 1.324 . S
N2520 C2506 1.427 . S
N2521 Co2503 1.953 . S
N2521 C2522 1.436 1_655 S
N2521 C2548 1.316 . S
C2522 N2521 1.436 1_455 S
C2522 C2523 1.421 1_455 S
C2522 C2524 1.360 . S
C2523 C2522 1.421 1_655 S
C2523 C2525 1.379 1_655 S
C2523 H2526 0.929 . S
C2524 C2522 1.360 . S
C2524 C2528 1.393 . S
C2524 H2530 0.931 . S
C2525 C2523 1.379 1_455 S
C2525 C2527 1.417 . S
C2525 C2529 1.505 1_554 S
H2526 C2523 0.929 . S
C2527 C2525 1.417 . S
C2527 C2528 1.352 . S
C2527 H2531 0.986 . S
C2528 C2524 1.393 . S
C2528 C2527 1.352 . S
C2528 C2532 1.482 . S
C2529 C2525 1.505 1_556 S
C2529 O2533 1.259 . S
C2529 O2534 1.229 1_455 S
H2530 C2524 0.931 . S
H2531 C2527 0.986 . S
C2532 C2528 1.482 . S
C2532 O2535 1.207 . S
C2532 O2536 1.289 . S
O2533 C2529 1.259 . S
O2533 H2537 0.822 . S
O2534 C2529 1.229 1_655 S
O2535 C2532 1.207 . S
O2536 C2532 1.289 . S
O2536 H2538 0.819 . S
H2537 O2533 0.822 . S
H2538 O2536 0.819 . S
N2539 Co2503 1.869 . S
N2539 C2540 1.330 . S
N2539 C2544 1.325 . S
C2540 N2539 1.330 . S
C2540 C2541 1.359 . S
C2540 C2546 1.504 . S
C2541 C2540 1.359 . S
C2541 C2542 1.366 . S
C2541 H2575 0.929 . S
C2542 C2541 1.366 . S
C2542 C2543 1.415 . S
C2542 H2576 0.932 . S
C2543 C2542 1.415 . S
C2543 C2544 1.366 . S
C2543 H2577 0.931 . S
C2544 N2539 1.325 . S
C2544 C2543 1.366 . S
C2544 C2548 1.516 . S
N2545 Co2503 1.974 . S
N2545 C2546 1.309 . S
N2545 C2551 1.423 . S
C2546 C2540 1.504 . S
C2546 N2545 1.309 . S
C2546 O2547 1.258 . S
O2547 C2546 1.258 . S
C2548 N2521 1.316 . S
C2548 C2544 1.516 . S
C2548 O2561 1.263 1_655 S
O2549 Cd2492 2.350 . S
O2549 C2565 1.270 . S
O2550 Cd2492 2.277 . S
O2550 C2565 1.248 . S
C2551 N2545 1.423 . S
C2551 C2552 1.370 . S
C2551 C2556 1.403 . S
C2552 C2551 1.370 . S
C2552 C2553 1.389 . S
C2552 H2578 0.931 . S
C2553 C2552 1.389 . S
C2553 C2554 1.389 . S
C2554 C2553 1.389 . S
C2554 C2555 1.379 . S
C2554 H2579 0.929 . S
C2555 C2554 1.379 . S
C2555 C2556 1.405 . S
C2556 C2551 1.403 . S
C2556 C2555 1.405 . S
C2556 H2580 0.932 . S
O2557 Cd2492 2.173 . S
O2557 C2493 1.277 . S
O2558 C2493 1.230 . S
O2558 Cd2496 2.250 . S
O2559 Cd2492 2.263 . S
O2559 C2512 1.258 . S
O2560 Cd2496 2.308 . S
O2560 C2512 1.274 . S
O2561 Cd2492 2.366 . S
O2561 C2548 1.263 1_455 S
C2562 O2563 1.235 . S
C2562 O2564 1.270 . S
O2563 Cd2496 2.352 . S
O2563 C2562 1.235 . S
O2564 Cd2492 2.329 . S
O2564 C2562 1.270 . S
C2565 O2549 1.270 . S
C2565 O2550 1.248 . S
H2566 C2498 0.930 . S
H2567 C2501 0.930 . S
H2568 C2502 0.931 . S
H2569 C2507 0.929 . S
H2570 C2509 0.930 . S
H2571 C2511 0.930 . S
H2572 C2514 0.929 . S
H2573 C2515 0.932 . S
H2574 C2517 0.930 . S
H2575 C2541 0.929 . S
H2576 C2542 0.932 . S
H2577 C2543 0.931 . S
H2578 C2552 0.931 . S
H2579 C2554 0.929 . S
H2580 C2556 0.932 . S
Cd2581 O2638 2.350 . S
Cd2581 O2639 2.277 . S
Cd2581 O2646 2.173 . S
Cd2581 O2648 2.263 . S
Cd2581 O2650 2.366 . S
Cd2581 O2653 2.329 . S
C2582 O2646 1.277 . S
C2582 O2647 1.230 . S
C2583 O2584 1.246 . S
C2583 C2586 1.481 . S
C2583 N2608 1.329 . S
O2584 C2583 1.246 . S
Cd2585 O2647 2.250 . S
Cd2585 O2649 2.308 . S
Cd2585 O2652 2.352 . S
C2586 C2583 1.481 . S
C2586 N2589 1.327 . S
C2586 C2590 1.407 . S
C2587 C2588 1.346 . S
C2587 C2591 1.390 . S
C2587 H2655 0.930 . S
C2588 C2587 1.346 . S
C2588 N2589 1.342 . S
C2588 C2593 1.516 . S
N2589 C2586 1.327 . S
N2589 C2588 1.342 . S
N2589 Co2592 1.864 . S
C2590 C2586 1.407 . S
C2590 C2591 1.364 . S
C2590 H2656 0.930 . S
C2591 C2587 1.390 . S
C2591 C2590 1.364 . S
C2591 H2657 0.931 . S
Co2592 N2589 1.864 . S
Co2592 N2608 1.955 . S
Co2592 N2609 1.958 . S
Co2592 N2610 1.953 . S
Co2592 N2628 1.869 . S
Co2592 N2634 1.974 . S
C2593 C2588 1.516 . S
C2593 O2594 1.238 . S
C2593 N2609 1.324 . S
O2594 C2593 1.238 . S
C2595 C2596 1.394 . S
C2595 C2600 1.395 . S
C2595 N2609 1.427 . S
C2596 C2595 1.394 . S
C2596 C2597 1.380 . S
C2596 H2658 0.929 . S
C2597 C2596 1.380 . S
C2597 C2598 1.384 . S
C2597 C2601 1.495 . S
C2598 C2597 1.384 . S
C2598 C2599 1.382 . S
C2598 H2659 0.930 . S
C2599 C2598 1.382 . S
C2599 C2600 1.398 . S
C2600 C2595 1.395 . S
C2600 C2599 1.398 . S
C2600 H2660 0.930 . S
C2601 C2597 1.495 . S
C2601 O2648 1.258 . S
C2601 O2649 1.274 . S
C2602 C2603 1.385 . S
C2602 C2604 1.381 . S
C2602 N2608 1.432 . S
C2603 C2602 1.385 . S
C2603 C2607 1.388 . S
C2603 H2661 0.929 . S
C2604 C2602 1.381 . S
C2604 C2605 1.371 . S
C2604 H2662 0.932 . S
C2605 C2604 1.371 . S
C2605 C2606 1.400 . S
C2606 C2605 1.400 . S
C2606 C2607 1.351 . S
C2606 H2663 0.930 1_655 S
C2607 C2603 1.388 . S
C2607 C2606 1.351 . S
N2608 C2583 1.329 . S
N2608 Co2592 1.955 . S
N2608 C2602 1.432 . S
N2609 Co2592 1.958 . S
N2609 C2593 1.324 . S
N2609 C2595 1.427 . S
N2610 Co2592 1.953 . S
N2610 C2611 1.436 . S
N2610 C2637 1.316 . S
C2611 N2610 1.436 . S
C2611 C2612 1.421 . S
C2611 C2613 1.360 . S
C2612 C2611 1.421 . S
C2612 C2614 1.379 . S
C2612 H2615 0.929 . S
C2613 C2611 1.360 . S
C2613 C2617 1.393 . S
C2613 H2619 0.931 . S
C2614 C2612 1.379 . S
C2614 C2616 1.417 . S
C2614 C2618 1.505 1_554 S
H2615 C2612 0.929 . S
C2616 C2614 1.417 . S
C2616 C2617 1.352 . S
C2616 H2620 0.986 . S
C2617 C2613 1.393 . S
C2617 C2616 1.352 . S
C2617 C2621 1.482 . S
C2618 C2614 1.505 1_556 S
C2618 O2622 1.259 . S
C2618 O2623 1.229 . S
H2619 C2613 0.931 . S
H2620 C2616 0.986 . S
C2621 C2617 1.482 . S
C2621 O2624 1.207 . S
C2621 O2625 1.289 . S
O2622 C2618 1.259 . S
O2622 H2626 0.822 . S
O2623 C2618 1.229 . S
O2624 C2621 1.207 . S
O2625 C2621 1.289 . S
O2625 H2627 0.819 . S
H2626 O2622 0.822 . S
H2627 O2625 0.819 . S
N2628 Co2592 1.869 . S
N2628 C2629 1.330 . S
N2628 C2633 1.325 . S
C2629 N2628 1.330 . S
C2629 C2630 1.359 . S
C2629 C2635 1.504 . S
C2630 C2629 1.359 . S
C2630 C2631 1.366 . S
C2630 H2664 0.929 . S
C2631 C2630 1.366 . S
C2631 C2632 1.415 . S
C2631 H2665 0.932 . S
C2632 C2631 1.415 . S
C2632 C2633 1.366 . S
C2632 H2666 0.931 . S
C2633 N2628 1.325 . S
C2633 C2632 1.366 . S
C2633 C2637 1.516 . S
N2634 Co2592 1.974 . S
N2634 C2635 1.309 . S
N2634 C2640 1.423 . S
C2635 C2629 1.504 . S
C2635 N2634 1.309 . S
C2635 O2636 1.258 . S
O2636 C2635 1.258 . S
C2637 N2610 1.316 . S
C2637 C2633 1.516 . S
C2637 O2650 1.263 . S
O2638 Cd2581 2.350 . S
O2638 C2654 1.270 . S
O2639 Cd2581 2.277 . S
O2639 C2654 1.248 . S
C2640 N2634 1.423 . S
C2640 C2641 1.370 . S
C2640 C2645 1.403 . S
C2641 C2640 1.370 . S
C2641 C2642 1.389 . S
C2641 H2667 0.931 . S
C2642 C2641 1.389 . S
C2642 C2643 1.389 . S
C2643 C2642 1.389 . S
C2643 C2644 1.379 . S
C2643 H2668 0.929 . S
C2644 C2643 1.379 . S
C2644 C2645 1.405 . S
C2645 C2640 1.403 . S
C2645 C2644 1.405 . S
C2645 H2669 0.932 . S
O2646 Cd2581 2.173 . S
O2646 C2582 1.277 . S
O2647 C2582 1.230 . S
O2647 Cd2585 2.250 . S
O2648 Cd2581 2.263 . S
O2648 C2601 1.258 . S
O2649 Cd2585 2.308 . S
O2649 C2601 1.274 . S
O2650 Cd2581 2.366 . S
O2650 C2637 1.263 . S
C2651 O2652 1.235 . S
C2651 O2653 1.270 . S
O2652 Cd2585 2.352 . S
O2652 C2651 1.235 . S
O2653 Cd2581 2.329 . S
O2653 C2651 1.270 . S
C2654 O2638 1.270 . S
C2654 O2639 1.248 . S
H2655 C2587 0.930 . S
H2656 C2590 0.930 . S
H2657 C2591 0.931 . S
H2658 C2596 0.929 . S
H2659 C2598 0.930 . S
H2660 C2600 0.930 . S
H2661 C2603 0.929 . S
H2662 C2604 0.932 . S
H2663 C2606 0.930 1_455 S
H2664 C2630 0.929 . S
H2665 C2631 0.932 . S
H2666 C2632 0.931 . S
H2667 C2641 0.931 . S
H2668 C2643 0.929 . S
H2669 C2645 0.932 . S
Cd2670 O2727 2.350 . S
Cd2670 O2728 2.277 . S
Cd2670 O2735 2.173 . S
Cd2670 O2737 2.263 . S
Cd2670 O2739 2.366 . S
Cd2670 O2742 2.329 . S
C2671 O2735 1.277 . S
C2671 O2736 1.230 . S
C2672 O2673 1.246 . S
C2672 C2675 1.481 . S
C2672 N2697 1.329 . S
O2673 C2672 1.246 . S
Cd2674 O2736 2.250 . S
Cd2674 O2738 2.308 . S
Cd2674 O2741 2.352 . S
C2675 C2672 1.481 . S
C2675 N2678 1.327 . S
C2675 C2679 1.407 . S
C2676 C2677 1.346 . S
C2676 C2680 1.390 . S
C2676 H2744 0.930 . S
C2677 C2676 1.346 . S
C2677 N2678 1.342 . S
C2677 C2682 1.516 . S
N2678 C2675 1.327 . S
N2678 C2677 1.342 . S
N2678 Co2681 1.864 . S
C2679 C2675 1.407 . S
C2679 C2680 1.364 . S
C2679 H2745 0.930 . S
C2680 C2676 1.390 . S
C2680 C2679 1.364 . S
C2680 H2746 0.931 . S
Co2681 N2678 1.864 . S
Co2681 N2697 1.955 . S
Co2681 N2698 1.958 . S
Co2681 N2699 1.953 . S
Co2681 N2717 1.869 . S
Co2681 N2723 1.974 . S
C2682 C2677 1.516 . S
C2682 O2683 1.238 1_655 S
C2682 N2698 1.324 . S
O2683 C2682 1.238 1_455 S
C2684 C2685 1.394 1_655 S
C2684 C2689 1.395 . S
C2684 N2698 1.427 . S
C2685 C2684 1.394 1_455 S
C2685 C2686 1.380 . S
C2685 H2747 0.929 . S
C2686 C2685 1.380 . S
C2686 C2687 1.384 . S
C2686 C2690 1.495 . S
C2687 C2686 1.384 . S
C2687 C2688 1.382 . S
C2687 H2748 0.930 . S
C2688 C2687 1.382 . S
C2688 C2689 1.398 1_455 S
C2689 C2684 1.395 . S
C2689 C2688 1.398 1_655 S
C2689 H2749 0.930 . S
C2690 C2686 1.495 . S
C2690 O2737 1.258 . S
C2690 O2738 1.274 . S
C2691 C2692 1.385 . S
C2691 C2693 1.381 . S
C2691 N2697 1.432 . S
C2692 C2691 1.385 . S
C2692 C2696 1.388 . S
C2692 H2750 0.929 . S
C2693 C2691 1.381 . S
C2693 C2694 1.371 . S
C2693 H2751 0.932 . S
C2694 C2693 1.371 . S
C2694 C2695 1.400 . S
C2695 C2694 1.400 . S
C2695 C2696 1.351 . S
C2695 H2752 0.930 . S
C2696 C2692 1.388 . S
C2696 C2695 1.351 . S
N2697 C2672 1.329 . S
N2697 Co2681 1.955 . S
N2697 C2691 1.432 . S
N2698 Co2681 1.958 . S
N2698 C2682 1.324 . S
N2698 C2684 1.427 . S
N2699 Co2681 1.953 . S
N2699 C2700 1.436 1_655 S
N2699 C2726 1.316 . S
C2700 N2699 1.436 1_455 S
C2700 C2701 1.421 1_455 S
C2700 C2702 1.360 . S
C2701 C2700 1.421 1_655 S
C2701 C2703 1.379 1_655 S
C2701 H2704 0.929 . S
C2702 C2700 1.360 . S
C2702 C2706 1.393 . S
C2702 H2708 0.931 . S
C2703 C2701 1.379 1_455 S
C2703 C2705 1.417 . S
C2703 C2707 1.505 . S
H2704 C2701 0.929 . S
C2705 C2703 1.417 . S
C2705 C2706 1.352 . S
C2705 H2709 0.929 . S
C2706 C2702 1.393 . S
C2706 C2705 1.352 . S
C2706 C2710 1.482 . S
C2707 C2703 1.505 . S
C2707 O2711 1.259 . S
C2707 O2712 1.229 1_455 S
H2708 C2702 0.931 . S
H2709 C2705 0.929 . S
C2710 C2706 1.482 . S
C2710 O2713 1.207 . S
C2710 O2714 1.289 . S
O2711 C2707 1.259 . S
O2711 H2715 0.822 . S
O2712 C2707 1.229 1_655 S
O2713 C2710 1.207 . S
O2714 C2710 1.289 . S
O2714 H2716 0.819 . S
H2715 O2711 0.822 . S
H2716 O2714 0.819 . S
N2717 Co2681 1.869 . S
N2717 C2718 1.330 . S
N2717 C2722 1.325 . S
C2718 N2717 1.330 . S
C2718 C2719 1.359 . S
C2718 C2724 1.504 . S
C2719 C2718 1.359 . S
C2719 C2720 1.366 . S
C2719 H2753 0.929 . S
C2720 C2719 1.366 . S
C2720 C2721 1.415 . S
C2720 H2754 0.932 . S
C2721 C2720 1.415 . S
C2721 C2722 1.366 . S
C2721 H2755 0.931 . S
C2722 N2717 1.325 . S
C2722 C2721 1.366 . S
C2722 C2726 1.516 . S
N2723 Co2681 1.974 . S
N2723 C2724 1.309 . S
N2723 C2729 1.423 . S
C2724 C2718 1.504 . S
C2724 N2723 1.309 . S
C2724 O2725 1.258 . S
O2725 C2724 1.258 . S
C2726 N2699 1.316 . S
C2726 C2722 1.516 . S
C2726 O2739 1.263 1_655 S
O2727 Cd2670 2.350 . S
O2727 C2743 1.270 . S
O2728 Cd2670 2.277 . S
O2728 C2743 1.248 . S
C2729 N2723 1.423 . S
C2729 C2730 1.370 . S
C2729 C2734 1.403 . S
C2730 C2729 1.370 . S
C2730 C2731 1.389 . S
C2730 H2756 0.931 . S
C2731 C2730 1.389 . S
C2731 C2732 1.389 . S
C2732 C2731 1.389 . S
C2732 C2733 1.379 . S
C2732 H2757 0.929 . S
C2733 C2732 1.379 . S
C2733 C2734 1.405 . S
C2734 C2729 1.403 . S
C2734 C2733 1.405 . S
C2734 H2758 0.932 . S
O2735 Cd2670 2.173 . S
O2735 C2671 1.277 . S
O2736 C2671 1.230 . S
O2736 Cd2674 2.250 . S
O2737 Cd2670 2.263 . S
O2737 C2690 1.258 . S
O2738 Cd2674 2.308 . S
O2738 C2690 1.274 . S
O2739 Cd2670 2.366 . S
O2739 C2726 1.263 1_455 S
C2740 O2741 1.235 . S
C2740 O2742 1.270 . S
O2741 Cd2674 2.352 . S
O2741 C2740 1.235 . S
O2742 Cd2670 2.329 . S
O2742 C2740 1.270 . S
C2743 O2727 1.270 . S
C2743 O2728 1.248 . S
H2744 C2676 0.930 . S
H2745 C2679 0.930 . S
H2746 C2680 0.931 . S
H2747 C2685 0.929 . S
H2748 C2687 0.930 . S
H2749 C2689 0.930 . S
H2750 C2692 0.929 . S
H2751 C2693 0.932 . S
H2752 C2695 0.930 . S
H2753 C2719 0.929 . S
H2754 C2720 0.932 . S
H2755 C2721 0.931 . S
H2756 C2730 0.931 . S
H2757 C2732 0.929 . S
H2758 C2734 0.932 . S
Cd2759 O2816 2.350 . S
Cd2759 O2817 2.277 . S
Cd2759 O2824 2.173 . S
Cd2759 O2826 2.263 . S
Cd2759 O2828 2.366 . S
Cd2759 O2831 2.329 . S
C2760 O2824 1.277 . S
C2760 O2825 1.230 . S
C2761 O2762 1.246 . S
C2761 C2764 1.481 . S
C2761 N2786 1.329 . S
O2762 C2761 1.246 . S
Cd2763 O2825 2.250 . S
Cd2763 O2827 2.308 . S
Cd2763 O2830 2.352 . S
C2764 C2761 1.481 . S
C2764 N2767 1.327 . S
C2764 C2768 1.407 . S
C2765 C2766 1.346 . S
C2765 C2769 1.390 . S
C2765 H2833 0.930 . S
C2766 C2765 1.346 . S
C2766 N2767 1.342 . S
C2766 C2771 1.516 . S
N2767 C2764 1.327 . S
N2767 C2766 1.342 . S
N2767 Co2770 1.864 . S
C2768 C2764 1.407 . S
C2768 C2769 1.364 . S
C2768 H2834 0.930 . S
C2769 C2765 1.390 . S
C2769 C2768 1.364 . S
C2769 H2835 0.931 . S
Co2770 N2767 1.864 . S
Co2770 N2786 1.955 . S
Co2770 N2787 1.958 . S
Co2770 N2788 1.953 . S
Co2770 N2806 1.869 . S
Co2770 N2812 1.974 . S
C2771 C2766 1.516 . S
C2771 O2772 1.238 . S
C2771 N2787 1.324 . S
O2772 C2771 1.238 . S
C2773 C2774 1.394 . S
C2773 C2778 1.395 . S
C2773 N2787 1.427 . S
C2774 C2773 1.394 . S
C2774 C2775 1.380 . S
C2774 H2836 0.929 . S
C2775 C2774 1.380 . S
C2775 C2776 1.384 . S
C2775 C2779 1.495 . S
C2776 C2775 1.384 . S
C2776 C2777 1.382 . S
C2776 H2837 0.930 . S
C2777 C2776 1.382 . S
C2777 C2778 1.398 . S
C2778 C2773 1.395 . S
C2778 C2777 1.398 . S
C2778 H2838 0.930 . S
C2779 C2775 1.495 . S
C2779 O2826 1.258 . S
C2779 O2827 1.274 . S
C2780 C2781 1.385 . S
C2780 C2782 1.381 . S
C2780 N2786 1.432 . S
C2781 C2780 1.385 . S
C2781 C2785 1.388 . S
C2781 H2839 0.929 . S
C2782 C2780 1.381 . S
C2782 C2783 1.371 . S
C2782 H2840 0.932 . S
C2783 C2782 1.371 . S
C2783 C2784 1.400 . S
C2784 C2783 1.400 . S
C2784 C2785 1.351 . S
C2784 H2841 0.930 . S
C2785 C2781 1.388 . S
C2785 C2784 1.351 . S
N2786 C2761 1.329 . S
N2786 Co2770 1.955 . S
N2786 C2780 1.432 . S
N2787 Co2770 1.958 . S
N2787 C2771 1.324 . S
N2787 C2773 1.427 . S
N2788 Co2770 1.953 . S
N2788 C2789 1.436 . S
N2788 C2815 1.316 . S
C2789 N2788 1.436 . S
C2789 C2790 1.421 . S
C2789 C2791 1.360 . S
C2790 C2789 1.421 . S
C2790 C2792 1.379 . S
C2790 H2793 0.929 . S
C2791 C2789 1.360 . S
C2791 C2795 1.393 . S
C2791 H2797 0.931 . S
C2792 C2790 1.379 . S
C2792 C2794 1.417 . S
C2792 C2796 1.505 . S
H2793 C2790 0.929 . S
C2794 C2792 1.417 . S
C2794 C2795 1.352 . S
C2794 H2798 0.929 . S
C2795 C2791 1.393 . S
C2795 C2794 1.352 . S
C2795 C2799 1.482 . S
C2796 C2792 1.505 . S
C2796 O2800 1.259 . S
C2796 O2801 1.229 . S
H2797 C2791 0.931 . S
H2798 C2794 0.929 . S
C2799 C2795 1.482 . S
C2799 O2802 1.207 . S
C2799 O2803 1.289 . S
O2800 C2796 1.259 . S
O2800 H2804 0.822 . S
O2801 C2796 1.229 . S
O2802 C2799 1.207 . S
O2803 C2799 1.289 . S
O2803 H2805 0.819 . S
H2804 O2800 0.822 . S
H2805 O2803 0.819 . S
N2806 Co2770 1.869 . S
N2806 C2807 1.330 . S
N2806 C2811 1.325 . S
C2807 N2806 1.330 . S
C2807 C2808 1.359 . S
C2807 C2813 1.504 . S
C2808 C2807 1.359 . S
C2808 C2809 1.366 . S
C2808 H2842 0.929 . S
C2809 C2808 1.366 . S
C2809 C2810 1.415 . S
C2809 H2843 0.932 . S
C2810 C2809 1.415 . S
C2810 C2811 1.366 . S
C2810 H2844 0.931 . S
C2811 N2806 1.325 . S
C2811 C2810 1.366 . S
C2811 C2815 1.516 . S
N2812 Co2770 1.974 . S
N2812 C2813 1.309 . S
N2812 C2818 1.423 . S
C2813 C2807 1.504 . S
C2813 N2812 1.309 . S
C2813 O2814 1.258 . S
O2814 C2813 1.258 . S
C2815 N2788 1.316 . S
C2815 C2811 1.516 . S
C2815 O2828 1.263 . S
O2816 Cd2759 2.350 . S
O2816 C2832 1.270 . S
O2817 Cd2759 2.277 . S
O2817 C2832 1.248 . S
C2818 N2812 1.423 . S
C2818 C2819 1.370 . S
C2818 C2823 1.403 . S
C2819 C2818 1.370 . S
C2819 C2820 1.389 . S
C2819 H2845 0.931 . S
C2820 C2819 1.389 . S
C2820 C2821 1.389 . S
C2821 C2820 1.389 . S
C2821 C2822 1.379 . S
C2821 H2846 0.929 . S
C2822 C2821 1.379 . S
C2822 C2823 1.405 . S
C2823 C2818 1.403 . S
C2823 C2822 1.405 . S
C2823 H2847 0.932 . S
O2824 Cd2759 2.173 . S
O2824 C2760 1.277 . S
O2825 C2760 1.230 . S
O2825 Cd2763 2.250 . S
O2826 Cd2759 2.263 . S
O2826 C2779 1.258 . S
O2827 Cd2763 2.308 . S
O2827 C2779 1.274 . S
O2828 Cd2759 2.366 . S
O2828 C2815 1.263 . S
C2829 O2830 1.235 . S
C2829 O2831 1.270 . S
O2830 Cd2763 2.352 . S
O2830 C2829 1.235 . S
O2831 Cd2759 2.329 . S
O2831 C2829 1.270 . S
C2832 O2816 1.270 . S
C2832 O2817 1.248 . S
H2833 C2765 0.930 . S
H2834 C2768 0.930 . S
H2835 C2769 0.931 . S
H2836 C2774 0.929 . S
H2837 C2776 0.930 . S
H2838 C2778 0.930 . S
H2839 C2781 0.929 . S
H2840 C2782 0.932 . S
H2841 C2784 0.930 . S
H2842 C2808 0.929 . S
H2843 C2809 0.932 . S
H2844 C2810 0.931 . S
H2845 C2819 0.931 . S
H2846 C2821 0.929 . S
H2847 C2823 0.932 . S
Cd2848 O2905 2.350 . S
Cd2848 O2906 2.277 . S
Cd2848 O2913 2.173 . S
Cd2848 O2915 2.263 . S
Cd2848 O2917 2.366 . S
Cd2848 O2920 2.329 . S
C2849 O2913 1.277 . S
C2849 O2914 1.230 . S
C2850 O2851 1.246 . S
C2850 C2853 1.481 . S
C2850 N2875 1.329 . S
O2851 C2850 1.246 . S
Cd2852 O2914 2.250 . S
Cd2852 O2916 2.308 . S
Cd2852 O2919 2.352 . S
C2853 C2850 1.481 . S
C2853 N2856 1.327 . S
C2853 C2857 1.407 . S
C2854 C2855 1.346 . S
C2854 C2858 1.390 . S
C2854 H2922 0.930 . S
C2855 C2854 1.346 . S
C2855 N2856 1.342 . S
C2855 C2860 1.516 . S
N2856 C2853 1.327 . S
N2856 C2855 1.342 . S
N2856 Co2859 1.864 . S
C2857 C2853 1.407 . S
C2857 C2858 1.364 . S
C2857 H2923 0.930 . S
C2858 C2854 1.390 . S
C2858 C2857 1.364 . S
C2858 H2924 0.931 . S
Co2859 N2856 1.864 . S
Co2859 N2875 1.955 . S
Co2859 N2876 1.958 . S
Co2859 N2877 1.953 . S
Co2859 N2895 1.869 . S
Co2859 N2901 1.974 . S
C2860 C2855 1.516 . S
C2860 O2861 1.238 . S
C2860 N2876 1.324 . S
O2861 C2860 1.238 . S
C2862 C2863 1.394 . S
C2862 C2867 1.395 . S
C2862 N2876 1.427 . S
C2863 C2862 1.394 . S
C2863 C2864 1.380 . S
C2863 H2925 0.929 . S
C2864 C2863 1.380 . S
C2864 C2865 1.384 . S
C2864 C2868 1.495 . S
C2865 C2864 1.384 . S
C2865 C2866 1.382 . S
C2865 H2926 0.930 . S
C2866 C2865 1.382 . S
C2866 C2867 1.398 . S
C2867 C2862 1.395 . S
C2867 C2866 1.398 . S
C2867 H2927 0.930 . S
C2868 C2864 1.495 . S
C2868 O2915 1.258 . S
C2868 O2916 1.274 . S
C2869 C2870 1.385 . S
C2869 C2871 1.381 . S
C2869 N2875 1.432 . S
C2870 C2869 1.385 . S
C2870 C2874 1.388 . S
C2870 H2928 0.929 . S
C2871 C2869 1.381 . S
C2871 C2872 1.371 . S
C2871 H2929 0.932 . S
C2872 C2871 1.371 . S
C2872 C2873 1.400 . S
C2873 C2872 1.400 . S
C2873 C2874 1.351 . S
C2873 H2930 0.930 1_655 S
C2874 C2870 1.388 . S
C2874 C2873 1.351 . S
N2875 C2850 1.329 . S
N2875 Co2859 1.955 . S
N2875 C2869 1.432 . S
N2876 Co2859 1.958 . S
N2876 C2860 1.324 . S
N2876 C2862 1.427 . S
N2877 Co2859 1.953 . S
N2877 C2878 1.436 . S
N2877 C2904 1.316 . S
C2878 N2877 1.436 . S
C2878 C2879 1.421 . S
C2878 C2880 1.360 . S
C2879 C2878 1.421 . S
C2879 C2881 1.379 . S
C2879 H2882 0.929 . S
C2880 C2878 1.360 . S
C2880 C2884 1.393 . S
C2880 H2886 0.931 . S
C2881 C2879 1.379 . S
C2881 C2883 1.417 . S
C2881 C2885 1.505 . S
H2882 C2879 0.929 . S
C2883 C2881 1.417 . S
C2883 C2884 1.352 . S
C2883 H2887 0.929 . S
C2884 C2880 1.393 . S
C2884 C2883 1.352 . S
C2884 C2888 1.482 . S
C2885 C2881 1.505 . S
C2885 O2889 1.259 . S
C2885 O2890 1.229 . S
H2886 C2880 0.931 . S
H2887 C2883 0.929 . S
C2888 C2884 1.482 . S
C2888 O2891 1.207 . S
C2888 O2892 1.289 . S
O2889 C2885 1.259 . S
O2889 H2893 0.822 . S
O2890 C2885 1.229 . S
O2891 C2888 1.207 . S
O2892 C2888 1.289 . S
O2892 H2894 0.819 . S
H2893 O2889 0.822 . S
H2894 O2892 0.819 . S
N2895 Co2859 1.869 . S
N2895 C2896 1.330 . S
N2895 C2900 1.325 . S
C2896 N2895 1.330 . S
C2896 C2897 1.359 . S
C2896 C2902 1.504 . S
C2897 C2896 1.359 . S
C2897 C2898 1.366 . S
C2897 H2931 0.929 . S
C2898 C2897 1.366 . S
C2898 C2899 1.415 . S
C2898 H2932 0.932 . S
C2899 C2898 1.415 . S
C2899 C2900 1.366 . S
C2899 H2933 0.931 . S
C2900 N2895 1.325 . S
C2900 C2899 1.366 . S
C2900 C2904 1.516 . S
N2901 Co2859 1.974 . S
N2901 C2902 1.309 . S
N2901 C2907 1.423 . S
C2902 C2896 1.504 . S
C2902 N2901 1.309 . S
C2902 O2903 1.258 . S
O2903 C2902 1.258 . S
C2904 N2877 1.316 . S
C2904 C2900 1.516 . S
C2904 O2917 1.263 . S
O2905 Cd2848 2.350 . S
O2905 C2921 1.270 . S
O2906 Cd2848 2.277 . S
O2906 C2921 1.248 . S
C2907 N2901 1.423 . S
C2907 C2908 1.370 . S
C2907 C2912 1.403 . S
C2908 C2907 1.370 . S
C2908 C2909 1.389 . S
C2908 H2934 0.931 . S
C2909 C2908 1.389 . S
C2909 C2910 1.389 . S
C2910 C2909 1.389 . S
C2910 C2911 1.379 . S
C2910 H2935 0.929 . S
C2911 C2910 1.379 . S
C2911 C2912 1.405 . S
C2912 C2907 1.403 . S
C2912 C2911 1.405 . S
C2912 H2936 0.932 . S
O2913 Cd2848 2.173 . S
O2913 C2849 1.277 . S
O2914 C2849 1.230 . S
O2914 Cd2852 2.250 . S
O2915 Cd2848 2.263 . S
O2915 C2868 1.258 . S
O2916 Cd2852 2.308 . S
O2916 C2868 1.274 . S
O2917 Cd2848 2.366 . S
O2917 C2904 1.263 . S
C2918 O2919 1.235 . S
C2918 O2920 1.270 . S
O2919 Cd2852 2.352 . S
O2919 C2918 1.235 . S
O2920 Cd2848 2.329 . S
O2920 C2918 1.270 . S
C2921 O2905 1.270 . S
C2921 O2906 1.248 . S
H2922 C2854 0.930 . S
H2923 C2857 0.930 . S
H2924 C2858 0.931 . S
H2925 C2863 0.929 . S
H2926 C2865 0.930 . S
H2927 C2867 0.930 . S
H2928 C2870 0.929 . S
H2929 C2871 0.932 . S
H2930 C2873 0.930 1_455 S
H2931 C2897 0.929 . S
H2932 C2898 0.932 . S
H2933 C2899 0.931 . S
H2934 C2908 0.931 . S
H2935 C2910 0.929 . S
H2936 C2912 0.932 . S
Cd2937 O2994 2.350 . S
Cd2937 O2995 2.277 . S
Cd2937 O3002 2.173 . S
Cd2937 O3004 2.263 . S
Cd2937 O3006 2.366 . S
Cd2937 O3009 2.329 . S
C2938 O3002 1.277 . S
C2938 O3003 1.230 . S
C2939 O2940 1.246 . S
C2939 C2942 1.481 . S
C2939 N2964 1.329 . S
O2940 C2939 1.246 . S
Cd2941 O3003 2.250 . S
Cd2941 O3005 2.308 . S
Cd2941 O3008 2.352 . S
C2942 C2939 1.481 . S
C2942 N2945 1.327 . S
C2942 C2946 1.407 . S
C2943 C2944 1.346 . S
C2943 C2947 1.390 . S
C2943 H3011 0.930 . S
C2944 C2943 1.346 . S
C2944 N2945 1.342 . S
C2944 C2949 1.516 . S
N2945 C2942 1.327 . S
N2945 C2944 1.342 . S
N2945 Co2948 1.864 . S
C2946 C2942 1.407 . S
C2946 C2947 1.364 . S
C2946 H3012 0.930 . S
C2947 C2943 1.390 . S
C2947 C2946 1.364 . S
C2947 H3013 0.931 . S
Co2948 N2945 1.864 . S
Co2948 N2964 1.955 . S
Co2948 N2965 1.958 . S
Co2948 N2966 1.953 . S
Co2948 N2984 1.869 . S
Co2948 N2990 1.974 . S
C2949 C2944 1.516 . S
C2949 O2950 1.238 . S
C2949 N2965 1.324 . S
O2950 C2949 1.238 . S
C2951 C2952 1.394 . S
C2951 C2956 1.395 . S
C2951 N2965 1.427 . S
C2952 C2951 1.394 . S
C2952 C2953 1.380 . S
C2952 H3014 0.929 . S
C2953 C2952 1.380 . S
C2953 C2954 1.384 . S
C2953 C2957 1.495 . S
C2954 C2953 1.384 . S
C2954 C2955 1.382 . S
C2954 H3015 0.930 . S
C2955 C2954 1.382 . S
C2955 C2956 1.398 . S
C2956 C2951 1.395 . S
C2956 C2955 1.398 . S
C2956 H3016 0.930 . S
C2957 C2953 1.495 . S
C2957 O3004 1.258 . S
C2957 O3005 1.274 . S
C2958 C2959 1.385 . S
C2958 C2960 1.381 . S
C2958 N2964 1.432 . S
C2959 C2958 1.385 . S
C2959 C2963 1.388 . S
C2959 H3017 0.929 . S
C2960 C2958 1.381 . S
C2960 C2961 1.371 . S
C2960 H3018 0.932 . S
C2961 C2960 1.371 . S
C2961 C2962 1.400 . S
C2962 C2961 1.400 . S
C2962 C2963 1.351 . S
C2962 H3019 0.930 . S
C2963 C2959 1.388 . S
C2963 C2962 1.351 . S
N2964 C2939 1.329 . S
N2964 Co2948 1.955 . S
N2964 C2958 1.432 . S
N2965 Co2948 1.958 . S
N2965 C2949 1.324 . S
N2965 C2951 1.427 . S
N2966 Co2948 1.953 . S
N2966 C2967 1.436 . S
N2966 C2993 1.316 . S
C2967 N2966 1.436 . S
C2967 C2968 1.421 . S
C2967 C2969 1.360 . S
C2968 C2967 1.421 . S
C2968 C2970 1.379 . S
C2968 H2971 0.929 . S
C2969 C2967 1.360 . S
C2969 C2973 1.393 . S
C2969 H2975 0.931 . S
C2970 C2968 1.379 . S
C2970 C2972 1.417 . S
C2970 C2974 1.505 . S
H2971 C2968 0.929 . S
C2972 C2970 1.417 . S
C2972 C2973 1.352 . S
C2972 H2976 0.929 . S
C2973 C2969 1.393 . S
C2973 C2972 1.352 . S
C2973 C2977 1.482 . S
C2974 C2970 1.505 . S
C2974 O2978 1.259 . S
C2974 O2979 1.229 . S
H2975 C2969 0.931 . S
H2976 C2972 0.929 . S
C2977 C2973 1.482 . S
C2977 O2980 1.207 . S
C2977 O2981 1.289 . S
O2978 C2974 1.259 . S
O2978 H2982 0.822 . S
O2979 C2974 1.229 . S
O2980 C2977 1.207 . S
O2981 C2977 1.289 . S
O2981 H2983 0.819 . S
H2982 O2978 0.822 . S
H2983 O2981 0.819 . S
N2984 Co2948 1.869 . S
N2984 C2985 1.330 . S
N2984 C2989 1.325 . S
C2985 N2984 1.330 . S
C2985 C2986 1.359 . S
C2985 C2991 1.504 . S
C2986 C2985 1.359 . S
C2986 C2987 1.366 . S
C2986 H3020 0.929 . S
C2987 C2986 1.366 . S
C2987 C2988 1.415 . S
C2987 H3021 0.932 . S
C2988 C2987 1.415 . S
C2988 C2989 1.366 . S
C2988 H3022 0.931 . S
C2989 N2984 1.325 . S
C2989 C2988 1.366 . S
C2989 C2993 1.516 . S
N2990 Co2948 1.974 . S
N2990 C2991 1.309 . S
N2990 C2996 1.423 . S
C2991 C2985 1.504 . S
C2991 N2990 1.309 . S
C2991 O2992 1.258 . S
O2992 C2991 1.258 . S
C2993 N2966 1.316 . S
C2993 C2989 1.516 . S
C2993 O3006 1.263 . S
O2994 Cd2937 2.350 . S
O2994 C3010 1.270 . S
O2995 Cd2937 2.277 . S
O2995 C3010 1.248 . S
C2996 N2990 1.423 . S
C2996 C2997 1.370 . S
C2996 C3001 1.403 . S
C2997 C2996 1.370 . S
C2997 C2998 1.389 . S
C2997 H3023 0.931 . S
C2998 C2997 1.389 . S
C2998 C2999 1.389 . S
C2999 C2998 1.389 . S
C2999 C3000 1.379 . S
C2999 H3024 0.929 . S
C3000 C2999 1.379 . S
C3000 C3001 1.405 . S
C3001 C2996 1.403 . S
C3001 C3000 1.405 . S
C3001 H3025 0.932 . S
O3002 Cd2937 2.173 . S
O3002 C2938 1.277 . S
O3003 C2938 1.230 . S
O3003 Cd2941 2.250 . S
O3004 Cd2937 2.263 . S
O3004 C2957 1.258 . S
O3005 Cd2941 2.308 . S
O3005 C2957 1.274 . S
O3006 Cd2937 2.366 . S
O3006 C2993 1.263 . S
C3007 O3008 1.235 . S
C3007 O3009 1.270 . S
O3008 Cd2941 2.352 . S
O3008 C3007 1.235 . S
O3009 Cd2937 2.329 . S
O3009 C3007 1.270 . S
C3010 O2994 1.270 . S
C3010 O2995 1.248 . S
H3011 C2943 0.930 . S
H3012 C2946 0.930 . S
H3013 C2947 0.931 . S
H3014 C2952 0.929 . S
H3015 C2954 0.930 . S
H3016 C2956 0.930 . S
H3017 C2959 0.929 . S
H3018 C2960 0.932 . S
H3019 C2962 0.930 . S
H3020 C2986 0.929 . S
H3021 C2987 0.932 . S
H3022 C2988 0.931 . S
H3023 C2997 0.931 . S
H3024 C2999 0.929 . S
H3025 C3001 0.932 . S
Cd3026 O3083 2.350 . S
Cd3026 O3084 2.277 . S
Cd3026 O3091 2.173 . S
Cd3026 O3093 2.263 . S
Cd3026 O3095 2.366 . S
Cd3026 O3098 2.329 . S
C3027 O3091 1.277 . S
C3027 O3092 1.230 . S
C3028 O3029 1.246 . S
C3028 C3031 1.481 . S
C3028 N3053 1.329 . S
O3029 C3028 1.246 . S
Cd3030 O3092 2.250 . S
Cd3030 O3094 2.308 . S
Cd3030 O3097 2.352 . S
C3031 C3028 1.481 . S
C3031 N3034 1.327 . S
C3031 C3035 1.407 . S
C3032 C3033 1.346 . S
C3032 C3036 1.390 . S
C3032 H3100 0.930 . S
C3033 C3032 1.346 . S
C3033 N3034 1.342 . S
C3033 C3038 1.516 . S
N3034 C3031 1.327 . S
N3034 C3033 1.342 . S
N3034 Co3037 1.864 . S
C3035 C3031 1.407 . S
C3035 C3036 1.364 . S
C3035 H3101 0.930 . S
C3036 C3032 1.390 . S
C3036 C3035 1.364 . S
C3036 H3102 0.931 . S
Co3037 N3034 1.864 . S
Co3037 N3053 1.955 . S
Co3037 N3054 1.958 . S
Co3037 N3055 1.953 . S
Co3037 N3073 1.869 . S
Co3037 N3079 1.974 . S
C3038 C3033 1.516 . S
C3038 O3039 1.238 . S
C3038 N3054 1.324 . S
O3039 C3038 1.238 . S
C3040 C3041 1.394 . S
C3040 C3045 1.395 . S
C3040 N3054 1.427 . S
C3041 C3040 1.394 . S
C3041 C3042 1.380 . S
C3041 H3103 0.929 . S
C3042 C3041 1.380 . S
C3042 C3043 1.384 . S
C3042 C3046 1.495 . S
C3043 C3042 1.384 . S
C3043 C3044 1.382 . S
C3043 H3104 0.930 . S
C3044 C3043 1.382 . S
C3044 C3045 1.398 . S
C3045 C3040 1.395 . S
C3045 C3044 1.398 . S
C3045 H3105 0.930 . S
C3046 C3042 1.495 . S
C3046 O3093 1.258 . S
C3046 O3094 1.274 . S
C3047 C3048 1.385 . S
C3047 C3049 1.381 . S
C3047 N3053 1.432 . S
C3048 C3047 1.385 . S
C3048 C3052 1.388 . S
C3048 H3106 0.929 . S
C3049 C3047 1.381 . S
C3049 C3050 1.371 . S
C3049 H3107 0.932 . S
C3050 C3049 1.371 . S
C3050 C3051 1.400 . S
C3051 C3050 1.400 . S
C3051 C3052 1.351 . S
C3051 H3108 0.930 . S
C3052 C3048 1.388 . S
C3052 C3051 1.351 . S
N3053 C3028 1.329 . S
N3053 Co3037 1.955 . S
N3053 C3047 1.432 . S
N3054 Co3037 1.958 . S
N3054 C3038 1.324 . S
N3054 C3040 1.427 . S
N3055 Co3037 1.953 . S
N3055 C3056 1.436 . S
N3055 C3082 1.316 . S
C3056 N3055 1.436 . S
C3056 C3057 1.421 . S
C3056 C3058 1.360 . S
C3057 C3056 1.421 . S
C3057 C3059 1.379 . S
C3057 H3060 0.929 . S
C3058 C3056 1.360 . S
C3058 C3062 1.393 . S
C3058 H3064 0.931 . S
C3059 C3057 1.379 . S
C3059 C3061 1.417 . S
C3059 C3063 1.505 . S
H3060 C3057 0.929 . S
C3061 C3059 1.417 . S
C3061 C3062 1.352 . S
C3061 H3065 0.929 . S
C3062 C3058 1.393 . S
C3062 C3061 1.352 . S
C3062 C3066 1.482 . S
C3063 C3059 1.505 . S
C3063 O3067 1.259 . S
C3063 O3068 1.229 . S
H3064 C3058 0.931 . S
H3065 C3061 0.929 . S
C3066 C3062 1.482 . S
C3066 O3069 1.207 . S
C3066 O3070 1.289 . S
O3067 C3063 1.259 . S
O3067 H3071 0.822 . S
O3068 C3063 1.229 . S
O3069 C3066 1.207 . S
O3070 C3066 1.289 . S
O3070 H3072 0.819 1_545 S
H3071 O3067 0.822 . S
H3072 O3070 0.819 1_565 S
N3073 Co3037 1.869 . S
N3073 C3074 1.330 . S
N3073 C3078 1.325 . S
C3074 N3073 1.330 . S
C3074 C3075 1.359 . S
C3074 C3080 1.504 . S
C3075 C3074 1.359 . S
C3075 C3076 1.366 . S
C3075 H3109 0.929 . S
C3076 C3075 1.366 . S
C3076 C3077 1.415 . S
C3076 H3110 0.932 . S
C3077 C3076 1.415 . S
C3077 C3078 1.366 . S
C3077 H3111 0.931 . S
C3078 N3073 1.325 . S
C3078 C3077 1.366 . S
C3078 C3082 1.516 . S
N3079 Co3037 1.974 . S
N3079 C3080 1.309 . S
N3079 C3085 1.423 . S
C3080 C3074 1.504 . S
C3080 N3079 1.309 . S
C3080 O3081 1.258 . S
O3081 C3080 1.258 . S
C3082 N3055 1.316 . S
C3082 C3078 1.516 . S
C3082 O3095 1.263 . S
O3083 Cd3026 2.350 . S
O3083 C3099 1.270 . S
O3084 Cd3026 2.277 . S
O3084 C3099 1.248 . S
C3085 N3079 1.423 . S
C3085 C3086 1.370 . S
C3085 C3090 1.403 . S
C3086 C3085 1.370 . S
C3086 C3087 1.389 . S
C3086 H3112 0.931 . S
C3087 C3086 1.389 . S
C3087 C3088 1.389 . S
C3088 C3087 1.389 . S
C3088 C3089 1.379 1_655 S
C3088 H3113 0.929 1_655 S
C3089 C3088 1.379 1_455 S
C3089 C3090 1.405 1_455 S
C3090 C3085 1.403 . S
C3090 C3089 1.405 1_655 S
C3090 H3114 0.932 1_655 S
O3091 Cd3026 2.173 . S
O3091 C3027 1.277 . S
O3092 C3027 1.230 . S
O3092 Cd3030 2.250 . S
O3093 Cd3026 2.263 . S
O3093 C3046 1.258 . S
O3094 Cd3030 2.308 . S
O3094 C3046 1.274 . S
O3095 Cd3026 2.366 . S
O3095 C3082 1.263 . S
C3096 O3097 1.235 . S
C3096 O3098 1.270 . S
O3097 Cd3030 2.352 . S
O3097 C3096 1.235 . S
O3098 Cd3026 2.329 . S
O3098 C3096 1.270 . S
C3099 O3083 1.270 . S
C3099 O3084 1.248 . S
H3100 C3032 0.930 . S
H3101 C3035 0.930 . S
H3102 C3036 0.931 . S
H3103 C3041 0.929 . S
H3104 C3043 0.930 . S
H3105 C3045 0.930 . S
H3106 C3048 0.929 . S
H3107 C3049 0.932 . S
H3108 C3051 0.930 . S
H3109 C3075 0.929 . S
H3110 C3076 0.932 . S
H3111 C3077 0.931 . S
H3112 C3086 0.931 . S
H3113 C3088 0.929 1_455 S
H3114 C3090 0.932 1_455 S
Cd3115 O3172 2.350 . S
Cd3115 O3173 2.277 . S
Cd3115 O3180 2.173 . S
Cd3115 O3182 2.263 . S
Cd3115 O3184 2.366 . S
Cd3115 O3187 2.329 . S
C3116 O3180 1.277 . S
C3116 O3181 1.230 . S
C3117 O3118 1.246 . S
C3117 C3120 1.481 1_655 S
C3117 N3142 1.329 . S
O3118 C3117 1.246 . S
Cd3119 O3181 2.250 . S
Cd3119 O3183 2.308 . S
Cd3119 O3186 2.352 . S
C3120 C3117 1.481 1_455 S
C3120 N3123 1.327 . S
C3120 C3124 1.407 . S
C3121 C3122 1.346 . S
C3121 C3125 1.390 . S
C3121 H3189 0.930 . S
C3122 C3121 1.346 . S
C3122 N3123 1.342 . S
C3122 C3127 1.516 . S
N3123 C3120 1.327 . S
N3123 C3122 1.342 . S
N3123 Co3126 1.864 1_455 S
C3124 C3120 1.407 . S
C3124 C3125 1.364 . S
C3124 H3190 0.930 . S
C3125 C3121 1.390 . S
C3125 C3124 1.364 . S
C3125 H3191 0.931 . S
Co3126 N3123 1.864 1_655 S
Co3126 N3142 1.955 . S
Co3126 N3143 1.958 1_655 S
Co3126 N3144 1.953 . S
Co3126 N3162 1.869 . S
Co3126 N3168 1.974 . S
C3127 C3122 1.516 . S
C3127 O3128 1.238 . S
C3127 N3143 1.324 . S
O3128 C3127 1.238 . S
C3129 C3130 1.394 . S
C3129 C3134 1.395 . S
C3129 N3143 1.427 . S
C3130 C3129 1.394 . S
C3130 C3131 1.380 1_455 S
C3130 H3192 0.929 1_455 S
C3131 C3130 1.380 1_655 S
C3131 C3132 1.384 . S
C3131 C3135 1.495 . S
C3132 C3131 1.384 . S
C3132 C3133 1.382 1_655 S
C3132 H3193 0.930 . S
C3133 C3132 1.382 1_455 S
C3133 C3134 1.398 . S
C3134 C3129 1.395 . S
C3134 C3133 1.398 . S
C3134 H3194 0.930 . S
C3135 C3131 1.495 . S
C3135 O3182 1.258 . S
C3135 O3183 1.274 . S
C3136 C3137 1.385 . S
C3136 C3138 1.381 . S
C3136 N3142 1.432 . S
C3137 C3136 1.385 . S
C3137 C3141 1.388 . S
C3137 H3195 0.929 . S
C3138 C3136 1.381 . S
C3138 C3139 1.371 . S
C3138 H3196 0.932 . S
C3139 C3138 1.371 . S
C3139 C3140 1.400 . S
C3140 C3139 1.400 . S
C3140 C3141 1.351 . S
C3140 H3197 0.930 . S
C3141 C3137 1.388 . S
C3141 C3140 1.351 . S
N3142 C3117 1.329 . S
N3142 Co3126 1.955 . S
N3142 C3136 1.432 . S
N3143 Co3126 1.958 1_455 S
N3143 C3127 1.324 . S
N3143 C3129 1.427 . S
N3144 Co3126 1.953 . S
N3144 C3145 1.436 . S
N3144 C3171 1.316 . S
C3145 N3144 1.436 . S
C3145 C3146 1.421 . S
C3145 C3147 1.360 1_655 S
C3146 C3145 1.421 . S
C3146 C3148 1.379 1_655 S
C3146 H3149 0.929 . S
C3147 C3145 1.360 1_455 S
C3147 C3151 1.393 . S
C3147 H3153 0.931 . S
C3148 C3146 1.379 1_455 S
C3148 C3150 1.417 . S
C3148 C3152 1.505 1_455 S
H3149 C3146 0.929 . S
C3150 C3148 1.417 . S
C3150 C3151 1.352 . S
C3150 H3154 0.929 . S
C3151 C3147 1.393 . S
C3151 C3150 1.352 . S
C3151 C3155 1.482 . S
C3152 C3148 1.505 1_655 S
C3152 O3156 1.259 1_655 S
C3152 O3157 1.229 . S
H3153 C3147 0.931 . S
H3154 C3150 0.929 . S
C3155 C3151 1.482 . S
C3155 O3158 1.207 . S
C3155 O3159 1.289 . S
O3156 C3152 1.259 1_455 S
O3156 H3160 0.822 . S
O3157 C3152 1.229 . S
O3158 C3155 1.207 . S
O3159 C3155 1.289 . S
O3159 H3161 0.819 . S
H3160 O3156 0.822 . S
H3161 O3159 0.819 . S
N3162 Co3126 1.869 . S
N3162 C3163 1.330 . S
N3162 C3167 1.325 . S
C3163 N3162 1.330 . S
C3163 C3164 1.359 . S
C3163 C3169 1.504 . S
C3164 C3163 1.359 . S
C3164 C3165 1.366 . S
C3164 H3198 0.929 . S
C3165 C3164 1.366 . S
C3165 C3166 1.415 . S
C3165 H3199 0.932 . S
C3166 C3165 1.415 . S
C3166 C3167 1.366 . S
C3166 H3200 0.931 . S
C3167 N3162 1.325 . S
C3167 C3166 1.366 . S
C3167 C3171 1.516 . S
N3168 Co3126 1.974 . S
N3168 C3169 1.309 . S
N3168 C3174 1.423 . S
C3169 C3163 1.504 . S
C3169 N3168 1.309 . S
C3169 O3170 1.258 . S
O3170 C3169 1.258 . S
C3171 N3144 1.316 . S
C3171 C3167 1.516 . S
C3171 O3184 1.263 . S
O3172 Cd3115 2.350 . S
O3172 C3188 1.270 . S
O3173 Cd3115 2.277 . S
O3173 C3188 1.248 . S
C3174 N3168 1.423 . S
C3174 C3175 1.370 1_655 S
C3174 C3179 1.403 . S
C3175 C3174 1.370 1_455 S
C3175 C3176 1.389 . S
C3175 H3201 0.931 . S
C3176 C3175 1.389 . S
C3176 C3177 1.389 . S
C3177 C3176 1.389 . S
C3177 C3178 1.380 1_455 S
C3177 H3202 0.929 . S
C3178 C3177 1.380 1_655 S
C3178 C3179 1.405 . S
C3179 C3174 1.403 . S
C3179 C3178 1.405 . S
C3179 H3203 0.932 . S
O3180 Cd3115 2.173 . S
O3180 C3116 1.277 . S
O3181 C3116 1.230 . S
O3181 Cd3119 2.250 . S
O3182 Cd3115 2.263 . S
O3182 C3135 1.258 . S
O3183 Cd3119 2.308 . S
O3183 C3135 1.274 . S
O3184 Cd3115 2.366 . S
O3184 C3171 1.263 . S
C3185 O3186 1.235 . S
C3185 O3187 1.270 . S
O3186 Cd3119 2.352 . S
O3186 C3185 1.235 . S
O3187 Cd3115 2.329 . S
O3187 C3185 1.270 . S
C3188 O3172 1.270 . S
C3188 O3173 1.248 . S
H3189 C3121 0.930 . S
H3190 C3124 0.930 . S
H3191 C3125 0.931 . S
H3192 C3130 0.929 1_655 S
H3193 C3132 0.930 . S
H3194 C3134 0.930 . S
H3195 C3137 0.929 . S
H3196 C3138 0.932 . S
H3197 C3140 0.930 . S
H3198 C3164 0.929 . S
H3199 C3165 0.932 . S
H3200 C3166 0.931 . S
H3201 C3175 0.931 . S
H3202 C3177 0.929 . S
H3203 C3179 0.932 . S
C3204 C3205 1.369 . S
C3204 C3206 1.419 . S
C3204 H3208 0.930 . S
C3205 C3204 1.369 . S
C3205 C3214 1.429 . S
C3206 C3204 1.419 . S
C3206 C3207 1.363 . S
C3206 H3209 0.929 . S
C3207 C3206 1.363 . S
C3207 C3213 1.428 . S
H3208 C3204 0.930 . S
H3209 C3206 0.929 . S
S3210 N3211 1.613 . S
S3210 N3212 1.610 . S
N3211 S3210 1.613 . S
N3211 C3214 1.350 . S
N3212 S3210 1.610 . S
N3212 C3213 1.351 . S
C3213 C3207 1.428 . S
C3213 N3212 1.351 . S
C3213 C3214 1.434 . S
C3214 C3205 1.429 . S
C3214 N3211 1.350 . S
C3214 C3213 1.434 . S
C3215 C3216 1.369 . S
C3215 C3217 1.419 . S
C3215 H3219 0.930 . S
C3216 C3215 1.369 . S
C3216 C3225 1.429 . S
C3217 C3215 1.419 . S
C3217 C3218 1.363 . S
C3217 H3220 0.929 . S
C3218 C3217 1.363 . S
C3218 C3224 1.428 . S
H3219 C3215 0.930 . S
H3220 C3217 0.929 . S
S3221 N3222 1.613 . S
S3221 N3223 1.610 . S
N3222 S3221 1.613 . S
N3222 C3225 1.350 . S
N3223 S3221 1.610 . S
N3223 C3224 1.351 . S
C3224 C3218 1.428 . S
C3224 N3223 1.351 . S
C3224 C3225 1.434 . S
C3225 C3216 1.429 . S
C3225 N3222 1.350 . S
C3225 C3224 1.434 . S
C3226 C3227 1.369 . S
C3226 C3228 1.419 . S
C3226 H3230 0.930 . S
C3227 C3226 1.369 . S
C3227 C3236 1.429 . S
C3228 C3226 1.419 . S
C3228 C3229 1.363 . S
C3228 H3231 0.929 . S
C3229 C3228 1.363 . S
C3229 C3235 1.428 . S
H3230 C3226 0.930 . S
H3231 C3228 0.929 . S
S3232 N3233 1.613 . S
S3232 N3234 1.610 . S
N3233 S3232 1.613 . S
N3233 C3236 1.350 . S
N3234 S3232 1.610 . S
N3234 C3235 1.351 . S
C3235 C3229 1.428 . S
C3235 N3234 1.351 . S
C3235 C3236 1.434 . S
C3236 C3227 1.429 . S
C3236 N3233 1.350 . S
C3236 C3235 1.434 . S
C3237 C3238 1.369 . S
C3237 C3239 1.419 . S
C3237 H3241 0.930 . S
C3238 C3237 1.369 . S
C3238 C3247 1.429 . S
C3239 C3237 1.419 . S
C3239 C3240 1.363 . S
C3239 H3242 0.929 . S
C3240 C3239 1.363 . S
C3240 C3246 1.428 . S
H3241 C3237 0.930 . S
H3242 C3239 0.929 . S
S3243 N3244 1.613 . S
S3243 N3245 1.610 . S
N3244 S3243 1.613 . S
N3244 C3247 1.350 . S
N3245 S3243 1.610 . S
N3245 C3246 1.351 . S
C3246 C3240 1.428 . S
C3246 N3245 1.351 . S
C3246 C3247 1.434 . S
C3247 C3238 1.429 . S
C3247 N3244 1.350 . S
C3247 C3246 1.434 . S
C3248 C3249 1.369 . S
C3248 C3250 1.419 . S
C3248 H3252 0.930 . S
C3249 C3248 1.369 . S
C3249 C3258 1.429 . S
C3250 C3248 1.419 . S
C3250 C3251 1.363 . S
C3250 H3253 0.929 . S
C3251 C3250 1.363 . S
C3251 C3257 1.428 . S
H3252 C3248 0.930 . S
H3253 C3250 0.929 . S
S3254 N3255 1.613 . S
S3254 N3256 1.610 . S
N3255 S3254 1.613 . S
N3255 C3258 1.350 . S
N3256 S3254 1.610 . S
N3256 C3257 1.351 . S
C3257 C3251 1.428 . S
C3257 N3256 1.351 . S
C3257 C3258 1.434 . S
C3258 C3249 1.429 . S
C3258 N3255 1.350 . S
C3258 C3257 1.434 . S
C3259 C3260 1.369 . S
C3259 C3261 1.419 . S
C3259 H3263 0.930 . S
C3260 C3259 1.369 . S
C3260 C3269 1.429 . S
C3261 C3259 1.419 . S
C3261 C3262 1.363 . S
C3261 H3264 0.929 . S
C3262 C3261 1.363 . S
C3262 C3268 1.428 . S
H3263 C3259 0.930 . S
H3264 C3261 0.929 . S
S3265 N3266 1.613 . S
S3265 N3267 1.610 . S
N3266 S3265 1.613 . S
N3266 C3269 1.350 . S
N3267 S3265 1.610 . S
N3267 C3268 1.351 . S
C3268 C3262 1.428 . S
C3268 N3267 1.351 . S
C3268 C3269 1.434 . S
C3269 C3260 1.429 . S
C3269 N3266 1.350 . S
C3269 C3268 1.434 . S
C3270 C3271 1.369 . S
C3270 C3272 1.419 . S
C3270 H3274 0.930 . S
C3271 C3270 1.369 . S
C3271 C3280 1.429 . S
C3272 C3270 1.419 . S
C3272 C3273 1.363 . S
C3272 H3275 0.929 . S
C3273 C3272 1.363 . S
C3273 C3279 1.428 . S
H3274 C3270 0.930 . S
H3275 C3272 0.929 . S
S3276 N3277 1.613 . S
S3276 N3278 1.610 . S
N3277 S3276 1.613 . S
N3277 C3280 1.350 . S
N3278 S3276 1.610 . S
N3278 C3279 1.351 . S
C3279 C3273 1.428 . S
C3279 N3278 1.351 . S
C3279 C3280 1.434 . S
C3280 C3271 1.429 . S
C3280 N3277 1.350 . S
C3280 C3279 1.434 . S
C3281 C3282 1.369 . S
C3281 C3283 1.419 . S
C3281 H3285 0.930 . S
C3282 C3281 1.369 . S
C3282 C3291 1.429 . S
C3283 C3281 1.419 . S
C3283 C3284 1.363 . S
C3283 H3286 0.929 . S
C3284 C3283 1.363 . S
C3284 C3290 1.428 . S
H3285 C3281 0.930 . S
H3286 C3283 0.929 . S
S3287 N3288 1.613 . S
S3287 N3289 1.610 . S
N3288 S3287 1.613 . S
N3288 C3291 1.350 . S
N3289 S3287 1.610 . S
N3289 C3290 1.351 . S
C3290 C3284 1.428 . S
C3290 N3289 1.351 . S
C3290 C3291 1.434 . S
C3291 C3282 1.429 . S
C3291 N3288 1.350 . S
C3291 C3290 1.434 . S
C3292 C3293 1.369 . S
C3292 C3294 1.419 . S
C3292 H3296 0.930 . S
C3293 C3292 1.369 . S
C3293 C3302 1.429 . S
C3294 C3292 1.419 . S
C3294 C3295 1.363 . S
C3294 H3297 0.929 . S
C3295 C3294 1.363 . S
C3295 C3301 1.428 . S
H3296 C3292 0.930 . S
H3297 C3294 0.929 . S
S3298 N3299 1.613 . S
S3298 N3300 1.610 . S
N3299 S3298 1.613 . S
N3299 C3302 1.350 . S
N3300 S3298 1.610 . S
N3300 C3301 1.351 . S
C3301 C3295 1.428 . S
C3301 N3300 1.351 . S
C3301 C3302 1.434 . S
C3302 C3293 1.429 . S
C3302 N3299 1.350 . S
C3302 C3301 1.434 . S
C3303 C3304 1.369 . S
C3303 C3305 1.419 . S
C3303 H3307 0.930 . S
C3304 C3303 1.369 . S
C3304 C3313 1.429 . S
C3305 C3303 1.419 . S
C3305 C3306 1.363 . S
C3305 H3308 0.929 . S
C3306 C3305 1.363 . S
C3306 C3312 1.428 . S
H3307 C3303 0.930 . S
H3308 C3305 0.929 . S
S3309 N3310 1.613 . S
S3309 N3311 1.610 . S
N3310 S3309 1.613 . S
N3310 C3313 1.350 . S
N3311 S3309 1.610 . S
N3311 C3312 1.351 . S
C3312 C3306 1.428 . S
C3312 N3311 1.351 . S
C3312 C3313 1.434 . S
C3313 C3304 1.429 . S
C3313 N3310 1.350 . S
C3313 C3312 1.434 . S
C3314 C3315 1.369 . S
C3314 C3316 1.419 . S
C3314 H3318 0.930 . S
C3315 C3314 1.369 . S
C3315 C3324 1.429 . S
C3316 C3314 1.419 . S
C3316 C3317 1.363 . S
C3316 H3319 0.929 . S
C3317 C3316 1.363 . S
C3317 C3323 1.428 . S
H3318 C3314 0.930 . S
H3319 C3316 0.929 . S
S3320 N3321 1.613 . S
S3320 N3322 1.610 . S
N3321 S3320 1.613 . S
N3321 C3324 1.350 . S
N3322 S3320 1.610 . S
N3322 C3323 1.351 . S
C3323 C3317 1.428 . S
C3323 N3322 1.351 . S
C3323 C3324 1.434 . S
C3324 C3315 1.429 . S
C3324 N3321 1.350 . S
C3324 C3323 1.434 . S
C3325 C3326 1.369 . S
C3325 C3327 1.419 . S
C3325 H3329 0.930 . S
C3326 C3325 1.369 . S
C3326 C3335 1.429 . S
C3327 C3325 1.419 . S
C3327 C3328 1.363 . S
C3327 H3330 0.929 . S
C3328 C3327 1.363 . S
C3328 C3334 1.428 . S
H3329 C3325 0.930 . S
H3330 C3327 0.929 . S
S3331 N3332 1.613 . S
S3331 N3333 1.610 . S
N3332 S3331 1.613 . S
N3332 C3335 1.350 . S
N3333 S3331 1.610 . S
N3333 C3334 1.351 . S
C3334 C3328 1.428 . S
C3334 N3333 1.351 . S
C3334 C3335 1.434 . S
C3335 C3326 1.429 . S
C3335 N3332 1.350 . S
C3335 C3334 1.434 . S
C3336 C3337 1.369 . S
C3336 C3338 1.419 . S
C3336 H3340 0.930 . S
C3337 C3336 1.369 . S
C3337 C3346 1.429 . S
C3338 C3336 1.419 . S
C3338 C3339 1.363 . S
C3338 H3341 0.929 . S
C3339 C3338 1.363 . S
C3339 C3345 1.428 . S
H3340 C3336 0.930 . S
H3341 C3338 0.929 . S
S3342 N3343 1.613 . S
S3342 N3344 1.610 . S
N3343 S3342 1.613 . S
N3343 C3346 1.350 . S
N3344 S3342 1.610 . S
N3344 C3345 1.351 . S
C3345 C3339 1.428 . S
C3345 N3344 1.351 . S
C3345 C3346 1.434 . S
C3346 C3337 1.429 . S
C3346 N3343 1.350 . S
C3346 C3345 1.434 . S
C3347 C3348 1.369 . S
C3347 C3349 1.419 . S
C3347 H3351 0.930 . S
C3348 C3347 1.369 . S
C3348 C3357 1.429 . S
C3349 C3347 1.419 . S
C3349 C3350 1.363 . S
C3349 H3352 0.929 1_655 S
C3350 C3349 1.363 . S
C3350 C3356 1.428 . S
H3351 C3347 0.930 . S
H3352 C3349 0.929 1_455 S
S3353 N3354 1.613 . S
S3353 N3355 1.610 . S
N3354 S3353 1.613 . S
N3354 C3357 1.350 . S
N3355 S3353 1.610 . S
N3355 C3356 1.351 . S
C3356 C3350 1.428 . S
C3356 N3355 1.351 . S
C3356 C3357 1.434 . S
C3357 C3348 1.429 . S
C3357 N3354 1.350 . S
C3357 C3356 1.434 . S
C3358 C3359 1.369 . S
C3358 C3360 1.419 1_565 S
C3358 H3362 0.930 1_565 S
C3359 C3358 1.369 . S
C3359 C3368 1.429 . S
C3360 C3358 1.419 1_545 S
C3360 C3361 1.363 1_545 S
C3360 H3363 0.929 . S
C3361 C3360 1.363 1_565 S
C3361 C3367 1.428 . S
H3362 C3358 0.930 1_545 S
H3363 C3360 0.929 . S
S3364 N3365 1.613 . S
S3364 N3366 1.610 . S
N3365 S3364 1.613 . S
N3365 C3368 1.350 . S
N3366 S3364 1.610 . S
N3366 C3367 1.351 . S
C3367 C3361 1.428 . S
C3367 N3366 1.351 . S
C3367 C3368 1.434 . S
C3368 C3359 1.429 . S
C3368 N3365 1.350 . S
C3368 C3367 1.434 . S
C3369 C3370 1.369 . S
C3369 C3371 1.419 . S
C3369 H3373 0.930 . S
C3370 C3369 1.369 . S
C3370 C3379 1.429 . S
C3371 C3369 1.419 . S
C3371 C3372 1.363 . S
C3371 H3374 0.929 . S
C3372 C3371 1.363 . S
C3372 C3378 1.428 . S
H3373 C3369 0.930 . S
H3374 C3371 0.929 . S
S3375 N3376 1.613 . S
S3375 N3377 1.610 . S
N3376 S3375 1.613 . S
N3376 C3379 1.350 . S
N3377 S3375 1.610 . S
N3377 C3378 1.351 . S
C3378 C3372 1.428 . S
C3378 N3377 1.351 . S
C3378 C3379 1.434 . S
C3379 C3370 1.429 . S
C3379 N3376 1.350 . S
C3379 C3378 1.434 . S
C3380 C3381 1.369 . S
C3380 C3382 1.419 . S
C3380 H3384 0.930 . S
C3381 C3380 1.369 . S
C3381 C3390 1.429 . S
C3382 C3380 1.419 . S
C3382 C3383 1.363 . S
C3382 H3385 0.929 . S
C3383 C3382 1.363 . S
C3383 C3389 1.428 . S
H3384 C3380 0.930 . S
H3385 C3382 0.929 . S
S3386 N3387 1.613 . S
S3386 N3388 1.610 . S
N3387 S3386 1.613 . S
N3387 C3390 1.350 . S
N3388 S3386 1.610 . S
N3388 C3389 1.351 . S
C3389 C3383 1.428 . S
C3389 N3388 1.351 . S
C3389 C3390 1.434 . S
C3390 C3381 1.429 . S
C3390 N3387 1.350 . S
C3390 C3389 1.434 . S
C3391 C3392 1.369 . S
C3391 C3393 1.419 . S
C3391 H3395 0.930 . S
C3392 C3391 1.369 . S
C3392 C3401 1.429 . S
C3393 C3391 1.419 . S
C3393 C3394 1.363 . S
C3393 H3396 0.929 . S
C3394 C3393 1.363 . S
C3394 C3400 1.428 . S
H3395 C3391 0.930 . S
H3396 C3393 0.929 . S
S3397 N3398 1.613 . S
S3397 N3399 1.610 . S
N3398 S3397 1.613 . S
N3398 C3401 1.350 . S
N3399 S3397 1.610 . S
N3399 C3400 1.351 . S
C3400 C3394 1.428 . S
C3400 N3399 1.351 . S
C3400 C3401 1.434 . S
C3401 C3392 1.429 . S
C3401 N3398 1.350 . S
C3401 C3400 1.434 . S
C3402 C3403 1.369 . S
C3402 C3404 1.419 . S
C3402 H3406 0.930 . S
C3403 C3402 1.369 . S
C3403 C3412 1.429 . S
C3404 C3402 1.419 . S
C3404 C3405 1.363 . S
C3404 H3407 0.929 . S
C3405 C3404 1.363 . S
C3405 C3411 1.428 . S
H3406 C3402 0.930 . S
H3407 C3404 0.929 . S
S3408 N3409 1.613 . S
S3408 N3410 1.610 . S
N3409 S3408 1.613 . S
N3409 C3412 1.350 . S
N3410 S3408 1.610 . S
N3410 C3411 1.351 . S
C3411 C3405 1.428 . S
C3411 N3410 1.351 . S
C3411 C3412 1.434 . S
C3412 C3403 1.429 . S
C3412 N3409 1.350 . S
C3412 C3411 1.434 . S
C3413 C3414 1.369 . S
C3413 C3415 1.419 . S
C3413 H3417 0.930 . S
C3414 C3413 1.369 . S
C3414 C3423 1.429 . S
C3415 C3413 1.419 . S
C3415 C3416 1.363 . S
C3415 H3418 0.929 . S
C3416 C3415 1.363 . S
C3416 C3422 1.428 . S
H3417 C3413 0.930 . S
H3418 C3415 0.929 . S
S3419 N3420 1.613 . S
S3419 N3421 1.610 . S
N3420 S3419 1.613 . S
N3420 C3423 1.350 . S
N3421 S3419 1.610 . S
N3421 C3422 1.351 . S
C3422 C3416 1.428 . S
C3422 N3421 1.351 . S
C3422 C3423 1.434 . S
C3423 C3414 1.429 . S
C3423 N3420 1.350 . S
C3423 C3422 1.434 . S
C3424 C3425 1.369 . S
C3424 C3426 1.419 . S
C3424 H3428 0.930 . S
C3425 C3424 1.369 . S
C3425 C3434 1.429 . S
C3426 C3424 1.419 . S
C3426 C3427 1.363 . S
C3426 H3429 0.929 . S
C3427 C3426 1.363 . S
C3427 C3433 1.428 . S
H3428 C3424 0.930 . S
H3429 C3426 0.929 . S
S3430 N3431 1.613 . S
S3430 N3432 1.610 . S
N3431 S3430 1.613 . S
N3431 C3434 1.350 . S
N3432 S3430 1.610 . S
N3432 C3433 1.351 . S
C3433 C3427 1.428 . S
C3433 N3432 1.351 . S
C3433 C3434 1.434 . S
C3434 C3425 1.429 . S
C3434 N3431 1.350 . S
C3434 C3433 1.434 . S
C3435 C3436 1.369 . S
C3435 C3437 1.419 . S
C3435 H3439 0.930 1_565 S
C3436 C3435 1.369 . S
C3436 C3445 1.429 . S
C3437 C3435 1.419 . S
C3437 C3438 1.363 . S
C3437 H3440 0.920 1_655 S
C3438 C3437 1.363 . S
C3438 C3444 1.428 . S
H3439 C3435 0.930 1_545 S
H3440 C3437 0.920 1_455 S
S3441 N3442 1.613 . S
S3441 N3443 1.610 . S
N3442 S3441 1.613 . S
N3442 C3445 1.350 . S
N3443 S3441 1.610 . S
N3443 C3444 1.351 . S
C3444 C3438 1.428 . S
C3444 N3443 1.351 . S
C3444 C3445 1.434 . S
C3445 C3436 1.429 . S
C3445 N3442 1.350 . S
C3445 C3444 1.434 . S
C3446 C3447 1.369 . S
C3446 C3448 1.419 . S
C3446 H3450 0.930 . S
C3447 C3446 1.369 . S
C3447 C3456 1.429 . S
C3448 C3446 1.419 . S
C3448 C3449 1.363 . S
C3448 H3451 0.929 . S
C3449 C3448 1.363 . S
C3449 C3455 1.428 . S
H3450 C3446 0.930 . S
H3451 C3448 0.929 . S
S3452 N3453 1.613 . S
S3452 N3454 1.610 . S
N3453 S3452 1.613 . S
N3453 C3456 1.350 . S
N3454 S3452 1.610 . S
N3454 C3455 1.351 . S
C3455 C3449 1.428 . S
C3455 N3454 1.351 . S
C3455 C3456 1.434 . S
C3456 C3447 1.429 . S
C3456 N3453 1.350 . S
C3456 C3455 1.434 . S
C3457 C3458 1.369 . S
C3457 C3459 1.419 . S
C3457 H3461 0.930 . S
C3458 C3457 1.369 . S
C3458 C3467 1.429 . S
C3459 C3457 1.419 . S
C3459 C3460 1.363 . S
C3459 H3462 0.929 . S
C3460 C3459 1.363 . S
C3460 C3466 1.428 . S
H3461 C3457 0.930 . S
H3462 C3459 0.929 . S
S3463 N3464 1.613 . S
S3463 N3465 1.610 . S
N3464 S3463 1.613 . S
N3464 C3467 1.350 . S
N3465 S3463 1.610 . S
N3465 C3466 1.351 . S
C3466 C3460 1.428 . S
C3466 N3465 1.351 . S
C3466 C3467 1.434 . S
C3467 C3458 1.429 . S
C3467 N3464 1.350 . S
C3467 C3466 1.434 . S
C3468 C3469 1.369 . S
C3468 C3470 1.419 . S
C3468 H3472 0.930 . S
C3469 C3468 1.369 . S
C3469 C3478 1.429 . S
C3470 C3468 1.419 . S
C3470 C3471 1.363 . S
C3470 H3473 0.929 . S
C3471 C3470 1.363 . S
C3471 C3477 1.428 . S
H3472 C3468 0.930 . S
H3473 C3470 0.929 . S
S3474 N3475 1.613 . S
S3474 N3476 1.610 . S
N3475 S3474 1.613 . S
N3475 C3478 1.350 . S
N3476 S3474 1.610 . S
N3476 C3477 1.351 . S
C3477 C3471 1.428 . S
C3477 N3476 1.351 . S
C3477 C3478 1.434 . S
C3478 C3469 1.429 . S
C3478 N3475 1.350 . S
C3478 C3477 1.434 . S
C3479 C3480 1.369 . S
C3479 C3481 1.419 . S
C3479 H3483 0.930 . S
C3480 C3479 1.369 . S
C3480 C3489 1.429 . S
C3481 C3479 1.419 . S
C3481 C3482 1.363 . S
C3481 H3484 0.929 . S
C3482 C3481 1.363 . S
C3482 C3488 1.428 . S
H3483 C3479 0.930 . S
H3484 C3481 0.929 . S
S3485 N3486 1.613 . S
S3485 N3487 1.610 . S
N3486 S3485 1.613 . S
N3486 C3489 1.350 . S
N3487 S3485 1.610 . S
N3487 C3488 1.351 . S
C3488 C3482 1.428 . S
C3488 N3487 1.351 . S
C3488 C3489 1.434 . S
C3489 C3480 1.429 . S
C3489 N3486 1.350 . S
C3489 C3488 1.434 . S
C3490 C3491 1.369 . S
C3490 C3492 1.419 . S
C3490 H3494 0.930 . S
C3491 C3490 1.369 . S
C3491 C3500 1.429 . S
C3492 C3490 1.419 . S
C3492 C3493 1.363 . S
C3492 H3495 0.929 . S
C3493 C3492 1.363 . S
C3493 C3499 1.428 . S
H3494 C3490 0.930 . S
H3495 C3492 0.929 . S
S3496 N3497 1.613 . S
S3496 N3498 1.610 . S
N3497 S3496 1.613 . S
N3497 C3500 1.350 . S
N3498 S3496 1.610 . S
N3498 C3499 1.351 . S
C3499 C3493 1.428 . S
C3499 N3498 1.351 . S
C3499 C3500 1.434 . S
C3500 C3491 1.429 . S
C3500 N3497 1.350 . S
C3500 C3499 1.434 . S
C3501 C3502 1.369 . S
C3501 C3503 1.419 . S
C3501 H3505 0.930 . S
C3502 C3501 1.369 . S
C3502 C3511 1.429 . S
C3503 C3501 1.419 . S
C3503 C3504 1.363 . S
C3503 H3506 0.929 . S
C3504 C3503 1.363 . S
C3504 C3510 1.428 . S
H3505 C3501 0.930 . S
H3506 C3503 0.929 . S
S3507 N3508 1.613 . S
S3507 N3509 1.610 . S
N3508 S3507 1.613 . S
N3508 C3511 1.350 . S
N3509 S3507 1.610 . S
N3509 C3510 1.351 . S
C3510 C3504 1.428 . S
C3510 N3509 1.351 . S
C3510 C3511 1.434 . S
C3511 C3502 1.429 . S
C3511 N3508 1.350 . S
C3511 C3510 1.434 . S
C3512 C3513 1.369 . S
C3512 C3514 1.419 . S
C3512 H3516 0.930 . S
C3513 C3512 1.369 . S
C3513 C3522 1.429 . S
C3514 C3512 1.419 . S
C3514 C3515 1.363 . S
C3514 H3517 0.929 . S
C3515 C3514 1.363 . S
C3515 C3521 1.428 . S
H3516 C3512 0.930 . S
H3517 C3514 0.929 . S
S3518 N3519 1.613 . S
S3518 N3520 1.610 . S
N3519 S3518 1.613 . S
N3519 C3522 1.350 . S
N3520 S3518 1.610 . S
N3520 C3521 1.351 . S
C3521 C3515 1.428 . S
C3521 N3520 1.351 . S
C3521 C3522 1.434 . S
C3522 C3513 1.429 . S
C3522 N3519 1.350 . S
C3522 C3521 1.434 . S
C3523 C3524 1.369 . S
C3523 C3525 1.419 1_565 S
C3523 H3527 0.930 . S
C3524 C3523 1.369 . S
C3524 C3533 1.429 . S
C3525 C3523 1.419 1_545 S
C3525 C3526 1.363 1_545 S
C3525 H3528 0.929 . S
C3526 C3525 1.363 1_565 S
C3526 C3532 1.428 . S
H3527 C3523 0.930 . S
H3528 C3525 0.929 . S
S3529 N3530 1.613 . S
S3529 N3531 1.610 . S
N3530 S3529 1.613 . S
N3530 C3533 1.350 . S
N3531 S3529 1.610 . S
N3531 C3532 1.351 . S
C3532 C3526 1.428 . S
C3532 N3531 1.351 . S
C3532 C3533 1.434 . S
C3533 C3524 1.429 . S
C3533 N3530 1.350 . S
C3533 C3532 1.434 . S
C3534 C3535 1.369 . S
C3534 C3536 1.419 . S
C3534 H3538 0.930 1_655 S
C3535 C3534 1.369 . S
C3535 C3544 1.429 . S
C3536 C3534 1.419 . S
C3536 C3537 1.363 . S
C3536 H3539 0.929 . S
C3537 C3536 1.363 . S
C3537 C3543 1.428 . S
H3538 C3534 0.930 1_455 S
H3539 C3536 0.929 . S
S3540 N3541 1.613 . S
S3540 N3542 1.610 . S
N3541 S3540 1.613 . S
N3541 C3544 1.350 . S
N3542 S3540 1.610 . S
N3542 C3543 1.351 . S
C3543 C3537 1.428 . S
C3543 N3542 1.351 . S
C3543 C3544 1.434 . S
C3544 C3535 1.429 . S
C3544 N3541 1.350 . S
C3544 C3543 1.434 . S
C3545 C3546 1.369 . S
C3545 C3547 1.419 . S
C3545 H3549 0.930 . S
C3546 C3545 1.369 . S
C3546 C3555 1.429 . S
C3547 C3545 1.419 . S
C3547 C3548 1.363 . S
C3547 H3550 0.929 . S
C3548 C3547 1.363 . S
C3548 C3554 1.428 . S
H3549 C3545 0.930 . S
H3550 C3547 0.929 . S
S3551 N3552 1.613 . S
S3551 N3553 1.610 . S
N3552 S3551 1.613 . S
N3552 C3555 1.350 . S
N3553 S3551 1.610 . S
N3553 C3554 1.351 . S
C3554 C3548 1.428 . S
C3554 N3553 1.351 . S
C3554 C3555 1.434 . S
C3555 C3546 1.429 . S
C3555 N3552 1.350 . S
C3555 C3554 1.434 . S
C3556 C3557 1.369 . S
C3556 C3558 1.419 . S
C3556 H3560 0.930 . S
C3557 C3556 1.369 . S
C3557 C3566 1.429 . S
C3558 C3556 1.419 . S
C3558 C3559 1.363 . S
C3558 H3561 0.929 . S
C3559 C3558 1.363 . S
C3559 C3565 1.428 . S
H3560 C3556 0.930 . S
H3561 C3558 0.929 . S
S3562 N3563 1.613 . S
S3562 N3564 1.610 . S
N3563 S3562 1.613 . S
N3563 C3566 1.350 . S
N3564 S3562 1.610 . S
N3564 C3565 1.351 . S
C3565 C3559 1.428 . S
C3565 N3564 1.351 . S
C3565 C3566 1.434 . S
C3566 C3557 1.429 . S
C3566 N3563 1.350 . S
C3566 C3565 1.434 . S
C3567 C3568 1.369 . S
C3567 C3569 1.419 . S
C3567 H3571 0.930 . S
C3568 C3567 1.369 . S
C3568 C3577 1.429 . S
C3569 C3567 1.419 . S
C3569 C3570 1.363 . S
C3569 H3572 0.929 . S
C3570 C3569 1.363 . S
C3570 C3576 1.428 . S
H3571 C3567 0.930 . S
H3572 C3569 0.929 . S
S3573 N3574 1.613 . S
S3573 N3575 1.610 . S
N3574 S3573 1.613 . S
N3574 C3577 1.350 . S
N3575 S3573 1.610 . S
N3575 C3576 1.351 . S
C3576 C3570 1.428 . S
C3576 N3575 1.351 . S
C3576 C3577 1.434 . S
C3577 C3568 1.429 . S
C3577 N3574 1.350 . S
C3577 C3576 1.434 . S
C3578 C3579 1.369 . S
C3578 C3580 1.419 . S
C3578 H3582 0.930 . S
C3579 C3578 1.369 . S
C3579 C3588 1.429 . S
C3580 C3578 1.419 . S
C3580 C3581 1.363 . S
C3580 H3583 0.929 . S
C3581 C3580 1.363 . S
C3581 C3587 1.428 . S
H3582 C3578 0.930 . S
H3583 C3580 0.929 . S
S3584 N3585 1.613 . S
S3584 N3586 1.610 . S
N3585 S3584 1.613 . S
N3585 C3588 1.350 . S
N3586 S3584 1.610 . S
N3586 C3587 1.351 . S
C3587 C3581 1.428 . S
C3587 N3586 1.351 . S
C3587 C3588 1.434 . S
C3588 C3579 1.429 . S
C3588 N3585 1.350 . S
C3588 C3587 1.434 . S
C3589 C3590 1.369 . S
C3589 C3591 1.419 . S
C3589 H3593 0.930 . S
C3590 C3589 1.369 . S
C3590 C3599 1.429 . S
C3591 C3589 1.419 . S
C3591 C3592 1.363 . S
C3591 H3594 0.929 . S
C3592 C3591 1.363 . S
C3592 C3598 1.428 . S
H3593 C3589 0.930 . S
H3594 C3591 0.929 . S
S3595 N3596 1.613 . S
S3595 N3597 1.610 . S
N3596 S3595 1.613 . S
N3596 C3599 1.350 . S
N3597 S3595 1.610 . S
N3597 C3598 1.351 . S
C3598 C3592 1.428 . S
C3598 N3597 1.351 . S
C3598 C3599 1.434 . S
C3599 C3590 1.429 . S
C3599 N3596 1.350 . S
C3599 C3598 1.434 . S
C3600 C3601 1.369 . S
C3600 C3602 1.419 . S
C3600 H3604 0.930 . S
C3601 C3600 1.369 . S
C3601 C3610 1.429 . S
C3602 C3600 1.419 . S
C3602 C3603 1.363 . S
C3602 H3605 0.929 . S
C3603 C3602 1.363 . S
C3603 C3609 1.428 . S
H3604 C3600 0.930 . S
H3605 C3602 0.929 . S
S3606 N3607 1.613 . S
S3606 N3608 1.610 . S
N3607 S3606 1.613 . S
N3607 C3610 1.350 . S
N3608 S3606 1.610 . S
N3608 C3609 1.351 . S
C3609 C3603 1.428 . S
C3609 N3608 1.351 . S
C3609 C3610 1.434 . S
C3610 C3601 1.429 . S
C3610 N3607 1.350 . S
C3610 C3609 1.434 . S
C3611 C3612 1.369 . S
C3611 C3613 1.419 1_455 S
C3611 H3615 0.930 1_455 S
C3612 C3611 1.369 . S
C3612 C3621 1.429 . S
C3613 C3611 1.419 1_655 S
C3613 C3614 1.363 1_655 S
C3613 H3616 0.929 . S
C3614 C3613 1.363 1_455 S
C3614 C3620 1.428 . S
H3615 C3611 0.930 1_655 S
H3616 C3613 0.929 . S
S3617 N3618 1.613 . S
S3617 N3619 1.610 . S
N3618 S3617 1.613 . S
N3618 C3621 1.350 . S
N3619 S3617 1.610 . S
N3619 C3620 1.351 . S
C3620 C3614 1.428 . S
C3620 N3619 1.351 . S
C3620 C3621 1.434 . S
C3621 C3612 1.429 . S
C3621 N3618 1.350 . S
C3621 C3620 1.434 . S
C3622 C3623 1.369 . S
C3622 C3624 1.419 . S
C3622 H3626 0.930 . S
C3623 C3622 1.369 . S
C3623 C3632 1.429 . S
C3624 C3622 1.419 . S
C3624 C3625 1.363 . S
C3624 H3627 0.929 . S
C3625 C3624 1.363 . S
C3625 C3631 1.428 . S
H3626 C3622 0.930 . S
H3627 C3624 0.929 . S
S3628 N3629 1.613 . S
S3628 N3630 1.610 . S
N3629 S3628 1.613 . S
N3629 C3632 1.350 . S
N3630 S3628 1.610 . S
N3630 C3631 1.351 . S
C3631 C3625 1.428 . S
C3631 N3630 1.351 . S
C3631 C3632 1.434 . S
C3632 C3623 1.429 . S
C3632 N3629 1.350 . S
C3632 C3631 1.434 . S
C3633 C3634 1.369 . S
C3633 C3635 1.419 . S
C3633 H3637 0.930 . S
C3634 C3633 1.369 . S
C3634 C3643 1.429 . S
C3635 C3633 1.419 . S
C3635 C3636 1.363 . S
C3635 H3638 0.929 . S
C3636 C3635 1.363 . S
C3636 C3642 1.428 . S
H3637 C3633 0.930 . S
H3638 C3635 0.929 . S
S3639 N3640 1.613 . S
S3639 N3641 1.610 . S
N3640 S3639 1.613 . S
N3640 C3643 1.350 . S
N3641 S3639 1.610 . S
N3641 C3642 1.351 . S
C3642 C3636 1.428 . S
C3642 N3641 1.351 . S
C3642 C3643 1.434 . S
C3643 C3634 1.429 . S
C3643 N3640 1.350 . S
C3643 C3642 1.434 . S
C3644 C3645 1.369 . S
C3644 C3646 1.419 . S
C3644 H3648 0.930 . S
C3645 C3644 1.369 . S
C3645 C3654 1.429 . S
C3646 C3644 1.419 . S
C3646 C3647 1.363 . S
C3646 H3649 0.929 . S
C3647 C3646 1.363 . S
C3647 C3653 1.428 . S
H3648 C3644 0.930 . S
H3649 C3646 0.929 . S
S3650 N3651 1.613 . S
S3650 N3652 1.610 . S
N3651 S3650 1.613 . S
N3651 C3654 1.350 . S
N3652 S3650 1.610 . S
N3652 C3653 1.351 . S
C3653 C3647 1.428 . S
C3653 N3652 1.351 . S
C3653 C3654 1.434 . S
C3654 C3645 1.429 . S
C3654 N3651 1.350 . S
C3654 C3653 1.434 . S
C3655 C3656 1.369 . S
C3655 C3657 1.419 . S
C3655 H3659 0.930 . S
C3656 C3655 1.369 . S
C3656 C3665 1.429 . S
C3657 C3655 1.419 . S
C3657 C3658 1.363 . S
C3657 H3660 0.929 . S
C3658 C3657 1.363 . S
C3658 C3664 1.428 . S
H3659 C3655 0.930 . S
H3660 C3657 0.929 . S
S3661 N3662 1.613 . S
S3661 N3663 1.610 . S
N3662 S3661 1.613 . S
N3662 C3665 1.350 . S
N3663 S3661 1.610 . S
N3663 C3664 1.351 . S
C3664 C3658 1.428 . S
C3664 N3663 1.351 . S
C3664 C3665 1.434 . S
C3665 C3656 1.429 . S
C3665 N3662 1.350 . S
C3665 C3664 1.434 . S
C3666 C3667 1.369 . S
C3666 C3668 1.419 . S
C3666 H3670 0.930 . S
C3667 C3666 1.369 . S
C3667 C3676 1.429 . S
C3668 C3666 1.419 . S
C3668 C3669 1.363 . S
C3668 H3671 0.929 . S
C3669 C3668 1.363 . S
C3669 C3675 1.428 . S
H3670 C3666 0.930 . S
H3671 C3668 0.929 . S
S3672 N3673 1.613 . S
S3672 N3674 1.610 1_565 S
N3673 S3672 1.613 . S
N3673 C3676 1.350 1_565 S
N3674 S3672 1.610 1_545 S
N3674 C3675 1.351 . S
C3675 C3669 1.428 . S
C3675 N3674 1.351 . S
C3675 C3676 1.434 . S
C3676 C3667 1.429 . S
C3676 N3673 1.350 1_545 S
C3676 C3675 1.434 . S
C3677 C3678 1.369 . S
C3677 C3679 1.419 . S
C3677 H3681 0.930 . S
C3678 C3677 1.369 . S
C3678 C3687 1.429 . S
C3679 C3677 1.419 . S
C3679 C3680 1.363 . S
C3679 H3682 0.929 . S
C3680 C3679 1.363 . S
C3680 C3686 1.428 . S
H3681 C3677 0.930 . S
H3682 C3679 0.929 . S
S3683 N3684 1.613 . S
S3683 N3685 1.610 . S
N3684 S3683 1.613 . S
N3684 C3687 1.350 . S
N3685 S3683 1.610 . S
N3685 C3686 1.351 . S
C3686 C3680 1.428 . S
C3686 N3685 1.351 . S
C3686 C3687 1.434 . S
C3687 C3678 1.429 . S
C3687 N3684 1.350 . S
C3687 C3686 1.434 . S
C3688 C3689 1.369 . S
C3688 C3690 1.419 . S
C3688 H3692 0.930 . S
C3689 C3688 1.369 . S
C3689 C3698 1.429 . S
C3690 C3688 1.419 . S
C3690 C3691 1.363 . S
C3690 H3693 0.929 . S
C3691 C3690 1.363 . S
C3691 C3697 1.428 . S
H3692 C3688 0.930 . S
H3693 C3690 0.929 . S
S3694 N3695 1.613 . S
S3694 N3696 1.610 . S
N3695 S3694 1.613 . S
N3695 C3698 1.350 . S
N3696 S3694 1.610 . S
N3696 C3697 1.351 . S
C3697 C3691 1.428 . S
C3697 N3696 1.351 . S
C3697 C3698 1.434 . S
C3698 C3689 1.429 . S
C3698 N3695 1.350 . S
C3698 C3697 1.434 . S
C3699 C3700 1.369 . S
C3699 C3701 1.419 . S
C3699 H3703 0.930 . S
C3700 C3699 1.369 . S
C3700 C3709 1.429 . S
C3701 C3699 1.419 . S
C3701 C3702 1.363 . S
C3701 H3704 0.929 . S
C3702 C3701 1.363 . S
C3702 C3708 1.428 1_455 S
H3703 C3699 0.930 . S
H3704 C3701 0.929 . S
S3705 N3706 1.613 . S
S3705 N3707 1.610 . S
N3706 S3705 1.613 . S
N3706 C3709 1.350 1_655 S
N3707 S3705 1.610 . S
N3707 C3708 1.351 . S
C3708 C3702 1.428 1_655 S
C3708 N3707 1.351 . S
C3708 C3709 1.434 1_655 S
C3709 C3700 1.429 . S
C3709 N3706 1.350 1_455 S
C3709 C3708 1.434 1_455 S
C3710 C3711 1.369 . S
C3710 C3712 1.419 . S
C3710 H3714 0.930 . S
C3711 C3710 1.369 . S
C3711 C3720 1.429 . S
C3712 C3710 1.419 . S
C3712 C3713 1.363 . S
C3712 H3715 0.929 . S
C3713 C3712 1.363 . S
C3713 C3719 1.428 . S
H3714 C3710 0.930 . S
H3715 C3712 0.929 . S
S3716 N3717 1.613 . S
S3716 N3718 1.610 . S
N3717 S3716 1.613 . S
N3717 C3720 1.350 . S
N3718 S3716 1.610 . S
N3718 C3719 1.351 . S
C3719 C3713 1.428 . S
C3719 N3718 1.351 . S
C3719 C3720 1.434 . S
C3720 C3711 1.429 . S
C3720 N3717 1.350 . S
C3720 C3719 1.434 . S
C3721 C3722 1.369 . S
C3721 C3723 1.419 . S
C3721 H3725 0.930 . S
C3722 C3721 1.369 . S
C3722 C3731 1.429 . S
C3723 C3721 1.419 . S
C3723 C3724 1.363 . S
C3723 H3726 0.929 . S
C3724 C3723 1.363 . S
C3724 C3730 1.428 . S
H3725 C3721 0.930 . S
H3726 C3723 0.929 . S
S3727 N3728 1.613 . S
S3727 N3729 1.610 . S
N3728 S3727 1.613 . S
N3728 C3731 1.350 . S
N3729 S3727 1.610 . S
N3729 C3730 1.351 . S
C3730 C3724 1.428 . S
C3730 N3729 1.351 . S
C3730 C3731 1.434 . S
C3731 C3722 1.429 . S
C3731 N3728 1.350 . S
C3731 C3730 1.434 . S
C3732 C3733 1.369 . S
C3732 C3734 1.419 . S
C3732 H3736 0.930 . S
C3733 C3732 1.369 . S
C3733 C3742 1.429 . S
C3734 C3732 1.419 . S
C3734 C3735 1.363 . S
C3734 H3737 0.929 . S
C3735 C3734 1.363 . S
C3735 C3741 1.428 . S
H3736 C3732 0.930 . S
H3737 C3734 0.929 . S
S3738 N3739 1.613 . S
S3738 N3740 1.610 . S
N3739 S3738 1.613 . S
N3739 C3742 1.350 . S
N3740 S3738 1.610 . S
N3740 C3741 1.351 . S
C3741 C3735 1.428 . S
C3741 N3740 1.351 . S
C3741 C3742 1.434 . S
C3742 C3733 1.429 . S
C3742 N3739 1.350 . S
C3742 C3741 1.434 . S
C3743 C3744 1.369 . S
C3743 C3745 1.419 . S
C3743 H3747 0.930 . S
C3744 C3743 1.369 . S
C3744 C3753 1.429 . S
C3745 C3743 1.419 . S
C3745 C3746 1.363 . S
C3745 H3748 0.929 . S
C3746 C3745 1.363 . S
C3746 C3752 1.428 . S
H3747 C3743 0.930 . S
H3748 C3745 0.929 . S
S3749 N3750 1.613 . S
S3749 N3751 1.610 . S
N3750 S3749 1.613 . S
N3750 C3753 1.350 . S
N3751 S3749 1.610 . S
N3751 C3752 1.351 . S
C3752 C3746 1.428 . S
C3752 N3751 1.351 . S
C3752 C3753 1.434 . S
C3753 C3744 1.429 . S
C3753 N3750 1.350 . S
C3753 C3752 1.434 . S
C3754 C3755 1.369 . S
C3754 C3756 1.419 . S
C3754 H3758 0.930 . S
C3755 C3754 1.369 . S
C3755 C3764 1.429 . S
C3756 C3754 1.419 . S
C3756 C3757 1.363 . S
C3756 H3759 0.929 . S
C3757 C3756 1.363 . S
C3757 C3763 1.428 . S
H3758 C3754 0.930 . S
H3759 C3756 0.929 . S
S3760 N3761 1.613 . S
S3760 N3762 1.610 . S
N3761 S3760 1.613 . S
N3761 C3764 1.350 . S
N3762 S3760 1.610 . S
N3762 C3763 1.351 . S
C3763 C3757 1.428 . S
C3763 N3762 1.351 . S
C3763 C3764 1.434 . S
C3764 C3755 1.429 . S
C3764 N3761 1.350 . S
C3764 C3763 1.434 . S
C3765 C3766 1.369 . S
C3765 C3767 1.419 . S
C3765 H3769 0.930 . S
C3766 C3765 1.369 . S
C3766 C3775 1.429 . S
C3767 C3765 1.419 . S
C3767 C3768 1.363 . S
C3767 H3770 0.929 . S
C3768 C3767 1.363 . S
C3768 C3774 1.428 . S
H3769 C3765 0.930 . S
H3770 C3767 0.929 . S
S3771 N3772 1.613 . S
S3771 N3773 1.610 . S
N3772 S3771 1.613 . S
N3772 C3775 1.350 . S
N3773 S3771 1.610 . S
N3773 C3774 1.351 . S
C3774 C3768 1.428 . S
C3774 N3773 1.351 . S
C3774 C3775 1.434 . S
C3775 C3766 1.429 . S
C3775 N3772 1.350 . S
C3775 C3774 1.434 . S
C3776 C3777 1.369 . S
C3776 C3778 1.419 . S
C3776 H3780 0.930 . S
C3777 C3776 1.369 . S
C3777 C3786 1.429 . S
C3778 C3776 1.419 . S
C3778 C3779 1.363 . S
C3778 H3781 0.929 . S
C3779 C3778 1.363 . S
C3779 C3785 1.428 . S
H3780 C3776 0.930 . S
H3781 C3778 0.929 . S
S3782 N3783 1.613 . S
S3782 N3784 1.610 . S
N3783 S3782 1.613 . S
N3783 C3786 1.350 . S
N3784 S3782 1.610 . S
N3784 C3785 1.351 . S
C3785 C3779 1.428 . S
C3785 N3784 1.351 . S
C3785 C3786 1.434 . S
C3786 C3777 1.429 . S
C3786 N3783 1.350 . S
C3786 C3785 1.434 . S
C3787 C3788 1.369 . S
C3787 C3789 1.419 . S
C3787 H3791 0.930 . S
C3788 C3787 1.369 . S
C3788 C3797 1.429 . S
C3789 C3787 1.419 . S
C3789 C3790 1.363 . S
C3789 H3792 0.929 . S
C3790 C3789 1.363 . S
C3790 C3796 1.428 . S
H3791 C3787 0.930 . S
H3792 C3789 0.929 . S
S3793 N3794 1.613 . S
S3793 N3795 1.610 . S
N3794 S3793 1.613 . S
N3794 C3797 1.350 . S
N3795 S3793 1.610 . S
N3795 C3796 1.351 . S
C3796 C3790 1.428 . S
C3796 N3795 1.351 . S
C3796 C3797 1.434 . S
C3797 C3788 1.429 . S
C3797 N3794 1.350 . S
C3797 C3796 1.434 . S
C3798 C3799 1.369 . S
C3798 C3800 1.419 . S
C3798 H3802 0.930 . S
C3799 C3798 1.369 . S
C3799 C3808 1.429 . S
C3800 C3798 1.419 . S
C3800 C3801 1.363 . S
C3800 H3803 0.929 . S
C3801 C3800 1.363 . S
C3801 C3807 1.428 . S
H3802 C3798 0.930 . S
H3803 C3800 0.929 . S
S3804 N3805 1.613 . S
S3804 N3806 1.610 . S
N3805 S3804 1.613 . S
N3805 C3808 1.350 1_545 S
N3806 S3804 1.610 . S
N3806 C3807 1.351 1_545 S
C3807 C3801 1.428 . S
C3807 N3806 1.351 1_565 S
C3807 C3808 1.434 . S
C3808 C3799 1.429 . S
C3808 N3805 1.350 1_565 S
C3808 C3807 1.434 . S
C3809 C3810 1.369 . S
C3809 C3811 1.419 . S
C3809 H3813 0.930 . S
C3810 C3809 1.369 . S
C3810 C3819 1.429 . S
C3811 C3809 1.419 . S
C3811 C3812 1.363 . S
C3811 H3814 0.929 . S
C3812 C3811 1.363 . S
C3812 C3818 1.428 . S
H3813 C3809 0.930 . S
H3814 C3811 0.929 . S
S3815 N3816 1.613 . S
S3815 N3817 1.610 . S
N3816 S3815 1.613 . S
N3816 C3819 1.350 . S
N3817 S3815 1.610 . S
N3817 C3818 1.351 . S
C3818 C3812 1.428 . S
C3818 N3817 1.351 . S
C3818 C3819 1.434 . S
C3819 C3810 1.429 . S
C3819 N3816 1.350 . S
C3819 C3818 1.434 . S
C3820 C3821 1.369 . S
C3820 C3822 1.419 . S
C3820 H3824 0.930 . S
C3821 C3820 1.369 . S
C3821 C3830 1.429 . S
C3822 C3820 1.419 . S
C3822 C3823 1.363 . S
C3822 H3825 0.929 . S
C3823 C3822 1.363 . S
C3823 C3829 1.428 . S
H3824 C3820 0.930 . S
H3825 C3822 0.929 . S
S3826 N3827 1.613 . S
S3826 N3828 1.610 . S
N3827 S3826 1.613 . S
N3827 C3830 1.350 . S
N3828 S3826 1.610 . S
N3828 C3829 1.351 . S
C3829 C3823 1.428 . S
C3829 N3828 1.351 . S
C3829 C3830 1.434 . S
C3830 C3821 1.429 . S
C3830 N3827 1.350 . S
C3830 C3829 1.434 . S
C3831 C3832 1.369 . S
C3831 C3833 1.419 . S
C3831 H3835 0.930 . S
C3832 C3831 1.369 . S
C3832 C3841 1.429 . S
C3833 C3831 1.419 . S
C3833 C3834 1.363 . S
C3833 H3836 0.929 . S
C3834 C3833 1.363 . S
C3834 C3840 1.428 . S
H3835 C3831 0.930 . S
H3836 C3833 0.929 . S
S3837 N3838 1.613 . S
S3837 N3839 1.610 . S
N3838 S3837 1.613 . S
N3838 C3841 1.350 . S
N3839 S3837 1.610 . S
N3839 C3840 1.351 . S
C3840 C3834 1.428 . S
C3840 N3839 1.351 . S
C3840 C3841 1.434 . S
C3841 C3832 1.429 . S
C3841 N3838 1.350 . S
C3841 C3840 1.434 . S
C3842 C3843 1.369 . S
C3842 C3844 1.419 . S
C3842 H3846 0.930 . S
C3843 C3842 1.369 . S
C3843 C3852 1.429 . S
C3844 C3842 1.419 . S
C3844 C3845 1.363 . S
C3844 H3847 0.929 . S
C3845 C3844 1.363 . S
C3845 C3851 1.428 . S
H3846 C3842 0.930 . S
H3847 C3844 0.929 . S
S3848 N3849 1.613 . S
S3848 N3850 1.610 . S
N3849 S3848 1.613 . S
N3849 C3852 1.350 . S
N3850 S3848 1.610 . S
N3850 C3851 1.351 . S
C3851 C3845 1.428 . S
C3851 N3850 1.351 . S
C3851 C3852 1.434 . S
C3852 C3843 1.429 . S
C3852 N3849 1.350 . S
C3852 C3851 1.434 . S
C3853 C3854 1.369 . S
C3853 C3855 1.419 . S
C3853 H3857 0.930 . S
C3854 C3853 1.369 . S
C3854 C3863 1.429 . S
C3855 C3853 1.419 . S
C3855 C3856 1.363 . S
C3855 H3858 0.929 . S
C3856 C3855 1.363 . S
C3856 C3862 1.428 . S
H3857 C3853 0.930 . S
H3858 C3855 0.929 . S
S3859 N3860 1.613 . S
S3859 N3861 1.610 . S
N3860 S3859 1.613 . S
N3860 C3863 1.350 . S
N3861 S3859 1.610 . S
N3861 C3862 1.351 . S
C3862 C3856 1.428 . S
C3862 N3861 1.351 . S
C3862 C3863 1.434 . S
C3863 C3854 1.429 . S
C3863 N3860 1.350 . S
C3863 C3862 1.434 . S
C3864 C3865 1.369 . S
C3864 C3866 1.419 . S
C3864 H3868 0.930 . S
C3865 C3864 1.369 . S
C3865 C3874 1.429 . S
C3866 C3864 1.419 . S
C3866 C3867 1.363 . S
C3866 H3869 0.929 . S
C3867 C3866 1.363 . S
C3867 C3873 1.428 . S
H3868 C3864 0.930 . S
H3869 C3866 0.929 . S
S3870 N3871 1.613 . S
S3870 N3872 1.610 . S
N3871 S3870 1.613 . S
N3871 C3874 1.350 . S
N3872 S3870 1.610 . S
N3872 C3873 1.351 . S
C3873 C3867 1.428 . S
C3873 N3872 1.351 . S
C3873 C3874 1.434 . S
C3874 C3865 1.429 . S
C3874 N3871 1.350 . S
C3874 C3873 1.434 . S
C3875 C3876 1.369 . S
C3875 C3877 1.419 . S
C3875 H3879 0.930 . S
C3876 C3875 1.369 . S
C3876 C3885 1.429 . S
C3877 C3875 1.419 . S
C3877 C3878 1.363 . S
C3877 H3880 0.929 . S
C3878 C3877 1.363 . S
C3878 C3884 1.428 . S
H3879 C3875 0.930 . S
H3880 C3877 0.929 . S
S3881 N3882 1.613 . S
S3881 N3883 1.610 . S
N3882 S3881 1.613 . S
N3882 C3885 1.350 . S
N3883 S3881 1.610 . S
N3883 C3884 1.351 . S
C3884 C3878 1.428 . S
C3884 N3883 1.351 . S
C3884 C3885 1.434 . S
C3885 C3876 1.429 . S
C3885 N3882 1.350 . S
C3885 C3884 1.434 . S
C3886 C3887 1.369 . S
C3886 C3888 1.419 . S
C3886 H3890 0.930 . S
C3887 C3886 1.369 . S
C3887 C3896 1.429 . S
C3888 C3886 1.419 . S
C3888 C3889 1.363 . S
C3888 H3891 0.929 . S
C3889 C3888 1.363 . S
C3889 C3895 1.428 . S
H3890 C3886 0.930 . S
H3891 C3888 0.929 . S
S3892 N3893 1.613 . S
S3892 N3894 1.610 . S
N3893 S3892 1.613 . S
N3893 C3896 1.350 . S
N3894 S3892 1.610 . S
N3894 C3895 1.351 . S
C3895 C3889 1.428 . S
C3895 N3894 1.351 . S
C3895 C3896 1.434 . S
C3896 C3887 1.429 . S
C3896 N3893 1.350 . S
C3896 C3895 1.434 . S
C3897 C3898 1.369 . S
C3897 C3899 1.419 . S
C3897 H3901 0.930 . S
C3898 C3897 1.369 . S
C3898 C3907 1.429 . S
C3899 C3897 1.419 . S
C3899 C3900 1.363 . S
C3899 H3902 0.929 . S
C3900 C3899 1.363 . S
C3900 C3906 1.428 . S
H3901 C3897 0.930 . S
H3902 C3899 0.929 . S
S3903 N3904 1.613 . S
S3903 N3905 1.610 . S
N3904 S3903 1.613 . S
N3904 C3907 1.350 . S
N3905 S3903 1.610 . S
N3905 C3906 1.351 . S
C3906 C3900 1.428 . S
C3906 N3905 1.351 . S
C3906 C3907 1.434 . S
C3907 C3898 1.429 . S
C3907 N3904 1.350 . S
C3907 C3906 1.434 . S
C3908 C3909 1.369 . S
C3908 C3910 1.419 . S
C3908 H3912 0.930 . S
C3909 C3908 1.369 . S
C3909 C3918 1.429 . S
C3910 C3908 1.419 . S
C3910 C3911 1.363 . S
C3910 H3913 0.929 . S
C3911 C3910 1.363 . S
C3911 C3917 1.428 . S
H3912 C3908 0.930 . S
H3913 C3910 0.929 . S
S3914 N3915 1.613 . S
S3914 N3916 1.610 . S
N3915 S3914 1.613 . S
N3915 C3918 1.350 . S
N3916 S3914 1.610 . S
N3916 C3917 1.351 . S
C3917 C3911 1.428 . S
C3917 N3916 1.351 . S
C3917 C3918 1.434 . S
C3918 C3909 1.429 . S
C3918 N3915 1.350 . S
C3918 C3917 1.434 . S
C3919 C3920 1.369 . S
C3919 C3921 1.419 . S
C3919 H3923 0.930 . S
C3920 C3919 1.369 . S
C3920 C3929 1.429 . S
C3921 C3919 1.419 . S
C3921 C3922 1.363 . S
C3921 H3924 0.929 . S
C3922 C3921 1.363 . S
C3922 C3928 1.428 . S
H3923 C3919 0.930 . S
H3924 C3921 0.929 . S
S3925 N3926 1.613 . S
S3925 N3927 1.610 . S
N3926 S3925 1.613 . S
N3926 C3929 1.350 . S
N3927 S3925 1.610 . S
N3927 C3928 1.351 . S
C3928 C3922 1.428 . S
C3928 N3927 1.351 . S
C3928 C3929 1.434 . S
C3929 C3920 1.429 . S
C3929 N3926 1.350 . S
C3929 C3928 1.434 . S
C3930 C3931 1.369 . S
C3930 C3932 1.419 1_455 S
C3930 H3934 0.930 . S
C3931 C3930 1.369 . S
C3931 C3940 1.429 . S
C3932 C3930 1.419 1_655 S
C3932 C3933 1.363 . S
C3932 H3935 0.929 . S
C3933 C3932 1.363 . S
C3933 C3939 1.428 1_655 S
H3934 C3930 0.930 . S
H3935 C3932 0.929 . S
S3936 N3937 1.613 . S
S3936 N3938 1.610 . S
N3937 S3936 1.613 . S
N3937 C3940 1.350 . S
N3938 S3936 1.610 . S
N3938 C3939 1.351 . S
C3939 C3933 1.428 1_455 S
C3939 N3938 1.351 . S
C3939 C3940 1.434 . S
C3940 C3931 1.429 . S
C3940 N3937 1.350 . S
C3940 C3939 1.434 . S
C3941 C3942 1.369 . S
C3941 C3943 1.419 . S
C3941 H3945 0.930 . S
C3942 C3941 1.369 . S
C3942 C3951 1.429 . S
C3943 C3941 1.419 . S
C3943 C3944 1.363 . S
C3943 H3946 0.929 . S
C3944 C3943 1.363 . S
C3944 C3950 1.428 . S
H3945 C3941 0.930 . S
H3946 C3943 0.929 . S
S3947 N3948 1.613 . S
S3947 N3949 1.610 . S
N3948 S3947 1.613 . S
N3948 C3951 1.350 . S
N3949 S3947 1.610 . S
N3949 C3950 1.351 . S
C3950 C3944 1.428 . S
C3950 N3949 1.351 . S
C3950 C3951 1.434 . S
C3951 C3942 1.429 . S
C3951 N3948 1.350 . S
C3951 C3950 1.434 . S
C3952 C3953 1.369 . S
C3952 C3954 1.419 . S
C3952 H3956 0.930 . S
C3953 C3952 1.369 . S
C3953 C3962 1.429 . S
C3954 C3952 1.419 . S
C3954 C3955 1.363 . S
C3954 H3957 0.929 . S
C3955 C3954 1.363 . S
C3955 C3961 1.428 . S
H3956 C3952 0.930 . S
H3957 C3954 0.929 . S
S3958 N3959 1.613 . S
S3958 N3960 1.610 . S
N3959 S3958 1.613 . S
N3959 C3962 1.350 . S
N3960 S3958 1.610 . S
N3960 C3961 1.351 . S
C3961 C3955 1.428 . S
C3961 N3960 1.351 . S
C3961 C3962 1.434 . S
C3962 C3953 1.429 . S
C3962 N3959 1.350 . S
C3962 C3961 1.434 . S
C3963 C3964 1.369 . S
C3963 C3965 1.419 . S
C3963 H3967 0.930 . S
C3964 C3963 1.369 . S
C3964 C3973 1.429 . S
C3965 C3963 1.419 . S
C3965 C3966 1.363 . S
C3965 H3968 0.929 . S
C3966 C3965 1.363 . S
C3966 C3972 1.428 . S
H3967 C3963 0.930 . S
H3968 C3965 0.929 . S
S3969 N3970 1.613 . S
S3969 N3971 1.610 . S
N3970 S3969 1.613 . S
N3970 C3973 1.350 . S
N3971 S3969 1.610 . S
N3971 C3972 1.351 . S
C3972 C3966 1.428 . S
C3972 N3971 1.351 . S
C3972 C3973 1.434 . S
C3973 C3964 1.429 . S
C3973 N3970 1.350 . S
C3973 C3972 1.434 . S
C3974 C3975 1.369 . S
C3974 C3976 1.419 . S
C3974 H3978 0.930 . S
C3975 C3974 1.369 . S
C3975 C3984 1.429 . S
C3976 C3974 1.419 . S
C3976 C3977 1.363 1_545 S
C3976 H3979 0.929 . S
C3977 C3976 1.363 1_565 S
C3977 C3983 1.428 . S
H3978 C3974 0.930 . S
H3979 C3976 0.929 . S
S3980 N3981 1.613 1_565 S
S3980 N3982 1.610 . S
N3981 S3980 1.613 1_545 S
N3981 C3984 1.350 . S
N3982 S3980 1.610 . S
N3982 C3983 1.351 . S
C3983 C3977 1.428 . S
C3983 N3982 1.351 . S
C3983 C3984 1.434 1_565 S
C3984 C3975 1.429 . S
C3984 N3981 1.350 . S
C3984 C3983 1.434 1_545 S
C3985 C3986 1.369 . S
C3985 C3987 1.419 . S
C3985 H3989 0.930 . S
C3986 C3985 1.369 . S
C3986 C3995 1.429 . S
C3987 C3985 1.419 . S
C3987 C3988 1.363 . S
C3987 H3990 0.929 . S
C3988 C3987 1.363 . S
C3988 C3994 1.428 . S
H3989 C3985 0.930 . S
H3990 C3987 0.929 . S
S3991 N3992 1.613 . S
S3991 N3993 1.610 . S
N3992 S3991 1.613 . S
N3992 C3995 1.350 . S
N3993 S3991 1.610 . S
N3993 C3994 1.351 . S
C3994 C3988 1.428 . S
C3994 N3993 1.351 . S
C3994 C3995 1.434 . S
C3995 C3986 1.429 . S
C3995 N3992 1.350 . S
C3995 C3994 1.434 . S
C3996 C3997 1.369 . S
C3996 C3998 1.419 . S
C3996 H4000 0.930 . S
C3997 C3996 1.369 . S
C3997 C4006 1.429 . S
C3998 C3996 1.419 . S
C3998 C3999 1.363 . S
C3998 H4001 0.929 . S
C3999 C3998 1.363 . S
C3999 C4005 1.428 . S
H4000 C3996 0.930 . S
H4001 C3998 0.929 . S
S4002 N4003 1.613 . S
S4002 N4004 1.610 . S
N4003 S4002 1.613 . S
N4003 C4006 1.350 . S
N4004 S4002 1.610 . S
N4004 C4005 1.351 . S
C4005 C3999 1.428 . S
C4005 N4004 1.351 . S
C4005 C4006 1.434 . S
C4006 C3997 1.429 . S
C4006 N4003 1.350 . S
C4006 C4005 1.434 . S
C4007 C4008 1.369 1_545 S
C4007 C4009 1.419 . S
C4007 H4011 0.930 . S
C4008 C4007 1.369 1_565 S
C4008 C4017 1.429 . S
C4009 C4007 1.419 . S
C4009 C4010 1.363 . S
C4009 H4012 0.929 . S
C4010 C4009 1.363 . S
C4010 C4016 1.428 1_545 S
H4011 C4007 0.930 . S
H4012 C4009 0.929 . S
S4013 N4014 1.613 . S
S4013 N4015 1.610 . S
N4014 S4013 1.613 . S
N4014 C4017 1.350 . S
N4015 S4013 1.610 . S
N4015 C4016 1.351 . S
C4016 C4010 1.428 1_565 S
C4016 N4015 1.351 . S
C4016 C4017 1.434 . S
C4017 C4008 1.429 . S
C4017 N4014 1.350 . S
C4017 C4016 1.434 . S
C4018 C4019 1.369 . S
C4018 C4020 1.419 . S
C4018 H4022 0.930 . S
C4019 C4018 1.369 . S
C4019 C4028 1.429 . S
C4020 C4018 1.419 . S
C4020 C4021 1.363 . S
C4020 H4023 0.929 . S
C4021 C4020 1.363 . S
C4021 C4027 1.428 . S
H4022 C4018 0.930 . S
H4023 C4020 0.929 . S
S4024 N4025 1.613 . S
S4024 N4026 1.610 . S
N4025 S4024 1.613 . S
N4025 C4028 1.350 . S
N4026 S4024 1.610 . S
N4026 C4027 1.351 . S
C4027 C4021 1.428 . S
C4027 N4026 1.351 . S
C4027 C4028 1.434 . S
C4028 C4019 1.429 . S
C4028 N4025 1.350 . S
C4028 C4027 1.434 . S
C4029 C4030 1.369 . S
C4029 C4031 1.419 . S
C4029 H4033 0.930 . S
C4030 C4029 1.369 . S
C4030 C4039 1.429 . S
C4031 C4029 1.419 . S
C4031 C4032 1.363 1_556 S
C4031 H4034 0.929 . S
C4032 C4031 1.363 1_554 S
C4032 C4038 1.428 . S
H4033 C4029 0.930 . S
H4034 C4031 0.929 . S
S4035 N4036 1.604 1_554 S
S4035 N4037 1.610 . S
N4036 S4035 1.604 1_556 S
N4036 C4039 1.351 . S
N4037 S4035 1.610 . S
N4037 C4038 1.351 . S
C4038 C4032 1.428 . S
C4038 N4037 1.351 . S
C4038 C4039 1.434 1_554 S
C4039 C4030 1.429 . S
C4039 N4036 1.351 . S
C4039 C4038 1.434 1_556 S
C4040 C4041 1.369 . S
C4040 C4042 1.419 1_455 S
C4040 H4044 0.930 1_455 S
C4041 C4040 1.369 . S
C4041 C4050 1.429 . S
C4042 C4040 1.419 1_655 S
C4042 C4043 1.363 1_556 S
C4042 H4045 0.929 . S
C4043 C4042 1.363 1_554 S
C4043 C4049 1.428 1_655 S
H4044 C4040 0.930 1_655 S
H4045 C4042 0.929 . S
S4046 N4047 1.613 1_554 S
S4046 N4048 1.610 . S
N4047 S4046 1.613 1_556 S
N4047 C4050 1.350 . S
N4048 S4046 1.610 . S
N4048 C4049 1.351 . S
C4049 C4043 1.428 1_455 S
C4049 N4048 1.351 . S
C4049 C4050 1.434 1_554 S
C4050 C4041 1.429 . S
C4050 N4047 1.350 . S
C4050 C4049 1.434 1_556 S
C4051 C4052 1.369 . S
C4051 C4053 1.419 1_556 S
C4051 H4055 0.928 1_556 S
C4052 C4051 1.369 . S
C4052 C4061 1.429 . S
C4053 C4051 1.419 1_554 S
C4053 C4054 1.363 . S
C4053 H4056 0.929 . S
C4054 C4053 1.363 . S
C4054 C4060 1.428 1_554 S
H4055 C4051 0.928 1_554 S
H4056 C4053 0.929 . S
S4057 N4058 1.613 . S
S4057 N4059 1.610 . S
N4058 S4057 1.613 . S
N4058 C4061 1.350 . S
N4059 S4057 1.610 . S
N4059 C4060 1.351 . S
C4060 C4054 1.428 1_556 S
C4060 N4059 1.351 . S
C4060 C4061 1.434 . S
C4061 C4052 1.429 . S
C4061 N4058 1.350 . S
C4061 C4060 1.434 . S
C4062 C4063 1.369 . S
C4062 C4064 1.419 . S
C4062 H4066 0.930 . S
C4063 C4062 1.369 . S
C4063 C4072 1.429 . S
C4064 C4062 1.419 . S
C4064 C4065 1.363 . S
C4064 H4067 0.929 . S
C4065 C4064 1.363 . S
C4065 C4071 1.428 . S
H4066 C4062 0.930 . S
H4067 C4064 0.929 . S
S4068 N4069 1.613 . S
S4068 N4070 1.610 . S
N4069 S4068 1.613 . S
N4069 C4072 1.350 . S
N4070 S4068 1.610 . S
N4070 C4071 1.351 . S
C4071 C4065 1.428 . S
C4071 N4070 1.351 . S
C4071 C4072 1.434 . S
C4072 C4063 1.429 . S
C4072 N4069 1.350 . S
C4072 C4071 1.434 . S
C4073 C4074 1.369 . S
C4073 C4075 1.419 . S
C4073 H4077 0.930 . S
C4074 C4073 1.369 . S
C4074 C4083 1.429 . S
C4075 C4073 1.419 . S
C4075 C4076 1.363 . S
C4075 H4078 0.929 . S
C4076 C4075 1.363 . S
C4076 C4082 1.428 . S
H4077 C4073 0.930 . S
H4078 C4075 0.929 . S
S4079 N4080 1.613 . S
S4079 N4081 1.610 . S
N4080 S4079 1.613 . S
N4080 C4083 1.350 . S
N4081 S4079 1.610 . S
N4081 C4082 1.351 . S
C4082 C4076 1.428 . S
C4082 N4081 1.351 . S
C4082 C4083 1.434 . S
C4083 C4074 1.429 . S
C4083 N4080 1.350 . S
C4083 C4082 1.434 . S
C4084 C4085 1.369 . S
C4084 C4086 1.419 . S
C4084 H4088 0.930 . S
C4085 C4084 1.369 . S
C4085 C4094 1.429 . S
C4086 C4084 1.419 . S
C4086 C4087 1.363 1_455 S
C4086 H4089 0.929 . S
C4087 C4086 1.363 1_655 S
C4087 C4093 1.428 . S
H4088 C4084 0.930 . S
H4089 C4086 0.929 . S
S4090 N4091 1.613 . S
S4090 N4092 1.610 . S
N4091 S4090 1.613 . S
N4091 C4094 1.350 1_655 S
N4092 S4090 1.610 . S
N4092 C4093 1.351 . S
C4093 C4087 1.428 . S
C4093 N4092 1.351 . S
C4093 C4094 1.434 1_655 S
C4094 C4085 1.429 . S
C4094 N4091 1.350 1_455 S
C4094 C4093 1.434 1_455 S
C4095 C4096 1.369 1_545 S
C4095 C4097 1.419 1_556 S
C4095 H4099 0.930 . S
C4096 C4095 1.369 1_565 S
C4096 C4105 1.429 1_556 S
C4097 C4095 1.419 1_554 S
C4097 C4098 1.363 . S
C4097 H4100 0.950 . S
C4098 C4097 1.363 . S
C4098 C4104 1.428 . S
H4099 C4095 0.930 . S
H4100 C4097 0.950 . S
S4101 N4102 1.613 . S
S4101 N4103 1.610 1_565 S
N4102 S4101 1.613 . S
N4102 C4105 1.350 . S
N4103 S4101 1.610 1_545 S
N4103 C4104 1.351 . S
C4104 C4098 1.428 . S
C4104 N4103 1.351 . S
C4104 C4105 1.434 1_545 S
C4105 C4096 1.429 1_554 S
C4105 N4102 1.350 . S
C4105 C4104 1.434 1_565 S
C4106 C4107 1.369 . S
C4106 C4108 1.476 . S
C4106 H4110 0.930 . S
C4107 C4106 1.369 . S
C4107 C4116 1.429 . S
C4108 C4106 1.476 . S
C4108 C4109 1.314 1_554 S
C4108 H4111 0.925 . S
C4109 C4108 1.314 1_556 S
C4109 C4115 1.428 . S
H4110 C4106 0.930 . S
H4111 C4108 0.925 . S
S4112 N4113 1.613 1_556 S
S4112 N4114 1.610 . S
N4113 S4112 1.613 1_554 S
N4113 C4116 1.350 . S
N4114 S4112 1.610 . S
N4114 C4115 1.351 . S
C4115 C4109 1.428 . S
C4115 N4114 1.351 . S
C4115 C4116 1.434 1_556 S
C4116 C4107 1.429 . S
C4116 N4113 1.350 . S
C4116 C4115 1.434 1_554 S
C4117 C4118 1.369 . S
C4117 C4119 1.419 1_556 S
C4117 H4121 0.930 . S
C4118 C4117 1.369 . S
C4118 C4127 1.349 1_556 S
C4119 C4117 1.419 1_554 S
C4119 C4120 1.363 . S
C4119 H4122 0.929 . S
C4120 C4119 1.363 . S
C4120 C4126 1.428 . S
H4121 C4117 0.930 . S
H4122 C4119 0.929 . S
S4123 N4124 1.613 . S
S4123 N4125 1.610 . S
N4124 S4123 1.613 . S
N4124 C4127 1.358 . S
N4125 S4123 1.610 . S
N4125 C4126 1.351 . S
C4126 C4120 1.428 . S
C4126 N4125 1.351 . S
C4126 C4127 1.529 . S
C4127 C4118 1.349 1_554 S
C4127 N4124 1.358 . S
C4127 C4126 1.529 . S
C4128 C4129 1.369 . S
C4128 C4130 1.419 . S
C4128 H4132 0.930 . S
C4129 C4128 1.369 . S
C4129 C4138 1.429 . S
C4130 C4128 1.419 . S
C4130 C4131 1.363 . S
C4130 H4133 0.929 . S
C4131 C4130 1.363 . S
C4131 C4137 1.428 . S
H4132 C4128 0.930 . S
H4133 C4130 0.929 . S
S4134 N4135 1.613 . S
S4134 N4136 1.610 . S
N4135 S4134 1.613 . S
N4135 C4138 1.350 . S
N4136 S4134 1.610 . S
N4136 C4137 1.351 . S
C4137 C4131 1.428 . S
C4137 N4136 1.351 . S
C4137 C4138 1.434 . S
C4138 C4129 1.429 . S
C4138 N4135 1.350 . S
C4138 C4137 1.434 . S
C4139 C4140 1.369 . S
C4139 C4141 1.419 . S
C4139 H4143 0.930 . S
C4140 C4139 1.369 . S
C4140 C4149 1.429 . S
C4141 C4139 1.419 . S
C4141 C4142 1.363 . S
C4141 H4144 0.929 . S
C4142 C4141 1.363 . S
C4142 C4148 1.428 . S
H4143 C4139 0.930 . S
H4144 C4141 0.929 . S
S4145 N4146 1.613 . S
S4145 N4147 1.610 . S
N4146 S4145 1.613 . S
N4146 C4149 1.350 . S
N4147 S4145 1.610 . S
N4147 C4148 1.351 . S
C4148 C4142 1.428 . S
C4148 N4147 1.351 . S
C4148 C4149 1.434 . S
C4149 C4140 1.429 . S
C4149 N4146 1.350 . S
C4149 C4148 1.434 . S
C4150 C4151 1.369 . S
C4150 C4152 1.419 . S
C4150 H4154 0.930 . S
C4151 C4150 1.369 . S
C4151 C4160 1.429 . S
C4152 C4150 1.419 . S
C4152 C4153 1.363 1_545 S
C4152 H4155 0.929 . S
C4153 C4152 1.363 1_565 S
C4153 C4159 1.428 . S
H4154 C4150 0.930 . S
H4155 C4152 0.929 . S
S4156 N4157 1.613 . S
S4156 N4158 1.610 . S
N4157 S4156 1.613 . S
N4157 C4160 1.350 1_565 S
N4158 S4156 1.610 . S
N4158 C4159 1.351 . S
C4159 C4153 1.428 . S
C4159 N4158 1.351 . S
C4159 C4160 1.434 1_565 S
C4160 C4151 1.429 . S
C4160 N4157 1.350 1_545 S
C4160 C4159 1.434 1_545 S
C4161 C4162 1.369 . S
C4161 C4163 1.419 . S
C4161 H4165 0.930 . S
C4162 C4161 1.369 . S
C4162 C4171 1.429 . S
C4163 C4161 1.419 . S
C4163 C4164 1.363 . S
C4163 H4166 0.929 . S
C4164 C4163 1.363 . S
C4164 C4170 1.428 . S
H4165 C4161 0.930 . S
H4166 C4163 0.929 . S
S4167 N4168 1.613 . S
S4167 N4169 1.610 . S
N4168 S4167 1.613 . S
N4168 C4171 1.350 . S
N4169 S4167 1.610 . S
N4169 C4170 1.351 . S
C4170 C4164 1.428 . S
C4170 N4169 1.351 . S
C4170 C4171 1.434 . S
C4171 C4162 1.429 . S
C4171 N4168 1.350 . S
C4171 C4170 1.434 . S
C4172 C4173 1.369 . S
C4172 C4174 1.419 . S
C4172 H4176 0.930 . S
C4173 C4172 1.369 . S
C4173 C4182 1.429 . S
C4174 C4172 1.419 . S
C4174 C4175 1.363 . S
C4174 H4177 0.929 . S
C4175 C4174 1.363 . S
C4175 C4181 1.428 . S
H4176 C4172 0.930 . S
H4177 C4174 0.929 . S
S4178 N4179 1.613 . S
S4178 N4180 1.610 . S
N4179 S4178 1.613 . S
N4179 C4182 1.350 . S
N4180 S4178 1.610 . S
N4180 C4181 1.351 . S
C4181 C4175 1.428 . S
C4181 N4180 1.351 . S
C4181 C4182 1.434 . S
C4182 C4173 1.429 . S
C4182 N4179 1.350 . S
C4182 C4181 1.434 . S
C4183 C4184 1.369 . S
C4183 C4185 1.419 1_455 S
C4183 H4187 0.930 1_455 S
C4184 C4183 1.369 . S
C4184 C4193 1.429 . S
C4185 C4183 1.419 1_655 S
C4185 C4186 1.363 . S
C4185 H4188 0.929 . S
C4186 C4185 1.363 . S
C4186 C4192 1.428 1_655 S
H4187 C4183 0.930 1_655 S
H4188 C4185 0.929 . S
S4189 N4190 1.613 . S
S4189 N4191 1.610 . S
N4190 S4189 1.613 . S
N4190 C4193 1.350 . S
N4191 S4189 1.610 . S
N4191 C4192 1.351 . S
C4192 C4186 1.428 1_455 S
C4192 N4191 1.351 . S
C4192 C4193 1.434 . S
C4193 C4184 1.429 . S
C4193 N4190 1.350 . S
C4193 C4192 1.434 . S
C4194 C4195 1.369 . S
C4194 C4196 1.419 . S
C4194 H4198 0.930 . S
C4195 C4194 1.369 . S
C4195 C4204 1.429 . S
C4196 C4194 1.419 . S
C4196 C4197 1.363 . S
C4196 H4199 0.929 . S
C4197 C4196 1.363 . S
C4197 C4203 1.428 . S
H4198 C4194 0.930 . S
H4199 C4196 0.929 . S
S4200 N4201 1.613 . S
S4200 N4202 1.610 . S
N4201 S4200 1.613 . S
N4201 C4204 1.350 . S
N4202 S4200 1.610 . S
N4202 C4203 1.351 . S
C4203 C4197 1.428 . S
C4203 N4202 1.351 . S
C4203 C4204 1.434 . S
C4204 C4195 1.429 . S
C4204 N4201 1.350 . S
C4204 C4203 1.434 . S
C4205 C4206 1.369 . S
C4205 C4207 1.419 . S
C4205 H4209 0.930 . S
C4206 C4205 1.369 . S
C4206 C4215 1.429 . S
C4207 C4205 1.419 . S
C4207 C4208 1.363 . S
C4207 H4210 0.929 . S
C4208 C4207 1.363 . S
C4208 C4214 1.428 . S
H4209 C4205 0.930 . S
H4210 C4207 0.929 . S
S4211 N4212 1.613 . S
S4211 N4213 1.610 . S
N4212 S4211 1.613 . S
N4212 C4215 1.350 . S
N4213 S4211 1.610 . S
N4213 C4214 1.351 . S
C4214 C4208 1.428 . S
C4214 N4213 1.351 . S
C4214 C4215 1.434 . S
C4215 C4206 1.429 . S
C4215 N4212 1.350 . S
C4215 C4214 1.434 . S
C4216 C4217 1.369 . S
C4216 C4218 1.419 . S
C4216 H4220 0.930 . S
C4217 C4216 1.369 . S
C4217 C4226 1.429 . S
C4218 C4216 1.419 . S
C4218 C4219 1.363 . S
C4218 H4221 0.929 . S
C4219 C4218 1.363 . S
C4219 C4225 1.428 . S
H4220 C4216 0.930 . S
H4221 C4218 0.929 . S
S4222 N4223 1.613 . S
S4222 N4224 1.610 . S
N4223 S4222 1.613 . S
N4223 C4226 1.350 . S
N4224 S4222 1.610 . S
N4224 C4225 1.351 . S
C4225 C4219 1.428 . S
C4225 N4224 1.351 . S
C4225 C4226 1.434 . S
C4226 C4217 1.429 . S
C4226 N4223 1.350 . S
C4226 C4225 1.434 . S
C4227 C4228 1.369 . S
C4227 C4229 1.419 . S
C4227 H4231 0.930 . S
C4228 C4227 1.369 . S
C4228 C4237 1.429 . S
C4229 C4227 1.419 . S
C4229 C4230 1.363 . S
C4229 H4232 0.929 . S
C4230 C4229 1.363 . S
C4230 C4236 1.428 . S
H4231 C4227 0.930 . S
H4232 C4229 0.929 . S
S4233 N4234 1.613 . S
S4233 N4235 1.610 . S
N4234 S4233 1.613 . S
N4234 C4237 1.350 . S
N4235 S4233 1.610 . S
N4235 C4236 1.351 . S
C4236 C4230 1.428 . S
C4236 N4235 1.351 . S
C4236 C4237 1.434 . S
C4237 C4228 1.429 . S
C4237 N4234 1.350 . S
C4237 C4236 1.434 . S
C4238 C4239 1.369 . S
C4238 C4240 1.419 . S
C4238 H4242 0.930 . S
C4239 C4238 1.369 . S
C4239 C4248 1.429 . S
C4240 C4238 1.419 . S
C4240 C4241 1.363 . S
C4240 H4243 0.929 . S
C4241 C4240 1.363 . S
C4241 C4247 1.428 . S
H4242 C4238 0.930 . S
H4243 C4240 0.929 . S
S4244 N4245 1.613 . S
S4244 N4246 1.610 . S
N4245 S4244 1.613 . S
N4245 C4248 1.350 . S
N4246 S4244 1.610 . S
N4246 C4247 1.351 . S
C4247 C4241 1.428 . S
C4247 N4246 1.351 . S
C4247 C4248 1.434 . S
C4248 C4239 1.429 . S
C4248 N4245 1.350 . S
C4248 C4247 1.434 . S
C4249 C4250 1.369 . S
C4249 C4251 1.419 . S
C4249 H4253 0.930 . S
C4250 C4249 1.369 . S
C4250 C4259 1.429 . S
C4251 C4249 1.419 . S
C4251 C4252 1.363 . S
C4251 H4254 0.929 . S
C4252 C4251 1.363 . S
C4252 C4258 1.428 . S
H4253 C4249 0.930 . S
H4254 C4251 0.929 . S
S4255 N4256 1.613 . S
S4255 N4257 1.610 . S
N4256 S4255 1.613 . S
N4256 C4259 1.350 . S
N4257 S4255 1.610 . S
N4257 C4258 1.351 . S
C4258 C4252 1.428 . S
C4258 N4257 1.351 . S
C4258 C4259 1.434 . S
C4259 C4250 1.429 . S
C4259 N4256 1.350 . S
C4259 C4258 1.434 . S
C4260 C4261 1.369 . S
C4260 C4262 1.419 . S
C4260 H4264 0.930 . S
C4261 C4260 1.369 . S
C4261 C4270 1.429 . S
C4262 C4260 1.419 . S
C4262 C4263 1.363 . S
C4262 H4265 0.929 . S
C4263 C4262 1.363 . S
C4263 C4269 1.428 . S
H4264 C4260 0.930 . S
H4265 C4262 0.929 . S
S4266 N4267 1.613 . S
S4266 N4268 1.610 . S
N4267 S4266 1.613 . S
N4267 C4270 1.350 . S
N4268 S4266 1.610 . S
N4268 C4269 1.351 . S
C4269 C4263 1.428 . S
C4269 N4268 1.351 . S
C4269 C4270 1.434 . S
C4270 C4261 1.429 . S
C4270 N4267 1.350 . S
C4270 C4269 1.434 . S
C4271 C4272 1.369 . S
C4271 C4273 1.419 . S
C4271 H4275 0.930 . S
C4272 C4271 1.369 . S
C4272 C4281 1.429 . S
C4273 C4271 1.419 . S
C4273 C4274 1.363 . S
C4273 H4276 0.929 . S
C4274 C4273 1.363 . S
C4274 C4280 1.428 . S
H4275 C4271 0.930 . S
H4276 C4273 0.929 . S
S4277 N4278 1.613 . S
S4277 N4279 1.610 . S
N4278 S4277 1.613 . S
N4278 C4281 1.350 . S
N4279 S4277 1.610 . S
N4279 C4280 1.351 . S
C4280 C4274 1.428 . S
C4280 N4279 1.351 . S
C4280 C4281 1.434 . S
C4281 C4272 1.429 . S
C4281 N4278 1.350 . S
C4281 C4280 1.434 . S
C4282 C4283 1.369 . S
C4282 C4284 1.419 . S
C4282 H4286 0.930 . S
C4283 C4282 1.369 . S
C4283 C4292 1.429 . S
C4284 C4282 1.419 . S
C4284 C4285 1.363 . S
C4284 H4287 0.929 . S
C4285 C4284 1.363 . S
C4285 C4291 1.428 . S
H4286 C4282 0.930 . S
H4287 C4284 0.929 . S
S4288 N4289 1.613 . S
S4288 N4290 1.610 . S
N4289 S4288 1.613 . S
N4289 C4292 1.350 . S
N4290 S4288 1.610 . S
N4290 C4291 1.351 . S
C4291 C4285 1.428 . S
C4291 N4290 1.351 . S
C4291 C4292 1.434 . S
C4292 C4283 1.429 . S
C4292 N4289 1.350 . S
C4292 C4291 1.434 . S
C4293 C4294 1.369 . S
C4293 C4295 1.419 . S
C4293 H4297 0.930 . S
C4294 C4293 1.369 . S
C4294 C4303 1.429 . S
C4295 C4293 1.419 . S
C4295 C4296 1.363 . S
C4295 H4298 0.929 . S
C4296 C4295 1.363 . S
C4296 C4302 1.428 . S
H4297 C4293 0.930 . S
H4298 C4295 0.929 . S
S4299 N4300 1.613 . S
S4299 N4301 1.610 . S
N4300 S4299 1.613 . S
N4300 C4303 1.350 . S
N4301 S4299 1.610 . S
N4301 C4302 1.351 . S
C4302 C4296 1.428 . S
C4302 N4301 1.351 . S
C4302 C4303 1.434 . S
C4303 C4294 1.429 . S
C4303 N4300 1.350 . S
C4303 C4302 1.434 . S
C4304 C4305 1.369 . S
C4304 C4306 1.419 . S
C4304 H4308 0.930 . S
C4305 C4304 1.369 . S
C4305 C4314 1.429 . S
C4306 C4304 1.419 . S
C4306 C4307 1.363 . S
C4306 H4309 0.929 . S
C4307 C4306 1.363 . S
C4307 C4313 1.428 . S
H4308 C4304 0.930 . S
H4309 C4306 0.929 . S
S4310 N4311 1.613 . S
S4310 N4312 1.610 . S
N4311 S4310 1.613 . S
N4311 C4314 1.350 . S
N4312 S4310 1.610 . S
N4312 C4313 1.351 . S
C4313 C4307 1.428 . S
C4313 N4312 1.351 . S
C4313 C4314 1.434 . S
C4314 C4305 1.429 . S
C4314 N4311 1.350 . S
C4314 C4313 1.434 . S
C4315 C4316 1.369 . S
C4315 C4317 1.419 . S
C4315 H4319 0.930 . S
C4316 C4315 1.369 . S
C4316 C4325 1.429 . S
C4317 C4315 1.419 . S
C4317 C4318 1.363 . S
C4317 H4320 0.929 . S
C4318 C4317 1.363 . S
C4318 C4324 1.428 . S
H4319 C4315 0.930 . S
H4320 C4317 0.929 . S
S4321 N4322 1.613 . S
S4321 N4323 1.610 . S
N4322 S4321 1.613 . S
N4322 C4325 1.350 . S
N4323 S4321 1.610 . S
N4323 C4324 1.351 . S
C4324 C4318 1.428 . S
C4324 N4323 1.351 . S
C4324 C4325 1.434 . S
C4325 C4316 1.429 . S
C4325 N4322 1.350 . S
C4325 C4324 1.434 . S
C4326 C4327 1.369 . S
C4326 C4328 1.419 . S
C4326 H4330 0.930 . S
C4327 C4326 1.369 . S
C4327 C4336 1.429 . S
C4328 C4326 1.419 . S
C4328 C4329 1.363 . S
C4328 H4331 0.929 . S
C4329 C4328 1.363 . S
C4329 C4335 1.428 . S
H4330 C4326 0.930 . S
H4331 C4328 0.929 . S
S4332 N4333 1.613 . S
S4332 N4334 1.610 . S
N4333 S4332 1.613 . S
N4333 C4336 1.350 . S
N4334 S4332 1.610 . S
N4334 C4335 1.351 . S
C4335 C4329 1.428 . S
C4335 N4334 1.351 . S
C4335 C4336 1.434 . S
C4336 C4327 1.429 . S
C4336 N4333 1.350 . S
C4336 C4335 1.434 . S
C4337 C4338 1.369 . S
C4337 C4339 1.419 . S
C4337 H4341 0.930 . S
C4338 C4337 1.369 . S
C4338 C4347 1.429 . S
C4339 C4337 1.419 . S
C4339 C4340 1.363 . S
C4339 H4342 0.929 . S
C4340 C4339 1.363 . S
C4340 C4346 1.428 . S
H4341 C4337 0.930 . S
H4342 C4339 0.929 . S
S4343 N4344 1.613 . S
S4343 N4345 1.610 . S
N4344 S4343 1.613 . S
N4344 C4347 1.350 . S
N4345 S4343 1.610 . S
N4345 C4346 1.351 . S
C4346 C4340 1.428 . S
C4346 N4345 1.351 . S
C4346 C4347 1.434 . S
C4347 C4338 1.429 . S
C4347 N4344 1.350 . S
C4347 C4346 1.434 . S
C4348 C4349 1.369 . S
C4348 C4350 1.419 . S
C4348 H4352 0.930 . S
C4349 C4348 1.369 . S
C4349 C4358 1.429 . S
C4350 C4348 1.419 . S
C4350 C4351 1.363 . S
C4350 H4353 0.929 . S
C4351 C4350 1.363 . S
C4351 C4357 1.428 . S
H4352 C4348 0.930 . S
H4353 C4350 0.929 . S
S4354 N4355 1.613 . S
S4354 N4356 1.610 . S
N4355 S4354 1.613 . S
N4355 C4358 1.350 . S
N4356 S4354 1.610 . S
N4356 C4357 1.351 . S
C4357 C4351 1.428 . S
C4357 N4356 1.351 . S
C4357 C4358 1.434 . S
C4358 C4349 1.429 . S
C4358 N4355 1.350 . S
C4358 C4357 1.434 . S
C4359 C4360 1.369 1_455 S
C4359 C4361 1.419 . S
C4359 H4363 0.930 . S
C4360 C4359 1.369 1_655 S
C4360 C4369 1.443 . S
C4361 C4359 1.419 . S
C4361 C4362 1.363 . S
C4361 H4364 0.929 1_565 S
C4362 C4361 1.363 . S
C4362 C4368 1.428 . S
H4363 C4359 0.930 . S
H4364 C4361 0.929 1_545 S
S4365 N4366 1.623 . S
S4365 N4367 1.602 1_655 S
N4366 S4365 1.623 . S
N4366 C4369 1.359 . S
N4367 S4365 1.602 1_455 S
N4367 C4368 1.351 . S
C4368 C4362 1.428 . S
C4368 N4367 1.351 . S
C4368 C4369 1.408 1_455 S
C4369 C4360 1.443 . S
C4369 N4366 1.359 . S
C4369 C4368 1.408 1_655 S
C4370 C4371 1.369 . S
C4370 C4372 1.419 . S
C4370 H4374 0.930 . S
C4371 C4370 1.369 . S
C4371 C4380 1.429 . S
C4372 C4370 1.419 . S
C4372 C4373 1.363 . S
C4372 H4375 0.929 . S
C4373 C4372 1.363 . S
C4373 C4379 1.428 . S
H4374 C4370 0.930 . S
H4375 C4372 0.929 . S
S4376 N4377 1.613 . S
S4376 N4378 1.610 . S
N4377 S4376 1.613 . S
N4377 C4380 1.350 . S
N4378 S4376 1.610 . S
N4378 C4379 1.351 . S
C4379 C4373 1.428 . S
C4379 N4378 1.351 . S
C4379 C4380 1.434 . S
C4380 C4371 1.429 . S
C4380 N4377 1.350 . S
C4380 C4379 1.434 . S
C4381 C4382 1.369 1_455 S
C4381 C4383 1.419 . S
C4381 H4385 0.930 . S
C4382 C4381 1.369 1_655 S
C4382 C4391 1.429 . S
C4383 C4381 1.419 . S
C4383 C4384 1.363 . S
C4383 H4386 0.929 . S
C4384 C4383 1.363 . S
C4384 C4390 1.428 1_455 S
H4385 C4381 0.930 . S
H4386 C4383 0.929 . S
S4387 N4388 1.613 . S
S4387 N4389 1.610 . S
N4388 S4387 1.613 . S
N4388 C4391 1.350 . S
N4389 S4387 1.610 . S
N4389 C4390 1.351 . S
C4390 C4384 1.428 1_655 S
C4390 N4389 1.351 . S
C4390 C4391 1.434 . S
C4391 C4382 1.429 . S
C4391 N4388 1.350 . S
C4391 C4390 1.434 . S
C4392 C4393 1.369 . S
C4392 C4394 1.419 . S
C4392 H4396 0.930 . S
C4393 C4392 1.369 . S
C4393 C4402 1.429 . S
C4394 C4392 1.419 . S
C4394 C4395 1.363 . S
C4394 H4397 0.929 . S
C4395 C4394 1.363 . S
C4395 C4401 1.428 . S
H4396 C4392 0.930 . S
H4397 C4394 0.929 . S
S4398 N4399 1.613 . S
S4398 N4400 1.610 . S
N4399 S4398 1.613 . S
N4399 C4402 1.350 . S
N4400 S4398 1.610 . S
N4400 C4401 1.351 . S
C4401 C4395 1.428 . S
C4401 N4400 1.351 . S
C4401 C4402 1.434 . S
C4402 C4393 1.429 . S
C4402 N4399 1.350 . S
C4402 C4401 1.434 . S
C4403 C4404 1.369 1_455 S
C4403 C4405 1.419 . S
C4403 H4407 0.930 . S
C4404 C4403 1.369 1_655 S
C4404 C4413 1.434 1_655 S
C4405 C4403 1.419 . S
C4405 C4406 1.363 . S
C4405 H4408 0.929 . S
C4406 C4405 1.363 . S
C4406 C4412 1.428 . S
H4407 C4403 0.930 . S
H4408 C4405 0.929 . S
S4409 N4410 1.613 1_455 S
S4409 N4411 1.610 . S
N4410 S4409 1.613 1_655 S
N4410 C4413 1.330 1_655 S
N4411 S4409 1.610 . S
N4411 C4412 1.351 . S
C4412 C4406 1.428 . S
C4412 N4411 1.351 . S
C4412 C4413 1.449 . S
C4413 C4404 1.434 1_455 S
C4413 N4410 1.330 1_455 S
C4413 C4412 1.449 . S
C4414 C4415 1.369 1_455 S
C4414 C4416 1.419 . S
C4414 H4418 0.930 . S
C4415 C4414 1.369 1_655 S
C4415 C4424 1.429 . S
C4416 C4414 1.419 . S
C4416 C4417 1.363 . S
C4416 H4419 0.929 . S
C4417 C4416 1.363 . S
C4417 C4423 1.428 . S
H4418 C4414 0.930 . S
H4419 C4416 0.929 . S
S4420 N4421 1.613 . S
S4420 N4422 1.606 1_655 S
N4421 S4420 1.613 . S
N4421 C4424 1.350 . S
N4422 S4420 1.606 1_455 S
N4422 C4423 1.351 . S
C4423 C4417 1.428 . S
C4423 N4422 1.351 . S
C4423 C4424 1.434 1_455 S
C4424 C4415 1.429 . S
C4424 N4421 1.350 . S
C4424 C4423 1.434 1_655 S
C4425 C4426 1.369 . S
C4425 C4427 1.419 . S
C4425 H4429 0.930 . S
C4426 C4425 1.369 . S
C4426 C4435 1.429 . S
C4427 C4425 1.419 . S
C4427 C4428 1.363 . S
C4427 H4430 0.929 . S
C4428 C4427 1.363 . S
C4428 C4434 1.428 . S
H4429 C4425 0.930 . S
H4430 C4427 0.929 . S
S4431 N4432 1.613 . S
S4431 N4433 1.610 . S
N4432 S4431 1.613 . S
N4432 C4435 1.350 . S
N4433 S4431 1.610 . S
N4433 C4434 1.351 . S
C4434 C4428 1.428 . S
C4434 N4433 1.351 . S
C4434 C4435 1.434 . S
C4435 C4426 1.429 . S
C4435 N4432 1.350 . S
C4435 C4434 1.434 . S
C4436 C4437 1.369 . S
C4436 C4438 1.419 . S
C4436 H4440 0.930 . S
C4437 C4436 1.369 . S
C4437 C4446 1.429 . S
C4438 C4436 1.419 . S
C4438 C4439 1.363 . S
C4438 H4441 0.929 . S
C4439 C4438 1.363 . S
C4439 C4445 1.428 . S
H4440 C4436 0.930 . S
H4441 C4438 0.929 . S
S4442 N4443 1.613 . S
S4442 N4444 1.610 . S
N4443 S4442 1.613 . S
N4443 C4446 1.350 . S
N4444 S4442 1.610 . S
N4444 C4445 1.351 . S
C4445 C4439 1.428 . S
C4445 N4444 1.351 . S
C4445 C4446 1.434 . S
C4446 C4437 1.429 . S
C4446 N4443 1.350 . S
C4446 C4445 1.434 . S
C4447 C4448 1.369 . S
C4447 C4449 1.419 . S
C4447 H4451 0.930 . S
C4448 C4447 1.369 . S
C4448 C4457 1.429 . S
C4449 C4447 1.419 . S
C4449 C4450 1.363 . S
C4449 H4452 0.929 . S
C4450 C4449 1.363 . S
C4450 C4456 1.428 . S
H4451 C4447 0.930 . S
H4452 C4449 0.929 . S
S4453 N4454 1.613 . S
S4453 N4455 1.610 . S
N4454 S4453 1.613 . S
N4454 C4457 1.350 . S
N4455 S4453 1.610 . S
N4455 C4456 1.351 . S
C4456 C4450 1.428 . S
C4456 N4455 1.351 . S
C4456 C4457 1.434 . S
C4457 C4448 1.429 . S
C4457 N4454 1.350 . S
C4457 C4456 1.434 . S
C4458 C4459 1.361 1_545 S
C4458 C4460 1.433 . S
C4458 H4462 0.923 1_545 S
C4459 C4458 1.361 1_565 S
C4459 C4468 1.429 1_565 S
C4460 C4458 1.433 . S
C4460 C4461 1.363 . S
C4460 H4463 0.929 . S
C4461 C4460 1.363 . S
C4461 C4467 1.428 . S
H4462 C4458 0.923 1_565 S
H4463 C4460 0.929 . S
S4464 N4465 1.617 . S
S4464 N4466 1.610 . S
N4465 S4464 1.617 . S
N4465 C4468 1.339 1_455 S
N4466 S4464 1.610 . S
N4466 C4467 1.351 1_455 S
C4467 C4461 1.428 . S
C4467 N4466 1.351 1_655 S
C4467 C4468 1.434 . S
C4468 C4459 1.429 1_545 S
C4468 N4465 1.339 1_655 S
C4468 C4467 1.434 . S
C4469 C4470 1.369 1_565 S
C4469 C4471 1.419 . S
C4469 H4473 0.930 . S
C4470 C4469 1.369 1_545 S
C4470 C4479 1.429 . S
C4471 C4469 1.419 . S
C4471 C4472 1.363 . S
C4471 H4474 0.929 . S
C4472 C4471 1.363 . S
C4472 C4478 1.428 1_565 S
H4473 C4469 0.930 . S
H4474 C4471 0.929 . S
S4475 N4476 1.613 . S
S4475 N4477 1.610 . S
N4476 S4475 1.613 . S
N4476 C4479 1.350 . S
N4477 S4475 1.610 . S
N4477 C4478 1.351 . S
C4478 C4472 1.428 1_545 S
C4478 N4477 1.351 . S
C4478 C4479 1.434 . S
C4479 C4470 1.429 . S
C4479 N4476 1.350 . S
C4479 C4478 1.434 . S
C4480 C4481 1.369 . S
C4480 C4482 1.419 . S
C4480 H4484 0.930 . S
C4481 C4480 1.369 . S
C4481 C4490 1.429 . S
C4482 C4480 1.419 . S
C4482 C4483 1.363 . S
C4482 H4485 0.929 . S
C4483 C4482 1.363 . S
C4483 C4489 1.428 . S
H4484 C4480 0.930 . S
H4485 C4482 0.929 . S
S4486 N4487 1.613 . S
S4486 N4488 1.610 . S
N4487 S4486 1.613 . S
N4487 C4490 1.350 . S
N4488 S4486 1.610 . S
N4488 C4489 1.351 . S
C4489 C4483 1.428 . S
C4489 N4488 1.351 . S
C4489 C4490 1.434 . S
C4490 C4481 1.429 . S
C4490 N4487 1.350 . S
C4490 C4489 1.434 . S
C4491 C4492 1.369 . S
C4491 C4493 1.419 . S
C4491 H4495 0.930 . S
C4492 C4491 1.369 . S
C4492 C4501 1.429 . S
C4493 C4491 1.419 . S
C4493 C4494 1.363 . S
C4493 H4496 0.929 . S
C4494 C4493 1.363 . S
C4494 C4500 1.428 . S
H4495 C4491 0.930 . S
H4496 C4493 0.929 . S
S4497 N4498 1.613 . S
S4497 N4499 1.610 . S
N4498 S4497 1.613 . S
N4498 C4501 1.350 . S
N4499 S4497 1.610 . S
N4499 C4500 1.351 . S
C4500 C4494 1.428 . S
C4500 N4499 1.351 . S
C4500 C4501 1.434 . S
C4501 C4492 1.429 . S
C4501 N4498 1.350 . S
C4501 C4500 1.434 . S
C4502 C4503 1.369 . S
C4502 C4504 1.419 . S
C4502 H4506 0.930 . S
C4503 C4502 1.369 . S
C4503 C4512 1.429 . S
C4504 C4502 1.419 . S
C4504 C4505 1.363 . S
C4504 H4507 0.929 . S
C4505 C4504 1.363 . S
C4505 C4511 1.428 . S
H4506 C4502 0.930 . S
H4507 C4504 0.929 . S
S4508 N4509 1.613 . S
S4508 N4510 1.610 . S
N4509 S4508 1.613 . S
N4509 C4512 1.350 . S
N4510 S4508 1.610 . S
N4510 C4511 1.351 . S
C4511 C4505 1.428 . S
C4511 N4510 1.351 . S
C4511 C4512 1.434 . S
C4512 C4503 1.429 . S
C4512 N4509 1.350 . S
C4512 C4511 1.434 . S
C4513 C4514 1.369 . S
C4513 C4515 1.419 . S
C4513 H4517 0.930 . S
C4514 C4513 1.369 . S
C4514 C4523 1.429 . S
C4515 C4513 1.419 . S
C4515 C4516 1.363 . S
C4515 H4518 0.929 . S
C4516 C4515 1.363 . S
C4516 C4522 1.428 . S
H4517 C4513 0.930 . S
H4518 C4515 0.929 . S
S4519 N4520 1.613 . S
S4519 N4521 1.610 . S
N4520 S4519 1.613 . S
N4520 C4523 1.350 . S
N4521 S4519 1.610 . S
N4521 C4522 1.351 . S
C4522 C4516 1.428 . S
C4522 N4521 1.351 . S
C4522 C4523 1.434 . S
C4523 C4514 1.429 . S
C4523 N4520 1.350 . S
C4523 C4522 1.434 . S
C4524 C4525 1.369 . S
C4524 C4526 1.419 . S
C4524 H4528 0.930 . S
C4525 C4524 1.369 . S
C4525 C4534 1.429 . S
C4526 C4524 1.419 . S
C4526 C4527 1.363 . S
C4526 H4529 0.929 . S
C4527 C4526 1.363 . S
C4527 C4533 1.428 . S
H4528 C4524 0.930 . S
H4529 C4526 0.929 . S
S4530 N4531 1.613 . S
S4530 N4532 1.610 . S
N4531 S4530 1.613 . S
N4531 C4534 1.350 . S
N4532 S4530 1.610 . S
N4532 C4533 1.351 . S
C4533 C4527 1.428 . S
C4533 N4532 1.351 . S
C4533 C4534 1.434 . S
C4534 C4525 1.429 . S
C4534 N4531 1.350 . S
C4534 C4533 1.434 . S
C4535 C4536 1.369 . S
C4535 C4537 1.419 . S
C4535 H4539 0.930 . S
C4536 C4535 1.369 . S
C4536 C4545 1.429 . S
C4537 C4535 1.419 . S
C4537 C4538 1.363 . S
C4537 H4540 0.929 . S
C4538 C4537 1.363 . S
C4538 C4544 1.428 . S
H4539 C4535 0.930 . S
H4540 C4537 0.929 . S
S4541 N4542 1.613 . S
S4541 N4543 1.610 . S
N4542 S4541 1.613 . S
N4542 C4545 1.350 . S
N4543 S4541 1.610 . S
N4543 C4544 1.351 . S
C4544 C4538 1.428 . S
C4544 N4543 1.351 . S
C4544 C4545 1.434 . S
C4545 C4536 1.429 . S
C4545 N4542 1.350 . S
C4545 C4544 1.434 . S
C4546 C4547 1.369 . S
C4546 C4548 1.419 . S
C4546 H4550 0.930 . S
C4547 C4546 1.369 . S
C4547 C4556 1.429 . S
C4548 C4546 1.419 . S
C4548 C4549 1.363 . S
C4548 H4551 0.929 . S
C4549 C4548 1.363 . S
C4549 C4555 1.428 . S
H4550 C4546 0.930 . S
H4551 C4548 0.929 . S
S4552 N4553 1.613 . S
S4552 N4554 1.610 . S
N4553 S4552 1.613 . S
N4553 C4556 1.350 . S
N4554 S4552 1.610 . S
N4554 C4555 1.351 . S
C4555 C4549 1.428 . S
C4555 N4554 1.351 . S
C4555 C4556 1.434 . S
C4556 C4547 1.429 . S
C4556 N4553 1.350 . S
C4556 C4555 1.434 . S
C4557 C4558 1.369 . S
C4557 C4559 1.419 . S
C4557 H4561 0.930 . S
C4558 C4557 1.369 . S
C4558 C4567 1.429 . S
C4559 C4557 1.419 . S
C4559 C4560 1.363 . S
C4559 H4562 0.929 . S
C4560 C4559 1.363 . S
C4560 C4566 1.428 . S
H4561 C4557 0.930 . S
H4562 C4559 0.929 . S
S4563 N4564 1.613 . S
S4563 N4565 1.610 . S
N4564 S4563 1.613 . S
N4564 C4567 1.350 . S
N4565 S4563 1.610 . S
N4565 C4566 1.351 . S
C4566 C4560 1.428 . S
C4566 N4565 1.351 . S
C4566 C4567 1.434 . S
C4567 C4558 1.429 . S
C4567 N4564 1.350 . S
C4567 C4566 1.434 . S
C4568 C4569 1.369 . S
C4568 C4570 1.419 1_655 S
C4568 H4572 0.930 1_655 S
C4569 C4568 1.369 . S
C4569 C4578 1.429 1_545 S
C4570 C4568 1.419 1_455 S
C4570 C4571 1.363 1_445 S
C4570 H4573 0.929 . S
C4571 C4570 1.363 1_665 S
C4571 C4577 1.428 . S
H4572 C4568 0.930 1_455 S
H4573 C4570 0.929 . S
S4574 N4575 1.613 . S
S4574 N4576 1.610 . S
N4575 S4574 1.613 . S
N4575 C4578 1.350 . S
N4576 S4574 1.610 . S
N4576 C4577 1.351 . S
C4577 C4571 1.428 . S
C4577 N4576 1.351 . S
C4577 C4578 1.434 . S
C4578 C4569 1.429 1_565 S
C4578 N4575 1.350 . S
C4578 C4577 1.434 . S
C4579 C4580 1.370 1_545 S
C4579 C4581 1.424 . S
C4579 H4583 0.924 1_545 S
C4580 C4579 1.370 1_565 S
C4580 C4589 1.429 1_565 S
C4581 C4579 1.424 . S
C4581 C4582 1.363 . S
C4581 H4584 0.929 . S
C4582 C4581 1.363 . S
C4582 C4588 1.428 . S
H4583 C4579 0.924 1_565 S
H4584 C4581 0.929 . S
S4585 N4586 1.613 . S
S4585 N4587 1.610 . S
N4586 S4585 1.613 . S
N4586 C4589 1.350 . S
N4587 S4585 1.610 . S
N4587 C4588 1.351 . S
C4588 C4582 1.428 . S
C4588 N4587 1.351 . S
C4588 C4589 1.434 . S
C4589 C4580 1.429 1_545 S
C4589 N4586 1.350 . S
C4589 C4588 1.434 . S
C3205 C1 2.084 . S
C3207 C248 1.845 . S
C3216 C90 2.082 . S
C3218 C70 1.843 . S
C3227 C159 1.840 . S
C3229 C179 2.083 . S
C3238 C426 1.850 . S
C3240 C268 2.081 . S
C3249 C357 2.083 . S
C3251 C515 1.842 . S
C3260 C446 2.085 . S
C3262 C337 1.843 . S
C3271 C535 2.081 . S
C3273 C782 1.845 . S
C3282 C604 1.853 . S
C3284 C624 2.079 . S
C3293 C693 1.842 . S
C3295 C713 2.082 . S
C3304 C960 1.844 . S
C3306 C802 2.081 . S
C3315 C1049 1.841 . S
C3317 C891 2.084 . S
C3326 C980 2.080 . S
C3328 C871 1.850 . S
C3337 C1069 2.077 . S
C3339 C1316 1.851 . S
C3348 C1158 2.085 1_545 S
C3350 C1138 1.843 1_655 S
C3359 C1227 1.847 1_455 S
C3361 C1247 2.083 1_565 S
C3370 C1336 2.077 . S
C3372 C1494 1.850 . S
C3381 C1425 2.085 . S
C3383 C1583 1.842 . S
C3392 C1514 2.079 . S
C3394 C1405 1.847 . S
C3403 C1603 2.084 . S
C3405 C1850 1.842 . S
C3414 C1692 2.082 . S
C3416 C1672 1.848 . S
C3425 C1761 1.847 . S
C3427 C1781 2.080 . S
C3436 C1870 2.085 1_565 S
C3438 C2028 1.844 1_655 S
C3447 C2117 1.854 . S
C3449 C1959 2.078 1_545 S
C3458 C1939 1.853 1_455 S
C3460 C2048 2.078 . S
C3469 C2137 2.084 . S
C3471 C2384 1.845 . S
C3480 C2226 2.077 . S
C3482 C2206 1.850 . S
C3491 C2295 1.853 . S
C3493 C2315 2.079 . S
C3502 C2562 1.843 . S
C3504 C2404 2.084 . S
C3513 C2493 2.080 1_655 S
C3515 C2651 1.851 1_545 S
C3524 C2582 2.083 1_455 S
C3526 C2473 1.848 1_565 S
C3535 C2671 2.085 1_655 S
C3537 C2918 1.843 1_565 S
C3546 C2760 2.084 . S
C3548 C2740 1.842 1_545 S
C3557 C2849 2.084 1_455 S
C3559 C2829 1.842 . S
C3568 C3096 1.853 . S
C3570 C2938 2.078 . S
C3579 C3027 2.083 . S
C3581 C3185 1.843 . S
C3590 C3116 2.081 . S
C3592 C3007 1.849 . S
C3601 C2421 1.620 . S
C3603 C18 1.610 . S
C3612 C107 1.612 . S
C3614 C2510 1.611 . S
C3623 C196 1.608 . S
C3625 C2599 1.618 . S
C3634 C1086 1.615 . S
C3636 C285 1.610 . S
C3645 C1175 1.616 . S
C3647 C374 1.617 . S
C3656 C1264 1.608 . S
C3658 C463 1.618 . S
C3667 C1887 1.614 . S
C3669 C552 1.618 . S
C3678 C641 1.616 . S
C3680 C1976 1.609 . S
C3689 C730 1.608 . S
C3691 C2065 1.617 . S
C3700 C819 1.615 . S
C3702 C2688 1.618 . S
C3711 C2777 1.617 . S
C3713 C908 1.616 . S
C3722 C2866 1.612 . S
C3724 C997 1.611 . S
C3733 C2154 1.612 . S
C3735 C1353 1.611 . S
C3744 C1442 1.616 . S
C3746 C2243 1.609 . S
C3755 C2332 1.620 . S
C3757 C1531 1.613 . S
C3766 C2955 1.608 . S
C3768 C1620 1.618 . S
C3777 C3044 1.613 . S
C3779 C1709 1.619 . S
C3788 C1798 1.608 . S
C3790 C3133 1.614 . S
C3799 C73 1.431 . S
C3801 C1806 1.438 . S
C3810 C1628 1.440 . S
C3812 C162 1.429 . S
C3821 C251 1.432 . S
C3823 C1717 1.438 . S
C3832 C3052 1.442 . S
C3834 C340 1.426 . S
C3843 C3141 1.440 . S
C3845 C429 1.428 . S
C3854 C518 1.426 . S
C3856 C2963 1.441 . S
C3865 C2340 1.438 . S
C3867 C607 1.431 . S
C3876 C2162 1.440 . S
C3878 C696 1.428 . S
C3887 C2251 1.438 . S
C3889 C785 1.431 . S
C3898 C874 1.432 . S
C3900 C1450 1.438 . S
C3909 C1539 1.438 . S
C3911 C963 1.431 . S
C3920 C1052 1.431 . S
C3922 C1361 1.438 . S
C3931 C1141 1.429 . S
C3933 C2874 1.440 . S
C3942 C2696 1.438 . S
C3944 C1230 1.430 . S
C3953 C2785 1.441 . S
C3955 C1319 1.426 . S
C3964 C1408 1.432 . S
C3966 C916 1.438 . S
C3975 C1005 1.437 . S
C3977 C1497 1.431 . S
C3986 C827 1.437 . S
C3988 C1586 1.431 . S
C3997 C1675 1.426 . S
C3999 C204 1.441 . S
C4008 C1764 1.430 . S
C4010 C26 1.439 . S
C4019 C1853 1.426 . S
C4021 C115 1.440 . S
C4030 C1942 1.430 . S
C4032 C2518 1.439 . S
C4041 C2031 1.431 . S
C4043 C2607 1.438 . S
C4052 C2120 1.426 . S
C4054 C2429 1.441 . S
C4063 C738 1.437 . S
C4065 C2209 1.431 . S
C4074 C2298 1.428 . S
C4076 C560 1.440 . S
C4085 C649 1.441 . S
C4087 C2387 1.428 . S
C4096 C1984 1.440 . S
C4098 C2476 1.427 . S
C4107 C2565 1.431 . S
C4109 C2073 1.437 . S
C4118 C1895 1.439 . S
C4120 C2654 1.428 . S
C4129 C2743 1.432 . S
C4131 C1272 1.438 . S
C4140 C1094 1.438 . S
C4142 C2832 1.431 . S
C4151 C2921 1.426 . S
C4153 C1183 1.441 . S
C4162 C3010 1.430 . S
C4164 C382 1.440 . S
C4173 C3099 1.426 . S
C4175 C471 1.441 . S
C4184 C293 1.437 . S
C4186 C3188 1.431 . S
C4195 C61 2.011 . S
C4197 C241 2.150 . S
C4206 C150 2.007 . S
C4208 C63 2.152 . S
C4217 C152 2.156 . S
C4219 C239 2.013 . S
C4228 C328 2.007 . S
C4230 C419 2.154 . S
C4239 C417 2.017 . S
C4241 C508 2.152 . S
C4250 C506 2.010 . S
C4252 C330 2.155 . S
C4261 C595 2.010 . S
C4263 C775 2.155 . S
C4272 C684 2.011 . S
C4274 C597 2.150 . S
C4283 C773 2.015 . S
C4285 C686 2.155 . S
C4294 C953 2.155 . S
C4296 C862 2.014 . S
C4305 C1042 2.152 . S
C4307 C951 2.016 . S
C4316 C864 2.156 . S
C4318 C1040 2.011 . S
C4327 C1129 2.016 . S
C4329 C1309 2.151 . S
C4338 C1131 2.151 . S
C4340 C1218 2.015 . S
C4349 C1307 2.011 . S
C4351 C1220 2.155 . S
C4360 C1396 2.015 . S
C4362 C1487 2.155 . S
C4371 C1485 2.012 . S
C4373 C1576 2.150 . S
C4382 C1398 2.155 . S
C4384 C1574 2.015 . S
C4393 C1843 2.152 . S
C4395 C1663 2.016 . S
C4404 C1752 2.014 . S
C4406 C1665 2.155 . S
C4415 C1754 2.149 . S
C4417 C1841 2.014 . S
C4426 C1930 2.007 . S
C4428 C2021 2.152 . S
C4437 C2110 2.150 . S
C4439 C2019 2.015 . S
C4448 C2108 2.016 . S
C4450 C1932 2.151 . S
C4459 C2197 2.009 . S
C4461 C2377 2.151 . S
C4470 C2286 2.007 . S
C4472 C2199 2.152 . S
C4481 C2288 2.152 . S
C4483 C2375 2.016 . S
C4492 C2555 2.155 . S
C4494 C2464 2.009 . S
C4503 C2644 2.155 . S
C4505 C2553 2.014 . S
C4514 C2642 2.011 . S
C4516 C2466 2.150 . S
C4525 C2731 2.017 . S
C4527 C2911 2.152 . S
C4536 C2820 2.012 . S
C4538 C2733 2.155 . S
C4547 C2822 2.156 . S
C4549 C2909 2.011 . S
C4558 C2998 2.015 . S
C4560 C3089 2.151 . S
C4569 C3087 2.014 . S
C4571 C3178 2.153 . S
C4580 C3176 2.012 . S
C4582 C3000 2.151 . S
