# Generated by pormake.
# Topology tfs, (6)-cn, num edge types: 1
# Building blocks:
#     Node 0, Type 0, BuildingBlock: JUFBIX_clean_sbu_0, # of connection points: 6
#     Node 1, Type 0, BuildingBlock: JUFBIX_clean_sbu_0, # of connection points: 6
#     Node 2, Type 0, BuildingBlock: JUFBIX_clean_sbu_0, # of connection points: 6
#     Node 3, Type 0, BuildingBlock: JUFBIX_clean_sbu_0, # of connection points: 6
#     Node 4, Type 0, BuildingBlock: JUFBIX_clean_sbu_0, # of connection points: 6
#     Node 5, Type 0, BuildingBlock: JUFBIX_clean_sbu_0, # of connection points: 6
#     Edge 6, Type (0, 0), BuildingBlock: XUDNAN_clean_linker_2, # of connection points: 2
#     Edge 7, Type (0, 0), BuildingBlock: XUDNAN_clean_linker_2, # of connection points: 2
#     Edge 8, Type (0, 0), BuildingBlock: XUDNAN_clean_linker_2, # of connection points: 2
#     Edge 9, Type (0, 0), BuildingBlock: XUDNAN_clean_linker_2, # of connection points: 2
#     Edge 10, Type (0, 0), BuildingBlock: XUDNAN_clean_linker_2, # of connection points: 2
#     Edge 11, Type (0, 0), BuildingBlock: XUDNAN_clean_linker_2, # of connection points: 2
#     Edge 12, Type (0, 0), BuildingBlock: XUDNAN_clean_linker_2, # of connection points: 2
#     Edge 13, Type (0, 0), BuildingBlock: XUDNAN_clean_linker_2, # of connection points: 2
#     Edge 14, Type (0, 0), BuildingBlock: XUDNAN_clean_linker_2, # of connection points: 2
#     Edge 15, Type (0, 0), BuildingBlock: XUDNAN_clean_linker_2, # of connection points: 2
#     Edge 16, Type (0, 0), BuildingBlock: XUDNAN_clean_linker_2, # of connection points: 2
#     Edge 17, Type (0, 0), BuildingBlock: XUDNAN_clean_linker_2, # of connection points: 2
#     Edge 18, Type (0, 0), BuildingBlock: XUDNAN_clean_linker_2, # of connection points: 2
#     Edge 19, Type (0, 0), BuildingBlock: XUDNAN_clean_linker_2, # of connection points: 2
#     Edge 20, Type (0, 0), BuildingBlock: XUDNAN_clean_linker_2, # of connection points: 2
#     Edge 21, Type (0, 0), BuildingBlock: XUDNAN_clean_linker_2, # of connection points: 2
#     Edge 22, Type (0, 0), BuildingBlock: XUDNAN_clean_linker_2, # of connection points: 2
#     Edge 23, Type (0, 0), BuildingBlock: XUDNAN_clean_linker_2, # of connection points: 2
# Relax obj value: 0.289
# Max RMSD: 0.225
# Mean RMSD: 0.177
data_MOF--net-tfs--node1-JUFBIX_clean_sbu_0--edge1-XUDNAN_clean_linker_2
_symmetry_space_group_name_H-M    P1
_symmetry_Int_Tables_number       1
_symmetry_cell_setting            triclinic
loop_
_symmetry_equiv_pos_as_xyz
'x, y, z'
_cell_length_a     43.242821
_cell_length_b     46.774574
_cell_length_c     14.942274
_cell_angle_alpha  90.281133
_cell_angle_beta   92.327349
_cell_angle_gamma 112.4047
loop_
_atom_site_label
_atom_site_type_symbol
_atom_site_fract_x
_atom_site_fract_y
_atom_site_fract_z
_atom_type_partial_charge
Co0 Co 0.24623 0.4101 0.02637 0.0
C1 C 0.21686 0.39199 0.19233 0.0
Co2 Co 0.19288 0.37898 0.01899 0.0
C3 C 0.30563 0.46499 0.00452 0.0
C4 C 0.31496 0.43172 0.08761 0.0
N5 N 0.29067 0.43652 0.03826 0.0
N6 N 0.33829 0.47828 0.03144 0.0
C7 C 0.34421 0.45722 0.0833 0.0
H8 H 0.29247 0.47607 0.96337 0.0
H9 H 0.3115 0.41121 0.12571 0.0
C10 C 0.22084 0.39515 0.85255 0.0
N11 N 0.14849 0.35139 0.0051 0.0
C12 C 0.12036 0.34885 0.04688 0.0
C13 C 0.13884 0.32655 0.94881 0.0
N14 N 0.09398 0.32314 0.0191 0.0
C15 C 0.10558 0.30917 0.95758 0.0
C16 C 0.20297 0.44139 0.02401 0.0
O17 O 0.24798 0.41095 0.89636 0.0
O18 O 0.19487 0.38089 0.89513 0.0
O19 O 0.17983 0.41436 0.02069 0.0
O20 O 0.23329 0.44406 0.02583 0.0
O21 O 0.19111 0.37704 0.14281 0.0
H22 H 0.15525 0.32092 0.90551 0.0
H23 H 0.11951 0.36475 0.09872 0.0
O24 O 0.24388 0.40862 0.15605 0.0
O25 O 0.25913 0.3761 0.0274 0.0
O26 O 0.2068 0.34408 0.01838 0.0
C27 C 0.23773 0.34859 0.02373 0.0
H28 H 0.36792 0.45995 0.11638 0.0
H29 H 0.09101 0.28763 0.92237 0.0
Co30 Co 0.78626 0.22812 0.05392 0.0
C31 C 0.7954 0.25715 0.22469 0.0
Co32 Co 0.79851 0.27885 0.05434 0.0
C33 C 0.77279 0.16199 0.01412 0.0
C34 C 0.74879 0.17028 0.12844 0.0
N35 N 0.77038 0.18506 0.06529 0.0
N36 N 0.75326 0.13372 0.04327 0.0
C37 C 0.73832 0.139 0.11507 0.0
H38 H 0.78703 0.16578 0.95434 0.0
H39 H 0.73986 0.18152 0.17893 0.0
C40 C 0.79052 0.24855 0.88377 0.0
N41 N 0.81445 0.32196 0.04238 0.0
C42 C 0.80939 0.34536 0.08537 0.0
C43 C 0.83844 0.33633 0.9844 0.0
N44 N 0.82974 0.37345 0.0565 0.0
C45 C 0.84788 0.36767 0.99315 0.0
C46 C 0.85322 0.25868 0.06113 0.0
O47 O 0.78476 0.22437 0.92936 0.0
O48 O 0.79633 0.27425 0.92427 0.0
O49 O 0.84426 0.28166 0.05896 0.0
O50 O 0.83095 0.23142 0.05882 0.0
O51 O 0.8006 0.2825 0.18466 0.0
H52 H 0.84923 0.32472 0.93988 0.0
H53 H 0.79223 0.34198 0.13875 0.0
O54 O 0.78854 0.23257 0.17836 0.0
O55 O 0.74171 0.22513 0.04929 0.0
O56 O 0.75235 0.27491 0.05054 0.0
C57 C 0.73116 0.247 0.04856 0.0
H58 H 0.72018 0.12135 0.15345 0.0
H59 H 0.86701 0.38505 0.95652 0.0
Co60 Co 0.57825 0.7702 0.02865 0.0
C61 C 0.59115 0.79717 0.8605 0.0
Co62 Co 0.60552 0.82101 0.03238 0.0
C63 C 0.52923 0.70756 0.99561 0.0
C64 C 0.57425 0.70901 0.06423 0.0
N65 N 0.55986 0.72726 0.02605 0.0
N66 N 0.52394 0.67788 0.01438 0.0
C67 C 0.55238 0.67878 0.05683 0.0
H68 H 0.51057 0.71493 0.96435 0.0
H69 H 0.59867 0.71716 0.09845 0.0
C70 C 0.59239 0.7958 0.20095 0.0
N71 N 0.62343 0.86429 0.03964 0.0
C72 C 0.64744 0.88672 0.99563 0.0
C73 C 0.61072 0.87981 0.09396 0.0
N74 N 0.64953 0.91537 0.02019 0.0
C75 C 0.62654 0.91089 0.08221 0.0
C76 C 0.53374 0.79792 0.02552 0.0
O77 O 0.57902 0.76993 0.15904 0.0
O78 O 0.60551 0.8201 0.15657 0.0
O79 O 0.56086 0.82185 0.02739 0.0
O80 O 0.53539 0.77147 0.0269 0.0
O81 O 0.60522 0.82161 0.90833 0.0
H82 H 0.59057 0.86911 0.13846 0.0
H83 H 0.66223 0.88215 0.94488 0.0
O84 O 0.57754 0.77121 0.89854 0.0
O85 O 0.62108 0.76921 0.02949 0.0
O86 O 0.64973 0.81923 0.03655 0.0
C87 C 0.64912 0.79177 0.03279 0.0
H88 H 0.55685 0.65904 0.08266 0.0
H89 H 0.62146 0.92896 0.11661 0.0
Co90 Co 0.83616 0.64298 0.09032 0.0
C91 C 0.8092 0.63027 0.25619 0.0
Co92 Co 0.78275 0.61167 0.08181 0.0
C93 C 0.90739 0.66868 0.0528 0.0
C94 C 0.89386 0.69594 0.14707 0.0
N95 N 0.88112 0.66965 0.09705 0.0
N96 N 0.93608 0.69346 0.073 0.0
C97 C 0.92737 0.71055 0.1325 0.0
H98 H 0.90523 0.65012 0.00644 0.0
H99 H 0.87952 0.70427 0.19039 0.0
C100 C 0.81115 0.62637 0.91612 0.0
N101 N 0.73777 0.58591 0.07722 0.0
C102 C 0.72275 0.5565 0.04532 0.0
C103 C 0.7131 0.59234 0.11387 0.0
N104 N 0.6898 0.54429 0.06174 0.0
C105 C 0.68368 0.56693 0.10429 0.0
C106 C 0.79234 0.67386 0.07463 0.0
O107 O 0.83667 0.64161 0.96608 0.0
O108 O 0.78384 0.61019 0.95202 0.0
O109 O 0.77092 0.64633 0.07295 0.0
O110 O 0.82327 0.67844 0.08316 0.0
O111 O 0.78236 0.61383 0.21213 0.0
H112 H 0.71645 0.61384 0.14798 0.0
H113 H 0.73601 0.54386 0.0143 0.0
O114 O 0.83537 0.64441 0.21414 0.0
O115 O 0.84817 0.60701 0.09752 0.0
O116 O 0.79478 0.57717 0.09005 0.0
C117 C 0.82512 0.57994 0.09653 0.0
H118 H 0.94368 0.73251 0.1623 0.0
H119 H 0.65974 0.56513 0.12827 0.0
Co120 Co 0.23075 0.74213 0.96082 0.0
C121 C 0.23634 0.76822 0.13239 0.0
Co122 Co 0.24021 0.79236 0.96418 0.0
C123 C 0.22116 0.67691 0.00416 0.0
C124 C 0.19206 0.68256 0.89125 0.0
N125 N 0.21578 0.69883 0.95391 0.0
N126 N 0.20128 0.64796 0.97497 0.0
C127 C 0.18311 0.65159 0.90421 0.0
H128 H 0.23823 0.682 0.06245 0.0
H129 H 0.18108 0.69263 0.84038 0.0
C130 C 0.2356 0.7683 0.79222 0.0
N131 N 0.25526 0.83585 0.96333 0.0
C132 C 0.25224 0.85766 0.01893 0.0
C133 C 0.27741 0.85231 0.90339 0.0
N134 N 0.27186 0.8867 0.99519 0.0
C135 C 0.2875 0.8832 0.92259 0.0
C136 C 0.29726 0.77513 0.96963 0.0
O137 O 0.23244 0.74325 0.83084 0.0
O138 O 0.23821 0.79163 0.83967 0.0
O139 O 0.2859 0.79653 0.96581 0.0
O140 O 0.27672 0.74705 0.96939 0.0
O141 O 0.24189 0.79249 0.08731 0.0
H142 H 0.28712 0.84244 0.85119 0.0
H143 H 0.23752 0.85237 0.07794 0.0
O144 O 0.22977 0.74232 0.09142 0.0
O145 O 0.18509 0.73797 0.95232 0.0
O146 O 0.19425 0.78744 0.96355 0.0
C147 C 0.17385 0.75938 0.95562 0.0
H148 H 0.16429 0.63299 0.86532 0.0
H149 H 0.30591 0.90181 0.88768 0.0
Co150 Co 0.42285 0.19955 0.04246 0.0
C151 C 0.43711 0.22644 0.87458 0.0
Co152 Co 0.4503 0.25044 0.04705 0.0
C153 C 0.37951 0.13326 0.07085 0.0
C154 C 0.41733 0.14119 0.97526 0.0
N155 N 0.40429 0.1562 0.03039 0.0
N156 N 0.37729 0.1048 0.04337 0.0
C157 C 0.40099 0.10995 0.98311 0.0
H158 H 0.36423 0.13729 0.12118 0.0
H159 H 0.43805 0.15232 0.93284 0.0
C160 C 0.43613 0.22168 0.21453 0.0
N161 N 0.46969 0.29322 0.05774 0.0
C162 C 0.49876 0.3131 0.02626 0.0
C163 C 0.45815 0.311 0.10667 0.0
N164 N 0.50586 0.34258 0.05411 0.0
C165 C 0.48007 0.34122 0.1041 0.0
C166 C 0.37974 0.22959 0.04147 0.0
O167 O 0.42269 0.19729 0.1663 0.0
O168 O 0.44942 0.2477 0.17686 0.0
O169 O 0.4078 0.25219 0.043 0.0
O170 O 0.37901 0.20205 0.03953 0.0
O171 O 0.45102 0.25227 0.91681 0.0
H172 H 0.43576 0.30244 0.1444 0.0
H173 H 0.51499 0.30583 0.98674 0.0
O174 O 0.4233 0.20214 0.91863 0.0
O175 O 0.46731 0.19826 0.04589 0.0
O176 O 0.49267 0.24866 0.05132 0.0
C177 C 0.49437 0.22228 0.0494 0.0
H178 H 0.40621 0.09224 0.94721 0.0
H179 H 0.47728 0.36057 0.13772 0.0
H180 H 0.37755 0.28189 0.10974 0.0
H181 H 0.31386 0.19517 0.97999 0.0
H182 H 0.26704 0.21402 0.97105 0.0
H183 H 0.31467 0.29626 0.23636 0.0
H184 H 0.33359 0.33727 0.21816 0.0
H185 H 0.3592 0.31462 0.22383 0.0
H186 H 0.38173 0.33437 0.06827 0.0
H187 H 0.35605 0.35684 0.06164 0.0
H188 H 0.35256 0.32903 0.97399 0.0
H189 H 0.22871 0.24653 0.96676 0.0
H190 H 0.20505 0.28747 0.96586 0.0
H191 H 0.29757 0.35164 0.09267 0.0
C192 C 0.35372 0.26648 0.0803 0.0
C193 C 0.34943 0.23711 0.04515 0.0
C194 C 0.31763 0.21773 0.0079 0.0
C195 C 0.29102 0.22834 1.00237 0.0
C196 C 0.29677 0.25817 0.03507 0.0
C197 C 0.32751 0.2767 0.07384 0.0
C198 C 0.32914 0.30856 0.09835 0.0
C199 C 0.33445 0.3145 0.20023 0.0
C200 C 0.35647 0.33365 0.0475 0.0
C201 C 0.29463 0.30564 0.0661 0.0
C202 C 0.27585 0.27646 0.03071 0.0
C203 C 0.2433 0.2693 0.99489 0.0
C204 C 0.23003 0.29264 0.99466 0.0
C205 C 0.24958 0.32278 0.02864 0.0
C206 C 0.28203 0.32894 0.06557 0.0
H207 H 0.0505 0.35226 0.0261 0.0
H208 H 0.06189 0.26571 0.07678 0.0
H209 H 1.00163 0.24068 0.1047 0.0
H210 H 0.98358 0.3422 0.19021 0.0
H211 H 0.96177 0.35926 0.11614 0.0
H212 H 1.00663 0.37159 0.11379 0.0
H213 H 1.00108 0.35877 0.94361 0.0
H214 H 0.95626 0.34602 0.94566 0.0
H215 H 0.97485 0.32034 0.90382 0.0
H216 H 0.93995 0.22347 0.10828 0.0
H217 H 0.88021 0.21554 0.09607 0.0
H218 H 0.90756 0.3131 0.04228 0.0
C219 C 0.04033 0.32839 0.04637 0.0
C220 C 0.06063 0.31087 0.05072 0.0
C221 C 0.04655 0.27939 0.07412 0.0
C222 C 1.01244 0.26505 0.08997 0.0
C223 C 0.99271 0.28254 0.08203 0.0
C224 C 1.00607 0.3136 0.06171 0.0
C225 C 0.97866 0.32627 0.05014 0.0
C226 C 0.98292 0.35131 0.12186 0.0
C227 C 0.97767 0.33856 0.95516 0.0
C228 C 0.94793 0.29731 0.06479 0.0
C229 C 0.9567 0.27244 0.08367 0.0
C230 C 0.93274 0.24285 0.09492 0.0
C231 C 0.89885 0.23854 0.0873 0.0
C232 C 0.88917 0.26368 0.06856 0.0
C233 C 0.91415 0.29347 0.05755 0.0
H234 H 0.69212 0.09236 0.99802 0.0
H235 H 0.79695 0.10672 0.00583 0.0
H236 H 0.78169 0.05065 0.97279 0.0
H237 H 0.66574 0.02717 0.11475 0.0
H238 H 0.62616 1.0082 0.054 0.0
H239 H 0.64562 0.04963 0.05692 0.0
H240 H 0.64402 0.05022 0.88335 0.0
H241 H 0.62418 1.0086 0.87975 0.0
H242 H 0.66229 0.02768 0.82236 0.0
H243 H 0.75346 0.99105 0.96767 0.0
H244 H 0.71615 0.9362 0.98998 0.0
H245 H 0.63046 0.96248 0.98381 0.0
C246 C 0.7118 0.08379 0.98899 0.0
C247 C 0.74563 0.10365 1.00314 0.0
C248 C 0.77092 0.09181 0.99323 0.0
C249 C 0.76239 0.06002 0.97489 0.0
C250 C 0.72849 0.04066 0.96522 0.0
C251 C 0.70366 0.0524 0.97049 0.0
C252 C 0.66919 0.02694 0.96848 0.0
C253 C 0.65063 0.02806 0.05358 0.0
C254 C 0.64872 0.02845 0.8834 0.0
C255 C 0.67833 0.99884 0.966 0.0
C256 C 0.71253 1.00693 0.96243 0.0
C257 C 0.72663 0.98454 0.96833 0.0
C258 C 0.70533 0.95344 0.98062 0.0
C259 C 0.67051 0.94523 0.98823 0.0
C260 C 0.657 0.96816 0.97765 0.0
H261 H 0.7325 0.66965 1.00202 0.0
H262 H 0.82461 0.7358 0.12524 0.0
H263 H 0.80053 0.77641 0.11735 0.0
H264 H 0.71489 0.72285 0.85009 0.0
H265 H 0.6704 0.70429 0.86277 0.0
H266 H 0.69646 0.68213 0.87289 0.0
H267 H 0.67409 0.66446 0.03017 0.0
H268 H 0.64802 0.6865 0.0205 0.0
H269 H 0.6774 0.69318 0.11487 0.0
H270 H 0.76192 0.80853 0.10655 0.0
H271 H 0.71493 0.82702 0.09281 0.0
H272 H 0.65149 0.7385 0.97185 0.0
C273 C 0.7479 0.69274 0.02669 0.0
C274 C 0.78036 0.69954 0.06466 0.0
C275 C 0.79966 0.73013 0.09558 0.0
C276 C 0.78614 0.75328 0.09139 0.0
C277 C 0.75358 0.7455 0.05474 0.0
C278 C 0.73505 0.71588 0.02214 0.0
C279 C 0.70039 0.71236 0.9889 0.0
C280 C 0.69526 0.70499 0.88765 0.0
C281 C 0.67341 0.68768 0.04178 0.0
C282 C 0.70171 0.74439 0.00954 0.0
C283 C 0.73242 0.76353 0.04714 0.0
C284 C 0.73798 0.79372 0.07605 0.0
C285 C 0.71126 0.80414 0.06776 0.0
C286 C 0.67951 0.78424 0.03146 0.0
C287 C 0.67536 0.7544 1.0002 0.0
H288 H 0.13495 0.77934 0.06117 0.0
H289 H 0.13035 0.71777 0.83889 0.0
H290 H 0.06858 0.69637 0.83865 0.0
H291 H 0.07084 0.72428 0.1772 0.0
H292 H 0.05345 0.75082 0.21955 0.0
H293 H 0.09704 0.7646 0.19468 0.0
H294 H 0.0893 0.80513 0.0881 0.0
H295 H 0.04569 0.79164 0.11329 0.0
H296 H 0.05748 0.79262 0.99867 0.0
H297 H 1.00767 0.6791 0.86871 0.0
H298 H 0.95186 0.66686 0.92732 0.0
H299 H 0.99597 0.73709 0.13734 0.0
C300 C 0.12078 0.76208 0.01081 0.0
C301 C 0.13723 0.75059 0.94879 0.0
C302 C 0.11806 0.7271 0.88608 0.0
C303 C 0.08301 0.7148 0.88548 0.0
C304 C 0.06742 0.72596 0.94885 0.0
C305 C 0.08561 0.74906 0.01043 0.0
C306 C 0.06272 0.75489 0.07617 0.0
C307 C 0.07155 0.74824 0.17258 0.0
C308 C 0.06387 0.78804 0.06857 0.0
C309 C 0.02902 0.73128 0.04242 0.0
C310 C 0.03227 0.71509 0.96842 0.0
C311 C 1.00478 0.69171 0.92657 0.0
C312 C 0.97305 0.68474 0.96105 0.0
C313 C 0.96892 0.70083 0.03751 0.0
C314 C 0.99762 0.72444 0.07826 0.0
H315 H 0.33248 0.9269 0.05021 0.0
H316 H 0.22793 0.91348 0.0325 0.0
H317 H 0.24326 0.96923 0.07048 0.0
H318 H 0.36064 0.98991 0.23133 0.0
H319 H 0.39959 1.00929 0.17786 0.0
H320 H 0.3794 0.96772 0.17066 0.0
H321 H 0.38009 0.97002 0.99747 0.0
H322 H 0.39983 0.01142 1.0039 0.0
H323 H 0.36095 0.99323 0.93943 0.0
H324 H 0.27204 0.02891 0.08223 0.0
H325 H 0.31015 0.08394 0.06701 0.0
H326 H 0.39521 0.05674 0.07659 0.0
C327 C 0.3128 0.93553 0.05847 0.0
C328 C 0.27906 0.91599 0.04016 0.0
C329 C 0.25385 0.92803 0.0486 0.0
C330 C 0.26244 0.95968 0.06959 0.0
C331 C 0.29632 0.97877 0.0831 0.0
C332 C 0.32102 0.96682 0.07924 0.0
C333 C 0.35564 0.99211 0.08509 0.0
C334 C 0.37495 0.9896 0.17139 0.0
C335 C 0.37524 0.99166 1.00151 0.0
C336 C 0.34682 0.02039 0.08836 0.0
C337 C 0.31258 0.01251 0.08893 0.0
C338 C 0.29888 0.03521 0.08381 0.0
C339 C 0.32063 0.06643 0.07556 0.0
C340 C 0.35556 0.07451 0.07105 0.0
C341 C 0.36861 0.05118 0.08047 0.0
H342 H 0.24862 0.62328 0.98985 0.0
H343 H 0.14458 0.60527 0.03176 0.0
H344 H 0.13369 0.55016 0.05849 0.0
H345 H 0.23426 0.55655 0.86587 0.0
H346 H 0.26996 0.54934 0.9101 0.0
H347 H 0.27107 0.58818 0.90908 0.0
H348 H 0.28462 0.594 0.08029 0.0
H349 H 0.28417 0.55531 0.08138 0.0
H350 H 0.25772 0.56582 0.15395 0.0
H351 H 0.1326 0.49577 0.06066 0.0
H352 H 0.14271 0.44712 0.05037 0.0
H353 H 0.24745 0.50073 0.00582 0.0
C354 C 0.22401 0.60789 0.00864 0.0
C355 C 0.19753 0.61844 0.01096 0.0
C356 C 0.16519 0.59752 0.03159 0.0
C357 C 0.15879 0.56622 0.04632 0.0
C358 C 0.18506 0.55614 0.04002 0.0
C359 C 0.21718 0.57642 0.02292 0.0
C360 C 0.2403 0.55919 0.01259 0.0
C361 C 0.25473 0.56358 0.91884 0.0
C362 C 0.26836 0.56917 0.08648 0.0
C363 C 0.21605 0.52618 0.02459 0.0
C364 C 0.18433 0.52482 0.04063 0.0
C365 C 0.15748 0.49658 0.04944 0.0
C366 C 0.16336 0.46905 0.0429 0.0
C367 C 0.19583 0.47001 0.0277 0.0
C368 C 0.22234 0.49907 0.01834 0.0
H369 H 0.55625 0.26976 0.05777 0.0
H370 H 0.50765 0.16957 0.04053 0.0
H371 H 0.56304 0.16585 0.03752 0.0
H372 H 0.62226 0.27704 0.91011 0.0
H373 H 0.65363 0.30824 0.97384 0.0
H374 H 0.61025 0.30329 0.97561 0.0
H375 H 0.61277 0.30084 0.14866 0.0
H376 H 0.65618 0.30587 0.14759 0.0
H377 H 0.62664 0.273 0.20174 0.0
H378 H 0.6226 0.17269 0.03528 0.0
H379 H 0.68347 0.18893 0.03633 0.0
H380 H 0.6951 0.28534 0.05534 0.0
C381 C 0.55721 0.24699 0.05357 0.0
C382 C 0.52754 0.21988 0.04948 0.0
C383 C 0.52996 0.1906 0.04391 0.0
C384 C 0.56131 0.18828 0.04205 0.0
C385 C 0.58996 0.21543 0.04585 0.0
C386 C 0.5883 0.24424 0.0517 0.0
C387 C 0.62307 0.26974 0.05493 0.0
C388 C 0.62755 0.29082 0.97378 0.0
C389 C 0.63007 0.28846 0.14351 0.0
C390 C 0.64459 0.25069 0.04989 0.0
C391 C 0.62477 0.21945 0.04463 0.0
C392 C 0.63839 0.19705 0.03946 0.0
C393 C 0.67318 0.20667 0.04012 0.0
C394 C 0.69435 0.23855 0.04599 0.0
C395 C 0.67972 0.26087 0.05065 0.0
H396 H 0.50246 0.62797 0.12008 0.0
H397 H 0.47572 0.66729 0.88129 0.0
H398 H 0.42358 0.62044 0.85983 0.0
H399 H 0.47433 0.55046 0.03858 0.0
H400 H 0.45925 0.53397 0.14473 0.0
H401 H 0.49347 0.57094 0.14161 0.0
H402 H 0.46076 0.59556 0.23658 0.0
H403 H 0.42644 0.55863 0.24016 0.0
H404 H 0.41925 0.59178 0.19861 0.0
H405 H 0.37515 0.56762 0.86329 0.0
H406 H 0.33491 0.51483 0.89232 0.0
H407 H 0.39456 0.51221 0.13068 0.0
C408 C 0.48587 0.62672 0.06271 0.0
C409 C 0.4933 0.65112 1.00175 0.0
C410 C 0.47041 0.64885 0.9289 0.0
C411 C 0.44085 0.62233 0.91612 0.0
C412 C 0.43457 0.59852 0.97726 0.0
C413 C 0.45644 0.60067 0.04935 0.0
C414 C 0.44431 0.57213 0.10568 0.0
C415 C 0.46933 0.55592 0.10771 0.0
C416 C 0.43727 0.58001 0.20087 0.0
C417 C 0.41235 0.55322 0.0534 0.0
C418 C 0.40696 0.56872 0.97971 0.0
C419 C 0.37909 0.55538 0.92114 0.0
C420 C 0.35628 0.5254 0.93843 0.0
C421 C 0.36151 0.50912 0.01367 0.0
C422 C 0.38991 0.52356 0.07175 0.0
H423 H 0.78058 0.51978 0.08126 0.0
H424 H 0.8865 0.57553 0.12582 0.0
H425 H 0.89808 0.52768 0.13616 0.0
H426 H 0.77698 0.45702 0.22943 0.0
H427 H 0.74784 0.42757 0.15567 0.0
H428 H 0.74762 0.46603 0.15735 0.0
H429 H 0.7556 0.46972 0.98651 0.0
H430 H 0.75556 0.43124 0.98397 0.0
H431 H 0.7903 0.46293 0.94132 0.0
H432 H 0.89834 0.47396 0.13337 0.0
H433 H 0.88793 0.41868 0.1089 0.0
H434 H 0.78185 0.39763 0.06707 0.0
C435 C 0.80625 0.52205 0.09401 0.0
C436 C 0.83268 0.55154 0.10316 0.0
C437 C 0.86587 0.55329 0.11876 0.0
C438 C 0.87263 0.52622 0.12514 0.0
C439 C 0.84594 0.49757 0.11596 0.0
C440 C 0.81341 0.49533 0.10034 0.0
C441 C 0.78942 0.46184 0.08802 0.0
C442 C 0.76396 0.45258 0.16205 0.0
C443 C 0.77169 0.45611 0.99439 0.0
C444 C 0.81359 0.44546 0.09766 0.0
C445 C 0.84603 0.46655 0.11464 0.0
C446 C 0.87303 0.45728 0.12117 0.0
C447 C 0.86691 0.42588 0.10748 0.0
C448 C 0.83409 0.40398 0.08765 0.0
C449 C 0.807 0.41382 0.08469 0.0
H450 H 0.33311 0.73693 0.98379 0.0
H451 H 0.34519 0.83338 0.97077 0.0
H452 H 0.40626 0.84933 0.98524 0.0
H453 H 0.40092 0.74838 0.14677 0.0
H454 H 0.41426 0.72023 0.09592 0.0
H455 H 0.37106 0.71586 0.08401 0.0
H456 H 0.3736 0.7137 0.9113 0.0
H457 H 0.41678 0.71796 0.92282 0.0
H458 H 0.4053 0.74467 0.85599 0.0
H459 H 0.46608 0.8555 1.00242 0.0
H460 H 0.52111 0.851 0.01748 0.0
H461 H 0.47133 0.75091 0.01862 0.0
C462 C 0.34862 0.76137 0.98372 0.0
C463 C 0.33414 0.78382 0.97615 0.0
C464 C 0.35545 0.81562 0.97648 0.0
C465 C 0.3903 0.82501 0.98476 0.0
C466 C 0.40375 0.80242 0.99256 0.0
C467 C 0.3837 0.77125 0.99183 0.0
C468 C 0.40488 0.75186 1.00103 0.0
C469 C 0.39732 0.73297 0.08706 0.0
C470 C 0.39984 0.73081 0.91782 0.0
C471 C 0.43979 0.77703 0.00699 0.0
C472 C 0.43852 0.80602 1.00215 0.0
C473 C 0.46745 0.83291 0.00619 0.0
C474 C 0.49861 0.83013 0.01485 0.0
C475 C 0.50064 0.80066 0.01925 0.0
C476 C 0.4707 0.77382 0.01555 0.0
H477 H 0.63683 0.51245 0.16027 0.0
H478 H 0.69026 0.50468 0.92794 0.0
H479 H 0.64938 0.45096 0.90057 0.0
H480 H 0.61589 0.4347 0.23472 0.0
H481 H 0.57548 0.4313 0.27155 0.0
H482 H 0.60942 0.46858 0.27247 0.0
H483 H 0.57289 0.49015 0.17376 0.0
H484 H 0.53887 0.45294 0.1724 0.0
H485 H 0.55451 0.47104 0.06844 0.0
H486 H 0.60044 0.3981 0.89727 0.0
H487 H 0.54957 0.35148 0.92003 0.0
H488 H 0.5305 0.3953 0.15679 0.0
C489 C 0.63986 0.49965 0.10306 0.0
C490 C 0.66656 0.51288 0.04568 0.0
C491 C 0.67004 0.49495 0.97293 0.0
C492 C 0.64688 0.46449 0.95675 0.0
C493 C 0.62062 0.45232 0.01442 0.0
C494 C 0.61722 0.4694 0.08638 0.0
C495 C 0.58706 0.45133 0.13886 0.0
C496 C 0.59761 0.44617 0.23508 0.0
C497 C 0.56185 0.46732 0.13827 0.0
C498 C 0.57357 0.42146 0.0846 0.0
C499 C 0.59316 0.42228 0.01316 0.0
C500 C 0.58506 0.39722 0.95337 0.0
C501 C 0.55615 0.37076 0.96707 0.0
C502 C 0.53571 0.36958 0.03999 0.0
C503 C 0.54496 0.39537 0.09942 0.0
H504 H 0.26339 0.42979 0.72122 0.0
H505 H 0.17206 0.34948 0.7598 0.0
H506 H 0.16366 0.3403 0.59867 0.0
H507 H 0.23239 0.45585 0.5236 0.0
H508 H 0.27095 0.46781 0.46582 0.0
H509 H 0.27193 0.46826 0.58651 0.0
H510 H 0.30598 0.43317 0.58892 0.0
H511 H 0.30516 0.43267 0.46817 0.0
H512 H 0.28983 0.39682 0.5274 0.0
H513 H 0.16207 0.33977 0.43823 0.0
H514 H 0.16819 0.34752 0.27741 0.0
H515 H 0.26057 0.42768 0.32963 0.0
C516 C 0.24188 0.41019 0.69539 0.0
C517 C 0.21834 0.39051 0.75385 0.0
C518 C 0.19037 0.36517 0.71726 0.0
C519 C 0.18532 0.35956 0.62535 0.0
C520 C 0.2084 0.3794 0.56967 0.0
C521 C 0.23621 0.40417 0.60221 0.0
C522 C 0.25621 0.42201 0.52477 0.0
C523 C 0.25797 0.45547 0.52523 0.0
C524 C 0.29139 0.42111 0.5275 0.0
C525 C 0.2349 0.40341 0.44476 0.0
C526 C 0.20756 0.37896 0.47345 0.0
C527 C 0.18344 0.35871 0.41444 0.0
C528 C 0.18714 0.36345 0.32294 0.0
C529 C 0.21483 0.38824 0.29052 0.0
C530 C 0.23924 0.40844 0.35242 0.0
H531 H 0.78818 0.29045 0.75411 0.0
H532 H 0.79812 0.20214 0.79071 0.0
H533 H 0.8035 0.19773 0.62925 0.0
H534 H 0.73777 0.26786 0.5468 0.0
H535 H 0.75658 0.30494 0.49536 0.0
H536 H 0.75495 0.30262 0.61552 0.0
H537 H 0.81923 0.33201 0.63079 0.0
H538 H 0.82108 0.33429 0.51059 0.0
H539 H 0.84605 0.31728 0.573 0.0
H540 H 0.80807 0.20173 0.46924 0.0
H541 H 0.80693 0.21145 0.30946 0.0
H542 H 0.79181 0.29656 0.36383 0.0
C543 C 0.79158 0.27029 0.72781 0.0
C544 C 0.79277 0.24663 0.78538 0.0
C545 C 0.79696 0.22048 0.7484 0.0
C546 C 0.80025 0.21782 0.65662 0.0
C547 C 0.79905 0.24135 0.60192 0.0
C548 C 0.79447 0.26697 0.63511 0.0
C549 C 0.79262 0.28795 0.55893 0.0
C550 C 0.75844 0.29102 0.55387 0.0
C551 C 0.82147 0.31978 0.56895 0.0
C552 C 0.79675 0.26987 0.47825 0.0
C553 C 0.80077 0.2433 0.50603 0.0
C554 C 0.80479 0.22235 0.44635 0.0
C555 C 0.80398 0.22816 0.35527 0.0
C556 C 0.79891 0.25466 0.32334 0.0
C557 C 0.79581 0.27619 0.386 0.0
H558 H 0.57661 0.75176 0.72499 0.0
H559 H 0.60315 0.85028 0.77285 0.0
H560 H 0.60406 0.85862 0.61187 0.0
H561 H 0.62888 0.76009 0.53796 0.0
H562 H 0.59979 0.72755 0.47368 0.0
H563 H 0.59921 0.72786 0.59419 0.0
H564 H 0.53641 0.7194 0.58454 0.0
H565 H 0.53677 0.71899 0.46393 0.0
H566 H 0.52307 0.74574 0.52137 0.0
H567 H 0.60498 0.85829 0.45191 0.0
H568 H 0.60507 0.84931 0.29142 0.0
H569 H 0.57758 0.75084 0.33375 0.0
C570 C 0.58229 0.77496 0.70116 0.0
C571 C 0.58995 0.80036 0.76201 0.0
C572 C 0.59747 0.83042 0.72823 0.0
C573 C 0.59794 0.83548 0.63656 0.0
C574 C 0.59082 0.8103 0.57862 0.0
C575 C 0.58304 0.78059 0.60851 0.0
C576 C 0.57739 0.75818 0.52935 0.0
C577 C 0.60284 0.7425 0.5341 0.0
C578 C 0.54126 0.73415 0.52453 0.0
C579 C 0.58367 0.78025 0.45128 0.0
C580 C 0.59125 0.81009 0.48257 0.0
C581 C 0.59893 0.83504 0.42613 0.0
C582 C 0.59903 0.82958 0.33463 0.0
C583 C 0.59142 0.79933 0.29932 0.0
C584 C 0.58337 0.77417 0.3586 0.0
H585 H 0.7676 0.59202 0.77562 0.0
H586 H 0.86106 0.67049 0.83402 0.0
H587 H 0.86759 0.68016 0.67449 0.0
H588 H 0.7959 0.5658 0.57764 0.0
H589 H 0.75644 0.55446 0.51482 0.0
H590 H 0.75732 0.55353 0.63542 0.0
H591 H 0.72383 0.58906 0.63863 0.0
H592 H 0.72298 0.59021 0.518 0.0
H593 H 0.73957 0.62571 0.58349 0.0
H594 H 0.86579 0.68252 0.51426 0.0
H595 H 0.85752 0.67549 0.35201 0.0
H596 H 0.766 0.59479 0.38424 0.0
C597 C 0.78931 0.61122 0.75445 0.0
C598 C 0.81378 0.63044 0.81798 0.0
C599 C 0.84197 0.65524 0.78746 0.0
C600 C 0.84593 0.66114 0.6966 0.0
C601 C 0.82163 0.64199 0.63601 0.0
C602 C 0.79398 0.61738 0.66257 0.0
C603 C 0.77267 0.60004 0.58087 0.0
C604 C 0.77046 0.56647 0.57698 0.0
C605 C 0.73768 0.60134 0.58024 0.0
C606 C 0.793 0.61885 0.50524 0.0
C607 C 0.82091 0.64303 0.53988 0.0
C608 C 0.84409 0.66367 0.4859 0.0
C609 C 0.83912 0.65934 0.39346 0.0
C610 C 0.81122 0.63444 0.35492 0.0
C611 C 0.78748 0.61409 0.41169 0.0
H612 H 0.22279 0.72298 0.26444 0.0
H613 H 0.25495 0.82217 0.22533 0.0
H614 H 0.25854 0.83107 0.38627 0.0
H615 H 0.17202 0.7203 0.45364 0.0
H616 H 0.18355 0.69252 0.51511 0.0
H617 H 0.18376 0.69254 0.39452 0.0
H618 H 0.2457 0.69807 0.40225 0.0
H619 H 0.24566 0.69803 0.5229 0.0
H620 H 0.27634 0.72957 0.46681 0.0
H621 H 0.2578 0.83112 0.54541 0.0
H622 H 0.25359 0.82221 0.70545 0.0
H623 H 0.22273 0.72319 0.65623 0.0
C624 C 0.23067 0.74649 0.29013 0.0
C625 C 0.23845 0.77177 0.23136 0.0
C626 C 0.24865 0.80223 0.26784 0.0
C627 C 0.25089 0.8077 0.35973 0.0
C628 C 0.24296 0.78259 0.41549 0.0
C629 C 0.23313 0.75256 0.38328 0.0
C630 C 0.22588 0.73023 0.46089 0.0
C631 C 0.18911 0.70755 0.4557 0.0
C632 C 0.24983 0.71295 0.46334 0.0
C633 C 0.23302 0.75266 0.54059 0.0
C634 C 0.24282 0.78265 0.51142 0.0
C635 C 0.2503 0.80778 0.56962 0.0
C636 C 0.24773 0.80235 0.66085 0.0
C637 C 0.23785 0.77196 0.69406 0.0
C638 C 0.23049 0.74667 0.63294 0.0
H639 H 0.45257 0.27099 0.73975 0.0
H640 H 0.4236 0.17254 0.78581 0.0
H641 H 0.4225 0.1626 0.62585 0.0
H642 H 0.40053 0.26163 0.53819 0.0
H643 H 0.43026 0.29315 0.47969 0.0
H644 H 0.4307 0.29413 0.60032 0.0
H645 H 0.49314 0.30128 0.60765 0.0
H646 H 0.49289 0.30037 0.48697 0.0
H647 H 0.50572 0.27374 0.55029 0.0
H648 H 0.42178 0.16114 0.46582 0.0
H649 H 0.42218 0.1686 0.30425 0.0
H650 H 0.45173 0.26769 0.34818 0.0
C651 C 0.44626 0.24747 0.71581 0.0
C652 C 0.43803 0.22261 0.77619 0.0
C653 C 0.42976 0.1921 0.74194 0.0
C654 C 0.42915 0.18606 0.65064 0.0
C655 C 0.43687 0.21068 0.59311 0.0
C656 C 0.44533 0.24081 0.62321 0.0
C657 C 0.45158 0.2624 0.54396 0.0
C658 C 0.42678 0.27879 0.54035 0.0
C659 C 0.488 0.28584 0.54745 0.0
C660 C 0.44485 0.23941 0.46582 0.0
C661 C 0.43654 0.20981 0.49699 0.0
C662 C 0.42839 0.18419 0.44008 0.0
C663 C 0.42859 0.18874 0.3481 0.0
C664 C 0.43693 0.21872 0.31312 0.0
C665 C 0.44541 0.24452 0.37295 0.0
loop_
_geom_bond_atom_site_label_1
_geom_bond_atom_site_label_2
_geom_bond_distance
_geom_bond_site_symmetry_2
_ccdc_geom_bond_type
Co0 N5 2.057 . S
Co0 O17 2.021 1_554 S
Co0 O20 2.062 . S
Co0 O24 2.117 . S
Co0 O25 2.020 . S
C1 O21 1.259 . S
C1 O24 1.258 . S
Co2 N11 2.057 1_554 S
Co2 O18 2.117 1_554 S
Co2 O19 2.020 . S
Co2 O21 2.021 . S
Co2 O26 2.062 . S
C3 N5 1.316 1_556 S
C3 N6 1.347 1_556 S
C3 H8 0.931 . S
C4 N5 1.375 . S
C4 C7 1.350 . S
C4 H9 0.930 . S
N5 Co0 2.057 . S
N5 C3 1.316 1_554 S
N5 C4 1.375 . S
N6 C3 1.347 1_554 S
N6 C7 1.373 . S
C7 C4 1.350 . S
C7 N6 1.373 . S
C7 H28 0.931 . S
H8 C3 0.931 . S
H9 C4 0.930 . S
C10 O17 1.259 . S
C10 O18 1.258 . S
N11 Co2 2.057 1_556 S
N11 C12 1.316 1_556 S
N11 C13 1.375 . S
C12 N11 1.316 1_554 S
C12 N14 1.347 . S
C12 H23 0.931 . S
C13 N11 1.375 . S
C13 C15 1.350 . S
C13 H22 0.930 . S
N14 C12 1.347 . S
N14 C15 1.373 1_554 S
C15 C13 1.350 . S
C15 N14 1.373 1_556 S
C15 H29 0.931 . S
C16 O19 1.256 . S
C16 O20 1.255 . S
O17 Co0 2.021 1_556 S
O17 C10 1.259 . S
O18 Co2 2.117 1_556 S
O18 C10 1.258 . S
O19 Co2 2.020 . S
O19 C16 1.256 . S
O20 Co0 2.062 . S
O20 C16 1.255 . S
O21 C1 1.259 . S
O21 Co2 2.021 . S
H22 C13 0.930 . S
H23 C12 0.931 . S
O24 Co0 2.117 . S
O24 C1 1.258 . S
O25 Co0 2.020 . S
O25 C27 1.256 . S
O26 Co2 2.062 . S
O26 C27 1.255 . S
C27 O25 1.256 . S
C27 O26 1.255 . S
H28 C7 0.931 . S
H29 C15 0.931 . S
Co30 N35 2.057 . S
Co30 O47 2.021 1_554 S
Co30 O50 2.062 . S
Co30 O54 2.117 . S
Co30 O55 2.020 . S
C31 O51 1.259 . S
C31 O54 1.258 . S
Co32 N41 2.057 . S
Co32 O48 2.117 1_554 S
Co32 O49 2.020 . S
Co32 O51 2.021 . S
Co32 O56 2.062 . S
C33 N35 1.316 . S
C33 N36 1.347 . S
C33 H38 0.931 1_554 S
C34 N35 1.375 . S
C34 C37 1.350 . S
C34 H39 0.930 . S
N35 Co30 2.057 . S
N35 C33 1.316 . S
N35 C34 1.375 . S
N36 C33 1.347 . S
N36 C37 1.373 . S
C37 C34 1.350 . S
C37 N36 1.373 . S
C37 H58 0.931 . S
H38 C33 0.931 1_556 S
H39 C34 0.930 . S
C40 O47 1.259 . S
C40 O48 1.258 . S
N41 Co32 2.057 . S
N41 C42 1.316 . S
N41 C43 1.375 1_554 S
C42 N41 1.316 . S
C42 N44 1.347 . S
C42 H53 0.931 . S
C43 N41 1.375 1_556 S
C43 C45 1.350 . S
C43 H52 0.930 . S
N44 C42 1.347 . S
N44 C45 1.373 1_554 S
C45 C43 1.350 . S
C45 N44 1.373 1_556 S
C45 H59 0.931 . S
C46 O49 1.256 . S
C46 O50 1.255 . S
O47 Co30 2.021 1_556 S
O47 C40 1.259 . S
O48 Co32 2.117 1_556 S
O48 C40 1.258 . S
O49 Co32 2.020 . S
O49 C46 1.256 . S
O50 Co30 2.062 . S
O50 C46 1.255 . S
O51 C31 1.259 . S
O51 Co32 2.021 . S
H52 C43 0.930 . S
H53 C42 0.931 . S
O54 Co30 2.117 . S
O54 C31 1.258 . S
O55 Co30 2.020 . S
O55 C57 1.256 . S
O56 Co32 2.062 . S
O56 C57 1.255 . S
C57 O55 1.256 . S
C57 O56 1.255 . S
H58 C37 0.931 . S
H59 C45 0.931 . S
Co60 N65 2.057 1_554 S
Co60 O77 2.021 . S
Co60 O80 2.062 . S
Co60 O84 2.117 1_554 S
Co60 O85 2.020 . S
C61 O81 1.259 . S
C61 O84 1.258 . S
Co62 N71 2.057 1_556 S
Co62 O78 2.117 1_556 S
Co62 O79 2.020 . S
Co62 O81 2.021 . S
Co62 O86 2.062 . S
C63 N65 1.316 1_554 S
C63 N66 1.347 1_554 S
C63 H68 0.931 . S
C64 N65 1.375 . S
C64 C67 1.350 . S
C64 H69 0.930 . S
N65 Co60 2.057 1_556 S
N65 C63 1.316 1_556 S
N65 C64 1.375 . S
N66 C63 1.347 1_556 S
N66 C67 1.373 . S
C67 C64 1.350 . S
C67 N66 1.373 . S
C67 H88 0.931 . S
H68 C63 0.931 . S
H69 C64 0.930 . S
C70 O77 1.259 . S
C70 O78 1.258 . S
N71 Co62 2.057 1_554 S
N71 C72 1.316 1_554 S
N71 C73 1.375 . S
C72 N71 1.316 1_556 S
C72 N74 1.347 1_556 S
C72 H83 0.931 . S
C73 N71 1.375 . S
C73 C75 1.350 . S
C73 H82 0.930 . S
N74 C72 1.347 1_554 S
N74 C75 1.373 . S
C75 C73 1.350 . S
C75 N74 1.373 . S
C75 H89 0.931 . S
C76 O79 1.256 1_554 S
C76 O80 1.255 . S
O77 Co60 2.021 . S
O77 C70 1.259 . S
O78 Co62 2.117 1_554 S
O78 C70 1.258 . S
O79 Co62 2.020 . S
O79 C76 1.256 1_556 S
O80 Co60 2.062 . S
O80 C76 1.255 . S
O81 C61 1.259 . S
O81 Co62 2.021 . S
H82 C73 0.930 . S
H83 C72 0.931 . S
O84 Co60 2.117 1_556 S
O84 C61 1.258 . S
O85 Co60 2.020 . S
O85 C87 1.256 . S
O86 Co62 2.062 . S
O86 C87 1.255 1_556 S
C87 O85 1.256 . S
C87 O86 1.255 1_554 S
H88 C67 0.931 . S
H89 C75 0.931 . S
Co90 N95 2.057 . S
Co90 O107 2.021 1_554 S
Co90 O110 2.062 . S
Co90 O114 2.117 . S
Co90 O115 2.020 . S
C91 O111 1.259 . S
C91 O114 1.258 . S
Co92 N101 2.057 . S
Co92 O108 2.117 1_554 S
Co92 O109 2.020 . S
Co92 O111 2.021 . S
Co92 O116 2.062 . S
C93 N95 1.316 . S
C93 N96 1.347 . S
C93 H98 0.931 1_554 S
C94 N95 1.375 . S
C94 C97 1.350 . S
C94 H99 0.930 . S
N95 Co90 2.057 . S
N95 C93 1.316 . S
N95 C94 1.375 . S
N96 C93 1.347 . S
N96 C97 1.373 . S
C97 C94 1.350 . S
C97 N96 1.373 . S
C97 H118 0.931 . S
H98 C93 0.931 1_556 S
H99 C94 0.930 . S
C100 O107 1.259 . S
C100 O108 1.258 . S
N101 Co92 2.057 . S
N101 C102 1.316 . S
N101 C103 1.375 1_554 S
C102 N101 1.316 . S
C102 N104 1.347 . S
C102 H113 0.931 . S
C103 N101 1.375 1_556 S
C103 C105 1.350 . S
C103 H112 0.930 . S
N104 C102 1.347 . S
N104 C105 1.373 1_554 S
C105 C103 1.350 . S
C105 N104 1.373 1_556 S
C105 H119 0.931 . S
C106 O109 1.256 . S
C106 O110 1.255 . S
O107 Co90 2.021 1_556 S
O107 C100 1.259 . S
O108 Co92 2.117 1_556 S
O108 C100 1.258 . S
O109 Co92 2.020 . S
O109 C106 1.256 . S
O110 Co90 2.062 . S
O110 C106 1.255 . S
O111 C91 1.259 . S
O111 Co92 2.021 . S
H112 C103 0.930 . S
H113 C102 0.931 . S
O114 Co90 2.117 . S
O114 C91 1.258 . S
O115 Co90 2.020 . S
O115 C117 1.256 . S
O116 Co92 2.062 . S
O116 C117 1.255 . S
C117 O115 1.256 . S
C117 O116 1.255 . S
H118 C97 0.931 . S
H119 C105 0.931 . S
Co120 N125 2.057 . S
Co120 O137 2.021 1_554 S
Co120 O140 2.062 . S
Co120 O144 2.117 . S
Co120 O145 2.020 . S
C121 O141 1.259 . S
C121 O144 1.258 . S
Co122 N131 2.057 1_554 S
Co122 O138 2.117 1_554 S
Co122 O139 2.020 . S
Co122 O141 2.021 . S
Co122 O146 2.062 . S
C123 N125 1.316 1_556 S
C123 N126 1.347 1_556 S
C123 H128 0.931 . S
C124 N125 1.375 . S
C124 C127 1.350 . S
C124 H129 0.930 . S
N125 Co120 2.057 . S
N125 C123 1.316 1_554 S
N125 C124 1.375 . S
N126 C123 1.347 1_554 S
N126 C127 1.373 . S
C127 C124 1.350 . S
C127 N126 1.373 . S
C127 H148 0.931 . S
H128 C123 0.931 . S
H129 C124 0.930 . S
C130 O137 1.259 . S
C130 O138 1.258 . S
N131 Co122 2.057 1_556 S
N131 C132 1.316 1_556 S
N131 C133 1.375 . S
C132 N131 1.316 1_554 S
C132 N134 1.347 . S
C132 H143 0.931 . S
C133 N131 1.375 . S
C133 C135 1.350 . S
C133 H142 0.930 . S
N134 C132 1.347 . S
N134 C135 1.373 1_554 S
C135 C133 1.350 . S
C135 N134 1.373 1_556 S
C135 H149 0.931 . S
C136 O139 1.256 . S
C136 O140 1.255 . S
O137 Co120 2.021 1_556 S
O137 C130 1.259 . S
O138 Co122 2.117 1_556 S
O138 C130 1.258 . S
O139 Co122 2.020 . S
O139 C136 1.256 . S
O140 Co120 2.062 . S
O140 C136 1.255 . S
O141 C121 1.259 . S
O141 Co122 2.021 . S
H142 C133 0.930 . S
H143 C132 0.931 . S
O144 Co120 2.117 . S
O144 C121 1.258 . S
O145 Co120 2.020 . S
O145 C147 1.256 . S
O146 Co122 2.062 . S
O146 C147 1.255 . S
C147 O145 1.256 . S
C147 O146 1.255 . S
H148 C127 0.931 . S
H149 C135 0.931 . S
Co150 N155 2.057 . S
Co150 O167 2.021 . S
Co150 O170 2.062 . S
Co150 O174 2.117 1_554 S
Co150 O175 2.020 . S
C151 O171 1.259 . S
C151 O174 1.258 . S
Co152 N161 2.057 . S
Co152 O168 2.117 . S
Co152 O169 2.020 . S
Co152 O171 2.021 1_554 S
Co152 O176 2.062 . S
C153 N155 1.316 . S
C153 N156 1.347 . S
C153 H158 0.931 . S
C154 N155 1.375 1_556 S
C154 C157 1.350 . S
C154 H159 0.930 . S
N155 Co150 2.057 . S
N155 C153 1.316 . S
N155 C154 1.375 1_554 S
N156 C153 1.347 . S
N156 C157 1.373 1_554 S
C157 C154 1.350 . S
C157 N156 1.373 1_556 S
C157 H178 0.931 . S
H158 C153 0.931 . S
H159 C154 0.930 . S
C160 O167 1.259 . S
C160 O168 1.258 . S
N161 Co152 2.057 . S
N161 C162 1.316 . S
N161 C163 1.375 . S
C162 N161 1.316 . S
C162 N164 1.347 . S
C162 H173 0.931 1_554 S
C163 N161 1.375 . S
C163 C165 1.350 . S
C163 H172 0.930 . S
N164 C162 1.347 . S
N164 C165 1.373 . S
C165 C163 1.350 . S
C165 N164 1.373 . S
C165 H179 0.931 . S
C166 O169 1.256 . S
C166 O170 1.255 . S
O167 Co150 2.021 . S
O167 C160 1.259 . S
O168 Co152 2.117 . S
O168 C160 1.258 . S
O169 Co152 2.020 . S
O169 C166 1.256 . S
O170 Co150 2.062 . S
O170 C166 1.255 . S
O171 C151 1.259 . S
O171 Co152 2.021 1_556 S
H172 C163 0.930 . S
H173 C162 0.931 1_556 S
O174 Co150 2.117 1_556 S
O174 C151 1.258 . S
O175 Co150 2.020 . S
O175 C177 1.256 . S
O176 Co152 2.062 . S
O176 C177 1.255 . S
C177 O175 1.256 . S
C177 O176 1.255 . S
H178 C157 0.931 . S
H179 C165 0.931 . S
H180 C192 0.930 . S
H181 C194 0.930 . S
H182 C195 0.930 . S
H183 C199 0.959 . S
H184 C199 0.959 . S
H185 C199 0.961 . S
H186 C200 0.960 . S
H187 C200 0.961 . S
H188 C200 0.959 . S
H189 C203 0.929 . S
H190 C204 0.931 . S
H191 C206 0.930 . S
C192 H180 0.930 . S
C192 C193 1.399 . S
C192 C197 1.399 . S
C193 C192 1.399 . S
C193 C194 1.376 1_554 S
C194 H181 0.930 . S
C194 C193 1.376 1_556 S
C194 C195 1.388 . S
C195 H182 0.930 . S
C195 C194 1.388 . S
C195 C196 1.390 1_556 S
C196 C195 1.390 1_554 S
C196 C197 1.394 . S
C196 C202 1.465 . S
C197 C192 1.399 . S
C197 C196 1.394 . S
C197 C198 1.516 . S
C198 C197 1.516 . S
C198 C199 1.502 . S
C198 C200 1.561 . S
C198 C201 1.526 . S
C199 H183 0.959 . S
C199 H184 0.959 . S
C199 H185 0.961 . S
C199 C198 1.502 . S
C200 H186 0.960 . S
C200 H187 0.961 . S
C200 H188 0.959 . S
C200 C198 1.561 . S
C201 C198 1.526 . S
C201 C202 1.396 . S
C201 C206 1.390 . S
C202 C196 1.465 . S
C202 C201 1.396 . S
C202 C203 1.399 1_554 S
C203 H189 0.929 . S
C203 C202 1.399 1_556 S
C203 C204 1.385 . S
C204 H190 0.931 . S
C204 C203 1.385 . S
C204 C205 1.389 1_556 S
C205 C204 1.389 1_554 S
C205 C206 1.387 . S
C206 H191 0.930 . S
C206 C201 1.390 . S
C206 C205 1.387 . S
H207 C219 0.930 . S
H208 C221 0.930 . S
H209 C222 0.930 . S
H210 C226 0.959 . S
H211 C226 0.959 . S
H212 C226 0.961 . S
H213 C227 0.960 . S
H214 C227 0.961 . S
H215 C227 0.959 . S
H216 C230 0.929 . S
H217 C231 0.931 . S
H218 C233 0.930 . S
C219 H207 0.930 . S
C219 C220 1.399 . S
C219 C224 1.399 1_455 S
C220 C219 1.399 . S
C220 C221 1.376 1_554 S
C221 H208 0.930 . S
C221 C220 1.376 1_556 S
C221 C222 1.388 1_455 S
C222 H209 0.930 . S
C222 C221 1.388 1_655 S
C222 C223 1.390 . S
C223 C222 1.390 . S
C223 C224 1.394 1_556 S
C223 C229 1.465 . S
C224 C219 1.399 1_655 S
C224 C223 1.394 1_554 S
C224 C225 1.516 . S
C225 C224 1.516 . S
C225 C226 1.502 . S
C225 C227 1.561 . S
C225 C228 1.526 . S
C226 H210 0.959 . S
C226 H211 0.959 . S
C226 H212 0.961 . S
C226 C225 1.502 . S
C227 H213 0.960 . S
C227 H214 0.961 . S
C227 H215 0.959 . S
C227 C225 1.561 . S
C228 C225 1.526 . S
C228 C229 1.396 1_554 S
C228 C233 1.390 . S
C229 C223 1.465 . S
C229 C228 1.396 1_556 S
C229 C230 1.399 . S
C230 H216 0.929 . S
C230 C229 1.399 . S
C230 C231 1.385 . S
C231 H217 0.931 . S
C231 C230 1.385 . S
C231 C232 1.389 1_556 S
C232 C231 1.389 1_554 S
C232 C233 1.387 . S
C233 H218 0.930 . S
C233 C228 1.390 . S
C233 C232 1.387 . S
H234 C246 0.930 . S
H235 C248 0.930 . S
H236 C249 0.930 . S
H237 C253 0.960 . S
H238 C253 0.959 1_565 S
H239 C253 0.961 . S
H240 C254 0.960 . S
H241 C254 0.961 1_565 S
H242 C254 0.959 . S
H243 C257 0.929 . S
H244 C258 0.931 . S
H245 C260 0.930 . S
C246 H234 0.930 . S
C246 C247 1.399 1_556 S
C246 C251 1.399 . S
C247 C246 1.399 1_554 S
C247 C248 1.376 . S
C248 H235 0.930 . S
C248 C247 1.376 . S
C248 C249 1.388 . S
C249 H236 0.930 . S
C249 C248 1.388 . S
C249 C250 1.390 . S
C250 C249 1.390 . S
C250 C251 1.394 1_554 S
C250 C256 1.465 1_545 S
C251 C246 1.399 . S
C251 C250 1.394 1_556 S
C251 C252 1.516 . S
C252 C251 1.516 . S
C252 C253 1.502 . S
C252 C254 1.561 . S
C252 C255 1.526 1_545 S
C253 H237 0.960 . S
C253 H238 0.959 1_545 S
C253 H239 0.961 . S
C253 C252 1.502 . S
C254 H240 0.960 . S
C254 H241 0.961 1_545 S
C254 H242 0.959 . S
C254 C252 1.561 . S
C255 C252 1.526 1_565 S
C255 C256 1.396 1_556 S
C255 C260 1.390 . S
C256 C250 1.465 1_565 S
C256 C255 1.396 1_554 S
C256 C257 1.399 . S
C257 H243 0.929 . S
C257 C256 1.399 . S
C257 C258 1.385 . S
C258 H244 0.931 . S
C258 C257 1.385 . S
C258 C259 1.389 . S
C259 C258 1.389 . S
C259 C260 1.387 1_554 S
C260 H245 0.930 . S
C260 C255 1.390 . S
C260 C259 1.387 1_556 S
H261 C273 0.930 . S
H262 C275 0.930 . S
H263 C276 0.930 . S
H264 C280 0.959 . S
H265 C280 0.959 . S
H266 C280 0.961 . S
H267 C281 0.960 . S
H268 C281 0.961 . S
H269 C281 0.959 . S
H270 C284 0.929 . S
H271 C285 0.931 . S
H272 C287 0.930 . S
C273 H261 0.930 . S
C273 C274 1.399 1_556 S
C273 C278 1.399 . S
C274 C273 1.399 1_554 S
C274 C275 1.376 . S
C275 H262 0.930 . S
C275 C274 1.376 . S
C275 C276 1.388 . S
C276 H263 0.930 . S
C276 C275 1.388 . S
C276 C277 1.390 . S
C277 C276 1.390 . S
C277 C278 1.394 1_554 S
C277 C283 1.465 . S
C278 C273 1.399 . S
C278 C277 1.394 1_556 S
C278 C279 1.516 . S
C279 C278 1.516 . S
C279 C280 1.502 . S
C279 C281 1.561 . S
C279 C282 1.526 . S
C280 H264 0.959 . S
C280 H265 0.959 . S
C280 H266 0.961 . S
C280 C279 1.502 . S
C281 H267 0.960 . S
C281 H268 0.961 . S
C281 H269 0.959 . S
C281 C279 1.561 . S
C282 C279 1.526 . S
C282 C283 1.396 1_556 S
C282 C287 1.390 . S
C283 C277 1.465 . S
C283 C282 1.396 1_554 S
C283 C284 1.399 . S
C284 H270 0.929 . S
C284 C283 1.399 . S
C284 C285 1.385 . S
C285 H271 0.931 . S
C285 C284 1.385 . S
C285 C286 1.389 . S
C286 C285 1.389 . S
C286 C287 1.387 1_554 S
C287 H272 0.930 . S
C287 C282 1.390 . S
C287 C286 1.387 1_556 S
H288 C300 0.930 . S
H289 C302 0.930 . S
H290 C303 0.930 . S
H291 C307 0.959 . S
H292 C307 0.959 . S
H293 C307 0.961 . S
H294 C308 0.960 . S
H295 C308 0.961 . S
H296 C308 0.959 . S
H297 C311 0.929 . S
H298 C312 0.931 . S
H299 C314 0.930 . S
C300 H288 0.930 . S
C300 C301 1.399 . S
C300 C305 1.399 . S
C301 C300 1.399 . S
C301 C302 1.376 1_554 S
C302 H289 0.930 . S
C302 C301 1.376 1_556 S
C302 C303 1.388 . S
C303 H290 0.930 . S
C303 C302 1.388 . S
C303 C304 1.390 . S
C304 C303 1.390 . S
C304 C305 1.394 1_556 S
C304 C310 1.465 . S
C305 C300 1.399 . S
C305 C304 1.394 1_554 S
C305 C306 1.516 . S
C306 C305 1.516 . S
C306 C307 1.502 . S
C306 C308 1.561 . S
C306 C309 1.526 . S
C307 H291 0.959 . S
C307 H292 0.959 . S
C307 H293 0.961 . S
C307 C306 1.502 . S
C308 H294 0.960 . S
C308 H295 0.961 . S
C308 H296 0.959 . S
C308 C306 1.561 . S
C309 C306 1.526 . S
C309 C310 1.396 1_554 S
C309 C314 1.390 1_455 S
C310 C304 1.465 . S
C310 C309 1.396 1_556 S
C310 C311 1.399 . S
C311 H297 0.929 . S
C311 C310 1.399 . S
C311 C312 1.385 1_455 S
C312 H298 0.931 . S
C312 C311 1.385 1_655 S
C312 C313 1.389 1_556 S
C313 C312 1.389 1_554 S
C313 C314 1.387 . S
C314 H299 0.930 . S
C314 C309 1.390 1_655 S
C314 C313 1.387 . S
H315 C327 0.930 . S
H316 C329 0.930 . S
H317 C330 0.930 . S
H318 C334 0.959 . S
H319 C334 0.959 1_545 S
H320 C334 0.961 . S
H321 C335 0.960 . S
H322 C335 0.961 1_545 S
H323 C335 0.958 . S
H324 C338 0.929 . S
H325 C339 0.931 . S
H326 C341 0.930 . S
C327 H315 0.930 . S
C327 C328 1.399 . S
C327 C332 1.399 . S
C328 C327 1.399 . S
C328 C329 1.376 1_554 S
C329 H316 0.930 . S
C329 C328 1.376 1_556 S
C329 C330 1.388 . S
C330 H317 0.930 . S
C330 C329 1.388 . S
C330 C331 1.390 . S
C331 C330 1.390 . S
C331 C332 1.394 1_556 S
C331 C337 1.465 1_566 S
C332 C327 1.399 . S
C332 C331 1.394 1_554 S
C332 C333 1.516 . S
C333 C332 1.516 . S
C333 C334 1.502 . S
C333 C335 1.561 . S
C333 C336 1.526 1_565 S
C334 H318 0.959 . S
C334 H319 0.959 1_565 S
C334 H320 0.961 . S
C334 C333 1.502 . S
C335 H321 0.960 . S
C335 H322 0.961 1_565 S
C335 H323 0.958 . S
C335 C333 1.561 . S
C336 C333 1.526 1_545 S
C336 C337 1.396 . S
C336 C341 1.390 . S
C337 C331 1.465 1_544 S
C337 C336 1.396 . S
C337 C338 1.399 1_554 S
C338 H324 0.929 . S
C338 C337 1.399 1_556 S
C338 C339 1.385 . S
C339 H325 0.931 . S
C339 C338 1.385 . S
C339 C340 1.389 1_556 S
C340 C339 1.389 1_554 S
C340 C341 1.387 . S
C341 H326 0.930 . S
C341 C336 1.390 . S
C341 C340 1.387 . S
H342 C354 0.930 . S
H343 C356 0.930 . S
H344 C357 0.930 . S
H345 C361 0.959 . S
H346 C361 0.959 . S
H347 C361 0.961 . S
H348 C362 0.960 . S
H349 C362 0.961 . S
H350 C362 0.959 . S
H351 C365 0.929 . S
H352 C366 0.931 . S
H353 C368 0.930 . S
C354 H342 0.930 . S
C354 C355 1.399 1_556 S
C354 C359 1.399 . S
C355 C354 1.399 1_554 S
C355 C356 1.376 . S
C356 H343 0.930 . S
C356 C355 1.376 . S
C356 C357 1.388 . S
C357 H344 0.930 . S
C357 C356 1.388 . S
C357 C358 1.390 . S
C358 C357 1.390 . S
C358 C359 1.394 1_554 S
C358 C364 1.465 . S
C359 C354 1.399 . S
C359 C358 1.394 1_556 S
C359 C360 1.516 . S
C360 C359 1.516 . S
C360 C361 1.502 . S
C360 C362 1.561 . S
C360 C363 1.526 . S
C361 H345 0.959 . S
C361 H346 0.959 . S
C361 H347 0.961 . S
C361 C360 1.502 . S
C362 H348 0.960 . S
C362 H349 0.961 . S
C362 H350 0.959 . S
C362 C360 1.561 . S
C363 C360 1.526 . S
C363 C364 1.396 1_556 S
C363 C368 1.390 . S
C364 C358 1.465 . S
C364 C363 1.396 1_554 S
C364 C365 1.399 . S
C365 H351 0.929 . S
C365 C364 1.399 . S
C365 C366 1.385 . S
C366 H352 0.931 . S
C366 C365 1.385 . S
C366 C367 1.389 . S
C367 C366 1.389 . S
C367 C368 1.387 1_554 S
C368 H353 0.930 . S
C368 C363 1.390 . S
C368 C367 1.387 1_556 S
H369 C381 0.930 . S
H370 C383 0.930 . S
H371 C384 0.930 . S
H372 C388 0.959 . S
H373 C388 0.959 . S
H374 C388 0.961 . S
H375 C389 0.960 . S
H376 C389 0.961 . S
H377 C389 0.959 . S
H378 C392 0.929 . S
H379 C393 0.931 . S
H380 C395 0.930 . S
C381 H369 0.930 . S
C381 C382 1.399 . S
C381 C386 1.399 . S
C382 C381 1.399 . S
C382 C383 1.376 1_554 S
C383 H370 0.930 . S
C383 C382 1.376 1_556 S
C383 C384 1.388 . S
C384 H371 0.930 . S
C384 C383 1.388 . S
C384 C385 1.390 1_556 S
C385 C384 1.390 1_554 S
C385 C386 1.394 . S
C385 C391 1.465 . S
C386 C381 1.399 . S
C386 C385 1.394 . S
C386 C387 1.516 . S
C387 C386 1.516 . S
C387 C388 1.502 . S
C387 C389 1.561 . S
C387 C390 1.526 . S
C388 H372 0.959 . S
C388 H373 0.959 . S
C388 H374 0.961 . S
C388 C387 1.502 . S
C389 H375 0.960 . S
C389 H376 0.961 . S
C389 H377 0.959 . S
C389 C387 1.561 . S
C390 C387 1.526 . S
C390 C391 1.396 . S
C390 C395 1.390 . S
C391 C385 1.465 . S
C391 C390 1.396 . S
C391 C392 1.399 1_554 S
C392 H378 0.929 . S
C392 C391 1.399 1_556 S
C392 C393 1.385 . S
C393 H379 0.931 . S
C393 C392 1.385 . S
C393 C394 1.389 1_556 S
C394 C393 1.389 1_554 S
C394 C395 1.387 . S
C395 H380 0.930 . S
C395 C390 1.390 . S
C395 C394 1.387 . S
H396 C408 0.930 . S
H397 C410 0.930 . S
H398 C411 0.930 . S
H399 C415 0.959 . S
H400 C415 0.959 . S
H401 C415 0.961 . S
H402 C416 0.960 . S
H403 C416 0.961 . S
H404 C416 0.959 . S
H405 C419 0.929 . S
H406 C420 0.931 . S
H407 C422 0.930 . S
C408 H396 0.930 . S
C408 C409 1.399 1_554 S
C408 C413 1.399 . S
C409 C408 1.399 1_556 S
C409 C410 1.376 . S
C410 H397 0.930 . S
C410 C409 1.376 . S
C410 C411 1.388 . S
C411 H398 0.930 . S
C411 C410 1.388 . S
C411 C412 1.390 . S
C412 C411 1.390 . S
C412 C413 1.394 1_556 S
C412 C418 1.465 . S
C413 C408 1.399 . S
C413 C412 1.394 1_554 S
C413 C414 1.516 . S
C414 C413 1.516 . S
C414 C415 1.502 . S
C414 C416 1.561 . S
C414 C417 1.526 . S
C415 H399 0.959 . S
C415 H400 0.959 . S
C415 H401 0.961 . S
C415 C414 1.502 . S
C416 H402 0.960 . S
C416 H403 0.961 . S
C416 H404 0.959 . S
C416 C414 1.561 . S
C417 C414 1.526 . S
C417 C418 1.396 1_554 S
C417 C422 1.390 . S
C418 C412 1.465 . S
C418 C417 1.396 1_556 S
C418 C419 1.399 . S
C419 H405 0.929 . S
C419 C418 1.399 . S
C419 C420 1.385 . S
C420 H406 0.931 . S
C420 C419 1.385 . S
C420 C421 1.389 1_556 S
C421 C420 1.389 1_554 S
C421 C422 1.387 . S
C422 H407 0.930 . S
C422 C417 1.390 . S
C422 C421 1.387 . S
H423 C435 0.930 . S
H424 C437 0.930 . S
H425 C438 0.930 . S
H426 C442 0.959 . S
H427 C442 0.959 . S
H428 C442 0.961 . S
H429 C443 0.960 . S
H430 C443 0.961 . S
H431 C443 0.959 . S
H432 C446 0.929 . S
H433 C447 0.931 . S
H434 C449 0.930 1_556 S
C435 H423 0.930 . S
C435 C436 1.399 1_556 S
C435 C440 1.399 1_556 S
C436 C435 1.399 1_554 S
C436 C437 1.376 . S
C437 H424 0.930 . S
C437 C436 1.376 . S
C437 C438 1.388 . S
C438 H425 0.930 . S
C438 C437 1.388 . S
C438 C439 1.390 . S
C439 C438 1.390 . S
C439 C440 1.394 . S
C439 C445 1.465 . S
C440 C435 1.399 1_554 S
C440 C439 1.394 . S
C440 C441 1.516 1_554 S
C441 C440 1.516 1_556 S
C441 C442 1.502 . S
C441 C443 1.561 . S
C441 C444 1.526 1_556 S
C442 H426 0.959 . S
C442 H427 0.959 . S
C442 H428 0.961 . S
C442 C441 1.502 . S
C443 H429 0.960 . S
C443 H430 0.961 . S
C443 H431 0.959 . S
C443 C441 1.561 . S
C444 C441 1.526 1_554 S
C444 C445 1.396 . S
C444 C449 1.390 . S
C445 C439 1.465 . S
C445 C444 1.396 . S
C445 C446 1.399 . S
C446 H432 0.929 . S
C446 C445 1.399 . S
C446 C447 1.385 . S
C447 H433 0.931 . S
C447 C446 1.385 . S
C447 C448 1.389 . S
C448 C447 1.389 . S
C448 C449 1.387 . S
C449 H434 0.930 1_554 S
C449 C444 1.390 . S
C449 C448 1.387 . S
H450 C462 0.930 . S
H451 C464 0.930 . S
H452 C465 0.930 . S
H453 C469 0.959 . S
H454 C469 0.959 . S
H455 C469 0.961 . S
H456 C470 0.960 . S
H457 C470 0.961 . S
H458 C470 0.959 . S
H459 C473 0.929 . S
H460 C474 0.931 . S
H461 C476 0.930 . S
C462 H450 0.930 . S
C462 C463 1.399 1_556 S
C462 C467 1.399 . S
C463 C462 1.399 1_554 S
C463 C464 1.376 . S
C464 H451 0.930 . S
C464 C463 1.376 . S
C464 C465 1.388 . S
C465 H452 0.930 . S
C465 C464 1.388 . S
C465 C466 1.390 . S
C466 C465 1.390 . S
C466 C467 1.394 1_554 S
C466 C472 1.465 . S
C467 C462 1.399 . S
C467 C466 1.394 1_556 S
C467 C468 1.516 . S
C468 C467 1.516 . S
C468 C469 1.502 . S
C468 C470 1.561 . S
C468 C471 1.526 . S
C469 H453 0.959 . S
C469 H454 0.959 . S
C469 H455 0.961 . S
C469 C468 1.502 . S
C470 H456 0.960 . S
C470 H457 0.961 . S
C470 H458 0.959 . S
C470 C468 1.561 . S
C471 C468 1.526 . S
C471 C472 1.396 1_556 S
C471 C476 1.390 . S
C472 C466 1.465 . S
C472 C471 1.396 1_554 S
C472 C473 1.399 . S
C473 H459 0.929 . S
C473 C472 1.399 . S
C473 C474 1.385 . S
C474 H460 0.931 . S
C474 C473 1.385 . S
C474 C475 1.389 . S
C475 C474 1.389 . S
C475 C476 1.387 1_554 S
C476 H461 0.930 . S
C476 C471 1.390 . S
C476 C475 1.387 1_556 S
H477 C489 0.930 . S
H478 C491 0.930 . S
H479 C492 0.930 . S
H480 C496 0.959 . S
H481 C496 0.959 . S
H482 C496 0.961 . S
H483 C497 0.960 . S
H484 C497 0.961 . S
H485 C497 0.959 . S
H486 C500 0.929 . S
H487 C501 0.931 . S
H488 C503 0.930 . S
C489 H477 0.930 . S
C489 C490 1.399 . S
C489 C494 1.399 . S
C490 C489 1.399 . S
C490 C491 1.376 1_554 S
C491 H478 0.930 . S
C491 C490 1.376 1_556 S
C491 C492 1.388 . S
C492 H479 0.930 . S
C492 C491 1.388 . S
C492 C493 1.390 1_556 S
C493 C492 1.390 1_554 S
C493 C494 1.394 . S
C493 C499 1.465 . S
C494 C489 1.399 . S
C494 C493 1.394 . S
C494 C495 1.516 . S
C495 C494 1.516 . S
C495 C496 1.502 . S
C495 C497 1.561 . S
C495 C498 1.526 . S
C496 H480 0.959 . S
C496 H481 0.959 . S
C496 H482 0.961 . S
C496 C495 1.502 . S
C497 H483 0.960 . S
C497 H484 0.961 . S
C497 H485 0.959 . S
C497 C495 1.561 . S
C498 C495 1.526 . S
C498 C499 1.396 . S
C498 C503 1.390 . S
C499 C493 1.465 . S
C499 C498 1.396 . S
C499 C500 1.399 1_554 S
C500 H486 0.929 . S
C500 C499 1.399 1_556 S
C500 C501 1.385 . S
C501 H487 0.931 . S
C501 C500 1.385 . S
C501 C502 1.389 1_556 S
C502 C501 1.389 1_554 S
C502 C503 1.387 . S
C503 H488 0.930 . S
C503 C498 1.390 . S
C503 C502 1.387 . S
H504 C516 0.930 . S
H505 C518 0.930 . S
H506 C519 0.930 . S
H507 C523 0.959 . S
H508 C523 0.959 . S
H509 C523 0.961 . S
H510 C524 0.960 . S
H511 C524 0.961 . S
H512 C524 0.959 . S
H513 C527 0.929 . S
H514 C528 0.931 . S
H515 C530 0.930 . S
C516 H504 0.930 . S
C516 C517 1.399 . S
C516 C521 1.399 . S
C517 C516 1.399 . S
C517 C518 1.376 . S
C518 H505 0.930 . S
C518 C517 1.376 . S
C518 C519 1.388 . S
C519 H506 0.930 . S
C519 C518 1.388 . S
C519 C520 1.390 . S
C520 C519 1.390 . S
C520 C521 1.394 . S
C520 C526 1.465 . S
C521 C516 1.399 . S
C521 C520 1.394 . S
C521 C522 1.516 . S
C522 C521 1.516 . S
C522 C523 1.502 . S
C522 C524 1.561 . S
C522 C525 1.526 . S
C523 H507 0.959 . S
C523 H508 0.959 . S
C523 H509 0.961 . S
C523 C522 1.502 . S
C524 H510 0.960 . S
C524 H511 0.961 . S
C524 H512 0.959 . S
C524 C522 1.561 . S
C525 C522 1.526 . S
C525 C526 1.396 . S
C525 C530 1.390 . S
C526 C520 1.465 . S
C526 C525 1.396 . S
C526 C527 1.399 . S
C527 H513 0.929 . S
C527 C526 1.399 . S
C527 C528 1.385 . S
C528 H514 0.931 . S
C528 C527 1.385 . S
C528 C529 1.389 . S
C529 C528 1.389 . S
C529 C530 1.387 . S
C530 H515 0.930 . S
C530 C525 1.390 . S
C530 C529 1.387 . S
H531 C543 0.930 . S
H532 C545 0.930 . S
H533 C546 0.930 . S
H534 C550 0.959 . S
H535 C550 0.959 . S
H536 C550 0.961 . S
H537 C551 0.960 . S
H538 C551 0.961 . S
H539 C551 0.959 . S
H540 C554 0.929 . S
H541 C555 0.931 . S
H542 C557 0.930 . S
C543 H531 0.930 . S
C543 C544 1.399 . S
C543 C548 1.399 . S
C544 C543 1.399 . S
C544 C545 1.376 . S
C545 H532 0.930 . S
C545 C544 1.376 . S
C545 C546 1.388 . S
C546 H533 0.930 . S
C546 C545 1.388 . S
C546 C547 1.390 . S
C547 C546 1.390 . S
C547 C548 1.394 . S
C547 C553 1.465 . S
C548 C543 1.399 . S
C548 C547 1.394 . S
C548 C549 1.516 . S
C549 C548 1.516 . S
C549 C550 1.502 . S
C549 C551 1.561 . S
C549 C552 1.526 . S
C550 H534 0.959 . S
C550 H535 0.959 . S
C550 H536 0.961 . S
C550 C549 1.502 . S
C551 H537 0.960 . S
C551 H538 0.961 . S
C551 H539 0.959 . S
C551 C549 1.561 . S
C552 C549 1.526 . S
C552 C553 1.396 . S
C552 C557 1.390 . S
C553 C547 1.465 . S
C553 C552 1.396 . S
C553 C554 1.399 . S
C554 H540 0.929 . S
C554 C553 1.399 . S
C554 C555 1.385 . S
C555 H541 0.931 . S
C555 C554 1.385 . S
C555 C556 1.389 . S
C556 C555 1.389 . S
C556 C557 1.387 . S
C557 H542 0.930 . S
C557 C552 1.390 . S
C557 C556 1.387 . S
H558 C570 0.930 . S
H559 C572 0.930 . S
H560 C573 0.930 . S
H561 C577 0.959 . S
H562 C577 0.959 . S
H563 C577 0.961 . S
H564 C578 0.960 . S
H565 C578 0.961 . S
H566 C578 0.959 . S
H567 C581 0.929 . S
H568 C582 0.931 . S
H569 C584 0.930 . S
C570 H558 0.930 . S
C570 C571 1.399 . S
C570 C575 1.399 . S
C571 C570 1.399 . S
C571 C572 1.376 . S
C572 H559 0.930 . S
C572 C571 1.376 . S
C572 C573 1.388 . S
C573 H560 0.930 . S
C573 C572 1.388 . S
C573 C574 1.390 . S
C574 C573 1.390 . S
C574 C575 1.394 . S
C574 C580 1.465 . S
C575 C570 1.399 . S
C575 C574 1.394 . S
C575 C576 1.516 . S
C576 C575 1.516 . S
C576 C577 1.502 . S
C576 C578 1.561 . S
C576 C579 1.526 . S
C577 H561 0.959 . S
C577 H562 0.959 . S
C577 H563 0.961 . S
C577 C576 1.502 . S
C578 H564 0.960 . S
C578 H565 0.961 . S
C578 H566 0.959 . S
C578 C576 1.561 . S
C579 C576 1.526 . S
C579 C580 1.396 . S
C579 C584 1.390 . S
C580 C574 1.465 . S
C580 C579 1.396 . S
C580 C581 1.399 . S
C581 H567 0.929 . S
C581 C580 1.399 . S
C581 C582 1.385 . S
C582 H568 0.931 . S
C582 C581 1.385 . S
C582 C583 1.389 . S
C583 C582 1.389 . S
C583 C584 1.387 . S
C584 H569 0.930 . S
C584 C579 1.390 . S
C584 C583 1.387 . S
H585 C597 0.930 . S
H586 C599 0.930 . S
H587 C600 0.930 . S
H588 C604 0.959 . S
H589 C604 0.959 . S
H590 C604 0.961 . S
H591 C605 0.960 . S
H592 C605 0.961 . S
H593 C605 0.959 . S
H594 C608 0.929 . S
H595 C609 0.931 . S
H596 C611 0.930 . S
C597 H585 0.930 . S
C597 C598 1.399 . S
C597 C602 1.399 . S
C598 C597 1.399 . S
C598 C599 1.376 . S
C599 H586 0.930 . S
C599 C598 1.376 . S
C599 C600 1.388 . S
C600 H587 0.930 . S
C600 C599 1.388 . S
C600 C601 1.390 . S
C601 C600 1.390 . S
C601 C602 1.394 . S
C601 C607 1.465 . S
C602 C597 1.399 . S
C602 C601 1.394 . S
C602 C603 1.516 . S
C603 C602 1.516 . S
C603 C604 1.502 . S
C603 C605 1.561 . S
C603 C606 1.526 . S
C604 H588 0.959 . S
C604 H589 0.959 . S
C604 H590 0.961 . S
C604 C603 1.502 . S
C605 H591 0.960 . S
C605 H592 0.961 . S
C605 H593 0.959 . S
C605 C603 1.561 . S
C606 C603 1.526 . S
C606 C607 1.396 . S
C606 C611 1.390 . S
C607 C601 1.465 . S
C607 C606 1.396 . S
C607 C608 1.399 . S
C608 H594 0.929 . S
C608 C607 1.399 . S
C608 C609 1.385 . S
C609 H595 0.931 . S
C609 C608 1.385 . S
C609 C610 1.389 . S
C610 C609 1.389 . S
C610 C611 1.387 . S
C611 H596 0.930 . S
C611 C606 1.390 . S
C611 C610 1.387 . S
H612 C624 0.930 . S
H613 C626 0.930 . S
H614 C627 0.930 . S
H615 C631 0.959 . S
H616 C631 0.959 . S
H617 C631 0.961 . S
H618 C632 0.960 . S
H619 C632 0.961 . S
H620 C632 0.959 . S
H621 C635 0.929 . S
H622 C636 0.931 . S
H623 C638 0.930 . S
C624 H612 0.930 . S
C624 C625 1.399 . S
C624 C629 1.399 . S
C625 C624 1.399 . S
C625 C626 1.376 . S
C626 H613 0.930 . S
C626 C625 1.376 . S
C626 C627 1.388 . S
C627 H614 0.930 . S
C627 C626 1.388 . S
C627 C628 1.390 . S
C628 C627 1.390 . S
C628 C629 1.394 . S
C628 C634 1.465 . S
C629 C624 1.399 . S
C629 C628 1.394 . S
C629 C630 1.516 . S
C630 C629 1.516 . S
C630 C631 1.502 . S
C630 C632 1.561 . S
C630 C633 1.526 . S
C631 H615 0.959 . S
C631 H616 0.959 . S
C631 H617 0.961 . S
C631 C630 1.502 . S
C632 H618 0.960 . S
C632 H619 0.961 . S
C632 H620 0.959 . S
C632 C630 1.561 . S
C633 C630 1.526 . S
C633 C634 1.396 . S
C633 C638 1.390 . S
C634 C628 1.465 . S
C634 C633 1.396 . S
C634 C635 1.399 . S
C635 H621 0.929 . S
C635 C634 1.399 . S
C635 C636 1.385 . S
C636 H622 0.931 . S
C636 C635 1.385 . S
C636 C637 1.389 . S
C637 C636 1.389 . S
C637 C638 1.387 . S
C638 H623 0.930 . S
C638 C633 1.390 . S
C638 C637 1.387 . S
H639 C651 0.930 . S
H640 C653 0.930 . S
H641 C654 0.930 . S
H642 C658 0.959 . S
H643 C658 0.959 . S
H644 C658 0.961 . S
H645 C659 0.960 . S
H646 C659 0.961 . S
H647 C659 0.959 . S
H648 C662 0.929 . S
H649 C663 0.931 . S
H650 C665 0.930 . S
C651 H639 0.930 . S
C651 C652 1.399 . S
C651 C656 1.399 . S
C652 C651 1.399 . S
C652 C653 1.376 . S
C653 H640 0.930 . S
C653 C652 1.376 . S
C653 C654 1.388 . S
C654 H641 0.930 . S
C654 C653 1.388 . S
C654 C655 1.390 . S
C655 C654 1.390 . S
C655 C656 1.394 . S
C655 C661 1.465 . S
C656 C651 1.399 . S
C656 C655 1.394 . S
C656 C657 1.516 . S
C657 C656 1.516 . S
C657 C658 1.502 . S
C657 C659 1.561 . S
C657 C660 1.526 . S
C658 H642 0.959 . S
C658 H643 0.959 . S
C658 H644 0.961 . S
C658 C657 1.502 . S
C659 H645 0.960 . S
C659 H646 0.961 . S
C659 H647 0.959 . S
C659 C657 1.561 . S
C660 C657 1.526 . S
C660 C661 1.396 . S
C660 C665 1.390 . S
C661 C655 1.465 . S
C661 C660 1.396 . S
C661 C662 1.399 . S
C662 H648 0.929 . S
C662 C661 1.399 . S
C662 C663 1.385 . S
C663 H649 0.931 . S
C663 C662 1.385 . S
C663 C664 1.389 . S
C664 C663 1.389 . S
C664 C665 1.387 . S
C665 H650 0.930 . S
C665 C660 1.390 . S
C665 C664 1.387 . S
C193 C166 0.931 . S
C205 C27 0.923 . S
C220 N14 1.488 . S
C232 C46 1.683 . S
C247 N36 1.632 . S
C259 N74 1.566 . S
C274 C106 0.903 . S
C286 C87 0.935 . S
C301 C147 1.690 . S
C313 N96 1.549 . S
C328 N134 1.604 . S
C340 N156 1.546 . S
C355 N126 1.471 . S
C367 C16 1.486 . S
C382 C177 1.916 . S
C394 C57 1.918 . S
C409 N66 1.236 . S
C421 N6 1.271 . S
C436 C117 1.512 . S
C448 N44 1.500 . S
C463 C136 1.918 . S
C475 C76 1.910 . S
C490 N104 1.242 . S
C502 N164 1.268 . S
C517 C10 1.478 . S
C529 C1 1.491 . S
C544 C40 1.486 . S
C556 C31 1.496 . S
C571 C61 1.478 . S
C583 C70 1.499 . S
C598 C100 1.491 . S
C610 C91 1.486 . S
C625 C121 1.483 . S
C637 C130 1.498 . S
C652 C151 1.498 . S
C664 C160 1.478 . S
