# Generated by pormake.
# Topology tfs, (6)-cn, num edge types: 1
# Building blocks:
#     Node 0, Type 0, BuildingBlock: UKALOJ_clean_sbu_0, # of connection points: 6
#     Node 1, Type 0, BuildingBlock: UKALOJ_clean_sbu_0, # of connection points: 6
#     Node 2, Type 0, BuildingBlock: UKALOJ_clean_sbu_0, # of connection points: 6
#     Node 3, Type 0, BuildingBlock: UKALOJ_clean_sbu_0, # of connection points: 6
#     Node 4, Type 0, BuildingBlock: UKALOJ_clean_sbu_0, # of connection points: 6
#     Node 5, Type 0, BuildingBlock: UKALOJ_clean_sbu_0, # of connection points: 6
#     Edge 6, Type (0, 0), BuildingBlock: OJICUG_clean_linker_0, # of connection points: 2
#     Edge 7, Type (0, 0), BuildingBlock: OJICUG_clean_linker_0, # of connection points: 2
#     Edge 8, Type (0, 0), BuildingBlock: OJICUG_clean_linker_0, # of connection points: 2
#     Edge 9, Type (0, 0), BuildingBlock: OJICUG_clean_linker_0, # of connection points: 2
#     Edge 10, Type (0, 0), BuildingBlock: OJICUG_clean_linker_0, # of connection points: 2
#     Edge 11, Type (0, 0), BuildingBlock: OJICUG_clean_linker_0, # of connection points: 2
#     Edge 12, Type (0, 0), BuildingBlock: OJICUG_clean_linker_0, # of connection points: 2
#     Edge 13, Type (0, 0), BuildingBlock: OJICUG_clean_linker_0, # of connection points: 2
#     Edge 14, Type (0, 0), BuildingBlock: OJICUG_clean_linker_0, # of connection points: 2
#     Edge 15, Type (0, 0), BuildingBlock: OJICUG_clean_linker_0, # of connection points: 2
#     Edge 16, Type (0, 0), BuildingBlock: OJICUG_clean_linker_0, # of connection points: 2
#     Edge 17, Type (0, 0), BuildingBlock: OJICUG_clean_linker_0, # of connection points: 2
#     Edge 18, Type (0, 0), BuildingBlock: OJICUG_clean_linker_0, # of connection points: 2
#     Edge 19, Type (0, 0), BuildingBlock: OJICUG_clean_linker_0, # of connection points: 2
#     Edge 20, Type (0, 0), BuildingBlock: OJICUG_clean_linker_0, # of connection points: 2
#     Edge 21, Type (0, 0), BuildingBlock: OJICUG_clean_linker_0, # of connection points: 2
#     Edge 22, Type (0, 0), BuildingBlock: OJICUG_clean_linker_0, # of connection points: 2
#     Edge 23, Type (0, 0), BuildingBlock: OJICUG_clean_linker_0, # of connection points: 2
# Relax obj value: 0.235
# Max RMSD: 0.159
# Mean RMSD: 0.159
data_MOF--net-tfs--node1-UKALOJ_clean_sbu_0--edge1-OJICUG_clean_linker_0
_symmetry_space_group_name_H-M    P1
_symmetry_Int_Tables_number       1
_symmetry_cell_setting            triclinic
loop_
_symmetry_equiv_pos_as_xyz
'x, y, z'
_cell_length_a     36.948946
_cell_length_b     36.949572
_cell_length_c     11.307171
_cell_angle_alpha  90.005395
_cell_angle_beta   89.994261
_cell_angle_gamma 120.00245
loop_
_atom_site_label
_atom_site_type_symbol
_atom_site_fract_x
_atom_site_fract_y
_atom_site_fract_z
_atom_type_partial_charge
Zn0 Zn 0.18693 0.45328 -0.01064 0.0
O1 O 0.18675 0.45389 0.17688 0.0
C2 C 0.27902 0.4879 -0.00907 0.0
Zn3 Zn 0.20332 0.40276 -0.01136 0.0
C4 C 0.19432 0.42857 0.23308 0.0
O5 O 0.20189 0.40351 0.17567 0.0
C6 C 0.19571 0.42733 0.74492 0.0
O7 O 0.13843 0.35719 -0.01515 0.0
O8 O 0.12294 0.40728 -0.00977 0.0
N9 N 0.218 0.35609 -0.00306 0.0
C10 C 0.25141 0.35397 0.95811 0.0
C11 C 0.21354 0.29859 0.05729 0.0
N12 N 0.19443 0.32153 0.05802 0.0
N13 N 0.24957 0.31835 -0.00414 0.0
C14 C 0.19044 0.53884 0.02052 0.0
C15 C 0.13724 0.52934 0.9219 0.0
N16 N 0.17101 0.49903 -0.01862 0.0
N17 N 0.13783 0.49316 0.92073 0.0
N18 N 0.17008 0.55861 -0.01659 0.0
H19 H 0.22891 0.53325 0.15472 0.0
H20 H 0.22761 0.58153 0.15859 0.0
H21 H 0.25664 0.57297 0.04544 0.0
C22 C 0.22792 0.55759 0.1 0.0
C23 C 0.28448 0.38566 0.87828 0.0
H24 H 0.27178 0.40144 0.82297 0.0
H25 H 0.2974 0.37066 0.82015 0.0
H26 H 0.31026 0.4097 0.93263 0.0
O27 O 0.20421 0.40267 0.80112 0.0
O28 O 0.18716 0.4517 0.80232 0.0
C29 C 0.1111 0.36855 -0.01316 0.0
O30 O 0.25122 0.49851 -0.01282 0.0
O31 O 0.26785 0.4493 -0.00645 0.0
Zn32 Zn 0.73817 0.18468 -0.01134 0.0
O33 O 0.73738 0.18451 0.17619 0.0
C34 C 0.79566 0.27677 -0.00977 0.0
Zn35 Zn 0.80509 0.20107 -0.01204 0.0
C36 C 0.77027 0.19208 0.23238 0.0
O37 O 0.8029 0.19964 0.17497 0.0
C38 C 0.77291 0.19344 0.74423 0.0
O39 O 0.78575 0.13617 -0.01579 0.0
O40 O 0.72018 0.12069 -0.0104 0.0
N41 N 0.86643 0.21574 -0.00369 0.0
C42 C 0.90198 0.24915 0.95756 0.0
C43 C 0.91945 0.21127 0.05677 0.0
N44 N 0.8774 0.19216 0.0574 0.0
N45 N 0.93574 0.2473 -0.00461 0.0
C46 C 0.65612 0.18819 0.01975 0.0
C47 C 0.61242 0.13498 0.92112 0.0
N48 N 0.6765 0.16876 0.98064 0.0
N49 N 0.64919 0.13557 0.91998 0.0
N50 N 0.61599 0.16783 -0.01738 0.0
H51 H 0.70018 0.22667 0.15395 0.0
H52 H 0.65059 0.22536 0.15781 0.0
H53 H 0.68818 0.25439 0.04465 0.0
C54 C 0.67485 0.22568 0.09923 0.0
C55 C 0.90338 0.28223 0.87774 0.0
H56 H 0.87491 0.26953 0.82235 0.0
H57 H 0.93132 0.29516 0.81969 0.0
H58 H 0.9051 0.308 0.93209 0.0
O59 O 0.80607 0.20195 0.80043 0.0
O60 O 0.73999 0.1849 0.80163 0.0
C61 C 0.74707 0.10885 -0.01375 0.0
O62 O 0.75724 0.24897 -0.01354 0.0
O63 O 0.82307 0.26559 -0.00715 0.0
Zn64 Zn 0.55804 0.73592 -0.01047 0.0
O65 O 0.55742 0.73514 0.17705 0.0
C66 C 0.52342 0.79339 -0.00895 0.0
Zn67 Zn 0.60857 0.80284 -0.01116 0.0
C68 C 0.58274 0.76803 0.23326 0.0
O69 O 0.6078 0.80067 0.17587 0.0
C70 C 0.58401 0.77064 0.7451 0.0
O71 O 0.65414 0.78352 -0.01488 0.0
O72 O 0.60404 0.71794 -0.00954 0.0
N73 N 0.65522 0.86419 -0.00288 0.0
C74 C 0.65734 0.89971 0.95819 0.0
C75 C 0.71272 0.91726 0.05741 0.0
N76 N 0.68978 0.8752 0.05821 0.0
N77 N 0.69296 0.9335 -0.0041 0.0
C78 C 0.47248 0.65387 0.02062 0.0
C79 C 0.48199 0.61017 0.92201 0.0
N80 N 0.51229 0.67425 -0.01846 0.0
N81 N 0.51817 0.64694 0.92088 0.0
N82 N 0.45271 0.61373 -0.01651 0.0
H83 H 0.47805 0.69792 0.15484 0.0
H84 H 0.42977 0.64833 0.15865 0.0
H85 H 0.43834 0.68593 0.04552 0.0
C86 C 0.45372 0.67259 0.10009 0.0
C87 C 0.62565 0.90106 0.87832 0.0
H88 H 0.60987 0.87256 0.82305 0.0
H89 H 0.64065 0.92896 0.82013 0.0
H90 H 0.60161 0.90281 0.93262 0.0
O91 O 0.60866 0.8038 0.80132 0.0
O92 O 0.55963 0.73772 0.80249 0.0
C93 C 0.64278 0.74484 -0.01287 0.0
O94 O 0.5128 0.75497 -0.01269 0.0
O95 O 0.56202 0.82081 -0.0063 0.0
Zn96 Zn 0.82664 0.55578 -0.01042 0.0
O97 O 0.8268 0.55514 0.1771 0.0
C98 C 0.73455 0.52115 -0.00896 0.0
Zn99 Zn 0.81025 0.6063 -0.01109 0.0
C100 C 0.81922 0.58045 0.23332 0.0
O101 O 0.81166 0.60552 0.17593 0.0
C102 C 0.8179 0.58176 0.74516 0.0
O103 O 0.87515 0.65187 -0.0148 0.0
O104 O 0.89063 0.60178 -0.00944 0.0
N105 N 0.79557 0.65296 -0.00271 0.0
C106 C 0.76216 0.65509 0.95847 0.0
C107 C 0.80003 0.71046 0.05774 0.0
N108 N 0.81913 0.68751 0.05842 0.0
N109 N 0.76401 0.69071 -0.00372 0.0
C110 C 0.82314 0.47021 0.02046 0.0
C111 C 0.87637 0.47976 0.92186 0.0
N112 N 0.84258 0.51004 -0.01851 0.0
N113 N 0.87578 0.51594 0.92084 0.0
N114 N 0.84351 0.45046 -0.01675 0.0
H115 H 0.78464 0.47574 0.15471 0.0
H116 H 0.78594 0.42745 0.15837 0.0
H117 H 0.75694 0.43607 0.04527 0.0
C118 C 0.78564 0.45142 0.09988 0.0
C119 C 0.72911 0.62342 0.8786 0.0
H120 H 0.74181 0.60764 0.82325 0.0
H121 H 0.71619 0.63843 0.82049 0.0
H122 H 0.70332 0.59937 0.9329 0.0
O123 O 0.80938 0.60641 0.80138 0.0
O124 O 0.82644 0.55739 0.80255 0.0
C125 C 0.90247 0.64052 -0.01277 0.0
O126 O 0.76235 0.51054 -0.01269 0.0
O127 O 0.74573 0.55975 -0.00628 0.0
Zn128 Zn 0.2754 0.82439 -0.0104 0.0
O129 O 0.2762 0.82457 0.17712 0.0
C130 C 0.21793 0.73229 -0.00886 0.0
Zn131 Zn 0.20849 0.80799 -0.01108 0.0
C132 C 0.24331 0.81699 0.23333 0.0
O133 O 0.21068 0.80942 0.17594 0.0
C134 C 0.24067 0.81561 0.74518 0.0
O135 O 0.22782 0.87288 -0.01485 0.0
O136 O 0.2934 0.88838 -0.0095 0.0
N137 N 0.14714 0.79331 -0.00271 0.0
C138 C 0.1116 0.7599 0.95849 0.0
C139 C 0.09411 0.79778 0.05772 0.0
N140 N 0.13616 0.81688 0.05839 0.0
N141 N 0.07783 0.76175 -0.00371 0.0
C142 C 0.35746 0.82088 0.02065 0.0
C143 C 0.40116 0.87408 0.922 0.0
N144 N 0.33708 0.84031 -0.01844 0.0
N145 N 0.36439 0.87349 0.92089 0.0
N146 N 0.39759 0.84124 -0.0165 0.0
H147 H 0.31341 0.78241 0.15489 0.0
H148 H 0.36299 0.78372 0.1587 0.0
H149 H 0.32539 0.75468 0.04558 0.0
C150 C 0.33873 0.7834 0.10014 0.0
C151 C 0.11021 0.72683 0.87864 0.0
H152 H 0.13869 0.73953 0.82329 0.0
H153 H 0.08229 0.71391 0.82055 0.0
H154 H 0.10848 0.70106 0.93298 0.0
O155 O 0.20751 0.8071 0.8014 0.0
O156 O 0.27359 0.82416 0.80256 0.0
C157 C 0.26649 0.90021 -0.01286 0.0
O158 O 0.25634 0.7601 -0.01261 0.0
O159 O 0.19051 0.74347 -0.0062 0.0
Zn160 Zn 0.45553 0.27313 -0.011 0.0
O161 O 0.45615 0.27392 0.17652 0.0
C162 C 0.49014 0.21565 -0.00955 0.0
Zn163 Zn 0.405 0.20621 -0.0117 0.0
C164 C 0.43084 0.24103 0.23272 0.0
O165 O 0.40577 0.2084 0.17532 0.0
C166 C 0.42955 0.2384 0.74457 0.0
O167 O 0.35944 0.22555 -0.0154 0.0
O168 O 0.40953 0.29112 -0.01003 0.0
N169 N 0.35833 0.14487 -0.00334 0.0
C170 C 0.3562 0.10933 0.95789 0.0
C171 C 0.30084 0.09184 0.05717 0.0
N172 N 0.32378 0.1339 0.05779 0.0
N173 N 0.32058 0.07556 -0.00425 0.0
C174 C 0.54109 0.35517 0.02013 0.0
C175 C 0.5316 0.39889 0.92156 0.0
N176 N 0.50129 0.3348 0.981 0.0
N177 N 0.49542 0.36212 0.92037 0.0
N178 N 0.56087 0.39531 -0.01695 0.0
H179 H 0.5355 0.3111 0.15429 0.0
H180 H 0.58378 0.36069 0.15819 0.0
H181 H 0.57523 0.32311 0.045 0.0
C182 C 0.55984 0.33644 0.09959 0.0
C183 C 0.38787 0.10793 0.87802 0.0
H184 H 0.40364 0.1364 0.82263 0.0
H185 H 0.37286 0.08 0.81996 0.0
H186 H 0.41193 0.10621 0.93233 0.0
O187 O 0.4049 0.20524 0.80077 0.0
O188 O 0.45392 0.27132 0.80196 0.0
C189 C 0.3708 0.26423 -0.01337 0.0
O190 O 0.50075 0.25407 -0.01328 0.0
O191 O 0.45154 0.18823 -0.00689 0.0
C192 C 0.29667 0.24922 0.97152 0.0
C193 C 0.33947 0.27809 -0.01419 0.0
H194 H 0.2345 0.23982 0.96215 0.0
C195 C 0.35219 0.32059 0.00085 0.0
H196 H 0.2858 0.21625 0.96001 0.0
C197 C 0.32284 0.33387 0.00252 0.0
C198 C 0.28013 0.30513 -0.01278 0.0
H199 H 0.38484 0.34362 0.01355 0.0
H200 H 0.33356 0.36648 0.01953 0.0
C201 C 0.26731 0.26264 0.97253 0.0
C202 C 0.03613 0.34993 0.00078 0.0
C203 C 0.06591 0.33721 -0.01413 0.0
H204 H 0.97159 0.33129 0.0192 0.0
C205 C 0.05199 0.29442 0.9715 0.0
H206 H 0.04574 0.38258 0.01354 0.0
C207 C 0.00922 0.26507 0.97232 0.0
C208 C 0.97953 0.27788 -0.0131 0.0
H209 H 0.0741 0.28356 0.96006 0.0
H210 H 0.99922 0.23225 0.96189 0.0
C211 C 0.99349 0.32058 0.00227 0.0
C212 C 0.76208 0.04973 0.97127 0.0
C213 C 0.73321 0.06366 -0.01451 0.0
H214 H 0.77148 0.99695 0.96207 0.0
C215 C 0.69071 0.03389 0.00056 0.0
H216 H 0.79506 0.07183 0.95973 0.0
C217 C 0.67743 0.99125 0.00235 0.0
C218 C 0.70617 0.97728 -0.01287 0.0
H219 H 0.66768 0.0435 0.01322 0.0
H220 H 0.64483 0.96936 0.0194 0.0
C221 C 0.74867 0.00696 0.97239 0.0
C222 C 0.69073 0.67519 0.00293 0.0
C223 C 0.73344 0.70393 -0.01234 0.0
H224 H 0.62873 0.66544 0.01394 0.0
C225 C 0.74626 0.74643 0.97304 0.0
H226 H 0.68001 0.64258 0.01989 0.0
C227 C 0.71691 0.75985 0.97205 0.0
C228 C 0.67411 0.73098 -0.0137 0.0
H229 H 0.77908 0.76924 0.96269 0.0
H230 H 0.72779 0.79282 0.96058 0.0
C231 C 0.66138 0.68848 0.00127 0.0
C232 C 1.00437 0.744 0.97306 0.0
C233 C 0.03404 0.73118 -0.0123 0.0
H234 H 0.93949 0.72552 0.96061 0.0
C235 C 0.02008 0.68847 0.00301 0.0
H236 H 0.01437 0.77682 0.96268 0.0
C237 C 0.97744 0.65912 0.00138 0.0
C238 C 0.94766 0.67185 -0.01361 0.0
H239 H 0.04197 0.67776 0.01999 0.0
H240 H 0.96782 0.62648 0.01409 0.0
C241 C 0.96159 0.71465 0.9721 0.0
C242 C 0.25147 0.95931 0.97186 0.0
C243 C 0.28035 0.9454 -0.01382 0.0
H244 H 0.24206 0.01207 0.9623 0.0
C245 C 0.32285 0.97519 0.00107 0.0
H246 H 0.21849 0.9372 0.96044 0.0
C247 C 0.33613 0.01782 0.00257 0.0
C248 C 0.30738 0.03177 -0.01276 0.0
H249 H 0.34589 0.96559 0.01379 0.0
H250 H 0.36874 0.03973 0.01948 0.0
C251 C 0.26488 1.00208 0.9727 0.0
C252 C 0.16397 0.65641 0.01485 0.0
C253 C 0.2055 0.68747 -0.00823 0.0
H254 H 0.1203 0.59066 0.03089 0.0
C255 C 0.23522 0.67527 0.968 0.0
H256 H 0.14032 0.66471 0.03382 0.0
C257 C 0.22376 0.63309 0.96739 0.0
C258 C 0.18238 0.60213 -0.00889 0.0
H259 H 0.26724 0.69823 0.94731 0.0
H260 H 0.24702 0.62466 0.94463 0.0
C261 C 0.1525 0.61411 0.0138 0.0
C262 C 0.56446 0.23295 0.96723 0.0
C263 C 0.52254 0.20323 -0.00897 0.0
H264 H 0.62687 0.24476 0.94383 0.0
C265 C 0.51207 0.1617 0.01409 0.0
H266 H 0.57352 0.26497 0.94656 0.0
C267 C 0.5429 0.15023 0.01301 0.0
C268 C 0.58477 0.18012 -0.00969 0.0
H269 H 0.48012 0.13805 0.03307 0.0
H270 H 0.53415 0.11803 0.0301 0.0
C271 C 0.59518 0.22149 0.9666 0.0
C272 C 0.3972 0.54064 0.01376 0.0
C273 C 0.4092 0.58252 -0.00889 0.0
H274 H 0.34659 0.47786 0.03367 0.0
C275 C 0.37824 0.59294 0.96736 0.0
H276 H 0.42064 0.53189 0.03087 0.0
C277 C 0.33606 0.56222 0.96789 0.0
C278 C 0.32385 0.5203 -0.00838 0.0
H279 H 0.38668 0.62463 0.94463 0.0
H280 H 0.3131 0.57128 0.94718 0.0
C281 C 0.3549 0.50982 0.01473 0.0
C282 C 0.86109 0.39494 0.01332 0.0
C283 C 0.83121 0.40694 -0.00927 0.0
H284 H 0.87326 0.34433 0.03308 0.0
C285 C 0.78984 0.37599 0.96689 0.0
H286 H 0.89328 0.41838 0.0305 0.0
C287 C 0.77837 0.33381 0.9673 0.0
C288 C 0.80809 0.3216 -0.00902 0.0
H289 H 0.76658 0.38443 0.9442 0.0
H290 H 0.74635 0.31086 0.94653 0.0
C291 C 0.84962 0.35264 0.01417 0.0
C292 C 0.47068 0.85882 0.01379 0.0
C293 C 0.4288 0.82894 -0.00887 0.0
H294 H 0.53346 0.87099 0.03373 0.0
C295 C 0.41838 0.78756 0.96741 0.0
H296 H 0.47943 0.89102 0.03088 0.0
C297 C 0.4491 0.7761 0.96797 0.0
C298 C 0.49102 0.80582 -0.00829 0.0
H299 H 0.38669 0.7643 0.94468 0.0
H300 H 0.44003 0.74407 0.94728 0.0
C301 C 0.5015 0.84735 0.01479 0.0
C302 C 0.65866 0.49922 0.01467 0.0
C303 C 0.68972 0.48875 -0.00841 0.0
H304 H 0.59292 0.47714 0.03065 0.0
C305 C 0.67753 0.44684 0.96774 0.0
H306 H 0.66697 0.53117 0.0337 0.0
C307 C 0.63535 0.41612 0.96706 0.0
C308 C 0.60438 0.42653 -0.00922 0.0
H309 H 0.7005 0.43779 0.94705 0.0
H310 H 0.62692 0.38444 0.94425 0.0
C311 C 0.61637 0.4684 0.01355 0.0
C312 C 0.18646 0.45529 0.55228 0.0
C313 C 0.19551 0.42769 0.61399 0.0
H314 H 0.17901 0.47727 0.38395 0.0
C315 C 0.2042 0.40046 0.5493 0.0
H316 H 0.17966 0.47673 0.59939 0.0
C317 C 0.20374 0.40073 0.42571 0.0
C318 C 0.19464 0.42829 0.36401 0.0
H319 H 0.21133 0.37884 0.59405 0.0
H320 H 0.21056 0.3793 0.3786 0.0
C321 C 0.18606 0.45561 0.42869 0.0
C322 C 0.80827 0.20195 0.5486 0.0
C323 C 0.77234 0.19325 0.61329 0.0
H324 H 0.83578 0.20832 0.37789 0.0
C325 C 0.7357 0.18421 0.5516 0.0
H326 H 0.83701 0.20907 0.59334 0.0
C327 C 0.73498 0.18382 0.428 0.0
C328 C 0.77087 0.19239 0.36331 0.0
H329 H 0.70746 0.1774 0.59871 0.0
H330 H 0.70626 0.17677 0.38327 0.0
C331 C 0.80753 0.20149 0.425 0.0
C332 C 0.55604 0.73344 0.55245 0.0
C333 C 0.58364 0.77008 0.61417 0.0
H334 H 0.53404 0.70401 0.38409 0.0
C335 C 0.61087 0.80602 0.54951 0.0
H336 H 0.53461 0.70519 0.59954 0.0
C337 C 0.61059 0.80529 0.42591 0.0
C338 C 0.58303 0.76863 0.36419 0.0
H339 H 0.63249 0.83476 0.59427 0.0
H340 H 0.63201 0.83354 0.37882 0.0
C341 C 0.55571 0.73273 0.42885 0.0
C342 C 0.82713 0.55378 0.55252 0.0
C343 C 0.81808 0.58138 0.61423 0.0
H344 H 0.83456 0.53177 0.38418 0.0
C345 C 0.80938 0.60861 0.54955 0.0
H346 H 0.83394 0.53235 0.59962 0.0
C347 C 0.80982 0.60832 0.42596 0.0
C348 C 0.81892 0.58075 0.36425 0.0
H349 H 0.80225 0.63022 0.5943 0.0
H350 H 0.80299 0.62973 0.37886 0.0
C351 C 0.82751 0.55344 0.42893 0.0
C352 C 0.20604 0.80757 0.42598 0.0
C353 C 0.24271 0.81668 0.36427 0.0
H354 H 0.17656 0.79998 0.59433 0.0
C355 C 0.2786 0.82526 0.42893 0.0
H356 H 0.17779 0.80075 0.37889 0.0
C357 C 0.27788 0.82486 0.55253 0.0
C358 C 0.24123 0.81581 0.61424 0.0
H359 H 0.30732 0.83231 0.38418 0.0
H360 H 0.30612 0.83167 0.59962 0.0
C361 C 0.2053 0.80711 0.54958 0.0
C362 C 0.45753 0.27561 0.55193 0.0
C363 C 0.42993 0.23896 0.61363 0.0
H364 H 0.47953 0.30504 0.38359 0.0
C365 C 0.4027 0.20303 0.54895 0.0
H366 H 0.47896 0.30385 0.59903 0.0
C367 C 0.40298 0.20377 0.42536 0.0
C368 C 0.43054 0.24043 0.36365 0.0
H369 H 0.38108 0.17429 0.5937 0.0
H370 H 0.38156 0.17552 0.37825 0.0
C371 C 0.45786 0.27632 0.42833 0.0
loop_
_geom_bond_atom_site_label_1
_geom_bond_atom_site_label_2
_geom_bond_distance
_geom_bond_site_symmetry_2
_ccdc_geom_bond_type
Zn0 O1 2.055 . S
Zn0 O8 2.046 . S
Zn0 N16 2.036 1_554 S
Zn0 O28 2.053 1_554 S
Zn0 O30 2.066 . S
O1 Zn0 2.055 . S
O1 C4 1.259 . S
C2 O30 1.256 . S
C2 O31 1.244 . S
Zn3 O5 2.046 . S
Zn3 O7 2.055 . S
Zn3 N9 2.036 . S
Zn3 O27 2.066 1_554 S
Zn3 O31 2.053 . S
C4 O1 1.259 . S
C4 O5 1.254 . S
O5 Zn3 2.046 . S
O5 C4 1.254 . S
C6 O27 1.256 . S
C6 O28 1.244 . S
O7 Zn3 2.055 . S
O7 C29 1.259 . S
O8 Zn0 2.046 . S
O8 C29 1.255 . S
N9 Zn3 2.036 . S
N9 C10 1.298 1_554 S
N9 N12 1.398 . S
C10 N9 1.298 1_556 S
C10 N13 1.367 . S
C10 C23 1.481 . S
C11 N12 1.299 . S
C11 N13 1.379 1_554 S
N12 N9 1.398 . S
N12 C11 1.299 . S
N13 C10 1.367 . S
N13 C11 1.379 1_556 S
C14 N16 1.298 1_554 S
C14 N18 1.367 1_554 S
C14 C22 1.481 . S
C15 N17 1.299 . S
C15 N18 1.379 . S
N16 Zn0 2.036 1_556 S
N16 C14 1.298 1_556 S
N16 N17 1.398 . S
N17 C15 1.299 . S
N17 N16 1.398 . S
N18 C14 1.367 1_556 S
N18 C15 1.379 . S
H19 C22 0.980 . S
H20 C22 0.981 . S
H21 C22 0.981 . S
C22 C14 1.481 . S
C22 H19 0.980 . S
C22 H20 0.981 . S
C22 H21 0.981 . S
C23 C10 1.481 . S
C23 H24 0.980 . S
C23 H25 0.981 . S
C23 H26 0.981 . S
H24 C23 0.980 . S
H25 C23 0.981 . S
H26 C23 0.981 . S
O27 Zn3 2.066 1_556 S
O27 C6 1.256 . S
O28 Zn0 2.053 1_556 S
O28 C6 1.244 . S
C29 O7 1.259 . S
C29 O8 1.255 . S
O30 Zn0 2.066 . S
O30 C2 1.256 . S
O31 C2 1.244 . S
O31 Zn3 2.053 . S
Zn32 O33 2.055 . S
Zn32 O40 2.046 . S
Zn32 N48 2.036 1_554 S
Zn32 O60 2.053 1_554 S
Zn32 O62 2.066 . S
O33 Zn32 2.055 . S
O33 C36 1.259 . S
C34 O62 1.256 . S
C34 O63 1.244 . S
Zn35 O37 2.046 . S
Zn35 O39 2.055 . S
Zn35 N41 2.036 . S
Zn35 O59 2.066 1_554 S
Zn35 O63 2.053 . S
C36 O33 1.259 . S
C36 O37 1.254 . S
O37 Zn35 2.046 . S
O37 C36 1.254 . S
C38 O59 1.256 . S
C38 O60 1.244 . S
O39 Zn35 2.055 . S
O39 C61 1.259 . S
O40 Zn32 2.046 . S
O40 C61 1.255 . S
N41 Zn35 2.036 . S
N41 C42 1.298 1_554 S
N41 N44 1.398 . S
C42 N41 1.298 1_556 S
C42 N45 1.367 . S
C42 C55 1.481 . S
C43 N44 1.299 . S
C43 N45 1.379 1_554 S
N44 N41 1.398 . S
N44 C43 1.299 . S
N45 C42 1.367 . S
N45 C43 1.379 1_556 S
C46 N48 1.298 1_554 S
C46 N50 1.367 1_554 S
C46 C54 1.481 . S
C47 N49 1.299 . S
C47 N50 1.379 . S
N48 Zn32 2.036 1_556 S
N48 C46 1.298 1_556 S
N48 N49 1.398 . S
N49 C47 1.299 . S
N49 N48 1.398 . S
N50 C46 1.367 1_556 S
N50 C47 1.379 . S
H51 C54 0.980 . S
H52 C54 0.981 . S
H53 C54 0.981 . S
C54 C46 1.481 . S
C54 H51 0.980 . S
C54 H52 0.981 . S
C54 H53 0.981 . S
C55 C42 1.481 . S
C55 H56 0.980 . S
C55 H57 0.981 . S
C55 H58 0.981 . S
H56 C55 0.980 . S
H57 C55 0.981 . S
H58 C55 0.981 . S
O59 Zn35 2.066 1_556 S
O59 C38 1.256 . S
O60 Zn32 2.053 1_556 S
O60 C38 1.244 . S
C61 O39 1.259 . S
C61 O40 1.255 . S
O62 Zn32 2.066 . S
O62 C34 1.256 . S
O63 C34 1.244 . S
O63 Zn35 2.053 . S
Zn64 O65 2.055 . S
Zn64 O72 2.046 . S
Zn64 N80 2.036 1_554 S
Zn64 O92 2.053 1_554 S
Zn64 O94 2.066 . S
O65 Zn64 2.055 . S
O65 C68 1.259 . S
C66 O94 1.256 . S
C66 O95 1.244 . S
Zn67 O69 2.046 . S
Zn67 O71 2.055 . S
Zn67 N73 2.036 . S
Zn67 O91 2.066 1_554 S
Zn67 O95 2.053 . S
C68 O65 1.259 . S
C68 O69 1.254 . S
O69 Zn67 2.046 . S
O69 C68 1.254 . S
C70 O91 1.256 . S
C70 O92 1.244 . S
O71 Zn67 2.055 . S
O71 C93 1.259 . S
O72 Zn64 2.046 . S
O72 C93 1.255 . S
N73 Zn67 2.036 . S
N73 C74 1.298 1_554 S
N73 N76 1.398 . S
C74 N73 1.298 1_556 S
C74 N77 1.367 . S
C74 C87 1.481 . S
C75 N76 1.299 . S
C75 N77 1.379 1_554 S
N76 N73 1.398 . S
N76 C75 1.299 . S
N77 C74 1.367 . S
N77 C75 1.379 1_556 S
C78 N80 1.298 1_554 S
C78 N82 1.367 1_554 S
C78 C86 1.481 . S
C79 N81 1.299 . S
C79 N82 1.379 . S
N80 Zn64 2.036 1_556 S
N80 C78 1.298 1_556 S
N80 N81 1.398 . S
N81 C79 1.299 . S
N81 N80 1.398 . S
N82 C78 1.367 1_556 S
N82 C79 1.379 . S
H83 C86 0.980 . S
H84 C86 0.981 . S
H85 C86 0.981 . S
C86 C78 1.481 . S
C86 H83 0.980 . S
C86 H84 0.981 . S
C86 H85 0.981 . S
C87 C74 1.481 . S
C87 H88 0.980 . S
C87 H89 0.981 . S
C87 H90 0.981 . S
H88 C87 0.980 . S
H89 C87 0.981 . S
H90 C87 0.981 . S
O91 Zn67 2.066 1_556 S
O91 C70 1.256 . S
O92 Zn64 2.053 1_556 S
O92 C70 1.244 . S
C93 O71 1.259 . S
C93 O72 1.255 . S
O94 Zn64 2.066 . S
O94 C66 1.256 . S
O95 C66 1.244 . S
O95 Zn67 2.053 . S
Zn96 O97 2.055 . S
Zn96 O104 2.046 . S
Zn96 N112 2.036 1_554 S
Zn96 O124 2.053 1_554 S
Zn96 O126 2.066 . S
O97 Zn96 2.055 . S
O97 C100 1.259 . S
C98 O126 1.256 . S
C98 O127 1.244 . S
Zn99 O101 2.046 . S
Zn99 O103 2.055 . S
Zn99 N105 2.036 . S
Zn99 O123 2.066 1_554 S
Zn99 O127 2.053 . S
C100 O97 1.259 . S
C100 O101 1.254 . S
O101 Zn99 2.046 . S
O101 C100 1.254 . S
C102 O123 1.256 . S
C102 O124 1.244 . S
O103 Zn99 2.055 . S
O103 C125 1.259 . S
O104 Zn96 2.046 . S
O104 C125 1.255 . S
N105 Zn99 2.036 . S
N105 C106 1.298 1_554 S
N105 N108 1.398 . S
C106 N105 1.298 1_556 S
C106 N109 1.367 . S
C106 C119 1.481 . S
C107 N108 1.299 . S
C107 N109 1.379 1_554 S
N108 N105 1.398 . S
N108 C107 1.299 . S
N109 C106 1.367 . S
N109 C107 1.379 1_556 S
C110 N112 1.298 1_554 S
C110 N114 1.367 1_554 S
C110 C118 1.481 . S
C111 N113 1.299 . S
C111 N114 1.379 . S
N112 Zn96 2.036 1_556 S
N112 C110 1.298 1_556 S
N112 N113 1.398 . S
N113 C111 1.299 . S
N113 N112 1.398 . S
N114 C110 1.367 1_556 S
N114 C111 1.379 . S
H115 C118 0.980 . S
H116 C118 0.981 . S
H117 C118 0.981 . S
C118 C110 1.481 . S
C118 H115 0.980 . S
C118 H116 0.981 . S
C118 H117 0.981 . S
C119 C106 1.481 . S
C119 H120 0.980 . S
C119 H121 0.981 . S
C119 H122 0.981 . S
H120 C119 0.980 . S
H121 C119 0.981 . S
H122 C119 0.981 . S
O123 Zn99 2.066 1_556 S
O123 C102 1.256 . S
O124 Zn96 2.053 1_556 S
O124 C102 1.244 . S
C125 O103 1.259 . S
C125 O104 1.255 . S
O126 Zn96 2.066 . S
O126 C98 1.256 . S
O127 C98 1.244 . S
O127 Zn99 2.053 . S
Zn128 O129 2.055 . S
Zn128 O136 2.046 . S
Zn128 N144 2.036 1_554 S
Zn128 O156 2.053 1_554 S
Zn128 O158 2.066 . S
O129 Zn128 2.055 . S
O129 C132 1.259 . S
C130 O158 1.256 . S
C130 O159 1.244 . S
Zn131 O133 2.046 . S
Zn131 O135 2.055 . S
Zn131 N137 2.036 . S
Zn131 O155 2.066 1_554 S
Zn131 O159 2.053 . S
C132 O129 1.259 . S
C132 O133 1.254 . S
O133 Zn131 2.046 . S
O133 C132 1.254 . S
C134 O155 1.256 . S
C134 O156 1.244 . S
O135 Zn131 2.055 . S
O135 C157 1.259 . S
O136 Zn128 2.046 . S
O136 C157 1.255 . S
N137 Zn131 2.036 . S
N137 C138 1.298 1_554 S
N137 N140 1.398 . S
C138 N137 1.298 1_556 S
C138 N141 1.367 . S
C138 C151 1.481 . S
C139 N140 1.299 . S
C139 N141 1.379 1_554 S
N140 N137 1.398 . S
N140 C139 1.299 . S
N141 C138 1.367 . S
N141 C139 1.379 1_556 S
C142 N144 1.298 1_554 S
C142 N146 1.367 1_554 S
C142 C150 1.481 . S
C143 N145 1.299 . S
C143 N146 1.379 . S
N144 Zn128 2.036 1_556 S
N144 C142 1.298 1_556 S
N144 N145 1.398 . S
N145 C143 1.299 . S
N145 N144 1.398 . S
N146 C142 1.367 1_556 S
N146 C143 1.379 . S
H147 C150 0.980 . S
H148 C150 0.981 . S
H149 C150 0.981 . S
C150 C142 1.481 . S
C150 H147 0.980 . S
C150 H148 0.981 . S
C150 H149 0.981 . S
C151 C138 1.481 . S
C151 H152 0.980 . S
C151 H153 0.981 . S
C151 H154 0.981 . S
H152 C151 0.980 . S
H153 C151 0.981 . S
H154 C151 0.981 . S
O155 Zn131 2.066 1_556 S
O155 C134 1.256 . S
O156 Zn128 2.053 1_556 S
O156 C134 1.244 . S
C157 O135 1.259 . S
C157 O136 1.255 . S
O158 Zn128 2.066 . S
O158 C130 1.256 . S
O159 C130 1.244 . S
O159 Zn131 2.053 . S
Zn160 O161 2.055 . S
Zn160 O168 2.046 . S
Zn160 N176 2.036 1_554 S
Zn160 O188 2.053 1_554 S
Zn160 O190 2.066 . S
O161 Zn160 2.055 . S
O161 C164 1.259 . S
C162 O190 1.256 . S
C162 O191 1.244 . S
Zn163 O165 2.046 . S
Zn163 O167 2.055 . S
Zn163 N169 2.036 . S
Zn163 O187 2.066 1_554 S
Zn163 O191 2.053 . S
C164 O161 1.259 . S
C164 O165 1.254 . S
O165 Zn163 2.046 . S
O165 C164 1.254 . S
C166 O187 1.256 . S
C166 O188 1.244 . S
O167 Zn163 2.055 . S
O167 C189 1.259 . S
O168 Zn160 2.046 . S
O168 C189 1.255 . S
N169 Zn163 2.036 . S
N169 C170 1.298 1_554 S
N169 N172 1.398 . S
C170 N169 1.298 1_556 S
C170 N173 1.367 . S
C170 C183 1.481 . S
C171 N172 1.299 . S
C171 N173 1.379 1_554 S
N172 N169 1.398 . S
N172 C171 1.299 . S
N173 C170 1.367 . S
N173 C171 1.379 1_556 S
C174 N176 1.298 1_554 S
C174 N178 1.367 1_554 S
C174 C182 1.481 . S
C175 N177 1.299 . S
C175 N178 1.379 . S
N176 Zn160 2.036 1_556 S
N176 C174 1.298 1_556 S
N176 N177 1.398 . S
N177 C175 1.299 . S
N177 N176 1.398 . S
N178 C174 1.367 1_556 S
N178 C175 1.379 . S
H179 C182 0.980 . S
H180 C182 0.981 . S
H181 C182 0.981 . S
C182 C174 1.481 . S
C182 H179 0.980 . S
C182 H180 0.981 . S
C182 H181 0.981 . S
C183 C170 1.481 . S
C183 H184 0.980 . S
C183 H185 0.981 . S
C183 H186 0.981 . S
H184 C183 0.980 . S
H185 C183 0.981 . S
H186 C183 0.981 . S
O187 Zn163 2.066 1_556 S
O187 C166 1.256 . S
O188 Zn160 2.053 1_556 S
O188 C166 1.244 . S
C189 O167 1.259 . S
C189 O168 1.255 . S
O190 Zn160 2.066 . S
O190 C162 1.256 . S
O191 C162 1.244 . S
O191 Zn163 2.053 . S
C192 C193 1.387 1_554 S
C192 H196 0.950 . S
C192 C201 1.390 . S
C193 C192 1.387 1_556 S
C193 C195 1.387 . S
H194 C201 0.950 . S
C195 C193 1.387 . S
C195 C197 1.390 . S
C195 H199 0.950 . S
H196 C192 0.950 . S
C197 C195 1.390 . S
C197 C198 1.387 . S
C197 H200 0.950 . S
C198 C197 1.387 . S
C198 C201 1.387 1_556 S
H199 C195 0.950 . S
H200 C197 0.950 . S
C201 C192 1.390 . S
C201 H194 0.950 . S
C201 C198 1.387 1_554 S
C202 C203 1.387 . S
C202 H206 0.950 . S
C202 C211 1.390 . S
C203 C202 1.387 . S
C203 C205 1.387 1_556 S
H204 C211 0.950 . S
C205 C203 1.387 1_554 S
C205 C207 1.390 . S
C205 H209 0.950 . S
H206 C202 0.950 . S
C207 C205 1.390 . S
C207 C208 1.380 1_454 S
C207 H210 0.950 1_455 S
C208 C207 1.380 1_656 S
C208 C211 1.374 1_655 S
H209 C205 0.950 . S
H210 C207 0.950 1_655 S
C211 C202 1.390 . S
C211 H204 0.950 . S
C211 C208 1.374 1_455 S
C212 C213 1.387 1_554 S
C212 H216 0.950 . S
C212 C221 1.390 . S
C213 C212 1.387 1_556 S
C213 C215 1.387 . S
H214 C221 0.950 1_565 S
C215 C213 1.387 . S
C215 C217 1.390 . S
C215 H219 0.950 . S
H216 C212 0.950 . S
C217 C215 1.390 . S
C217 C218 1.373 1_545 S
C217 H220 0.950 . S
C218 C217 1.373 1_565 S
C218 C221 1.374 1_566 S
H219 C215 0.950 . S
H220 C217 0.950 . S
C221 C212 1.390 . S
C221 H214 0.950 1_545 S
C221 C218 1.374 1_544 S
C222 C223 1.387 . S
C222 H226 0.950 . S
C222 C231 1.390 . S
C223 C222 1.387 . S
C223 C225 1.387 1_556 S
H224 C231 0.950 . S
C225 C223 1.387 1_554 S
C225 C227 1.390 . S
C225 H229 0.950 . S
H226 C222 0.950 . S
C227 C225 1.390 . S
C227 C228 1.387 1_554 S
C227 H230 0.950 . S
C228 C227 1.387 1_556 S
C228 C231 1.387 . S
H229 C225 0.950 . S
H230 C227 0.950 . S
C231 C222 1.390 . S
C231 H224 0.950 . S
C231 C228 1.387 . S
C232 C233 1.376 1_654 S
C232 H236 0.957 . S
C232 C241 1.390 . S
C233 C232 1.376 1_456 S
C233 C235 1.376 1_455 S
H234 C241 0.950 . S
C235 C233 1.376 1_655 S
C235 C237 1.390 . S
C235 H239 0.950 . S
H236 C232 0.957 . S
C237 C235 1.390 . S
C237 C238 1.387 . S
C237 H240 0.950 . S
C238 C237 1.387 . S
C238 C241 1.387 1_556 S
H239 C235 0.950 . S
H240 C237 0.950 . S
C241 C232 1.390 . S
C241 H234 0.950 . S
C241 C238 1.387 1_554 S
C242 C243 1.387 1_554 S
C242 H246 0.950 . S
C242 C251 1.390 . S
C243 C242 1.387 1_556 S
C243 C245 1.387 . S
H244 C251 0.950 1_545 S
C245 C243 1.387 . S
C245 C247 1.390 . S
C245 H249 0.950 . S
H246 C242 0.950 . S
C247 C245 1.390 . S
C247 C248 1.371 1_565 S
C247 H250 0.950 . S
C248 C247 1.371 1_545 S
C248 C251 1.376 1_546 S
H249 C245 0.950 . S
H250 C247 0.950 . S
C251 C242 1.390 . S
C251 H244 0.950 1_565 S
C251 C248 1.376 1_564 S
C252 C253 1.387 1_556 S
C252 H256 0.950 . S
C252 C261 1.390 . S
C253 C252 1.387 1_554 S
C253 C255 1.387 . S
H254 C261 0.950 . S
C255 C253 1.387 . S
C255 C257 1.390 . S
C255 H259 0.950 . S
H256 C252 0.950 . S
C257 C255 1.390 . S
C257 C258 1.387 . S
C257 H260 0.950 . S
C258 C257 1.387 . S
C258 C261 1.387 1_554 S
H259 C255 0.950 . S
H260 C257 0.950 . S
C261 C252 1.390 . S
C261 H254 0.950 . S
C261 C258 1.387 1_556 S
C262 C263 1.387 1_556 S
C262 H266 0.950 . S
C262 C271 1.390 . S
C263 C262 1.387 1_554 S
C263 C265 1.387 . S
H264 C271 0.950 . S
C265 C263 1.387 . S
C265 C267 1.390 . S
C265 H269 0.950 . S
H266 C262 0.950 . S
C267 C265 1.390 . S
C267 C268 1.387 . S
C267 H270 0.950 . S
C268 C267 1.387 . S
C268 C271 1.387 1_554 S
H269 C265 0.950 . S
H270 C267 0.950 . S
C271 C262 1.390 . S
C271 H264 0.950 . S
C271 C268 1.387 1_556 S
C272 C273 1.387 1_556 S
C272 H276 0.950 . S
C272 C281 1.390 . S
C273 C272 1.387 1_554 S
C273 C275 1.387 . S
H274 C281 0.950 . S
C275 C273 1.387 . S
C275 C277 1.390 . S
C275 H279 0.950 . S
H276 C272 0.950 . S
C277 C275 1.390 . S
C277 C278 1.387 . S
C277 H280 0.950 . S
C278 C277 1.387 . S
C278 C281 1.387 1_554 S
H279 C275 0.950 . S
H280 C277 0.950 . S
C281 C272 1.390 . S
C281 H274 0.950 . S
C281 C278 1.387 1_556 S
C282 C283 1.387 . S
C282 H286 0.950 . S
C282 C291 1.390 . S
C283 C282 1.387 . S
C283 C285 1.387 1_554 S
H284 C291 0.950 . S
C285 C283 1.387 1_556 S
C285 C287 1.390 . S
C285 H289 0.950 . S
H286 C282 0.950 . S
C287 C285 1.390 . S
C287 C288 1.387 1_556 S
C287 H290 0.950 . S
C288 C287 1.387 1_554 S
C288 C291 1.387 . S
H289 C285 0.950 . S
H290 C287 0.950 . S
C291 C282 1.390 . S
C291 H284 0.950 . S
C291 C288 1.387 . S
C292 C293 1.387 . S
C292 H296 0.950 . S
C292 C301 1.390 . S
C293 C292 1.387 . S
C293 C295 1.387 1_554 S
H294 C301 0.950 . S
C295 C293 1.387 1_556 S
C295 C297 1.390 . S
C295 H299 0.950 . S
H296 C292 0.950 . S
C297 C295 1.390 . S
C297 C298 1.387 1_556 S
C297 H300 0.950 . S
C298 C297 1.387 1_554 S
C298 C301 1.387 . S
H299 C295 0.950 . S
H300 C297 0.950 . S
C301 C292 1.390 . S
C301 H294 0.950 . S
C301 C298 1.387 . S
C302 C303 1.387 1_556 S
C302 H306 0.950 . S
C302 C311 1.390 . S
C303 C302 1.387 1_554 S
C303 C305 1.387 . S
H304 C311 0.950 . S
C305 C303 1.387 . S
C305 C307 1.390 . S
C305 H309 0.950 . S
H306 C302 0.950 . S
C307 C305 1.390 . S
C307 C308 1.387 . S
C307 H310 0.950 . S
C308 C307 1.387 . S
C308 C311 1.387 1_554 S
H309 C305 0.950 . S
H310 C307 0.950 . S
C311 C302 1.390 . S
C311 H304 0.950 . S
C311 C308 1.387 1_556 S
C312 C313 1.387 . S
C312 H316 0.950 . S
C312 C321 1.390 . S
C313 C312 1.387 . S
C313 C315 1.387 . S
H314 C321 0.950 . S
C315 C313 1.387 . S
C315 C317 1.390 . S
C315 H319 0.950 . S
H316 C312 0.950 . S
C317 C315 1.390 . S
C317 C318 1.387 . S
C317 H320 0.950 . S
C318 C317 1.387 . S
C318 C321 1.387 . S
H319 C315 0.950 . S
H320 C317 0.950 . S
C321 C312 1.390 . S
C321 H314 0.950 . S
C321 C318 1.387 . S
C322 C323 1.387 . S
C322 H326 0.950 . S
C322 C331 1.390 . S
C323 C322 1.387 . S
C323 C325 1.387 . S
H324 C331 0.950 . S
C325 C323 1.387 . S
C325 C327 1.390 . S
C325 H329 0.950 . S
H326 C322 0.950 . S
C327 C325 1.390 . S
C327 C328 1.387 . S
C327 H330 0.950 . S
C328 C327 1.387 . S
C328 C331 1.387 . S
H329 C325 0.950 . S
H330 C327 0.950 . S
C331 C322 1.390 . S
C331 H324 0.950 . S
C331 C328 1.387 . S
C332 C333 1.387 . S
C332 H336 0.950 . S
C332 C341 1.390 . S
C333 C332 1.387 . S
C333 C335 1.387 . S
H334 C341 0.950 . S
C335 C333 1.387 . S
C335 C337 1.390 . S
C335 H339 0.950 . S
H336 C332 0.950 . S
C337 C335 1.390 . S
C337 C338 1.387 . S
C337 H340 0.950 . S
C338 C337 1.387 . S
C338 C341 1.387 . S
H339 C335 0.950 . S
H340 C337 0.950 . S
C341 C332 1.390 . S
C341 H334 0.950 . S
C341 C338 1.387 . S
C342 C343 1.387 . S
C342 H346 0.950 . S
C342 C351 1.390 . S
C343 C342 1.387 . S
C343 C345 1.387 . S
H344 C351 0.950 . S
C345 C343 1.387 . S
C345 C347 1.390 . S
C345 H349 0.950 . S
H346 C342 0.950 . S
C347 C345 1.390 . S
C347 C348 1.387 . S
C347 H350 0.950 . S
C348 C347 1.387 . S
C348 C351 1.387 . S
H349 C345 0.950 . S
H350 C347 0.950 . S
C351 C342 1.390 . S
C351 H344 0.950 . S
C351 C348 1.387 . S
C352 C353 1.387 . S
C352 H356 0.950 . S
C352 C361 1.390 . S
C353 C352 1.387 . S
C353 C355 1.387 . S
H354 C361 0.950 . S
C355 C353 1.387 . S
C355 C357 1.390 . S
C355 H359 0.950 . S
H356 C352 0.950 . S
C357 C355 1.390 . S
C357 C358 1.387 . S
C357 H360 0.950 . S
C358 C357 1.387 . S
C358 C361 1.387 . S
H359 C355 0.950 . S
H360 C357 0.950 . S
C361 C352 1.390 . S
C361 H354 0.950 . S
C361 C358 1.387 . S
C362 C363 1.387 . S
C362 H366 0.950 . S
C362 C371 1.390 . S
C363 C362 1.387 . S
C363 C365 1.387 . S
H364 C371 0.950 . S
C365 C363 1.387 . S
C365 C367 1.390 . S
C365 H369 0.950 . S
H366 C362 0.950 . S
C367 C365 1.390 . S
C367 C368 1.387 . S
C367 H370 0.950 . S
C368 C367 1.387 . S
C368 C371 1.387 . S
H369 C365 0.950 . S
H370 C367 0.950 . S
C371 C362 1.390 . S
C371 H364 0.950 . S
C371 C368 1.387 . S
C193 C189 1.528 1_556 S
C198 N13 1.373 . S
C203 C29 1.527 1_556 S
C208 N45 1.402 . S
C213 C61 1.528 1_556 S
C218 N77 1.396 . S
C223 N109 1.375 . S
C228 C93 1.528 1_556 S
C233 N141 1.400 . S
C238 C125 1.528 1_556 S
C243 C157 1.528 1_556 S
C248 N173 1.395 . S
C253 C130 1.561 . S
C258 N18 1.560 1_554 S
C263 C162 1.561 . S
C268 N50 1.561 1_554 S
C273 N82 1.560 1_554 S
C278 C2 1.561 . S
C283 N114 1.560 1_554 S
C288 C34 1.561 . S
C293 N146 1.560 1_554 S
C298 C66 1.561 . S
C303 C98 1.561 . S
C308 N178 1.560 1_554 S
C313 C6 1.525 . S
C318 C4 1.513 . S
C323 C38 1.523 . S
C328 C36 1.511 . S
C333 C70 1.525 . S
C338 C68 1.513 . S
C343 C102 1.525 . S
C348 C100 1.512 . S
C353 C132 1.510 . S
C358 C134 1.523 . S
C363 C166 1.525 . S
C368 C164 1.513 . S
