# Generated by pormake.
# Topology xff, (7)-cn, num edge types: 1
# Building blocks:
#     Node 0, Type 0, BuildingBlock: NUHQUE_clean_sbu_2, # of connection points: 7
#     Node 1, Type 0, BuildingBlock: NUHQUE_clean_sbu_2, # of connection points: 7
#     Node 2, Type 0, BuildingBlock: NUHQUE_clean_sbu_2, # of connection points: 7
#     Node 3, Type 0, BuildingBlock: NUHQUE_clean_sbu_2, # of connection points: 7
#     Node 4, Type 0, BuildingBlock: NUHQUE_clean_sbu_2, # of connection points: 7
#     Node 5, Type 0, BuildingBlock: NUHQUE_clean_sbu_2, # of connection points: 7
#     Node 6, Type 0, BuildingBlock: NUHQUE_clean_sbu_2, # of connection points: 7
#     Node 7, Type 0, BuildingBlock: NUHQUE_clean_sbu_2, # of connection points: 7
#     Node 8, Type 0, BuildingBlock: NUHQUE_clean_sbu_2, # of connection points: 7
#     Node 9, Type 0, BuildingBlock: NUHQUE_clean_sbu_2, # of connection points: 7
#     Node 10, Type 0, BuildingBlock: NUHQUE_clean_sbu_2, # of connection points: 7
#     Node 11, Type 0, BuildingBlock: NUHQUE_clean_sbu_2, # of connection points: 7
#     Node 12, Type 0, BuildingBlock: NUHQUE_clean_sbu_2, # of connection points: 7
#     Node 13, Type 0, BuildingBlock: NUHQUE_clean_sbu_2, # of connection points: 7
#     Node 14, Type 0, BuildingBlock: NUHQUE_clean_sbu_2, # of connection points: 7
#     Node 15, Type 0, BuildingBlock: NUHQUE_clean_sbu_2, # of connection points: 7
#     Edge 16, Type (0, 0), None
#     Edge 17, Type (0, 0), None
#     Edge 18, Type (0, 0), None
#     Edge 19, Type (0, 0), None
#     Edge 20, Type (0, 0), None
#     Edge 21, Type (0, 0), None
#     Edge 22, Type (0, 0), None
#     Edge 23, Type (0, 0), None
#     Edge 24, Type (0, 0), None
#     Edge 25, Type (0, 0), None
#     Edge 26, Type (0, 0), None
#     Edge 27, Type (0, 0), None
#     Edge 28, Type (0, 0), None
#     Edge 29, Type (0, 0), None
#     Edge 30, Type (0, 0), None
#     Edge 31, Type (0, 0), None
#     Edge 32, Type (0, 0), None
#     Edge 33, Type (0, 0), None
#     Edge 34, Type (0, 0), None
#     Edge 35, Type (0, 0), None
#     Edge 36, Type (0, 0), None
#     Edge 37, Type (0, 0), None
#     Edge 38, Type (0, 0), None
#     Edge 39, Type (0, 0), None
#     Edge 40, Type (0, 0), None
#     Edge 41, Type (0, 0), None
#     Edge 42, Type (0, 0), None
#     Edge 43, Type (0, 0), None
#     Edge 44, Type (0, 0), None
#     Edge 45, Type (0, 0), None
#     Edge 46, Type (0, 0), None
#     Edge 47, Type (0, 0), None
#     Edge 48, Type (0, 0), None
#     Edge 49, Type (0, 0), None
#     Edge 50, Type (0, 0), None
#     Edge 51, Type (0, 0), None
#     Edge 52, Type (0, 0), None
#     Edge 53, Type (0, 0), None
#     Edge 54, Type (0, 0), None
#     Edge 55, Type (0, 0), None
#     Edge 56, Type (0, 0), None
#     Edge 57, Type (0, 0), None
#     Edge 58, Type (0, 0), None
#     Edge 59, Type (0, 0), None
#     Edge 60, Type (0, 0), None
#     Edge 61, Type (0, 0), None
#     Edge 62, Type (0, 0), None
#     Edge 63, Type (0, 0), None
#     Edge 64, Type (0, 0), None
#     Edge 65, Type (0, 0), None
#     Edge 66, Type (0, 0), None
#     Edge 67, Type (0, 0), None
#     Edge 68, Type (0, 0), None
#     Edge 69, Type (0, 0), None
#     Edge 70, Type (0, 0), None
#     Edge 71, Type (0, 0), None
# Relax obj value: 0.172
# Max RMSD: 0.255
# Mean RMSD: 0.255
data_MOF--net-xff--node1-NUHQUE_clean_sbu_2--edge1-none
_symmetry_space_group_name_H-M    P1
_symmetry_Int_Tables_number       1
_symmetry_cell_setting            triclinic
loop_
_symmetry_equiv_pos_as_xyz
'x, y, z'
_cell_length_a     17.201301
_cell_length_b     17.20111
_cell_length_c     37.320988
_cell_angle_alpha  90.0
_cell_angle_beta   90.0
_cell_angle_gamma 89.999935
loop_
_atom_site_label
_atom_site_type_symbol
_atom_site_fract_x
_atom_site_fract_y
_atom_site_fract_z
_atom_type_partial_charge
O0 O 0.38013 0.33622 0.09836 0.0
Tb1 Tb 0.35792 0.34947 0.15521 0.0
Eu2 Eu 0.43352 0.1687 0.1305 0.0
C3 C 0.40751 0.38437 0.07376 0.0
O4 O 0.41875 0.3536 0.04192 0.0
C5 C 0.53694 0.31332 0.16678 0.0
O6 O 0.38208 1.073 0.16652 0.0
C7 C 0.48204 0.12624 0.06767 0.0
C8 C 0.39601 1.06983 0.20132 0.0
O9 O 0.44905 0.1164 0.21475 0.0
C10 C 0.27041 0.20431 0.15141 0.0
C11 C 0.45034 0.08955 1.0346 0.0
C12 C 0.41417 0.13388 1.00756 0.0
C13 C 0.38428 0.09842 0.97641 0.0
C14 C 0.39163 1.01661 0.97274 0.0
C15 C 0.42028 0.97055 1.00117 0.0
C16 C 0.45385 1.00878 1.03071 0.0
O17 O 0.48068 0.36592 0.16638 0.0
O18 O 0.52664 0.23816 0.16009 0.0
O19 O 0.3157 0.44226 0.18966 0.0
O20 O 0.25597 0.41758 0.14049 0.0
C21 C 0.25608 0.45925 0.16953 0.0
O22 O 0.30902 0.1975 0.12172 0.0
O23 O 0.29979 0.24853 0.1763 0.0
O24 O 0.48898 0.08213 0.09651 0.0
O25 O 0.45795 0.1971 0.07496 0.0
H26 H 0.40851 0.19623 1.01081 0.0
H27 H 0.37267 0.98899 0.94877 0.0
H28 H 0.48034 0.97496 0.05195 0.0
O29 O 0.56892 0.63014 0.34836 0.0
Tb30 Tb 0.55567 0.60792 0.40521 0.0
Eu31 Eu 0.73643 0.68352 0.38049 0.0
C32 C 0.52077 0.65752 0.32376 0.0
O33 O 0.55154 0.66877 0.29191 0.0
C34 C 0.59182 0.78694 0.41678 0.0
O35 O 0.83214 0.63208 0.41651 0.0
C36 C 0.7789 0.73203 0.31767 0.0
C37 C 0.83533 0.64602 0.45131 0.0
O38 O 0.78878 0.69908 0.46474 0.0
C39 C 0.70082 0.52041 0.4014 0.0
C40 C 0.81559 0.70033 0.28459 0.0
C41 C 0.77127 0.66415 0.25755 0.0
C42 C 0.80673 0.63426 0.2264 0.0
C43 C 0.88854 0.6416 0.22274 0.0
C44 C 0.9346 0.67026 0.25116 0.0
C45 C 0.89636 0.70384 0.2807 0.0
O46 O 0.53922 0.73068 0.41638 0.0
O47 O 0.66698 0.77664 0.41008 0.0
O48 O 0.46288 0.5657 0.43966 0.0
O49 O 0.48755 0.50597 0.39049 0.0
C50 C 0.44589 0.50607 0.41953 0.0
O51 O 0.70763 0.55901 0.37172 0.0
O52 O 0.65661 0.54979 0.42629 0.0
O53 O 0.82301 0.73897 0.3465 0.0
O54 O 0.70804 0.70794 0.32495 0.0
H55 H 0.70892 0.6585 0.26081 0.0
H56 H 0.91616 0.62263 0.19877 0.0
H57 H 0.93018 0.73033 0.30194 0.0
O58 O 0.27501 0.81894 0.59836 0.0
Tb59 Tb 0.29722 0.80569 0.65521 0.0
Eu60 Eu 0.22162 0.98645 0.6305 0.0
C61 C 0.24764 0.77079 0.57376 0.0
O62 O 0.23639 0.80156 0.54192 0.0
C63 C 0.11821 0.84184 0.66678 0.0
O64 O 0.27306 0.08216 0.66652 0.0
C65 C 0.17311 1.02892 0.56767 0.0
C66 C 0.25914 0.08533 0.70132 0.0
O67 O 0.2061 1.03876 0.71475 0.0
C68 C 0.38474 0.95085 0.65141 0.0
C69 C 0.20481 1.06561 0.5346 0.0
C70 C 0.24098 1.02128 0.50756 0.0
C71 C 0.27087 1.05674 0.47641 0.0
C72 C 0.26352 0.13855 0.47274 0.0
C73 C 0.23486 0.18461 0.50117 0.0
C74 C 0.2013 0.14638 0.53071 0.0
O75 O 0.17447 0.78924 0.66638 0.0
O76 O 0.1285 0.917 0.66009 0.0
O77 O 0.33944 0.7129 0.68966 0.0
O78 O 0.39917 0.73758 0.64049 0.0
C79 C 0.39907 0.69591 0.66953 0.0
O80 O 0.34613 0.95766 0.62172 0.0
O81 O 0.35536 0.90663 0.6763 0.0
O82 O 0.16617 1.07303 0.59651 0.0
O83 O 0.19719 0.95805 0.57496 0.0
H84 H 0.24663 0.95893 0.51081 0.0
H85 H 0.28248 0.16617 0.44877 0.0
H86 H 0.17481 0.18019 0.55195 0.0
O87 O 0.08623 0.52502 0.84836 0.0
Tb88 Tb 0.09948 0.54724 0.90521 0.0
Eu89 Eu 0.91871 0.47164 0.88049 0.0
C90 C 0.13437 0.49764 0.82376 0.0
O91 O 0.10361 0.48638 0.79191 0.0
C92 C 1.06332 0.36822 0.91678 0.0
O93 O 0.823 0.52308 0.91651 0.0
C94 C 0.87624 0.42313 0.81767 0.0
C95 C 0.81982 0.50914 0.95131 0.0
O96 O 0.86637 0.45608 0.96474 0.0
C97 C 0.95432 0.63475 0.9014 0.0
C98 C 0.83955 0.45483 0.78459 0.0
C99 C 0.88388 0.491 0.75755 0.0
C100 C 0.84842 0.5209 0.7264 0.0
C101 C 0.76661 0.51355 0.72274 0.0
C102 C 0.72055 0.48489 0.75116 0.0
C103 C 0.75878 0.45132 0.7807 0.0
O104 O 0.11593 0.42448 0.91638 0.0
O105 O 0.98817 0.37852 0.91008 0.0
O106 O 0.19227 0.58946 0.93966 0.0
O107 O 0.16759 0.64919 0.89049 0.0
C108 C 0.20926 0.64909 0.91953 0.0
O109 O 0.94752 0.59614 0.87172 0.0
O110 O 0.99854 0.60537 0.92629 0.0
O111 O 0.83214 0.41619 0.8465 0.0
O112 O 0.94711 0.44721 0.82495 0.0
H113 H 0.94623 0.49666 0.76081 0.0
H114 H 0.73898 0.53253 0.69877 0.0
H115 H 0.72497 0.42483 0.80194 0.0
O116 O 0.77499 0.81893 0.9803 0.0
Tb117 Tb 0.79722 0.80568 0.92345 0.0
Eu118 Eu 0.72163 0.98645 0.94817 0.0
C119 C 0.74762 0.77079 1.00491 0.0
O120 O 0.73636 0.80156 1.03675 0.0
C121 C 0.61821 0.84184 0.91189 0.0
O122 O 0.77307 0.08216 0.91215 0.0
C123 C 0.67312 1.02892 1.011 0.0
C124 C 0.75914 0.08534 0.87735 0.0
O125 O 0.70609 1.03878 0.86392 0.0
C126 C 0.88473 0.95084 0.92726 0.0
C127 C 0.70482 1.0656 0.04407 0.0
C128 C 0.74099 1.02128 0.07111 0.0
C129 C 0.77088 1.05674 0.10226 0.0
C130 C 0.76354 0.13855 0.10592 0.0
C131 C 0.73488 0.18461 0.0775 0.0
C132 C 0.70131 0.14638 0.04796 0.0
O133 O 0.67447 0.78923 0.91228 0.0
O134 O 0.6285 0.917 0.91858 0.0
O135 O 0.83945 0.71289 0.88901 0.0
O136 O 0.89916 0.73756 0.93818 0.0
C137 C 0.89905 0.69588 0.90915 0.0
O138 O 0.84613 0.95764 0.95695 0.0
O139 O 0.85536 0.90662 0.90237 0.0
O140 O 0.66618 1.07302 0.98216 0.0
O141 O 0.6972 0.95805 1.00371 0.0
H142 H 0.74664 0.95893 0.06786 0.0
H143 H 0.78251 0.16617 0.1299 0.0
H144 H 0.67482 0.18019 1.02672 0.0
O145 O 0.58622 0.52503 0.73031 0.0
Tb146 Tb 0.59946 0.54724 0.67346 0.0
Eu147 Eu 0.4187 0.47162 0.69818 0.0
C148 C 0.63437 0.49769 0.75492 0.0
O149 O 0.6036 0.48642 0.78676 0.0
C150 C 0.56332 0.36822 0.66189 0.0
O151 O 0.32298 0.52304 0.66216 0.0
C152 C 0.37626 0.42311 0.76101 0.0
C153 C 0.31984 0.50914 0.62736 0.0
O154 O 0.36644 0.45612 0.61392 0.0
C155 C 0.45428 0.63472 0.67726 0.0
C156 C 0.33956 0.45481 0.79408 0.0
C157 C 0.38388 0.49099 0.82112 0.0
C158 C 0.34842 0.52088 0.85227 0.0
C159 C 0.26661 0.51354 0.85593 0.0
C160 C 0.22056 0.48488 0.82751 0.0
C161 C 0.25879 0.45129 0.79797 0.0
O162 O 0.61592 0.42448 0.66229 0.0
O163 O 0.48816 0.37851 0.66858 0.0
O164 O 0.69226 0.58946 0.63901 0.0
O165 O 0.66758 0.64919 0.68818 0.0
C166 C 0.70925 0.64909 0.65914 0.0
O167 O 0.44747 0.59612 0.70695 0.0
O168 O 0.49853 0.60539 0.65237 0.0
O169 O 0.33215 0.41615 0.73217 0.0
O170 O 0.44711 0.4472 0.75372 0.0
H171 H 0.44623 0.49664 0.81787 0.0
H172 H 0.23898 0.53251 0.8799 0.0
H173 H 0.22498 0.4248 0.77673 0.0
O174 O 0.88015 0.33622 0.4803 0.0
Tb175 Tb 0.85792 0.34948 0.42345 0.0
Eu176 Eu 0.93352 0.1687 0.44817 0.0
C177 C 0.90753 0.38437 0.50491 0.0
O178 O 0.91878 0.35359 0.53675 0.0
C179 C 1.03694 0.31332 0.41189 0.0
O180 O 0.88208 1.073 0.41215 0.0
C181 C 0.98203 0.12624 0.511 0.0
C182 C 0.89601 1.06982 0.37735 0.0
O183 O 0.94906 0.11638 0.36392 0.0
C184 C 0.77041 0.20432 0.42726 0.0
C185 C 0.95033 0.08955 0.54407 0.0
C186 C 0.91416 0.13388 0.57111 0.0
C187 C 0.88426 0.09842 0.60226 0.0
C188 C 0.89161 1.01661 0.60592 0.0
C189 C 0.92027 0.97055 0.5775 0.0
C190 C 0.95384 1.00878 0.54796 0.0
O191 O 0.98068 0.36593 0.41228 0.0
O192 O 1.02664 0.23816 0.41858 0.0
O193 O 0.8157 0.44227 0.38901 0.0
O194 O 0.75598 0.41759 0.43818 0.0
C195 C 0.75609 0.45928 0.40915 0.0
O196 O 0.80902 0.19751 0.45695 0.0
O197 O 0.79979 0.24854 0.40237 0.0
O198 O 0.98897 0.08213 0.48216 0.0
O199 O 0.95795 0.1971 0.50371 0.0
H200 H 0.9085 0.19623 0.56786 0.0
H201 H 0.87264 0.98899 0.6299 0.0
H202 H 0.98033 0.97497 0.52672 0.0
O203 O 1.06893 0.63013 0.23031 0.0
Tb204 Tb 1.05568 0.60792 0.17346 0.0
Eu205 Eu 0.23645 0.68354 0.19818 0.0
C206 C 1.02078 0.65747 0.25492 0.0
O207 O 1.05155 0.66874 0.28676 0.0
C208 C 0.09183 0.78694 0.16189 0.0
O209 O 0.33216 0.63212 0.16216 0.0
C210 C 0.27889 0.73205 0.26101 0.0
C211 C 0.3353 0.64602 0.12736 0.0
O212 O 0.28871 0.69903 0.11392 0.0
C213 C 0.20087 0.52044 0.17726 0.0
C214 C 0.31558 0.70035 0.29408 0.0
C215 C 0.27126 0.66417 0.32112 0.0
C216 C 0.30673 0.63428 0.35227 0.0
C217 C 0.38854 0.64162 0.35593 0.0
C218 C 0.43459 0.67028 0.32751 0.0
C219 C 0.39635 0.70386 0.29797 0.0
O220 O 1.03923 0.73067 0.16229 0.0
O221 O 0.16698 0.77665 0.16858 0.0
O222 O 0.96289 0.5657 0.13901 0.0
O223 O 0.98756 0.50597 0.18818 0.0
C224 C 0.9459 0.50607 0.15914 0.0
O225 O 0.20767 0.55903 0.20695 0.0
O226 O 0.15661 0.54977 0.15237 0.0
O227 O 0.323 0.73901 0.23217 0.0
O228 O 0.20803 0.70796 0.25372 0.0
H229 H 0.20891 0.65851 0.31787 0.0
H230 H 0.41616 0.62265 0.3799 0.0
H231 H 0.43017 0.73036 0.27673 0.0
O232 O 0.88013 0.83622 0.59836 0.0
Tb233 Tb 0.85792 0.84948 0.65521 0.0
Eu234 Eu 0.93355 0.6687 0.63049 0.0
C235 C 0.90748 0.88437 0.57375 0.0
O236 O 0.91874 0.8536 0.54191 0.0
C237 C 1.03693 0.81331 0.6668 0.0
O238 O 0.88213 0.57299 0.66651 0.0
C239 C 0.98205 0.62625 0.56766 0.0
C240 C 0.89601 0.56987 0.70131 0.0
O241 O 0.94901 0.61647 0.71476 0.0
C242 C 0.77044 0.70429 0.65141 0.0
C243 C 0.95035 0.58956 0.53459 0.0
C244 C 0.91417 0.63388 0.50755 0.0
C245 C 0.88428 0.59842 0.4764 0.0
C246 C 0.89163 0.51661 0.47274 0.0
C247 C 0.92028 0.47055 0.50116 0.0
C248 C 0.95386 0.50879 0.5307 0.0
O249 O 0.98068 0.86593 0.66638 0.0
O250 O 1.02665 0.73816 0.66008 0.0
O251 O 0.81571 0.94227 0.68966 0.0
O252 O 0.75597 0.91759 0.64049 0.0
C253 C 0.75608 0.95926 0.66953 0.0
O254 O 0.80904 0.69748 0.62172 0.0
O255 O 0.79978 0.74854 0.6763 0.0
O256 O 0.98901 0.58214 0.5965 0.0
O257 O 0.95796 0.69711 0.57495 0.0
H258 H 0.90852 0.69623 0.5108 0.0
H259 H 0.87267 0.48899 0.44876 0.0
H260 H 0.98035 0.47497 0.55194 0.0
O261 O 1.06893 0.13017 0.84837 0.0
Tb262 Tb 1.05567 0.10794 0.90521 0.0
Eu263 Eu 0.23645 0.18353 0.8805 0.0
C264 C 1.02079 0.15756 0.82376 0.0
O265 O 1.05156 0.16882 0.79192 0.0
C266 C 0.09185 0.28694 0.9168 0.0
O267 O 0.33215 0.13209 0.91652 0.0
C268 C 0.27892 0.23204 0.81767 0.0
C269 C 0.33532 0.14602 0.95132 0.0
O270 O 0.28876 0.19907 0.96475 0.0
C271 C 0.20083 1.02042 0.90141 0.0
C272 C 0.31561 0.20034 0.7846 0.0
C273 C 0.27128 0.16417 0.75756 0.0
C274 C 0.30674 0.13428 0.72641 0.0
C275 C 0.38855 0.14163 0.72274 0.0
C276 C 0.43461 0.17029 0.75116 0.0
C277 C 0.39638 0.20385 0.78071 0.0
O278 O 1.03922 0.2307 0.91638 0.0
O279 O 0.16699 0.27666 0.91009 0.0
O280 O 0.96287 1.06571 0.93966 0.0
O281 O 0.98755 1.006 0.89048 0.0
C282 C 0.94586 1.00611 0.91951 0.0
O283 O 0.20763 1.05903 0.87172 0.0
O284 O 0.1566 1.0498 0.9263 0.0
O285 O 0.32303 0.23898 0.84651 0.0
O286 O 0.20806 0.20797 0.82495 0.0
H287 H 0.20893 0.15852 0.76081 0.0
H288 H 0.41616 0.12268 0.69876 0.0
H289 H 0.43019 0.23034 0.80195 0.0
O290 O 0.77501 0.31894 0.09836 0.0
Tb291 Tb 0.79722 0.30568 0.15521 0.0
Eu292 Eu 0.7216 0.48646 0.13049 0.0
C293 C 0.74767 0.27079 0.07375 0.0
O294 O 0.7364 0.30156 0.04191 0.0
C295 C 0.61821 0.34185 0.1668 0.0
O296 O 0.77302 0.58217 0.16651 0.0
C297 C 0.67309 0.52891 0.06766 0.0
C298 C 0.75914 0.58529 0.20131 0.0
O299 O 0.70613 0.53869 0.21476 0.0
C300 C 0.8847 0.45087 0.15141 0.0
C301 C 0.7048 0.5656 1.03459 0.0
C302 C 0.74097 0.52128 1.00755 0.0
C303 C 0.77087 0.55674 0.9764 0.0
C304 C 0.76352 0.63855 0.97274 0.0
C305 C 0.73486 0.6846 1.00116 0.0
C306 C 0.70129 0.64637 1.0307 0.0
O307 O 0.67446 0.28923 0.16638 0.0
O308 O 0.62849 0.417 0.16008 0.0
O309 O 0.83944 0.21288 0.18966 0.0
O310 O 0.89917 0.23756 0.14049 0.0
C311 C 0.89907 0.19589 0.16953 0.0
O312 O 0.84611 0.45768 0.12172 0.0
O313 O 0.85537 0.40661 0.1763 0.0
O314 O 0.66614 0.57302 0.0965 0.0
O315 O 0.69718 0.45805 0.07495 0.0
H316 H 0.74662 0.45893 1.0108 0.0
H317 H 0.78248 0.66617 0.94876 0.0
H318 H 0.6748 0.68019 0.05194 0.0
O319 O 0.58622 1.02498 0.34837 0.0
Tb320 Tb 0.59948 1.04722 0.40521 0.0
Eu321 Eu 0.4187 0.97162 0.3805 0.0
C322 C 0.63436 0.9976 0.32376 0.0
O323 O 0.60358 0.98634 0.29192 0.0
C324 C 0.5633 0.86821 0.4168 0.0
O325 O 0.32299 1.02306 0.41652 0.0
C326 C 0.37622 0.92312 0.31767 0.0
C327 C 0.31983 1.00914 0.45132 0.0
O328 O 0.36638 0.95608 0.46475 0.0
C329 C 0.45432 0.13473 0.40141 0.0
C330 C 0.33954 0.95482 0.2846 0.0
C331 C 0.38386 0.99099 0.25756 0.0
C332 C 0.34841 1.02088 0.22641 0.0
C333 C 0.2666 1.01352 0.22274 0.0
C334 C 0.22053 0.98487 0.25116 0.0
C335 C 0.25877 0.95131 0.28071 0.0
O336 O 0.61592 0.92446 0.41638 0.0
O337 O 0.48815 0.8785 0.41009 0.0
O338 O 0.69227 0.08944 0.43966 0.0
O339 O 0.6676 0.14915 0.39048 0.0
C340 C 0.70928 0.14905 0.41951 0.0
O341 O 0.44751 0.09612 0.37172 0.0
O342 O 0.49854 0.10536 0.4263 0.0
O343 O 0.33212 0.91618 0.34651 0.0
O344 O 0.44709 0.94719 0.32495 0.0
H345 H 0.44621 0.99664 0.26081 0.0
H346 H 0.23898 1.03248 0.19876 0.0
H347 H 0.22495 0.92482 0.30195 0.0
O348 O 0.275 0.31894 0.4803 0.0
Tb349 Tb 0.29722 0.30567 0.42346 0.0
Eu350 Eu 0.2216 0.48645 0.44818 0.0
C351 C 0.24765 0.27079 0.50491 0.0
O352 O 0.23637 0.30157 0.53675 0.0
C353 C 0.11821 0.34184 0.41187 0.0
O354 O 0.27303 0.58217 0.41216 0.0
C355 C 0.1731 0.52891 0.51101 0.0
C356 C 0.25914 0.5853 0.37736 0.0
O357 O 0.20612 0.53871 0.36392 0.0
C358 C 0.3847 0.45086 0.42726 0.0
C359 C 0.20481 0.5656 0.54408 0.0
C360 C 0.24098 0.52127 0.57112 0.0
C361 C 0.27088 0.55674 0.60227 0.0
C362 C 0.26354 0.63855 0.60593 0.0
C363 C 0.23488 0.6846 0.57751 0.0
C364 C 0.2013 0.64637 0.54797 0.0
O365 O 0.17446 0.28922 0.41229 0.0
O366 O 0.12849 0.41699 0.41859 0.0
O367 O 0.33944 0.21287 0.38901 0.0
O368 O 0.39916 0.23755 0.43819 0.0
C369 C 0.39905 0.19586 0.40915 0.0
O370 O 0.34611 0.45767 0.45695 0.0
O371 O 0.35537 0.4066 0.40237 0.0
O372 O 0.16614 0.57301 0.48218 0.0
O373 O 0.19719 0.45805 0.50372 0.0
H374 H 0.24664 0.45892 0.56787 0.0
H375 H 0.28251 0.66617 0.62991 0.0
H376 H 0.1748 0.68018 0.52673 0.0
O377 O 0.08621 1.025 0.2303 0.0
Tb378 Tb 0.09947 1.04722 0.17346 0.0
Eu379 Eu 0.91869 0.9716 0.19817 0.0
C380 C 0.13435 0.99765 0.25491 0.0
O381 O 0.10357 0.98638 0.28675 0.0
C382 C 1.0633 0.86821 0.16186 0.0
O383 O 0.82298 1.02302 0.16215 0.0
C384 C 0.87623 0.92309 0.261 0.0
C385 C 0.81985 1.00914 0.12735 0.0
O386 O 0.86645 0.95613 0.11391 0.0
C387 C 0.95428 0.1347 0.17726 0.0
C388 C 0.83954 0.95479 0.29407 0.0
C389 C 0.88387 0.99097 0.32111 0.0
C390 C 0.84841 1.02086 0.35226 0.0
C391 C 0.7666 1.01351 0.35593 0.0
C392 C 0.72054 0.98485 0.32751 0.0
C393 C 0.75878 0.95128 0.29796 0.0
O394 O 0.11591 0.92446 0.16229 0.0
O395 O 0.98815 0.87849 0.16858 0.0
O396 O 0.19226 0.08944 0.13901 0.0
O397 O 0.16759 0.14916 0.18819 0.0
C398 C 0.20927 0.14905 0.15915 0.0
O399 O 0.94747 0.09611 0.20695 0.0
O400 O 0.99853 0.10537 0.15237 0.0
O401 O 0.83213 0.91614 0.23217 0.0
O402 O 0.94709 0.94718 0.25372 0.0
H403 H 0.94622 0.99662 0.31786 0.0
H404 H 0.73898 1.03246 0.37991 0.0
H405 H 0.72496 0.92478 0.27673 0.0
O406 O 0.38015 0.83622 0.9803 0.0
Tb407 Tb 0.35792 0.84949 0.92346 0.0
Eu408 Eu 0.43354 0.6687 0.94818 0.0
C409 C 0.4075 0.88437 1.00491 0.0
O410 O 0.41877 0.85359 1.03675 0.0
C411 C 0.53693 0.81331 0.91187 0.0
O412 O 0.38212 0.57299 0.91216 0.0
C413 C 0.48204 0.62625 1.01101 0.0
C414 C 0.39601 0.56986 0.87736 0.0
O415 O 0.44902 0.61645 0.86392 0.0
C416 C 0.27044 0.7043 0.92726 0.0
C417 C 0.45034 0.58956 0.04408 0.0
C418 C 0.41416 0.63388 0.07112 0.0
C419 C 0.38426 0.59842 0.10227 0.0
C420 C 0.39161 0.51661 0.10593 0.0
C421 C 0.42027 0.47056 0.07751 0.0
C422 C 0.45385 0.50879 0.04797 0.0
O423 O 0.48068 0.86593 0.91229 0.0
O424 O 0.52665 0.73817 0.91859 0.0
O425 O 0.3157 0.94229 0.88901 0.0
O426 O 0.25599 0.91761 0.93819 0.0
C427 C 0.25609 0.95929 0.90915 0.0
O428 O 0.30904 0.69749 0.95695 0.0
O429 O 0.29978 0.74856 0.90237 0.0
O430 O 0.489 0.58214 0.98218 0.0
O431 O 0.45795 0.69711 1.00372 0.0
H432 H 0.40851 0.69623 0.06787 0.0
H433 H 0.37264 0.48899 0.12991 0.0
H434 H 0.48034 0.47497 1.02673 0.0
O435 O 0.56894 0.13016 0.7303 0.0
Tb436 Tb 0.55568 0.10794 0.67346 0.0
Eu437 Eu 0.73646 0.18356 0.69817 0.0
C438 C 0.52079 0.1575 0.75491 0.0
O439 O 0.55157 0.16878 0.78675 0.0
C440 C 0.59185 0.28695 0.66186 0.0
O441 O 0.83217 0.13213 0.66215 0.0
C442 C 0.77891 0.23207 0.761 0.0
C443 C 0.8353 0.14602 0.62735 0.0
O444 O 0.7887 0.19903 0.61391 0.0
C445 C 0.70087 1.02045 0.67726 0.0
C446 C 0.8156 0.20037 0.79407 0.0
C447 C 0.77127 0.16419 0.82111 0.0
C448 C 0.80674 0.13429 0.85226 0.0
C449 C 0.88854 0.14165 0.85593 0.0
C450 C 0.9346 0.17031 0.82751 0.0
C451 C 0.89637 0.20388 0.79796 0.0
O452 O 0.53923 0.2307 0.66229 0.0
O453 O 0.667 0.27667 0.66858 0.0
O454 O 0.46288 1.06572 0.63901 0.0
O455 O 0.48756 1.006 0.68819 0.0
C456 C 0.44587 1.00611 0.65915 0.0
O457 O 0.70768 1.05905 0.70695 0.0
O458 O 0.65661 1.04978 0.65237 0.0
O459 O 0.82302 0.23902 0.73217 0.0
O460 O 0.70805 0.20798 0.75372 0.0
H461 H 0.70893 0.15853 0.81786 0.0
H462 H 0.91616 0.12269 0.87991 0.0
H463 H 0.93019 0.23037 0.77673 0.0
loop_
_geom_bond_atom_site_label_1
_geom_bond_atom_site_label_2
_geom_bond_distance
_geom_bond_site_symmetry_2
_ccdc_geom_bond_type
O0 Tb1 2.292 . S
O0 C3 1.255 . S
Tb1 O0 2.292 . S
Tb1 O17 2.326 . S
Tb1 O19 2.500 . S
Tb1 O20 2.473 . S
Tb1 O23 2.324 . S
Eu2 O6 2.292 . S
Eu2 C7 2.852 . S
Eu2 O18 2.324 . S
Eu2 O22 2.326 . S
Eu2 O24 2.500 . S
Eu2 O25 2.473 . S
C3 O0 1.255 . S
C3 O4 1.247 1_554 S
O4 C3 1.247 1_556 S
C5 O17 1.242 . S
C5 O18 1.258 . S
O6 Eu2 2.292 . S
O6 C8 1.255 . S
C7 Eu2 2.852 . S
C7 C11 1.502 . S
C7 O24 1.273 . S
C7 O25 1.257 . S
C8 O6 1.255 . S
C8 O9 1.247 . S
O9 C8 1.247 . S
C10 O22 1.242 . S
C10 O23 1.258 . S
C11 C7 1.502 . S
C11 C12 1.378 1_554 S
C11 C16 1.393 1_545 S
C12 C11 1.378 1_556 S
C12 C13 1.404 . S
C12 H26 0.929 . S
C13 C12 1.404 . S
C13 C14 1.389 1_545 S
C14 C13 1.389 1_565 S
C14 C15 1.399 . S
C14 H27 0.931 . S
C15 C14 1.399 . S
C15 C16 1.390 1_556 S
C16 C11 1.393 1_565 S
C16 C15 1.390 1_554 S
C16 H28 0.929 . S
O17 Tb1 2.326 . S
O17 C5 1.242 . S
O18 Eu2 2.324 . S
O18 C5 1.258 . S
O19 Tb1 2.500 . S
O19 C21 1.273 . S
O20 Tb1 2.473 . S
O20 C21 1.257 . S
C21 O19 1.273 . S
C21 O20 1.257 . S
O22 Eu2 2.326 . S
O22 C10 1.242 . S
O23 Tb1 2.324 . S
O23 C10 1.258 . S
O24 Eu2 2.500 . S
O24 C7 1.273 . S
O25 Eu2 2.473 . S
O25 C7 1.257 . S
H26 C12 0.929 . S
H27 C14 0.931 . S
H28 C16 0.929 . S
O29 Tb30 2.292 . S
O29 C32 1.255 . S
Tb30 O29 2.292 . S
Tb30 O46 2.326 . S
Tb30 O48 2.500 . S
Tb30 O49 2.473 . S
Tb30 O52 2.324 . S
Eu31 O35 2.292 . S
Eu31 C36 2.852 . S
Eu31 O47 2.324 . S
Eu31 O51 2.326 . S
Eu31 O53 2.500 . S
Eu31 O54 2.473 . S
C32 O29 1.255 . S
C32 O33 1.247 . S
O33 C32 1.247 . S
C34 O46 1.242 . S
C34 O47 1.258 . S
O35 Eu31 2.292 . S
O35 C37 1.255 . S
C36 Eu31 2.852 . S
C36 C40 1.503 . S
C36 O53 1.273 . S
C36 O54 1.257 . S
C37 O35 1.255 . S
C37 O38 1.247 . S
O38 C37 1.247 . S
C39 O51 1.242 . S
C39 O52 1.258 . S
C40 C36 1.503 . S
C40 C41 1.379 . S
C40 C45 1.392 . S
C41 C40 1.379 . S
C41 C42 1.404 . S
C41 H55 0.929 . S
C42 C41 1.404 . S
C42 C43 1.389 . S
C43 C42 1.389 . S
C43 C44 1.399 . S
C43 H56 0.931 . S
C44 C43 1.399 . S
C44 C45 1.390 . S
C45 C40 1.392 . S
C45 C44 1.390 . S
C45 H57 0.929 . S
O46 Tb30 2.326 . S
O46 C34 1.242 . S
O47 Eu31 2.324 . S
O47 C34 1.258 . S
O48 Tb30 2.500 . S
O48 C50 1.273 . S
O49 Tb30 2.473 . S
O49 C50 1.257 . S
C50 O48 1.273 . S
C50 O49 1.257 . S
O51 Eu31 2.326 . S
O51 C39 1.242 . S
O52 Tb30 2.324 . S
O52 C39 1.258 . S
O53 Eu31 2.500 . S
O53 C36 1.273 . S
O54 Eu31 2.473 . S
O54 C36 1.257 . S
H55 C41 0.929 . S
H56 C43 0.931 . S
H57 C45 0.929 . S
O58 Tb59 2.292 . S
O58 C61 1.255 . S
Tb59 O58 2.292 . S
Tb59 O75 2.326 . S
Tb59 O77 2.500 . S
Tb59 O78 2.473 . S
Tb59 O81 2.324 . S
Eu60 O64 2.292 . S
Eu60 C65 2.852 . S
Eu60 O76 2.324 . S
Eu60 O80 2.326 . S
Eu60 O82 2.500 . S
Eu60 O83 2.473 . S
C61 O58 1.255 . S
C61 O62 1.247 . S
O62 C61 1.247 . S
C63 O75 1.242 . S
C63 O76 1.258 . S
O64 Eu60 2.292 . S
O64 C66 1.255 . S
C65 Eu60 2.852 . S
C65 C69 1.502 . S
C65 O82 1.273 . S
C65 O83 1.257 . S
C66 O64 1.255 . S
C66 O67 1.247 . S
O67 C66 1.247 . S
C68 O80 1.242 . S
C68 O81 1.258 . S
C69 C65 1.502 . S
C69 C70 1.378 . S
C69 C74 1.393 1_565 S
C70 C69 1.378 . S
C70 C71 1.404 . S
C70 H84 0.929 . S
C71 C70 1.404 . S
C71 C72 1.389 1_565 S
C72 C71 1.389 1_545 S
C72 C73 1.399 . S
C72 H85 0.931 . S
C73 C72 1.399 . S
C73 C74 1.390 . S
C74 C69 1.393 1_545 S
C74 C73 1.390 . S
C74 H86 0.929 . S
O75 Tb59 2.326 . S
O75 C63 1.242 . S
O76 Eu60 2.324 . S
O76 C63 1.258 . S
O77 Tb59 2.500 . S
O77 C79 1.273 . S
O78 Tb59 2.473 . S
O78 C79 1.257 . S
C79 O77 1.273 . S
C79 O78 1.257 . S
O80 Eu60 2.326 . S
O80 C68 1.242 . S
O81 Tb59 2.324 . S
O81 C68 1.258 . S
O82 Eu60 2.500 . S
O82 C65 1.273 . S
O83 Eu60 2.473 . S
O83 C65 1.257 . S
H84 C70 0.929 . S
H85 C72 0.931 . S
H86 C74 0.929 . S
O87 Tb88 2.292 . S
O87 C90 1.255 . S
Tb88 O87 2.292 . S
Tb88 O104 2.326 . S
Tb88 O106 2.500 . S
Tb88 O107 2.473 . S
Tb88 O110 2.324 1_455 S
Eu89 O93 2.292 . S
Eu89 C94 2.852 . S
Eu89 O105 2.324 . S
Eu89 O109 2.326 . S
Eu89 O111 2.500 . S
Eu89 O112 2.473 . S
C90 O87 1.255 . S
C90 O91 1.247 . S
O91 C90 1.247 . S
C92 O104 1.242 . S
C92 O105 1.258 1_455 S
O93 Eu89 2.292 . S
O93 C95 1.255 . S
C94 Eu89 2.852 . S
C94 C98 1.503 . S
C94 O111 1.273 . S
C94 O112 1.257 . S
C95 O93 1.255 . S
C95 O96 1.247 . S
O96 C95 1.247 . S
C97 O109 1.242 . S
C97 O110 1.258 . S
C98 C94 1.503 . S
C98 C99 1.379 . S
C98 C103 1.392 . S
C99 C98 1.379 . S
C99 C100 1.404 . S
C99 H113 0.929 . S
C100 C99 1.404 . S
C100 C101 1.389 . S
C101 C100 1.389 . S
C101 C102 1.399 . S
C101 H114 0.931 . S
C102 C101 1.399 . S
C102 C103 1.390 . S
C103 C98 1.392 . S
C103 C102 1.390 . S
C103 H115 0.929 . S
O104 Tb88 2.326 . S
O104 C92 1.242 . S
O105 Eu89 2.324 . S
O105 C92 1.258 1_655 S
O106 Tb88 2.500 . S
O106 C108 1.273 . S
O107 Tb88 2.473 . S
O107 C108 1.257 . S
C108 O106 1.273 . S
C108 O107 1.257 . S
O109 Eu89 2.326 . S
O109 C97 1.242 . S
O110 Tb88 2.324 1_655 S
O110 C97 1.258 . S
O111 Eu89 2.500 . S
O111 C94 1.273 . S
O112 Eu89 2.473 . S
O112 C94 1.257 . S
H113 C99 0.929 . S
H114 C101 0.931 . S
H115 C103 0.929 . S
O116 Tb117 2.292 . S
O116 C119 1.255 . S
Tb117 O116 2.292 . S
Tb117 O133 2.326 . S
Tb117 O135 2.500 . S
Tb117 O136 2.473 . S
Tb117 O139 2.324 . S
Eu118 O122 2.292 . S
Eu118 C123 2.852 . S
Eu118 O134 2.324 . S
Eu118 O138 2.326 . S
Eu118 O140 2.500 . S
Eu118 O141 2.473 . S
C119 O116 1.255 . S
C119 O120 1.247 1_556 S
O120 C119 1.247 1_554 S
C121 O133 1.242 . S
C121 O134 1.258 . S
O122 Eu118 2.292 . S
O122 C124 1.255 . S
C123 Eu118 2.852 . S
C123 C127 1.502 . S
C123 O140 1.273 . S
C123 O141 1.257 . S
C124 O122 1.255 . S
C124 O125 1.247 . S
O125 C124 1.247 . S
C126 O138 1.242 . S
C126 O139 1.258 . S
C127 C123 1.502 . S
C127 C128 1.378 1_556 S
C127 C132 1.393 1_565 S
C128 C127 1.378 1_554 S
C128 C129 1.404 . S
C128 H142 0.929 . S
C129 C128 1.404 . S
C129 C130 1.389 1_565 S
C130 C129 1.389 1_545 S
C130 C131 1.399 . S
C130 H143 0.931 . S
C131 C130 1.399 . S
C131 C132 1.390 1_554 S
C132 C127 1.393 1_545 S
C132 C131 1.390 1_556 S
C132 H144 0.929 . S
O133 Tb117 2.326 . S
O133 C121 1.242 . S
O134 Eu118 2.324 . S
O134 C121 1.258 . S
O135 Tb117 2.500 . S
O135 C137 1.273 . S
O136 Tb117 2.473 . S
O136 C137 1.257 . S
C137 O135 1.273 . S
C137 O136 1.257 . S
O138 Eu118 2.326 . S
O138 C126 1.242 . S
O139 Tb117 2.324 . S
O139 C126 1.258 . S
O140 Eu118 2.500 . S
O140 C123 1.273 . S
O141 Eu118 2.473 . S
O141 C123 1.257 . S
H142 C128 0.929 . S
H143 C130 0.931 . S
H144 C132 0.929 . S
O145 Tb146 2.292 . S
O145 C148 1.255 . S
Tb146 O145 2.292 . S
Tb146 O162 2.326 . S
Tb146 O164 2.500 . S
Tb146 O165 2.473 . S
Tb146 O168 2.324 . S
Eu147 O151 2.292 . S
Eu147 C152 2.852 . S
Eu147 O163 2.324 . S
Eu147 O167 2.326 . S
Eu147 O169 2.500 . S
Eu147 O170 2.473 . S
C148 O145 1.255 . S
C148 O149 1.247 . S
O149 C148 1.247 . S
C150 O162 1.242 . S
C150 O163 1.258 . S
O151 Eu147 2.292 . S
O151 C153 1.255 . S
C152 Eu147 2.852 . S
C152 C156 1.503 . S
C152 O169 1.273 . S
C152 O170 1.257 . S
C153 O151 1.255 . S
C153 O154 1.247 . S
O154 C153 1.247 . S
C155 O167 1.242 . S
C155 O168 1.258 . S
C156 C152 1.503 . S
C156 C157 1.379 . S
C156 C161 1.392 . S
C157 C156 1.379 . S
C157 C158 1.404 . S
C157 H171 0.929 . S
C158 C157 1.404 . S
C158 C159 1.389 . S
C159 C158 1.389 . S
C159 C160 1.399 . S
C159 H172 0.931 . S
C160 C159 1.399 . S
C160 C161 1.390 . S
C161 C156 1.392 . S
C161 C160 1.390 . S
C161 H173 0.929 . S
O162 Tb146 2.326 . S
O162 C150 1.242 . S
O163 Eu147 2.324 . S
O163 C150 1.258 . S
O164 Tb146 2.500 . S
O164 C166 1.273 . S
O165 Tb146 2.473 . S
O165 C166 1.257 . S
C166 O164 1.273 . S
C166 O165 1.257 . S
O167 Eu147 2.326 . S
O167 C155 1.242 . S
O168 Tb146 2.324 . S
O168 C155 1.258 . S
O169 Eu147 2.500 . S
O169 C152 1.273 . S
O170 Eu147 2.473 . S
O170 C152 1.257 . S
H171 C157 0.929 . S
H172 C159 0.931 . S
H173 C161 0.929 . S
O174 Tb175 2.292 . S
O174 C177 1.255 . S
Tb175 O174 2.292 . S
Tb175 O191 2.326 . S
Tb175 O193 2.500 . S
Tb175 O194 2.473 . S
Tb175 O197 2.324 . S
Eu176 O180 2.292 . S
Eu176 C181 2.852 . S
Eu176 O192 2.324 . S
Eu176 O196 2.326 . S
Eu176 O198 2.500 . S
Eu176 O199 2.473 . S
C177 O174 1.255 . S
C177 O178 1.247 . S
O178 C177 1.247 . S
C179 O191 1.242 . S
C179 O192 1.258 . S
O180 Eu176 2.292 . S
O180 C182 1.255 . S
C181 Eu176 2.852 . S
C181 C185 1.502 . S
C181 O198 1.273 . S
C181 O199 1.257 . S
C182 O180 1.255 . S
C182 O183 1.247 . S
O183 C182 1.247 . S
C184 O196 1.242 . S
C184 O197 1.258 . S
C185 C181 1.502 . S
C185 C186 1.378 . S
C185 C190 1.393 1_545 S
C186 C185 1.378 . S
C186 C187 1.404 . S
C186 H200 0.929 . S
C187 C186 1.404 . S
C187 C188 1.389 1_545 S
C188 C187 1.389 1_565 S
C188 C189 1.399 . S
C188 H201 0.931 . S
C189 C188 1.399 . S
C189 C190 1.390 . S
C190 C185 1.393 1_565 S
C190 C189 1.390 . S
C190 H202 0.929 . S
O191 Tb175 2.326 . S
O191 C179 1.242 . S
O192 Eu176 2.324 . S
O192 C179 1.258 . S
O193 Tb175 2.500 . S
O193 C195 1.273 . S
O194 Tb175 2.473 . S
O194 C195 1.257 . S
C195 O193 1.273 . S
C195 O194 1.257 . S
O196 Eu176 2.326 . S
O196 C184 1.242 . S
O197 Tb175 2.324 . S
O197 C184 1.258 . S
O198 Eu176 2.500 . S
O198 C181 1.273 . S
O199 Eu176 2.473 . S
O199 C181 1.257 . S
H200 C186 0.929 . S
H201 C188 0.931 . S
H202 C190 0.929 . S
O203 Tb204 2.292 . S
O203 C206 1.255 . S
Tb204 O203 2.292 . S
Tb204 O220 2.326 . S
Tb204 O222 2.500 . S
Tb204 O223 2.473 . S
Tb204 O226 2.324 1_655 S
Eu205 O209 2.292 . S
Eu205 C210 2.852 . S
Eu205 O221 2.324 . S
Eu205 O225 2.326 . S
Eu205 O227 2.500 . S
Eu205 O228 2.473 . S
C206 O203 1.255 . S
C206 O207 1.247 . S
O207 C206 1.247 . S
C208 O220 1.242 . S
C208 O221 1.258 1_655 S
O209 Eu205 2.292 . S
O209 C211 1.255 . S
C210 Eu205 2.852 . S
C210 C214 1.503 . S
C210 O227 1.273 . S
C210 O228 1.257 . S
C211 O209 1.255 . S
C211 O212 1.247 . S
O212 C211 1.247 . S
C213 O225 1.242 . S
C213 O226 1.258 . S
C214 C210 1.503 . S
C214 C215 1.379 . S
C214 C219 1.392 . S
C215 C214 1.379 . S
C215 C216 1.404 . S
C215 H229 0.929 . S
C216 C215 1.404 . S
C216 C217 1.389 . S
C217 C216 1.389 . S
C217 C218 1.399 . S
C217 H230 0.931 . S
C218 C217 1.399 . S
C218 C219 1.390 . S
C219 C214 1.392 . S
C219 C218 1.390 . S
C219 H231 0.929 . S
O220 Tb204 2.326 . S
O220 C208 1.242 . S
O221 Eu205 2.324 . S
O221 C208 1.258 1_455 S
O222 Tb204 2.500 . S
O222 C224 1.273 . S
O223 Tb204 2.473 . S
O223 C224 1.257 . S
C224 O222 1.273 . S
C224 O223 1.257 . S
O225 Eu205 2.326 . S
O225 C213 1.242 . S
O226 Tb204 2.324 1_455 S
O226 C213 1.258 . S
O227 Eu205 2.500 . S
O227 C210 1.273 . S
O228 Eu205 2.473 . S
O228 C210 1.257 . S
H229 C215 0.929 . S
H230 C217 0.931 . S
H231 C219 0.929 . S
O232 Tb233 2.292 . S
O232 C235 1.255 . S
Tb233 O232 2.292 . S
Tb233 O249 2.326 . S
Tb233 O251 2.500 . S
Tb233 O252 2.473 . S
Tb233 O255 2.324 . S
Eu234 O238 2.292 . S
Eu234 C239 2.852 . S
Eu234 O250 2.324 . S
Eu234 O254 2.326 . S
Eu234 O256 2.500 . S
Eu234 O257 2.473 . S
C235 O232 1.255 . S
C235 O236 1.247 . S
O236 C235 1.247 . S
C237 O249 1.242 . S
C237 O250 1.258 . S
O238 Eu234 2.292 . S
O238 C240 1.255 . S
C239 Eu234 2.852 . S
C239 C243 1.503 . S
C239 O256 1.273 . S
C239 O257 1.257 . S
C240 O238 1.255 . S
C240 O241 1.247 . S
O241 C240 1.247 . S
C242 O254 1.242 . S
C242 O255 1.258 . S
C243 C239 1.503 . S
C243 C244 1.379 . S
C243 C248 1.392 . S
C244 C243 1.379 . S
C244 C245 1.404 . S
C244 H258 0.929 . S
C245 C244 1.404 . S
C245 C246 1.389 . S
C246 C245 1.389 . S
C246 C247 1.399 . S
C246 H259 0.931 . S
C247 C246 1.399 . S
C247 C248 1.390 . S
C248 C243 1.392 . S
C248 C247 1.390 . S
C248 H260 0.929 . S
O249 Tb233 2.326 . S
O249 C237 1.242 . S
O250 Eu234 2.324 . S
O250 C237 1.258 . S
O251 Tb233 2.500 . S
O251 C253 1.273 . S
O252 Tb233 2.473 . S
O252 C253 1.257 . S
C253 O251 1.273 . S
C253 O252 1.257 . S
O254 Eu234 2.326 . S
O254 C242 1.242 . S
O255 Tb233 2.324 . S
O255 C242 1.258 . S
O256 Eu234 2.500 . S
O256 C239 1.273 . S
O257 Eu234 2.473 . S
O257 C239 1.257 . S
H258 C244 0.929 . S
H259 C246 0.931 . S
H260 C248 0.929 . S
O261 Tb262 2.296 . S
O261 C264 1.247 1_565 S
Tb262 O261 2.296 . S
Tb262 O278 2.326 1_565 S
Tb262 O280 2.500 1_565 S
Tb262 O281 2.473 . S
Tb262 O284 2.324 1_655 S
Eu263 O267 2.292 . S
Eu263 C268 2.852 . S
Eu263 O279 2.324 . S
Eu263 O283 2.326 . S
Eu263 O285 2.500 . S
Eu263 O286 2.473 . S
C264 O261 1.247 1_545 S
C264 O265 1.247 . S
O265 C264 1.247 . S
C266 O278 1.242 . S
C266 O279 1.258 1_655 S
O267 Eu263 2.292 . S
O267 C269 1.255 . S
C268 Eu263 2.852 . S
C268 C272 1.503 . S
C268 O285 1.273 . S
C268 O286 1.257 . S
C269 O267 1.255 . S
C269 O270 1.247 . S
O270 C269 1.247 . S
C271 O283 1.242 1_565 S
C271 O284 1.258 . S
C272 C268 1.503 . S
C272 C273 1.379 . S
C272 C277 1.392 . S
C273 C272 1.379 . S
C273 C274 1.404 . S
C273 H287 0.929 . S
C274 C273 1.404 . S
C274 C275 1.389 . S
C275 C274 1.389 . S
C275 C276 1.399 . S
C275 H288 0.931 1_545 S
C276 C275 1.399 . S
C276 C277 1.390 . S
C277 C272 1.392 . S
C277 C276 1.390 . S
C277 H289 0.929 . S
O278 Tb262 2.326 1_545 S
O278 C266 1.242 . S
O279 Eu263 2.324 . S
O279 C266 1.258 1_455 S
O280 Tb262 2.500 1_545 S
O280 C282 1.273 . S
O281 Tb262 2.473 . S
O281 C282 1.257 1_565 S
C282 O280 1.273 . S
C282 O281 1.257 1_545 S
O283 Eu263 2.326 . S
O283 C271 1.242 1_545 S
O284 Tb262 2.324 1_455 S
O284 C271 1.258 . S
O285 Eu263 2.500 . S
O285 C268 1.273 . S
O286 Eu263 2.473 . S
O286 C268 1.257 . S
H287 C273 0.929 . S
H288 C275 0.931 1_565 S
H289 C277 0.929 . S
O290 Tb291 2.292 . S
O290 C293 1.255 . S
Tb291 O290 2.292 . S
Tb291 O307 2.326 . S
Tb291 O309 2.500 . S
Tb291 O310 2.473 . S
Tb291 O313 2.324 . S
Eu292 O296 2.292 . S
Eu292 C297 2.852 . S
Eu292 O308 2.324 . S
Eu292 O312 2.326 . S
Eu292 O314 2.500 . S
Eu292 O315 2.473 . S
C293 O290 1.255 . S
C293 O294 1.247 1_554 S
O294 C293 1.247 1_556 S
C295 O307 1.242 . S
C295 O308 1.258 . S
O296 Eu292 2.292 . S
O296 C298 1.255 . S
C297 Eu292 2.852 . S
C297 C301 1.503 . S
C297 O314 1.273 . S
C297 O315 1.257 . S
C298 O296 1.255 . S
C298 O299 1.247 . S
O299 C298 1.247 . S
C300 O312 1.242 . S
C300 O313 1.258 . S
C301 C297 1.503 . S
C301 C302 1.379 1_554 S
C301 C306 1.392 . S
C302 C301 1.379 1_556 S
C302 C303 1.404 . S
C302 H316 0.929 . S
C303 C302 1.404 . S
C303 C304 1.389 . S
C304 C303 1.389 . S
C304 C305 1.399 . S
C304 H317 0.931 . S
C305 C304 1.399 . S
C305 C306 1.390 1_556 S
C306 C301 1.392 . S
C306 C305 1.390 1_554 S
C306 H318 0.929 . S
O307 Tb291 2.326 . S
O307 C295 1.242 . S
O308 Eu292 2.324 . S
O308 C295 1.258 . S
O309 Tb291 2.500 . S
O309 C311 1.273 . S
O310 Tb291 2.473 . S
O310 C311 1.257 . S
C311 O309 1.273 . S
C311 O310 1.257 . S
O312 Eu292 2.326 . S
O312 C300 1.242 . S
O313 Tb291 2.324 . S
O313 C300 1.258 . S
O314 Eu292 2.500 . S
O314 C297 1.273 . S
O315 Eu292 2.473 . S
O315 C297 1.257 . S
H316 C302 0.929 . S
H317 C304 0.931 . S
H318 C306 0.929 . S
O319 Tb320 2.296 . S
O319 C322 1.247 1_545 S
Tb320 O319 2.296 . S
Tb320 O336 2.326 1_545 S
Tb320 O338 2.500 1_545 S
Tb320 O339 2.473 . S
Tb320 O342 2.324 . S
Eu321 O325 2.292 . S
Eu321 C326 2.852 . S
Eu321 O337 2.324 . S
Eu321 O341 2.326 . S
Eu321 O343 2.500 . S
Eu321 O344 2.473 . S
C322 O319 1.247 1_565 S
C322 O323 1.247 . S
O323 C322 1.247 . S
C324 O336 1.242 . S
C324 O337 1.258 . S
O325 Eu321 2.292 . S
O325 C327 1.255 . S
C326 Eu321 2.852 . S
C326 C330 1.503 . S
C326 O343 1.273 . S
C326 O344 1.257 . S
C327 O325 1.255 . S
C327 O328 1.247 . S
O328 C327 1.247 . S
C329 O341 1.242 1_545 S
C329 O342 1.258 . S
C330 C326 1.503 . S
C330 C331 1.379 . S
C330 C335 1.392 . S
C331 C330 1.379 . S
C331 C332 1.404 . S
C331 H345 0.929 . S
C332 C331 1.404 . S
C332 C333 1.389 . S
C333 C332 1.389 . S
C333 C334 1.399 . S
C333 H346 0.931 1_565 S
C334 C333 1.399 . S
C334 C335 1.390 . S
C335 C330 1.392 . S
C335 C334 1.390 . S
C335 H347 0.929 . S
O336 Tb320 2.326 1_565 S
O336 C324 1.242 . S
O337 Eu321 2.324 . S
O337 C324 1.258 . S
O338 Tb320 2.500 1_565 S
O338 C340 1.273 . S
O339 Tb320 2.473 . S
O339 C340 1.257 1_545 S
C340 O338 1.273 . S
C340 O339 1.257 1_565 S
O341 Eu321 2.326 . S
O341 C329 1.242 1_565 S
O342 Tb320 2.324 . S
O342 C329 1.258 . S
O343 Eu321 2.500 . S
O343 C326 1.273 . S
O344 Eu321 2.473 . S
O344 C326 1.257 . S
H345 C331 0.929 . S
H346 C333 0.931 1_545 S
H347 C335 0.929 . S
O348 Tb349 2.292 . S
O348 C351 1.255 . S
Tb349 O348 2.292 . S
Tb349 O365 2.326 . S
Tb349 O367 2.500 . S
Tb349 O368 2.473 . S
Tb349 O371 2.324 . S
Eu350 O354 2.292 . S
Eu350 C355 2.852 . S
Eu350 O366 2.324 . S
Eu350 O370 2.326 . S
Eu350 O372 2.500 . S
Eu350 O373 2.473 . S
C351 O348 1.255 . S
C351 O352 1.247 . S
O352 C351 1.247 . S
C353 O365 1.242 . S
C353 O366 1.258 . S
O354 Eu350 2.292 . S
O354 C356 1.255 . S
C355 Eu350 2.852 . S
C355 C359 1.503 . S
C355 O372 1.273 . S
C355 O373 1.257 . S
C356 O354 1.255 . S
C356 O357 1.247 . S
O357 C356 1.247 . S
C358 O370 1.242 . S
C358 O371 1.258 . S
C359 C355 1.503 . S
C359 C360 1.379 . S
C359 C364 1.392 . S
C360 C359 1.379 . S
C360 C361 1.404 . S
C360 H374 0.929 . S
C361 C360 1.404 . S
C361 C362 1.389 . S
C362 C361 1.389 . S
C362 C363 1.399 . S
C362 H375 0.931 . S
C363 C362 1.399 . S
C363 C364 1.390 . S
C364 C359 1.392 . S
C364 C363 1.390 . S
C364 H376 0.929 . S
O365 Tb349 2.326 . S
O365 C353 1.242 . S
O366 Eu350 2.324 . S
O366 C353 1.258 . S
O367 Tb349 2.500 . S
O367 C369 1.273 . S
O368 Tb349 2.473 . S
O368 C369 1.257 . S
C369 O367 1.273 . S
C369 O368 1.257 . S
O370 Eu350 2.326 . S
O370 C358 1.242 . S
O371 Tb349 2.324 . S
O371 C358 1.258 . S
O372 Eu350 2.500 . S
O372 C355 1.273 . S
O373 Eu350 2.473 . S
O373 C355 1.257 . S
H374 C360 0.929 . S
H375 C362 0.931 . S
H376 C364 0.929 . S
O377 Tb378 2.296 . S
O377 C380 1.247 1_545 S
Tb378 O377 2.296 . S
Tb378 O394 2.326 1_545 S
Tb378 O396 2.500 1_545 S
Tb378 O397 2.473 . S
Tb378 O400 2.324 1_455 S
Eu379 O383 2.292 . S
Eu379 C384 2.852 . S
Eu379 O395 2.324 . S
Eu379 O399 2.326 . S
Eu379 O401 2.500 . S
Eu379 O402 2.473 . S
C380 O377 1.247 1_565 S
C380 O381 1.247 . S
O381 C380 1.247 . S
C382 O394 1.242 . S
C382 O395 1.258 1_455 S
O383 Eu379 2.292 . S
O383 C385 1.255 . S
C384 Eu379 2.852 . S
C384 C388 1.503 . S
C384 O401 1.273 . S
C384 O402 1.257 . S
C385 O383 1.255 . S
C385 O386 1.247 . S
O386 C385 1.247 . S
C387 O399 1.242 1_545 S
C387 O400 1.258 . S
C388 C384 1.503 . S
C388 C389 1.379 . S
C388 C393 1.392 . S
C389 C388 1.379 . S
C389 C390 1.404 . S
C389 H403 0.929 . S
C390 C389 1.404 . S
C390 C391 1.389 . S
C391 C390 1.389 . S
C391 C392 1.399 . S
C391 H404 0.931 1_565 S
C392 C391 1.399 . S
C392 C393 1.390 . S
C393 C388 1.392 . S
C393 C392 1.390 . S
C393 H405 0.929 . S
O394 Tb378 2.326 1_565 S
O394 C382 1.242 . S
O395 Eu379 2.324 . S
O395 C382 1.258 1_655 S
O396 Tb378 2.500 1_565 S
O396 C398 1.273 . S
O397 Tb378 2.473 . S
O397 C398 1.257 1_545 S
C398 O396 1.273 . S
C398 O397 1.257 1_565 S
O399 Eu379 2.326 . S
O399 C387 1.242 1_565 S
O400 Tb378 2.324 1_655 S
O400 C387 1.258 . S
O401 Eu379 2.500 . S
O401 C384 1.273 . S
O402 Eu379 2.473 . S
O402 C384 1.257 . S
H403 C389 0.929 . S
H404 C391 0.931 1_545 S
H405 C393 0.929 . S
O406 Tb407 2.292 . S
O406 C409 1.255 . S
Tb407 O406 2.292 . S
Tb407 O423 2.326 . S
Tb407 O425 2.500 . S
Tb407 O426 2.473 . S
Tb407 O429 2.324 . S
Eu408 O412 2.292 . S
Eu408 C413 2.852 . S
Eu408 O424 2.324 . S
Eu408 O428 2.326 . S
Eu408 O430 2.500 . S
Eu408 O431 2.473 . S
C409 O406 1.255 . S
C409 O410 1.247 1_556 S
O410 C409 1.247 1_554 S
C411 O423 1.242 . S
C411 O424 1.258 . S
O412 Eu408 2.292 . S
O412 C414 1.255 . S
C413 Eu408 2.852 . S
C413 C417 1.503 . S
C413 O430 1.273 . S
C413 O431 1.257 . S
C414 O412 1.255 . S
C414 O415 1.247 . S
O415 C414 1.247 . S
C416 O428 1.242 . S
C416 O429 1.258 . S
C417 C413 1.503 . S
C417 C418 1.379 1_556 S
C417 C422 1.392 . S
C418 C417 1.379 1_554 S
C418 C419 1.404 . S
C418 H432 0.929 . S
C419 C418 1.404 . S
C419 C420 1.389 . S
C420 C419 1.389 . S
C420 C421 1.399 . S
C420 H433 0.931 . S
C421 C420 1.399 . S
C421 C422 1.390 1_554 S
C422 C417 1.392 . S
C422 C421 1.390 1_556 S
C422 H434 0.929 . S
O423 Tb407 2.326 . S
O423 C411 1.242 . S
O424 Eu408 2.324 . S
O424 C411 1.258 . S
O425 Tb407 2.500 . S
O425 C427 1.273 . S
O426 Tb407 2.473 . S
O426 C427 1.257 . S
C427 O425 1.273 . S
C427 O426 1.257 . S
O428 Eu408 2.326 . S
O428 C416 1.242 . S
O429 Tb407 2.324 . S
O429 C416 1.258 . S
O430 Eu408 2.500 . S
O430 C413 1.273 . S
O431 Eu408 2.473 . S
O431 C413 1.257 . S
H432 C418 0.929 . S
H433 C420 0.931 . S
H434 C422 0.929 . S
O435 Tb436 2.296 . S
O435 C438 1.247 1_565 S
Tb436 O435 2.296 . S
Tb436 O452 2.326 1_565 S
Tb436 O454 2.500 1_565 S
Tb436 O455 2.473 . S
Tb436 O458 2.324 . S
Eu437 O441 2.292 . S
Eu437 C442 2.852 . S
Eu437 O453 2.324 . S
Eu437 O457 2.326 . S
Eu437 O459 2.500 . S
Eu437 O460 2.473 . S
C438 O435 1.247 1_545 S
C438 O439 1.247 . S
O439 C438 1.247 . S
C440 O452 1.242 . S
C440 O453 1.258 . S
O441 Eu437 2.292 . S
O441 C443 1.255 . S
C442 Eu437 2.852 . S
C442 C446 1.503 . S
C442 O459 1.273 . S
C442 O460 1.257 . S
C443 O441 1.255 . S
C443 O444 1.247 . S
O444 C443 1.247 . S
C445 O457 1.242 1_565 S
C445 O458 1.258 . S
C446 C442 1.503 . S
C446 C447 1.379 . S
C446 C451 1.392 . S
C447 C446 1.379 . S
C447 C448 1.404 . S
C447 H461 0.929 . S
C448 C447 1.404 . S
C448 C449 1.389 . S
C449 C448 1.389 . S
C449 C450 1.399 . S
C449 H462 0.931 1_545 S
C450 C449 1.399 . S
C450 C451 1.390 . S
C451 C446 1.392 . S
C451 C450 1.390 . S
C451 H463 0.929 . S
O452 Tb436 2.326 1_545 S
O452 C440 1.242 . S
O453 Eu437 2.324 . S
O453 C440 1.258 . S
O454 Tb436 2.500 1_545 S
O454 C456 1.273 . S
O455 Tb436 2.473 . S
O455 C456 1.257 1_565 S
C456 O454 1.273 . S
C456 O455 1.257 1_545 S
O457 Eu437 2.326 . S
O457 C445 1.242 1_545 S
O458 Tb436 2.324 . S
O458 C445 1.258 . S
O459 Eu437 2.500 . S
O459 C442 1.273 . S
O460 Eu437 2.473 . S
O460 C442 1.257 . S
H461 C447 0.929 . S
H462 C449 0.931 1_565 S
H463 C451 0.929 . S
C213 C21 3.443 . S
C358 C50 3.443 . S
C79 C155 3.443 . S
C416 C108 3.443 . S
C97 C137 3.443 . S
C166 C242 3.443 . S
C195 C39 3.443 . S
C300 C224 3.443 . S
C445 C253 3.443 . S
C282 C126 3.443 1_545 S
C387 C311 3.443 . S
C184 C340 3.443 1_545 S
C329 C369 3.443 . S
C398 C10 3.443 1_565 S
C427 C271 3.443 . S
C68 C456 3.443 1_565 S
C15 C409 0.705 . S
C206 C44 0.705 . S
C351 C73 0.705 . S
C102 C148 0.705 . S
C293 C131 0.705 . S
C90 C160 0.705 . S
C189 C235 0.705 . S
C218 C32 0.705 . S
C247 C177 0.705 . S
C276 C438 0.705 . S
C119 C305 0.705 . S
C380 C334 0.705 . S
C61 C363 0.705 . S
C392 C322 0.705 . S
C3 C421 0.705 . S
C264 C450 0.705 . S
C13 C269 2.132 . S
C298 C42 2.132 . S
C327 C71 2.132 . S
C240 C100 2.132 . S
C129 C385 2.132 . S
C158 C414 2.132 . S
C443 C187 2.132 . S
C356 C216 2.132 . S
C37 C245 2.132 . S
C66 C274 2.132 1_565 S
C303 C95 2.132 . S
C332 C8 2.132 1_565 S
C361 C153 2.132 . S
C182 C390 2.132 1_545 S
C419 C211 2.132 . S
C124 C448 2.132 1_565 S
C295 C5 4.023 . S
C34 C324 4.023 . S
C63 C237 4.023 1_455 S
C266 C92 4.023 1_655 S
C121 C411 4.023 . S
C440 C150 4.023 . S
C353 C179 4.023 1_455 S
C208 C382 4.023 1_655 S
