# Generated by pormake.
# Topology uni, (4)-cn, num edge types: 1
# Building blocks:
#     Node 0, Type 0, BuildingBlock: KUFVIS_clean_sbu_0, # of connection points: 4
#     Node 1, Type 0, BuildingBlock: KUFVIS_clean_sbu_0, # of connection points: 4
#     Node 2, Type 0, BuildingBlock: KUFVIS_clean_sbu_0, # of connection points: 4
#     Node 3, Type 0, BuildingBlock: KUFVIS_clean_sbu_0, # of connection points: 4
#     Node 4, Type 0, BuildingBlock: KUFVIS_clean_sbu_0, # of connection points: 4
#     Node 5, Type 0, BuildingBlock: KUFVIS_clean_sbu_0, # of connection points: 4
#     Edge 6, Type (0, 0), BuildingBlock: XIVTED_clean_linker_0, # of connection points: 2
#     Edge 7, Type (0, 0), BuildingBlock: XIVTED_clean_linker_0, # of connection points: 2
#     Edge 8, Type (0, 0), BuildingBlock: XIVTED_clean_linker_0, # of connection points: 2
#     Edge 9, Type (0, 0), BuildingBlock: XIVTED_clean_linker_0, # of connection points: 2
#     Edge 10, Type (0, 0), BuildingBlock: XIVTED_clean_linker_0, # of connection points: 2
#     Edge 11, Type (0, 0), BuildingBlock: XIVTED_clean_linker_0, # of connection points: 2
#     Edge 12, Type (0, 0), BuildingBlock: XIVTED_clean_linker_0, # of connection points: 2
#     Edge 13, Type (0, 0), BuildingBlock: XIVTED_clean_linker_0, # of connection points: 2
#     Edge 14, Type (0, 0), BuildingBlock: XIVTED_clean_linker_0, # of connection points: 2
#     Edge 15, Type (0, 0), BuildingBlock: XIVTED_clean_linker_0, # of connection points: 2
#     Edge 16, Type (0, 0), BuildingBlock: XIVTED_clean_linker_0, # of connection points: 2
#     Edge 17, Type (0, 0), BuildingBlock: XIVTED_clean_linker_0, # of connection points: 2
# Relax obj value: 0.055
# Max RMSD: 0.074
# Mean RMSD: 0.074
data_MOF--net-uni--node1-KUFVIS_clean_sbu_0--edge1-XIVTED_clean_linker_0
_symmetry_space_group_name_H-M    P1
_symmetry_Int_Tables_number       1
_symmetry_cell_setting            triclinic
loop_
_symmetry_equiv_pos_as_xyz
'x, y, z'
_cell_length_a     38.440107
_cell_length_b     38.44501
_cell_length_c     23.120629
_cell_angle_alpha  89.972043
_cell_angle_beta   90.006742
_cell_angle_gamma 120.01516
loop_
_atom_site_label
_atom_site_type_symbol
_atom_site_fract_x
_atom_site_fract_y
_atom_site_fract_z
_atom_type_partial_charge
Mn0 Mn 0.6495 0.02557 0.05847 0.0
Mn1 Mn 0.6508 0.11147 0.09213 0.0
C2 C 0.60339 0.0246 0.12411 0.0
C3 C 0.67265 0.98073 0.07596 0.0
C4 C 0.61854 0.06681 0.9786 0.0
O5 O 0.70405 0.06955 0.02808 0.0
O6 O 0.70519 0.1243 0.06603 0.0
C7 C 0.70427 0.13557 0.19436 0.0
N8 N 0.66838 0.12641 0.17019 0.0
C9 C 0.64392 0.13637 0.26092 0.0
C10 C 0.68086 0.14651 0.28655 0.0
C11 C 0.71111 0.14596 0.25315 0.0
C12 C 0.63891 0.12643 0.20207 0.0
H13 H 0.72736 0.13464 0.16904 0.0
C14 C 0.72179 0.10715 0.03933 0.0
O15 O 0.65765 0.98191 0.02612 0.0
O16 O 0.67572 1.00669 0.11435 0.0
N17 N 0.59995 0.10302 0.11876 0.0
C18 C 0.56538 0.0906 0.08823 0.0
C19 C 0.5318 0.08849 0.11575 0.0
C20 C 0.53415 0.09936 0.17422 0.0
C21 C 0.57016 0.11243 0.20459 0.0
C22 C 0.60277 0.11433 0.17473 0.0
H23 H 0.56335 0.08226 0.04328 0.0
O24 O 0.59674 0.99172 0.09888 0.0
O25 O 0.63697 0.05653 0.11083 0.0
O26 O 0.62105 0.03592 0.99176 0.0
O27 O 0.6311 0.09769 0.01121 0.0
C28 C 0.57477 0.12307 0.26356 0.0
C29 C 0.61158 0.13491 0.29175 0.0
H30 H 0.68616 0.15431 0.33197 0.0
H31 H 0.73955 0.15333 0.27276 0.0
H32 H 0.50413 0.07839 0.09199 0.0
H33 H 0.50808 0.09732 0.19543 0.0
H34 H 0.55003 0.12172 0.28783 0.0
H35 H 0.61456 0.1424 0.33731 0.0
Mn36 Mn 0.65972 0.65374 0.22706 0.0
Mn37 Mn 0.57248 0.65236 0.25141 0.0
C38 C 0.61333 0.60749 0.29129 0.0
C39 C 0.72721 0.67751 0.24899 0.0
C40 C 0.59018 0.62022 0.142 0.0
O41 O 0.67009 0.70776 0.19471 0.0
O42 O 0.61381 0.70697 0.2254 0.0
C43 C 0.59572 0.70749 0.3516 0.0
N44 N 0.571 0.67092 0.32755 0.0
C45 C 0.53143 0.64765 0.41451 0.0
C46 C 0.55612 0.6853 0.43987 0.0
C47 C 0.5885 0.71529 0.40834 0.0
C48 C 0.53985 0.64177 0.35758 0.0
H49 H 0.62089 0.73039 0.32776 0.0
C50 C 0.64872 0.72439 0.20191 0.0
O51 O 0.71257 0.66264 0.19849 0.0
O52 O 0.70321 0.6806 0.2854 0.0
N53 N 0.53034 0.60123 0.2776 0.0
C54 C 0.51193 0.56546 0.24898 0.0
C55 C 0.48037 0.53161 0.27585 0.0
C56 C 0.46793 0.5349 0.3317 0.0
C57 C 0.48721 0.57205 0.36022 0.0
C58 C 0.51831 0.60482 0.33112 0.0
H59 H 0.5214 0.56269 0.20612 0.0
O60 O 0.64065 0.60147 0.26831 0.0
O61 O 0.61426 0.64056 0.27639 0.0
O62 O 0.62366 0.62427 0.15826 0.0
O63 O 0.56989 0.63178 0.17191 0.0
C64 C 0.47751 0.57758 0.41697 0.0
C65 C 0.4996 0.61535 0.44409 0.0
H66 H 0.55089 0.6913 0.48383 0.0
H67 H 0.60797 0.74427 0.42784 0.0
H68 H 0.46574 0.503 0.25365 0.0
H69 H 0.44384 0.50862 0.35251 0.0
H70 H 0.45365 0.55276 0.44058 0.0
H71 H 0.4924 0.619 0.48815 0.0
Mn72 Mn 0.0397 0.66188 0.39785 0.0
Mn73 Mn 0.95759 0.57343 0.43226 0.0
C74 C 0.04448 0.61869 0.46352 0.0
C75 C 0.08314 0.73015 0.4152 0.0
C76 C 1.00303 0.5881 0.31906 0.0
O77 O 0.99378 0.66998 0.37024 0.0
O78 O 0.94116 0.61121 0.40027 0.0
C79 C 0.92701 0.60165 0.52834 0.0
N80 N 0.939 0.57611 0.5079 0.0
C81 C 0.92514 0.54182 0.59941 0.0
C82 C 0.91187 0.56726 0.62107 0.0
C83 C 0.91303 0.59744 0.58545 0.0
C84 C 0.93841 0.54722 0.54197 0.0
H85 H 0.9284 0.62523 0.50139 0.0
C86 C 0.9561 0.64613 0.37709 0.0
O87 O 0.08135 0.71447 0.36476 0.0
O88 O 0.05814 0.70668 0.45416 0.0
N89 N 0.96905 0.53439 0.46461 0.0
C90 C 0.98717 0.51555 0.43935 0.0
C91 C 0.99074 0.48607 0.47036 0.0
C92 C 0.9756 0.47622 0.52694 0.0
C93 C 0.95718 0.49609 0.55211 0.0
C94 C 0.95421 0.525 0.51895 0.0
H95 H 0.9993 0.52334 0.3962 0.0
O96 O 0.07603 0.64526 0.43594 0.0
O97 O 1.01108 0.61792 0.4515 0.0
O98 O 0.03005 0.6243 0.32935 0.0
O99 O 0.97462 0.56673 0.35428 0.0
C100 C 0.94274 0.48922 0.6094 0.0
C101 C 0.9268 0.51212 0.63307 0.0
H102 H 0.90139 0.56433 0.66525 0.0
H103 H 0.90335 0.61754 0.60209 0.0
H104 H 1.00534 0.47114 0.45082 0.0
H105 H 0.97881 0.45379 0.55096 0.0
H106 H 0.94461 0.46703 0.63607 0.0
H107 H 0.91666 0.50719 0.67759 0.0
Mn108 Mn 0.41154 0.04305 0.5602 0.0
Mn109 Mn 0.41871 0.96153 0.59532 0.0
C110 C 0.45962 0.04843 0.62617 0.0
C111 C 0.38578 0.08579 0.5769 0.0
C112 C 0.44907 1.00668 0.48175 0.0
O113 O 0.35774 0.99667 0.53256 0.0
O114 O 0.36427 0.94454 0.56388 0.0
C115 C 0.36045 0.93118 0.69215 0.0
N116 N 0.39789 0.94317 0.67123 0.0
C117 C 0.41889 0.92965 0.76249 0.0
C118 C 0.38027 0.9163 0.7846 0.0
C119 C 0.35101 0.91731 0.74936 0.0
C120 C 0.42644 0.94282 0.70498 0.0
H121 H 0.33812 0.93253 0.66551 0.0
C122 C 0.3441 0.9591 0.54024 0.0
O123 O 0.40009 0.08422 0.5267 0.0
O124 O 0.38456 0.06108 0.61612 0.0
N125 N 0.46951 0.97356 0.6272 0.0
C126 C 0.50637 0.99185 0.60157 0.0
C127 C 0.53965 0.99568 0.63221 0.0
C128 C 0.5347 0.98061 0.6888 0.0
C129 C 0.4965 0.96201 0.71436 0.0
C130 C 0.46439 0.95881 0.68157 0.0
H131 H 0.51043 1.00389 0.55839 0.0
O132 O 0.46433 0.07985 0.59852 0.0
O133 O 0.42722 0.01487 0.61409 0.0
O134 O 0.43991 0.03371 0.49198 0.0
O135 O 0.44204 0.97831 0.51704 0.0
C136 C 0.48927 0.94762 0.77168 0.0
C137 C 0.45051 0.93153 0.79577 0.0
H138 H 0.37297 0.90591 0.82886 0.0
H139 H 0.32131 0.90762 0.76638 0.0
H140 H 0.5691 0.0104 0.61237 0.0
H141 H 0.56052 0.98401 0.71253 0.0
H142 H 0.5135 0.94964 0.79805 0.0
H143 H 0.44555 0.92145 0.84033 0.0
Mn144 Mn 0.40213 0.41389 0.72696 0.0
Mn145 Mn 0.48958 0.41598 0.75176 0.0
C146 C 0.44845 0.46079 0.79064 0.0
C147 C 0.33446 0.3892 0.74874 0.0
C148 C 0.47116 0.44663 0.64131 0.0
O149 O 0.39218 0.35981 0.69558 0.0
O150 O 0.44826 0.36085 0.72783 0.0
C151 C 0.4677 0.36258 0.85388 0.0
N152 N 0.49194 0.3988 0.8285 0.0
C153 C 0.53276 0.42355 0.9141 0.0
C154 C 0.50858 0.38628 0.94084 0.0
C155 C 0.4758 0.35573 0.91067 0.0
C156 C 0.52341 0.4285 0.85725 0.0
H157 H 0.44227 0.33924 0.83105 0.0
C158 C 0.41342 0.34317 0.70414 0.0
O159 O 0.34905 0.40418 0.69824 0.0
O160 O 0.35876 0.38688 0.78546 0.0
N161 N 0.53168 0.46768 0.77603 0.0
C162 C 0.54953 0.503 0.7462 0.0
C163 C 0.58134 0.53735 0.77169 0.0
C164 C 0.59464 0.535 0.82737 0.0
C165 C 0.57591 0.49831 0.85714 0.0
C166 C 0.54444 0.46504 0.82948 0.0
H167 H 0.53948 0.50503 0.70341 0.0
O168 O 0.42086 0.46636 0.76752 0.0
O169 O 0.44775 0.42776 0.77626 0.0
O170 O 0.43794 0.44312 0.65774 0.0
O171 O 0.49137 0.43513 0.67155 0.0
C172 C 0.58663 0.49366 0.91369 0.0
C173 C 0.56506 0.45631 0.94216 0.0
H174 H 0.51454 0.38099 0.98481 0.0
H175 H 0.45673 0.32703 0.93123 0.0
H176 H 0.59554 0.5656 0.74851 0.0
H177 H 0.61898 0.56164 0.84706 0.0
H178 H 0.61088 0.51885 0.93615 0.0
H179 H 0.57305 0.45336 0.98609 0.0
Mn180 Mn 0.02323 0.40699 0.8966 0.0
Mn181 Mn 0.10885 0.49203 0.92985 0.0
C182 C 0.02196 0.4522 0.96171 0.0
C183 C 0.97867 0.339 0.91448 0.0
C184 C 0.06411 0.479 0.81622 0.0
O185 O 0.0674 0.39657 0.86679 0.0
O186 O 0.122 0.45063 0.90415 0.0
C187 C 0.13322 0.46317 0.03239 0.0
N188 N 0.12386 0.4897 0.00798 0.0
C189 C 0.13358 0.52426 0.09852 0.0
C190 C 0.14393 0.49769 0.12439 0.0
C191 C 0.14359 0.46692 0.09121 0.0
C192 C 0.12366 0.51914 0.03966 0.0
H193 H 0.13245 0.43917 0.00725 0.0
C194 C 0.105 0.41667 0.87799 0.0
O195 O 0.9798 0.35496 0.86446 0.0
O196 O 1.00451 0.36212 0.95284 0.0
N197 N 0.10009 0.53428 0.95613 0.0
C198 C 0.08745 0.55618 0.92539 0.0
C199 C 0.08509 0.58756 0.95268 0.0
C200 C 0.09592 0.59625 0.01114 0.0
C201 C 0.10921 0.57359 0.04173 0.0
C202 C 0.11136 0.54295 0.01209 0.0
H203 H 0.07914 0.54973 0.88044 0.0
O204 O 0.98914 0.42577 0.9365 0.0
O205 O 0.054 0.45073 0.94867 0.0
O206 O 0.03341 0.44547 0.8295 0.0
O207 O 0.09496 0.49763 0.84882 0.0
C208 C 0.11982 0.57979 0.1007 0.0
C209 C 0.13187 0.55506 0.12913 0.0
H210 H 0.15171 0.50032 0.16983 0.0
H211 H 0.15113 0.44602 0.11101 0.0
H212 H 0.07482 0.60493 0.92876 0.0
H213 H 0.09368 0.62023 0.03218 0.0
H214 H 0.11828 0.60314 0.12481 0.0
H215 H 0.13933 0.55972 0.1747 0.0
H216 H 0.63025 0.04183 0.23396 0.0
H217 H 0.4453 0.03937 0.3778 0.0
H218 H 0.52348 1.00104 0.13075 0.0
H219 H 0.50054 0.97851 0.46089 0.0
H220 H 0.48158 0.04285 0.28814 0.0
H221 H 0.59111 0.03643 0.32093 0.0
C222 C 0.5986 0.03211 0.22977 0.0
C223 C 0.58002 0.02269 0.17545 0.0
C224 C 0.48548 0.02873 0.32623 0.0
C225 C 0.53555 0.01668 0.27385 0.0
C226 C 0.46509 0.02691 0.3773 0.0
C227 C 0.47002 0.00874 0.42699 0.0
C228 C 0.5118 0.01343 0.32566 0.0
C229 C 0.49587 0.99285 0.42381 0.0
C230 C 0.57639 0.02884 0.27915 0.0
C231 C 0.5388 0.00921 0.17204 0.0
N232 N 0.51625 0.99608 0.37426 0.0
N233 N 0.51788 1.00721 0.22068 0.0
H234 H 0.60589 0.63362 0.39692 0.0
H235 H 0.51321 0.42937 0.56227 0.0
H236 H 0.57132 0.52566 0.29962 0.0
H237 H 0.46951 0.5112 0.59564 0.0
H238 H 0.5458 0.46711 0.47361 0.0
H239 H 0.56767 0.59249 0.48007 0.0
C240 C 0.5895 0.60121 0.39284 0.0
C241 C 0.58977 0.58283 0.34072 0.0
C242 C 0.52876 0.47645 0.50026 0.0
C243 C 0.5484 0.53591 0.43613 0.0
C244 C 0.51035 0.45514 0.55072 0.0
C245 C 0.48858 0.46719 0.586 0.0
C246 C 0.52646 0.51074 0.48631 0.0
C247 C 0.48575 0.50078 0.56927 0.0
C248 C 0.5681 0.57788 0.44025 0.0
C249 C 0.57057 0.54079 0.33868 0.0
N250 N 0.50505 0.52184 0.52103 0.0
N251 N 0.55055 0.51857 0.38587 0.0
H252 H 0.12592 0.5235 0.74115 0.0
H253 H 0.01441 0.61529 0.57053 0.0
H254 H 0.99967 0.47957 0.76863 0.0
H255 H 0.08808 0.58038 0.47457 0.0
H256 H 0.01988 0.58026 0.6557 0.0
H257 H 0.123 0.55803 0.65295 0.0
C258 C 0.09766 0.5211 0.72853 0.0
C259 C 0.06292 0.49856 0.76187 0.0
C260 C 0.03466 0.58013 0.61587 0.0
C261 C 0.0598 0.53862 0.66294 0.0
C262 C 0.03127 0.5997 0.56732 0.0
C263 C 0.04897 0.59864 0.51493 0.0
C264 C 0.05726 0.56077 0.61251 0.0
C265 C 0.07287 0.58055 0.51388 0.0
C266 C 0.09604 0.54061 0.67836 0.0
C267 C 0.02703 0.49635 0.7438 0.0
N268 N 0.07624 0.56203 0.56208 0.0
N269 N 0.02651 0.51663 0.69598 0.0
H270 H 0.63651 0.1288 0.90358 0.0
H271 H 0.43284 0.01849 0.73316 0.0
H272 H 0.553 1.00284 0.9312 0.0
H273 H 0.54158 0.09214 0.63737 0.0
H274 H 0.47323 0.02381 0.81836 0.0
H275 H 0.59916 0.12639 0.81553 0.0
C276 C 0.6104 0.10071 0.89102 0.0
C277 C 0.59783 0.0659 0.92436 0.0
C278 C 0.4882 0.03864 0.77857 0.0
C279 C 0.55479 0.06337 0.82561 0.0
C280 C 0.4653 0.03535 0.73002 0.0
C281 C 0.48414 0.05309 0.67767 0.0
C282 C 0.53019 0.06113 0.77524 0.0
C283 C 0.52615 0.07694 0.67667 0.0
C284 C 0.58933 0.09937 0.84095 0.0
C285 C 0.56385 0.03024 0.90638 0.0
N286 N 0.54798 0.08016 0.72486 0.0
N287 N 0.54314 0.03001 0.85865 0.0
H288 H 0.58787 0.55241 0.10307 0.0
H289 H 0.49031 0.54268 0.79722 0.0
H290 H 0.55178 0.63864 0.05815 0.0
H291 H 0.45676 0.43576 0.89676 0.0
H292 H 0.52695 0.58364 0.88193 0.0
H293 H 0.55405 0.51389 0.01594 0.0
C294 C 0.57338 0.56352 0.07426 0.0
C295 C 0.57255 0.59867 0.0875 0.0
C296 C 0.51189 0.5512 0.88478 0.0
C297 C 0.53492 0.55549 0.98751 0.0
C298 C 0.49121 0.52795 0.83669 0.0
C299 C 0.47216 0.48596 0.8396 0.0
C300 C 0.51332 0.53212 0.93577 0.0
C301 C 0.47285 0.46811 0.8921 0.0
C302 C 0.55404 0.54152 0.02483 0.0
C303 C 0.55293 0.61158 0.0493 0.0
N304 N 0.49362 0.49127 0.93798 0.0
N305 N 0.53513 0.59015 1.00057 0.0
H306 H 0.03927 0.44279 0.0716 0.0
H307 H 0.03563 0.62466 0.21513 0.0
H308 H 0.99792 0.50819 0.96813 0.0
H309 H 0.97513 0.50851 0.29821 0.0
H310 H 0.03932 0.59198 0.12551 0.0
H311 H 0.03358 0.4764 0.15848 0.0
C312 C 0.02936 0.46457 0.06733 0.0
C313 C 0.01987 0.47361 0.01298 0.0
C314 C 0.02523 0.57392 0.16358 0.0
C315 C 0.01352 0.51191 0.11126 0.0
C316 C 0.02329 0.59242 0.21463 0.0
C317 C 1.00516 0.56927 0.26431 0.0
C318 C 1.0101 0.53233 0.16302 0.0
C319 C 0.98943 0.52755 0.26113 0.0
C320 C 0.02593 0.48343 0.11666 0.0
C321 C 1.00615 0.50114 0.00946 0.0
N322 N 0.99279 0.51048 0.21161 0.0
N323 N 1.00399 0.51999 0.05806 0.0
H324 H 0.67755 0.75676 0.09484 0.0
H325 H 0.69667 0.96737 0.1805 0.0
H326 H 0.65376 0.78625 0.26459 0.0
H327 H 0.66808 0.9202 0.00682 0.0
H328 H 0.70064 0.90853 0.20995 0.0
H329 H 0.69276 0.82379 0.06073 0.0
C330 C 0.67646 0.77769 0.12511 0.0
C331 C 0.66432 0.76614 0.1825 0.0
C332 C 0.69401 0.91131 0.16521 0.0
C333 C 0.68176 0.84222 0.14428 0.0
C334 C 0.69186 0.94497 0.14824 0.0
C335 C 0.6815 0.9485 0.09122 0.0
C336 C 0.68599 0.88092 0.12491 0.0
C337 C 0.67581 0.91851 0.05135 0.0
C338 C 0.68482 0.81566 0.10562 0.0
C339 C 0.66278 0.79396 0.21997 0.0
N340 N 0.67779 0.88573 0.06905 0.0
N341 N 0.67137 0.83066 0.20025 0.0
H342 H 0.9613 0.69291 0.28354 0.0
H343 H 0.75681 0.68872 0.3587 0.0
H344 H 0.88542 0.62826 0.42821 0.0
H345 H 0.78833 0.68209 0.18149 0.0
H346 H 0.81734 0.68853 0.39051 0.0
H347 H 0.90985 0.70916 0.25111 0.0
C348 C 0.93418 0.68268 0.30885 0.0
C349 C 0.92751 0.65911 0.35853 0.0
C350 C 0.81128 0.68779 0.34463 0.0
C351 C 0.86957 0.67826 0.32268 0.0
C352 C 0.77689 0.68812 0.32635 0.0
C353 C 0.76728 0.68499 0.26733 0.0
C354 C 0.83664 0.68495 0.30365 0.0
C355 C 0.79447 0.68421 0.22744 0.0
C356 C 0.90493 0.69181 0.29026 0.0
C357 C 0.89178 0.64636 0.3896 0.0
N358 N 0.82793 0.68395 0.24633 0.0
N359 N 0.8643 0.65626 0.37135 0.0
H360 H 0.13912 0.78884 0.34368 0.0
H361 H 0.29189 0.88958 0.59427 0.0
H362 H 0.10276 0.76361 0.52252 0.0
H363 H 0.30169 0.9621 0.44595 0.0
H364 H 0.2245 0.83964 0.56371 0.0
H365 H 0.20026 0.85033 0.37431 0.0
C366 C 0.14357 0.79659 0.38916 0.0
C367 C 0.11597 0.77084 0.43067 0.0
C368 C 0.24117 0.86666 0.53812 0.0
C369 C 0.18586 0.84027 0.46569 0.0
C370 C 0.27974 0.89516 0.55541 0.0
C371 C 0.30239 0.93015 0.52273 0.0
C372 C 0.22535 0.87241 0.48673 0.0
C373 C 0.28504 0.9356 0.47252 0.0
C374 C 0.17838 0.83164 0.4065 0.0
C375 C 0.12324 0.78236 0.48901 0.0
N376 N 0.24766 0.90661 0.45537 0.0
N377 N 0.15782 0.81576 0.50484 0.0
H378 H 0.4107 0.28307 0.76864 0.0
H379 H 0.38721 0.14398 0.50586 0.0
H380 H 0.38159 0.30807 0.59936 0.0
H381 H 0.36451 0.10131 0.68215 0.0
H382 H 0.38397 0.20346 0.53638 0.0
H383 H 0.39342 0.21598 0.73648 0.0
C384 C 0.40016 0.27416 0.7248 0.0
C385 C 0.39757 0.30103 0.68656 0.0
C386 C 0.37893 0.18064 0.56805 0.0
C387 C 0.37856 0.22446 0.6488 0.0
C388 C 0.38078 0.1467 0.5507 0.0
C389 C 0.37659 0.11783 0.59164 0.0
C390 C 0.3735 0.18592 0.62681 0.0
C391 C 0.36827 0.1229 0.64914 0.0
C392 C 0.39016 0.23579 0.70643 0.0
C393 C 0.3837 0.28798 0.63016 0.0
N394 N 0.36768 0.15658 0.66513 0.0
N395 N 0.37539 0.25075 0.61251 0.0
H396 H 0.10375 0.37943 0.77593 0.0
H397 H 0.30169 0.37076 0.85686 0.0
H398 H 0.16672 0.41913 0.93832 0.0
H399 H 0.27478 0.38774 0.68135 0.0
H400 H 0.23956 0.3675 0.88877 0.0
H401 H 0.1546 0.36264 0.74273 0.0
C402 C 0.12773 0.38377 0.80494 0.0
C403 C 0.13127 0.40087 0.85978 0.0
C404 C 0.24699 0.37134 0.84315 0.0
C405 C 0.18873 0.38144 0.82268 0.0
C406 C 0.28236 0.37304 0.82481 0.0
C407 C 0.29372 0.38007 0.76641 0.0
C408 C 0.22254 0.37634 0.80283 0.0
C409 C 0.26734 0.38268 0.72688 0.0
C410 C 0.15674 0.37445 0.78592 0.0
C411 C 0.16305 0.40629 0.89559 0.0
N412 N 0.23306 0.38115 0.74587 0.0
N413 N 0.19051 0.39663 0.87644 0.0
H414 H 0.96488 0.30232 0.01961 0.0
H415 H 0.75566 0.10911 0.93391 0.0
H416 H 0.91887 0.28234 0.84512 0.0
H417 H 0.7827 0.16553 0.10168 0.0
H418 H 0.82299 0.16067 0.9004 0.0
H419 H 0.906 0.23953 0.04916 0.0
C420 C 0.94275 0.28441 0.98721 0.0
C421 C 0.94657 0.29792 0.92991 0.0
C422 C 0.81423 0.1612 0.94477 0.0
C423 C 0.879 0.22589 0.96369 0.0
C424 C 0.7761 0.13176 0.96395 0.0
C425 C 0.76373 0.1333 0.02053 0.0
C426 C 0.84018 0.19158 0.983 0.0
C427 C 0.79101 0.16344 0.05766 0.0
C428 C 0.90907 0.24862 1.00423 0.0
C429 C 0.91693 0.27322 0.88986 0.0
N430 N 0.82789 0.19134 0.03828 0.0
N431 N 0.88412 0.23848 0.90761 0.0
loop_
_geom_bond_atom_site_label_1
_geom_bond_atom_site_label_2
_geom_bond_distance
_geom_bond_site_symmetry_2
_ccdc_geom_bond_type
Mn0 O5 2.095 . S
Mn0 O15 2.162 1_545 S
Mn0 O16 2.297 1_545 S
Mn0 O24 2.385 1_545 S
Mn0 O25 2.209 . S
Mn0 O26 2.094 1_554 S
Mn1 O6 2.121 . S
Mn1 N8 2.257 . S
Mn1 N17 2.282 . S
Mn1 O25 2.215 . S
Mn1 O27 2.109 1_554 S
C2 O24 1.234 1_545 S
C2 O25 1.283 . S
C3 O15 1.281 . S
C3 O16 1.236 . S
C4 O26 1.240 . S
C4 O27 1.269 . S
O5 Mn0 2.095 . S
O5 C14 1.250 . S
O6 Mn1 2.121 . S
O6 C14 1.258 . S
C7 N8 1.326 . S
C7 C11 1.460 . S
C7 H13 0.929 . S
N8 Mn1 2.257 . S
N8 C7 1.326 . S
N8 C12 1.362 . S
C9 C10 1.258 . S
C9 C12 1.431 . S
C9 C29 1.449 . S
C10 C9 1.258 . S
C10 C11 1.477 . S
C10 H30 0.931 . S
C11 C7 1.460 . S
C11 C10 1.477 . S
C11 H31 0.930 . S
C12 N8 1.362 . S
C12 C9 1.431 . S
C12 C22 1.476 . S
H13 C7 0.929 . S
C14 O5 1.250 . S
C14 O6 1.258 . S
O15 Mn0 2.162 1_565 S
O15 C3 1.281 . S
O16 Mn0 2.297 1_565 S
O16 C3 1.236 . S
N17 Mn1 2.282 . S
N17 C18 1.328 . S
N17 C22 1.318 . S
C18 N17 1.328 . S
C18 C19 1.457 . S
C18 H23 0.929 . S
C19 C18 1.457 . S
C19 C20 1.291 . S
C19 H32 0.931 . S
C20 C19 1.291 . S
C20 C21 1.373 . S
C20 H33 0.929 . S
C21 C20 1.373 . S
C21 C22 1.396 . S
C21 C28 1.403 . S
C22 C12 1.476 . S
C22 N17 1.318 . S
C22 C21 1.396 . S
H23 C18 0.929 . S
O24 Mn0 2.385 1_565 S
O24 C2 1.234 1_565 S
O25 Mn0 2.209 . S
O25 Mn1 2.215 . S
O25 C2 1.283 . S
O26 Mn0 2.094 1_556 S
O26 C4 1.240 . S
O27 Mn1 2.109 1_556 S
O27 C4 1.269 . S
C28 C21 1.403 . S
C28 C29 1.399 . S
C28 H34 0.929 . S
C29 C9 1.449 . S
C29 C28 1.399 . S
C29 H35 0.930 . S
H30 C10 0.931 . S
H31 C11 0.930 . S
H32 C19 0.931 . S
H33 C20 0.929 . S
H34 C28 0.929 . S
H35 C29 0.930 . S
Mn36 O41 2.095 . S
Mn36 O51 2.162 . S
Mn36 O52 2.297 . S
Mn36 O60 2.385 . S
Mn36 O61 2.209 . S
Mn36 O62 2.094 . S
Mn37 O42 2.121 . S
Mn37 N44 2.257 . S
Mn37 N53 2.282 . S
Mn37 O61 2.215 . S
Mn37 O63 2.117 . S
C38 O60 1.234 . S
C38 O61 1.283 . S
C39 O51 1.281 . S
C39 O52 1.236 . S
C40 O62 1.240 . S
C40 O63 1.264 . S
O41 Mn36 2.095 . S
O41 C50 1.250 . S
O42 Mn37 2.121 . S
O42 C50 1.258 . S
C43 N44 1.326 . S
C43 C47 1.460 . S
C43 H49 0.929 . S
N44 Mn37 2.257 . S
N44 C43 1.326 . S
N44 C48 1.362 . S
C45 C46 1.258 . S
C45 C48 1.431 . S
C45 C65 1.449 . S
C46 C45 1.258 . S
C46 C47 1.477 . S
C46 H66 0.931 . S
C47 C43 1.460 . S
C47 C46 1.477 . S
C47 H67 0.930 . S
C48 N44 1.362 . S
C48 C45 1.431 . S
C48 C58 1.476 . S
H49 C43 0.929 . S
C50 O41 1.250 . S
C50 O42 1.258 . S
O51 Mn36 2.162 . S
O51 C39 1.281 . S
O52 Mn36 2.297 . S
O52 C39 1.236 . S
N53 Mn37 2.282 . S
N53 C54 1.328 . S
N53 C58 1.318 . S
C54 N53 1.328 . S
C54 C55 1.457 . S
C54 H59 0.929 . S
C55 C54 1.457 . S
C55 C56 1.291 . S
C55 H68 0.931 . S
C56 C55 1.291 . S
C56 C57 1.373 . S
C56 H69 0.929 . S
C57 C56 1.373 . S
C57 C58 1.396 . S
C57 C64 1.403 . S
C58 C48 1.476 . S
C58 N53 1.318 . S
C58 C57 1.396 . S
H59 C54 0.929 . S
O60 Mn36 2.385 . S
O60 C38 1.234 . S
O61 Mn36 2.209 . S
O61 Mn37 2.215 . S
O61 C38 1.283 . S
O62 Mn36 2.094 . S
O62 C40 1.240 . S
O63 Mn37 2.117 . S
O63 C40 1.264 . S
C64 C57 1.403 . S
C64 C65 1.399 . S
C64 H70 0.929 . S
C65 C45 1.449 . S
C65 C64 1.399 . S
C65 H71 0.930 . S
H66 C46 0.931 . S
H67 C47 0.930 . S
H68 C55 0.931 . S
H69 C56 0.929 . S
H70 C64 0.929 . S
H71 C65 0.930 . S
Mn72 O77 2.095 1_455 S
Mn72 O87 2.162 . S
Mn72 O88 2.297 . S
Mn72 O96 2.385 . S
Mn72 O97 2.209 1_455 S
Mn72 O98 2.094 . S
Mn73 O78 2.121 . S
Mn73 N80 2.257 . S
Mn73 N89 2.282 . S
Mn73 O97 2.215 . S
Mn73 O99 2.117 . S
C74 O96 1.234 . S
C74 O97 1.283 1_455 S
C75 O87 1.281 . S
C75 O88 1.236 . S
C76 O98 1.240 . S
C76 O99 1.264 1_455 S
O77 Mn72 2.095 1_655 S
O77 C86 1.250 . S
O78 Mn73 2.121 . S
O78 C86 1.258 . S
C79 N80 1.326 . S
C79 C83 1.460 . S
C79 H85 0.929 . S
N80 Mn73 2.257 . S
N80 C79 1.326 . S
N80 C84 1.362 . S
C81 C82 1.258 . S
C81 C84 1.431 . S
C81 C101 1.449 . S
C82 C81 1.258 . S
C82 C83 1.477 . S
C82 H102 0.931 . S
C83 C79 1.460 . S
C83 C82 1.477 . S
C83 H103 0.930 . S
C84 N80 1.362 . S
C84 C81 1.431 . S
C84 C94 1.476 . S
H85 C79 0.929 . S
C86 O77 1.250 . S
C86 O78 1.258 . S
O87 Mn72 2.162 . S
O87 C75 1.281 . S
O88 Mn72 2.297 . S
O88 C75 1.236 . S
N89 Mn73 2.282 . S
N89 C90 1.328 . S
N89 C94 1.318 . S
C90 N89 1.328 . S
C90 C91 1.457 . S
C90 H95 0.929 . S
C91 C90 1.457 . S
C91 C92 1.291 . S
C91 H104 0.931 1_655 S
C92 C91 1.291 . S
C92 C93 1.373 . S
C92 H105 0.929 . S
C93 C92 1.373 . S
C93 C94 1.396 . S
C93 C100 1.403 . S
C94 C84 1.476 . S
C94 N89 1.318 . S
C94 C93 1.396 . S
H95 C90 0.929 . S
O96 Mn72 2.385 . S
O96 C74 1.234 . S
O97 Mn72 2.209 1_655 S
O97 Mn73 2.215 . S
O97 C74 1.283 1_655 S
O98 Mn72 2.094 . S
O98 C76 1.240 . S
O99 Mn73 2.117 . S
O99 C76 1.264 1_655 S
C100 C93 1.403 . S
C100 C101 1.399 . S
C100 H106 0.929 . S
C101 C81 1.449 . S
C101 C100 1.399 . S
C101 H107 0.930 . S
H102 C82 0.931 . S
H103 C83 0.930 . S
H104 C91 0.931 1_455 S
H105 C92 0.929 . S
H106 C100 0.929 . S
H107 C101 0.930 . S
Mn108 O113 2.095 1_545 S
Mn108 O123 2.162 . S
Mn108 O124 2.297 . S
Mn108 O132 2.385 . S
Mn108 O133 2.209 . S
Mn108 O134 2.094 . S
Mn109 O114 2.121 . S
Mn109 N116 2.257 . S
Mn109 N125 2.282 . S
Mn109 O133 2.215 1_565 S
Mn109 O135 2.117 . S
C110 O132 1.234 . S
C110 O133 1.283 . S
C111 O123 1.281 . S
C111 O124 1.236 . S
C112 O134 1.240 . S
C112 O135 1.264 1_545 S
O113 Mn108 2.095 1_565 S
O113 C122 1.250 . S
O114 Mn109 2.121 . S
O114 C122 1.258 . S
C115 N116 1.326 . S
C115 C119 1.460 . S
C115 H121 0.929 . S
N116 Mn109 2.257 . S
N116 C115 1.326 . S
N116 C120 1.362 . S
C117 C118 1.258 . S
C117 C120 1.431 . S
C117 C137 1.449 . S
C118 C117 1.258 . S
C118 C119 1.477 . S
C118 H138 0.931 . S
C119 C115 1.460 . S
C119 C118 1.477 . S
C119 H139 0.930 . S
C120 N116 1.362 . S
C120 C117 1.431 . S
C120 C130 1.476 . S
H121 C115 0.929 . S
C122 O113 1.250 . S
C122 O114 1.258 . S
O123 Mn108 2.162 . S
O123 C111 1.281 . S
O124 Mn108 2.297 . S
O124 C111 1.236 . S
N125 Mn109 2.282 . S
N125 C126 1.328 . S
N125 C130 1.318 . S
C126 N125 1.328 . S
C126 C127 1.457 . S
C126 H131 0.929 1_565 S
C127 C126 1.457 . S
C127 C128 1.291 . S
C127 H140 0.931 1_565 S
C128 C127 1.291 . S
C128 C129 1.373 . S
C128 H141 0.929 . S
C129 C128 1.373 . S
C129 C130 1.396 . S
C129 C136 1.403 . S
C130 C120 1.476 . S
C130 N125 1.318 . S
C130 C129 1.396 . S
H131 C126 0.929 1_545 S
O132 Mn108 2.385 . S
O132 C110 1.234 . S
O133 Mn108 2.209 . S
O133 Mn109 2.215 1_545 S
O133 C110 1.283 . S
O134 Mn108 2.094 . S
O134 C112 1.240 . S
O135 Mn109 2.117 . S
O135 C112 1.264 1_565 S
C136 C129 1.403 . S
C136 C137 1.399 . S
C136 H142 0.929 . S
C137 C117 1.449 . S
C137 C136 1.399 . S
C137 H143 0.930 . S
H138 C118 0.931 . S
H139 C119 0.930 . S
H140 C127 0.931 1_545 S
H141 C128 0.929 . S
H142 C136 0.929 . S
H143 C137 0.930 . S
Mn144 O149 2.095 . S
Mn144 O159 2.162 . S
Mn144 O160 2.297 . S
Mn144 O168 2.385 . S
Mn144 O169 2.209 . S
Mn144 O170 2.094 . S
Mn145 O150 2.121 . S
Mn145 N152 2.257 . S
Mn145 N161 2.282 . S
Mn145 O169 2.215 . S
Mn145 O171 2.117 . S
C146 O168 1.234 . S
C146 O169 1.283 . S
C147 O159 1.281 . S
C147 O160 1.236 . S
C148 O170 1.240 . S
C148 O171 1.264 . S
O149 Mn144 2.095 . S
O149 C158 1.250 . S
O150 Mn145 2.121 . S
O150 C158 1.258 . S
C151 N152 1.326 . S
C151 C155 1.460 . S
C151 H157 0.929 . S
N152 Mn145 2.257 . S
N152 C151 1.326 . S
N152 C156 1.362 . S
C153 C154 1.258 . S
C153 C156 1.431 . S
C153 C173 1.449 . S
C154 C153 1.258 . S
C154 C155 1.477 . S
C154 H174 0.931 . S
C155 C151 1.460 . S
C155 C154 1.477 . S
C155 H175 0.930 . S
C156 N152 1.362 . S
C156 C153 1.431 . S
C156 C166 1.476 . S
H157 C151 0.929 . S
C158 O149 1.250 . S
C158 O150 1.258 . S
O159 Mn144 2.162 . S
O159 C147 1.281 . S
O160 Mn144 2.297 . S
O160 C147 1.236 . S
N161 Mn145 2.282 . S
N161 C162 1.328 . S
N161 C166 1.318 . S
C162 N161 1.328 . S
C162 C163 1.457 . S
C162 H167 0.929 . S
C163 C162 1.457 . S
C163 C164 1.291 . S
C163 H176 0.931 . S
C164 C163 1.291 . S
C164 C165 1.373 . S
C164 H177 0.929 . S
C165 C164 1.373 . S
C165 C166 1.396 . S
C165 C172 1.403 . S
C166 C156 1.476 . S
C166 N161 1.318 . S
C166 C165 1.396 . S
H167 C162 0.929 . S
O168 Mn144 2.385 . S
O168 C146 1.234 . S
O169 Mn144 2.209 . S
O169 Mn145 2.215 . S
O169 C146 1.283 . S
O170 Mn144 2.094 . S
O170 C148 1.240 . S
O171 Mn145 2.117 . S
O171 C148 1.264 . S
C172 C165 1.403 . S
C172 C173 1.399 . S
C172 H178 0.929 . S
C173 C153 1.449 . S
C173 C172 1.399 . S
C173 H179 0.930 . S
H174 C154 0.931 . S
H175 C155 0.930 . S
H176 C163 0.931 . S
H177 C164 0.929 . S
H178 C172 0.929 . S
H179 C173 0.930 . S
Mn180 O185 2.095 . S
Mn180 O195 2.162 1_455 S
Mn180 O196 2.297 1_455 S
Mn180 O204 2.385 1_455 S
Mn180 O205 2.209 . S
Mn180 O206 2.094 1_455 S
Mn181 O186 2.121 . S
Mn181 N188 2.257 . S
Mn181 N197 2.282 . S
Mn181 O205 2.215 . S
Mn181 O207 2.117 . S
C182 O204 1.234 1_455 S
C182 O205 1.283 . S
C183 O195 1.281 . S
C183 O196 1.236 . S
C184 O206 1.240 1_455 S
C184 O207 1.264 . S
O185 Mn180 2.095 . S
O185 C194 1.250 . S
O186 Mn181 2.121 . S
O186 C194 1.258 . S
C187 N188 1.326 . S
C187 C191 1.460 1_556 S
C187 H193 0.929 . S
N188 Mn181 2.257 . S
N188 C187 1.326 . S
N188 C192 1.362 1_556 S
C189 C190 1.258 . S
C189 C192 1.431 . S
C189 C209 1.449 . S
C190 C189 1.258 . S
C190 C191 1.477 . S
C190 H210 0.931 . S
C191 C187 1.460 1_554 S
C191 C190 1.477 . S
C191 H211 0.930 . S
C192 N188 1.362 1_554 S
C192 C189 1.431 . S
C192 C202 1.476 1_554 S
H193 C187 0.929 . S
C194 O185 1.250 . S
C194 O186 1.258 . S
O195 Mn180 2.162 1_655 S
O195 C183 1.281 . S
O196 Mn180 2.297 1_655 S
O196 C183 1.236 . S
N197 Mn181 2.282 . S
N197 C198 1.328 . S
N197 C202 1.318 . S
C198 N197 1.328 . S
C198 C199 1.457 . S
C198 H203 0.929 . S
C199 C198 1.457 . S
C199 C200 1.291 . S
C199 H212 0.931 . S
C200 C199 1.291 . S
C200 C201 1.373 1_556 S
C200 H213 0.929 1_556 S
C201 C200 1.373 1_554 S
C201 C202 1.396 1_554 S
C201 C208 1.403 . S
C202 C192 1.476 1_556 S
C202 N197 1.318 . S
C202 C201 1.396 1_556 S
H203 C198 0.929 . S
O204 Mn180 2.385 1_655 S
O204 C182 1.234 1_655 S
O205 Mn180 2.209 . S
O205 Mn181 2.215 . S
O205 C182 1.283 . S
O206 Mn180 2.094 1_655 S
O206 C184 1.240 1_655 S
O207 Mn181 2.117 . S
O207 C184 1.264 . S
C208 C201 1.403 . S
C208 C209 1.399 . S
C208 H214 0.929 . S
C209 C189 1.449 . S
C209 C208 1.399 . S
C209 H215 0.930 . S
H210 C190 0.931 . S
H211 C191 0.930 . S
H212 C199 0.931 . S
H213 C200 0.929 1_554 S
H214 C208 0.929 . S
H215 C209 0.930 . S
H216 C222 0.930 1_565 S
H217 C226 0.930 . S
H218 C231 0.929 . S
H219 C229 0.929 1_565 S
H220 C224 0.929 . S
H221 C230 0.929 1_565 S
C222 H216 0.930 1_545 S
C222 C223 1.367 . S
C222 C230 1.378 . S
C223 C222 1.367 . S
C223 C231 1.433 . S
C224 H220 0.929 . S
C224 C226 1.378 . S
C224 C228 1.350 . S
C225 C228 1.463 . S
C225 C230 1.350 . S
C225 N233 1.427 . S
C226 H217 0.930 . S
C226 C224 1.378 . S
C226 C227 1.367 . S
C227 C226 1.367 . S
C227 C229 1.433 . S
C228 C224 1.350 . S
C228 C225 1.463 . S
C228 N232 1.427 . S
C229 H219 0.929 1_545 S
C229 C227 1.433 . S
C229 N232 1.384 . S
C230 H221 0.929 1_545 S
C230 C222 1.378 . S
C230 C225 1.350 . S
C231 H218 0.929 . S
C231 C223 1.433 . S
C231 N233 1.384 . S
N232 C228 1.427 . S
N232 C229 1.384 . S
N233 C225 1.427 . S
N233 C231 1.384 . S
H234 C240 0.930 . S
H235 C244 0.930 . S
H236 C249 0.929 . S
H237 C247 0.929 . S
H238 C242 0.929 . S
H239 C248 0.929 . S
C240 H234 0.930 . S
C240 C241 1.367 . S
C240 C248 1.378 . S
C241 C240 1.367 . S
C241 C249 1.433 . S
C242 H238 0.929 . S
C242 C244 1.378 . S
C242 C246 1.350 . S
C243 C246 1.463 . S
C243 C248 1.350 . S
C243 N251 1.427 . S
C244 H235 0.930 . S
C244 C242 1.378 . S
C244 C245 1.367 . S
C245 C244 1.367 . S
C245 C247 1.433 . S
C246 C242 1.350 . S
C246 C243 1.463 . S
C246 N250 1.427 . S
C247 H237 0.929 . S
C247 C245 1.433 . S
C247 N250 1.384 . S
C248 H239 0.929 . S
C248 C240 1.378 . S
C248 C243 1.350 . S
C249 H236 0.929 . S
C249 C241 1.433 . S
C249 N251 1.384 . S
N250 C246 1.427 . S
N250 C247 1.384 . S
N251 C243 1.427 . S
N251 C249 1.384 . S
H252 C258 0.930 . S
H253 C262 0.930 . S
H254 C267 0.929 . S
H255 C265 0.929 . S
H256 C260 0.929 . S
H257 C266 0.929 . S
C258 H252 0.930 . S
C258 C259 1.367 . S
C258 C266 1.378 . S
C259 C258 1.367 . S
C259 C267 1.433 1_455 S
C260 H256 0.929 . S
C260 C262 1.378 . S
C260 C264 1.350 1_655 S
C261 C264 1.463 . S
C261 C266 1.350 . S
C261 N269 1.427 1_455 S
C262 H253 0.930 . S
C262 C260 1.378 . S
C262 C263 1.367 1_655 S
C263 C262 1.367 1_455 S
C263 C265 1.433 . S
C264 C260 1.350 1_455 S
C264 C261 1.463 . S
C264 N268 1.427 . S
C265 H255 0.929 . S
C265 C263 1.433 . S
C265 N268 1.384 . S
C266 H257 0.929 . S
C266 C258 1.378 . S
C266 C261 1.350 . S
C267 H254 0.929 . S
C267 C259 1.433 1_655 S
C267 N269 1.384 . S
N268 C264 1.427 . S
N268 C265 1.384 . S
N269 C261 1.427 1_655 S
N269 C267 1.384 . S
H270 C276 0.930 . S
H271 C280 0.924 1_565 S
H272 C285 0.938 . S
H273 C283 0.929 . S
H274 C278 0.916 1_565 S
H275 C284 0.929 . S
C276 H270 0.930 . S
C276 C277 1.367 . S
C276 C284 1.378 . S
C277 C276 1.367 . S
C277 C285 1.430 1_545 S
C278 H274 0.916 1_545 S
C278 C280 1.375 . S
C278 C282 1.355 . S
C279 C282 1.463 . S
C279 C284 1.350 . S
C279 N287 1.428 . S
C280 H271 0.924 1_545 S
C280 C278 1.375 . S
C280 C281 1.384 . S
C281 C280 1.384 . S
C281 C283 1.433 . S
C282 C278 1.355 . S
C282 C279 1.463 . S
C282 N286 1.427 . S
C283 H273 0.929 . S
C283 C281 1.433 . S
C283 N286 1.384 . S
C284 H275 0.929 . S
C284 C276 1.378 . S
C284 C279 1.350 . S
C285 H272 0.938 . S
C285 C277 1.430 1_565 S
C285 N287 1.378 1_565 S
N286 C282 1.427 . S
N286 C283 1.384 . S
N287 C279 1.428 . S
N287 C285 1.378 1_545 S
H288 C294 0.930 . S
H289 C298 0.930 . S
H290 C303 0.929 . S
H291 C301 0.929 . S
H292 C296 0.929 . S
H293 C302 0.929 . S
C294 H288 0.930 . S
C294 C295 1.367 . S
C294 C302 1.378 1_554 S
C295 C294 1.367 . S
C295 C303 1.433 . S
C296 H292 0.929 . S
C296 C298 1.378 . S
C296 C300 1.350 . S
C297 C300 1.463 . S
C297 C302 1.350 . S
C297 N305 1.427 1_556 S
C298 H289 0.930 . S
C298 C296 1.378 . S
C298 C299 1.367 . S
C299 C298 1.367 . S
C299 C301 1.433 . S
C300 C296 1.350 . S
C300 C297 1.463 . S
C300 N304 1.427 . S
C301 H291 0.929 . S
C301 C299 1.433 . S
C301 N304 1.384 . S
C302 H293 0.929 . S
C302 C294 1.378 1_556 S
C302 C297 1.350 . S
C303 H290 0.929 . S
C303 C295 1.433 . S
C303 N305 1.384 . S
N304 C300 1.427 . S
N304 C301 1.384 . S
N305 C297 1.427 1_554 S
N305 C303 1.384 . S
H306 C312 0.930 1_655 S
H307 C316 0.930 . S
H308 C321 0.929 1_556 S
H309 C319 0.929 1_655 S
H310 C314 0.929 . S
H311 C320 0.929 1_655 S
C312 H306 0.930 1_455 S
C312 C313 1.367 . S
C312 C320 1.378 . S
C313 C312 1.367 . S
C313 C321 1.433 . S
C314 H310 0.929 . S
C314 C316 1.378 . S
C314 C318 1.350 . S
C315 C318 1.463 . S
C315 C320 1.350 . S
C315 N323 1.427 . S
C316 H307 0.930 . S
C316 C314 1.378 . S
C316 C317 1.367 . S
C317 C316 1.367 . S
C317 C319 1.433 . S
C318 C314 1.350 . S
C318 C315 1.463 . S
C318 N322 1.427 . S
C319 H309 0.929 1_455 S
C319 C317 1.433 . S
C319 N322 1.384 . S
C320 H311 0.929 1_455 S
C320 C312 1.378 . S
C320 C315 1.350 . S
C321 H308 0.929 1_554 S
C321 C313 1.433 . S
C321 N323 1.384 . S
N322 C318 1.427 . S
N322 C319 1.384 . S
N323 C315 1.427 . S
N323 C321 1.384 . S
H324 C330 0.930 . S
H325 C334 0.930 . S
H326 C339 0.929 . S
H327 C337 0.929 . S
H328 C332 0.929 . S
H329 C338 0.929 . S
C330 H324 0.930 . S
C330 C331 1.367 . S
C330 C338 1.378 . S
C331 C330 1.367 . S
C331 C339 1.433 . S
C332 H328 0.929 . S
C332 C334 1.378 . S
C332 C336 1.350 . S
C333 C336 1.463 . S
C333 C338 1.350 . S
C333 N341 1.427 . S
C334 H325 0.930 . S
C334 C332 1.378 . S
C334 C335 1.367 . S
C335 C334 1.367 . S
C335 C337 1.433 . S
C336 C332 1.350 . S
C336 C333 1.463 . S
C336 N340 1.427 . S
C337 H327 0.929 . S
C337 C335 1.433 . S
C337 N340 1.384 . S
C338 H329 0.929 . S
C338 C330 1.378 . S
C338 C333 1.350 . S
C339 H326 0.929 . S
C339 C331 1.433 . S
C339 N341 1.384 . S
N340 C336 1.427 . S
N340 C337 1.384 . S
N341 C333 1.427 . S
N341 C339 1.384 . S
H342 C348 0.930 . S
H343 C352 0.930 . S
H344 C357 0.929 . S
H345 C355 0.929 . S
H346 C350 0.929 . S
H347 C356 0.929 . S
C348 H342 0.930 . S
C348 C349 1.367 . S
C348 C356 1.378 . S
C349 C348 1.367 . S
C349 C357 1.433 . S
C350 H346 0.929 . S
C350 C352 1.378 . S
C350 C354 1.350 . S
C351 C354 1.463 . S
C351 C356 1.350 . S
C351 N359 1.427 . S
C352 H343 0.930 . S
C352 C350 1.378 . S
C352 C353 1.367 . S
C353 C352 1.367 . S
C353 C355 1.433 . S
C354 C350 1.350 . S
C354 C351 1.463 . S
C354 N358 1.427 . S
C355 H345 0.929 . S
C355 C353 1.433 . S
C355 N358 1.384 . S
C356 H347 0.929 . S
C356 C348 1.378 . S
C356 C351 1.350 . S
C357 H344 0.929 . S
C357 C349 1.433 . S
C357 N359 1.384 . S
N358 C354 1.427 . S
N358 C355 1.384 . S
N359 C351 1.427 . S
N359 C357 1.384 . S
H360 C366 0.930 . S
H361 C370 0.930 . S
H362 C375 0.929 . S
H363 C373 0.929 . S
H364 C368 0.929 . S
H365 C374 0.929 . S
C366 H360 0.930 . S
C366 C367 1.367 . S
C366 C374 1.378 . S
C367 C366 1.367 . S
C367 C375 1.433 . S
C368 H364 0.929 . S
C368 C370 1.378 . S
C368 C372 1.350 . S
C369 C372 1.463 . S
C369 C374 1.350 . S
C369 N377 1.427 . S
C370 H361 0.930 . S
C370 C368 1.378 . S
C370 C371 1.367 . S
C371 C370 1.367 . S
C371 C373 1.433 . S
C372 C368 1.350 . S
C372 C369 1.463 . S
C372 N376 1.427 . S
C373 H363 0.929 . S
C373 C371 1.433 . S
C373 N376 1.384 . S
C374 H365 0.929 . S
C374 C366 1.378 . S
C374 C369 1.350 . S
C375 H362 0.929 . S
C375 C367 1.433 . S
C375 N377 1.384 . S
N376 C372 1.427 . S
N376 C373 1.384 . S
N377 C369 1.427 . S
N377 C375 1.384 . S
H378 C384 0.930 . S
H379 C388 0.930 . S
H380 C393 0.929 . S
H381 C391 0.929 . S
H382 C386 0.929 . S
H383 C392 0.929 . S
C384 H378 0.930 . S
C384 C385 1.367 . S
C384 C392 1.378 . S
C385 C384 1.367 . S
C385 C393 1.433 . S
C386 H382 0.929 . S
C386 C388 1.378 . S
C386 C390 1.350 . S
C387 C390 1.463 . S
C387 C392 1.350 . S
C387 N395 1.427 . S
C388 H379 0.930 . S
C388 C386 1.378 . S
C388 C389 1.367 . S
C389 C388 1.367 . S
C389 C391 1.433 . S
C390 C386 1.350 . S
C390 C387 1.463 . S
C390 N394 1.427 . S
C391 H381 0.929 . S
C391 C389 1.433 . S
C391 N394 1.384 . S
C392 H383 0.929 . S
C392 C384 1.378 . S
C392 C387 1.350 . S
C393 H380 0.929 . S
C393 C385 1.433 . S
C393 N395 1.384 . S
N394 C390 1.427 . S
N394 C391 1.384 . S
N395 C387 1.427 . S
N395 C393 1.384 . S
H396 C402 0.930 . S
H397 C406 0.930 . S
H398 C411 0.929 . S
H399 C409 0.929 . S
H400 C404 0.929 . S
H401 C410 0.929 . S
C402 H396 0.930 . S
C402 C403 1.367 . S
C402 C410 1.378 . S
C403 C402 1.367 . S
C403 C411 1.433 . S
C404 H400 0.929 . S
C404 C406 1.378 . S
C404 C408 1.350 . S
C405 C408 1.463 . S
C405 C410 1.350 . S
C405 N413 1.427 . S
C406 H397 0.930 . S
C406 C404 1.378 . S
C406 C407 1.367 . S
C407 C406 1.367 . S
C407 C409 1.433 . S
C408 C404 1.350 . S
C408 C405 1.463 . S
C408 N412 1.427 . S
C409 H399 0.929 . S
C409 C407 1.433 . S
C409 N412 1.384 . S
C410 H401 0.929 . S
C410 C402 1.378 . S
C410 C405 1.350 . S
C411 H398 0.929 . S
C411 C403 1.433 . S
C411 N413 1.384 . S
N412 C408 1.427 . S
N412 C409 1.384 . S
N413 C405 1.427 . S
N413 C411 1.384 . S
H414 C420 0.930 . S
H415 C424 0.930 . S
H416 C429 0.929 . S
H417 C427 0.929 . S
H418 C422 0.929 . S
H419 C428 0.929 . S
C420 H414 0.930 . S
C420 C421 1.367 1_554 S
C420 C428 1.378 . S
C421 C420 1.367 1_556 S
C421 C429 1.433 . S
C422 H418 0.929 . S
C422 C424 1.378 . S
C422 C426 1.350 . S
C423 C426 1.463 . S
C423 C428 1.350 1_556 S
C423 N431 1.427 . S
C424 H415 0.930 . S
C424 C422 1.378 . S
C424 C425 1.367 1_556 S
C425 C424 1.367 1_554 S
C425 C427 1.433 . S
C426 C422 1.350 . S
C426 C423 1.463 . S
C426 N430 1.427 1_556 S
C427 H417 0.929 . S
C427 C425 1.433 . S
C427 N430 1.384 . S
C428 H419 0.929 . S
C428 C420 1.378 . S
C428 C423 1.350 1_554 S
C429 H416 0.929 . S
C429 C421 1.433 . S
C429 N431 1.384 . S
N430 C426 1.427 1_554 S
N430 C427 1.384 . S
N431 C423 1.427 . S
N431 C429 1.384 . S
C223 C2 1.589 . S
C227 C112 1.597 . S
C241 C38 1.592 . S
C245 C148 1.595 . S
C259 C184 1.593 . S
C263 C74 1.591 . S
C277 C4 1.594 . S
C281 C110 1.592 . S
C295 C40 1.597 . S
C299 C146 1.588 . S
C313 C182 1.590 1_554 S
C317 C76 1.597 . S
C331 C50 1.302 . S
C335 C3 1.379 . S
C349 C86 1.315 . S
C353 C39 1.375 . S
C367 C75 1.377 . S
C371 C122 1.303 . S
C385 C158 1.307 . S
C389 C111 1.376 . S
C403 C194 1.314 . S
C407 C147 1.376 . S
C421 C183 1.378 . S
C425 C14 1.307 . S
