# Generated by pormake.
# Topology fcr, (5)-cn, num edge types: 1
# Building blocks:
#     Node 0, Type 0, BuildingBlock: XOMCOT_clean_sbu_1, # of connection points: 5
#     Node 1, Type 0, BuildingBlock: XOMCOT_clean_sbu_1, # of connection points: 5
#     Node 2, Type 0, BuildingBlock: XOMCOT_clean_sbu_1, # of connection points: 5
#     Node 3, Type 0, BuildingBlock: XOMCOT_clean_sbu_1, # of connection points: 5
#     Node 4, Type 0, BuildingBlock: XOMCOT_clean_sbu_1, # of connection points: 5
#     Node 5, Type 0, BuildingBlock: XOMCOT_clean_sbu_1, # of connection points: 5
#     Node 6, Type 0, BuildingBlock: XOMCOT_clean_sbu_1, # of connection points: 5
#     Node 7, Type 0, BuildingBlock: XOMCOT_clean_sbu_1, # of connection points: 5
#     Node 8, Type 0, BuildingBlock: XOMCOT_clean_sbu_1, # of connection points: 5
#     Node 9, Type 0, BuildingBlock: XOMCOT_clean_sbu_1, # of connection points: 5
#     Node 10, Type 0, BuildingBlock: XOMCOT_clean_sbu_1, # of connection points: 5
#     Node 11, Type 0, BuildingBlock: XOMCOT_clean_sbu_1, # of connection points: 5
#     Node 12, Type 0, BuildingBlock: XOMCOT_clean_sbu_1, # of connection points: 5
#     Node 13, Type 0, BuildingBlock: XOMCOT_clean_sbu_1, # of connection points: 5
#     Node 14, Type 0, BuildingBlock: XOMCOT_clean_sbu_1, # of connection points: 5
#     Node 15, Type 0, BuildingBlock: XOMCOT_clean_sbu_1, # of connection points: 5
#     Node 16, Type 0, BuildingBlock: XOMCOT_clean_sbu_1, # of connection points: 5
#     Node 17, Type 0, BuildingBlock: XOMCOT_clean_sbu_1, # of connection points: 5
#     Node 18, Type 0, BuildingBlock: XOMCOT_clean_sbu_1, # of connection points: 5
#     Node 19, Type 0, BuildingBlock: XOMCOT_clean_sbu_1, # of connection points: 5
#     Node 20, Type 0, BuildingBlock: XOMCOT_clean_sbu_1, # of connection points: 5
#     Node 21, Type 0, BuildingBlock: XOMCOT_clean_sbu_1, # of connection points: 5
#     Node 22, Type 0, BuildingBlock: XOMCOT_clean_sbu_1, # of connection points: 5
#     Node 23, Type 0, BuildingBlock: XOMCOT_clean_sbu_1, # of connection points: 5
#     Node 24, Type 0, BuildingBlock: XOMCOT_clean_sbu_1, # of connection points: 5
#     Node 25, Type 0, BuildingBlock: XOMCOT_clean_sbu_1, # of connection points: 5
#     Node 26, Type 0, BuildingBlock: XOMCOT_clean_sbu_1, # of connection points: 5
#     Node 27, Type 0, BuildingBlock: XOMCOT_clean_sbu_1, # of connection points: 5
#     Node 28, Type 0, BuildingBlock: XOMCOT_clean_sbu_1, # of connection points: 5
#     Node 29, Type 0, BuildingBlock: XOMCOT_clean_sbu_1, # of connection points: 5
#     Node 30, Type 0, BuildingBlock: XOMCOT_clean_sbu_1, # of connection points: 5
#     Node 31, Type 0, BuildingBlock: XOMCOT_clean_sbu_1, # of connection points: 5
#     Node 32, Type 0, BuildingBlock: XOMCOT_clean_sbu_1, # of connection points: 5
#     Node 33, Type 0, BuildingBlock: XOMCOT_clean_sbu_1, # of connection points: 5
#     Node 34, Type 0, BuildingBlock: XOMCOT_clean_sbu_1, # of connection points: 5
#     Node 35, Type 0, BuildingBlock: XOMCOT_clean_sbu_1, # of connection points: 5
#     Node 36, Type 0, BuildingBlock: XOMCOT_clean_sbu_1, # of connection points: 5
#     Node 37, Type 0, BuildingBlock: XOMCOT_clean_sbu_1, # of connection points: 5
#     Node 38, Type 0, BuildingBlock: XOMCOT_clean_sbu_1, # of connection points: 5
#     Node 39, Type 0, BuildingBlock: XOMCOT_clean_sbu_1, # of connection points: 5
#     Node 40, Type 0, BuildingBlock: XOMCOT_clean_sbu_1, # of connection points: 5
#     Node 41, Type 0, BuildingBlock: XOMCOT_clean_sbu_1, # of connection points: 5
#     Node 42, Type 0, BuildingBlock: XOMCOT_clean_sbu_1, # of connection points: 5
#     Node 43, Type 0, BuildingBlock: XOMCOT_clean_sbu_1, # of connection points: 5
#     Node 44, Type 0, BuildingBlock: XOMCOT_clean_sbu_1, # of connection points: 5
#     Node 45, Type 0, BuildingBlock: XOMCOT_clean_sbu_1, # of connection points: 5
#     Node 46, Type 0, BuildingBlock: XOMCOT_clean_sbu_1, # of connection points: 5
#     Node 47, Type 0, BuildingBlock: XOMCOT_clean_sbu_1, # of connection points: 5
#     Edge 48, Type (0, 0), BuildingBlock: XIVTED_clean_linker_0, # of connection points: 2
#     Edge 49, Type (0, 0), BuildingBlock: XIVTED_clean_linker_0, # of connection points: 2
#     Edge 50, Type (0, 0), BuildingBlock: XIVTED_clean_linker_0, # of connection points: 2
#     Edge 51, Type (0, 0), BuildingBlock: XIVTED_clean_linker_0, # of connection points: 2
#     Edge 52, Type (0, 0), BuildingBlock: XIVTED_clean_linker_0, # of connection points: 2
#     Edge 53, Type (0, 0), BuildingBlock: XIVTED_clean_linker_0, # of connection points: 2
#     Edge 54, Type (0, 0), BuildingBlock: XIVTED_clean_linker_0, # of connection points: 2
#     Edge 55, Type (0, 0), BuildingBlock: XIVTED_clean_linker_0, # of connection points: 2
#     Edge 56, Type (0, 0), BuildingBlock: XIVTED_clean_linker_0, # of connection points: 2
#     Edge 57, Type (0, 0), BuildingBlock: XIVTED_clean_linker_0, # of connection points: 2
#     Edge 58, Type (0, 0), BuildingBlock: XIVTED_clean_linker_0, # of connection points: 2
#     Edge 59, Type (0, 0), BuildingBlock: XIVTED_clean_linker_0, # of connection points: 2
#     Edge 60, Type (0, 0), BuildingBlock: XIVTED_clean_linker_0, # of connection points: 2
#     Edge 61, Type (0, 0), BuildingBlock: XIVTED_clean_linker_0, # of connection points: 2
#     Edge 62, Type (0, 0), BuildingBlock: XIVTED_clean_linker_0, # of connection points: 2
#     Edge 63, Type (0, 0), BuildingBlock: XIVTED_clean_linker_0, # of connection points: 2
#     Edge 64, Type (0, 0), BuildingBlock: XIVTED_clean_linker_0, # of connection points: 2
#     Edge 65, Type (0, 0), BuildingBlock: XIVTED_clean_linker_0, # of connection points: 2
#     Edge 66, Type (0, 0), BuildingBlock: XIVTED_clean_linker_0, # of connection points: 2
#     Edge 67, Type (0, 0), BuildingBlock: XIVTED_clean_linker_0, # of connection points: 2
#     Edge 68, Type (0, 0), BuildingBlock: XIVTED_clean_linker_0, # of connection points: 2
#     Edge 69, Type (0, 0), BuildingBlock: XIVTED_clean_linker_0, # of connection points: 2
#     Edge 70, Type (0, 0), BuildingBlock: XIVTED_clean_linker_0, # of connection points: 2
#     Edge 71, Type (0, 0), BuildingBlock: XIVTED_clean_linker_0, # of connection points: 2
#     Edge 72, Type (0, 0), BuildingBlock: XIVTED_clean_linker_0, # of connection points: 2
#     Edge 73, Type (0, 0), BuildingBlock: XIVTED_clean_linker_0, # of connection points: 2
#     Edge 74, Type (0, 0), BuildingBlock: XIVTED_clean_linker_0, # of connection points: 2
#     Edge 75, Type (0, 0), BuildingBlock: XIVTED_clean_linker_0, # of connection points: 2
#     Edge 76, Type (0, 0), BuildingBlock: XIVTED_clean_linker_0, # of connection points: 2
#     Edge 77, Type (0, 0), BuildingBlock: XIVTED_clean_linker_0, # of connection points: 2
#     Edge 78, Type (0, 0), BuildingBlock: XIVTED_clean_linker_0, # of connection points: 2
#     Edge 79, Type (0, 0), BuildingBlock: XIVTED_clean_linker_0, # of connection points: 2
#     Edge 80, Type (0, 0), BuildingBlock: XIVTED_clean_linker_0, # of connection points: 2
#     Edge 81, Type (0, 0), BuildingBlock: XIVTED_clean_linker_0, # of connection points: 2
#     Edge 82, Type (0, 0), BuildingBlock: XIVTED_clean_linker_0, # of connection points: 2
#     Edge 83, Type (0, 0), BuildingBlock: XIVTED_clean_linker_0, # of connection points: 2
#     Edge 84, Type (0, 0), BuildingBlock: XIVTED_clean_linker_0, # of connection points: 2
#     Edge 85, Type (0, 0), BuildingBlock: XIVTED_clean_linker_0, # of connection points: 2
#     Edge 86, Type (0, 0), BuildingBlock: XIVTED_clean_linker_0, # of connection points: 2
#     Edge 87, Type (0, 0), BuildingBlock: XIVTED_clean_linker_0, # of connection points: 2
#     Edge 88, Type (0, 0), BuildingBlock: XIVTED_clean_linker_0, # of connection points: 2
#     Edge 89, Type (0, 0), BuildingBlock: XIVTED_clean_linker_0, # of connection points: 2
#     Edge 90, Type (0, 0), BuildingBlock: XIVTED_clean_linker_0, # of connection points: 2
#     Edge 91, Type (0, 0), BuildingBlock: XIVTED_clean_linker_0, # of connection points: 2
#     Edge 92, Type (0, 0), BuildingBlock: XIVTED_clean_linker_0, # of connection points: 2
#     Edge 93, Type (0, 0), BuildingBlock: XIVTED_clean_linker_0, # of connection points: 2
#     Edge 94, Type (0, 0), BuildingBlock: XIVTED_clean_linker_0, # of connection points: 2
#     Edge 95, Type (0, 0), BuildingBlock: XIVTED_clean_linker_0, # of connection points: 2
#     Edge 96, Type (0, 0), BuildingBlock: XIVTED_clean_linker_0, # of connection points: 2
#     Edge 97, Type (0, 0), BuildingBlock: XIVTED_clean_linker_0, # of connection points: 2
#     Edge 98, Type (0, 0), BuildingBlock: XIVTED_clean_linker_0, # of connection points: 2
#     Edge 99, Type (0, 0), BuildingBlock: XIVTED_clean_linker_0, # of connection points: 2
#     Edge 100, Type (0, 0), BuildingBlock: XIVTED_clean_linker_0, # of connection points: 2
#     Edge 101, Type (0, 0), BuildingBlock: XIVTED_clean_linker_0, # of connection points: 2
#     Edge 102, Type (0, 0), BuildingBlock: XIVTED_clean_linker_0, # of connection points: 2
#     Edge 103, Type (0, 0), BuildingBlock: XIVTED_clean_linker_0, # of connection points: 2
#     Edge 104, Type (0, 0), BuildingBlock: XIVTED_clean_linker_0, # of connection points: 2
#     Edge 105, Type (0, 0), BuildingBlock: XIVTED_clean_linker_0, # of connection points: 2
#     Edge 106, Type (0, 0), BuildingBlock: XIVTED_clean_linker_0, # of connection points: 2
#     Edge 107, Type (0, 0), BuildingBlock: XIVTED_clean_linker_0, # of connection points: 2
#     Edge 108, Type (0, 0), BuildingBlock: XIVTED_clean_linker_0, # of connection points: 2
#     Edge 109, Type (0, 0), BuildingBlock: XIVTED_clean_linker_0, # of connection points: 2
#     Edge 110, Type (0, 0), BuildingBlock: XIVTED_clean_linker_0, # of connection points: 2
#     Edge 111, Type (0, 0), BuildingBlock: XIVTED_clean_linker_0, # of connection points: 2
#     Edge 112, Type (0, 0), BuildingBlock: XIVTED_clean_linker_0, # of connection points: 2
#     Edge 113, Type (0, 0), BuildingBlock: XIVTED_clean_linker_0, # of connection points: 2
#     Edge 114, Type (0, 0), BuildingBlock: XIVTED_clean_linker_0, # of connection points: 2
#     Edge 115, Type (0, 0), BuildingBlock: XIVTED_clean_linker_0, # of connection points: 2
#     Edge 116, Type (0, 0), BuildingBlock: XIVTED_clean_linker_0, # of connection points: 2
#     Edge 117, Type (0, 0), BuildingBlock: XIVTED_clean_linker_0, # of connection points: 2
#     Edge 118, Type (0, 0), BuildingBlock: XIVTED_clean_linker_0, # of connection points: 2
#     Edge 119, Type (0, 0), BuildingBlock: XIVTED_clean_linker_0, # of connection points: 2
#     Edge 120, Type (0, 0), BuildingBlock: XIVTED_clean_linker_0, # of connection points: 2
#     Edge 121, Type (0, 0), BuildingBlock: XIVTED_clean_linker_0, # of connection points: 2
#     Edge 122, Type (0, 0), BuildingBlock: XIVTED_clean_linker_0, # of connection points: 2
#     Edge 123, Type (0, 0), BuildingBlock: XIVTED_clean_linker_0, # of connection points: 2
#     Edge 124, Type (0, 0), BuildingBlock: XIVTED_clean_linker_0, # of connection points: 2
#     Edge 125, Type (0, 0), BuildingBlock: XIVTED_clean_linker_0, # of connection points: 2
#     Edge 126, Type (0, 0), BuildingBlock: XIVTED_clean_linker_0, # of connection points: 2
#     Edge 127, Type (0, 0), BuildingBlock: XIVTED_clean_linker_0, # of connection points: 2
#     Edge 128, Type (0, 0), BuildingBlock: XIVTED_clean_linker_0, # of connection points: 2
#     Edge 129, Type (0, 0), BuildingBlock: XIVTED_clean_linker_0, # of connection points: 2
#     Edge 130, Type (0, 0), BuildingBlock: XIVTED_clean_linker_0, # of connection points: 2
#     Edge 131, Type (0, 0), BuildingBlock: XIVTED_clean_linker_0, # of connection points: 2
#     Edge 132, Type (0, 0), BuildingBlock: XIVTED_clean_linker_0, # of connection points: 2
#     Edge 133, Type (0, 0), BuildingBlock: XIVTED_clean_linker_0, # of connection points: 2
#     Edge 134, Type (0, 0), BuildingBlock: XIVTED_clean_linker_0, # of connection points: 2
#     Edge 135, Type (0, 0), BuildingBlock: XIVTED_clean_linker_0, # of connection points: 2
#     Edge 136, Type (0, 0), BuildingBlock: XIVTED_clean_linker_0, # of connection points: 2
#     Edge 137, Type (0, 0), BuildingBlock: XIVTED_clean_linker_0, # of connection points: 2
#     Edge 138, Type (0, 0), BuildingBlock: XIVTED_clean_linker_0, # of connection points: 2
#     Edge 139, Type (0, 0), BuildingBlock: XIVTED_clean_linker_0, # of connection points: 2
#     Edge 140, Type (0, 0), BuildingBlock: XIVTED_clean_linker_0, # of connection points: 2
#     Edge 141, Type (0, 0), BuildingBlock: XIVTED_clean_linker_0, # of connection points: 2
#     Edge 142, Type (0, 0), BuildingBlock: XIVTED_clean_linker_0, # of connection points: 2
#     Edge 143, Type (0, 0), BuildingBlock: XIVTED_clean_linker_0, # of connection points: 2
#     Edge 144, Type (0, 0), BuildingBlock: XIVTED_clean_linker_0, # of connection points: 2
#     Edge 145, Type (0, 0), BuildingBlock: XIVTED_clean_linker_0, # of connection points: 2
#     Edge 146, Type (0, 0), BuildingBlock: XIVTED_clean_linker_0, # of connection points: 2
#     Edge 147, Type (0, 0), BuildingBlock: XIVTED_clean_linker_0, # of connection points: 2
#     Edge 148, Type (0, 0), BuildingBlock: XIVTED_clean_linker_0, # of connection points: 2
#     Edge 149, Type (0, 0), BuildingBlock: XIVTED_clean_linker_0, # of connection points: 2
#     Edge 150, Type (0, 0), BuildingBlock: XIVTED_clean_linker_0, # of connection points: 2
#     Edge 151, Type (0, 0), BuildingBlock: XIVTED_clean_linker_0, # of connection points: 2
#     Edge 152, Type (0, 0), BuildingBlock: XIVTED_clean_linker_0, # of connection points: 2
#     Edge 153, Type (0, 0), BuildingBlock: XIVTED_clean_linker_0, # of connection points: 2
#     Edge 154, Type (0, 0), BuildingBlock: XIVTED_clean_linker_0, # of connection points: 2
#     Edge 155, Type (0, 0), BuildingBlock: XIVTED_clean_linker_0, # of connection points: 2
#     Edge 156, Type (0, 0), BuildingBlock: XIVTED_clean_linker_0, # of connection points: 2
#     Edge 157, Type (0, 0), BuildingBlock: XIVTED_clean_linker_0, # of connection points: 2
#     Edge 158, Type (0, 0), BuildingBlock: XIVTED_clean_linker_0, # of connection points: 2
#     Edge 159, Type (0, 0), BuildingBlock: XIVTED_clean_linker_0, # of connection points: 2
#     Edge 160, Type (0, 0), BuildingBlock: XIVTED_clean_linker_0, # of connection points: 2
#     Edge 161, Type (0, 0), BuildingBlock: XIVTED_clean_linker_0, # of connection points: 2
#     Edge 162, Type (0, 0), BuildingBlock: XIVTED_clean_linker_0, # of connection points: 2
#     Edge 163, Type (0, 0), BuildingBlock: XIVTED_clean_linker_0, # of connection points: 2
#     Edge 164, Type (0, 0), BuildingBlock: XIVTED_clean_linker_0, # of connection points: 2
#     Edge 165, Type (0, 0), BuildingBlock: XIVTED_clean_linker_0, # of connection points: 2
#     Edge 166, Type (0, 0), BuildingBlock: XIVTED_clean_linker_0, # of connection points: 2
#     Edge 167, Type (0, 0), BuildingBlock: XIVTED_clean_linker_0, # of connection points: 2
# Relax obj value: 0.107
# Max RMSD: 0.137
# Mean RMSD: 0.137
data_MOF--net-fcr--node1-XOMCOT_clean_sbu_1--edge1-XIVTED_clean_linker_0
_symmetry_space_group_name_H-M    P1
_symmetry_Int_Tables_number       1
_symmetry_cell_setting            triclinic
loop_
_symmetry_equiv_pos_as_xyz
'x, y, z'
_cell_length_a     65.652284
_cell_length_b     65.863877
_cell_length_c     65.775962
_cell_angle_alpha  90.041259
_cell_angle_beta   90.027499
_cell_angle_gamma 90.062976
loop_
_atom_site_label
_atom_site_type_symbol
_atom_site_fract_x
_atom_site_fract_y
_atom_site_fract_z
_atom_type_partial_charge
C0 C 0.11121 0.33972 0.23893 0.0
C1 C 0.10836 0.35325 0.22326 0.0
N2 N 0.11962 0.37001 0.22697 0.0
N3 N 0.124 0.3479 0.25269 0.0
C4 C 0.12885 0.36634 0.24503 0.0
H5 H 0.10525 0.32442 0.23963 0.0
Co6 Co 0.13645 0.33427 0.27427 0.0
C7 C 0.12746 0.35901 0.31041 0.0
O8 O 0.12135 0.34202 0.31895 0.0
N9 N 0.15041 0.32039 0.2956 0.0
C10 C 0.17451 0.31502 0.31899 0.0
C11 C 0.16319 0.32941 0.30903 0.0
C12 C 0.15514 0.30043 0.29718 0.0
N13 N 0.16958 0.29672 0.31141 0.0
O14 O 0.16254 0.34304 0.26452 0.0
H15 H 0.16567 0.34557 0.31029 0.0
H16 H 0.14956 0.28896 0.28693 0.0
O17 O 0.13364 0.35869 0.2919 0.0
C18 C 0.16894 0.32866 0.25321 0.0
O19 O 0.15698 0.31289 0.25036 0.0
N20 N 0.11057 0.32368 0.28216 0.0
C21 C 0.07272 0.30455 0.28751 0.0
C22 C 0.07455 0.32574 0.28916 0.0
C23 C 0.09359 0.33506 0.2862 0.0
C24 C 0.10858 0.30328 0.27921 0.0
C25 C 0.09009 0.29336 0.28241 0.0
H26 H 0.09452 0.35144 0.28647 0.0
H27 H 0.12099 0.29473 0.27292 0.0
H28 H 0.13975 0.3764 0.25216 0.0
H29 H 0.09969 0.35031 0.20958 0.0
H30 H 0.18674 0.31804 0.3296 0.0
H31 H 0.06135 0.33505 0.29237 0.0
H32 H 0.08914 0.27715 0.27978 0.0
C33 C 0.58665 0.65429 0.03203 0.0
C34 C 0.60039 0.65729 0.04755 0.0
N35 N 0.61714 0.64622 0.04357 0.0
N36 N 0.5949 0.64176 0.01803 0.0
C37 C 0.61339 0.63686 0.02566 0.0
H38 H 0.57142 0.66048 0.03119 0.0
Co39 Co 0.58195 0.63136 0.99485 0.0
C40 C 0.6157 0.6446 0.9658 0.0
O41 O 0.60574 0.66048 0.95908 0.0
N42 N 0.56888 0.62015 0.97171 0.0
C43 C 0.55654 0.61474 0.9406 0.0
C44 C 0.57003 0.62593 0.95202 0.0
C45 C 0.55459 0.60531 0.97173 0.0
N46 N 0.54687 0.60174 0.95304 0.0
O47 O 0.58903 0.60453 1.00358 0.0
H48 H 0.57922 0.63815 0.94625 0.0
H49 H 0.54902 0.59797 0.98532 0.0
O50 O 0.60778 0.633 0.97929 0.0
C51 C 0.57574 0.5988 0.01648 0.0
O52 O 0.56096 0.61139 0.02122 0.0
N53 N 0.57265 0.65787 0.98786 0.0
C54 C 0.55281 0.69544 0.98406 0.0
C55 C 0.57385 0.69446 0.988 0.0
C56 C 0.5834 0.67553 0.99021 0.0
C57 C 0.55211 0.65871 0.98468 0.0
C58 C 0.54203 0.67716 0.98238 0.0
H59 H 0.59934 0.67507 0.99438 0.0
H60 H 0.54309 0.64498 0.98487 0.0
H61 H 0.62369 0.62622 0.01848 0.0
H62 H 0.59788 0.66613 0.0612 0.0
H63 H 0.5537 0.61638 0.92447 0.0
H64 H 0.58281 0.70815 0.98975 0.0
H65 H 0.52566 0.67703 0.98033 0.0
C66 C 0.91089 0.18027 0.23588 0.0
C67 C 0.91371 0.1668 0.22013 0.0
N68 N 0.89945 0.15211 0.22147 0.0
N69 N 0.89503 0.17411 0.24736 0.0
C70 C 0.88832 0.15699 0.23808 0.0
H71 H 0.9195 0.19405 0.23827 0.0
Co72 Co 0.88262 0.18814 0.2691 0.0
C73 C 0.89477 0.14777 0.28747 0.0
O74 O 0.90962 0.14491 0.2744 0.0
N75 N 0.87006 0.20223 0.29013 0.0
C76 C 0.86047 0.21443 0.32011 0.0
C77 C 0.87229 0.20012 0.3104 0.0
C78 C 0.85698 0.21783 0.28786 0.0
N79 N 0.85087 0.22562 0.30588 0.0
O80 O 0.85627 0.17961 0.25962 0.0
H81 H 0.8822 0.1892 0.31766 0.0
H82 H 0.85218 0.22338 0.27315 0.0
O83 O 0.88416 0.16404 0.28676 0.0
C84 C 0.85093 0.18891 0.24349 0.0
O85 O 0.86363 0.20188 0.23514 0.0
N86 N 0.90793 0.19889 0.2774 0.0
C87 C 0.9435 0.22187 0.2833 0.0
C88 C 0.94207 0.20173 0.29044 0.0
C89 C 0.92404 0.19052 0.2875 0.0
C90 C 0.90885 0.21852 0.27099 0.0
C91 C 0.92625 0.23027 0.27392 0.0
H92 H 0.92336 0.17524 0.29318 0.0
H93 H 0.89591 0.22503 0.26317 0.0
H94 H 0.87538 0.14836 0.24344 0.0
H95 H 0.92494 0.16826 0.2082 0.0
H96 H 0.85959 0.2168 0.33637 0.0
H97 H 0.95487 0.19447 0.29782 0.0
H98 H 0.92607 0.24586 0.26874 0.0
C99 C 0.43042 0.8598 0.0343 0.0
C100 C 0.41597 0.85625 0.04906 0.0
N101 N 0.3993 0.86734 0.04467 0.0
N102 N 0.4228 0.8728 0.02042 0.0
C103 C 0.40386 0.87718 0.02721 0.0
H104 H 0.44582 0.85398 0.03417 0.0
Co105 Co 0.43679 0.88558 0.99904 0.0
C106 C 0.40592 0.87324 0.96699 0.0
O107 O 0.41821 0.85975 0.95894 0.0
N108 N 0.45077 0.89932 0.9779 0.0
C109 C 0.46237 0.91179 0.94861 0.0
C110 C 0.44815 0.89931 0.95751 0.0
C111 C 0.46665 0.91211 0.9809 0.0
N112 N 0.4741 0.91983 0.96334 0.0
O113 O 0.42859 0.91148 0.00975 0.0
H114 H 0.43693 0.89076 0.94926 0.0
H115 H 0.47278 0.91547 0.99577 0.0
O116 O 0.41181 0.88413 0.98206 0.0
C117 C 0.4402 0.91512 0.02491 0.0
O118 O 0.45406 0.90152 0.02965 0.0
N119 N 0.44737 0.86 0.9904 0.0
C120 C 0.46877 0.82336 0.98622 0.0
C121 C 0.44749 0.8234 0.98846 0.0
C122 C 0.43711 0.84188 0.99095 0.0
C123 C 0.46807 0.86 0.98832 0.0
C124 C 0.47893 0.84203 0.98584 0.0
H125 H 0.42093 0.84159 0.99404 0.0
H126 H 0.47663 0.87389 0.98976 0.0
H127 H 0.39396 0.88811 0.01992 0.0
H128 H 0.41807 0.84722 0.06264 0.0
H129 H 0.46426 0.91423 0.93245 0.0
H130 H 0.43907 0.80928 0.98932 0.0
H131 H 0.49534 0.84279 0.98429 0.0
C132 C 0.11221 0.68358 0.28325 0.0
C133 C 0.10893 0.67041 0.29915 0.0
N134 N 0.11934 0.65311 0.29556 0.0
N135 N 0.12443 0.67464 0.26946 0.0
C136 C 0.12858 0.65614 0.27738 0.0
H137 H 0.10673 0.69903 0.2822 0.0
Co138 Co 0.13636 0.68736 0.2469 0.0
C139 C 0.12512 0.65773 0.21447 0.0
O140 O 0.11551 0.6723 0.20478 0.0
N141 N 0.1496 0.70038 0.22467 0.0
C142 C 0.16927 0.70681 0.1977 0.0
C143 C 0.15771 0.69242 0.20749 0.0
C144 C 0.15737 0.71944 0.22524 0.0
N145 N 0.16907 0.72386 0.20892 0.0
O146 O 0.16274 0.68024 0.25709 0.0
H147 H 0.15689 0.67676 0.20284 0.0
H148 H 0.15561 0.72949 0.23812 0.0
O149 O 0.13435 0.66166 0.23121 0.0
C150 C 0.16725 0.69443 0.26953 0.0
O151 O 0.15358 0.70863 0.27283 0.0
N152 N 0.11012 0.69669 0.23847 0.0
C153 C 0.07185 0.71497 0.23299 0.0
C154 C 0.07358 0.69383 0.23542 0.0
C155 C 0.09284 0.68501 0.23837 0.0
C156 C 0.10844 0.71727 0.23675 0.0
C157 C 0.08968 0.72661 0.23359 0.0
H158 H 0.09382 0.66887 0.24121 0.0
H159 H 0.12143 0.72687 0.23913 0.0
H160 H 0.13881 0.64544 0.27022 0.0
H161 H 0.10039 0.67382 0.31279 0.0
H162 H 0.17777 0.70457 0.1838 0.0
H163 H 0.06018 0.68424 0.23546 0.0
H164 H 0.08909 0.74302 0.2328 0.0
C165 C 0.93387 0.65529 0.99105 0.0
C166 C 0.92189 0.65953 0.97448 0.0
N167 N 0.90488 0.6481 0.97556 0.0
N168 N 0.92442 0.64142 1.00281 0.0
C169 C 0.90671 0.63738 0.99301 0.0
H170 H 0.94907 0.66105 0.99369 0.0
Co171 Co 0.93675 0.62712 0.02421 0.0
C172 C 0.90803 0.63659 0.05792 0.0
O173 O 0.9233 0.64394 0.06855 0.0
N174 N 0.94943 0.61167 0.04504 0.0
C175 C 0.95575 0.59015 0.07049 0.0
C176 C 0.94127 0.60214 0.06135 0.0
C177 C 0.96861 0.60417 0.04409 0.0
N178 N 0.97303 0.59149 0.05963 0.0
O179 O 0.92809 0.60214 0.01218 0.0
H180 H 0.92549 0.60257 0.06584 0.0
H181 H 0.97879 0.60695 0.03148 0.0
O182 O 0.91123 0.62905 0.04023 0.0
C183 C 0.94009 0.59806 0.99749 0.0
O184 O 0.95491 0.61088 0.99344 0.0
N185 N 0.94734 0.65207 0.03464 0.0
C186 C 0.96695 0.68927 0.04207 0.0
C187 C 0.94559 0.68811 0.041 0.0
C188 C 0.93609 0.66943 0.03699 0.0
C189 C 0.96808 0.6532 0.0352 0.0
C190 C 0.97811 0.6714 0.03926 0.0
H191 H 0.91976 0.66908 0.03489 0.0
H192 H 0.97719 0.64036 0.031 0.0
H193 H 0.89625 0.62554 0.99764 0.0
H194 H 0.92591 0.6695 0.96202 0.0
H195 H 0.9535 0.5808 0.08383 0.0
H196 H 0.93631 0.70159 0.04268 0.0
H197 H 0.9946 0.67164 0.03891 0.0
C198 C 0.90531 0.83222 0.28437 0.0
C199 C 0.9087 0.84402 0.30124 0.0
N200 N 0.89824 0.86149 0.29917 0.0
N201 N 0.89294 0.8422 0.27143 0.0
C202 C 0.88891 0.86007 0.28086 0.0
H203 H 0.91073 0.81688 0.2822 0.0
Co204 Co 0.88069 0.83083 0.24833 0.0
C205 C 0.89278 0.85882 0.21526 0.0
O206 O 0.89922 0.84302 0.20488 0.0
N207 N 0.8672 0.81926 0.22537 0.0
C208 C 0.84485 0.81626 0.19989 0.0
C209 C 0.85595 0.82958 0.21157 0.0
C210 C 0.86187 0.79963 0.22213 0.0
N211 N 0.84854 0.79735 0.20661 0.0
O212 O 0.85475 0.84016 0.25767 0.0
H213 H 0.85447 0.8459 0.21094 0.0
H214 H 0.86585 0.78734 0.23217 0.0
O215 O 0.88523 0.85631 0.23305 0.0
C216 C 0.84683 0.82528 0.2672 0.0
O217 O 0.85744 0.80846 0.26894 0.0
N218 N 0.90622 0.81944 0.24071 0.0
C219 C 0.94273 0.79759 0.23671 0.0
C220 C 0.94248 0.81887 0.23482 0.0
C221 C 0.92413 0.82957 0.23737 0.0
C222 C 0.90654 0.79894 0.24345 0.0
C223 C 0.92433 0.78773 0.241 0.0
H224 H 0.92451 0.84597 0.23748 0.0
H225 H 0.89324 0.79127 0.24911 0.0
H226 H 0.87822 0.87116 0.27507 0.0
H227 H 0.91757 0.8397 0.31442 0.0
H228 H 0.83411 0.82032 0.1881 0.0
H229 H 0.95646 0.82725 0.23233 0.0
H230 H 0.92367 0.77143 0.24304 0.0
C231 C 0.08466 0.85674 0.99044 0.0
C232 C 0.09873 0.85353 0.97524 0.0
N233 N 0.11517 0.86516 0.97908 0.0
N234 N 0.0924 0.87 1.00407 0.0
C235 C 0.11092 0.87501 0.99659 0.0
H236 H 0.06949 0.85037 0.99116 0.0
Co237 Co 0.07908 0.8819 0.02633 0.0
C238 C 0.11249 0.8697 0.05621 0.0
O239 O 0.10241 0.854 0.06318 0.0
N240 N 0.06592 0.89458 0.04855 0.0
C241 C 0.05376 0.90165 0.07934 0.0
C242 C 0.06727 0.88998 0.06853 0.0
C243 C 0.05152 0.90928 0.04771 0.0
N244 N 0.04384 0.91377 0.06623 0.0
O245 O 0.08625 0.90818 0.01584 0.0
H246 H 0.07661 0.87822 0.07495 0.0
H247 H 0.04591 0.91576 0.03369 0.0
O248 O 0.10473 0.88102 0.04238 0.0
C249 C 0.0735 0.91183 1.00163 0.0
O250 O 0.05927 0.89822 0.99802 0.0
N251 N 0.06929 0.85588 0.03473 0.0
C252 C 0.04805 0.81909 0.03908 0.0
C253 C 0.06918 0.81923 0.03569 0.0
C254 C 0.07945 0.83779 0.03313 0.0
C255 C 0.0487 0.85576 0.03775 0.0
C256 C 0.03797 0.83774 0.04042 0.0
H257 H 0.09541 0.83758 0.02904 0.0
H258 H 0.04009 0.86968 0.03703 0.0
H259 H 0.1208 0.88626 1.00347 0.0
H260 H 0.09656 0.84427 0.9618 0.0
H261 H 0.05103 0.90087 0.09556 0.0
H262 H 0.07751 0.80515 0.03398 0.0
H263 H 0.02167 0.83847 0.04286 0.0
C264 C 0.23711 0.11389 0.33808 0.0
C265 C 0.22163 0.11077 0.35183 0.0
N266 N 0.2259 0.12122 0.36896 0.0
N267 N 0.25132 0.12604 0.34652 0.0
C268 C 0.24406 0.13028 0.3653 0.0
H269 H 0.23752 0.10849 0.32255 0.0
Co270 Co 0.27332 0.13844 0.33314 0.0
C271 C 0.30448 0.12617 0.36483 0.0
O272 O 0.31245 0.11233 0.3529 0.0
N273 N 0.29507 0.1519 0.31968 0.0
C274 C 0.32467 0.16489 0.30931 0.0
C275 C 0.31538 0.15213 0.32305 0.0
C276 C 0.29253 0.16472 0.30381 0.0
N277 N 0.31024 0.17286 0.29718 0.0
O278 O 0.26248 0.16448 0.34065 0.0
H279 H 0.32328 0.14384 0.33469 0.0
H280 H 0.2779 0.16762 0.29688 0.0
O281 O 0.28967 0.13719 0.35855 0.0
C282 C 0.24841 0.16778 0.32765 0.0
O283 O 0.24492 0.15374 0.31384 0.0
N284 N 0.28198 0.11269 0.32304 0.0
C285 C 0.28531 0.07589 0.30177 0.0
C286 C 0.28263 0.07603 0.32295 0.0
C287 C 0.28058 0.09462 0.33327 0.0
C288 C 0.28467 0.11256 0.30245 0.0
C289 C 0.28673 0.09451 0.29167 0.0
H290 H 0.27702 0.09447 0.34932 0.0
H291 H 0.28389 0.12644 0.29384 0.0
H292 H 0.2516 0.14057 0.37569 0.0
H293 H 0.20774 0.10242 0.34889 0.0
H294 H 0.3408 0.16819 0.30858 0.0
H295 H 0.281 0.06195 0.33129 0.0
H296 H 0.28865 0.09516 0.27532 0.0
C297 C 0.35835 0.52621 0.92429 0.0
C298 C 0.35542 0.54137 0.91016 0.0
N299 N 0.37173 0.5419 0.89779 0.0
N300 N 0.37635 0.51693 0.92075 0.0
C301 C 0.38415 0.52701 0.90453 0.0
H302 H 0.34805 0.52257 0.93657 0.0
Co303 Co 0.38907 0.49588 0.93584 0.0
C304 C 0.37867 0.47695 0.89534 0.0
O305 O 0.36369 0.48975 0.89213 0.0
N306 N 0.40189 0.47562 0.95086 0.0
C307 C 0.41294 0.44622 0.9632 0.0
C308 C 0.40136 0.4553 0.94828 0.0
C309 C 0.41368 0.47853 0.96742 0.0
N310 N 0.42066 0.46088 0.97528 0.0
O311 O 0.41534 0.50594 0.92803 0.0
H312 H 0.39285 0.44752 0.93653 0.0
H313 H 0.41705 0.49341 0.97355 0.0
O314 O 0.38884 0.4778 0.91194 0.0
C315 C 0.42003 0.5224 0.93709 0.0
O316 O 0.40676 0.53079 0.94944 0.0
N317 N 0.36374 0.48686 0.94589 0.0
C318 C 0.32797 0.47903 0.96764 0.0
C319 C 0.33047 0.47164 0.94775 0.0
C320 C 0.3487 0.47542 0.93719 0.0
C321 C 0.36156 0.49388 0.96527 0.0
C322 C 0.34395 0.49002 0.97646 0.0
H323 H 0.35042 0.46922 0.92217 0.0
H324 H 0.37361 0.50288 0.97199 0.0
H325 H 0.39867 0.52341 0.89765 0.0
H326 H 0.3426 0.55167 0.9095 0.0
H327 H 0.41499 0.43006 0.96531 0.0
H328 H 0.31849 0.46294 0.94049 0.0
H329 H 0.34258 0.49617 0.99168 0.0
C330 C 0.78114 0.41008 0.33712 0.0
C331 C 0.7962 0.41348 0.35133 0.0
N332 N 0.79304 0.40093 0.3672 0.0
N333 N 0.76827 0.39572 0.34414 0.0
C334 C 0.77603 0.39035 0.36243 0.0
H335 H 0.78009 0.4171 0.3223 0.0
Co336 Co 0.74661 0.38319 0.33026 0.0
C337 C 0.71295 0.39398 0.35878 0.0
O338 O 0.70338 0.40333 0.34395 0.0
N339 N 0.7252 0.36939 0.31628 0.0
C340 C 0.69848 0.34976 0.30868 0.0
C341 C 0.70736 0.36177 0.32329 0.0
C342 C 0.72703 0.36089 0.2976 0.0
N343 N 0.71092 0.34912 0.29248 0.0
O344 O 0.7571 0.3571 0.33791 0.0
H345 H 0.70164 0.36313 0.33855 0.0
H346 H 0.74043 0.36263 0.28823 0.0
O347 O 0.7299 0.385 0.35525 0.0
C348 C 0.77027 0.35322 0.32417 0.0
O349 O 0.77397 0.3673 0.3105 0.0
N350 N 0.73803 0.40902 0.3202 0.0
C351 C 0.73345 0.44642 0.30018 0.0
C352 C 0.73375 0.44542 0.32154 0.0
C353 C 0.73643 0.42658 0.33127 0.0
C354 C 0.73797 0.40999 0.2995 0.0
C355 C 0.73524 0.42826 0.28928 0.0
H356 H 0.73806 0.42622 0.34763 0.0
H357 H 0.74133 0.39678 0.29056 0.0
H358 H 0.76968 0.3784 0.37178 0.0
H359 H 0.80911 0.42356 0.34961 0.0
H360 H 0.68462 0.34103 0.31047 0.0
H361 H 0.73294 0.45912 0.33061 0.0
H362 H 0.7352 0.42816 0.27281 0.0
C363 C 0.65589 0.98531 0.9324 0.0
C364 C 0.65863 0.96917 0.91939 0.0
N365 N 0.64876 0.9731 0.90182 0.0
N366 N 0.64457 0.9996 0.92308 0.0
C367 C 0.64039 0.99172 0.90453 0.0
H368 H 0.66107 0.98621 0.94799 0.0
Co369 Co 0.63321 0.02275 0.93538 0.0
C370 C 0.64604 0.0511 0.90127 0.0
O371 O 0.66158 0.05816 0.91163 0.0
N372 N 0.62081 0.04568 0.94766 0.0
C373 C 0.61109 0.0766 0.95746 0.0
C374 C 0.62347 0.06578 0.94448 0.0
C375 C 0.60677 0.04479 0.96268 0.0
N376 N 0.60053 0.06333 0.96889 0.0
O377 O 0.60651 0.01239 0.92895 0.0
H378 H 0.63389 0.07243 0.93375 0.0
H379 H 0.60172 0.03076 0.96949 0.0
O380 O 0.63431 0.03762 0.90908 0.0
C381 C 0.6026 0.99929 0.94273 0.0
O382 O 0.61662 0.9959 0.9566 0.0
N383 N 0.65967 0.0312 0.94455 0.0
C384 C 0.6971 0.03572 0.96505 0.0
C385 C 0.69648 0.0301 0.94442 0.0
C386 C 0.67762 0.0277 0.93452 0.0
C387 C 0.66023 0.03656 0.96462 0.0
C388 C 0.67856 0.03946 0.97487 0.0
H389 H 0.67746 0.0223 0.91899 0.0
H390 H 0.64642 0.03758 0.97342 0.0
H391 H 0.6307 0.99922 0.89357 0.0
H392 H 0.66638 0.95516 0.92308 0.0
H393 H 0.60997 0.09297 0.95834 0.0
H394 H 0.71034 0.02663 0.93622 0.0
H395 H 0.67804 0.04396 0.99069 0.0
C396 C 0.23514 0.90696 0.18454 0.0
C397 C 0.21974 0.90983 0.17061 0.0
N398 N 0.22408 0.89893 0.15382 0.0
N399 N 0.24937 0.8946 0.17645 0.0
C400 C 0.24212 0.88984 0.15779 0.0
H401 H 0.23563 0.91295 0.19985 0.0
Co402 Co 0.27217 0.88348 0.18961 0.0
C403 C 0.30128 0.89602 0.15565 0.0
O404 O 0.30799 0.91208 0.16536 0.0
N405 N 0.29494 0.87159 0.20261 0.0
C406 C 0.32624 0.86528 0.21401 0.0
C407 C 0.31482 0.8766 0.20073 0.0
C408 C 0.29477 0.85702 0.21715 0.0
N409 N 0.31362 0.85297 0.22438 0.0
O410 O 0.26227 0.85685 0.18289 0.0
H411 H 0.32078 0.88835 0.19108 0.0
H412 H 0.281 0.85022 0.22307 0.0
O413 O 0.28786 0.88443 0.16378 0.0
C414 C 0.24817 0.85296 0.19567 0.0
O415 O 0.24434 0.86651 0.20985 0.0
N416 N 0.28007 0.90984 0.19884 0.0
C417 C 0.28509 0.94724 0.21882 0.0
C418 C 0.28057 0.94645 0.19794 0.0
C419 C 0.27774 0.92762 0.18832 0.0
C420 C 0.28371 0.91053 0.21928 0.0
C421 C 0.28665 0.92888 0.22941 0.0
H422 H 0.27318 0.92735 0.17252 0.0
H423 H 0.28336 0.89682 0.22825 0.0
H424 H 0.24962 0.87933 0.1476 0.0
H425 H 0.20589 0.91837 0.17309 0.0
H426 H 0.34255 0.86634 0.21616 0.0
H427 H 0.27884 0.96023 0.18915 0.0
H428 H 0.28908 0.92862 0.24569 0.0
C429 C 0.16683 0.52815 0.09259 0.0
C430 C 0.16926 0.54366 0.10646 0.0
N431 N 0.153 0.54375 0.11893 0.0
N432 N 0.14923 0.51821 0.09643 0.0
C433 C 0.14109 0.5283 0.11246 0.0
H434 H 0.17717 0.52465 0.0803 0.0
Co435 Co 0.13736 0.49621 0.08209 0.0
C436 C 0.14716 0.47881 0.12361 0.0
O437 O 0.16142 0.49229 0.12741 0.0
N438 N 0.12533 0.47463 0.06796 0.0
C439 C 0.11703 0.44374 0.05712 0.0
C440 C 0.12884 0.45462 0.07057 0.0
C441 C 0.11148 0.47555 0.0528 0.0
N442 N 0.10605 0.45693 0.04594 0.0
O443 O 0.11069 0.50626 0.08878 0.0
H444 H 0.13939 0.44831 0.08151 0.0
H445 H 0.10576 0.48968 0.0467 0.0
O446 O 0.13763 0.47915 0.10664 0.0
C447 C 0.10683 0.52106 0.07688 0.0
O448 O 0.12086 0.52639 0.06364 0.0
N449 N 0.1631 0.48758 0.07283 0.0
C450 C 0.19945 0.48163 0.05109 0.0
C451 C 0.1979 0.47614 0.07178 0.0
C452 C 0.17948 0.47906 0.08237 0.0
C453 C 0.16422 0.49247 0.05275 0.0
C454 C 0.18193 0.48933 0.0416 0.0
H455 H 0.17874 0.47493 0.09817 0.0
H456 H 0.15115 0.49918 0.04534 0.0
H457 H 0.12676 0.5242 0.11948 0.0
H458 H 0.18172 0.55442 0.10693 0.0
H459 H 0.11647 0.42737 0.05587 0.0
H460 H 0.2109 0.47014 0.07992 0.0
H461 H 0.18176 0.49311 0.0256 0.0
C462 C 0.77926 0.61043 0.18226 0.0
C463 C 0.79423 0.60615 0.16823 0.0
N464 N 0.79153 0.61832 0.15201 0.0
N465 N 0.76689 0.62496 0.17475 0.0
C466 C 0.77488 0.62956 0.15636 0.0
H467 H 0.77792 0.60389 0.19728 0.0
Co468 Co 0.74559 0.63857 0.18811 0.0
C469 C 0.71186 0.62792 0.1593 0.0
O470 O 0.70166 0.61913 0.17405 0.0
N471 N 0.72466 0.65334 0.2015 0.0
C472 C 0.69821 0.67345 0.20845 0.0
C473 C 0.70723 0.66137 0.19402 0.0
C474 C 0.72621 0.6617 0.22028 0.0
N475 N 0.71016 0.67367 0.22504 0.0
O476 O 0.75682 0.66401 0.17943 0.0
H477 H 0.70174 0.65989 0.17867 0.0
H478 H 0.73945 0.65987 0.2299 0.0
O479 O 0.72898 0.63653 0.16303 0.0
C480 C 0.77197 0.66808 0.19088 0.0
O481 O 0.77669 0.65512 0.20532 0.0
N482 N 0.73605 0.61327 0.19874 0.0
C483 C 0.72997 0.57594 0.21853 0.0
C484 C 0.73097 0.57701 0.1972 0.0
C485 C 0.73426 0.59577 0.18762 0.0
C486 C 0.73546 0.61228 0.21946 0.0
C487 C 0.73206 0.59399 0.22957 0.0
H488 H 0.73624 0.59609 0.1713 0.0
H489 H 0.73901 0.6254 0.22849 0.0
H490 H 0.76902 0.64146 0.14664 0.0
H491 H 0.80682 0.59575 0.17029 0.0
H492 H 0.68414 0.68179 0.20661 0.0
H493 H 0.72976 0.56342 0.188 0.0
H494 H 0.73234 0.59388 0.24604 0.0
C495 C 0.85597 0.98929 0.09438 0.0
C496 C 0.85332 0.97443 0.10885 0.0
N497 N 0.86984 0.97424 0.12094 0.0
N498 N 0.87404 0.9987 0.09739 0.0
C499 C 0.88211 0.98904 0.11372 0.0
H500 H 0.84529 0.99274 0.08238 0.0
Co501 Co 0.88625 0.02005 0.08222 0.0
C502 C 0.8741 0.03931 0.1219 0.0
O503 O 0.85866 0.02686 0.1244 0.0
N504 N 0.89847 0.04081 0.06739 0.0
C505 C 0.90872 0.0709 0.05605 0.0
C506 C 0.89724 0.06103 0.07049 0.0
C507 C 0.91054 0.03874 0.05093 0.0
N508 N 0.91708 0.05685 0.04374 0.0
O509 O 0.91276 0.01087 0.09023 0.0
H510 H 0.88836 0.06824 0.0823 0.0
H511 H 0.91452 0.02418 0.04443 0.0
O512 O 0.88519 0.03801 0.10597 0.0
C513 C 0.91789 0.99477 0.08077 0.0
O514 O 0.90484 0.98633 0.06819 0.0
N515 N 0.86086 0.02815 0.07186 0.0
C516 C 0.8256 0.03512 0.04902 0.0
C517 C 0.82853 0.04478 0.06789 0.0
C518 C 0.8465 0.04135 0.079 0.0
C519 C 0.85839 0.01904 0.05342 0.0
C520 C 0.84095 0.02225 0.0418 0.0
H521 H 0.84875 0.04947 0.09302 0.0
H522 H 0.87009 0.00892 0.04783 0.0
H523 H 0.89669 0.99289 0.12038 0.0
H524 H 0.8405 0.96414 0.11 0.0
H525 H 0.91033 0.08717 0.05442 0.0
H526 H 0.81719 0.05512 0.07385 0.0
H527 H 0.83934 0.01434 0.02745 0.0
C528 C 0.33247 0.24058 0.11494 0.0
C529 C 0.34414 0.2236 0.11177 0.0
N530 N 0.36195 0.22594 0.1217 0.0
N531 N 0.3429 0.25382 0.12662 0.0
C532 C 0.36087 0.24449 0.13052 0.0
H533 H 0.31695 0.24275 0.10988 0.0
Co534 Co 0.3312 0.27694 0.13837 0.0
C535 C 0.36381 0.30674 0.12616 0.0
O536 O 0.35131 0.31607 0.11369 0.0
N537 N 0.31888 0.29959 0.15125 0.0
C538 C 0.31062 0.3286 0.16676 0.0
C539 C 0.32458 0.31911 0.15432 0.0
C540 C 0.30156 0.2977 0.16221 0.0
N541 N 0.2962 0.31501 0.17181 0.0
O542 O 0.33834 0.26672 0.16476 0.0
H543 H 0.33831 0.32612 0.14883 0.0
H544 H 0.29294 0.28375 0.16307 0.0
O545 O 0.35756 0.29156 0.13664 0.0
C546 C 0.32478 0.25399 0.1703 0.0
O547 O 0.31003 0.24956 0.15751 0.0
N548 N 0.322 0.2856 0.1122 0.0
C549 C 0.3031 0.28988 0.07409 0.0
C550 C 0.32408 0.28588 0.07559 0.0
C551 C 0.33318 0.28357 0.09475 0.0
C552 C 0.30161 0.28948 0.11089 0.0
C553 C 0.29199 0.29198 0.09214 0.0
H554 H 0.34908 0.27936 0.09555 0.0
H555 H 0.29223 0.28936 0.12431 0.0
H556 H 0.37222 0.25048 0.14086 0.0
H557 H 0.33951 0.21017 0.10346 0.0
H558 H 0.31153 0.34404 0.17232 0.0
H559 H 0.33331 0.284 0.06208 0.0
H560 H 0.27566 0.2943 0.09185 0.0
C561 C 0.34099 0.78376 0.40655 0.0
C562 C 0.35521 0.7988 0.40965 0.0
N563 N 0.37168 0.79466 0.39818 0.0
N564 N 0.34858 0.76987 0.39351 0.0
C565 C 0.36726 0.77705 0.38854 0.0
H566 H 0.32573 0.78342 0.41272 0.0
Co567 Co 0.33425 0.74811 0.38167 0.0
C568 C 0.36434 0.71576 0.3952 0.0
O569 O 0.35201 0.70839 0.40905 0.0
N570 N 0.31982 0.72683 0.36895 0.0
C571 C 0.30677 0.69764 0.35785 0.0
C572 C 0.32125 0.70641 0.37017 0.0
C573 C 0.30443 0.73 0.35567 0.0
N574 N 0.29611 0.71252 0.34874 0.0
O575 O 0.34307 0.75687 0.35528 0.0
H576 H 0.33175 0.69808 0.37951 0.0
H577 H 0.29932 0.745 0.35139 0.0
O578 O 0.35875 0.73067 0.384 0.0
C579 C 0.33397 0.77299 0.34961 0.0
O580 O 0.32094 0.78168 0.362 0.0
N581 N 0.3234 0.74087 0.40761 0.0
C582 C 0.30248 0.73629 0.44459 0.0
C583 C 0.32375 0.73884 0.44422 0.0
C584 C 0.33387 0.74143 0.42561 0.0
C585 C 0.30268 0.73903 0.40789 0.0
C586 C 0.29203 0.7364 0.42602 0.0
H587 H 0.3501 0.74429 0.42568 0.0
H588 H 0.29401 0.74054 0.39404 0.0
H589 H 0.37705 0.76996 0.37736 0.0
H590 H 0.35308 0.81242 0.41863 0.0
H591 H 0.30395 0.68153 0.35628 0.0
H592 H 0.3325 0.73913 0.45817 0.0
H593 H 0.27557 0.73543 0.42548 0.0
C594 C 0.03207 0.42368 0.86273 0.0
C595 C 0.0468 0.40928 0.85903 0.0
N596 N 0.04427 0.39398 0.87235 0.0
N597 N 0.02003 0.41734 0.87811 0.0
C598 C 0.02796 0.39923 0.8837 0.0
H599 H 0.03072 0.43815 0.8551 0.0
Co600 Co 0.99881 0.43128 0.89111 0.0
C601 C 0.96206 0.40739 0.88178 0.0
O602 O 0.95352 0.42481 0.87706 0.0
N603 N 0.97765 0.44503 0.90544 0.0
C604 C 0.95401 0.44937 0.9294 0.0
C605 C 0.96519 0.43545 0.91871 0.0
C606 C 0.97422 0.46501 0.90913 0.0
N607 N 0.95979 0.46805 0.92353 0.0
O608 O 1.00866 0.42186 0.91696 0.0
H609 H 0.96502 0.41927 0.92142 0.0
H610 H 0.98326 0.47712 0.90284 0.0
O611 O 0.98073 0.40719 0.88761 0.0
C612 C 0.01928 0.43654 0.92394 0.0
O613 O 0.02149 0.45284 0.91263 0.0
N614 N 0.99096 0.44279 0.86577 0.0
C615 C 0.98598 0.4639 0.82903 0.0
C616 C 0.98239 0.44287 0.83013 0.0
C617 C 0.98534 0.43252 0.84856 0.0
C618 C 0.99563 0.46292 0.86454 0.0
C619 C 0.9928 0.47383 0.8466 0.0
H620 H 0.98379 0.41619 0.84874 0.0
H621 H 1.00287 0.47037 0.87723 0.0
H622 H 0.0222 0.39028 0.89624 0.0
H623 H 0.0591 0.41048 0.84814 0.0
H624 H 0.94311 0.44586 0.94122 0.0
H625 H 0.97769 0.4344 0.81681 0.0
H626 H 0.99694 0.48975 0.84627 0.0
C627 C 0.68053 0.74029 0.41146 0.0
C628 C 0.66663 0.72499 0.41485 0.0
N629 N 0.65037 0.72818 0.40278 0.0
N630 N 0.67288 0.75339 0.39767 0.0
C631 C 0.65457 0.74545 0.39249 0.0
H632 H 0.69558 0.74141 0.41808 0.0
Co633 Co 0.68641 0.77534 0.3853 0.0
C634 C 0.65325 0.80573 0.3958 0.0
O635 O 0.66373 0.81354 0.41088 0.0
N636 N 0.69983 0.79697 0.37201 0.0
C637 C 0.71109 0.82692 0.361 0.0
C638 C 0.69765 0.81729 0.37383 0.0
C639 C 0.71474 0.79472 0.35802 0.0
N640 N 0.72184 0.81268 0.35101 0.0
O641 O 0.67991 0.76393 0.35911 0.0
H642 H 0.68731 0.8249 0.38395 0.0
H643 H 0.72072 0.78012 0.35351 0.0
O644 O 0.66069 0.79125 0.38509 0.0
C645 C 0.6921 0.74916 0.35594 0.0
O646 O 0.70557 0.74486 0.3701 0.0
N647 N 0.69542 0.78491 0.41133 0.0
C648 C 0.71488 0.79131 0.44885 0.0
C649 C 0.69404 0.78653 0.44798 0.0
C650 C 0.68462 0.78326 0.42908 0.0
C651 C 0.71579 0.7892 0.41217 0.0
C652 C 0.72562 0.79291 0.43058 0.0
H653 H 0.66879 0.77871 0.42877 0.0
H654 H 0.72502 0.78861 0.39862 0.0
H655 H 0.64486 0.75177 0.3808 0.0
H656 H 0.66881 0.71189 0.42454 0.0
H657 H 0.71272 0.84317 0.35917 0.0
H658 H 0.68522 0.78481 0.46178 0.0
H659 H 0.74188 0.79574 0.43052 0.0
C660 C 0.48976 0.58883 0.36049 0.0
C661 C 0.47467 0.60285 0.35669 0.0
N662 N 0.47741 0.6188 0.36926 0.0
N663 N 0.50219 0.59604 0.37516 0.0
C664 C 0.49421 0.61427 0.38024 0.0
H665 H 0.49115 0.57402 0.35352 0.0
Co666 Co 0.52366 0.58265 0.38827 0.0
C667 C 0.5574 0.61165 0.37909 0.0
O668 O 0.5678 0.59685 0.37065 0.0
N669 N 0.54492 0.5692 0.40256 0.0
C670 C 0.57091 0.56262 0.42347 0.0
C671 C 0.5613 0.57728 0.41216 0.0
C672 C 0.54449 0.54977 0.40931 0.0
N673 N 0.56031 0.54526 0.42166 0.0
O674 O 0.51221 0.59001 0.41413 0.0
H675 H 0.56543 0.59311 0.41241 0.0
H676 H 0.53197 0.53949 0.4065 0.0
O677 O 0.53995 0.60801 0.38704 0.0
C678 C 0.49891 0.57628 0.41761 0.0
O679 O 0.49623 0.56217 0.40371 0.0
N680 N 0.53316 0.57298 0.3626 0.0
C681 C 0.53983 0.55378 0.325 0.0
C682 C 0.53951 0.57509 0.32651 0.0
C683 C 0.53585 0.5844 0.34541 0.0
C684 C 0.53261 0.55234 0.36103 0.0
C685 C 0.53631 0.54249 0.34267 0.0
H686 H 0.53441 0.60074 0.34607 0.0
H687 H 0.52783 0.54326 0.3737 0.0
H688 H 0.50025 0.62374 0.39227 0.0
H689 H 0.46202 0.60095 0.3463 0.0
H690 H 0.58428 0.56483 0.43285 0.0
H691 H 0.54163 0.58448 0.31317 0.0
H692 H 0.53523 0.52609 0.34216 0.0
C693 C 0.18062 0.78096 0.6106 0.0
C694 C 0.16641 0.79593 0.60718 0.0
N695 N 0.1498 0.79187 0.61849 0.0
N696 N 0.17289 0.7672 0.62369 0.0
C697 C 0.15416 0.77439 0.62839 0.0
H698 H 0.19591 0.7805 0.60449 0.0
Co699 Co 0.18684 0.74528 0.63557 0.0
C700 C 0.155 0.71402 0.62337 0.0
O701 O 0.16632 0.70664 0.6087 0.0
N702 N 0.20087 0.72358 0.64842 0.0
C703 C 0.21221 0.69379 0.65979 0.0
C704 C 0.19836 0.70324 0.64728 0.0
C705 C 0.21643 0.72597 0.66173 0.0
N706 N 0.22361 0.70812 0.66894 0.0
O707 O 0.17948 0.75535 0.66196 0.0
H708 H 0.18733 0.69545 0.63804 0.0
H709 H 0.22277 0.74059 0.66563 0.0
O710 O 0.16164 0.72858 0.63451 0.0
C711 C 0.19222 0.76942 0.6661 0.0
O712 O 0.2057 0.77431 0.65215 0.0
N713 N 0.19674 0.73715 0.60949 0.0
C714 C 0.2177 0.73412 0.57239 0.0
C715 C 0.19644 0.73652 0.57277 0.0
C716 C 0.18628 0.73839 0.59149 0.0
C717 C 0.2174 0.73482 0.60914 0.0
C718 C 0.22803 0.73287 0.59095 0.0
H719 H 0.17014 0.74172 0.59151 0.0
H720 H 0.22616 0.73569 0.62298 0.0
H721 H 0.1442 0.76731 0.63942 0.0
H722 H 0.1686 0.80938 0.59798 0.0
H723 H 0.21357 0.67758 0.66206 0.0
H724 H 0.18789 0.73803 0.55877 0.0
H725 H 0.24443 0.73112 0.59147 0.0
C726 C 0.03452 0.58405 0.6623 0.0
C727 C 0.04942 0.59844 0.66558 0.0
N728 N 0.0451 0.61489 0.6542 0.0
N729 N 0.02059 0.59152 0.64921 0.0
C730 C 0.02754 0.61027 0.64445 0.0
H731 H 0.03429 0.56881 0.6684 0.0
Co732 Co 0.99892 0.57751 0.63681 0.0
C733 C 0.96713 0.6086 0.6489 0.0
O734 O 0.95935 0.59664 0.66283 0.0
N735 N 0.97751 0.56354 0.62335 0.0
C736 C 0.94797 0.55224 0.61097 0.0
C737 C 0.9571 0.56628 0.6235 0.0
C738 C 0.98028 0.54772 0.6105 0.0
N739 N 0.96258 0.54049 0.60281 0.0
O740 O 1.00955 0.58525 0.61062 0.0
H741 H 0.94899 0.5775 0.63215 0.0
H742 H 0.99509 0.5415 0.60698 0.0
O743 O 0.98209 0.60252 0.63796 0.0
C744 C 0.02439 0.57327 0.60697 0.0
O745 O 0.02891 0.55954 0.62076 0.0
N746 N 0.9903 0.56736 0.66273 0.0
C747 C 0.98598 0.54656 0.69986 0.0
C748 C 0.9891 0.56768 0.69945 0.0
C749 C 0.9915 0.57775 0.68076 0.0
C750 C 0.98731 0.54684 0.66306 0.0
C751 C 0.98466 0.53632 0.68123 0.0
H752 H 0.99507 0.59379 0.68081 0.0
H753 H 0.98808 0.53806 0.64926 0.0
H754 H 0.02029 0.62001 0.63336 0.0
H755 H 0.06303 0.59645 0.67466 0.0
H756 H 0.93176 0.55051 0.60853 0.0
H757 H 0.99066 0.57623 0.71343 0.0
H758 H 0.98222 0.52007 0.68061 0.0
C759 C 0.98661 0.93248 0.65854 0.0
C760 C 0.97085 0.91902 0.66155 0.0
N761 N 0.97475 0.90191 0.65095 0.0
N762 N 1.00063 0.92389 0.6463 0.0
C763 C 0.99297 0.90532 0.64189 0.0
H764 H 0.98737 0.94792 0.66411 0.0
Co765 Co 0.02287 0.93703 0.63404 0.0
C766 C 0.05367 0.90482 0.64538 0.0
O767 O 0.06234 0.91683 0.65876 0.0
N768 N 0.04467 0.95033 0.62062 0.0
C769 C 0.07391 0.95996 0.60634 0.0
C770 C 0.0647 0.94594 0.61883 0.0
C771 C 0.0422 0.96702 0.60889 0.0
N772 N 0.05972 0.97327 0.60004 0.0
O773 O 0.01169 0.93022 0.60784 0.0
H774 H 0.07241 0.93327 0.62564 0.0
H775 H 0.02773 0.97464 0.60719 0.0
O776 O 0.03864 0.91121 0.63469 0.0
C777 C 0.99726 0.94272 0.60432 0.0
O778 O 0.99323 0.95653 0.61819 0.0
N779 N 0.03222 0.94617 0.66012 0.0
C780 C 0.03894 0.96493 0.69796 0.0
C781 C 0.03383 0.94424 0.69675 0.0
C782 C 0.03038 0.93519 0.67772 0.0
C783 C 0.03685 0.96638 0.66124 0.0
C784 C 0.04066 0.97588 0.67982 0.0
H785 H 0.02575 0.91943 0.67715 0.0
H786 H 0.03652 0.97575 0.64784 0.0
H787 H 1.00028 0.89489 0.6315 0.0
H788 H 0.95705 0.92214 0.66998 0.0
H789 H 0.08978 0.95998 0.60194 0.0
H790 H 0.0321 0.93522 0.71039 0.0
H791 H 0.04377 0.99204 0.67999 0.0
C792 C 0.6093 0.84237 0.73973 0.0
C793 C 0.60682 0.8564 0.72443 0.0
N794 N 0.62322 0.86864 0.72423 0.0
N795 N 0.62713 0.84584 0.74944 0.0
C796 C 0.63528 0.86194 0.73946 0.0
H797 H 0.59877 0.83025 0.74317 0.0
Co798 Co 0.63899 0.83096 0.77115 0.0
C799 C 0.62704 0.87116 0.79 0.0
O800 O 0.61257 0.87445 0.7766 0.0
N801 N 0.65088 0.81627 0.79223 0.0
C802 C 0.66041 0.80473 0.82252 0.0
C803 C 0.64924 0.81928 0.81247 0.0
C804 C 0.66289 0.79976 0.79034 0.0
N805 N 0.66896 0.79242 0.80856 0.0
O806 O 0.6657 0.83897 0.76232 0.0
H807 H 0.64022 0.83105 0.81954 0.0
H808 H 0.66707 0.79327 0.77582 0.0
O809 O 0.63748 0.85478 0.78918 0.0
C810 C 0.67112 0.82885 0.74669 0.0
O811 O 0.65821 0.81593 0.73858 0.0
N812 N 0.61344 0.82048 0.77872 0.0
C813 C 0.57755 0.79769 0.78275 0.0
C814 C 0.57929 0.81715 0.79157 0.0
C815 C 0.59749 0.82832 0.7895 0.0
C816 C 0.61224 0.80142 0.7708 0.0
C817 C 0.59464 0.78979 0.77272 0.0
H818 H 0.59849 0.84316 0.7963 0.0
H819 H 0.62509 0.79532 0.76253 0.0
H820 H 0.64978 0.86874 0.74334 0.0
H821 H 0.59424 0.85708 0.71381 0.0
H822 H 0.6616 0.80297 0.83883 0.0
H823 H 0.56658 0.82391 0.79957 0.0
H824 H 0.59451 0.77467 0.76623 0.0
C825 C 0.09396 0.1615 0.53132 0.0
C826 C 0.10796 0.16346 0.5468 0.0
N827 N 0.12064 0.14742 0.54615 0.0
N828 N 0.09785 0.14436 0.52072 0.0
C829 C 0.11414 0.13609 0.53027 0.0
H830 H 0.08162 0.17189 0.52829 0.0
Co831 Co 0.08365 0.13317 0.49835 0.0
C832 C 0.12482 0.14447 0.48106 0.0
O833 O 0.12768 0.15942 0.49398 0.0
N834 N 0.06961 0.12181 0.47635 0.0
C835 C 0.06014 0.11154 0.44552 0.0
C836 C 0.07469 0.12194 0.45644 0.0
C837 C 0.0518 0.11158 0.47708 0.0
N838 N 0.04574 0.10507 0.45855 0.0
O839 O 0.09039 0.10631 0.50761 0.0
H840 H 0.08797 0.12929 0.4501 0.0
H841 H 0.04345 0.10885 0.49098 0.0
O842 O 0.10836 0.13409 0.48166 0.0
C843 C 0.07692 0.10118 0.5206 0.0
O844 O 0.06292 0.11455 0.52555 0.0
N845 N 0.07428 0.15891 0.49042 0.0
C846 C 0.05188 0.19468 0.48475 0.0
C847 C 0.0715 0.19248 0.47629 0.0
C848 C 0.08247 0.17432 0.47918 0.0
C849 C 0.05508 0.16059 0.49803 0.0
C850 C 0.04366 0.17813 0.49533 0.0
H851 H 0.09734 0.17284 0.47242 0.0
H852 H 0.04862 0.14811 0.50653 0.0
H853 H 0.12128 0.12209 0.52548 0.0
H854 H 0.10838 0.17547 0.55803 0.0
H855 H 0.05992 0.10935 0.42921 0.0
H856 H 0.07846 0.20475 0.46782 0.0
H857 H 0.02839 0.1786 0.50154 0.0
C858 C 0.40518 0.68372 0.73379 0.0
C859 C 0.40788 0.67036 0.7179 0.0
N860 N 0.39827 0.6528 0.72239 0.0
N861 N 0.39412 0.67462 0.74842 0.0
C862 C 0.39009 0.65586 0.74105 0.0
H863 H 0.41026 0.69934 0.73432 0.0
Co864 Co 0.38317 0.68696 0.77158 0.0
C865 C 0.39624 0.65754 0.80342 0.0
O866 O 0.40574 0.67234 0.81292 0.0
N867 N 0.37079 0.6995 0.7946 0.0
C868 C 0.35172 0.70481 0.82224 0.0
C869 C 0.36277 0.69077 0.81144 0.0
C870 C 0.36341 0.71871 0.79524 0.0
N871 N 0.35213 0.72244 0.812 0.0
O872 O 0.35647 0.67911 0.76267 0.0
H873 H 0.36327 0.67484 0.81512 0.0
H874 H 0.36494 0.72937 0.78285 0.0
O875 O 0.38649 0.66126 0.78694 0.0
C876 C 0.3498 0.69355 0.75161 0.0
O877 O 0.36179 0.70919 0.74826 0.0
N878 N 0.4097 0.69678 0.77886 0.0
C879 C 0.44793 0.71528 0.78439 0.0
C880 C 0.44634 0.69423 0.78118 0.0
C881 C 0.42708 0.68529 0.77829 0.0
C882 C 0.4113 0.71734 0.78095 0.0
C883 C 0.43003 0.72677 0.78425 0.0
H884 H 0.42616 0.6692 0.77514 0.0
H885 H 0.39824 0.72688 0.77895 0.0
H886 H 0.38072 0.64494 0.74902 0.0
H887 H 0.4155 0.67377 0.70372 0.0
H888 H 0.34335 0.70198 0.83613 0.0
H889 H 0.45984 0.68481 0.78067 0.0
H890 H 0.43057 0.74315 0.78564 0.0
C891 C 0.93183 0.35878 0.52994 0.0
C892 C 0.91774 0.35537 0.54509 0.0
N893 N 0.90141 0.36726 0.54163 0.0
N894 N 0.92431 0.37248 0.51671 0.0
C895 C 0.90582 0.37747 0.52432 0.0
H896 H 0.94691 0.35222 0.52902 0.0
Co897 Co 0.93797 0.38493 0.49486 0.0
C898 C 0.90725 0.37454 0.46265 0.0
O899 O 0.92078 0.3634 0.4531 0.0
N900 N 0.95173 0.39865 0.47334 0.0
C901 C 0.95987 0.41657 0.4457 0.0
C902 C 0.94524 0.4047 0.45478 0.0
C903 C 0.97019 0.40768 0.47526 0.0
N904 N 0.97562 0.41845 0.45862 0.0
O905 O 0.93134 0.41103 0.50612 0.0
H906 H 0.93049 0.40184 0.44826 0.0
H907 H 0.97926 0.40685 0.48897 0.0
O908 O 0.9123 0.38424 0.47881 0.0
C909 C 0.94502 0.41423 0.51956 0.0
O910 O 0.95855 0.39986 0.52274 0.0
N911 N 0.94707 0.35891 0.48546 0.0
C912 C 0.96561 0.32097 0.47908 0.0
C913 C 0.94453 0.32243 0.4825 0.0
C914 C 0.93556 0.34153 0.48574 0.0
C915 C 0.96762 0.35748 0.48256 0.0
C916 C 0.97705 0.33889 0.47888 0.0
H917 H 0.91947 0.34231 0.4892 0.0
H918 H 0.97725 0.37055 0.48435 0.0
H919 H 0.89608 0.38891 0.51764 0.0
H920 H 0.91986 0.34572 0.55824 0.0
H921 H 0.95878 0.42351 0.43084 0.0
H922 H 0.93515 0.30892 0.48313 0.0
H923 H 0.99345 0.33847 0.47719 0.0
C924 C 0.60955 0.17784 0.77757 0.0
C925 C 0.60638 0.1635 0.79246 0.0
N926 N 0.61804 0.14719 0.7883 0.0
N927 N 0.62285 0.17051 0.76377 0.0
C928 C 0.62787 0.15186 0.77083 0.0
H929 H 0.60323 0.19299 0.77727 0.0
Co930 Co 0.63503 0.18506 0.74233 0.0
C931 C 0.62359 0.15485 0.70951 0.0
O932 O 0.61048 0.16745 0.70129 0.0
N933 N 0.64829 0.19983 0.72141 0.0
C934 C 0.66235 0.21142 0.69282 0.0
C935 C 0.65026 0.19655 0.70121 0.0
C936 C 0.6596 0.21671 0.72483 0.0
N937 N 0.66823 0.22417 0.70769 0.0
O938 O 0.66137 0.17732 0.7525 0.0
H939 H 0.64373 0.18418 0.69278 0.0
H940 H 0.66149 0.22334 0.73975 0.0
O941 O 0.6341 0.16031 0.72502 0.0
C942 C 0.66565 0.1879 0.76819 0.0
O943 O 0.65229 0.2014 0.77441 0.0
N944 N 0.6088 0.19475 0.73386 0.0
C945 C 0.57064 0.21351 0.72883 0.0
C946 C 0.57214 0.19245 0.73187 0.0
C947 C 0.59131 0.1834 0.7345 0.0
C948 C 0.60744 0.21528 0.73119 0.0
C949 C 0.58869 0.22484 0.72828 0.0
H950 H 0.59207 0.1673 0.73764 0.0
H951 H 0.62079 0.22473 0.73242 0.0
H952 H 0.6392 0.14227 0.76372 0.0
H953 H 0.59717 0.16544 0.80597 0.0
H954 H 0.66625 0.21281 0.6769 0.0
H955 H 0.5586 0.18308 0.73261 0.0
H956 H 0.58832 0.24121 0.72674 0.0
C957 C 0.43376 0.15728 0.48804 0.0
C958 C 0.41961 0.16085 0.47298 0.0
N959 N 0.40282 0.14978 0.47704 0.0
N960 N 0.42578 0.14435 0.50181 0.0
C961 C 0.40699 0.13992 0.49458 0.0
H962 H 0.44914 0.16315 0.48856 0.0
Co963 Co 0.43923 0.132 0.52372 0.0
C964 C 0.40706 0.14382 0.55465 0.0
O965 O 0.41837 0.15828 0.56248 0.0
N966 N 0.45268 0.11857 0.54536 0.0
C967 C 0.46338 0.10598 0.57494 0.0
C968 C 0.44971 0.11885 0.56569 0.0
C969 C 0.46827 0.10542 0.54276 0.0
N970 N 0.47504 0.09747 0.56044 0.0
O971 O 0.43161 0.10591 0.51299 0.0
H972 H 0.43848 0.12773 0.5736 0.0
H973 H 0.47497 0.1022 0.52813 0.0
O974 O 0.41384 0.13293 0.53999 0.0
C975 C 0.44445 0.10119 0.49923 0.0
O976 O 0.45868 0.11445 0.49453 0.0
N977 N 0.44921 0.15787 0.53271 0.0
C978 C 0.46994 0.19484 0.53868 0.0
C979 C 0.44896 0.19452 0.53434 0.0
C980 C 0.43893 0.1759 0.53118 0.0
C981 C 0.46963 0.15813 0.53672 0.0
C982 C 0.48005 0.17619 0.54029 0.0
H983 H 0.42302 0.17601 0.52688 0.0
H984 H 0.47844 0.14435 0.5362 0.0
H985 H 0.39687 0.12905 0.50167 0.0
H986 H 0.42195 0.16994 0.45948 0.0
H987 H 0.46444 0.10301 0.59108 0.0
H988 H 0.4405 0.2085 0.53248 0.0
H989 H 0.49616 0.17544 0.54371 0.0
C990 C 0.41031 0.33727 0.77982 0.0
C991 C 0.41466 0.35141 0.79463 0.0
N992 N 0.40313 0.36804 0.79137 0.0
N993 N 0.39622 0.34493 0.76705 0.0
C994 C 0.39232 0.36373 0.77435 0.0
H995 H 0.41597 0.32188 0.77936 0.0
Co996 Co 0.38064 0.33067 0.74784 0.0
C997 C 0.38649 0.35276 0.70927 0.0
O998 O 0.38968 0.33497 0.70077 0.0
N999 N 0.3638 0.31654 0.72896 0.0
C1000 C 0.33736 0.31202 0.7081 0.0
C1001 C 0.34904 0.32602 0.71822 0.0
C1002 C 0.36018 0.29653 0.72552 0.0
N1003 N 0.34426 0.29339 0.71276 0.0
O1004 O 0.35629 0.34189 0.75941 0.0
H1005 H 0.3463 0.3422 0.71837 0.0
H1006 H 0.36801 0.28438 0.73317 0.0
O1007 O 0.38321 0.3537 0.72847 0.0
C1008 C 0.3521 0.33181 0.77542 0.0
O1009 O 0.36457 0.31722 0.78095 0.0
N1010 N 0.40466 0.31773 0.73839 0.0
C1011 C 0.44061 0.29514 0.73324 0.0
C1012 C 0.43963 0.31567 0.72738 0.0
C1013 C 0.42163 0.32682 0.73044 0.0
C1014 C 0.40567 0.29809 0.74478 0.0
C1015 C 0.42313 0.28642 0.74186 0.0
H1016 H 0.42174 0.34292 0.72736 0.0
H1017 H 0.39325 0.29174 0.75343 0.0
H1018 H 0.38076 0.37351 0.76794 0.0
H1019 H 0.42441 0.3489 0.80765 0.0
H1020 H 0.32441 0.31541 0.69851 0.0
H1021 H 0.45292 0.32336 0.7214 0.0
H1022 H 0.42299 0.27078 0.74689 0.0
C1023 C 0.59428 0.35377 0.49205 0.0
C1024 C 0.60825 0.35101 0.47667 0.0
N1025 N 0.62006 0.36768 0.47558 0.0
N1026 N 0.59736 0.37207 0.50087 0.0
C1027 C 0.61316 0.38016 0.49034 0.0
H1028 H 0.58252 0.34309 0.49622 0.0
Co1029 Co 0.58264 0.38476 0.5222 0.0
C1030 C 0.62359 0.37494 0.54031 0.0
O1031 O 0.62626 0.35948 0.52798 0.0
N1032 N 0.56803 0.39752 0.54289 0.0
C1033 C 0.55703 0.40897 0.57272 0.0
C1034 C 0.57181 0.39771 0.56306 0.0
C1035 C 0.55083 0.40851 0.54068 0.0
N1036 N 0.54381 0.41574 0.5586 0.0
O1037 O 0.58935 0.41087 0.51122 0.0
H1038 H 0.58431 0.38994 0.57039 0.0
H1039 H 0.54365 0.41119 0.52612 0.0
O1040 O 0.60713 0.38529 0.53945 0.0
C1041 C 0.57767 0.41431 0.49611 0.0
O1042 O 0.56452 0.40019 0.49085 0.0
N1043 N 0.57341 0.3596 0.53188 0.0
C1044 C 0.55193 0.32396 0.54049 0.0
C1045 C 0.5714 0.32733 0.54881 0.0
C1046 C 0.58184 0.3455 0.54456 0.0
C1047 C 0.55441 0.35666 0.52408 0.0
C1048 C 0.54343 0.33905 0.52818 0.0
H1049 H 0.59646 0.34802 0.55151 0.0
H1050 H 0.54786 0.36808 0.51425 0.0
H1051 H 0.61966 0.39492 0.49357 0.0
H1052 H 0.6092 0.338 0.46665 0.0
H1053 H 0.55583 0.41151 0.58893 0.0
H1054 H 0.57839 0.31612 0.55862 0.0
H1055 H 0.52858 0.33706 0.52125 0.0
C1056 C 0.74138 0.60627 0.84071 0.0
C1057 C 0.72678 0.60238 0.85526 0.0
N1058 N 0.72975 0.61517 0.871 0.0
N1059 N 0.75368 0.6213 0.84733 0.0
C1060 C 0.74627 0.62629 0.86584 0.0
H1061 H 0.74222 0.59937 0.82581 0.0
Co1062 Co 0.77355 0.6359 0.83304 0.0
C1063 C 0.81104 0.6298 0.85678 0.0
O1064 O 0.81988 0.62555 0.83935 0.0
N1065 N 0.79327 0.65187 0.81907 0.0
C1066 C 0.81488 0.67771 0.81495 0.0
C1067 C 0.80445 0.66618 0.82876 0.0
C1068 C 0.79665 0.65576 0.79909 0.0
N1069 N 0.80989 0.67131 0.79619 0.0
O1070 O 0.76156 0.66086 0.84226 0.0
H1071 H 0.80422 0.66895 0.84496 0.0
H1072 H 0.78845 0.64858 0.78684 0.0
O1073 O 0.79198 0.6341 0.857 0.0
C1074 C 0.74791 0.66427 0.82885 0.0
O1075 O 0.74544 0.65073 0.81435 0.0
N1076 N 0.78323 0.61129 0.82158 0.0
C1077 C 0.78945 0.57476 0.80047 0.0
C1078 C 0.79353 0.57617 0.82143 0.0
C1079 C 0.78998 0.5945 0.8318 0.0
C1080 C 0.77828 0.60975 0.80152 0.0
C1081 C 0.78169 0.59193 0.79061 0.0
H1082 H 0.79186 0.59488 0.84812 0.0
H1083 H 0.77027 0.62199 0.79418 0.0
H1084 H 0.75235 0.63859 0.87492 0.0
H1085 H 0.71412 0.59194 0.85372 0.0
H1086 H 0.82477 0.69035 0.81858 0.0
H1087 H 0.79899 0.56314 0.82984 0.0
H1088 H 0.77718 0.59132 0.77478 0.0
C1089 C 0.85937 0.03254 0.42689 0.0
C1090 C 0.85534 0.04735 0.4127 0.0
N1091 N 0.86773 0.04455 0.39658 0.0
N1092 N 0.87411 0.02021 0.41978 0.0
C1093 C 0.87878 0.02782 0.40125 0.0
H1094 H 0.85291 0.03176 0.44198 0.0
Co1095 Co 0.88922 1.00101 0.43457 0.0
C1096 C 0.88417 0.96251 0.41252 0.0
O1097 O 0.88073 0.95431 0.43041 0.0
N1098 N 0.90563 0.98216 0.44923 0.0
C1099 C 0.93247 0.96214 0.45474 0.0
C1100 C 0.92123 0.97216 0.44033 0.0
C1101 C 0.90813 0.97821 0.46933 0.0
N1102 N 0.92431 0.966 0.4731 0.0
O1103 O 0.91392 0.01298 0.42457 0.0
H1104 H 0.9249 0.97291 0.42432 0.0
H1105 H 0.89894 0.98479 0.48115 0.0
O1106 O 0.88754 0.98167 0.41136 0.0
C1107 C 0.91716 0.02766 0.43682 0.0
O1108 O 0.90375 0.03093 0.4513 0.0
N1109 N 0.86483 0.99144 0.44663 0.0
C1110 C 0.82864 0.98591 0.46872 0.0
C1111 C 0.82999 0.97997 0.44819 0.0
C1112 C 0.84812 0.98323 0.43727 0.0
C1113 C 0.86338 0.99802 0.4662 0.0
C1114 C 0.84584 0.99487 0.47765 0.0
H1115 H 0.84835 0.98 0.42117 0.0
H1116 H 0.87561 1.00684 0.47272 0.0
H1117 H 0.89092 0.02181 0.39193 0.0
H1118 H 0.8451 0.06002 0.41484 0.0
H1119 H 0.94634 0.95375 0.45192 0.0
H1120 H 0.8169 0.97372 0.44035 0.0
H1121 H 0.84572 0.99994 0.4933 0.0
C1122 C 0.27846 0.90583 0.84208 0.0
C1123 C 0.29347 0.91 0.85612 0.0
N1124 N 0.29063 0.89789 0.87238 0.0
N1125 N 0.26595 0.89141 0.84959 0.0
C1126 C 0.27383 0.88682 0.86803 0.0
H1127 H 0.27722 0.9123 0.82702 0.0
Co1128 Co 0.24484 0.87776 0.836 0.0
C1129 C 0.21099 0.88724 0.86486 0.0
O1130 O 0.20082 0.89626 0.85024 0.0
N1131 N 0.2241 0.86294 0.8223 0.0
C1132 C 0.19804 0.84253 0.81465 0.0
C1133 C 0.20662 0.85463 0.82936 0.0
C1134 C 0.22612 0.85474 0.80352 0.0
N1135 N 0.21033 0.84257 0.79831 0.0
O1136 O 0.25654 0.85234 0.84397 0.0
H1137 H 0.20092 0.85577 0.84465 0.0
H1138 H 0.23938 0.85718 0.7941 0.0
O1139 O 0.22822 0.87892 0.86109 0.0
C1140 C 0.27113 0.84897 0.83161 0.0
O1141 O 0.2748 0.86253 0.81741 0.0
N1142 N 0.23498 0.90307 0.82595 0.0
C1143 C 0.22888 0.94058 0.80662 0.0
C1144 C 0.22979 0.93927 0.82794 0.0
C1145 C 0.2331 0.92041 0.8373 0.0
C1146 C 0.23448 0.90432 0.80525 0.0
C1147 C 0.23108 0.92268 0.79536 0.0
H1148 H 0.23505 0.91987 0.85362 0.0
H1149 H 0.23818 0.89137 0.79607 0.0
H1150 H 0.2678 0.87497 0.87771 0.0
H1151 H 0.3062 0.92024 0.85398 0.0
H1152 H 0.18439 0.83348 0.8164 0.0
H1153 H 0.22853 0.95275 0.83728 0.0
H1154 H 0.23149 0.92297 0.7789 0.0
C1155 C 0.16422 0.49284 0.43118 0.0
C1156 C 0.16734 0.47626 0.41882 0.0
N1157 N 0.15243 0.47576 0.40477 0.0
N1158 N 0.14742 0.50288 0.42497 0.0
C1159 C 0.14054 0.49197 0.40886 0.0
H1160 H 0.17321 0.4967 0.4444 0.0
Co1161 Co 0.13403 0.52433 0.43855 0.0
C1162 C 0.14332 0.54136 0.3967 0.0
O1163 O 0.15815 0.52837 0.39352 0.0
N1164 N 0.1204 0.54506 0.45235 0.0
C1165 C 0.10752 0.57447 0.46284 0.0
C1166 C 0.11907 0.56506 0.44808 0.0
C1167 C 0.10977 0.54273 0.46975 0.0
N1168 N 0.10174 0.56037 0.4765 0.0
O1169 O 0.10817 0.51231 0.4318 0.0
H1170 H 0.12629 0.57245 0.4353 0.0
H1171 H 0.108 0.52828 0.47735 0.0
O1172 O 0.13354 0.54104 0.41356 0.0
C1173 C 0.10509 0.49772 0.4442 0.0
O1174 O 0.1193 0.49375 0.45772 0.0
N1175 N 0.15911 0.53494 0.44786 0.0
C1176 C 0.19534 0.54371 0.46861 0.0
C1177 C 0.193 0.54889 0.448 0.0
C1178 C 0.17459 0.54461 0.4379 0.0
C1179 C 0.1611 0.5302 0.46794 0.0
C1180 C 0.17891 0.53459 0.47862 0.0
H1181 H 0.17319 0.54874 0.42216 0.0
H1182 H 0.14889 0.52228 0.47561 0.0
H1183 H 0.12657 0.49537 0.4008 0.0
H1184 H 0.17934 0.46512 0.4204 0.0
H1185 H 0.10416 0.59053 0.46374 0.0
H1186 H 0.20534 0.55604 0.43974 0.0
H1187 H 0.1801 0.53004 0.4944 0.0
C1188 C 0.73644 0.40704 0.68284 0.0
C1189 C 0.72054 0.41029 0.6696 0.0
N1190 N 0.72455 0.40048 0.65204 0.0
N1191 N 0.75062 0.39546 0.67365 0.0
C1192 C 0.74294 0.39165 0.65495 0.0
H1193 H 0.73721 0.41201 0.69851 0.0
Co1194 Co 0.77323 0.38334 0.6861 0.0
C1195 C 0.80283 0.39596 0.65285 0.0
O1196 O 0.81009 0.41104 0.66368 0.0
N1197 N 0.79561 0.37026 0.69852 0.0
C1198 C 0.82615 0.35964 0.70879 0.0
C1199 C 0.81591 0.37277 0.69612 0.0
C1200 C 0.79401 0.3556 0.71279 0.0
N1201 N 0.81229 0.34877 0.71922 0.0
O1202 O 0.76224 0.357 0.67894 0.0
H1203 H 0.82307 0.38357 0.68615 0.0
H1204 H 0.77963 0.35045 0.71887 0.0
O1205 O 0.78877 0.38451 0.66008 0.0
C1206 C 0.74837 0.35306 0.692 0.0
O1207 O 0.74472 0.36672 0.70613 0.0
N1208 N 0.78215 0.40931 0.69591 0.0
C1209 C 0.78722 0.4462 0.71699 0.0
C1210 C 0.78232 0.446 0.69618 0.0
C1211 C 0.77953 0.42742 0.68601 0.0
C1212 C 0.78677 0.40944 0.71618 0.0
C1213 C 0.78983 0.42751 0.72677 0.0
H1214 H 0.7746 0.4276 0.67031 0.0
H1215 H 0.78706 0.3955 0.72477 0.0
H1216 H 0.75039 0.38186 0.64404 0.0
H1217 H 0.7066 0.4183 0.67312 0.0
H1218 H 0.84251 0.35819 0.71013 0.0
H1219 H 0.77968 0.46004 0.68803 0.0
H1220 H 0.79361 0.42673 0.74278 0.0
C1221 C 0.66003 0.0291 0.58359 0.0
C1222 C 0.66328 0.04444 0.59747 0.0
N1223 N 0.65106 0.04125 0.61361 0.0
N1224 N 0.64611 0.01602 0.59109 0.0
C1225 C 0.64082 0.02394 0.60933 0.0
H1226 H 0.6669 0.02792 0.56869 0.0
Co1227 Co 0.63417 0.99385 0.5777 0.0
C1228 C 0.64502 0.96048 0.60626 0.0
O1229 O 0.65375 0.95062 0.59123 0.0
N1230 N 0.62087 0.97199 0.56405 0.0
C1231 C 0.60033 0.94574 0.55732 0.0
C1232 C 0.61172 0.95535 0.572 0.0
C1233 C 0.61387 0.97247 0.54466 0.0
N1234 N 0.60168 0.95656 0.54006 0.0
O1235 O 0.60787 1.00353 0.58559 0.0
H1236 H 0.61171 0.9511 0.58782 0.0
H1237 H 0.6163 0.98514 0.53451 0.0
O1238 O 0.63643 0.97762 0.60289 0.0
C1239 C 0.60163 0.01546 0.57168 0.0
O1240 O 0.61377 0.01921 0.55625 0.0
N1241 N 0.66039 0.98567 0.56803 0.0
C1242 C 0.69876 0.98006 0.55001 0.0
C1243 C 0.69678 0.9815 0.57123 0.0
C1244 C 0.67747 0.98446 0.57994 0.0
C1245 C 0.66235 0.98499 0.54739 0.0
C1246 C 0.68116 0.98173 0.53814 0.0
H1247 H 0.67635 0.98654 0.59621 0.0
H1248 H 0.64958 0.98825 0.53775 0.0
H1249 H 0.62919 0.01744 0.61901 0.0
H1250 H 0.67305 0.05752 0.59536 0.0
H1251 H 0.59112 0.93228 0.55948 0.0
H1252 H 0.71005 0.98075 0.58099 0.0
H1253 H 0.68204 0.98169 0.52169 0.0
C1254 C 0.28544 0.10474 0.68298 0.0
C1255 C 0.30037 0.10179 0.66856 0.0
N1256 N 0.29585 0.11318 0.65216 0.0
N1257 N 0.27132 0.11763 0.67557 0.0
C1258 C 0.27815 0.12257 0.65681 0.0
H1259 H 0.28536 0.09861 0.69823 0.0
Co1260 Co 0.24958 0.12979 0.68959 0.0
C1261 C 0.21795 0.11662 0.65829 0.0
O1262 O 0.21099 0.10175 0.66958 0.0
N1263 N 0.22799 0.1428 0.7034 0.0
C1264 C 0.19785 0.15252 0.71542 0.0
C1265 C 0.20768 0.1397 0.70221 0.0
C1266 C 0.23004 0.15759 0.71754 0.0
N1267 N 0.21192 0.16379 0.72515 0.0
O1268 O 0.25942 0.15601 0.68121 0.0
H1269 H 0.20022 0.12864 0.69278 0.0
H1270 H 0.24466 0.1632 0.72262 0.0
O1271 O 0.23243 0.12799 0.66478 0.0
C1272 C 0.27511 0.16048 0.69179 0.0
O1273 O 0.28141 0.14735 0.70545 0.0
N1274 N 0.24168 0.10405 0.70036 0.0
C1275 C 0.23669 0.06778 0.72222 0.0
C1276 C 0.23967 0.06747 0.70107 0.0
C1277 C 0.24258 0.08577 0.69047 0.0
C1278 C 0.23929 0.10438 0.72099 0.0
C1279 C 0.23635 0.08662 0.73205 0.0
H1280 H 0.24607 0.08521 0.67441 0.0
H1281 H 0.24054 0.11845 0.7293 0.0
H1282 H 0.27074 0.1336 0.64713 0.0
H1283 H 0.31416 0.09301 0.67052 0.0
H1284 H 0.18155 0.15336 0.71764 0.0
H1285 H 0.24062 0.05322 0.69291 0.0
H1286 H 0.23426 0.0877 0.74835 0.0
C1287 C 0.3555 0.48869 0.58918 0.0
C1288 C 0.35224 0.47189 0.60116 0.0
N1289 N 0.36699 0.4711 0.61537 0.0
N1290 N 0.37219 0.49869 0.59581 0.0
C1291 C 0.37889 0.48748 0.61178 0.0
H1292 H 0.34673 0.49272 0.57588 0.0
Co1293 Co 0.38563 0.52032 0.58243 0.0
C1294 C 0.37635 0.53766 0.62431 0.0
O1295 O 0.36223 0.52415 0.62845 0.0
N1296 N 0.39932 0.54135 0.56892 0.0
C1297 C 0.41058 0.57142 0.55839 0.0
C1298 C 0.39879 0.56151 0.57261 0.0
C1299 C 0.41134 0.53941 0.55239 0.0
N1300 N 0.41841 0.55747 0.54561 0.0
O1301 O 0.4115 0.50853 0.58946 0.0
H1302 H 0.38999 0.56865 0.58452 0.0
H1303 H 0.41464 0.52498 0.54529 0.0
O1304 O 0.38564 0.53713 0.60722 0.0
C1305 C 0.41456 0.49434 0.57657 0.0
O1306 O 0.40028 0.49077 0.563 0.0
N1307 N 0.36059 0.53064 0.57279 0.0
C1308 C 0.32458 0.53839 0.55103 0.0
C1309 C 0.32582 0.54229 0.5721 0.0
C1310 C 0.34406 0.5384 0.58272 0.0
C1311 C 0.35974 0.52732 0.55236 0.0
C1312 C 0.34221 0.53142 0.54122 0.0
H1313 H 0.34447 0.54094 0.59888 0.0
H1314 H 0.37273 0.52084 0.54465 0.0
H1315 H 0.39279 0.49073 0.62003 0.0
H1316 H 0.34024 0.46077 0.59917 0.0
H1317 H 0.4126 0.58768 0.55714 0.0
H1318 H 0.31268 0.54758 0.58048 0.0
H1319 H 0.34253 0.52876 0.52499 0.0
C1320 C 0.84608 0.73841 0.60594 0.0
C1321 C 0.86026 0.72319 0.60357 0.0
N1322 N 0.87287 0.7235 0.61971 0.0
N1323 N 0.84978 0.74853 0.62344 0.0
C1324 C 0.8662 0.73897 0.63147 0.0
H1325 H 0.83363 0.74147 0.59565 0.0
Co1326 Co 0.83468 0.76994 0.6355 0.0
C1327 C 0.87503 0.78904 0.62456 0.0
O1328 O 0.87812 0.77632 0.60949 0.0
N1329 N 0.8198 0.79094 0.64755 0.0
C1330 C 0.8073 0.82159 0.65406 0.0
C1331 C 0.8216 0.81089 0.64324 0.0
C1332 C 0.80435 0.78987 0.66112 0.0
N1333 N 0.79645 0.80838 0.66531 0.0
O1334 O 0.84195 0.7601 0.66195 0.0
H1335 H 0.83234 0.81725 0.63252 0.0
H1336 H 0.79854 0.77577 0.66724 0.0
O1337 O 0.85867 0.78786 0.63506 0.0
C1338 C 0.83093 0.74455 0.66561 0.0
O1339 O 0.81783 0.73866 0.65168 0.0
N1340 N 0.82485 0.77819 0.61004 0.0
C1341 C 0.80202 0.78366 0.57453 0.0
C1342 C 0.82146 0.79256 0.57661 0.0
C1343 C 0.83267 0.78972 0.59465 0.0
C1344 C 0.8058 0.77018 0.60849 0.0
C1345 C 0.79416 0.77276 0.59105 0.0
H1346 H 0.84743 0.79673 0.59604 0.0
H1347 H 0.79967 0.76142 0.62097 0.0
H1348 H 0.87317 0.7433 0.64573 0.0
H1349 H 0.86073 0.71225 0.5913 0.0
H1350 H 0.80497 0.83785 0.65359 0.0
H1351 H 0.82809 0.80127 0.56433 0.0
H1352 H 0.77905 0.76617 0.59058 0.0
C1353 C 0.83331 0.2777 0.89925 0.0
C1354 C 0.84508 0.29455 0.90289 0.0
N1355 N 0.86277 0.2925 0.89273 0.0
N1356 N 0.84352 0.26486 0.88699 0.0
C1357 C 0.86151 0.27428 0.88327 0.0
H1358 H 0.81783 0.27549 0.90438 0.0
Co1359 Co 0.83202 0.24202 0.8746 0.0
C1360 C 0.86114 0.20926 0.8851 0.0
O1361 O 0.84584 0.19839 0.89199 0.0
N1362 N 0.82007 0.21939 0.86098 0.0
C1363 C 0.8158 0.19421 0.83855 0.0
C1364 C 0.82976 0.20525 0.84959 0.0
C1365 C 0.80023 0.217 0.85579 0.0
N1366 N 0.79717 0.20167 0.84248 0.0
O1367 O 0.84059 0.25198 0.84873 0.0
H1368 H 0.84608 0.20396 0.84797 0.0
H1369 H 0.78839 0.22757 0.85986 0.0
O1370 O 0.85787 0.22703 0.87787 0.0
C1371 C 0.82571 0.26187 0.84125 0.0
O1372 O 0.80897 0.26358 0.85207 0.0
N1373 N 0.82162 0.23368 0.90027 0.0
C1374 C 0.80171 0.22891 0.93774 0.0
C1375 C 0.82308 0.22792 0.93645 0.0
C1376 C 0.83277 0.23071 0.91761 0.0
C1377 C 0.801 0.23567 0.90162 0.0
C1378 C 0.79075 0.23287 0.91993 0.0
H1379 H 0.8492 0.23138 0.91717 0.0
H1380 H 0.79247 0.24121 0.88885 0.0
H1381 H 0.87276 0.26861 0.87267 0.0
H1382 H 0.84059 0.30773 0.91164 0.0
H1383 H 0.81923 0.18232 0.82773 0.0
H1384 H 0.83225 0.22551 0.94991 0.0
H1385 H 0.77441 0.23508 0.92031 0.0
C1386 C 0.53297 0.93461 0.355 0.0
C1387 C 0.54792 0.92032 0.35166 0.0
N1388 N 0.54346 0.90365 0.36267 0.0
N1389 N 0.5189 0.92687 0.36778 0.0
C1390 C 0.52578 0.90804 0.37225 0.0
H1391 H 0.53282 0.94999 0.34922 0.0
Co1392 Co 0.49721 0.94052 0.38041 0.0
C1393 C 0.46593 0.90879 0.36796 0.0
O1394 O 0.45821 0.92029 0.35363 0.0
N1395 N 0.47578 0.95405 0.39407 0.0
C1396 C 0.44611 0.9649 0.40629 0.0
C1397 C 0.4554 0.95143 0.39329 0.0
C1398 C 0.47841 0.96925 0.40768 0.0
N1399 N 0.4606 0.97619 0.41539 0.0
O1400 O 0.50797 0.93248 0.40644 0.0
H1401 H 0.44747 0.94061 0.38393 0.0
H1402 H 0.49319 0.97544 0.41141 0.0
O1403 O 0.48055 0.91537 0.37909 0.0
C1404 C 0.52312 0.94399 0.41043 0.0
O1405 O 0.52803 0.95803 0.39709 0.0
N1406 N 0.48839 0.95093 0.35465 0.0
C1407 C 0.48393 0.97232 0.31787 0.0
C1408 C 0.48739 0.95125 0.31792 0.0
C1409 C 0.48983 0.94089 0.33645 0.0
C1410 C 0.48503 0.9714 0.35466 0.0
C1411 C 0.48228 0.98218 0.33666 0.0
H1412 H 0.49369 0.92493 0.33614 0.0
H1413 H 0.48559 0.97996 0.36862 0.0
H1414 H 0.51839 0.8981 0.38307 0.0
H1415 H 0.56166 0.92253 0.34284 0.0
H1416 H 0.42988 0.96609 0.40884 0.0
H1417 H 0.48921 0.94298 0.30381 0.0
H1418 H 0.47955 0.99836 0.33757 0.0
C1419 C 0.19098 0.23323 0.90473 0.0
C1420 C 0.17972 0.21594 0.90785 0.0
N1421 N 0.16203 0.21764 0.8976 0.0
N1422 N 0.18044 0.24604 0.89272 0.0
C1423 C 0.16278 0.23613 0.88863 0.0
H1424 H 0.20632 0.23583 0.91012 0.0
Co1425 Co 0.19095 0.26977 0.88111 0.0
C1426 C 0.16105 0.30129 0.89254 0.0
O1427 O 0.17625 0.31238 0.89934 0.0
N1428 N 0.2017 0.29344 0.86828 0.0
C1429 C 0.20392 0.3189 0.84595 0.0
C1430 C 0.19092 0.30631 0.85639 0.0
C1431 C 0.22135 0.29825 0.86413 0.0
N1432 N 0.22312 0.31375 0.85078 0.0
O1433 O 0.18281 0.2602 0.85486 0.0
H1434 H 0.17464 0.30564 0.85405 0.0
H1435 H 0.2342 0.28931 0.86895 0.0
O1436 O 0.16453 0.28367 0.88502 0.0
C1437 C 0.19849 0.252 0.84692 0.0
O1438 O 0.21546 0.2516 0.85752 0.0
N1439 N 0.20122 0.27763 0.90699 0.0
C1440 C 0.2218 0.2821 0.94414 0.0
C1441 C 0.20044 0.2833 0.94322 0.0
C1442 C 0.19038 0.28047 0.92454 0.0
C1443 C 0.22184 0.27557 0.90796 0.0
C1444 C 0.23243 0.27824 0.9261 0.0
H1445 H 0.17394 0.27974 0.9244 0.0
H1446 H 0.23011 0.27027 0.89488 0.0
H1447 H 0.15136 0.24177 0.87821 0.0
H1448 H 0.18454 0.20279 0.91647 0.0
H1449 H 0.19955 0.33021 0.83485 0.0
H1450 H 0.19153 0.28542 0.95691 0.0
H1451 H 0.24885 0.27669 0.92601 0.0
C1452 C 0.99469 0.09094 0.85651 0.0
C1453 C 0.98037 0.10568 0.85248 0.0
N1454 N 0.98141 0.11982 0.86722 0.0
N1455 N 1.00498 0.09588 0.8736 0.0
C1456 C 0.99651 0.11361 0.8797 0.0
H1457 H 0.99664 0.07703 0.84801 0.0
Co1458 Co 0.02398 0.08043 0.88854 0.0
C1459 C 0.06271 0.10252 0.88386 0.0
O1460 O 0.07107 0.08476 0.88018 0.0
N1461 N 0.04268 0.06532 0.90469 0.0
C1462 C 0.0627 0.0593 0.93143 0.0
C1463 C 0.05331 0.07397 0.92005 0.0
C1464 C 0.04554 0.04512 0.90756 0.0
N1465 N 0.05775 0.04105 0.92369 0.0
O1466 O 0.01199 0.08989 0.91348 0.0
H1467 H 0.05323 0.09001 0.92359 0.0
H1468 H 0.03803 0.0335 0.89881 0.0
O1469 O 0.04351 0.10348 0.88732 0.0
C1470 C 0.99756 0.07719 0.91637 0.0
O1471 O 0.99445 0.06327 0.90238 0.0
N1472 N 0.03352 0.06861 0.86405 0.0
C1473 C 0.03756 0.04669 0.82765 0.0
C1474 C 0.04469 0.06682 0.82917 0.0
C1475 C 0.04217 0.07769 0.84744 0.0
C1476 C 0.02619 0.04933 0.86252 0.0
C1477 C 0.02852 0.03798 0.84484 0.0
H1478 H 0.04613 0.0936 0.84779 0.0
H1479 H 0.01722 0.04306 0.87473 0.0
H1480 H 1.00076 0.12142 0.89355 0.0
H1481 H 0.96914 0.1053 0.84043 0.0
H1482 H 0.07127 0.06191 0.94525 0.0
H1483 H 0.05116 0.07443 0.81609 0.0
H1484 H 0.02262 0.02263 0.84454 0.0
C1485 C 0.68623 0.28534 0.1085 0.0
C1486 C 0.67232 0.30073 0.10561 0.0
N1487 N 0.65546 0.29639 0.11645 0.0
N1488 N 0.67804 0.27112 0.12077 0.0
C1489 C 0.65936 0.27838 0.12553 0.0
H1490 H 0.70156 0.28483 0.1025 0.0
Co1491 Co 0.69106 0.24816 0.13158 0.0
C1492 C 0.65725 0.21925 0.11814 0.0
O1493 O 0.66737 0.2126 0.10231 0.0
N1494 N 0.70402 0.22517 0.14323 0.0
C1495 C 0.71573 0.19397 0.14915 0.0
C1496 C 0.70238 0.20542 0.13786 0.0
C1497 C 0.71846 0.22521 0.15798 0.0
N1498 N 0.72584 0.20645 0.1618 0.0
O1499 O 0.68413 0.25745 0.15837 0.0
H1500 H 0.69289 0.19956 0.12589 0.0
H1501 H 0.72433 0.23883 0.16504 0.0
O1502 O 0.66515 0.23259 0.12998 0.0
C1503 C 0.69782 0.27041 0.16304 0.0
O1504 O 0.71205 0.27439 0.14954 0.0
N1505 N 0.70061 0.24082 0.10514 0.0
C1506 C 0.72146 0.23679 0.06806 0.0
C1507 C 0.70043 0.24076 0.06843 0.0
C1508 C 0.69037 0.24318 0.08715 0.0
C1509 C 0.72114 0.23745 0.10481 0.0
C1510 C 0.73167 0.23494 0.08663 0.0
H1511 H 0.67449 0.24756 0.08717 0.0
H1512 H 0.72985 0.2376 0.11873 0.0
H1513 H 0.64906 0.27087 0.13594 0.0
H1514 H 0.67484 0.31453 0.09705 0.0
H1515 H 0.71812 0.17777 0.14781 0.0
H1516 H 0.69201 0.24291 0.05443 0.0
H1517 H 0.7479 0.23204 0.08721 0.0
C1518 C 0.53007 0.09552 0.1552 0.0
C1519 C 0.54471 0.11008 0.1588 0.0
N1520 N 0.54181 0.12552 0.14569 0.0
N1521 N 0.51773 0.10182 0.14006 0.0
C1522 C 0.52529 0.12015 0.13461 0.0
H1523 H 0.52917 0.08088 0.16255 0.0
Co1524 Co 0.49728 0.0871 0.1266 0.0
C1525 C 0.45942 0.10975 0.134 0.0
O1526 O 0.4511 0.09207 0.13818 0.0
N1527 N 0.47697 0.07246 0.11186 0.0
C1528 C 0.45516 0.06662 0.0865 0.0
C1529 C 0.46569 0.08119 0.09707 0.0
C1530 C 0.47325 0.05233 0.10954 0.0
N1531 N 0.45996 0.04833 0.09424 0.0
O1532 O 0.50741 0.09678 0.10097 0.0
H1533 H 0.46601 0.09717 0.09332 0.0
H1534 H 0.48093 0.04069 0.11805 0.0
O1535 O 0.47838 0.11053 0.12933 0.0
C1536 C 0.51862 0.08252 0.09414 0.0
O1537 O 0.52132 0.06635 0.10553 0.0
N1538 N 0.48921 0.0755 0.15177 0.0
C1539 C 0.48378 0.05406 0.1882 0.0
C1540 C 0.47886 0.0748 0.1869 0.0
C1541 C 0.48202 0.08536 0.16861 0.0
C1542 C 0.49531 0.05579 0.15331 0.0
C1543 C 0.49227 0.04468 0.17108 0.0
H1544 H 0.47931 0.10153 0.16827 0.0
H1545 H 0.5036 0.04888 0.14096 0.0
H1546 H 0.51922 0.12903 0.12217 0.0
H1547 H 0.5573 0.10877 0.16935 0.0
H1548 H 0.4458 0.06934 0.07326 0.0
H1549 H 0.47288 0.08287 0.19995 0.0
H1550 H 0.49743 0.02907 0.17167 0.0
C1551 C 0.48965 0.43193 0.16009 0.0
C1552 C 0.47458 0.41774 0.1634 0.0
N1553 N 0.47848 0.40137 0.15174 0.0
N1554 N 0.50327 0.42439 0.14672 0.0
C1555 C 0.49594 0.40582 0.14181 0.0
H1556 H 0.4902 0.44711 0.16637 0.0
Co1557 Co 0.52502 0.43812 0.13421 0.0
C1558 C 0.55626 0.40625 0.14624 0.0
O1559 O 0.56379 0.41752 0.16088 0.0
N1560 N 0.54656 0.4517 0.12074 0.0
C1561 C 0.57637 0.46267 0.10887 0.0
C1562 C 0.56696 0.44931 0.1219 0.0
C1563 C 0.54406 0.46669 0.10693 0.0
N1564 N 0.56192 0.47364 0.09939 0.0
O1565 O 0.51411 0.43056 0.10803 0.0
H1566 H 0.57482 0.43875 0.13157 0.0
H1567 H 0.52935 0.47282 0.10292 0.0
O1568 O 0.54166 0.41291 0.13515 0.0
C1569 C 0.49966 0.44306 0.10446 0.0
O1570 O 0.49543 0.45662 0.11852 0.0
N1571 N 0.53385 0.44836 0.16003 0.0
C1572 C 0.53851 0.46995 0.19668 0.0
C1573 C 0.53543 0.44881 0.19674 0.0
C1574 C 0.53276 0.43836 0.17826 0.0
C1575 C 0.53671 0.46891 0.15995 0.0
C1576 C 0.5395 0.47982 0.17787 0.0
H1577 H 0.52905 0.42235 0.17866 0.0
H1578 H 0.5357 0.4774 0.14598 0.0
H1579 H 0.50285 0.39609 0.13048 0.0
H1580 H 0.46113 0.41983 0.17268 0.0
H1581 H 0.59262 0.46405 0.10653 0.0
H1582 H 0.53406 0.44059 0.21092 0.0
H1583 H 0.54179 0.49608 0.17695 0.0
H1584 H 0.22022 0.17775 0.2994 0.0
H1585 H 0.19105 0.28612 0.34527 0.0
H1586 H 0.24923 0.20125 0.35348 0.0
H1587 H 0.17289 0.2641 0.28611 0.0
H1588 H 0.21049 0.25479 0.35048 0.0
H1589 H 0.20072 0.20864 0.29652 0.0
C1590 C 0.22252 0.18943 0.31078 0.0
C1591 C 0.2365 0.18684 0.32672 0.0
C1592 C 0.20218 0.25687 0.33641 0.0
C1593 C 0.21391 0.22272 0.32339 0.0
C1594 C 0.1911 0.27477 0.33338 0.0
C1595 C 0.1802 0.27788 0.3152 0.0
C1596 C 0.20228 0.24193 0.32121 0.0
C1597 C 0.18065 0.26244 0.30049 0.0
C1598 C 0.21131 0.20718 0.30906 0.0
C1599 C 0.23866 0.20263 0.34093 0.0
N1600 N 0.19149 0.24524 0.30384 0.0
N1601 N 0.22745 0.21998 0.33893 0.0
H1602 H 0.42663 0.56153 0.92677 0.0
H1603 H 0.53839 0.56482 0.96914 0.0
H1604 H 0.458 0.50617 0.94196 0.0
H1605 H 0.51706 0.60873 0.92549 0.0
H1606 H 0.50854 0.54353 0.96155 0.0
H1607 H 0.45914 0.5798 0.92775 0.0
C1608 C 0.4405 0.55321 0.92994 0.0
C1609 C 0.43982 0.53238 0.93413 0.0
C1610 C 0.51058 0.55771 0.95347 0.0
C1611 C 0.47682 0.55318 0.93601 0.0
C1612 C 0.52747 0.56989 0.9579 0.0
C1613 C 0.53013 0.58854 0.94794 0.0
C1614 C 0.49605 0.56449 0.93935 0.0
C1615 C 0.51565 0.59439 0.93339 0.0
C1616 C 0.459 0.56359 0.93053 0.0
C1617 C 0.45807 0.52221 0.93839 0.0
N1618 N 0.49908 0.58256 0.92974 0.0
N1619 N 0.47587 0.53281 0.9396 0.0
H1620 H 0.82915 0.23533 0.33998 0.0
H1621 H 0.79036 0.33946 0.29115 0.0
H1622 H 0.84292 0.25614 0.27929 0.0
H1623 H 0.77377 0.32167 0.3521 0.0
H1624 H 0.80867 0.30798 0.287 0.0
H1625 H 0.80822 0.26574 0.34519 0.0
C1626 C 0.82783 0.24622 0.32775 0.0
C1627 C 0.83791 0.24306 0.30912 0.0
C1628 C 0.80108 0.31079 0.30134 0.0
C1629 C 0.81384 0.27778 0.31499 0.0
C1630 C 0.79059 0.32891 0.30378 0.0
C1631 C 0.78063 0.33336 0.32211 0.0
C1632 C 0.80185 0.2968 0.31737 0.0
C1633 C 0.78129 0.31885 0.33773 0.0
C1634 C 0.81578 0.26353 0.33073 0.0
C1635 C 0.83534 0.25762 0.29378 0.0
N1636 N 0.79187 0.30119 0.33506 0.0
N1637 N 0.82366 0.27427 0.2971 0.0
H1638 H 0.50596 0.92456 0.98932 0.0
H1639 H 0.56905 0.99991 0.91688 0.0
H1640 H 0.48294 0.94452 0.93119 0.0
H1641 H 0.59078 0.97459 0.97339 0.0
H1642 H 0.53663 0.98154 0.92182 0.0
H1643 H 0.53624 0.94505 0.98406 0.0
C1644 C 0.50712 0.93339 0.97551 0.0
C1645 C 0.49177 0.93269 0.96069 0.0
C1646 C 0.54857 0.9801 0.93309 0.0
C1647 C 0.52689 0.95615 0.95431 0.0
C1648 C 0.56703 0.99056 0.93026 0.0
C1649 C 0.58271 0.98875 0.94467 0.0
C1650 C 0.54587 0.96791 0.95048 0.0
C1651 C 0.57926 0.97645 0.96177 0.0
C1652 C 0.52457 0.94503 0.97241 0.0
C1653 C 0.49447 0.94433 0.94293 0.0
N1654 N 0.56132 0.96658 0.96415 0.0
N1655 N 0.51171 0.95555 0.94021 0.0
H1656 H 0.20368 0.72873 0.1864 0.0
H1657 H 0.21243 0.84634 0.21495 0.0
H1658 H 0.16008 0.76155 0.22284 0.0
H1659 H 0.25576 0.81669 0.17558 0.0
H1660 H 0.19283 0.81524 0.21671 0.0
H1661 H 0.22256 0.76035 0.18105 0.0
C1662 C 0.19796 0.74256 0.19316 0.0
C1663 C 0.18024 0.7424 0.20521 0.0
C1664 C 0.20656 0.81541 0.2076 0.0
C1665 C 0.20194 0.77863 0.19923 0.0
C1666 C 0.21785 0.83323 0.2066 0.0
C1667 C 0.2359 0.8341 0.19522 0.0
C1668 C 0.21333 0.79806 0.19726 0.0
C1669 C 0.24195 0.81665 0.18455 0.0
C1670 C 0.20882 0.76061 0.19015 0.0
C1671 C 0.17378 0.76081 0.21375 0.0
N1672 N 0.23074 0.79924 0.18595 0.0
N1673 N 0.18462 0.77809 0.21063 0.0
H1674 H 0.09909 0.55761 0.05978 0.0
H1675 H 0.97908 0.55624 0.08064 0.0
H1676 H 0.06988 0.50976 0.09382 0.0
H1677 H 0.01072 0.60317 0.04749 0.0
H1678 H 0.01171 0.5394 0.08695 0.0
H1679 H 0.06665 0.5749 0.05676 0.0
C1680 C 0.08581 0.55074 0.06673 0.0
C1681 C 0.0872 0.5321 0.07696 0.0
C1682 C 0.01148 0.55339 0.07832 0.0
C1683 C 0.04965 0.55194 0.0734 0.0
C1684 C 0.99285 0.56308 0.07476 0.0
C1685 C 0.99207 0.58117 0.06341 0.0
C1686 C 0.02949 0.56186 0.07054 0.0
C1687 C 0.01045 0.58913 0.056 0.0
C1688 C 0.06721 0.56067 0.06497 0.0
C1689 C 0.06947 0.52411 0.08581 0.0
N1690 N 0.02832 0.57944 0.05969 0.0
N1691 N 0.05134 0.53401 0.08369 0.0
H1692 H 0.81121 0.67316 0.2022 0.0
H1693 H 0.81092 0.79347 0.18927 0.0
H1694 H 0.76096 0.70531 0.17493 0.0
H1695 H 0.8625 0.75882 0.21038 0.0
H1696 H 0.79305 0.76177 0.18165 0.0
H1697 H 0.8308 0.70446 0.20291 0.0
C1698 C 0.80434 0.68685 0.1962 0.0
C1699 C 0.78435 0.68669 0.18867 0.0
C1700 C 0.80834 0.76112 0.18779 0.0
C1701 C 0.80673 0.72286 0.18966 0.0
C1702 C 0.81863 0.77925 0.19208 0.0
C1703 C 0.83825 0.77887 0.20069 0.0
C1704 C 0.81771 0.74248 0.19215 0.0
C1705 C 0.84729 0.7599 0.20416 0.0
C1706 C 0.81557 0.70476 0.1966 0.0
C1707 C 0.77633 0.70482 0.18087 0.0
N1708 N 0.83692 0.74253 0.2 0.0
N1709 N 0.78747 0.7223 0.18181 0.0
H1710 H 0.01443 0.90724 0.09422 0.0
H1711 H 0.95546 0.01137 0.07425 0.0
H1712 H 0.03444 0.94988 0.04871 0.0
H1713 H 0.92528 0.95614 0.09226 0.0
H1714 H 0.98797 0.99266 0.07249 0.0
H1715 H 0.98491 0.92879 0.10113 0.0
C1716 C 0.01272 0.92128 0.08586 0.0
C1717 C 0.02684 0.92679 0.07084 0.0
C1718 C 0.97425 0.98478 0.07715 0.0
C1719 C 0.9932 0.95156 0.07877 0.0
C1720 C 0.95585 0.99546 0.07838 0.0
C1721 C 0.93788 0.9852 0.08355 0.0
C1722 C 0.97456 0.9639 0.08152 0.0
C1723 C 0.93892 0.96451 0.08831 0.0
C1724 C 0.99585 0.93351 0.08975 0.0
C1725 C 0.02376 0.94505 0.06027 0.0
N1726 N 0.95697 0.95453 0.08723 0.0
N1727 N 1.00726 0.95685 0.06447 0.0
H1728 H 0.28184 0.19766 0.28012 0.0
H1729 H 0.35673 0.24405 0.19581 0.0
H1730 H 0.34519 0.18052 0.27594 0.0
H1731 H 0.29118 0.24361 0.19145 0.0
H1732 H 0.35408 0.22596 0.22857 0.0
H1733 H 0.28635 0.21973 0.25084 0.0
C1734 C 0.2967 0.19841 0.27306 0.0
C1735 C 0.31306 0.18685 0.28046 0.0
C1736 C 0.34033 0.22999 0.22044 0.0
C1737 C 0.31842 0.21257 0.24691 0.0
C1738 C 0.34184 0.24038 0.20188 0.0
C1739 C 0.32416 0.24511 0.19089 0.0
C1740 C 0.321 0.22472 0.22808 0.0
C1741 C 0.30521 0.24 0.19931 0.0
C1742 C 0.29929 0.21117 0.25636 0.0
C1743 C 0.33211 0.1891 0.27088 0.0
N1744 N 0.30414 0.2301 0.21734 0.0
N1745 N 0.33425 0.20161 0.25455 0.0
H1746 H 0.42308 0.48616 1.00775 0.0
H1747 H 0.50346 0.41872 0.07006 0.0
H1748 H 0.44598 0.42934 0.98445 0.0
H1749 H 0.47025 0.46992 0.09414 0.0
H1750 H 0.48468 0.42261 0.03775 0.0
H1751 H 0.44292 0.48117 0.03854 0.0
C1752 C 0.43241 0.47269 1.00901 0.0
C1753 C 0.4328 0.45818 0.99341 0.0
C1754 C 0.48157 0.43291 0.0502 0.0
C1755 C 0.45556 0.45214 0.02902 0.0
C1756 C 0.49225 0.43068 0.06861 0.0
C1757 C 0.48848 0.44399 0.08486 0.0
C1758 C 0.4672 0.44864 0.04812 0.0
C1759 C 0.47379 0.45925 0.08212 0.0
C1760 C 0.44366 0.46974 0.02673 0.0
C1761 C 0.44502 0.44083 0.99617 0.0
N1762 N 0.46382 0.46116 0.0642 0.0
N1763 N 0.45593 0.43829 0.01362 0.0
H1764 H 0.67546 0.33474 0.27639 0.0
H1765 H 0.73148 0.28673 0.18009 0.0
H1766 H 0.74057 0.33509 0.26718 0.0
H1767 H 0.6677 0.2763 0.192 0.0
H1768 H 0.73439 0.30483 0.21204 0.0
H1769 H 0.67164 0.31381 0.24583 0.0
C1770 C 0.68897 0.33038 0.26805 0.0
C1771 C 0.70839 0.33687 0.27442 0.0
C1772 C 0.71973 0.29857 0.20783 0.0
C1773 C 0.70404 0.31303 0.2393 0.0
C1774 C 0.71802 0.28823 0.18949 0.0
C1775 C 0.69926 0.2801 0.18328 0.0
C1776 C 0.70251 0.30107 0.22017 0.0
C1777 C 0.68244 0.28233 0.19625 0.0
C1778 C 0.68674 0.31846 0.25057 0.0
C1779 C 0.72527 0.33089 0.26279 0.0
N1780 N 0.68441 0.2928 0.21407 0.0
N1781 N 0.72268 0.31939 0.24585 0.0
H1782 H 0.56998 0.03912 0.9825 0.0
H1783 H 0.53528 0.11422 0.07213 0.0
H1784 H 0.59775 0.09784 0.99178 0.0
H1785 H 0.52147 0.05027 0.06923 0.0
H1786 H 0.5534 0.11122 0.03933 0.0
H1787 H 0.5473 0.0457 0.01099 0.0
C1788 C 0.57139 0.05339 0.99054 0.0
C1789 C 0.5861 0.06777 0.98488 0.0
C1790 C 0.54618 0.09794 0.04584 0.0
C1791 C 0.55984 0.07557 0.01756 0.0
C1792 C 0.53575 0.0997 0.06441 0.0
C1793 C 0.52707 0.08243 0.07337 0.0
C1794 C 0.54753 0.07888 0.03622 0.0
C1795 C 0.52819 0.06391 0.06292 0.0
C1796 C 0.55831 0.05721 1.00678 0.0
C1797 C 0.58668 0.08629 0.99558 0.0
N1798 N 0.53825 0.06262 0.04499 0.0
N1799 N 0.57385 0.0896 0.01152 0.0
H1800 H 0.32258 0.75641 0.31341 0.0
H1801 H 0.34374 0.85903 0.25184 0.0
H1802 H 0.34948 0.80977 0.34017 0.0
H1803 H 0.29597 0.81721 0.23517 0.0
H1804 H 0.35235 0.83735 0.2807 0.0
H1805 H 0.31944 0.77471 0.28088 0.0
C1806 C 0.32844 0.77174 0.31217 0.0
C1807 C 0.33657 0.78161 0.32923 0.0
C1808 C 0.34007 0.83284 0.27066 0.0
C1809 C 0.33274 0.80259 0.29254 0.0
C1810 C 0.3352 0.84515 0.25412 0.0
C1811 C 0.31907 0.83993 0.24111 0.0
C1812 C 0.32891 0.81501 0.27414 0.0
C1813 C 0.30836 0.82187 0.24498 0.0
C1814 C 0.3264 0.78224 0.29378 0.0
C1815 C 0.34337 0.80166 0.3272 0.0
N1816 N 0.31348 0.81002 0.26116 0.0
N1817 N 0.3413 0.81151 0.30918 0.0
H1818 H 0.0186 0.46787 0.9501 0.0
H1819 H 0.10397 0.42236 0.02309 0.0
H1820 H 0.04022 0.40639 0.94428 0.0
H1821 H 0.07488 0.4804 0.0322 0.0
H1822 H 0.07996 0.41513 0.99557 0.0
H1823 H 0.03772 0.47148 0.9816 0.0
C1824 C 0.0272 0.45499 0.9557 0.0
C1825 C 0.02791 0.43682 0.94463 0.0
C1826 C 0.07877 0.42938 1.0037 0.0
C1827 C 0.05036 0.44098 0.98055 0.0
C1828 C 0.09247 0.43354 0.01948 0.0
C1829 C 0.09165 0.45215 0.02998 0.0
C1830 C 0.06415 0.44394 0.99829 0.0
C1831 C 0.07647 0.46606 0.02437 0.0
C1832 C 0.03818 0.45707 0.97368 0.0
C1833 C 0.03922 0.42059 0.95252 0.0
N1834 N 0.06344 0.4617 1.0089 0.0
N1835 N 0.05029 0.42314 0.96991 0.0
H1836 H 0.68731 0.70787 0.23026 0.0
H1837 H 0.71128 0.71338 0.34936 0.0
H1838 H 0.72502 0.66502 0.26257 0.0
H1839 H 0.67415 0.75798 0.31881 0.0
H1840 H 0.71493 0.69498 0.31763 0.0
H1841 H 0.68114 0.72591 0.26218 0.0
C1842 C 0.69424 0.70216 0.24404 0.0
C1843 C 0.70674 0.68482 0.24365 0.0
C1844 C 0.70591 0.70874 0.31776 0.0
C1845 C 0.69977 0.70557 0.28029 0.0
C1846 C 0.70378 0.71931 0.33594 0.0
C1847 C 0.69247 0.73737 0.33676 0.0
C1848 C 0.69674 0.71621 0.30003 0.0
C1849 C 0.68299 0.74412 0.31887 0.0
C1850 C 0.69075 0.71256 0.26226 0.0
C1851 C 0.71551 0.67841 0.26201 0.0
N1852 N 0.68544 0.73358 0.30115 0.0
N1853 N 0.71184 0.68875 0.27951 0.0
H1854 H 0.94262 0.08872 0.03692 0.0
H1855 H 0.96458 0.05351 0.92302 0.0
H1856 H 0.91965 0.03359 0.00986 0.0
H1857 H 1.00191 0.09887 0.95244 0.0
H1858 H 0.94546 0.04922 0.95412 0.0
H1859 H 0.96232 0.09531 1.00587 0.0
C1860 C 0.9417 0.07802 0.02446 0.0
C1861 C 0.92942 0.06057 0.02599 0.0
C1862 C 0.9578 0.06015 0.95389 0.0
C1863 C 0.95183 0.06806 0.99051 0.0
C1864 C 0.96876 0.0627 0.93604 0.0
C1865 C 0.98506 0.07649 0.9351 0.0
C1866 C 0.96297 0.07149 0.97116 0.0
C1867 C 0.98949 0.08805 0.95251 0.0
C1868 C 0.95302 0.08175 1.00682 0.0
C1869 C 0.92902 0.0471 0.00949 0.0
N1870 N 0.97851 0.08526 0.96992 0.0
N1871 N 0.93994 0.05119 0.99246 0.0
H1872 H 0.27759 0.28622 0.19467 0.0
H1873 H 0.19343 0.36097 0.24172 0.0
H1874 H 0.27623 0.35022 0.18073 0.0
H1875 H 0.19106 0.29555 0.24371 0.0
H1876 H 0.22614 0.35866 0.22332 0.0
H1877 H 0.24817 0.29065 0.21659 0.0
C1878 C 0.27102 0.30121 0.19608 0.0
C1879 C 0.27924 0.3178 0.18551 0.0
C1880 C 0.21845 0.34487 0.22795 0.0
C1881 C 0.24545 0.3231 0.211 0.0
C1882 C 0.19991 0.3462 0.23852 0.0
C1883 C 0.18948 0.32843 0.24404 0.0
C1884 C 0.22659 0.32566 0.22323 0.0
C1885 C 0.19843 0.30965 0.23949 0.0
C1886 C 0.25425 0.30378 0.20876 0.0
C1887 C 0.27039 0.33701 0.18857 0.0
N1888 N 0.21636 0.30878 0.22936 0.0
N1889 N 0.25387 0.33913 0.20094 0.0
H1890 H 0.1992 0.66684 0.27065 0.0
H1891 H 0.26619 0.74012 0.34175 0.0
H1892 H 0.181 0.72621 0.29172 0.0
H1893 H 0.28556 0.67953 0.32587 0.0
H1894 H 0.23595 0.7355 0.32107 0.0
H1895 H 0.23184 0.67115 0.28879 0.0
C1896 C 0.20206 0.68073 0.27901 0.0
C1897 C 0.18729 0.69611 0.27976 0.0
C1898 C 0.24681 0.72317 0.32202 0.0
C1899 C 0.22437 0.70118 0.30032 0.0
C1900 C 0.26425 0.72589 0.33377 0.0
C1901 C 0.27855 0.7102 0.33569 0.0
C1902 C 0.24344 0.70459 0.31203 0.0
C1903 C 0.27485 0.69196 0.32512 0.0
C1904 C 0.22063 0.68318 0.28934 0.0
C1905 C 0.19178 0.71383 0.29078 0.0
N1906 N 0.25763 0.68962 0.31379 0.0
N1907 N 0.20982 0.71583 0.30056 0.0
H1908 H 0.96321 0.50596 0.90741 0.0
H1909 H 0.92201 0.5617 1.00778 0.0
H1910 H 0.94262 0.47395 0.9609 0.0
H1911 H 0.95472 0.59176 0.95952 0.0
H1912 H 0.92387 0.5298 0.98838 0.0
H1913 H 0.95502 0.53802 0.92415 0.0
C1914 C 0.95699 0.5056 0.92263 0.0
C1915 C 0.95384 0.48709 0.93273 0.0
C1916 C 0.93046 0.54346 0.982 0.0
C1917 C 0.94413 0.52385 0.95194 0.0
C1918 C 0.92929 0.56164 0.993 0.0
C1919 C 0.93842 0.57929 0.98532 0.0
C1920 C 0.94065 0.54309 0.96317 0.0
C1921 C 0.94772 0.57842 0.96613 0.0
C1922 C 0.95219 0.52394 0.93215 0.0
C1923 C 0.94525 0.4877 0.95234 0.0
N1924 N 0.94867 0.56063 0.95578 0.0
N1925 N 0.94081 0.50574 0.96132 0.0
H1926 H 0.82594 0.8579 0.28335 0.0
H1927 H 0.73465 0.78654 0.32175 0.0
H1928 H 0.82095 0.79375 0.27115 0.0
H1929 H 0.74585 0.84622 0.34656 0.0
H1930 H 0.76314 0.7913 0.29856 0.0
H1931 H 0.7933 0.85631 0.30188 0.0
C1932 C 0.8178 0.84362 0.28428 0.0
C1933 C 0.82616 0.82589 0.27593 0.0
C1934 C 0.75934 0.80341 0.30903 0.0
C1935 C 0.78915 0.82393 0.2969 0.0
C1936 C 0.74311 0.80063 0.3224 0.0
C1937 C 0.73795 0.81586 0.33641 0.0
C1938 C 0.7706 0.82155 0.30957 0.0
C1939 C 0.7492 0.83406 0.33605 0.0
C1940 C 0.79932 0.84267 0.29494 0.0
C1941 C 0.81514 0.80772 0.27761 0.0
N1942 N 0.76509 0.83635 0.32295 0.0
N1943 N 0.7973 0.8072 0.28793 0.0
H1944 H 0.54859 0.50773 0.40945 0.0
H1945 H 0.59602 0.45073 0.5063 0.0
H1946 H 0.58113 0.53916 0.45705 0.0
H1947 H 0.55985 0.42182 0.45972 0.0
H1948 H 0.5933 0.48296 0.48758 0.0
H1949 H 0.55472 0.47574 0.42697 0.0
C1950 C 0.55694 0.50793 0.42364 0.0
C1951 C 0.56421 0.52623 0.4318 0.0
C1952 C 0.58607 0.46949 0.48146 0.0
C1953 C 0.57154 0.48948 0.45196 0.0
C1954 C 0.5877 0.45112 0.49209 0.0
C1955 C 0.57802 0.43362 0.48465 0.0
C1956 C 0.57478 0.47024 0.46327 0.0
C1957 C 0.56739 0.43495 0.46617 0.0
C1958 C 0.56057 0.48962 0.4336 0.0
C1959 C 0.57535 0.52545 0.45007 0.0
N1960 N 0.56601 0.4529 0.45621 0.0
N1961 N 0.57861 0.50739 0.45958 0.0
H1962 H 0.23899 0.73543 0.69601 0.0
H1963 H 0.32614 0.66136 0.73844 0.0
H1964 H 0.24619 0.67378 0.67479 0.0
H1965 H 0.32658 0.72655 0.74456 0.0
H1966 H 0.29349 0.66383 0.71997 0.0
H1967 H 0.26795 0.73064 0.71859 0.0
C1968 C 0.24665 0.72089 0.69597 0.0
C1969 C 0.24018 0.7051 0.68314 0.0
C1970 C 0.30071 0.67753 0.72555 0.0
C1971 C 0.27337 0.69939 0.70943 0.0
C1972 C 0.3192 0.6761 0.73619 0.0
C1973 C 0.32908 0.69379 0.74286 0.0
C1974 C 0.29204 0.69674 0.72194 0.0
C1975 C 0.31958 0.71255 0.73946 0.0
C1976 C 0.26316 0.71813 0.70903 0.0
C1977 C 0.25051 0.68641 0.68437 0.0
N1978 N 0.30167 0.71353 0.72924 0.0
N1979 N 0.26664 0.6841 0.69718 0.0
H1980 H 0.93069 0.53286 0.57729 0.0
H1981 H 0.97504 0.42433 0.54591 0.0
H1982 H 0.98785 0.50819 0.5982 0.0
H1983 H 0.91962 0.44802 0.51974 0.0
H1984 H 0.97914 0.4553 0.56516 0.0
H1985 H 0.92567 0.50252 0.55625 0.0
C1986 C 0.94218 0.5211 0.5775 0.0
C1987 C 0.95974 0.52315 0.58964 0.0
C1988 C 0.96605 0.45388 0.55524 0.0
C1989 C 0.95409 0.48844 0.56548 0.0
C1990 C 0.96362 0.43607 0.54419 0.0
C1991 C 0.94689 0.43347 0.53114 0.0
C1992 C 0.95163 0.46945 0.55344 0.0
C1993 C 0.93274 0.44938 0.52962 0.0
C1994 C 0.93933 0.50383 0.5654 0.0
C1995 C 0.97422 0.50751 0.58901 0.0
N1996 N 0.9354 0.46673 0.5407 0.0
N1997 N 0.97102 0.49087 0.57724 0.0
H1998 H 0.03076 0.99334 0.57824 0.0
H1999 H 0.10787 0.07379 0.5286 0.0
H2000 H 0.09536 0.99264 0.5907 0.0
H2001 H 0.04284 0.08195 0.53299 0.0
H2002 H 0.10431 0.04103 0.54651 0.0
H2003 H 0.03568 0.02304 0.55686 0.0
C2004 C 0.04598 0.99941 0.57663 0.0
C2005 C 0.0626 0.99047 0.58664 0.0
C2006 C 0.09086 0.05 0.54339 0.0
C2007 C 0.06841 0.02453 0.56166 0.0
C2008 C 0.09288 0.06857 0.53309 0.0
C2009 C 0.07564 0.08061 0.52947 0.0
C2010 C 0.07145 0.04344 0.54972 0.0
C2011 C 0.05657 0.07326 0.53569 0.0
C2012 C 0.0488 0.01636 0.56425 0.0
C2013 C 0.08206 0.99887 0.58332 0.0
N2014 N 0.055 0.05522 0.54547 0.0
N2015 N 0.08442 0.01546 0.57118 0.0
H2016 H 0.71595 0.67167 0.80402 0.0
H2017 H 0.69358 0.78488 0.84103 0.0
H2018 H 0.75151 0.6997 0.85164 0.0
H2019 H 0.6716 0.75879 0.78498 0.0
H2020 H 0.71278 0.75357 0.84765 0.0
H2021 H 0.69707 0.70288 0.79986 0.0
C2022 C 0.71979 0.68441 0.81372 0.0
C2023 C 0.73553 0.68305 0.82812 0.0
C2024 C 0.7038 0.75479 0.83389 0.0
C2025 C 0.71372 0.71925 0.82327 0.0
C2026 C 0.69277 0.77259 0.83014 0.0
C2027 C 0.68094 0.77448 0.8124 0.0
C2028 C 0.70278 0.73871 0.81993 0.0
C2029 C 0.68065 0.75816 0.79871 0.0
C2030 C 0.70897 0.70233 0.81125 0.0
C2031 C 0.73953 0.7001 0.84034 0.0
N2032 N 0.69129 0.741 0.80282 0.0
N2033 N 0.72871 0.7176 0.83759 0.0
H2034 H 0.92231 0.06403 0.45508 0.0
H2035 H 0.0401 0.07769 0.42808 0.0
H2036 H 0.95415 0.02052 0.41772 0.0
H2037 H 1.00939 0.10757 0.47769 0.0
H2038 H 1.00841 0.0594 0.42008 0.0
H2039 H 0.95351 0.08339 0.45874 0.0
C2040 C 0.93589 0.05858 0.4475 0.0
C2041 C 0.93567 0.04045 0.43628 0.0
C2042 C 1.00868 0.06997 0.4327 0.0
C2043 C 0.97174 0.06268 0.44058 0.0
C2044 C 0.02668 0.08046 0.43722 0.0
C2045 C 0.02737 0.09413 0.45363 0.0
C2046 C 0.99122 0.07343 0.4445 0.0
C2047 C 1.00963 0.09701 0.4651 0.0
C2048 C 0.95376 0.06966 0.44967 0.0
C2049 C 0.9537 0.03439 0.42655 0.0
N2050 N 0.99232 0.08683 0.46027 0.0
N2051 N 0.97114 0.04542 0.42906 0.0
H2052 H 0.26331 0.81221 0.85049 0.0
H2053 H 0.36221 0.76067 0.80075 0.0
H2054 H 0.30792 0.84358 0.81396 0.0
H2055 H 0.31744 0.72653 0.83449 0.0
H2056 H 0.34333 0.79166 0.80793 0.0
H2057 H 0.28391 0.78107 0.84768 0.0
C2058 C 0.2775 0.8126 0.84211 0.0
C2059 C 0.28381 0.83043 0.83228 0.0
C2060 C 0.33761 0.77741 0.81385 0.0
C2061 C 0.3073 0.7951 0.82895 0.0
C2062 C 0.34836 0.75967 0.80962 0.0
C2063 C 0.34136 0.74091 0.81686 0.0
C2064 C 0.3196 0.7765 0.82537 0.0
C2065 C 0.3235 0.74065 0.82869 0.0
C2066 C 0.28919 0.79485 0.84043 0.0
C2067 C 0.3023 0.83014 0.82158 0.0
N2068 N 0.31316 0.75816 0.83247 0.0
N2069 N 0.31328 0.8128 0.82014 0.0
H2070 H 0.98129 0.45097 0.43356 0.0
H2071 H 0.09826 0.46313 0.46543 0.0
H2072 H 0.01241 0.41237 0.47647 0.0
H2073 H 0.06875 0.50419 0.42367 0.0
H2074 H 0.06697 0.44377 0.46811 0.0
H2075 H 0.01292 0.46998 0.42844 0.0
C2076 C 0.99476 0.44639 0.44184 0.0
C2077 C 0.9941 0.42998 0.45552 0.0
C2078 C 0.06723 0.45697 0.4583 0.0
C2079 C 0.03038 0.45184 0.44977 0.0
C2080 C 0.08517 0.46809 0.45672 0.0
C2081 C 0.08615 0.48545 0.44438 0.0
C2082 C 0.0499 0.46314 0.44749 0.0
C2083 C 0.06867 0.49093 0.43337 0.0
C2084 C 0.0128 0.45734 0.43896 0.0
C2085 C 0.01203 0.42501 0.46601 0.0
N2086 N 0.05118 0.47985 0.43527 0.0
N2087 N 0.02937 0.43586 0.46289 0.0
H2088 H 0.75179 0.31894 0.66721 0.0
H2089 H 0.66885 0.25719 0.73248 0.0
H2090 H 0.71912 0.34251 0.71904 0.0
H2091 H 0.69583 0.23281 0.67786 0.0
H2092 H 0.6889 0.28795 0.72815 0.0
H2093 H 0.73277 0.28679 0.67077 0.0
C2094 C 0.74065 0.31741 0.67924 0.0
C2095 C 0.7371 0.33349 0.69282 0.0
C2096 C 0.69049 0.27589 0.71707 0.0
C2097 C 0.71548 0.29689 0.69707 0.0
C2098 C 0.6791 0.25819 0.71965 0.0
C2099 C 0.68055 0.24228 0.70554 0.0
C2100 C 0.70357 0.27787 0.70024 0.0
C2101 C 0.69397 0.24474 0.689 0.0
C2102 C 0.72983 0.29908 0.6813 0.0
C2103 C 0.72249 0.33063 0.70818 0.0
N2104 N 0.70496 0.26218 0.68681 0.0
N2105 N 0.71233 0.31279 0.70987 0.0
H2106 H 0.57774 0.02654 0.60442 0.0
H2107 H 0.49015 0.07121 0.53236 0.0
H2108 H 0.57896 0.02504 0.53887 0.0
H2109 H 0.49762 0.09064 0.59465 0.0
H2110 H 0.51935 0.04886 0.53627 0.0
H2111 H 0.54493 0.04475 0.60282 0.0
C2112 C 0.57097 0.0298 0.58976 0.0
C2113 C 0.58107 0.02447 0.57175 0.0
C2114 C 0.51457 0.05798 0.54912 0.0
C2115 C 0.54384 0.04499 0.5698 0.0
C2116 C 0.49794 0.07089 0.54685 0.0
C2117 C 0.49154 0.0832 0.56307 0.0
C2118 C 0.52496 0.05719 0.56776 0.0
C2119 C 0.50195 0.08149 0.58171 0.0
C2120 C 0.55238 0.04025 0.58884 0.0
C2121 C 0.57178 0.0291 0.55312 0.0
N2122 N 0.51824 0.06882 0.58352 0.0
N2123 N 0.55375 0.03907 0.55264 0.0
H2124 H 0.36224 0.25616 0.71235 0.0
H2125 H 0.26037 0.19747 0.67868 0.0
H2126 H 0.30537 0.28651 0.69969 0.0
H2127 H 0.3144 0.16813 0.70161 0.0
H2128 H 0.27801 0.23039 0.68115 0.0
H2129 H 0.34615 0.22381 0.70388 0.0
C2130 C 0.3464 0.25609 0.70784 0.0
C2131 C 0.3352 0.27421 0.70694 0.0
C2132 C 0.28604 0.21668 0.68543 0.0
C2133 C 0.31665 0.2371 0.69691 0.0
C2134 C 0.27602 0.19793 0.68388 0.0
C2135 C 0.28589 0.18012 0.69011 0.0
C2136 C 0.30606 0.2175 0.69309 0.0
C2137 C 0.30613 0.18154 0.69687 0.0
C2138 C 0.33722 0.23759 0.70287 0.0
C2139 C 0.31475 0.27307 0.7005 0.0
N2140 N 0.31548 0.19986 0.69826 0.0
N2141 N 0.30614 0.25486 0.69585 0.0
H2142 H 0.53635 0.44236 0.58945 0.0
H2143 H 0.42256 0.46277 0.55143 0.0
H2144 H 0.50943 0.41595 0.53573 0.0
H2145 H 0.45011 0.49845 0.5992 0.0
H2146 H 0.45393 0.44393 0.54773 0.0
H2147 H 0.50485 0.46158 0.59519 0.0
C2148 C 0.52383 0.44054 0.5789 0.0
C2149 C 0.52558 0.42749 0.56205 0.0
C2150 C 0.45324 0.45585 0.55905 0.0
C2151 C 0.48956 0.44945 0.56854 0.0
C2152 C 0.43523 0.46667 0.56124 0.0
C2153 C 0.43366 0.48237 0.57561 0.0
C2154 C 0.47005 0.46059 0.57132 0.0
C2155 C 0.45066 0.4865 0.58792 0.0
C2156 C 0.50591 0.4516 0.58214 0.0
C2157 C 0.50894 0.42596 0.54876 0.0
N2158 N 0.46823 0.47567 0.58547 0.0
N2159 N 0.49168 0.43672 0.55234 0.0
H2160 H 0.80888 0.65472 0.75827 0.0
H2161 H 0.84515 0.75721 0.70301 0.0
H2162 H 0.82398 0.70991 0.79047 0.0
H2163 H 0.81905 0.70569 0.6719 0.0
H2164 H 0.84262 0.73838 0.73522 0.0
H2165 H 0.81716 0.6717 0.72632 0.0
C2166 C 0.81391 0.67036 0.75869 0.0
C2167 C 0.81556 0.68083 0.77721 0.0
C2168 C 0.83761 0.73118 0.72128 0.0
C2169 C 0.82536 0.70035 0.74061 0.0
C2170 C 0.83917 0.74188 0.70293 0.0
C2171 C 0.83209 0.73307 0.68485 0.0
C2172 C 0.82909 0.71155 0.72139 0.0
C2173 C 0.82443 0.71317 0.68555 0.0
C2174 C 0.81876 0.68004 0.74043 0.0
C2175 C 0.8226 0.70104 0.77672 0.0
N2176 N 0.82305 0.70314 0.70349 0.0
N2177 N 0.82713 0.71014 0.75875 0.0
H2178 H 1.00426 0.92182 0.56834 0.0
H2179 H 0.91712 0.98361 0.51002 0.0
H2180 H 0.96298 0.96424 0.59667 0.0
H2181 H 0.95143 0.93561 0.48121 0.0
H2182 H 0.93349 0.97555 0.54204 0.0
H2183 H 0.98504 0.92548 0.53635 0.0
C2184 C 0.99111 0.93172 0.5679 0.0
C2185 C 0.98537 0.94288 0.58516 0.0
C2186 C 0.9374 0.96668 0.52874 0.0
C2187 C 0.96345 0.94721 0.5488 0.0
C2188 C 0.9279 0.97123 0.51034 0.0
C2189 C 0.93289 0.96043 0.49261 0.0
C2190 C 0.95219 0.95129 0.52961 0.0
C2191 C 0.94731 0.94467 0.49428 0.0
C2192 C 0.98017 0.93384 0.54967 0.0
C2193 C 0.96818 0.95549 0.58374 0.0
N2194 N 0.95655 0.94068 0.51238 0.0
N2195 N 0.95798 0.95738 0.56594 0.0
H2196 H 0.16423 0.76972 0.69769 0.0
H2197 H 0.23946 0.83204 0.77072 0.0
H2198 H 0.22409 0.79097 0.68075 0.0
H2199 H 0.1751 0.82645 0.78321 0.0
H2200 H 0.23451 0.81334 0.73928 0.0
H2201 H 0.16831 0.78683 0.73085 0.0
C2202 C 0.17818 0.7779 0.70094 0.0
C2203 C 0.19377 0.77903 0.68639 0.0
C2204 C 0.22144 0.81621 0.74889 0.0
C2205 C 0.19859 0.79833 0.72407 0.0
C2206 C 0.22424 0.82704 0.76689 0.0
C2207 C 0.20767 0.83108 0.77974 0.0
C2208 C 0.20193 0.80919 0.74358 0.0
C2209 C 0.18839 0.82362 0.77395 0.0
C2210 C 0.18048 0.78768 0.71979 0.0
C2211 C 0.21155 0.78981 0.69137 0.0
N2212 N 0.18604 0.81306 0.7563 0.0
N2213 N 0.21347 0.79895 0.70972 0.0
H2214 H 0.07319 0.58944 0.48415 0.0
H2215 H 0.05851 0.5518 0.59877 0.0
H2216 H 0.1044 0.53866 0.51134 0.0
H2217 H 0.01754 0.59516 0.57144 0.0
H2218 H 0.07724 0.54976 0.56721 0.0
H2219 H 0.05428 0.59434 0.51605 0.0
C2220 C 0.07611 0.57937 0.49681 0.0
C2221 C 0.09037 0.56354 0.49501 0.0
C2222 C 0.06418 0.55976 0.56798 0.0
C2223 C 0.06885 0.56908 0.53145 0.0
C2224 C 0.05341 0.56099 0.5861 0.0
C2225 C 0.03625 0.57357 0.58778 0.0
C2226 C 0.0579 0.57119 0.55114 0.0
C2227 C 0.03065 0.58522 0.57079 0.0
C2228 C 0.06525 0.58213 0.51496 0.0
C2229 C 0.0934 0.55085 0.51185 0.0
N2230 N 0.04142 0.5837 0.55308 0.0
N2231 N 0.0828 0.55394 0.52928 0.0
H2232 H 0.78718 0.31795 0.73017 0.0
H2233 H 0.85845 0.27842 0.82082 0.0
H2234 H 0.84595 0.3444 0.74316 0.0
H2235 H 0.79406 0.26647 0.81557 0.0
H2236 H 0.85694 0.2976 0.78864 0.0
H2237 H 0.79233 0.29393 0.75778 0.0
C2238 C 0.80116 0.31877 0.73885 0.0
C2239 C 0.81597 0.33352 0.73453 0.0
C2240 C 0.84324 0.29056 0.79449 0.0
C2241 C 0.82212 0.30575 0.76614 0.0
C2242 C 0.84413 0.27955 0.81271 0.0
C2243 C 0.82631 0.27107 0.82086 0.0
C2244 C 0.82447 0.29272 0.78437 0.0
C2245 C 0.80809 0.27301 0.80991 0.0
C2246 C 0.80416 0.30494 0.75456 0.0
C2247 C 0.8341 0.33334 0.74594 0.0
N2248 N 0.80764 0.28365 0.79231 0.0
N2249 N 0.8366 0.31978 0.76136 0.0
H2250 H 0.61286 0.96898 0.50243 0.0
H2251 H 0.51328 0.9249 0.44669 0.0
H2252 H 0.56601 0.93591 0.53438 0.0
H2253 H 0.5603 0.96027 0.41756 0.0
H2254 H 0.53299 0.92627 0.47859 0.0
H2255 H 0.59428 0.96384 0.47079 0.0
C2256 C 0.59862 0.96069 0.50283 0.0
C2257 C 0.59098 0.95301 0.52118 0.0
C2258 C 0.53898 0.9336 0.46513 0.0
C2259 C 0.56953 0.94684 0.48478 0.0
C2260 C 0.52779 0.93274 0.44694 0.0
C2261 C 0.53507 0.94262 0.42949 0.0
C2262 C 0.55755 0.94432 0.46573 0.0
C2263 C 0.55393 0.95262 0.43066 0.0
C2264 C 0.58803 0.95764 0.4847 0.0
C2265 C 0.57259 0.942 0.52061 0.0
N2266 N 0.56441 0.95326 0.4484 0.0
N2267 N 0.56244 0.93933 0.50274 0.0
H2268 H 0.23017 0.24987 0.82089 0.0
H2269 H 0.17827 0.16757 0.74921 0.0
H2270 H 0.16702 0.23284 0.82675 0.0
H2271 H 0.23727 0.19416 0.7375 0.0
H2272 H 0.17312 0.19193 0.77663 0.0
H2273 H 0.23227 0.23056 0.78941 0.0
C2274 C 0.21664 0.24219 0.81538 0.0
C2275 C 0.19842 0.24281 0.82647 0.0
C2276 C 0.18712 0.19253 0.76795 0.0
C2277 C 0.20079 0.2203 0.7905 0.0
C2278 C 0.1901 0.17861 0.75219 0.0
C2279 C 0.20835 0.17861 0.74098 0.0
C2280 C 0.20254 0.2065 0.7727 0.0
C2281 C 0.22314 0.19323 0.74588 0.0
C2282 C 0.21785 0.23116 0.79737 0.0
C2283 C 0.18133 0.23275 0.81858 0.0
N2284 N 0.21996 0.20646 0.76143 0.0
N2285 N 0.183 0.22162 0.80117 0.0
H2286 H 0.44402 0.58928 0.53821 0.0
H2287 H 0.46893 0.5494 0.42611 0.0
H2288 H 0.42033 0.53418 0.51166 0.0
H2289 H 0.50109 0.60023 0.45246 0.0
H2290 H 0.4497 0.54559 0.45716 0.0
H2291 H 0.4638 0.59527 0.50707 0.0
C2292 C 0.44293 0.57847 0.52587 0.0
C2293 C 0.4305 0.56114 0.52764 0.0
C2294 C 0.46093 0.55762 0.45631 0.0
C2295 C 0.45307 0.56791 0.49204 0.0
C2296 C 0.47198 0.55986 0.43846 0.0
C2297 C 0.4868 0.57513 0.43662 0.0
C2298 C 0.46454 0.57072 0.47272 0.0
C2299 C 0.48984 0.58823 0.45322 0.0
C2300 C 0.4543 0.58186 0.50815 0.0
C2301 C 0.42987 0.54756 0.51121 0.0
N2302 N 0.4788 0.58571 0.47066 0.0
N2303 N 0.44091 0.55128 0.49418 0.0
H2304 H 0.70762 0.81713 0.76253 0.0
H2305 H 0.76836 0.83774 0.6591 0.0
H2306 H 0.67997 0.84336 0.70931 0.0
H2307 H 0.7853 0.79006 0.70064 0.0
H2308 H 0.7392 0.84584 0.68075 0.0
H2309 H 0.73977 0.81337 0.74353 0.0
C2310 C 0.70858 0.82268 0.74705 0.0
C2311 C 0.69139 0.83087 0.73747 0.0
C2312 C 0.74934 0.83366 0.68518 0.0
C2313 C 0.72766 0.82634 0.71569 0.0
C2314 C 0.76602 0.82908 0.67288 0.0
C2315 C 0.77925 0.81317 0.67807 0.0
C2316 C 0.74595 0.82247 0.703 0.0
C2317 C 0.77534 0.80229 0.69601 0.0
C2318 C 0.72676 0.82029 0.73617 0.0
C2319 C 0.69306 0.83726 0.71724 0.0
N2320 N 0.75907 0.80718 0.7079 0.0
N2321 N 0.71088 0.83489 0.70701 0.0
H2322 H 0.7592 0.20603 0.85781 0.0
H2323 H 0.70234 0.17174 0.75528 0.0
H2324 H 0.79163 0.18531 0.80469 0.0
H2325 H 0.67306 0.19963 0.80693 0.0
H2326 H 0.73483 0.17231 0.77408 0.0
H2327 H 0.7271 0.19962 0.84034 0.0
C2328 C 0.75957 0.20013 0.84245 0.0
C2329 C 0.77818 0.19645 0.83266 0.0
C2330 C 0.72122 0.17814 0.78129 0.0
C2331 C 0.74132 0.18891 0.81244 0.0
C2332 C 0.7027 0.17773 0.77062 0.0
C2333 C 0.68504 0.18583 0.77948 0.0
C2334 C 0.72192 0.18655 0.80097 0.0
C2335 C 0.68633 0.19345 0.79937 0.0
C2336 C 0.74122 0.19637 0.83247 0.0
C2337 C 0.77768 0.18833 0.81287 0.0
N2338 N 0.7044 0.19369 0.80936 0.0
N2339 N 0.75955 0.18498 0.80334 0.0
H2340 H 0.48888 0.99304 0.44072 0.0
H2341 H 0.41294 0.07518 0.48912 0.0
H2342 H 0.42548 0.99705 0.42348 0.0
H2343 H 0.47837 0.08096 0.48819 0.0
H2344 H 0.41609 0.04282 0.47038 0.0
H2345 H 0.48406 0.02179 0.46345 0.0
C2346 C 0.47395 0.99991 0.44157 0.0
C2347 C 0.45767 0.9926 0.42978 0.0
C2348 C 0.42971 0.05117 0.47446 0.0
C2349 C 0.45197 0.02552 0.4563 0.0
C2350 C 0.42792 0.0695 0.48522 0.0
C2351 C 0.44541 0.08078 0.48998 0.0
C2352 C 0.44914 0.04405 0.46887 0.0
C2353 C 0.46448 0.07286 0.48455 0.0
C2354 C 0.47119 0.01631 0.45471 0.0
C2355 C 0.43854 1.00198 0.43219 0.0
N2356 N 0.46583 0.05504 0.47431 0.0
N2357 N 0.43624 0.01799 0.44509 0.0
H2358 H 0.31507 0.34704 0.76278 0.0
H2359 H 0.26108 0.31379 0.86693 0.0
H2360 H 0.34653 0.32353 0.81529 0.0
H2361 H 0.22762 0.32981 0.81281 0.0
H2362 H 0.29271 0.3227 0.84962 0.0
H2363 H 0.28307 0.34654 0.78232 0.0
C2364 C 0.3153 0.34218 0.77851 0.0
C2365 C 0.33337 0.33511 0.78739 0.0
C2366 C 0.27844 0.32442 0.84154 0.0
C2367 C 0.29706 0.33436 0.80969 0.0
C2368 C 0.26038 0.31924 0.85142 0.0
C2369 C 0.24165 0.32079 0.84127 0.0
C2370 C 0.27789 0.33115 0.82127 0.0
C2371 C 0.24165 0.3284 0.82128 0.0
C2372 C 0.29706 0.34176 0.78961 0.0
C2373 C 0.33287 0.32885 0.80777 0.0
N2374 N 0.25951 0.3331 0.81187 0.0
N2375 N 0.31503 0.3285 0.81815 0.0
H2376 H 0.03667 1.00564 0.91889 0.0
H2377 H 0.09784 0.94607 1.00575 0.0
H2378 H 0.08857 0.03161 0.94984 0.0
H2379 H 0.04959 0.92044 0.96919 0.0
H2380 H 0.09583 0.97734 0.98528 0.0
H2381 H 0.04248 0.9739 0.93666 0.0
C2382 C 0.04945 1.0047 0.9292 0.0
C2383 C 0.06202 0.02156 0.93288 0.0
C2384 C 0.08579 0.96477 0.98175 0.0
C2385 C 0.06858 0.98502 0.9538 0.0
C2386 C 0.08694 0.94696 0.99342 0.0
C2387 C 0.07377 0.93067 0.98932 0.0
C2388 C 0.07138 0.96618 0.96594 0.0
C2389 C 0.05996 0.93262 0.97311 0.0
C2390 C 0.0527 0.9865 0.93953 0.0
C2391 C 0.0782 0.01922 0.94676 0.0
N2392 N 0.05909 0.95 0.96215 0.0
N2393 N 0.08093 1.00136 0.95682 0.0
H2394 H 0.75441 0.17757 0.15532 0.0
H2395 H 0.81362 0.1968 0.25993 0.0
H2396 H 0.73544 0.22321 0.19831 0.0
H2397 H 0.84312 0.17603 0.20528 0.0
H2398 H 0.78119 0.19904 0.2411 0.0
H2399 H 0.78353 0.16962 0.17713 0.0
C2400 C 0.75624 0.18574 0.16948 0.0
C2401 C 0.74253 0.20113 0.175 0.0
C2402 C 0.79471 0.19363 0.23338 0.0
C2403 C 0.77575 0.19201 0.20007 0.0
C2404 C 0.81306 0.19212 0.24414 0.0
C2405 C 0.83084 0.18603 0.23408 0.0
C2406 C 0.79424 0.1887 0.21259 0.0
C2407 C 0.82961 0.18064 0.21352 0.0
C2408 C 0.7729 0.18126 0.18186 0.0
C2409 C 0.74579 0.2114 0.19343 0.0
N2410 N 0.81161 0.18208 0.20343 0.0
N2411 N 0.76206 0.20664 0.20536 0.0
H2412 H 0.45834 0.92236 0.06115 0.0
H2413 H 0.42914 0.03983 0.06749 0.0
H2414 H 0.42063 0.95135 0.01592 0.0
H2415 H 0.47761 0.01144 0.10168 0.0
H2416 H 0.4218 1.00717 0.05151 0.0
H2417 H 0.46082 0.95426 0.07939 0.0
C2418 C 0.45045 0.93546 0.05506 0.0
C2419 C 0.43946 0.93421 0.03678 0.0
C2420 C 0.43397 1.00817 0.06258 0.0
C2421 C 0.44236 0.97109 0.05778 0.0
C2422 C 0.4383 0.02687 0.07171 0.0
C2423 C 0.45429 0.02874 0.08591 0.0
C2424 C 0.44553 0.99107 0.06781 0.0
C2425 C 0.46514 0.01106 0.09099 0.0
C2426 C 0.45192 0.95373 0.06553 0.0
C2427 C 0.42933 0.95167 0.0299 0.0
N2428 N 0.46059 0.99309 0.08191 0.0
N2429 N 0.43116 0.9695 0.04034 0.0
H2430 H 0.60801 0.57432 0.02739 0.0
H2431 H 0.53424 0.48835 0.07233 0.0
H2432 H 0.5424 0.57659 0.02533 0.0
H2433 H 0.59641 0.49588 0.09258 0.0
H2434 H 0.53874 0.51696 0.04938 0.0
H2435 H 0.60571 0.54163 0.0456 0.0
C2436 C 0.59319 0.56776 0.03048 0.0
C2437 C 0.57536 0.57814 0.02506 0.0
C2438 C 0.55143 0.51229 0.0588 0.0
C2439 C 0.57261 0.54108 0.04559 0.0
C2440 C 0.54883 0.49599 0.07206 0.0
C2441 C 0.56484 0.48978 0.08478 0.0
C2442 C 0.57021 0.52249 0.05806 0.0
C2443 C 0.5836 0.50003 0.08313 0.0
C2444 C 0.59187 0.54926 0.04094 0.0
C2445 C 0.55651 0.56916 0.02948 0.0
N2446 N 0.58573 0.51595 0.07011 0.0
N2447 N 0.55563 0.5512 0.03948 0.0
H2448 H 0.03653 0.31472 0.26941 0.0
H2449 H 0.97291 0.22092 0.31365 0.0
H2450 H 0.06353 0.27011 0.30904 0.0
H2451 H 0.95841 0.25091 0.25705 0.0
H2452 H 1.00383 0.24167 0.3161 0.0
H2453 H 1.00481 0.295 0.26937 0.0
C2454 C 0.03567 0.30095 0.27837 0.0
C2455 C 0.0527 0.29403 0.28923 0.0
C2456 C 0.99377 0.24368 0.30321 0.0
C2457 C 0.0165 0.27133 0.28917 0.0
C2458 C 0.97614 0.23173 0.30169 0.0
C2459 C 0.9627 0.23412 0.28518 0.0
C2460 C 0.99794 0.25835 0.28827 0.0
C2461 C 0.9678 0.24874 0.27038 0.0
C2462 C 0.01764 0.28961 0.27819 0.0
C2463 C 0.05079 0.27591 0.30036 0.0
N2464 N 0.98486 0.2603 0.27235 0.0
N2465 N 0.03304 0.2652 0.30008 0.0
H2466 H 0.55911 0.7298 1.00707 0.0
H2467 H 0.46065 0.78825 0.96485 0.0
H2468 H 0.52076 0.70606 0.95928 0.0
H2469 H 0.50408 0.81467 1.00644 0.0
H2470 H 0.48157 0.7574 0.96349 0.0
H2471 H 0.53882 0.76084 1.00727 0.0
C2472 C 0.54661 0.73118 0.99642 0.0
C2473 C 0.54168 0.71517 0.98317 0.0
C2474 C 0.48653 0.76998 0.97287 0.0
C2475 C 0.51798 0.75064 0.98365 0.0
C2476 C 0.47452 0.78753 0.97375 0.0
C2477 C 0.4807 0.80415 0.98562 0.0
C2478 C 0.50475 0.76898 0.9841 0.0
C2479 C 0.49889 0.8024 0.99678 0.0
C2480 C 0.53488 0.74887 0.99667 0.0
C2481 C 0.52499 0.71781 0.97 0.0
N2482 N 0.51022 0.78518 0.99575 0.0
N2483 N 0.51371 0.73512 0.97064 0.0
H2484 H 0.97526 0.80268 0.21061 0.0
H2485 H 0.03683 0.70681 0.25438 0.0
H2486 H 0.95439 0.76517 0.26021 0.0
H2487 H 0.06104 0.74717 0.20874 0.0
H2488 H 1.0053 0.72654 0.25462 0.0
H2489 H 1.0061 0.78178 0.20837 0.0
C2490 C 0.97716 0.79014 0.22107 0.0
C2491 C 0.96203 0.78563 0.23548 0.0
C2492 C 0.01746 0.73103 0.24446 0.0
C2493 C 0.99721 0.76146 0.23285 0.0
C2494 C 0.03542 0.71962 0.24417 0.0
C2495 C 0.0517 0.72534 0.23158 0.0
C2496 C 0.01567 0.74832 0.23203 0.0
C2497 C 0.04902 0.74234 0.21889 0.0
C2498 C 0.99471 0.77812 0.2197 0.0
C2499 C 0.96534 0.76903 0.24853 0.0
N2500 N 0.03143 0.75324 0.2195 0.0
N2501 N 0.98247 0.75759 0.24687 0.0
H2502 H 1.00172 0.69772 0.06384 0.0
H2503 H 0.01134 0.81114 0.02108 0.0
H2504 H 0.9574 0.72587 0.02445 0.0
H2505 H 0.05743 0.78314 0.05848 0.0
H2506 H 0.99094 0.78035 0.02338 0.0
H2507 H 0.02158 0.72916 0.06356 0.0
C2508 C 0.99609 0.71054 0.05521 0.0
C2509 C 0.97785 0.70905 0.04407 0.0
C2510 C 1.00548 0.78088 0.03114 0.0
C2511 C 1.00059 0.74518 0.04371 0.0
C2512 C 0.01714 0.79854 0.02992 0.0
C2513 C 0.03608 0.79986 0.03981 0.0
C2514 C 0.01273 0.76424 0.04231 0.0
C2515 C 0.04297 0.78279 0.05057 0.0
C2516 C 1.00745 0.7285 0.05508 0.0
C2517 C 0.97121 0.7263 0.03344 0.0
N2518 N 0.03127 0.76571 0.05159 0.0
N2519 N 0.98261 0.74356 0.03344 0.0
H2520 H 0.31106 0.95715 0.25014 0.0
H2521 H 0.26443 0.06814 0.26672 0.0
H2522 H 0.26257 0.98209 0.21354 0.0
H2523 H 0.30549 0.03999 0.30942 0.0
H2524 H 0.26524 0.03747 0.24598 0.0
H2525 H 0.3111 0.9881 0.27065 0.0
C2526 C 0.30043 0.96912 0.24636 0.0
C2527 C 0.2867 0.96686 0.23009 0.0
C2528 C 0.27409 0.03793 0.25987 0.0
C2529 C 0.28681 1.00252 0.25352 0.0
C2530 C 0.27371 0.0555 0.2717 0.0
C2531 C 0.28508 0.05672 0.28976 0.0
C2532 C 0.28599 0.02136 0.26601 0.0
C2533 C 0.29647 0.03968 0.29565 0.0
C2534 C 0.30049 0.98682 0.2581 0.0
C2535 C 0.27359 0.98314 0.22574 0.0
N2536 N 0.29673 0.02273 0.28374 0.0
N2537 N 0.27393 1.0002 0.23741 0.0
H2538 H 0.28947 0.48843 0.95506 0.0
H2539 H 0.23114 0.45392 0.05556 0.0
H2540 H 0.32249 0.46423 1.00624 0.0
H2541 H 0.21301 0.50584 0.01968 0.0
H2542 H 0.26234 0.45153 0.03511 0.0
H2543 H 0.25816 0.48789 0.97547 0.0
C2544 C 0.29003 0.48267 0.97047 0.0
C2545 C 0.30856 0.47639 0.979 0.0
C2546 C 0.25137 0.46333 0.03177 0.0
C2547 C 0.27288 0.4757 1.00239 0.0
C2548 C 0.23358 0.46484 0.04352 0.0
C2549 C 0.21899 0.47994 0.03933 0.0
C2550 C 0.25446 0.47676 0.01548 0.0
C2551 C 0.2232 0.49346 0.02324 0.0
C2552 C 0.27224 0.48252 0.98215 0.0
C2553 C 0.30849 0.46928 0.99916 0.0
N2554 N 0.24035 0.49141 0.01187 0.0
N2555 N 0.29092 0.46907 0.01018 0.0
H2556 H 0.74917 0.5401 0.20921 0.0
H2557 H 0.71015 0.48042 0.30834 0.0
H2558 H 0.70832 0.56667 0.25317 0.0
H2559 H 0.75512 0.45747 0.2664 0.0
H2560 H 0.70816 0.51175 0.28816 0.0
H2561 H 0.74956 0.50885 0.22911 0.0
C2562 C 0.74003 0.53929 0.22289 0.0
C2563 C 0.7287 0.55612 0.22948 0.0
C2564 C 0.71843 0.49981 0.28339 0.0
C2565 C 0.7294 0.52034 0.25269 0.0
C2566 C 0.71966 0.48198 0.29499 0.0
C2567 C 0.73262 0.46612 0.28896 0.0
C2568 C 0.73028 0.50181 0.26568 0.0
C2569 C 0.74453 0.46901 0.27143 0.0
C2570 C 0.74042 0.52147 0.2344 0.0
C2571 C 0.71746 0.55418 0.24759 0.0
N2572 N 0.74302 0.48639 0.26044 0.0
N2573 N 0.71813 0.53668 0.25858 0.0
H2574 H 0.78612 0.03469 0.06261 0.0
H2575 H 0.73539 0.0482 0.95243 0.0
H2576 H 0.8217 0.04134 1.00791 0.0
H2577 H 0.70357 0.02457 1.0048 0.0
H2578 H 0.76673 0.0496 0.97276 0.0
H2579 H 0.75501 0.03585 0.04208 0.0
C2580 C 0.78738 0.03666 0.04632 0.0
C2581 C 0.80656 0.03781 0.03698 0.0
C2582 C 0.75281 0.0442 0.97976 0.0
C2583 C 0.77099 0.03898 0.0133 0.0
C2584 C 0.73492 0.04328 0.96812 0.0
C2585 C 0.7166 0.03649 0.97686 0.0
C2586 C 0.75239 0.0384 1.00033 0.0
C2587 C 0.71705 0.03047 0.99741 0.0
C2588 C 0.76963 0.03714 0.03456 0.0
C2589 C 0.80724 0.04014 0.01572 0.0
N2590 N 0.73455 0.03165 1.00838 0.0
N2591 N 0.78975 0.04063 1.00461 0.0
H2592 H 0.21553 0.30847 0.97616 0.0
H2593 H 0.30967 0.26527 0.041 0.0
H2594 H 0.25392 0.25887 0.95701 0.0
H2595 H 0.27158 0.31453 0.06162 0.0
H2596 H 0.28997 0.26374 0.00959 0.0
H2597 H 0.23571 0.31128 1.00748 0.0
C2598 C 0.22811 0.29812 0.97856 0.0
C2599 C 0.23313 0.28356 0.96377 0.0
C2600 C 0.28595 0.27496 0.02093 0.0
C2601 C 0.25641 0.2868 0.9995 0.0
C2602 C 0.29736 0.27599 0.03884 0.0
C2603 C 0.29235 0.29006 0.05408 0.0
C2604 C 0.26931 0.28809 0.01811 0.0
C2605 C 0.27589 0.30326 0.05045 0.0
C2606 C 0.23972 0.29981 0.99638 0.0
C2607 C 0.2497 0.27063 0.96771 0.0
N2608 N 0.26495 0.30191 0.0329 0.0
N2609 N 0.26071 0.27258 0.98509 0.0
H2610 H 0.30945 0.7567 0.48045 0.0
H2611 H 0.20911 0.71469 0.53619 0.0
H2612 H 0.26874 0.71294 0.45317 0.0
H2613 H 0.25321 0.75432 0.56444 0.0
H2614 H 0.22998 0.71451 0.50519 0.0
H2615 H 0.28881 0.75598 0.51128 0.0
C2616 C 0.29634 0.74673 0.48099 0.0
C2617 C 0.29089 0.73488 0.46407 0.0
C2618 C 0.23508 0.72321 0.51821 0.0
C2619 C 0.26681 0.7343 0.49937 0.0
C2620 C 0.22311 0.72341 0.53585 0.0
C2621 C 0.22951 0.73434 0.55304 0.0
C2622 C 0.2535 0.73416 0.5177 0.0
C2623 C 0.24784 0.74532 0.55174 0.0
C2624 C 0.28441 0.74647 0.49858 0.0
C2625 C 0.27342 0.72257 0.46567 0.0
N2626 N 0.25914 0.74493 0.53445 0.0
N2627 N 0.26199 0.72266 0.48293 0.0
H2628 H 0.99757 0.45184 0.79072 0.0
H2629 H 0.96842 0.55719 0.73658 0.0
H2630 H 0.97067 0.50226 0.82286 0.0
H2631 H 1.00252 0.50913 0.70776 0.0
H2632 H 0.96732 0.53696 0.76789 0.0
H2633 H 0.99689 0.47186 0.75947 0.0
C2634 C 0.99127 0.46702 0.79118 0.0
C2635 C 0.9842 0.47534 0.80952 0.0
C2636 C 0.97498 0.53085 0.75466 0.0
C2637 C 0.98364 0.49858 0.77371 0.0
C2638 C 0.97571 0.54245 0.7368 0.0
C2639 C 0.98538 0.53484 0.71933 0.0
C2640 C 0.98399 0.51148 0.75509 0.0
C2641 C 0.99445 0.51552 0.72059 0.0
C2642 C 0.99106 0.47855 0.77334 0.0
C2643 C 0.97652 0.49528 0.80915 0.0
N2644 N 0.99348 0.50457 0.73805 0.0
N2645 N 0.97647 0.5062 0.79158 0.0
H2646 H 0.74367 0.81925 0.46067 0.0
H2647 H 0.77822 0.75438 0.5569 0.0
H2648 H 0.71219 0.76564 0.48145 0.0
H2649 H 0.79788 0.81636 0.54834 0.0
H2650 H 0.75598 0.75758 0.52754 0.0
H2651 H 0.76511 0.81815 0.49123 0.0
C2652 C 0.74114 0.80737 0.47176 0.0
C2653 C 0.72609 0.79251 0.46849 0.0
C2654 C 0.76508 0.77053 0.53208 0.0
C2655 C 0.75077 0.791 0.5033 0.0
C2656 C 0.7778 0.76876 0.54894 0.0
C2657 C 0.78977 0.78525 0.55545 0.0
C2658 C 0.76438 0.78886 0.52127 0.0
C2659 C 0.789 0.80322 0.54394 0.0
C2660 C 0.75337 0.80677 0.48919 0.0
C2661 C 0.72343 0.77752 0.48341 0.0
N2662 N 0.7765 0.80456 0.52742 0.0
N2663 N 0.73576 0.77704 0.50002 0.0
H2664 H 0.55793 0.46076 0.23277 0.0
H2665 H 0.52334 0.56404 0.28791 0.0
H2666 H 0.52091 0.50687 0.20443 0.0
H2667 H 0.5608 0.51862 0.31678 0.0
H2668 H 0.52379 0.54396 0.25664 0.0
H2669 H 0.55976 0.48181 0.26354 0.0
C2670 C 0.55014 0.47525 0.23302 0.0
C2671 C 0.53942 0.48208 0.21586 0.0
C2672 C 0.53201 0.53842 0.26978 0.0
C2673 C 0.54156 0.50636 0.25097 0.0
C2674 C 0.53193 0.55002 0.28762 0.0
C2675 C 0.54196 0.54302 0.30511 0.0
C2676 C 0.54219 0.51963 0.26935 0.0
C2677 C 0.55258 0.5245 0.3038 0.0
C2678 C 0.55129 0.48733 0.25054 0.0
C2679 C 0.52972 0.50109 0.21707 0.0
N2680 N 0.55232 0.51344 0.28632 0.0
N2681 N 0.53103 0.5125 0.23425 0.0
H2682 H 1.00821 0.02145 0.81208 0.0
H2683 H 0.06712 0.99366 0.70953 0.0
H2684 H 0.06784 0.04545 0.79834 0.0
H2685 H 0.01448 0.96119 0.73154 0.0
H2686 H 0.0674 0.01376 0.74093 0.0
H2687 H 1.00976 1.00074 0.78155 0.0
C2688 C 0.02177 0.02228 0.80276 0.0
C2689 C 0.03811 0.03503 0.80813 0.0
C2690 C 0.0559 1.00213 0.73895 0.0
C2691 C 0.03976 0.0114 0.77257 0.0
C2692 C 0.0557 0.99066 0.72102 0.0
C2693 C 0.04074 0.97569 0.71785 0.0
C2694 C 0.04088 0.99879 0.75377 0.0
C2695 C 0.02644 0.97238 0.73336 0.0
C2696 C 0.02258 0.01045 0.7852 0.0
C2697 C 0.05489 0.03588 0.79488 0.0
N2698 N 0.02677 0.98393 0.75052 0.0
N2699 N 0.0553 0.0242 0.77773 0.0
H2700 H 0.45903 0.74484 0.81165 0.0
H2701 H 0.56173 0.77261 0.75329 0.0
H2702 H 0.48228 0.7101 0.76117 0.0
H2703 H 0.54882 0.79514 0.81359 0.0
H2704 H 0.53145 0.7514 0.75506 0.0
H2705 H 0.49061 0.76475 0.81202 0.0
C2706 C 0.47086 0.74129 0.80074 0.0
C2707 C 0.46798 0.72577 0.78633 0.0
C2708 C 0.53526 0.76089 0.76796 0.0
C2709 C 0.50409 0.74872 0.7865 0.0
C2710 C 0.55268 0.77302 0.76703 0.0
C2711 C 0.55821 0.78558 0.78346 0.0
C2712 C 0.52288 0.7614 0.78532 0.0
C2713 C 0.54524 0.78585 0.80049 0.0
C2714 C 0.48889 0.75265 0.80098 0.0
C2715 C 0.48389 0.72178 0.77265 0.0
N2716 N 0.5282 0.77396 0.80097 0.0
N2717 N 0.50113 0.7333 0.77294 0.0
H2718 H 0.96033 0.28743 0.50314 0.0
H2719 H 0.04945 0.22151 0.45234 0.0
H2720 H 0.99569 0.30937 0.45245 0.0
H2721 H 0.02653 0.21187 0.51311 0.0
H2722 H 0.02756 0.25161 0.44955 0.0
H2723 H 0.98116 0.25663 0.50372 0.0
C2724 C 0.97223 0.28561 0.49189 0.0
C2725 C 0.97627 0.30104 0.47775 0.0
C2726 C 0.02736 0.24282 0.46345 0.0
C2727 C 1.00043 0.26589 0.4785 0.0
C2728 C 0.03997 0.22571 0.46513 0.0
C2729 C 0.03975 0.21384 0.4829 0.0
C2730 C 0.01431 0.24804 0.47958 0.0
C2731 C 0.02692 0.22008 0.49887 0.0
C2732 C 0.98429 0.26812 0.49237 0.0
C2733 C 0.99215 0.29793 0.46372 0.0
N2734 N 0.01469 0.23657 0.49677 0.0
N2735 N 1.00366 0.28075 0.46446 0.0
H2736 H 0.47016 0.29639 0.70326 0.0
H2737 H 0.53665 0.20658 0.75214 0.0
H2738 H 0.45545 0.2664 0.75975 0.0
H2739 H 0.55885 0.24477 0.70369 0.0
H2740 H 0.50491 0.22596 0.75245 0.0
H2741 H 0.50129 0.27594 0.70109 0.0
C2742 C 0.47342 0.28559 0.71523 0.0
C2743 C 0.45989 0.28309 0.73162 0.0
C2744 C 0.51668 0.23007 0.74168 0.0
C2745 C 0.49545 0.25936 0.72903 0.0
C2746 C 0.53476 0.21886 0.74136 0.0
C2747 C 0.55051 0.22403 0.72788 0.0
C2748 C 0.51417 0.24656 0.72834 0.0
C2749 C 0.54722 0.24036 0.71449 0.0
C2750 C 0.49117 0.27383 0.71391 0.0
C2751 C 0.46499 0.26863 0.74654 0.0
N2752 N 0.52947 0.25103 0.71507 0.0
N2753 N 0.48224 0.25735 0.74484 0.0
H2754 H 0.56642 0.28503 0.53786 0.0
H2755 H 0.45782 0.23168 0.55498 0.0
H2756 H 0.51155 0.31889 0.54996 0.0
H2757 H 0.50904 0.2026 0.52587 0.0
H2758 H 0.47797 0.26297 0.55761 0.0
H2759 H 0.54654 0.25353 0.5389 0.0
C2760 C 0.55025 0.28581 0.54106 0.0
C2761 C 0.54062 0.30462 0.5437 0.0
C2762 C 0.48476 0.24966 0.55075 0.0
C2763 C 0.51771 0.26866 0.54472 0.0
C2764 C 0.47323 0.2318 0.54912 0.0
C2765 C 0.4817 0.21426 0.54037 0.0
C2766 C 0.50498 0.24998 0.54369 0.0
C2767 C 0.5019 0.21543 0.53324 0.0
C2768 C 0.53887 0.26785 0.54146 0.0
C2769 C 0.51955 0.30472 0.5476 0.0
N2770 N 0.51279 0.23287 0.53512 0.0
N2771 N 0.5088 0.28705 0.54793 0.0
H2772 H 0.77946 0.53622 0.81312 0.0
H2773 H 0.80316 0.48336 0.70556 0.0
H2774 H 0.80364 0.56881 0.7616 0.0
H2775 H 0.77359 0.45324 0.75581 0.0
H2776 H 0.80516 0.51442 0.72609 0.0
H2777 H 0.77983 0.50503 0.79297 0.0
C2778 C 0.78513 0.53679 0.79767 0.0
C2779 C 0.79148 0.55525 0.78907 0.0
C2780 C 0.7983 0.50097 0.73262 0.0
C2781 C 0.79161 0.51951 0.76569 0.0
C2782 C 0.79705 0.48325 0.72084 0.0
C2783 C 0.78838 0.4655 0.72895 0.0
C2784 C 0.79081 0.50099 0.75266 0.0
C2785 C 0.78085 0.46632 0.74897 0.0
C2786 C 0.78515 0.51898 0.78608 0.0
C2787 C 0.79836 0.55501 0.76881 0.0
N2788 N 0.78227 0.48367 0.76007 0.0
N2789 N 0.79818 0.53749 0.75782 0.0
H2790 H 0.7335 1.00148 0.55881 0.0
H2791 H 0.7996 0.95543 0.46724 0.0
H2792 H 0.71001 0.95599 0.51781 0.0
H2793 H 0.8132 0.01213 0.4974 0.0
H2794 H 0.76859 0.95253 0.48786 0.0
H2795 H 0.76534 1.00196 0.53947 0.0
C2796 C 0.73516 0.99134 0.54594 0.0
C2797 C 0.71903 0.97871 0.53991 0.0
C2798 C 0.77846 0.96555 0.48996 0.0
C2799 C 0.75539 0.97936 0.51749 0.0
C2800 C 0.79612 0.96729 0.4781 0.0
C2801 C 0.80931 0.98394 0.48064 0.0
C2802 C 0.77399 0.98047 0.50458 0.0
C2803 C 0.80395 0.99871 0.49517 0.0
C2804 C 0.75327 0.99177 0.53477 0.0
C2805 C 0.72198 0.9661 0.52289 0.0
N2806 N 0.78683 0.99658 0.50658 0.0
N2807 N 0.73977 0.96676 0.51226 0.0
H2808 H 0.24794 0.97646 0.81638 0.0
H2809 H 0.21533 0.03285 0.71323 0.0
H2810 H 0.20759 0.9499 0.77185 0.0
H2811 H 0.25428 0.05932 0.75901 0.0
H2812 H 0.21191 1.00241 0.73446 0.0
H2813 H 0.24913 1.00752 0.79615 0.0
C2814 C 0.23905 0.97725 0.80253 0.0
C2815 C 0.22771 0.96045 0.79582 0.0
C2816 C 0.22116 0.01493 0.73986 0.0
C2817 C 0.22938 0.99592 0.77224 0.0
C2818 C 0.22323 0.03224 0.72767 0.0
C2819 C 0.23497 0.04877 0.73438 0.0
C2820 C 0.23099 0.01408 0.75886 0.0
C2821 C 0.24475 0.04715 0.75334 0.0
C2822 C 0.2399 0.99495 0.79084 0.0
C2823 C 0.21678 0.96234 0.77751 0.0
N2824 N 0.24254 0.03018 0.76486 0.0
N2825 N 0.21798 0.97967 0.76632 0.0
H2826 H 0.29289 0.56586 0.55667 0.0
H2827 H 0.23337 0.53258 0.45581 0.0
H2828 H 0.31128 0.51581 0.51834 0.0
H2829 H 0.20213 0.56004 0.50648 0.0
H2830 H 0.26494 0.53266 0.47574 0.0
H2831 H 0.26174 0.56917 0.53623 0.0
C2832 C 0.2905 0.55555 0.54406 0.0
C2833 C 0.30512 0.5407 0.53921 0.0
C2834 C 0.25121 0.53884 0.48243 0.0
C2835 C 0.26967 0.54485 0.51543 0.0
C2836 C 0.23325 0.53898 0.47099 0.0
C2837 C 0.21509 0.54627 0.4795 0.0
C2838 C 0.25114 0.54632 0.50246 0.0
C2839 C 0.21578 0.55415 0.49939 0.0
C2840 C 0.27275 0.55757 0.53233 0.0
C2841 C 0.30101 0.52796 0.52246 0.0
N2842 N 0.2335 0.55397 0.5102 0.0
N2843 N 0.28386 0.53043 0.51118 0.0
H2844 H 0.7589 0.25319 0.0598 0.0
H2845 H 0.7653 0.21012 0.94608 0.0
H2846 H 0.71085 0.21803 0.03203 0.0
H2847 H 0.81276 0.24553 0.97452 0.0
H2848 H 0.74559 0.2118 0.97756 0.0
H2849 H 0.77895 0.24984 0.02885 0.0
C2850 C 0.75257 0.24464 0.04722 0.0
C2851 C 0.73319 0.23567 0.04867 0.0
C2852 C 0.76036 0.2191 0.97697 0.0
C2853 C 0.75617 0.23195 0.01287 0.0
C2854 C 0.77164 0.21817 0.95898 0.0
C2855 C 0.79073 0.22777 0.95756 0.0
C2856 C 0.76814 0.22977 0.99375 0.0
C2857 C 0.79825 0.23772 0.9749 0.0
C2858 C 0.76405 0.2428 0.02947 0.0
C2859 C 0.72566 0.22525 0.0316 0.0
N2860 N 0.7869 0.23855 0.99219 0.0
N2861 N 0.73719 0.22361 0.01445 0.0
H2862 H 0.49978 0.01027 0.31096 0.0
H2863 H 0.46986 0.01507 0.19322 0.0
H2864 H 0.46727 0.96197 0.28058 0.0
H2865 H 0.49299 0.06622 0.22714 0.0
H2866 H 0.46925 0.99506 0.22458 0.0
H2867 H 0.49807 0.03042 0.28006 0.0
C2868 C 0.49206 1.00392 0.29787 0.0
C2869 C 0.48338 0.98439 0.29861 0.0
C2870 C 0.47433 0.0107 0.22519 0.0
C2871 C 0.48178 1.00749 0.26271 0.0
C2872 C 0.47473 0.02213 0.20729 0.0
C2873 C 0.48154 0.04238 0.20749 0.0
C2874 C 0.48095 0.01947 0.2435 0.0
C2875 C 0.48744 0.05077 0.22623 0.0
C2876 C 0.4912 0.01547 0.28012 0.0
C2877 C 0.47423 0.97687 0.28079 0.0
N2878 N 0.48716 0.03924 0.2434 0.0
N2879 N 0.47367 0.98842 0.2636 0.0
H2880 H 0.11696 0.44982 0.12265 0.0
H2881 H 0.15152 0.39677 0.22664 0.0
H2882 H 0.16669 0.47155 0.15973 0.0
H2883 H 0.09565 0.38193 0.19527 0.0
H2884 H 0.15777 0.42364 0.20193 0.0
H2885 H 0.10964 0.42397 0.14838 0.0
C2886 C 0.12636 0.44918 0.13617 0.0
C2887 C 0.14248 0.46293 0.13898 0.0
C2888 C 0.1441 0.41453 0.2005 0.0
C2889 C 0.13419 0.43328 0.16854 0.0
C2890 C 0.14042 0.39919 0.21475 0.0
C2891 C 0.12302 0.38682 0.21315 0.0
C2892 C 0.13037 0.41757 0.18439 0.0
C2893 C 0.10943 0.39073 0.19705 0.0
C2894 C 0.12213 0.43443 0.1509 0.0
C2895 C 0.1541 0.46132 0.15687 0.0
N2896 N 0.11344 0.40564 0.1833 0.0
N2897 N 0.14977 0.44677 0.1709 0.0
H2898 H 0.71353 0.65998 0.13268 0.0
H2899 H 0.63612 0.61082 0.05244 0.0
H2900 H 0.68717 0.60053 0.1406 0.0
H2901 H 0.63657 0.67486 0.06576 0.0
H2902 H 0.6625 0.60569 0.07852 0.0
H2903 H 0.69284 0.66441 0.10174 0.0
C2904 C 0.70372 0.64773 0.12767 0.0
C2905 C 0.70194 0.62991 0.13921 0.0
C2906 C 0.65699 0.62089 0.07551 0.0
C2907 C 0.67855 0.63476 0.10393 0.0
C2908 C 0.64208 0.62382 0.0606 0.0
C2909 C 0.63417 0.64328 0.05707 0.0
C2910 C 0.66431 0.63759 0.08665 0.0
C2911 C 0.64221 0.65963 0.0682 0.0
C2912 C 0.69185 0.65031 0.11015 0.0
C2913 C 0.68886 0.61456 0.13218 0.0
N2914 N 0.65687 0.65644 0.08248 0.0
N2915 N 0.67768 0.61731 0.11499 0.0
H2916 H 0.92647 0.13647 0.19413 0.0
H2917 H 0.85057 0.04988 0.15465 0.0
H2918 H 0.86503 0.12923 0.21646 0.0
H2919 H 0.90619 0.06607 0.12364 0.0
H2920 H 0.85684 0.07704 0.17921 0.0
H2921 H 0.92044 0.10904 0.16998 0.0
C2922 C 0.91168 0.12925 0.19399 0.0
C2923 C 0.89624 0.13541 0.20747 0.0
C2924 C 0.86767 0.07467 0.16703 0.0
C2925 C 0.88935 0.10356 0.17984 0.0
C2926 C 0.86413 0.05911 0.153 0.0
C2927 C 0.87787 0.05566 0.137 0.0
C2928 C 0.88516 0.08682 0.1652 0.0
C2929 C 0.89516 0.06817 0.13568 0.0
C2930 C 0.90828 0.11347 0.18018 0.0
C2931 C 0.87752 0.12501 0.20665 0.0
N2932 N 0.89833 0.08314 0.14961 0.0
N2933 N 0.87463 0.10964 0.1931 0.0
H2934 H 0.37655 0.90158 0.04844 0.0
H2935 H 0.30786 0.858 0.13939 0.0
H2936 H 0.3823 0.84036 0.07093 0.0
H2937 H 0.31809 0.92169 0.1281 0.0
H2938 H 0.32932 0.84986 0.10978 0.0
H2939 H 0.34923 0.9076 0.07291 0.0
C2940 C 0.37186 0.88928 0.05828 0.0
C2941 C 0.38185 0.87045 0.05768 0.0
C2942 C 0.32662 0.86561 0.11369 0.0
C2943 C 0.3506 0.87732 0.08594 0.0
C2944 C 0.31427 0.87025 0.13046 0.0
C2945 C 0.31132 0.89054 0.13626 0.0
C2946 C 0.33576 0.8814 0.10253 0.0
C2947 C 0.32013 0.90583 0.12427 0.0
C2948 C 0.35634 0.89278 0.07238 0.0
C2949 C 0.37521 0.85518 0.07107 0.0
N2950 N 0.33195 0.90096 0.10805 0.0
N2951 N 0.36006 0.85895 0.0847 0.0
H2952 H 0.09434 0.64232 0.32688 0.0
H2953 H 0.16364 0.54825 0.36103 0.0
H2954 H 0.14963 0.62465 0.29611 0.0
H2955 H 0.11329 0.57066 0.39674 0.0
H2956 H 0.15717 0.57465 0.33588 0.0
H2957 H 0.09956 0.61487 0.35122 0.0
C2958 C 0.10761 0.63276 0.32519 0.0
C2959 C 0.12163 0.63608 0.30934 0.0
C2960 C 0.1475 0.57382 0.34919 0.0
C2961 C 0.12755 0.60424 0.33726 0.0
C2962 C 0.15117 0.55869 0.36361 0.0
C2963 C 0.13904 0.5572 0.38115 0.0
C2964 C 0.13151 0.58764 0.35217 0.0
C2965 C 0.1231 0.57123 0.38352 0.0
C2966 C 0.11053 0.61699 0.33912 0.0
C2967 C 0.13829 0.62275 0.30785 0.0
N2968 N 0.11981 0.58584 0.36922 0.0
N2969 N 0.14079 0.60752 0.32163 0.0
H2970 H 0.85208 0.62531 0.8591 0.0
H2971 H 0.86439 0.63935 0.97904 0.0
H2972 H 0.79962 0.6374 0.89677 0.0
H2973 H 0.91204 0.64964 0.93515 0.0
H2974 H 0.84012 0.63414 0.95077 0.0
H2975 H 0.87392 0.62913 0.88855 0.0
C2976 C 0.84507 0.6287 0.8736 0.0
C2977 C 0.8239 0.63116 0.87534 0.0
C2978 C 0.85588 0.63764 0.94744 0.0
C2979 C 0.84917 0.6356 0.90948 0.0
C2980 C 0.86971 0.64052 0.96351 0.0
C2981 C 0.89023 0.64513 0.95944 0.0
C2982 C 0.8628 0.63898 0.92726 0.0
C2983 C 0.89635 0.64649 0.93906 0.0
C2984 C 0.85764 0.63096 0.89047 0.0
C2985 C 0.81586 0.63547 0.8947 0.0
N2986 N 0.88277 0.64334 0.92383 0.0
N2987 N 0.82853 0.63756 0.91108 0.0
H2988 H 0.89099 0.97227 0.37192 0.0
H2989 H 0.8971 0.85527 0.33972 0.0
H2990 H 0.87926 0.92157 0.41183 0.0
H2991 H 0.89247 0.90233 0.29444 0.0
H2992 H 0.89309 0.88057 0.36624 0.0
H2993 H 0.89358 0.94825 0.34317 0.0
C2994 C 0.88888 0.95619 0.37465 0.0
C2995 C 0.88499 0.94898 0.3944 0.0
C2996 C 0.89291 0.8855 0.35054 0.0
C2997 C 0.88808 0.92155 0.36174 0.0
C2998 C 0.89538 0.87101 0.33534 0.0
C2999 C 0.89532 0.87667 0.31479 0.0
C3000 C 0.89049 0.90605 0.34537 0.0
C3001 C 0.89255 0.89733 0.31011 0.0
C3002 C 0.89033 0.94252 0.35825 0.0
C3003 C 0.88236 0.92797 0.39699 0.0
N3004 N 0.89038 0.91134 0.3253 0.0
N3005 N 0.88406 0.91512 0.38098 0.0
H3006 H 0.13359 0.90098 0.97062 0.0
H3007 H 0.21245 0.85436 0.8905 0.0
H3008 H 0.13508 0.8371 0.95653 0.0
H3009 H 0.18598 0.91389 0.88402 0.0
H3010 H 0.1913 0.84885 0.92095 0.0
H3011 H 0.16014 0.90686 0.94499 0.0
C3012 C 0.13979 0.88816 0.96238 0.0
C3013 C 0.13213 0.86853 0.9656 0.0
C3014 C 0.19039 0.8632 0.91296 0.0
C3015 C 0.16249 0.87511 0.93644 0.0
C3016 C 0.20252 0.8664 0.89574 0.0
C3017 C 0.20086 0.88458 0.88475 0.0
C3018 C 0.17693 0.87848 0.91943 0.0
C3019 C 0.1876 0.89962 0.89202 0.0
C3020 C 0.15481 0.89153 0.9477 0.0
C3021 C 0.1405 0.85246 0.95433 0.0
N3022 N 0.17617 0.89626 0.90891 0.0
N3023 N 0.15526 0.85608 0.94025 0.0
H3024 H 0.22604 0.15233 0.3965 0.0
H3025 H 0.12522 0.11346 0.45311 0.0
H3026 H 0.19501 0.09651 0.38133 0.0
H3027 H 0.15979 0.16577 0.47257 0.0
H3028 H 0.15053 0.10717 0.42662 0.0
H3029 H 0.20218 0.15743 0.42448 0.0
C3030 C 0.21439 0.14101 0.3991 0.0
C3031 C 0.21261 0.12396 0.38633 0.0
C3032 C 0.15262 0.12 0.43671 0.0
C3033 C 0.18488 0.12995 0.41836 0.0
C3034 C 0.13812 0.12364 0.45184 0.0
C3035 C 0.14029 0.14023 0.46511 0.0
C3036 C 0.16944 0.13307 0.43469 0.0
C3037 C 0.15743 0.15281 0.46272 0.0
C3038 C 0.20064 0.14402 0.41507 0.0
C3039 C 0.19688 0.11004 0.39046 0.0
N3040 N 0.17128 0.14902 0.44779 0.0
N3041 N 0.18363 0.11338 0.40601 0.0
H3042 H 0.42282 0.64063 0.8302 0.0
H3043 H 0.3441 0.55959 0.87274 0.0
H3044 H 0.36494 0.62975 0.80113 0.0
H3045 H 0.4083 0.55739 0.88633 0.0
H3046 H 0.35086 0.58572 0.84704 0.0
H3047 H 0.41757 0.61049 0.85121 0.0
C3048 C 0.40909 0.63173 0.82807 0.0
C3049 C 0.39428 0.63773 0.81392 0.0
C3050 C 0.36349 0.57937 0.8555 0.0
C3051 C 0.38796 0.60336 0.83827 0.0
C3052 C 0.35962 0.56456 0.87026 0.0
C3053 C 0.37565 0.55634 0.88174 0.0
C3054 C 0.3835 0.5863 0.85244 0.0
C3055 C 0.39551 0.56318 0.87774 0.0
C3056 C 0.40611 0.61451 0.84007 0.0
C3057 C 0.37679 0.6256 0.81179 0.0
N3058 N 0.39884 0.57791 0.86361 0.0
N3059 N 0.37397 0.60916 0.82406 0.0
H3060 H 0.88559 0.34733 0.44047 0.0
H3061 H 0.816 0.4291 0.38677 0.0
H3062 H 0.88403 0.40934 0.46139 0.0
H3063 H 0.8016 0.36524 0.38597 0.0
H3064 H 0.84154 0.42271 0.4133 0.0
H3065 H 0.85531 0.35375 0.41981 0.0
C3066 C 0.87868 0.36225 0.4409 0.0
C3067 C 0.88731 0.37783 0.45265 0.0
C3068 C 0.83259 0.41015 0.4075 0.0
C3069 C 0.85288 0.38544 0.42862 0.0
C3070 C 0.81812 0.41377 0.3923 0.0
C3071 C 0.80669 0.39767 0.38411 0.0
C3072 C 0.836 0.39022 0.41428 0.0
C3073 C 0.80994 0.37811 0.39194 0.0
C3074 C 0.86138 0.3659 0.42912 0.0
C3075 C 0.87775 0.39689 0.45265 0.0
N3076 N 0.82447 0.3749 0.40635 0.0
N3077 N 0.86123 0.40027 0.44053 0.0
H3078 H 0.61874 0.97352 0.87298 0.0
H3079 H 0.65641 0.87046 0.81987 0.0
H3080 H 0.67256 0.94079 0.89155 0.0
H3081 H 0.60627 0.90649 0.79759 0.0
H3082 H 0.6622 0.89571 0.84659 0.0
H3083 H 0.61384 0.94912 0.84546 0.0
C3084 C 0.62966 0.96137 0.87125 0.0
C3085 C 0.64609 0.95932 0.88482 0.0
C3086 C 0.64994 0.89811 0.83584 0.0
C3087 C 0.64032 0.93095 0.85329 0.0
C3088 C 0.6466 0.88366 0.82057 0.0
C3089 C 0.6308 0.88629 0.8064 0.0
C3090 C 0.63737 0.91535 0.83707 0.0
C3091 C 0.61863 0.90376 0.80813 0.0
C3092 C 0.62676 0.9473 0.85553 0.0
C3093 C 0.6595 0.94292 0.88177 0.0
N3094 N 0.62214 0.91756 0.82316 0.0
N3095 N 0.65628 0.9294 0.86644 0.0
H3096 H 0.22042 0.86463 0.13115 0.0
H3097 H 0.12919 0.90763 0.06235 0.0
H3098 H 0.1972 0.92554 0.13728 0.0
H3099 H 0.13966 0.84401 0.07365 0.0
H3100 H 0.15882 0.9158 0.08385 0.0
H3101 H 0.19565 0.85834 0.10405 0.0
C3102 C 0.21034 0.8768 0.12658 0.0
C3103 C 0.21082 0.89562 0.1366 0.0
C3104 C 0.15473 0.90006 0.08138 0.0
C3105 C 0.18232 0.88848 0.1056 0.0
C3106 C 0.13795 0.8954 0.06901 0.0
C3107 C 0.13191 0.87512 0.06633 0.0
C3108 C 0.16568 0.8843 0.0908 0.0
C3109 C 0.14369 0.85986 0.07546 0.0
C3110 C 0.1961 0.87315 0.11121 0.0
C3111 C 0.19716 0.91074 0.13015 0.0
N3112 N 0.15994 0.86475 0.08729 0.0
N3113 N 0.18344 0.90684 0.11511 0.0
H3114 H 0.18033 0.56275 0.14346 0.0
H3115 H 0.0989 0.63975 0.18807 0.0
H3116 H 0.11603 0.55756 0.13116 0.0
H3117 H 0.15761 0.63135 0.2162 0.0
H3118 H 0.10512 0.61002 0.16675 0.0
H3119 H 0.17291 0.58841 0.16949 0.0
C3120 C 0.16465 0.56698 0.14627 0.0
C3121 C 0.14878 0.55805 0.13505 0.0
C3122 C 0.11656 0.61447 0.17775 0.0
C3123 C 0.14018 0.58743 0.16477 0.0
C3124 C 0.11302 0.63146 0.18993 0.0
C3125 C 0.12776 0.63803 0.20392 0.0
C3126 C 0.13521 0.60416 0.17918 0.0
C3127 C 0.14578 0.62671 0.2057 0.0
C3128 C 0.16042 0.58151 0.16123 0.0
C3129 C 0.12872 0.56393 0.13952 0.0
N3130 N 0.14915 0.61049 0.19324 0.0
N3131 N 0.12502 0.57838 0.15384 0.0
H3132 H 0.89056 0.66439 0.08277 0.0
H3133 H 0.81217 0.58885 0.13204 0.0
H3134 H 0.88018 0.60544 0.05623 0.0
H3135 H 0.80296 0.65357 0.13409 0.0
H3136 H 0.83826 0.59376 0.10568 0.0
H3137 H 0.85958 0.66037 0.10307 0.0
C3138 C 0.88156 0.6507 0.08104 0.0
C3139 C 0.88786 0.63524 0.0678 0.0
C3140 C 0.83031 0.60685 0.1117 0.0
C3141 C 0.85271 0.63028 0.09138 0.0
C3142 C 0.81554 0.60406 0.12678 0.0
C3143 C 0.80542 0.62083 0.13522 0.0
C3144 C 0.83537 0.62659 0.10542 0.0
C3145 C 0.81027 0.64024 0.12785 0.0
C3146 C 0.86388 0.64842 0.09259 0.0
C3147 C 0.87571 0.61777 0.06615 0.0
N3148 N 0.82512 0.64262 0.11361 0.0
N3149 N 0.85888 0.61558 0.0781 0.0
H3150 H 0.84279 0.95815 0.14757 0.0
H3151 H 0.9183 0.87313 0.18605 0.0
H3152 H 0.90636 0.95802 0.13128 0.0
H3153 H 0.86468 0.88934 0.22019 0.0
H3154 H 0.9139 0.90356 0.16521 0.0
H3155 H 0.84974 0.93226 0.17347 0.0
C3156 C 0.85822 0.95272 0.14953 0.0
C3157 C 0.87401 0.96017 0.13722 0.0
C3158 C 0.90325 0.90065 0.17744 0.0
C3159 C 0.88206 0.93047 0.16667 0.0
C3160 C 0.90574 0.88328 0.18933 0.0
C3161 C 0.89183 0.87872 0.20486 0.0
C3162 C 0.88641 0.91334 0.18074 0.0
C3163 C 0.87582 0.89237 0.20845 0.0
C3164 C 0.86221 0.93807 0.16439 0.0
C3165 C 0.89378 0.95278 0.14052 0.0
N3166 N 0.87334 0.90891 0.19625 0.0
N3167 N 0.8972 0.93814 0.15473 0.0
H3168 H 0.4192 0.11152 0.1434 0.0
H3169 H 0.40313 0.23057 0.12527 0.0
H3170 H 0.46922 0.14978 0.12465 0.0
H3171 H 0.35532 0.18568 0.12533 0.0
H3172 H 0.4284 0.20306 0.12941 0.0
H3173 H 0.39657 0.14046 0.1417 0.0
C3174 C 0.42552 0.12605 0.13895 0.0
C3175 C 0.44621 0.12808 0.13398 0.0
C3176 C 0.41236 0.19934 0.12848 0.0
C3177 C 0.42 0.16166 0.13197 0.0
C3178 C 0.39798 0.21498 0.12623 0.0
C3179 C 0.37712 0.21037 0.12474 0.0
C3180 C 0.4057 0.17906 0.12964 0.0
C3181 C 0.37122 0.18994 0.12603 0.0
C3182 C 0.41248 0.14264 0.13795 0.0
C3183 C 0.45336 0.14748 0.12851 0.0
N3184 N 0.38536 0.17515 0.12845 0.0
N3185 N 0.44024 0.16356 0.12759 0.0
H3186 H 0.39031 0.81905 0.42567 0.0
H3187 H 0.44562 0.88458 0.3413 0.0
H3188 H 0.39141 0.80147 0.36256 0.0
H3189 H 0.46284 0.88847 0.40446 0.0
H3190 H 0.42545 0.85434 0.34888 0.0
H3191 H 0.41649 0.84473 0.41864 0.0
C3192 C 0.39624 0.82048 0.41038 0.0
C3193 C 0.38867 0.80814 0.39467 0.0
C3194 C 0.43382 0.86162 0.36107 0.0
C3195 C 0.4184 0.83763 0.38644 0.0
C3196 C 0.44531 0.87892 0.35676 0.0
C3197 C 0.45587 0.8891 0.37229 0.0
C3198 C 0.43246 0.85459 0.38117 0.0
C3199 C 0.45499 0.88104 0.39203 0.0
C3200 C 0.41121 0.83507 0.40639 0.0
C3201 C 0.39693 0.81053 0.37514 0.0
N3202 N 0.44321 0.86443 0.39597 0.0
N3203 N 0.41113 0.82518 0.37153 0.0
H3204 H 0.14386 0.3269 0.91993 0.0
H3205 H 0.06391 0.37207 0.84358 0.0
H3206 H 0.13231 0.29769 0.8624 0.0
H3207 H 0.05627 0.37797 0.90837 0.0
H3208 H 0.08987 0.34584 0.84939 0.0
H3209 H 0.1126 0.34669 0.91576 0.0
C3210 C 0.13453 0.32444 0.90656 0.0
C3211 C 0.14061 0.31063 0.89151 0.0
C3212 C 0.08229 0.35267 0.86232 0.0
C3213 C 0.10516 0.33365 0.88635 0.0
C3214 C 0.06759 0.36767 0.85901 0.0
C3215 C 0.05798 0.37718 0.87552 0.0
C3216 C 0.08778 0.34751 0.88229 0.0
C3217 C 0.06321 0.3709 0.89523 0.0
C3218 C 0.11671 0.33573 0.90419 0.0
C3219 C 0.12804 0.30808 0.87443 0.0
N3220 N 0.07798 0.35671 0.89808 0.0
N3221 N 0.11107 0.31977 0.87211 0.0
H3222 H 0.63023 0.70634 0.43122 0.0
H3223 H 0.58283 0.63009 0.35232 0.0
H3224 H 0.63299 0.71789 0.36683 0.0
H3225 H 0.55524 0.63832 0.4112 0.0
H3226 H 0.60286 0.66102 0.35768 0.0
H3227 H 0.60427 0.68012 0.42501 0.0
C3228 C 0.62519 0.70346 0.41581 0.0
C3229 C 0.63372 0.71427 0.39951 0.0
C3230 C 0.59223 0.65624 0.36932 0.0
C3231 C 0.6044 0.68416 0.39226 0.0
C3232 C 0.58083 0.63858 0.36629 0.0
C3233 C 0.56736 0.63169 0.38133 0.0
C3234 C 0.59061 0.6668 0.38778 0.0
C3235 C 0.56536 0.64323 0.39917 0.0
C3236 C 0.61035 0.6886 0.41228 0.0
C3237 C 0.62667 0.71002 0.37981 0.0
N3238 N 0.57714 0.66005 0.40208 0.0
N3239 N 0.61266 0.69507 0.3767 0.0
H3240 H 0.38702 0.69496 0.42267 0.0
H3241 H 0.45399 0.63733 0.34077 0.0
H3242 H 0.38559 0.71167 0.35931 0.0
H3243 H 0.46903 0.63844 0.40456 0.0
H3244 H 0.42845 0.66389 0.34673 0.0
H3245 H 0.41674 0.67371 0.4161 0.0
C3246 C 0.39312 0.6943 0.40738 0.0
C3247 C 0.3838 0.70505 0.3915 0.0
C3248 C 0.43753 0.65848 0.35936 0.0
C3249 C 0.41768 0.6804 0.38377 0.0
C3250 C 0.452 0.64326 0.35599 0.0
C3251 C 0.46362 0.63561 0.3722 0.0
C3252 C 0.43439 0.66585 0.37915 0.0
C3253 C 0.46057 0.64397 0.3916 0.0
C3254 C 0.41012 0.68219 0.40365 0.0
C3255 C 0.39239 0.7037 0.372 0.0
N3256 N 0.4461 0.65844 0.39456 0.0
N3257 N 0.40868 0.69132 0.3686 0.0
H3258 H 0.13202 0.8162 0.59039 0.0
H3259 H 0.07237 0.88033 0.67272 0.0
H3260 H 0.12833 0.79812 0.65324 0.0
H3261 H 0.05775 0.88448 0.60896 0.0
H3262 H 0.09291 0.8502 0.66579 0.0
H3263 H 0.10511 0.84132 0.59643 0.0
C3264 C 0.12541 0.81741 0.60542 0.0
C3265 C 0.1325 0.8051 0.62135 0.0
C3266 C 0.085 0.85748 0.65332 0.0
C3267 C 0.10184 0.83393 0.62844 0.0
C3268 C 0.07328 0.8747 0.65726 0.0
C3269 C 0.06337 0.88492 0.64139 0.0
C3270 C 0.0873 0.85062 0.63324 0.0
C3271 C 0.06505 0.87696 0.62165 0.0
C3272 C 0.10999 0.83167 0.60883 0.0
C3273 C 0.12327 0.80718 0.64049 0.0
N3274 N 0.0771 0.86047 0.61807 0.0
N3275 N 0.10864 0.8215 0.64356 0.0
H3276 H 0.07042 0.63284 0.68147 0.0
H3277 H 0.12976 0.69479 0.59693 0.0
H3278 H 0.05006 0.63628 0.61925 0.0
H3279 H 0.13669 0.70849 0.66066 0.0
H3280 H 0.10062 0.67318 0.60497 0.0
H3281 H 0.09497 0.66013 0.67461 0.0
C3282 C 0.07102 0.63944 0.66642 0.0
C3283 C 0.0582 0.63221 0.6509 0.0
C3284 C 0.1083 0.68109 0.61721 0.0
C3285 C 0.08634 0.66332 0.6429 0.0
C3286 C 0.12496 0.69342 0.61263 0.0
C3287 C 0.13568 0.70342 0.62816 0.0
C3288 C 0.1025 0.67829 0.63756 0.0
C3289 C 0.12878 0.70113 0.64823 0.0
C3290 C 0.08494 0.65508 0.66254 0.0
C3291 C 0.05949 0.64146 0.63171 0.0
N3292 N 0.1128 0.68854 0.6524 0.0
N3293 N 0.07347 0.65631 0.6282 0.0
H3294 H 0.91027 0.79731 0.60378 0.0
H3295 H 0.94343 0.89012 0.67548 0.0
H3296 H 0.87466 0.8178 0.65497 0.0
H3297 H 0.97455 0.87429 0.61988 0.0
H3298 H 0.91936 0.8625 0.66945 0.0
H3299 H 0.93506 0.82411 0.61069 0.0
C3300 C 0.90764 0.80742 0.61651 0.0
C3301 C 0.89026 0.80525 0.62879 0.0
C3302 C 0.93149 0.86505 0.65859 0.0
C3303 C 0.91879 0.83608 0.63683 0.0
C3304 C 0.94526 0.88092 0.66198 0.0
C3305 C 0.96112 0.88479 0.64814 0.0
C3306 C 0.93352 0.85279 0.64124 0.0
C3307 C 0.96279 0.87193 0.63112 0.0
C3308 C 0.92184 0.82276 0.62043 0.0
C3309 C 0.88778 0.81886 0.64506 0.0
N3310 N 0.94917 0.8566 0.62816 0.0
N3311 N 0.90186 0.83366 0.64861 0.0
H3312 H 0.6154 0.96548 0.63541 0.0
H3313 H 0.66002 0.879 0.70861 0.0
H3314 H 0.67018 0.93184 0.62231 0.0
H3315 H 0.59622 0.89423 0.70651 0.0
H3316 H 0.66653 0.90401 0.68175 0.0
H3317 H 0.61077 0.94505 0.66636 0.0
C3318 C 0.62661 0.95404 0.63921 0.0
C3319 C 0.64313 0.95024 0.62622 0.0
C3320 C 0.65113 0.90198 0.6873 0.0
C3321 C 0.63801 0.92699 0.66153 0.0
C3322 C 0.64744 0.88782 0.70269 0.0
C3323 C 0.62753 0.88446 0.70969 0.0
C3324 C 0.63485 0.91311 0.67905 0.0
C3325 C 0.61175 0.89619 0.70134 0.0
C3326 C 0.6239 0.94232 0.65678 0.0
C3327 C 0.65714 0.93515 0.63181 0.0
N3328 N 0.61573 0.90999 0.68647 0.0
N3329 N 0.65426 0.92409 0.64901 0.0
H3330 H 0.21584 0.15297 0.63755 0.0
H3331 H 0.13479 0.11015 0.55674 0.0
H3332 H 0.19483 0.09091 0.63558 0.0
H3333 H 0.14378 0.17411 0.56775 0.0
H3334 H 0.16115 0.1026 0.58182 0.0
H3335 H 0.19391 0.16068 0.60822 0.0
C3336 C 0.20688 0.14092 0.63077 0.0
C3337 C 0.20704 0.1213 0.63912 0.0
C3338 C 0.15744 0.11831 0.57869 0.0
C3339 C 0.18199 0.12999 0.60569 0.0
C3340 C 0.14246 0.12263 0.56425 0.0
C3341 C 0.13694 0.14281 0.56017 0.0
C3342 C 0.16715 0.13425 0.58912 0.0
C3343 C 0.14731 0.15834 0.57062 0.0
C3344 C 0.19428 0.14535 0.61414 0.0
C3345 C 0.19504 0.10629 0.62979 0.0
N3346 N 0.16187 0.15374 0.58463 0.0
N3347 N 0.183 0.11095 0.61367 0.0
H3348 H 0.369 0.62329 0.72437 0.0
H3349 H 0.40541 0.56778 0.62208 0.0
H3350 H 0.42162 0.6421 0.68979 0.0
H3351 H 0.35696 0.54547 0.6604 0.0
H3352 H 0.41139 0.59531 0.64641 0.0
H3353 H 0.36437 0.59483 0.70108 0.0
C3354 C 0.37972 0.62143 0.71204 0.0
C3355 C 0.39574 0.63534 0.70916 0.0
C3356 C 0.39948 0.58436 0.64952 0.0
C3357 C 0.39026 0.60267 0.68205 0.0
C3358 C 0.39603 0.56863 0.6356 0.0
C3359 C 0.3806 0.55425 0.63911 0.0
C3360 C 0.38739 0.58584 0.6671 0.0
C3361 C 0.36902 0.55616 0.65699 0.0
C3362 C 0.37698 0.60516 0.69862 0.0
C3363 C 0.40888 0.63207 0.69256 0.0
N3364 N 0.3726 0.57165 0.67023 0.0
N3365 N 0.40582 0.61618 0.67966 0.0
H3366 H 0.88407 0.33954 0.56689 0.0
H3367 H 0.82013 0.42268 0.62665 0.0
H3368 H 0.87963 0.40189 0.54748 0.0
H3369 H 0.80966 0.35862 0.63505 0.0
H3370 H 0.84166 0.41512 0.59737 0.0
H3371 H 0.85696 0.34574 0.59179 0.0
C3372 C 0.87732 0.3545 0.56778 0.0
C3373 C 0.88424 0.37023 0.5551 0.0
C3374 C 0.83447 0.40267 0.60539 0.0
C3375 C 0.85323 0.37747 0.58365 0.0
C3376 C 0.82216 0.40699 0.62213 0.0
C3377 C 0.81309 0.39126 0.63331 0.0
C3378 C 0.8382 0.3824 0.59994 0.0
C3379 C 0.81625 0.37121 0.62676 0.0
C3380 C 0.86176 0.35799 0.58192 0.0
C3381 C 0.87474 0.38926 0.55678 0.0
N3382 N 0.82881 0.36732 0.61068 0.0
N3383 N 0.85994 0.39239 0.57093 0.0
H3384 H 0.60849 0.05617 0.88314 0.0
H3385 H 0.65319 0.12606 0.79359 0.0
H3386 H 0.67236 0.06911 0.87496 0.0
H3387 H 0.59077 0.12929 0.81363 0.0
H3388 H 0.65947 0.09937 0.81871 0.0
H3389 H 0.60088 0.07717 0.85313 0.0
C3390 C 0.62092 0.06309 0.87482 0.0
C3391 C 0.64108 0.06099 0.88162 0.0
C3392 C 0.64434 0.10578 0.81749 0.0
C3393 C 0.63252 0.08495 0.84738 0.0
C3394 C 0.64071 0.12092 0.80303 0.0
C3395 C 0.62144 0.13002 0.80156 0.0
C3396 C 0.62856 0.09949 0.83049 0.0
C3397 C 0.60591 0.12287 0.81443 0.0
C3398 C 0.61656 0.07518 0.8578 0.0
C3399 C 0.65658 0.07045 0.87036 0.0
N3400 N 0.6098 0.10809 0.82838 0.0
N3401 N 0.65199 0.08202 0.85387 0.0
H3402 H 0.38083 0.11531 0.47139 0.0
H3403 H 0.30906 0.16266 0.38484 0.0
H3404 H 0.38543 0.17771 0.45218 0.0
H3405 H 0.32382 0.09903 0.38911 0.0
H3406 H 0.33078 0.16919 0.41471 0.0
H3407 H 0.35359 0.11001 0.44649 0.0
C3408 C 0.37588 0.12799 0.46217 0.0
C3409 C 0.38549 0.14697 0.4638 0.0
C3410 C 0.32901 0.15378 0.40921 0.0
C3411 C 0.35432 0.14099 0.43521 0.0
C3412 C 0.31652 0.15004 0.3923 0.0
C3413 C 0.31474 0.13029 0.38446 0.0
C3414 C 0.33943 0.13759 0.4185 0.0
C3415 C 0.3249 0.11451 0.39458 0.0
C3416 C 0.36043 0.12492 0.44786 0.0
C3417 C 0.37858 0.16279 0.45124 0.0
N3418 N 0.33679 0.11849 0.41102 0.0
N3419 N 0.36345 0.15946 0.43745 0.0
H3420 H 0.37092 0.39428 0.79338 0.0
H3421 H 0.40985 0.44896 0.89498 0.0
H3422 H 0.42888 0.38083 0.82139 0.0
H3423 H 0.35768 0.46878 0.86034 0.0
H3424 H 0.41665 0.42314 0.86898 0.0
H3425 H 0.36566 0.42115 0.81818 0.0
C3426 C 0.3827 0.39702 0.80452 0.0
C3427 C 0.4004 0.38502 0.80515 0.0
C3428 C 0.40375 0.43319 0.86707 0.0
C3429 C 0.39417 0.41583 0.83411 0.0
C3430 C 0.39982 0.4479 0.88194 0.0
C3431 C 0.38314 0.46109 0.8799 0.0
C3432 C 0.39084 0.43154 0.85007 0.0
C3433 C 0.37071 0.45899 0.86262 0.0
C3434 C 0.37959 0.41237 0.81885 0.0
C3435 C 0.41486 0.38936 0.82037 0.0
N3436 N 0.37477 0.4445 0.84847 0.0
N3437 N 0.41138 0.40429 0.83427 0.0
H3438 H 0.64563 0.34061 0.45779 0.0
H3439 H 0.685 0.41941 0.37543 0.0
H3440 H 0.63028 0.40421 0.45947 0.0
H3441 H 0.7162 0.36293 0.38664 0.0
H3442 H 0.66427 0.41371 0.40571 0.0
H3443 H 0.67081 0.34775 0.43117 0.0
C3444 C 0.64761 0.35607 0.4526 0.0
C3445 C 0.63579 0.37182 0.46082 0.0
C3446 C 0.67579 0.40264 0.40172 0.0
C3447 C 0.66448 0.38009 0.43034 0.0
C3448 C 0.68762 0.40588 0.38441 0.0
C3449 C 0.70231 0.3916 0.37848 0.0
C3450 C 0.67833 0.38477 0.41305 0.0
C3451 C 0.70509 0.37437 0.39072 0.0
C3452 C 0.66207 0.36016 0.43752 0.0
C3453 C 0.63915 0.39163 0.45369 0.0
N3454 N 0.693 0.37128 0.40729 0.0
N3455 N 0.653 0.39516 0.43873 0.0
H3456 H 0.72314 0.65072 0.89093 0.0
H3457 H 0.63343 0.60695 0.96109 0.0
H3458 H 0.70459 0.58788 0.88937 0.0
H3459 H 0.64221 0.67039 0.94741 0.0
H3460 H 0.66352 0.59887 0.94027 0.0
H3461 H 0.69777 0.65717 0.91717 0.0
C3462 C 0.71398 0.63817 0.89631 0.0
C3463 C 0.71601 0.61871 0.88781 0.0
C3464 C 0.65893 0.61456 0.94204 0.0
C3465 C 0.68659 0.62611 0.91785 0.0
C3466 C 0.64188 0.61918 0.95402 0.0
C3467 C 0.63524 0.63936 0.95586 0.0
C3468 C 0.66954 0.63027 0.93214 0.0
C3469 C 0.64667 0.65461 0.94625 0.0
C3470 C 0.69934 0.64191 0.91122 0.0
C3471 C 0.70338 0.60316 0.89529 0.0
N3472 N 0.66317 0.64976 0.93481 0.0
N3473 N 0.68916 0.6072 0.90983 0.0
H3474 H 0.84137 0.07341 0.38271 0.0
H3475 H 0.91684 0.11349 0.29588 0.0
H3476 H 0.9009 0.04787 0.37158 0.0
H3477 H 0.86328 0.14625 0.31507 0.0
H3478 H 0.90979 0.08773 0.32163 0.0
H3479 H 0.84766 0.09841 0.35608 0.0
C3480 C 0.85577 0.07298 0.37475 0.0
C3481 C 0.87065 0.05843 0.3797 0.0
C3482 C 0.89958 0.10055 0.32023 0.0
C3483 C 0.87785 0.08709 0.34881 0.0
C3484 C 0.90358 0.1153 0.30549 0.0
C3485 C 0.89066 0.13215 0.30327 0.0
C3486 C 0.88242 0.10249 0.33283 0.0
C3487 C 0.87371 0.13358 0.31623 0.0
C3488 C 0.85932 0.08729 0.35945 0.0
C3489 C 0.88884 0.05854 0.36838 0.0
N3490 N 0.87006 0.11894 0.3304 0.0
N3491 N 0.89191 0.07264 0.35355 0.0
H3492 H 0.31421 0.92663 0.89037 0.0
H3493 H 0.38263 0.8456 0.94712 0.0
H3494 H 0.29915 0.86295 0.89251 0.0
H3495 H 0.38443 0.909 0.96343 0.0
H3496 H 0.35222 0.8519 0.92673 0.0
H3497 H 0.34022 0.92104 0.91661 0.0
C3498 C 0.31628 0.91152 0.89648 0.0
C3499 C 0.30453 0.89522 0.88919 0.0
C3500 C 0.35907 0.86443 0.93494 0.0
C3501 C 0.33432 0.88869 0.91905 0.0
C3502 C 0.37646 0.86085 0.94656 0.0
C3503 C 0.38609 0.87682 0.95693 0.0
C3504 C 0.35142 0.88424 0.93323 0.0
C3505 C 0.37741 0.89625 0.95573 0.0
C3506 C 0.33103 0.90836 0.91152 0.0
C3507 C 0.3077 0.87597 0.89777 0.0
N3508 N 0.36072 0.8995 0.9438 0.0
N3509 N 0.32245 0.8732 0.91202 0.0
H3510 H 0.13735 0.47962 0.36642 0.0
H3511 H 0.12567 0.36056 0.35162 0.0
H3512 H 0.1588 0.43558 0.40985 0.0
H3513 H 0.1351 0.39899 0.2993 0.0
H3514 H 0.13151 0.38953 0.37372 0.0
H3515 H 0.13082 0.45181 0.34205 0.0
C3516 C 0.14065 0.46412 0.3708 0.0
C3517 C 0.14869 0.45986 0.39013 0.0
C3518 C 0.13228 0.39168 0.35741 0.0
C3519 C 0.14104 0.4282 0.36264 0.0
C3520 C 0.12882 0.37515 0.3447 0.0
C3521 C 0.12994 0.37727 0.32348 0.0
C3522 C 0.13662 0.41074 0.34901 0.0
C3523 C 0.13416 0.39665 0.31556 0.0
C3524 C 0.13705 0.44834 0.35689 0.0
C3525 C 0.15282 0.43956 0.39505 0.0
N3526 N 0.13728 0.41273 0.32835 0.0
N3527 N 0.14877 0.42452 0.3815 0.0
H3528 H 0.65914 0.35454 0.5477 0.0
H3529 H 0.69305 0.42507 0.64111 0.0
H3530 H 0.62376 0.40553 0.5689 0.0
H3531 H 0.72446 0.37023 0.62361 0.0
H3532 H 0.66879 0.41953 0.6135 0.0
H3533 H 0.68437 0.36148 0.57404 0.0
C3534 C 0.65666 0.36724 0.55786 0.0
C3535 C 0.6392 0.37942 0.55606 0.0
C3536 C 0.68103 0.40874 0.61568 0.0
C3537 C 0.66821 0.38749 0.5864 0.0
C3538 C 0.6949 0.41185 0.63153 0.0
C3539 C 0.71088 0.39806 0.63491 0.0
C3540 C 0.6831 0.39172 0.60299 0.0
C3541 C 0.7126 0.38141 0.62162 0.0
C3542 C 0.67111 0.37118 0.57294 0.0
C3543 C 0.63692 0.39569 0.56971 0.0
N3544 N 0.69887 0.3787 0.60634 0.0
N3545 N 0.65124 0.39923 0.5843 0.0
H3546 H 0.59642 0.13224 0.68811 0.0
H3547 H 0.67915 0.06518 0.63213 0.0
H3548 H 0.65945 0.13331 0.70651 0.0
H3549 H 0.61551 0.04908 0.63318 0.0
H3550 H 0.67273 0.0908 0.6585 0.0
H3551 H 0.60328 0.10233 0.66722 0.0
C3552 C 0.61169 0.12602 0.6879 0.0
C3553 C 0.6274 0.13529 0.69903 0.0
C3554 C 0.66023 0.08148 0.65314 0.0
C3555 C 0.63547 0.10121 0.67477 0.0
C3556 C 0.66386 0.06695 0.63803 0.0
C3557 C 0.64783 0.05501 0.63041 0.0
C3558 C 0.64034 0.0844 0.66041 0.0
C3559 C 0.62834 0.05782 0.63871 0.0
C3560 C 0.61558 0.10892 0.676 0.0
C3561 C 0.64689 0.12656 0.69824 0.0
N3562 N 0.62509 0.07239 0.65304 0.0
N3563 N 0.65046 0.11018 0.68604 0.0
H3564 H 0.30048 0.14861 0.63161 0.0
H3565 H 0.38834 0.10656 0.55819 0.0
H3566 H 0.32151 0.08666 0.6337 0.0
H3567 H 0.382 0.16951 0.5751 0.0
H3568 H 0.35878 0.09833 0.57971 0.0
H3569 H 0.32519 0.15566 0.60467 0.0
C3570 C 0.31005 0.13639 0.62616 0.0
C3571 C 0.30898 0.11702 0.63497 0.0
C3572 C 0.36377 0.11396 0.57847 0.0
C3573 C 0.33738 0.12503 0.60417 0.0
C3574 C 0.3805 0.11868 0.5661 0.0
C3575 C 0.38767 0.13873 0.56496 0.0
C3576 C 0.35397 0.12948 0.58944 0.0
C3577 C 0.37707 0.15383 0.57567 0.0
C3578 C 0.32426 0.14047 0.61089 0.0
C3579 C 0.32201 0.10185 0.62746 0.0
N3580 N 0.3608 0.14891 0.58745 0.0
N3581 N 0.33569 0.10616 0.61252 0.0
H3582 H 0.38283 0.47381 0.65358 0.0
H3583 H 0.38478 0.35352 0.66797 0.0
H3584 H 0.35927 0.43115 0.60974 0.0
H3585 H 0.38437 0.39349 0.72002 0.0
H3586 H 0.38069 0.3827 0.64579 0.0
H3587 H 0.38832 0.44549 0.67753 0.0
C3588 C 0.37888 0.45851 0.649 0.0
C3589 C 0.37048 0.45483 0.62968 0.0
C3590 C 0.38151 0.38516 0.66206 0.0
C3591 C 0.37688 0.42251 0.65678 0.0
C3592 C 0.38395 0.36847 0.67481 0.0
C3593 C 0.38488 0.37097 0.69599 0.0
C3594 C 0.38018 0.40473 0.67036 0.0
C3595 C 0.38366 0.39083 0.7038 0.0
C3596 C 0.3819 0.44242 0.66268 0.0
C3597 C 0.36552 0.43475 0.62454 0.0
N3598 N 0.38143 0.407 0.69097 0.0
N3599 N 0.3689 0.41941 0.6379 0.0
H3600 H 0.9668 0.63103 0.61346 0.0
H3601 H 0.88597 0.71143 0.65697 0.0
H3602 H 0.94322 0.63033 0.67467 0.0
H3603 H 0.89638 0.70264 0.59282 0.0
H3604 H 0.91159 0.68558 0.66429 0.0
H3605 H 0.94571 0.66105 0.60627 0.0
C3606 C 0.95744 0.63735 0.62545 0.0
C3607 C 0.95665 0.62808 0.64465 0.0
C3608 C 0.90837 0.68938 0.6486 0.0
C3609 C 0.93257 0.66231 0.63656 0.0
C3610 C 0.89382 0.70426 0.64441 0.0
C3611 C 0.88891 0.70918 0.62423 0.0
C3612 C 0.91826 0.67935 0.63252 0.0
C3613 C 0.89947 0.69913 0.60859 0.0
C3614 C 0.94532 0.65439 0.62131 0.0
C3615 C 0.94417 0.63685 0.65959 0.0
N3616 N 0.91361 0.68468 0.61305 0.0
N3617 N 0.93263 0.65339 0.65523 0.0
H3618 H 0.85588 0.33265 0.88926 0.0
H3619 H 0.97209 0.36779 0.89256 0.0
H3620 H 0.90402 0.28823 0.88965 0.0
H3621 H 0.92233 0.40463 0.87072 0.0
H3622 H 0.94866 0.33846 0.89411 0.0
H3623 H 0.88107 0.35946 0.88561 0.0
C3624 C 0.87184 0.32856 0.88868 0.0
C3625 C 0.87787 0.30819 0.88992 0.0
C3626 C 0.94304 0.35298 0.88885 0.0
C3627 C 0.90706 0.339 0.88562 0.0
C3628 C 0.95637 0.36971 0.88798 0.0
C3629 C 0.94918 0.3888 0.88166 0.0
C3630 C 0.92242 0.35553 0.88358 0.0
C3631 C 0.92865 0.39036 0.87586 0.0
C3632 C 0.88625 0.34388 0.88643 0.0
C3633 C 0.89879 0.30377 0.88869 0.0
N3634 N 0.91607 0.37408 0.87712 0.0
N3635 N 0.91271 0.31909 0.88678 0.0
H3636 H 0.62589 0.82284 0.4214 0.0
H3637 H 0.56998 0.88667 0.33593 0.0
H3638 H 0.63692 0.81201 0.35771 0.0
H3639 H 0.54722 0.88129 0.39716 0.0
H3640 H 0.59445 0.85942 0.34302 0.0
H3641 H 0.59673 0.84399 0.41251 0.0
C3642 C 0.62196 0.82471 0.40551 0.0
C3643 C 0.63383 0.81568 0.39026 0.0
C3644 C 0.58391 0.86403 0.3548 0.0
C3645 C 0.60065 0.84034 0.3799 0.0
C3646 C 0.57003 0.87965 0.3508 0.0
C3647 C 0.55656 0.88635 0.36599 0.0
C3648 C 0.58457 0.85524 0.37425 0.0
C3649 C 0.55715 0.87656 0.38494 0.0
C3650 C 0.60529 0.83679 0.40043 0.0
C3651 C 0.62806 0.8186 0.36992 0.0
N3652 N 0.57107 0.86172 0.38859 0.0
N3653 N 0.61205 0.83097 0.3653 0.0
H3654 H 0.1692 0.17729 0.89612 0.0
H3655 H 0.05235 0.14291 0.89042 0.0
H3656 H 0.12092 0.22142 0.89223 0.0
H3657 H 0.10386 0.10372 0.87948 0.0
H3658 H 0.07596 0.172 0.89294 0.0
H3659 H 0.14437 0.15024 0.89225 0.0
C3660 C 0.1533 0.18131 0.89458 0.0
C3661 C 0.14715 0.20169 0.8947 0.0
C3662 C 0.08198 0.157 0.8899 0.0
C3663 C 0.11832 0.1705 0.89005 0.0
C3664 C 0.06853 0.14041 0.88849 0.0
C3665 C 0.07608 0.12076 0.88481 0.0
C3666 C 0.10307 0.15384 0.88779 0.0
C3667 C 0.09721 0.11846 0.8824 0.0
C3668 C 0.13907 0.1658 0.89221 0.0
C3669 C 0.12629 0.2059 0.89217 0.0
N3670 N 0.10985 0.13468 0.88403 0.0
N3671 N 0.11256 0.19042 0.89009 0.0
H3672 H 0.89108 0.21543 0.85658 0.0
H3673 H 0.96618 0.13201 0.90352 0.0
H3674 H 0.87725 0.18105 0.91061 0.0
H3675 H 0.9631 0.1438 0.83915 0.0
H3676 H 0.93883 0.15674 0.909 0.0
H3677 H 0.92279 0.19584 0.85273 0.0
C3678 C 0.89491 0.20405 0.86782 0.0
C3679 C 0.88153 0.19976 0.88389 0.0
C3680 C 0.94432 0.15407 0.8937 0.0
C3681 C 0.91764 0.17754 0.87968 0.0
C3682 C 0.96001 0.1401 0.89058 0.0
C3683 C 0.96688 0.13585 0.87083 0.0
C3684 C 0.93562 0.16413 0.877 0.0
C3685 C 0.95811 0.14656 0.85458 0.0
C3686 C 0.91288 0.1928 0.86554 0.0
C3687 C 0.8871 0.18472 0.89793 0.0
N3688 N 0.94293 0.16022 0.85801 0.0
N3689 N 0.90472 0.17418 0.89552 0.0
H3690 H 0.57465 0.38069 0.17284 0.0
H3691 H 0.63866 0.32241 0.08925 0.0
H3692 H 0.5624 0.38826 0.1089 0.0
H3693 H 0.63292 0.30074 0.1508 0.0
H3694 H 0.61129 0.34692 0.09576 0.0
H3695 H 0.59626 0.35155 0.16498 0.0
C3696 C 0.57632 0.37602 0.15713 0.0
C3697 C 0.56673 0.38691 0.1415 0.0
C3698 C 0.61584 0.33663 0.10775 0.0
C3699 C 0.59189 0.35376 0.13232 0.0
C3700 C 0.63153 0.32273 0.10409 0.0
C3701 C 0.63814 0.30956 0.11952 0.0
C3702 C 0.60693 0.33765 0.12713 0.0
C3703 C 0.62824 0.31048 0.13842 0.0
C3704 C 0.58865 0.35937 0.15265 0.0
C3705 C 0.56942 0.38019 0.12141 0.0
N3706 N 0.61335 0.32446 0.14176 0.0
N3707 N 0.58202 0.36424 0.11735 0.0
H3708 H 0.63842 0.21499 0.15541 0.0
H3709 H 0.54929 0.14483 0.10994 0.0
H3710 H 0.63124 0.20084 0.09177 0.0
H3711 H 0.566 0.14453 0.17337 0.0
H3712 H 0.57504 0.17088 0.10373 0.0
H3713 H 0.60785 0.19461 0.16282 0.0
C3714 C 0.63024 0.2079 0.14299 0.0
C3715 C 0.63747 0.20947 0.12297 0.0
C3716 C 0.57297 0.16525 0.11905 0.0
C3717 C 0.6026 0.18625 0.13128 0.0
C3718 C 0.55813 0.15047 0.12265 0.0
C3719 C 0.55552 0.14236 0.14221 0.0
C3720 C 0.58529 0.17215 0.13513 0.0
C3721 C 0.56769 0.15014 0.15801 0.0
C3722 C 0.6129 0.19618 0.14723 0.0
C3723 C 0.62634 0.19987 0.10746 0.0
N3724 N 0.58209 0.16453 0.15412 0.0
N3725 N 0.60956 0.18866 0.11194 0.0
H3726 H 0.47187 0.38132 0.11629 0.0
H3727 H 0.38545 0.30831 0.16196 0.0
H3728 H 0.45404 0.38283 0.17933 0.0
H3729 H 0.3875 0.32725 0.09926 0.0
H3730 H 0.41603 0.32894 0.16871 0.0
H3731 H 0.4464 0.35478 0.11012 0.0
C3732 C 0.46285 0.37581 0.12891 0.0
C3733 C 0.46501 0.38436 0.14835 0.0
C3734 C 0.4099 0.32831 0.15343 0.0
C3735 C 0.43583 0.35401 0.14139 0.0
C3736 C 0.39259 0.31643 0.14954 0.0
C3737 C 0.38392 0.31616 0.13004 0.0
C3738 C 0.41876 0.33963 0.13761 0.0
C3739 C 0.39364 0.32716 0.11454 0.0
C3740 C 0.44822 0.36078 0.12535 0.0
C3741 C 0.45269 0.3768 0.16409 0.0
N3742 N 0.41049 0.33844 0.11865 0.0
N3743 N 0.43861 0.36208 0.16028 0.0
loop_
_geom_bond_atom_site_label_1
_geom_bond_atom_site_label_2
_geom_bond_distance
_geom_bond_site_symmetry_2
_ccdc_geom_bond_type
C0 C1 1.351 . S
C0 N3 1.368 . S
C0 H5 0.931 . S
C1 C0 1.351 . S
C1 N2 1.373 . S
C1 H29 0.930 . S
N2 C1 1.373 . S
N2 C4 1.340 . S
N3 C0 1.368 . S
N3 C4 1.321 . S
N3 Co6 2.135 . S
C4 N2 1.340 . S
C4 N3 1.321 . S
C4 H28 0.930 . S
H5 C0 0.931 . S
Co6 N3 2.135 . S
Co6 N9 2.121 . S
Co6 O14 2.055 . S
Co6 O17 2.039 . S
Co6 N20 2.140 . S
C7 O8 1.227 . S
C7 O17 1.265 . S
O8 C7 1.227 . S
N9 Co6 2.121 . S
N9 C11 1.375 . S
N9 C12 1.313 . S
C10 C11 1.338 . S
C10 N13 1.377 . S
C10 H30 0.930 . S
C11 N9 1.375 . S
C11 C10 1.338 . S
C11 H15 0.931 . S
C12 N9 1.313 . S
C12 N13 1.344 . S
C12 H16 0.930 . S
N13 C10 1.377 . S
N13 C12 1.344 . S
O14 Co6 2.055 . S
O14 C18 1.253 . S
H15 C11 0.931 . S
H16 C12 0.930 . S
O17 Co6 2.039 . S
O17 C7 1.265 . S
C18 O14 1.253 . S
C18 O19 1.227 . S
O19 C18 1.227 . S
N20 Co6 2.140 . S
N20 C23 1.346 . S
N20 C24 1.345 . S
C21 C22 1.387 . S
C21 C25 1.391 . S
C22 C21 1.387 . S
C22 C23 1.369 . S
C22 H31 0.929 . S
C23 N20 1.346 . S
C23 C22 1.369 . S
C23 H26 0.928 . S
C24 N20 1.345 . S
C24 C25 1.371 . S
C24 H27 0.931 . S
C25 C21 1.391 . S
C25 C24 1.371 . S
C25 H32 0.930 . S
H26 C23 0.928 . S
H27 C24 0.931 . S
H28 C4 0.930 . S
H29 C1 0.930 . S
H30 C10 0.930 . S
H31 C22 0.929 . S
H32 C25 0.930 . S
C33 C34 1.351 . S
C33 N36 1.368 . S
C33 H38 0.931 . S
C34 C33 1.351 . S
C34 N35 1.373 . S
C34 H62 0.930 . S
N35 C34 1.373 . S
N35 C37 1.340 . S
N36 C33 1.368 . S
N36 C37 1.321 . S
N36 Co39 2.135 . S
C37 N35 1.340 . S
C37 N36 1.321 . S
C37 H61 0.930 . S
H38 C33 0.931 . S
Co39 N36 2.135 . S
Co39 N42 2.141 . S
Co39 O47 2.055 . S
Co39 O50 2.039 . S
Co39 N53 2.140 . S
C40 O41 1.227 . S
C40 O50 1.265 1_556 S
O41 C40 1.227 . S
N42 Co39 2.141 . S
N42 C44 1.350 1_554 S
N42 C45 1.315 . S
C43 C44 1.338 . S
C43 N46 1.377 . S
C43 H63 0.930 . S
C44 N42 1.350 1_556 S
C44 C43 1.338 . S
C44 H48 0.931 . S
C45 N42 1.315 . S
C45 N46 1.344 1_554 S
C45 H49 0.930 . S
N46 C43 1.377 . S
N46 C45 1.344 1_556 S
O47 Co39 2.055 . S
O47 C51 1.253 . S
H48 C44 0.931 . S
H49 C45 0.930 . S
O50 Co39 2.039 . S
O50 C40 1.265 1_554 S
C51 O47 1.253 . S
C51 O52 1.227 . S
O52 C51 1.227 . S
N53 Co39 2.140 . S
N53 C56 1.346 . S
N53 C57 1.345 . S
C54 C55 1.387 . S
C54 C58 1.391 . S
C55 C54 1.387 . S
C55 C56 1.369 . S
C55 H64 0.929 . S
C56 N53 1.346 . S
C56 C55 1.369 . S
C56 H59 0.928 . S
C57 N53 1.345 . S
C57 C58 1.371 . S
C57 H60 0.931 . S
C58 C54 1.391 . S
C58 C57 1.371 . S
C58 H65 0.930 . S
H59 C56 0.928 . S
H60 C57 0.931 . S
H61 C37 0.930 . S
H62 C34 0.930 . S
H63 C43 0.930 . S
H64 C55 0.929 . S
H65 C58 0.930 . S
C66 C67 1.351 . S
C66 N69 1.368 . S
C66 H71 0.931 . S
C67 C66 1.351 . S
C67 N68 1.373 . S
C67 H95 0.930 . S
N68 C67 1.373 . S
N68 C70 1.340 . S
N69 C66 1.368 . S
N69 C70 1.321 . S
N69 Co72 2.135 . S
C70 N68 1.340 . S
C70 N69 1.321 . S
C70 H94 0.930 . S
H71 C66 0.931 . S
Co72 N69 2.135 . S
Co72 N75 2.121 . S
Co72 O80 2.055 . S
Co72 O83 2.039 . S
Co72 N86 2.140 . S
C73 O74 1.227 . S
C73 O83 1.265 . S
O74 C73 1.227 . S
N75 Co72 2.121 . S
N75 C77 1.375 . S
N75 C78 1.313 . S
C76 C77 1.338 . S
C76 N79 1.377 . S
C76 H96 0.930 . S
C77 N75 1.375 . S
C77 C76 1.338 . S
C77 H81 0.931 . S
C78 N75 1.313 . S
C78 N79 1.344 . S
C78 H82 0.930 . S
N79 C76 1.377 . S
N79 C78 1.344 . S
O80 Co72 2.055 . S
O80 C84 1.253 . S
H81 C77 0.931 . S
H82 C78 0.930 . S
O83 Co72 2.039 . S
O83 C73 1.265 . S
C84 O80 1.253 . S
C84 O85 1.227 . S
O85 C84 1.227 . S
N86 Co72 2.140 . S
N86 C89 1.346 . S
N86 C90 1.345 . S
C87 C88 1.387 . S
C87 C91 1.391 . S
C88 C87 1.387 . S
C88 C89 1.369 . S
C88 H97 0.929 . S
C89 N86 1.346 . S
C89 C88 1.369 . S
C89 H92 0.928 . S
C90 N86 1.345 . S
C90 C91 1.371 . S
C90 H93 0.931 . S
C91 C87 1.391 . S
C91 C90 1.371 . S
C91 H98 0.930 . S
H92 C89 0.928 . S
H93 C90 0.931 . S
H94 C70 0.930 . S
H95 C67 0.930 . S
H96 C76 0.930 . S
H97 C88 0.929 . S
H98 C91 0.930 . S
C99 C100 1.351 . S
C99 N102 1.368 . S
C99 H104 0.931 . S
C100 C99 1.351 . S
C100 N101 1.373 . S
C100 H128 0.930 . S
N101 C100 1.373 . S
N101 C103 1.340 . S
N102 C99 1.368 . S
N102 C103 1.321 . S
N102 Co105 2.135 . S
C103 N101 1.340 . S
C103 N102 1.321 . S
C103 H127 0.930 . S
H104 C99 0.931 . S
Co105 N102 2.135 . S
Co105 N108 2.141 . S
Co105 O113 2.055 . S
Co105 O116 2.039 . S
Co105 N119 2.140 . S
C106 O107 1.227 . S
C106 O116 1.265 1_556 S
O107 C106 1.227 . S
N108 Co105 2.141 . S
N108 C110 1.350 1_554 S
N108 C111 1.315 . S
C109 C110 1.338 . S
C109 N112 1.377 . S
C109 H129 0.930 . S
C110 N108 1.350 1_556 S
C110 C109 1.338 . S
C110 H114 0.931 . S
C111 N108 1.315 . S
C111 N112 1.344 1_554 S
C111 H115 0.930 . S
N112 C109 1.377 . S
N112 C111 1.344 1_556 S
O113 Co105 2.055 . S
O113 C117 1.253 . S
H114 C110 0.931 . S
H115 C111 0.930 . S
O116 Co105 2.039 . S
O116 C106 1.265 1_554 S
C117 O113 1.253 . S
C117 O118 1.227 . S
O118 C117 1.227 . S
N119 Co105 2.140 . S
N119 C122 1.346 . S
N119 C123 1.345 . S
C120 C121 1.387 . S
C120 C124 1.391 . S
C121 C120 1.387 . S
C121 C122 1.369 . S
C121 H130 0.929 . S
C122 N119 1.346 . S
C122 C121 1.369 . S
C122 H125 0.928 . S
C123 N119 1.345 . S
C123 C124 1.371 . S
C123 H126 0.931 . S
C124 C120 1.391 . S
C124 C123 1.371 . S
C124 H131 0.930 . S
H125 C122 0.928 . S
H126 C123 0.931 . S
H127 C103 0.930 . S
H128 C100 0.930 . S
H129 C109 0.930 . S
H130 C121 0.929 . S
H131 C124 0.930 . S
C132 C133 1.351 . S
C132 N135 1.368 . S
C132 H137 0.931 . S
C133 C132 1.351 . S
C133 N134 1.373 . S
C133 H161 0.930 . S
N134 C133 1.373 . S
N134 C136 1.340 . S
N135 C132 1.368 . S
N135 C136 1.321 . S
N135 Co138 2.135 . S
C136 N134 1.340 . S
C136 N135 1.321 . S
C136 H160 0.930 . S
H137 C132 0.931 . S
Co138 N135 2.135 . S
Co138 N141 2.121 . S
Co138 O146 2.055 . S
Co138 O149 2.039 . S
Co138 N152 2.140 . S
C139 O140 1.227 . S
C139 O149 1.265 . S
O140 C139 1.227 . S
N141 Co138 2.121 . S
N141 C143 1.375 . S
N141 C144 1.313 . S
C142 C143 1.338 . S
C142 N145 1.377 . S
C142 H162 0.930 . S
C143 N141 1.375 . S
C143 C142 1.338 . S
C143 H147 0.931 . S
C144 N141 1.313 . S
C144 N145 1.344 . S
C144 H148 0.930 . S
N145 C142 1.377 . S
N145 C144 1.344 . S
O146 Co138 2.055 . S
O146 C150 1.253 . S
H147 C143 0.931 . S
H148 C144 0.930 . S
O149 Co138 2.039 . S
O149 C139 1.265 . S
C150 O146 1.253 . S
C150 O151 1.227 . S
O151 C150 1.227 . S
N152 Co138 2.140 . S
N152 C155 1.346 . S
N152 C156 1.345 . S
C153 C154 1.387 . S
C153 C157 1.391 . S
C154 C153 1.387 . S
C154 C155 1.369 . S
C154 H163 0.929 . S
C155 N152 1.346 . S
C155 C154 1.369 . S
C155 H158 0.928 . S
C156 N152 1.345 . S
C156 C157 1.371 . S
C156 H159 0.931 . S
C157 C153 1.391 . S
C157 C156 1.371 . S
C157 H164 0.930 . S
H158 C155 0.928 . S
H159 C156 0.931 . S
H160 C136 0.930 . S
H161 C133 0.930 . S
H162 C142 0.930 . S
H163 C154 0.929 . S
H164 C157 0.930 . S
C165 C166 1.351 . S
C165 N168 1.368 . S
C165 H170 0.931 . S
C166 C165 1.351 . S
C166 N167 1.373 . S
C166 H194 0.930 . S
N167 C166 1.373 . S
N167 C169 1.340 . S
N168 C165 1.368 . S
N168 C169 1.321 . S
N168 Co171 2.135 . S
C169 N167 1.340 . S
C169 N168 1.321 . S
C169 H193 0.930 . S
H170 C165 0.931 . S
Co171 N168 2.135 . S
Co171 N174 2.141 . S
Co171 O179 2.055 . S
Co171 O182 2.039 . S
Co171 N185 2.140 . S
C172 O173 1.227 . S
C172 O182 1.265 1_554 S
O173 C172 1.227 . S
N174 Co171 2.141 . S
N174 C176 1.350 1_556 S
N174 C177 1.315 . S
C175 C176 1.338 . S
C175 N178 1.377 . S
C175 H195 0.930 . S
C176 N174 1.350 1_554 S
C176 C175 1.338 . S
C176 H180 0.931 . S
C177 N174 1.315 . S
C177 N178 1.344 1_556 S
C177 H181 0.930 . S
N178 C175 1.377 . S
N178 C177 1.344 1_554 S
O179 Co171 2.055 . S
O179 C183 1.253 . S
H180 C176 0.931 . S
H181 C177 0.930 . S
O182 Co171 2.039 . S
O182 C172 1.265 1_556 S
C183 O179 1.253 . S
C183 O184 1.227 . S
O184 C183 1.227 . S
N185 Co171 2.140 . S
N185 C188 1.346 . S
N185 C189 1.345 . S
C186 C187 1.387 . S
C186 C190 1.391 . S
C187 C186 1.387 . S
C187 C188 1.369 . S
C187 H196 0.929 . S
C188 N185 1.346 . S
C188 C187 1.369 . S
C188 H191 0.928 . S
C189 N185 1.345 . S
C189 C190 1.371 . S
C189 H192 0.931 . S
C190 C186 1.391 . S
C190 C189 1.371 . S
C190 H197 0.930 . S
H191 C188 0.928 . S
H192 C189 0.931 . S
H193 C169 0.930 . S
H194 C166 0.930 . S
H195 C175 0.930 . S
H196 C187 0.929 . S
H197 C190 0.930 . S
C198 C199 1.351 . S
C198 N201 1.368 . S
C198 H203 0.931 . S
C199 C198 1.351 . S
C199 N200 1.373 . S
C199 H227 0.930 . S
N200 C199 1.373 . S
N200 C202 1.340 . S
N201 C198 1.368 . S
N201 C202 1.321 . S
N201 Co204 2.135 . S
C202 N200 1.340 . S
C202 N201 1.321 . S
C202 H226 0.930 . S
H203 C198 0.931 . S
Co204 N201 2.135 . S
Co204 N207 2.121 . S
Co204 O212 2.055 . S
Co204 O215 2.039 . S
Co204 N218 2.140 . S
C205 O206 1.227 . S
C205 O215 1.265 . S
O206 C205 1.227 . S
N207 Co204 2.121 . S
N207 C209 1.375 . S
N207 C210 1.313 . S
C208 C209 1.338 . S
C208 N211 1.377 . S
C208 H228 0.930 . S
C209 N207 1.375 . S
C209 C208 1.338 . S
C209 H213 0.931 . S
C210 N207 1.313 . S
C210 N211 1.344 . S
C210 H214 0.930 . S
N211 C208 1.377 . S
N211 C210 1.344 . S
O212 Co204 2.055 . S
O212 C216 1.253 . S
H213 C209 0.931 . S
H214 C210 0.930 . S
O215 Co204 2.039 . S
O215 C205 1.265 . S
C216 O212 1.253 . S
C216 O217 1.227 . S
O217 C216 1.227 . S
N218 Co204 2.140 . S
N218 C221 1.346 . S
N218 C222 1.345 . S
C219 C220 1.387 . S
C219 C223 1.391 . S
C220 C219 1.387 . S
C220 C221 1.369 . S
C220 H229 0.929 . S
C221 N218 1.346 . S
C221 C220 1.369 . S
C221 H224 0.928 . S
C222 N218 1.345 . S
C222 C223 1.371 . S
C222 H225 0.931 . S
C223 C219 1.391 . S
C223 C222 1.371 . S
C223 H230 0.930 . S
H224 C221 0.928 . S
H225 C222 0.931 . S
H226 C202 0.930 . S
H227 C199 0.930 . S
H228 C208 0.930 . S
H229 C220 0.929 . S
H230 C223 0.930 . S
C231 C232 1.351 . S
C231 N234 1.368 . S
C231 H236 0.931 . S
C232 C231 1.351 . S
C232 N233 1.373 . S
C232 H260 0.930 . S
N233 C232 1.373 . S
N233 C235 1.340 . S
N234 C231 1.368 . S
N234 C235 1.321 . S
N234 Co237 2.135 . S
C235 N233 1.340 . S
C235 N234 1.321 . S
C235 H259 0.930 . S
H236 C231 0.931 . S
Co237 N234 2.135 . S
Co237 N240 2.141 . S
Co237 O245 2.055 . S
Co237 O248 2.039 . S
Co237 N251 2.140 . S
C238 O239 1.227 . S
C238 O248 1.265 1_554 S
O239 C238 1.227 . S
N240 Co237 2.141 . S
N240 C242 1.350 1_556 S
N240 C243 1.315 . S
C241 C242 1.338 . S
C241 N244 1.377 . S
C241 H261 0.930 . S
C242 N240 1.350 1_554 S
C242 C241 1.338 . S
C242 H246 0.931 . S
C243 N240 1.315 . S
C243 N244 1.344 1_556 S
C243 H247 0.930 . S
N244 C241 1.377 . S
N244 C243 1.344 1_554 S
O245 Co237 2.055 . S
O245 C249 1.253 . S
H246 C242 0.931 . S
H247 C243 0.930 . S
O248 Co237 2.039 . S
O248 C238 1.265 1_556 S
C249 O245 1.253 . S
C249 O250 1.227 . S
O250 C249 1.227 . S
N251 Co237 2.140 . S
N251 C254 1.346 . S
N251 C255 1.345 . S
C252 C253 1.387 . S
C252 C256 1.391 . S
C253 C252 1.387 . S
C253 C254 1.369 . S
C253 H262 0.929 . S
C254 N251 1.346 . S
C254 C253 1.369 . S
C254 H257 0.928 . S
C255 N251 1.345 . S
C255 C256 1.371 . S
C255 H258 0.931 . S
C256 C252 1.391 . S
C256 C255 1.371 . S
C256 H263 0.930 . S
H257 C254 0.928 . S
H258 C255 0.931 . S
H259 C235 0.930 . S
H260 C232 0.930 . S
H261 C241 0.930 . S
H262 C253 0.929 . S
H263 C256 0.930 . S
C264 C265 1.351 . S
C264 N267 1.368 . S
C264 H269 0.931 . S
C265 C264 1.351 . S
C265 N266 1.373 . S
C265 H293 0.930 . S
N266 C265 1.373 . S
N266 C268 1.340 . S
N267 C264 1.368 . S
N267 C268 1.321 . S
N267 Co270 2.135 . S
C268 N266 1.340 . S
C268 N267 1.321 . S
C268 H292 0.930 . S
H269 C264 0.931 . S
Co270 N267 2.135 . S
Co270 N273 2.121 . S
Co270 O278 2.055 . S
Co270 O281 2.039 . S
Co270 N284 2.140 . S
C271 O272 1.227 . S
C271 O281 1.265 . S
O272 C271 1.227 . S
N273 Co270 2.121 . S
N273 C275 1.375 . S
N273 C276 1.313 . S
C274 C275 1.338 . S
C274 N277 1.377 . S
C274 H294 0.930 . S
C275 N273 1.375 . S
C275 C274 1.338 . S
C275 H279 0.931 . S
C276 N273 1.313 . S
C276 N277 1.344 . S
C276 H280 0.930 . S
N277 C274 1.377 . S
N277 C276 1.344 . S
O278 Co270 2.055 . S
O278 C282 1.253 . S
H279 C275 0.931 . S
H280 C276 0.930 . S
O281 Co270 2.039 . S
O281 C271 1.265 . S
C282 O278 1.253 . S
C282 O283 1.227 . S
O283 C282 1.227 . S
N284 Co270 2.140 . S
N284 C287 1.346 . S
N284 C288 1.345 . S
C285 C286 1.387 . S
C285 C289 1.391 . S
C286 C285 1.387 . S
C286 C287 1.369 . S
C286 H295 0.929 . S
C287 N284 1.346 . S
C287 C286 1.369 . S
C287 H290 0.928 . S
C288 N284 1.345 . S
C288 C289 1.371 . S
C288 H291 0.931 . S
C289 C285 1.391 . S
C289 C288 1.371 . S
C289 H296 0.930 . S
H290 C287 0.928 . S
H291 C288 0.931 . S
H292 C268 0.930 . S
H293 C265 0.930 . S
H294 C274 0.930 . S
H295 C286 0.929 . S
H296 C289 0.930 . S
C297 C298 1.351 . S
C297 N300 1.368 . S
C297 H302 0.931 . S
C298 C297 1.351 . S
C298 N299 1.373 . S
C298 H326 0.930 . S
N299 C298 1.373 . S
N299 C301 1.340 . S
N300 C297 1.368 . S
N300 C301 1.321 . S
N300 Co303 2.135 . S
C301 N299 1.340 . S
C301 N300 1.321 . S
C301 H325 0.930 . S
H302 C297 0.931 . S
Co303 N300 2.135 . S
Co303 N306 2.121 . S
Co303 O311 2.055 . S
Co303 O314 2.039 . S
Co303 N317 2.140 . S
C304 O305 1.227 . S
C304 O314 1.265 . S
O305 C304 1.227 . S
N306 Co303 2.121 . S
N306 C308 1.375 . S
N306 C309 1.313 . S
C307 C308 1.338 . S
C307 N310 1.377 . S
C307 H327 0.930 . S
C308 N306 1.375 . S
C308 C307 1.338 . S
C308 H312 0.931 . S
C309 N306 1.313 . S
C309 N310 1.344 . S
C309 H313 0.930 . S
N310 C307 1.377 . S
N310 C309 1.344 . S
O311 Co303 2.055 . S
O311 C315 1.253 . S
H312 C308 0.931 . S
H313 C309 0.930 . S
O314 Co303 2.039 . S
O314 C304 1.265 . S
C315 O311 1.253 . S
C315 O316 1.227 . S
O316 C315 1.227 . S
N317 Co303 2.140 . S
N317 C320 1.346 . S
N317 C321 1.345 . S
C318 C319 1.387 . S
C318 C322 1.391 . S
C319 C318 1.387 . S
C319 C320 1.369 . S
C319 H328 0.929 . S
C320 N317 1.346 . S
C320 C319 1.369 . S
C320 H323 0.928 . S
C321 N317 1.345 . S
C321 C322 1.371 . S
C321 H324 0.931 . S
C322 C318 1.391 . S
C322 C321 1.371 . S
C322 H329 0.930 . S
H323 C320 0.928 . S
H324 C321 0.931 . S
H325 C301 0.930 . S
H326 C298 0.930 . S
H327 C307 0.930 . S
H328 C319 0.929 . S
H329 C322 0.930 . S
C330 C331 1.351 . S
C330 N333 1.368 . S
C330 H335 0.931 . S
C331 C330 1.351 . S
C331 N332 1.373 . S
C331 H359 0.930 . S
N332 C331 1.373 . S
N332 C334 1.340 . S
N333 C330 1.368 . S
N333 C334 1.321 . S
N333 Co336 2.135 . S
C334 N332 1.340 . S
C334 N333 1.321 . S
C334 H358 0.930 . S
H335 C330 0.931 . S
Co336 N333 2.135 . S
Co336 N339 2.121 . S
Co336 O344 2.055 . S
Co336 O347 2.039 . S
Co336 N350 2.140 . S
C337 O338 1.227 . S
C337 O347 1.265 . S
O338 C337 1.227 . S
N339 Co336 2.121 . S
N339 C341 1.375 . S
N339 C342 1.313 . S
C340 C341 1.338 . S
C340 N343 1.377 . S
C340 H360 0.930 . S
C341 N339 1.375 . S
C341 C340 1.338 . S
C341 H345 0.931 . S
C342 N339 1.313 . S
C342 N343 1.344 . S
C342 H346 0.930 . S
N343 C340 1.377 . S
N343 C342 1.344 . S
O344 Co336 2.055 . S
O344 C348 1.253 . S
H345 C341 0.931 . S
H346 C342 0.930 . S
O347 Co336 2.039 . S
O347 C337 1.265 . S
C348 O344 1.253 . S
C348 O349 1.227 . S
O349 C348 1.227 . S
N350 Co336 2.140 . S
N350 C353 1.346 . S
N350 C354 1.345 . S
C351 C352 1.387 . S
C351 C355 1.391 . S
C352 C351 1.387 . S
C352 C353 1.369 . S
C352 H361 0.929 . S
C353 N350 1.346 . S
C353 C352 1.369 . S
C353 H356 0.928 . S
C354 N350 1.345 . S
C354 C355 1.371 . S
C354 H357 0.931 . S
C355 C351 1.391 . S
C355 C354 1.371 . S
C355 H362 0.930 . S
H356 C353 0.928 . S
H357 C354 0.931 . S
H358 C334 0.930 . S
H359 C331 0.930 . S
H360 C340 0.930 . S
H361 C352 0.929 . S
H362 C355 0.930 . S
C363 C364 1.351 . S
C363 N366 1.368 . S
C363 H368 0.931 . S
C364 C363 1.351 . S
C364 N365 1.373 . S
C364 H392 0.930 . S
N365 C364 1.373 . S
N365 C367 1.340 . S
N366 C363 1.368 . S
N366 C367 1.321 . S
N366 Co369 2.135 . S
C367 N365 1.340 . S
C367 N366 1.321 . S
C367 H391 0.930 . S
H368 C363 0.931 . S
Co369 N366 2.135 . S
Co369 N372 2.141 . S
Co369 O377 2.055 . S
Co369 O380 2.039 . S
Co369 N383 2.140 . S
C370 O371 1.227 . S
C370 O380 1.265 1_545 S
O371 C370 1.227 . S
N372 Co369 2.141 . S
N372 C374 1.350 1_565 S
N372 C375 1.315 . S
C373 C374 1.338 . S
C373 N376 1.377 . S
C373 H393 0.930 . S
C374 N372 1.350 1_545 S
C374 C373 1.338 . S
C374 H378 0.931 . S
C375 N372 1.315 . S
C375 N376 1.344 1_565 S
C375 H379 0.930 . S
N376 C373 1.377 . S
N376 C375 1.344 1_545 S
O377 Co369 2.055 . S
O377 C381 1.253 . S
H378 C374 0.931 . S
H379 C375 0.930 . S
O380 Co369 2.039 . S
O380 C370 1.265 1_565 S
C381 O377 1.253 . S
C381 O382 1.227 . S
O382 C381 1.227 . S
N383 Co369 2.140 . S
N383 C386 1.346 . S
N383 C387 1.345 . S
C384 C385 1.387 . S
C384 C388 1.391 . S
C385 C384 1.387 . S
C385 C386 1.369 . S
C385 H394 0.929 . S
C386 N383 1.346 . S
C386 C385 1.369 . S
C386 H389 0.928 . S
C387 N383 1.345 . S
C387 C388 1.371 . S
C387 H390 0.931 . S
C388 C384 1.391 . S
C388 C387 1.371 . S
C388 H395 0.930 . S
H389 C386 0.928 . S
H390 C387 0.931 . S
H391 C367 0.930 . S
H392 C364 0.930 . S
H393 C373 0.930 . S
H394 C385 0.929 . S
H395 C388 0.930 . S
C396 C397 1.351 . S
C396 N399 1.368 . S
C396 H401 0.931 . S
C397 C396 1.351 . S
C397 N398 1.373 . S
C397 H425 0.930 . S
N398 C397 1.373 . S
N398 C400 1.340 . S
N399 C396 1.368 . S
N399 C400 1.321 . S
N399 Co402 2.135 . S
C400 N398 1.340 . S
C400 N399 1.321 . S
C400 H424 0.930 . S
H401 C396 0.931 . S
Co402 N399 2.135 . S
Co402 N405 2.121 . S
Co402 O410 2.055 . S
Co402 O413 2.039 . S
Co402 N416 2.140 . S
C403 O404 1.227 . S
C403 O413 1.265 . S
O404 C403 1.227 . S
N405 Co402 2.121 . S
N405 C407 1.375 . S
N405 C408 1.313 . S
C406 C407 1.338 . S
C406 N409 1.377 . S
C406 H426 0.930 . S
C407 N405 1.375 . S
C407 C406 1.338 . S
C407 H411 0.931 . S
C408 N405 1.313 . S
C408 N409 1.344 . S
C408 H412 0.930 . S
N409 C406 1.377 . S
N409 C408 1.344 . S
O410 Co402 2.055 . S
O410 C414 1.253 . S
H411 C407 0.931 . S
H412 C408 0.930 . S
O413 Co402 2.039 . S
O413 C403 1.265 . S
C414 O410 1.253 . S
C414 O415 1.227 . S
O415 C414 1.227 . S
N416 Co402 2.140 . S
N416 C419 1.346 . S
N416 C420 1.345 . S
C417 C418 1.387 . S
C417 C421 1.391 . S
C418 C417 1.387 . S
C418 C419 1.369 . S
C418 H427 0.929 . S
C419 N416 1.346 . S
C419 C418 1.369 . S
C419 H422 0.928 . S
C420 N416 1.345 . S
C420 C421 1.371 . S
C420 H423 0.931 . S
C421 C417 1.391 . S
C421 C420 1.371 . S
C421 H428 0.930 . S
H422 C419 0.928 . S
H423 C420 0.931 . S
H424 C400 0.930 . S
H425 C397 0.930 . S
H426 C406 0.930 . S
H427 C418 0.929 . S
H428 C421 0.930 . S
C429 C430 1.351 . S
C429 N432 1.368 . S
C429 H434 0.931 . S
C430 C429 1.351 . S
C430 N431 1.373 . S
C430 H458 0.930 . S
N431 C430 1.373 . S
N431 C433 1.340 . S
N432 C429 1.368 . S
N432 C433 1.321 . S
N432 Co435 2.135 . S
C433 N431 1.340 . S
C433 N432 1.321 . S
C433 H457 0.930 . S
H434 C429 0.931 . S
Co435 N432 2.135 . S
Co435 N438 2.121 . S
Co435 O443 2.055 . S
Co435 O446 2.039 . S
Co435 N449 2.140 . S
C436 O437 1.227 . S
C436 O446 1.265 . S
O437 C436 1.227 . S
N438 Co435 2.121 . S
N438 C440 1.375 . S
N438 C441 1.313 . S
C439 C440 1.338 . S
C439 N442 1.377 . S
C439 H459 0.930 . S
C440 N438 1.375 . S
C440 C439 1.338 . S
C440 H444 0.931 . S
C441 N438 1.313 . S
C441 N442 1.344 . S
C441 H445 0.930 . S
N442 C439 1.377 . S
N442 C441 1.344 . S
O443 Co435 2.055 . S
O443 C447 1.253 . S
H444 C440 0.931 . S
H445 C441 0.930 . S
O446 Co435 2.039 . S
O446 C436 1.265 . S
C447 O443 1.253 . S
C447 O448 1.227 . S
O448 C447 1.227 . S
N449 Co435 2.140 . S
N449 C452 1.346 . S
N449 C453 1.345 . S
C450 C451 1.387 . S
C450 C454 1.391 . S
C451 C450 1.387 . S
C451 C452 1.369 . S
C451 H460 0.929 . S
C452 N449 1.346 . S
C452 C451 1.369 . S
C452 H455 0.928 . S
C453 N449 1.345 . S
C453 C454 1.371 . S
C453 H456 0.931 . S
C454 C450 1.391 . S
C454 C453 1.371 . S
C454 H461 0.930 . S
H455 C452 0.928 . S
H456 C453 0.931 . S
H457 C433 0.930 . S
H458 C430 0.930 . S
H459 C439 0.930 . S
H460 C451 0.929 . S
H461 C454 0.930 . S
C462 C463 1.351 . S
C462 N465 1.368 . S
C462 H467 0.931 . S
C463 C462 1.351 . S
C463 N464 1.373 . S
C463 H491 0.930 . S
N464 C463 1.373 . S
N464 C466 1.340 . S
N465 C462 1.368 . S
N465 C466 1.321 . S
N465 Co468 2.135 . S
C466 N464 1.340 . S
C466 N465 1.321 . S
C466 H490 0.930 . S
H467 C462 0.931 . S
Co468 N465 2.135 . S
Co468 N471 2.121 . S
Co468 O476 2.055 . S
Co468 O479 2.039 . S
Co468 N482 2.140 . S
C469 O470 1.227 . S
C469 O479 1.265 . S
O470 C469 1.227 . S
N471 Co468 2.121 . S
N471 C473 1.375 . S
N471 C474 1.313 . S
C472 C473 1.338 . S
C472 N475 1.377 . S
C472 H492 0.930 . S
C473 N471 1.375 . S
C473 C472 1.338 . S
C473 H477 0.931 . S
C474 N471 1.313 . S
C474 N475 1.344 . S
C474 H478 0.930 . S
N475 C472 1.377 . S
N475 C474 1.344 . S
O476 Co468 2.055 . S
O476 C480 1.253 . S
H477 C473 0.931 . S
H478 C474 0.930 . S
O479 Co468 2.039 . S
O479 C469 1.265 . S
C480 O476 1.253 . S
C480 O481 1.227 . S
O481 C480 1.227 . S
N482 Co468 2.140 . S
N482 C485 1.346 . S
N482 C486 1.345 . S
C483 C484 1.387 . S
C483 C487 1.391 . S
C484 C483 1.387 . S
C484 C485 1.369 . S
C484 H493 0.929 . S
C485 N482 1.346 . S
C485 C484 1.369 . S
C485 H488 0.928 . S
C486 N482 1.345 . S
C486 C487 1.371 . S
C486 H489 0.931 . S
C487 C483 1.391 . S
C487 C486 1.371 . S
C487 H494 0.930 . S
H488 C485 0.928 . S
H489 C486 0.931 . S
H490 C466 0.930 . S
H491 C463 0.930 . S
H492 C472 0.930 . S
H493 C484 0.929 . S
H494 C487 0.930 . S
C495 C496 1.351 . S
C495 N498 1.368 . S
C495 H500 0.931 . S
C496 C495 1.351 . S
C496 N497 1.373 . S
C496 H524 0.930 . S
N497 C496 1.373 . S
N497 C499 1.340 . S
N498 C495 1.368 . S
N498 C499 1.321 . S
N498 Co501 2.135 . S
C499 N497 1.340 . S
C499 N498 1.321 . S
C499 H523 0.930 . S
H500 C495 0.931 . S
Co501 N498 2.135 . S
Co501 N504 2.141 . S
Co501 O509 2.055 . S
Co501 O512 2.039 . S
Co501 N515 2.140 . S
C502 O503 1.227 . S
C502 O512 1.265 1_545 S
O503 C502 1.227 . S
N504 Co501 2.141 . S
N504 C506 1.350 1_565 S
N504 C507 1.315 . S
C505 C506 1.338 . S
C505 N508 1.377 . S
C505 H525 0.930 . S
C506 N504 1.350 1_545 S
C506 C505 1.338 . S
C506 H510 0.931 . S
C507 N504 1.315 . S
C507 N508 1.344 1_565 S
C507 H511 0.930 . S
N508 C505 1.377 . S
N508 C507 1.344 1_545 S
O509 Co501 2.055 . S
O509 C513 1.253 . S
H510 C506 0.931 . S
H511 C507 0.930 . S
O512 Co501 2.039 . S
O512 C502 1.265 1_565 S
C513 O509 1.253 . S
C513 O514 1.227 . S
O514 C513 1.227 . S
N515 Co501 2.140 . S
N515 C518 1.346 . S
N515 C519 1.345 . S
C516 C517 1.387 . S
C516 C520 1.391 . S
C517 C516 1.387 . S
C517 C518 1.369 . S
C517 H526 0.929 . S
C518 N515 1.346 . S
C518 C517 1.369 . S
C518 H521 0.928 . S
C519 N515 1.345 . S
C519 C520 1.371 . S
C519 H522 0.931 . S
C520 C516 1.391 . S
C520 C519 1.371 . S
C520 H527 0.930 . S
H521 C518 0.928 . S
H522 C519 0.931 . S
H523 C499 0.930 . S
H524 C496 0.930 . S
H525 C505 0.930 . S
H526 C517 0.929 . S
H527 C520 0.930 . S
C528 C529 1.351 . S
C528 N531 1.368 . S
C528 H533 0.931 . S
C529 C528 1.351 . S
C529 N530 1.373 . S
C529 H557 0.930 . S
N530 C529 1.373 . S
N530 C532 1.340 . S
N531 C528 1.368 . S
N531 C532 1.321 . S
N531 Co534 2.135 . S
C532 N530 1.340 . S
C532 N531 1.321 . S
C532 H556 0.930 . S
H533 C528 0.931 . S
Co534 N531 2.135 . S
Co534 N537 2.121 . S
Co534 O542 2.055 . S
Co534 O545 2.039 . S
Co534 N548 2.140 . S
C535 O536 1.227 . S
C535 O545 1.265 . S
O536 C535 1.227 . S
N537 Co534 2.121 . S
N537 C539 1.375 . S
N537 C540 1.313 . S
C538 C539 1.338 . S
C538 N541 1.377 . S
C538 H558 0.930 . S
C539 N537 1.375 . S
C539 C538 1.338 . S
C539 H543 0.931 . S
C540 N537 1.313 . S
C540 N541 1.344 . S
C540 H544 0.930 . S
N541 C538 1.377 . S
N541 C540 1.344 . S
O542 Co534 2.055 . S
O542 C546 1.253 . S
H543 C539 0.931 . S
H544 C540 0.930 . S
O545 Co534 2.039 . S
O545 C535 1.265 . S
C546 O542 1.253 . S
C546 O547 1.227 . S
O547 C546 1.227 . S
N548 Co534 2.140 . S
N548 C551 1.346 . S
N548 C552 1.345 . S
C549 C550 1.387 . S
C549 C553 1.391 . S
C550 C549 1.387 . S
C550 C551 1.369 . S
C550 H559 0.929 . S
C551 N548 1.346 . S
C551 C550 1.369 . S
C551 H554 0.928 . S
C552 N548 1.345 . S
C552 C553 1.371 . S
C552 H555 0.931 . S
C553 C549 1.391 . S
C553 C552 1.371 . S
C553 H560 0.930 . S
H554 C551 0.928 . S
H555 C552 0.931 . S
H556 C532 0.930 . S
H557 C529 0.930 . S
H558 C538 0.930 . S
H559 C550 0.929 . S
H560 C553 0.930 . S
C561 C562 1.351 . S
C561 N564 1.368 . S
C561 H566 0.931 . S
C562 C561 1.351 . S
C562 N563 1.373 . S
C562 H590 0.930 . S
N563 C562 1.373 . S
N563 C565 1.340 . S
N564 C561 1.368 . S
N564 C565 1.321 . S
N564 Co567 2.135 . S
C565 N563 1.340 . S
C565 N564 1.321 . S
C565 H589 0.930 . S
H566 C561 0.931 . S
Co567 N564 2.135 . S
Co567 N570 2.121 . S
Co567 O575 2.055 . S
Co567 O578 2.039 . S
Co567 N581 2.140 . S
C568 O569 1.227 . S
C568 O578 1.265 . S
O569 C568 1.227 . S
N570 Co567 2.121 . S
N570 C572 1.375 . S
N570 C573 1.313 . S
C571 C572 1.338 . S
C571 N574 1.377 . S
C571 H591 0.930 . S
C572 N570 1.375 . S
C572 C571 1.338 . S
C572 H576 0.931 . S
C573 N570 1.313 . S
C573 N574 1.344 . S
C573 H577 0.930 . S
N574 C571 1.377 . S
N574 C573 1.344 . S
O575 Co567 2.055 . S
O575 C579 1.253 . S
H576 C572 0.931 . S
H577 C573 0.930 . S
O578 Co567 2.039 . S
O578 C568 1.265 . S
C579 O575 1.253 . S
C579 O580 1.227 . S
O580 C579 1.227 . S
N581 Co567 2.140 . S
N581 C584 1.346 . S
N581 C585 1.345 . S
C582 C583 1.387 . S
C582 C586 1.391 . S
C583 C582 1.387 . S
C583 C584 1.369 . S
C583 H592 0.929 . S
C584 N581 1.346 . S
C584 C583 1.369 . S
C584 H587 0.928 . S
C585 N581 1.345 . S
C585 C586 1.371 . S
C585 H588 0.931 . S
C586 C582 1.391 . S
C586 C585 1.371 . S
C586 H593 0.930 . S
H587 C584 0.928 . S
H588 C585 0.931 . S
H589 C565 0.930 . S
H590 C562 0.930 . S
H591 C571 0.930 . S
H592 C583 0.929 . S
H593 C586 0.930 . S
C594 C595 1.351 . S
C594 N597 1.368 . S
C594 H599 0.931 . S
C595 C594 1.351 . S
C595 N596 1.373 . S
C595 H623 0.930 . S
N596 C595 1.373 . S
N596 C598 1.340 . S
N597 C594 1.368 . S
N597 C598 1.321 . S
N597 Co600 2.135 . S
C598 N596 1.340 . S
C598 N597 1.321 . S
C598 H622 0.930 . S
H599 C594 0.931 . S
Co600 N597 2.135 . S
Co600 N603 2.141 . S
Co600 O608 2.055 . S
Co600 O611 2.039 . S
Co600 N614 2.140 . S
C601 O602 1.227 . S
C601 O611 1.265 1_655 S
O602 C601 1.227 . S
N603 Co600 2.141 . S
N603 C605 1.350 1_455 S
N603 C606 1.315 . S
C604 C605 1.338 . S
C604 N607 1.377 . S
C604 H624 0.930 . S
C605 N603 1.350 1_655 S
C605 C604 1.338 . S
C605 H609 0.931 . S
C606 N603 1.315 . S
C606 N607 1.344 1_455 S
C606 H610 0.930 . S
N607 C604 1.377 . S
N607 C606 1.344 1_655 S
O608 Co600 2.055 . S
O608 C612 1.253 . S
H609 C605 0.931 . S
H610 C606 0.930 . S
O611 Co600 2.039 . S
O611 C601 1.265 1_455 S
C612 O608 1.253 . S
C612 O613 1.227 . S
O613 C612 1.227 . S
N614 Co600 2.140 . S
N614 C617 1.346 . S
N614 C618 1.345 . S
C615 C616 1.387 . S
C615 C619 1.391 . S
C616 C615 1.387 . S
C616 C617 1.369 . S
C616 H625 0.929 . S
C617 N614 1.346 . S
C617 C616 1.369 . S
C617 H620 0.928 . S
C618 N614 1.345 . S
C618 C619 1.371 . S
C618 H621 0.931 . S
C619 C615 1.391 . S
C619 C618 1.371 . S
C619 H626 0.930 . S
H620 C617 0.928 . S
H621 C618 0.931 . S
H622 C598 0.930 . S
H623 C595 0.930 . S
H624 C604 0.930 . S
H625 C616 0.929 . S
H626 C619 0.930 . S
C627 C628 1.351 . S
C627 N630 1.368 . S
C627 H632 0.931 . S
C628 C627 1.351 . S
C628 N629 1.373 . S
C628 H656 0.930 . S
N629 C628 1.373 . S
N629 C631 1.340 . S
N630 C627 1.368 . S
N630 C631 1.321 . S
N630 Co633 2.135 . S
C631 N629 1.340 . S
C631 N630 1.321 . S
C631 H655 0.930 . S
H632 C627 0.931 . S
Co633 N630 2.135 . S
Co633 N636 2.121 . S
Co633 O641 2.055 . S
Co633 O644 2.039 . S
Co633 N647 2.140 . S
C634 O635 1.227 . S
C634 O644 1.265 . S
O635 C634 1.227 . S
N636 Co633 2.121 . S
N636 C638 1.375 . S
N636 C639 1.313 . S
C637 C638 1.338 . S
C637 N640 1.377 . S
C637 H657 0.930 . S
C638 N636 1.375 . S
C638 C637 1.338 . S
C638 H642 0.931 . S
C639 N636 1.313 . S
C639 N640 1.344 . S
C639 H643 0.930 . S
N640 C637 1.377 . S
N640 C639 1.344 . S
O641 Co633 2.055 . S
O641 C645 1.253 . S
H642 C638 0.931 . S
H643 C639 0.930 . S
O644 Co633 2.039 . S
O644 C634 1.265 . S
C645 O641 1.253 . S
C645 O646 1.227 . S
O646 C645 1.227 . S
N647 Co633 2.140 . S
N647 C650 1.346 . S
N647 C651 1.345 . S
C648 C649 1.387 . S
C648 C652 1.391 . S
C649 C648 1.387 . S
C649 C650 1.369 . S
C649 H658 0.929 . S
C650 N647 1.346 . S
C650 C649 1.369 . S
C650 H653 0.928 . S
C651 N647 1.345 . S
C651 C652 1.371 . S
C651 H654 0.931 . S
C652 C648 1.391 . S
C652 C651 1.371 . S
C652 H659 0.930 . S
H653 C650 0.928 . S
H654 C651 0.931 . S
H655 C631 0.930 . S
H656 C628 0.930 . S
H657 C637 0.930 . S
H658 C649 0.929 . S
H659 C652 0.930 . S
C660 C661 1.351 . S
C660 N663 1.368 . S
C660 H665 0.931 . S
C661 C660 1.351 . S
C661 N662 1.373 . S
C661 H689 0.930 . S
N662 C661 1.373 . S
N662 C664 1.340 . S
N663 C660 1.368 . S
N663 C664 1.321 . S
N663 Co666 2.135 . S
C664 N662 1.340 . S
C664 N663 1.321 . S
C664 H688 0.930 . S
H665 C660 0.931 . S
Co666 N663 2.135 . S
Co666 N669 2.121 . S
Co666 O674 2.055 . S
Co666 O677 2.039 . S
Co666 N680 2.140 . S
C667 O668 1.227 . S
C667 O677 1.265 . S
O668 C667 1.227 . S
N669 Co666 2.121 . S
N669 C671 1.375 . S
N669 C672 1.313 . S
C670 C671 1.338 . S
C670 N673 1.377 . S
C670 H690 0.930 . S
C671 N669 1.375 . S
C671 C670 1.338 . S
C671 H675 0.931 . S
C672 N669 1.313 . S
C672 N673 1.344 . S
C672 H676 0.930 . S
N673 C670 1.377 . S
N673 C672 1.344 . S
O674 Co666 2.055 . S
O674 C678 1.253 . S
H675 C671 0.931 . S
H676 C672 0.930 . S
O677 Co666 2.039 . S
O677 C667 1.265 . S
C678 O674 1.253 . S
C678 O679 1.227 . S
O679 C678 1.227 . S
N680 Co666 2.140 . S
N680 C683 1.346 . S
N680 C684 1.345 . S
C681 C682 1.387 . S
C681 C685 1.391 . S
C682 C681 1.387 . S
C682 C683 1.369 . S
C682 H691 0.929 . S
C683 N680 1.346 . S
C683 C682 1.369 . S
C683 H686 0.928 . S
C684 N680 1.345 . S
C684 C685 1.371 . S
C684 H687 0.931 . S
C685 C681 1.391 . S
C685 C684 1.371 . S
C685 H692 0.930 . S
H686 C683 0.928 . S
H687 C684 0.931 . S
H688 C664 0.930 . S
H689 C661 0.930 . S
H690 C670 0.930 . S
H691 C682 0.929 . S
H692 C685 0.930 . S
C693 C694 1.351 . S
C693 N696 1.368 . S
C693 H698 0.931 . S
C694 C693 1.351 . S
C694 N695 1.373 . S
C694 H722 0.930 . S
N695 C694 1.373 . S
N695 C697 1.340 . S
N696 C693 1.368 . S
N696 C697 1.321 . S
N696 Co699 2.135 . S
C697 N695 1.340 . S
C697 N696 1.321 . S
C697 H721 0.930 . S
H698 C693 0.931 . S
Co699 N696 2.135 . S
Co699 N702 2.121 . S
Co699 O707 2.055 . S
Co699 O710 2.039 . S
Co699 N713 2.140 . S
C700 O701 1.227 . S
C700 O710 1.265 . S
O701 C700 1.227 . S
N702 Co699 2.121 . S
N702 C704 1.375 . S
N702 C705 1.313 . S
C703 C704 1.338 . S
C703 N706 1.377 . S
C703 H723 0.930 . S
C704 N702 1.375 . S
C704 C703 1.338 . S
C704 H708 0.931 . S
C705 N702 1.313 . S
C705 N706 1.344 . S
C705 H709 0.930 . S
N706 C703 1.377 . S
N706 C705 1.344 . S
O707 Co699 2.055 . S
O707 C711 1.253 . S
H708 C704 0.931 . S
H709 C705 0.930 . S
O710 Co699 2.039 . S
O710 C700 1.265 . S
C711 O707 1.253 . S
C711 O712 1.227 . S
O712 C711 1.227 . S
N713 Co699 2.140 . S
N713 C716 1.346 . S
N713 C717 1.345 . S
C714 C715 1.387 . S
C714 C718 1.391 . S
C715 C714 1.387 . S
C715 C716 1.369 . S
C715 H724 0.929 . S
C716 N713 1.346 . S
C716 C715 1.369 . S
C716 H719 0.928 . S
C717 N713 1.345 . S
C717 C718 1.371 . S
C717 H720 0.931 . S
C718 C714 1.391 . S
C718 C717 1.371 . S
C718 H725 0.930 . S
H719 C716 0.928 . S
H720 C717 0.931 . S
H721 C697 0.930 . S
H722 C694 0.930 . S
H723 C703 0.930 . S
H724 C715 0.929 . S
H725 C718 0.930 . S
C726 C727 1.351 . S
C726 N729 1.368 . S
C726 H731 0.931 . S
C727 C726 1.351 . S
C727 N728 1.373 . S
C727 H755 0.930 . S
N728 C727 1.373 . S
N728 C730 1.340 . S
N729 C726 1.368 . S
N729 C730 1.321 . S
N729 Co732 2.135 . S
C730 N728 1.340 . S
C730 N729 1.321 . S
C730 H754 0.930 . S
H731 C726 0.931 . S
Co732 N729 2.135 . S
Co732 N735 2.141 . S
Co732 O740 2.055 . S
Co732 O743 2.039 . S
Co732 N746 2.140 . S
C733 O734 1.227 . S
C733 O743 1.265 1_655 S
O734 C733 1.227 . S
N735 Co732 2.141 . S
N735 C737 1.350 1_455 S
N735 C738 1.315 . S
C736 C737 1.338 . S
C736 N739 1.377 . S
C736 H756 0.930 . S
C737 N735 1.350 1_655 S
C737 C736 1.338 . S
C737 H741 0.931 . S
C738 N735 1.315 . S
C738 N739 1.344 1_455 S
C738 H742 0.930 . S
N739 C736 1.377 . S
N739 C738 1.344 1_655 S
O740 Co732 2.055 . S
O740 C744 1.253 . S
H741 C737 0.931 . S
H742 C738 0.930 . S
O743 Co732 2.039 . S
O743 C733 1.265 1_455 S
C744 O740 1.253 . S
C744 O745 1.227 . S
O745 C744 1.227 . S
N746 Co732 2.140 . S
N746 C749 1.346 . S
N746 C750 1.345 . S
C747 C748 1.387 . S
C747 C751 1.391 . S
C748 C747 1.387 . S
C748 C749 1.369 . S
C748 H757 0.929 . S
C749 N746 1.346 . S
C749 C748 1.369 . S
C749 H752 0.928 . S
C750 N746 1.345 . S
C750 C751 1.371 . S
C750 H753 0.931 . S
C751 C747 1.391 . S
C751 C750 1.371 . S
C751 H758 0.930 . S
H752 C749 0.928 . S
H753 C750 0.931 . S
H754 C730 0.930 . S
H755 C727 0.930 . S
H756 C736 0.930 . S
H757 C748 0.929 . S
H758 C751 0.930 . S
C759 C760 1.351 . S
C759 N762 1.368 . S
C759 H764 0.931 . S
C760 C759 1.351 . S
C760 N761 1.373 . S
C760 H788 0.930 . S
N761 C760 1.373 . S
N761 C763 1.340 . S
N762 C759 1.368 . S
N762 C763 1.321 . S
N762 Co765 2.135 . S
C763 N761 1.340 . S
C763 N762 1.321 . S
C763 H787 0.930 . S
H764 C759 0.931 . S
Co765 N762 2.135 . S
Co765 N768 2.141 . S
Co765 O773 2.055 . S
Co765 O776 2.039 . S
Co765 N779 2.140 . S
C766 O767 1.227 . S
C766 O776 1.265 1_455 S
O767 C766 1.227 . S
N768 Co765 2.141 . S
N768 C770 1.350 1_655 S
N768 C771 1.315 . S
C769 C770 1.338 . S
C769 N772 1.377 . S
C769 H789 0.930 . S
C770 N768 1.350 1_455 S
C770 C769 1.338 . S
C770 H774 0.931 . S
C771 N768 1.315 . S
C771 N772 1.344 1_655 S
C771 H775 0.930 . S
N772 C769 1.377 . S
N772 C771 1.344 1_455 S
O773 Co765 2.055 . S
O773 C777 1.253 . S
H774 C770 0.931 . S
H775 C771 0.930 . S
O776 Co765 2.039 . S
O776 C766 1.265 1_655 S
C777 O773 1.253 . S
C777 O778 1.227 . S
O778 C777 1.227 . S
N779 Co765 2.140 . S
N779 C782 1.346 . S
N779 C783 1.345 . S
C780 C781 1.387 . S
C780 C784 1.391 . S
C781 C780 1.387 . S
C781 C782 1.369 . S
C781 H790 0.929 . S
C782 N779 1.346 . S
C782 C781 1.369 . S
C782 H785 0.928 . S
C783 N779 1.345 . S
C783 C784 1.371 . S
C783 H786 0.931 . S
C784 C780 1.391 . S
C784 C783 1.371 . S
C784 H791 0.930 . S
H785 C782 0.928 . S
H786 C783 0.931 . S
H787 C763 0.930 . S
H788 C760 0.930 . S
H789 C769 0.930 . S
H790 C781 0.929 . S
H791 C784 0.930 . S
C792 C793 1.351 . S
C792 N795 1.368 . S
C792 H797 0.931 . S
C793 C792 1.351 . S
C793 N794 1.373 . S
C793 H821 0.930 . S
N794 C793 1.373 . S
N794 C796 1.340 . S
N795 C792 1.368 . S
N795 C796 1.321 . S
N795 Co798 2.135 . S
C796 N794 1.340 . S
C796 N795 1.321 . S
C796 H820 0.930 . S
H797 C792 0.931 . S
Co798 N795 2.135 . S
Co798 N801 2.121 . S
Co798 O806 2.055 . S
Co798 O809 2.039 . S
Co798 N812 2.140 . S
C799 O800 1.227 . S
C799 O809 1.265 . S
O800 C799 1.227 . S
N801 Co798 2.121 . S
N801 C803 1.375 . S
N801 C804 1.313 . S
C802 C803 1.338 . S
C802 N805 1.377 . S
C802 H822 0.930 . S
C803 N801 1.375 . S
C803 C802 1.338 . S
C803 H807 0.931 . S
C804 N801 1.313 . S
C804 N805 1.344 . S
C804 H808 0.930 . S
N805 C802 1.377 . S
N805 C804 1.344 . S
O806 Co798 2.055 . S
O806 C810 1.253 . S
H807 C803 0.931 . S
H808 C804 0.930 . S
O809 Co798 2.039 . S
O809 C799 1.265 . S
C810 O806 1.253 . S
C810 O811 1.227 . S
O811 C810 1.227 . S
N812 Co798 2.140 . S
N812 C815 1.346 . S
N812 C816 1.345 . S
C813 C814 1.387 . S
C813 C817 1.391 . S
C814 C813 1.387 . S
C814 C815 1.369 . S
C814 H823 0.929 . S
C815 N812 1.346 . S
C815 C814 1.369 . S
C815 H818 0.928 . S
C816 N812 1.345 . S
C816 C817 1.371 . S
C816 H819 0.931 . S
C817 C813 1.391 . S
C817 C816 1.371 . S
C817 H824 0.930 . S
H818 C815 0.928 . S
H819 C816 0.931 . S
H820 C796 0.930 . S
H821 C793 0.930 . S
H822 C802 0.930 . S
H823 C814 0.929 . S
H824 C817 0.930 . S
C825 C826 1.351 . S
C825 N828 1.368 . S
C825 H830 0.931 . S
C826 C825 1.351 . S
C826 N827 1.373 . S
C826 H854 0.930 . S
N827 C826 1.373 . S
N827 C829 1.340 . S
N828 C825 1.368 . S
N828 C829 1.321 . S
N828 Co831 2.135 . S
C829 N827 1.340 . S
C829 N828 1.321 . S
C829 H853 0.930 . S
H830 C825 0.931 . S
Co831 N828 2.135 . S
Co831 N834 2.121 . S
Co831 O839 2.055 . S
Co831 O842 2.039 . S
Co831 N845 2.140 . S
C832 O833 1.227 . S
C832 O842 1.265 . S
O833 C832 1.227 . S
N834 Co831 2.121 . S
N834 C836 1.375 . S
N834 C837 1.313 . S
C835 C836 1.338 . S
C835 N838 1.377 . S
C835 H855 0.930 . S
C836 N834 1.375 . S
C836 C835 1.338 . S
C836 H840 0.931 . S
C837 N834 1.313 . S
C837 N838 1.344 . S
C837 H841 0.930 . S
N838 C835 1.377 . S
N838 C837 1.344 . S
O839 Co831 2.055 . S
O839 C843 1.253 . S
H840 C836 0.931 . S
H841 C837 0.930 . S
O842 Co831 2.039 . S
O842 C832 1.265 . S
C843 O839 1.253 . S
C843 O844 1.227 . S
O844 C843 1.227 . S
N845 Co831 2.140 . S
N845 C848 1.346 . S
N845 C849 1.345 . S
C846 C847 1.387 . S
C846 C850 1.391 . S
C847 C846 1.387 . S
C847 C848 1.369 . S
C847 H856 0.929 . S
C848 N845 1.346 . S
C848 C847 1.369 . S
C848 H851 0.928 . S
C849 N845 1.345 . S
C849 C850 1.371 . S
C849 H852 0.931 . S
C850 C846 1.391 . S
C850 C849 1.371 . S
C850 H857 0.930 . S
H851 C848 0.928 . S
H852 C849 0.931 . S
H853 C829 0.930 . S
H854 C826 0.930 . S
H855 C835 0.930 . S
H856 C847 0.929 . S
H857 C850 0.930 . S
C858 C859 1.351 . S
C858 N861 1.368 . S
C858 H863 0.931 . S
C859 C858 1.351 . S
C859 N860 1.373 . S
C859 H887 0.930 . S
N860 C859 1.373 . S
N860 C862 1.340 . S
N861 C858 1.368 . S
N861 C862 1.321 . S
N861 Co864 2.135 . S
C862 N860 1.340 . S
C862 N861 1.321 . S
C862 H886 0.930 . S
H863 C858 0.931 . S
Co864 N861 2.135 . S
Co864 N867 2.121 . S
Co864 O872 2.055 . S
Co864 O875 2.039 . S
Co864 N878 2.140 . S
C865 O866 1.227 . S
C865 O875 1.265 . S
O866 C865 1.227 . S
N867 Co864 2.121 . S
N867 C869 1.375 . S
N867 C870 1.313 . S
C868 C869 1.338 . S
C868 N871 1.377 . S
C868 H888 0.930 . S
C869 N867 1.375 . S
C869 C868 1.338 . S
C869 H873 0.931 . S
C870 N867 1.313 . S
C870 N871 1.344 . S
C870 H874 0.930 . S
N871 C868 1.377 . S
N871 C870 1.344 . S
O872 Co864 2.055 . S
O872 C876 1.253 . S
H873 C869 0.931 . S
H874 C870 0.930 . S
O875 Co864 2.039 . S
O875 C865 1.265 . S
C876 O872 1.253 . S
C876 O877 1.227 . S
O877 C876 1.227 . S
N878 Co864 2.140 . S
N878 C881 1.346 . S
N878 C882 1.345 . S
C879 C880 1.387 . S
C879 C883 1.391 . S
C880 C879 1.387 . S
C880 C881 1.369 . S
C880 H889 0.929 . S
C881 N878 1.346 . S
C881 C880 1.369 . S
C881 H884 0.928 . S
C882 N878 1.345 . S
C882 C883 1.371 . S
C882 H885 0.931 . S
C883 C879 1.391 . S
C883 C882 1.371 . S
C883 H890 0.930 . S
H884 C881 0.928 . S
H885 C882 0.931 . S
H886 C862 0.930 . S
H887 C859 0.930 . S
H888 C868 0.930 . S
H889 C880 0.929 . S
H890 C883 0.930 . S
C891 C892 1.351 . S
C891 N894 1.368 . S
C891 H896 0.931 . S
C892 C891 1.351 . S
C892 N893 1.373 . S
C892 H920 0.930 . S
N893 C892 1.373 . S
N893 C895 1.340 . S
N894 C891 1.368 . S
N894 C895 1.321 . S
N894 Co897 2.135 . S
C895 N893 1.340 . S
C895 N894 1.321 . S
C895 H919 0.930 . S
H896 C891 0.931 . S
Co897 N894 2.135 . S
Co897 N900 2.121 . S
Co897 O905 2.055 . S
Co897 O908 2.039 . S
Co897 N911 2.140 . S
C898 O899 1.227 . S
C898 O908 1.265 . S
O899 C898 1.227 . S
N900 Co897 2.121 . S
N900 C902 1.375 . S
N900 C903 1.313 . S
C901 C902 1.338 . S
C901 N904 1.377 . S
C901 H921 0.930 . S
C902 N900 1.375 . S
C902 C901 1.338 . S
C902 H906 0.931 . S
C903 N900 1.313 . S
C903 N904 1.344 . S
C903 H907 0.930 . S
N904 C901 1.377 . S
N904 C903 1.344 . S
O905 Co897 2.055 . S
O905 C909 1.253 . S
H906 C902 0.931 . S
H907 C903 0.930 . S
O908 Co897 2.039 . S
O908 C898 1.265 . S
C909 O905 1.253 . S
C909 O910 1.227 . S
O910 C909 1.227 . S
N911 Co897 2.140 . S
N911 C914 1.346 . S
N911 C915 1.345 . S
C912 C913 1.387 . S
C912 C916 1.391 . S
C913 C912 1.387 . S
C913 C914 1.369 . S
C913 H922 0.929 . S
C914 N911 1.346 . S
C914 C913 1.369 . S
C914 H917 0.928 . S
C915 N911 1.345 . S
C915 C916 1.371 . S
C915 H918 0.931 . S
C916 C912 1.391 . S
C916 C915 1.371 . S
C916 H923 0.930 . S
H917 C914 0.928 . S
H918 C915 0.931 . S
H919 C895 0.930 . S
H920 C892 0.930 . S
H921 C901 0.930 . S
H922 C913 0.929 . S
H923 C916 0.930 . S
C924 C925 1.351 . S
C924 N927 1.368 . S
C924 H929 0.931 . S
C925 C924 1.351 . S
C925 N926 1.373 . S
C925 H953 0.930 . S
N926 C925 1.373 . S
N926 C928 1.340 . S
N927 C924 1.368 . S
N927 C928 1.321 . S
N927 Co930 2.135 . S
C928 N926 1.340 . S
C928 N927 1.321 . S
C928 H952 0.930 . S
H929 C924 0.931 . S
Co930 N927 2.135 . S
Co930 N933 2.121 . S
Co930 O938 2.055 . S
Co930 O941 2.039 . S
Co930 N944 2.140 . S
C931 O932 1.227 . S
C931 O941 1.265 . S
O932 C931 1.227 . S
N933 Co930 2.121 . S
N933 C935 1.375 . S
N933 C936 1.313 . S
C934 C935 1.338 . S
C934 N937 1.377 . S
C934 H954 0.930 . S
C935 N933 1.375 . S
C935 C934 1.338 . S
C935 H939 0.931 . S
C936 N933 1.313 . S
C936 N937 1.344 . S
C936 H940 0.930 . S
N937 C934 1.377 . S
N937 C936 1.344 . S
O938 Co930 2.055 . S
O938 C942 1.253 . S
H939 C935 0.931 . S
H940 C936 0.930 . S
O941 Co930 2.039 . S
O941 C931 1.265 . S
C942 O938 1.253 . S
C942 O943 1.227 . S
O943 C942 1.227 . S
N944 Co930 2.140 . S
N944 C947 1.346 . S
N944 C948 1.345 . S
C945 C946 1.387 . S
C945 C949 1.391 . S
C946 C945 1.387 . S
C946 C947 1.369 . S
C946 H955 0.929 . S
C947 N944 1.346 . S
C947 C946 1.369 . S
C947 H950 0.928 . S
C948 N944 1.345 . S
C948 C949 1.371 . S
C948 H951 0.931 . S
C949 C945 1.391 . S
C949 C948 1.371 . S
C949 H956 0.930 . S
H950 C947 0.928 . S
H951 C948 0.931 . S
H952 C928 0.930 . S
H953 C925 0.930 . S
H954 C934 0.930 . S
H955 C946 0.929 . S
H956 C949 0.930 . S
C957 C958 1.351 . S
C957 N960 1.368 . S
C957 H962 0.931 . S
C958 C957 1.351 . S
C958 N959 1.373 . S
C958 H986 0.930 . S
N959 C958 1.373 . S
N959 C961 1.340 . S
N960 C957 1.368 . S
N960 C961 1.321 . S
N960 Co963 2.135 . S
C961 N959 1.340 . S
C961 N960 1.321 . S
C961 H985 0.930 . S
H962 C957 0.931 . S
Co963 N960 2.135 . S
Co963 N966 2.121 . S
Co963 O971 2.055 . S
Co963 O974 2.039 . S
Co963 N977 2.140 . S
C964 O965 1.227 . S
C964 O974 1.265 . S
O965 C964 1.227 . S
N966 Co963 2.121 . S
N966 C968 1.375 . S
N966 C969 1.313 . S
C967 C968 1.338 . S
C967 N970 1.377 . S
C967 H987 0.930 . S
C968 N966 1.375 . S
C968 C967 1.338 . S
C968 H972 0.931 . S
C969 N966 1.313 . S
C969 N970 1.344 . S
C969 H973 0.930 . S
N970 C967 1.377 . S
N970 C969 1.344 . S
O971 Co963 2.055 . S
O971 C975 1.253 . S
H972 C968 0.931 . S
H973 C969 0.930 . S
O974 Co963 2.039 . S
O974 C964 1.265 . S
C975 O971 1.253 . S
C975 O976 1.227 . S
O976 C975 1.227 . S
N977 Co963 2.140 . S
N977 C980 1.346 . S
N977 C981 1.345 . S
C978 C979 1.387 . S
C978 C982 1.391 . S
C979 C978 1.387 . S
C979 C980 1.369 . S
C979 H988 0.929 . S
C980 N977 1.346 . S
C980 C979 1.369 . S
C980 H983 0.928 . S
C981 N977 1.345 . S
C981 C982 1.371 . S
C981 H984 0.931 . S
C982 C978 1.391 . S
C982 C981 1.371 . S
C982 H989 0.930 . S
H983 C980 0.928 . S
H984 C981 0.931 . S
H985 C961 0.930 . S
H986 C958 0.930 . S
H987 C967 0.930 . S
H988 C979 0.929 . S
H989 C982 0.930 . S
C990 C991 1.351 . S
C990 N993 1.368 . S
C990 H995 0.931 . S
C991 C990 1.351 . S
C991 N992 1.373 . S
C991 H1019 0.930 . S
N992 C991 1.373 . S
N992 C994 1.340 . S
N993 C990 1.368 . S
N993 C994 1.321 . S
N993 Co996 2.135 . S
C994 N992 1.340 . S
C994 N993 1.321 . S
C994 H1018 0.930 . S
H995 C990 0.931 . S
Co996 N993 2.135 . S
Co996 N999 2.121 . S
Co996 O1004 2.055 . S
Co996 O1007 2.039 . S
Co996 N1010 2.140 . S
C997 O998 1.227 . S
C997 O1007 1.265 . S
O998 C997 1.227 . S
N999 Co996 2.121 . S
N999 C1001 1.375 . S
N999 C1002 1.313 . S
C1000 C1001 1.338 . S
C1000 N1003 1.377 . S
C1000 H1020 0.930 . S
C1001 N999 1.375 . S
C1001 C1000 1.338 . S
C1001 H1005 0.931 . S
C1002 N999 1.313 . S
C1002 N1003 1.344 . S
C1002 H1006 0.930 . S
N1003 C1000 1.377 . S
N1003 C1002 1.344 . S
O1004 Co996 2.055 . S
O1004 C1008 1.253 . S
H1005 C1001 0.931 . S
H1006 C1002 0.930 . S
O1007 Co996 2.039 . S
O1007 C997 1.265 . S
C1008 O1004 1.253 . S
C1008 O1009 1.227 . S
O1009 C1008 1.227 . S
N1010 Co996 2.140 . S
N1010 C1013 1.346 . S
N1010 C1014 1.345 . S
C1011 C1012 1.387 . S
C1011 C1015 1.391 . S
C1012 C1011 1.387 . S
C1012 C1013 1.369 . S
C1012 H1021 0.929 . S
C1013 N1010 1.346 . S
C1013 C1012 1.369 . S
C1013 H1016 0.928 . S
C1014 N1010 1.345 . S
C1014 C1015 1.371 . S
C1014 H1017 0.931 . S
C1015 C1011 1.391 . S
C1015 C1014 1.371 . S
C1015 H1022 0.930 . S
H1016 C1013 0.928 . S
H1017 C1014 0.931 . S
H1018 C994 0.930 . S
H1019 C991 0.930 . S
H1020 C1000 0.930 . S
H1021 C1012 0.929 . S
H1022 C1015 0.930 . S
C1023 C1024 1.351 . S
C1023 N1026 1.368 . S
C1023 H1028 0.931 . S
C1024 C1023 1.351 . S
C1024 N1025 1.373 . S
C1024 H1052 0.930 . S
N1025 C1024 1.373 . S
N1025 C1027 1.340 . S
N1026 C1023 1.368 . S
N1026 C1027 1.321 . S
N1026 Co1029 2.135 . S
C1027 N1025 1.340 . S
C1027 N1026 1.321 . S
C1027 H1051 0.930 . S
H1028 C1023 0.931 . S
Co1029 N1026 2.135 . S
Co1029 N1032 2.121 . S
Co1029 O1037 2.055 . S
Co1029 O1040 2.039 . S
Co1029 N1043 2.140 . S
C1030 O1031 1.227 . S
C1030 O1040 1.265 . S
O1031 C1030 1.227 . S
N1032 Co1029 2.121 . S
N1032 C1034 1.375 . S
N1032 C1035 1.313 . S
C1033 C1034 1.338 . S
C1033 N1036 1.377 . S
C1033 H1053 0.930 . S
C1034 N1032 1.375 . S
C1034 C1033 1.338 . S
C1034 H1038 0.931 . S
C1035 N1032 1.313 . S
C1035 N1036 1.344 . S
C1035 H1039 0.930 . S
N1036 C1033 1.377 . S
N1036 C1035 1.344 . S
O1037 Co1029 2.055 . S
O1037 C1041 1.253 . S
H1038 C1034 0.931 . S
H1039 C1035 0.930 . S
O1040 Co1029 2.039 . S
O1040 C1030 1.265 . S
C1041 O1037 1.253 . S
C1041 O1042 1.227 . S
O1042 C1041 1.227 . S
N1043 Co1029 2.140 . S
N1043 C1046 1.346 . S
N1043 C1047 1.345 . S
C1044 C1045 1.387 . S
C1044 C1048 1.391 . S
C1045 C1044 1.387 . S
C1045 C1046 1.369 . S
C1045 H1054 0.929 . S
C1046 N1043 1.346 . S
C1046 C1045 1.369 . S
C1046 H1049 0.928 . S
C1047 N1043 1.345 . S
C1047 C1048 1.371 . S
C1047 H1050 0.931 . S
C1048 C1044 1.391 . S
C1048 C1047 1.371 . S
C1048 H1055 0.930 . S
H1049 C1046 0.928 . S
H1050 C1047 0.931 . S
H1051 C1027 0.930 . S
H1052 C1024 0.930 . S
H1053 C1033 0.930 . S
H1054 C1045 0.929 . S
H1055 C1048 0.930 . S
C1056 C1057 1.351 . S
C1056 N1059 1.368 . S
C1056 H1061 0.931 . S
C1057 C1056 1.351 . S
C1057 N1058 1.373 . S
C1057 H1085 0.930 . S
N1058 C1057 1.373 . S
N1058 C1060 1.340 . S
N1059 C1056 1.368 . S
N1059 C1060 1.321 . S
N1059 Co1062 2.135 . S
C1060 N1058 1.340 . S
C1060 N1059 1.321 . S
C1060 H1084 0.930 . S
H1061 C1056 0.931 . S
Co1062 N1059 2.135 . S
Co1062 N1065 2.121 . S
Co1062 O1070 2.055 . S
Co1062 O1073 2.039 . S
Co1062 N1076 2.140 . S
C1063 O1064 1.227 . S
C1063 O1073 1.265 . S
O1064 C1063 1.227 . S
N1065 Co1062 2.121 . S
N1065 C1067 1.375 . S
N1065 C1068 1.313 . S
C1066 C1067 1.338 . S
C1066 N1069 1.377 . S
C1066 H1086 0.930 . S
C1067 N1065 1.375 . S
C1067 C1066 1.338 . S
C1067 H1071 0.931 . S
C1068 N1065 1.313 . S
C1068 N1069 1.344 . S
C1068 H1072 0.930 . S
N1069 C1066 1.377 . S
N1069 C1068 1.344 . S
O1070 Co1062 2.055 . S
O1070 C1074 1.253 . S
H1071 C1067 0.931 . S
H1072 C1068 0.930 . S
O1073 Co1062 2.039 . S
O1073 C1063 1.265 . S
C1074 O1070 1.253 . S
C1074 O1075 1.227 . S
O1075 C1074 1.227 . S
N1076 Co1062 2.140 . S
N1076 C1079 1.346 . S
N1076 C1080 1.345 . S
C1077 C1078 1.387 . S
C1077 C1081 1.391 . S
C1078 C1077 1.387 . S
C1078 C1079 1.369 . S
C1078 H1087 0.929 . S
C1079 N1076 1.346 . S
C1079 C1078 1.369 . S
C1079 H1082 0.928 . S
C1080 N1076 1.345 . S
C1080 C1081 1.371 . S
C1080 H1083 0.931 . S
C1081 C1077 1.391 . S
C1081 C1080 1.371 . S
C1081 H1088 0.930 . S
H1082 C1079 0.928 . S
H1083 C1080 0.931 . S
H1084 C1060 0.930 . S
H1085 C1057 0.930 . S
H1086 C1066 0.930 . S
H1087 C1078 0.929 . S
H1088 C1081 0.930 . S
C1089 C1090 1.351 . S
C1089 N1092 1.368 . S
C1089 H1094 0.931 . S
C1090 C1089 1.351 . S
C1090 N1091 1.373 . S
C1090 H1118 0.930 . S
N1091 C1090 1.373 . S
N1091 C1093 1.340 . S
N1092 C1089 1.368 . S
N1092 C1093 1.321 . S
N1092 Co1095 2.135 . S
C1093 N1091 1.340 . S
C1093 N1092 1.321 . S
C1093 H1117 0.930 . S
H1094 C1089 0.931 . S
Co1095 N1092 2.135 . S
Co1095 N1098 2.141 . S
Co1095 O1103 2.055 . S
Co1095 O1106 2.039 . S
Co1095 N1109 2.140 . S
C1096 O1097 1.227 . S
C1096 O1106 1.265 1_565 S
O1097 C1096 1.227 . S
N1098 Co1095 2.141 . S
N1098 C1100 1.350 1_545 S
N1098 C1101 1.315 . S
C1099 C1100 1.338 . S
C1099 N1102 1.377 . S
C1099 H1119 0.930 . S
C1100 N1098 1.350 1_565 S
C1100 C1099 1.338 . S
C1100 H1104 0.931 . S
C1101 N1098 1.315 . S
C1101 N1102 1.344 1_545 S
C1101 H1105 0.930 . S
N1102 C1099 1.377 . S
N1102 C1101 1.344 1_565 S
O1103 Co1095 2.055 . S
O1103 C1107 1.253 . S
H1104 C1100 0.931 . S
H1105 C1101 0.930 . S
O1106 Co1095 2.039 . S
O1106 C1096 1.265 1_545 S
C1107 O1103 1.253 . S
C1107 O1108 1.227 . S
O1108 C1107 1.227 . S
N1109 Co1095 2.140 . S
N1109 C1112 1.346 . S
N1109 C1113 1.345 . S
C1110 C1111 1.387 . S
C1110 C1114 1.391 . S
C1111 C1110 1.387 . S
C1111 C1112 1.369 . S
C1111 H1120 0.929 . S
C1112 N1109 1.346 . S
C1112 C1111 1.369 . S
C1112 H1115 0.928 . S
C1113 N1109 1.345 . S
C1113 C1114 1.371 . S
C1113 H1116 0.931 . S
C1114 C1110 1.391 . S
C1114 C1113 1.371 . S
C1114 H1121 0.930 . S
H1115 C1112 0.928 . S
H1116 C1113 0.931 . S
H1117 C1093 0.930 . S
H1118 C1090 0.930 . S
H1119 C1099 0.930 . S
H1120 C1111 0.929 . S
H1121 C1114 0.930 . S
C1122 C1123 1.351 . S
C1122 N1125 1.368 . S
C1122 H1127 0.931 . S
C1123 C1122 1.351 . S
C1123 N1124 1.373 . S
C1123 H1151 0.930 . S
N1124 C1123 1.373 . S
N1124 C1126 1.340 . S
N1125 C1122 1.368 . S
N1125 C1126 1.321 . S
N1125 Co1128 2.135 . S
C1126 N1124 1.340 . S
C1126 N1125 1.321 . S
C1126 H1150 0.930 . S
H1127 C1122 0.931 . S
Co1128 N1125 2.135 . S
Co1128 N1131 2.121 . S
Co1128 O1136 2.055 . S
Co1128 O1139 2.039 . S
Co1128 N1142 2.140 . S
C1129 O1130 1.227 . S
C1129 O1139 1.265 . S
O1130 C1129 1.227 . S
N1131 Co1128 2.121 . S
N1131 C1133 1.375 . S
N1131 C1134 1.313 . S
C1132 C1133 1.338 . S
C1132 N1135 1.377 . S
C1132 H1152 0.930 . S
C1133 N1131 1.375 . S
C1133 C1132 1.338 . S
C1133 H1137 0.931 . S
C1134 N1131 1.313 . S
C1134 N1135 1.344 . S
C1134 H1138 0.930 . S
N1135 C1132 1.377 . S
N1135 C1134 1.344 . S
O1136 Co1128 2.055 . S
O1136 C1140 1.253 . S
H1137 C1133 0.931 . S
H1138 C1134 0.930 . S
O1139 Co1128 2.039 . S
O1139 C1129 1.265 . S
C1140 O1136 1.253 . S
C1140 O1141 1.227 . S
O1141 C1140 1.227 . S
N1142 Co1128 2.140 . S
N1142 C1145 1.346 . S
N1142 C1146 1.345 . S
C1143 C1144 1.387 . S
C1143 C1147 1.391 . S
C1144 C1143 1.387 . S
C1144 C1145 1.369 . S
C1144 H1153 0.929 . S
C1145 N1142 1.346 . S
C1145 C1144 1.369 . S
C1145 H1148 0.928 . S
C1146 N1142 1.345 . S
C1146 C1147 1.371 . S
C1146 H1149 0.931 . S
C1147 C1143 1.391 . S
C1147 C1146 1.371 . S
C1147 H1154 0.930 . S
H1148 C1145 0.928 . S
H1149 C1146 0.931 . S
H1150 C1126 0.930 . S
H1151 C1123 0.930 . S
H1152 C1132 0.930 . S
H1153 C1144 0.929 . S
H1154 C1147 0.930 . S
C1155 C1156 1.351 . S
C1155 N1158 1.368 . S
C1155 H1160 0.931 . S
C1156 C1155 1.351 . S
C1156 N1157 1.373 . S
C1156 H1184 0.930 . S
N1157 C1156 1.373 . S
N1157 C1159 1.340 . S
N1158 C1155 1.368 . S
N1158 C1159 1.321 . S
N1158 Co1161 2.135 . S
C1159 N1157 1.340 . S
C1159 N1158 1.321 . S
C1159 H1183 0.930 . S
H1160 C1155 0.931 . S
Co1161 N1158 2.135 . S
Co1161 N1164 2.121 . S
Co1161 O1169 2.055 . S
Co1161 O1172 2.039 . S
Co1161 N1175 2.140 . S
C1162 O1163 1.227 . S
C1162 O1172 1.265 . S
O1163 C1162 1.227 . S
N1164 Co1161 2.121 . S
N1164 C1166 1.375 . S
N1164 C1167 1.313 . S
C1165 C1166 1.338 . S
C1165 N1168 1.377 . S
C1165 H1185 0.930 . S
C1166 N1164 1.375 . S
C1166 C1165 1.338 . S
C1166 H1170 0.931 . S
C1167 N1164 1.313 . S
C1167 N1168 1.344 . S
C1167 H1171 0.930 . S
N1168 C1165 1.377 . S
N1168 C1167 1.344 . S
O1169 Co1161 2.055 . S
O1169 C1173 1.253 . S
H1170 C1166 0.931 . S
H1171 C1167 0.930 . S
O1172 Co1161 2.039 . S
O1172 C1162 1.265 . S
C1173 O1169 1.253 . S
C1173 O1174 1.227 . S
O1174 C1173 1.227 . S
N1175 Co1161 2.140 . S
N1175 C1178 1.346 . S
N1175 C1179 1.345 . S
C1176 C1177 1.387 . S
C1176 C1180 1.391 . S
C1177 C1176 1.387 . S
C1177 C1178 1.369 . S
C1177 H1186 0.929 . S
C1178 N1175 1.346 . S
C1178 C1177 1.369 . S
C1178 H1181 0.928 . S
C1179 N1175 1.345 . S
C1179 C1180 1.371 . S
C1179 H1182 0.931 . S
C1180 C1176 1.391 . S
C1180 C1179 1.371 . S
C1180 H1187 0.930 . S
H1181 C1178 0.928 . S
H1182 C1179 0.931 . S
H1183 C1159 0.930 . S
H1184 C1156 0.930 . S
H1185 C1165 0.930 . S
H1186 C1177 0.929 . S
H1187 C1180 0.930 . S
C1188 C1189 1.351 . S
C1188 N1191 1.368 . S
C1188 H1193 0.931 . S
C1189 C1188 1.351 . S
C1189 N1190 1.373 . S
C1189 H1217 0.930 . S
N1190 C1189 1.373 . S
N1190 C1192 1.340 . S
N1191 C1188 1.368 . S
N1191 C1192 1.321 . S
N1191 Co1194 2.135 . S
C1192 N1190 1.340 . S
C1192 N1191 1.321 . S
C1192 H1216 0.930 . S
H1193 C1188 0.931 . S
Co1194 N1191 2.135 . S
Co1194 N1197 2.121 . S
Co1194 O1202 2.055 . S
Co1194 O1205 2.039 . S
Co1194 N1208 2.140 . S
C1195 O1196 1.227 . S
C1195 O1205 1.265 . S
O1196 C1195 1.227 . S
N1197 Co1194 2.121 . S
N1197 C1199 1.375 . S
N1197 C1200 1.313 . S
C1198 C1199 1.338 . S
C1198 N1201 1.377 . S
C1198 H1218 0.930 . S
C1199 N1197 1.375 . S
C1199 C1198 1.338 . S
C1199 H1203 0.931 . S
C1200 N1197 1.313 . S
C1200 N1201 1.344 . S
C1200 H1204 0.930 . S
N1201 C1198 1.377 . S
N1201 C1200 1.344 . S
O1202 Co1194 2.055 . S
O1202 C1206 1.253 . S
H1203 C1199 0.931 . S
H1204 C1200 0.930 . S
O1205 Co1194 2.039 . S
O1205 C1195 1.265 . S
C1206 O1202 1.253 . S
C1206 O1207 1.227 . S
O1207 C1206 1.227 . S
N1208 Co1194 2.140 . S
N1208 C1211 1.346 . S
N1208 C1212 1.345 . S
C1209 C1210 1.387 . S
C1209 C1213 1.391 . S
C1210 C1209 1.387 . S
C1210 C1211 1.369 . S
C1210 H1219 0.929 . S
C1211 N1208 1.346 . S
C1211 C1210 1.369 . S
C1211 H1214 0.928 . S
C1212 N1208 1.345 . S
C1212 C1213 1.371 . S
C1212 H1215 0.931 . S
C1213 C1209 1.391 . S
C1213 C1212 1.371 . S
C1213 H1220 0.930 . S
H1214 C1211 0.928 . S
H1215 C1212 0.931 . S
H1216 C1192 0.930 . S
H1217 C1189 0.930 . S
H1218 C1198 0.930 . S
H1219 C1210 0.929 . S
H1220 C1213 0.930 . S
C1221 C1222 1.351 . S
C1221 N1224 1.368 . S
C1221 H1226 0.931 . S
C1222 C1221 1.351 . S
C1222 N1223 1.373 . S
C1222 H1250 0.930 . S
N1223 C1222 1.373 . S
N1223 C1225 1.340 . S
N1224 C1221 1.368 . S
N1224 C1225 1.321 . S
N1224 Co1227 2.135 . S
C1225 N1223 1.340 . S
C1225 N1224 1.321 . S
C1225 H1249 0.930 . S
H1226 C1221 0.931 . S
Co1227 N1224 2.135 . S
Co1227 N1230 2.141 . S
Co1227 O1235 2.055 . S
Co1227 O1238 2.039 . S
Co1227 N1241 2.140 . S
C1228 O1229 1.227 . S
C1228 O1238 1.265 1_565 S
O1229 C1228 1.227 . S
N1230 Co1227 2.141 . S
N1230 C1232 1.350 1_545 S
N1230 C1233 1.315 . S
C1231 C1232 1.338 . S
C1231 N1234 1.377 . S
C1231 H1251 0.930 . S
C1232 N1230 1.350 1_565 S
C1232 C1231 1.338 . S
C1232 H1236 0.931 . S
C1233 N1230 1.315 . S
C1233 N1234 1.344 1_545 S
C1233 H1237 0.930 . S
N1234 C1231 1.377 . S
N1234 C1233 1.344 1_565 S
O1235 Co1227 2.055 . S
O1235 C1239 1.253 . S
H1236 C1232 0.931 . S
H1237 C1233 0.930 . S
O1238 Co1227 2.039 . S
O1238 C1228 1.265 1_545 S
C1239 O1235 1.253 . S
C1239 O1240 1.227 . S
O1240 C1239 1.227 . S
N1241 Co1227 2.140 . S
N1241 C1244 1.346 . S
N1241 C1245 1.345 . S
C1242 C1243 1.387 . S
C1242 C1246 1.391 . S
C1243 C1242 1.387 . S
C1243 C1244 1.369 . S
C1243 H1252 0.929 . S
C1244 N1241 1.346 . S
C1244 C1243 1.369 . S
C1244 H1247 0.928 . S
C1245 N1241 1.345 . S
C1245 C1246 1.371 . S
C1245 H1248 0.931 . S
C1246 C1242 1.391 . S
C1246 C1245 1.371 . S
C1246 H1253 0.930 . S
H1247 C1244 0.928 . S
H1248 C1245 0.931 . S
H1249 C1225 0.930 . S
H1250 C1222 0.930 . S
H1251 C1231 0.930 . S
H1252 C1243 0.929 . S
H1253 C1246 0.930 . S
C1254 C1255 1.351 . S
C1254 N1257 1.368 . S
C1254 H1259 0.931 . S
C1255 C1254 1.351 . S
C1255 N1256 1.373 . S
C1255 H1283 0.930 . S
N1256 C1255 1.373 . S
N1256 C1258 1.340 . S
N1257 C1254 1.368 . S
N1257 C1258 1.321 . S
N1257 Co1260 2.135 . S
C1258 N1256 1.340 . S
C1258 N1257 1.321 . S
C1258 H1282 0.930 . S
H1259 C1254 0.931 . S
Co1260 N1257 2.135 . S
Co1260 N1263 2.121 . S
Co1260 O1268 2.055 . S
Co1260 O1271 2.039 . S
Co1260 N1274 2.140 . S
C1261 O1262 1.227 . S
C1261 O1271 1.265 . S
O1262 C1261 1.227 . S
N1263 Co1260 2.121 . S
N1263 C1265 1.375 . S
N1263 C1266 1.313 . S
C1264 C1265 1.338 . S
C1264 N1267 1.377 . S
C1264 H1284 0.930 . S
C1265 N1263 1.375 . S
C1265 C1264 1.338 . S
C1265 H1269 0.931 . S
C1266 N1263 1.313 . S
C1266 N1267 1.344 . S
C1266 H1270 0.930 . S
N1267 C1264 1.377 . S
N1267 C1266 1.344 . S
O1268 Co1260 2.055 . S
O1268 C1272 1.253 . S
H1269 C1265 0.931 . S
H1270 C1266 0.930 . S
O1271 Co1260 2.039 . S
O1271 C1261 1.265 . S
C1272 O1268 1.253 . S
C1272 O1273 1.227 . S
O1273 C1272 1.227 . S
N1274 Co1260 2.140 . S
N1274 C1277 1.346 . S
N1274 C1278 1.345 . S
C1275 C1276 1.387 . S
C1275 C1279 1.391 . S
C1276 C1275 1.387 . S
C1276 C1277 1.369 . S
C1276 H1285 0.929 . S
C1277 N1274 1.346 . S
C1277 C1276 1.369 . S
C1277 H1280 0.928 . S
C1278 N1274 1.345 . S
C1278 C1279 1.371 . S
C1278 H1281 0.931 . S
C1279 C1275 1.391 . S
C1279 C1278 1.371 . S
C1279 H1286 0.930 . S
H1280 C1277 0.928 . S
H1281 C1278 0.931 . S
H1282 C1258 0.930 . S
H1283 C1255 0.930 . S
H1284 C1264 0.930 . S
H1285 C1276 0.929 . S
H1286 C1279 0.930 . S
C1287 C1288 1.351 . S
C1287 N1290 1.368 . S
C1287 H1292 0.931 . S
C1288 C1287 1.351 . S
C1288 N1289 1.373 . S
C1288 H1316 0.930 . S
N1289 C1288 1.373 . S
N1289 C1291 1.340 . S
N1290 C1287 1.368 . S
N1290 C1291 1.321 . S
N1290 Co1293 2.135 . S
C1291 N1289 1.340 . S
C1291 N1290 1.321 . S
C1291 H1315 0.930 . S
H1292 C1287 0.931 . S
Co1293 N1290 2.135 . S
Co1293 N1296 2.121 . S
Co1293 O1301 2.055 . S
Co1293 O1304 2.039 . S
Co1293 N1307 2.140 . S
C1294 O1295 1.227 . S
C1294 O1304 1.265 . S
O1295 C1294 1.227 . S
N1296 Co1293 2.121 . S
N1296 C1298 1.375 . S
N1296 C1299 1.313 . S
C1297 C1298 1.338 . S
C1297 N1300 1.377 . S
C1297 H1317 0.930 . S
C1298 N1296 1.375 . S
C1298 C1297 1.338 . S
C1298 H1302 0.931 . S
C1299 N1296 1.313 . S
C1299 N1300 1.344 . S
C1299 H1303 0.930 . S
N1300 C1297 1.377 . S
N1300 C1299 1.344 . S
O1301 Co1293 2.055 . S
O1301 C1305 1.253 . S
H1302 C1298 0.931 . S
H1303 C1299 0.930 . S
O1304 Co1293 2.039 . S
O1304 C1294 1.265 . S
C1305 O1301 1.253 . S
C1305 O1306 1.227 . S
O1306 C1305 1.227 . S
N1307 Co1293 2.140 . S
N1307 C1310 1.346 . S
N1307 C1311 1.345 . S
C1308 C1309 1.387 . S
C1308 C1312 1.391 . S
C1309 C1308 1.387 . S
C1309 C1310 1.369 . S
C1309 H1318 0.929 . S
C1310 N1307 1.346 . S
C1310 C1309 1.369 . S
C1310 H1313 0.928 . S
C1311 N1307 1.345 . S
C1311 C1312 1.371 . S
C1311 H1314 0.931 . S
C1312 C1308 1.391 . S
C1312 C1311 1.371 . S
C1312 H1319 0.930 . S
H1313 C1310 0.928 . S
H1314 C1311 0.931 . S
H1315 C1291 0.930 . S
H1316 C1288 0.930 . S
H1317 C1297 0.930 . S
H1318 C1309 0.929 . S
H1319 C1312 0.930 . S
C1320 C1321 1.351 . S
C1320 N1323 1.368 . S
C1320 H1325 0.931 . S
C1321 C1320 1.351 . S
C1321 N1322 1.373 . S
C1321 H1349 0.930 . S
N1322 C1321 1.373 . S
N1322 C1324 1.340 . S
N1323 C1320 1.368 . S
N1323 C1324 1.321 . S
N1323 Co1326 2.135 . S
C1324 N1322 1.340 . S
C1324 N1323 1.321 . S
C1324 H1348 0.930 . S
H1325 C1320 0.931 . S
Co1326 N1323 2.135 . S
Co1326 N1329 2.121 . S
Co1326 O1334 2.055 . S
Co1326 O1337 2.039 . S
Co1326 N1340 2.140 . S
C1327 O1328 1.227 . S
C1327 O1337 1.265 . S
O1328 C1327 1.227 . S
N1329 Co1326 2.121 . S
N1329 C1331 1.375 . S
N1329 C1332 1.313 . S
C1330 C1331 1.338 . S
C1330 N1333 1.377 . S
C1330 H1350 0.930 . S
C1331 N1329 1.375 . S
C1331 C1330 1.338 . S
C1331 H1335 0.931 . S
C1332 N1329 1.313 . S
C1332 N1333 1.344 . S
C1332 H1336 0.930 . S
N1333 C1330 1.377 . S
N1333 C1332 1.344 . S
O1334 Co1326 2.055 . S
O1334 C1338 1.253 . S
H1335 C1331 0.931 . S
H1336 C1332 0.930 . S
O1337 Co1326 2.039 . S
O1337 C1327 1.265 . S
C1338 O1334 1.253 . S
C1338 O1339 1.227 . S
O1339 C1338 1.227 . S
N1340 Co1326 2.140 . S
N1340 C1343 1.346 . S
N1340 C1344 1.345 . S
C1341 C1342 1.387 . S
C1341 C1345 1.391 . S
C1342 C1341 1.387 . S
C1342 C1343 1.369 . S
C1342 H1351 0.929 . S
C1343 N1340 1.346 . S
C1343 C1342 1.369 . S
C1343 H1346 0.928 . S
C1344 N1340 1.345 . S
C1344 C1345 1.371 . S
C1344 H1347 0.931 . S
C1345 C1341 1.391 . S
C1345 C1344 1.371 . S
C1345 H1352 0.930 . S
H1346 C1343 0.928 . S
H1347 C1344 0.931 . S
H1348 C1324 0.930 . S
H1349 C1321 0.930 . S
H1350 C1330 0.930 . S
H1351 C1342 0.929 . S
H1352 C1345 0.930 . S
C1353 C1354 1.351 . S
C1353 N1356 1.368 . S
C1353 H1358 0.931 . S
C1354 C1353 1.351 . S
C1354 N1355 1.373 . S
C1354 H1382 0.930 . S
N1355 C1354 1.373 . S
N1355 C1357 1.340 . S
N1356 C1353 1.368 . S
N1356 C1357 1.321 . S
N1356 Co1359 2.135 . S
C1357 N1355 1.340 . S
C1357 N1356 1.321 . S
C1357 H1381 0.930 . S
H1358 C1353 0.931 . S
Co1359 N1356 2.135 . S
Co1359 N1362 2.121 . S
Co1359 O1367 2.055 . S
Co1359 O1370 2.039 . S
Co1359 N1373 2.140 . S
C1360 O1361 1.227 . S
C1360 O1370 1.265 . S
O1361 C1360 1.227 . S
N1362 Co1359 2.121 . S
N1362 C1364 1.375 . S
N1362 C1365 1.313 . S
C1363 C1364 1.338 . S
C1363 N1366 1.377 . S
C1363 H1383 0.930 . S
C1364 N1362 1.375 . S
C1364 C1363 1.338 . S
C1364 H1368 0.931 . S
C1365 N1362 1.313 . S
C1365 N1366 1.344 . S
C1365 H1369 0.930 . S
N1366 C1363 1.377 . S
N1366 C1365 1.344 . S
O1367 Co1359 2.055 . S
O1367 C1371 1.253 . S
H1368 C1364 0.931 . S
H1369 C1365 0.930 . S
O1370 Co1359 2.039 . S
O1370 C1360 1.265 . S
C1371 O1367 1.253 . S
C1371 O1372 1.227 . S
O1372 C1371 1.227 . S
N1373 Co1359 2.140 . S
N1373 C1376 1.346 . S
N1373 C1377 1.345 . S
C1374 C1375 1.387 . S
C1374 C1378 1.391 . S
C1375 C1374 1.387 . S
C1375 C1376 1.369 . S
C1375 H1384 0.929 . S
C1376 N1373 1.346 . S
C1376 C1375 1.369 . S
C1376 H1379 0.928 . S
C1377 N1373 1.345 . S
C1377 C1378 1.371 . S
C1377 H1380 0.931 . S
C1378 C1374 1.391 . S
C1378 C1377 1.371 . S
C1378 H1385 0.930 . S
H1379 C1376 0.928 . S
H1380 C1377 0.931 . S
H1381 C1357 0.930 . S
H1382 C1354 0.930 . S
H1383 C1363 0.930 . S
H1384 C1375 0.929 . S
H1385 C1378 0.930 . S
C1386 C1387 1.351 . S
C1386 N1389 1.368 . S
C1386 H1391 0.931 . S
C1387 C1386 1.351 . S
C1387 N1388 1.373 . S
C1387 H1415 0.930 . S
N1388 C1387 1.373 . S
N1388 C1390 1.340 . S
N1389 C1386 1.368 . S
N1389 C1390 1.321 . S
N1389 Co1392 2.135 . S
C1390 N1388 1.340 . S
C1390 N1389 1.321 . S
C1390 H1414 0.930 . S
H1391 C1386 0.931 . S
Co1392 N1389 2.135 . S
Co1392 N1395 2.121 . S
Co1392 O1400 2.055 . S
Co1392 O1403 2.039 . S
Co1392 N1406 2.140 . S
C1393 O1394 1.227 . S
C1393 O1403 1.265 . S
O1394 C1393 1.227 . S
N1395 Co1392 2.121 . S
N1395 C1397 1.375 . S
N1395 C1398 1.313 . S
C1396 C1397 1.338 . S
C1396 N1399 1.377 . S
C1396 H1416 0.930 . S
C1397 N1395 1.375 . S
C1397 C1396 1.338 . S
C1397 H1401 0.931 . S
C1398 N1395 1.313 . S
C1398 N1399 1.344 . S
C1398 H1402 0.930 . S
N1399 C1396 1.377 . S
N1399 C1398 1.344 . S
O1400 Co1392 2.055 . S
O1400 C1404 1.253 . S
H1401 C1397 0.931 . S
H1402 C1398 0.930 . S
O1403 Co1392 2.039 . S
O1403 C1393 1.265 . S
C1404 O1400 1.253 . S
C1404 O1405 1.227 . S
O1405 C1404 1.227 . S
N1406 Co1392 2.140 . S
N1406 C1409 1.346 . S
N1406 C1410 1.345 . S
C1407 C1408 1.387 . S
C1407 C1411 1.391 . S
C1408 C1407 1.387 . S
C1408 C1409 1.369 . S
C1408 H1417 0.929 . S
C1409 N1406 1.346 . S
C1409 C1408 1.369 . S
C1409 H1412 0.928 . S
C1410 N1406 1.345 . S
C1410 C1411 1.371 . S
C1410 H1413 0.931 . S
C1411 C1407 1.391 . S
C1411 C1410 1.371 . S
C1411 H1418 0.930 . S
H1412 C1409 0.928 . S
H1413 C1410 0.931 . S
H1414 C1390 0.930 . S
H1415 C1387 0.930 . S
H1416 C1396 0.930 . S
H1417 C1408 0.929 . S
H1418 C1411 0.930 . S
C1419 C1420 1.351 . S
C1419 N1422 1.368 . S
C1419 H1424 0.931 . S
C1420 C1419 1.351 . S
C1420 N1421 1.373 . S
C1420 H1448 0.930 . S
N1421 C1420 1.373 . S
N1421 C1423 1.340 . S
N1422 C1419 1.368 . S
N1422 C1423 1.321 . S
N1422 Co1425 2.135 . S
C1423 N1421 1.340 . S
C1423 N1422 1.321 . S
C1423 H1447 0.930 . S
H1424 C1419 0.931 . S
Co1425 N1422 2.135 . S
Co1425 N1428 2.121 . S
Co1425 O1433 2.055 . S
Co1425 O1436 2.039 . S
Co1425 N1439 2.140 . S
C1426 O1427 1.227 . S
C1426 O1436 1.265 . S
O1427 C1426 1.227 . S
N1428 Co1425 2.121 . S
N1428 C1430 1.375 . S
N1428 C1431 1.313 . S
C1429 C1430 1.338 . S
C1429 N1432 1.377 . S
C1429 H1449 0.930 . S
C1430 N1428 1.375 . S
C1430 C1429 1.338 . S
C1430 H1434 0.931 . S
C1431 N1428 1.313 . S
C1431 N1432 1.344 . S
C1431 H1435 0.930 . S
N1432 C1429 1.377 . S
N1432 C1431 1.344 . S
O1433 Co1425 2.055 . S
O1433 C1437 1.253 . S
H1434 C1430 0.931 . S
H1435 C1431 0.930 . S
O1436 Co1425 2.039 . S
O1436 C1426 1.265 . S
C1437 O1433 1.253 . S
C1437 O1438 1.227 . S
O1438 C1437 1.227 . S
N1439 Co1425 2.140 . S
N1439 C1442 1.346 . S
N1439 C1443 1.345 . S
C1440 C1441 1.387 . S
C1440 C1444 1.391 . S
C1441 C1440 1.387 . S
C1441 C1442 1.369 . S
C1441 H1450 0.929 . S
C1442 N1439 1.346 . S
C1442 C1441 1.369 . S
C1442 H1445 0.928 . S
C1443 N1439 1.345 . S
C1443 C1444 1.371 . S
C1443 H1446 0.931 . S
C1444 C1440 1.391 . S
C1444 C1443 1.371 . S
C1444 H1451 0.930 . S
H1445 C1442 0.928 . S
H1446 C1443 0.931 . S
H1447 C1423 0.930 . S
H1448 C1420 0.930 . S
H1449 C1429 0.930 . S
H1450 C1441 0.929 . S
H1451 C1444 0.930 . S
C1452 C1453 1.351 . S
C1452 N1455 1.368 . S
C1452 H1457 0.931 . S
C1453 C1452 1.351 . S
C1453 N1454 1.373 . S
C1453 H1481 0.930 . S
N1454 C1453 1.373 . S
N1454 C1456 1.340 . S
N1455 C1452 1.368 . S
N1455 C1456 1.321 . S
N1455 Co1458 2.135 . S
C1456 N1454 1.340 . S
C1456 N1455 1.321 . S
C1456 H1480 0.930 . S
H1457 C1452 0.931 . S
Co1458 N1455 2.135 . S
Co1458 N1461 2.141 . S
Co1458 O1466 2.055 . S
Co1458 O1469 2.039 . S
Co1458 N1472 2.140 . S
C1459 O1460 1.227 . S
C1459 O1469 1.265 1_455 S
O1460 C1459 1.227 . S
N1461 Co1458 2.141 . S
N1461 C1463 1.350 1_655 S
N1461 C1464 1.315 . S
C1462 C1463 1.338 . S
C1462 N1465 1.377 . S
C1462 H1482 0.930 . S
C1463 N1461 1.350 1_455 S
C1463 C1462 1.338 . S
C1463 H1467 0.931 . S
C1464 N1461 1.315 . S
C1464 N1465 1.344 1_655 S
C1464 H1468 0.930 . S
N1465 C1462 1.377 . S
N1465 C1464 1.344 1_455 S
O1466 Co1458 2.055 . S
O1466 C1470 1.253 . S
H1467 C1463 0.931 . S
H1468 C1464 0.930 . S
O1469 Co1458 2.039 . S
O1469 C1459 1.265 1_655 S
C1470 O1466 1.253 . S
C1470 O1471 1.227 . S
O1471 C1470 1.227 . S
N1472 Co1458 2.140 . S
N1472 C1475 1.346 . S
N1472 C1476 1.345 . S
C1473 C1474 1.387 . S
C1473 C1477 1.391 . S
C1474 C1473 1.387 . S
C1474 C1475 1.369 . S
C1474 H1483 0.929 . S
C1475 N1472 1.346 . S
C1475 C1474 1.369 . S
C1475 H1478 0.928 . S
C1476 N1472 1.345 . S
C1476 C1477 1.371 . S
C1476 H1479 0.931 . S
C1477 C1473 1.391 . S
C1477 C1476 1.371 . S
C1477 H1484 0.930 . S
H1478 C1475 0.928 . S
H1479 C1476 0.931 . S
H1480 C1456 0.930 . S
H1481 C1453 0.930 . S
H1482 C1462 0.930 . S
H1483 C1474 0.929 . S
H1484 C1477 0.930 . S
C1485 C1486 1.351 . S
C1485 N1488 1.368 . S
C1485 H1490 0.931 . S
C1486 C1485 1.351 . S
C1486 N1487 1.373 . S
C1486 H1514 0.930 . S
N1487 C1486 1.373 . S
N1487 C1489 1.340 . S
N1488 C1485 1.368 . S
N1488 C1489 1.321 . S
N1488 Co1491 2.135 . S
C1489 N1487 1.340 . S
C1489 N1488 1.321 . S
C1489 H1513 0.930 . S
H1490 C1485 0.931 . S
Co1491 N1488 2.135 . S
Co1491 N1494 2.121 . S
Co1491 O1499 2.055 . S
Co1491 O1502 2.039 . S
Co1491 N1505 2.140 . S
C1492 O1493 1.227 . S
C1492 O1502 1.265 . S
O1493 C1492 1.227 . S
N1494 Co1491 2.121 . S
N1494 C1496 1.375 . S
N1494 C1497 1.313 . S
C1495 C1496 1.338 . S
C1495 N1498 1.377 . S
C1495 H1515 0.930 . S
C1496 N1494 1.375 . S
C1496 C1495 1.338 . S
C1496 H1500 0.931 . S
C1497 N1494 1.313 . S
C1497 N1498 1.344 . S
C1497 H1501 0.930 . S
N1498 C1495 1.377 . S
N1498 C1497 1.344 . S
O1499 Co1491 2.055 . S
O1499 C1503 1.253 . S
H1500 C1496 0.931 . S
H1501 C1497 0.930 . S
O1502 Co1491 2.039 . S
O1502 C1492 1.265 . S
C1503 O1499 1.253 . S
C1503 O1504 1.227 . S
O1504 C1503 1.227 . S
N1505 Co1491 2.140 . S
N1505 C1508 1.346 . S
N1505 C1509 1.345 . S
C1506 C1507 1.387 . S
C1506 C1510 1.391 . S
C1507 C1506 1.387 . S
C1507 C1508 1.369 . S
C1507 H1516 0.929 . S
C1508 N1505 1.346 . S
C1508 C1507 1.369 . S
C1508 H1511 0.928 . S
C1509 N1505 1.345 . S
C1509 C1510 1.371 . S
C1509 H1512 0.931 . S
C1510 C1506 1.391 . S
C1510 C1509 1.371 . S
C1510 H1517 0.930 . S
H1511 C1508 0.928 . S
H1512 C1509 0.931 . S
H1513 C1489 0.930 . S
H1514 C1486 0.930 . S
H1515 C1495 0.930 . S
H1516 C1507 0.929 . S
H1517 C1510 0.930 . S
C1518 C1519 1.351 . S
C1518 N1521 1.368 . S
C1518 H1523 0.931 . S
C1519 C1518 1.351 . S
C1519 N1520 1.373 . S
C1519 H1547 0.930 . S
N1520 C1519 1.373 . S
N1520 C1522 1.340 . S
N1521 C1518 1.368 . S
N1521 C1522 1.321 . S
N1521 Co1524 2.135 . S
C1522 N1520 1.340 . S
C1522 N1521 1.321 . S
C1522 H1546 0.930 . S
H1523 C1518 0.931 . S
Co1524 N1521 2.135 . S
Co1524 N1527 2.121 . S
Co1524 O1532 2.055 . S
Co1524 O1535 2.039 . S
Co1524 N1538 2.140 . S
C1525 O1526 1.227 . S
C1525 O1535 1.265 . S
O1526 C1525 1.227 . S
N1527 Co1524 2.121 . S
N1527 C1529 1.375 . S
N1527 C1530 1.313 . S
C1528 C1529 1.338 . S
C1528 N1531 1.377 . S
C1528 H1548 0.930 . S
C1529 N1527 1.375 . S
C1529 C1528 1.338 . S
C1529 H1533 0.931 . S
C1530 N1527 1.313 . S
C1530 N1531 1.344 . S
C1530 H1534 0.930 . S
N1531 C1528 1.377 . S
N1531 C1530 1.344 . S
O1532 Co1524 2.055 . S
O1532 C1536 1.253 . S
H1533 C1529 0.931 . S
H1534 C1530 0.930 . S
O1535 Co1524 2.039 . S
O1535 C1525 1.265 . S
C1536 O1532 1.253 . S
C1536 O1537 1.227 . S
O1537 C1536 1.227 . S
N1538 Co1524 2.140 . S
N1538 C1541 1.346 . S
N1538 C1542 1.345 . S
C1539 C1540 1.387 . S
C1539 C1543 1.391 . S
C1540 C1539 1.387 . S
C1540 C1541 1.369 . S
C1540 H1549 0.929 . S
C1541 N1538 1.346 . S
C1541 C1540 1.369 . S
C1541 H1544 0.928 . S
C1542 N1538 1.345 . S
C1542 C1543 1.371 . S
C1542 H1545 0.931 . S
C1543 C1539 1.391 . S
C1543 C1542 1.371 . S
C1543 H1550 0.930 . S
H1544 C1541 0.928 . S
H1545 C1542 0.931 . S
H1546 C1522 0.930 . S
H1547 C1519 0.930 . S
H1548 C1528 0.930 . S
H1549 C1540 0.929 . S
H1550 C1543 0.930 . S
C1551 C1552 1.351 . S
C1551 N1554 1.368 . S
C1551 H1556 0.931 . S
C1552 C1551 1.351 . S
C1552 N1553 1.373 . S
C1552 H1580 0.930 . S
N1553 C1552 1.373 . S
N1553 C1555 1.340 . S
N1554 C1551 1.368 . S
N1554 C1555 1.321 . S
N1554 Co1557 2.135 . S
C1555 N1553 1.340 . S
C1555 N1554 1.321 . S
C1555 H1579 0.930 . S
H1556 C1551 0.931 . S
Co1557 N1554 2.135 . S
Co1557 N1560 2.121 . S
Co1557 O1565 2.055 . S
Co1557 O1568 2.039 . S
Co1557 N1571 2.140 . S
C1558 O1559 1.227 . S
C1558 O1568 1.265 . S
O1559 C1558 1.227 . S
N1560 Co1557 2.121 . S
N1560 C1562 1.375 . S
N1560 C1563 1.313 . S
C1561 C1562 1.338 . S
C1561 N1564 1.377 . S
C1561 H1581 0.930 . S
C1562 N1560 1.375 . S
C1562 C1561 1.338 . S
C1562 H1566 0.931 . S
C1563 N1560 1.313 . S
C1563 N1564 1.344 . S
C1563 H1567 0.930 . S
N1564 C1561 1.377 . S
N1564 C1563 1.344 . S
O1565 Co1557 2.055 . S
O1565 C1569 1.253 . S
H1566 C1562 0.931 . S
H1567 C1563 0.930 . S
O1568 Co1557 2.039 . S
O1568 C1558 1.265 . S
C1569 O1565 1.253 . S
C1569 O1570 1.227 . S
O1570 C1569 1.227 . S
N1571 Co1557 2.140 . S
N1571 C1574 1.346 . S
N1571 C1575 1.345 . S
C1572 C1573 1.387 . S
C1572 C1576 1.391 . S
C1573 C1572 1.387 . S
C1573 C1574 1.369 . S
C1573 H1582 0.929 . S
C1574 N1571 1.346 . S
C1574 C1573 1.369 . S
C1574 H1577 0.928 . S
C1575 N1571 1.345 . S
C1575 C1576 1.371 . S
C1575 H1578 0.931 . S
C1576 C1572 1.391 . S
C1576 C1575 1.371 . S
C1576 H1583 0.930 . S
H1577 C1574 0.928 . S
H1578 C1575 0.931 . S
H1579 C1555 0.930 . S
H1580 C1552 0.930 . S
H1581 C1561 0.930 . S
H1582 C1573 0.929 . S
H1583 C1576 0.930 . S
H1584 C1590 0.930 . S
H1585 C1594 0.930 . S
H1586 C1599 0.929 . S
H1587 C1597 0.929 . S
H1588 C1592 0.929 . S
H1589 C1598 0.929 . S
C1590 H1584 0.930 . S
C1590 C1591 1.367 . S
C1590 C1598 1.378 . S
C1591 C1590 1.367 . S
C1591 C1599 1.433 . S
C1592 H1588 0.929 . S
C1592 C1594 1.378 . S
C1592 C1596 1.350 . S
C1593 C1596 1.463 . S
C1593 C1598 1.350 . S
C1593 N1601 1.427 . S
C1594 H1585 0.930 . S
C1594 C1592 1.378 . S
C1594 C1595 1.367 . S
C1595 C1594 1.367 . S
C1595 C1597 1.433 . S
C1596 C1592 1.350 . S
C1596 C1593 1.463 . S
C1596 N1600 1.427 . S
C1597 H1587 0.929 . S
C1597 C1595 1.433 . S
C1597 N1600 1.384 . S
C1598 H1589 0.929 . S
C1598 C1590 1.378 . S
C1598 C1593 1.350 . S
C1599 H1586 0.929 . S
C1599 C1591 1.433 . S
C1599 N1601 1.384 . S
N1600 C1596 1.427 . S
N1600 C1597 1.384 . S
N1601 C1593 1.427 . S
N1601 C1599 1.384 . S
H1602 C1608 0.930 . S
H1603 C1612 0.930 1_554 S
H1604 C1617 0.929 . S
H1605 C1615 0.929 . S
H1606 C1610 0.929 . S
H1607 C1616 0.929 . S
C1608 H1602 0.930 . S
C1608 C1609 1.367 . S
C1608 C1616 1.378 . S
C1609 C1608 1.367 . S
C1609 C1617 1.433 . S
C1610 H1606 0.929 . S
C1610 C1612 1.378 . S
C1610 C1614 1.350 . S
C1611 C1614 1.463 . S
C1611 C1616 1.350 . S
C1611 N1619 1.427 . S
C1612 H1603 0.930 1_556 S
C1612 C1610 1.378 . S
C1612 C1613 1.367 . S
C1613 C1612 1.367 . S
C1613 C1615 1.433 . S
C1614 C1610 1.350 . S
C1614 C1611 1.463 . S
C1614 N1618 1.427 . S
C1615 H1605 0.929 . S
C1615 C1613 1.433 . S
C1615 N1618 1.384 . S
C1616 H1607 0.929 . S
C1616 C1608 1.378 . S
C1616 C1611 1.350 . S
C1617 H1604 0.929 . S
C1617 C1609 1.433 . S
C1617 N1619 1.384 . S
N1618 C1614 1.427 . S
N1618 C1615 1.384 . S
N1619 C1611 1.427 . S
N1619 C1617 1.384 . S
H1620 C1626 0.930 . S
H1621 C1630 0.930 . S
H1622 C1635 0.929 . S
H1623 C1633 0.929 . S
H1624 C1628 0.929 . S
H1625 C1634 0.929 . S
C1626 H1620 0.930 . S
C1626 C1627 1.367 . S
C1626 C1634 1.378 . S
C1627 C1626 1.367 . S
C1627 C1635 1.433 . S
C1628 H1624 0.929 . S
C1628 C1630 1.378 . S
C1628 C1632 1.350 . S
C1629 C1632 1.463 . S
C1629 C1634 1.350 . S
C1629 N1637 1.427 . S
C1630 H1621 0.930 . S
C1630 C1628 1.378 . S
C1630 C1631 1.367 . S
C1631 C1630 1.367 . S
C1631 C1633 1.433 . S
C1632 C1628 1.350 . S
C1632 C1629 1.463 . S
C1632 N1636 1.427 . S
C1633 H1623 0.929 . S
C1633 C1631 1.433 . S
C1633 N1636 1.384 . S
C1634 H1625 0.929 . S
C1634 C1626 1.378 . S
C1634 C1629 1.350 . S
C1635 H1622 0.929 . S
C1635 C1627 1.433 . S
C1635 N1637 1.384 . S
N1636 C1632 1.427 . S
N1636 C1633 1.384 . S
N1637 C1629 1.427 . S
N1637 C1635 1.384 . S
H1638 C1644 0.930 1_554 S
H1639 C1648 0.930 . S
H1640 C1653 0.929 . S
H1641 C1651 0.929 . S
H1642 C1646 0.929 . S
H1643 C1652 0.929 . S
C1644 H1638 0.930 1_556 S
C1644 C1645 1.367 . S
C1644 C1652 1.378 . S
C1645 C1644 1.367 . S
C1645 C1653 1.433 . S
C1646 H1642 0.929 . S
C1646 C1648 1.378 . S
C1646 C1650 1.350 . S
C1647 C1650 1.463 . S
C1647 C1652 1.350 . S
C1647 N1655 1.427 . S
C1648 H1639 0.930 . S
C1648 C1646 1.378 . S
C1648 C1649 1.367 . S
C1649 C1648 1.367 . S
C1649 C1651 1.433 . S
C1650 C1646 1.350 . S
C1650 C1647 1.463 . S
C1650 N1654 1.427 . S
C1651 H1641 0.929 . S
C1651 C1649 1.433 . S
C1651 N1654 1.384 . S
C1652 H1643 0.929 . S
C1652 C1644 1.378 . S
C1652 C1647 1.350 . S
C1653 H1640 0.929 . S
C1653 C1645 1.433 . S
C1653 N1655 1.384 . S
N1654 C1650 1.427 . S
N1654 C1651 1.384 . S
N1655 C1647 1.427 . S
N1655 C1653 1.384 . S
H1656 C1662 0.930 . S
H1657 C1666 0.930 . S
H1658 C1671 0.929 . S
H1659 C1669 0.929 . S
H1660 C1664 0.929 . S
H1661 C1670 0.929 . S
C1662 H1656 0.930 . S
C1662 C1663 1.367 . S
C1662 C1670 1.378 . S
C1663 C1662 1.367 . S
C1663 C1671 1.433 . S
C1664 H1660 0.929 . S
C1664 C1666 1.378 . S
C1664 C1668 1.350 . S
C1665 C1668 1.463 . S
C1665 C1670 1.350 . S
C1665 N1673 1.427 . S
C1666 H1657 0.930 . S
C1666 C1664 1.378 . S
C1666 C1667 1.367 . S
C1667 C1666 1.367 . S
C1667 C1669 1.433 . S
C1668 C1664 1.350 . S
C1668 C1665 1.463 . S
C1668 N1672 1.427 . S
C1669 H1659 0.929 . S
C1669 C1667 1.433 . S
C1669 N1672 1.384 . S
C1670 H1661 0.929 . S
C1670 C1662 1.378 . S
C1670 C1665 1.350 . S
C1671 H1658 0.929 . S
C1671 C1663 1.433 . S
C1671 N1673 1.384 . S
N1672 C1668 1.427 . S
N1672 C1669 1.384 . S
N1673 C1665 1.427 . S
N1673 C1671 1.384 . S
H1674 C1680 0.930 . S
H1675 C1684 0.930 . S
H1676 C1689 0.929 . S
H1677 C1687 0.929 1_556 S
H1678 C1682 0.929 . S
H1679 C1688 0.929 . S
C1680 H1674 0.930 . S
C1680 C1681 1.367 . S
C1680 C1688 1.378 . S
C1681 C1680 1.367 . S
C1681 C1689 1.433 . S
C1682 H1678 0.929 . S
C1682 C1684 1.378 1_455 S
C1682 C1686 1.350 . S
C1683 C1686 1.463 . S
C1683 C1688 1.350 . S
C1683 N1691 1.427 . S
C1684 H1675 0.930 . S
C1684 C1682 1.378 1_655 S
C1684 C1685 1.367 . S
C1685 C1684 1.367 . S
C1685 C1687 1.433 1_655 S
C1686 C1682 1.350 . S
C1686 C1683 1.463 . S
C1686 N1690 1.427 . S
C1687 H1677 0.929 1_554 S
C1687 C1685 1.433 1_455 S
C1687 N1690 1.384 . S
C1688 H1679 0.929 . S
C1688 C1680 1.378 . S
C1688 C1683 1.350 . S
C1689 H1676 0.929 . S
C1689 C1681 1.433 . S
C1689 N1691 1.384 . S
N1690 C1686 1.427 . S
N1690 C1687 1.384 . S
N1691 C1683 1.427 . S
N1691 C1689 1.384 . S
H1692 C1698 0.930 . S
H1693 C1702 0.930 . S
H1694 C1707 0.929 . S
H1695 C1705 0.929 . S
H1696 C1700 0.929 . S
H1697 C1706 0.929 . S
C1698 H1692 0.930 . S
C1698 C1699 1.367 . S
C1698 C1706 1.378 . S
C1699 C1698 1.367 . S
C1699 C1707 1.433 . S
C1700 H1696 0.929 . S
C1700 C1702 1.378 . S
C1700 C1704 1.350 . S
C1701 C1704 1.463 . S
C1701 C1706 1.350 . S
C1701 N1709 1.427 . S
C1702 H1693 0.930 . S
C1702 C1700 1.378 . S
C1702 C1703 1.367 . S
C1703 C1702 1.367 . S
C1703 C1705 1.433 . S
C1704 C1700 1.350 . S
C1704 C1701 1.463 . S
C1704 N1708 1.427 . S
C1705 H1695 0.929 . S
C1705 C1703 1.433 . S
C1705 N1708 1.384 . S
C1706 H1697 0.929 . S
C1706 C1698 1.378 . S
C1706 C1701 1.350 . S
C1707 H1694 0.929 . S
C1707 C1699 1.433 . S
C1707 N1709 1.384 . S
N1708 C1704 1.427 . S
N1708 C1705 1.384 . S
N1709 C1701 1.427 . S
N1709 C1707 1.384 . S
H1710 C1716 0.930 1_455 S
H1711 C1720 0.930 . S
H1712 C1725 0.929 1_556 S
H1713 C1723 0.929 . S
H1714 C1718 0.929 . S
H1715 C1724 0.929 . S
C1716 H1710 0.930 1_655 S
C1716 C1717 1.367 1_655 S
C1716 C1724 1.378 . S
C1717 C1716 1.367 1_455 S
C1717 C1725 1.433 . S
C1718 H1714 0.929 . S
C1718 C1720 1.378 . S
C1718 C1722 1.350 . S
C1719 C1722 1.463 . S
C1719 C1724 1.350 . S
C1719 N1727 1.427 . S
C1720 H1711 0.930 . S
C1720 C1718 1.378 . S
C1720 C1721 1.367 . S
C1721 C1720 1.367 . S
C1721 C1723 1.433 . S
C1722 C1718 1.350 . S
C1722 C1719 1.463 . S
C1722 N1726 1.427 . S
C1723 H1713 0.929 . S
C1723 C1721 1.433 . S
C1723 N1726 1.384 . S
C1724 H1715 0.929 . S
C1724 C1716 1.378 . S
C1724 C1719 1.350 . S
C1725 H1712 0.929 1_554 S
C1725 C1717 1.433 . S
C1725 N1727 1.384 1_455 S
N1726 C1722 1.427 . S
N1726 C1723 1.384 . S
N1727 C1719 1.427 . S
N1727 C1725 1.384 1_655 S
H1728 C1734 0.930 . S
H1729 C1738 0.930 . S
H1730 C1743 0.929 . S
H1731 C1741 0.929 . S
H1732 C1736 0.929 . S
H1733 C1742 0.929 . S
C1734 H1728 0.930 . S
C1734 C1735 1.367 . S
C1734 C1742 1.378 . S
C1735 C1734 1.367 . S
C1735 C1743 1.433 . S
C1736 H1732 0.929 . S
C1736 C1738 1.378 . S
C1736 C1740 1.350 . S
C1737 C1740 1.463 . S
C1737 C1742 1.350 . S
C1737 N1745 1.427 . S
C1738 H1729 0.930 . S
C1738 C1736 1.378 . S
C1738 C1739 1.367 . S
C1739 C1738 1.367 . S
C1739 C1741 1.433 . S
C1740 C1736 1.350 . S
C1740 C1737 1.463 . S
C1740 N1744 1.427 . S
C1741 H1731 0.929 . S
C1741 C1739 1.433 . S
C1741 N1744 1.384 . S
C1742 H1733 0.929 . S
C1742 C1734 1.378 . S
C1742 C1737 1.350 . S
C1743 H1730 0.929 . S
C1743 C1735 1.433 . S
C1743 N1745 1.384 . S
N1744 C1740 1.427 . S
N1744 C1741 1.384 . S
N1745 C1737 1.427 . S
N1745 C1743 1.384 . S
H1746 C1752 0.930 . S
H1747 C1756 0.930 . S
H1748 C1761 0.929 . S
H1749 C1759 0.929 . S
H1750 C1754 0.929 . S
H1751 C1760 0.929 . S
C1752 H1746 0.930 . S
C1752 C1753 1.367 1_554 S
C1752 C1760 1.378 . S
C1753 C1752 1.367 1_556 S
C1753 C1761 1.433 . S
C1754 H1750 0.929 . S
C1754 C1756 1.378 . S
C1754 C1758 1.350 . S
C1755 C1758 1.463 . S
C1755 C1760 1.350 . S
C1755 N1763 1.427 . S
C1756 H1747 0.930 . S
C1756 C1754 1.378 . S
C1756 C1757 1.367 . S
C1757 C1756 1.367 . S
C1757 C1759 1.433 . S
C1758 C1754 1.350 . S
C1758 C1755 1.463 . S
C1758 N1762 1.427 . S
C1759 H1749 0.929 . S
C1759 C1757 1.433 . S
C1759 N1762 1.384 . S
C1760 H1751 0.929 . S
C1760 C1752 1.378 . S
C1760 C1755 1.350 . S
C1761 H1748 0.929 . S
C1761 C1753 1.433 . S
C1761 N1763 1.384 1_556 S
N1762 C1758 1.427 . S
N1762 C1759 1.384 . S
N1763 C1755 1.427 . S
N1763 C1761 1.384 1_554 S
H1764 C1770 0.930 . S
H1765 C1774 0.930 . S
H1766 C1779 0.929 . S
H1767 C1777 0.929 . S
H1768 C1772 0.929 . S
H1769 C1778 0.929 . S
C1770 H1764 0.930 . S
C1770 C1771 1.367 . S
C1770 C1778 1.378 . S
C1771 C1770 1.367 . S
C1771 C1779 1.433 . S
C1772 H1768 0.929 . S
C1772 C1774 1.378 . S
C1772 C1776 1.350 . S
C1773 C1776 1.463 . S
C1773 C1778 1.350 . S
C1773 N1781 1.427 . S
C1774 H1765 0.930 . S
C1774 C1772 1.378 . S
C1774 C1775 1.367 . S
C1775 C1774 1.367 . S
C1775 C1777 1.433 . S
C1776 C1772 1.350 . S
C1776 C1773 1.463 . S
C1776 N1780 1.427 . S
C1777 H1767 0.929 . S
C1777 C1775 1.433 . S
C1777 N1780 1.384 . S
C1778 H1769 0.929 . S
C1778 C1770 1.378 . S
C1778 C1773 1.350 . S
C1779 H1766 0.929 . S
C1779 C1771 1.433 . S
C1779 N1781 1.384 . S
N1780 C1776 1.427 . S
N1780 C1777 1.384 . S
N1781 C1773 1.427 . S
N1781 C1779 1.384 . S
H1782 C1788 0.914 1_566 S
H1783 C1792 0.930 . S
H1784 C1797 0.937 . S
H1785 C1795 0.929 . S
H1786 C1790 0.929 . S
H1787 C1796 0.929 . S
C1788 H1782 0.914 1_544 S
C1788 C1789 1.349 1_554 S
C1788 C1796 1.413 . S
C1789 C1788 1.349 1_556 S
C1789 C1797 1.439 . S
C1790 H1786 0.929 . S
C1790 C1792 1.378 . S
C1790 C1794 1.350 . S
C1791 C1794 1.463 . S
C1791 C1796 1.350 . S
C1791 N1799 1.427 . S
C1792 H1783 0.930 . S
C1792 C1790 1.378 . S
C1792 C1793 1.367 . S
C1793 C1792 1.367 . S
C1793 C1795 1.433 . S
C1794 C1790 1.350 . S
C1794 C1791 1.463 . S
C1794 N1798 1.427 . S
C1795 H1785 0.929 . S
C1795 C1793 1.433 . S
C1795 N1798 1.384 . S
C1796 H1787 0.929 . S
C1796 C1788 1.413 . S
C1796 C1791 1.350 . S
C1797 H1784 0.937 . S
C1797 C1789 1.439 . S
C1797 N1799 1.370 1_556 S
N1798 C1794 1.427 . S
N1798 C1795 1.384 . S
N1799 C1791 1.427 . S
N1799 C1797 1.370 1_554 S
H1800 C1806 0.930 . S
H1801 C1810 0.930 . S
H1802 C1815 0.929 . S
H1803 C1813 0.929 . S
H1804 C1808 0.929 . S
H1805 C1814 0.929 . S
C1806 H1800 0.930 . S
C1806 C1807 1.367 . S
C1806 C1814 1.378 . S
C1807 C1806 1.367 . S
C1807 C1815 1.433 . S
C1808 H1804 0.929 . S
C1808 C1810 1.378 . S
C1808 C1812 1.350 . S
C1809 C1812 1.463 . S
C1809 C1814 1.350 . S
C1809 N1817 1.427 . S
C1810 H1801 0.930 . S
C1810 C1808 1.378 . S
C1810 C1811 1.367 . S
C1811 C1810 1.367 . S
C1811 C1813 1.433 . S
C1812 C1808 1.350 . S
C1812 C1809 1.463 . S
C1812 N1816 1.427 . S
C1813 H1803 0.929 . S
C1813 C1811 1.433 . S
C1813 N1816 1.384 . S
C1814 H1805 0.929 . S
C1814 C1806 1.378 . S
C1814 C1809 1.350 . S
C1815 H1802 0.929 . S
C1815 C1807 1.433 . S
C1815 N1817 1.384 . S
N1816 C1812 1.427 . S
N1816 C1813 1.384 . S
N1817 C1809 1.427 . S
N1817 C1815 1.384 . S
H1818 C1824 0.930 . S
H1819 C1828 0.930 . S
H1820 C1833 0.929 . S
H1821 C1831 0.929 . S
H1822 C1826 0.929 . S
H1823 C1832 0.929 . S
C1824 H1818 0.930 . S
C1824 C1825 1.367 . S
C1824 C1832 1.378 . S
C1825 C1824 1.367 . S
C1825 C1833 1.433 . S
C1826 H1822 0.929 . S
C1826 C1828 1.378 . S
C1826 C1830 1.350 . S
C1827 C1830 1.463 . S
C1827 C1832 1.350 . S
C1827 N1835 1.427 . S
C1828 H1819 0.930 . S
C1828 C1826 1.378 . S
C1828 C1829 1.367 1_556 S
C1829 C1828 1.367 1_554 S
C1829 C1831 1.433 . S
C1830 C1826 1.350 . S
C1830 C1827 1.463 . S
C1830 N1834 1.427 . S
C1831 H1821 0.929 . S
C1831 C1829 1.433 . S
C1831 N1834 1.384 1_554 S
C1832 H1823 0.929 . S
C1832 C1824 1.378 . S
C1832 C1827 1.350 . S
C1833 H1820 0.929 . S
C1833 C1825 1.433 . S
C1833 N1835 1.384 . S
N1834 C1830 1.427 . S
N1834 C1831 1.384 1_556 S
N1835 C1827 1.427 . S
N1835 C1833 1.384 . S
H1836 C1842 0.930 . S
H1837 C1846 0.930 . S
H1838 C1851 0.929 . S
H1839 C1849 0.929 . S
H1840 C1844 0.929 . S
H1841 C1850 0.929 . S
C1842 H1836 0.930 . S
C1842 C1843 1.367 . S
C1842 C1850 1.378 . S
C1843 C1842 1.367 . S
C1843 C1851 1.433 . S
C1844 H1840 0.929 . S
C1844 C1846 1.378 . S
C1844 C1848 1.350 . S
C1845 C1848 1.463 . S
C1845 C1850 1.350 . S
C1845 N1853 1.427 . S
C1846 H1837 0.930 . S
C1846 C1844 1.378 . S
C1846 C1847 1.367 . S
C1847 C1846 1.367 . S
C1847 C1849 1.433 . S
C1848 C1844 1.350 . S
C1848 C1845 1.463 . S
C1848 N1852 1.427 . S
C1849 H1839 0.929 . S
C1849 C1847 1.433 . S
C1849 N1852 1.384 . S
C1850 H1841 0.929 . S
C1850 C1842 1.378 . S
C1850 C1845 1.350 . S
C1851 H1838 0.929 . S
C1851 C1843 1.433 . S
C1851 N1853 1.384 . S
N1852 C1848 1.427 . S
N1852 C1849 1.384 . S
N1853 C1845 1.427 . S
N1853 C1851 1.384 . S
H1854 C1860 0.930 . S
H1855 C1864 0.930 . S
H1856 C1869 0.929 1_565 S
H1857 C1867 0.929 . S
H1858 C1862 0.929 . S
H1859 C1868 0.929 . S
C1860 H1854 0.930 . S
C1860 C1861 1.367 . S
C1860 C1868 1.378 1_554 S
C1861 C1860 1.367 . S
C1861 C1869 1.433 1_554 S
C1862 H1858 0.929 . S
C1862 C1864 1.378 . S
C1862 C1866 1.350 . S
C1863 C1866 1.463 . S
C1863 C1868 1.350 . S
C1863 N1871 1.427 . S
C1864 H1855 0.930 . S
C1864 C1862 1.378 . S
C1864 C1865 1.367 . S
C1865 C1864 1.367 . S
C1865 C1867 1.433 . S
C1866 C1862 1.350 . S
C1866 C1863 1.463 . S
C1866 N1870 1.427 . S
C1867 H1857 0.929 . S
C1867 C1865 1.433 . S
C1867 N1870 1.384 . S
C1868 H1859 0.929 . S
C1868 C1860 1.378 1_556 S
C1868 C1863 1.350 . S
C1869 H1856 0.929 1_545 S
C1869 C1861 1.433 1_556 S
C1869 N1871 1.384 . S
N1870 C1866 1.427 . S
N1870 C1867 1.384 . S
N1871 C1863 1.427 . S
N1871 C1869 1.384 . S
H1872 C1878 0.930 . S
H1873 C1882 0.930 . S
H1874 C1887 0.929 . S
H1875 C1885 0.929 . S
H1876 C1880 0.929 . S
H1877 C1886 0.929 . S
C1878 H1872 0.930 . S
C1878 C1879 1.367 . S
C1878 C1886 1.378 . S
C1879 C1878 1.367 . S
C1879 C1887 1.433 . S
C1880 H1876 0.929 . S
C1880 C1882 1.378 . S
C1880 C1884 1.350 . S
C1881 C1884 1.463 . S
C1881 C1886 1.350 . S
C1881 N1889 1.427 . S
C1882 H1873 0.930 . S
C1882 C1880 1.378 . S
C1882 C1883 1.367 . S
C1883 C1882 1.367 . S
C1883 C1885 1.433 . S
C1884 C1880 1.350 . S
C1884 C1881 1.463 . S
C1884 N1888 1.427 . S
C1885 H1875 0.929 . S
C1885 C1883 1.433 . S
C1885 N1888 1.384 . S
C1886 H1877 0.929 . S
C1886 C1878 1.378 . S
C1886 C1881 1.350 . S
C1887 H1874 0.929 . S
C1887 C1879 1.433 . S
C1887 N1889 1.384 . S
N1888 C1884 1.427 . S
N1888 C1885 1.384 . S
N1889 C1881 1.427 . S
N1889 C1887 1.384 . S
H1890 C1896 0.930 . S
H1891 C1900 0.930 . S
H1892 C1905 0.929 . S
H1893 C1903 0.929 . S
H1894 C1898 0.929 . S
H1895 C1904 0.929 . S
C1896 H1890 0.930 . S
C1896 C1897 1.367 . S
C1896 C1904 1.378 . S
C1897 C1896 1.367 . S
C1897 C1905 1.433 . S
C1898 H1894 0.929 . S
C1898 C1900 1.378 . S
C1898 C1902 1.350 . S
C1899 C1902 1.463 . S
C1899 C1904 1.350 . S
C1899 N1907 1.427 . S
C1900 H1891 0.930 . S
C1900 C1898 1.378 . S
C1900 C1901 1.367 . S
C1901 C1900 1.367 . S
C1901 C1903 1.433 . S
C1902 C1898 1.350 . S
C1902 C1899 1.463 . S
C1902 N1906 1.427 . S
C1903 H1893 0.929 . S
C1903 C1901 1.433 . S
C1903 N1906 1.384 . S
C1904 H1895 0.929 . S
C1904 C1896 1.378 . S
C1904 C1899 1.350 . S
C1905 H1892 0.929 . S
C1905 C1897 1.433 . S
C1905 N1907 1.384 . S
N1906 C1902 1.427 . S
N1906 C1903 1.384 . S
N1907 C1899 1.427 . S
N1907 C1905 1.384 . S
H1908 C1914 0.930 1_455 S
H1909 C1918 0.930 . S
H1910 C1923 0.929 . S
H1911 C1921 0.929 . S
H1912 C1916 0.929 . S
H1913 C1922 0.929 . S
C1914 H1908 0.930 1_655 S
C1914 C1915 1.367 . S
C1914 C1922 1.378 . S
C1915 C1914 1.367 . S
C1915 C1923 1.433 . S
C1916 H1912 0.929 . S
C1916 C1918 1.378 . S
C1916 C1920 1.350 . S
C1917 C1920 1.463 . S
C1917 C1922 1.350 . S
C1917 N1925 1.427 . S
C1918 H1909 0.930 . S
C1918 C1916 1.378 . S
C1918 C1919 1.367 . S
C1919 C1918 1.367 . S
C1919 C1921 1.433 . S
C1920 C1916 1.350 . S
C1920 C1917 1.463 . S
C1920 N1924 1.427 . S
C1921 H1911 0.929 . S
C1921 C1919 1.433 . S
C1921 N1924 1.384 . S
C1922 H1913 0.929 . S
C1922 C1914 1.378 . S
C1922 C1917 1.350 . S
C1923 H1910 0.929 . S
C1923 C1915 1.433 . S
C1923 N1925 1.384 . S
N1924 C1920 1.427 . S
N1924 C1921 1.384 . S
N1925 C1917 1.427 . S
N1925 C1923 1.384 . S
H1926 C1932 0.930 . S
H1927 C1936 0.930 . S
H1928 C1941 0.929 . S
H1929 C1939 0.929 . S
H1930 C1934 0.929 . S
H1931 C1940 0.929 . S
C1932 H1926 0.930 . S
C1932 C1933 1.367 . S
C1932 C1940 1.378 . S
C1933 C1932 1.367 . S
C1933 C1941 1.433 . S
C1934 H1930 0.929 . S
C1934 C1936 1.378 . S
C1934 C1938 1.350 . S
C1935 C1938 1.463 . S
C1935 C1940 1.350 . S
C1935 N1943 1.427 . S
C1936 H1927 0.930 . S
C1936 C1934 1.378 . S
C1936 C1937 1.367 . S
C1937 C1936 1.367 . S
C1937 C1939 1.433 . S
C1938 C1934 1.350 . S
C1938 C1935 1.463 . S
C1938 N1942 1.427 . S
C1939 H1929 0.929 . S
C1939 C1937 1.433 . S
C1939 N1942 1.384 . S
C1940 H1931 0.929 . S
C1940 C1932 1.378 . S
C1940 C1935 1.350 . S
C1941 H1928 0.929 . S
C1941 C1933 1.433 . S
C1941 N1943 1.384 . S
N1942 C1938 1.427 . S
N1942 C1939 1.384 . S
N1943 C1935 1.427 . S
N1943 C1941 1.384 . S
H1944 C1950 0.930 . S
H1945 C1954 0.930 . S
H1946 C1959 0.929 . S
H1947 C1957 0.929 . S
H1948 C1952 0.929 . S
H1949 C1958 0.929 . S
C1950 H1944 0.930 . S
C1950 C1951 1.367 . S
C1950 C1958 1.378 . S
C1951 C1950 1.367 . S
C1951 C1959 1.433 . S
C1952 H1948 0.929 . S
C1952 C1954 1.378 . S
C1952 C1956 1.350 . S
C1953 C1956 1.463 . S
C1953 C1958 1.350 . S
C1953 N1961 1.427 . S
C1954 H1945 0.930 . S
C1954 C1952 1.378 . S
C1954 C1955 1.367 . S
C1955 C1954 1.367 . S
C1955 C1957 1.433 . S
C1956 C1952 1.350 . S
C1956 C1953 1.463 . S
C1956 N1960 1.427 . S
C1957 H1947 0.929 . S
C1957 C1955 1.433 . S
C1957 N1960 1.384 . S
C1958 H1949 0.929 . S
C1958 C1950 1.378 . S
C1958 C1953 1.350 . S
C1959 H1946 0.929 . S
C1959 C1951 1.433 . S
C1959 N1961 1.384 . S
N1960 C1956 1.427 . S
N1960 C1957 1.384 . S
N1961 C1953 1.427 . S
N1961 C1959 1.384 . S
H1962 C1968 0.930 . S
H1963 C1972 0.930 . S
H1964 C1977 0.929 . S
H1965 C1975 0.929 . S
H1966 C1970 0.929 . S
H1967 C1976 0.929 . S
C1968 H1962 0.930 . S
C1968 C1969 1.367 . S
C1968 C1976 1.378 . S
C1969 C1968 1.367 . S
C1969 C1977 1.433 . S
C1970 H1966 0.929 . S
C1970 C1972 1.378 . S
C1970 C1974 1.350 . S
C1971 C1974 1.463 . S
C1971 C1976 1.350 . S
C1971 N1979 1.427 . S
C1972 H1963 0.930 . S
C1972 C1970 1.378 . S
C1972 C1973 1.367 . S
C1973 C1972 1.367 . S
C1973 C1975 1.433 . S
C1974 C1970 1.350 . S
C1974 C1971 1.463 . S
C1974 N1978 1.427 . S
C1975 H1965 0.929 . S
C1975 C1973 1.433 . S
C1975 N1978 1.384 . S
C1976 H1967 0.929 . S
C1976 C1968 1.378 . S
C1976 C1971 1.350 . S
C1977 H1964 0.929 . S
C1977 C1969 1.433 . S
C1977 N1979 1.384 . S
N1978 C1974 1.427 . S
N1978 C1975 1.384 . S
N1979 C1971 1.427 . S
N1979 C1977 1.384 . S
H1980 C1986 0.930 . S
H1981 C1990 0.930 . S
H1982 C1995 0.929 1_455 S
H1983 C1993 0.929 . S
H1984 C1988 0.929 . S
H1985 C1994 0.929 . S
C1986 H1980 0.930 . S
C1986 C1987 1.367 . S
C1986 C1994 1.378 . S
C1987 C1986 1.367 . S
C1987 C1995 1.433 . S
C1988 H1984 0.929 . S
C1988 C1990 1.378 . S
C1988 C1992 1.350 . S
C1989 C1992 1.463 . S
C1989 C1994 1.350 . S
C1989 N1997 1.427 . S
C1990 H1981 0.930 . S
C1990 C1988 1.378 . S
C1990 C1991 1.367 . S
C1991 C1990 1.367 . S
C1991 C1993 1.433 . S
C1992 C1988 1.350 . S
C1992 C1989 1.463 . S
C1992 N1996 1.427 . S
C1993 H1983 0.929 . S
C1993 C1991 1.433 . S
C1993 N1996 1.384 . S
C1994 H1985 0.929 . S
C1994 C1986 1.378 . S
C1994 C1989 1.350 . S
C1995 H1982 0.929 1_655 S
C1995 C1987 1.433 . S
C1995 N1997 1.384 . S
N1996 C1992 1.427 . S
N1996 C1993 1.384 . S
N1997 C1989 1.427 . S
N1997 C1995 1.384 . S
H1998 C2004 0.949 1_655 S
H1999 C2008 0.930 . S
H2000 C2013 0.929 1_565 S
H2001 C2011 0.929 . S
H2002 C2006 0.929 . S
H2003 C2012 0.929 . S
C2004 H1998 0.949 1_455 S
C2004 C2005 1.381 . S
C2004 C2012 1.346 1_565 S
C2005 C2004 1.381 . S
C2005 C2013 1.433 1_565 S
C2006 H2002 0.929 . S
C2006 C2008 1.378 . S
C2006 C2010 1.350 . S
C2007 C2010 1.463 . S
C2007 C2012 1.350 . S
C2007 N2015 1.427 . S
C2008 H1999 0.930 . S
C2008 C2006 1.378 . S
C2008 C2009 1.367 . S
C2009 C2008 1.367 . S
C2009 C2011 1.433 . S
C2010 C2006 1.350 . S
C2010 C2007 1.463 . S
C2010 N2014 1.427 . S
C2011 H2001 0.929 . S
C2011 C2009 1.433 . S
C2011 N2014 1.384 . S
C2012 H2003 0.929 . S
C2012 C2004 1.346 1_545 S
C2012 C2007 1.350 . S
C2013 H2000 0.929 1_545 S
C2013 C2005 1.433 1_545 S
C2013 N2015 1.384 . S
N2014 C2010 1.427 . S
N2014 C2011 1.384 . S
N2015 C2007 1.427 . S
N2015 C2013 1.384 . S
H2016 C2022 0.930 . S
H2017 C2026 0.930 . S
H2018 C2031 0.929 . S
H2019 C2029 0.929 . S
H2020 C2024 0.929 . S
H2021 C2030 0.929 . S
C2022 H2016 0.930 . S
C2022 C2023 1.367 . S
C2022 C2030 1.378 . S
C2023 C2022 1.367 . S
C2023 C2031 1.433 . S
C2024 H2020 0.929 . S
C2024 C2026 1.378 . S
C2024 C2028 1.350 . S
C2025 C2028 1.463 . S
C2025 C2030 1.350 . S
C2025 N2033 1.427 . S
C2026 H2017 0.930 . S
C2026 C2024 1.378 . S
C2026 C2027 1.367 . S
C2027 C2026 1.367 . S
C2027 C2029 1.433 . S
C2028 C2024 1.350 . S
C2028 C2025 1.463 . S
C2028 N2032 1.427 . S
C2029 H2019 0.929 . S
C2029 C2027 1.433 . S
C2029 N2032 1.384 . S
C2030 H2021 0.929 . S
C2030 C2022 1.378 . S
C2030 C2025 1.350 . S
C2031 H2018 0.929 . S
C2031 C2023 1.433 . S
C2031 N2033 1.384 . S
N2032 C2028 1.427 . S
N2032 C2029 1.384 . S
N2033 C2025 1.427 . S
N2033 C2031 1.384 . S
H2034 C2040 0.930 . S
H2035 C2044 0.930 . S
H2036 C2049 0.929 . S
H2037 C2047 0.929 . S
H2038 C2042 0.929 . S
H2039 C2048 0.929 . S
C2040 H2034 0.930 . S
C2040 C2041 1.367 . S
C2040 C2048 1.378 . S
C2041 C2040 1.367 . S
C2041 C2049 1.433 . S
C2042 H2038 0.929 . S
C2042 C2044 1.378 1_655 S
C2042 C2046 1.350 . S
C2043 C2046 1.463 . S
C2043 C2048 1.350 . S
C2043 N2051 1.427 . S
C2044 H2035 0.930 . S
C2044 C2042 1.378 1_455 S
C2044 C2045 1.367 . S
C2045 C2044 1.367 . S
C2045 C2047 1.433 1_455 S
C2046 C2042 1.350 . S
C2046 C2043 1.463 . S
C2046 N2050 1.427 . S
C2047 H2037 0.929 . S
C2047 C2045 1.433 1_655 S
C2047 N2050 1.384 . S
C2048 H2039 0.929 . S
C2048 C2040 1.378 . S
C2048 C2043 1.350 . S
C2049 H2036 0.929 . S
C2049 C2041 1.433 . S
C2049 N2051 1.384 . S
N2050 C2046 1.427 . S
N2050 C2047 1.384 . S
N2051 C2043 1.427 . S
N2051 C2049 1.384 . S
H2052 C2058 0.930 . S
H2053 C2062 0.930 . S
H2054 C2067 0.929 . S
H2055 C2065 0.929 . S
H2056 C2060 0.929 . S
H2057 C2066 0.929 . S
C2058 H2052 0.930 . S
C2058 C2059 1.367 . S
C2058 C2066 1.378 . S
C2059 C2058 1.367 . S
C2059 C2067 1.433 . S
C2060 H2056 0.929 . S
C2060 C2062 1.378 . S
C2060 C2064 1.350 . S
C2061 C2064 1.463 . S
C2061 C2066 1.350 . S
C2061 N2069 1.427 . S
C2062 H2053 0.930 . S
C2062 C2060 1.378 . S
C2062 C2063 1.367 . S
C2063 C2062 1.367 . S
C2063 C2065 1.433 . S
C2064 C2060 1.350 . S
C2064 C2061 1.463 . S
C2064 N2068 1.427 . S
C2065 H2055 0.929 . S
C2065 C2063 1.433 . S
C2065 N2068 1.384 . S
C2066 H2057 0.929 . S
C2066 C2058 1.378 . S
C2066 C2061 1.350 . S
C2067 H2054 0.929 . S
C2067 C2059 1.433 . S
C2067 N2069 1.384 . S
N2068 C2064 1.427 . S
N2068 C2065 1.384 . S
N2069 C2061 1.427 . S
N2069 C2067 1.384 . S
H2070 C2076 0.930 . S
H2071 C2080 0.930 . S
H2072 C2085 0.929 . S
H2073 C2083 0.929 . S
H2074 C2078 0.929 . S
H2075 C2084 0.929 . S
C2076 H2070 0.930 . S
C2076 C2077 1.367 . S
C2076 C2084 1.378 1_655 S
C2077 C2076 1.367 . S
C2077 C2085 1.433 1_655 S
C2078 H2074 0.929 . S
C2078 C2080 1.378 . S
C2078 C2082 1.350 . S
C2079 C2082 1.463 . S
C2079 C2084 1.350 . S
C2079 N2087 1.427 . S
C2080 H2071 0.930 . S
C2080 C2078 1.378 . S
C2080 C2081 1.367 . S
C2081 C2080 1.367 . S
C2081 C2083 1.433 . S
C2082 C2078 1.350 . S
C2082 C2079 1.463 . S
C2082 N2086 1.427 . S
C2083 H2073 0.929 . S
C2083 C2081 1.433 . S
C2083 N2086 1.384 . S
C2084 H2075 0.929 . S
C2084 C2076 1.378 1_455 S
C2084 C2079 1.350 . S
C2085 H2072 0.929 . S
C2085 C2077 1.433 1_455 S
C2085 N2087 1.384 . S
N2086 C2082 1.427 . S
N2086 C2083 1.384 . S
N2087 C2079 1.427 . S
N2087 C2085 1.384 . S
H2088 C2094 0.930 . S
H2089 C2098 0.930 . S
H2090 C2103 0.929 . S
H2091 C2101 0.929 . S
H2092 C2096 0.929 . S
H2093 C2102 0.929 . S
C2094 H2088 0.930 . S
C2094 C2095 1.367 . S
C2094 C2102 1.378 . S
C2095 C2094 1.367 . S
C2095 C2103 1.433 . S
C2096 H2092 0.929 . S
C2096 C2098 1.378 . S
C2096 C2100 1.350 . S
C2097 C2100 1.463 . S
C2097 C2102 1.350 . S
C2097 N2105 1.427 . S
C2098 H2089 0.930 . S
C2098 C2096 1.378 . S
C2098 C2099 1.367 . S
C2099 C2098 1.367 . S
C2099 C2101 1.433 . S
C2100 C2096 1.350 . S
C2100 C2097 1.463 . S
C2100 N2104 1.427 . S
C2101 H2091 0.929 . S
C2101 C2099 1.433 . S
C2101 N2104 1.384 . S
C2102 H2093 0.929 . S
C2102 C2094 1.378 . S
C2102 C2097 1.350 . S
C2103 H2090 0.929 . S
C2103 C2095 1.433 . S
C2103 N2105 1.384 . S
N2104 C2100 1.427 . S
N2104 C2101 1.384 . S
N2105 C2097 1.427 . S
N2105 C2103 1.384 . S
H2106 C2112 0.930 . S
H2107 C2116 0.930 . S
H2108 C2121 0.929 . S
H2109 C2119 0.929 . S
H2110 C2114 0.929 . S
H2111 C2120 0.929 . S
C2112 H2106 0.930 . S
C2112 C2113 1.367 . S
C2112 C2120 1.378 . S
C2113 C2112 1.367 . S
C2113 C2121 1.433 . S
C2114 H2110 0.929 . S
C2114 C2116 1.378 . S
C2114 C2118 1.350 . S
C2115 C2118 1.463 . S
C2115 C2120 1.350 . S
C2115 N2123 1.427 . S
C2116 H2107 0.930 . S
C2116 C2114 1.378 . S
C2116 C2117 1.367 . S
C2117 C2116 1.367 . S
C2117 C2119 1.433 . S
C2118 C2114 1.350 . S
C2118 C2115 1.463 . S
C2118 N2122 1.427 . S
C2119 H2109 0.929 . S
C2119 C2117 1.433 . S
C2119 N2122 1.384 . S
C2120 H2111 0.929 . S
C2120 C2112 1.378 . S
C2120 C2115 1.350 . S
C2121 H2108 0.929 . S
C2121 C2113 1.433 . S
C2121 N2123 1.384 . S
N2122 C2118 1.427 . S
N2122 C2119 1.384 . S
N2123 C2115 1.427 . S
N2123 C2121 1.384 . S
H2124 C2130 0.930 . S
H2125 C2134 0.930 . S
H2126 C2139 0.929 . S
H2127 C2137 0.929 . S
H2128 C2132 0.929 . S
H2129 C2138 0.929 . S
C2130 H2124 0.930 . S
C2130 C2131 1.367 . S
C2130 C2138 1.378 . S
C2131 C2130 1.367 . S
C2131 C2139 1.433 . S
C2132 H2128 0.929 . S
C2132 C2134 1.378 . S
C2132 C2136 1.350 . S
C2133 C2136 1.463 . S
C2133 C2138 1.350 . S
C2133 N2141 1.427 . S
C2134 H2125 0.930 . S
C2134 C2132 1.378 . S
C2134 C2135 1.367 . S
C2135 C2134 1.367 . S
C2135 C2137 1.433 . S
C2136 C2132 1.350 . S
C2136 C2133 1.463 . S
C2136 N2140 1.427 . S
C2137 H2127 0.929 . S
C2137 C2135 1.433 . S
C2137 N2140 1.384 . S
C2138 H2129 0.929 . S
C2138 C2130 1.378 . S
C2138 C2133 1.350 . S
C2139 H2126 0.929 . S
C2139 C2131 1.433 . S
C2139 N2141 1.384 . S
N2140 C2136 1.427 . S
N2140 C2137 1.384 . S
N2141 C2133 1.427 . S
N2141 C2139 1.384 . S
H2142 C2148 0.930 . S
H2143 C2152 0.930 . S
H2144 C2157 0.929 . S
H2145 C2155 0.929 . S
H2146 C2150 0.929 . S
H2147 C2156 0.929 . S
C2148 H2142 0.930 . S
C2148 C2149 1.367 . S
C2148 C2156 1.378 . S
C2149 C2148 1.367 . S
C2149 C2157 1.433 . S
C2150 H2146 0.929 . S
C2150 C2152 1.378 . S
C2150 C2154 1.350 . S
C2151 C2154 1.463 . S
C2151 C2156 1.350 . S
C2151 N2159 1.427 . S
C2152 H2143 0.930 . S
C2152 C2150 1.378 . S
C2152 C2153 1.367 . S
C2153 C2152 1.367 . S
C2153 C2155 1.433 . S
C2154 C2150 1.350 . S
C2154 C2151 1.463 . S
C2154 N2158 1.427 . S
C2155 H2145 0.929 . S
C2155 C2153 1.433 . S
C2155 N2158 1.384 . S
C2156 H2147 0.929 . S
C2156 C2148 1.378 . S
C2156 C2151 1.350 . S
C2157 H2144 0.929 . S
C2157 C2149 1.433 . S
C2157 N2159 1.384 . S
N2158 C2154 1.427 . S
N2158 C2155 1.384 . S
N2159 C2151 1.427 . S
N2159 C2157 1.384 . S
H2160 C2166 0.930 . S
H2161 C2170 0.930 . S
H2162 C2175 0.929 . S
H2163 C2173 0.929 . S
H2164 C2168 0.929 . S
H2165 C2174 0.929 . S
C2166 H2160 0.930 . S
C2166 C2167 1.367 . S
C2166 C2174 1.378 . S
C2167 C2166 1.367 . S
C2167 C2175 1.433 . S
C2168 H2164 0.929 . S
C2168 C2170 1.378 . S
C2168 C2172 1.350 . S
C2169 C2172 1.463 . S
C2169 C2174 1.350 . S
C2169 N2177 1.427 . S
C2170 H2161 0.930 . S
C2170 C2168 1.378 . S
C2170 C2171 1.367 . S
C2171 C2170 1.367 . S
C2171 C2173 1.433 . S
C2172 C2168 1.350 . S
C2172 C2169 1.463 . S
C2172 N2176 1.427 . S
C2173 H2163 0.929 . S
C2173 C2171 1.433 . S
C2173 N2176 1.384 . S
C2174 H2165 0.929 . S
C2174 C2166 1.378 . S
C2174 C2169 1.350 . S
C2175 H2162 0.929 . S
C2175 C2167 1.433 . S
C2175 N2177 1.384 . S
N2176 C2172 1.427 . S
N2176 C2173 1.384 . S
N2177 C2169 1.427 . S
N2177 C2175 1.384 . S
H2178 C2184 0.930 . S
H2179 C2188 0.930 1_545 S
H2180 C2193 0.929 . S
H2181 C2191 0.929 . S
H2182 C2186 0.929 . S
H2183 C2192 0.929 . S
C2184 H2178 0.930 . S
C2184 C2185 1.367 . S
C2184 C2192 1.378 . S
C2185 C2184 1.367 . S
C2185 C2193 1.433 . S
C2186 H2182 0.929 . S
C2186 C2188 1.378 . S
C2186 C2190 1.350 . S
C2187 C2190 1.463 . S
C2187 C2192 1.350 . S
C2187 N2195 1.427 . S
C2188 H2179 0.930 1_565 S
C2188 C2186 1.378 . S
C2188 C2189 1.367 . S
C2189 C2188 1.367 . S
C2189 C2191 1.433 . S
C2190 C2186 1.350 . S
C2190 C2187 1.463 . S
C2190 N2194 1.427 . S
C2191 H2181 0.929 . S
C2191 C2189 1.433 . S
C2191 N2194 1.384 . S
C2192 H2183 0.929 . S
C2192 C2184 1.378 . S
C2192 C2187 1.350 . S
C2193 H2180 0.929 . S
C2193 C2185 1.433 . S
C2193 N2195 1.384 . S
N2194 C2190 1.427 . S
N2194 C2191 1.384 . S
N2195 C2187 1.427 . S
N2195 C2193 1.384 . S
H2196 C2202 0.930 . S
H2197 C2206 0.930 . S
H2198 C2211 0.929 . S
H2199 C2209 0.929 . S
H2200 C2204 0.929 . S
H2201 C2210 0.929 . S
C2202 H2196 0.930 . S
C2202 C2203 1.367 . S
C2202 C2210 1.378 . S
C2203 C2202 1.367 . S
C2203 C2211 1.433 . S
C2204 H2200 0.929 . S
C2204 C2206 1.378 . S
C2204 C2208 1.350 . S
C2205 C2208 1.463 . S
C2205 C2210 1.350 . S
C2205 N2213 1.427 . S
C2206 H2197 0.930 . S
C2206 C2204 1.378 . S
C2206 C2207 1.367 . S
C2207 C2206 1.367 . S
C2207 C2209 1.433 . S
C2208 C2204 1.350 . S
C2208 C2205 1.463 . S
C2208 N2212 1.427 . S
C2209 H2199 0.929 . S
C2209 C2207 1.433 . S
C2209 N2212 1.384 . S
C2210 H2201 0.929 . S
C2210 C2202 1.378 . S
C2210 C2205 1.350 . S
C2211 H2198 0.929 . S
C2211 C2203 1.433 . S
C2211 N2213 1.384 . S
N2212 C2208 1.427 . S
N2212 C2209 1.384 . S
N2213 C2205 1.427 . S
N2213 C2211 1.384 . S
H2214 C2220 0.930 . S
H2215 C2224 0.930 . S
H2216 C2229 0.929 . S
H2217 C2227 0.929 . S
H2218 C2222 0.929 . S
H2219 C2228 0.929 . S
C2220 H2214 0.930 . S
C2220 C2221 1.367 . S
C2220 C2228 1.378 . S
C2221 C2220 1.367 . S
C2221 C2229 1.433 . S
C2222 H2218 0.929 . S
C2222 C2224 1.378 . S
C2222 C2226 1.350 . S
C2223 C2226 1.463 . S
C2223 C2228 1.350 . S
C2223 N2231 1.427 . S
C2224 H2215 0.930 . S
C2224 C2222 1.378 . S
C2224 C2225 1.367 . S
C2225 C2224 1.367 . S
C2225 C2227 1.433 . S
C2226 C2222 1.350 . S
C2226 C2223 1.463 . S
C2226 N2230 1.427 . S
C2227 H2217 0.929 . S
C2227 C2225 1.433 . S
C2227 N2230 1.384 . S
C2228 H2219 0.929 . S
C2228 C2220 1.378 . S
C2228 C2223 1.350 . S
C2229 H2216 0.929 . S
C2229 C2221 1.433 . S
C2229 N2231 1.384 . S
N2230 C2226 1.427 . S
N2230 C2227 1.384 . S
N2231 C2223 1.427 . S
N2231 C2229 1.384 . S
H2232 C2238 0.930 . S
H2233 C2242 0.930 . S
H2234 C2247 0.929 . S
H2235 C2245 0.929 . S
H2236 C2240 0.929 . S
H2237 C2246 0.929 . S
C2238 H2232 0.930 . S
C2238 C2239 1.367 . S
C2238 C2246 1.378 . S
C2239 C2238 1.367 . S
C2239 C2247 1.433 . S
C2240 H2236 0.929 . S
C2240 C2242 1.378 . S
C2240 C2244 1.350 . S
C2241 C2244 1.463 . S
C2241 C2246 1.350 . S
C2241 N2249 1.427 . S
C2242 H2233 0.930 . S
C2242 C2240 1.378 . S
C2242 C2243 1.367 . S
C2243 C2242 1.367 . S
C2243 C2245 1.433 . S
C2244 C2240 1.350 . S
C2244 C2241 1.463 . S
C2244 N2248 1.427 . S
C2245 H2235 0.929 . S
C2245 C2243 1.433 . S
C2245 N2248 1.384 . S
C2246 H2237 0.929 . S
C2246 C2238 1.378 . S
C2246 C2241 1.350 . S
C2247 H2234 0.929 . S
C2247 C2239 1.433 . S
C2247 N2249 1.384 . S
N2248 C2244 1.427 . S
N2248 C2245 1.384 . S
N2249 C2241 1.427 . S
N2249 C2247 1.384 . S
H2250 C2256 0.930 1_545 S
H2251 C2260 0.930 . S
H2252 C2265 0.929 . S
H2253 C2263 0.929 . S
H2254 C2258 0.929 . S
H2255 C2264 0.963 . S
C2256 H2250 0.930 1_565 S
C2256 C2257 1.367 . S
C2256 C2264 1.378 . S
C2257 C2256 1.367 . S
C2257 C2265 1.433 . S
C2258 H2254 0.929 . S
C2258 C2260 1.378 . S
C2258 C2262 1.350 . S
C2259 C2262 1.463 . S
C2259 C2264 1.350 . S
C2259 N2267 1.427 . S
C2260 H2251 0.930 . S
C2260 C2258 1.378 . S
C2260 C2261 1.367 . S
C2261 C2260 1.367 . S
C2261 C2263 1.433 . S
C2262 C2258 1.350 . S
C2262 C2259 1.463 . S
C2262 N2266 1.427 . S
C2263 H2253 0.929 . S
C2263 C2261 1.433 . S
C2263 N2266 1.384 . S
C2264 H2255 0.963 . S
C2264 C2256 1.378 . S
C2264 C2259 1.350 . S
C2265 H2252 0.929 . S
C2265 C2257 1.433 . S
C2265 N2267 1.384 . S
N2266 C2262 1.427 . S
N2266 C2263 1.384 . S
N2267 C2259 1.427 . S
N2267 C2265 1.384 . S
H2268 C2274 0.930 . S
H2269 C2278 0.930 . S
H2270 C2283 0.929 . S
H2271 C2281 0.929 . S
H2272 C2276 0.929 . S
H2273 C2282 0.929 . S
C2274 H2268 0.930 . S
C2274 C2275 1.367 . S
C2274 C2282 1.378 . S
C2275 C2274 1.367 . S
C2275 C2283 1.433 . S
C2276 H2272 0.929 . S
C2276 C2278 1.378 . S
C2276 C2280 1.350 . S
C2277 C2280 1.463 . S
C2277 C2282 1.350 . S
C2277 N2285 1.427 . S
C2278 H2269 0.930 . S
C2278 C2276 1.378 . S
C2278 C2279 1.367 . S
C2279 C2278 1.367 . S
C2279 C2281 1.433 . S
C2280 C2276 1.350 . S
C2280 C2277 1.463 . S
C2280 N2284 1.427 . S
C2281 H2271 0.929 . S
C2281 C2279 1.433 . S
C2281 N2284 1.384 . S
C2282 H2273 0.929 . S
C2282 C2274 1.378 . S
C2282 C2277 1.350 . S
C2283 H2270 0.929 . S
C2283 C2275 1.433 . S
C2283 N2285 1.384 . S
N2284 C2280 1.427 . S
N2284 C2281 1.384 . S
N2285 C2277 1.427 . S
N2285 C2283 1.384 . S
H2286 C2292 0.930 . S
H2287 C2296 0.930 . S
H2288 C2301 0.929 . S
H2289 C2299 0.929 . S
H2290 C2294 0.929 . S
H2291 C2300 0.929 . S
C2292 H2286 0.930 . S
C2292 C2293 1.367 . S
C2292 C2300 1.378 . S
C2293 C2292 1.367 . S
C2293 C2301 1.433 . S
C2294 H2290 0.929 . S
C2294 C2296 1.378 . S
C2294 C2298 1.350 . S
C2295 C2298 1.463 . S
C2295 C2300 1.350 . S
C2295 N2303 1.427 . S
C2296 H2287 0.930 . S
C2296 C2294 1.378 . S
C2296 C2297 1.367 . S
C2297 C2296 1.367 . S
C2297 C2299 1.433 . S
C2298 C2294 1.350 . S
C2298 C2295 1.463 . S
C2298 N2302 1.427 . S
C2299 H2289 0.929 . S
C2299 C2297 1.433 . S
C2299 N2302 1.384 . S
C2300 H2291 0.929 . S
C2300 C2292 1.378 . S
C2300 C2295 1.350 . S
C2301 H2288 0.929 . S
C2301 C2293 1.433 . S
C2301 N2303 1.384 . S
N2302 C2298 1.427 . S
N2302 C2299 1.384 . S
N2303 C2295 1.427 . S
N2303 C2301 1.384 . S
H2304 C2310 0.930 . S
H2305 C2314 0.930 . S
H2306 C2319 0.929 . S
H2307 C2317 0.929 . S
H2308 C2312 0.929 . S
H2309 C2318 0.929 . S
C2310 H2304 0.930 . S
C2310 C2311 1.367 . S
C2310 C2318 1.378 . S
C2311 C2310 1.367 . S
C2311 C2319 1.433 . S
C2312 H2308 0.929 . S
C2312 C2314 1.378 . S
C2312 C2316 1.350 . S
C2313 C2316 1.463 . S
C2313 C2318 1.350 . S
C2313 N2321 1.427 . S
C2314 H2305 0.930 . S
C2314 C2312 1.378 . S
C2314 C2315 1.367 . S
C2315 C2314 1.367 . S
C2315 C2317 1.433 . S
C2316 C2312 1.350 . S
C2316 C2313 1.463 . S
C2316 N2320 1.427 . S
C2317 H2307 0.929 . S
C2317 C2315 1.433 . S
C2317 N2320 1.384 . S
C2318 H2309 0.929 . S
C2318 C2310 1.378 . S
C2318 C2313 1.350 . S
C2319 H2306 0.929 . S
C2319 C2311 1.433 . S
C2319 N2321 1.384 . S
N2320 C2316 1.427 . S
N2320 C2317 1.384 . S
N2321 C2313 1.427 . S
N2321 C2319 1.384 . S
H2322 C2328 0.930 . S
H2323 C2332 0.930 . S
H2324 C2337 0.929 . S
H2325 C2335 0.929 . S
H2326 C2330 0.929 . S
H2327 C2336 0.929 . S
C2328 H2322 0.930 . S
C2328 C2329 1.367 . S
C2328 C2336 1.378 . S
C2329 C2328 1.367 . S
C2329 C2337 1.433 . S
C2330 H2326 0.929 . S
C2330 C2332 1.378 . S
C2330 C2334 1.350 . S
C2331 C2334 1.463 . S
C2331 C2336 1.350 . S
C2331 N2339 1.427 . S
C2332 H2323 0.930 . S
C2332 C2330 1.378 . S
C2332 C2333 1.367 . S
C2333 C2332 1.367 . S
C2333 C2335 1.433 . S
C2334 C2330 1.350 . S
C2334 C2331 1.463 . S
C2334 N2338 1.427 . S
C2335 H2325 0.929 . S
C2335 C2333 1.433 . S
C2335 N2338 1.384 . S
C2336 H2327 0.929 . S
C2336 C2328 1.378 . S
C2336 C2331 1.350 . S
C2337 H2324 0.929 . S
C2337 C2329 1.433 . S
C2337 N2339 1.384 . S
N2338 C2334 1.427 . S
N2338 C2335 1.384 . S
N2339 C2331 1.427 . S
N2339 C2337 1.384 . S
H2340 C2346 0.930 . S
H2341 C2350 0.930 . S
H2342 C2355 0.929 1_565 S
H2343 C2353 0.929 . S
H2344 C2348 0.929 . S
H2345 C2354 0.929 . S
C2346 H2340 0.930 . S
C2346 C2347 1.367 . S
C2346 C2354 1.378 1_565 S
C2347 C2346 1.367 . S
C2347 C2355 1.433 1_565 S
C2348 H2344 0.929 . S
C2348 C2350 1.378 . S
C2348 C2352 1.350 . S
C2349 C2352 1.463 . S
C2349 C2354 1.350 . S
C2349 N2357 1.427 . S
C2350 H2341 0.930 . S
C2350 C2348 1.378 . S
C2350 C2351 1.367 . S
C2351 C2350 1.367 . S
C2351 C2353 1.433 . S
C2352 C2348 1.350 . S
C2352 C2349 1.463 . S
C2352 N2356 1.427 . S
C2353 H2343 0.929 . S
C2353 C2351 1.433 . S
C2353 N2356 1.384 . S
C2354 H2345 0.929 . S
C2354 C2346 1.378 1_545 S
C2354 C2349 1.350 . S
C2355 H2342 0.929 1_545 S
C2355 C2347 1.433 1_545 S
C2355 N2357 1.384 . S
N2356 C2352 1.427 . S
N2356 C2353 1.384 . S
N2357 C2349 1.427 . S
N2357 C2355 1.384 . S
H2358 C2364 0.930 . S
H2359 C2368 0.930 . S
H2360 C2373 0.929 . S
H2361 C2371 0.929 . S
H2362 C2366 0.929 . S
H2363 C2372 0.929 . S
C2364 H2358 0.930 . S
C2364 C2365 1.367 . S
C2364 C2372 1.378 . S
C2365 C2364 1.367 . S
C2365 C2373 1.433 . S
C2366 H2362 0.929 . S
C2366 C2368 1.378 . S
C2366 C2370 1.350 . S
C2367 C2370 1.463 . S
C2367 C2372 1.350 . S
C2367 N2375 1.427 . S
C2368 H2359 0.930 . S
C2368 C2366 1.378 . S
C2368 C2369 1.367 . S
C2369 C2368 1.367 . S
C2369 C2371 1.433 . S
C2370 C2366 1.350 . S
C2370 C2367 1.463 . S
C2370 N2374 1.427 . S
C2371 H2361 0.929 . S
C2371 C2369 1.433 . S
C2371 N2374 1.384 . S
C2372 H2363 0.929 . S
C2372 C2364 1.378 . S
C2372 C2367 1.350 . S
C2373 H2360 0.929 . S
C2373 C2365 1.433 . S
C2373 N2375 1.384 . S
N2374 C2370 1.427 . S
N2374 C2371 1.384 . S
N2375 C2367 1.427 . S
N2375 C2373 1.384 . S
H2376 C2382 0.930 . S
H2377 C2386 0.930 . S
H2378 C2391 0.929 . S
H2379 C2389 0.929 . S
H2380 C2384 0.929 . S
H2381 C2390 0.929 . S
C2382 H2376 0.930 . S
C2382 C2383 1.367 . S
C2382 C2390 1.378 1_545 S
C2383 C2382 1.367 . S
C2383 C2391 1.433 1_545 S
C2384 H2380 0.929 . S
C2384 C2386 1.378 . S
C2384 C2388 1.350 . S
C2385 C2388 1.463 . S
C2385 C2390 1.350 . S
C2385 N2393 1.427 . S
C2386 H2377 0.930 . S
C2386 C2384 1.378 . S
C2386 C2387 1.367 . S
C2387 C2386 1.367 . S
C2387 C2389 1.433 . S
C2388 C2384 1.350 . S
C2388 C2385 1.463 . S
C2388 N2392 1.427 . S
C2389 H2379 0.929 . S
C2389 C2387 1.433 . S
C2389 N2392 1.384 . S
C2390 H2381 0.929 . S
C2390 C2382 1.378 1_565 S
C2390 C2385 1.350 . S
C2391 H2378 0.929 . S
C2391 C2383 1.433 1_565 S
C2391 N2393 1.384 . S
N2392 C2388 1.427 . S
N2392 C2389 1.384 . S
N2393 C2385 1.427 . S
N2393 C2391 1.384 . S
H2394 C2400 0.930 . S
H2395 C2404 0.930 . S
H2396 C2409 0.929 . S
H2397 C2407 0.929 . S
H2398 C2402 0.929 . S
H2399 C2408 0.929 . S
C2400 H2394 0.930 . S
C2400 C2401 1.367 . S
C2400 C2408 1.378 . S
C2401 C2400 1.367 . S
C2401 C2409 1.433 . S
C2402 H2398 0.929 . S
C2402 C2404 1.378 . S
C2402 C2406 1.350 . S
C2403 C2406 1.463 . S
C2403 C2408 1.350 . S
C2403 N2411 1.427 . S
C2404 H2395 0.930 . S
C2404 C2402 1.378 . S
C2404 C2405 1.367 . S
C2405 C2404 1.367 . S
C2405 C2407 1.433 . S
C2406 C2402 1.350 . S
C2406 C2403 1.463 . S
C2406 N2410 1.427 . S
C2407 H2397 0.929 . S
C2407 C2405 1.433 . S
C2407 N2410 1.384 . S
C2408 H2399 0.929 . S
C2408 C2400 1.378 . S
C2408 C2403 1.350 . S
C2409 H2396 0.929 . S
C2409 C2401 1.433 . S
C2409 N2411 1.384 . S
N2410 C2406 1.427 . S
N2410 C2407 1.384 . S
N2411 C2403 1.427 . S
N2411 C2409 1.384 . S
H2412 C2418 0.930 . S
H2413 C2422 0.930 . S
H2414 C2427 0.929 . S
H2415 C2425 0.929 . S
H2416 C2420 0.929 . S
H2417 C2426 0.929 . S
C2418 H2412 0.930 . S
C2418 C2419 1.367 . S
C2418 C2426 1.378 . S
C2419 C2418 1.367 . S
C2419 C2427 1.433 . S
C2420 H2416 0.929 . S
C2420 C2422 1.378 . S
C2420 C2424 1.350 . S
C2421 C2424 1.463 . S
C2421 C2426 1.350 . S
C2421 N2429 1.427 . S
C2422 H2413 0.930 . S
C2422 C2420 1.378 . S
C2422 C2423 1.367 1_565 S
C2423 C2422 1.367 1_545 S
C2423 C2425 1.433 . S
C2424 C2420 1.350 . S
C2424 C2421 1.463 . S
C2424 N2428 1.427 . S
C2425 H2415 0.929 . S
C2425 C2423 1.433 . S
C2425 N2428 1.384 1_545 S
C2426 H2417 0.929 . S
C2426 C2418 1.378 . S
C2426 C2421 1.350 . S
C2427 H2414 0.929 . S
C2427 C2419 1.433 . S
C2427 N2429 1.384 . S
N2428 C2424 1.427 . S
N2428 C2425 1.384 1_565 S
N2429 C2421 1.427 . S
N2429 C2427 1.384 . S
H2430 C2436 0.930 . S
H2431 C2440 0.930 . S
H2432 C2445 0.929 . S
H2433 C2443 0.929 . S
H2434 C2438 0.929 . S
H2435 C2444 0.929 . S
C2436 H2430 0.930 . S
C2436 C2437 1.367 . S
C2436 C2444 1.378 . S
C2437 C2436 1.367 . S
C2437 C2445 1.433 . S
C2438 H2434 0.929 . S
C2438 C2440 1.378 . S
C2438 C2442 1.350 . S
C2439 C2442 1.463 . S
C2439 C2444 1.350 . S
C2439 N2447 1.427 . S
C2440 H2431 0.930 . S
C2440 C2438 1.378 . S
C2440 C2441 1.367 . S
C2441 C2440 1.367 . S
C2441 C2443 1.433 . S
C2442 C2438 1.350 . S
C2442 C2439 1.463 . S
C2442 N2446 1.427 . S
C2443 H2433 0.929 . S
C2443 C2441 1.433 . S
C2443 N2446 1.384 . S
C2444 H2435 0.929 . S
C2444 C2436 1.378 . S
C2444 C2439 1.350 . S
C2445 H2432 0.929 . S
C2445 C2437 1.433 . S
C2445 N2447 1.384 . S
N2446 C2442 1.427 . S
N2446 C2443 1.384 . S
N2447 C2439 1.427 . S
N2447 C2445 1.384 . S
H2448 C2454 0.930 . S
H2449 C2458 0.930 . S
H2450 C2463 0.929 . S
H2451 C2461 0.929 . S
H2452 C2456 0.929 1_455 S
H2453 C2462 0.929 1_655 S
C2454 H2448 0.930 . S
C2454 C2455 1.367 . S
C2454 C2462 1.378 . S
C2455 C2454 1.367 . S
C2455 C2463 1.433 . S
C2456 H2452 0.929 1_655 S
C2456 C2458 1.378 . S
C2456 C2460 1.350 . S
C2457 C2460 1.463 1_455 S
C2457 C2462 1.350 . S
C2457 N2465 1.427 . S
C2458 H2449 0.930 . S
C2458 C2456 1.378 . S
C2458 C2459 1.367 . S
C2459 C2458 1.367 . S
C2459 C2461 1.433 . S
C2460 C2456 1.350 . S
C2460 C2457 1.463 1_655 S
C2460 N2464 1.427 . S
C2461 H2451 0.929 . S
C2461 C2459 1.433 . S
C2461 N2464 1.384 . S
C2462 H2453 0.929 1_455 S
C2462 C2454 1.378 . S
C2462 C2457 1.350 . S
C2463 H2450 0.929 . S
C2463 C2455 1.433 . S
C2463 N2465 1.384 . S
N2464 C2460 1.427 . S
N2464 C2461 1.384 . S
N2465 C2457 1.427 . S
N2465 C2463 1.384 . S
H2466 C2472 0.930 . S
H2467 C2476 0.930 . S
H2468 C2481 0.929 . S
H2469 C2479 0.929 . S
H2470 C2474 0.929 . S
H2471 C2480 0.929 . S
C2472 H2466 0.930 . S
C2472 C2473 1.367 . S
C2472 C2480 1.378 . S
C2473 C2472 1.367 . S
C2473 C2481 1.433 . S
C2474 H2470 0.929 . S
C2474 C2476 1.378 . S
C2474 C2478 1.350 . S
C2475 C2478 1.463 . S
C2475 C2480 1.350 . S
C2475 N2483 1.427 . S
C2476 H2467 0.930 . S
C2476 C2474 1.378 . S
C2476 C2477 1.367 . S
C2477 C2476 1.367 . S
C2477 C2479 1.433 . S
C2478 C2474 1.350 . S
C2478 C2475 1.463 . S
C2478 N2482 1.427 . S
C2479 H2469 0.929 . S
C2479 C2477 1.433 . S
C2479 N2482 1.384 . S
C2480 H2471 0.929 . S
C2480 C2472 1.378 . S
C2480 C2475 1.350 . S
C2481 H2468 0.929 . S
C2481 C2473 1.433 . S
C2481 N2483 1.384 . S
N2482 C2478 1.427 . S
N2482 C2479 1.384 . S
N2483 C2475 1.427 . S
N2483 C2481 1.384 . S
H2484 C2490 0.930 . S
H2485 C2494 0.930 . S
H2486 C2499 0.929 . S
H2487 C2497 0.929 . S
H2488 C2492 0.929 1_655 S
H2489 C2498 0.929 1_455 S
C2490 H2484 0.930 . S
C2490 C2491 1.367 . S
C2490 C2498 1.378 . S
C2491 C2490 1.367 . S
C2491 C2499 1.433 . S
C2492 H2488 0.929 1_455 S
C2492 C2494 1.378 . S
C2492 C2496 1.350 . S
C2493 C2496 1.463 1_655 S
C2493 C2498 1.350 . S
C2493 N2501 1.427 . S
C2494 H2485 0.930 . S
C2494 C2492 1.378 . S
C2494 C2495 1.367 . S
C2495 C2494 1.367 . S
C2495 C2497 1.433 . S
C2496 C2492 1.350 . S
C2496 C2493 1.463 1_455 S
C2496 N2500 1.427 . S
C2497 H2487 0.929 . S
C2497 C2495 1.433 . S
C2497 N2500 1.384 . S
C2498 H2489 0.929 1_655 S
C2498 C2490 1.378 . S
C2498 C2493 1.350 . S
C2499 H2486 0.929 . S
C2499 C2491 1.433 . S
C2499 N2501 1.384 . S
N2500 C2496 1.427 . S
N2500 C2497 1.384 . S
N2501 C2493 1.427 . S
N2501 C2499 1.384 . S
H2502 C2508 0.930 . S
H2503 C2512 0.930 . S
H2504 C2517 0.929 . S
H2505 C2515 0.929 . S
H2506 C2510 0.929 . S
H2507 C2516 0.929 . S
C2508 H2502 0.930 . S
C2508 C2509 1.367 . S
C2508 C2516 1.378 . S
C2509 C2508 1.367 . S
C2509 C2517 1.433 . S
C2510 H2506 0.929 . S
C2510 C2512 1.378 . S
C2510 C2514 1.350 . S
C2511 C2514 1.463 1_655 S
C2511 C2516 1.350 . S
C2511 N2519 1.427 . S
C2512 H2503 0.930 . S
C2512 C2510 1.378 . S
C2512 C2513 1.367 . S
C2513 C2512 1.367 . S
C2513 C2515 1.433 . S
C2514 C2510 1.350 . S
C2514 C2511 1.463 1_455 S
C2514 N2518 1.427 . S
C2515 H2505 0.929 . S
C2515 C2513 1.433 . S
C2515 N2518 1.384 . S
C2516 H2507 0.929 . S
C2516 C2508 1.378 . S
C2516 C2511 1.350 . S
C2517 H2504 0.929 . S
C2517 C2509 1.433 . S
C2517 N2519 1.384 . S
N2518 C2514 1.427 . S
N2518 C2515 1.384 . S
N2519 C2511 1.427 . S
N2519 C2517 1.384 . S
H2520 C2526 0.930 . S
H2521 C2530 0.930 . S
H2522 C2535 0.929 . S
H2523 C2533 0.929 . S
H2524 C2528 0.929 . S
H2525 C2534 0.929 . S
C2526 H2520 0.930 . S
C2526 C2527 1.367 . S
C2526 C2534 1.378 . S
C2527 C2526 1.367 . S
C2527 C2535 1.433 . S
C2528 H2524 0.929 . S
C2528 C2530 1.378 . S
C2528 C2532 1.350 . S
C2529 C2532 1.463 1_565 S
C2529 C2534 1.350 . S
C2529 N2537 1.427 . S
C2530 H2521 0.930 . S
C2530 C2528 1.378 . S
C2530 C2531 1.367 . S
C2531 C2530 1.367 . S
C2531 C2533 1.433 . S
C2532 C2528 1.350 . S
C2532 C2529 1.463 1_545 S
C2532 N2536 1.427 . S
C2533 H2523 0.929 . S
C2533 C2531 1.433 . S
C2533 N2536 1.384 . S
C2534 H2525 0.929 . S
C2534 C2526 1.378 . S
C2534 C2529 1.350 . S
C2535 H2522 0.929 . S
C2535 C2527 1.433 . S
C2535 N2537 1.384 . S
N2536 C2532 1.427 . S
N2536 C2533 1.384 . S
N2537 C2529 1.427 . S
N2537 C2535 1.384 . S
H2538 C2544 0.930 . S
H2539 C2548 0.930 . S
H2540 C2553 0.929 . S
H2541 C2551 0.929 . S
H2542 C2546 0.929 . S
H2543 C2552 0.929 . S
C2544 H2538 0.930 . S
C2544 C2545 1.367 . S
C2544 C2552 1.378 . S
C2545 C2544 1.367 . S
C2545 C2553 1.433 . S
C2546 H2542 0.929 . S
C2546 C2548 1.378 . S
C2546 C2550 1.350 . S
C2547 C2550 1.463 1_556 S
C2547 C2552 1.350 . S
C2547 N2555 1.427 . S
C2548 H2539 0.930 . S
C2548 C2546 1.378 . S
C2548 C2549 1.367 . S
C2549 C2548 1.367 . S
C2549 C2551 1.433 . S
C2550 C2546 1.350 . S
C2550 C2547 1.463 1_554 S
C2550 N2554 1.427 . S
C2551 H2541 0.929 . S
C2551 C2549 1.433 . S
C2551 N2554 1.384 . S
C2552 H2543 0.929 . S
C2552 C2544 1.378 . S
C2552 C2547 1.350 . S
C2553 H2540 0.929 . S
C2553 C2545 1.433 . S
C2553 N2555 1.384 . S
N2554 C2550 1.427 . S
N2554 C2551 1.384 . S
N2555 C2547 1.427 . S
N2555 C2553 1.384 . S
H2556 C2562 0.930 . S
H2557 C2566 0.930 . S
H2558 C2571 0.929 . S
H2559 C2569 0.929 . S
H2560 C2564 0.929 . S
H2561 C2570 0.929 . S
C2562 H2556 0.930 . S
C2562 C2563 1.367 . S
C2562 C2570 1.378 . S
C2563 C2562 1.367 . S
C2563 C2571 1.433 . S
C2564 H2560 0.929 . S
C2564 C2566 1.378 . S
C2564 C2568 1.350 . S
C2565 C2568 1.463 . S
C2565 C2570 1.350 . S
C2565 N2573 1.427 . S
C2566 H2557 0.930 . S
C2566 C2564 1.378 . S
C2566 C2567 1.367 . S
C2567 C2566 1.367 . S
C2567 C2569 1.433 . S
C2568 C2564 1.350 . S
C2568 C2565 1.463 . S
C2568 N2572 1.427 . S
C2569 H2559 0.929 . S
C2569 C2567 1.433 . S
C2569 N2572 1.384 . S
C2570 H2561 0.929 . S
C2570 C2562 1.378 . S
C2570 C2565 1.350 . S
C2571 H2558 0.929 . S
C2571 C2563 1.433 . S
C2571 N2573 1.384 . S
N2572 C2568 1.427 . S
N2572 C2569 1.384 . S
N2573 C2565 1.427 . S
N2573 C2571 1.384 . S
H2574 C2580 0.930 . S
H2575 C2584 0.930 . S
H2576 C2589 0.929 . S
H2577 C2587 0.929 . S
H2578 C2582 0.929 . S
H2579 C2588 0.929 . S
C2580 H2574 0.930 . S
C2580 C2581 1.367 . S
C2580 C2588 1.378 . S
C2581 C2580 1.367 . S
C2581 C2589 1.433 . S
C2582 H2578 0.929 . S
C2582 C2584 1.378 . S
C2582 C2586 1.350 . S
C2583 C2586 1.463 1_554 S
C2583 C2588 1.350 . S
C2583 N2591 1.427 . S
C2584 H2575 0.930 . S
C2584 C2582 1.378 . S
C2584 C2585 1.367 . S
C2585 C2584 1.367 . S
C2585 C2587 1.433 . S
C2586 C2582 1.350 . S
C2586 C2583 1.463 1_556 S
C2586 N2590 1.427 . S
C2587 H2577 0.929 . S
C2587 C2585 1.433 . S
C2587 N2590 1.384 . S
C2588 H2579 0.929 . S
C2588 C2580 1.378 . S
C2588 C2583 1.350 . S
C2589 H2576 0.929 . S
C2589 C2581 1.433 . S
C2589 N2591 1.384 . S
N2590 C2586 1.427 . S
N2590 C2587 1.384 . S
N2591 C2583 1.427 . S
N2591 C2589 1.384 . S
H2592 C2598 0.930 . S
H2593 C2602 0.930 . S
H2594 C2607 0.929 . S
H2595 C2605 0.929 . S
H2596 C2600 0.929 . S
H2597 C2606 0.929 . S
C2598 H2592 0.930 . S
C2598 C2599 1.367 . S
C2598 C2606 1.378 . S
C2599 C2598 1.367 . S
C2599 C2607 1.433 . S
C2600 H2596 0.929 . S
C2600 C2602 1.378 . S
C2600 C2604 1.350 . S
C2601 C2604 1.463 1_556 S
C2601 C2606 1.350 . S
C2601 N2609 1.427 . S
C2602 H2593 0.930 . S
C2602 C2600 1.378 . S
C2602 C2603 1.367 . S
C2603 C2602 1.367 . S
C2603 C2605 1.433 . S
C2604 C2600 1.350 . S
C2604 C2601 1.463 1_554 S
C2604 N2608 1.427 . S
C2605 H2595 0.929 . S
C2605 C2603 1.433 . S
C2605 N2608 1.384 . S
C2606 H2597 0.929 . S
C2606 C2598 1.378 . S
C2606 C2601 1.350 . S
C2607 H2594 0.929 . S
C2607 C2599 1.433 . S
C2607 N2609 1.384 . S
N2608 C2604 1.427 . S
N2608 C2605 1.384 . S
N2609 C2601 1.427 . S
N2609 C2607 1.384 . S
H2610 C2616 0.930 . S
H2611 C2620 0.930 . S
H2612 C2625 0.929 . S
H2613 C2623 0.929 . S
H2614 C2618 0.929 . S
H2615 C2624 0.929 . S
C2616 H2610 0.930 . S
C2616 C2617 1.367 . S
C2616 C2624 1.378 . S
C2617 C2616 1.367 . S
C2617 C2625 1.433 . S
C2618 H2614 0.929 . S
C2618 C2620 1.378 . S
C2618 C2622 1.350 . S
C2619 C2622 1.463 . S
C2619 C2624 1.350 . S
C2619 N2627 1.427 . S
C2620 H2611 0.930 . S
C2620 C2618 1.378 . S
C2620 C2621 1.367 . S
C2621 C2620 1.367 . S
C2621 C2623 1.433 . S
C2622 C2618 1.350 . S
C2622 C2619 1.463 . S
C2622 N2626 1.427 . S
C2623 H2613 0.929 . S
C2623 C2621 1.433 . S
C2623 N2626 1.384 . S
C2624 H2615 0.929 . S
C2624 C2616 1.378 . S
C2624 C2619 1.350 . S
C2625 H2612 0.929 . S
C2625 C2617 1.433 . S
C2625 N2627 1.384 . S
N2626 C2622 1.427 . S
N2626 C2623 1.384 . S
N2627 C2619 1.427 . S
N2627 C2625 1.384 . S
H2628 C2634 0.930 . S
H2629 C2638 0.930 . S
H2630 C2643 0.929 . S
H2631 C2641 0.929 . S
H2632 C2636 0.929 . S
H2633 C2642 0.929 . S
C2634 H2628 0.930 . S
C2634 C2635 1.367 . S
C2634 C2642 1.378 . S
C2635 C2634 1.367 . S
C2635 C2643 1.433 . S
C2636 H2632 0.929 . S
C2636 C2638 1.378 . S
C2636 C2640 1.350 . S
C2637 C2640 1.463 . S
C2637 C2642 1.350 . S
C2637 N2645 1.427 . S
C2638 H2629 0.930 . S
C2638 C2636 1.378 . S
C2638 C2639 1.367 . S
C2639 C2638 1.367 . S
C2639 C2641 1.433 . S
C2640 C2636 1.350 . S
C2640 C2637 1.463 . S
C2640 N2644 1.427 . S
C2641 H2631 0.929 . S
C2641 C2639 1.433 . S
C2641 N2644 1.384 . S
C2642 H2633 0.929 . S
C2642 C2634 1.378 . S
C2642 C2637 1.350 . S
C2643 H2630 0.929 . S
C2643 C2635 1.433 . S
C2643 N2645 1.384 . S
N2644 C2640 1.427 . S
N2644 C2641 1.384 . S
N2645 C2637 1.427 . S
N2645 C2643 1.384 . S
H2646 C2652 0.930 . S
H2647 C2656 0.930 . S
H2648 C2661 0.929 . S
H2649 C2659 0.929 . S
H2650 C2654 0.929 . S
H2651 C2660 0.929 . S
C2652 H2646 0.930 . S
C2652 C2653 1.367 . S
C2652 C2660 1.378 . S
C2653 C2652 1.367 . S
C2653 C2661 1.433 . S
C2654 H2650 0.929 . S
C2654 C2656 1.378 . S
C2654 C2658 1.350 . S
C2655 C2658 1.463 . S
C2655 C2660 1.350 . S
C2655 N2663 1.427 . S
C2656 H2647 0.930 . S
C2656 C2654 1.378 . S
C2656 C2657 1.367 . S
C2657 C2656 1.367 . S
C2657 C2659 1.433 . S
C2658 C2654 1.350 . S
C2658 C2655 1.463 . S
C2658 N2662 1.427 . S
C2659 H2649 0.929 . S
C2659 C2657 1.433 . S
C2659 N2662 1.384 . S
C2660 H2651 0.929 . S
C2660 C2652 1.378 . S
C2660 C2655 1.350 . S
C2661 H2648 0.929 . S
C2661 C2653 1.433 . S
C2661 N2663 1.384 . S
N2662 C2658 1.427 . S
N2662 C2659 1.384 . S
N2663 C2655 1.427 . S
N2663 C2661 1.384 . S
H2664 C2670 0.930 . S
H2665 C2674 0.930 . S
H2666 C2679 0.929 . S
H2667 C2677 0.929 . S
H2668 C2672 0.929 . S
H2669 C2678 0.929 . S
C2670 H2664 0.930 . S
C2670 C2671 1.367 . S
C2670 C2678 1.378 . S
C2671 C2670 1.367 . S
C2671 C2679 1.433 . S
C2672 H2668 0.929 . S
C2672 C2674 1.378 . S
C2672 C2676 1.350 . S
C2673 C2676 1.463 . S
C2673 C2678 1.350 . S
C2673 N2681 1.427 . S
C2674 H2665 0.930 . S
C2674 C2672 1.378 . S
C2674 C2675 1.367 . S
C2675 C2674 1.367 . S
C2675 C2677 1.433 . S
C2676 C2672 1.350 . S
C2676 C2673 1.463 . S
C2676 N2680 1.427 . S
C2677 H2667 0.929 . S
C2677 C2675 1.433 . S
C2677 N2680 1.384 . S
C2678 H2669 0.929 . S
C2678 C2670 1.378 . S
C2678 C2673 1.350 . S
C2679 H2666 0.929 . S
C2679 C2671 1.433 . S
C2679 N2681 1.384 . S
N2680 C2676 1.427 . S
N2680 C2677 1.384 . S
N2681 C2673 1.427 . S
N2681 C2679 1.384 . S
H2682 C2688 0.930 . S
H2683 C2692 0.930 . S
H2684 C2697 0.929 . S
H2685 C2695 0.929 . S
H2686 C2690 0.929 . S
H2687 C2696 0.929 . S
C2688 H2682 0.930 . S
C2688 C2689 1.367 . S
C2688 C2696 1.378 1_545 S
C2689 C2688 1.367 . S
C2689 C2697 1.433 . S
C2690 H2686 0.929 . S
C2690 C2692 1.378 1_545 S
C2690 C2694 1.350 1_545 S
C2691 C2694 1.463 1_545 S
C2691 C2696 1.350 1_545 S
C2691 N2699 1.427 . S
C2692 H2683 0.930 . S
C2692 C2690 1.378 1_565 S
C2692 C2693 1.367 . S
C2693 C2692 1.367 . S
C2693 C2695 1.433 . S
C2694 C2690 1.350 1_565 S
C2694 C2691 1.463 1_565 S
C2694 N2698 1.427 . S
C2695 H2685 0.929 . S
C2695 C2693 1.433 . S
C2695 N2698 1.384 . S
C2696 H2687 0.929 . S
C2696 C2688 1.378 1_565 S
C2696 C2691 1.350 1_565 S
C2697 H2684 0.929 . S
C2697 C2689 1.433 . S
C2697 N2699 1.384 . S
N2698 C2694 1.427 . S
N2698 C2695 1.384 . S
N2699 C2691 1.427 . S
N2699 C2697 1.384 . S
H2700 C2706 0.930 . S
H2701 C2710 0.930 . S
H2702 C2715 0.929 . S
H2703 C2713 0.929 . S
H2704 C2708 0.929 . S
H2705 C2714 0.929 . S
C2706 H2700 0.930 . S
C2706 C2707 1.367 . S
C2706 C2714 1.378 . S
C2707 C2706 1.367 . S
C2707 C2715 1.433 . S
C2708 H2704 0.929 . S
C2708 C2710 1.378 . S
C2708 C2712 1.350 . S
C2709 C2712 1.463 . S
C2709 C2714 1.350 . S
C2709 N2717 1.427 . S
C2710 H2701 0.930 . S
C2710 C2708 1.378 . S
C2710 C2711 1.367 . S
C2711 C2710 1.367 . S
C2711 C2713 1.433 . S
C2712 C2708 1.350 . S
C2712 C2709 1.463 . S
C2712 N2716 1.427 . S
C2713 H2703 0.929 . S
C2713 C2711 1.433 . S
C2713 N2716 1.384 . S
C2714 H2705 0.929 . S
C2714 C2706 1.378 . S
C2714 C2709 1.350 . S
C2715 H2702 0.929 . S
C2715 C2707 1.433 . S
C2715 N2717 1.384 . S
N2716 C2712 1.427 . S
N2716 C2713 1.384 . S
N2717 C2709 1.427 . S
N2717 C2715 1.384 . S
H2718 C2724 0.930 . S
H2719 C2728 0.930 . S
H2720 C2733 0.929 . S
H2721 C2731 0.929 . S
H2722 C2726 0.929 . S
H2723 C2732 0.929 . S
C2724 H2718 0.930 . S
C2724 C2725 1.367 . S
C2724 C2732 1.378 . S
C2725 C2724 1.367 . S
C2725 C2733 1.433 . S
C2726 H2722 0.929 . S
C2726 C2728 1.378 . S
C2726 C2730 1.350 . S
C2727 C2730 1.463 1_655 S
C2727 C2732 1.350 . S
C2727 N2735 1.410 1_655 S
C2728 H2719 0.930 . S
C2728 C2726 1.378 . S
C2728 C2729 1.367 . S
C2729 C2728 1.367 . S
C2729 C2731 1.433 . S
C2730 C2726 1.350 . S
C2730 C2727 1.463 1_455 S
C2730 N2734 1.410 1_455 S
C2731 H2721 0.929 . S
C2731 C2729 1.433 . S
C2731 N2734 1.356 1_455 S
C2732 H2723 0.929 . S
C2732 C2724 1.378 . S
C2732 C2727 1.350 . S
C2733 H2720 0.929 . S
C2733 C2725 1.433 . S
C2733 N2735 1.356 1_655 S
N2734 C2730 1.410 1_655 S
N2734 C2731 1.356 1_655 S
N2735 C2727 1.410 1_455 S
N2735 C2733 1.356 1_455 S
H2736 C2742 0.930 . S
H2737 C2746 0.930 . S
H2738 C2751 0.929 . S
H2739 C2749 0.929 . S
H2740 C2744 0.929 . S
H2741 C2750 0.929 . S
C2742 H2736 0.930 . S
C2742 C2743 1.367 . S
C2742 C2750 1.378 . S
C2743 C2742 1.367 . S
C2743 C2751 1.433 . S
C2744 H2740 0.929 . S
C2744 C2746 1.378 . S
C2744 C2748 1.350 . S
C2745 C2748 1.463 . S
C2745 C2750 1.350 . S
C2745 N2753 1.427 . S
C2746 H2737 0.930 . S
C2746 C2744 1.378 . S
C2746 C2747 1.367 . S
C2747 C2746 1.367 . S
C2747 C2749 1.433 . S
C2748 C2744 1.350 . S
C2748 C2745 1.463 . S
C2748 N2752 1.427 . S
C2749 H2739 0.929 . S
C2749 C2747 1.433 . S
C2749 N2752 1.384 . S
C2750 H2741 0.929 . S
C2750 C2742 1.378 . S
C2750 C2745 1.350 . S
C2751 H2738 0.929 . S
C2751 C2743 1.433 . S
C2751 N2753 1.384 . S
N2752 C2748 1.427 . S
N2752 C2749 1.384 . S
N2753 C2745 1.427 . S
N2753 C2751 1.384 . S
H2754 C2760 0.930 . S
H2755 C2764 0.930 . S
H2756 C2769 0.929 . S
H2757 C2767 0.929 . S
H2758 C2762 0.929 . S
H2759 C2768 0.929 . S
C2760 H2754 0.930 . S
C2760 C2761 1.367 . S
C2760 C2768 1.378 . S
C2761 C2760 1.367 . S
C2761 C2769 1.433 . S
C2762 H2758 0.929 . S
C2762 C2764 1.378 . S
C2762 C2766 1.350 . S
C2763 C2766 1.463 . S
C2763 C2768 1.350 . S
C2763 N2771 1.427 . S
C2764 H2755 0.930 . S
C2764 C2762 1.378 . S
C2764 C2765 1.367 . S
C2765 C2764 1.367 . S
C2765 C2767 1.433 . S
C2766 C2762 1.350 . S
C2766 C2763 1.463 . S
C2766 N2770 1.427 . S
C2767 H2757 0.929 . S
C2767 C2765 1.433 . S
C2767 N2770 1.384 . S
C2768 H2759 0.929 . S
C2768 C2760 1.378 . S
C2768 C2763 1.350 . S
C2769 H2756 0.929 . S
C2769 C2761 1.433 . S
C2769 N2771 1.384 . S
N2770 C2766 1.427 . S
N2770 C2767 1.384 . S
N2771 C2763 1.427 . S
N2771 C2769 1.384 . S
H2772 C2778 0.930 . S
H2773 C2782 0.930 . S
H2774 C2787 0.929 . S
H2775 C2785 0.929 . S
H2776 C2780 0.929 . S
H2777 C2786 0.929 . S
C2778 H2772 0.930 . S
C2778 C2779 1.367 . S
C2778 C2786 1.378 . S
C2779 C2778 1.367 . S
C2779 C2787 1.433 . S
C2780 H2776 0.929 . S
C2780 C2782 1.378 . S
C2780 C2784 1.350 . S
C2781 C2784 1.463 . S
C2781 C2786 1.350 . S
C2781 N2789 1.427 . S
C2782 H2773 0.930 . S
C2782 C2780 1.378 . S
C2782 C2783 1.367 . S
C2783 C2782 1.367 . S
C2783 C2785 1.433 . S
C2784 C2780 1.350 . S
C2784 C2781 1.463 . S
C2784 N2788 1.427 . S
C2785 H2775 0.929 . S
C2785 C2783 1.433 . S
C2785 N2788 1.384 . S
C2786 H2777 0.929 . S
C2786 C2778 1.378 . S
C2786 C2781 1.350 . S
C2787 H2774 0.929 . S
C2787 C2779 1.433 . S
C2787 N2789 1.384 . S
N2788 C2784 1.427 . S
N2788 C2785 1.384 . S
N2789 C2781 1.427 . S
N2789 C2787 1.384 . S
H2790 C2796 0.930 . S
H2791 C2800 0.930 . S
H2792 C2805 0.929 . S
H2793 C2803 0.929 . S
H2794 C2798 0.929 . S
H2795 C2804 0.929 . S
C2796 H2790 0.930 . S
C2796 C2797 1.367 . S
C2796 C2804 1.378 . S
C2797 C2796 1.367 . S
C2797 C2805 1.433 . S
C2798 H2794 0.929 . S
C2798 C2800 1.378 . S
C2798 C2802 1.350 . S
C2799 C2802 1.463 . S
C2799 C2804 1.350 . S
C2799 N2807 1.427 . S
C2800 H2791 0.930 . S
C2800 C2798 1.378 . S
C2800 C2801 1.367 . S
C2801 C2800 1.367 . S
C2801 C2803 1.433 . S
C2802 C2798 1.350 . S
C2802 C2799 1.463 . S
C2802 N2806 1.427 . S
C2803 H2793 0.929 . S
C2803 C2801 1.433 . S
C2803 N2806 1.384 . S
C2804 H2795 0.929 . S
C2804 C2796 1.378 . S
C2804 C2799 1.350 . S
C2805 H2792 0.929 . S
C2805 C2797 1.433 . S
C2805 N2807 1.384 . S
N2806 C2802 1.427 . S
N2806 C2803 1.384 . S
N2807 C2799 1.427 . S
N2807 C2805 1.384 . S
H2808 C2814 0.930 . S
H2809 C2818 0.930 . S
H2810 C2823 0.929 . S
H2811 C2821 0.929 . S
H2812 C2816 0.946 . S
H2813 C2822 0.946 . S
C2814 H2808 0.930 . S
C2814 C2815 1.367 . S
C2814 C2822 1.378 . S
C2815 C2814 1.367 . S
C2815 C2823 1.433 . S
C2816 H2812 0.946 . S
C2816 C2818 1.378 . S
C2816 C2820 1.350 . S
C2817 C2820 1.463 1_565 S
C2817 C2822 1.350 . S
C2817 N2825 1.427 . S
C2818 H2809 0.930 . S
C2818 C2816 1.378 . S
C2818 C2819 1.367 . S
C2819 C2818 1.367 . S
C2819 C2821 1.433 . S
C2820 C2816 1.350 . S
C2820 C2817 1.463 1_545 S
C2820 N2824 1.427 . S
C2821 H2811 0.929 . S
C2821 C2819 1.433 . S
C2821 N2824 1.384 . S
C2822 H2813 0.946 . S
C2822 C2814 1.378 . S
C2822 C2817 1.350 . S
C2823 H2810 0.929 . S
C2823 C2815 1.433 . S
C2823 N2825 1.384 . S
N2824 C2820 1.427 . S
N2824 C2821 1.384 . S
N2825 C2817 1.427 . S
N2825 C2823 1.384 . S
H2826 C2832 0.930 . S
H2827 C2836 0.930 . S
H2828 C2841 0.929 . S
H2829 C2839 0.929 . S
H2830 C2834 0.929 . S
H2831 C2840 0.929 . S
C2832 H2826 0.930 . S
C2832 C2833 1.367 . S
C2832 C2840 1.378 . S
C2833 C2832 1.367 . S
C2833 C2841 1.433 . S
C2834 H2830 0.929 . S
C2834 C2836 1.378 . S
C2834 C2838 1.350 . S
C2835 C2838 1.463 . S
C2835 C2840 1.350 . S
C2835 N2843 1.427 . S
C2836 H2827 0.930 . S
C2836 C2834 1.378 . S
C2836 C2837 1.367 . S
C2837 C2836 1.367 . S
C2837 C2839 1.433 . S
C2838 C2834 1.350 . S
C2838 C2835 1.463 . S
C2838 N2842 1.427 . S
C2839 H2829 0.929 . S
C2839 C2837 1.433 . S
C2839 N2842 1.384 . S
C2840 H2831 0.929 . S
C2840 C2832 1.378 . S
C2840 C2835 1.350 . S
C2841 H2828 0.929 . S
C2841 C2833 1.433 . S
C2841 N2843 1.384 . S
N2842 C2838 1.427 . S
N2842 C2839 1.384 . S
N2843 C2835 1.427 . S
N2843 C2841 1.384 . S
H2844 C2850 0.930 . S
H2845 C2854 0.930 . S
H2846 C2859 0.929 . S
H2847 C2857 0.929 . S
H2848 C2852 0.929 . S
H2849 C2858 0.929 . S
C2850 H2844 0.930 . S
C2850 C2851 1.367 . S
C2850 C2858 1.378 . S
C2851 C2850 1.367 . S
C2851 C2859 1.433 . S
C2852 H2848 0.929 . S
C2852 C2854 1.378 . S
C2852 C2856 1.350 . S
C2853 C2856 1.463 1_554 S
C2853 C2858 1.350 . S
C2853 N2861 1.427 . S
C2854 H2845 0.930 . S
C2854 C2852 1.378 . S
C2854 C2855 1.367 . S
C2855 C2854 1.367 . S
C2855 C2857 1.433 . S
C2856 C2852 1.350 . S
C2856 C2853 1.463 1_556 S
C2856 N2860 1.427 . S
C2857 H2847 0.929 . S
C2857 C2855 1.433 . S
C2857 N2860 1.384 . S
C2858 H2849 0.929 . S
C2858 C2850 1.378 . S
C2858 C2853 1.350 . S
C2859 H2846 0.929 . S
C2859 C2851 1.433 . S
C2859 N2861 1.384 . S
N2860 C2856 1.427 . S
N2860 C2857 1.384 . S
N2861 C2853 1.427 . S
N2861 C2859 1.384 . S
H2862 C2868 0.930 . S
H2863 C2872 0.930 . S
H2864 C2877 0.929 . S
H2865 C2875 0.929 . S
H2866 C2870 0.929 . S
H2867 C2876 0.929 . S
C2868 H2862 0.930 . S
C2868 C2869 1.367 . S
C2868 C2876 1.378 1_565 S
C2869 C2868 1.367 . S
C2869 C2877 1.433 . S
C2870 H2866 0.929 . S
C2870 C2872 1.378 1_565 S
C2870 C2874 1.350 1_565 S
C2871 C2874 1.463 1_565 S
C2871 C2876 1.350 1_565 S
C2871 N2879 1.427 . S
C2872 H2863 0.930 . S
C2872 C2870 1.378 1_545 S
C2872 C2873 1.367 . S
C2873 C2872 1.367 . S
C2873 C2875 1.433 . S
C2874 C2870 1.350 1_545 S
C2874 C2871 1.463 1_545 S
C2874 N2878 1.427 . S
C2875 H2865 0.929 . S
C2875 C2873 1.433 . S
C2875 N2878 1.384 . S
C2876 H2867 0.929 . S
C2876 C2868 1.378 1_545 S
C2876 C2871 1.350 1_545 S
C2877 H2864 0.929 . S
C2877 C2869 1.433 . S
C2877 N2879 1.384 . S
N2878 C2874 1.427 . S
N2878 C2875 1.384 . S
N2879 C2871 1.427 . S
N2879 C2877 1.384 . S
H2880 C2886 0.930 . S
H2881 C2890 0.930 . S
H2882 C2895 0.929 . S
H2883 C2893 0.929 . S
H2884 C2888 0.929 . S
H2885 C2894 0.929 . S
C2886 H2880 0.930 . S
C2886 C2887 1.367 . S
C2886 C2894 1.378 . S
C2887 C2886 1.367 . S
C2887 C2895 1.433 . S
C2888 H2884 0.929 . S
C2888 C2890 1.378 . S
C2888 C2892 1.350 . S
C2889 C2892 1.463 . S
C2889 C2894 1.350 . S
C2889 N2897 1.427 . S
C2890 H2881 0.930 . S
C2890 C2888 1.378 . S
C2890 C2891 1.367 . S
C2891 C2890 1.367 . S
C2891 C2893 1.433 . S
C2892 C2888 1.350 . S
C2892 C2889 1.463 . S
C2892 N2896 1.427 . S
C2893 H2883 0.929 . S
C2893 C2891 1.433 . S
C2893 N2896 1.384 . S
C2894 H2885 0.929 . S
C2894 C2886 1.378 . S
C2894 C2889 1.350 . S
C2895 H2882 0.929 . S
C2895 C2887 1.433 . S
C2895 N2897 1.384 . S
N2896 C2892 1.427 . S
N2896 C2893 1.384 . S
N2897 C2889 1.427 . S
N2897 C2895 1.384 . S
H2898 C2904 0.930 . S
H2899 C2908 0.930 . S
H2900 C2913 0.929 . S
H2901 C2911 0.929 . S
H2902 C2906 0.929 . S
H2903 C2912 0.929 . S
C2904 H2898 0.930 . S
C2904 C2905 1.367 . S
C2904 C2912 1.378 . S
C2905 C2904 1.367 . S
C2905 C2913 1.433 . S
C2906 H2902 0.929 . S
C2906 C2908 1.378 . S
C2906 C2910 1.350 . S
C2907 C2910 1.463 . S
C2907 C2912 1.350 . S
C2907 N2915 1.427 . S
C2908 H2899 0.930 . S
C2908 C2906 1.378 . S
C2908 C2909 1.367 . S
C2909 C2908 1.367 . S
C2909 C2911 1.433 . S
C2910 C2906 1.350 . S
C2910 C2907 1.463 . S
C2910 N2914 1.427 . S
C2911 H2901 0.929 . S
C2911 C2909 1.433 . S
C2911 N2914 1.384 . S
C2912 H2903 0.929 . S
C2912 C2904 1.378 . S
C2912 C2907 1.350 . S
C2913 H2900 0.929 . S
C2913 C2905 1.433 . S
C2913 N2915 1.384 . S
N2914 C2910 1.427 . S
N2914 C2911 1.384 . S
N2915 C2907 1.427 . S
N2915 C2913 1.384 . S
H2916 C2922 0.930 . S
H2917 C2926 0.930 . S
H2918 C2931 0.929 . S
H2919 C2929 0.929 . S
H2920 C2924 0.929 . S
H2921 C2930 0.929 . S
C2922 H2916 0.930 . S
C2922 C2923 1.367 . S
C2922 C2930 1.378 . S
C2923 C2922 1.367 . S
C2923 C2931 1.433 . S
C2924 H2920 0.929 . S
C2924 C2926 1.378 . S
C2924 C2928 1.350 . S
C2925 C2928 1.463 . S
C2925 C2930 1.350 . S
C2925 N2933 1.427 . S
C2926 H2917 0.930 . S
C2926 C2924 1.378 . S
C2926 C2927 1.367 . S
C2927 C2926 1.367 . S
C2927 C2929 1.433 . S
C2928 C2924 1.350 . S
C2928 C2925 1.463 . S
C2928 N2932 1.427 . S
C2929 H2919 0.929 . S
C2929 C2927 1.433 . S
C2929 N2932 1.384 . S
C2930 H2921 0.929 . S
C2930 C2922 1.378 . S
C2930 C2925 1.350 . S
C2931 H2918 0.929 . S
C2931 C2923 1.433 . S
C2931 N2933 1.384 . S
N2932 C2928 1.427 . S
N2932 C2929 1.384 . S
N2933 C2925 1.427 . S
N2933 C2931 1.384 . S
H2934 C2940 0.930 . S
H2935 C2944 0.930 . S
H2936 C2949 0.929 . S
H2937 C2947 0.929 . S
H2938 C2942 0.929 . S
H2939 C2948 0.929 . S
C2940 H2934 0.930 . S
C2940 C2941 1.367 . S
C2940 C2948 1.378 . S
C2941 C2940 1.367 . S
C2941 C2949 1.433 . S
C2942 H2938 0.929 . S
C2942 C2944 1.378 . S
C2942 C2946 1.350 . S
C2943 C2946 1.463 . S
C2943 C2948 1.350 . S
C2943 N2951 1.427 . S
C2944 H2935 0.930 . S
C2944 C2942 1.378 . S
C2944 C2945 1.367 . S
C2945 C2944 1.367 . S
C2945 C2947 1.433 . S
C2946 C2942 1.350 . S
C2946 C2943 1.463 . S
C2946 N2950 1.427 . S
C2947 H2937 0.929 . S
C2947 C2945 1.433 . S
C2947 N2950 1.384 . S
C2948 H2939 0.929 . S
C2948 C2940 1.378 . S
C2948 C2943 1.350 . S
C2949 H2936 0.929 . S
C2949 C2941 1.433 . S
C2949 N2951 1.384 . S
N2950 C2946 1.427 . S
N2950 C2947 1.384 . S
N2951 C2943 1.427 . S
N2951 C2949 1.384 . S
H2952 C2958 0.930 . S
H2953 C2962 0.930 . S
H2954 C2967 0.929 . S
H2955 C2965 0.929 . S
H2956 C2960 0.929 . S
H2957 C2966 0.929 . S
C2958 H2952 0.930 . S
C2958 C2959 1.367 . S
C2958 C2966 1.378 . S
C2959 C2958 1.367 . S
C2959 C2967 1.433 . S
C2960 H2956 0.929 . S
C2960 C2962 1.378 . S
C2960 C2964 1.350 . S
C2961 C2964 1.463 . S
C2961 C2966 1.350 . S
C2961 N2969 1.427 . S
C2962 H2953 0.930 . S
C2962 C2960 1.378 . S
C2962 C2963 1.367 . S
C2963 C2962 1.367 . S
C2963 C2965 1.433 . S
C2964 C2960 1.350 . S
C2964 C2961 1.463 . S
C2964 N2968 1.427 . S
C2965 H2955 0.929 . S
C2965 C2963 1.433 . S
C2965 N2968 1.384 . S
C2966 H2957 0.929 . S
C2966 C2958 1.378 . S
C2966 C2961 1.350 . S
C2967 H2954 0.929 . S
C2967 C2959 1.433 . S
C2967 N2969 1.384 . S
N2968 C2964 1.427 . S
N2968 C2965 1.384 . S
N2969 C2961 1.427 . S
N2969 C2967 1.384 . S
H2970 C2976 0.930 . S
H2971 C2980 0.930 . S
H2972 C2985 0.929 . S
H2973 C2983 0.929 . S
H2974 C2978 0.929 . S
H2975 C2984 0.929 . S
C2976 H2970 0.930 . S
C2976 C2977 1.367 . S
C2976 C2984 1.378 . S
C2977 C2976 1.367 . S
C2977 C2985 1.433 . S
C2978 H2974 0.929 . S
C2978 C2980 1.378 . S
C2978 C2982 1.350 . S
C2979 C2982 1.463 . S
C2979 C2984 1.350 . S
C2979 N2987 1.427 . S
C2980 H2971 0.930 . S
C2980 C2978 1.378 . S
C2980 C2981 1.367 . S
C2981 C2980 1.367 . S
C2981 C2983 1.433 . S
C2982 C2978 1.350 . S
C2982 C2979 1.463 . S
C2982 N2986 1.427 . S
C2983 H2973 0.929 . S
C2983 C2981 1.433 . S
C2983 N2986 1.384 . S
C2984 H2975 0.929 . S
C2984 C2976 1.378 . S
C2984 C2979 1.350 . S
C2985 H2972 0.929 . S
C2985 C2977 1.433 . S
C2985 N2987 1.384 . S
N2986 C2982 1.427 . S
N2986 C2983 1.384 . S
N2987 C2979 1.427 . S
N2987 C2985 1.384 . S
H2988 C2994 0.930 . S
H2989 C2998 0.930 . S
H2990 C3003 0.929 . S
H2991 C3001 0.929 . S
H2992 C2996 0.929 . S
H2993 C3002 0.929 . S
C2994 H2988 0.930 . S
C2994 C2995 1.367 . S
C2994 C3002 1.378 . S
C2995 C2994 1.367 . S
C2995 C3003 1.433 . S
C2996 H2992 0.929 . S
C2996 C2998 1.378 . S
C2996 C3000 1.350 . S
C2997 C3000 1.463 . S
C2997 C3002 1.350 . S
C2997 N3005 1.427 . S
C2998 H2989 0.930 . S
C2998 C2996 1.378 . S
C2998 C2999 1.367 . S
C2999 C2998 1.367 . S
C2999 C3001 1.433 . S
C3000 C2996 1.350 . S
C3000 C2997 1.463 . S
C3000 N3004 1.427 . S
C3001 H2991 0.929 . S
C3001 C2999 1.433 . S
C3001 N3004 1.384 . S
C3002 H2993 0.929 . S
C3002 C2994 1.378 . S
C3002 C2997 1.350 . S
C3003 H2990 0.929 . S
C3003 C2995 1.433 . S
C3003 N3005 1.384 . S
N3004 C3000 1.427 . S
N3004 C3001 1.384 . S
N3005 C2997 1.427 . S
N3005 C3003 1.384 . S
H3006 C3012 0.930 . S
H3007 C3016 0.930 . S
H3008 C3021 0.929 . S
H3009 C3019 0.929 . S
H3010 C3014 0.929 . S
H3011 C3020 0.929 . S
C3012 H3006 0.930 . S
C3012 C3013 1.367 . S
C3012 C3020 1.378 . S
C3013 C3012 1.367 . S
C3013 C3021 1.433 . S
C3014 H3010 0.929 . S
C3014 C3016 1.378 . S
C3014 C3018 1.350 . S
C3015 C3018 1.463 . S
C3015 C3020 1.350 . S
C3015 N3023 1.427 . S
C3016 H3007 0.930 . S
C3016 C3014 1.378 . S
C3016 C3017 1.367 . S
C3017 C3016 1.367 . S
C3017 C3019 1.433 . S
C3018 C3014 1.350 . S
C3018 C3015 1.463 . S
C3018 N3022 1.427 . S
C3019 H3009 0.929 . S
C3019 C3017 1.433 . S
C3019 N3022 1.384 . S
C3020 H3011 0.929 . S
C3020 C3012 1.378 . S
C3020 C3015 1.350 . S
C3021 H3008 0.929 . S
C3021 C3013 1.433 . S
C3021 N3023 1.384 . S
N3022 C3018 1.427 . S
N3022 C3019 1.384 . S
N3023 C3015 1.427 . S
N3023 C3021 1.384 . S
H3024 C3030 0.930 . S
H3025 C3034 0.930 . S
H3026 C3039 0.929 . S
H3027 C3037 0.929 . S
H3028 C3032 0.929 . S
H3029 C3038 0.929 . S
C3030 H3024 0.930 . S
C3030 C3031 1.367 . S
C3030 C3038 1.378 . S
C3031 C3030 1.367 . S
C3031 C3039 1.433 . S
C3032 H3028 0.929 . S
C3032 C3034 1.378 . S
C3032 C3036 1.350 . S
C3033 C3036 1.463 . S
C3033 C3038 1.350 . S
C3033 N3041 1.427 . S
C3034 H3025 0.930 . S
C3034 C3032 1.378 . S
C3034 C3035 1.367 . S
C3035 C3034 1.367 . S
C3035 C3037 1.433 . S
C3036 C3032 1.350 . S
C3036 C3033 1.463 . S
C3036 N3040 1.427 . S
C3037 H3027 0.929 . S
C3037 C3035 1.433 . S
C3037 N3040 1.384 . S
C3038 H3029 0.929 . S
C3038 C3030 1.378 . S
C3038 C3033 1.350 . S
C3039 H3026 0.929 . S
C3039 C3031 1.433 . S
C3039 N3041 1.384 . S
N3040 C3036 1.427 . S
N3040 C3037 1.384 . S
N3041 C3033 1.427 . S
N3041 C3039 1.384 . S
H3042 C3048 0.930 . S
H3043 C3052 0.930 . S
H3044 C3057 0.929 . S
H3045 C3055 0.929 . S
H3046 C3050 0.929 . S
H3047 C3056 0.929 . S
C3048 H3042 0.930 . S
C3048 C3049 1.367 . S
C3048 C3056 1.378 . S
C3049 C3048 1.367 . S
C3049 C3057 1.433 . S
C3050 H3046 0.929 . S
C3050 C3052 1.378 . S
C3050 C3054 1.350 . S
C3051 C3054 1.463 . S
C3051 C3056 1.350 . S
C3051 N3059 1.427 . S
C3052 H3043 0.930 . S
C3052 C3050 1.378 . S
C3052 C3053 1.367 . S
C3053 C3052 1.367 . S
C3053 C3055 1.433 . S
C3054 C3050 1.350 . S
C3054 C3051 1.463 . S
C3054 N3058 1.427 . S
C3055 H3045 0.929 . S
C3055 C3053 1.433 . S
C3055 N3058 1.384 . S
C3056 H3047 0.929 . S
C3056 C3048 1.378 . S
C3056 C3051 1.350 . S
C3057 H3044 0.929 . S
C3057 C3049 1.433 . S
C3057 N3059 1.384 . S
N3058 C3054 1.427 . S
N3058 C3055 1.384 . S
N3059 C3051 1.427 . S
N3059 C3057 1.384 . S
H3060 C3066 0.930 . S
H3061 C3070 0.930 . S
H3062 C3075 0.929 . S
H3063 C3073 0.929 . S
H3064 C3068 0.929 . S
H3065 C3074 0.929 . S
C3066 H3060 0.930 . S
C3066 C3067 1.367 . S
C3066 C3074 1.378 . S
C3067 C3066 1.367 . S
C3067 C3075 1.433 . S
C3068 H3064 0.929 . S
C3068 C3070 1.378 . S
C3068 C3072 1.350 . S
C3069 C3072 1.463 . S
C3069 C3074 1.350 . S
C3069 N3077 1.427 . S
C3070 H3061 0.930 . S
C3070 C3068 1.378 . S
C3070 C3071 1.367 . S
C3071 C3070 1.367 . S
C3071 C3073 1.433 . S
C3072 C3068 1.350 . S
C3072 C3069 1.463 . S
C3072 N3076 1.427 . S
C3073 H3063 0.929 . S
C3073 C3071 1.433 . S
C3073 N3076 1.384 . S
C3074 H3065 0.929 . S
C3074 C3066 1.378 . S
C3074 C3069 1.350 . S
C3075 H3062 0.929 . S
C3075 C3067 1.433 . S
C3075 N3077 1.384 . S
N3076 C3072 1.427 . S
N3076 C3073 1.384 . S
N3077 C3069 1.427 . S
N3077 C3075 1.384 . S
H3078 C3084 0.930 . S
H3079 C3088 0.930 . S
H3080 C3093 0.929 . S
H3081 C3091 0.929 . S
H3082 C3086 0.929 . S
H3083 C3092 0.929 . S
C3084 H3078 0.930 . S
C3084 C3085 1.367 . S
C3084 C3092 1.378 . S
C3085 C3084 1.367 . S
C3085 C3093 1.433 . S
C3086 H3082 0.929 . S
C3086 C3088 1.378 . S
C3086 C3090 1.350 . S
C3087 C3090 1.463 . S
C3087 C3092 1.350 . S
C3087 N3095 1.427 . S
C3088 H3079 0.930 . S
C3088 C3086 1.378 . S
C3088 C3089 1.367 . S
C3089 C3088 1.367 . S
C3089 C3091 1.433 . S
C3090 C3086 1.350 . S
C3090 C3087 1.463 . S
C3090 N3094 1.427 . S
C3091 H3081 0.929 . S
C3091 C3089 1.433 . S
C3091 N3094 1.384 . S
C3092 H3083 0.929 . S
C3092 C3084 1.378 . S
C3092 C3087 1.350 . S
C3093 H3080 0.929 . S
C3093 C3085 1.433 . S
C3093 N3095 1.384 . S
N3094 C3090 1.427 . S
N3094 C3091 1.384 . S
N3095 C3087 1.427 . S
N3095 C3093 1.384 . S
H3096 C3102 0.930 . S
H3097 C3106 0.930 . S
H3098 C3111 0.929 . S
H3099 C3109 0.929 . S
H3100 C3104 0.929 . S
H3101 C3110 0.929 . S
C3102 H3096 0.930 . S
C3102 C3103 1.367 . S
C3102 C3110 1.378 . S
C3103 C3102 1.367 . S
C3103 C3111 1.433 . S
C3104 H3100 0.929 . S
C3104 C3106 1.378 . S
C3104 C3108 1.350 . S
C3105 C3108 1.463 . S
C3105 C3110 1.350 . S
C3105 N3113 1.427 . S
C3106 H3097 0.930 . S
C3106 C3104 1.378 . S
C3106 C3107 1.367 . S
C3107 C3106 1.367 . S
C3107 C3109 1.433 . S
C3108 C3104 1.350 . S
C3108 C3105 1.463 . S
C3108 N3112 1.427 . S
C3109 H3099 0.929 . S
C3109 C3107 1.433 . S
C3109 N3112 1.384 . S
C3110 H3101 0.929 . S
C3110 C3102 1.378 . S
C3110 C3105 1.350 . S
C3111 H3098 0.929 . S
C3111 C3103 1.433 . S
C3111 N3113 1.384 . S
N3112 C3108 1.427 . S
N3112 C3109 1.384 . S
N3113 C3105 1.427 . S
N3113 C3111 1.384 . S
H3114 C3120 0.930 . S
H3115 C3124 0.930 . S
H3116 C3129 0.929 . S
H3117 C3127 0.929 . S
H3118 C3122 0.929 . S
H3119 C3128 0.929 . S
C3120 H3114 0.930 . S
C3120 C3121 1.367 . S
C3120 C3128 1.378 . S
C3121 C3120 1.367 . S
C3121 C3129 1.433 . S
C3122 H3118 0.929 . S
C3122 C3124 1.378 . S
C3122 C3126 1.350 . S
C3123 C3126 1.463 . S
C3123 C3128 1.350 . S
C3123 N3131 1.427 . S
C3124 H3115 0.930 . S
C3124 C3122 1.378 . S
C3124 C3125 1.367 . S
C3125 C3124 1.367 . S
C3125 C3127 1.433 . S
C3126 C3122 1.350 . S
C3126 C3123 1.463 . S
C3126 N3130 1.427 . S
C3127 H3117 0.929 . S
C3127 C3125 1.433 . S
C3127 N3130 1.384 . S
C3128 H3119 0.929 . S
C3128 C3120 1.378 . S
C3128 C3123 1.350 . S
C3129 H3116 0.929 . S
C3129 C3121 1.433 . S
C3129 N3131 1.384 . S
N3130 C3126 1.427 . S
N3130 C3127 1.384 . S
N3131 C3123 1.427 . S
N3131 C3129 1.384 . S
H3132 C3138 0.930 . S
H3133 C3142 0.930 . S
H3134 C3147 0.929 . S
H3135 C3145 0.929 . S
H3136 C3140 0.929 . S
H3137 C3146 0.929 . S
C3138 H3132 0.930 . S
C3138 C3139 1.367 . S
C3138 C3146 1.378 . S
C3139 C3138 1.367 . S
C3139 C3147 1.433 . S
C3140 H3136 0.929 . S
C3140 C3142 1.378 . S
C3140 C3144 1.350 . S
C3141 C3144 1.463 . S
C3141 C3146 1.350 . S
C3141 N3149 1.427 . S
C3142 H3133 0.930 . S
C3142 C3140 1.378 . S
C3142 C3143 1.367 . S
C3143 C3142 1.367 . S
C3143 C3145 1.433 . S
C3144 C3140 1.350 . S
C3144 C3141 1.463 . S
C3144 N3148 1.427 . S
C3145 H3135 0.929 . S
C3145 C3143 1.433 . S
C3145 N3148 1.384 . S
C3146 H3137 0.929 . S
C3146 C3138 1.378 . S
C3146 C3141 1.350 . S
C3147 H3134 0.929 . S
C3147 C3139 1.433 . S
C3147 N3149 1.384 . S
N3148 C3144 1.427 . S
N3148 C3145 1.384 . S
N3149 C3141 1.427 . S
N3149 C3147 1.384 . S
H3150 C3156 0.930 . S
H3151 C3160 0.930 . S
H3152 C3165 0.929 . S
H3153 C3163 0.929 . S
H3154 C3158 0.929 . S
H3155 C3164 0.929 . S
C3156 H3150 0.930 . S
C3156 C3157 1.367 . S
C3156 C3164 1.378 . S
C3157 C3156 1.367 . S
C3157 C3165 1.433 . S
C3158 H3154 0.929 . S
C3158 C3160 1.378 . S
C3158 C3162 1.350 . S
C3159 C3162 1.463 . S
C3159 C3164 1.350 . S
C3159 N3167 1.427 . S
C3160 H3151 0.930 . S
C3160 C3158 1.378 . S
C3160 C3161 1.367 . S
C3161 C3160 1.367 . S
C3161 C3163 1.433 . S
C3162 C3158 1.350 . S
C3162 C3159 1.463 . S
C3162 N3166 1.427 . S
C3163 H3153 0.929 . S
C3163 C3161 1.433 . S
C3163 N3166 1.384 . S
C3164 H3155 0.929 . S
C3164 C3156 1.378 . S
C3164 C3159 1.350 . S
C3165 H3152 0.929 . S
C3165 C3157 1.433 . S
C3165 N3167 1.384 . S
N3166 C3162 1.427 . S
N3166 C3163 1.384 . S
N3167 C3159 1.427 . S
N3167 C3165 1.384 . S
H3168 C3174 0.930 . S
H3169 C3178 0.930 . S
H3170 C3183 0.929 . S
H3171 C3181 0.929 . S
H3172 C3176 0.929 . S
H3173 C3182 0.929 . S
C3174 H3168 0.930 . S
C3174 C3175 1.367 . S
C3174 C3182 1.378 . S
C3175 C3174 1.367 . S
C3175 C3183 1.433 . S
C3176 H3172 0.929 . S
C3176 C3178 1.378 . S
C3176 C3180 1.350 . S
C3177 C3180 1.463 . S
C3177 C3182 1.350 . S
C3177 N3185 1.427 . S
C3178 H3169 0.930 . S
C3178 C3176 1.378 . S
C3178 C3179 1.367 . S
C3179 C3178 1.367 . S
C3179 C3181 1.433 . S
C3180 C3176 1.350 . S
C3180 C3177 1.463 . S
C3180 N3184 1.427 . S
C3181 H3171 0.929 . S
C3181 C3179 1.433 . S
C3181 N3184 1.384 . S
C3182 H3173 0.929 . S
C3182 C3174 1.378 . S
C3182 C3177 1.350 . S
C3183 H3170 0.929 . S
C3183 C3175 1.433 . S
C3183 N3185 1.384 . S
N3184 C3180 1.427 . S
N3184 C3181 1.384 . S
N3185 C3177 1.427 . S
N3185 C3183 1.384 . S
H3186 C3192 0.930 . S
H3187 C3196 0.930 . S
H3188 C3201 0.929 . S
H3189 C3199 0.929 . S
H3190 C3194 0.929 . S
H3191 C3200 0.929 . S
C3192 H3186 0.930 . S
C3192 C3193 1.367 . S
C3192 C3200 1.378 . S
C3193 C3192 1.367 . S
C3193 C3201 1.433 . S
C3194 H3190 0.929 . S
C3194 C3196 1.378 . S
C3194 C3198 1.350 . S
C3195 C3198 1.463 . S
C3195 C3200 1.350 . S
C3195 N3203 1.427 . S
C3196 H3187 0.930 . S
C3196 C3194 1.378 . S
C3196 C3197 1.367 . S
C3197 C3196 1.367 . S
C3197 C3199 1.433 . S
C3198 C3194 1.350 . S
C3198 C3195 1.463 . S
C3198 N3202 1.427 . S
C3199 H3189 0.929 . S
C3199 C3197 1.433 . S
C3199 N3202 1.384 . S
C3200 H3191 0.929 . S
C3200 C3192 1.378 . S
C3200 C3195 1.350 . S
C3201 H3188 0.929 . S
C3201 C3193 1.433 . S
C3201 N3203 1.384 . S
N3202 C3198 1.427 . S
N3202 C3199 1.384 . S
N3203 C3195 1.427 . S
N3203 C3201 1.384 . S
H3204 C3210 0.930 . S
H3205 C3214 0.930 . S
H3206 C3219 0.929 . S
H3207 C3217 0.929 . S
H3208 C3212 0.929 . S
H3209 C3218 0.929 . S
C3210 H3204 0.930 . S
C3210 C3211 1.367 . S
C3210 C3218 1.378 . S
C3211 C3210 1.367 . S
C3211 C3219 1.433 . S
C3212 H3208 0.929 . S
C3212 C3214 1.378 . S
C3212 C3216 1.350 . S
C3213 C3216 1.463 . S
C3213 C3218 1.350 . S
C3213 N3221 1.427 . S
C3214 H3205 0.930 . S
C3214 C3212 1.378 . S
C3214 C3215 1.367 . S
C3215 C3214 1.367 . S
C3215 C3217 1.433 . S
C3216 C3212 1.350 . S
C3216 C3213 1.463 . S
C3216 N3220 1.427 . S
C3217 H3207 0.929 . S
C3217 C3215 1.433 . S
C3217 N3220 1.384 . S
C3218 H3209 0.929 . S
C3218 C3210 1.378 . S
C3218 C3213 1.350 . S
C3219 H3206 0.929 . S
C3219 C3211 1.433 . S
C3219 N3221 1.384 . S
N3220 C3216 1.427 . S
N3220 C3217 1.384 . S
N3221 C3213 1.427 . S
N3221 C3219 1.384 . S
H3222 C3228 0.930 . S
H3223 C3232 0.930 . S
H3224 C3237 0.929 . S
H3225 C3235 0.929 . S
H3226 C3230 0.929 . S
H3227 C3236 0.929 . S
C3228 H3222 0.930 . S
C3228 C3229 1.367 . S
C3228 C3236 1.378 . S
C3229 C3228 1.367 . S
C3229 C3237 1.433 . S
C3230 H3226 0.929 . S
C3230 C3232 1.378 . S
C3230 C3234 1.350 . S
C3231 C3234 1.463 . S
C3231 C3236 1.350 . S
C3231 N3239 1.427 . S
C3232 H3223 0.930 . S
C3232 C3230 1.378 . S
C3232 C3233 1.367 . S
C3233 C3232 1.367 . S
C3233 C3235 1.433 . S
C3234 C3230 1.350 . S
C3234 C3231 1.463 . S
C3234 N3238 1.427 . S
C3235 H3225 0.929 . S
C3235 C3233 1.433 . S
C3235 N3238 1.384 . S
C3236 H3227 0.929 . S
C3236 C3228 1.378 . S
C3236 C3231 1.350 . S
C3237 H3224 0.929 . S
C3237 C3229 1.433 . S
C3237 N3239 1.384 . S
N3238 C3234 1.427 . S
N3238 C3235 1.384 . S
N3239 C3231 1.427 . S
N3239 C3237 1.384 . S
H3240 C3246 0.930 . S
H3241 C3250 0.930 . S
H3242 C3255 0.929 . S
H3243 C3253 0.929 . S
H3244 C3248 0.929 . S
H3245 C3254 0.929 . S
C3246 H3240 0.930 . S
C3246 C3247 1.367 . S
C3246 C3254 1.378 . S
C3247 C3246 1.367 . S
C3247 C3255 1.433 . S
C3248 H3244 0.929 . S
C3248 C3250 1.378 . S
C3248 C3252 1.350 . S
C3249 C3252 1.463 . S
C3249 C3254 1.350 . S
C3249 N3257 1.427 . S
C3250 H3241 0.930 . S
C3250 C3248 1.378 . S
C3250 C3251 1.367 . S
C3251 C3250 1.367 . S
C3251 C3253 1.433 . S
C3252 C3248 1.350 . S
C3252 C3249 1.463 . S
C3252 N3256 1.427 . S
C3253 H3243 0.929 . S
C3253 C3251 1.433 . S
C3253 N3256 1.384 . S
C3254 H3245 0.929 . S
C3254 C3246 1.378 . S
C3254 C3249 1.350 . S
C3255 H3242 0.929 . S
C3255 C3247 1.433 . S
C3255 N3257 1.384 . S
N3256 C3252 1.427 . S
N3256 C3253 1.384 . S
N3257 C3249 1.427 . S
N3257 C3255 1.384 . S
H3258 C3264 0.930 . S
H3259 C3268 0.930 . S
H3260 C3273 0.929 . S
H3261 C3271 0.929 . S
H3262 C3266 0.929 . S
H3263 C3272 0.929 . S
C3264 H3258 0.930 . S
C3264 C3265 1.367 . S
C3264 C3272 1.378 . S
C3265 C3264 1.367 . S
C3265 C3273 1.433 . S
C3266 H3262 0.929 . S
C3266 C3268 1.378 . S
C3266 C3270 1.350 . S
C3267 C3270 1.463 . S
C3267 C3272 1.350 . S
C3267 N3275 1.427 . S
C3268 H3259 0.930 . S
C3268 C3266 1.378 . S
C3268 C3269 1.367 . S
C3269 C3268 1.367 . S
C3269 C3271 1.433 . S
C3270 C3266 1.350 . S
C3270 C3267 1.463 . S
C3270 N3274 1.427 . S
C3271 H3261 0.929 . S
C3271 C3269 1.433 . S
C3271 N3274 1.384 . S
C3272 H3263 0.929 . S
C3272 C3264 1.378 . S
C3272 C3267 1.350 . S
C3273 H3260 0.929 . S
C3273 C3265 1.433 . S
C3273 N3275 1.384 . S
N3274 C3270 1.427 . S
N3274 C3271 1.384 . S
N3275 C3267 1.427 . S
N3275 C3273 1.384 . S
H3276 C3282 0.930 . S
H3277 C3286 0.930 . S
H3278 C3291 0.929 . S
H3279 C3289 0.929 . S
H3280 C3284 0.929 . S
H3281 C3290 0.929 . S
C3282 H3276 0.930 . S
C3282 C3283 1.367 . S
C3282 C3290 1.378 . S
C3283 C3282 1.367 . S
C3283 C3291 1.433 . S
C3284 H3280 0.929 . S
C3284 C3286 1.378 . S
C3284 C3288 1.350 . S
C3285 C3288 1.463 . S
C3285 C3290 1.350 . S
C3285 N3293 1.427 . S
C3286 H3277 0.930 . S
C3286 C3284 1.378 . S
C3286 C3287 1.367 . S
C3287 C3286 1.367 . S
C3287 C3289 1.433 . S
C3288 C3284 1.350 . S
C3288 C3285 1.463 . S
C3288 N3292 1.427 . S
C3289 H3279 0.929 . S
C3289 C3287 1.433 . S
C3289 N3292 1.384 . S
C3290 H3281 0.929 . S
C3290 C3282 1.378 . S
C3290 C3285 1.350 . S
C3291 H3278 0.929 . S
C3291 C3283 1.433 . S
C3291 N3293 1.384 . S
N3292 C3288 1.427 . S
N3292 C3289 1.384 . S
N3293 C3285 1.427 . S
N3293 C3291 1.384 . S
H3294 C3300 0.930 . S
H3295 C3304 0.930 . S
H3296 C3309 0.929 . S
H3297 C3307 0.929 . S
H3298 C3302 0.929 . S
H3299 C3308 0.929 . S
C3300 H3294 0.930 . S
C3300 C3301 1.367 . S
C3300 C3308 1.378 . S
C3301 C3300 1.367 . S
C3301 C3309 1.433 . S
C3302 H3298 0.929 . S
C3302 C3304 1.378 . S
C3302 C3306 1.350 . S
C3303 C3306 1.463 . S
C3303 C3308 1.350 . S
C3303 N3311 1.427 . S
C3304 H3295 0.930 . S
C3304 C3302 1.378 . S
C3304 C3305 1.367 . S
C3305 C3304 1.367 . S
C3305 C3307 1.433 . S
C3306 C3302 1.350 . S
C3306 C3303 1.463 . S
C3306 N3310 1.427 . S
C3307 H3297 0.929 . S
C3307 C3305 1.433 . S
C3307 N3310 1.384 . S
C3308 H3299 0.929 . S
C3308 C3300 1.378 . S
C3308 C3303 1.350 . S
C3309 H3296 0.929 . S
C3309 C3301 1.433 . S
C3309 N3311 1.384 . S
N3310 C3306 1.427 . S
N3310 C3307 1.384 . S
N3311 C3303 1.427 . S
N3311 C3309 1.384 . S
H3312 C3318 0.930 . S
H3313 C3322 0.930 . S
H3314 C3327 0.929 . S
H3315 C3325 0.929 . S
H3316 C3320 0.929 . S
H3317 C3326 0.929 . S
C3318 H3312 0.930 . S
C3318 C3319 1.367 . S
C3318 C3326 1.378 . S
C3319 C3318 1.367 . S
C3319 C3327 1.433 . S
C3320 H3316 0.929 . S
C3320 C3322 1.378 . S
C3320 C3324 1.350 . S
C3321 C3324 1.463 . S
C3321 C3326 1.350 . S
C3321 N3329 1.427 . S
C3322 H3313 0.930 . S
C3322 C3320 1.378 . S
C3322 C3323 1.367 . S
C3323 C3322 1.367 . S
C3323 C3325 1.433 . S
C3324 C3320 1.350 . S
C3324 C3321 1.463 . S
C3324 N3328 1.427 . S
C3325 H3315 0.929 . S
C3325 C3323 1.433 . S
C3325 N3328 1.384 . S
C3326 H3317 0.929 . S
C3326 C3318 1.378 . S
C3326 C3321 1.350 . S
C3327 H3314 0.929 . S
C3327 C3319 1.433 . S
C3327 N3329 1.384 . S
N3328 C3324 1.427 . S
N3328 C3325 1.384 . S
N3329 C3321 1.427 . S
N3329 C3327 1.384 . S
H3330 C3336 0.930 . S
H3331 C3340 0.930 . S
H3332 C3345 0.929 . S
H3333 C3343 0.929 . S
H3334 C3338 0.929 . S
H3335 C3344 0.929 . S
C3336 H3330 0.930 . S
C3336 C3337 1.367 . S
C3336 C3344 1.378 . S
C3337 C3336 1.367 . S
C3337 C3345 1.433 . S
C3338 H3334 0.929 . S
C3338 C3340 1.378 . S
C3338 C3342 1.350 . S
C3339 C3342 1.463 . S
C3339 C3344 1.350 . S
C3339 N3347 1.427 . S
C3340 H3331 0.930 . S
C3340 C3338 1.378 . S
C3340 C3341 1.367 . S
C3341 C3340 1.367 . S
C3341 C3343 1.433 . S
C3342 C3338 1.350 . S
C3342 C3339 1.463 . S
C3342 N3346 1.427 . S
C3343 H3333 0.929 . S
C3343 C3341 1.433 . S
C3343 N3346 1.384 . S
C3344 H3335 0.929 . S
C3344 C3336 1.378 . S
C3344 C3339 1.350 . S
C3345 H3332 0.929 . S
C3345 C3337 1.433 . S
C3345 N3347 1.384 . S
N3346 C3342 1.427 . S
N3346 C3343 1.384 . S
N3347 C3339 1.427 . S
N3347 C3345 1.384 . S
H3348 C3354 0.930 . S
H3349 C3358 0.930 . S
H3350 C3363 0.929 . S
H3351 C3361 0.929 . S
H3352 C3356 0.929 . S
H3353 C3362 0.929 . S
C3354 H3348 0.930 . S
C3354 C3355 1.367 . S
C3354 C3362 1.378 . S
C3355 C3354 1.367 . S
C3355 C3363 1.433 . S
C3356 H3352 0.929 . S
C3356 C3358 1.378 . S
C3356 C3360 1.350 . S
C3357 C3360 1.463 . S
C3357 C3362 1.350 . S
C3357 N3365 1.427 . S
C3358 H3349 0.930 . S
C3358 C3356 1.378 . S
C3358 C3359 1.367 . S
C3359 C3358 1.367 . S
C3359 C3361 1.433 . S
C3360 C3356 1.350 . S
C3360 C3357 1.463 . S
C3360 N3364 1.427 . S
C3361 H3351 0.929 . S
C3361 C3359 1.433 . S
C3361 N3364 1.384 . S
C3362 H3353 0.929 . S
C3362 C3354 1.378 . S
C3362 C3357 1.350 . S
C3363 H3350 0.929 . S
C3363 C3355 1.433 . S
C3363 N3365 1.384 . S
N3364 C3360 1.427 . S
N3364 C3361 1.384 . S
N3365 C3357 1.427 . S
N3365 C3363 1.384 . S
H3366 C3372 0.930 . S
H3367 C3376 0.930 . S
H3368 C3381 0.929 . S
H3369 C3379 0.929 . S
H3370 C3374 0.929 . S
H3371 C3380 0.929 . S
C3372 H3366 0.930 . S
C3372 C3373 1.367 . S
C3372 C3380 1.378 . S
C3373 C3372 1.367 . S
C3373 C3381 1.433 . S
C3374 H3370 0.929 . S
C3374 C3376 1.378 . S
C3374 C3378 1.350 . S
C3375 C3378 1.463 . S
C3375 C3380 1.350 . S
C3375 N3383 1.427 . S
C3376 H3367 0.930 . S
C3376 C3374 1.378 . S
C3376 C3377 1.367 . S
C3377 C3376 1.367 . S
C3377 C3379 1.433 . S
C3378 C3374 1.350 . S
C3378 C3375 1.463 . S
C3378 N3382 1.427 . S
C3379 H3369 0.929 . S
C3379 C3377 1.433 . S
C3379 N3382 1.384 . S
C3380 H3371 0.929 . S
C3380 C3372 1.378 . S
C3380 C3375 1.350 . S
C3381 H3368 0.929 . S
C3381 C3373 1.433 . S
C3381 N3383 1.384 . S
N3382 C3378 1.427 . S
N3382 C3379 1.384 . S
N3383 C3375 1.427 . S
N3383 C3381 1.384 . S
H3384 C3390 0.930 . S
H3385 C3394 0.930 . S
H3386 C3399 0.929 . S
H3387 C3397 0.929 . S
H3388 C3392 0.929 . S
H3389 C3398 0.929 . S
C3390 H3384 0.930 . S
C3390 C3391 1.367 . S
C3390 C3398 1.378 . S
C3391 C3390 1.367 . S
C3391 C3399 1.433 . S
C3392 H3388 0.929 . S
C3392 C3394 1.378 . S
C3392 C3396 1.350 . S
C3393 C3396 1.463 . S
C3393 C3398 1.350 . S
C3393 N3401 1.427 . S
C3394 H3385 0.930 . S
C3394 C3392 1.378 . S
C3394 C3395 1.367 . S
C3395 C3394 1.367 . S
C3395 C3397 1.433 . S
C3396 C3392 1.350 . S
C3396 C3393 1.463 . S
C3396 N3400 1.427 . S
C3397 H3387 0.929 . S
C3397 C3395 1.433 . S
C3397 N3400 1.384 . S
C3398 H3389 0.929 . S
C3398 C3390 1.378 . S
C3398 C3393 1.350 . S
C3399 H3386 0.929 . S
C3399 C3391 1.433 . S
C3399 N3401 1.384 . S
N3400 C3396 1.427 . S
N3400 C3397 1.384 . S
N3401 C3393 1.427 . S
N3401 C3399 1.384 . S
H3402 C3408 0.930 . S
H3403 C3412 0.930 . S
H3404 C3417 0.929 . S
H3405 C3415 0.929 . S
H3406 C3410 0.929 . S
H3407 C3416 0.929 . S
C3408 H3402 0.930 . S
C3408 C3409 1.367 . S
C3408 C3416 1.378 . S
C3409 C3408 1.367 . S
C3409 C3417 1.433 . S
C3410 H3406 0.929 . S
C3410 C3412 1.378 . S
C3410 C3414 1.350 . S
C3411 C3414 1.463 . S
C3411 C3416 1.350 . S
C3411 N3419 1.427 . S
C3412 H3403 0.930 . S
C3412 C3410 1.378 . S
C3412 C3413 1.367 . S
C3413 C3412 1.367 . S
C3413 C3415 1.433 . S
C3414 C3410 1.350 . S
C3414 C3411 1.463 . S
C3414 N3418 1.427 . S
C3415 H3405 0.929 . S
C3415 C3413 1.433 . S
C3415 N3418 1.384 . S
C3416 H3407 0.929 . S
C3416 C3408 1.378 . S
C3416 C3411 1.350 . S
C3417 H3404 0.929 . S
C3417 C3409 1.433 . S
C3417 N3419 1.384 . S
N3418 C3414 1.427 . S
N3418 C3415 1.384 . S
N3419 C3411 1.427 . S
N3419 C3417 1.384 . S
H3420 C3426 0.930 . S
H3421 C3430 0.930 . S
H3422 C3435 0.929 . S
H3423 C3433 0.929 . S
H3424 C3428 0.929 . S
H3425 C3434 0.929 . S
C3426 H3420 0.930 . S
C3426 C3427 1.367 . S
C3426 C3434 1.378 . S
C3427 C3426 1.367 . S
C3427 C3435 1.433 . S
C3428 H3424 0.929 . S
C3428 C3430 1.378 . S
C3428 C3432 1.350 . S
C3429 C3432 1.463 . S
C3429 C3434 1.350 . S
C3429 N3437 1.427 . S
C3430 H3421 0.930 . S
C3430 C3428 1.378 . S
C3430 C3431 1.367 . S
C3431 C3430 1.367 . S
C3431 C3433 1.433 . S
C3432 C3428 1.350 . S
C3432 C3429 1.463 . S
C3432 N3436 1.427 . S
C3433 H3423 0.929 . S
C3433 C3431 1.433 . S
C3433 N3436 1.384 . S
C3434 H3425 0.929 . S
C3434 C3426 1.378 . S
C3434 C3429 1.350 . S
C3435 H3422 0.929 . S
C3435 C3427 1.433 . S
C3435 N3437 1.384 . S
N3436 C3432 1.427 . S
N3436 C3433 1.384 . S
N3437 C3429 1.427 . S
N3437 C3435 1.384 . S
H3438 C3444 0.930 . S
H3439 C3448 0.930 . S
H3440 C3453 0.929 . S
H3441 C3451 0.929 . S
H3442 C3446 0.929 . S
H3443 C3452 0.929 . S
C3444 H3438 0.930 . S
C3444 C3445 1.367 . S
C3444 C3452 1.378 . S
C3445 C3444 1.367 . S
C3445 C3453 1.433 . S
C3446 H3442 0.929 . S
C3446 C3448 1.378 . S
C3446 C3450 1.350 . S
C3447 C3450 1.463 . S
C3447 C3452 1.350 . S
C3447 N3455 1.427 . S
C3448 H3439 0.930 . S
C3448 C3446 1.378 . S
C3448 C3449 1.367 . S
C3449 C3448 1.367 . S
C3449 C3451 1.433 . S
C3450 C3446 1.350 . S
C3450 C3447 1.463 . S
C3450 N3454 1.427 . S
C3451 H3441 0.929 . S
C3451 C3449 1.433 . S
C3451 N3454 1.384 . S
C3452 H3443 0.929 . S
C3452 C3444 1.378 . S
C3452 C3447 1.350 . S
C3453 H3440 0.929 . S
C3453 C3445 1.433 . S
C3453 N3455 1.384 . S
N3454 C3450 1.427 . S
N3454 C3451 1.384 . S
N3455 C3447 1.427 . S
N3455 C3453 1.384 . S
H3456 C3462 0.930 . S
H3457 C3466 0.930 . S
H3458 C3471 0.929 . S
H3459 C3469 0.929 . S
H3460 C3464 0.929 . S
H3461 C3470 0.929 . S
C3462 H3456 0.930 . S
C3462 C3463 1.367 . S
C3462 C3470 1.378 . S
C3463 C3462 1.367 . S
C3463 C3471 1.433 . S
C3464 H3460 0.929 . S
C3464 C3466 1.378 . S
C3464 C3468 1.350 . S
C3465 C3468 1.463 . S
C3465 C3470 1.350 . S
C3465 N3473 1.427 . S
C3466 H3457 0.930 . S
C3466 C3464 1.378 . S
C3466 C3467 1.367 . S
C3467 C3466 1.367 . S
C3467 C3469 1.433 . S
C3468 C3464 1.350 . S
C3468 C3465 1.463 . S
C3468 N3472 1.427 . S
C3469 H3459 0.929 . S
C3469 C3467 1.433 . S
C3469 N3472 1.384 . S
C3470 H3461 0.929 . S
C3470 C3462 1.378 . S
C3470 C3465 1.350 . S
C3471 H3458 0.929 . S
C3471 C3463 1.433 . S
C3471 N3473 1.384 . S
N3472 C3468 1.427 . S
N3472 C3469 1.384 . S
N3473 C3465 1.427 . S
N3473 C3471 1.384 . S
H3474 C3480 0.930 . S
H3475 C3484 0.930 . S
H3476 C3489 0.929 . S
H3477 C3487 0.929 . S
H3478 C3482 0.929 . S
H3479 C3488 0.929 . S
C3480 H3474 0.930 . S
C3480 C3481 1.367 . S
C3480 C3488 1.378 . S
C3481 C3480 1.367 . S
C3481 C3489 1.433 . S
C3482 H3478 0.929 . S
C3482 C3484 1.378 . S
C3482 C3486 1.350 . S
C3483 C3486 1.463 . S
C3483 C3488 1.350 . S
C3483 N3491 1.427 . S
C3484 H3475 0.930 . S
C3484 C3482 1.378 . S
C3484 C3485 1.367 . S
C3485 C3484 1.367 . S
C3485 C3487 1.433 . S
C3486 C3482 1.350 . S
C3486 C3483 1.463 . S
C3486 N3490 1.427 . S
C3487 H3477 0.929 . S
C3487 C3485 1.433 . S
C3487 N3490 1.384 . S
C3488 H3479 0.929 . S
C3488 C3480 1.378 . S
C3488 C3483 1.350 . S
C3489 H3476 0.929 . S
C3489 C3481 1.433 . S
C3489 N3491 1.384 . S
N3490 C3486 1.427 . S
N3490 C3487 1.384 . S
N3491 C3483 1.427 . S
N3491 C3489 1.384 . S
H3492 C3498 0.930 . S
H3493 C3502 0.930 . S
H3494 C3507 0.929 . S
H3495 C3505 0.929 . S
H3496 C3500 0.929 . S
H3497 C3506 0.929 . S
C3498 H3492 0.930 . S
C3498 C3499 1.367 . S
C3498 C3506 1.378 . S
C3499 C3498 1.367 . S
C3499 C3507 1.433 . S
C3500 H3496 0.929 . S
C3500 C3502 1.378 . S
C3500 C3504 1.350 . S
C3501 C3504 1.463 . S
C3501 C3506 1.350 . S
C3501 N3509 1.427 . S
C3502 H3493 0.930 . S
C3502 C3500 1.378 . S
C3502 C3503 1.367 . S
C3503 C3502 1.367 . S
C3503 C3505 1.433 . S
C3504 C3500 1.350 . S
C3504 C3501 1.463 . S
C3504 N3508 1.427 . S
C3505 H3495 0.929 . S
C3505 C3503 1.433 . S
C3505 N3508 1.384 . S
C3506 H3497 0.929 . S
C3506 C3498 1.378 . S
C3506 C3501 1.350 . S
C3507 H3494 0.929 . S
C3507 C3499 1.433 . S
C3507 N3509 1.384 . S
N3508 C3504 1.427 . S
N3508 C3505 1.384 . S
N3509 C3501 1.427 . S
N3509 C3507 1.384 . S
H3510 C3516 0.930 . S
H3511 C3520 0.930 . S
H3512 C3525 0.929 . S
H3513 C3523 0.929 . S
H3514 C3518 0.929 . S
H3515 C3524 0.929 . S
C3516 H3510 0.930 . S
C3516 C3517 1.367 . S
C3516 C3524 1.378 . S
C3517 C3516 1.367 . S
C3517 C3525 1.433 . S
C3518 H3514 0.929 . S
C3518 C3520 1.378 . S
C3518 C3522 1.350 . S
C3519 C3522 1.463 . S
C3519 C3524 1.350 . S
C3519 N3527 1.427 . S
C3520 H3511 0.930 . S
C3520 C3518 1.378 . S
C3520 C3521 1.367 . S
C3521 C3520 1.367 . S
C3521 C3523 1.433 . S
C3522 C3518 1.350 . S
C3522 C3519 1.463 . S
C3522 N3526 1.427 . S
C3523 H3513 0.929 . S
C3523 C3521 1.433 . S
C3523 N3526 1.384 . S
C3524 H3515 0.929 . S
C3524 C3516 1.378 . S
C3524 C3519 1.350 . S
C3525 H3512 0.929 . S
C3525 C3517 1.433 . S
C3525 N3527 1.384 . S
N3526 C3522 1.427 . S
N3526 C3523 1.384 . S
N3527 C3519 1.427 . S
N3527 C3525 1.384 . S
H3528 C3534 0.930 . S
H3529 C3538 0.930 . S
H3530 C3543 0.929 . S
H3531 C3541 0.929 . S
H3532 C3536 0.929 . S
H3533 C3542 0.929 . S
C3534 H3528 0.930 . S
C3534 C3535 1.367 . S
C3534 C3542 1.378 . S
C3535 C3534 1.367 . S
C3535 C3543 1.433 . S
C3536 H3532 0.929 . S
C3536 C3538 1.378 . S
C3536 C3540 1.350 . S
C3537 C3540 1.463 . S
C3537 C3542 1.350 . S
C3537 N3545 1.427 . S
C3538 H3529 0.930 . S
C3538 C3536 1.378 . S
C3538 C3539 1.367 . S
C3539 C3538 1.367 . S
C3539 C3541 1.433 . S
C3540 C3536 1.350 . S
C3540 C3537 1.463 . S
C3540 N3544 1.427 . S
C3541 H3531 0.929 . S
C3541 C3539 1.433 . S
C3541 N3544 1.384 . S
C3542 H3533 0.929 . S
C3542 C3534 1.378 . S
C3542 C3537 1.350 . S
C3543 H3530 0.929 . S
C3543 C3535 1.433 . S
C3543 N3545 1.384 . S
N3544 C3540 1.427 . S
N3544 C3541 1.384 . S
N3545 C3537 1.427 . S
N3545 C3543 1.384 . S
H3546 C3552 0.930 . S
H3547 C3556 0.930 . S
H3548 C3561 0.929 . S
H3549 C3559 0.929 . S
H3550 C3554 0.929 . S
H3551 C3560 0.929 . S
C3552 H3546 0.930 . S
C3552 C3553 1.367 . S
C3552 C3560 1.378 . S
C3553 C3552 1.367 . S
C3553 C3561 1.433 . S
C3554 H3550 0.929 . S
C3554 C3556 1.378 . S
C3554 C3558 1.350 . S
C3555 C3558 1.463 . S
C3555 C3560 1.350 . S
C3555 N3563 1.427 . S
C3556 H3547 0.930 . S
C3556 C3554 1.378 . S
C3556 C3557 1.367 . S
C3557 C3556 1.367 . S
C3557 C3559 1.433 . S
C3558 C3554 1.350 . S
C3558 C3555 1.463 . S
C3558 N3562 1.427 . S
C3559 H3549 0.929 . S
C3559 C3557 1.433 . S
C3559 N3562 1.384 . S
C3560 H3551 0.929 . S
C3560 C3552 1.378 . S
C3560 C3555 1.350 . S
C3561 H3548 0.929 . S
C3561 C3553 1.433 . S
C3561 N3563 1.384 . S
N3562 C3558 1.427 . S
N3562 C3559 1.384 . S
N3563 C3555 1.427 . S
N3563 C3561 1.384 . S
H3564 C3570 0.930 . S
H3565 C3574 0.930 . S
H3566 C3579 0.929 . S
H3567 C3577 0.929 . S
H3568 C3572 0.929 . S
H3569 C3578 0.929 . S
C3570 H3564 0.930 . S
C3570 C3571 1.367 . S
C3570 C3578 1.378 . S
C3571 C3570 1.367 . S
C3571 C3579 1.433 . S
C3572 H3568 0.929 . S
C3572 C3574 1.378 . S
C3572 C3576 1.350 . S
C3573 C3576 1.463 . S
C3573 C3578 1.350 . S
C3573 N3581 1.427 . S
C3574 H3565 0.930 . S
C3574 C3572 1.378 . S
C3574 C3575 1.367 . S
C3575 C3574 1.367 . S
C3575 C3577 1.433 . S
C3576 C3572 1.350 . S
C3576 C3573 1.463 . S
C3576 N3580 1.427 . S
C3577 H3567 0.929 . S
C3577 C3575 1.433 . S
C3577 N3580 1.384 . S
C3578 H3569 0.929 . S
C3578 C3570 1.378 . S
C3578 C3573 1.350 . S
C3579 H3566 0.929 . S
C3579 C3571 1.433 . S
C3579 N3581 1.384 . S
N3580 C3576 1.427 . S
N3580 C3577 1.384 . S
N3581 C3573 1.427 . S
N3581 C3579 1.384 . S
H3582 C3588 0.930 . S
H3583 C3592 0.930 . S
H3584 C3597 0.929 . S
H3585 C3595 0.929 . S
H3586 C3590 0.929 . S
H3587 C3596 0.929 . S
C3588 H3582 0.930 . S
C3588 C3589 1.367 . S
C3588 C3596 1.378 . S
C3589 C3588 1.367 . S
C3589 C3597 1.433 . S
C3590 H3586 0.929 . S
C3590 C3592 1.378 . S
C3590 C3594 1.350 . S
C3591 C3594 1.463 . S
C3591 C3596 1.350 . S
C3591 N3599 1.427 . S
C3592 H3583 0.930 . S
C3592 C3590 1.378 . S
C3592 C3593 1.367 . S
C3593 C3592 1.367 . S
C3593 C3595 1.433 . S
C3594 C3590 1.350 . S
C3594 C3591 1.463 . S
C3594 N3598 1.427 . S
C3595 H3585 0.929 . S
C3595 C3593 1.433 . S
C3595 N3598 1.384 . S
C3596 H3587 0.929 . S
C3596 C3588 1.378 . S
C3596 C3591 1.350 . S
C3597 H3584 0.929 . S
C3597 C3589 1.433 . S
C3597 N3599 1.384 . S
N3598 C3594 1.427 . S
N3598 C3595 1.384 . S
N3599 C3591 1.427 . S
N3599 C3597 1.384 . S
H3600 C3606 0.930 . S
H3601 C3610 0.930 . S
H3602 C3615 0.929 . S
H3603 C3613 0.929 . S
H3604 C3608 0.929 . S
H3605 C3614 0.929 . S
C3606 H3600 0.930 . S
C3606 C3607 1.367 . S
C3606 C3614 1.378 . S
C3607 C3606 1.367 . S
C3607 C3615 1.433 . S
C3608 H3604 0.929 . S
C3608 C3610 1.378 . S
C3608 C3612 1.350 . S
C3609 C3612 1.463 . S
C3609 C3614 1.350 . S
C3609 N3617 1.427 . S
C3610 H3601 0.930 . S
C3610 C3608 1.378 . S
C3610 C3611 1.367 . S
C3611 C3610 1.367 . S
C3611 C3613 1.433 . S
C3612 C3608 1.350 . S
C3612 C3609 1.463 . S
C3612 N3616 1.427 . S
C3613 H3603 0.929 . S
C3613 C3611 1.433 . S
C3613 N3616 1.384 . S
C3614 H3605 0.929 . S
C3614 C3606 1.378 . S
C3614 C3609 1.350 . S
C3615 H3602 0.929 . S
C3615 C3607 1.433 . S
C3615 N3617 1.384 . S
N3616 C3612 1.427 . S
N3616 C3613 1.384 . S
N3617 C3609 1.427 . S
N3617 C3615 1.384 . S
H3618 C3624 0.930 . S
H3619 C3628 0.930 . S
H3620 C3633 0.929 . S
H3621 C3631 0.929 . S
H3622 C3626 0.929 . S
H3623 C3632 0.929 . S
C3624 H3618 0.930 . S
C3624 C3625 1.367 . S
C3624 C3632 1.378 . S
C3625 C3624 1.367 . S
C3625 C3633 1.433 . S
C3626 H3622 0.929 . S
C3626 C3628 1.378 . S
C3626 C3630 1.350 . S
C3627 C3630 1.463 . S
C3627 C3632 1.350 . S
C3627 N3635 1.427 . S
C3628 H3619 0.930 . S
C3628 C3626 1.378 . S
C3628 C3629 1.367 . S
C3629 C3628 1.367 . S
C3629 C3631 1.433 . S
C3630 C3626 1.350 . S
C3630 C3627 1.463 . S
C3630 N3634 1.427 . S
C3631 H3621 0.929 . S
C3631 C3629 1.433 . S
C3631 N3634 1.384 . S
C3632 H3623 0.929 . S
C3632 C3624 1.378 . S
C3632 C3627 1.350 . S
C3633 H3620 0.929 . S
C3633 C3625 1.433 . S
C3633 N3635 1.384 . S
N3634 C3630 1.427 . S
N3634 C3631 1.384 . S
N3635 C3627 1.427 . S
N3635 C3633 1.384 . S
H3636 C3642 0.930 . S
H3637 C3646 0.930 . S
H3638 C3651 0.929 . S
H3639 C3649 0.929 . S
H3640 C3644 0.929 . S
H3641 C3650 0.929 . S
C3642 H3636 0.930 . S
C3642 C3643 1.367 . S
C3642 C3650 1.378 . S
C3643 C3642 1.367 . S
C3643 C3651 1.433 . S
C3644 H3640 0.929 . S
C3644 C3646 1.378 . S
C3644 C3648 1.350 . S
C3645 C3648 1.463 . S
C3645 C3650 1.350 . S
C3645 N3653 1.427 . S
C3646 H3637 0.930 . S
C3646 C3644 1.378 . S
C3646 C3647 1.367 . S
C3647 C3646 1.367 . S
C3647 C3649 1.433 . S
C3648 C3644 1.350 . S
C3648 C3645 1.463 . S
C3648 N3652 1.427 . S
C3649 H3639 0.929 . S
C3649 C3647 1.433 . S
C3649 N3652 1.384 . S
C3650 H3641 0.929 . S
C3650 C3642 1.378 . S
C3650 C3645 1.350 . S
C3651 H3638 0.929 . S
C3651 C3643 1.433 . S
C3651 N3653 1.384 . S
N3652 C3648 1.427 . S
N3652 C3649 1.384 . S
N3653 C3645 1.427 . S
N3653 C3651 1.384 . S
H3654 C3660 0.930 . S
H3655 C3664 0.930 . S
H3656 C3669 0.929 . S
H3657 C3667 0.929 . S
H3658 C3662 0.929 . S
H3659 C3668 0.929 . S
C3660 H3654 0.930 . S
C3660 C3661 1.367 . S
C3660 C3668 1.378 . S
C3661 C3660 1.367 . S
C3661 C3669 1.433 . S
C3662 H3658 0.929 . S
C3662 C3664 1.378 . S
C3662 C3666 1.350 . S
C3663 C3666 1.463 . S
C3663 C3668 1.350 . S
C3663 N3671 1.427 . S
C3664 H3655 0.930 . S
C3664 C3662 1.378 . S
C3664 C3665 1.367 . S
C3665 C3664 1.367 . S
C3665 C3667 1.433 . S
C3666 C3662 1.350 . S
C3666 C3663 1.463 . S
C3666 N3670 1.427 . S
C3667 H3657 0.929 . S
C3667 C3665 1.433 . S
C3667 N3670 1.384 . S
C3668 H3659 0.929 . S
C3668 C3660 1.378 . S
C3668 C3663 1.350 . S
C3669 H3656 0.929 . S
C3669 C3661 1.433 . S
C3669 N3671 1.384 . S
N3670 C3666 1.427 . S
N3670 C3667 1.384 . S
N3671 C3663 1.427 . S
N3671 C3669 1.384 . S
H3672 C3678 0.930 . S
H3673 C3682 0.930 . S
H3674 C3687 0.929 . S
H3675 C3685 0.929 . S
H3676 C3680 0.929 . S
H3677 C3686 0.929 . S
C3678 H3672 0.930 . S
C3678 C3679 1.367 . S
C3678 C3686 1.378 . S
C3679 C3678 1.367 . S
C3679 C3687 1.433 . S
C3680 H3676 0.929 . S
C3680 C3682 1.378 . S
C3680 C3684 1.350 . S
C3681 C3684 1.463 . S
C3681 C3686 1.350 . S
C3681 N3689 1.427 . S
C3682 H3673 0.930 . S
C3682 C3680 1.378 . S
C3682 C3683 1.367 . S
C3683 C3682 1.367 . S
C3683 C3685 1.433 . S
C3684 C3680 1.350 . S
C3684 C3681 1.463 . S
C3684 N3688 1.427 . S
C3685 H3675 0.929 . S
C3685 C3683 1.433 . S
C3685 N3688 1.384 . S
C3686 H3677 0.929 . S
C3686 C3678 1.378 . S
C3686 C3681 1.350 . S
C3687 H3674 0.929 . S
C3687 C3679 1.433 . S
C3687 N3689 1.384 . S
N3688 C3684 1.427 . S
N3688 C3685 1.384 . S
N3689 C3681 1.427 . S
N3689 C3687 1.384 . S
H3690 C3696 0.930 . S
H3691 C3700 0.930 . S
H3692 C3705 0.929 . S
H3693 C3703 0.929 . S
H3694 C3698 0.929 . S
H3695 C3704 0.929 . S
C3696 H3690 0.930 . S
C3696 C3697 1.367 . S
C3696 C3704 1.378 . S
C3697 C3696 1.367 . S
C3697 C3705 1.433 . S
C3698 H3694 0.929 . S
C3698 C3700 1.378 . S
C3698 C3702 1.350 . S
C3699 C3702 1.463 . S
C3699 C3704 1.350 . S
C3699 N3707 1.427 . S
C3700 H3691 0.930 . S
C3700 C3698 1.378 . S
C3700 C3701 1.367 . S
C3701 C3700 1.367 . S
C3701 C3703 1.433 . S
C3702 C3698 1.350 . S
C3702 C3699 1.463 . S
C3702 N3706 1.427 . S
C3703 H3693 0.929 . S
C3703 C3701 1.433 . S
C3703 N3706 1.384 . S
C3704 H3695 0.929 . S
C3704 C3696 1.378 . S
C3704 C3699 1.350 . S
C3705 H3692 0.929 . S
C3705 C3697 1.433 . S
C3705 N3707 1.384 . S
N3706 C3702 1.427 . S
N3706 C3703 1.384 . S
N3707 C3699 1.427 . S
N3707 C3705 1.384 . S
H3708 C3714 0.930 . S
H3709 C3718 0.930 . S
H3710 C3723 0.929 . S
H3711 C3721 0.929 . S
H3712 C3716 0.929 . S
H3713 C3722 0.929 . S
C3714 H3708 0.930 . S
C3714 C3715 1.367 . S
C3714 C3722 1.378 . S
C3715 C3714 1.367 . S
C3715 C3723 1.433 . S
C3716 H3712 0.929 . S
C3716 C3718 1.378 . S
C3716 C3720 1.350 . S
C3717 C3720 1.463 . S
C3717 C3722 1.350 . S
C3717 N3725 1.427 . S
C3718 H3709 0.930 . S
C3718 C3716 1.378 . S
C3718 C3719 1.367 . S
C3719 C3718 1.367 . S
C3719 C3721 1.433 . S
C3720 C3716 1.350 . S
C3720 C3717 1.463 . S
C3720 N3724 1.427 . S
C3721 H3711 0.929 . S
C3721 C3719 1.433 . S
C3721 N3724 1.384 . S
C3722 H3713 0.929 . S
C3722 C3714 1.378 . S
C3722 C3717 1.350 . S
C3723 H3710 0.929 . S
C3723 C3715 1.433 . S
C3723 N3725 1.384 . S
N3724 C3720 1.427 . S
N3724 C3721 1.384 . S
N3725 C3717 1.427 . S
N3725 C3723 1.384 . S
H3726 C3732 0.930 . S
H3727 C3736 0.930 . S
H3728 C3741 0.929 . S
H3729 C3739 0.929 . S
H3730 C3734 0.929 . S
H3731 C3740 0.929 . S
C3732 H3726 0.930 . S
C3732 C3733 1.367 . S
C3732 C3740 1.378 . S
C3733 C3732 1.367 . S
C3733 C3741 1.433 . S
C3734 H3730 0.929 . S
C3734 C3736 1.378 . S
C3734 C3738 1.350 . S
C3735 C3738 1.463 . S
C3735 C3740 1.350 . S
C3735 N3743 1.427 . S
C3736 H3727 0.930 . S
C3736 C3734 1.378 . S
C3736 C3737 1.367 . S
C3737 C3736 1.367 . S
C3737 C3739 1.433 . S
C3738 C3734 1.350 . S
C3738 C3735 1.463 . S
C3738 N3742 1.427 . S
C3739 H3729 0.929 . S
C3739 C3737 1.433 . S
C3739 N3742 1.384 . S
C3740 H3731 0.929 . S
C3740 C3732 1.378 . S
C3740 C3735 1.350 . S
C3741 H3728 0.929 . S
C3741 C3733 1.433 . S
C3741 N3743 1.384 . S
N3742 C3738 1.427 . S
N3742 C3739 1.384 . S
N3743 C3735 1.427 . S
N3743 C3741 1.384 . S
C1591 C282 0.959 . S
C1595 N13 0.963 . S
C1609 C315 0.966 . S
C1613 N46 0.966 . S
C1627 N79 0.960 . S
C1631 C348 0.961 . S
C1645 N112 0.967 . S
C1649 C381 0.966 . S
C1663 N145 0.960 . S
C1667 C414 0.962 . S
C1681 C447 0.965 . S
C1685 N178 0.962 . S
C1699 C480 0.964 . S
C1703 N211 0.961 . S
C1717 N244 0.961 . S
C1721 C513 0.960 . S
C1735 N277 0.963 . S
C1739 C546 0.966 . S
C1753 N310 0.966 . S
C1757 C1569 0.961 . S
C1771 N343 0.964 . S
C1775 C1503 0.959 . S
C1789 N376 0.967 . S
C1793 C1536 0.965 . S
C1807 C579 0.959 . S
C1811 N409 0.961 . S
C1825 C612 0.959 . S
C1829 N442 0.962 . S
C1843 N475 0.960 . S
C1847 C645 0.962 . S
C1861 N508 0.961 . S
C1865 C1470 0.964 . S
C1879 N541 0.966 . S
C1883 C18 0.966 . S
C1897 C150 0.960 . S
C1901 N574 0.965 . S
C1915 N607 0.967 . S
C1919 C183 0.963 . S
C1933 C216 0.967 . S
C1937 N640 0.965 . S
C1951 N673 0.965 . S
C1955 C1041 0.960 . S
C1969 N706 0.964 . S
C1973 C876 0.967 . S
C1987 N739 0.960 . S
C1991 C909 0.963 . S
C2005 N772 0.966 . S
C2009 C843 0.966 . S
C2023 C1074 0.962 . S
C2027 N805 0.960 . S
C2041 C1107 0.966 . S
C2045 N838 0.962 . S
C2059 C1140 0.965 . S
C2063 N871 0.967 . S
C2077 N904 0.963 . S
C2081 C1173 0.966 . S
C2095 C1206 0.962 . S
C2099 N937 0.966 . S
C2113 C1239 0.967 . S
C2117 N970 0.964 . S
C2131 N1003 0.967 . S
C2135 C1272 0.965 . S
C2149 N1036 0.961 . S
C2153 C1305 0.965 . S
C2167 N1069 0.967 . S
C2171 C1338 0.964 . S
C2185 C777 0.961 . S
C2189 N1102 0.966 . S
C2203 C711 0.967 . S
C2207 N1135 0.966 . S
C2221 N1168 0.961 . S
C2225 C744 0.964 . S
C2239 N1201 0.963 . S
C2243 C1371 0.966 . S
C2257 N1234 0.967 . S
C2261 C1404 0.963 . S
C2275 C1437 0.959 . S
C2279 N1267 0.963 . S
C2293 N1300 0.962 . S
C2297 C678 0.965 . S
C2311 C810 0.959 . S
C2315 N1333 0.963 . S
C2329 N1366 0.966 . S
C2333 C942 0.961 . S
C2347 N1399 0.966 . S
C2351 C975 0.966 . S
C2365 C1008 0.965 . S
C2369 N1432 0.967 . S
C2383 N1465 0.965 . S
C2387 C249 0.967 . S
C2401 N1498 0.964 . S
C2405 C84 0.959 . S
C2419 C117 0.959 . S
C2423 N1531 0.963 . S
C2437 C51 0.967 . S
C2441 N1564 0.965 . S
C2455 C21 1.853 . S
C2459 C87 1.850 . S
C2473 C54 1.852 . S
C2477 C120 1.848 . S
C2491 C219 1.852 . S
C2495 C153 1.853 . S
C2509 C186 1.847 . S
C2513 C252 1.851 . S
C2527 C417 1.847 . S
C2531 C285 1.847 . S
C2545 C318 1.852 . S
C2549 C450 1.848 . S
C2563 C483 1.853 . S
C2567 C351 1.852 . S
C2581 C516 1.853 . S
C2585 C384 1.850 . S
C2599 C1440 1.848 . S
C2603 C549 1.852 . S
C2617 C582 1.852 . S
C2621 C714 1.849 . S
C2635 C615 1.852 . S
C2639 C747 1.849 . S
C2653 C648 1.846 . S
C2657 C1341 1.848 . S
C2671 C1572 1.852 . S
C2675 C681 1.853 . S
C2689 C1473 1.847 . S
C2693 C780 1.846 . S
C2707 C879 1.846 . S
C2711 C813 1.849 . S
C2725 C912 1.853 . S
C2729 C846 1.851 . S
C2743 C1011 1.851 . S
C2747 C945 1.853 . S
C2761 C1044 1.852 . S
C2765 C978 1.848 . S
C2779 C1077 1.853 . S
C2783 C1209 1.850 . S
C2797 C1242 1.852 . S
C2801 C1110 1.849 . S
C2815 C1143 1.853 . S
C2819 C1275 1.850 . S
C2833 C1308 1.851 . S
C2837 C1176 1.853 . S
C2851 C1506 1.851 . S
C2855 C1374 1.847 . S
C2869 C1407 1.848 . S
C2873 C1539 1.846 . S
C2887 C436 1.745 . S
C2891 N2 1.640 . S
C2905 C469 1.746 . S
C2909 N35 1.626 . S
C2923 N68 1.634 . S
C2927 C502 1.743 . S
C2941 N101 1.623 . S
C2945 C403 1.745 . S
C2959 N134 1.627 . S
C2963 C1162 1.744 . S
C2977 C1063 1.745 . S
C2981 N167 1.641 . S
C2995 C1096 1.745 . S
C2999 N200 1.625 . S
C3013 N233 1.625 . S
C3017 C1129 1.746 . S
C3031 N266 1.636 . S
C3035 C832 1.746 . S
C3049 C865 1.744 . S
C3053 N299 1.641 . S
C3067 C898 1.743 . S
C3071 N332 1.634 . S
C3085 N365 1.637 . S
C3089 C799 1.746 . S
C3103 N398 1.623 . S
C3107 C238 1.745 . S
C3121 N431 1.641 . S
C3125 C139 1.745 . S
C3139 C172 1.743 . S
C3143 N464 1.637 . S
C3157 N497 1.641 . S
C3161 C205 1.744 . S
C3175 C1525 1.745 . S
C3179 N530 1.640 . S
C3193 N563 1.639 . S
C3197 C1393 1.744 . S
C3211 C1426 1.744 . S
C3215 N596 1.626 . S
C3229 N629 1.635 . S
C3233 C667 1.743 . S
C3247 C568 1.744 . S
C3251 N662 1.640 . S
C3265 N695 1.638 . S
C3269 C766 1.744 . S
C3283 N728 1.632 . S
C3287 C700 1.743 . S
C3301 C1327 1.744 . S
C3305 N761 1.629 . S
C3319 C1228 1.745 . S
C3323 N794 1.639 . S
C3337 C1261 1.746 . S
C3341 N827 1.626 . S
C3355 N860 1.631 . S
C3359 C1294 1.746 . S
C3373 N893 1.636 . S
C3377 C1195 1.743 . S
C3391 C370 1.746 . S
C3395 N926 1.624 . S
C3409 N959 1.629 . S
C3413 C271 1.746 . S
C3427 N992 1.634 . S
C3431 C304 1.746 . S
C3445 N1025 1.636 . S
C3449 C337 1.743 . S
C3463 N1058 1.624 . S
C3467 C40 1.745 . S
C3481 N1091 1.630 . S
C3485 C73 1.744 . S
C3499 N1124 1.640 . S
C3503 C106 1.744 . S
C3517 N1157 1.640 . S
C3521 C7 1.745 . S
C3535 C1030 1.743 . S
C3539 N1190 1.633 . S
C3553 C931 1.744 . S
C3557 N1223 1.637 . S
C3571 N1256 1.623 . S
C3575 C964 1.745 . S
C3589 N1289 1.641 . S
C3593 C997 1.745 . S
C3607 C733 1.746 . S
C3611 N1322 1.633 . S
C3625 N1355 1.624 . S
C3629 C601 1.745 . S
C3643 C634 1.744 . S
C3647 N1388 1.640 . S
C3661 N1421 1.625 . S
C3665 C1459 1.744 . S
C3679 C1360 1.745 . S
C3683 N1454 1.623 . S
C3697 C1558 1.744 . S
C3701 N1487 1.639 . S
C3715 C1492 1.745 . S
C3719 N1520 1.624 . S
C3733 N1553 1.629 . S
C3737 C535 1.746 . S
