# Generated by pormake.
# Topology wji, (4)-cn, num edge types: 1
# Building blocks:
#     Node 0, Type 0, BuildingBlock: NAHDIM_clean_sbu_0, # of connection points: 4
#     Node 1, Type 0, BuildingBlock: NAHDIM_clean_sbu_0, # of connection points: 4
#     Node 2, Type 0, BuildingBlock: NAHDIM_clean_sbu_0, # of connection points: 4
#     Node 3, Type 0, BuildingBlock: NAHDIM_clean_sbu_0, # of connection points: 4
#     Node 4, Type 0, BuildingBlock: NAHDIM_clean_sbu_0, # of connection points: 4
#     Node 5, Type 0, BuildingBlock: NAHDIM_clean_sbu_0, # of connection points: 4
#     Node 6, Type 0, BuildingBlock: NAHDIM_clean_sbu_0, # of connection points: 4
#     Node 7, Type 0, BuildingBlock: NAHDIM_clean_sbu_0, # of connection points: 4
#     Node 8, Type 0, BuildingBlock: NAHDIM_clean_sbu_0, # of connection points: 4
#     Node 9, Type 0, BuildingBlock: NAHDIM_clean_sbu_0, # of connection points: 4
#     Node 10, Type 0, BuildingBlock: NAHDIM_clean_sbu_0, # of connection points: 4
#     Node 11, Type 0, BuildingBlock: NAHDIM_clean_sbu_0, # of connection points: 4
#     Edge 12, Type (0, 0), BuildingBlock: OJICUG_clean_linker_0, # of connection points: 2
#     Edge 13, Type (0, 0), BuildingBlock: OJICUG_clean_linker_0, # of connection points: 2
#     Edge 14, Type (0, 0), BuildingBlock: OJICUG_clean_linker_0, # of connection points: 2
#     Edge 15, Type (0, 0), BuildingBlock: OJICUG_clean_linker_0, # of connection points: 2
#     Edge 16, Type (0, 0), BuildingBlock: OJICUG_clean_linker_0, # of connection points: 2
#     Edge 17, Type (0, 0), BuildingBlock: OJICUG_clean_linker_0, # of connection points: 2
#     Edge 18, Type (0, 0), BuildingBlock: OJICUG_clean_linker_0, # of connection points: 2
#     Edge 19, Type (0, 0), BuildingBlock: OJICUG_clean_linker_0, # of connection points: 2
#     Edge 20, Type (0, 0), BuildingBlock: OJICUG_clean_linker_0, # of connection points: 2
#     Edge 21, Type (0, 0), BuildingBlock: OJICUG_clean_linker_0, # of connection points: 2
#     Edge 22, Type (0, 0), BuildingBlock: OJICUG_clean_linker_0, # of connection points: 2
#     Edge 23, Type (0, 0), BuildingBlock: OJICUG_clean_linker_0, # of connection points: 2
#     Edge 24, Type (0, 0), BuildingBlock: OJICUG_clean_linker_0, # of connection points: 2
#     Edge 25, Type (0, 0), BuildingBlock: OJICUG_clean_linker_0, # of connection points: 2
#     Edge 26, Type (0, 0), BuildingBlock: OJICUG_clean_linker_0, # of connection points: 2
#     Edge 27, Type (0, 0), BuildingBlock: OJICUG_clean_linker_0, # of connection points: 2
#     Edge 28, Type (0, 0), BuildingBlock: OJICUG_clean_linker_0, # of connection points: 2
#     Edge 29, Type (0, 0), BuildingBlock: OJICUG_clean_linker_0, # of connection points: 2
#     Edge 30, Type (0, 0), BuildingBlock: OJICUG_clean_linker_0, # of connection points: 2
#     Edge 31, Type (0, 0), BuildingBlock: OJICUG_clean_linker_0, # of connection points: 2
#     Edge 32, Type (0, 0), BuildingBlock: OJICUG_clean_linker_0, # of connection points: 2
#     Edge 33, Type (0, 0), BuildingBlock: OJICUG_clean_linker_0, # of connection points: 2
#     Edge 34, Type (0, 0), BuildingBlock: OJICUG_clean_linker_0, # of connection points: 2
#     Edge 35, Type (0, 0), BuildingBlock: OJICUG_clean_linker_0, # of connection points: 2
# Relax obj value: 0.148
# Max RMSD: 0.092
# Mean RMSD: 0.092
data_MOF--net-wji--node1-NAHDIM_clean_sbu_0--edge1-OJICUG_clean_linker_0
_symmetry_space_group_name_H-M    P1
_symmetry_Int_Tables_number       1
_symmetry_cell_setting            triclinic
loop_
_symmetry_equiv_pos_as_xyz
'x, y, z'
_cell_length_a     42.303862
_cell_length_b     42.347825
_cell_length_c     16.857005
_cell_angle_alpha  90.141341
_cell_angle_beta   89.915521
_cell_angle_gamma 119.98871
loop_
_atom_site_label
_atom_site_type_symbol
_atom_site_fract_x
_atom_site_fract_y
_atom_site_fract_z
_atom_type_partial_charge
C0 C 0.42307 0.25266 0.44281 0.0
O1 O 0.45299 0.27635 0.40598 0.0
O2 O 0.45058 0.34271 0.39034 0.0
Zn3 Zn 0.39813 0.3028 0.39992 0.0
O4 O 0.37447 0.31708 0.48408 0.0
C5 C 0.34879 0.30726 0.28633 0.0
O6 O 0.33242 0.30946 0.35061 0.0
O7 O 0.39524 0.25666 0.4408 0.0
C8 C 0.38339 0.35 0.49721 0.0
O9 O 0.40825 0.37592 0.45253 0.0
C10 C 0.47226 0.3581 0.44813 0.0
O11 O 0.46099 0.347 0.52081 0.0
O12 O 0.37486 0.30055 0.29318 0.0
C13 C 0.16924 0.44091 0.62944 0.0
O14 O 0.17482 0.47071 0.5933 0.0
O15 O 0.1085 0.47182 0.57812 0.0
Zn16 Zn 0.09354 0.42084 0.61287 0.0
O17 O 0.06822 0.41326 0.71664 0.0
C18 C 0.02571 0.3834 0.53758 0.0
O19 O 0.02075 0.40279 0.59195 0.0
O20 O 0.13679 0.41462 0.63738 0.0
C21 C 0.05445 0.38248 0.75041 0.0
O22 O 0.05666 0.35584 0.71568 0.0
C23 C 0.11723 0.49675 0.62976 0.0
O24 O 0.11874 0.48929 0.70479 0.0
O25 O 0.05678 0.38549 0.53318 0.0
C26 C 0.71628 0.16384 0.86483 0.0
O27 O 0.68223 0.14808 0.88904 0.0
O28 O 0.63557 0.1117 0.75718 0.0
Zn29 Zn 0.68002 0.10592 0.76069 0.0
O30 O 0.66904 0.0689 0.84458 0.0
C31 C 0.679 0.05356 0.64769 0.0
O32 O 0.67726 0.0357 0.7126 0.0
O33 O 0.72374 0.15188 0.80224 0.0
C34 C 0.69285 0.06736 0.88752 0.0
O35 O 0.72765 0.09047 0.87553 0.0
C36 C 0.6054 0.08185 0.7547 0.0
O37 O 0.60591 0.05112 0.75048 0.0
O38 O 0.68376 0.08569 0.65355 0.0
C39 C 0.60141 0.74112 0.01699 0.0
O40 O 0.59881 0.71588 0.06603 0.0
O41 O 0.54821 0.65005 0.89903 0.0
Zn42 Zn 0.60091 0.68943 0.90871 0.0
O43 O 0.62452 0.67532 0.99343 0.0
C44 C 0.64941 0.6826 0.79519 0.0
O45 O 0.66582 0.68056 0.85945 0.0
O46 O 0.60345 0.73667 0.94267 0.0
C47 C 0.61463 0.64226 0.00757 0.0
O48 O 0.5892 0.61643 0.96359 0.0
C49 C 0.52561 0.63433 0.9552 0.0
O50 O 0.53575 0.64475 0.02874 0.0
O51 O 0.62367 0.68982 0.80199 0.0
C52 C 0.81879 0.54285 0.11055 0.0
O53 O 0.81886 0.51275 0.09208 0.0
O54 O 0.88852 0.52714 0.04082 0.0
Zn55 Zn 0.89252 0.57679 0.04889 0.0
O56 O 0.92905 0.60523 0.1323 0.0
C57 C 0.90802 0.58676 0.88172 0.0
O58 O 0.88423 0.55166 0.88071 0.0
O59 O 0.84575 0.57335 0.08984 0.0
C60 C 0.95916 0.60576 0.13924 0.0
O61 O 0.96733 0.58707 0.08923 0.0
C62 C 0.88907 0.50989 0.10198 0.0
O63 O 0.89121 0.52414 0.17248 0.0
O64 O 0.91347 0.60419 0.94642 0.0
C65 C 0.28001 0.8477 0.37684 0.0
O66 O 0.31282 0.86305 0.40822 0.0
O67 O 0.36349 0.89424 0.26475 0.0
Zn68 Zn 0.3219 0.90445 0.27478 0.0
O69 O 0.33487 0.93914 0.36451 0.0
C70 C 0.34233 0.96312 0.16969 0.0
O71 O 0.3676 0.97778 0.22474 0.0
O72 O 0.27575 0.85978 0.31098 0.0
C73 C 0.31465 0.95201 0.38466 0.0
O74 O 0.28483 0.94306 0.34407 0.0
C75 C 0.37664 0.89157 0.19894 0.0
O76 O 0.36161 0.8938 0.1326 0.0
O77 O 0.31777 0.92972 0.17638 0.0
C78 C 0.71116 0.53468 0.33523 0.0
O79 O 0.68066 0.50354 0.34316 0.0
O80 O 0.62815 0.51135 0.44125 0.0
Zn81 Zn 0.66871 0.5622 0.4125 0.0
O82 O 0.65034 0.57811 0.32101 0.0
C83 C 0.65683 0.61005 0.51119 0.0
O84 O 0.63092 0.60084 0.45819 0.0
O85 O 0.71385 0.56312 0.3676 0.0
C86 C 0.67058 0.60775 0.28492 0.0
O87 O 0.70381 0.62964 0.31101 0.0
C88 C 0.60696 0.49155 0.38601 0.0
O89 O 0.61345 0.50398 0.31297 0.0
O90 O 0.67813 0.597 0.50481 0.0
C91 C 0.15919 0.73232 0.54863 0.0
O92 O 0.16527 0.70961 0.58981 0.0
O93 O 0.10152 0.63972 0.59193 0.0
Zn94 Zn 0.08425 0.67404 0.55809 0.0
O95 O 0.05948 0.65599 0.45377 0.0
C96 C 0.01643 0.64015 0.63379 0.0
O97 O 0.01305 0.61649 0.57912 0.0
O98 O 0.12647 0.72432 0.53499 0.0
C99 C 0.04299 0.67074 0.42173 0.0
O100 O 0.04197 0.6976 0.45853 0.0
C101 C 0.11212 0.6251 0.54032 0.0
O102 O 0.1136 0.6343 0.46546 0.0
O103 O 0.04647 0.67024 0.63821 0.0
C104 C 0.43 0.15001 0.65761 0.0
O105 O 0.44801 0.13376 0.63459 0.0
O106 O 0.46404 0.10536 0.77387 0.0
Zn107 Zn 0.41257 0.09619 0.76865 0.0
O108 O 0.38799 0.05721 0.68735 0.0
C109 C 0.36139 0.04522 0.88332 0.0
O110 O 0.34441 0.02715 0.81908 0.0
O111 O 0.41212 0.13999 0.72243 0.0
C112 C 0.36119 0.05313 0.64582 0.0
O113 O 0.34725 0.07432 0.65831 0.0
C114 C 0.46665 0.07684 0.77978 0.0
O115 O 0.43663 0.04507 0.78628 0.0
O116 O 0.38913 0.07702 0.87637 0.0
C117 C 0.28922 0.44535 0.80275 0.0
O118 O 0.32208 0.46357 0.77217 0.0
O119 O 0.37042 0.48003 0.93591 0.0
Zn120 Zn 0.3304 0.42866 0.90707 0.0
O121 O 0.34782 0.41247 0.81391 0.0
C122 C 0.34178 0.37974 0.00315 0.0
O123 O 0.36675 0.38768 0.94837 0.0
O124 O 0.2848 0.428 0.86726 0.0
C125 C 0.32726 0.38322 0.77666 0.0
O126 O 0.29397 0.36141 0.80252 0.0
C127 C 0.39467 0.49874 0.88438 0.0
O128 O 0.39287 0.48459 0.81403 0.0
O129 O 0.32154 0.39405 -0.00119 0.0
C130 C 0.82712 0.26994 0.0735 0.0
O131 O 0.82269 0.29607 0.10378 0.0
O132 O 0.89467 0.35931 0.13115 0.0
Zn133 Zn 0.90259 0.31612 0.12276 0.0
O134 O 0.94001 0.32703 0.03971 0.0
C135 C 0.91764 0.32206 0.28995 0.0
O136 O 0.892 0.33096 0.29082 0.0
O137 O 0.85767 0.27133 0.08158 0.0
C138 C 0.968 0.35825 0.03108 0.0
O139 O 0.97322 0.38495 0.07903 0.0
C140 C 0.8912 0.37486 0.07006 0.0
O141 O 0.89142 0.36171 -0.0005 0.0
O142 O 0.92449 0.31123 0.22523 0.0
C143 C 0.59164 0.86351 0.14139 0.0
O144 O 0.58829 0.88533 0.09129 0.0
O145 O 0.53298 0.89909 0.25584 0.0
Zn146 Zn 0.58618 0.91269 0.24949 0.0
O147 O 0.60872 0.94979 0.16412 0.0
C148 C 0.61882 0.97031 0.36004 0.0
O149 O 0.60746 0.98419 0.30493 0.0
O150 O 0.59134 0.86922 0.2157 0.0
C151 C 0.64263 0.96667 0.14894 0.0
O152 O 0.66485 0.96067 0.19238 0.0
C153 C 0.5159 0.897 0.19214 0.0
O154 O 0.53279 0.90212 0.12392 0.0
O155 O 0.61237 0.93768 0.35166 0.0
C156 C 0.3167 0.35185 0.13654 0.0
C157 C 0.33966 0.35686 0.07173 0.0
H158 H 0.30113 0.3317 0.25487 0.0
C159 C 0.36242 0.34149 0.07482 0.0
H160 H 0.29865 0.36309 0.13588 0.0
C161 C 0.36378 0.3234 0.14284 0.0
C162 C 0.34244 0.32025 0.20951 0.0
H163 H 0.38018 0.34446 0.02561 0.0
H164 H 0.38274 0.31324 0.14424 0.0
C165 C 0.31807 0.33373 0.20471 0.0
C166 C 0.96219 0.36009 0.48818 0.0
C167 C 0.99642 0.36257 0.47886 0.0
H168 H 0.91035 0.34483 0.43664 0.0
C169 C 0.00277 0.34737 0.41072 0.0
H170 H 0.95614 0.37108 0.54038 0.0
C171 C 0.97624 0.33207 0.35098 0.0
C172 C 0.9429 0.33174 0.35831 0.0
H173 H 0.02876 0.34866 0.40195 0.0
H174 H 0.98259 0.32211 0.29751 0.0
C175 C 0.9358 0.34489 0.42869 0.0
C176 C 0.6456 0.97698 0.49645 0.0
C177 C 0.63773 0.99241 0.43112 0.0
H178 H 0.66526 0.98436 0.61587 0.0
C179 C 0.647 0.02926 0.43507 0.0
H180 H 0.63904 0.94877 0.49516 0.0
C181 C 0.66226 0.04976 0.50391 0.0
C182 C 0.66847 0.03386 0.57071 0.0
H183 H 0.64171 0.04218 0.38549 0.0
H184 H 0.66787 0.07767 0.50567 0.0
C185 C 0.66074 0.99747 0.56557 0.0
C186 C 0.68192 0.63822 0.64468 0.0
C187 C 0.6588 0.63287 0.58009 0.0
H188 H 0.69746 0.65858 0.76307 0.0
C189 C 0.63564 0.64779 0.58371 0.0
H190 H 0.70024 0.6273 0.64365 0.0
C191 C 0.63412 0.66583 0.65191 0.0
C192 C 0.65568 0.66936 0.71834 0.0
H193 H 0.61773 0.64455 0.5347 0.0
H194 H 0.61492 0.67568 0.65361 0.0
C195 C 0.68035 0.65625 0.71311 0.0
C196 C 0.99177 0.65075 0.76122 0.0
C197 C 0.98677 0.62976 0.69273 0.0
H198 H 0.97051 0.65385 0.87475 0.0
C199 C 0.95369 0.59679 0.68324 0.0
H200 H 0.01684 0.67634 0.77016 0.0
C201 C 0.92722 0.58395 0.74281 0.0
C202 C 0.93307 0.60374 0.81346 0.0
H203 H 0.94867 0.58011 0.6308 0.0
H204 H 0.90276 0.55773 0.73465 0.0
C205 C 0.96514 0.63787 0.82104 0.0
C206 C 0.32485 0.98924 0.966 0.0
C207 C 0.35291 0.02588 0.96046 0.0
H208 H 0.29941 0.94059 0.03627 0.0
C209 C 0.37527 0.04235 0.02681 0.0
H210 H 0.30704 0.9757 0.91606 0.0
C211 C 0.37096 0.02215 0.09549 0.0
C212 C 0.34415 0.98503 0.09956 0.0
H213 H 0.39709 0.07048 0.02475 0.0
H214 H 0.38942 0.03548 0.14462 0.0
C215 C 0.32051 0.96903 0.03484 0.0
C216 C 0.55248 0.43409 0.34016 0.0
C217 C 0.57436 0.45582 0.40304 0.0
H218 H 0.50346 0.38623 0.30503 0.0
C219 C 0.56367 0.44384 0.48136 0.0
H220 H 0.56001 0.44234 0.27908 0.0
C221 C 0.53099 0.41142 0.49635 0.0
C222 C 0.50849 0.39045 0.43328 0.0
H223 H 0.58 0.45995 0.53108 0.0
H224 H 0.52293 0.40335 0.5573 0.0
C225 C 0.51998 0.40183 0.35507 0.0
C226 C 0.12107 0.55594 0.66514 0.0
C227 C 0.12098 0.53212 0.60684 0.0
H228 H 0.11836 0.60411 0.68981 0.0
C229 C 0.12155 0.54109 0.52645 0.0
H230 H 0.12075 0.54986 0.72762 0.0
C231 C 0.12047 0.57235 0.5048 0.0
C232 C 0.11841 0.59503 0.56312 0.0
H233 H 0.12175 0.52341 0.48014 0.0
H234 H 0.11971 0.57787 0.44234 0.0
C235 C 0.11961 0.58699 0.6435 0.0
C236 C 0.53508 0.11237 0.76921 0.0
C237 C 0.50246 0.07873 0.77471 0.0
H238 H 0.59338 0.13987 0.7585 0.0
C239 C 0.50411 0.04642 0.77323 0.0
H240 H 0.53469 0.13775 0.77004 0.0
C241 C 0.53753 0.04762 0.76602 0.0
C242 C 0.57018 0.08116 0.76055 0.0
H243 H 0.47952 0.02003 0.7771 0.0
H244 H 0.53768 0.02212 0.76511 0.0
C245 C 0.56867 0.11358 0.76241 0.0
C246 C 0.48065 0.58963 0.85897 0.0
C247 C 0.48994 0.60164 0.93771 0.0
H248 H 0.44336 0.54802 0.78075 0.0
C249 C 0.46599 0.58079 -0.00101 0.0
H250 H 0.49829 0.60509 0.8102 0.0
C251 C 0.43416 0.54783 0.98191 0.0
C252 C 0.4259 0.53514 0.90333 0.0
H253 H 0.47233 0.58936 0.06029 0.0
H254 H 0.41674 0.53176 0.03037 0.0
C255 C 0.44911 0.55679 0.84205 0.0
C256 C 0.8869 0.42685 0.0108 0.0
C257 C 0.88893 0.4085 0.07828 0.0
H258 H 0.88532 0.47318 0.96524 0.0
C259 C 0.88992 0.42325 0.15367 0.0
H260 H 0.88608 0.41623 0.95186 0.0
C261 C 0.8895 0.45591 0.16134 0.0
C262 C 0.88808 0.47457 0.09382 0.0
H263 H 0.89146 0.40981 0.20691 0.0
H264 H 0.89069 0.4667 0.22027 0.0
C265 C 0.88649 0.45953 0.01848 0.0
C266 C 0.42795 0.88938 0.26845 0.0
C267 C 0.41057 0.88948 0.19739 0.0
H268 H 0.47474 0.89149 0.32272 0.0
C269 C 0.42702 0.88959 0.12487 0.0
H270 H 0.41596 0.88917 0.32541 0.0
C271 C 0.46069 0.89092 0.12339 0.0
C272 C 0.47871 0.89215 0.19439 0.0
H273 H 0.41434 0.88955 0.06906 0.0
H274 H 0.47296 0.89182 0.06639 0.0
C275 C 0.46166 0.89069 0.26696 0.0
C276 C 0.37179 0.40226 0.66518 0.0
C277 C 0.34067 0.37477 0.7036 0.0
H278 H 0.40937 0.41607 0.56887 0.0
C279 C 0.32274 0.33944 0.67162 0.0
H280 H 0.38598 0.42987 0.68812 0.0
C281 C 0.33633 0.33151 0.6036 0.0
C282 C 0.36775 0.35891 0.56584 0.0
H283 H 0.29866 0.31779 0.69993 0.0
H284 H 0.32237 0.30386 0.58088 0.0
C285 C 0.38506 0.39445 0.5966 0.0
C286 C 0.01652 0.40036 0.93736 0.0
C287 C 0.99257 0.36476 0.96348 0.0
H288 H 0.05482 0.43387 0.8488 0.0
C289 C 0.99072 0.33513 0.92164 0.0
H290 H 0.01847 0.42369 0.96842 0.0
C291 C 0.01168 0.34092 0.85359 0.0
C292 C 0.03454 0.37644 0.82565 0.0
H293 H 0.97263 0.30736 0.94077 0.0
H294 H 0.00917 0.31753 0.82174 0.0
C295 C 0.03717 0.40614 0.86871 0.0
C296 C 0.69379 0.0144 0.06738 0.0
C297 C 0.65623 0.992 0.08137 0.0
H298 H 0.73508 0.0561 0.99454 0.0
C299 C 0.63116 0.99387 0.02992 0.0
H300 H 0.71371 0.01344 0.10608 0.0
C301 C 0.64327 0.0179 0.96638 0.0
C302 C 0.68077 0.04082 0.95287 0.0
H303 H 0.60201 0.97678 0.03865 0.0
H304 H 0.62307 0.01873 0.92836 0.0
C305 C 0.706 0.03874 0.0036 0.0
C306 C 0.61236 0.59754 0.10653 0.0
C307 C 0.62998 0.63312 0.07621 0.0
H308 H 0.61121 0.56176 0.197 0.0
C309 C 0.66153 0.66027 0.11414 0.0
H310 H 0.58793 0.57611 0.07872 0.0
C311 C 0.67506 0.65201 0.18163 0.0
C312 C 0.65696 0.6166 0.2129 0.0
H313 H 0.67571 0.68795 0.09186 0.0
H314 H 0.69932 0.67347 0.20991 0.0
C315 C 0.62559 0.58941 0.17456 0.0
C316 C 0.02973 0.63201 0.30067 0.0
C317 C 0.02361 0.65635 0.34611 0.0
H318 H 0.01442 0.59726 0.19863 0.0
C319 C -0.00214 0.66567 0.32014 0.0
H320 H 0.04964 0.62453 0.31902 0.0
C321 C 0.97754 0.64985 0.25165 0.0
C322 C 0.98293 0.62475 0.20737 0.0
H323 H 0.99262 0.68439 0.35386 0.0
H324 H 0.9572 0.65687 0.23406 0.0
C325 C 0.00971 0.61652 0.23157 0.0
C326 C 0.35391 0.98161 0.50214 0.0
C327 C 0.32507 0.97688 0.4531 0.0
H328 H 0.38758 0.00902 0.60163 0.0
C329 C 0.307 0.99638 0.46964 0.0
H330 H 0.36821 0.96676 0.49136 0.0
C331 C 0.31826 0.02089 0.53322 0.0
C332 C 0.34757 0.02601 0.58131 0.0
H333 H 0.28462 0.99318 0.43281 0.0
H334 H 0.30432 0.03608 0.54405 0.0
C335 C 0.36496 0.00581 0.56561 0.0
C336 C 0.39763 0.20877 0.55667 0.0
C337 C 0.42366 0.22512 0.49579 0.0
H338 H 0.37964 0.17279 0.65695 0.0
C339 C 0.45191 0.21698 0.48978 0.0
H340 H 0.37572 0.2148 0.56342 0.0
C341 C 0.45406 0.19293 0.54309 0.0
C342 C 0.42832 0.17687 0.60444 0.0
H343 H 0.47248 0.22925 0.44387 0.0
H344 H 0.47608 0.18706 0.53638 0.0
C345 C 0.4001 0.18507 0.61086 0.0
C346 C 0.22198 0.41702 0.77616 0.0
C347 C 0.25813 0.44378 0.7592 0.0
H348 H 0.16542 0.39452 0.74706 0.0
C349 C 0.26476 0.4685 0.69721 0.0
H350 H 0.21605 0.39738 0.82305 0.0
C351 C 0.23592 0.46694 0.65392 0.0
C352 C 0.19976 0.44033 0.67087 0.0
H353 H 0.29233 0.48939 0.68243 0.0
H354 H 0.24199 0.4868 0.60744 0.0
C355 C 0.19306 0.41515 0.73203 0.0
C356 C 0.80757 0.22304 0.96523 0.0
C357 C 0.79868 0.24204 0.02137 0.0
H358 H 0.78872 0.18405 0.87011 0.0
C359 C 0.76285 0.23585 0.02365 0.0
H360 H 0.83508 0.22753 0.96135 0.0
C361 C 0.73636 0.21089 0.97175 0.0
C362 C 0.74525 0.19204 0.91536 0.0
H363 H 0.75519 0.25019 0.06585 0.0
H364 H 0.70884 0.20638 0.97576 0.0
C365 C 0.78118 0.1985 0.91227 0.0
C366 C 0.59641 0.80728 0.16165 0.0
C367 C 0.5953 0.83274 0.11031 0.0
H368 H 0.59929 0.75847 0.17242 0.0
C369 C 0.59729 0.8284 0.02791 0.0
H370 H 0.59501 0.80986 0.22532 0.0
C371 C 0.59983 0.79903 0.99746 0.0
C372 C 0.60036 0.77324 0.0487 0.0
H373 H 0.59665 0.84761 0.98655 0.0
H374 H 0.60095 0.79633 0.93375 0.0
C375 C 0.59886 0.77782 0.13116 0.0
C376 C 0.76879 0.57118 0.25626 0.0
C377 C 0.73963 0.5372 0.27991 0.0
H378 H 0.81633 0.59976 0.18308 0.0
C379 C 0.73625 0.50537 0.24554 0.0
H380 H 0.77196 0.59625 0.28092 0.0
C381 C 0.76141 0.50739 0.18916 0.0
C382 C 0.7906 0.54129 0.16542 0.0
H383 H 0.71401 0.47874 0.26193 0.0
H384 H 0.75807 0.48223 0.16461 0.0
C385 C 0.79397 0.57321 0.19949 0.0
C386 C 0.18342 0.78061 0.44322 0.0
C387 C 0.18983 0.76361 0.50792 0.0
H388 H 0.20686 0.82009 0.3499 0.0
C389 C 0.22599 0.77471 0.52912 0.0
H390 H 0.15584 0.77244 0.42491 0.0
C391 C 0.2551 0.80195 0.48629 0.0
C392 C 0.24877 0.81846 0.42064 0.0
H393 H 0.23186 0.7621 0.57844 0.0
H394 H 0.28264 0.80977 0.50427 0.0
C395 C 0.21261 0.80763 0.39969 0.0
loop_
_geom_bond_atom_site_label_1
_geom_bond_atom_site_label_2
_geom_bond_distance
_geom_bond_site_symmetry_2
_ccdc_geom_bond_type
C0 O1 1.160 . S
C0 O7 1.185 . S
O1 C0 1.160 . S
O2 Zn3 1.899 . S
O2 C10 1.284 . S
Zn3 O2 1.899 . S
Zn3 O4 2.032 . S
Zn3 O7 2.086 . S
Zn3 O12 1.977 . S
O4 Zn3 2.032 . S
O4 C8 1.278 . S
C5 O6 1.203 . S
C5 O12 1.267 . S
O6 C5 1.203 . S
O7 C0 1.185 . S
O7 Zn3 2.086 . S
C8 O4 1.278 . S
C8 O9 1.211 . S
O9 C8 1.211 . S
C10 O2 1.284 . S
C10 O11 1.273 . S
O11 C10 1.273 . S
O12 Zn3 1.977 . S
O12 C5 1.267 . S
C13 O14 1.160 . S
C13 O20 1.185 . S
O14 C13 1.160 . S
O15 Zn16 1.899 . S
O15 C23 1.284 . S
Zn16 O15 1.899 . S
Zn16 O17 2.032 . S
Zn16 O20 2.086 . S
Zn16 O25 1.977 . S
O17 Zn16 2.032 . S
O17 C21 1.278 . S
C18 O19 1.203 . S
C18 O25 1.267 . S
O19 C18 1.203 . S
O20 C13 1.185 . S
O20 Zn16 2.086 . S
C21 O17 1.278 . S
C21 O22 1.211 . S
O22 C21 1.211 . S
C23 O15 1.284 . S
C23 O24 1.273 . S
O24 C23 1.273 . S
O25 Zn16 1.977 . S
O25 C18 1.267 . S
C26 O27 1.160 . S
C26 O33 1.185 . S
O27 C26 1.160 . S
O28 Zn29 1.899 . S
O28 C36 1.284 . S
Zn29 O28 1.899 . S
Zn29 O30 2.032 . S
Zn29 O33 2.086 . S
Zn29 O38 1.977 . S
O30 Zn29 2.032 . S
O30 C34 1.278 . S
C31 O32 1.203 . S
C31 O38 1.267 . S
O32 C31 1.203 . S
O33 C26 1.185 . S
O33 Zn29 2.086 . S
C34 O30 1.278 . S
C34 O35 1.211 . S
O35 C34 1.211 . S
C36 O28 1.284 . S
C36 O37 1.273 . S
O37 C36 1.273 . S
O38 Zn29 1.977 . S
O38 C31 1.267 . S
C39 O40 1.160 1_556 S
C39 O46 1.185 . S
O40 C39 1.160 1_554 S
O41 Zn42 1.899 . S
O41 C49 1.284 . S
Zn42 O41 1.899 . S
Zn42 O43 2.032 1_556 S
Zn42 O46 2.086 . S
Zn42 O51 1.977 . S
O43 Zn42 2.032 1_554 S
O43 C47 1.278 . S
C44 O45 1.203 . S
C44 O51 1.267 . S
O45 C44 1.203 . S
O46 C39 1.185 . S
O46 Zn42 2.086 . S
C47 O43 1.278 . S
C47 O48 1.211 1_554 S
O48 C47 1.211 1_556 S
C49 O41 1.284 . S
C49 O50 1.273 . S
O50 C49 1.273 . S
O51 Zn42 1.977 . S
O51 C44 1.267 . S
C52 O53 1.160 . S
C52 O59 1.185 . S
O53 C52 1.160 . S
O54 Zn55 1.899 . S
O54 C62 1.284 . S
Zn55 O54 1.899 . S
Zn55 O56 2.032 . S
Zn55 O59 2.086 . S
Zn55 O64 1.988 . S
O56 Zn55 2.032 . S
O56 C60 1.278 . S
C57 O58 1.203 . S
C57 O64 1.259 1_556 S
O58 C57 1.203 . S
O59 C52 1.185 . S
O59 Zn55 2.086 . S
C60 O56 1.278 . S
C60 O61 1.211 . S
O61 C60 1.211 . S
C62 O54 1.284 . S
C62 O63 1.273 . S
O63 C62 1.273 . S
O64 Zn55 1.988 . S
O64 C57 1.259 1_554 S
C65 O66 1.160 . S
C65 O72 1.185 . S
O66 C65 1.160 . S
O67 Zn68 1.899 . S
O67 C75 1.284 . S
Zn68 O67 1.899 . S
Zn68 O69 2.032 . S
Zn68 O72 2.086 . S
Zn68 O77 1.977 . S
O69 Zn68 2.032 . S
O69 C73 1.278 . S
C70 O71 1.203 . S
C70 O77 1.267 . S
O71 C70 1.203 . S
O72 C65 1.185 . S
O72 Zn68 2.086 . S
C73 O69 1.278 . S
C73 O74 1.211 . S
O74 C73 1.211 . S
C75 O67 1.284 . S
C75 O76 1.273 . S
O76 C75 1.273 . S
O77 Zn68 1.977 . S
O77 C70 1.267 . S
C78 O79 1.160 . S
C78 O85 1.185 . S
O79 C78 1.160 . S
O80 Zn81 1.899 . S
O80 C88 1.284 . S
Zn81 O80 1.899 . S
Zn81 O82 2.032 . S
Zn81 O85 2.086 . S
Zn81 O90 1.977 . S
O82 Zn81 2.032 . S
O82 C86 1.278 . S
C83 O84 1.203 . S
C83 O90 1.267 . S
O84 C83 1.203 . S
O85 C78 1.185 . S
O85 Zn81 2.086 . S
C86 O82 1.278 . S
C86 O87 1.211 . S
O87 C86 1.211 . S
C88 O80 1.284 . S
C88 O89 1.273 . S
O89 C88 1.273 . S
O90 Zn81 1.977 . S
O90 C83 1.267 . S
C91 O92 1.160 . S
C91 O98 1.185 . S
O92 C91 1.160 . S
O93 Zn94 1.899 . S
O93 C101 1.284 . S
Zn94 O93 1.899 . S
Zn94 O95 2.032 . S
Zn94 O98 2.086 . S
Zn94 O103 1.977 . S
O95 Zn94 2.032 . S
O95 C99 1.278 . S
C96 O97 1.203 . S
C96 O103 1.267 . S
O97 C96 1.203 . S
O98 C91 1.185 . S
O98 Zn94 2.086 . S
C99 O95 1.278 . S
C99 O100 1.211 . S
O100 C99 1.211 . S
C101 O93 1.284 . S
C101 O102 1.273 . S
O102 C101 1.273 . S
O103 Zn94 1.977 . S
O103 C96 1.267 . S
C104 O105 1.160 . S
C104 O111 1.185 . S
O105 C104 1.160 . S
O106 Zn107 1.899 . S
O106 C114 1.284 . S
Zn107 O106 1.899 . S
Zn107 O108 2.032 . S
Zn107 O111 2.086 . S
Zn107 O116 1.977 . S
O108 Zn107 2.032 . S
O108 C112 1.278 . S
C109 O110 1.203 . S
C109 O116 1.267 . S
O110 C109 1.203 . S
O111 C104 1.185 . S
O111 Zn107 2.086 . S
C112 O108 1.278 . S
C112 O113 1.211 . S
O113 C112 1.211 . S
C114 O106 1.284 . S
C114 O115 1.273 . S
O115 C114 1.273 . S
O116 Zn107 1.977 . S
O116 C109 1.267 . S
C117 O118 1.160 . S
C117 O124 1.185 . S
O118 C117 1.160 . S
O119 Zn120 1.899 . S
O119 C127 1.284 . S
Zn120 O119 1.899 . S
Zn120 O121 2.032 . S
Zn120 O124 2.086 . S
Zn120 O129 1.988 . S
O121 Zn120 2.032 . S
O121 C125 1.278 . S
C122 O123 1.203 . S
C122 O129 1.259 1_554 S
O123 C122 1.203 . S
O124 C117 1.185 . S
O124 Zn120 2.086 . S
C125 O121 1.278 . S
C125 O126 1.211 . S
O126 C125 1.211 . S
C127 O119 1.284 . S
C127 O128 1.273 . S
O128 C127 1.273 . S
O129 Zn120 1.988 . S
O129 C122 1.259 1_556 S
C130 O131 1.160 1_554 S
C130 O137 1.185 . S
O131 C130 1.160 1_556 S
O132 Zn133 1.899 . S
O132 C140 1.284 . S
Zn133 O132 1.899 . S
Zn133 O134 2.032 1_554 S
Zn133 O137 2.086 . S
Zn133 O142 1.977 . S
O134 Zn133 2.032 1_556 S
O134 C138 1.278 . S
C135 O136 1.203 . S
C135 O142 1.267 . S
O136 C135 1.203 . S
O137 C130 1.185 . S
O137 Zn133 2.086 . S
C138 O134 1.278 . S
C138 O139 1.211 1_556 S
O139 C138 1.211 1_554 S
C140 O132 1.284 . S
C140 O141 1.273 . S
O141 C140 1.273 . S
O142 Zn133 1.977 . S
O142 C135 1.267 . S
C143 O144 1.160 . S
C143 O150 1.185 . S
O144 C143 1.160 . S
O145 Zn146 1.899 . S
O145 C153 1.284 . S
Zn146 O145 1.899 . S
Zn146 O147 2.032 . S
Zn146 O150 2.086 . S
Zn146 O155 1.977 . S
O147 Zn146 2.032 . S
O147 C151 1.278 . S
C148 O149 1.203 . S
C148 O155 1.267 . S
O149 C148 1.203 . S
O150 C143 1.185 . S
O150 Zn146 2.086 . S
C151 O147 1.278 . S
C151 O152 1.211 . S
O152 C151 1.211 . S
C153 O145 1.284 . S
C153 O154 1.273 . S
O154 C153 1.273 . S
O155 Zn146 1.977 . S
O155 C148 1.267 . S
C156 C157 1.387 . S
C156 H160 0.950 . S
C156 C165 1.390 . S
C157 C156 1.387 . S
C157 C159 1.387 . S
H158 C165 0.950 . S
C159 C157 1.387 . S
C159 C161 1.390 . S
C159 H163 0.950 . S
H160 C156 0.950 . S
C161 C159 1.390 . S
C161 C162 1.387 . S
C161 H164 0.950 . S
C162 C161 1.387 . S
C162 C165 1.387 . S
H163 C159 0.950 . S
H164 C161 0.950 . S
C165 C156 1.390 . S
C165 H158 0.950 . S
C165 C162 1.387 . S
C166 C167 1.387 . S
C166 H170 0.950 . S
C166 C175 1.390 1_455 S
C167 C166 1.387 . S
C167 C169 1.387 . S
H168 C175 0.950 . S
C169 C167 1.387 . S
C169 C171 1.390 1_455 S
C169 H173 0.950 . S
H170 C166 0.950 . S
C171 C169 1.390 1_655 S
C171 C172 1.387 . S
C171 H174 0.950 . S
C172 C171 1.387 . S
C172 C175 1.387 . S
H173 C169 0.950 . S
H174 C171 0.950 . S
C175 C166 1.390 1_655 S
C175 H168 0.950 . S
C175 C172 1.387 . S
C176 C177 1.387 . S
C176 H180 0.950 . S
C176 C185 1.390 1_565 S
C177 C176 1.387 . S
C177 C179 1.387 . S
H178 C185 0.950 . S
C179 C177 1.387 . S
C179 C181 1.390 1_565 S
C179 H183 0.950 . S
H180 C176 0.950 . S
C181 C179 1.390 1_545 S
C181 C182 1.387 . S
C181 H184 0.950 . S
C182 C181 1.387 . S
C182 C185 1.387 . S
H183 C179 0.950 . S
H184 C181 0.950 . S
C185 C176 1.390 1_545 S
C185 H178 0.950 . S
C185 C182 1.387 . S
C186 C187 1.387 . S
C186 H190 0.950 . S
C186 C195 1.390 . S
C187 C186 1.387 . S
C187 C189 1.387 . S
H188 C195 0.950 . S
C189 C187 1.387 . S
C189 C191 1.390 . S
C189 H193 0.950 . S
H190 C186 0.950 . S
C191 C189 1.390 . S
C191 C192 1.387 . S
C191 H194 0.950 . S
C192 C191 1.387 . S
C192 C195 1.387 . S
H193 C189 0.950 . S
H194 C191 0.950 . S
C195 C186 1.390 . S
C195 H188 0.950 . S
C195 C192 1.387 . S
C196 C197 1.387 . S
C196 H200 0.950 . S
C196 C205 1.390 1_455 S
C197 C196 1.387 . S
C197 C199 1.387 . S
H198 C205 0.950 . S
C199 C197 1.387 . S
C199 C201 1.390 1_455 S
C199 H203 0.950 . S
H200 C196 0.950 . S
C201 C199 1.390 1_655 S
C201 C202 1.387 . S
C201 H204 0.950 . S
C202 C201 1.387 . S
C202 C205 1.387 . S
H203 C199 0.950 . S
H204 C201 0.950 . S
C205 C196 1.390 1_655 S
C205 H198 0.950 . S
C205 C202 1.387 . S
C206 C207 1.387 . S
C206 H210 0.950 . S
C206 C215 1.390 1_546 S
C207 C206 1.387 . S
C207 C209 1.387 . S
H208 C215 0.950 . S
C209 C207 1.387 . S
C209 C211 1.390 1_546 S
C209 H213 0.950 . S
H210 C206 0.950 . S
C211 C209 1.390 1_564 S
C211 C212 1.387 . S
C211 H214 0.950 . S
C212 C211 1.387 . S
C212 C215 1.387 . S
H213 C209 0.950 . S
H214 C211 0.950 . S
C215 C206 1.390 1_564 S
C215 H208 0.950 . S
C215 C212 1.387 . S
C216 C217 1.387 . S
C216 H220 0.950 . S
C216 C225 1.390 . S
C217 C216 1.387 . S
C217 C219 1.387 . S
H218 C225 0.950 . S
C219 C217 1.387 . S
C219 C221 1.390 . S
C219 H223 0.950 . S
H220 C216 0.950 . S
C221 C219 1.390 . S
C221 C222 1.387 . S
C221 H224 0.950 . S
C222 C221 1.387 . S
C222 C225 1.387 . S
H223 C219 0.950 . S
H224 C221 0.950 . S
C225 C216 1.390 . S
C225 H218 0.950 . S
C225 C222 1.387 . S
C226 C227 1.387 . S
C226 H230 0.950 . S
C226 C235 1.390 . S
C227 C226 1.387 . S
C227 C229 1.387 . S
H228 C235 0.950 . S
C229 C227 1.387 . S
C229 C231 1.390 . S
C229 H233 0.950 . S
H230 C226 0.950 . S
C231 C229 1.390 . S
C231 C232 1.387 . S
C231 H234 0.950 . S
C232 C231 1.387 . S
C232 C235 1.387 . S
H233 C229 0.950 . S
H234 C231 0.950 . S
C235 C226 1.390 . S
C235 H228 0.950 . S
C235 C232 1.387 . S
C236 C237 1.387 . S
C236 H240 0.950 . S
C236 C245 1.390 . S
C237 C236 1.387 . S
C237 C239 1.387 . S
H238 C245 0.950 . S
C239 C237 1.387 . S
C239 C241 1.390 . S
C239 H243 0.950 . S
H240 C236 0.950 . S
C241 C239 1.390 . S
C241 C242 1.387 . S
C241 H244 0.950 . S
C242 C241 1.387 . S
C242 C245 1.387 . S
H243 C239 0.950 . S
H244 C241 0.950 . S
C245 C236 1.390 . S
C245 H238 0.950 . S
C245 C242 1.387 . S
C246 C247 1.387 . S
C246 H250 0.950 . S
C246 C255 1.390 . S
C247 C246 1.387 . S
C247 C249 1.387 . S
H248 C255 0.950 . S
C249 C247 1.387 . S
C249 C251 1.390 . S
C249 H253 0.950 1_556 S
H250 C246 0.950 . S
C251 C249 1.390 . S
C251 C252 1.387 . S
C251 H254 0.950 1_556 S
C252 C251 1.387 . S
C252 C255 1.387 . S
H253 C249 0.950 1_554 S
H254 C251 0.950 1_554 S
C255 C246 1.390 . S
C255 H248 0.950 . S
C255 C252 1.387 . S
C256 C257 1.387 . S
C256 H260 0.950 1_554 S
C256 C265 1.390 . S
C257 C256 1.387 . S
C257 C259 1.387 . S
H258 C265 0.950 1_556 S
C259 C257 1.387 . S
C259 C261 1.390 . S
C259 H263 0.950 . S
H260 C256 0.950 1_556 S
C261 C259 1.390 . S
C261 C262 1.387 . S
C261 H264 0.950 . S
C262 C261 1.387 . S
C262 C265 1.387 . S
H263 C259 0.950 . S
H264 C261 0.950 . S
C265 C256 1.390 . S
C265 H258 0.950 1_554 S
C265 C262 1.387 . S
C266 C267 1.387 . S
C266 H270 0.950 . S
C266 C275 1.390 . S
C267 C266 1.387 . S
C267 C269 1.387 . S
H268 C275 0.950 . S
C269 C267 1.387 . S
C269 C271 1.390 . S
C269 H273 0.950 . S
H270 C266 0.950 . S
C271 C269 1.390 . S
C271 C272 1.387 . S
C271 H274 0.950 . S
C272 C271 1.387 . S
C272 C275 1.387 . S
H273 C269 0.950 . S
H274 C271 0.950 . S
C275 C266 1.390 . S
C275 H268 0.950 . S
C275 C272 1.387 . S
C276 C277 1.387 . S
C276 H280 0.950 . S
C276 C285 1.390 . S
C277 C276 1.387 . S
C277 C279 1.387 . S
H278 C285 0.950 . S
C279 C277 1.387 . S
C279 C281 1.390 . S
C279 H283 0.950 . S
H280 C276 0.950 . S
C281 C279 1.390 . S
C281 C282 1.387 . S
C281 H284 0.950 . S
C282 C281 1.387 . S
C282 C285 1.387 . S
H283 C279 0.950 . S
H284 C281 0.950 . S
C285 C276 1.390 . S
C285 H278 0.950 . S
C285 C282 1.387 . S
C286 C287 1.387 1_455 S
C286 H290 0.950 . S
C286 C295 1.390 . S
C287 C286 1.387 1_655 S
C287 C289 1.387 . S
H288 C295 0.950 . S
C289 C287 1.387 . S
C289 C291 1.390 . S
C289 H293 0.950 . S
H290 C286 0.950 . S
C291 C289 1.390 . S
C291 C292 1.387 1_655 S
C291 H294 0.950 . S
C292 C291 1.387 1_455 S
C292 C295 1.387 . S
H293 C289 0.950 . S
H294 C291 0.950 . S
C295 C286 1.390 . S
C295 H288 0.950 . S
C295 C292 1.387 . S
C296 C297 1.387 . S
C296 H300 0.950 . S
C296 C305 1.390 1_564 S
C297 C296 1.387 . S
C297 C299 1.387 . S
H298 C305 0.950 . S
C299 C297 1.387 . S
C299 C301 1.390 1_564 S
C299 H303 0.950 . S
H300 C296 0.950 . S
C301 C299 1.390 1_546 S
C301 C302 1.387 . S
C301 H304 0.950 . S
C302 C301 1.387 . S
C302 C305 1.387 . S
H303 C299 0.950 . S
H304 C301 0.950 . S
C305 C296 1.390 1_546 S
C305 H298 0.950 . S
C305 C302 1.387 . S
C306 C307 1.387 . S
C306 H310 0.950 . S
C306 C315 1.390 . S
C307 C306 1.387 . S
C307 C309 1.387 . S
H308 C315 0.950 . S
C309 C307 1.387 . S
C309 C311 1.390 . S
C309 H313 0.950 . S
H310 C306 0.950 . S
C311 C309 1.390 . S
C311 C312 1.387 . S
C311 H314 0.950 . S
C312 C311 1.387 . S
C312 C315 1.387 . S
H313 C309 0.950 . S
H314 C311 0.950 . S
C315 C306 1.390 . S
C315 H308 0.950 . S
C315 C312 1.387 . S
C316 C317 1.387 . S
C316 H320 0.950 . S
C316 C325 1.390 . S
C317 C316 1.387 . S
C317 C319 1.387 1_455 S
H318 C325 0.950 . S
C319 C317 1.387 1_655 S
C319 C321 1.390 . S
C319 H323 0.950 . S
H320 C316 0.950 . S
C321 C319 1.390 . S
C321 C322 1.387 . S
C321 H324 0.950 . S
C322 C321 1.387 . S
C322 C325 1.387 1_655 S
H323 C319 0.950 . S
H324 C321 0.950 . S
C325 C316 1.390 . S
C325 H318 0.950 . S
C325 C322 1.387 1_455 S
C326 C327 1.387 . S
C326 H330 0.950 . S
C326 C335 1.390 1_565 S
C327 C326 1.387 . S
C327 C329 1.387 . S
H328 C335 0.950 . S
C329 C327 1.387 . S
C329 C331 1.390 1_565 S
C329 H333 0.950 . S
H330 C326 0.950 . S
C331 C329 1.390 1_545 S
C331 C332 1.387 . S
C331 H334 0.950 . S
C332 C331 1.387 . S
C332 C335 1.387 . S
H333 C329 0.950 . S
H334 C331 0.950 . S
C335 C326 1.390 1_545 S
C335 H328 0.950 . S
C335 C332 1.387 . S
C336 C337 1.387 . S
C336 H340 0.950 . S
C336 C345 1.390 . S
C337 C336 1.387 . S
C337 C339 1.387 . S
H338 C345 0.950 . S
C339 C337 1.387 . S
C339 C341 1.390 . S
C339 H343 0.950 . S
H340 C336 0.950 . S
C341 C339 1.390 . S
C341 C342 1.387 . S
C341 H344 0.950 . S
C342 C341 1.387 . S
C342 C345 1.387 . S
H343 C339 0.950 . S
H344 C341 0.950 . S
C345 C336 1.390 . S
C345 H338 0.950 . S
C345 C342 1.387 . S
C346 C347 1.387 . S
C346 H350 0.950 . S
C346 C355 1.390 . S
C347 C346 1.387 . S
C347 C349 1.387 . S
H348 C355 0.950 . S
C349 C347 1.387 . S
C349 C351 1.390 . S
C349 H353 0.950 . S
H350 C346 0.950 . S
C351 C349 1.390 . S
C351 C352 1.387 . S
C351 H354 0.950 . S
C352 C351 1.387 . S
C352 C355 1.387 . S
H353 C349 0.950 . S
H354 C351 0.950 . S
C355 C346 1.390 . S
C355 H348 0.950 . S
C355 C352 1.387 . S
C356 C357 1.387 . S
C356 H360 0.950 . S
C356 C365 1.390 . S
C357 C356 1.387 . S
C357 C359 1.387 . S
H358 C365 0.950 . S
C359 C357 1.387 . S
C359 C361 1.390 . S
C359 H363 0.950 . S
H360 C356 0.950 . S
C361 C359 1.390 . S
C361 C362 1.387 . S
C361 H364 0.950 . S
C362 C361 1.387 . S
C362 C365 1.387 . S
H363 C359 0.950 . S
H364 C361 0.950 . S
C365 C356 1.390 . S
C365 H358 0.950 . S
C365 C362 1.387 . S
C366 C367 1.387 . S
C366 H370 0.950 . S
C366 C375 1.390 . S
C367 C366 1.387 . S
C367 C369 1.387 . S
H368 C375 0.950 . S
C369 C367 1.387 . S
C369 C371 1.390 . S
C369 H373 0.950 . S
H370 C366 0.950 . S
C371 C369 1.390 . S
C371 C372 1.387 . S
C371 H374 0.950 1_554 S
C372 C371 1.387 . S
C372 C375 1.387 . S
H373 C369 0.950 . S
H374 C371 0.950 1_556 S
C375 C366 1.390 . S
C375 H368 0.950 . S
C375 C372 1.387 . S
C376 C377 1.387 . S
C376 H380 0.950 . S
C376 C385 1.390 . S
C377 C376 1.387 . S
C377 C379 1.387 . S
H378 C385 0.950 . S
C379 C377 1.387 . S
C379 C381 1.390 . S
C379 H383 0.950 . S
H380 C376 0.950 . S
C381 C379 1.390 . S
C381 C382 1.387 . S
C381 H384 0.950 . S
C382 C381 1.387 . S
C382 C385 1.387 . S
H383 C379 0.950 . S
H384 C381 0.950 . S
C385 C376 1.390 . S
C385 H378 0.950 . S
C385 C382 1.387 . S
C386 C387 1.387 . S
C386 H390 0.950 . S
C386 C395 1.390 . S
C387 C386 1.387 . S
C387 C389 1.387 . S
H388 C395 0.950 . S
C389 C387 1.387 . S
C389 C391 1.390 . S
C389 H393 0.950 . S
H390 C386 0.950 . S
C391 C389 1.390 . S
C391 C392 1.387 . S
C391 H394 0.950 . S
C392 C391 1.387 . S
C392 C395 1.387 . S
H393 C389 0.950 . S
H394 C391 0.950 . S
C395 C386 1.390 . S
C395 H388 0.950 . S
C395 C392 1.387 . S
C157 C122 1.409 . S
C162 C5 1.412 . S
C167 C18 1.409 . S
C172 C135 1.411 . S
C177 C148 1.412 . S
C182 C31 1.412 . S
C187 C83 1.409 . S
C192 C44 1.412 . S
C197 C96 1.411 . S
C202 C57 1.412 . S
C207 C109 1.409 . S
C212 C70 1.409 . S
C217 C88 1.457 . S
C222 C10 1.459 . S
C227 C23 1.457 . S
C232 C101 1.459 . S
C237 C114 1.457 . S
C242 C36 1.457 . S
C247 C49 1.459 . S
C252 C127 1.457 . S
C257 C140 1.457 . S
C262 C62 1.459 . S
C267 C75 1.457 . S
C272 C153 1.457 . S
C277 C125 1.151 . S
C282 C8 1.150 . S
C287 C138 1.150 . S
C292 C21 1.151 . S
C297 C151 1.148 . S
C302 C34 1.148 . S
C307 C47 1.150 . S
C312 C86 1.151 . S
C317 C99 1.150 . S
C322 C60 1.149 . S
C327 C73 1.151 . S
C332 C112 1.151 . S
C337 C0 1.420 . S
C342 C104 1.420 . S
C347 C117 1.420 . S
C352 C13 1.420 . S
C357 C130 1.421 1_556 S
C362 C26 1.420 . S
C367 C143 1.423 . S
C372 C39 1.421 1_554 S
C377 C78 1.420 . S
C382 C52 1.420 . S
C387 C91 1.420 . S
C392 C65 1.420 . S
