# Generated by pormake.
# Topology neb, (4)-cn, num edge types: 1
# Building blocks:
#     Node 0, Type 0, BuildingBlock: ICAMEG_clean_sbu_1, # of connection points: 4
#     Node 1, Type 0, BuildingBlock: ICAMEG_clean_sbu_1, # of connection points: 4
#     Node 2, Type 0, BuildingBlock: ICAMEG_clean_sbu_1, # of connection points: 4
#     Node 3, Type 0, BuildingBlock: ICAMEG_clean_sbu_1, # of connection points: 4
#     Node 4, Type 0, BuildingBlock: ICAMEG_clean_sbu_1, # of connection points: 4
#     Node 5, Type 0, BuildingBlock: ICAMEG_clean_sbu_1, # of connection points: 4
#     Node 6, Type 0, BuildingBlock: ICAMEG_clean_sbu_1, # of connection points: 4
#     Node 7, Type 0, BuildingBlock: ICAMEG_clean_sbu_1, # of connection points: 4
#     Node 8, Type 0, BuildingBlock: ICAMEG_clean_sbu_1, # of connection points: 4
#     Node 9, Type 0, BuildingBlock: ICAMEG_clean_sbu_1, # of connection points: 4
#     Node 10, Type 0, BuildingBlock: ICAMEG_clean_sbu_1, # of connection points: 4
#     Node 11, Type 0, BuildingBlock: ICAMEG_clean_sbu_1, # of connection points: 4
#     Node 12, Type 0, BuildingBlock: ICAMEG_clean_sbu_1, # of connection points: 4
#     Node 13, Type 0, BuildingBlock: ICAMEG_clean_sbu_1, # of connection points: 4
#     Node 14, Type 0, BuildingBlock: ICAMEG_clean_sbu_1, # of connection points: 4
#     Node 15, Type 0, BuildingBlock: ICAMEG_clean_sbu_1, # of connection points: 4
#     Edge 16, Type (0, 0), BuildingBlock: KIFKEQ_clean_linker_1, # of connection points: 2
#     Edge 17, Type (0, 0), BuildingBlock: KIFKEQ_clean_linker_1, # of connection points: 2
#     Edge 18, Type (0, 0), BuildingBlock: KIFKEQ_clean_linker_1, # of connection points: 2
#     Edge 19, Type (0, 0), BuildingBlock: KIFKEQ_clean_linker_1, # of connection points: 2
#     Edge 20, Type (0, 0), BuildingBlock: KIFKEQ_clean_linker_1, # of connection points: 2
#     Edge 21, Type (0, 0), BuildingBlock: KIFKEQ_clean_linker_1, # of connection points: 2
#     Edge 22, Type (0, 0), BuildingBlock: KIFKEQ_clean_linker_1, # of connection points: 2
#     Edge 23, Type (0, 0), BuildingBlock: KIFKEQ_clean_linker_1, # of connection points: 2
#     Edge 24, Type (0, 0), BuildingBlock: KIFKEQ_clean_linker_1, # of connection points: 2
#     Edge 25, Type (0, 0), BuildingBlock: KIFKEQ_clean_linker_1, # of connection points: 2
#     Edge 26, Type (0, 0), BuildingBlock: KIFKEQ_clean_linker_1, # of connection points: 2
#     Edge 27, Type (0, 0), BuildingBlock: KIFKEQ_clean_linker_1, # of connection points: 2
#     Edge 28, Type (0, 0), BuildingBlock: KIFKEQ_clean_linker_1, # of connection points: 2
#     Edge 29, Type (0, 0), BuildingBlock: KIFKEQ_clean_linker_1, # of connection points: 2
#     Edge 30, Type (0, 0), BuildingBlock: KIFKEQ_clean_linker_1, # of connection points: 2
#     Edge 31, Type (0, 0), BuildingBlock: KIFKEQ_clean_linker_1, # of connection points: 2
#     Edge 32, Type (0, 0), BuildingBlock: KIFKEQ_clean_linker_1, # of connection points: 2
#     Edge 33, Type (0, 0), BuildingBlock: KIFKEQ_clean_linker_1, # of connection points: 2
#     Edge 34, Type (0, 0), BuildingBlock: KIFKEQ_clean_linker_1, # of connection points: 2
#     Edge 35, Type (0, 0), BuildingBlock: KIFKEQ_clean_linker_1, # of connection points: 2
#     Edge 36, Type (0, 0), BuildingBlock: KIFKEQ_clean_linker_1, # of connection points: 2
#     Edge 37, Type (0, 0), BuildingBlock: KIFKEQ_clean_linker_1, # of connection points: 2
#     Edge 38, Type (0, 0), BuildingBlock: KIFKEQ_clean_linker_1, # of connection points: 2
#     Edge 39, Type (0, 0), BuildingBlock: KIFKEQ_clean_linker_1, # of connection points: 2
#     Edge 40, Type (0, 0), BuildingBlock: KIFKEQ_clean_linker_1, # of connection points: 2
#     Edge 41, Type (0, 0), BuildingBlock: KIFKEQ_clean_linker_1, # of connection points: 2
#     Edge 42, Type (0, 0), BuildingBlock: KIFKEQ_clean_linker_1, # of connection points: 2
#     Edge 43, Type (0, 0), BuildingBlock: KIFKEQ_clean_linker_1, # of connection points: 2
#     Edge 44, Type (0, 0), BuildingBlock: KIFKEQ_clean_linker_1, # of connection points: 2
#     Edge 45, Type (0, 0), BuildingBlock: KIFKEQ_clean_linker_1, # of connection points: 2
#     Edge 46, Type (0, 0), BuildingBlock: KIFKEQ_clean_linker_1, # of connection points: 2
#     Edge 47, Type (0, 0), BuildingBlock: KIFKEQ_clean_linker_1, # of connection points: 2
# Relax obj value: 0.005
# Max RMSD: 0.056
# Mean RMSD: 0.056
data_MOF--net-neb--node1-ICAMEG_clean_sbu_1--edge1-KIFKEQ_clean_linker_1
_symmetry_space_group_name_H-M    P1
_symmetry_Int_Tables_number       1
_symmetry_cell_setting            triclinic
loop_
_symmetry_equiv_pos_as_xyz
'x, y, z'
_cell_length_a     42.070905
_cell_length_b     24.951805
_cell_length_c     84.199878
_cell_angle_alpha  90.024566
_cell_angle_beta   101.49671
_cell_angle_gamma 89.999958
loop_
_atom_site_label
_atom_site_type_symbol
_atom_site_fract_x
_atom_site_fract_y
_atom_site_fract_z
_atom_type_partial_charge
Co0 Co 0.1654 0.09087 0.43224 0.0
Co1 Co 0.10217 0.15034 0.44519 0.0
O2 O 0.12258 0.08659 0.43807 0.0
C3 C 0.12654 0.02115 0.40633 0.0
O4 O 0.1008 0.05105 0.40609 0.0
C5 C 0.09114 0.07732 0.47223 0.0
O6 O 0.12246 0.07375 0.47801 0.0
O7 O 0.14089 0.16193 0.46293 0.0
O8 O 0.17982 0.14816 0.44871 0.0
H9 H 0.09975 0.34135 0.46385 0.0
H10 H 0.14017 0.98648 0.44107 0.0
O11 O 0.15328 0.03265 0.41573 0.0
H12 H 0.24324 0.0133 0.47998 0.0
H13 H 0.26602 0.01475 0.41688 0.0
H14 H 0.20834 0.18002 0.42642 0.0
H15 H 0.224 0.08035 0.45873 0.0
H16 H 0.21282 0.01007 0.42488 0.0
O17 O 0.08047 0.10484 0.45957 0.0
H18 H 0.12443 0.26091 0.45433 0.0
H19 H 0.03669 0.1744 0.45212 0.0
H20 H 0.2616 0.18652 0.41857 0.0
H21 H 0.15863 0.9182 0.46206 0.0
H22 H 0.29083 0.10347 0.41373 0.0
H23 H 0.2105 0.93145 0.48172 0.0
O24 O 0.14911 0.14698 0.41572 0.0
H25 H 0.01398 0.04062 0.41107 0.0
H26 H 0.06286 0.22044 0.41986 0.0
H27 H 0.01598 0.20626 0.39753 0.0
H28 H 0.99111 0.11583 0.39305 0.0
H29 H 0.06127 0.05641 0.43309 0.0
H30 H 0.01116 0.25378 0.46175 0.0
H31 H 0.04271 0.3381 0.46762 0.0
O32 O 0.122 0.19771 0.43053 0.0
C33 C 0.17022 0.16615 0.46112 0.0
C34 C 0.08573 0.30488 0.4613 0.0
C35 C 0.03603 0.25571 0.46014 0.0
N36 N 0.08199 0.21306 0.45258 0.0
C37 C 0.09956 0.25922 0.45587 0.0
C38 C 0.05065 0.21083 0.45473 0.0
C39 C 0.05373 0.30302 0.46342 0.0
C40 C 0.16289 0.99232 0.4495 0.0
N41 N 0.18108 0.03715 0.44859 0.0
C42 C 0.17317 0.95361 0.46139 0.0
C43 C 0.20225 0.9611 0.47243 0.0
C44 C 0.22063 1.00702 0.47146 0.0
C45 C 0.20958 0.04489 0.45942 0.0
C46 C 0.25354 0.05123 0.41897 0.0
C47 C 0.22095 0.14368 0.42442 0.0
C48 C 0.22336 0.04884 0.42346 0.0
N49 N 0.20753 0.09473 0.4262 0.0
C50 C 0.25109 0.14762 0.41994 0.0
C51 C 0.26746 0.10101 0.41721 0.0
C52 C 0.13573 0.19112 0.41844 0.0
C53 C 0.02458 0.08022 0.4129 0.0
C54 C 0.05245 0.18087 0.41789 0.0
C55 C 0.02576 0.17314 0.40527 0.0
C56 C 0.01179 0.12241 0.40278 0.0
N57 N 0.06491 0.13928 0.42775 0.0
C58 C 0.05129 0.08946 0.42539 0.0
Co59 Co 0.09208 0.07927 0.82392 0.0
Co60 Co 0.15629 0.13647 0.8107 0.0
O61 O 0.13462 0.07419 0.81788 0.0
C62 C 0.13179 0.01121 0.85006 0.0
O63 O 0.15749 0.04086 0.84992 0.0
C64 C 0.17422 0.09563 0.78049 0.0
O65 O 0.1573 0.13525 0.77274 0.0
O66 O 0.1172 0.15165 0.79353 0.0
O67 O 0.07723 0.13438 0.80685 0.0
H68 H 0.16305 0.32702 0.79238 0.0
H69 H 0.11783 0.97418 0.81595 0.0
O70 O 0.10473 0.02284 0.84095 0.0
H71 H 0.01317 0.99448 0.77784 0.0
H72 H 0.99227 1.00565 0.84077 0.0
H73 H 0.04889 0.16918 0.82874 0.0
H74 H 0.03268 0.06446 0.7981 0.0
H75 H 0.04522 0.99964 0.83254 0.0
O76 O 0.17478 0.08854 0.79556 0.0
H77 H 0.13662 0.24821 0.80177 0.0
H78 H 0.22245 0.15654 0.80392 0.0
H79 H 0.99586 0.17698 0.83679 0.0
H80 H 0.09908 0.90284 0.796 0.0
H81 H 0.96717 0.09481 0.84288 0.0
H82 H 0.04641 0.91279 0.77674 0.0
O83 O 0.10832 0.13727 0.83986 0.0
H84 H 0.24284 0.01883 0.84283 0.0
H85 H 0.19826 0.20201 0.83638 0.0
H86 H 0.24555 0.18323 0.85809 0.0
H87 H 0.26828 0.09111 0.86138 0.0
H88 H 0.19517 0.03916 0.82146 0.0
H89 H 0.24978 0.23433 0.79452 0.0
H90 H 0.22005 0.32037 0.78869 0.0
O91 O 0.13881 0.18493 0.82591 0.0
C92 C 0.08756 0.15441 0.79491 0.0
C93 C 0.17628 0.28976 0.79489 0.0
C94 C 0.22495 0.23775 0.79608 0.0
N95 N 0.17796 0.19783 0.80341 0.0
C96 C 0.16144 0.245 0.80021 0.0
C97 C 0.20934 0.19383 0.8014 0.0
C98 C 0.20825 0.286 0.79282 0.0
C99 C 0.09481 0.9787 0.80767 0.0
N100 N 0.07635 0.02347 0.80822 0.0
C101 C 0.08435 0.93821 0.79637 0.0
C102 C 0.05481 0.94384 0.78556 0.0
C103 C 0.03617 0.98968 0.78616 0.0
C104 C 0.04741 0.02932 0.79762 0.0
C105 C 1.00453 0.04175 0.83815 0.0
C106 C 0.03652 0.13321 0.83131 0.0
C107 C 0.03458 0.03861 0.83354 0.0
N108 N 0.05013 0.08401 0.83012 0.0
C109 C 0.00651 0.1379 0.83589 0.0
C110 C 0.99045 0.09178 0.83932 0.0
C111 C 0.12349 0.18001 0.83749 0.0
C112 C 0.23322 0.05916 0.84149 0.0
C113 C 0.20774 0.16172 0.83782 0.0
C114 C 0.23466 0.15138 0.85009 0.0
C115 C 0.24743 0.09971 0.85191 0.0
N116 N 0.19392 0.12176 0.82763 0.0
C117 C 0.20632 0.07099 0.82936 0.0
Co118 Co 0.84414 0.923 0.57299 0.0
Co119 Co 0.90852 0.86823 0.55952 0.0
O120 O 0.88607 0.93027 0.56635 0.0
C121 C 0.88262 0.99444 0.59844 0.0
O122 O 0.90844 0.96468 0.5987 0.0
C123 C 0.92583 0.9058 0.52893 0.0
O124 O 0.90939 0.86459 0.52186 0.0
O125 O 0.86924 0.85114 0.5426 0.0
O126 O 0.83033 0.86445 0.55688 0.0
H127 H 0.91726 0.6767 0.54243 0.0
H128 H 0.86549 0.02932 0.56342 0.0
O129 O 0.85584 0.98233 0.58917 0.0
H130 H 0.7614 0.99426 0.52613 0.0
H131 H 0.74348 0.99217 0.59001 0.0
H132 H 0.80413 0.83099 0.57972 0.0
H133 H 0.78407 0.92862 0.54723 0.0
H134 H 0.79559 1.00049 0.58103 0.0
O135 O 0.9262 0.91546 0.54387 0.0
H136 H 0.89002 0.75555 0.5513 0.0
H137 H 0.9749 0.84918 0.55281 0.0
H138 H 0.75201 0.82086 0.58855 0.0
H139 H 0.84352 0.09634 0.54257 0.0
H140 H 0.72129 0.90184 0.59376 0.0
H141 H 0.79112 0.07895 0.52374 0.0
O142 O 0.86276 0.86846 0.58956 0.0
H143 H 0.99342 0.99099 0.5906 0.0
H144 H 0.95192 0.80573 0.58548 0.0
H145 H 0.99908 0.82767 0.60694 0.0
H146 H 0.02025 0.92085 0.60956 0.0
H147 H 0.94593 0.96748 0.56949 0.0
H148 H 1.00302 0.77137 0.54392 0.0
H149 H 0.97417 0.68433 0.53868 0.0
O150 O 0.89206 0.82011 0.5752 0.0
C151 C 0.84013 0.84568 0.54462 0.0
C152 C 0.93009 0.7144 0.54468 0.0
C153 C 0.97822 0.76753 0.54552 0.0
N154 N 0.93083 0.80692 0.55258 0.0
C155 C 0.91479 0.75919 0.54971 0.0
C156 C 0.96217 0.81145 0.55055 0.0
C157 C 0.96202 0.71871 0.54258 0.0
C158 C 0.84257 0.02165 0.55533 0.0
N159 N 0.826 0.97528 0.55662 0.0
C160 C 0.8303 0.05966 0.54353 0.0
C161 C 0.80091 0.04985 0.53295 0.0
C162 C 0.78423 1.00234 0.53428 0.0
C163 C 0.79723 0.96525 0.54623 0.0
C164 C 0.75663 0.95658 0.58776 0.0
C165 C 0.79087 0.86644 0.5819 0.0
C166 C 0.7862 0.96103 0.58273 0.0
N167 N 0.80286 0.91626 0.57979 0.0
C168 C 0.76138 0.86044 0.58693 0.0
C169 C 0.74418 0.90589 0.58986 0.0
C170 C 0.87785 0.82572 0.58717 0.0
C171 C 0.98448 0.95021 0.58956 0.0
C172 C 0.96074 0.84646 0.58663 0.0
C173 C 0.98759 0.8586 0.59876 0.0
C174 C 0.99948 0.91087 0.60021 0.0
N175 N 0.94615 0.88525 0.57621 0.0
C176 C 0.95768 0.93659 0.57757 0.0
Co177 Co 0.90609 0.92675 0.18223 0.0
Co178 Co 0.84614 0.85484 0.19471 0.0
O179 O 0.86276 0.92211 0.18746 0.0
C180 C 0.86366 1.00163 0.15827 0.0
O181 O 0.83699 0.98479 0.16247 0.0
C182 C 0.83208 0.93005 0.22009 0.0
O183 O 0.86294 0.94306 0.22354 0.0
O184 O 0.88474 0.84881 0.21269 0.0
O185 O 0.92383 0.87405 0.19969 0.0
H186 H 0.85447 0.66413 0.21428 0.0
H187 H 0.87147 0.02403 0.19048 0.0
O188 O 0.89103 0.981 0.16456 0.0
H189 H 0.97641 0.02343 0.22892 0.0
H190 H 1.0018 0.02096 0.1671 0.0
H191 H 0.95612 0.84649 0.17856 0.0
H192 H 0.96311 0.95229 0.2084 0.0
H193 H 0.94785 0.01579 0.17426 0.0
O194 O 0.82181 0.89612 0.20894 0.0
H195 H 0.87473 0.74838 0.20467 0.0
H196 H 0.78195 0.81996 0.20103 0.0
H197 H 0.01031 0.84993 0.17162 0.0
H198 H 0.88394 0.09625 0.21065 0.0
H199 H 0.03349 0.93763 0.16582 0.0
H200 H 0.93674 0.09631 0.23011 0.0
O201 O 0.89509 0.86679 0.16627 0.0
H202 H 0.75124 0.94863 0.16012 0.0
H203 H 0.81327 0.77991 0.16894 0.0
H204 H 0.76626 0.78641 0.14627 0.0
H205 H 0.73481 0.87119 0.14177 0.0
H206 H 0.79868 0.94064 0.18252 0.0
H207 H 0.76075 0.73658 0.21072 0.0
H208 H 0.79709 0.65783 0.21736 0.0
O209 O 0.86945 0.81149 0.18055 0.0
C210 C 0.91452 0.85181 0.21162 0.0
C211 C 0.83837 0.69809 0.21137 0.0
C212 C 0.78578 0.73878 0.20939 0.0
N213 N 0.82949 0.78891 0.20215 0.0
C214 C 0.84968 0.74588 0.20587 0.0
C215 C 0.79795 0.78593 0.20394 0.0
C216 C 0.80618 0.69461 0.21311 0.0
C217 C 0.89469 0.02403 0.19868 0.0
N218 N 0.91672 0.98428 0.198 0.0
C219 C 0.90154 0.06494 0.21018 0.0
C220 C 0.93112 0.06489 0.22112 0.0
C221 C 0.95338 0.02402 0.22046 0.0
C222 C 0.94568 0.98376 0.2088 0.0
C223 C 0.99196 0.9825 0.16961 0.0
C224 C 0.96608 0.88485 0.17612 0.0
C225 C 0.96136 0.97929 0.1736 0.0
N226 N 0.94884 0.93088 0.17687 0.0
C227 C 0.99676 0.88652 0.17216 0.0
C228 C 0.00974 0.93574 0.1689 0.0
C229 C 0.8843 0.8205 0.169 0.0
C230 C 0.76474 0.91147 0.16195 0.0
C231 C 0.79994 0.81715 0.16697 0.0
C232 C 0.77323 0.82048 0.15416 0.0
C233 C 0.75556 0.86803 0.15165 0.0
N234 N 0.80884 0.85998 0.17701 0.0
C235 C 0.79158 0.90666 0.17465 0.0
Co236 Co 0.16787 0.57889 0.93358 0.0
Co237 Co 0.10319 0.63755 0.94643 0.0
O238 O 0.12567 0.57464 0.94011 0.0
C239 C 0.12748 0.51056 0.90774 0.0
O240 O 0.10193 0.54037 0.90809 0.0
C241 C 0.08678 0.60675 0.97771 0.0
O242 O 0.10147 0.6511 0.98354 0.0
O243 O 0.14267 0.65825 0.96276 0.0
O244 O 0.18305 0.63481 0.95031 0.0
H245 H 0.0933 0.83155 0.9608 0.0
H246 H 0.14225 0.47438 0.94211 0.0
O247 O 0.15469 0.52175 0.91679 0.0
H248 H 0.24734 0.49611 0.97979 0.0
H249 H 0.26677 0.50287 0.91642 0.0
H250 H 0.2112 0.66788 0.92818 0.0
H251 H 0.22754 0.56515 0.95928 0.0
H252 H 0.21409 0.49811 0.92497 0.0
O253 O 0.08697 0.59283 0.96313 0.0
H254 H 0.12093 0.75152 0.95296 0.0
H255 H 0.03684 0.65744 0.95314 0.0
H256 H 0.26398 0.67444 0.91981 0.0
H257 H 0.16128 0.40397 0.96231 0.0
H258 H 0.29214 0.59152 0.91385 0.0
H259 H 0.21416 0.41465 0.98136 0.0
O260 O 0.15167 0.63615 0.91733 0.0
H261 H 0.01831 0.50913 0.91828 0.0
H262 H 0.05882 0.69479 0.91959 0.0
H263 H 0.01132 0.66871 0.89886 0.0
H264 H 0.99065 0.57532 0.89816 0.0
H265 H 0.06611 0.53668 0.93863 0.0
H266 H 0.00832 0.73648 0.96098 0.0
H267 H 0.03658 0.82432 0.96487 0.0
O268 O 0.11857 0.68298 0.93 0.0
C269 C 0.17247 0.6589 0.96155 0.0
C270 C 0.08072 0.79349 0.95914 0.0
C271 C 0.03302 0.74015 0.95924 0.0
N272 N 0.08056 0.69982 0.95259 0.0
C273 C 0.09625 0.74802 0.95471 0.0
C274 C 0.0493 0.69555 0.95478 0.0
C275 C 0.0489 0.78941 0.96142 0.0
C276 C 0.16537 0.4792 0.95029 0.0
N277 N 0.18378 0.52385 0.94948 0.0
C278 C 0.17598 0.43925 0.96174 0.0
C279 C 0.20563 0.44528 0.97243 0.0
C280 C 0.22424 0.49099 0.97157 0.0
C281 C 0.21285 0.5301 0.95997 0.0
C282 C 0.25475 0.53929 0.91898 0.0
C283 C 0.22334 0.63159 0.92567 0.0
C284 C 0.22485 0.53686 0.92377 0.0
N285 N 0.20959 0.58267 0.92711 0.0
C286 C 0.25321 0.63557 0.92091 0.0
C287 C 0.26898 0.58903 0.91756 0.0
C288 C 0.13496 0.67792 0.91888 0.0
C289 C 0.02702 0.54999 0.91849 0.0
C290 C 0.05022 0.65396 0.91927 0.0
C291 C 0.02318 0.63949 0.90756 0.0
C292 C 0.01156 0.58711 0.90718 0.0
N293 N 0.06525 0.61735 0.93035 0.0
C294 C 0.05399 0.56591 0.93005 0.0
Co295 Co 0.09324 0.5913 0.32307 0.0
Co296 Co 0.15666 0.64774 0.30918 0.0
O297 O 0.13506 0.58521 0.31626 0.0
C298 C 0.13317 0.52076 0.34829 0.0
O299 O 0.15882 0.55042 0.34805 0.0
C300 C 0.17355 0.60983 0.27853 0.0
O301 O 0.15657 0.65039 0.27138 0.0
O302 O 0.117 0.66346 0.29239 0.0
O303 O 0.07846 0.64907 0.30683 0.0
H304 H 0.16306 0.83922 0.29162 0.0
H305 H 0.11571 0.4855 0.31365 0.0
O306 O 0.10593 0.53271 0.3394 0.0
H307 H 0.01069 0.51649 0.27671 0.0
H308 H 0.99397 0.5193 0.34078 0.0
H309 H 0.05229 0.68216 0.32973 0.0
H310 H 0.03289 0.58325 0.29757 0.0
H311 H 0.04591 0.51245 0.33159 0.0
O312 O 0.17445 0.60072 0.29353 0.0
H313 H 0.13687 0.75979 0.30081 0.0
H314 H 0.22252 0.66842 0.30204 0.0
H315 H 1.00029 0.69082 0.33877 0.0
H316 H 0.09422 0.4174 0.29305 0.0
H317 H 0.97075 0.60899 0.34437 0.0
H318 H 0.04136 0.43274 0.27439 0.0
O319 O 0.11144 0.64674 0.33945 0.0
H320 H 0.24363 0.52813 0.34003 0.0
H321 H 0.19969 0.71183 0.33488 0.0
H322 H 0.2475 0.69168 0.35615 0.0
H323 H 0.2699 0.59929 0.35879 0.0
H324 H 0.19546 0.54982 0.31912 0.0
H325 H 0.24959 0.74684 0.29282 0.0
H326 H 0.21982 0.83303 0.28757 0.0
O327 O 0.14001 0.69563 0.32486 0.0
C328 C 0.08789 0.66806 0.2945 0.0
C329 C 0.17629 0.80189 0.29388 0.0
C330 C 0.22486 0.75005 0.29455 0.0
N331 N 0.17813 0.70952 0.30198 0.0
C332 C 0.16159 0.75677 0.29909 0.0
C333 C 0.20939 0.70578 0.29977 0.0
C334 C 0.20814 0.79839 0.2916 0.0
C335 C 0.09258 0.49228 0.30565 0.0
N336 N 0.0755 0.53812 0.30689 0.0
C337 C 0.08058 0.45366 0.29397 0.0
C338 C 0.05094 0.46231 0.28349 0.0
C339 C 0.03372 0.5093 0.28478 0.0
C340 C 0.04647 0.54702 0.2966 0.0
C341 C 0.00659 0.55525 0.33837 0.0
C342 C 0.03953 0.64634 0.33207 0.0
C343 C 0.03608 0.55164 0.3332 0.0
N344 N 0.05209 0.59687 0.33005 0.0
C345 C 0.01012 0.65151 0.33722 0.0
C346 C 0.99357 0.60558 0.34037 0.0
C347 C 0.12602 0.68985 0.3369 0.0
C348 C 0.23415 0.56857 0.33898 0.0
C349 C 0.20903 0.67142 0.33605 0.0
C350 C 0.23625 0.66031 0.34806 0.0
C351 C 0.24884 0.60849 0.34952 0.0
N352 N 0.19475 0.63207 0.32574 0.0
C353 C 0.20697 0.58117 0.32711 0.0
Co354 Co 0.84885 0.42995 0.07241 0.0
Co355 Co 0.91037 0.36008 0.06074 0.0
O356 O 0.89222 0.42697 0.06724 0.0
C357 C 0.88809 0.48992 0.10064 0.0
O358 O 0.90783 0.44894 0.10415 0.0
C359 C 0.92402 0.43881 0.03621 0.0
O360 O 0.89475 0.45856 0.03509 0.0
O361 O 0.8718 0.3502 0.04292 0.0
O362 O 0.83199 0.37444 0.05563 0.0
H363 H 0.90602 0.16672 0.04373 0.0
H364 H 0.88058 0.52985 0.06448 0.0
O365 O 0.86392 0.48724 0.08888 0.0
H366 H 0.77802 0.51893 0.02432 0.0
H367 H 0.75232 0.52343 0.08687 0.0
H368 H 0.79988 0.34893 0.07696 0.0
H369 H 0.79231 0.44944 0.04532 0.0
H370 H 0.80631 0.51872 0.07972 0.0
O371 O 0.93355 0.40004 0.04579 0.0
H372 H 0.88412 0.25113 0.05236 0.0
H373 H 0.9752 0.32738 0.05469 0.0
H374 H 0.74571 0.35188 0.08396 0.0
H375 H 0.86703 0.60068 0.04384 0.0
H376 H 0.72158 0.43961 0.08896 0.0
H377 H 0.81548 0.59538 0.02352 0.0
O378 O 0.86068 0.37193 0.08904 0.0
H379 H 1.00039 0.46597 0.09484 0.0
H380 H 0.94663 0.28964 0.0869 0.0
H381 H 0.99303 0.3025 0.1096 0.0
H382 H 0.0203 0.39116 0.11366 0.0
H383 H 0.9537 0.45145 0.07237 0.0
H384 H 0.99802 0.24389 0.04597 0.0
H385 H 0.96338 0.16272 0.04048 0.0
O386 O 0.88854 0.3176 0.07559 0.0
C387 C 0.84192 0.35172 0.04394 0.0
C388 C 0.92139 0.20177 0.04613 0.0
C389 C 0.97301 0.2451 0.04736 0.0
N390 N 0.92839 0.29407 0.05412 0.0
C391 C 0.90914 0.24967 0.05105 0.0
C392 C 0.95992 0.29231 0.05226 0.0
C393 C 0.95356 0.19957 0.04429 0.0
C394 C 0.85796 0.52747 0.05578 0.0
N395 N 0.83728 0.48543 0.05611 0.0
C396 C 0.85048 0.56762 0.04407 0.0
C397 C 0.82159 0.56457 0.03266 0.0
C398 C 0.80058 0.52165 0.03309 0.0
C399 C 0.80888 0.48223 0.04496 0.0
C400 C 0.76256 0.48497 0.08469 0.0
C401 C 0.78949 0.38729 0.07905 0.0
C402 C 0.79317 0.48202 0.08068 0.0
N403 N 0.80618 0.43359 0.07783 0.0
C404 C 0.75883 0.38869 0.08304 0.0
C405 C 0.74532 0.43793 0.08586 0.0
C406 C 0.87328 0.32643 0.08699 0.0
C407 C 0.98877 0.42711 0.09317 0.0
C408 C 0.95828 0.32838 0.08862 0.0
C409 C 0.9846 0.33539 0.10147 0.0
C410 C 0.9999 0.38514 0.10374 0.0
N411 N 0.94756 0.3697 0.07827 0.0
C412 C 0.9624 0.4186 0.08044 0.0
Co413 Co 0.91771 0.42325 0.68221 0.0
Co414 Co 0.85273 0.36915 0.69537 0.0
O415 O 0.87559 0.43087 0.68866 0.0
C416 C 0.8795 0.49434 0.65664 0.0
O417 O 0.85371 0.4645 0.65636 0.0
C418 C 0.83581 0.40674 0.72602 0.0
O419 O 0.85223 0.36539 0.733 0.0
O420 O 0.89174 0.35165 0.71233 0.0
O421 O 0.93125 0.36484 0.69841 0.0
H422 H 0.84289 0.17767 0.71221 0.0
H423 H 0.8963 0.52982 0.69159 0.0
O424 O 0.90626 0.48238 0.66596 0.0
H425 H 0.99992 0.4948 0.72927 0.0
H426 H 0.01879 0.49183 0.6655 0.0
H427 H 0.95783 0.33101 0.67577 0.0
H428 H 0.97746 0.42896 0.70816 0.0
H429 H 0.96648 0.50046 0.67426 0.0
O430 O 0.83514 0.41645 0.71106 0.0
H431 H 0.87062 0.2562 0.70349 0.0
H432 H 0.78619 0.35097 0.70195 0.0
H433 H 0.01017 0.32057 0.66716 0.0
H434 H 0.91806 0.59702 0.71243 0.0
H435 H 0.04104 0.40137 0.66196 0.0
H436 H 0.97021 0.57965 0.73147 0.0
O437 O 0.8993 0.36858 0.66563 0.0
H438 H 0.76855 0.49302 0.6643 0.0
H439 H 0.80931 0.30731 0.66924 0.0
H440 H 0.76239 0.32992 0.64772 0.0
H441 H 0.7416 0.42334 0.64519 0.0
H442 H 0.81578 0.46883 0.68548 0.0
H443 H 0.75759 0.27349 0.71069 0.0
H444 H 0.78597 0.18604 0.71587 0.0
O445 O 0.86914 0.32087 0.6797 0.0
C446 C 0.92099 0.3462 0.71055 0.0
C447 C 0.83026 0.21555 0.70998 0.0
C448 C 0.78238 0.26932 0.70913 0.0
N449 N 0.83005 0.3081 0.70219 0.0
C450 C 0.84584 0.26016 0.70504 0.0
C451 C 0.79871 0.31305 0.70419 0.0
C452 C 0.79832 0.22027 0.71203 0.0
C453 C 0.91912 0.52215 0.69976 0.0
N454 N 0.93567 0.47568 0.69859 0.0
C455 C 0.93127 0.56027 0.71157 0.0
C456 C 0.96052 0.55047 0.72225 0.0
C457 C 0.97719 0.50287 0.72103 0.0
C458 C 0.96431 0.46567 0.70907 0.0
C459 C 0.00559 0.45632 0.66774 0.0
C460 C 0.97117 0.36638 0.6736 0.0
C461 C 0.97589 0.46095 0.67266 0.0
N462 N 0.95915 0.41627 0.67559 0.0
C463 C 1.00077 0.36021 0.6687 0.0
C464 C 0.01806 0.40556 0.66577 0.0
C465 C 0.88382 0.32613 0.66788 0.0
C466 C 0.77733 0.45215 0.66531 0.0
C467 C 0.80065 0.34814 0.66813 0.0
C468 C 0.77394 0.36066 0.65597 0.0
C469 C 0.76226 0.41306 0.65457 0.0
N470 N 0.81529 0.38668 0.67863 0.0
C471 C 0.80397 0.43814 0.67733 0.0
Co472 Co 0.66674 0.08397 0.93228 0.0
Co473 Co 0.60333 0.14279 0.94547 0.0
O474 O 0.6247 0.07969 0.93879 0.0
C475 C 0.62754 0.01935 0.90543 0.0
O476 O 0.60592 0.05798 0.90276 0.0
C477 C 0.5859 0.10614 0.97611 0.0
O478 O 0.60314 0.14654 0.9832 0.0
O479 O 0.6428 0.15844 0.96237 0.0
O480 O 0.68193 0.14213 0.94839 0.0
H481 H 0.59749 0.33512 0.96236 0.0
H482 H 0.64265 0.97961 0.94198 0.0
O483 O 0.65304 0.02454 0.91635 0.0
H484 H 0.74764 0.0085 0.97917 0.0
H485 H 0.76504 1.00627 0.91502 0.0
H486 H 0.70947 0.17247 0.92575 0.0
H487 H 0.72659 0.07493 0.95802 0.0
H488 H 0.71269 1.00245 0.92395 0.0
O489 O 0.58483 0.09677 0.9611 0.0
H490 H 0.62354 0.25486 0.95356 0.0
H491 H 0.53734 0.16485 0.9522 0.0
H492 H 0.76187 0.1781 0.91696 0.0
H493 H 0.66297 0.91188 0.96287 0.0
H494 H 0.79003 0.09457 0.91153 0.0
H495 H 0.71581 0.92616 0.98166 0.0
O496 O 0.64972 0.13966 0.91569 0.0
H497 H 0.51799 0.02238 0.91368 0.0
H498 H 0.56068 0.20685 0.91964 0.0
H499 H 0.51372 0.18629 0.89791 0.0
H500 H 0.49198 0.09348 0.89485 0.0
H501 H 0.56518 0.04461 0.93514 0.0
H502 H 0.51039 0.2441 0.96103 0.0
H503 H 0.54051 0.33003 0.96615 0.0
O504 O 0.62068 0.18956 0.9298 0.0
C505 C 0.67214 0.16205 0.96052 0.0
C506 C 0.5841 0.29792 0.96015 0.0
C507 C 0.53522 0.24684 0.95941 0.0
N508 N 0.58198 0.20525 0.95233 0.0
C509 C 0.59872 0.25235 0.95516 0.0
C510 C 0.55062 0.2021 0.95441 0.0
C511 C 0.55214 0.29503 0.96228 0.0
C512 C 0.66576 0.98595 0.95004 0.0
N513 N 0.68348 0.03102 0.94871 0.0
C514 C 0.6771 0.94753 0.96188 0.0
C515 C 0.70674 0.95559 0.97243 0.0
C516 C 0.7246 1.00178 0.97104 0.0
C517 C 0.71251 0.03932 0.95906 0.0
C518 C 0.75303 0.04294 0.91737 0.0
C519 C 0.72164 0.13593 0.9235 0.0
C520 C 0.72334 0.04104 0.92239 0.0
N521 N 0.70813 0.0872 0.92547 0.0
C522 C 0.75128 0.13937 0.91848 0.0
C523 C 0.76704 0.0925 0.91542 0.0
C524 C 0.63517 0.18312 0.91797 0.0
C525 C 0.52718 0.063 0.91492 0.0
C526 C 0.55152 0.16634 0.91834 0.0
C527 C 0.52482 0.15496 0.90604 0.0
C528 C 0.51263 0.10289 0.90434 0.0
N529 N 0.5656 0.12704 0.92871 0.0
C530 C 0.55381 0.07588 0.92709 0.0
Co531 Co 0.59938 0.08712 0.32198 0.0
Co532 Co 0.65991 0.15812 0.30986 0.0
O533 O 0.6424 0.09086 0.31642 0.0
C534 C 0.63963 0.02716 0.34989 0.0
O535 O 0.65923 0.06836 0.35332 0.0
C536 C 0.67307 0.08116 0.28467 0.0
O537 O 0.64351 0.0622 0.28322 0.0
O538 O 0.62082 0.16765 0.29228 0.0
O539 O 0.58175 0.14275 0.3054 0.0
H540 H 0.65396 0.35161 0.29298 0.0
H541 H 0.63135 0.98821 0.31348 0.0
O542 O 0.6152 0.02968 0.33826 0.0
H543 H 0.52767 0.99826 0.27411 0.0
H544 H 0.50411 0.99173 0.33707 0.0
H545 H 0.55032 0.16724 0.32711 0.0
H546 H 0.54217 0.06727 0.29527 0.0
H547 H 0.55765 0.9975 0.32947 0.0
O548 O 0.68288 0.11871 0.29468 0.0
H549 H 0.63284 0.26669 0.3017 0.0
H550 H 0.72424 0.19214 0.30345 0.0
H551 H 0.49659 0.16323 0.33456 0.0
H552 H 0.61764 0.91791 0.29265 0.0
H553 H 0.47313 0.07499 0.3396 0.0
H554 H 0.56552 0.92277 0.27274 0.0
O555 O 0.61143 0.14501 0.33866 0.0
H556 H 0.75127 0.05335 0.3433 0.0
H557 H 0.69636 0.22878 0.33592 0.0
H558 H 0.74333 0.21641 0.35835 0.0
H559 H 0.77118 0.12819 0.36213 0.0
H560 H 0.70401 0.06738 0.32111 0.0
H561 H 0.74627 0.27615 0.29464 0.0
H562 H 0.71107 0.35673 0.2894 0.0
O563 O 0.63833 0.20001 0.32494 0.0
C564 C 0.5911 0.16581 0.2936 0.0
C565 C 0.66956 0.31681 0.29526 0.0
C566 C 0.72136 0.27444 0.29617 0.0
N567 N 0.67731 0.22455 0.30316 0.0
C568 C 0.65775 0.26863 0.30023 0.0
C569 C 0.70871 0.22693 0.30112 0.0
C570 C 0.7016 0.31964 0.29324 0.0
C571 C 0.6085 0.9904 0.30494 0.0
N572 N 0.58759 0.03189 0.3056 0.0
C573 C 0.60092 0.95055 0.29314 0.0
C574 C 0.5717 0.95335 0.28196 0.0
C575 C 0.55048 0.99572 0.28271 0.0
C576 C 0.55888 0.03485 0.29467 0.0
C577 C 0.51406 0.03041 0.33489 0.0
C578 C 0.54023 0.12866 0.32921 0.0
C579 C 0.54441 0.03395 0.33063 0.0
N580 N 0.55705 0.08266 0.32776 0.0
C581 C 0.50981 0.12666 0.33346 0.0
C582 C 0.49668 0.07714 0.3363 0.0
C583 C 0.62357 0.1908 0.3365 0.0
C584 C 0.73939 0.09201 0.34175 0.0
C585 C 0.70826 0.19023 0.33752 0.0
C586 C 0.73491 0.1835 0.35021 0.0
C587 C 0.75053 0.13401 0.35232 0.0
N588 N 0.69755 0.1489 0.32717 0.0
C589 C 0.7127 0.10024 0.32918 0.0
Co590 Co 0.34916 0.92744 0.07328 0.0
Co591 Co 0.40982 0.86101 0.06016 0.0
O592 O 0.39218 0.92704 0.0676 0.0
C593 C 0.39041 1.00105 0.09775 0.0
O594 O 0.41722 0.97778 0.09567 0.0
C595 C 0.42323 0.93739 0.03478 0.0
O596 O 0.39216 0.94857 0.03073 0.0
O597 O 0.37114 0.85478 0.04223 0.0
O598 O 0.33269 0.87171 0.05648 0.0
H599 H 0.40387 0.67101 0.03996 0.0
H600 H 0.37855 0.02867 0.06459 0.0
O601 O 0.36291 0.98437 0.09018 0.0
H602 H 0.27431 0.01292 0.02589 0.0
H603 H 0.25104 0.01309 0.08862 0.0
H604 H 0.303 0.8426 0.07862 0.0
H605 H 0.29102 0.94412 0.04689 0.0
H606 H 0.30446 0.0127 0.08078 0.0
O607 O 0.43351 0.90411 0.0461 0.0
H608 H 0.38264 0.75388 0.04994 0.0
H609 H 0.47432 0.82925 0.05348 0.0
H610 H 0.24944 0.8412 0.08629 0.0
H611 H 0.36265 0.09862 0.04387 0.0
H612 H 0.22309 0.9269 0.09135 0.0
H613 H 0.31019 0.09098 0.02431 0.0
O614 O 0.36337 0.86989 0.08962 0.0
H615 H 0.50366 0.95703 0.0949 0.0
H616 H 0.44425 0.78591 0.08548 0.0
H617 H 0.4915 0.79313 0.10799 0.0
H618 H 0.52165 0.87911 0.11279 0.0
H619 H 0.45593 0.94834 0.07268 0.0
H620 H 0.49647 0.74732 0.04341 0.0
H621 H 0.46119 0.66736 0.03663 0.0
O622 O 0.3874 0.81571 0.07433 0.0
C623 C 0.34169 0.85336 0.04394 0.0
C624 C 0.41952 0.70553 0.04292 0.0
C625 C 0.47147 0.74838 0.04484 0.0
N626 N 0.42726 0.79623 0.05242 0.0
C627 C 0.40765 0.75253 0.04862 0.0
C628 C 0.45877 0.7947 0.0505 0.0
C629 C 0.45167 0.70352 0.04104 0.0
C630 C 0.35553 0.02532 0.05625 0.0
N631 N 0.33559 0.98266 0.0571 0.0
C632 C 0.34672 0.06495 0.04449 0.0
C633 C 0.31732 0.06059 0.0335 0.0
C634 C 0.29718 0.01681 0.03438 0.0
C635 C 0.3068 0.97794 0.04629 0.0
C636 C 0.26226 0.97549 0.08643 0.0
C637 C 0.29166 0.88008 0.08074 0.0
C638 C 0.29257 0.97499 0.08204 0.0
N639 N 0.30682 0.92767 0.07918 0.0
C640 C 0.26134 0.87903 0.0851 0.0
C641 C 0.24658 0.92712 0.08796 0.0
C642 C 0.37425 0.82403 0.08654 0.0
C643 C 0.49074 0.91934 0.09293 0.0
C644 C 0.45699 0.82367 0.08759 0.0
C645 C 0.48385 0.82741 0.1003 0.0
C646 C 0.50079 0.87563 0.10297 0.0
N647 N 0.44722 0.86677 0.0778 0.0
C648 C 0.46376 0.91412 0.08033 0.0
Co649 Co 0.41914 0.93241 0.68241 0.0
Co650 Co 0.35469 0.87312 0.69512 0.0
O651 O 0.37673 0.9362 0.68867 0.0
C652 C 0.37868 1.00121 0.65675 0.0
O653 O 0.35307 0.97162 0.65713 0.0
C654 C 0.33711 0.90658 0.726 0.0
O655 O 0.35181 0.86289 0.73236 0.0
O656 O 0.39398 0.85446 0.71181 0.0
O657 O 0.43431 0.87658 0.69918 0.0
H658 H 0.34637 0.67983 0.71054 0.0
H659 H 0.39293 0.03656 0.69089 0.0
O660 O 0.40599 0.9895 0.66562 0.0
H661 H 0.49774 0.01585 0.72885 0.0
H662 H 0.51819 0.00944 0.66566 0.0
H663 H 0.46293 0.84386 0.67718 0.0
H664 H 0.47848 0.94671 0.70828 0.0
H665 H 0.46528 0.01366 0.674 0.0
O666 O 0.3375 0.9187 0.71131 0.0
H667 H 0.37345 0.75997 0.70239 0.0
H668 H 0.2883 0.85226 0.70159 0.0
H669 H 0.51594 0.83785 0.66902 0.0
H670 H 0.41143 0.10705 0.71116 0.0
H671 H 0.54394 0.92106 0.66319 0.0
H672 H 0.46417 0.09689 0.73035 0.0
O673 O 0.40331 0.87502 0.66614 0.0
H674 H 0.26858 0.99724 0.66573 0.0
H675 H 0.31176 0.81309 0.66839 0.0
H676 H 0.26431 0.83643 0.64728 0.0
H677 H 0.24229 0.92904 0.6459 0.0
H678 H 0.3164 0.97245 0.68646 0.0
H679 H 0.26031 0.7731 0.70974 0.0
H680 H 0.28939 0.6861 0.71427 0.0
O681 O 0.37115 0.82704 0.67908 0.0
C682 C 0.42377 0.85346 0.7106 0.0
C683 C 0.33344 0.71751 0.7086 0.0
C684 C 0.28514 0.76985 0.70814 0.0
N685 N 0.33251 0.81077 0.70151 0.0
C686 C 0.34865 0.76304 0.70399 0.0
C687 C 0.30111 0.81453 0.70352 0.0
C688 C 0.30147 0.72105 0.71069 0.0
C689 C 0.41599 0.03197 0.69913 0.0
N690 N 0.43463 0.98756 0.69836 0.0
C691 C 0.4263 0.07197 0.71061 0.0
C692 C 0.45588 0.06622 0.72139 0.0
C693 C 0.47471 0.02075 0.72056 0.0
C694 C 0.46362 0.98158 0.70892 0.0
C695 C 0.50623 0.9729 0.66818 0.0
C696 C 0.475 0.88027 0.67473 0.0
C697 C 0.47621 0.97502 0.67284 0.0
N698 N 0.46104 0.92905 0.67611 0.0
C699 C 0.505 0.8766 0.67008 0.0
C700 C 0.52068 0.9233 0.6668 0.0
C701 C 0.38733 0.83256 0.66787 0.0
C702 C 0.27789 0.95671 0.66624 0.0
C703 C 0.30259 0.85361 0.66778 0.0
C704 C 0.27557 0.86652 0.65585 0.0
C705 C 0.26319 0.91846 0.65509 0.0
N706 N 0.31688 0.89132 0.67868 0.0
C707 C 0.30486 0.94234 0.67801 0.0
Co708 Co 0.65707 0.59058 0.4316 0.0
Co709 Co 0.59825 0.66498 0.44416 0.0
O710 O 0.61371 0.59683 0.43676 0.0
C711 C 0.61401 0.51611 0.40768 0.0
O712 O 0.58749 0.5327 0.4121 0.0
C713 C 0.58132 0.58692 0.46805 0.0
O714 O 0.6108 0.56729 0.47002 0.0
O715 O 0.63665 0.66837 0.46231 0.0
O716 O 0.67542 0.64282 0.44915 0.0
H717 H 0.61054 0.8548 0.46445 0.0
H718 H 0.62145 0.49404 0.43968 0.0
O719 O 0.64145 0.53679 0.41386 0.0
H720 H 0.72622 0.49202 0.47824 0.0
H721 H 0.75172 0.49306 0.41649 0.0
H722 H 0.70814 0.6691 0.42808 0.0
H723 H 0.71362 0.56366 0.45785 0.0
H724 H 0.69778 0.50009 0.42359 0.0
O725 O 0.57278 0.62544 0.45822 0.0
H726 H 0.62908 0.7695 0.45464 0.0
H727 H 0.53456 0.70384 0.45016 0.0
H728 H 0.76233 0.66379 0.4212 0.0
H729 H 0.63324 0.42128 0.45966 0.0
H730 H 0.78445 0.57529 0.41533 0.0
H731 H 0.68594 0.41991 0.47919 0.0
O732 O 0.64686 0.65072 0.41567 0.0
H733 H 0.5023 0.57637 0.40879 0.0
H734 H 0.56715 0.74206 0.41859 0.0
H735 H 0.52044 0.73816 0.3957 0.0
H736 H 0.48758 0.65491 0.3907 0.0
H737 H 0.54946 0.58179 0.43144 0.0
H738 H 0.51505 0.78831 0.46004 0.0
H739 H 0.55313 0.86462 0.46721 0.0
O740 O 0.62266 0.7072 0.43025 0.0
C741 C 0.66639 0.66471 0.46121 0.0
C742 C 0.59369 0.8219 0.46132 0.0
C743 C 0.54011 0.78456 0.45887 0.0
N744 N 0.5829 0.73183 0.45171 0.0
C745 C 0.60403 0.77352 0.45572 0.0
C746 C 0.55132 0.73677 0.45331 0.0
C747 C 0.56148 0.82737 0.46288 0.0
C748 C 0.64466 0.49342 0.44787 0.0
N749 N 0.667 0.53277 0.44732 0.0
C750 C 0.65111 0.45222 0.45929 0.0
C751 C 0.68064 0.45155 0.47027 0.0
C752 C 0.70322 0.49199 0.46974 0.0
C753 C 0.69591 0.53256 0.45817 0.0
C754 C 0.74234 0.53186 0.41902 0.0
C755 C 0.71763 0.6304 0.42561 0.0
C756 C 0.71175 0.53613 0.42299 0.0
N757 N 0.69981 0.58497 0.42629 0.0
C758 C 0.74832 0.62766 0.42169 0.0
C759 C 0.76071 0.578 0.41838 0.0
C760 C 0.63701 0.69751 0.41855 0.0
C761 C 0.51642 0.61288 0.41085 0.0
C762 C 0.55318 0.70549 0.41642 0.0
C763 C 0.52665 0.70363 0.40348 0.0
C764 C 0.5082 0.65693 0.40069 0.0
N765 N 0.56112 0.66207 0.42631 0.0
C766 C 0.54311 0.61622 0.42368 0.0
Co767 Co 0.59709 0.58559 0.82306 0.0
Co768 Co 0.65936 0.64911 0.81057 0.0
O769 O 0.64029 0.58381 0.8176 0.0
C770 C 0.63644 0.51449 0.84864 0.0
O771 O 0.66256 0.54319 0.84862 0.0
C772 C 0.67239 0.57436 0.78458 0.0
O773 O 0.64114 0.56589 0.77977 0.0
O774 O 0.62111 0.65762 0.79249 0.0
O775 O 0.58206 0.64274 0.80653 0.0
H776 H 0.65742 0.83973 0.79115 0.0
H777 H 0.62446 0.48295 0.81421 0.0
O778 O 0.60956 0.5273 0.83956 0.0
H779 H 0.52157 0.50564 0.77487 0.0
H780 H 0.49689 0.50439 0.83747 0.0
H781 H 0.55245 0.67252 0.82863 0.0
H782 H 0.53917 0.57294 0.79626 0.0
H783 H 0.55055 0.50238 0.8299 0.0
O784 O 0.68277 0.60525 0.79652 0.0
H785 H 0.63436 0.7577 0.80063 0.0
H786 H 0.72477 0.67794 0.80447 0.0
H787 H 0.49869 0.67634 0.83604 0.0
H788 H 0.60764 0.41444 0.79308 0.0
H789 H 0.47053 0.59184 0.84052 0.0
H790 H 0.55587 0.42561 0.77321 0.0
O791 O 0.6122 0.64182 0.83974 0.0
H792 H 0.75001 0.54711 0.84564 0.0
H793 H 0.69489 0.722 0.83627 0.0
H794 H 0.74139 0.71171 0.85904 0.0
H795 H 0.76938 0.62381 0.86381 0.0
H796 H 0.70307 0.55891 0.82315 0.0
H797 H 0.74873 0.75898 0.7949 0.0
H798 H 0.71502 0.84071 0.78822 0.0
O799 O 0.63739 0.69519 0.82476 0.0
C800 C 0.59162 0.66058 0.79408 0.0
C801 C 0.67239 0.80442 0.79407 0.0
C802 C 0.72362 0.75908 0.79615 0.0
N803 N 0.67824 0.7132 0.80324 0.0
C804 C 0.65948 0.75789 0.79949 0.0
C805 C 0.70989 0.71327 0.80154 0.0
C806 C 0.7047 0.80493 0.79241 0.0
C807 C 0.60177 0.48786 0.80569 0.0
N808 N 0.58272 0.53167 0.80656 0.0
C809 C 0.59242 0.44904 0.79372 0.0
C810 C 0.56339 0.45536 0.78256 0.0
C811 C 0.54414 0.50026 0.78348 0.0
C812 C 0.55427 0.53828 0.79561 0.0
C813 C 0.50891 0.54149 0.83554 0.0
C814 C 0.54032 0.63556 0.83049 0.0
C815 C 0.53935 0.54061 0.8313 0.0
N816 N 0.55461 0.5873 0.82876 0.0
C817 C 0.50989 0.63798 0.83472 0.0
C818 C 0.49412 0.59056 0.83724 0.0
C819 C 0.62391 0.68723 0.83687 0.0
C820 C 0.73806 0.58563 0.84367 0.0
C821 C 0.70673 0.68347 0.83834 0.0
C822 C 0.73316 0.67797 0.85122 0.0
C823 C 0.74888 0.62866 0.85388 0.0
N824 N 0.69624 0.64106 0.82838 0.0
C825 C 0.71155 0.59262 0.83091 0.0
Co826 Co 0.34791 0.43237 0.57229 0.0
Co827 Co 0.4108 0.36881 0.55972 0.0
O828 O 0.39091 0.43368 0.56655 0.0
C829 C 0.3881 0.50159 0.5982 0.0
O830 O 0.41405 0.47264 0.59801 0.0
C831 C 0.4204 0.44011 0.5322 0.0
O832 O 0.3889 0.44567 0.52745 0.0
O833 O 0.37178 0.35549 0.5423 0.0
O834 O 0.33226 0.37672 0.55551 0.0
H835 H 0.41235 0.17592 0.54269 0.0
H836 H 0.37662 0.53445 0.56395 0.0
O837 O 0.3611 0.48943 0.58911 0.0
H838 H 0.27284 0.51785 0.52494 0.0
H839 H 0.24878 0.5149 0.58749 0.0
H840 H 0.30243 0.34615 0.57736 0.0
H841 H 0.28967 0.44896 0.54588 0.0
H842 H 0.30232 0.5162 0.57979 0.0
O843 O 0.43198 0.41221 0.54466 0.0
H844 H 0.38814 0.25767 0.55169 0.0
H845 H 0.47589 0.34295 0.5526 0.0
H846 H 0.24876 0.34305 0.58489 0.0
H847 H 0.36059 0.60462 0.5433 0.0
H848 H 0.22157 0.42786 0.59003 0.0
H849 H 0.30838 0.59652 0.52358 0.0
O850 O 0.36229 0.37469 0.58869 0.0
H851 H 0.50023 0.48047 0.59212 0.0
H852 H 0.45026 0.30106 0.58564 0.0
H853 H 0.49768 0.31684 0.60755 0.0
H854 H 0.5231 0.40706 0.61086 0.0
H855 H 0.4524 0.46313 0.57053 0.0
H856 H 0.50094 0.2622 0.5435 0.0
H857 H 0.46916 0.17785 0.53854 0.0
O858 O 0.39128 0.32359 0.57487 0.0
C859 C 0.34209 0.35485 0.54369 0.0
C860 C 0.42647 0.2124 0.54485 0.0
C861 C 0.47618 0.26084 0.54528 0.0
N862 N 0.43061 0.30499 0.55276 0.0
C863 C 0.41292 0.2588 0.54998 0.0
C864 C 0.46182 0.30649 0.5504 0.0
C865 C 0.45834 0.21352 0.54251 0.0
C866 C 0.35376 0.5308 0.55549 0.0
N867 N 0.33406 0.48768 0.55618 0.0
C868 C 0.34486 0.5706 0.54379 0.0
C869 C 0.31558 0.56599 0.53271 0.0
C870 C 0.29564 0.52186 0.53346 0.0
C871 C 0.30535 0.48284 0.54532 0.0
C872 C 0.26038 0.47767 0.58529 0.0
C873 C 0.29073 0.38326 0.57952 0.0
C874 C 0.29076 0.47814 0.58098 0.0
N875 N 0.3055 0.4313 0.5781 0.0
C876 C 0.26035 0.38124 0.58381 0.0
C877 C 0.24512 0.42883 0.5867 0.0
C878 C 0.37621 0.33055 0.58645 0.0
C879 C 0.4894 0.44097 0.59079 0.0
C880 C 0.46091 0.34055 0.5871 0.0
C881 C 0.4879 0.34919 0.59948 0.0
C882 C 0.50218 0.39979 0.60132 0.0
N883 N 0.44846 0.38115 0.57683 0.0
C884 C 0.46238 0.43084 0.57854 0.0
Co885 Co 0.41254 0.43014 0.18271 0.0
Co886 Co 0.35022 0.36544 0.19478 0.0
O887 O 0.36955 0.43077 0.18822 0.0
C888 C 0.37416 0.49298 0.15515 0.0
O889 O 0.35369 0.45291 0.15178 0.0
C890 C 0.33785 0.4394 0.2211 0.0
O891 O 0.36913 0.44784 0.22582 0.0
O892 O 0.38875 0.35482 0.21269 0.0
O893 O 0.42803 0.37245 0.19894 0.0
H894 H 0.3508 0.17303 0.21243 0.0
H895 H 0.38444 0.53172 0.19199 0.0
O896 O 0.39865 0.48922 0.16672 0.0
H897 H 0.48759 0.50932 0.23116 0.0
H898 H 0.51105 0.51614 0.168 0.0
H899 H 0.45832 0.34532 0.1769 0.0
H900 H 0.47038 0.44279 0.2095 0.0
H901 H 0.45748 0.51551 0.1757 0.0
O902 O 0.32732 0.40848 0.20919 0.0
H903 H 0.37436 0.25557 0.20355 0.0
H904 H 0.28483 0.33707 0.20101 0.0
H905 H 0.51199 0.34413 0.16933 0.0
H906 H 0.40086 0.59943 0.2134 0.0
H907 H 0.53873 0.43 0.16483 0.0
H908 H 0.45276 0.58841 0.23319 0.0
O909 O 0.39819 0.37387 0.16585 0.0
H910 H 0.26246 0.47366 0.15988 0.0
H911 H 0.3126 0.29484 0.16904 0.0
H912 H 0.26657 0.30841 0.14621 0.0
H913 H 0.24111 0.39834 0.14153 0.0
H914 H 0.30876 0.4584 0.18248 0.0
H915 H 0.2604 0.25553 0.21 0.0
H916 H 0.29341 0.17267 0.21571 0.0
O917 O 0.37144 0.32056 0.18013 0.0
C918 C 0.41831 0.35261 0.2111 0.0
C919 C 0.33614 0.20884 0.20994 0.0
C920 C 0.28542 0.25517 0.20859 0.0
N921 N 0.33096 0.30101 0.20166 0.0
C922 C 0.34933 0.25568 0.20488 0.0
C923 C 0.29942 0.30127 0.20355 0.0
C924 C 0.30395 0.20868 0.21179 0.0
C925 C 0.40718 0.52684 0.20048 0.0
N926 N 0.42652 0.48353 0.19942 0.0
C927 C 0.4163 0.56524 0.21261 0.0
C928 C 0.4454 0.55899 0.22372 0.0
C929 C 0.46495 0.51462 0.22259 0.0
C930 C 0.45504 0.47703 0.21031 0.0
C931 C 0.49968 0.47847 0.16995 0.0
C932 C 0.46986 0.38286 0.17505 0.0
C933 C 0.46931 0.47784 0.17428 0.0
N934 N 0.45488 0.43041 0.17687 0.0
C935 C 0.50023 0.38193 0.17072 0.0
C936 C 0.5152 0.43012 0.16818 0.0
C937 C 0.38553 0.32874 0.16824 0.0
C938 C 0.2733 0.43426 0.16181 0.0
C939 C 0.30178 0.33413 0.16704 0.0
C940 C 0.27565 0.34155 0.15412 0.0
C941 C 0.26136 0.392 0.15151 0.0
N942 N 0.31332 0.37575 0.17711 0.0
C943 C 0.29946 0.42534 0.17462 0.0
H944 H 0.35136 0.28862 0.51878 0.0
H945 H 0.27638 0.35626 0.54109 0.0
H946 H 0.30995 0.24108 0.49944 0.0
H947 H 0.23531 0.31163 0.52141 0.0
H948 H 0.16879 0.1865 0.4931 0.0
H949 H 0.21102 0.2292 0.51328 0.0
H950 H 0.26849 0.25395 0.47667 0.0
H951 H 0.22725 0.20951 0.4569 0.0
C952 C 0.32611 0.29394 0.51945 0.0
C953 C 0.31735 0.32674 0.53145 0.0
C954 C 0.30226 0.26685 0.50831 0.0
C955 C 0.26907 0.27242 0.50879 0.0
C956 C 0.26049 0.30539 0.52078 0.0
C957 C 0.28423 0.33174 0.53199 0.0
C958 C 0.19044 0.2012 0.48942 0.0
C959 C 0.19463 0.19441 0.47341 0.0
C960 C 0.21468 0.22587 0.50095 0.0
C961 C 0.24342 0.24501 0.49668 0.0
C962 C 0.2472 0.23874 0.48058 0.0
C963 C 0.22328 0.21356 0.46916 0.0
H964 H 0.97489 0.97494 0.54193 0.0
H965 H 0.9287 0.90101 0.49681 0.0
H966 H 0.01513 0.01568 0.52839 0.0
H967 H 0.96902 0.94137 0.48335 0.0
H968 H 0.02582 0.06831 0.46132 0.0
H969 H 0.98574 0.02936 0.47505 0.0
H970 H 0.06147 0.9879 0.5158 0.0
H971 H 0.10194 0.02761 0.50206 0.0
C972 C 0.97307 0.96781 0.52909 0.0
C973 C 0.9484 0.93485 0.52044 0.0
C974 C 0.99639 0.99069 0.52137 0.0
C975 C 0.99544 0.9816 0.5048 0.0
C976 C 0.97035 0.94957 0.4961 0.0
C977 C 0.94722 0.92635 0.50383 0.0
C978 C 0.0341 0.05082 0.4732 0.0
C979 C 0.06724 0.05115 0.48058 0.0
C980 C 0.01103 0.02822 0.48104 0.0
C981 C 0.02033 1.00549 0.49653 0.0
C982 C 0.05346 1.00561 0.50394 0.0
C983 C 0.07668 0.02798 0.49602 0.0
H984 H 0.31664 0.8759 0.75345 0.0
H985 H 0.30744 1.00353 0.71821 0.0
H986 H 0.27654 0.91919 0.76627 0.0
H987 H 0.2683 0.04837 0.73147 0.0
H988 H 0.17487 0.08897 0.74807 0.0
H989 H 0.21452 0.04362 0.73525 0.0
H990 H 0.26592 0.99062 0.78228 0.0
H991 H 0.22554 0.03381 0.79492 0.0
C992 C 0.30652 0.91381 0.74861 0.0
C993 C 0.31534 0.93624 0.7348 0.0
C994 C 0.28348 0.93884 0.75601 0.0
C995 C 0.26887 0.98741 0.74993 0.0
C996 C 0.27839 0.01051 0.73634 0.0
C997 C 0.30116 0.9851 0.72882 0.0
C998 C 0.19446 0.06711 0.75564 0.0
C999 C 0.19687 0.06481 0.77251 0.0
C1000 C 0.21747 0.04153 0.7483 0.0
C1001 C 0.24376 0.01355 0.75768 0.0
C1002 C 0.24586 0.0109 0.77457 0.0
C1003 C 0.22265 0.03587 0.78186 0.0
H1004 H 0.02175 0.15669 0.79194 0.0
H1005 H 0.09863 0.21707 0.76963 0.0
H1006 H 0.98189 0.201 0.77159 0.0
H1007 H 0.05852 0.26458 0.74965 0.0
H1008 H 0.97731 0.29909 0.70662 0.0
H1009 H 0.01732 0.25308 0.72674 0.0
H1010 H 0.95938 0.28349 0.76284 0.0
H1011 H 0.9185 0.32735 0.74238 0.0
C1012 C 0.03027 0.17957 0.7827 0.0
C1013 C 0.06355 0.18261 0.78236 0.0
C1014 C 0.00725 0.20575 0.77109 0.0
C1015 C 0.01676 0.23674 0.75891 0.0
C1016 C 0.05012 0.24034 0.75864 0.0
C1017 C 0.07322 0.21332 0.77017 0.0
C1018 C 0.97301 0.29577 0.71885 0.0
C1019 C 0.94462 0.31679 0.72289 0.0
C1020 C 0.99619 0.26973 0.73046 0.0
C1021 C 0.99189 0.26461 0.74652 0.0
C1022 C 0.9634 0.28572 0.75055 0.0
C1023 C 0.93992 0.31109 0.73884 0.0
H1024 H 0.78282 0.80314 0.54885 0.0
H1025 H 0.84251 0.82144 0.51297 0.0
H1026 H 0.74165 0.75828 0.52913 0.0
H1027 H 0.80044 0.77809 0.49287 0.0
H1028 H 0.73215 0.65486 0.46468 0.0
H1029 H 0.77429 0.69599 0.48482 0.0
H1030 H 0.70115 0.7745 0.50603 0.0
H1031 H 0.65877 0.7311 0.48626 0.0
C1032 C 0.78713 0.79784 0.53669 0.0
C1033 C 0.81602 0.8161 0.53249 0.0
C1034 C 0.76327 0.77238 0.5253 0.0
C1035 C 0.76738 0.76489 0.5093 0.0
C1036 C 0.79651 0.78254 0.50512 0.0
C1037 C 0.82064 0.80758 0.51662 0.0
C1038 C 0.72492 0.68042 0.47373 0.0
C1039 C 0.69191 0.68917 0.47389 0.0
C1040 C 0.74924 0.7046 0.48521 0.0
C1041 C 0.74132 0.73882 0.49709 0.0
C1042 C 0.70828 0.74768 0.49725 0.0
C1043 C 0.68389 0.72295 0.48586 0.0
H1044 H 0.66741 0.98809 0.26685 0.0
H1045 H 0.73012 0.12464 0.28021 0.0
H1046 H 0.70591 0.95146 0.25149 0.0
H1047 H 0.76783 0.08944 0.26443 0.0
H1048 H 0.84543 0.98781 0.24838 0.0
H1049 H 0.807 0.02286 0.26396 0.0
H1050 H 0.72743 0.96183 0.22789 0.0
H1051 H 0.7659 0.92506 0.21272 0.0
C1052 C 0.68924 0.01054 0.26638 0.0
C1053 C 0.69568 0.05919 0.27481 0.0
C1054 C 0.71132 0.9897 0.2575 0.0
C1055 C 0.74022 0.0173 0.25669 0.0
C1056 C 0.74631 0.06632 0.265 0.0
C1057 C 0.72447 0.08679 0.27398 0.0
C1058 C 0.81973 0.98198 0.24377 0.0
C1059 C 0.80882 0.95352 0.22932 0.0
C1060 C 0.79759 1.00233 0.25267 0.0
C1061 C 0.76391 0.9953 0.24725 0.0
C1062 C 0.75309 0.96727 0.23267 0.0
C1063 C 0.77522 0.94648 0.22387 0.0
H1064 H 0.98031 0.86127 0.21535 0.0
H1065 H 0.90632 0.78395 0.23622 0.0
H1066 H 0.02209 0.81903 0.23536 0.0
H1067 H 0.94838 0.73926 0.25586 0.0
H1068 H 0.02996 0.70829 0.29872 0.0
H1069 H 0.9887 0.75346 0.27912 0.0
H1070 H 0.04803 0.7369 0.24297 0.0
H1071 H 0.09017 0.69343 0.26295 0.0
C1072 C 0.97286 0.83521 0.22422 0.0
C1073 C 0.93979 0.82651 0.22423 0.0
C1074 C 0.99699 0.81035 0.23562 0.0
C1075 C 0.98882 0.77541 0.24726 0.0
C1076 C 0.95571 0.76659 0.24727 0.0
C1077 C 0.9315 0.79206 0.23595 0.0
C1078 C 0.03435 0.71436 0.28661 0.0
C1079 C 0.06346 0.69711 0.28241 0.0
C1080 C 0.01044 0.73998 0.27529 0.0
C1081 C 0.01472 0.74862 0.25936 0.0
C1082 C 0.04398 0.73167 0.25517 0.0
C1083 C 0.06815 0.70651 0.2666 0.0
H1084 H 0.34419 0.83025 0.01232 0.0
H1085 H 0.28254 0.81645 0.04746 0.0
H1086 H 0.30238 0.78738 0.99205 0.0
H1087 H 0.24165 0.77141 0.02761 0.0
H1088 H 0.23841 0.65755 0.96515 0.0
H1089 H 0.27833 0.70484 0.98472 0.0
H1090 H 0.20166 0.7801 0.00413 0.0
H1091 H 0.16139 0.72975 0.98498 0.0
C1092 C 0.32185 0.81766 0.01575 0.0
C1093 C 0.31677 0.8268 0.0315 0.0
C1094 C 0.29787 0.79279 0.00416 0.0
C1095 C 0.26846 0.77561 0.00813 0.0
C1096 C 0.26355 0.78487 0.02393 0.0
C1097 C 0.28724 0.81041 0.0354 0.0
C1098 C 0.22987 0.68371 0.97366 0.0
C1099 C 0.19652 0.68913 0.97358 0.0
C1100 C 0.25295 0.71161 0.98481 0.0
C1101 C 0.24346 0.74669 0.99606 0.0
C1102 C 0.21003 0.75278 0.99586 0.0
C1103 C 0.18685 0.72408 0.98482 0.0
H1104 H 0.05882 0.50748 0.97195 0.0
H1105 H 0.06399 0.64448 0.00376 0.0
H1106 H 0.01875 0.46608 0.9856 0.0
H1107 H 0.02371 0.60343 0.01716 0.0
H1108 H 0.92271 0.53899 0.02268 0.0
H1109 H 0.96276 0.57836 0.00857 0.0
H1110 H 0.01696 0.43042 0.01434 0.0
H1111 H 0.97739 0.39131 0.0286 0.0
C1112 C 0.05164 0.52854 0.98192 0.0
C1113 C 0.06478 0.57913 0.98682 0.0
C1114 C 0.02868 0.50488 0.98971 0.0
C1115 C 0.01793 0.53177 1.00235 0.0
C1116 C 0.03128 0.58207 0.00734 0.0
C1117 C 0.05461 0.60528 0.99976 0.0
C1118 C 0.94306 0.51481 0.02084 0.0
C1119 C 0.94692 0.46212 0.02679 0.0
C1120 C 0.96607 0.53743 0.01286 0.0
C1121 C 0.99302 0.50745 0.01041 0.0
C1122 C 0.99638 0.45436 0.01599 0.0
C1123 C 0.97376 0.43211 0.02421 0.0
H1124 H 0.27209 0.44233 0.21126 0.0
H1125 H 0.34928 0.49377 0.25016 0.0
H1126 H 0.23222 0.4812 0.22518 0.0
H1127 H 0.309 0.5331 0.26413 0.0
H1128 H 0.22414 0.54389 0.29162 0.0
H1129 H 0.26414 0.50322 0.2779 0.0
H1130 H 0.21463 0.57099 0.2325 0.0
H1131 H 0.1746 0.61153 0.24616 0.0
C1132 C 0.28062 0.46205 0.22279 0.0
C1133 C 0.31399 0.46487 0.2296 0.0
C1134 C 0.25768 0.48458 0.23073 0.0
C1135 C 0.26739 0.51023 0.24576 0.0
C1136 C 0.30073 0.51312 0.25262 0.0
C1137 C 0.32382 0.49094 0.24458 0.0
C1138 C 0.22154 0.54962 0.27868 0.0
C1139 C 0.19602 0.58083 0.26998 0.0
C1140 C 0.24469 0.52678 0.27086 0.0
C1141 C 0.24268 0.53408 0.25413 0.0
C1142 C 0.21676 0.56428 0.24538 0.0
C1143 C 0.19382 0.58757 0.25322 0.0
H1144 H 0.73051 0.2019 0.95676 0.0
H1145 H 0.66886 0.18768 0.99189 0.0
H1146 H 0.77106 0.24798 0.97656 0.0
H1147 H 0.71024 0.23178 0.01207 0.0
H1148 H 0.77593 0.35788 0.03991 0.0
H1149 H 0.73523 0.31394 0.01976 0.0
H1150 H 0.8108 0.23637 1.00009 0.0
H1151 H 0.85178 0.28304 0.01981 0.0
C1152 C 0.72568 0.20827 0.96878 0.0
C1153 C 0.69634 0.19109 0.97273 0.0
C1154 C 0.74916 0.2344 0.98022 0.0
C1155 C 0.74422 0.24353 0.99603 0.0
C1156 C 0.7148 0.22633 0.99997 0.0
C1157 C 0.69105 0.20078 0.98842 0.0
C1158 C 0.78403 0.33196 0.0312 0.0
C1159 C 0.81729 0.3246 0.03142 0.0
C1160 C 0.76052 0.30608 0.01971 0.0
C1161 C 0.76951 0.27127 0.00825 0.0
C1162 C 0.80283 0.26358 0.00852 0.0
C1163 C 0.82642 0.29017 0.01989 0.0
H1164 H 0.66091 0.52095 0.75538 0.0
H1165 H 0.73824 0.57196 0.79426 0.0
H1166 H 0.7011 0.48293 0.74113 0.0
H1167 H 0.77807 0.53433 0.78005 0.0
H1168 H 0.83548 0.40484 0.75843 0.0
H1169 H 0.79583 0.4451 0.77238 0.0
H1170 H 0.74559 0.5137 0.72725 0.0
H1171 H 0.78525 0.47327 0.71323 0.0
C1172 C 0.6864 0.52394 0.76091 0.0
C1173 C 0.69628 0.54949 0.77597 0.0
C1174 C 0.70943 0.50254 0.75269 0.0
C1175 C 0.74281 0.50568 0.75945 0.0
C1176 C 0.75259 0.5308 0.77457 0.0
C1177 C 0.72968 0.55258 0.78269 0.0
C1178 C 0.81619 0.42896 0.75149 0.0
C1179 C 0.81366 0.43595 0.73472 0.0
C1180 C 0.79347 0.45211 0.7595 0.0
C1181 C 0.76743 0.4824 0.75092 0.0
C1182 C 0.76514 0.49007 0.73418 0.0
C1183 C 0.78809 0.46737 0.72619 0.0
H1184 H 0.58657 0.1061 0.00863 0.0
H1185 H 0.53415 0.04232 0.96319 0.0
H1186 H 0.54707 0.06561 0.02265 0.0
H1187 H 0.49462 1.00185 0.97727 0.0
H1188 H 0.41128 0.99475 0.00631 0.0
H1189 H 0.45121 0.03346 0.99203 0.0
H1190 H 0.52878 0.97491 0.02949 0.0
H1191 H 0.48921 0.9364 0.04372 0.0
C1192 C 0.5668 0.08302 1.00165 0.0
C1193 C 0.56363 0.07732 0.9848 0.0
C1194 C 0.54418 0.05976 0.0097 0.0
C1195 C 0.51761 0.03074 1.00106 0.0
C1196 C 0.51462 0.02448 0.98423 0.0
C1197 C 0.53748 0.04721 0.9762 0.0
C1198 C 0.43685 0.99031 0.01151 0.0
C1199 C 0.44699 0.96246 0.02616 0.0
C1200 C 0.45971 0.01213 0.00328 0.0
C1201 C 0.49317 1.00718 0.00963 0.0
C1202 C 0.50322 0.97981 0.02434 0.0
C1203 C 0.48047 0.95753 0.03246 0.0
H1204 H 0.41565 0.32768 0.24265 0.0
H1205 H 0.47666 0.31364 0.20722 0.0
H1206 H 0.45775 0.28461 0.2628 0.0
H1207 H 0.51779 0.26879 0.22692 0.0
H1208 H 0.59966 0.23528 0.26945 0.0
H1209 H 0.55787 0.28181 0.25015 0.0
H1210 H 0.4837 0.20293 0.27054 0.0
H1211 H 0.52524 0.15905 0.29027 0.0
C1212 C 0.43786 0.31491 0.23912 0.0
C1213 C 0.44279 0.32437 0.22335 0.0
C1214 C 0.46201 0.28999 0.25064 0.0
C1215 C 0.49144 0.27328 0.24657 0.0
C1216 C 0.49595 0.28212 0.23069 0.0
C1217 C 0.47211 0.30757 0.2193 0.0
C1218 C 0.57443 0.22783 0.26978 0.0
C1219 C 0.56595 0.19298 0.28136 0.0
C1220 C 0.55037 0.25435 0.25865 0.0
C1221 C 0.5172 0.24616 0.25868 0.0
C1222 C 0.50885 0.21112 0.27025 0.0
C1223 C 0.53284 0.18528 0.28149 0.0
H1224 H 0.41261 0.7849 0.73454 0.0
H1225 H 0.48972 0.85399 0.7141 0.0
H1226 H 0.45277 0.73561 0.75402 0.0
H1227 H 0.52958 0.80768 0.73398 0.0
H1228 H 0.59464 0.68208 0.76241 0.0
H1229 H 0.55332 0.72513 0.74192 0.0
H1230 H 0.49283 0.74603 0.77741 0.0
H1231 H 0.53322 0.70095 0.79749 0.0
C1232 C 0.43807 0.79012 0.73431 0.0
C1233 C 0.4478 0.82388 0.7228 0.0
C1234 C 0.4612 0.76205 0.74554 0.0
C1235 C 0.49463 0.76757 0.74567 0.0
C1236 C 0.50419 0.80143 0.73415 0.0
C1237 C 0.48115 0.82873 0.72281 0.0
C1238 C 0.57248 0.69588 0.76579 0.0
C1239 C 0.56727 0.68799 0.78157 0.0
C1240 C 0.54877 0.72082 0.75407 0.0
C1241 C 0.51952 0.73924 0.75794 0.0
C1242 C 0.51458 0.73151 0.7738 0.0
C1243 C 0.53799 0.70595 0.7854 0.0
H1244 H 0.4863 0.44658 0.54106 0.0
H1245 H 0.40664 0.48724 0.50205 0.0
H1246 H 0.52454 0.48186 0.5256 0.0
H1247 H 0.44516 0.52127 0.48628 0.0
H1248 H 0.52113 0.62606 0.46922 0.0
H1249 H 0.48232 0.59198 0.48459 0.0
H1250 H 0.54812 0.46307 0.50283 0.0
H1251 H 0.58748 0.49832 0.48779 0.0
C1252 C 0.47689 0.46292 0.52913 0.0
C1253 C 0.44329 0.46398 0.5228 0.0
C1254 C 0.49894 0.48281 0.52018 0.0
C1255 C 0.48813 0.50411 0.50458 0.0
C1256 C 0.45445 0.50573 0.49831 0.0
C1257 C 0.4323 0.48606 0.50733 0.0
C1258 C 0.52739 0.59041 0.4765 0.0
C1259 C 0.55757 0.56507 0.4773 0.0
C1260 C 0.50495 0.57061 0.48526 0.0
C1261 C 0.51192 0.52469 0.49501 0.0
C1262 C 0.54203 0.49905 0.49568 0.0
C1263 C 0.5646 0.51907 0.48698 0.0
H1264 H 0.09009 0.70485 0.36064 0.0
H1265 H 0.16032 0.7828 0.33728 0.0
H1266 H 0.08851 0.78501 0.37738 0.0
H1267 H 0.15878 0.86163 0.35393 0.0
H1268 H 0.17738 0.96438 0.39952 0.0
H1269 H 0.17613 0.88338 0.38341 0.0
H1270 H 0.07145 0.88524 0.37377 0.0
H1271 H 0.07259 0.96718 0.39008 0.0
C1272 C 0.10533 0.7387 0.35914 0.0
C1273 C 0.12558 0.73693 0.34769 0.0
C1274 C 0.1042 0.78472 0.36862 0.0
C1275 C 0.12362 0.8295 0.367 0.0
C1276 C 0.14382 0.82757 0.35561 0.0
C1277 C 0.14468 0.78215 0.34604 0.0
C1278 C 0.15401 0.94775 0.394 0.0
C1279 C 0.12505 0.9725 0.39605 0.0
C1280 C 0.15333 0.90131 0.38471 0.0
C1281 C 0.12371 0.87797 0.3773 0.0
C1282 C 0.09465 0.90219 0.37944 0.0
C1283 C 0.0953 0.94929 0.38864 0.0
H1284 H 0.1698 0.20339 0.39374 0.0
H1285 H 0.10501 0.28697 0.41922 0.0
H1286 H 0.17126 0.28296 0.37668 0.0
H1287 H 0.10633 0.36486 0.40225 0.0
H1288 H 0.08318 0.46445 0.35618 0.0
H1289 H 0.08553 0.38371 0.37248 0.0
H1290 H 0.19003 0.38429 0.37987 0.0
H1291 H 0.1878 0.46607 0.3634 0.0
C1292 C 0.15579 0.23835 0.39567 0.0
C1293 C 0.13694 0.23825 0.40774 0.0
C1294 C 0.15683 0.28397 0.38599 0.0
C1295 C 0.1387 0.32993 0.38807 0.0
C1296 C 0.12019 0.32982 0.40021 0.0
C1297 C 0.11946 0.28488 0.40994 0.0
C1298 C 0.10675 0.44759 0.36123 0.0
C1299 C 0.13533 0.47201 0.35855 0.0
C1300 C 0.10806 0.40129 0.37062 0.0
C1301 C 0.13795 0.37774 0.37747 0.0
C1302 C 0.16664 0.40146 0.37464 0.0
C1303 C 0.16536 0.44846 0.36535 0.0
H1304 H 0.0871 0.19599 0.86106 0.0
H1305 H 0.15788 0.27285 0.8378 0.0
H1306 H 0.08618 0.27605 0.87794 0.0
H1307 H 0.15689 0.35154 0.85453 0.0
H1308 H 0.17739 0.453 0.90022 0.0
H1309 H 0.17491 0.37248 0.88383 0.0
H1310 H 0.0703 0.37653 0.87512 0.0
H1311 H 0.07269 0.45795 0.89176 0.0
C1312 C 0.10255 0.2296 0.85958 0.0
C1313 C 0.12285 0.22745 0.84817 0.0
C1314 C 0.1018 0.27558 0.86916 0.0
C1315 C 0.12162 0.31997 0.86763 0.0
C1316 C 0.14167 0.31778 0.85617 0.0
C1317 C 0.14219 0.27241 0.84655 0.0
C1318 C 0.15376 0.43698 0.89484 0.0
C1319 C 0.12521 0.46222 0.89727 0.0
C1320 C 0.15238 0.3908 0.88539 0.0
C1321 C 0.12242 0.36818 0.87814 0.0
C1322 C 0.09375 0.39288 0.88065 0.0
C1323 C 0.09512 0.43971 0.89004 0.0
H1324 H 0.17406 0.6961 0.89659 0.0
H1325 H 0.0969 0.767 0.91666 0.0
H1326 H 0.17509 0.77638 0.87979 0.0
H1327 H 0.09814 0.84584 0.90014 0.0
H1328 H 0.08166 0.94972 0.85552 0.0
H1329 H 0.08377 0.86767 0.87109 0.0
H1330 H 0.18827 0.87733 0.88301 0.0
H1331 H 0.18628 0.96022 0.86709 0.0
C1332 C 0.15719 0.72835 0.89734 0.0
C1333 C 0.13516 0.72455 0.90788 0.0
C1334 C 0.15801 0.77448 0.88784 0.0
C1335 C 0.13657 0.81733 0.88858 0.0
C1336 C 0.11464 0.8133 0.89909 0.0
C1337 C 0.11399 0.7678 0.9086 0.0
C1338 C 0.10519 0.93466 0.86142 0.0
C1339 C 0.13381 0.96195 0.86012 0.0
C1340 C 0.10636 0.88752 0.8704 0.0
C1341 C 0.13616 0.86606 0.87834 0.0
C1342 C 0.16494 0.89274 0.87693 0.0
C1343 C 0.16378 0.94044 0.86795 0.0
H1344 H 0.92076 0.3099 0.64463 0.0
H1345 H 0.84789 0.23466 0.66682 0.0
H1346 H 0.92199 0.22985 0.62783 0.0
H1347 H 0.84913 0.15584 0.65011 0.0
H1348 H 0.83176 0.05265 0.60466 0.0
H1349 H 0.83304 0.13377 0.62073 0.0
H1350 H 0.93771 0.12971 0.63129 0.0
H1351 H 0.93655 0.04772 0.61503 0.0
C1352 C 0.90486 0.27667 0.64586 0.0
C1353 C 0.884 0.27916 0.65701 0.0
C1354 C 0.90579 0.23069 0.63634 0.0
C1355 C 0.88557 0.18664 0.63761 0.0
C1356 C 0.86472 0.18933 0.64869 0.0
C1357 C 0.86404 0.23473 0.6583 0.0
C1358 C 0.85514 0.06882 0.61038 0.0
C1359 C 0.88408 0.04341 0.6086 0.0
C1360 C 0.85583 0.11534 0.61964 0.0
C1361 C 0.88545 0.1381 0.62731 0.0
C1362 C 0.91451 0.11325 0.62543 0.0
C1363 C 0.91383 0.06611 0.61624 0.0
H1364 H 0.82553 0.54777 0.64023 0.0
H1365 H 0.93032 0.55226 0.65025 0.0
H1366 H 0.82427 0.62978 0.624 0.0
H1367 H 0.92894 0.63339 0.6342 0.0
H1368 H 0.91327 0.73381 0.58796 0.0
H1369 H 0.91219 0.65513 0.60472 0.0
H1370 H 0.84044 0.73009 0.62757 0.0
H1371 H 0.84156 0.81006 0.61073 0.0
C1372 C 0.84823 0.56606 0.63895 0.0
C1373 C 0.87801 0.54325 0.64648 0.0
C1374 C 0.84749 0.61322 0.62978 0.0
C1375 C 0.87652 0.63794 0.6278 0.0
C1376 C 0.90618 0.61506 0.63536 0.0
C1377 C 0.90692 0.56854 0.64462 0.0
C1378 C 0.89741 0.73413 0.59662 0.0
C1379 C 0.87774 0.77881 0.59806 0.0
C1380 C 0.89682 0.6888 0.60625 0.0
C1381 C 0.87632 0.68643 0.6175 0.0
C1382 C 0.85637 0.73071 0.61893 0.0
C1383 C 0.85723 0.77663 0.60938 0.0
H1384 H 0.86224 0.5882 0.0919 0.0
H1385 H 0.9249 0.50561 0.13118 0.0
H1386 H 0.86622 0.66948 0.10819 0.0
H1387 H 0.92874 0.58749 0.14758 0.0
H1388 H 0.88185 0.7148 0.17667 0.0
H1389 H 0.88778 0.63724 0.1601 0.0
H1390 H 0.90506 0.74125 0.12176 0.0
H1391 H 0.89927 0.81987 0.13852 0.0
C1392 C 0.87711 0.58747 0.10399 0.0
C1393 C 0.89302 0.54014 0.11031 0.0
C1394 C 0.87959 0.63432 0.11327 0.0
C1395 C 0.89772 0.63497 0.12918 0.0
C1396 C 0.9144 0.58811 0.13537 0.0
C1397 C 0.91229 0.54128 0.12598 0.0
C1398 C 0.8871 0.72147 0.16475 0.0
C1399 C 0.88979 0.77381 0.15888 0.0
C1400 C 0.89081 0.67678 0.15531 0.0
C1401 C 0.89696 0.68298 0.13963 0.0
C1402 C 0.9002 0.73521 0.13379 0.0
C1403 C 0.89696 0.7802 0.14338 0.0
H1404 H 0.91393 0.0426 0.14611 0.0
H1405 H 0.8125 0.0691 0.14631 0.0
H1406 H 0.91481 0.12251 0.12986 0.0
H1407 H 0.81329 0.14935 0.12955 0.0
H1408 H 0.84101 0.32087 0.11269 0.0
H1409 H 0.83691 0.24278 0.13 0.0
H1410 H 0.89302 0.1493 0.1023 0.0
H1411 H 0.8976 0.22586 0.08548 0.0
C1412 C 0.89168 0.06525 0.14261 0.0
C1413 C 0.86309 0.04903 0.14749 0.0
C1414 C 0.89217 0.11117 0.1332 0.0
C1415 C 0.86408 0.14233 0.12831 0.0
C1416 C 0.83542 0.12648 0.13322 0.0
C1417 C 0.83489 0.08018 0.14267 0.0
C1418 C 0.85254 0.28366 0.11038 0.0
C1419 C 0.86995 0.28021 0.09776 0.0
C1420 C 0.85 0.23883 0.12021 0.0
C1421 C 0.86495 0.18988 0.11765 0.0
C1422 C 0.88177 0.18652 0.10487 0.0
C1423 C 0.88427 0.23078 0.09513 0.0
H1424 H 0.62521 0.79255 0.8287 0.0
H1425 H 0.61454 0.68869 0.86836 0.0
H1426 H 0.62197 0.87071 0.84555 0.0
H1427 H 0.61166 0.76782 0.8854 0.0
H1428 H 0.65776 0.9235 0.91317 0.0
H1429 H 0.65273 0.84162 0.89703 0.0
H1430 H 0.58195 0.91869 0.85991 0.0
H1431 H 0.58667 1.00089 0.87618 0.0
C1432 C 0.62208 0.78632 0.84103 0.0
C1433 C 0.62037 0.73421 0.84722 0.0
C1434 C 0.61994 0.83128 0.85063 0.0
C1435 C 0.61649 0.82546 0.86677 0.0
C1436 C 0.61441 0.77346 0.87299 0.0
C1437 C 0.61597 0.72823 0.86324 0.0
C1438 C 0.64091 0.92298 0.90161 0.0
C1439 C 0.62279 0.96894 0.89589 0.0
C1440 C 0.63786 0.87585 0.89244 0.0
C1441 C 0.61698 0.87372 0.87721 0.0
C1442 C 0.59836 0.91928 0.87159 0.0
C1443 C 0.60101 0.96627 0.88091 0.0
H1444 H 0.60084 0.27612 0.91711 0.0
H1445 H 0.6719 0.19738 0.89446 0.0
H1446 H 0.60283 0.35446 0.90039 0.0
H1447 H 0.67388 0.27716 0.87759 0.0
H1448 H 0.69013 0.4594 0.86476 0.0
H1449 H 0.69085 0.37718 0.88088 0.0
H1450 H 0.58616 0.37645 0.8711 0.0
H1451 H 0.58532 0.45779 0.85522 0.0
C1452 C 0.61676 0.27516 0.90847 0.0
C1453 C 0.63596 0.22985 0.90706 0.0
C1454 C 0.61786 0.32034 0.89885 0.0
C1455 C 0.63838 0.32199 0.88761 0.0
C1456 C 0.65792 0.27711 0.88622 0.0
C1457 C 0.65656 0.2313 0.89578 0.0
C1458 C 0.66731 0.44169 0.86611 0.0
C1459 C 0.63768 0.46544 0.85875 0.0
C1460 C 0.66774 0.39439 0.87521 0.0
C1461 C 0.63856 0.37041 0.87728 0.0
C1462 C 0.60906 0.39417 0.86987 0.0
C1463 C 0.60862 0.44085 0.86071 0.0
H1464 H 0.64696 0.29184 0.33469 0.0
H1465 H 0.59219 0.19586 0.36256 0.0
H1466 H 0.64228 0.36844 0.35148 0.0
H1467 H 0.58803 0.27406 0.37985 0.0
H1468 H 0.56302 0.4477 0.39619 0.0
H1469 H 0.56378 0.36721 0.37949 0.0
H1470 H 0.66476 0.39582 0.37889 0.0
H1471 H 0.66389 0.47594 0.39506 0.0
C1472 C 0.63401 0.2867 0.34449 0.0
C1473 C 0.62023 0.23699 0.3473 0.0
C1474 C 0.63146 0.33102 0.35421 0.0
C1475 C 0.61514 0.32743 0.36716 0.0
C1476 C 0.60072 0.27818 0.36992 0.0
C1477 C 0.60331 0.2333 0.3601 0.0
C1478 C 0.58528 0.43696 0.39236 0.0
C1479 C 0.61333 0.46867 0.3969 0.0
C1480 C 0.58579 0.39052 0.38295 0.0
C1481 C 0.61429 0.37508 0.3778 0.0
C1482 C 0.64223 0.40681 0.38242 0.0
C1483 C 0.64175 0.45286 0.39178 0.0
H1484 H 0.65063 0.69738 0.3878 0.0
H1485 H 0.6366 0.80328 0.42643 0.0
H1486 H 0.65636 0.77566 0.37092 0.0
H1487 H 0.64238 0.8805 0.40974 0.0
H1488 H 0.67773 0.01142 0.38012 0.0
H1489 H 0.68218 0.92966 0.39656 0.0
H1490 H 0.6179 0.84776 0.35776 0.0
H1491 H 0.61338 0.92891 0.34142 0.0
C1492 C 0.64909 0.73715 0.39275 0.0
C1493 C 0.64285 0.7439 0.40842 0.0
C1494 C 0.65228 0.78195 0.38308 0.0
C1495 C 0.64987 0.83433 0.38901 0.0
C1496 C 0.64475 0.84085 0.40486 0.0
C1497 C 0.64112 0.79635 0.41438 0.0
C1498 C 0.66486 0.97579 0.37505 0.0
C1499 C 0.64495 0.97694 0.35954 0.0
C1500 C 0.66732 0.92902 0.38447 0.0
C1501 C 0.65032 0.88221 0.37847 0.0
C1502 C 0.63154 0.88286 0.36269 0.0
C1503 C 0.62875 0.92964 0.35339 0.0
H1504 H 0.35793 0.2304 0.1692 0.0
H1505 H 0.41886 0.3204 0.14306 0.0
H1506 H 0.36113 0.15328 0.15227 0.0
H1507 H 0.4219 0.24166 0.12583 0.0
H1508 H 0.44328 0.06296 0.11123 0.0
H1509 H 0.44354 0.14434 0.12769 0.0
H1510 H 0.33996 0.13038 0.12362 0.0
H1511 H 0.33962 0.0497 0.1075 0.0
C1512 C 0.37193 0.23408 0.15977 0.0
C1513 C 0.38784 0.28226 0.15743 0.0
C1514 C 0.37368 0.18955 0.15001 0.0
C1515 C 0.39151 0.1914 0.13761 0.0
C1516 C 0.40802 0.23903 0.13534 0.0
C1517 C 0.40607 0.28419 0.14512 0.0
C1518 C 0.42062 0.07722 0.11393 0.0
C1519 C 0.39147 0.0495 0.10812 0.0
C1520 C 0.42075 0.12408 0.12321 0.0
C1521 C 0.39179 0.1437 0.12699 0.0
C1522 C 0.36275 0.11604 0.12109 0.0
C1523 C 0.36257 0.06973 0.11179 0.0
H1524 H 0.33606 0.50966 0.12504 0.0
H1525 H 0.40203 0.59021 0.16356 0.0
H1526 H 0.33215 0.59151 0.10867 0.0
H1527 H 0.39789 0.67163 0.14729 0.0
H1528 H 0.36204 0.8228 0.11753 0.0
H1529 H 0.35794 0.74396 0.13444 0.0
H1530 H 0.37291 0.64059 0.09548 0.0
H1531 H 0.37724 0.71846 0.07874 0.0
C1532 C 0.34942 0.54489 0.13007 0.0
C1533 C 0.36957 0.54322 0.14553 0.0
C1534 C 0.34726 0.59168 0.1207 0.0
C1535 C 0.36476 0.63799 0.1267 0.0
C1536 C 0.38391 0.63683 0.14238 0.0
C1537 C 0.38646 0.58995 0.15164 0.0
C1538 C 0.36426 0.78323 0.11257 0.0
C1539 C 0.37023 0.77709 0.09682 0.0
C1540 C 0.36199 0.73814 0.12225 0.0
C1541 C 0.365 0.68607 0.11626 0.0
C1542 C 0.3701 0.68006 0.10039 0.0
C1543 C 0.37287 0.72489 0.09085 0.0
H1544 H 0.42596 0.81663 0.64526 0.0
H1545 H 0.35132 0.74111 0.66614 0.0
H1546 H 0.42796 0.73681 0.6284 0.0
H1547 H 0.35351 0.66261 0.64953 0.0
H1548 H 0.33729 0.55961 0.60453 0.0
H1549 H 0.33845 0.6407 0.62049 0.0
H1550 H 0.44313 0.63677 0.63124 0.0
H1551 H 0.44207 0.55483 0.61493 0.0
C1552 C 0.40987 0.78341 0.6462 0.0
C1553 C 0.38822 0.78583 0.65696 0.0
C1554 C 0.41124 0.73754 0.63665 0.0
C1555 C 0.39077 0.6935 0.63757 0.0
C1556 C 0.36927 0.69607 0.64834 0.0
C1557 C 0.36807 0.74136 0.6579 0.0
C1558 C 0.36066 0.57576 0.61024 0.0
C1559 C 0.38961 0.55037 0.60847 0.0
C1560 C 0.36129 0.62232 0.61947 0.0
C1561 C 0.39086 0.64513 0.62719 0.0
C1562 C 0.41995 0.62031 0.62533 0.0
C1563 C 0.41933 0.57316 0.61613 0.0
H1564 H 0.34068 0.31833 0.61065 0.0
H1565 H 0.40774 0.23525 0.58641 0.0
H1566 H 0.33899 0.23904 0.62786 0.0
H1567 H 0.40608 0.15784 0.60343 0.0
H1568 H 0.42848 0.05917 0.64933 0.0
H1569 H 0.42589 0.14021 0.6332 0.0
H1570 H 0.32132 0.13682 0.6249 0.0
H1571 H 0.32379 0.05475 0.64127 0.0
C1572 C 0.35512 0.28359 0.60902 0.0
C1573 C 0.37469 0.28378 0.59726 0.0
C1574 C 0.35395 0.23813 0.61878 0.0
C1575 C 0.37264 0.19246 0.61707 0.0
C1576 C 0.3918 0.19265 0.60522 0.0
C1577 C 0.39271 0.23738 0.59544 0.0
C1578 C 0.40484 0.07545 0.64412 0.0
C1579 C 0.37632 0.0501 0.64652 0.0
C1580 C 0.4034 0.12198 0.63484 0.0
C1581 C 0.37342 0.14481 0.62775 0.0
C1582 C 0.34477 0.12023 0.63032 0.0
C1583 C 0.3462 0.07303 0.63954 0.0
loop_
_geom_bond_atom_site_label_1
_geom_bond_atom_site_label_2
_geom_bond_distance
_geom_bond_site_symmetry_2
_ccdc_geom_bond_type
Co0 O2 2.143 . S
Co0 O8 2.074 . S
Co0 O11 2.093 . S
Co0 O24 2.097 . S
Co0 N41 2.151 . S
Co0 N49 2.214 . S
Co1 O2 2.160 . S
Co1 O7 2.058 . S
Co1 O17 2.057 . S
Co1 O32 2.037 . S
Co1 N36 2.145 . S
Co1 N57 2.257 . S
O2 Co0 2.143 . S
O2 Co1 2.160 . S
C3 O4 1.276 1_565 S
C3 O11 1.222 1_565 S
O4 C3 1.276 1_545 S
C5 O6 1.245 . S
C5 O17 1.232 . S
O6 C5 1.245 . S
O7 Co1 2.058 . S
O7 C33 1.269 . S
O8 Co0 2.074 . S
O8 C33 1.257 . S
H9 C34 0.930 . S
H10 C40 0.930 . S
O11 Co0 2.093 . S
O11 C3 1.222 1_545 S
H12 C44 0.929 . S
H13 C46 0.930 . S
H14 C47 0.930 . S
H15 C45 0.929 . S
H16 C48 0.928 . S
O17 Co1 2.057 . S
O17 C5 1.232 . S
H18 C37 0.929 . S
H19 C38 0.929 . S
H20 C50 0.931 . S
H21 C42 0.929 . S
H22 C51 0.930 . S
H23 C43 0.931 . S
O24 Co0 2.097 . S
O24 C52 1.214 . S
H25 C53 0.935 . S
H26 C54 0.929 . S
H27 C55 0.930 . S
H28 C56 0.929 . S
H29 C58 0.930 . S
H30 C35 0.930 . S
H31 C39 0.930 . S
O32 Co1 2.037 . S
O32 C52 1.234 . S
C33 O7 1.269 . S
C33 O8 1.257 . S
C34 H9 0.930 . S
C34 C37 1.388 . S
C34 C39 1.418 . S
C35 H30 0.930 . S
C35 C38 1.404 . S
C35 C39 1.353 . S
N36 Co1 2.145 . S
N36 C37 1.397 . S
N36 C38 1.334 . S
C37 H18 0.929 . S
C37 C34 1.388 . S
C37 N36 1.397 . S
C38 H19 0.929 . S
C38 C35 1.404 . S
C38 N36 1.334 . S
C39 H31 0.930 . S
C39 C34 1.418 . S
C39 C35 1.353 . S
C40 H10 0.930 . S
C40 N41 1.330 1_565 S
C40 C42 1.446 . S
N41 Co0 2.151 . S
N41 C40 1.330 1_545 S
N41 C45 1.418 . S
C42 H21 0.929 . S
C42 C40 1.446 . S
C42 C43 1.332 . S
C43 H23 0.931 . S
C43 C42 1.332 . S
C43 C44 1.267 . S
C44 H12 0.929 . S
C44 C43 1.267 . S
C44 C45 1.251 1_565 S
C45 H15 0.929 . S
C45 N41 1.418 . S
C45 C44 1.251 1_545 S
C46 H13 0.930 . S
C46 C48 1.406 . S
C46 C51 1.261 . S
C47 H14 0.930 . S
C47 N49 1.325 . S
C47 C50 1.357 . S
C48 H16 0.928 . S
C48 C46 1.406 . S
C48 N49 1.261 . S
N49 Co0 2.214 . S
N49 C47 1.325 . S
N49 C48 1.261 . S
C50 H20 0.931 . S
C50 C47 1.357 . S
C50 C51 1.312 . S
C51 H22 0.930 . S
C51 C46 1.261 . S
C51 C50 1.312 . S
C52 O24 1.214 . S
C52 O32 1.234 . S
C53 H25 0.935 . S
C53 C56 1.391 1_455 S
C53 C58 1.391 . S
C54 H26 0.929 . S
C54 C55 1.390 . S
C54 N57 1.391 . S
C55 H27 0.930 . S
C55 C54 1.390 . S
C55 C56 1.392 1_455 S
C56 H28 0.929 . S
C56 C53 1.391 1_655 S
C56 C55 1.392 1_655 S
N57 Co1 2.257 . S
N57 C54 1.391 . S
N57 C58 1.388 . S
C58 H29 0.930 . S
C58 C53 1.391 . S
C58 N57 1.388 . S
Co59 O61 2.143 . S
Co59 O67 2.074 . S
Co59 O70 2.093 . S
Co59 O83 2.097 . S
Co59 N100 2.151 . S
Co59 N108 2.214 . S
Co60 O61 2.160 . S
Co60 O66 2.058 . S
Co60 O76 2.057 . S
Co60 O91 2.037 . S
Co60 N95 2.145 . S
Co60 N116 2.257 . S
O61 Co59 2.143 . S
O61 Co60 2.160 . S
C62 O63 1.276 1_565 S
C62 O70 1.222 1_565 S
O63 C62 1.276 1_545 S
C64 O65 1.245 . S
C64 O76 1.232 . S
O65 C64 1.245 . S
O66 Co60 2.058 . S
O66 C92 1.269 . S
O67 Co59 2.074 . S
O67 C92 1.257 . S
H68 C93 0.930 . S
H69 C99 0.930 . S
O70 Co59 2.093 . S
O70 C62 1.222 1_545 S
H71 C103 0.929 1_655 S
H72 C105 0.930 . S
H73 C106 0.930 . S
H74 C104 0.929 . S
H75 C107 0.928 . S
O76 Co60 2.057 . S
O76 C64 1.232 . S
H77 C96 0.929 . S
H78 C97 0.929 . S
H79 C109 0.935 . S
H80 C101 0.929 . S
H81 C110 0.930 . S
H82 C102 0.931 . S
O83 Co59 2.097 . S
O83 C111 1.214 . S
H84 C112 0.929 . S
H85 C113 0.929 . S
H86 C114 0.930 . S
H87 C115 0.929 . S
H88 C117 0.930 . S
H89 C94 0.930 . S
H90 C98 0.930 . S
O91 Co60 2.037 . S
O91 C111 1.234 . S
C92 O66 1.269 . S
C92 O67 1.257 . S
C93 H68 0.930 . S
C93 C96 1.388 . S
C93 C98 1.418 . S
C94 H89 0.930 . S
C94 C97 1.404 . S
C94 C98 1.353 . S
N95 Co60 2.145 . S
N95 C96 1.397 . S
N95 C97 1.334 . S
C96 H77 0.929 . S
C96 C93 1.388 . S
C96 N95 1.397 . S
C97 H78 0.929 . S
C97 C94 1.404 . S
C97 N95 1.334 . S
C98 H90 0.930 . S
C98 C93 1.418 . S
C98 C94 1.353 . S
C99 H69 0.930 . S
C99 N100 1.330 1_565 S
C99 C101 1.446 . S
N100 Co59 2.151 . S
N100 C99 1.330 1_545 S
N100 C104 1.418 . S
C101 H80 0.929 . S
C101 C99 1.446 . S
C101 C102 1.332 . S
C102 H82 0.931 . S
C102 C101 1.332 . S
C102 C103 1.267 . S
C103 H71 0.929 1_455 S
C103 C102 1.267 . S
C103 C104 1.251 1_565 S
C104 H74 0.929 . S
C104 N100 1.418 . S
C104 C103 1.251 1_545 S
C105 H72 0.930 . S
C105 C107 1.406 1_655 S
C105 C110 1.261 . S
C106 H73 0.930 . S
C106 N108 1.325 . S
C106 C109 1.357 . S
C107 H75 0.928 . S
C107 C105 1.406 1_455 S
C107 N108 1.261 . S
N108 Co59 2.214 . S
N108 C106 1.325 . S
N108 C107 1.261 . S
C109 H79 0.935 . S
C109 C106 1.357 . S
C109 C110 1.312 1_455 S
C110 H81 0.930 . S
C110 C105 1.261 . S
C110 C109 1.312 1_655 S
C111 O83 1.214 . S
C111 O91 1.234 . S
C112 H84 0.929 . S
C112 C115 1.391 . S
C112 C117 1.391 . S
C113 H85 0.929 . S
C113 C114 1.390 . S
C113 N116 1.391 . S
C114 H86 0.930 . S
C114 C113 1.390 . S
C114 C115 1.392 . S
C115 H87 0.929 . S
C115 C112 1.391 . S
C115 C114 1.392 . S
N116 Co60 2.257 . S
N116 C113 1.391 . S
N116 C117 1.388 . S
C117 H88 0.930 . S
C117 C112 1.391 . S
C117 N116 1.388 . S
Co118 O120 2.143 . S
Co118 O126 2.074 . S
Co118 O129 2.093 . S
Co118 O142 2.097 . S
Co118 N159 2.151 . S
Co118 N167 2.214 . S
Co119 O120 2.160 . S
Co119 O125 2.058 . S
Co119 O135 2.057 . S
Co119 O150 2.037 . S
Co119 N154 2.145 . S
Co119 N175 2.257 . S
O120 Co118 2.143 . S
O120 Co119 2.160 . S
C121 O122 1.276 1_545 S
C121 O129 1.222 1_545 S
O122 C121 1.276 1_565 S
C123 O124 1.245 . S
C123 O135 1.232 . S
O124 C123 1.245 . S
O125 Co119 2.058 . S
O125 C151 1.269 . S
O126 Co118 2.074 . S
O126 C151 1.257 . S
H127 C152 0.930 . S
H128 C158 0.930 . S
O129 Co118 2.093 . S
O129 C121 1.222 1_565 S
H130 C162 0.929 . S
H131 C164 0.930 . S
H132 C165 0.930 . S
H133 C163 0.929 . S
H134 C166 0.928 . S
O135 Co119 2.057 . S
O135 C123 1.232 . S
H136 C155 0.929 . S
H137 C156 0.929 . S
H138 C168 0.931 . S
H139 C160 0.929 . S
H140 C169 0.930 . S
H141 C161 0.931 . S
O142 Co118 2.097 . S
O142 C170 1.214 . S
H143 C171 0.935 . S
H144 C172 0.929 . S
H145 C173 0.930 . S
H146 C174 0.929 . S
H147 C176 0.930 . S
H148 C153 0.930 . S
H149 C157 0.930 . S
O150 Co119 2.037 . S
O150 C170 1.234 . S
C151 O125 1.269 . S
C151 O126 1.257 . S
C152 H127 0.930 . S
C152 C155 1.388 . S
C152 C157 1.418 . S
C153 H148 0.930 . S
C153 C156 1.404 . S
C153 C157 1.353 . S
N154 Co119 2.145 . S
N154 C155 1.397 . S
N154 C156 1.334 . S
C155 H136 0.929 . S
C155 C152 1.388 . S
C155 N154 1.397 . S
C156 H137 0.929 . S
C156 C153 1.404 . S
C156 N154 1.334 . S
C157 H149 0.930 . S
C157 C152 1.418 . S
C157 C153 1.353 . S
C158 H128 0.930 . S
C158 N159 1.330 1_545 S
C158 C160 1.446 . S
N159 Co118 2.151 . S
N159 C158 1.330 1_565 S
N159 C163 1.418 . S
C160 H139 0.929 . S
C160 C158 1.446 . S
C160 C161 1.332 . S
C161 H141 0.931 . S
C161 C160 1.332 . S
C161 C162 1.267 . S
C162 H130 0.929 . S
C162 C161 1.267 . S
C162 C163 1.251 1_545 S
C163 H133 0.929 . S
C163 N159 1.418 . S
C163 C162 1.251 1_565 S
C164 H131 0.930 . S
C164 C166 1.406 . S
C164 C169 1.261 . S
C165 H132 0.930 . S
C165 N167 1.325 . S
C165 C168 1.357 . S
C166 H134 0.928 . S
C166 C164 1.406 . S
C166 N167 1.261 . S
N167 Co118 2.214 . S
N167 C165 1.325 . S
N167 C166 1.261 . S
C168 H138 0.931 . S
C168 C165 1.357 . S
C168 C169 1.312 . S
C169 H140 0.930 . S
C169 C164 1.261 . S
C169 C168 1.312 . S
C170 O142 1.214 . S
C170 O150 1.234 . S
C171 H143 0.935 . S
C171 C174 1.391 1_655 S
C171 C176 1.391 . S
C172 H144 0.929 . S
C172 C173 1.390 . S
C172 N175 1.391 . S
C173 H145 0.930 . S
C173 C172 1.390 . S
C173 C174 1.392 1_655 S
C174 H146 0.929 . S
C174 C171 1.391 1_455 S
C174 C173 1.392 1_455 S
N175 Co119 2.257 . S
N175 C172 1.391 . S
N175 C176 1.388 . S
C176 H147 0.930 . S
C176 C171 1.391 . S
C176 N175 1.388 . S
Co177 O179 2.143 . S
Co177 O185 2.074 . S
Co177 O188 2.093 . S
Co177 O201 2.097 . S
Co177 N218 2.151 . S
Co177 N226 2.214 . S
Co178 O179 2.160 . S
Co178 O184 2.058 . S
Co178 O194 2.057 . S
Co178 O209 2.037 . S
Co178 N213 2.145 . S
Co178 N234 2.257 . S
O179 Co177 2.143 . S
O179 Co178 2.160 . S
C180 O181 1.276 1_545 S
C180 O188 1.222 1_545 S
O181 C180 1.276 1_565 S
C182 O183 1.245 . S
C182 O194 1.232 . S
O183 C182 1.245 . S
O184 Co178 2.058 . S
O184 C210 1.269 . S
O185 Co177 2.074 . S
O185 C210 1.257 . S
H186 C211 0.930 . S
H187 C217 0.930 . S
O188 Co177 2.093 . S
O188 C180 1.222 1_565 S
H189 C221 0.929 1_455 S
H190 C223 0.930 . S
H191 C224 0.930 . S
H192 C222 0.929 . S
H193 C225 0.928 . S
O194 Co178 2.057 . S
O194 C182 1.232 . S
H195 C214 0.929 . S
H196 C215 0.929 . S
H197 C227 0.935 . S
H198 C219 0.929 . S
H199 C228 0.930 . S
H200 C220 0.931 . S
O201 Co177 2.097 . S
O201 C229 1.214 . S
H202 C230 0.929 . S
H203 C231 0.929 . S
H204 C232 0.930 . S
H205 C233 0.929 . S
H206 C235 0.930 . S
H207 C212 0.930 . S
H208 C216 0.930 . S
O209 Co178 2.037 . S
O209 C229 1.234 . S
C210 O184 1.269 . S
C210 O185 1.257 . S
C211 H186 0.930 . S
C211 C214 1.388 . S
C211 C216 1.418 . S
C212 H207 0.930 . S
C212 C215 1.404 . S
C212 C216 1.353 . S
N213 Co178 2.145 . S
N213 C214 1.397 . S
N213 C215 1.334 . S
C214 H195 0.929 . S
C214 C211 1.388 . S
C214 N213 1.397 . S
C215 H196 0.929 . S
C215 C212 1.404 . S
C215 N213 1.334 . S
C216 H208 0.930 . S
C216 C211 1.418 . S
C216 C212 1.353 . S
C217 H187 0.930 . S
C217 N218 1.330 1_545 S
C217 C219 1.446 . S
N218 Co177 2.151 . S
N218 C217 1.330 1_565 S
N218 C222 1.418 . S
C219 H198 0.929 . S
C219 C217 1.446 . S
C219 C220 1.332 . S
C220 H200 0.931 . S
C220 C219 1.332 . S
C220 C221 1.267 . S
C221 H189 0.929 1_655 S
C221 C220 1.267 . S
C221 C222 1.251 1_545 S
C222 H192 0.929 . S
C222 N218 1.418 . S
C222 C221 1.251 1_565 S
C223 H190 0.930 . S
C223 C225 1.406 1_455 S
C223 C228 1.261 . S
C224 H191 0.930 . S
C224 N226 1.325 . S
C224 C227 1.357 . S
C225 H193 0.928 . S
C225 C223 1.406 1_655 S
C225 N226 1.261 . S
N226 Co177 2.214 . S
N226 C224 1.325 . S
N226 C225 1.261 . S
C227 H197 0.935 . S
C227 C224 1.357 . S
C227 C228 1.312 1_655 S
C228 H199 0.930 . S
C228 C223 1.261 . S
C228 C227 1.312 1_455 S
C229 O201 1.214 . S
C229 O209 1.234 . S
C230 H202 0.929 . S
C230 C233 1.391 . S
C230 C235 1.391 . S
C231 H203 0.929 . S
C231 C232 1.390 . S
C231 N234 1.391 . S
C232 H204 0.930 . S
C232 C231 1.390 . S
C232 C233 1.392 . S
C233 H205 0.929 . S
C233 C230 1.391 . S
C233 C232 1.392 . S
N234 Co178 2.257 . S
N234 C231 1.391 . S
N234 C235 1.388 . S
C235 H206 0.930 . S
C235 C230 1.391 . S
C235 N234 1.388 . S
Co236 O238 2.143 . S
Co236 O244 2.074 . S
Co236 O247 2.093 . S
Co236 O260 2.097 . S
Co236 N277 2.151 . S
Co236 N285 2.214 . S
Co237 O238 2.160 . S
Co237 O243 2.058 . S
Co237 O253 2.057 . S
Co237 O268 2.037 . S
Co237 N272 2.145 . S
Co237 N293 2.257 . S
O238 Co236 2.143 . S
O238 Co237 2.160 . S
C239 O240 1.278 . S
C239 O247 1.224 . S
O240 C239 1.278 . S
C241 O242 1.245 . S
C241 O253 1.232 . S
O242 C241 1.245 . S
O243 Co237 2.058 . S
O243 C269 1.269 . S
O244 Co236 2.074 . S
O244 C269 1.257 . S
H245 C270 0.930 . S
H246 C276 0.930 . S
O247 Co236 2.093 . S
O247 C239 1.224 . S
H248 C280 0.929 . S
H249 C282 0.930 . S
H250 C283 0.930 . S
H251 C281 0.929 . S
H252 C284 0.928 . S
O253 Co237 2.057 . S
O253 C241 1.232 . S
H254 C273 0.929 . S
H255 C274 0.929 . S
H256 C286 0.931 . S
H257 C278 0.929 . S
H258 C287 0.930 . S
H259 C279 0.931 . S
O260 Co236 2.097 . S
O260 C288 1.214 . S
H261 C289 0.934 . S
H262 C290 0.929 . S
H263 C291 0.930 . S
H264 C292 0.929 . S
H265 C294 0.930 . S
H266 C271 0.930 . S
H267 C275 0.930 . S
O268 Co237 2.037 . S
O268 C288 1.234 . S
C269 O243 1.269 . S
C269 O244 1.257 . S
C270 H245 0.930 . S
C270 C273 1.388 . S
C270 C275 1.418 . S
C271 H266 0.930 . S
C271 C274 1.404 . S
C271 C275 1.353 . S
N272 Co237 2.145 . S
N272 C273 1.397 . S
N272 C274 1.334 . S
C273 H254 0.929 . S
C273 C270 1.388 . S
C273 N272 1.397 . S
C274 H255 0.929 . S
C274 C271 1.404 . S
C274 N272 1.334 . S
C275 H267 0.930 . S
C275 C270 1.418 . S
C275 C271 1.353 . S
C276 H246 0.930 . S
C276 N277 1.330 . S
C276 C278 1.446 . S
N277 Co236 2.151 . S
N277 C276 1.330 . S
N277 C281 1.418 . S
C278 H257 0.929 . S
C278 C276 1.446 . S
C278 C279 1.332 . S
C279 H259 0.931 . S
C279 C278 1.332 . S
C279 C280 1.267 . S
C280 H248 0.929 . S
C280 C279 1.267 . S
C280 C281 1.251 . S
C281 H251 0.929 . S
C281 N277 1.418 . S
C281 C280 1.251 . S
C282 H249 0.930 . S
C282 C284 1.406 . S
C282 C287 1.261 . S
C283 H250 0.930 . S
C283 N285 1.325 . S
C283 C286 1.357 . S
C284 H252 0.928 . S
C284 C282 1.406 . S
C284 N285 1.261 . S
N285 Co236 2.214 . S
N285 C283 1.325 . S
N285 C284 1.261 . S
C286 H256 0.931 . S
C286 C283 1.357 . S
C286 C287 1.312 . S
C287 H258 0.930 . S
C287 C282 1.261 . S
C287 C286 1.312 . S
C288 O260 1.214 . S
C288 O268 1.234 . S
C289 H261 0.934 . S
C289 C292 1.391 1_455 S
C289 C294 1.391 . S
C290 H262 0.929 . S
C290 C291 1.390 . S
C290 N293 1.391 . S
C291 H263 0.930 . S
C291 C290 1.390 . S
C291 C292 1.392 1_455 S
C292 H264 0.929 . S
C292 C289 1.391 1_655 S
C292 C291 1.392 1_655 S
N293 Co237 2.257 . S
N293 C290 1.391 . S
N293 C294 1.388 . S
C294 H265 0.930 . S
C294 C289 1.391 . S
C294 N293 1.388 . S
Co295 O297 2.143 . S
Co295 O303 2.074 . S
Co295 O306 2.093 . S
Co295 O319 2.097 . S
Co295 N336 2.151 . S
Co295 N344 2.214 . S
Co296 O297 2.160 . S
Co296 O302 2.058 . S
Co296 O312 2.057 . S
Co296 O327 2.037 . S
Co296 N331 2.145 . S
Co296 N352 2.257 . S
O297 Co295 2.143 . S
O297 Co296 2.160 . S
C298 O299 1.278 . S
C298 O306 1.224 . S
O299 C298 1.278 . S
C300 O301 1.245 . S
C300 O312 1.232 . S
O301 C300 1.245 . S
O302 Co296 2.058 . S
O302 C328 1.269 . S
O303 Co295 2.074 . S
O303 C328 1.257 . S
H304 C329 0.930 . S
H305 C335 0.930 . S
O306 Co295 2.093 . S
O306 C298 1.224 . S
H307 C339 0.929 1_655 S
H308 C341 0.930 . S
H309 C342 0.930 . S
H310 C340 0.929 . S
H311 C343 0.928 . S
O312 Co296 2.057 . S
O312 C300 1.232 . S
H313 C332 0.929 . S
H314 C333 0.929 . S
H315 C345 0.935 . S
H316 C337 0.929 . S
H317 C346 0.930 . S
H318 C338 0.931 . S
O319 Co295 2.097 . S
O319 C347 1.214 . S
H320 C348 0.929 . S
H321 C349 0.929 . S
H322 C350 0.930 . S
H323 C351 0.929 . S
H324 C353 0.930 . S
H325 C330 0.930 . S
H326 C334 0.930 . S
O327 Co296 2.037 . S
O327 C347 1.234 . S
C328 O302 1.269 . S
C328 O303 1.257 . S
C329 H304 0.930 . S
C329 C332 1.388 . S
C329 C334 1.418 . S
C330 H325 0.930 . S
C330 C333 1.404 . S
C330 C334 1.353 . S
N331 Co296 2.145 . S
N331 C332 1.397 . S
N331 C333 1.334 . S
C332 H313 0.929 . S
C332 C329 1.388 . S
C332 N331 1.397 . S
C333 H314 0.929 . S
C333 C330 1.404 . S
C333 N331 1.334 . S
C334 H326 0.930 . S
C334 C329 1.418 . S
C334 C330 1.353 . S
C335 H305 0.930 . S
C335 N336 1.330 . S
C335 C337 1.446 . S
N336 Co295 2.151 . S
N336 C335 1.330 . S
N336 C340 1.418 . S
C337 H316 0.929 . S
C337 C335 1.446 . S
C337 C338 1.332 . S
C338 H318 0.931 . S
C338 C337 1.332 . S
C338 C339 1.267 . S
C339 H307 0.929 1_455 S
C339 C338 1.267 . S
C339 C340 1.251 . S
C340 H310 0.929 . S
C340 N336 1.418 . S
C340 C339 1.251 . S
C341 H308 0.930 . S
C341 C343 1.406 1_655 S
C341 C346 1.261 . S
C342 H309 0.930 . S
C342 N344 1.325 . S
C342 C345 1.357 . S
C343 H311 0.928 . S
C343 C341 1.406 1_455 S
C343 N344 1.261 . S
N344 Co295 2.214 . S
N344 C342 1.325 . S
N344 C343 1.261 . S
C345 H315 0.935 . S
C345 C342 1.357 . S
C345 C346 1.312 1_455 S
C346 H317 0.930 . S
C346 C341 1.261 . S
C346 C345 1.312 1_655 S
C347 O319 1.214 . S
C347 O327 1.234 . S
C348 H320 0.929 . S
C348 C351 1.391 . S
C348 C353 1.391 . S
C349 H321 0.929 . S
C349 C350 1.390 . S
C349 N352 1.391 . S
C350 H322 0.930 . S
C350 C349 1.390 . S
C350 C351 1.392 . S
C351 H323 0.929 . S
C351 C348 1.391 . S
C351 C350 1.392 . S
N352 Co296 2.257 . S
N352 C349 1.391 . S
N352 C353 1.388 . S
C353 H324 0.930 . S
C353 C348 1.391 . S
C353 N352 1.388 . S
Co354 O356 2.143 . S
Co354 O362 2.074 . S
Co354 O365 2.093 . S
Co354 O378 2.097 . S
Co354 N395 2.151 . S
Co354 N403 2.214 . S
Co355 O356 2.160 . S
Co355 O361 2.058 . S
Co355 O371 2.057 . S
Co355 O386 2.037 . S
Co355 N390 2.145 . S
Co355 N411 2.257 . S
O356 Co354 2.143 . S
O356 Co355 2.160 . S
C357 O358 1.278 . S
C357 O365 1.224 . S
O358 C357 1.278 . S
C359 O360 1.245 . S
C359 O371 1.232 . S
O360 C359 1.245 . S
O361 Co355 2.058 . S
O361 C387 1.269 . S
O362 Co354 2.074 . S
O362 C387 1.257 . S
H363 C388 0.930 . S
H364 C394 0.930 . S
O365 Co354 2.093 . S
O365 C357 1.224 . S
H366 C398 0.929 . S
H367 C400 0.930 . S
H368 C401 0.930 . S
H369 C399 0.929 . S
H370 C402 0.928 . S
O371 Co355 2.057 . S
O371 C359 1.232 . S
H372 C391 0.929 . S
H373 C392 0.929 . S
H374 C404 0.931 . S
H375 C396 0.929 . S
H376 C405 0.930 . S
H377 C397 0.931 . S
O378 Co354 2.097 . S
O378 C406 1.214 . S
H379 C407 0.934 . S
H380 C408 0.929 . S
H381 C409 0.930 . S
H382 C410 0.929 . S
H383 C412 0.930 . S
H384 C389 0.930 . S
H385 C393 0.930 . S
O386 Co355 2.037 . S
O386 C406 1.234 . S
C387 O361 1.269 . S
C387 O362 1.257 . S
C388 H363 0.930 . S
C388 C391 1.388 . S
C388 C393 1.418 . S
C389 H384 0.930 . S
C389 C392 1.404 . S
C389 C393 1.353 . S
N390 Co355 2.145 . S
N390 C391 1.397 . S
N390 C392 1.334 . S
C391 H372 0.929 . S
C391 C388 1.388 . S
C391 N390 1.397 . S
C392 H373 0.929 . S
C392 C389 1.404 . S
C392 N390 1.334 . S
C393 H385 0.930 . S
C393 C388 1.418 . S
C393 C389 1.353 . S
C394 H364 0.930 . S
C394 N395 1.330 . S
C394 C396 1.446 . S
N395 Co354 2.151 . S
N395 C394 1.330 . S
N395 C399 1.418 . S
C396 H375 0.929 . S
C396 C394 1.446 . S
C396 C397 1.332 . S
C397 H377 0.931 . S
C397 C396 1.332 . S
C397 C398 1.267 . S
C398 H366 0.929 . S
C398 C397 1.267 . S
C398 C399 1.251 . S
C399 H369 0.929 . S
C399 N395 1.418 . S
C399 C398 1.251 . S
C400 H367 0.930 . S
C400 C402 1.406 . S
C400 C405 1.261 . S
C401 H368 0.930 . S
C401 N403 1.325 . S
C401 C404 1.357 . S
C402 H370 0.928 . S
C402 C400 1.406 . S
C402 N403 1.261 . S
N403 Co354 2.214 . S
N403 C401 1.325 . S
N403 C402 1.261 . S
C404 H374 0.931 . S
C404 C401 1.357 . S
C404 C405 1.312 . S
C405 H376 0.930 . S
C405 C400 1.261 . S
C405 C404 1.312 . S
C406 O378 1.214 . S
C406 O386 1.234 . S
C407 H379 0.934 . S
C407 C410 1.391 1_655 S
C407 C412 1.391 . S
C408 H380 0.929 . S
C408 C409 1.390 . S
C408 N411 1.391 . S
C409 H381 0.930 . S
C409 C408 1.390 . S
C409 C410 1.392 1_655 S
C410 H382 0.929 . S
C410 C407 1.391 1_455 S
C410 C409 1.392 1_455 S
N411 Co355 2.257 . S
N411 C408 1.391 . S
N411 C412 1.388 . S
C412 H383 0.930 . S
C412 C407 1.391 . S
C412 N411 1.388 . S
Co413 O415 2.143 . S
Co413 O421 2.074 . S
Co413 O424 2.093 . S
Co413 O437 2.097 . S
Co413 N454 2.151 . S
Co413 N462 2.214 . S
Co414 O415 2.160 . S
Co414 O420 2.058 . S
Co414 O430 2.057 . S
Co414 O445 2.037 . S
Co414 N449 2.145 . S
Co414 N470 2.257 . S
O415 Co413 2.143 . S
O415 Co414 2.160 . S
C416 O417 1.278 . S
C416 O424 1.224 . S
O417 C416 1.278 . S
C418 O419 1.245 . S
C418 O430 1.232 . S
O419 C418 1.245 . S
O420 Co414 2.058 . S
O420 C446 1.269 . S
O421 Co413 2.074 . S
O421 C446 1.257 . S
H422 C447 0.930 . S
H423 C453 0.930 . S
O424 Co413 2.093 . S
O424 C416 1.224 . S
H425 C457 0.929 1_455 S
H426 C459 0.930 . S
H427 C460 0.930 . S
H428 C458 0.929 . S
H429 C461 0.928 . S
O430 Co414 2.057 . S
O430 C418 1.232 . S
H431 C450 0.929 . S
H432 C451 0.929 . S
H433 C463 0.935 . S
H434 C455 0.929 . S
H435 C464 0.930 . S
H436 C456 0.931 . S
O437 Co413 2.097 . S
O437 C465 1.214 . S
H438 C466 0.929 . S
H439 C467 0.929 . S
H440 C468 0.930 . S
H441 C469 0.929 . S
H442 C471 0.930 . S
H443 C448 0.930 . S
H444 C452 0.930 . S
O445 Co414 2.037 . S
O445 C465 1.234 . S
C446 O420 1.269 . S
C446 O421 1.257 . S
C447 H422 0.930 . S
C447 C450 1.388 . S
C447 C452 1.418 . S
C448 H443 0.930 . S
C448 C451 1.404 . S
C448 C452 1.353 . S
N449 Co414 2.145 . S
N449 C450 1.397 . S
N449 C451 1.334 . S
C450 H431 0.929 . S
C450 C447 1.388 . S
C450 N449 1.397 . S
C451 H432 0.929 . S
C451 C448 1.404 . S
C451 N449 1.334 . S
C452 H444 0.930 . S
C452 C447 1.418 . S
C452 C448 1.353 . S
C453 H423 0.930 . S
C453 N454 1.330 . S
C453 C455 1.446 . S
N454 Co413 2.151 . S
N454 C453 1.330 . S
N454 C458 1.418 . S
C455 H434 0.929 . S
C455 C453 1.446 . S
C455 C456 1.332 . S
C456 H436 0.931 . S
C456 C455 1.332 . S
C456 C457 1.267 . S
C457 H425 0.929 1_655 S
C457 C456 1.267 . S
C457 C458 1.251 . S
C458 H428 0.929 . S
C458 N454 1.418 . S
C458 C457 1.251 . S
C459 H426 0.930 . S
C459 C461 1.406 1_455 S
C459 C464 1.261 . S
C460 H427 0.930 . S
C460 N462 1.325 . S
C460 C463 1.357 . S
C461 H429 0.928 . S
C461 C459 1.406 1_655 S
C461 N462 1.261 . S
N462 Co413 2.214 . S
N462 C460 1.325 . S
N462 C461 1.261 . S
C463 H433 0.935 . S
C463 C460 1.357 . S
C463 C464 1.312 1_655 S
C464 H435 0.930 . S
C464 C459 1.261 . S
C464 C463 1.312 1_455 S
C465 O437 1.214 . S
C465 O445 1.234 . S
C466 H438 0.929 . S
C466 C469 1.391 . S
C466 C471 1.391 . S
C467 H439 0.929 . S
C467 C468 1.390 . S
C467 N470 1.391 . S
C468 H440 0.930 . S
C468 C467 1.390 . S
C468 C469 1.392 . S
C469 H441 0.929 . S
C469 C466 1.391 . S
C469 C468 1.392 . S
N470 Co414 2.257 . S
N470 C467 1.391 . S
N470 C471 1.388 . S
C471 H442 0.930 . S
C471 C466 1.391 . S
C471 N470 1.388 . S
Co472 O474 2.143 . S
Co472 O480 2.074 . S
Co472 O483 2.093 . S
Co472 O496 2.097 . S
Co472 N513 2.151 . S
Co472 N521 2.214 . S
Co473 O474 2.160 . S
Co473 O479 2.058 . S
Co473 O489 2.057 . S
Co473 O504 2.037 . S
Co473 N508 2.145 . S
Co473 N529 2.257 . S
O474 Co472 2.143 . S
O474 Co473 2.160 . S
C475 O476 1.276 1_565 S
C475 O483 1.222 1_565 S
O476 C475 1.276 1_545 S
C477 O478 1.245 . S
C477 O489 1.232 . S
O478 C477 1.245 . S
O479 Co473 2.058 . S
O479 C505 1.269 . S
O480 Co472 2.074 . S
O480 C505 1.257 . S
H481 C506 0.930 . S
H482 C512 0.930 . S
O483 Co472 2.093 . S
O483 C475 1.222 1_545 S
H484 C516 0.929 . S
H485 C518 0.930 . S
H486 C519 0.930 . S
H487 C517 0.929 . S
H488 C520 0.928 . S
O489 Co473 2.057 . S
O489 C477 1.232 . S
H490 C509 0.929 . S
H491 C510 0.929 . S
H492 C522 0.931 . S
H493 C514 0.929 . S
H494 C523 0.930 . S
H495 C515 0.931 . S
O496 Co472 2.097 . S
O496 C524 1.214 . S
H497 C525 0.929 . S
H498 C526 0.929 . S
H499 C527 0.930 . S
H500 C528 0.929 . S
H501 C530 0.930 . S
H502 C507 0.930 . S
H503 C511 0.930 . S
O504 Co473 2.037 . S
O504 C524 1.234 . S
C505 O479 1.269 . S
C505 O480 1.257 . S
C506 H481 0.930 . S
C506 C509 1.388 . S
C506 C511 1.418 . S
C507 H502 0.930 . S
C507 C510 1.404 . S
C507 C511 1.353 . S
N508 Co473 2.145 . S
N508 C509 1.397 . S
N508 C510 1.334 . S
C509 H490 0.929 . S
C509 C506 1.388 . S
C509 N508 1.397 . S
C510 H491 0.929 . S
C510 C507 1.404 . S
C510 N508 1.334 . S
C511 H503 0.930 . S
C511 C506 1.418 . S
C511 C507 1.353 . S
C512 H482 0.930 . S
C512 N513 1.330 1_565 S
C512 C514 1.446 . S
N513 Co472 2.151 . S
N513 C512 1.330 1_545 S
N513 C517 1.418 . S
C514 H493 0.929 . S
C514 C512 1.446 . S
C514 C515 1.332 . S
C515 H495 0.931 . S
C515 C514 1.332 . S
C515 C516 1.267 . S
C516 H484 0.929 . S
C516 C515 1.267 . S
C516 C517 1.251 1_565 S
C517 H487 0.929 . S
C517 N513 1.418 . S
C517 C516 1.251 1_545 S
C518 H485 0.930 . S
C518 C520 1.406 . S
C518 C523 1.261 . S
C519 H486 0.930 . S
C519 N521 1.325 . S
C519 C522 1.357 . S
C520 H488 0.928 . S
C520 C518 1.406 . S
C520 N521 1.261 . S
N521 Co472 2.214 . S
N521 C519 1.325 . S
N521 C520 1.261 . S
C522 H492 0.931 . S
C522 C519 1.357 . S
C522 C523 1.312 . S
C523 H494 0.930 . S
C523 C518 1.261 . S
C523 C522 1.312 . S
C524 O496 1.214 . S
C524 O504 1.234 . S
C525 H497 0.929 . S
C525 C528 1.391 . S
C525 C530 1.391 . S
C526 H498 0.929 . S
C526 C527 1.390 . S
C526 N529 1.391 . S
C527 H499 0.930 . S
C527 C526 1.390 . S
C527 C528 1.392 . S
C528 H500 0.929 . S
C528 C525 1.391 . S
C528 C527 1.392 . S
N529 Co473 2.257 . S
N529 C526 1.391 . S
N529 C530 1.388 . S
C530 H501 0.930 . S
C530 C525 1.391 . S
C530 N529 1.388 . S
Co531 O533 2.143 . S
Co531 O539 2.074 . S
Co531 O542 2.093 . S
Co531 O555 2.097 . S
Co531 N572 2.151 . S
Co531 N580 2.214 . S
Co532 O533 2.160 . S
Co532 O538 2.058 . S
Co532 O548 2.057 . S
Co532 O563 2.037 . S
Co532 N567 2.145 . S
Co532 N588 2.257 . S
O533 Co531 2.143 . S
O533 Co532 2.160 . S
C534 O535 1.276 1_565 S
C534 O542 1.222 1_565 S
O535 C534 1.276 1_545 S
C536 O537 1.245 . S
C536 O548 1.232 . S
O537 C536 1.245 . S
O538 Co532 2.058 . S
O538 C564 1.269 . S
O539 Co531 2.074 . S
O539 C564 1.257 . S
H540 C565 0.930 . S
H541 C571 0.930 . S
O542 Co531 2.093 . S
O542 C534 1.222 1_545 S
H543 C575 0.929 . S
H544 C577 0.930 . S
H545 C578 0.930 . S
H546 C576 0.929 . S
H547 C579 0.928 . S
O548 Co532 2.057 . S
O548 C536 1.232 . S
H549 C568 0.929 . S
H550 C569 0.929 . S
H551 C581 0.931 . S
H552 C573 0.929 . S
H553 C582 0.930 . S
H554 C574 0.931 . S
O555 Co531 2.097 . S
O555 C583 1.214 . S
H556 C584 0.929 . S
H557 C585 0.929 . S
H558 C586 0.930 . S
H559 C587 0.929 . S
H560 C589 0.930 . S
H561 C566 0.930 . S
H562 C570 0.930 . S
O563 Co532 2.037 . S
O563 C583 1.234 . S
C564 O538 1.269 . S
C564 O539 1.257 . S
C565 H540 0.930 . S
C565 C568 1.388 . S
C565 C570 1.418 . S
C566 H561 0.930 . S
C566 C569 1.404 . S
C566 C570 1.353 . S
N567 Co532 2.145 . S
N567 C568 1.397 . S
N567 C569 1.334 . S
C568 H549 0.929 . S
C568 C565 1.388 . S
C568 N567 1.397 . S
C569 H550 0.929 . S
C569 C566 1.404 . S
C569 N567 1.334 . S
C570 H562 0.930 . S
C570 C565 1.418 . S
C570 C566 1.353 . S
C571 H541 0.930 . S
C571 N572 1.330 1_565 S
C571 C573 1.446 . S
N572 Co531 2.151 . S
N572 C571 1.330 1_545 S
N572 C576 1.418 . S
C573 H552 0.929 . S
C573 C571 1.446 . S
C573 C574 1.332 . S
C574 H554 0.931 . S
C574 C573 1.332 . S
C574 C575 1.267 . S
C575 H543 0.929 . S
C575 C574 1.267 . S
C575 C576 1.251 1_565 S
C576 H546 0.929 . S
C576 N572 1.418 . S
C576 C575 1.251 1_545 S
C577 H544 0.930 . S
C577 C579 1.406 . S
C577 C582 1.261 . S
C578 H545 0.930 . S
C578 N580 1.325 . S
C578 C581 1.357 . S
C579 H547 0.928 . S
C579 C577 1.406 . S
C579 N580 1.261 . S
N580 Co531 2.214 . S
N580 C578 1.325 . S
N580 C579 1.261 . S
C581 H551 0.931 . S
C581 C578 1.357 . S
C581 C582 1.312 . S
C582 H553 0.930 . S
C582 C577 1.261 . S
C582 C581 1.312 . S
C583 O555 1.214 . S
C583 O563 1.234 . S
C584 H556 0.929 . S
C584 C587 1.391 . S
C584 C589 1.391 . S
C585 H557 0.929 . S
C585 C586 1.390 . S
C585 N588 1.391 . S
C586 H558 0.930 . S
C586 C585 1.390 . S
C586 C587 1.392 . S
C587 H559 0.929 . S
C587 C584 1.391 . S
C587 C586 1.392 . S
N588 Co532 2.257 . S
N588 C585 1.391 . S
N588 C589 1.388 . S
C589 H560 0.930 . S
C589 C584 1.391 . S
C589 N588 1.388 . S
Co590 O592 2.143 . S
Co590 O598 2.074 . S
Co590 O601 2.093 . S
Co590 O614 2.097 . S
Co590 N631 2.151 . S
Co590 N639 2.214 . S
Co591 O592 2.160 . S
Co591 O597 2.058 . S
Co591 O607 2.057 . S
Co591 O622 2.037 . S
Co591 N626 2.145 . S
Co591 N647 2.257 . S
O592 Co590 2.143 . S
O592 Co591 2.160 . S
C593 O594 1.276 1_545 S
C593 O601 1.222 1_545 S
O594 C593 1.276 1_565 S
C595 O596 1.245 . S
C595 O607 1.232 . S
O596 C595 1.245 . S
O597 Co591 2.058 . S
O597 C623 1.269 . S
O598 Co590 2.074 . S
O598 C623 1.257 . S
H599 C624 0.930 . S
H600 C630 0.930 . S
O601 Co590 2.093 . S
O601 C593 1.222 1_565 S
H602 C634 0.929 . S
H603 C636 0.930 . S
H604 C637 0.930 . S
H605 C635 0.929 . S
H606 C638 0.928 . S
O607 Co591 2.057 . S
O607 C595 1.232 . S
H608 C627 0.929 . S
H609 C628 0.929 . S
H610 C640 0.931 . S
H611 C632 0.929 . S
H612 C641 0.930 . S
H613 C633 0.931 . S
O614 Co590 2.097 . S
O614 C642 1.214 . S
H615 C643 0.929 . S
H616 C644 0.929 . S
H617 C645 0.930 . S
H618 C646 0.929 . S
H619 C648 0.930 . S
H620 C625 0.930 . S
H621 C629 0.930 . S
O622 Co591 2.037 . S
O622 C642 1.234 . S
C623 O597 1.269 . S
C623 O598 1.257 . S
C624 H599 0.930 . S
C624 C627 1.388 . S
C624 C629 1.418 . S
C625 H620 0.930 . S
C625 C628 1.404 . S
C625 C629 1.353 . S
N626 Co591 2.145 . S
N626 C627 1.397 . S
N626 C628 1.334 . S
C627 H608 0.929 . S
C627 C624 1.388 . S
C627 N626 1.397 . S
C628 H609 0.929 . S
C628 C625 1.404 . S
C628 N626 1.334 . S
C629 H621 0.930 . S
C629 C624 1.418 . S
C629 C625 1.353 . S
C630 H600 0.930 . S
C630 N631 1.330 1_545 S
C630 C632 1.446 . S
N631 Co590 2.151 . S
N631 C630 1.330 1_565 S
N631 C635 1.418 . S
C632 H611 0.929 . S
C632 C630 1.446 . S
C632 C633 1.332 . S
C633 H613 0.931 . S
C633 C632 1.332 . S
C633 C634 1.267 . S
C634 H602 0.929 . S
C634 C633 1.267 . S
C634 C635 1.251 1_545 S
C635 H605 0.929 . S
C635 N631 1.418 . S
C635 C634 1.251 1_565 S
C636 H603 0.930 . S
C636 C638 1.406 . S
C636 C641 1.261 . S
C637 H604 0.930 . S
C637 N639 1.325 . S
C637 C640 1.357 . S
C638 H606 0.928 . S
C638 C636 1.406 . S
C638 N639 1.261 . S
N639 Co590 2.214 . S
N639 C637 1.325 . S
N639 C638 1.261 . S
C640 H610 0.931 . S
C640 C637 1.357 . S
C640 C641 1.312 . S
C641 H612 0.930 . S
C641 C636 1.261 . S
C641 C640 1.312 . S
C642 O614 1.214 . S
C642 O622 1.234 . S
C643 H615 0.929 . S
C643 C646 1.391 . S
C643 C648 1.391 . S
C644 H616 0.929 . S
C644 C645 1.390 . S
C644 N647 1.391 . S
C645 H617 0.930 . S
C645 C644 1.390 . S
C645 C646 1.392 . S
C646 H618 0.929 . S
C646 C643 1.391 . S
C646 C645 1.392 . S
N647 Co591 2.257 . S
N647 C644 1.391 . S
N647 C648 1.388 . S
C648 H619 0.930 . S
C648 C643 1.391 . S
C648 N647 1.388 . S
Co649 O651 2.143 . S
Co649 O657 2.074 . S
Co649 O660 2.093 . S
Co649 O673 2.097 . S
Co649 N690 2.151 . S
Co649 N698 2.214 . S
Co650 O651 2.160 . S
Co650 O656 2.058 . S
Co650 O666 2.057 . S
Co650 O681 2.037 . S
Co650 N685 2.145 . S
Co650 N706 2.257 . S
O651 Co649 2.143 . S
O651 Co650 2.160 . S
C652 O653 1.276 1_545 S
C652 O660 1.222 1_545 S
O653 C652 1.276 1_565 S
C654 O655 1.245 . S
C654 O666 1.232 . S
O655 C654 1.245 . S
O656 Co650 2.058 . S
O656 C682 1.269 . S
O657 Co649 2.074 . S
O657 C682 1.257 . S
H658 C683 0.930 . S
H659 C689 0.930 . S
O660 Co649 2.093 . S
O660 C652 1.222 1_565 S
H661 C693 0.929 . S
H662 C695 0.930 . S
H663 C696 0.930 . S
H664 C694 0.929 . S
H665 C697 0.928 . S
O666 Co650 2.057 . S
O666 C654 1.232 . S
H667 C686 0.929 . S
H668 C687 0.929 . S
H669 C699 0.931 . S
H670 C691 0.929 . S
H671 C700 0.930 . S
H672 C692 0.931 . S
O673 Co649 2.097 . S
O673 C701 1.214 . S
H674 C702 0.929 . S
H675 C703 0.929 . S
H676 C704 0.930 . S
H677 C705 0.929 . S
H678 C707 0.930 . S
H679 C684 0.930 . S
H680 C688 0.930 . S
O681 Co650 2.037 . S
O681 C701 1.234 . S
C682 O656 1.269 . S
C682 O657 1.257 . S
C683 H658 0.930 . S
C683 C686 1.388 . S
C683 C688 1.418 . S
C684 H679 0.930 . S
C684 C687 1.404 . S
C684 C688 1.353 . S
N685 Co650 2.145 . S
N685 C686 1.397 . S
N685 C687 1.334 . S
C686 H667 0.929 . S
C686 C683 1.388 . S
C686 N685 1.397 . S
C687 H668 0.929 . S
C687 C684 1.404 . S
C687 N685 1.334 . S
C688 H680 0.930 . S
C688 C683 1.418 . S
C688 C684 1.353 . S
C689 H659 0.930 . S
C689 N690 1.330 1_545 S
C689 C691 1.446 . S
N690 Co649 2.151 . S
N690 C689 1.330 1_565 S
N690 C694 1.418 . S
C691 H670 0.929 . S
C691 C689 1.446 . S
C691 C692 1.332 . S
C692 H672 0.931 . S
C692 C691 1.332 . S
C692 C693 1.267 . S
C693 H661 0.929 . S
C693 C692 1.267 . S
C693 C694 1.251 1_545 S
C694 H664 0.929 . S
C694 N690 1.418 . S
C694 C693 1.251 1_565 S
C695 H662 0.930 . S
C695 C697 1.406 . S
C695 C700 1.261 . S
C696 H663 0.930 . S
C696 N698 1.325 . S
C696 C699 1.357 . S
C697 H665 0.928 . S
C697 C695 1.406 . S
C697 N698 1.261 . S
N698 Co649 2.214 . S
N698 C696 1.325 . S
N698 C697 1.261 . S
C699 H669 0.931 . S
C699 C696 1.357 . S
C699 C700 1.312 . S
C700 H671 0.930 . S
C700 C695 1.261 . S
C700 C699 1.312 . S
C701 O673 1.214 . S
C701 O681 1.234 . S
C702 H674 0.929 . S
C702 C705 1.391 . S
C702 C707 1.391 . S
C703 H675 0.929 . S
C703 C704 1.390 . S
C703 N706 1.391 . S
C704 H676 0.930 . S
C704 C703 1.390 . S
C704 C705 1.392 . S
C705 H677 0.929 . S
C705 C702 1.391 . S
C705 C704 1.392 . S
N706 Co650 2.257 . S
N706 C703 1.391 . S
N706 C707 1.388 . S
C707 H678 0.930 . S
C707 C702 1.391 . S
C707 N706 1.388 . S
Co708 O710 2.143 . S
Co708 O716 2.074 . S
Co708 O719 2.093 . S
Co708 O732 2.097 . S
Co708 N749 2.151 . S
Co708 N757 2.214 . S
Co709 O710 2.160 . S
Co709 O715 2.058 . S
Co709 O725 2.057 . S
Co709 O740 2.037 . S
Co709 N744 2.145 . S
Co709 N765 2.257 . S
O710 Co708 2.143 . S
O710 Co709 2.160 . S
C711 O712 1.278 . S
C711 O719 1.224 . S
O712 C711 1.278 . S
C713 O714 1.245 . S
C713 O725 1.232 . S
O714 C713 1.245 . S
O715 Co709 2.058 . S
O715 C741 1.269 . S
O716 Co708 2.074 . S
O716 C741 1.257 . S
H717 C742 0.930 . S
H718 C748 0.930 . S
O719 Co708 2.093 . S
O719 C711 1.224 . S
H720 C752 0.929 . S
H721 C754 0.930 . S
H722 C755 0.930 . S
H723 C753 0.929 . S
H724 C756 0.928 . S
O725 Co709 2.057 . S
O725 C713 1.232 . S
H726 C745 0.929 . S
H727 C746 0.929 . S
H728 C758 0.931 . S
H729 C750 0.929 . S
H730 C759 0.930 . S
H731 C751 0.931 . S
O732 Co708 2.097 . S
O732 C760 1.214 . S
H733 C761 0.929 . S
H734 C762 0.929 . S
H735 C763 0.930 . S
H736 C764 0.929 . S
H737 C766 0.930 . S
H738 C743 0.930 . S
H739 C747 0.930 . S
O740 Co709 2.037 . S
O740 C760 1.234 . S
C741 O715 1.269 . S
C741 O716 1.257 . S
C742 H717 0.930 . S
C742 C745 1.388 . S
C742 C747 1.418 . S
C743 H738 0.930 . S
C743 C746 1.404 . S
C743 C747 1.353 . S
N744 Co709 2.145 . S
N744 C745 1.397 . S
N744 C746 1.334 . S
C745 H726 0.929 . S
C745 C742 1.388 . S
C745 N744 1.397 . S
C746 H727 0.929 . S
C746 C743 1.404 . S
C746 N744 1.334 . S
C747 H739 0.930 . S
C747 C742 1.418 . S
C747 C743 1.353 . S
C748 H718 0.930 . S
C748 N749 1.330 . S
C748 C750 1.446 . S
N749 Co708 2.151 . S
N749 C748 1.330 . S
N749 C753 1.418 . S
C750 H729 0.929 . S
C750 C748 1.446 . S
C750 C751 1.332 . S
C751 H731 0.931 . S
C751 C750 1.332 . S
C751 C752 1.267 . S
C752 H720 0.929 . S
C752 C751 1.267 . S
C752 C753 1.251 . S
C753 H723 0.929 . S
C753 N749 1.418 . S
C753 C752 1.251 . S
C754 H721 0.930 . S
C754 C756 1.406 . S
C754 C759 1.261 . S
C755 H722 0.930 . S
C755 N757 1.325 . S
C755 C758 1.357 . S
C756 H724 0.928 . S
C756 C754 1.406 . S
C756 N757 1.261 . S
N757 Co708 2.214 . S
N757 C755 1.325 . S
N757 C756 1.261 . S
C758 H728 0.931 . S
C758 C755 1.357 . S
C758 C759 1.312 . S
C759 H730 0.930 . S
C759 C754 1.261 . S
C759 C758 1.312 . S
C760 O732 1.214 . S
C760 O740 1.234 . S
C761 H733 0.929 . S
C761 C764 1.391 . S
C761 C766 1.391 . S
C762 H734 0.929 . S
C762 C763 1.390 . S
C762 N765 1.391 . S
C763 H735 0.930 . S
C763 C762 1.390 . S
C763 C764 1.392 . S
C764 H736 0.929 . S
C764 C761 1.391 . S
C764 C763 1.392 . S
N765 Co709 2.257 . S
N765 C762 1.391 . S
N765 C766 1.388 . S
C766 H737 0.930 . S
C766 C761 1.391 . S
C766 N765 1.388 . S
Co767 O769 2.143 . S
Co767 O775 2.074 . S
Co767 O778 2.093 . S
Co767 O791 2.097 . S
Co767 N808 2.151 . S
Co767 N816 2.214 . S
Co768 O769 2.160 . S
Co768 O774 2.058 . S
Co768 O784 2.057 . S
Co768 O799 2.037 . S
Co768 N803 2.145 . S
Co768 N824 2.257 . S
O769 Co767 2.143 . S
O769 Co768 2.160 . S
C770 O771 1.278 . S
C770 O778 1.224 . S
O771 C770 1.278 . S
C772 O773 1.245 . S
C772 O784 1.232 . S
O773 C772 1.245 . S
O774 Co768 2.058 . S
O774 C800 1.269 . S
O775 Co767 2.074 . S
O775 C800 1.257 . S
H776 C801 0.930 . S
H777 C807 0.930 . S
O778 Co767 2.093 . S
O778 C770 1.224 . S
H779 C811 0.929 . S
H780 C813 0.930 . S
H781 C814 0.930 . S
H782 C812 0.929 . S
H783 C815 0.928 . S
O784 Co768 2.057 . S
O784 C772 1.232 . S
H785 C804 0.929 . S
H786 C805 0.929 . S
H787 C817 0.931 . S
H788 C809 0.929 . S
H789 C818 0.930 . S
H790 C810 0.931 . S
O791 Co767 2.097 . S
O791 C819 1.214 . S
H792 C820 0.929 . S
H793 C821 0.929 . S
H794 C822 0.930 . S
H795 C823 0.929 . S
H796 C825 0.930 . S
H797 C802 0.930 . S
H798 C806 0.930 . S
O799 Co768 2.037 . S
O799 C819 1.234 . S
C800 O774 1.269 . S
C800 O775 1.257 . S
C801 H776 0.930 . S
C801 C804 1.388 . S
C801 C806 1.418 . S
C802 H797 0.930 . S
C802 C805 1.404 . S
C802 C806 1.353 . S
N803 Co768 2.145 . S
N803 C804 1.397 . S
N803 C805 1.334 . S
C804 H785 0.929 . S
C804 C801 1.388 . S
C804 N803 1.397 . S
C805 H786 0.929 . S
C805 C802 1.404 . S
C805 N803 1.334 . S
C806 H798 0.930 . S
C806 C801 1.418 . S
C806 C802 1.353 . S
C807 H777 0.930 . S
C807 N808 1.330 . S
C807 C809 1.446 . S
N808 Co767 2.151 . S
N808 C807 1.330 . S
N808 C812 1.418 . S
C809 H788 0.929 . S
C809 C807 1.446 . S
C809 C810 1.332 . S
C810 H790 0.931 . S
C810 C809 1.332 . S
C810 C811 1.267 . S
C811 H779 0.929 . S
C811 C810 1.267 . S
C811 C812 1.251 . S
C812 H782 0.929 . S
C812 N808 1.418 . S
C812 C811 1.251 . S
C813 H780 0.930 . S
C813 C815 1.406 . S
C813 C818 1.261 . S
C814 H781 0.930 . S
C814 N816 1.325 . S
C814 C817 1.357 . S
C815 H783 0.928 . S
C815 C813 1.406 . S
C815 N816 1.261 . S
N816 Co767 2.214 . S
N816 C814 1.325 . S
N816 C815 1.261 . S
C817 H787 0.931 . S
C817 C814 1.357 . S
C817 C818 1.312 . S
C818 H789 0.930 . S
C818 C813 1.261 . S
C818 C817 1.312 . S
C819 O791 1.214 . S
C819 O799 1.234 . S
C820 H792 0.929 . S
C820 C823 1.391 . S
C820 C825 1.391 . S
C821 H793 0.929 . S
C821 C822 1.390 . S
C821 N824 1.391 . S
C822 H794 0.930 . S
C822 C821 1.390 . S
C822 C823 1.392 . S
C823 H795 0.929 . S
C823 C820 1.391 . S
C823 C822 1.392 . S
N824 Co768 2.257 . S
N824 C821 1.391 . S
N824 C825 1.388 . S
C825 H796 0.930 . S
C825 C820 1.391 . S
C825 N824 1.388 . S
Co826 O828 2.143 . S
Co826 O834 2.074 . S
Co826 O837 2.093 . S
Co826 O850 2.097 . S
Co826 N867 2.151 . S
Co826 N875 2.214 . S
Co827 O828 2.160 . S
Co827 O833 2.058 . S
Co827 O843 2.057 . S
Co827 O858 2.037 . S
Co827 N862 2.145 . S
Co827 N883 2.257 . S
O828 Co826 2.143 . S
O828 Co827 2.160 . S
C829 O830 1.278 . S
C829 O837 1.224 . S
O830 C829 1.278 . S
C831 O832 1.245 . S
C831 O843 1.232 . S
O832 C831 1.245 . S
O833 Co827 2.058 . S
O833 C859 1.269 . S
O834 Co826 2.074 . S
O834 C859 1.257 . S
H835 C860 0.930 . S
H836 C866 0.930 . S
O837 Co826 2.093 . S
O837 C829 1.224 . S
H838 C870 0.929 . S
H839 C872 0.930 . S
H840 C873 0.930 . S
H841 C871 0.929 . S
H842 C874 0.928 . S
O843 Co827 2.057 . S
O843 C831 1.232 . S
H844 C863 0.929 . S
H845 C864 0.929 . S
H846 C876 0.931 . S
H847 C868 0.929 . S
H848 C877 0.930 . S
H849 C869 0.931 . S
O850 Co826 2.097 . S
O850 C878 1.214 . S
H851 C879 0.929 . S
H852 C880 0.929 . S
H853 C881 0.930 . S
H854 C882 0.929 . S
H855 C884 0.930 . S
H856 C861 0.930 . S
H857 C865 0.930 . S
O858 Co827 2.037 . S
O858 C878 1.234 . S
C859 O833 1.269 . S
C859 O834 1.257 . S
C860 H835 0.930 . S
C860 C863 1.388 . S
C860 C865 1.418 . S
C861 H856 0.930 . S
C861 C864 1.404 . S
C861 C865 1.353 . S
N862 Co827 2.145 . S
N862 C863 1.397 . S
N862 C864 1.334 . S
C863 H844 0.929 . S
C863 C860 1.388 . S
C863 N862 1.397 . S
C864 H845 0.929 . S
C864 C861 1.404 . S
C864 N862 1.334 . S
C865 H857 0.930 . S
C865 C860 1.418 . S
C865 C861 1.353 . S
C866 H836 0.930 . S
C866 N867 1.330 . S
C866 C868 1.446 . S
N867 Co826 2.151 . S
N867 C866 1.330 . S
N867 C871 1.418 . S
C868 H847 0.929 . S
C868 C866 1.446 . S
C868 C869 1.332 . S
C869 H849 0.931 . S
C869 C868 1.332 . S
C869 C870 1.267 . S
C870 H838 0.929 . S
C870 C869 1.267 . S
C870 C871 1.251 . S
C871 H841 0.929 . S
C871 N867 1.418 . S
C871 C870 1.251 . S
C872 H839 0.930 . S
C872 C874 1.406 . S
C872 C877 1.261 . S
C873 H840 0.930 . S
C873 N875 1.325 . S
C873 C876 1.357 . S
C874 H842 0.928 . S
C874 C872 1.406 . S
C874 N875 1.261 . S
N875 Co826 2.214 . S
N875 C873 1.325 . S
N875 C874 1.261 . S
C876 H846 0.931 . S
C876 C873 1.357 . S
C876 C877 1.312 . S
C877 H848 0.930 . S
C877 C872 1.261 . S
C877 C876 1.312 . S
C878 O850 1.214 . S
C878 O858 1.234 . S
C879 H851 0.929 . S
C879 C882 1.391 . S
C879 C884 1.391 . S
C880 H852 0.929 . S
C880 C881 1.390 . S
C880 N883 1.391 . S
C881 H853 0.930 . S
C881 C880 1.390 . S
C881 C882 1.392 . S
C882 H854 0.929 . S
C882 C879 1.391 . S
C882 C881 1.392 . S
N883 Co827 2.257 . S
N883 C880 1.391 . S
N883 C884 1.388 . S
C884 H855 0.930 . S
C884 C879 1.391 . S
C884 N883 1.388 . S
Co885 O887 2.143 . S
Co885 O893 2.074 . S
Co885 O896 2.093 . S
Co885 O909 2.097 . S
Co885 N926 2.151 . S
Co885 N934 2.214 . S
Co886 O887 2.160 . S
Co886 O892 2.058 . S
Co886 O902 2.057 . S
Co886 O917 2.037 . S
Co886 N921 2.145 . S
Co886 N942 2.257 . S
O887 Co885 2.143 . S
O887 Co886 2.160 . S
C888 O889 1.278 . S
C888 O896 1.224 . S
O889 C888 1.278 . S
C890 O891 1.245 . S
C890 O902 1.232 . S
O891 C890 1.245 . S
O892 Co886 2.058 . S
O892 C918 1.269 . S
O893 Co885 2.074 . S
O893 C918 1.257 . S
H894 C919 0.930 . S
H895 C925 0.930 . S
O896 Co885 2.093 . S
O896 C888 1.224 . S
H897 C929 0.929 . S
H898 C931 0.930 . S
H899 C932 0.930 . S
H900 C930 0.929 . S
H901 C933 0.928 . S
O902 Co886 2.057 . S
O902 C890 1.232 . S
H903 C922 0.929 . S
H904 C923 0.929 . S
H905 C935 0.931 . S
H906 C927 0.929 . S
H907 C936 0.930 . S
H908 C928 0.931 . S
O909 Co885 2.097 . S
O909 C937 1.214 . S
H910 C938 0.929 . S
H911 C939 0.929 . S
H912 C940 0.930 . S
H913 C941 0.929 . S
H914 C943 0.930 . S
H915 C920 0.930 . S
H916 C924 0.930 . S
O917 Co886 2.037 . S
O917 C937 1.234 . S
C918 O892 1.269 . S
C918 O893 1.257 . S
C919 H894 0.930 . S
C919 C922 1.388 . S
C919 C924 1.418 . S
C920 H915 0.930 . S
C920 C923 1.404 . S
C920 C924 1.353 . S
N921 Co886 2.145 . S
N921 C922 1.397 . S
N921 C923 1.334 . S
C922 H903 0.929 . S
C922 C919 1.388 . S
C922 N921 1.397 . S
C923 H904 0.929 . S
C923 C920 1.404 . S
C923 N921 1.334 . S
C924 H916 0.930 . S
C924 C919 1.418 . S
C924 C920 1.353 . S
C925 H895 0.930 . S
C925 N926 1.330 . S
C925 C927 1.446 . S
N926 Co885 2.151 . S
N926 C925 1.330 . S
N926 C930 1.418 . S
C927 H906 0.929 . S
C927 C925 1.446 . S
C927 C928 1.332 . S
C928 H908 0.931 . S
C928 C927 1.332 . S
C928 C929 1.267 . S
C929 H897 0.929 . S
C929 C928 1.267 . S
C929 C930 1.251 . S
C930 H900 0.929 . S
C930 N926 1.418 . S
C930 C929 1.251 . S
C931 H898 0.930 . S
C931 C933 1.406 . S
C931 C936 1.261 . S
C932 H899 0.930 . S
C932 N934 1.325 . S
C932 C935 1.357 . S
C933 H901 0.928 . S
C933 C931 1.406 . S
C933 N934 1.261 . S
N934 Co885 2.214 . S
N934 C932 1.325 . S
N934 C933 1.261 . S
C935 H905 0.931 . S
C935 C932 1.357 . S
C935 C936 1.312 . S
C936 H907 0.930 . S
C936 C931 1.261 . S
C936 C935 1.312 . S
C937 O909 1.214 . S
C937 O917 1.234 . S
C938 H910 0.929 . S
C938 C941 1.391 . S
C938 C943 1.391 . S
C939 H911 0.929 . S
C939 C940 1.390 . S
C939 N942 1.391 . S
C940 H912 0.930 . S
C940 C939 1.390 . S
C940 C941 1.392 . S
C941 H913 0.929 . S
C941 C938 1.391 . S
C941 C940 1.392 . S
N942 Co886 2.257 . S
N942 C939 1.391 . S
N942 C943 1.388 . S
C943 H914 0.930 . S
C943 C938 1.391 . S
C943 N942 1.388 . S
H944 C952 0.950 . S
H945 C957 0.950 . S
H946 C954 0.950 . S
H947 C956 0.950 . S
H948 C958 0.950 . S
H949 C960 0.950 . S
H950 C962 0.950 . S
H951 C963 0.950 . S
C952 H944 0.950 . S
C952 C953 1.386 . S
C952 C954 1.391 . S
C953 C952 1.386 . S
C953 C957 1.393 . S
C954 H946 0.950 . S
C954 C952 1.391 . S
C954 C955 1.400 . S
C955 C954 1.400 . S
C955 C956 1.398 . S
C955 C961 1.491 . S
C956 H947 0.950 . S
C956 C955 1.398 . S
C956 C957 1.391 . S
C957 H945 0.950 . S
C957 C953 1.393 . S
C957 C956 1.391 . S
C958 H948 0.950 . S
C958 C959 1.386 . S
C958 C960 1.391 . S
C959 C958 1.386 . S
C959 C963 1.393 . S
C960 H949 0.950 . S
C960 C958 1.391 . S
C960 C961 1.400 . S
C961 C955 1.491 . S
C961 C960 1.400 . S
C961 C962 1.398 . S
C962 H950 0.950 . S
C962 C961 1.398 . S
C962 C963 1.391 . S
C963 H951 0.950 . S
C963 C959 1.393 . S
C963 C962 1.391 . S
H964 C972 0.950 . S
H965 C977 0.950 . S
H966 C974 0.950 . S
H967 C976 0.950 1_455 S
H968 C978 0.950 . S
H969 C980 0.950 . S
H970 C982 0.950 1_655 S
H971 C983 0.950 . S
C972 H964 0.950 . S
C972 C973 1.386 . S
C972 C974 1.391 . S
C973 C972 1.386 . S
C973 C977 1.393 1_565 S
C974 H966 0.950 . S
C974 C972 1.391 . S
C974 C975 1.400 . S
C975 C974 1.400 . S
C975 C976 1.398 1_565 S
C975 C981 1.491 1_665 S
C976 H967 0.950 1_655 S
C976 C975 1.398 1_545 S
C976 C977 1.391 . S
C977 H965 0.950 . S
C977 C973 1.393 1_545 S
C977 C976 1.391 . S
C978 H968 0.950 . S
C978 C979 1.386 . S
C978 C980 1.391 . S
C979 C978 1.386 . S
C979 C983 1.393 1_545 S
C980 H969 0.950 . S
C980 C978 1.391 . S
C980 C981 1.400 . S
C981 C975 1.491 1_445 S
C981 C980 1.400 . S
C981 C982 1.398 1_545 S
C982 H970 0.950 1_455 S
C982 C981 1.398 1_565 S
C982 C983 1.391 . S
C983 H971 0.950 . S
C983 C979 1.393 1_565 S
C983 C982 1.391 . S
H984 C992 0.950 . S
H985 C997 0.950 . S
H986 C994 0.950 . S
H987 C996 0.950 1_545 S
H988 C998 0.950 . S
H989 C1000 0.950 . S
H990 C1002 0.950 1_565 S
H991 C1003 0.950 . S
C992 H984 0.950 . S
C992 C993 1.386 . S
C992 C994 1.391 . S
C993 C992 1.386 . S
C993 C997 1.393 . S
C994 H986 0.950 . S
C994 C992 1.391 . S
C994 C995 1.400 . S
C995 C994 1.400 . S
C995 C996 1.398 . S
C995 C1001 1.491 1_565 S
C996 H987 0.950 1_565 S
C996 C995 1.398 . S
C996 C997 1.391 . S
C997 H985 0.950 . S
C997 C993 1.393 . S
C997 C996 1.391 . S
C998 H988 0.950 . S
C998 C999 1.386 . S
C998 C1000 1.391 . S
C999 C998 1.386 . S
C999 C1003 1.393 . S
C1000 H989 0.950 . S
C1000 C998 1.391 . S
C1000 C1001 1.400 . S
C1001 C995 1.491 1_545 S
C1001 C1000 1.400 . S
C1001 C1002 1.398 . S
C1002 H990 0.950 1_545 S
C1002 C1001 1.398 . S
C1002 C1003 1.391 . S
C1003 H991 0.950 . S
C1003 C999 1.393 . S
C1003 C1002 1.391 . S
H1004 C1012 0.950 . S
H1005 C1017 0.950 . S
H1006 C1014 0.950 . S
H1007 C1016 0.950 . S
H1008 C1018 0.950 . S
H1009 C1020 0.950 . S
H1010 C1022 0.950 . S
H1011 C1023 0.950 . S
C1012 H1004 0.950 . S
C1012 C1013 1.386 . S
C1012 C1014 1.391 . S
C1013 C1012 1.386 . S
C1013 C1017 1.393 . S
C1014 H1006 0.950 . S
C1014 C1012 1.391 . S
C1014 C1015 1.400 . S
C1015 C1014 1.400 . S
C1015 C1016 1.398 . S
C1015 C1021 1.491 1_455 S
C1016 H1007 0.950 . S
C1016 C1015 1.398 . S
C1016 C1017 1.391 . S
C1017 H1005 0.950 . S
C1017 C1013 1.393 . S
C1017 C1016 1.391 . S
C1018 H1008 0.950 . S
C1018 C1019 1.386 . S
C1018 C1020 1.391 . S
C1019 C1018 1.386 . S
C1019 C1023 1.393 . S
C1020 H1009 0.950 . S
C1020 C1018 1.391 . S
C1020 C1021 1.400 . S
C1021 C1015 1.491 1_655 S
C1021 C1020 1.400 . S
C1021 C1022 1.398 . S
C1022 H1010 0.950 . S
C1022 C1021 1.398 . S
C1022 C1023 1.391 . S
C1023 H1011 0.950 . S
C1023 C1019 1.393 . S
C1023 C1022 1.391 . S
H1024 C1032 0.950 . S
H1025 C1037 0.950 . S
H1026 C1034 0.950 . S
H1027 C1036 0.950 . S
H1028 C1038 0.950 . S
H1029 C1040 0.950 . S
H1030 C1042 0.950 . S
H1031 C1043 0.950 . S
C1032 H1024 0.950 . S
C1032 C1033 1.386 . S
C1032 C1034 1.391 . S
C1033 C1032 1.386 . S
C1033 C1037 1.393 . S
C1034 H1026 0.950 . S
C1034 C1032 1.391 . S
C1034 C1035 1.400 . S
C1035 C1034 1.400 . S
C1035 C1036 1.398 . S
C1035 C1041 1.491 . S
C1036 H1027 0.950 . S
C1036 C1035 1.398 . S
C1036 C1037 1.391 . S
C1037 H1025 0.950 . S
C1037 C1033 1.393 . S
C1037 C1036 1.391 . S
C1038 H1028 0.950 . S
C1038 C1039 1.386 . S
C1038 C1040 1.391 . S
C1039 C1038 1.386 . S
C1039 C1043 1.393 . S
C1040 H1029 0.950 . S
C1040 C1038 1.391 . S
C1040 C1041 1.400 . S
C1041 C1035 1.491 . S
C1041 C1040 1.400 . S
C1041 C1042 1.398 . S
C1042 H1030 0.950 . S
C1042 C1041 1.398 . S
C1042 C1043 1.391 . S
C1043 H1031 0.950 . S
C1043 C1039 1.393 . S
C1043 C1042 1.391 . S
H1044 C1052 0.950 . S
H1045 C1057 0.950 . S
H1046 C1054 0.950 . S
H1047 C1056 0.950 . S
H1048 C1058 0.950 . S
H1049 C1060 0.950 . S
H1050 C1062 0.950 . S
H1051 C1063 0.950 . S
C1052 H1044 0.950 . S
C1052 C1053 1.386 1_565 S
C1052 C1054 1.391 . S
C1053 C1052 1.386 1_545 S
C1053 C1057 1.393 . S
C1054 H1046 0.950 . S
C1054 C1052 1.391 . S
C1054 C1055 1.400 1_565 S
C1055 C1054 1.400 1_545 S
C1055 C1056 1.398 . S
C1055 C1061 1.491 1_545 S
C1056 H1047 0.950 . S
C1056 C1055 1.398 . S
C1056 C1057 1.391 . S
C1057 H1045 0.950 . S
C1057 C1053 1.393 . S
C1057 C1056 1.391 . S
C1058 H1048 0.950 . S
C1058 C1059 1.386 1_545 S
C1058 C1060 1.391 . S
C1059 C1058 1.386 1_565 S
C1059 C1063 1.393 . S
C1060 H1049 0.950 . S
C1060 C1058 1.391 . S
C1060 C1061 1.400 1_545 S
C1061 C1055 1.491 1_565 S
C1061 C1060 1.400 1_565 S
C1061 C1062 1.398 . S
C1062 H1050 0.950 . S
C1062 C1061 1.398 . S
C1062 C1063 1.391 . S
C1063 H1051 0.950 . S
C1063 C1059 1.393 . S
C1063 C1062 1.391 . S
H1064 C1072 0.950 . S
H1065 C1077 0.950 . S
H1066 C1074 0.950 1_455 S
H1067 C1076 0.950 . S
H1068 C1078 0.950 . S
H1069 C1080 0.950 1_655 S
H1070 C1082 0.950 . S
H1071 C1083 0.950 . S
C1072 H1064 0.950 . S
C1072 C1073 1.386 . S
C1072 C1074 1.391 . S
C1073 C1072 1.386 . S
C1073 C1077 1.393 . S
C1074 H1066 0.950 1_655 S
C1074 C1072 1.391 . S
C1074 C1075 1.400 . S
C1075 C1074 1.400 . S
C1075 C1076 1.398 . S
C1075 C1081 1.491 1_655 S
C1076 H1067 0.950 . S
C1076 C1075 1.398 . S
C1076 C1077 1.391 . S
C1077 H1065 0.950 . S
C1077 C1073 1.393 . S
C1077 C1076 1.391 . S
C1078 H1068 0.950 . S
C1078 C1079 1.386 . S
C1078 C1080 1.391 . S
C1079 C1078 1.386 . S
C1079 C1083 1.393 . S
C1080 H1069 0.950 1_455 S
C1080 C1078 1.391 . S
C1080 C1081 1.400 . S
C1081 C1075 1.491 1_455 S
C1081 C1080 1.400 . S
C1081 C1082 1.398 . S
C1082 H1070 0.950 . S
C1082 C1081 1.398 . S
C1082 C1083 1.391 . S
C1083 H1071 0.950 . S
C1083 C1079 1.393 . S
C1083 C1082 1.391 . S
H1084 C1092 0.950 . S
H1085 C1097 0.950 . S
H1086 C1094 0.950 1_556 S
H1087 C1096 0.950 . S
H1088 C1098 0.950 . S
H1089 C1100 0.950 1_554 S
H1090 C1102 0.950 . S
H1091 C1103 0.950 . S
C1092 H1084 0.950 . S
C1092 C1093 1.386 . S
C1092 C1094 1.391 . S
C1093 C1092 1.386 . S
C1093 C1097 1.393 . S
C1094 H1086 0.950 1_554 S
C1094 C1092 1.391 . S
C1094 C1095 1.400 . S
C1095 C1094 1.400 . S
C1095 C1096 1.398 . S
C1095 C1101 1.491 1_554 S
C1096 H1087 0.950 . S
C1096 C1095 1.398 . S
C1096 C1097 1.391 . S
C1097 H1085 0.950 . S
C1097 C1093 1.393 . S
C1097 C1096 1.391 . S
C1098 H1088 0.950 . S
C1098 C1099 1.386 . S
C1098 C1100 1.391 . S
C1099 C1098 1.386 . S
C1099 C1103 1.393 . S
C1100 H1089 0.950 1_556 S
C1100 C1098 1.391 . S
C1100 C1101 1.400 . S
C1101 C1095 1.491 1_556 S
C1101 C1100 1.400 . S
C1101 C1102 1.398 . S
C1102 H1090 0.950 . S
C1102 C1101 1.398 . S
C1102 C1103 1.391 . S
C1103 H1091 0.950 . S
C1103 C1099 1.393 . S
C1103 C1102 1.391 . S
H1104 C1112 0.950 . S
H1105 C1117 0.950 . S
H1106 C1114 0.950 1_655 S
H1107 C1116 0.995 . S
H1108 C1118 0.950 . S
H1109 C1120 0.950 1_455 S
H1110 C1122 0.995 . S
H1111 C1123 0.950 . S
C1112 H1104 0.950 . S
C1112 C1113 1.386 . S
C1112 C1114 1.391 . S
C1113 C1112 1.386 . S
C1113 C1117 1.393 . S
C1114 H1106 0.950 1_455 S
C1114 C1112 1.391 . S
C1114 C1115 1.400 . S
C1115 C1114 1.400 . S
C1115 C1116 1.391 1_556 S
C1115 C1121 1.491 1_456 S
C1116 H1107 0.995 . S
C1116 C1115 1.391 1_554 S
C1116 C1117 1.356 1_554 S
C1117 H1105 0.950 . S
C1117 C1113 1.393 . S
C1117 C1116 1.356 1_556 S
C1118 H1108 0.950 . S
C1118 C1119 1.386 . S
C1118 C1120 1.391 . S
C1119 C1118 1.386 . S
C1119 C1123 1.393 . S
C1120 H1109 0.950 1_655 S
C1120 C1118 1.391 . S
C1120 C1121 1.400 . S
C1121 C1115 1.491 1_654 S
C1121 C1120 1.400 . S
C1121 C1122 1.391 1_554 S
C1122 H1110 0.995 . S
C1122 C1121 1.391 1_556 S
C1122 C1123 1.356 1_556 S
C1123 H1111 0.950 . S
C1123 C1119 1.393 . S
C1123 C1122 1.356 1_554 S
H1124 C1132 0.950 . S
H1125 C1137 0.950 . S
H1126 C1134 0.950 . S
H1127 C1136 0.950 . S
H1128 C1138 0.950 . S
H1129 C1140 0.950 . S
H1130 C1142 0.950 . S
H1131 C1143 0.950 . S
C1132 H1124 0.950 . S
C1132 C1133 1.386 . S
C1132 C1134 1.391 . S
C1133 C1132 1.386 . S
C1133 C1137 1.393 . S
C1134 H1126 0.950 . S
C1134 C1132 1.391 . S
C1134 C1135 1.400 . S
C1135 C1134 1.400 . S
C1135 C1136 1.398 . S
C1135 C1141 1.491 . S
C1136 H1127 0.950 . S
C1136 C1135 1.398 . S
C1136 C1137 1.391 . S
C1137 H1125 0.950 . S
C1137 C1133 1.393 . S
C1137 C1136 1.391 . S
C1138 H1128 0.950 . S
C1138 C1139 1.386 . S
C1138 C1140 1.391 . S
C1139 C1138 1.386 . S
C1139 C1143 1.393 . S
C1140 H1129 0.950 . S
C1140 C1138 1.391 . S
C1140 C1141 1.400 . S
C1141 C1135 1.491 . S
C1141 C1140 1.400 . S
C1141 C1142 1.398 . S
C1142 H1130 0.950 . S
C1142 C1141 1.398 . S
C1142 C1143 1.391 . S
C1143 H1131 0.950 . S
C1143 C1139 1.393 . S
C1143 C1142 1.391 . S
H1144 C1152 0.950 . S
H1145 C1157 0.950 . S
H1146 C1154 0.950 . S
H1147 C1156 0.950 1_554 S
H1148 C1158 0.950 . S
H1149 C1160 0.950 . S
H1150 C1162 0.950 1_556 S
H1151 C1163 0.950 . S
C1152 H1144 0.950 . S
C1152 C1153 1.386 . S
C1152 C1154 1.391 . S
C1153 C1152 1.386 . S
C1153 C1157 1.393 . S
C1154 H1146 0.950 . S
C1154 C1152 1.391 . S
C1154 C1155 1.400 . S
C1155 C1154 1.400 . S
C1155 C1156 1.398 . S
C1155 C1161 1.491 1_556 S
C1156 H1147 0.950 1_556 S
C1156 C1155 1.398 . S
C1156 C1157 1.391 . S
C1157 H1145 0.950 . S
C1157 C1153 1.393 . S
C1157 C1156 1.391 . S
C1158 H1148 0.950 . S
C1158 C1159 1.386 . S
C1158 C1160 1.391 . S
C1159 C1158 1.386 . S
C1159 C1163 1.393 . S
C1160 H1149 0.950 . S
C1160 C1158 1.391 . S
C1160 C1161 1.400 . S
C1161 C1155 1.491 1_554 S
C1161 C1160 1.400 . S
C1161 C1162 1.398 . S
C1162 H1150 0.950 1_554 S
C1162 C1161 1.398 . S
C1162 C1163 1.391 . S
C1163 H1151 0.950 . S
C1163 C1159 1.393 . S
C1163 C1162 1.391 . S
H1164 C1172 0.950 . S
H1165 C1177 0.950 . S
H1166 C1174 0.950 . S
H1167 C1176 0.950 . S
H1168 C1178 0.950 . S
H1169 C1180 0.950 . S
H1170 C1182 0.950 . S
H1171 C1183 0.950 . S
C1172 H1164 0.950 . S
C1172 C1173 1.386 . S
C1172 C1174 1.391 . S
C1173 C1172 1.386 . S
C1173 C1177 1.393 . S
C1174 H1166 0.950 . S
C1174 C1172 1.391 . S
C1174 C1175 1.400 . S
C1175 C1174 1.400 . S
C1175 C1176 1.398 . S
C1175 C1181 1.491 . S
C1176 H1167 0.950 . S
C1176 C1175 1.398 . S
C1176 C1177 1.391 . S
C1177 H1165 0.950 . S
C1177 C1173 1.393 . S
C1177 C1176 1.391 . S
C1178 H1168 0.950 . S
C1178 C1179 1.386 . S
C1178 C1180 1.391 . S
C1179 C1178 1.386 . S
C1179 C1183 1.393 . S
C1180 H1169 0.950 . S
C1180 C1178 1.391 . S
C1180 C1181 1.400 . S
C1181 C1175 1.491 . S
C1181 C1180 1.400 . S
C1181 C1182 1.398 . S
C1182 H1170 0.950 . S
C1182 C1181 1.398 . S
C1182 C1183 1.391 . S
C1183 H1171 0.950 . S
C1183 C1179 1.393 . S
C1183 C1182 1.391 . S
H1184 C1192 0.950 . S
H1185 C1197 0.950 . S
H1186 C1194 0.903 1_564 S
H1187 C1196 0.950 . S
H1188 C1198 0.950 . S
H1189 C1200 0.903 1_546 S
H1190 C1202 0.950 . S
H1191 C1203 0.950 . S
C1192 H1184 0.950 . S
C1192 C1193 1.386 . S
C1192 C1194 1.434 . S
C1193 C1192 1.386 . S
C1193 C1197 1.393 . S
C1194 H1186 0.903 1_546 S
C1194 C1192 1.434 . S
C1194 C1195 1.405 . S
C1195 C1194 1.405 . S
C1195 C1196 1.398 . S
C1195 C1201 1.491 1_546 S
C1196 H1187 0.950 . S
C1196 C1195 1.398 . S
C1196 C1197 1.391 . S
C1197 H1185 0.950 . S
C1197 C1193 1.393 . S
C1197 C1196 1.391 . S
C1198 H1188 0.950 . S
C1198 C1199 1.386 . S
C1198 C1200 1.434 . S
C1199 C1198 1.386 . S
C1199 C1203 1.393 . S
C1200 H1189 0.903 1_564 S
C1200 C1198 1.434 . S
C1200 C1201 1.405 . S
C1201 C1195 1.491 1_564 S
C1201 C1200 1.405 . S
C1201 C1202 1.398 . S
C1202 H1190 0.950 . S
C1202 C1201 1.398 . S
C1202 C1203 1.391 . S
C1203 H1191 0.950 . S
C1203 C1199 1.393 . S
C1203 C1202 1.391 . S
H1204 C1212 0.950 . S
H1205 C1217 0.950 . S
H1206 C1214 0.950 . S
H1207 C1216 0.950 . S
H1208 C1218 0.950 . S
H1209 C1220 0.950 . S
H1210 C1222 0.950 . S
H1211 C1223 0.950 . S
C1212 H1204 0.950 . S
C1212 C1213 1.386 . S
C1212 C1214 1.391 . S
C1213 C1212 1.386 . S
C1213 C1217 1.393 . S
C1214 H1206 0.950 . S
C1214 C1212 1.391 . S
C1214 C1215 1.400 . S
C1215 C1214 1.400 . S
C1215 C1216 1.398 . S
C1215 C1221 1.491 . S
C1216 H1207 0.950 . S
C1216 C1215 1.398 . S
C1216 C1217 1.391 . S
C1217 H1205 0.950 . S
C1217 C1213 1.393 . S
C1217 C1216 1.391 . S
C1218 H1208 0.950 . S
C1218 C1219 1.386 . S
C1218 C1220 1.391 . S
C1219 C1218 1.386 . S
C1219 C1223 1.393 . S
C1220 H1209 0.950 . S
C1220 C1218 1.391 . S
C1220 C1221 1.400 . S
C1221 C1215 1.491 . S
C1221 C1220 1.400 . S
C1221 C1222 1.398 . S
C1222 H1210 0.950 . S
C1222 C1221 1.398 . S
C1222 C1223 1.391 . S
C1223 H1211 0.950 . S
C1223 C1219 1.393 . S
C1223 C1222 1.391 . S
H1224 C1232 0.950 . S
H1225 C1237 0.950 . S
H1226 C1234 0.950 . S
H1227 C1236 0.950 . S
H1228 C1238 0.950 . S
H1229 C1240 0.950 . S
H1230 C1242 0.950 . S
H1231 C1243 0.950 . S
C1232 H1224 0.950 . S
C1232 C1233 1.386 . S
C1232 C1234 1.391 . S
C1233 C1232 1.386 . S
C1233 C1237 1.393 . S
C1234 H1226 0.950 . S
C1234 C1232 1.391 . S
C1234 C1235 1.400 . S
C1235 C1234 1.400 . S
C1235 C1236 1.398 . S
C1235 C1241 1.491 . S
C1236 H1227 0.950 . S
C1236 C1235 1.398 . S
C1236 C1237 1.391 . S
C1237 H1225 0.950 . S
C1237 C1233 1.393 . S
C1237 C1236 1.391 . S
C1238 H1228 0.950 . S
C1238 C1239 1.386 . S
C1238 C1240 1.391 . S
C1239 C1238 1.386 . S
C1239 C1243 1.393 . S
C1240 H1229 0.950 . S
C1240 C1238 1.391 . S
C1240 C1241 1.400 . S
C1241 C1235 1.491 . S
C1241 C1240 1.400 . S
C1241 C1242 1.398 . S
C1242 H1230 0.950 . S
C1242 C1241 1.398 . S
C1242 C1243 1.391 . S
C1243 H1231 0.950 . S
C1243 C1239 1.393 . S
C1243 C1242 1.391 . S
H1244 C1252 0.950 . S
H1245 C1257 0.950 . S
H1246 C1254 0.950 . S
H1247 C1256 0.950 . S
H1248 C1258 0.950 . S
H1249 C1260 0.950 . S
H1250 C1262 0.950 . S
H1251 C1263 0.950 . S
C1252 H1244 0.950 . S
C1252 C1253 1.386 . S
C1252 C1254 1.391 . S
C1253 C1252 1.386 . S
C1253 C1257 1.393 . S
C1254 H1246 0.950 . S
C1254 C1252 1.391 . S
C1254 C1255 1.400 . S
C1255 C1254 1.400 . S
C1255 C1256 1.398 . S
C1255 C1261 1.491 . S
C1256 H1247 0.950 . S
C1256 C1255 1.398 . S
C1256 C1257 1.391 . S
C1257 H1245 0.950 . S
C1257 C1253 1.393 . S
C1257 C1256 1.391 . S
C1258 H1248 0.950 . S
C1258 C1259 1.386 . S
C1258 C1260 1.391 . S
C1259 C1258 1.386 . S
C1259 C1263 1.393 . S
C1260 H1249 0.950 . S
C1260 C1258 1.391 . S
C1260 C1261 1.400 . S
C1261 C1255 1.491 . S
C1261 C1260 1.400 . S
C1261 C1262 1.398 . S
C1262 H1250 0.950 . S
C1262 C1261 1.398 . S
C1262 C1263 1.391 . S
C1263 H1251 0.950 . S
C1263 C1259 1.393 . S
C1263 C1262 1.391 . S
H1264 C1272 0.950 . S
H1265 C1277 0.950 . S
H1266 C1274 0.950 . S
H1267 C1276 0.950 . S
H1268 C1278 0.950 . S
H1269 C1280 0.950 . S
H1270 C1282 0.950 . S
H1271 C1283 0.950 . S
C1272 H1264 0.950 . S
C1272 C1273 1.386 . S
C1272 C1274 1.391 . S
C1273 C1272 1.386 . S
C1273 C1277 1.393 . S
C1274 H1266 0.950 . S
C1274 C1272 1.391 . S
C1274 C1275 1.400 . S
C1275 C1274 1.400 . S
C1275 C1276 1.398 . S
C1275 C1281 1.491 . S
C1276 H1267 0.950 . S
C1276 C1275 1.398 . S
C1276 C1277 1.391 . S
C1277 H1265 0.950 . S
C1277 C1273 1.393 . S
C1277 C1276 1.391 . S
C1278 H1268 0.950 . S
C1278 C1279 1.386 . S
C1278 C1280 1.391 . S
C1279 C1278 1.386 . S
C1279 C1283 1.393 . S
C1280 H1269 0.950 . S
C1280 C1278 1.391 . S
C1280 C1281 1.400 . S
C1281 C1275 1.491 . S
C1281 C1280 1.400 . S
C1281 C1282 1.398 . S
C1282 H1270 0.950 . S
C1282 C1281 1.398 . S
C1282 C1283 1.391 . S
C1283 H1271 0.950 . S
C1283 C1279 1.393 . S
C1283 C1282 1.391 . S
H1284 C1292 0.950 . S
H1285 C1297 0.950 . S
H1286 C1294 0.950 . S
H1287 C1296 0.950 . S
H1288 C1298 0.950 . S
H1289 C1300 0.950 . S
H1290 C1302 0.950 . S
H1291 C1303 0.950 . S
C1292 H1284 0.950 . S
C1292 C1293 1.386 . S
C1292 C1294 1.391 . S
C1293 C1292 1.386 . S
C1293 C1297 1.393 . S
C1294 H1286 0.950 . S
C1294 C1292 1.391 . S
C1294 C1295 1.400 . S
C1295 C1294 1.400 . S
C1295 C1296 1.398 . S
C1295 C1301 1.491 . S
C1296 H1287 0.950 . S
C1296 C1295 1.398 . S
C1296 C1297 1.391 . S
C1297 H1285 0.950 . S
C1297 C1293 1.393 . S
C1297 C1296 1.391 . S
C1298 H1288 0.950 . S
C1298 C1299 1.386 . S
C1298 C1300 1.391 . S
C1299 C1298 1.386 . S
C1299 C1303 1.393 . S
C1300 H1289 0.950 . S
C1300 C1298 1.391 . S
C1300 C1301 1.400 . S
C1301 C1295 1.491 . S
C1301 C1300 1.400 . S
C1301 C1302 1.398 . S
C1302 H1290 0.950 . S
C1302 C1301 1.398 . S
C1302 C1303 1.391 . S
C1303 H1291 0.950 . S
C1303 C1299 1.393 . S
C1303 C1302 1.391 . S
H1304 C1312 0.950 . S
H1305 C1317 0.950 . S
H1306 C1314 0.950 . S
H1307 C1316 0.950 . S
H1308 C1318 0.950 . S
H1309 C1320 0.950 . S
H1310 C1322 0.950 . S
H1311 C1323 0.950 . S
C1312 H1304 0.950 . S
C1312 C1313 1.386 . S
C1312 C1314 1.391 . S
C1313 C1312 1.386 . S
C1313 C1317 1.393 . S
C1314 H1306 0.950 . S
C1314 C1312 1.391 . S
C1314 C1315 1.400 . S
C1315 C1314 1.400 . S
C1315 C1316 1.398 . S
C1315 C1321 1.491 . S
C1316 H1307 0.950 . S
C1316 C1315 1.398 . S
C1316 C1317 1.391 . S
C1317 H1305 0.950 . S
C1317 C1313 1.393 . S
C1317 C1316 1.391 . S
C1318 H1308 0.950 . S
C1318 C1319 1.386 . S
C1318 C1320 1.391 . S
C1319 C1318 1.386 . S
C1319 C1323 1.393 . S
C1320 H1309 0.950 . S
C1320 C1318 1.391 . S
C1320 C1321 1.400 . S
C1321 C1315 1.491 . S
C1321 C1320 1.400 . S
C1321 C1322 1.398 . S
C1322 H1310 0.950 . S
C1322 C1321 1.398 . S
C1322 C1323 1.391 . S
C1323 H1311 0.950 . S
C1323 C1319 1.393 . S
C1323 C1322 1.391 . S
H1324 C1332 0.950 . S
H1325 C1337 0.950 . S
H1326 C1334 0.950 . S
H1327 C1336 0.950 . S
H1328 C1338 0.950 . S
H1329 C1340 0.950 . S
H1330 C1342 0.950 . S
H1331 C1343 0.950 . S
C1332 H1324 0.950 . S
C1332 C1333 1.386 . S
C1332 C1334 1.391 . S
C1333 C1332 1.386 . S
C1333 C1337 1.393 . S
C1334 H1326 0.950 . S
C1334 C1332 1.391 . S
C1334 C1335 1.400 . S
C1335 C1334 1.400 . S
C1335 C1336 1.398 . S
C1335 C1341 1.491 . S
C1336 H1327 0.950 . S
C1336 C1335 1.398 . S
C1336 C1337 1.391 . S
C1337 H1325 0.950 . S
C1337 C1333 1.393 . S
C1337 C1336 1.391 . S
C1338 H1328 0.950 . S
C1338 C1339 1.386 . S
C1338 C1340 1.391 . S
C1339 C1338 1.386 . S
C1339 C1343 1.393 . S
C1340 H1329 0.950 . S
C1340 C1338 1.391 . S
C1340 C1341 1.400 . S
C1341 C1335 1.491 . S
C1341 C1340 1.400 . S
C1341 C1342 1.398 . S
C1342 H1330 0.950 . S
C1342 C1341 1.398 . S
C1342 C1343 1.391 . S
C1343 H1331 0.950 . S
C1343 C1339 1.393 . S
C1343 C1342 1.391 . S
H1344 C1352 0.950 . S
H1345 C1357 0.950 . S
H1346 C1354 0.950 . S
H1347 C1356 0.950 . S
H1348 C1358 0.950 . S
H1349 C1360 0.950 . S
H1350 C1362 0.950 . S
H1351 C1363 0.950 . S
C1352 H1344 0.950 . S
C1352 C1353 1.386 . S
C1352 C1354 1.391 . S
C1353 C1352 1.386 . S
C1353 C1357 1.393 . S
C1354 H1346 0.950 . S
C1354 C1352 1.391 . S
C1354 C1355 1.400 . S
C1355 C1354 1.400 . S
C1355 C1356 1.398 . S
C1355 C1361 1.491 . S
C1356 H1347 0.950 . S
C1356 C1355 1.398 . S
C1356 C1357 1.391 . S
C1357 H1345 0.950 . S
C1357 C1353 1.393 . S
C1357 C1356 1.391 . S
C1358 H1348 0.950 . S
C1358 C1359 1.386 . S
C1358 C1360 1.391 . S
C1359 C1358 1.386 . S
C1359 C1363 1.393 . S
C1360 H1349 0.950 . S
C1360 C1358 1.391 . S
C1360 C1361 1.400 . S
C1361 C1355 1.491 . S
C1361 C1360 1.400 . S
C1361 C1362 1.398 . S
C1362 H1350 0.950 . S
C1362 C1361 1.398 . S
C1362 C1363 1.391 . S
C1363 H1351 0.950 . S
C1363 C1359 1.393 . S
C1363 C1362 1.391 . S
H1364 C1372 0.950 . S
H1365 C1377 0.950 . S
H1366 C1374 0.950 . S
H1367 C1376 0.950 . S
H1368 C1378 0.950 . S
H1369 C1380 0.950 . S
H1370 C1382 0.950 . S
H1371 C1383 0.950 . S
C1372 H1364 0.950 . S
C1372 C1373 1.386 . S
C1372 C1374 1.391 . S
C1373 C1372 1.386 . S
C1373 C1377 1.393 . S
C1374 H1366 0.950 . S
C1374 C1372 1.391 . S
C1374 C1375 1.400 . S
C1375 C1374 1.400 . S
C1375 C1376 1.398 . S
C1375 C1381 1.491 . S
C1376 H1367 0.950 . S
C1376 C1375 1.398 . S
C1376 C1377 1.391 . S
C1377 H1365 0.950 . S
C1377 C1373 1.393 . S
C1377 C1376 1.391 . S
C1378 H1368 0.950 . S
C1378 C1379 1.386 . S
C1378 C1380 1.391 . S
C1379 C1378 1.386 . S
C1379 C1383 1.393 . S
C1380 H1369 0.950 . S
C1380 C1378 1.391 . S
C1380 C1381 1.400 . S
C1381 C1375 1.491 . S
C1381 C1380 1.400 . S
C1381 C1382 1.398 . S
C1382 H1370 0.950 . S
C1382 C1381 1.398 . S
C1382 C1383 1.391 . S
C1383 H1371 0.950 . S
C1383 C1379 1.393 . S
C1383 C1382 1.391 . S
H1384 C1392 0.950 . S
H1385 C1397 0.950 . S
H1386 C1394 0.950 . S
H1387 C1396 0.950 . S
H1388 C1398 0.950 . S
H1389 C1400 0.950 . S
H1390 C1402 0.950 . S
H1391 C1403 0.950 . S
C1392 H1384 0.950 . S
C1392 C1393 1.386 . S
C1392 C1394 1.391 . S
C1393 C1392 1.386 . S
C1393 C1397 1.393 . S
C1394 H1386 0.950 . S
C1394 C1392 1.391 . S
C1394 C1395 1.400 . S
C1395 C1394 1.400 . S
C1395 C1396 1.398 . S
C1395 C1401 1.491 . S
C1396 H1387 0.950 . S
C1396 C1395 1.398 . S
C1396 C1397 1.391 . S
C1397 H1385 0.950 . S
C1397 C1393 1.393 . S
C1397 C1396 1.391 . S
C1398 H1388 0.950 . S
C1398 C1399 1.386 . S
C1398 C1400 1.391 . S
C1399 C1398 1.386 . S
C1399 C1403 1.393 . S
C1400 H1389 0.950 . S
C1400 C1398 1.391 . S
C1400 C1401 1.400 . S
C1401 C1395 1.491 . S
C1401 C1400 1.400 . S
C1401 C1402 1.398 . S
C1402 H1390 0.950 . S
C1402 C1401 1.398 . S
C1402 C1403 1.391 . S
C1403 H1391 0.950 . S
C1403 C1399 1.393 . S
C1403 C1402 1.391 . S
H1404 C1412 0.950 . S
H1405 C1417 0.950 . S
H1406 C1414 0.950 . S
H1407 C1416 0.950 . S
H1408 C1418 0.950 . S
H1409 C1420 0.950 . S
H1410 C1422 0.950 . S
H1411 C1423 0.950 . S
C1412 H1404 0.950 . S
C1412 C1413 1.386 . S
C1412 C1414 1.391 . S
C1413 C1412 1.386 . S
C1413 C1417 1.393 . S
C1414 H1406 0.950 . S
C1414 C1412 1.391 . S
C1414 C1415 1.400 . S
C1415 C1414 1.400 . S
C1415 C1416 1.398 . S
C1415 C1421 1.491 . S
C1416 H1407 0.950 . S
C1416 C1415 1.398 . S
C1416 C1417 1.391 . S
C1417 H1405 0.950 . S
C1417 C1413 1.393 . S
C1417 C1416 1.391 . S
C1418 H1408 0.950 . S
C1418 C1419 1.386 . S
C1418 C1420 1.391 . S
C1419 C1418 1.386 . S
C1419 C1423 1.393 . S
C1420 H1409 0.950 . S
C1420 C1418 1.391 . S
C1420 C1421 1.400 . S
C1421 C1415 1.491 . S
C1421 C1420 1.400 . S
C1421 C1422 1.398 . S
C1422 H1410 0.950 . S
C1422 C1421 1.398 . S
C1422 C1423 1.391 . S
C1423 H1411 0.950 . S
C1423 C1419 1.393 . S
C1423 C1422 1.391 . S
H1424 C1432 0.950 . S
H1425 C1437 0.950 . S
H1426 C1434 0.950 . S
H1427 C1436 0.950 . S
H1428 C1438 0.950 . S
H1429 C1440 0.950 . S
H1430 C1442 0.950 . S
H1431 C1443 0.950 . S
C1432 H1424 0.950 . S
C1432 C1433 1.386 . S
C1432 C1434 1.391 . S
C1433 C1432 1.386 . S
C1433 C1437 1.393 . S
C1434 H1426 0.950 . S
C1434 C1432 1.391 . S
C1434 C1435 1.400 . S
C1435 C1434 1.400 . S
C1435 C1436 1.398 . S
C1435 C1441 1.491 . S
C1436 H1427 0.950 . S
C1436 C1435 1.398 . S
C1436 C1437 1.391 . S
C1437 H1425 0.950 . S
C1437 C1433 1.393 . S
C1437 C1436 1.391 . S
C1438 H1428 0.950 . S
C1438 C1439 1.386 . S
C1438 C1440 1.391 . S
C1439 C1438 1.386 . S
C1439 C1443 1.393 . S
C1440 H1429 0.950 . S
C1440 C1438 1.391 . S
C1440 C1441 1.400 . S
C1441 C1435 1.491 . S
C1441 C1440 1.400 . S
C1441 C1442 1.398 . S
C1442 H1430 0.950 . S
C1442 C1441 1.398 . S
C1442 C1443 1.391 . S
C1443 H1431 0.950 . S
C1443 C1439 1.393 . S
C1443 C1442 1.391 . S
H1444 C1452 0.950 . S
H1445 C1457 0.950 . S
H1446 C1454 0.950 . S
H1447 C1456 0.950 . S
H1448 C1458 0.950 . S
H1449 C1460 0.950 . S
H1450 C1462 0.950 . S
H1451 C1463 0.950 . S
C1452 H1444 0.950 . S
C1452 C1453 1.386 . S
C1452 C1454 1.391 . S
C1453 C1452 1.386 . S
C1453 C1457 1.393 . S
C1454 H1446 0.950 . S
C1454 C1452 1.391 . S
C1454 C1455 1.400 . S
C1455 C1454 1.400 . S
C1455 C1456 1.398 . S
C1455 C1461 1.491 . S
C1456 H1447 0.950 . S
C1456 C1455 1.398 . S
C1456 C1457 1.391 . S
C1457 H1445 0.950 . S
C1457 C1453 1.393 . S
C1457 C1456 1.391 . S
C1458 H1448 0.950 . S
C1458 C1459 1.386 . S
C1458 C1460 1.391 . S
C1459 C1458 1.386 . S
C1459 C1463 1.393 . S
C1460 H1449 0.950 . S
C1460 C1458 1.391 . S
C1460 C1461 1.400 . S
C1461 C1455 1.491 . S
C1461 C1460 1.400 . S
C1461 C1462 1.398 . S
C1462 H1450 0.950 . S
C1462 C1461 1.398 . S
C1462 C1463 1.391 . S
C1463 H1451 0.950 . S
C1463 C1459 1.393 . S
C1463 C1462 1.391 . S
H1464 C1472 0.950 . S
H1465 C1477 0.950 . S
H1466 C1474 0.950 . S
H1467 C1476 0.950 . S
H1468 C1478 0.950 . S
H1469 C1480 0.950 . S
H1470 C1482 0.950 . S
H1471 C1483 0.950 . S
C1472 H1464 0.950 . S
C1472 C1473 1.386 . S
C1472 C1474 1.391 . S
C1473 C1472 1.386 . S
C1473 C1477 1.393 . S
C1474 H1466 0.950 . S
C1474 C1472 1.391 . S
C1474 C1475 1.400 . S
C1475 C1474 1.400 . S
C1475 C1476 1.398 . S
C1475 C1481 1.491 . S
C1476 H1467 0.950 . S
C1476 C1475 1.398 . S
C1476 C1477 1.391 . S
C1477 H1465 0.950 . S
C1477 C1473 1.393 . S
C1477 C1476 1.391 . S
C1478 H1468 0.950 . S
C1478 C1479 1.386 . S
C1478 C1480 1.391 . S
C1479 C1478 1.386 . S
C1479 C1483 1.393 . S
C1480 H1469 0.950 . S
C1480 C1478 1.391 . S
C1480 C1481 1.400 . S
C1481 C1475 1.491 . S
C1481 C1480 1.400 . S
C1481 C1482 1.398 . S
C1482 H1470 0.950 . S
C1482 C1481 1.398 . S
C1482 C1483 1.391 . S
C1483 H1471 0.950 . S
C1483 C1479 1.393 . S
C1483 C1482 1.391 . S
H1484 C1492 0.950 . S
H1485 C1497 0.950 . S
H1486 C1494 0.950 . S
H1487 C1496 0.950 . S
H1488 C1498 0.950 . S
H1489 C1500 0.950 . S
H1490 C1502 0.950 . S
H1491 C1503 0.950 . S
C1492 H1484 0.950 . S
C1492 C1493 1.386 . S
C1492 C1494 1.391 . S
C1493 C1492 1.386 . S
C1493 C1497 1.393 . S
C1494 H1486 0.950 . S
C1494 C1492 1.391 . S
C1494 C1495 1.400 . S
C1495 C1494 1.400 . S
C1495 C1496 1.398 . S
C1495 C1501 1.491 . S
C1496 H1487 0.950 . S
C1496 C1495 1.398 . S
C1496 C1497 1.391 . S
C1497 H1485 0.950 . S
C1497 C1493 1.393 . S
C1497 C1496 1.391 . S
C1498 H1488 0.950 . S
C1498 C1499 1.386 . S
C1498 C1500 1.391 . S
C1499 C1498 1.386 . S
C1499 C1503 1.393 . S
C1500 H1489 0.950 . S
C1500 C1498 1.391 . S
C1500 C1501 1.400 . S
C1501 C1495 1.491 . S
C1501 C1500 1.400 . S
C1501 C1502 1.398 . S
C1502 H1490 0.950 . S
C1502 C1501 1.398 . S
C1502 C1503 1.391 . S
C1503 H1491 0.950 . S
C1503 C1499 1.393 . S
C1503 C1502 1.391 . S
H1504 C1512 0.950 . S
H1505 C1517 0.950 . S
H1506 C1514 0.950 . S
H1507 C1516 0.950 . S
H1508 C1518 0.950 . S
H1509 C1520 0.950 . S
H1510 C1522 0.950 . S
H1511 C1523 0.950 . S
C1512 H1504 0.950 . S
C1512 C1513 1.386 . S
C1512 C1514 1.391 . S
C1513 C1512 1.386 . S
C1513 C1517 1.393 . S
C1514 H1506 0.950 . S
C1514 C1512 1.391 . S
C1514 C1515 1.400 . S
C1515 C1514 1.400 . S
C1515 C1516 1.398 . S
C1515 C1521 1.491 . S
C1516 H1507 0.950 . S
C1516 C1515 1.398 . S
C1516 C1517 1.391 . S
C1517 H1505 0.950 . S
C1517 C1513 1.393 . S
C1517 C1516 1.391 . S
C1518 H1508 0.950 . S
C1518 C1519 1.386 . S
C1518 C1520 1.391 . S
C1519 C1518 1.386 . S
C1519 C1523 1.393 . S
C1520 H1509 0.950 . S
C1520 C1518 1.391 . S
C1520 C1521 1.400 . S
C1521 C1515 1.491 . S
C1521 C1520 1.400 . S
C1521 C1522 1.398 . S
C1522 H1510 0.950 . S
C1522 C1521 1.398 . S
C1522 C1523 1.391 . S
C1523 H1511 0.950 . S
C1523 C1519 1.393 . S
C1523 C1522 1.391 . S
H1524 C1532 0.950 . S
H1525 C1537 0.950 . S
H1526 C1534 0.950 . S
H1527 C1536 0.950 . S
H1528 C1538 0.950 . S
H1529 C1540 0.950 . S
H1530 C1542 0.950 . S
H1531 C1543 0.950 . S
C1532 H1524 0.950 . S
C1532 C1533 1.386 . S
C1532 C1534 1.391 . S
C1533 C1532 1.386 . S
C1533 C1537 1.393 . S
C1534 H1526 0.950 . S
C1534 C1532 1.391 . S
C1534 C1535 1.400 . S
C1535 C1534 1.400 . S
C1535 C1536 1.398 . S
C1535 C1541 1.491 . S
C1536 H1527 0.950 . S
C1536 C1535 1.398 . S
C1536 C1537 1.391 . S
C1537 H1525 0.950 . S
C1537 C1533 1.393 . S
C1537 C1536 1.391 . S
C1538 H1528 0.950 . S
C1538 C1539 1.386 . S
C1538 C1540 1.391 . S
C1539 C1538 1.386 . S
C1539 C1543 1.393 . S
C1540 H1529 0.950 . S
C1540 C1538 1.391 . S
C1540 C1541 1.400 . S
C1541 C1535 1.491 . S
C1541 C1540 1.400 . S
C1541 C1542 1.398 . S
C1542 H1530 0.950 . S
C1542 C1541 1.398 . S
C1542 C1543 1.391 . S
C1543 H1531 0.950 . S
C1543 C1539 1.393 . S
C1543 C1542 1.391 . S
H1544 C1552 0.950 . S
H1545 C1557 0.950 . S
H1546 C1554 0.950 . S
H1547 C1556 0.950 . S
H1548 C1558 0.950 . S
H1549 C1560 0.950 . S
H1550 C1562 0.950 . S
H1551 C1563 0.950 . S
C1552 H1544 0.950 . S
C1552 C1553 1.386 . S
C1552 C1554 1.391 . S
C1553 C1552 1.386 . S
C1553 C1557 1.393 . S
C1554 H1546 0.950 . S
C1554 C1552 1.391 . S
C1554 C1555 1.400 . S
C1555 C1554 1.400 . S
C1555 C1556 1.398 . S
C1555 C1561 1.491 . S
C1556 H1547 0.950 . S
C1556 C1555 1.398 . S
C1556 C1557 1.391 . S
C1557 H1545 0.950 . S
C1557 C1553 1.393 . S
C1557 C1556 1.391 . S
C1558 H1548 0.950 . S
C1558 C1559 1.386 . S
C1558 C1560 1.391 . S
C1559 C1558 1.386 . S
C1559 C1563 1.393 . S
C1560 H1549 0.950 . S
C1560 C1558 1.391 . S
C1560 C1561 1.400 . S
C1561 C1555 1.491 . S
C1561 C1560 1.400 . S
C1561 C1562 1.398 . S
C1562 H1550 0.950 . S
C1562 C1561 1.398 . S
C1562 C1563 1.391 . S
C1563 H1551 0.950 . S
C1563 C1559 1.393 . S
C1563 C1562 1.391 . S
H1564 C1572 0.950 . S
H1565 C1577 0.950 . S
H1566 C1574 0.950 . S
H1567 C1576 0.950 . S
H1568 C1578 0.950 . S
H1569 C1580 0.950 . S
H1570 C1582 0.950 . S
H1571 C1583 0.950 . S
C1572 H1564 0.950 . S
C1572 C1573 1.386 . S
C1572 C1574 1.391 . S
C1573 C1572 1.386 . S
C1573 C1577 1.393 . S
C1574 H1566 0.950 . S
C1574 C1572 1.391 . S
C1574 C1575 1.400 . S
C1575 C1574 1.400 . S
C1575 C1576 1.398 . S
C1575 C1581 1.491 . S
C1576 H1567 0.950 . S
C1576 C1575 1.398 . S
C1576 C1577 1.391 . S
C1577 H1565 0.950 . S
C1577 C1573 1.393 . S
C1577 C1576 1.391 . S
C1578 H1568 0.950 . S
C1578 C1579 1.386 . S
C1578 C1580 1.391 . S
C1579 C1578 1.386 . S
C1579 C1583 1.393 . S
C1580 H1569 0.950 . S
C1580 C1578 1.391 . S
C1580 C1581 1.400 . S
C1581 C1575 1.491 . S
C1581 C1580 1.400 . S
C1581 C1582 1.398 . S
C1582 H1570 0.950 . S
C1582 C1581 1.398 . S
C1582 C1583 1.391 . S
C1583 H1571 0.950 . S
C1583 C1579 1.393 . S
C1583 C1582 1.391 . S
C953 C859 1.512 . S
C959 C33 1.512 . S
C973 C123 1.509 . S
C979 C5 1.509 . S
C993 C654 1.511 . S
C999 C64 1.511 . S
C1013 C92 1.512 . S
C1019 C446 1.512 . S
C1033 C151 1.512 . S
C1039 C741 1.512 . S
C1053 C536 1.507 . S
C1059 C182 1.507 . S
C1073 C210 1.512 . S
C1079 C328 1.512 . S
C1093 C623 1.512 . S
C1099 C269 1.512 . S
C1113 C241 1.510 . S
C1119 C359 1.510 . S
C1133 C890 1.506 . S
C1139 C300 1.506 . S
C1153 C505 1.512 . S
C1159 C387 1.512 . S
C1173 C772 1.506 . S
C1179 C418 1.506 . S
C1193 C477 1.506 . S
C1199 C595 1.506 . S
C1213 C918 1.511 . S
C1219 C564 1.511 . S
C1233 C682 1.511 . S
C1239 C800 1.511 . S
C1253 C831 1.507 . S
C1259 C713 1.507 . S
C1273 C347 1.596 . S
C1279 C3 1.596 . S
C1293 C52 1.597 . S
C1299 C298 1.584 . S
C1313 C111 1.596 . S
C1319 C239 1.586 . S
C1333 C288 1.596 . S
C1339 C62 1.593 . S
C1353 C465 1.598 . S
C1359 C121 1.597 . S
C1373 C416 1.588 . S
C1379 C170 1.598 . S
C1393 C357 1.582 . S
C1399 C229 1.597 . S
C1413 C180 1.588 . S
C1419 C406 1.597 . S
C1433 C819 1.597 . S
C1439 C475 1.586 . S
C1453 C524 1.598 . S
C1459 C770 1.585 . S
C1473 C583 1.598 . S
C1479 C711 1.590 . S
C1493 C760 1.597 . S
C1499 C534 1.598 . S
C1513 C937 1.596 . S
C1519 C593 1.590 . S
C1533 C888 1.593 . S
C1539 C642 1.597 . S
C1553 C701 1.598 . S
C1559 C829 1.590 . S
C1573 C878 1.598 . S
C1579 C652 1.593 . S
