# Generated by pormake.
# Topology unh, (4)-cn, num edge types: 1
# Building blocks:
#     Node 0, Type 0, BuildingBlock: ICAMEG_clean_sbu_1, # of connection points: 4
#     Node 1, Type 0, BuildingBlock: ICAMEG_clean_sbu_1, # of connection points: 4
#     Node 2, Type 0, BuildingBlock: ICAMEG_clean_sbu_1, # of connection points: 4
#     Node 3, Type 0, BuildingBlock: ICAMEG_clean_sbu_1, # of connection points: 4
#     Node 4, Type 0, BuildingBlock: ICAMEG_clean_sbu_1, # of connection points: 4
#     Node 5, Type 0, BuildingBlock: ICAMEG_clean_sbu_1, # of connection points: 4
#     Edge 6, Type (0, 0), BuildingBlock: TEMPAE_clean_linker_10, # of connection points: 2
#     Edge 7, Type (0, 0), BuildingBlock: TEMPAE_clean_linker_10, # of connection points: 2
#     Edge 8, Type (0, 0), BuildingBlock: TEMPAE_clean_linker_10, # of connection points: 2
#     Edge 9, Type (0, 0), BuildingBlock: TEMPAE_clean_linker_10, # of connection points: 2
#     Edge 10, Type (0, 0), BuildingBlock: TEMPAE_clean_linker_10, # of connection points: 2
#     Edge 11, Type (0, 0), BuildingBlock: TEMPAE_clean_linker_10, # of connection points: 2
#     Edge 12, Type (0, 0), BuildingBlock: TEMPAE_clean_linker_10, # of connection points: 2
#     Edge 13, Type (0, 0), BuildingBlock: TEMPAE_clean_linker_10, # of connection points: 2
#     Edge 14, Type (0, 0), BuildingBlock: TEMPAE_clean_linker_10, # of connection points: 2
#     Edge 15, Type (0, 0), BuildingBlock: TEMPAE_clean_linker_10, # of connection points: 2
#     Edge 16, Type (0, 0), BuildingBlock: TEMPAE_clean_linker_10, # of connection points: 2
#     Edge 17, Type (0, 0), BuildingBlock: TEMPAE_clean_linker_10, # of connection points: 2
# Relax obj value: 0.020
# Max RMSD: 0.108
# Mean RMSD: 0.108
data_MOF--net-unh--node1-ICAMEG_clean_sbu_1--edge1-TEMPAE_clean_linker_10
_symmetry_space_group_name_H-M    P1
_symmetry_Int_Tables_number       1
_symmetry_cell_setting            triclinic
loop_
_symmetry_equiv_pos_as_xyz
'x, y, z'
_cell_length_a     44.709278
_cell_length_b     44.691775
_cell_length_c     24.8604
_cell_angle_alpha  89.992763
_cell_angle_beta   90.008873
_cell_angle_gamma 119.99882
loop_
_atom_site_label
_atom_site_type_symbol
_atom_site_fract_x
_atom_site_fract_y
_atom_site_fract_z
_atom_type_partial_charge
Co0 Co 0.14382 0.54189 0.03709 0.0
Co1 Co 0.14371 0.60018 0.12863 0.0
O2 O 0.1204 0.55933 0.08282 0.0
C3 C 0.0979 0.55303 0.96514 0.0
O4 O 0.1085 0.5825 0.99013 0.0
C5 C 0.09769 0.54303 0.20041 0.0
O6 O 0.10827 0.52415 0.17542 0.0
O7 O 0.17504 0.58466 0.15802 0.0
O8 O 0.17812 0.55011 0.09518 0.0
H9 H 0.24637 0.70291 0.21075 0.0
H10 H 0.06813 0.49948 0.05355 0.0
O11 O 0.10994 0.5335 0.97795 0.0
H12 H 0.11601 0.42842 0.12145 0.0
H13 H 0.14808 0.46064 0.90114 0.0
H14 H 0.21693 0.56349 0.01395 0.0
H15 H 0.15429 0.48602 0.08257 0.0
H16 H 0.11942 0.48286 0.96063 0.0
O17 O 0.10976 0.57463 0.18764 0.0
H18 H 0.21677 0.65174 0.15206 0.0
H19 H 0.11915 0.63472 0.20497 0.0
H20 H 0.24665 0.54201 0.95537 0.0
H21 H 0.02888 0.44191 0.09166 0.0
H22 H 0.21215 0.49021 0.89842 0.0
H23 H 0.05281 0.40601 0.12615 0.0
O24 O 0.17517 0.58878 0.00783 0.0
H25 H 0.02883 0.58512 0.07355 0.0
H26 H 0.1542 0.66652 0.08315 0.0
H27 H 0.11596 0.68581 0.04407 0.0
H28 H 0.05278 0.64497 0.03911 0.0
H29 H 0.06804 0.56682 0.11185 0.0
H30 H 0.14769 0.68557 0.26456 0.0
H31 H 0.21175 0.72012 0.26754 0.0
O32 O 0.17809 0.62632 0.07071 0.0
C33 C 0.1874 0.5664 0.13981 0.0
C34 C 0.21844 0.68814 0.20966 0.0
C35 C 0.16305 0.67837 0.23992 0.0
N36 N 0.16629 0.64046 0.17478 0.0
C37 C 0.20154 0.65921 0.17639 0.0
C38 C 0.14704 0.64958 0.20619 0.0
C39 C 0.199 0.69776 0.24156 0.0
C40 C 0.07869 0.48385 0.06788 0.0
N41 N 0.11344 0.49603 0.0656 0.0
C42 C 0.05636 0.45133 0.08964 0.0
C43 C 0.06981 0.43124 0.10909 0.0
C44 C 0.10527 0.44381 0.10651 0.0
C45 C 0.12683 0.47647 0.08457 0.0
C46 C 0.16339 0.48318 0.92585 0.0
C47 C 0.20175 0.5408 0.98956 0.0
C48 C 0.14731 0.49591 0.95953 0.0
N49 N 0.1665 0.52426 0.99103 0.0
C50 C 0.21872 0.52882 0.95634 0.0
C51 C 0.19935 0.49978 0.92436 0.0
C52 C 0.18747 0.61939 0.02612 0.0
C53 C 0.05629 0.6032 0.07568 0.0
C54 C 0.12675 0.64859 0.08104 0.0
C55 C 0.10521 0.65967 0.05898 0.0
C56 C 0.06976 0.63676 0.05626 0.0
N57 N 0.11335 0.61562 0.09998 0.0
C58 C 0.07861 0.59303 0.09756 0.0
Co59 Co 0.60346 0.14485 0.20792 0.0
Co60 Co 0.54221 0.14548 0.29099 0.0
O61 O 0.56082 0.12198 0.24888 0.0
C62 C 0.55148 0.10176 0.12639 0.0
O63 O 0.5348 0.1181 0.13828 0.0
C64 C 0.54847 0.09967 0.37025 0.0
O65 O 0.58145 0.11499 0.35825 0.0
O66 O 0.58765 0.17511 0.32663 0.0
O67 O 0.62718 0.17953 0.26632 0.0
H68 H 0.54115 0.24804 0.37155 0.0
H69 H 0.56849 0.06942 0.22903 0.0
O70 O 0.58002 0.10985 0.14941 0.0
H71 H 0.68496 0.11729 0.30707 0.0
H72 H 0.69394 0.14696 0.08503 0.0
H73 H 0.65647 0.21762 0.18557 0.0
H74 H 0.66782 0.15528 0.26101 0.0
H75 H 0.64062 0.11924 0.13936 0.0
O76 O 0.52889 0.10917 0.34797 0.0
H77 H 0.56459 0.21851 0.3167 0.0
H78 H 0.47916 0.1209 0.35853 0.0
H79 H 0.71008 0.2464 0.13209 0.0
H80 H 0.58463 0.03046 0.27436 0.0
H81 H 0.72913 0.21099 0.08133 0.0
H82 H 0.64322 0.05437 0.3139 0.0
O83 O 0.58973 0.17657 0.17366 0.0
H84 H 0.44416 0.0342 0.21999 0.0
H85 H 0.49064 0.15967 0.23832 0.0
H86 H 0.43546 0.12424 0.19081 0.0
H87 H 0.41185 0.06101 0.18147 0.0
H88 H 0.49937 0.07064 0.26682 0.0
H89 H 0.4549 0.14937 0.41419 0.0
H90 H 0.48591 0.2134 0.42077 0.0
O91 O 0.55509 0.18157 0.23423 0.0
C92 C 0.61884 0.18792 0.31058 0.0
C93 C 0.52734 0.22013 0.36886 0.0
C94 C 0.47895 0.16474 0.39286 0.0
N95 N 0.52311 0.16805 0.33411 0.0
C96 C 0.54043 0.20327 0.33774 0.0
C97 C 0.49285 0.14877 0.36139 0.0
C98 C 0.49636 0.20068 0.39651 0.0
C99 C 0.59415 0.07999 0.24565 0.0
N100 N 0.61727 0.11457 0.24203 0.0
C101 C 0.60309 0.05781 0.27147 0.0
C102 C 0.63595 0.07125 0.29372 0.0
C103 C 0.65937 0.10655 0.28992 0.0
C104 C 0.64951 0.12795 0.26387 0.0
C105 C 0.68594 0.16266 0.10704 0.0
C106 C 0.66471 0.20204 0.16385 0.0
C107 C 0.65575 0.14712 0.13776 0.0
N108 N 0.64561 0.16681 0.16589 0.0
C109 C 0.69503 0.21848 0.13352 0.0
C110 C 0.70568 0.19859 0.10501 0.0
C111 C 0.57231 0.19029 0.19042 0.0
C112 C 0.45412 0.06171 0.22395 0.0
C113 C 0.48056 0.13219 0.23436 0.0
C114 C 0.44927 0.11225 0.20749 0.0
C115 C 0.43603 0.07677 0.20228 0.0
N116 N 0.49811 0.11722 0.25563 0.0
C117 C 0.48531 0.08246 0.25062 0.0
Co118 Co 0.39496 0.54069 0.4593 0.0
Co119 Co 0.45611 0.60205 0.37547 0.0
O120 O 0.43755 0.56018 0.41824 0.0
C121 C 0.44704 0.54991 0.54084 0.0
O122 O 0.46378 0.58287 0.5284 0.0
C123 C 0.45002 0.54961 0.29706 0.0
O124 O 0.41701 0.53195 0.30889 0.0
O125 O 0.41065 0.58588 0.33968 0.0
O126 O 0.37122 0.55142 0.40063 0.0
H127 H 0.45685 0.70497 0.29262 0.0
H128 H 0.42971 0.49995 0.43905 0.0
O129 O 0.41842 0.52938 0.5181 0.0
H130 H 0.31312 0.43117 0.36148 0.0
H131 H 0.30453 0.45308 0.58317 0.0
H132 H 0.34212 0.56073 0.48113 0.0
H133 H 0.33049 0.48661 0.40667 0.0
H134 H 0.35777 0.47829 0.52865 0.0
O135 O 0.46953 0.57879 0.31913 0.0
H136 H 0.43354 0.65236 0.34838 0.0
H137 H 0.51917 0.64026 0.30787 0.0
H138 H 0.2886 0.5363 0.53478 0.0
H139 H 0.41334 0.44452 0.3946 0.0
H140 H 0.26949 0.48208 0.58629 0.0
H141 H 0.35469 0.40976 0.3553 0.0
O142 O 0.40884 0.58633 0.49292 0.0
H143 H 0.5543 0.5896 0.44787 0.0
H144 H 0.50753 0.6682 0.42736 0.0
H145 H 0.56271 0.68839 0.4751 0.0
H146 H 0.58647 0.64897 0.48554 0.0
H147 H 0.49909 0.57039 0.40079 0.0
H148 H 0.54331 0.69261 0.25131 0.0
H149 H 0.51213 0.72541 0.2436 0.0
O150 O 0.44314 0.62556 0.4316 0.0
C151 C 0.3795 0.56773 0.35598 0.0
C152 C 0.47074 0.69097 0.2958 0.0
C153 C 0.51924 0.684 0.27256 0.0
N154 N 0.47513 0.64345 0.33169 0.0
C155 C 0.45771 0.66122 0.32744 0.0
C156 C 0.50541 0.65434 0.30453 0.0
C157 C 0.50174 0.7024 0.26826 0.0
C158 C 0.40403 0.48481 0.42253 0.0
N159 N 0.381 0.4964 0.42581 0.0
C160 C 0.39495 0.45351 0.3972 0.0
C161 C 0.36206 0.43405 0.37509 0.0
C162 C 0.33873 0.44605 0.37853 0.0
C163 C 0.34873 0.47749 0.40409 0.0
C164 C 0.31256 0.47668 0.56083 0.0
C165 C 0.33385 0.53701 0.50317 0.0
C166 C 0.3427 0.4911 0.53 0.0
N167 N 0.35287 0.52079 0.50145 0.0
C168 C 0.30358 0.52336 0.5336 0.0
C169 C 0.2929 0.49296 0.56254 0.0
C170 C 0.4261 0.61735 0.47559 0.0
C171 C 0.54427 0.60705 0.44342 0.0
C172 C 0.51767 0.65088 0.4318 0.0
C173 C 0.54896 0.66248 0.45879 0.0
C174 C 0.56228 0.64035 0.46461 0.0
N175 N 0.50021 0.61822 0.411 0.0
C176 C 0.51309 0.59637 0.41661 0.0
Co177 Co 0.85522 0.45643 0.53696 0.0
Co178 Co 0.8549 0.39799 0.62866 0.0
O179 O 0.87843 0.43879 0.58279 0.0
C180 C 0.90099 0.44498 0.46515 0.0
O181 O 0.89034 0.41553 0.49024 0.0
C182 C 0.90114 0.45506 0.70036 0.0
O183 O 0.89072 0.47404 0.67529 0.0
O184 O 0.82378 0.41378 0.65793 0.0
O185 O 0.82096 0.44844 0.59499 0.0
H186 H 0.75188 0.29562 0.71076 0.0
H187 H 0.93094 0.49849 0.55352 0.0
O188 O 0.88905 0.46461 0.47787 0.0
H189 H 0.88365 0.57014 0.62106 0.0
H190 H 0.85152 0.53789 0.40079 0.0
H191 H 0.78221 0.43519 0.51368 0.0
H192 H 0.84514 0.51258 0.58224 0.0
H193 H 0.87994 0.51547 0.46043 0.0
O194 O 0.8889 0.42343 0.68768 0.0
H195 H 0.78173 0.34674 0.65202 0.0
H196 H 0.87912 0.36321 0.70516 0.0
H197 H 0.75274 0.45689 0.45495 0.0
H198 H 0.97041 0.55601 0.59155 0.0
H199 H 0.78747 0.5086 0.39796 0.0
H200 H 0.94679 0.5922 0.62586 0.0
O201 O 0.82369 0.40958 0.50775 0.0
H202 H 0.96952 0.41226 0.5739 0.0
H203 H 0.84401 0.33147 0.58328 0.0
H204 H 0.882 0.31183 0.54439 0.0
H205 H 0.94526 0.35236 0.53955 0.0
H206 H 0.93056 0.43092 0.61202 0.0
H207 H 0.85032 0.31241 0.76481 0.0
H208 H 0.78624 0.27816 0.7677 0.0
O209 O 0.82048 0.37196 0.57071 0.0
C210 C 0.81159 0.43218 0.63964 0.0
C211 C 0.77981 0.31026 0.70971 0.0
C212 C 0.83507 0.31971 0.7401 0.0
N213 N 0.83211 0.35774 0.67485 0.0
C214 C 0.79686 0.33916 0.67641 0.0
C215 C 0.85123 0.34848 0.70634 0.0
C216 C 0.79911 0.3005 0.74169 0.0
C217 C 0.9205 0.51425 0.56776 0.0
N218 N 0.88579 0.50225 0.56543 0.0
C219 C 0.94297 0.54674 0.58949 0.0
C220 C 0.92968 0.567 0.60884 0.0
C221 C 0.89426 0.55462 0.6062 0.0
C222 C 0.87257 0.52197 0.5843 0.0
C223 C 0.83611 0.51538 0.42552 0.0
C224 C 0.7975 0.45785 0.48927 0.0
C225 C 0.85205 0.50254 0.45928 0.0
N226 N 0.83274 0.47423 0.4908 0.0
C227 C 0.78066 0.46995 0.45597 0.0
C228 C 0.80017 0.49894 0.42396 0.0
C229 C 0.81121 0.37896 0.52607 0.0
C230 C 0.94202 0.39432 0.57599 0.0
C231 C 0.87149 0.34928 0.58122 0.0
C232 C 0.89289 0.33798 0.55927 0.0
C233 C 0.92838 0.36073 0.55662 0.0
N234 N 0.88507 0.38226 0.60012 0.0
C235 C 0.91985 0.40469 0.59776 0.0
Co236 Co 0.39374 0.85426 0.70771 0.0
Co237 Co 0.45539 0.85441 0.7908 0.0
O238 O 0.43637 0.87753 0.74864 0.0
C239 C 0.44552 0.89766 0.62621 0.0
O240 O 0.46249 0.88162 0.63828 0.0
C241 C 0.44867 0.90002 0.86988 0.0
O242 O 0.41569 0.8845 0.85782 0.0
O243 O 0.41004 0.82447 0.8265 0.0
O244 O 0.37032 0.81954 0.76616 0.0
H245 H 0.45767 0.75251 0.87157 0.0
H246 H 0.428 0.92967 0.72861 0.0
O247 O 0.41689 0.88929 0.64913 0.0
H248 H 0.31148 0.88073 0.80683 0.0
H249 H 0.3027 0.85101 0.58479 0.0
H250 H 0.34126 0.78128 0.6855 0.0
H251 H 0.32916 0.84314 0.76087 0.0
H252 H 0.35603 0.87923 0.63908 0.0
O253 O 0.46841 0.89069 0.84771 0.0
H254 H 0.43373 0.78157 0.81667 0.0
H255 H 0.51856 0.87962 0.85826 0.0
H256 H 0.28765 0.752 0.63207 0.0
H257 H 0.4113 0.96824 0.77382 0.0
H258 H 0.26805 0.78694 0.58123 0.0
H259 H 0.35268 0.94378 0.81346 0.0
O260 O 0.4079 0.82287 0.67352 0.0
H261 H 0.55265 0.96612 0.71956 0.0
H262 H 0.50741 0.84087 0.73817 0.0
H263 H 0.56246 0.8767 0.69056 0.0
H264 H 0.58545 0.93983 0.68107 0.0
H265 H 0.49759 0.92929 0.76649 0.0
H266 H 0.54332 0.85164 0.91397 0.0
H267 H 0.51287 0.78762 0.9207 0.0
O268 O 0.44282 0.81834 0.7341 0.0
C269 C 0.37882 0.81134 0.81046 0.0
C270 C 0.47124 0.78042 0.86882 0.0
C271 C 0.51929 0.83606 0.89268 0.0
N272 N 0.47488 0.83222 0.83395 0.0
C273 C 0.45786 0.79701 0.83767 0.0
C274 C 0.50512 0.85176 0.86118 0.0
C275 C 0.50219 0.80014 0.89642 0.0
C276 C 0.40233 0.91887 0.74526 0.0
N277 N 0.3795 0.88422 0.74175 0.0
C278 C 0.39307 0.94082 0.77103 0.0
C279 C 0.3602 0.92708 0.79333 0.0
C280 C 0.33707 0.8917 0.78964 0.0
C281 C 0.34725 0.87053 0.76365 0.0
C282 C 0.31094 0.8355 0.60684 0.0
C283 C 0.33278 0.79665 0.66374 0.0
C284 C 0.34114 0.85133 0.63754 0.0
N285 N 0.35158 0.8319 0.66571 0.0
C286 C 0.30246 0.77993 0.63344 0.0
C287 C 0.2915 0.79955 0.60488 0.0
C288 C 0.42558 0.80944 0.6903 0.0
C289 C 0.54296 0.93867 0.72358 0.0
C290 C 0.51721 0.8683 0.73414 0.0
C291 C 0.54843 0.88847 0.70722 0.0
C292 C 0.56132 0.92389 0.70193 0.0
N293 N 0.4994 0.88299 0.75538 0.0
C294 C 0.51186 0.9177 0.75031 0.0
Co295 Co 0.60577 0.46028 0.95961 0.0
Co296 Co 0.54416 0.3993 0.87589 0.0
O297 O 0.56316 0.44119 0.91866 0.0
C298 C 0.55398 0.45151 0.04133 0.0
O299 O 0.53701 0.41856 0.02889 0.0
C300 C 0.55072 0.45197 0.79753 0.0
O301 O 0.58375 0.46938 0.80927 0.0
O302 O 0.58949 0.41503 0.83996 0.0
O303 O 0.62917 0.44923 0.90081 0.0
H304 H 0.54206 0.29579 0.79282 0.0
H305 H 0.57168 0.50167 0.93961 0.0
O306 O 0.58262 0.47188 0.01853 0.0
H307 H 0.6883 0.56952 0.8618 0.0
H308 H 0.69682 0.54728 0.0834 0.0
H309 H 0.65812 0.43952 0.98115 0.0
H310 H 0.67043 0.51393 0.90687 0.0
H311 H 0.64353 0.52256 0.02903 0.0
O312 O 0.53102 0.42285 0.81963 0.0
H313 H 0.56595 0.34842 0.84859 0.0
H314 H 0.48092 0.36163 0.80847 0.0
H315 H 0.71167 0.46345 0.03464 0.0
H316 H 0.58856 0.55725 0.89529 0.0
H317 H 0.73134 0.51773 0.08626 0.0
H318 H 0.64723 0.59155 0.85586 0.0
O319 O 0.5915 0.41452 0.99315 0.0
H320 H 0.44685 0.41306 0.94874 0.0
H321 H 0.49229 0.33337 0.92782 0.0
H322 H 0.43728 0.31375 0.97577 0.0
H323 H 0.4142 0.35372 0.98642 0.0
H324 H 0.50187 0.43169 0.90143 0.0
H325 H 0.45622 0.30926 0.75191 0.0
H326 H 0.48679 0.27589 0.74399 0.0
O327 O 0.55683 0.37548 0.93192 0.0
C328 C 0.6207 0.43292 0.85617 0.0
C329 C 0.52843 0.31004 0.79609 0.0
C330 C 0.48028 0.31763 0.77306 0.0
N331 N 0.52469 0.35789 0.8321 0.0
C332 C 0.54178 0.3398 0.82773 0.0
C333 C 0.49442 0.34729 0.80504 0.0
C334 C 0.49744 0.29891 0.76866 0.0
C335 C 0.59737 0.5166 0.92304 0.0
N336 N 0.62013 0.50467 0.9262 0.0
C337 C 0.60673 0.54799 0.89779 0.0
C338 C 0.63963 0.5672 0.8756 0.0
C339 C 0.66268 0.55484 0.8789 0.0
C340 C 0.6524 0.52332 0.9044 0.0
C341 C 0.68855 0.52366 0.06101 0.0
C342 C 0.66663 0.46326 0.00324 0.0
C343 C 0.65837 0.5095 0.03026 0.0
N344 N 0.6479 0.47978 0.00166 0.0
C345 C 0.69692 0.47663 0.03358 0.0
C346 C 0.70791 0.50706 0.06257 0.0
C347 C 0.57394 0.38353 0.97583 0.0
C348 C 0.45658 0.39536 0.9442 0.0
C349 C 0.48244 0.35092 0.93234 0.0
C350 C 0.45125 0.33965 0.95946 0.0
C351 C 0.4383 0.36208 0.9654 0.0
N352 N 0.50017 0.38357 0.91154 0.0
C353 C 0.48766 0.40572 0.91726 0.0
C354 C 0.06903 0.52081 0.88139 0.0
C355 C 0.06997 0.54109 0.92501 0.0
C356 C 0.04193 0.5083 0.84392 0.0
C357 C 0.0145 0.51514 0.85153 0.0
C358 C 0.01531 0.53549 0.89579 0.0
C359 C 0.04339 0.54875 0.9315 0.0
C360 C 0.0426 0.48766 0.79631 0.0
C361 C 0.98604 0.5424 0.90633 0.0
C362 C 0.95604 0.505 0.73351 0.0
C363 C 0.92911 0.47096 0.74043 0.0
C364 C 0.98414 0.5197 0.7692 0.0
C365 C 0.98461 0.50026 0.81387 0.0
C366 C 0.95683 0.46621 0.82191 0.0
C367 C 0.92972 0.45172 0.78445 0.0
C368 C 0.01378 0.55561 0.7582 0.0
C369 C 0.9558 0.44504 0.86996 0.0
H370 H 0.0897 0.51504 0.87632 0.0
H371 H 0.04394 0.56411 0.96565 0.0
H372 H 0.02062 0.46081 0.79876 0.0
H373 H 0.03961 0.49902 0.75839 0.0
H374 H 0.06695 0.48674 0.79419 0.0
H375 H 0.99057 0.55857 0.9427 0.0
H376 H 0.98243 0.55565 0.87132 0.0
H377 H 0.9616 0.51755 0.91174 0.0
H378 H 0.95573 0.51972 0.69905 0.0
H379 H 0.90877 0.42542 0.78985 0.0
H380 H 0.03799 0.55475 0.75304 0.0
H381 H 0.01766 0.57278 0.79289 0.0
H382 H 0.00949 0.5672 0.72154 0.0
H383 H 0.97749 0.43974 0.86786 0.0
H384 H 0.93122 0.41998 0.87236 0.0
H385 H 0.95901 0.4597 0.90761 0.0
C386 C 0.44341 0.93096 0.94976 0.0
C387 C 0.46338 0.9295 0.90752 0.0
C388 C 0.45731 0.95877 0.98606 0.0
C389 C 0.49156 0.98629 0.97866 0.0
C390 C 0.51154 0.98523 0.9353 0.0
C391 C 0.4974 0.95654 0.90079 0.0
C392 C 0.43558 0.95844 0.03279 0.0
C393 C 0.54776 0.01452 0.92506 0.0
C394 C 0.51608 0.07224 0.0451 0.0
C395 C 0.53627 0.07249 0.08837 0.0
C396 C 0.50175 0.04456 0.00855 0.0
C397 C 0.50673 0.01597 0.01675 0.0
C398 C 0.52652 0.01585 0.06114 0.0
C399 C 0.54157 0.04441 0.09586 0.0
C400 C 0.48174 0.04613 0.96076 0.0
C401 C 0.53152 0.98541 0.07229 0.0
H402 H 0.41715 0.90995 0.95511 0.0
H403 H 0.51274 0.95561 0.86775 0.0
H404 H 0.44903 0.96027 0.07122 0.0
H405 H 0.43194 0.9812 0.03065 0.0
H406 H 0.40977 0.93468 0.03362 0.0
H407 H 0.55918 0.01048 0.888 0.0
H408 H 0.54766 0.03921 0.9212 0.0
H409 H 0.56465 0.01729 0.95961 0.0
H410 H 0.51213 0.09406 0.03919 0.0
H411 H 0.55688 0.04441 0.12969 0.0
H412 H 0.4548 0.02426 0.9621 0.0
H413 H 0.49349 0.04358 0.92296 0.0
H414 H 0.48111 0.07066 0.95928 0.0
H415 H 0.50604 0.96143 0.07554 0.0
H416 H 0.54622 0.9887 0.10996 0.0
H417 H 0.54556 0.98179 0.03846 0.0
C418 C 0.49887 0.54171 0.26736 0.0
C419 C 0.46501 0.535 0.25971 0.0
C420 C 0.51327 0.52731 0.23308 0.0
C421 C 0.49374 0.50674 0.18899 0.0
C422 C 0.45967 0.50032 0.18068 0.0
C423 C 0.44548 0.51402 0.21679 0.0
C424 C 0.54925 0.53386 0.24432 0.0
C425 C 0.43845 0.47946 0.13317 0.0
C426 C 0.54468 0.49919 0.0727 0.0
C427 C 0.53888 0.46557 0.07954 0.0
C428 C 0.52957 0.51264 0.10741 0.0
C429 C 0.50919 0.49241 0.15113 0.0
C430 C 0.50378 0.45863 0.15876 0.0
C431 C 0.51819 0.44537 0.12221 0.0
C432 C 0.53507 0.54833 0.09686 0.0
C433 C 0.48313 0.43669 0.20586 0.0
H434 H 0.51386 0.55764 0.30094 0.0
H435 H 0.41934 0.50899 0.21074 0.0
H436 H 0.54889 0.50893 0.24792 0.0
H437 H 0.56663 0.54823 0.21038 0.0
H438 H 0.56027 0.54893 0.28184 0.0
H439 H 0.41275 0.47763 0.13163 0.0
H440 H 0.45244 0.49137 0.09522 0.0
H441 H 0.43455 0.45295 0.13494 0.0
H442 H 0.56039 0.51472 0.03933 0.0
H443 H 0.51385 0.41942 0.12763 0.0
H444 H 0.54872 0.56557 0.13131 0.0
H445 H 0.50976 0.54712 0.09287 0.0
H446 H 0.55035 0.56008 0.05977 0.0
H447 H 0.49444 0.45066 0.24407 0.0
H448 H 0.48238 0.41147 0.20714 0.0
H449 H 0.45626 0.43174 0.20375 0.0
C450 C 0.95561 0.44938 0.43183 0.0
C451 C 0.92889 0.45681 0.42501 0.0
C452 C 0.98369 0.46262 0.39612 0.0
C453 C 0.98435 0.48268 0.35154 0.0
C454 C 0.95676 0.48925 0.34358 0.0
C455 C 0.92967 0.47678 0.38106 0.0
C456 C 0.01313 0.45603 0.40703 0.0
C457 C 0.95593 0.50956 0.29563 0.0
C458 C 0.06895 0.54635 0.28429 0.0
C459 C 0.06975 0.52705 0.24052 0.0
C460 C 0.04184 0.5318 0.32175 0.0
C461 C 0.01427 0.49762 0.31395 0.0
C462 C 0.01495 0.4781 0.26955 0.0
C463 C 0.04304 0.49288 0.23386 0.0
C464 C 0.04265 0.55306 0.36952 0.0
C465 C 0.98553 0.44203 0.25881 0.0
H466 H 0.95517 0.43425 0.46624 0.0
H467 H 0.90888 0.48237 0.37573 0.0
H468 H 0.01693 0.44278 0.37222 0.0
H469 H 0.03745 0.48099 0.4124 0.0
H470 H 0.00867 0.43999 0.44355 0.0
H471 H 0.93145 0.51022 0.29323 0.0
H472 H 0.97774 0.53651 0.29789 0.0
H473 H 0.95909 0.49813 0.25793 0.0
H474 H 0.08973 0.57275 0.2895 0.0
H475 H 0.0435 0.47811 0.19958 0.0
H476 H 0.03951 0.53858 0.40733 0.0
H477 H 0.02082 0.55815 0.36712 0.0
H478 H 0.06711 0.57823 0.3718 0.0
H479 H 0.98175 0.42506 0.29374 0.0
H480 H 0.98999 0.43038 0.22239 0.0
H481 H 0.9612 0.44263 0.25336 0.0
C482 C 0.55331 0.06883 0.45057 0.0
C483 C 0.53359 0.0702 0.40788 0.0
C484 C 0.53928 0.04099 0.4868 0.0
C485 C 0.50517 0.01333 0.47886 0.0
C486 C 0.48542 0.01433 0.43507 0.0
C487 C 0.49967 0.04307 0.40066 0.0
C488 C 0.56075 0.0414 0.534 0.0
C489 C 0.44937 0.98489 0.42425 0.0
C490 C 0.48106 0.92746 0.5452 0.0
C491 C 0.46054 0.92692 0.58818 0.0
C492 C 0.49532 0.95519 0.50873 0.0
C493 C 0.48994 0.98354 0.51673 0.0
C494 C 0.46976 0.98335 0.56078 0.0
C495 C 0.4548 0.95474 0.59542 0.0
C496 C 0.51576 0.95395 0.46129 0.0
C497 C 0.46432 0.01353 0.57172 0.0
H498 H 0.5795 0.08993 0.45629 0.0
H499 H 0.48452 0.04395 0.36727 0.0
H500 H 0.54692 0.03926 0.57214 0.0
H501 H 0.56471 0.01884 0.53197 0.0
H502 H 0.58642 0.06532 0.53534 0.0
H503 H 0.43811 0.98894 0.38701 0.0
H504 H 0.44971 0.96033 0.42037 0.0
H505 H 0.4322 0.98185 0.45852 0.0
H506 H 0.48536 0.90585 0.53948 0.0
H507 H 0.43922 0.9545 0.62902 0.0
H508 H 0.54262 0.97592 0.46313 0.0
H509 H 0.50423 0.95658 0.42329 0.0
H510 H 0.51656 0.92952 0.45981 0.0
H511 H 0.48965 0.03764 0.57548 0.0
H512 H 0.44925 0.00997 0.60907 0.0
H513 H 0.45046 0.01711 0.53756 0.0
C514 C 0.55554 0.48763 0.71717 0.0
C515 C 0.53592 0.46677 0.76013 0.0
C516 C 0.54149 0.50142 0.68092 0.0
C517 C 0.50747 0.49518 0.68912 0.0
C518 C 0.48788 0.47476 0.73327 0.0
C519 C 0.50214 0.46029 0.76771 0.0
C520 C 0.56278 0.52211 0.63335 0.0
C521 C 0.45195 0.46839 0.74438 0.0
C522 C 0.48308 0.5564 0.62159 0.0
C523 C 0.46231 0.53604 0.57909 0.0
C524 C 0.49755 0.54326 0.65827 0.0
C525 C 0.4921 0.50944 0.65097 0.0
C526 C 0.47167 0.48907 0.60739 0.0
C527 C 0.45653 0.50241 0.57253 0.0
C528 C 0.51826 0.56536 0.70521 0.0
C529 C 0.46612 0.45333 0.59721 0.0
H530 H 0.58162 0.49249 0.71118 0.0
H531 H 0.48708 0.44445 0.80131 0.0
H532 H 0.54883 0.51007 0.59543 0.0
H533 H 0.56668 0.54863 0.63479 0.0
H534 H 0.58847 0.52392 0.63205 0.0
H535 H 0.44091 0.45352 0.78205 0.0
H536 H 0.45241 0.49339 0.74761 0.0
H537 H 0.43453 0.4539 0.71054 0.0
H538 H 0.48742 0.58236 0.6268 0.0
H539 H 0.44076 0.48676 0.53929 0.0
H540 H 0.54508 0.57015 0.70326 0.0
H541 H 0.50689 0.55159 0.74352 0.0
H542 H 0.51917 0.59065 0.7061 0.0
H543 H 0.49141 0.45447 0.59345 0.0
H544 H 0.45089 0.4415 0.5601 0.0
H545 H 0.45238 0.4362 0.63172 0.0
C546 C 0.22984 0.58682 0.21591 0.0
C547 C 0.21483 0.56496 0.17143 0.0
C548 C 0.25678 0.58687 0.24492 0.0
C549 C 0.2689 0.56432 0.22945 0.0
C550 C 0.25372 0.54195 0.18498 0.0
C551 C 0.22698 0.54264 0.15635 0.0
C552 C 0.27245 0.61126 0.29194 0.0
C553 C 0.26576 0.51734 0.16758 0.0
C554 C 0.35874 0.58675 0.27617 0.0
C555 C 0.35128 0.56578 0.32192 0.0
C556 C 0.33217 0.58622 0.24527 0.0
C557 C 0.29731 0.56403 0.26022 0.0
C558 C 0.28958 0.54232 0.30566 0.0
C559 C 0.3166 0.54355 0.33603 0.0
C560 C 0.34142 0.60991 0.19723 0.0
C561 C 0.25273 0.51816 0.32273 0.0
H562 H 0.22088 0.60434 0.22781 0.0
H563 H 0.21565 0.52567 0.12207 0.0
H564 H 0.26951 0.5964 0.32923 0.0
H565 H 0.30053 0.62854 0.28522 0.0
H566 H 0.26034 0.62745 0.29839 0.0
H567 H 0.25108 0.50142 0.13241 0.0
H568 H 0.29357 0.53199 0.15694 0.0
H569 H 0.26291 0.49982 0.20128 0.0
H570 H 0.38539 0.6041 0.26493 0.0
H571 H 0.31044 0.52717 0.37121 0.0
H572 H 0.3318 0.62824 0.20332 0.0
H573 H 0.32871 0.59469 0.16055 0.0
H574 H 0.36973 0.62497 0.19014 0.0
H575 H 0.24009 0.53328 0.33362 0.0
H576 H 0.25105 0.50192 0.35773 0.0
H577 H 0.23787 0.50095 0.28887 0.0
C578 C 0.63955 0.22861 0.38927 0.0
C579 C 0.64702 0.21432 0.34452 0.0
C580 C 0.66612 0.25476 0.42003 0.0
C581 C 0.701 0.26672 0.40599 0.0
C582 C 0.70873 0.25197 0.36157 0.0
C583 C 0.6817 0.22611 0.33128 0.0
C584 C 0.65688 0.27004 0.46693 0.0
C585 C 0.74559 0.26387 0.34553 0.0
C586 C 0.76932 0.35692 0.4492 0.0
C587 C 0.78368 0.35009 0.49456 0.0
C588 C 0.74233 0.33004 0.42024 0.0
C589 C 0.72946 0.29541 0.43671 0.0
C590 C 0.74395 0.28825 0.48211 0.0
C591 C 0.7708 0.31565 0.5106 0.0
C592 C 0.72743 0.33874 0.37217 0.0
C593 C 0.73107 0.25162 0.50063 0.0
H594 H 0.61289 0.21984 0.39979 0.0
H595 H 0.68788 0.21531 0.29688 0.0
H596 H 0.66905 0.26759 0.5043 0.0
H597 H 0.66708 0.29802 0.45998 0.0
H598 H 0.62853 0.25735 0.47333 0.0
H599 H 0.74723 0.24881 0.31125 0.0
H600 H 0.75878 0.29155 0.33399 0.0
H601 H 0.75995 0.26149 0.38012 0.0
H602 H 0.77887 0.38338 0.43653 0.0
H603 H 0.7816 0.31001 0.54557 0.0
H604 H 0.69937 0.32848 0.37813 0.0
H605 H 0.7304 0.32627 0.33555 0.0
H606 H 0.74008 0.36702 0.36498 0.0
H607 H 0.70318 0.23904 0.5106 0.0
H608 H 0.74523 0.2504 0.53652 0.0
H609 H 0.73386 0.23641 0.46775 0.0
C610 C 0.40357 0.76701 0.6138 0.0
C611 C 0.42592 0.78169 0.65784 0.0
C612 C 0.403 0.74 0.584 0.0
C613 C 0.42548 0.72754 0.59826 0.0
C614 C 0.44825 0.74238 0.64235 0.0
C615 C 0.44808 0.76911 0.6717 0.0
C616 C 0.3782 0.72468 0.53742 0.0
C617 C 0.47282 0.73002 0.65857 0.0
C618 C 0.40461 0.63786 0.55267 0.0
C619 C 0.4262 0.64546 0.50765 0.0
C620 C 0.40392 0.66428 0.58229 0.0
C621 C 0.42548 0.69918 0.56681 0.0
C622 C 0.44741 0.70705 0.52162 0.0
C623 C 0.44742 0.68015 0.49253 0.0
C624 C 0.38004 0.65486 0.63009 0.0
C625 C 0.47097 0.74394 0.50404 0.0
H626 H 0.38618 0.77632 0.60287 0.0
H627 H 0.46544 0.78014 0.70563 0.0
H628 H 0.39271 0.72772 0.49971 0.0
H629 H 0.36087 0.69657 0.54392 0.0
H630 H 0.3621 0.73697 0.53193 0.0
H631 H 0.48904 0.74443 0.69366 0.0
H632 H 0.45812 0.70214 0.66883 0.0
H633 H 0.49006 0.73299 0.6244 0.0
H634 H 0.38796 0.6112 0.56459 0.0
H635 H 0.46417 0.68644 0.45782 0.0
H636 H 0.36219 0.6651 0.62452 0.0
H637 H 0.39525 0.66689 0.66706 0.0
H638 H 0.3645 0.62648 0.63635 0.0
H639 H 0.45553 0.75647 0.49468 0.0
H640 H 0.48648 0.74571 0.46802 0.0
H641 H 0.48887 0.75885 0.53721 0.0
C642 C 0.68347 0.45633 0.83625 0.0
C643 C 0.64872 0.43456 0.82201 0.0
C644 C 0.71031 0.45723 0.8058 0.0
C645 C 0.70232 0.43567 0.76012 0.0
C646 C 0.66739 0.41396 0.74503 0.0
C647 C 0.64101 0.41373 0.77604 0.0
C648 C 0.74724 0.48089 0.82304 0.0
C649 C 0.65786 0.39045 0.69672 0.0
C650 C 0.77258 0.45657 0.65638 0.0
C651 C 0.78427 0.43384 0.67121 0.0
C652 C 0.746 0.45754 0.68502 0.0
C653 C 0.73051 0.43503 0.72925 0.0
C654 C 0.74213 0.41204 0.74443 0.0
C655 C 0.76894 0.41182 0.71543 0.0
C656 C 0.73449 0.48263 0.66795 0.0
C657 C 0.7261 0.38747 0.79116 0.0
H658 H 0.68984 0.47259 0.8716 0.0
H659 H 0.61431 0.39674 0.76469 0.0
H660 H 0.75949 0.46537 0.83369 0.0
H661 H 0.7623 0.49814 0.78934 0.0
H662 H 0.74915 0.49707 0.85823 0.0
H663 H 0.62954 0.37579 0.68953 0.0
H664 H 0.67077 0.40574 0.66019 0.0
H665 H 0.66705 0.37176 0.70255 0.0
H666 H 0.78416 0.47367 0.62229 0.0
H667 H 0.77754 0.39398 0.72712 0.0
H668 H 0.7376 0.50012 0.70183 0.0
H669 H 0.70667 0.46837 0.65727 0.0
H670 H 0.74933 0.49856 0.63289 0.0
H671 H 0.72925 0.40222 0.82865 0.0
H672 H 0.7378 0.37088 0.79734 0.0
H673 H 0.69798 0.37058 0.78431 0.0
C674 C 0.35849 0.77094 0.88953 0.0
C675 C 0.3508 0.78477 0.84441 0.0
C676 C 0.33208 0.74465 0.92033 0.0
C677 C 0.29714 0.73205 0.90592 0.0
C678 C 0.28918 0.74631 0.86109 0.0
C679 C 0.31605 0.77235 0.8308 0.0
C680 C 0.34157 0.72991 0.9677 0.0
C681 C 0.25224 0.73371 0.84463 0.0
C682 C 0.22968 0.64163 0.9497 0.0
C683 C 0.2149 0.64834 0.99462 0.0
C684 C 0.25657 0.66862 0.92073 0.0
C685 C 0.26887 0.70324 0.93673 0.0
C686 C 0.25396 0.71028 0.9817 0.0
C687 C 0.22726 0.68276 0.01022 0.0
C688 C 0.27194 0.66006 0.87315 0.0
C689 C 0.26623 0.74688 0.9997 0.0
H690 H 0.38519 0.7802 0.90035 0.0
H691 H 0.3097 0.78278 0.79611 0.0
H692 H 0.32913 0.73228 0.0048 0.0
H693 H 0.33183 0.70198 0.96113 0.0
H694 H 0.36992 0.74306 0.97432 0.0
H695 H 0.25039 0.74841 0.80998 0.0
H696 H 0.23951 0.70599 0.83348 0.0
H697 H 0.23759 0.73597 0.87889 0.0
H698 H 0.22056 0.61519 0.93738 0.0
H699 H 0.21612 0.68831 0.04486 0.0
H700 H 0.30005 0.6708 0.87941 0.0
H701 H 0.26881 0.67215 0.8362 0.0
H702 H 0.25975 0.63177 0.86636 0.0
H703 H 0.29411 0.75993 0.00985 0.0
H704 H 0.25182 0.74799 0.03533 0.0
H705 H 0.26319 0.76173 0.96648 0.0
C706 C 0.59537 0.36264 0.0525 0.0
C707 C 0.57356 0.35525 0.00782 0.0
C708 C 0.59578 0.33604 0.08205 0.0
C709 C 0.57369 0.30119 0.06687 0.0
C710 C 0.55153 0.29353 0.02203 0.0
C711 C 0.55182 0.32059 0.99297 0.0
C712 C 0.61993 0.34524 0.12947 0.0
C713 C 0.5274 0.25669 0.00478 0.0
C714 C 0.59443 0.23247 0.11356 0.0
C715 C 0.57229 0.21819 0.15792 0.0
C716 C 0.59531 0.25961 0.08373 0.0
C717 C 0.57335 0.27265 0.09831 0.0
C718 C 0.5508 0.25823 0.14274 0.0
C719 C 0.55064 0.23133 0.17208 0.0
C720 C 0.61986 0.27447 0.03678 0.0
C721 C 0.5268 0.27122 0.15932 0.0
H722 H 0.61243 0.38927 0.0642 0.0
H723 H 0.53489 0.31446 0.95852 0.0
H724 H 0.60489 0.3335 0.16668 0.0
H725 H 0.63737 0.33454 0.12361 0.0
H726 H 0.63591 0.3736 0.13548 0.0
H727 H 0.51179 0.2551 0.96899 0.0
H728 H 0.5424 0.24372 0.9952 0.0
H729 H 0.5096 0.24208 0.0382 0.0
H730 H 0.61142 0.22272 0.10239 0.0
H731 H 0.53345 0.22062 0.20625 0.0
H732 H 0.63759 0.30253 0.04302 0.0
H733 H 0.60518 0.27157 0.99929 0.0
H734 H 0.63552 0.26173 0.03102 0.0
H735 H 0.54195 0.29911 0.16937 0.0
H736 H 0.51069 0.25709 0.19466 0.0
H737 H 0.50946 0.26844 0.12541 0.0
loop_
_geom_bond_atom_site_label_1
_geom_bond_atom_site_label_2
_geom_bond_distance
_geom_bond_site_symmetry_2
_ccdc_geom_bond_type
Co0 O2 2.143 . S
Co0 O8 2.074 . S
Co0 O11 2.093 1_554 S
Co0 O24 2.097 . S
Co0 N41 2.151 . S
Co0 N49 2.214 1_554 S
Co1 O2 2.160 . S
Co1 O7 2.058 . S
Co1 O17 2.057 . S
Co1 O32 2.037 . S
Co1 N36 2.145 . S
Co1 N57 2.257 . S
O2 Co0 2.143 . S
O2 Co1 2.160 . S
C3 O4 1.278 1_556 S
C3 O11 1.224 . S
O4 C3 1.278 1_554 S
C5 O6 1.245 . S
C5 O17 1.232 . S
O6 C5 1.245 . S
O7 Co1 2.058 . S
O7 C33 1.269 . S
O8 Co0 2.074 . S
O8 C33 1.257 . S
H9 C34 0.930 . S
H10 C40 0.930 . S
O11 Co0 2.093 1_556 S
O11 C3 1.224 . S
H12 C44 0.929 . S
H13 C46 0.930 . S
H14 C47 0.930 . S
H15 C45 0.929 . S
H16 C48 0.928 . S
O17 Co1 2.057 . S
O17 C5 1.232 . S
H18 C37 0.929 . S
H19 C38 0.929 . S
H20 C50 0.931 . S
H21 C42 0.929 . S
H22 C51 0.930 . S
H23 C43 0.931 . S
O24 Co0 2.097 . S
O24 C52 1.214 . S
H25 C53 0.929 . S
H26 C54 0.929 . S
H27 C55 0.930 . S
H28 C56 0.929 . S
H29 C58 0.930 . S
H30 C35 0.930 . S
H31 C39 0.930 . S
O32 Co1 2.037 . S
O32 C52 1.234 . S
C33 O7 1.269 . S
C33 O8 1.257 . S
C34 H9 0.930 . S
C34 C37 1.388 . S
C34 C39 1.418 . S
C35 H30 0.930 . S
C35 C38 1.404 . S
C35 C39 1.353 . S
N36 Co1 2.145 . S
N36 C37 1.397 . S
N36 C38 1.334 . S
C37 H18 0.929 . S
C37 C34 1.388 . S
C37 N36 1.397 . S
C38 H19 0.929 . S
C38 C35 1.404 . S
C38 N36 1.334 . S
C39 H31 0.930 . S
C39 C34 1.418 . S
C39 C35 1.353 . S
C40 H10 0.930 . S
C40 N41 1.330 . S
C40 C42 1.446 . S
N41 Co0 2.151 . S
N41 C40 1.330 . S
N41 C45 1.418 . S
C42 H21 0.929 . S
C42 C40 1.446 . S
C42 C43 1.332 . S
C43 H23 0.931 . S
C43 C42 1.332 . S
C43 C44 1.267 . S
C44 H12 0.929 . S
C44 C43 1.267 . S
C44 C45 1.251 . S
C45 H15 0.929 . S
C45 N41 1.418 . S
C45 C44 1.251 . S
C46 H13 0.930 . S
C46 C48 1.406 . S
C46 C51 1.261 . S
C47 H14 0.930 . S
C47 N49 1.325 . S
C47 C50 1.357 . S
C48 H16 0.928 . S
C48 C46 1.406 . S
C48 N49 1.261 . S
N49 Co0 2.214 1_556 S
N49 C47 1.325 . S
N49 C48 1.261 . S
C50 H20 0.931 . S
C50 C47 1.357 . S
C50 C51 1.312 . S
C51 H22 0.930 . S
C51 C46 1.261 . S
C51 C50 1.312 . S
C52 O24 1.214 . S
C52 O32 1.234 . S
C53 H25 0.929 . S
C53 C56 1.391 . S
C53 C58 1.391 . S
C54 H26 0.929 . S
C54 C55 1.390 . S
C54 N57 1.391 . S
C55 H27 0.930 . S
C55 C54 1.390 . S
C55 C56 1.392 . S
C56 H28 0.929 . S
C56 C53 1.391 . S
C56 C55 1.392 . S
N57 Co1 2.257 . S
N57 C54 1.391 . S
N57 C58 1.388 . S
C58 H29 0.930 . S
C58 C53 1.391 . S
C58 N57 1.388 . S
Co59 O61 2.143 . S
Co59 O67 2.074 . S
Co59 O70 2.093 . S
Co59 O83 2.097 . S
Co59 N100 2.151 . S
Co59 N108 2.214 . S
Co60 O61 2.160 . S
Co60 O66 2.058 . S
Co60 O76 2.057 . S
Co60 O91 2.037 . S
Co60 N95 2.145 . S
Co60 N116 2.257 . S
O61 Co59 2.143 . S
O61 Co60 2.160 . S
C62 O63 1.278 . S
C62 O70 1.224 . S
O63 C62 1.278 . S
C64 O65 1.245 . S
C64 O76 1.232 . S
O65 C64 1.245 . S
O66 Co60 2.058 . S
O66 C92 1.269 . S
O67 Co59 2.074 . S
O67 C92 1.257 . S
H68 C93 0.930 . S
H69 C99 0.930 . S
O70 Co59 2.093 . S
O70 C62 1.224 . S
H71 C103 0.929 . S
H72 C105 0.930 . S
H73 C106 0.930 . S
H74 C104 0.929 . S
H75 C107 0.928 . S
O76 Co60 2.057 . S
O76 C64 1.232 . S
H77 C96 0.929 . S
H78 C97 0.929 . S
H79 C109 0.931 . S
H80 C101 0.929 . S
H81 C110 0.930 . S
H82 C102 0.931 . S
O83 Co59 2.097 . S
O83 C111 1.214 . S
H84 C112 0.929 . S
H85 C113 0.929 . S
H86 C114 0.930 . S
H87 C115 0.929 . S
H88 C117 0.930 . S
H89 C94 0.930 . S
H90 C98 0.930 . S
O91 Co60 2.037 . S
O91 C111 1.234 . S
C92 O66 1.269 . S
C92 O67 1.257 . S
C93 H68 0.930 . S
C93 C96 1.388 . S
C93 C98 1.418 . S
C94 H89 0.930 . S
C94 C97 1.404 . S
C94 C98 1.353 . S
N95 Co60 2.145 . S
N95 C96 1.397 . S
N95 C97 1.334 . S
C96 H77 0.929 . S
C96 C93 1.388 . S
C96 N95 1.397 . S
C97 H78 0.929 . S
C97 C94 1.404 . S
C97 N95 1.334 . S
C98 H90 0.930 . S
C98 C93 1.418 . S
C98 C94 1.353 . S
C99 H69 0.930 . S
C99 N100 1.330 . S
C99 C101 1.446 . S
N100 Co59 2.151 . S
N100 C99 1.330 . S
N100 C104 1.418 . S
C101 H80 0.929 . S
C101 C99 1.446 . S
C101 C102 1.332 . S
C102 H82 0.931 . S
C102 C101 1.332 . S
C102 C103 1.267 . S
C103 H71 0.929 . S
C103 C102 1.267 . S
C103 C104 1.251 . S
C104 H74 0.929 . S
C104 N100 1.418 . S
C104 C103 1.251 . S
C105 H72 0.930 . S
C105 C107 1.406 . S
C105 C110 1.261 . S
C106 H73 0.930 . S
C106 N108 1.325 . S
C106 C109 1.357 . S
C107 H75 0.928 . S
C107 C105 1.406 . S
C107 N108 1.261 . S
N108 Co59 2.214 . S
N108 C106 1.325 . S
N108 C107 1.261 . S
C109 H79 0.931 . S
C109 C106 1.357 . S
C109 C110 1.312 . S
C110 H81 0.930 . S
C110 C105 1.261 . S
C110 C109 1.312 . S
C111 O83 1.214 . S
C111 O91 1.234 . S
C112 H84 0.929 . S
C112 C115 1.391 . S
C112 C117 1.391 . S
C113 H85 0.929 . S
C113 C114 1.390 . S
C113 N116 1.391 . S
C114 H86 0.930 . S
C114 C113 1.390 . S
C114 C115 1.392 . S
C115 H87 0.929 . S
C115 C112 1.391 . S
C115 C114 1.392 . S
N116 Co60 2.257 . S
N116 C113 1.391 . S
N116 C117 1.388 . S
C117 H88 0.930 . S
C117 C112 1.391 . S
C117 N116 1.388 . S
Co118 O120 2.143 . S
Co118 O126 2.074 . S
Co118 O129 2.093 . S
Co118 O142 2.097 . S
Co118 N159 2.151 . S
Co118 N167 2.214 . S
Co119 O120 2.160 . S
Co119 O125 2.058 . S
Co119 O135 2.057 . S
Co119 O150 2.037 . S
Co119 N154 2.145 . S
Co119 N175 2.257 . S
O120 Co118 2.143 . S
O120 Co119 2.160 . S
C121 O122 1.278 . S
C121 O129 1.224 . S
O122 C121 1.278 . S
C123 O124 1.245 . S
C123 O135 1.232 . S
O124 C123 1.245 . S
O125 Co119 2.058 . S
O125 C151 1.269 . S
O126 Co118 2.074 . S
O126 C151 1.257 . S
H127 C152 0.930 . S
H128 C158 0.930 . S
O129 Co118 2.093 . S
O129 C121 1.224 . S
H130 C162 0.929 . S
H131 C164 0.930 . S
H132 C165 0.930 . S
H133 C163 0.929 . S
H134 C166 0.928 . S
O135 Co119 2.057 . S
O135 C123 1.232 . S
H136 C155 0.929 . S
H137 C156 0.929 . S
H138 C168 0.931 . S
H139 C160 0.929 . S
H140 C169 0.930 . S
H141 C161 0.931 . S
O142 Co118 2.097 . S
O142 C170 1.214 . S
H143 C171 0.929 . S
H144 C172 0.929 . S
H145 C173 0.930 . S
H146 C174 0.929 . S
H147 C176 0.930 . S
H148 C153 0.930 . S
H149 C157 0.930 . S
O150 Co119 2.037 . S
O150 C170 1.234 . S
C151 O125 1.269 . S
C151 O126 1.257 . S
C152 H127 0.930 . S
C152 C155 1.388 . S
C152 C157 1.418 . S
C153 H148 0.930 . S
C153 C156 1.404 . S
C153 C157 1.353 . S
N154 Co119 2.145 . S
N154 C155 1.397 . S
N154 C156 1.334 . S
C155 H136 0.929 . S
C155 C152 1.388 . S
C155 N154 1.397 . S
C156 H137 0.929 . S
C156 C153 1.404 . S
C156 N154 1.334 . S
C157 H149 0.930 . S
C157 C152 1.418 . S
C157 C153 1.353 . S
C158 H128 0.930 . S
C158 N159 1.330 . S
C158 C160 1.446 . S
N159 Co118 2.151 . S
N159 C158 1.330 . S
N159 C163 1.418 . S
C160 H139 0.929 . S
C160 C158 1.446 . S
C160 C161 1.332 . S
C161 H141 0.931 . S
C161 C160 1.332 . S
C161 C162 1.267 . S
C162 H130 0.929 . S
C162 C161 1.267 . S
C162 C163 1.251 . S
C163 H133 0.929 . S
C163 N159 1.418 . S
C163 C162 1.251 . S
C164 H131 0.930 . S
C164 C166 1.406 . S
C164 C169 1.261 . S
C165 H132 0.930 . S
C165 N167 1.325 . S
C165 C168 1.357 . S
C166 H134 0.928 . S
C166 C164 1.406 . S
C166 N167 1.261 . S
N167 Co118 2.214 . S
N167 C165 1.325 . S
N167 C166 1.261 . S
C168 H138 0.931 . S
C168 C165 1.357 . S
C168 C169 1.312 . S
C169 H140 0.930 . S
C169 C164 1.261 . S
C169 C168 1.312 . S
C170 O142 1.214 . S
C170 O150 1.234 . S
C171 H143 0.929 . S
C171 C174 1.391 . S
C171 C176 1.391 . S
C172 H144 0.929 . S
C172 C173 1.390 . S
C172 N175 1.391 . S
C173 H145 0.930 . S
C173 C172 1.390 . S
C173 C174 1.392 . S
C174 H146 0.929 . S
C174 C171 1.391 . S
C174 C173 1.392 . S
N175 Co119 2.257 . S
N175 C172 1.391 . S
N175 C176 1.388 . S
C176 H147 0.930 . S
C176 C171 1.391 . S
C176 N175 1.388 . S
Co177 O179 2.143 . S
Co177 O185 2.074 . S
Co177 O188 2.093 . S
Co177 O201 2.097 . S
Co177 N218 2.151 . S
Co177 N226 2.214 . S
Co178 O179 2.160 . S
Co178 O184 2.058 . S
Co178 O194 2.057 . S
Co178 O209 2.037 . S
Co178 N213 2.145 . S
Co178 N234 2.257 . S
O179 Co177 2.143 . S
O179 Co178 2.160 . S
C180 O181 1.278 . S
C180 O188 1.224 . S
O181 C180 1.278 . S
C182 O183 1.245 . S
C182 O194 1.232 . S
O183 C182 1.245 . S
O184 Co178 2.058 . S
O184 C210 1.269 . S
O185 Co177 2.074 . S
O185 C210 1.257 . S
H186 C211 0.930 . S
H187 C217 0.930 . S
O188 Co177 2.093 . S
O188 C180 1.224 . S
H189 C221 0.929 . S
H190 C223 0.930 . S
H191 C224 0.930 . S
H192 C222 0.929 . S
H193 C225 0.928 . S
O194 Co178 2.057 . S
O194 C182 1.232 . S
H195 C214 0.929 . S
H196 C215 0.929 . S
H197 C227 0.931 . S
H198 C219 0.929 . S
H199 C228 0.930 . S
H200 C220 0.931 . S
O201 Co177 2.097 . S
O201 C229 1.214 . S
H202 C230 0.929 . S
H203 C231 0.929 . S
H204 C232 0.930 . S
H205 C233 0.929 . S
H206 C235 0.930 . S
H207 C212 0.930 . S
H208 C216 0.930 . S
O209 Co178 2.037 . S
O209 C229 1.234 . S
C210 O184 1.269 . S
C210 O185 1.257 . S
C211 H186 0.930 . S
C211 C214 1.388 . S
C211 C216 1.418 . S
C212 H207 0.930 . S
C212 C215 1.404 . S
C212 C216 1.353 . S
N213 Co178 2.145 . S
N213 C214 1.397 . S
N213 C215 1.334 . S
C214 H195 0.929 . S
C214 C211 1.388 . S
C214 N213 1.397 . S
C215 H196 0.929 . S
C215 C212 1.404 . S
C215 N213 1.334 . S
C216 H208 0.930 . S
C216 C211 1.418 . S
C216 C212 1.353 . S
C217 H187 0.930 . S
C217 N218 1.330 . S
C217 C219 1.446 . S
N218 Co177 2.151 . S
N218 C217 1.330 . S
N218 C222 1.418 . S
C219 H198 0.929 . S
C219 C217 1.446 . S
C219 C220 1.332 . S
C220 H200 0.931 . S
C220 C219 1.332 . S
C220 C221 1.267 . S
C221 H189 0.929 . S
C221 C220 1.267 . S
C221 C222 1.251 . S
C222 H192 0.929 . S
C222 N218 1.418 . S
C222 C221 1.251 . S
C223 H190 0.930 . S
C223 C225 1.406 . S
C223 C228 1.261 . S
C224 H191 0.930 . S
C224 N226 1.325 . S
C224 C227 1.357 . S
C225 H193 0.928 . S
C225 C223 1.406 . S
C225 N226 1.261 . S
N226 Co177 2.214 . S
N226 C224 1.325 . S
N226 C225 1.261 . S
C227 H197 0.931 . S
C227 C224 1.357 . S
C227 C228 1.312 . S
C228 H199 0.930 . S
C228 C223 1.261 . S
C228 C227 1.312 . S
C229 O201 1.214 . S
C229 O209 1.234 . S
C230 H202 0.929 . S
C230 C233 1.391 . S
C230 C235 1.391 . S
C231 H203 0.929 . S
C231 C232 1.390 . S
C231 N234 1.391 . S
C232 H204 0.930 . S
C232 C231 1.390 . S
C232 C233 1.392 . S
C233 H205 0.929 . S
C233 C230 1.391 . S
C233 C232 1.392 . S
N234 Co178 2.257 . S
N234 C231 1.391 . S
N234 C235 1.388 . S
C235 H206 0.930 . S
C235 C230 1.391 . S
C235 N234 1.388 . S
Co236 O238 2.143 . S
Co236 O244 2.074 . S
Co236 O247 2.093 . S
Co236 O260 2.097 . S
Co236 N277 2.151 . S
Co236 N285 2.214 . S
Co237 O238 2.160 . S
Co237 O243 2.058 . S
Co237 O253 2.057 . S
Co237 O268 2.037 . S
Co237 N272 2.145 . S
Co237 N293 2.257 . S
O238 Co236 2.143 . S
O238 Co237 2.160 . S
C239 O240 1.278 . S
C239 O247 1.224 . S
O240 C239 1.278 . S
C241 O242 1.245 . S
C241 O253 1.232 . S
O242 C241 1.245 . S
O243 Co237 2.058 . S
O243 C269 1.269 . S
O244 Co236 2.074 . S
O244 C269 1.257 . S
H245 C270 0.930 . S
H246 C276 0.930 . S
O247 Co236 2.093 . S
O247 C239 1.224 . S
H248 C280 0.929 . S
H249 C282 0.930 . S
H250 C283 0.930 . S
H251 C281 0.929 . S
H252 C284 0.928 . S
O253 Co237 2.057 . S
O253 C241 1.232 . S
H254 C273 0.929 . S
H255 C274 0.929 . S
H256 C286 0.931 . S
H257 C278 0.929 . S
H258 C287 0.930 . S
H259 C279 0.931 . S
O260 Co236 2.097 . S
O260 C288 1.214 . S
H261 C289 0.929 . S
H262 C290 0.929 . S
H263 C291 0.930 . S
H264 C292 0.929 . S
H265 C294 0.930 . S
H266 C271 0.930 . S
H267 C275 0.930 . S
O268 Co237 2.037 . S
O268 C288 1.234 . S
C269 O243 1.269 . S
C269 O244 1.257 . S
C270 H245 0.930 . S
C270 C273 1.388 . S
C270 C275 1.418 . S
C271 H266 0.930 . S
C271 C274 1.404 . S
C271 C275 1.353 . S
N272 Co237 2.145 . S
N272 C273 1.397 . S
N272 C274 1.334 . S
C273 H254 0.929 . S
C273 C270 1.388 . S
C273 N272 1.397 . S
C274 H255 0.929 . S
C274 C271 1.404 . S
C274 N272 1.334 . S
C275 H267 0.930 . S
C275 C270 1.418 . S
C275 C271 1.353 . S
C276 H246 0.930 . S
C276 N277 1.330 . S
C276 C278 1.446 . S
N277 Co236 2.151 . S
N277 C276 1.330 . S
N277 C281 1.418 . S
C278 H257 0.929 . S
C278 C276 1.446 . S
C278 C279 1.332 . S
C279 H259 0.931 . S
C279 C278 1.332 . S
C279 C280 1.267 . S
C280 H248 0.929 . S
C280 C279 1.267 . S
C280 C281 1.251 . S
C281 H251 0.929 . S
C281 N277 1.418 . S
C281 C280 1.251 . S
C282 H249 0.930 . S
C282 C284 1.406 . S
C282 C287 1.261 . S
C283 H250 0.930 . S
C283 N285 1.325 . S
C283 C286 1.357 . S
C284 H252 0.928 . S
C284 C282 1.406 . S
C284 N285 1.261 . S
N285 Co236 2.214 . S
N285 C283 1.325 . S
N285 C284 1.261 . S
C286 H256 0.931 . S
C286 C283 1.357 . S
C286 C287 1.312 . S
C287 H258 0.930 . S
C287 C282 1.261 . S
C287 C286 1.312 . S
C288 O260 1.214 . S
C288 O268 1.234 . S
C289 H261 0.929 . S
C289 C292 1.391 . S
C289 C294 1.391 . S
C290 H262 0.929 . S
C290 C291 1.390 . S
C290 N293 1.391 . S
C291 H263 0.930 . S
C291 C290 1.390 . S
C291 C292 1.392 . S
C292 H264 0.929 . S
C292 C289 1.391 . S
C292 C291 1.392 . S
N293 Co237 2.257 . S
N293 C290 1.391 . S
N293 C294 1.388 . S
C294 H265 0.930 . S
C294 C289 1.391 . S
C294 N293 1.388 . S
Co295 O297 2.143 . S
Co295 O303 2.074 . S
Co295 O306 2.093 1_556 S
Co295 O319 2.097 . S
Co295 N336 2.151 . S
Co295 N344 2.214 1_556 S
Co296 O297 2.160 . S
Co296 O302 2.058 . S
Co296 O312 2.057 . S
Co296 O327 2.037 . S
Co296 N331 2.145 . S
Co296 N352 2.257 . S
O297 Co295 2.143 . S
O297 Co296 2.160 . S
C298 O299 1.278 1_554 S
C298 O306 1.224 . S
O299 C298 1.278 1_556 S
C300 O301 1.245 . S
C300 O312 1.232 . S
O301 C300 1.245 . S
O302 Co296 2.058 . S
O302 C328 1.269 . S
O303 Co295 2.074 . S
O303 C328 1.257 . S
H304 C329 0.930 . S
H305 C335 0.930 . S
O306 Co295 2.093 1_554 S
O306 C298 1.224 . S
H307 C339 0.929 . S
H308 C341 0.930 . S
H309 C342 0.930 . S
H310 C340 0.929 . S
H311 C343 0.928 . S
O312 Co296 2.057 . S
O312 C300 1.232 . S
H313 C332 0.929 . S
H314 C333 0.929 . S
H315 C345 0.931 . S
H316 C337 0.929 . S
H317 C346 0.930 . S
H318 C338 0.931 . S
O319 Co295 2.097 . S
O319 C347 1.214 . S
H320 C348 0.929 . S
H321 C349 0.929 . S
H322 C350 0.930 . S
H323 C351 0.929 . S
H324 C353 0.930 . S
H325 C330 0.930 . S
H326 C334 0.930 . S
O327 Co296 2.037 . S
O327 C347 1.234 . S
C328 O302 1.269 . S
C328 O303 1.257 . S
C329 H304 0.930 . S
C329 C332 1.388 . S
C329 C334 1.418 . S
C330 H325 0.930 . S
C330 C333 1.404 . S
C330 C334 1.353 . S
N331 Co296 2.145 . S
N331 C332 1.397 . S
N331 C333 1.334 . S
C332 H313 0.929 . S
C332 C329 1.388 . S
C332 N331 1.397 . S
C333 H314 0.929 . S
C333 C330 1.404 . S
C333 N331 1.334 . S
C334 H326 0.930 . S
C334 C329 1.418 . S
C334 C330 1.353 . S
C335 H305 0.930 . S
C335 N336 1.330 . S
C335 C337 1.446 . S
N336 Co295 2.151 . S
N336 C335 1.330 . S
N336 C340 1.418 . S
C337 H316 0.929 . S
C337 C335 1.446 . S
C337 C338 1.332 . S
C338 H318 0.931 . S
C338 C337 1.332 . S
C338 C339 1.267 . S
C339 H307 0.929 . S
C339 C338 1.267 . S
C339 C340 1.251 . S
C340 H310 0.929 . S
C340 N336 1.418 . S
C340 C339 1.251 . S
C341 H308 0.930 . S
C341 C343 1.406 . S
C341 C346 1.261 . S
C342 H309 0.930 . S
C342 N344 1.325 . S
C342 C345 1.357 . S
C343 H311 0.928 . S
C343 C341 1.406 . S
C343 N344 1.261 . S
N344 Co295 2.214 1_554 S
N344 C342 1.325 . S
N344 C343 1.261 . S
C345 H315 0.931 . S
C345 C342 1.357 . S
C345 C346 1.312 . S
C346 H317 0.930 . S
C346 C341 1.261 . S
C346 C345 1.312 . S
C347 O319 1.214 . S
C347 O327 1.234 . S
C348 H320 0.929 . S
C348 C351 1.391 . S
C348 C353 1.391 . S
C349 H321 0.929 . S
C349 C350 1.390 . S
C349 N352 1.391 . S
C350 H322 0.930 . S
C350 C349 1.390 . S
C350 C351 1.392 . S
C351 H323 0.929 . S
C351 C348 1.391 . S
C351 C350 1.392 . S
N352 Co296 2.257 . S
N352 C349 1.391 . S
N352 C353 1.388 . S
C353 H324 0.930 . S
C353 C348 1.391 . S
C353 N352 1.388 . S
C354 C355 1.391 . S
C354 C356 1.394 . S
C354 H370 0.931 . S
C355 C354 1.391 . S
C355 C359 1.376 . S
C356 C354 1.394 . S
C356 C357 1.369 . S
C356 C360 1.531 . S
C357 C356 1.369 . S
C357 C358 1.410 . S
C357 C365 1.503 1_455 S
C358 C357 1.410 . S
C358 C359 1.392 . S
C358 C361 1.511 1_455 S
C359 C355 1.376 . S
C359 C358 1.392 . S
C359 H371 0.929 . S
C360 C356 1.531 . S
C360 H372 0.960 1_455 S
C360 H373 0.962 . S
C360 H374 0.960 . S
C361 C358 1.511 1_655 S
C361 H375 0.961 1_655 S
C361 H376 0.961 . S
C361 H377 0.961 . S
C362 C363 1.370 . S
C362 C364 1.363 . S
C362 H378 0.931 . S
C363 C362 1.370 . S
C363 C367 1.408 . S
C364 C362 1.363 . S
C364 C365 1.370 . S
C364 C368 1.524 1_655 S
C365 C357 1.503 1_655 S
C365 C364 1.370 . S
C365 C366 1.403 . S
C366 C365 1.403 . S
C366 C367 1.404 . S
C366 C369 1.539 . S
C367 C363 1.408 . S
C367 C366 1.404 . S
C367 H379 0.930 . S
C368 C364 1.524 1_455 S
C368 H380 0.956 . S
C368 H381 0.961 . S
C368 H382 0.961 . S
C369 C366 1.539 . S
C369 H383 0.958 . S
C369 H384 0.961 . S
C369 H385 0.960 . S
H370 C354 0.931 . S
H371 C359 0.929 . S
H372 C360 0.960 1_655 S
H373 C360 0.962 . S
H374 C360 0.960 . S
H375 C361 0.961 1_455 S
H376 C361 0.961 . S
H377 C361 0.961 . S
H378 C362 0.931 . S
H379 C367 0.930 . S
H380 C368 0.956 . S
H381 C368 0.961 . S
H382 C368 0.961 . S
H383 C369 0.958 . S
H384 C369 0.961 . S
H385 C369 0.960 . S
C386 C387 1.391 . S
C386 C388 1.394 . S
C386 H402 0.931 . S
C387 C386 1.391 . S
C387 C391 1.376 . S
C388 C386 1.394 . S
C388 C389 1.369 . S
C388 C392 1.531 1_556 S
C389 C388 1.369 . S
C389 C390 1.410 . S
C389 C397 1.503 1_566 S
C390 C389 1.410 . S
C390 C391 1.392 . S
C390 C393 1.511 . S
C391 C387 1.376 . S
C391 C390 1.392 . S
C391 H403 0.929 . S
C392 C388 1.531 1_554 S
C392 H404 0.960 . S
C392 H405 0.962 1_554 S
C392 H406 0.960 . S
C393 C390 1.511 . S
C393 H407 0.961 . S
C393 H408 0.961 1_565 S
C393 H409 0.961 . S
C394 C395 1.370 . S
C394 C396 1.363 . S
C394 H410 0.931 . S
C395 C394 1.370 . S
C395 C399 1.408 . S
C396 C394 1.363 . S
C396 C397 1.370 . S
C396 C400 1.524 1_554 S
C397 C389 1.503 1_544 S
C397 C396 1.370 . S
C397 C398 1.403 . S
C398 C397 1.403 . S
C398 C399 1.404 . S
C398 C401 1.539 1_545 S
C399 C395 1.408 . S
C399 C398 1.404 . S
C399 H411 0.930 . S
C400 C396 1.524 1_556 S
C400 H412 0.956 . S
C400 H413 0.961 . S
C400 H414 0.961 . S
C401 C398 1.539 1_565 S
C401 H415 0.958 . S
C401 H416 0.961 . S
C401 H417 0.960 . S
H402 C386 0.931 . S
H403 C391 0.929 . S
H404 C392 0.960 . S
H405 C392 0.962 1_556 S
H406 C392 0.960 . S
H407 C393 0.961 . S
H408 C393 0.961 1_545 S
H409 C393 0.961 . S
H410 C394 0.931 . S
H411 C399 0.930 . S
H412 C400 0.956 . S
H413 C400 0.961 . S
H414 C400 0.961 . S
H415 C401 0.958 . S
H416 C401 0.961 . S
H417 C401 0.960 . S
C418 C419 1.391 . S
C418 C420 1.394 . S
C418 H434 0.931 . S
C419 C418 1.391 . S
C419 C423 1.376 . S
C420 C418 1.394 . S
C420 C421 1.369 . S
C420 C424 1.531 . S
C421 C420 1.369 . S
C421 C422 1.410 . S
C421 C429 1.503 . S
C422 C421 1.410 . S
C422 C423 1.392 . S
C422 C425 1.511 . S
C423 C419 1.376 . S
C423 C422 1.392 . S
C423 H435 0.929 . S
C424 C420 1.531 . S
C424 H436 0.960 . S
C424 H437 0.962 . S
C424 H438 0.960 . S
C425 C422 1.511 . S
C425 H439 0.961 . S
C425 H440 0.961 . S
C425 H441 0.961 . S
C426 C427 1.370 . S
C426 C428 1.363 . S
C426 H442 0.931 . S
C427 C426 1.370 . S
C427 C431 1.408 . S
C428 C426 1.363 . S
C428 C429 1.370 . S
C428 C432 1.524 . S
C429 C421 1.503 . S
C429 C428 1.370 . S
C429 C430 1.403 . S
C430 C429 1.403 . S
C430 C431 1.404 . S
C430 C433 1.539 . S
C431 C427 1.408 . S
C431 C430 1.404 . S
C431 H443 0.930 . S
C432 C428 1.524 . S
C432 H444 0.956 . S
C432 H445 0.961 . S
C432 H446 0.961 . S
C433 C430 1.539 . S
C433 H447 0.958 . S
C433 H448 0.961 . S
C433 H449 0.960 . S
H434 C418 0.931 . S
H435 C423 0.929 . S
H436 C424 0.960 . S
H437 C424 0.962 . S
H438 C424 0.960 . S
H439 C425 0.961 . S
H440 C425 0.961 . S
H441 C425 0.961 . S
H442 C426 0.931 . S
H443 C431 0.930 . S
H444 C432 0.956 . S
H445 C432 0.961 . S
H446 C432 0.961 . S
H447 C433 0.958 . S
H448 C433 0.961 . S
H449 C433 0.960 . S
C450 C451 1.391 . S
C450 C452 1.394 . S
C450 H466 0.931 . S
C451 C450 1.391 . S
C451 C455 1.376 . S
C452 C450 1.394 . S
C452 C453 1.369 . S
C452 C456 1.531 1_655 S
C453 C452 1.369 . S
C453 C454 1.410 . S
C453 C461 1.503 1_655 S
C454 C453 1.410 . S
C454 C455 1.392 . S
C454 C457 1.511 . S
C455 C451 1.376 . S
C455 C454 1.392 . S
C455 H467 0.929 . S
C456 C452 1.531 1_455 S
C456 H468 0.960 . S
C456 H469 0.962 . S
C456 H470 0.960 1_455 S
C457 C454 1.511 . S
C457 H471 0.961 . S
C457 H472 0.961 . S
C457 H473 0.961 . S
C458 C459 1.370 . S
C458 C460 1.363 . S
C458 H474 0.931 . S
C459 C458 1.370 . S
C459 C463 1.408 . S
C460 C458 1.363 . S
C460 C461 1.370 . S
C460 C464 1.524 . S
C461 C453 1.503 1_455 S
C461 C460 1.370 . S
C461 C462 1.403 . S
C462 C461 1.403 . S
C462 C463 1.404 . S
C462 C465 1.539 1_455 S
C463 C459 1.408 . S
C463 C462 1.404 . S
C463 H475 0.930 . S
C464 C460 1.524 . S
C464 H476 0.956 . S
C464 H477 0.961 . S
C464 H478 0.961 . S
C465 C462 1.539 1_655 S
C465 H479 0.958 . S
C465 H480 0.961 . S
C465 H481 0.960 . S
H466 C450 0.931 . S
H467 C455 0.929 . S
H468 C456 0.960 . S
H469 C456 0.962 . S
H470 C456 0.960 1_655 S
H471 C457 0.961 . S
H472 C457 0.961 . S
H473 C457 0.961 . S
H474 C458 0.931 . S
H475 C463 0.930 . S
H476 C464 0.956 . S
H477 C464 0.961 . S
H478 C464 0.961 . S
H479 C465 0.958 . S
H480 C465 0.961 . S
H481 C465 0.960 . S
C482 C483 1.391 . S
C482 C484 1.394 . S
C482 H498 0.931 . S
C483 C482 1.391 . S
C483 C487 1.376 . S
C484 C482 1.394 . S
C484 C485 1.369 . S
C484 C488 1.531 . S
C485 C484 1.369 . S
C485 C486 1.410 . S
C485 C493 1.503 1_545 S
C486 C485 1.410 . S
C486 C487 1.392 . S
C486 C489 1.511 1_545 S
C487 C483 1.376 . S
C487 C486 1.392 . S
C487 H499 0.929 . S
C488 C484 1.531 . S
C488 H500 0.960 . S
C488 H501 0.962 . S
C488 H502 0.960 . S
C489 C486 1.511 1_565 S
C489 H503 0.961 . S
C489 H504 0.961 . S
C489 H505 0.961 . S
C490 C491 1.370 . S
C490 C492 1.363 . S
C490 H506 0.931 . S
C491 C490 1.370 . S
C491 C495 1.408 . S
C492 C490 1.363 . S
C492 C493 1.370 . S
C492 C496 1.524 . S
C493 C485 1.503 1_565 S
C493 C492 1.370 . S
C493 C494 1.403 . S
C494 C493 1.403 . S
C494 C495 1.404 . S
C494 C497 1.539 1_565 S
C495 C491 1.408 . S
C495 C494 1.404 . S
C495 H507 0.930 . S
C496 C492 1.524 . S
C496 H508 0.956 . S
C496 H509 0.961 . S
C496 H510 0.961 . S
C497 C494 1.539 1_545 S
C497 H511 0.958 . S
C497 H512 0.961 . S
C497 H513 0.960 . S
H498 C482 0.931 . S
H499 C487 0.929 . S
H500 C488 0.960 . S
H501 C488 0.962 . S
H502 C488 0.960 . S
H503 C489 0.961 . S
H504 C489 0.961 . S
H505 C489 0.961 . S
H506 C490 0.931 . S
H507 C495 0.930 . S
H508 C496 0.956 . S
H509 C496 0.961 . S
H510 C496 0.961 . S
H511 C497 0.958 . S
H512 C497 0.961 . S
H513 C497 0.960 . S
C514 C515 1.391 . S
C514 C516 1.394 . S
C514 H530 0.931 . S
C515 C514 1.391 . S
C515 C519 1.376 . S
C516 C514 1.394 . S
C516 C517 1.369 . S
C516 C520 1.531 . S
C517 C516 1.369 . S
C517 C518 1.410 . S
C517 C525 1.503 . S
C518 C517 1.410 . S
C518 C519 1.392 . S
C518 C521 1.511 . S
C519 C515 1.376 . S
C519 C518 1.392 . S
C519 H531 0.929 . S
C520 C516 1.531 . S
C520 H532 0.960 . S
C520 H533 0.962 . S
C520 H534 0.960 . S
C521 C518 1.511 . S
C521 H535 0.961 . S
C521 H536 0.961 . S
C521 H537 0.961 . S
C522 C523 1.370 . S
C522 C524 1.363 . S
C522 H538 0.931 . S
C523 C522 1.370 . S
C523 C527 1.408 . S
C524 C522 1.363 . S
C524 C525 1.370 . S
C524 C528 1.524 . S
C525 C517 1.503 . S
C525 C524 1.370 . S
C525 C526 1.403 . S
C526 C525 1.403 . S
C526 C527 1.404 . S
C526 C529 1.539 . S
C527 C523 1.408 . S
C527 C526 1.404 . S
C527 H539 0.930 . S
C528 C524 1.524 . S
C528 H540 0.956 . S
C528 H541 0.961 . S
C528 H542 0.961 . S
C529 C526 1.539 . S
C529 H543 0.958 . S
C529 H544 0.961 . S
C529 H545 0.960 . S
H530 C514 0.931 . S
H531 C519 0.929 . S
H532 C520 0.960 . S
H533 C520 0.962 . S
H534 C520 0.960 . S
H535 C521 0.961 . S
H536 C521 0.961 . S
H537 C521 0.961 . S
H538 C522 0.931 . S
H539 C527 0.930 . S
H540 C528 0.956 . S
H541 C528 0.961 . S
H542 C528 0.961 . S
H543 C529 0.958 . S
H544 C529 0.961 . S
H545 C529 0.960 . S
C546 C547 1.391 . S
C546 C548 1.394 . S
C546 H562 0.931 . S
C547 C546 1.391 . S
C547 C551 1.376 . S
C548 C546 1.394 . S
C548 C549 1.369 . S
C548 C552 1.531 . S
C549 C548 1.369 . S
C549 C550 1.410 . S
C549 C557 1.503 . S
C550 C549 1.410 . S
C550 C551 1.392 . S
C550 C553 1.511 . S
C551 C547 1.376 . S
C551 C550 1.392 . S
C551 H563 0.929 . S
C552 C548 1.531 . S
C552 H564 0.960 . S
C552 H565 0.962 . S
C552 H566 0.960 . S
C553 C550 1.511 . S
C553 H567 0.961 . S
C553 H568 0.961 . S
C553 H569 0.961 . S
C554 C555 1.370 . S
C554 C556 1.363 . S
C554 H570 0.931 . S
C555 C554 1.370 . S
C555 C559 1.408 . S
C556 C554 1.363 . S
C556 C557 1.370 . S
C556 C560 1.524 . S
C557 C549 1.503 . S
C557 C556 1.370 . S
C557 C558 1.403 . S
C558 C557 1.403 . S
C558 C559 1.404 . S
C558 C561 1.539 . S
C559 C555 1.408 . S
C559 C558 1.404 . S
C559 H571 0.930 . S
C560 C556 1.524 . S
C560 H572 0.956 . S
C560 H573 0.961 . S
C560 H574 0.961 . S
C561 C558 1.539 . S
C561 H575 0.958 . S
C561 H576 0.961 . S
C561 H577 0.960 . S
H562 C546 0.931 . S
H563 C551 0.929 . S
H564 C552 0.960 . S
H565 C552 0.962 . S
H566 C552 0.960 . S
H567 C553 0.961 . S
H568 C553 0.961 . S
H569 C553 0.961 . S
H570 C554 0.931 . S
H571 C559 0.930 . S
H572 C560 0.956 . S
H573 C560 0.961 . S
H574 C560 0.961 . S
H575 C561 0.958 . S
H576 C561 0.961 . S
H577 C561 0.960 . S
C578 C579 1.391 . S
C578 C580 1.394 . S
C578 H594 0.931 . S
C579 C578 1.391 . S
C579 C583 1.376 . S
C580 C578 1.394 . S
C580 C581 1.369 . S
C580 C584 1.531 . S
C581 C580 1.369 . S
C581 C582 1.410 . S
C581 C589 1.503 . S
C582 C581 1.410 . S
C582 C583 1.392 . S
C582 C585 1.511 . S
C583 C579 1.376 . S
C583 C582 1.392 . S
C583 H595 0.929 . S
C584 C580 1.531 . S
C584 H596 0.960 . S
C584 H597 0.962 . S
C584 H598 0.960 . S
C585 C582 1.511 . S
C585 H599 0.961 . S
C585 H600 0.961 . S
C585 H601 0.961 . S
C586 C587 1.370 . S
C586 C588 1.363 . S
C586 H602 0.931 . S
C587 C586 1.370 . S
C587 C591 1.408 . S
C588 C586 1.363 . S
C588 C589 1.370 . S
C588 C592 1.524 . S
C589 C581 1.503 . S
C589 C588 1.370 . S
C589 C590 1.403 . S
C590 C589 1.403 . S
C590 C591 1.404 . S
C590 C593 1.539 . S
C591 C587 1.408 . S
C591 C590 1.404 . S
C591 H603 0.930 . S
C592 C588 1.524 . S
C592 H604 0.956 . S
C592 H605 0.961 . S
C592 H606 0.961 . S
C593 C590 1.539 . S
C593 H607 0.958 . S
C593 H608 0.961 . S
C593 H609 0.960 . S
H594 C578 0.931 . S
H595 C583 0.929 . S
H596 C584 0.960 . S
H597 C584 0.962 . S
H598 C584 0.960 . S
H599 C585 0.961 . S
H600 C585 0.961 . S
H601 C585 0.961 . S
H602 C586 0.931 . S
H603 C591 0.930 . S
H604 C592 0.956 . S
H605 C592 0.961 . S
H606 C592 0.961 . S
H607 C593 0.958 . S
H608 C593 0.961 . S
H609 C593 0.960 . S
C610 C611 1.391 . S
C610 C612 1.394 . S
C610 H626 0.931 . S
C611 C610 1.391 . S
C611 C615 1.376 . S
C612 C610 1.394 . S
C612 C613 1.369 . S
C612 C616 1.531 . S
C613 C612 1.369 . S
C613 C614 1.410 . S
C613 C621 1.503 . S
C614 C613 1.410 . S
C614 C615 1.392 . S
C614 C617 1.511 . S
C615 C611 1.376 . S
C615 C614 1.392 . S
C615 H627 0.929 . S
C616 C612 1.531 . S
C616 H628 0.960 . S
C616 H629 0.962 . S
C616 H630 0.960 . S
C617 C614 1.511 . S
C617 H631 0.961 . S
C617 H632 0.961 . S
C617 H633 0.961 . S
C618 C619 1.370 . S
C618 C620 1.363 . S
C618 H634 0.931 . S
C619 C618 1.370 . S
C619 C623 1.408 . S
C620 C618 1.363 . S
C620 C621 1.370 . S
C620 C624 1.524 . S
C621 C613 1.503 . S
C621 C620 1.370 . S
C621 C622 1.403 . S
C622 C621 1.403 . S
C622 C623 1.404 . S
C622 C625 1.539 . S
C623 C619 1.408 . S
C623 C622 1.404 . S
C623 H635 0.930 . S
C624 C620 1.524 . S
C624 H636 0.956 . S
C624 H637 0.961 . S
C624 H638 0.961 . S
C625 C622 1.539 . S
C625 H639 0.958 . S
C625 H640 0.961 . S
C625 H641 0.960 . S
H626 C610 0.931 . S
H627 C615 0.929 . S
H628 C616 0.960 . S
H629 C616 0.962 . S
H630 C616 0.960 . S
H631 C617 0.961 . S
H632 C617 0.961 . S
H633 C617 0.961 . S
H634 C618 0.931 . S
H635 C623 0.930 . S
H636 C624 0.956 . S
H637 C624 0.961 . S
H638 C624 0.961 . S
H639 C625 0.958 . S
H640 C625 0.961 . S
H641 C625 0.960 . S
C642 C643 1.391 . S
C642 C644 1.394 . S
C642 H658 0.931 . S
C643 C642 1.391 . S
C643 C647 1.376 . S
C644 C642 1.394 . S
C644 C645 1.369 . S
C644 C648 1.531 . S
C645 C644 1.369 . S
C645 C646 1.410 . S
C645 C653 1.503 . S
C646 C645 1.410 . S
C646 C647 1.392 . S
C646 C649 1.511 . S
C647 C643 1.376 . S
C647 C646 1.392 . S
C647 H659 0.929 . S
C648 C644 1.531 . S
C648 H660 0.960 . S
C648 H661 0.962 . S
C648 H662 0.960 . S
C649 C646 1.511 . S
C649 H663 0.961 . S
C649 H664 0.961 . S
C649 H665 0.961 . S
C650 C651 1.370 . S
C650 C652 1.363 . S
C650 H666 0.931 . S
C651 C650 1.370 . S
C651 C655 1.408 . S
C652 C650 1.363 . S
C652 C653 1.370 . S
C652 C656 1.524 . S
C653 C645 1.503 . S
C653 C652 1.370 . S
C653 C654 1.403 . S
C654 C653 1.403 . S
C654 C655 1.404 . S
C654 C657 1.539 . S
C655 C651 1.408 . S
C655 C654 1.404 . S
C655 H667 0.930 . S
C656 C652 1.524 . S
C656 H668 0.956 . S
C656 H669 0.961 . S
C656 H670 0.961 . S
C657 C654 1.539 . S
C657 H671 0.958 . S
C657 H672 0.961 . S
C657 H673 0.960 . S
H658 C642 0.931 . S
H659 C647 0.929 . S
H660 C648 0.960 . S
H661 C648 0.962 . S
H662 C648 0.960 . S
H663 C649 0.961 . S
H664 C649 0.961 . S
H665 C649 0.961 . S
H666 C650 0.931 . S
H667 C655 0.930 . S
H668 C656 0.956 . S
H669 C656 0.961 . S
H670 C656 0.961 . S
H671 C657 0.958 . S
H672 C657 0.961 . S
H673 C657 0.960 . S
C674 C675 1.391 . S
C674 C676 1.394 . S
C674 H690 0.931 . S
C675 C674 1.391 . S
C675 C679 1.376 . S
C676 C674 1.394 . S
C676 C677 1.369 . S
C676 C680 1.531 . S
C677 C676 1.369 . S
C677 C678 1.410 . S
C677 C685 1.503 . S
C678 C677 1.410 . S
C678 C679 1.392 . S
C678 C681 1.511 . S
C679 C675 1.376 . S
C679 C678 1.392 . S
C679 H691 0.929 . S
C680 C676 1.531 . S
C680 H692 0.960 1_556 S
C680 H693 0.962 . S
C680 H694 0.960 . S
C681 C678 1.511 . S
C681 H695 0.961 . S
C681 H696 0.961 . S
C681 H697 0.961 . S
C682 C683 1.369 1_556 S
C682 C684 1.363 . S
C682 H698 0.931 . S
C683 C682 1.369 1_554 S
C683 C687 1.408 1_554 S
C684 C682 1.363 . S
C684 C685 1.370 . S
C684 C688 1.524 . S
C685 C677 1.503 . S
C685 C684 1.370 . S
C685 C686 1.403 . S
C686 C685 1.403 . S
C686 C687 1.404 . S
C686 C689 1.539 . S
C687 C683 1.408 1_556 S
C687 C686 1.404 . S
C687 H699 0.930 1_556 S
C688 C684 1.524 . S
C688 H700 0.956 . S
C688 H701 0.961 . S
C688 H702 0.961 . S
C689 C686 1.539 . S
C689 H703 0.958 . S
C689 H704 0.961 . S
C689 H705 0.960 . S
H690 C674 0.931 . S
H691 C679 0.929 . S
H692 C680 0.960 1_554 S
H693 C680 0.962 . S
H694 C680 0.960 . S
H695 C681 0.961 . S
H696 C681 0.961 . S
H697 C681 0.961 . S
H698 C682 0.931 . S
H699 C687 0.930 1_554 S
H700 C688 0.956 . S
H701 C688 0.961 . S
H702 C688 0.961 . S
H703 C689 0.958 . S
H704 C689 0.961 . S
H705 C689 0.960 . S
C706 C707 1.391 . S
C706 C708 1.394 . S
C706 H722 0.931 . S
C707 C706 1.391 . S
C707 C711 1.376 . S
C708 C706 1.394 . S
C708 C709 1.369 . S
C708 C712 1.531 . S
C709 C708 1.369 . S
C709 C710 1.410 . S
C709 C717 1.503 . S
C710 C709 1.410 . S
C710 C711 1.392 . S
C710 C713 1.511 . S
C711 C707 1.376 . S
C711 C710 1.392 . S
C711 H723 0.929 . S
C712 C708 1.531 . S
C712 H724 0.960 . S
C712 H725 0.962 . S
C712 H726 0.960 . S
C713 C710 1.511 . S
C713 H727 0.961 . S
C713 H728 0.961 . S
C713 H729 0.961 . S
C714 C715 1.370 . S
C714 C716 1.363 . S
C714 H730 0.931 . S
C715 C714 1.370 . S
C715 C719 1.408 . S
C716 C714 1.363 . S
C716 C717 1.370 . S
C716 C720 1.524 . S
C717 C709 1.503 . S
C717 C716 1.370 . S
C717 C718 1.403 . S
C718 C717 1.403 . S
C718 C719 1.404 . S
C718 C721 1.539 . S
C719 C715 1.408 . S
C719 C718 1.404 . S
C719 H731 0.930 . S
C720 C716 1.524 . S
C720 H732 0.956 . S
C720 H733 0.961 . S
C720 H734 0.961 . S
C721 C718 1.539 . S
C721 H735 0.958 . S
C721 H736 0.961 . S
C721 H737 0.960 . S
H722 C706 0.931 . S
H723 C711 0.929 . S
H724 C712 0.960 . S
H725 C712 0.962 . S
H726 C712 0.960 . S
H727 C713 0.961 . S
H728 C713 0.961 . S
H729 C713 0.961 . S
H730 C714 0.931 . S
H731 C719 0.930 . S
H732 C720 0.956 . S
H733 C720 0.961 . S
H734 C720 0.961 . S
H735 C721 0.958 . S
H736 C721 0.961 . S
H737 C721 0.960 . S
C355 C3 1.293 . S
C363 C182 1.288 . S
C387 C241 1.288 . S
C395 C62 1.290 . S
C419 C123 1.277 . S
C427 C298 1.277 . S
C451 C180 1.265 . S
C459 C5 1.285 . S
C483 C64 1.291 . S
C491 C239 1.290 . S
C515 C300 1.292 . S
C523 C121 1.290 . S
C547 C33 1.495 . S
C555 C151 1.513 . S
C579 C92 1.498 . S
C587 C229 1.518 . S
C611 C288 1.499 . S
C619 C170 1.520 . S
C643 C328 1.495 . S
C651 C210 1.511 . S
C675 C269 1.515 . S
C683 C52 1.516 . S
C707 C347 1.500 1_554 S
C715 C111 1.520 . S
