# Generated by pormake.
# Topology uob, (4)-cn, num edge types: 1
# Building blocks:
#     Node 0, Type 0, BuildingBlock: QUQFOY_clean_sbu_3, # of connection points: 4
#     Node 1, Type 0, BuildingBlock: QUQFOY_clean_sbu_3, # of connection points: 4
#     Node 2, Type 0, BuildingBlock: QUQFOY_clean_sbu_3, # of connection points: 4
#     Node 3, Type 0, BuildingBlock: QUQFOY_clean_sbu_3, # of connection points: 4
#     Node 4, Type 0, BuildingBlock: QUQFOY_clean_sbu_3, # of connection points: 4
#     Node 5, Type 0, BuildingBlock: QUQFOY_clean_sbu_3, # of connection points: 4
#     Node 6, Type 0, BuildingBlock: QUQFOY_clean_sbu_3, # of connection points: 4
#     Node 7, Type 0, BuildingBlock: QUQFOY_clean_sbu_3, # of connection points: 4
#     Node 8, Type 0, BuildingBlock: QUQFOY_clean_sbu_3, # of connection points: 4
#     Node 9, Type 0, BuildingBlock: QUQFOY_clean_sbu_3, # of connection points: 4
#     Node 10, Type 0, BuildingBlock: QUQFOY_clean_sbu_3, # of connection points: 4
#     Node 11, Type 0, BuildingBlock: QUQFOY_clean_sbu_3, # of connection points: 4
#     Node 12, Type 0, BuildingBlock: QUQFOY_clean_sbu_3, # of connection points: 4
#     Node 13, Type 0, BuildingBlock: QUQFOY_clean_sbu_3, # of connection points: 4
#     Node 14, Type 0, BuildingBlock: QUQFOY_clean_sbu_3, # of connection points: 4
#     Node 15, Type 0, BuildingBlock: QUQFOY_clean_sbu_3, # of connection points: 4
#     Edge 16, Type (0, 0), BuildingBlock: CIFDUS_clean_linker_0, # of connection points: 2
#     Edge 17, Type (0, 0), BuildingBlock: CIFDUS_clean_linker_0, # of connection points: 2
#     Edge 18, Type (0, 0), BuildingBlock: CIFDUS_clean_linker_0, # of connection points: 2
#     Edge 19, Type (0, 0), BuildingBlock: CIFDUS_clean_linker_0, # of connection points: 2
#     Edge 20, Type (0, 0), BuildingBlock: CIFDUS_clean_linker_0, # of connection points: 2
#     Edge 21, Type (0, 0), BuildingBlock: CIFDUS_clean_linker_0, # of connection points: 2
#     Edge 22, Type (0, 0), BuildingBlock: CIFDUS_clean_linker_0, # of connection points: 2
#     Edge 23, Type (0, 0), BuildingBlock: CIFDUS_clean_linker_0, # of connection points: 2
#     Edge 24, Type (0, 0), BuildingBlock: CIFDUS_clean_linker_0, # of connection points: 2
#     Edge 25, Type (0, 0), BuildingBlock: CIFDUS_clean_linker_0, # of connection points: 2
#     Edge 26, Type (0, 0), BuildingBlock: CIFDUS_clean_linker_0, # of connection points: 2
#     Edge 27, Type (0, 0), BuildingBlock: CIFDUS_clean_linker_0, # of connection points: 2
#     Edge 28, Type (0, 0), BuildingBlock: CIFDUS_clean_linker_0, # of connection points: 2
#     Edge 29, Type (0, 0), BuildingBlock: CIFDUS_clean_linker_0, # of connection points: 2
#     Edge 30, Type (0, 0), BuildingBlock: CIFDUS_clean_linker_0, # of connection points: 2
#     Edge 31, Type (0, 0), BuildingBlock: CIFDUS_clean_linker_0, # of connection points: 2
#     Edge 32, Type (0, 0), BuildingBlock: CIFDUS_clean_linker_0, # of connection points: 2
#     Edge 33, Type (0, 0), BuildingBlock: CIFDUS_clean_linker_0, # of connection points: 2
#     Edge 34, Type (0, 0), BuildingBlock: CIFDUS_clean_linker_0, # of connection points: 2
#     Edge 35, Type (0, 0), BuildingBlock: CIFDUS_clean_linker_0, # of connection points: 2
#     Edge 36, Type (0, 0), BuildingBlock: CIFDUS_clean_linker_0, # of connection points: 2
#     Edge 37, Type (0, 0), BuildingBlock: CIFDUS_clean_linker_0, # of connection points: 2
#     Edge 38, Type (0, 0), BuildingBlock: CIFDUS_clean_linker_0, # of connection points: 2
#     Edge 39, Type (0, 0), BuildingBlock: CIFDUS_clean_linker_0, # of connection points: 2
#     Edge 40, Type (0, 0), BuildingBlock: CIFDUS_clean_linker_0, # of connection points: 2
#     Edge 41, Type (0, 0), BuildingBlock: CIFDUS_clean_linker_0, # of connection points: 2
#     Edge 42, Type (0, 0), BuildingBlock: CIFDUS_clean_linker_0, # of connection points: 2
#     Edge 43, Type (0, 0), BuildingBlock: CIFDUS_clean_linker_0, # of connection points: 2
#     Edge 44, Type (0, 0), BuildingBlock: CIFDUS_clean_linker_0, # of connection points: 2
#     Edge 45, Type (0, 0), BuildingBlock: CIFDUS_clean_linker_0, # of connection points: 2
#     Edge 46, Type (0, 0), BuildingBlock: CIFDUS_clean_linker_0, # of connection points: 2
#     Edge 47, Type (0, 0), BuildingBlock: CIFDUS_clean_linker_0, # of connection points: 2
# Relax obj value: 0.167
# Max RMSD: 0.202
# Mean RMSD: 0.202
data_MOF--net-uob--node1-QUQFOY_clean_sbu_3--edge1-CIFDUS_clean_linker_0
_symmetry_space_group_name_H-M    P1
_symmetry_Int_Tables_number       1
_symmetry_cell_setting            triclinic
loop_
_symmetry_equiv_pos_as_xyz
'x, y, z'
_cell_length_a     48.913892
_cell_length_b     49.222489
_cell_length_c     25.96198
_cell_angle_alpha  89.568264
_cell_angle_beta   89.156028
_cell_angle_gamma 89.629474
loop_
_atom_site_label
_atom_site_type_symbol
_atom_site_fract_x
_atom_site_fract_y
_atom_site_fract_z
_atom_type_partial_charge
C0 C 0.1115 0.09745 0.1314 0.0
O1 O 0.09606 0.11437 0.15456 0.0
Cd2 Cd 0.08302 0.11384 0.24319 0.0
O3 O 0.12303 0.07814 0.15642 0.0
Cd4 Cd 0.12283 0.06363 0.25015 0.0
C5 C 0.05448 0.05037 0.24715 0.0
O6 O 0.12317 0.10844 0.29291 0.0
O7 O 0.11156 0.07321 0.3382 0.0
O8 O 0.17264 0.05471 0.25251 0.0
C9 C 0.11885 0.0978 0.33686 0.0
O10 O 0.0515 0.07599 0.251 0.0
C11 C 0.17055 0.03397 0.28173 0.0
O12 O 0.07835 0.03984 0.24286 0.0
O13 O 0.14659 0.02495 0.28971 0.0
C14 C 0.89903 0.62164 0.3755 0.0
O15 O 0.88149 0.60771 0.40035 0.0
Cd16 Cd 0.88808 0.59059 0.48511 0.0
O17 O 0.92049 0.62991 0.3978 0.0
Cd18 Cd 0.93776 0.6268 0.48848 0.0
C19 C 0.9517 0.56047 0.47172 0.0
O20 O 0.89728 0.6246 0.54729 0.0
O21 O 0.93459 0.60399 0.56877 0.0
O22 O 0.94243 0.67627 0.4979 0.0
C23 C 0.91142 0.61331 0.58221 0.0
O24 O 0.92598 0.55827 0.47883 0.0
C25 C 0.96472 0.67512 0.52224 0.0
O26 O 0.96284 0.5839 0.4695 0.0
O27 O 0.97621 0.65196 0.52543 0.0
C28 C 0.36888 0.3895 0.63909 0.0
O29 O 0.38616 0.37447 0.66189 0.0
Cd30 Cd 0.39983 0.37876 0.74911 0.0
O31 O 0.35608 0.40823 0.66354 0.0
Cd32 Cd 0.35452 0.42567 0.75426 0.0
C33 C 0.42144 0.4452 0.74297 0.0
O34 O 0.35904 0.38177 0.79993 0.0
O35 O 0.36414 0.41864 0.84347 0.0
O36 O 0.30439 0.42873 0.74775 0.0
C37 C 0.36109 0.39317 0.8433 0.0
O38 O 0.42693 0.42003 0.74842 0.0
C39 C 0.30172 0.44897 0.7775 0.0
O40 O 0.39661 0.45345 0.74112 0.0
O41 O 0.32359 0.46033 0.79157 0.0
C42 C 0.59659 0.87884 0.8904 0.0
O43 O 0.61117 0.89572 0.91431 0.0
Cd44 Cd 0.60592 0.90706 0.00341 0.0
O45 O 0.57842 0.86493 0.91453 0.0
Cd46 Cd 0.56111 0.85902 0.00583 0.0
C47 C 0.53728 0.9245 0.00289 0.0
O48 O 0.60404 0.86602 0.05202 0.0
O49 O 0.56626 0.86649 0.09646 0.0
O50 O 0.56578 0.81019 -0.00484 0.0
C51 C 0.59213 0.8666 0.09577 0.0
O52 O 0.56234 0.9309 0.00691 0.0
C53 C 0.54422 0.80353 0.01988 0.0
O54 O 0.53027 0.89957 -0.00079 0.0
O55 O 0.52841 0.82288 0.03355 0.0
C56 C 0.10555 0.37037 0.08407 0.0
O57 O 0.09093 0.35457 0.05776 0.0
Cd58 Cd 0.08052 0.35983 -0.03105 0.0
O59 O 0.11738 0.39075 0.06287 0.0
Cd60 Cd 0.1205 0.41083 -0.02598 0.0
C61 C 0.05177 0.42374 -0.02219 0.0
O62 O 0.12238 0.36832 0.92437 0.0
O63 O 0.11353 0.40584 0.88383 0.0
O64 O 0.16987 0.41849 -0.0157 0.0
C65 C 0.11998 0.38096 0.88197 0.0
O66 O 0.04937 0.39853 -0.03163 0.0
C67 C 0.17058 0.43993 -0.04323 0.0
O68 O 0.07534 0.43407 -0.01503 0.0
O69 O 0.14773 0.44966 0.94284 0.0
C70 C 0.59732 0.61005 0.33408 0.0
O71 O 0.6131 0.59382 0.31005 0.0
Cd72 Cd 0.60328 0.57394 0.22904 0.0
O73 O 0.57585 0.61935 0.31265 0.0
Cd74 Cd 0.55446 0.61602 0.22608 0.0
C75 C 0.5373 0.55064 0.25122 0.0
O76 O 0.59105 0.60565 0.1642 0.0
O77 O 0.55019 0.59066 0.14924 0.0
O78 O 0.56231 0.66113 0.19351 0.0
C79 C 0.57439 0.59497 0.13324 0.0
O80 O 0.56285 0.54657 0.24441 0.0
C81 C 0.5376 0.66854 0.18908 0.0
O82 O 0.52721 0.57473 0.24939 0.0
O83 O 0.51943 0.65227 0.20651 0.0
C84 C 0.37139 0.08973 0.58477 0.0
O85 O 0.38809 0.10517 0.56103 0.0
Cd86 Cd 0.40158 0.10297 0.47273 0.0
O87 O 0.3587 0.07122 0.56056 0.0
Cd88 Cd 0.35833 0.0562 0.46756 0.0
C89 C 0.4256 0.03744 0.47212 0.0
O90 O 0.36135 0.10061 0.42253 0.0
O91 O 0.37054 0.06427 0.37919 0.0
O92 O 0.30806 0.05112 0.46459 0.0
C93 C 0.36506 0.08939 0.37918 0.0
O94 O 0.43054 0.06269 0.46714 0.0
C95 C 0.30894 0.03007 0.43655 0.0
O96 O 0.401 0.02905 0.47654 0.0
O97 O 0.3323 0.01922 0.42949 0.0
C98 C 0.90342 0.87492 0.82624 0.0
O99 O 0.88786 0.89182 0.80369 0.0
Cd100 Cd 0.88953 0.90498 0.71529 0.0
O101 O 0.92198 0.86213 0.80083 0.0
Cd102 Cd 0.93713 0.86207 0.70735 0.0
C103 C 0.95485 0.92924 0.71105 0.0
O104 O 0.89194 0.86444 0.66566 0.0
O105 O 0.92793 0.87266 0.61898 0.0
O106 O 0.94394 0.81218 0.70496 0.0
C107 C 0.9027 0.86736 0.62128 0.0
O108 O 0.92938 0.93418 0.70739 0.0
C109 C 0.96507 0.81328 0.67594 0.0
O110 O 0.96356 0.90479 0.71489 0.0
O111 O 0.97511 0.83667 0.66785 0.0
C112 C 0.61645 0.59138 0.63392 0.0
O113 O 0.59888 0.60558 0.65824 0.0
Cd114 Cd 0.58211 0.59566 0.74299 0.0
O115 O 0.62807 0.57123 0.65596 0.0
Cd116 Cd 0.62656 0.55052 0.74411 0.0
C117 C 0.56119 0.52934 0.72998 0.0
O118 O 0.61763 0.58843 0.80315 0.0
O119 O 0.60525 0.54793 0.82669 0.0
O120 O 0.67339 0.5581 0.76673 0.0
C121 C 0.6101 0.57228 0.83899 0.0
O122 O 0.55552 0.55434 0.73702 0.0
C123 C 0.67997 0.53364 0.77617 0.0
O124 O 0.58612 0.52128 0.7272 0.0
O125 O 0.66254 0.51556 0.76497 0.0
C126 C 0.39027 0.10958 0.88712 0.0
O127 O 0.37565 0.09267 0.91215 0.0
Cd128 Cd 0.37955 0.08148 0.00146 0.0
O129 O 0.40847 0.12341 0.90997 0.0
Cd130 Cd 0.42555 0.12755 0.00077 0.0
C131 C 0.44693 0.06105 -5e-05 0.0
O132 O 0.38153 0.12297 0.04788 0.0
O133 O 0.41887 0.11985 0.09109 0.0
O134 O 0.42794 0.17744 -0.00859 0.0
C135 C 0.39311 0.12193 0.09124 0.0
O136 O 0.42176 0.05521 0.00596 0.0
C137 C 0.449 0.18004 0.01898 0.0
O138 O 0.45441 0.08575 -0.00592 0.0
O139 O 0.46095 0.15827 0.03288 0.0
C140 C 0.88266 0.88963 0.1305 0.0
O141 O 0.89779 0.87284 0.15435 0.0
Cd142 Cd 0.90857 0.87449 0.24377 0.0
O143 O 0.87049 0.90884 0.15473 0.0
Cd144 Cd 0.86712 0.92486 0.24646 0.0
C145 C 0.9353 0.93913 0.24522 0.0
O146 O 0.8673 0.88051 0.29217 0.0
O147 O 0.87422 0.91695 0.33601 0.0
O148 O 0.81749 0.93196 0.23817 0.0
C149 C 0.8695 0.89174 0.33573 0.0
O150 O 0.93846 0.91353 0.24974 0.0
C151 C 0.81643 0.95277 0.26679 0.0
O152 O 0.91142 0.94947 0.24016 0.0
O153 O 0.83912 0.96245 0.28078 0.0
C154 C 0.11148 0.38112 0.38954 0.0
O155 O 0.12737 0.39564 0.41585 0.0
Cd156 Cd 0.1215 0.4065 0.50432 0.0
O157 O 0.09062 0.36985 0.41062 0.0
Cd158 Cd 0.06971 0.36775 0.49947 0.0
C159 C 0.05753 0.43604 0.49517 0.0
O160 O 0.11256 0.3649 0.54801 0.0
O161 O 0.07523 0.37446 0.58993 0.0
O162 O 0.06131 0.31887 0.48803 0.0
C163 C 0.10009 0.36731 0.59083 0.0
O164 O 0.08297 0.4379 0.50414 0.0
C165 C 0.04015 0.31823 0.51694 0.0
O166 O 0.04661 0.4128 0.48862 0.0
O167 O 0.03075 0.34095 0.53209 0.0
C168 C 0.6167 0.89839 0.58635 0.0
O169 O 0.6003 0.883 0.56307 0.0
Cd170 Cd 0.58819 0.88623 0.47437 0.0
O171 O 0.62976 0.91689 0.56164 0.0
Cd172 Cd 0.63317 0.93297 0.46925 0.0
C173 C 0.56619 0.95287 0.47335 0.0
O174 O 0.62905 0.88919 0.42391 0.0
O175 O 0.6244 0.92631 0.37978 0.0
O176 O 0.68324 0.93579 0.47585 0.0
C177 C 0.62697 0.90075 0.38027 0.0
O178 O 0.56101 0.92766 0.46933 0.0
C179 C 0.68558 0.9567 0.44719 0.0
O180 O 0.59085 0.96104 0.47717 0.0
O181 O 0.66354 0.96833 0.43368 0.0
C182 C 0.09386 0.11661 0.82778 0.0
O183 O 0.10911 0.1 0.80337 0.0
Cd184 Cd 0.10619 0.08945 0.71396 0.0
O185 O 0.07556 0.13038 0.8042 0.0
Cd186 Cd 0.05919 0.13487 0.71287 0.0
C187 C 0.03915 0.06843 0.71342 0.0
O188 O 0.10372 0.13108 0.66695 0.0
O189 O 0.06677 0.1276 0.6229 0.0
O190 O 0.0559 0.18461 0.72226 0.0
C191 C 0.09245 0.13011 0.62332 0.0
O192 O 0.06454 0.06306 0.70828 0.0
C193 C 0.03523 0.1874 0.6936 0.0
O194 O 0.03089 0.09296 0.71903 0.0
O195 O 0.0238 0.16574 0.67906 0.0
C196 C 0.87948 0.59915 0.07608 0.0
O197 O 0.89515 0.6139 0.04855 0.0
Cd198 Cd 0.91111 0.60042 -0.0349 0.0
O199 O 0.86879 0.57789 0.05729 0.0
Cd200 Cd 0.86674 0.5545 -0.0278 0.0
C201 C 0.93138 0.53418 -0.00614 0.0
O202 O 0.87607 0.58951 0.9062 0.0
O203 O 0.8868 0.54757 0.88987 0.0
O204 O 0.81828 0.56355 -0.02962 0.0
C205 C 0.88394 0.57175 0.87377 0.0
O206 O 0.93648 0.55888 -0.0175 0.0
C207 C 0.8108 0.54069 -0.04649 0.0
O208 O 0.90672 0.52556 -0.00379 0.0
O209 O 0.82924 0.52238 -0.05025 0.0
C210 C 0.38322 0.37046 0.33549 0.0
O211 O 0.36591 0.38531 0.31236 0.0
Cd212 Cd 0.36819 0.39852 0.22379 0.0
O213 O 0.40334 0.35986 0.31076 0.0
Cd214 Cd 0.42047 0.35952 0.21929 0.0
C215 C 0.43201 0.42775 0.22664 0.0
O216 O 0.37655 0.3591 0.17371 0.0
O217 O 0.41321 0.36969 0.13052 0.0
O218 O 0.42805 0.31017 0.22659 0.0
C219 C 0.38822 0.36327 0.13044 0.0
O220 O 0.40631 0.4299 0.22044 0.0
C221 C 0.44868 0.30955 0.19635 0.0
O222 O 0.44335 0.40435 0.23108 0.0
O223 O 0.45826 0.33233 0.18184 0.0
H224 H 0.25462 0.02424 0.46175 0.0
H225 H 0.31184 0.02275 0.33401 0.0
H226 H 0.27422 0.02209 0.27324 0.0
H227 H 0.22474 0.02729 0.25627 0.0
H228 H 0.16746 0.02364 0.3838 0.0
H229 H 0.20506 0.02051 0.44444 0.0
C230 C 0.25875 0.02303 0.42067 0.0
C231 C 0.28593 0.02355 0.4024 0.0
C232 C 0.23694 0.02192 0.38576 0.0
C233 C 0.29107 0.02203 0.34905 0.0
C234 C 0.26955 0.0219 0.31418 0.0
C235 C 0.22057 0.02505 0.29722 0.0
C236 C 0.19339 0.02573 0.31548 0.0
C237 C 0.24236 0.02257 0.33201 0.0
C238 C 0.18822 0.02285 0.36869 0.0
C239 C 0.20974 0.02133 0.40352 0.0
H240 H 0.97038 0.75938 0.70192 0.0
H241 H 0.97545 0.81542 0.57384 0.0
H242 H 0.97769 0.77765 0.51352 0.0
H243 H 0.97256 0.7285 0.49671 0.0
H244 H 0.97271 0.67223 0.62454 0.0
H245 H 0.9745 0.70994 0.68521 0.0
C246 C 0.97274 0.76322 0.66091 0.0
C247 C 0.97269 0.79013 0.64239 0.0
C248 C 0.97474 0.7413 0.62627 0.0
C249 C 0.97573 0.79487 0.58912 0.0
C250 C 0.97677 0.77327 0.55448 0.0
C251 C 0.9738 0.72457 0.53778 0.0
C252 C 0.97252 0.6977 0.55619 0.0
C253 C 0.97552 0.74638 0.57249 0.0
C254 C 0.97402 0.69278 0.60948 0.0
C255 C 0.97477 0.71435 0.64424 0.0
H256 H 0.29199 0.45561 0.87907 0.0
H257 H 0.25173 0.45366 0.7327 0.0
H258 H 0.207 0.45556 0.77657 0.0
H259 H 0.17957 0.45206 0.85666 0.0
H260 H 0.2201 0.44623 0.00255 0.0
H261 H 0.26446 0.4534 -0.04065 0.0
C262 C 0.27338 0.45639 0.85685 0.0
C263 C 0.27506 0.45507 0.8027 0.0
C264 C 0.24781 0.45582 0.88252 0.0
C265 C 0.25088 0.45505 0.77432 0.0
C266 C 0.22535 0.45598 0.79945 0.0
C267 C 0.19808 0.45316 0.87907 0.0
C268 C 0.19659 0.4492 0.93284 0.0
C269 C 0.22356 0.45562 0.85356 0.0
C270 C 0.22076 0.44962 -0.03873 0.0
C271 C 0.24609 0.45355 0.93649 0.0
H272 H 0.50891 0.78428 0.0952 0.0
H273 H 0.57216 0.75887 -0.01217 0.0
H274 H 0.57442 0.71457 0.02972 0.0
H275 H 0.56232 0.68479 0.10191 0.0
H276 H 0.49846 0.70803 0.209 0.0
H277 H 0.49246 0.75138 0.16228 0.0
C278 C 0.52269 0.76882 0.08022 0.0
C279 C 0.54054 0.77511 0.03856 0.0
C280 C 0.52414 0.74318 0.10504 0.0
C281 C 0.55832 0.75477 0.01987 0.0
C282 C 0.55976 0.72941 0.04402 0.0
C283 C 0.54693 0.69929 0.11485 0.0
C284 C 0.53119 0.69354 0.15931 0.0
C285 C 0.54345 0.72374 0.08754 0.0
C286 C 0.51091 0.71214 0.17503 0.0
C287 C 0.50756 0.73691 0.14835 0.0
H288 H 0.69565 0.56139 0.85813 0.0
H289 H 0.71861 0.49258 0.76529 0.0
H290 H 0.76046 0.48645 0.81607 0.0
H291 H 0.79222 0.50364 0.88303 0.0
H292 H 0.76661 0.57181 -0.02384 0.0
H293 H 0.72383 0.57479 0.92997 0.0
C294 C 0.70981 0.54498 0.84903 0.0
C295 C 0.70448 0.52784 0.80737 0.0
C296 C 0.73325 0.54138 0.87881 0.0
C297 C 0.72251 0.50621 0.79687 0.0
C298 C 0.74637 0.50274 0.82594 0.0
C299 C 0.77696 0.51867 0.89401 0.0
C300 C 0.7828 0.53764 0.93287 0.0
C301 C 0.7522 0.52053 0.86661 0.0
C302 C 0.76282 0.55708 0.94633 0.0
C303 C 0.73835 0.55893 0.9197 0.0
H304 H 0.4538 0.30126 0.0943 0.0
H305 H 0.45951 0.26027 0.24092 0.0
H306 H 0.46482 0.21648 0.19719 0.0
H307 H 0.46223 0.18951 0.11778 0.0
H308 H 0.44885 0.23008 -0.02739 0.0
H309 H 0.45239 0.27435 0.01463 0.0
C310 C 0.457 0.28277 0.1165 0.0
C311 C 0.4569 0.28395 0.1707 0.0
C312 C 0.45835 0.25759 0.09112 0.0
C313 C 0.45998 0.25983 0.1992 0.0
C314 C 0.46283 0.23482 0.17416 0.0
C315 C 0.46084 0.20809 0.09518 0.0
C316 C 0.45579 0.20659 0.04197 0.0
C317 C 0.46131 0.23338 0.1202 0.0
C318 C 0.45307 0.23076 0.01343 0.0
C319 C 0.45495 0.25604 0.03754 0.0
H320 H 0.80752 0.96207 0.36768 0.0
H321 H 0.76676 0.96024 0.2218 0.0
H322 H 0.7224 0.96621 0.26574 0.0
H323 H 0.69502 0.96619 0.34623 0.0
H324 H 0.73558 0.96013 0.49207 0.0
H325 H 0.7802 0.96331 0.44812 0.0
C326 C 0.78894 0.96377 0.34551 0.0
C327 C 0.79035 0.96129 0.29152 0.0
C328 C 0.76348 0.9655 0.37132 0.0
C329 C 0.76613 0.96249 0.26328 0.0
C330 C 0.74081 0.96573 0.28846 0.0
C331 C 0.71366 0.96633 0.36838 0.0
C332 C 0.71211 0.96347 0.42236 0.0
C333 C 0.73918 0.96649 0.34255 0.0
C334 C 0.73634 0.96269 0.45059 0.0
C335 C 0.76181 0.96434 0.4254 0.0
H336 H 0.03095 0.30908 0.618 0.0
H337 H 0.03174 0.2693 0.47078 0.0
H338 H 0.02539 0.22515 0.5137 0.0
H339 H 0.02542 0.19754 0.59335 0.0
H340 H 0.0325 0.23698 0.74009 0.0
H341 H 0.02969 0.28158 0.69766 0.0
C342 C 0.02892 0.29079 0.59535 0.0
C343 C 0.0312 0.29242 0.54125 0.0
C344 C 0.02698 0.26541 0.62049 0.0
C345 C 0.02961 0.26852 0.51235 0.0
C346 C 0.02616 0.24331 0.53696 0.0
C347 C 0.02556 0.21595 0.61609 0.0
C348 C 0.02862 0.21406 0.66988 0.0
C349 C 0.02559 0.24143 0.59104 0.0
C350 C 0.02979 0.23799 0.69878 0.0
C351 C 0.02833 0.26345 0.67445 0.0
H352 H 0.05157 -0.00514 0.24595 0.0
H353 H 0.00116 0.06719 0.24768 0.0
H354 H 0.96007 0.03957 0.24678 0.0
H355 H 0.93806 -0.00524 0.24559 0.0
H356 H 0.98859 0.92249 0.24498 0.0
H357 H 0.02961 0.95013 0.24532 0.0
C358 C 0.03162 0.0046 0.24611 0.0
C359 C 0.02964 0.03311 0.24687 0.0
C360 C 0.00788 0.98857 0.24578 0.0
C361 C 0.00348 0.0453 0.24719 0.0
C362 C 0.97985 0.02951 0.24662 0.0
C363 C 0.95802 0.98505 0.24547 0.0
C364 C 0.96005 0.95653 0.24526 0.0
C365 C 0.98176 0.00111 0.24592 0.0
C366 C 0.98623 0.94438 0.24526 0.0
C367 C 0.00982 0.96018 0.24541 0.0
H368 H 0.00667 0.55463 0.48632 0.0
H369 H 0.93404 0.50915 0.45269 0.0
H370 H 0.96001 0.46676 0.45655 0.0
H371 H 0.00313 0.44215 0.47254 0.0
H372 H 0.07545 0.48787 0.50798 0.0
H373 H 0.04987 0.53017 0.50056 0.0
C374 C -0.0034 0.53548 0.47922 0.0
C375 C 0.96844 0.53519 0.46923 0.0
C376 C 0.01157 0.511 0.48235 0.0
C377 C 0.95569 0.51007 0.46064 0.0
C378 C 0.97052 0.48573 0.46294 0.0
C379 C 0.0133 0.46135 0.47867 0.0
C380 C 0.04122 0.4616 0.49099 0.0
C381 C -0.00158 0.48587 0.47443 0.0
C382 C 0.05399 0.48683 0.49859 0.0
C383 C 0.03938 0.51118 0.49426 0.0
H384 H 0.47584 0.43328 0.73509 0.0
H385 H 0.41921 0.50094 0.73995 0.0
H386 H 0.45745 0.53262 0.73412 0.0
H387 H 0.50675 0.54109 0.73012 0.0
H388 H 0.56352 0.47355 0.72551 0.0
H389 H 0.52522 0.4418 0.7283 0.0
C390 C 0.47176 0.45496 0.73487 0.0
C391 C 0.44454 0.46466 0.7383 0.0
C392 C 0.49385 0.47307 0.73142 0.0
C393 C 0.43983 0.49285 0.73751 0.0
C394 C 0.46172 0.51099 0.73417 0.0
C395 C 0.51088 0.51942 0.72947 0.0
C396 C 0.53814 0.50979 0.72779 0.0
C397 C 0.48879 0.50131 0.73144 0.0
C398 C 0.54287 0.4816 0.72675 0.0
C399 C 0.52094 0.46343 0.72852 0.0
H400 H 0.54677 0.97886 -0.00045 0.0
H401 H 0.48119 0.92052 0.00383 0.0
H402 H 0.44765 0.95766 0.00324 0.0
H403 H 0.43707 0.00657 0.0021 0.0
H404 H 0.50287 0.06468 -0.00317 0.0
H405 H 0.53626 0.02754 -0.00281 0.0
C406 C 0.52514 0.97413 0.00042 0.0
C407 C 0.51658 0.94679 0.00193 0.0
C408 C 0.50603 -0.00446 -0.00011 0.0
C409 C 0.48842 0.94127 0.00269 0.0
C410 C 0.46923 0.96252 0.00239 0.0
C411 C 0.45871 0.01121 0.00107 0.0
C412 C 0.46738 0.03853 -0.00041 0.0
C413 C 0.47782 0.98973 0.00111 0.0
C414 C 0.49555 0.04396 -0.00202 0.0
C415 C 0.51467 0.0227 -0.00177 0.0
H416 H 0.04669 0.47682 0.00756 0.0
H417 H -0.00041 0.40848 -0.04354 0.0
H418 H 0.95783 0.43554 -0.0384 0.0
H419 H 0.93456 0.47944 -0.02338 0.0
H420 H 0.9819 0.54787 0.02609 0.0
H421 H 0.02322 0.51996 0.02633 0.0
C422 C 0.02732 0.46783 -0.00245 0.0
C423 C 0.0265 0.44066 -0.01868 0.0
C424 C 0.00318 0.48353 0.00059 0.0
C425 C 0.00103 0.42936 -0.03108 0.0
C426 C 0.977 0.44482 -0.02808 0.0
C427 C 0.95383 0.48806 -0.01166 0.0
C428 C 0.95509 0.5157 0.00122 0.0
C429 C 0.9778 0.472 -0.01263 0.0
C430 C 0.98034 0.52665 0.01574 0.0
C431 C 0.00406 0.51074 0.01574 0.0
H432 H 0.48449 0.43397 0.26015 0.0
H433 H 0.41554 0.4791 0.20141 0.0
H434 H 0.44079 0.52133 0.20819 0.0
H435 H 0.4832 0.54569 0.22772 0.0
H436 H 0.55223 0.50054 0.28573 0.0
H437 H 0.52618 0.45856 0.28309 0.0
C438 C 0.47502 0.45302 0.24869 0.0
C439 C 0.44818 0.45316 0.23002 0.0
C440 C 0.48963 0.47747 0.25296 0.0
C441 C 0.43619 0.4782 0.21588 0.0
C442 C 0.4506 0.50249 0.21981 0.0
C443 C 0.49234 0.52675 0.24067 0.0
C444 C 0.51963 0.52635 0.25686 0.0
C445 C 0.47737 0.50242 0.23816 0.0
C446 C 0.53126 0.50149 0.2729 0.0
C447 C 0.51643 0.47738 0.27121 0.0
H448 H 0.47996 0.04924 0.47227 0.0
H449 H 0.42394 0.98176 0.47418 0.0
H450 H 0.46249 0.94994 0.47488 0.0
H451 H 0.51187 0.94128 0.47441 0.0
H452 H 0.56802 0.00864 0.47336 0.0
H453 H 0.52946 0.04054 0.47294 0.0
C454 C 0.47609 0.02757 0.4728 0.0
C455 C 0.44896 0.01796 0.47303 0.0
C456 C 0.49836 0.00938 0.47337 0.0
C457 C 0.4445 0.98978 0.47398 0.0
C458 C 0.46657 0.97156 0.47435 0.0
C459 C 0.51579 0.96294 0.47406 0.0
C460 C 0.54294 0.97249 0.47378 0.0
C461 C 0.49355 0.98114 0.47396 0.0
C462 C 0.54743 0.00066 0.47359 0.0
C463 C 0.52537 0.01893 0.4733 0.0
H464 H 0.05104 0.01439 0.71141 0.0
H465 H 0.98295 0.07067 0.71547 0.0
H466 H 0.95105 0.03258 0.71482 0.0
H467 H 0.94256 0.98339 0.71296 0.0
H468 H 0.01087 0.92734 0.71003 0.0
H469 H 0.04262 0.96543 0.71037 0.0
C470 C 0.02922 0.01845 0.71209 0.0
C471 C 0.01947 0.0455 0.71336 0.0
C472 C 0.01103 -0.00351 0.71192 0.0
C473 C 0.99109 0.05016 0.7145 0.0
C474 C 0.97282 0.02836 0.71409 0.0
C475 C 0.9644 0.97942 0.71232 0.0
C476 C 0.97425 0.9524 0.71135 0.0
C477 C 0.98258 0.00145 0.71276 0.0
C478 C 0.00264 0.94781 0.71079 0.0
C479 C 0.02084 0.96962 0.71096 0.0
H480 H 0.08294 0.15748 0.53596 0.0
H481 H 0.13574 0.09685 0.60301 0.0
H482 H 0.15229 0.08386 0.51701 0.0
H483 H 0.14472 0.0843 0.42343 0.0
H484 H 0.09253 0.14544 0.35633 0.0
H485 H 0.08293 0.16431 0.44192 0.0
C486 C 0.09871 0.14203 0.53155 0.0
C487 C 0.10799 0.12781 0.57501 0.0
C488 C 0.10787 0.13468 0.48226 0.0
C489 C 0.12849 0.10798 0.56968 0.0
C490 C 0.13771 0.10043 0.52064 0.0
C491 C 0.13192 0.10227 0.42769 0.0
C492 C 0.11899 0.11342 0.38447 0.0
C493 C 0.12653 0.11279 0.47673 0.0
C494 C 0.10262 0.13672 0.38952 0.0
C495 C 0.097 0.1473 0.43833 0.0
H496 H 0.93286 0.57918 0.65114 0.0
H497 H 0.86802 0.63809 0.63247 0.0
H498 H 0.85452 0.6319 0.72344 0.0
H499 H 0.8616 0.60911 0.80833 0.0
H500 H 0.92601 0.54923 0.82203 0.0
H501 H 0.93967 0.55685 0.73273 0.0
C502 C 0.91574 0.59075 0.66677 0.0
C503 C 0.90147 0.60909 0.63538 0.0
C504 C 0.90827 0.58708 0.71827 0.0
C505 C 0.8792 0.62372 0.65607 0.0
C506 C 0.87163 0.6203 0.70801 0.0
C507 C 0.87878 0.59808 0.79162 0.0
C508 C 0.89291 0.57876 0.82135 0.0
C509 C 0.88613 0.60207 0.73956 0.0
C510 C 0.91487 0.56417 0.79958 0.0
C511 C 0.92265 0.56845 0.74861 0.0
H512 H 0.40235 0.33798 0.04324 0.0
H513 H 0.34169 0.39145 0.11015 0.0
H514 H 0.32477 0.40283 0.02414 0.0
H515 H 0.33325 0.40352 0.93043 0.0
H516 H 0.39321 0.3493 0.86349 0.0
H517 H 0.4043 0.33161 -0.0507 0.0
C518 C 0.38488 0.35147 0.03878 0.0
C519 C 0.37333 0.3642 0.08214 0.0
C520 C 0.37549 0.35789 -0.01048 0.0
C521 C 0.35068 0.38148 0.07683 0.0
C522 C 0.34123 0.38812 0.02781 0.0
C523 C 0.34818 0.38729 0.93481 0.0
C524 C 0.36277 0.37785 0.89155 0.0
C525 C 0.35434 0.37738 -0.01606 0.0
C526 C 0.38186 0.35671 0.89674 0.0
C527 C 0.38829 0.34681 0.94565 0.0
H528 H 0.64999 0.91258 0.28865 0.0
H529 H 0.5961 0.85581 0.36526 0.0
H530 H 0.5824 0.83778 0.28177 0.0
H531 H 0.58097 0.84327 0.18745 0.0
H532 H 0.63616 0.89885 0.11088 0.0
H533 H 0.65465 0.91217 0.19414 0.0
C534 C 0.63575 0.89581 0.28686 0.0
C535 C 0.62371 0.88564 0.3324 0.0
C536 C 0.62811 0.88565 0.23901 0.0
C537 C 0.60555 0.86379 0.33035 0.0
C538 C 0.59759 0.85369 0.28274 0.0
C539 C 0.59744 0.85789 0.18915 0.0
C540 C 0.607 0.87048 0.14372 0.0
C541 C 0.60798 0.86522 0.23689 0.0
C542 C 0.62856 0.88904 0.14569 0.0
C543 C 0.63897 0.89673 0.19317 0.0
H544 H 0.08435 0.33713 0.67173 0.0
H545 H 0.14618 0.39322 0.61924 0.0
H546 H 0.16163 0.39889 0.70792 0.0
H547 H 0.15102 0.3945 0.80053 0.0
H548 H 0.08954 0.33803 0.85299 0.0
H549 H 0.08067 0.32512 0.76377 0.0
C550 C 0.10174 0.34991 0.67984 0.0
C551 C 0.114 0.36509 0.63999 0.0
C552 C 0.1103 0.35305 0.73058 0.0
C553 C 0.13661 0.38145 0.6499 0.0
C554 C 0.14525 0.38481 0.70044 0.0
C555 C 0.13639 0.37868 0.79221 0.0
C556 C 0.12069 0.3673 0.83235 0.0
C557 C 0.13134 0.3717 0.74116 0.0
C558 C 0.10183 0.34683 0.82213 0.0
C559 C 0.09661 0.33971 0.77129 0.0
H560 H 0.60329 0.62301 0.06135 0.0
H561 H 0.56297 0.54675 0.09132 0.0
H562 H 0.5713 0.5328 0.00243 0.0
H563 H 0.58741 0.5433 0.91603 0.0
H564 H 0.62532 0.62047 0.8823 0.0
H565 H 0.62023 0.63341 -0.02699 0.0
C566 C 0.59686 0.6032 0.04829 0.0
C567 C 0.58282 0.58572 0.08221 0.0
C568 C 0.6008 0.59578 -0.00336 0.0
C569 C 0.57392 0.56033 0.06537 0.0
C570 C 0.57854 0.55245 0.01472 0.0
C571 C 0.59463 0.56297 0.92839 0.0
C572 C 0.6066 0.58097 0.8927 0.0
C573 C 0.59147 0.57022 -0.02008 0.0
C574 C 0.6158 0.60638 0.90923 0.0
C575 C 0.61304 0.6137 -0.039 0.0
H576 H 0.34001 0.07639 0.292 0.0
H577 H 0.39282 0.13595 0.35862 0.0
H578 H 0.40333 0.1545 0.27269 0.0
H579 H 0.40336 0.1481 0.17874 0.0
H580 H 0.34972 0.08926 0.11217 0.0
H581 H 0.33297 0.07624 0.19829 0.0
C582 C 0.35323 0.09391 0.28753 0.0
C583 C 0.36602 0.1047 0.33076 0.0
C584 C 0.35907 0.1043 0.23833 0.0
C585 C 0.38286 0.12748 0.32542 0.0
C586 C 0.38898 0.13789 0.27644 0.0
C587 C 0.38743 0.13298 0.18328 0.0
C588 C 0.37792 0.1193 0.13992 0.0
C589 C 0.3781 0.12567 0.23261 0.0
C590 C 0.35717 0.09996 0.14542 0.0
C591 C 0.34783 0.0924 0.19452 0.0
H592 H 0.91466 0.84021 0.53489 0.0
H593 H 0.85571 0.89521 0.60266 0.0
H594 H 0.83633 0.9043 0.51761 0.0
H595 H 0.84247 0.90288 0.42338 0.0
H596 H 0.90095 0.84736 0.3557 0.0
H597 H 0.91398 0.83141 0.44166 0.0
C598 C 0.89706 0.85357 0.53095 0.0
C599 C 0.88673 0.86743 0.57413 0.0
C600 C 0.8862 0.85861 0.48221 0.0
C601 C 0.86384 0.88446 0.56949 0.0
C602 C 0.85295 0.88975 0.52098 0.0
C603 C 0.85738 0.88662 0.42768 0.0
C604 C 0.87104 0.87638 0.38401 0.0
C605 C 0.86483 0.87788 0.47695 0.0
C606 C 0.89021 0.85531 0.3892 0.0
C607 C 0.89782 0.84646 0.43821 0.0
H608 H 0.12571 0.0854 0.89033 0.0
H609 H 0.06776 0.15199 0.89329 0.0
H610 H 0.06977 0.15296 -0.0128 0.0
H611 H 0.0859 0.13341 0.06818 0.0
H612 H 0.1425 0.0657 0.06595 0.0
H613 H 0.14322 0.06688 -0.0283 0.0
C614 C 0.11366 0.10032 0.91137 0.0
C615 C 0.0965 0.11856 0.88457 0.0
C616 C 0.11461 0.10051 -0.03454 0.0
C617 C 0.08105 0.13766 0.91273 0.0
C618 C 0.08218 0.13821 -0.03351 0.0
C619 C 0.09863 0.11899 0.04728 0.0
C620 C 0.11408 0.0994 0.07437 0.0
C621 C 0.09859 0.1195 -0.00678 0.0
C622 C 0.13038 0.08096 0.04629 0.0
C623 C 0.13075 0.08159 -0.00765 0.0
H624 H 0.8599 0.59972 0.31582 0.0
H625 H 0.93115 0.65102 0.30792 0.0
H626 H 0.92932 0.65105 0.21381 0.0
H627 H 0.91041 0.63255 0.13424 0.0
H628 H 0.84111 0.57873 0.14313 0.0
H629 H 0.83917 0.58384 0.2366 0.0
C630 C 0.87485 0.61128 0.2937 0.0
C631 C 0.89578 0.6252 0.31908 0.0
C632 C 0.87415 0.61055 0.23974 0.0
C633 C 0.9149 0.64003 0.28952 0.0
C634 C 0.91391 0.63997 0.23567 0.0
C635 C 0.89458 0.62228 0.15649 0.0
C636 C 0.87601 0.60514 0.13167 0.0
C637 C 0.89406 0.62471 0.21039 0.0
C638 C 0.85575 0.59188 0.16122 0.0
C639 C 0.85466 0.59478 0.21469 0.0
H640 H 0.39724 0.35583 0.57492 0.0
H641 H 0.33267 0.41611 0.57645 0.0
H642 H 0.32991 0.41362 0.48271 0.0
H643 H 0.34808 0.39686 0.40033 0.0
H644 H 0.41406 0.33811 0.39873 0.0
H645 H 0.4138 0.33736 0.49283 0.0
C646 C 0.38234 0.36827 0.55494 0.0
C647 C 0.36529 0.38627 0.58284 0.0
C648 C 0.38119 0.3671 0.50103 0.0
C649 C 0.34613 0.40217 0.55607 0.0
C650 C 0.34456 0.40079 0.50242 0.0
C651 C 0.36223 0.38362 0.42043 0.0
C652 C 0.38118 0.36766 0.39233 0.0
C653 C 0.36234 0.38369 0.47449 0.0
C654 C 0.39934 0.35069 0.41925 0.0
C655 C 0.39924 0.35028 0.47309 0.0
H656 H 0.58939 0.86328 0.64985 0.0
H657 H 0.64864 0.92793 0.65126 0.0
H658 H 0.64887 0.92626 0.74538 0.0
H659 H 0.63014 0.90846 0.82708 0.0
H660 H 0.56988 0.84472 0.82536 0.0
H661 H 0.57233 0.84401 0.73136 0.0
C662 C 0.60257 0.8769 0.67057 0.0
C663 C 0.61888 0.89583 0.64326 0.0
C664 C 0.60232 0.87609 0.72468 0.0
C665 C 0.63583 0.91321 0.67107 0.0
C666 C 0.63592 0.91231 0.72496 0.0
C667 C 0.61768 0.89421 0.80629 0.0
C668 C 0.59972 0.87676 0.8335 0.0
C669 C 0.61892 0.89413 0.75216 0.0
C670 C 0.5838 0.85846 0.80563 0.0
C671 C 0.58516 0.85806 0.7518 0.0
H672 H 0.08592 0.34839 0.32113 0.0
H673 H 0.14799 0.41005 0.33113 0.0
H674 H 0.15297 0.41094 0.23774 0.0
H675 H 0.13738 0.39677 0.15277 0.0
H676 H 0.07577 0.33466 0.14264 0.0
H677 H 0.07325 0.3313 0.23619 0.0
C678 C 0.1007 0.36184 0.30292 0.0
C679 C 0.11629 0.3793 0.33321 0.0
C680 C 0.10353 0.36231 0.24899 0.0
C681 C 0.13558 0.39642 0.30889 0.0
C682 C 0.13844 0.39703 0.25536 0.0
C683 C 0.1236 0.38231 0.17098 0.0
C684 C 0.10662 0.36625 0.14059 0.0
C685 C 0.12216 0.38045 0.22496 0.0
C686 C 0.08906 0.34741 0.16495 0.0
C687 C 0.08749 0.34549 0.21857 0.0
H688 H 0.58921 0.62732 0.57304 0.0
H689 H 0.65353 0.5668 0.569 0.0
H690 H 0.65578 0.57031 0.47515 0.0
H691 H 0.63568 0.58629 0.39456 0.0
H692 H 0.5693 0.64457 0.39856 0.0
H693 H 0.57201 0.64647 0.49234 0.0
C694 C 0.60406 0.61517 0.55181 0.0
C695 C 0.62095 0.59655 0.57811 0.0
C696 C 0.60473 0.61675 0.49782 0.0
C697 C 0.64012 0.58111 0.54981 0.0
C698 C 0.64137 0.58306 0.4961 0.0
C699 C 0.62207 0.59979 0.41574 0.0
C700 C 0.60207 0.61503 0.38947 0.0
C701 C 0.62319 0.60017 0.46969 0.0
C702 C 0.58474 0.63246 0.41772 0.0
C703 C 0.58621 0.63348 0.4714 0.0
H704 H 0.39734 0.12558 0.64605 0.0
H705 H 0.33971 0.05948 0.65182 0.0
H706 H 0.33916 0.06117 0.74599 0.0
H707 H 0.35738 0.07935 0.82633 0.0
H708 H 0.41627 0.14436 0.81991 0.0
H709 H 0.41384 0.14515 0.72602 0.0
C710 C 0.38442 0.11163 0.6677 0.0
C711 C 0.36868 0.09229 0.64164 0.0
C712 C 0.38456 0.11242 0.72174 0.0
C713 C 0.35206 0.07452 0.67067 0.0
C714 C 0.35181 0.07543 0.72458 0.0
C715 C 0.36954 0.0939 0.80455 0.0
C716 C 0.38713 0.1117 0.83037 0.0
C717 C 0.36834 0.09398 0.75048 0.0
C718 C 0.40267 0.13036 0.80125 0.0
C719 C 0.4013 0.1308 0.74749 0.0
H720 H 0.91194 0.85637 0.06656 0.0
H721 H 0.8496 0.91893 0.06612 0.0
H722 H 0.8494 0.91838 -0.02792 0.0
H723 H 0.8687 0.90218 0.89042 0.0
H724 H 0.93228 0.84088 0.89026 0.0
H725 H 0.93002 0.83881 -0.01559 0.0
C726 C 0.89809 0.86974 0.04602 0.0
C727 C 0.88086 0.88777 0.07358 0.0
C728 C 0.89839 0.86963 -0.00812 0.0
C729 C 0.86314 0.90494 0.04608 0.0
C730 C 0.86304 0.90465 -0.00775 0.0
C731 C 0.88197 0.88816 0.91077 0.0
C732 C 0.90075 0.87178 0.88307 0.0
C733 C 0.88086 0.88739 -0.03519 0.0
C734 C 0.9177 0.85377 0.91042 0.0
C735 C 0.91644 0.85261 -0.0357 0.0
loop_
_geom_bond_atom_site_label_1
_geom_bond_atom_site_label_2
_geom_bond_distance
_geom_bond_site_symmetry_2
_ccdc_geom_bond_type
C0 O1 1.306 . S
C0 O3 1.160 . S
O1 C0 1.306 . S
O1 Cd2 2.228 . S
Cd2 O1 2.228 . S
Cd2 O6 2.273 . S
Cd2 O10 2.277 . S
O3 C0 1.160 . S
O3 Cd4 2.203 . S
Cd4 O3 2.203 . S
Cd4 O6 2.411 . S
Cd4 O7 2.333 . S
Cd4 O8 2.352 . S
Cd4 O12 2.277 . S
Cd4 O13 2.356 . S
C5 O10 1.209 . S
C5 O12 1.226 . S
O6 Cd2 2.273 . S
O6 Cd4 2.411 . S
O6 C9 1.320 . S
O7 Cd4 2.333 . S
O7 C9 1.214 . S
O8 Cd4 2.352 . S
O8 C11 1.258 . S
C9 O6 1.320 . S
C9 O7 1.214 . S
O10 Cd2 2.277 . S
O10 C5 1.209 . S
C11 O8 1.258 . S
C11 O13 1.282 . S
O12 Cd4 2.277 . S
O12 C5 1.226 . S
O13 Cd4 2.356 . S
O13 C11 1.282 . S
C14 O15 1.306 . S
C14 O17 1.160 . S
O15 C14 1.306 . S
O15 Cd16 2.228 . S
Cd16 O15 2.228 . S
Cd16 O20 2.273 . S
Cd16 O24 2.277 . S
O17 C14 1.160 . S
O17 Cd18 2.203 . S
Cd18 O17 2.203 . S
Cd18 O20 2.411 . S
Cd18 O21 2.333 . S
Cd18 O22 2.352 . S
Cd18 O26 2.277 . S
Cd18 O27 2.356 . S
C19 O24 1.209 . S
C19 O26 1.226 . S
O20 Cd16 2.273 . S
O20 Cd18 2.411 . S
O20 C23 1.320 . S
O21 Cd18 2.333 . S
O21 C23 1.214 . S
O22 Cd18 2.352 . S
O22 C25 1.258 . S
C23 O20 1.320 . S
C23 O21 1.214 . S
O24 Cd16 2.277 . S
O24 C19 1.209 . S
C25 O22 1.258 . S
C25 O27 1.282 . S
O26 Cd18 2.277 . S
O26 C19 1.226 . S
O27 Cd18 2.356 . S
O27 C25 1.282 . S
C28 O29 1.306 . S
C28 O31 1.160 . S
O29 C28 1.306 . S
O29 Cd30 2.228 . S
Cd30 O29 2.228 . S
Cd30 O34 2.273 . S
Cd30 O38 2.277 . S
O31 C28 1.160 . S
O31 Cd32 2.203 . S
Cd32 O31 2.203 . S
Cd32 O34 2.411 . S
Cd32 O35 2.333 . S
Cd32 O36 2.352 . S
Cd32 O40 2.277 . S
Cd32 O41 2.356 . S
C33 O38 1.209 . S
C33 O40 1.226 . S
O34 Cd30 2.273 . S
O34 Cd32 2.411 . S
O34 C37 1.320 . S
O35 Cd32 2.333 . S
O35 C37 1.214 . S
O36 Cd32 2.352 . S
O36 C39 1.258 . S
C37 O34 1.320 . S
C37 O35 1.214 . S
O38 Cd30 2.277 . S
O38 C33 1.209 . S
C39 O36 1.258 . S
C39 O41 1.282 . S
O40 Cd32 2.277 . S
O40 C33 1.226 . S
O41 Cd32 2.356 . S
O41 C39 1.282 . S
C42 O43 1.306 . S
C42 O45 1.160 . S
O43 C42 1.306 . S
O43 Cd44 2.228 1_556 S
Cd44 O43 2.228 1_554 S
Cd44 O48 2.273 . S
Cd44 O52 2.277 . S
O45 C42 1.160 . S
O45 Cd46 2.203 1_556 S
Cd46 O45 2.203 1_554 S
Cd46 O48 2.411 . S
Cd46 O49 2.333 . S
Cd46 O50 2.352 . S
Cd46 O54 2.277 . S
Cd46 O55 2.356 . S
C47 O52 1.209 . S
C47 O54 1.226 . S
O48 Cd44 2.273 . S
O48 Cd46 2.411 . S
O48 C51 1.320 . S
O49 Cd46 2.333 . S
O49 C51 1.214 . S
O50 Cd46 2.352 . S
O50 C53 1.258 . S
C51 O48 1.320 . S
C51 O49 1.214 . S
O52 Cd44 2.277 . S
O52 C47 1.209 . S
C53 O50 1.258 . S
C53 O55 1.282 . S
O54 Cd46 2.277 . S
O54 C47 1.226 . S
O55 Cd46 2.356 . S
O55 C53 1.282 . S
C56 O57 1.306 . S
C56 O59 1.160 . S
O57 C56 1.306 . S
O57 Cd58 2.228 . S
Cd58 O57 2.228 . S
Cd58 O62 2.273 1_554 S
Cd58 O66 2.277 . S
O59 C56 1.160 . S
O59 Cd60 2.203 . S
Cd60 O59 2.203 . S
Cd60 O62 2.411 1_554 S
Cd60 O63 2.333 1_554 S
Cd60 O64 2.352 . S
Cd60 O68 2.277 . S
Cd60 O69 2.356 1_554 S
C61 O66 1.209 . S
C61 O68 1.226 . S
O62 Cd58 2.273 1_556 S
O62 Cd60 2.411 1_556 S
O62 C65 1.320 . S
O63 Cd60 2.333 1_556 S
O63 C65 1.214 . S
O64 Cd60 2.352 . S
O64 C67 1.258 1_554 S
C65 O62 1.320 . S
C65 O63 1.214 . S
O66 Cd58 2.277 . S
O66 C61 1.209 . S
C67 O64 1.258 1_556 S
C67 O69 1.282 . S
O68 Cd60 2.277 . S
O68 C61 1.226 . S
O69 Cd60 2.356 1_556 S
O69 C67 1.282 . S
C70 O71 1.306 . S
C70 O73 1.160 . S
O71 C70 1.306 . S
O71 Cd72 2.228 . S
Cd72 O71 2.228 . S
Cd72 O76 2.273 . S
Cd72 O80 2.277 . S
O73 C70 1.160 . S
O73 Cd74 2.203 . S
Cd74 O73 2.203 . S
Cd74 O76 2.411 . S
Cd74 O77 2.333 . S
Cd74 O78 2.352 . S
Cd74 O82 2.277 . S
Cd74 O83 2.356 . S
C75 O80 1.209 . S
C75 O82 1.226 . S
O76 Cd72 2.273 . S
O76 Cd74 2.411 . S
O76 C79 1.320 . S
O77 Cd74 2.333 . S
O77 C79 1.214 . S
O78 Cd74 2.352 . S
O78 C81 1.258 . S
C79 O76 1.320 . S
C79 O77 1.214 . S
O80 Cd72 2.277 . S
O80 C75 1.209 . S
C81 O78 1.258 . S
C81 O83 1.282 . S
O82 Cd74 2.277 . S
O82 C75 1.226 . S
O83 Cd74 2.356 . S
O83 C81 1.282 . S
C84 O85 1.306 . S
C84 O87 1.160 . S
O85 C84 1.306 . S
O85 Cd86 2.228 . S
Cd86 O85 2.228 . S
Cd86 O90 2.273 . S
Cd86 O94 2.277 . S
O87 C84 1.160 . S
O87 Cd88 2.203 . S
Cd88 O87 2.203 . S
Cd88 O90 2.411 . S
Cd88 O91 2.333 . S
Cd88 O92 2.352 . S
Cd88 O96 2.277 . S
Cd88 O97 2.356 . S
C89 O94 1.209 . S
C89 O96 1.226 . S
O90 Cd86 2.273 . S
O90 Cd88 2.411 . S
O90 C93 1.320 . S
O91 Cd88 2.333 . S
O91 C93 1.214 . S
O92 Cd88 2.352 . S
O92 C95 1.258 . S
C93 O90 1.320 . S
C93 O91 1.214 . S
O94 Cd86 2.277 . S
O94 C89 1.209 . S
C95 O92 1.258 . S
C95 O97 1.282 . S
O96 Cd88 2.277 . S
O96 C89 1.226 . S
O97 Cd88 2.356 . S
O97 C95 1.282 . S
C98 O99 1.306 . S
C98 O101 1.160 . S
O99 C98 1.306 . S
O99 Cd100 2.228 . S
Cd100 O99 2.228 . S
Cd100 O104 2.273 . S
Cd100 O108 2.277 . S
O101 C98 1.160 . S
O101 Cd102 2.203 . S
Cd102 O101 2.203 . S
Cd102 O104 2.411 . S
Cd102 O105 2.333 . S
Cd102 O106 2.352 . S
Cd102 O110 2.277 . S
Cd102 O111 2.356 . S
C103 O108 1.209 . S
C103 O110 1.226 . S
O104 Cd100 2.273 . S
O104 Cd102 2.411 . S
O104 C107 1.320 . S
O105 Cd102 2.333 . S
O105 C107 1.214 . S
O106 Cd102 2.352 . S
O106 C109 1.258 . S
C107 O104 1.320 . S
C107 O105 1.214 . S
O108 Cd100 2.277 . S
O108 C103 1.209 . S
C109 O106 1.258 . S
C109 O111 1.282 . S
O110 Cd102 2.277 . S
O110 C103 1.226 . S
O111 Cd102 2.356 . S
O111 C109 1.282 . S
C112 O113 1.306 . S
C112 O115 1.160 . S
O113 C112 1.306 . S
O113 Cd114 2.228 . S
Cd114 O113 2.228 . S
Cd114 O118 2.273 . S
Cd114 O122 2.277 . S
O115 C112 1.160 . S
O115 Cd116 2.203 . S
Cd116 O115 2.203 . S
Cd116 O118 2.411 . S
Cd116 O119 2.333 . S
Cd116 O120 2.352 . S
Cd116 O124 2.277 . S
Cd116 O125 2.356 . S
C117 O122 1.209 . S
C117 O124 1.226 . S
O118 Cd114 2.273 . S
O118 Cd116 2.411 . S
O118 C121 1.320 . S
O119 Cd116 2.333 . S
O119 C121 1.214 . S
O120 Cd116 2.352 . S
O120 C123 1.258 . S
C121 O118 1.320 . S
C121 O119 1.214 . S
O122 Cd114 2.277 . S
O122 C117 1.209 . S
C123 O120 1.258 . S
C123 O125 1.282 . S
O124 Cd116 2.277 . S
O124 C117 1.226 . S
O125 Cd116 2.356 . S
O125 C123 1.282 . S
C126 O127 1.306 . S
C126 O129 1.160 . S
O127 C126 1.306 . S
O127 Cd128 2.228 1_556 S
Cd128 O127 2.228 1_554 S
Cd128 O132 2.273 . S
Cd128 O136 2.277 . S
O129 C126 1.160 . S
O129 Cd130 2.203 1_556 S
Cd130 O129 2.203 1_554 S
Cd130 O132 2.411 . S
Cd130 O133 2.333 . S
Cd130 O134 2.352 . S
Cd130 O138 2.277 . S
Cd130 O139 2.356 . S
C131 O136 1.209 . S
C131 O138 1.226 . S
O132 Cd128 2.273 . S
O132 Cd130 2.411 . S
O132 C135 1.320 . S
O133 Cd130 2.333 . S
O133 C135 1.214 . S
O134 Cd130 2.352 . S
O134 C137 1.258 . S
C135 O132 1.320 . S
C135 O133 1.214 . S
O136 Cd128 2.277 . S
O136 C131 1.209 . S
C137 O134 1.258 . S
C137 O139 1.282 . S
O138 Cd130 2.277 . S
O138 C131 1.226 . S
O139 Cd130 2.356 . S
O139 C137 1.282 . S
C140 O141 1.306 . S
C140 O143 1.160 . S
O141 C140 1.306 . S
O141 Cd142 2.228 . S
Cd142 O141 2.228 . S
Cd142 O146 2.273 . S
Cd142 O150 2.277 . S
O143 C140 1.160 . S
O143 Cd144 2.203 . S
Cd144 O143 2.203 . S
Cd144 O146 2.411 . S
Cd144 O147 2.333 . S
Cd144 O148 2.352 . S
Cd144 O152 2.277 . S
Cd144 O153 2.356 . S
C145 O150 1.209 . S
C145 O152 1.226 . S
O146 Cd142 2.273 . S
O146 Cd144 2.411 . S
O146 C149 1.320 . S
O147 Cd144 2.333 . S
O147 C149 1.214 . S
O148 Cd144 2.352 . S
O148 C151 1.258 . S
C149 O146 1.320 . S
C149 O147 1.214 . S
O150 Cd142 2.277 . S
O150 C145 1.209 . S
C151 O148 1.258 . S
C151 O153 1.282 . S
O152 Cd144 2.277 . S
O152 C145 1.226 . S
O153 Cd144 2.356 . S
O153 C151 1.282 . S
C154 O155 1.306 . S
C154 O157 1.160 . S
O155 C154 1.306 . S
O155 Cd156 2.228 . S
Cd156 O155 2.228 . S
Cd156 O160 2.273 . S
Cd156 O164 2.277 . S
O157 C154 1.160 . S
O157 Cd158 2.203 . S
Cd158 O157 2.203 . S
Cd158 O160 2.411 . S
Cd158 O161 2.333 . S
Cd158 O162 2.352 . S
Cd158 O166 2.277 . S
Cd158 O167 2.356 . S
C159 O164 1.209 . S
C159 O166 1.226 . S
O160 Cd156 2.273 . S
O160 Cd158 2.411 . S
O160 C163 1.320 . S
O161 Cd158 2.333 . S
O161 C163 1.214 . S
O162 Cd158 2.352 . S
O162 C165 1.258 . S
C163 O160 1.320 . S
C163 O161 1.214 . S
O164 Cd156 2.277 . S
O164 C159 1.209 . S
C165 O162 1.258 . S
C165 O167 1.282 . S
O166 Cd158 2.277 . S
O166 C159 1.226 . S
O167 Cd158 2.356 . S
O167 C165 1.282 . S
C168 O169 1.306 . S
C168 O171 1.160 . S
O169 C168 1.306 . S
O169 Cd170 2.228 . S
Cd170 O169 2.228 . S
Cd170 O174 2.273 . S
Cd170 O178 2.277 . S
O171 C168 1.160 . S
O171 Cd172 2.203 . S
Cd172 O171 2.203 . S
Cd172 O174 2.411 . S
Cd172 O175 2.333 . S
Cd172 O176 2.352 . S
Cd172 O180 2.277 . S
Cd172 O181 2.356 . S
C173 O178 1.209 . S
C173 O180 1.226 . S
O174 Cd170 2.273 . S
O174 Cd172 2.411 . S
O174 C177 1.320 . S
O175 Cd172 2.333 . S
O175 C177 1.214 . S
O176 Cd172 2.352 . S
O176 C179 1.258 . S
C177 O174 1.320 . S
C177 O175 1.214 . S
O178 Cd170 2.277 . S
O178 C173 1.209 . S
C179 O176 1.258 . S
C179 O181 1.282 . S
O180 Cd172 2.277 . S
O180 C173 1.226 . S
O181 Cd172 2.356 . S
O181 C179 1.282 . S
C182 O183 1.306 . S
C182 O185 1.160 . S
O183 C182 1.306 . S
O183 Cd184 2.228 . S
Cd184 O183 2.228 . S
Cd184 O188 2.273 . S
Cd184 O192 2.277 . S
O185 C182 1.160 . S
O185 Cd186 2.203 . S
Cd186 O185 2.203 . S
Cd186 O188 2.411 . S
Cd186 O189 2.333 . S
Cd186 O190 2.352 . S
Cd186 O194 2.277 . S
Cd186 O195 2.356 . S
C187 O192 1.209 . S
C187 O194 1.226 . S
O188 Cd184 2.273 . S
O188 Cd186 2.411 . S
O188 C191 1.320 . S
O189 Cd186 2.333 . S
O189 C191 1.214 . S
O190 Cd186 2.352 . S
O190 C193 1.258 . S
C191 O188 1.320 . S
C191 O189 1.214 . S
O192 Cd184 2.277 . S
O192 C187 1.209 . S
C193 O190 1.258 . S
C193 O195 1.282 . S
O194 Cd186 2.277 . S
O194 C187 1.226 . S
O195 Cd186 2.356 . S
O195 C193 1.282 . S
C196 O197 1.306 . S
C196 O199 1.160 . S
O197 C196 1.306 . S
O197 Cd198 2.228 . S
Cd198 O197 2.228 . S
Cd198 O202 2.273 1_554 S
Cd198 O206 2.277 . S
O199 C196 1.160 . S
O199 Cd200 2.203 . S
Cd200 O199 2.203 . S
Cd200 O202 2.411 1_554 S
Cd200 O203 2.333 1_554 S
Cd200 O204 2.352 . S
Cd200 O208 2.277 . S
Cd200 O209 2.356 1_554 S
C201 O206 1.209 . S
C201 O208 1.226 . S
O202 Cd198 2.273 1_556 S
O202 Cd200 2.411 1_556 S
O202 C205 1.320 . S
O203 Cd200 2.333 1_556 S
O203 C205 1.214 . S
O204 Cd200 2.352 . S
O204 C207 1.258 1_554 S
C205 O202 1.320 . S
C205 O203 1.214 . S
O206 Cd198 2.277 . S
O206 C201 1.209 . S
C207 O204 1.258 1_556 S
C207 O209 1.282 . S
O208 Cd200 2.277 . S
O208 C201 1.226 . S
O209 Cd200 2.356 1_556 S
O209 C207 1.282 . S
C210 O211 1.306 . S
C210 O213 1.160 . S
O211 C210 1.306 . S
O211 Cd212 2.228 . S
Cd212 O211 2.228 . S
Cd212 O216 2.273 . S
Cd212 O220 2.277 . S
O213 C210 1.160 . S
O213 Cd214 2.203 . S
Cd214 O213 2.203 . S
Cd214 O216 2.411 . S
Cd214 O217 2.333 . S
Cd214 O218 2.352 . S
Cd214 O222 2.277 . S
Cd214 O223 2.356 . S
C215 O220 1.209 . S
C215 O222 1.226 . S
O216 Cd212 2.273 . S
O216 Cd214 2.411 . S
O216 C219 1.320 . S
O217 Cd214 2.333 . S
O217 C219 1.214 . S
O218 Cd214 2.352 . S
O218 C221 1.258 . S
C219 O216 1.320 . S
C219 O217 1.214 . S
O220 Cd212 2.277 . S
O220 C215 1.209 . S
C221 O218 1.258 . S
C221 O223 1.282 . S
O222 Cd214 2.277 . S
O222 C215 1.226 . S
O223 Cd214 2.356 . S
O223 C221 1.282 . S
H224 C230 0.930 . S
H225 C233 0.930 . S
H226 C234 0.930 . S
H227 C235 0.930 . S
H228 C238 0.930 . S
H229 C239 0.930 . S
C230 H224 0.930 . S
C230 C231 1.355 . S
C230 C232 1.415 . S
C231 C230 1.355 . S
C231 C233 1.419 . S
C232 C230 1.415 . S
C232 C237 1.425 . S
C232 C239 1.409 . S
C233 H225 0.930 . S
C233 C231 1.419 . S
C233 C234 1.362 . S
C234 H226 0.930 . S
C234 C233 1.362 . S
C234 C237 1.409 . S
C235 H227 0.930 . S
C235 C236 1.355 . S
C235 C237 1.415 . S
C236 C235 1.355 . S
C236 C238 1.419 . S
C237 C232 1.425 . S
C237 C234 1.409 . S
C237 C235 1.415 . S
C238 H228 0.930 . S
C238 C236 1.419 . S
C238 C239 1.362 . S
C239 H229 0.930 . S
C239 C232 1.409 . S
C239 C238 1.362 . S
H240 C246 0.930 . S
H241 C249 0.930 . S
H242 C250 0.930 . S
H243 C251 0.930 . S
H244 C254 0.930 . S
H245 C255 0.930 . S
C246 H240 0.930 . S
C246 C247 1.355 . S
C246 C248 1.415 . S
C247 C246 1.355 . S
C247 C249 1.419 . S
C248 C246 1.415 . S
C248 C253 1.425 . S
C248 C255 1.409 . S
C249 H241 0.930 . S
C249 C247 1.419 . S
C249 C250 1.362 . S
C250 H242 0.930 . S
C250 C249 1.362 . S
C250 C253 1.409 . S
C251 H243 0.930 . S
C251 C252 1.355 . S
C251 C253 1.415 . S
C252 C251 1.355 . S
C252 C254 1.419 . S
C253 C248 1.425 . S
C253 C250 1.409 . S
C253 C251 1.415 . S
C254 H244 0.930 . S
C254 C252 1.419 . S
C254 C255 1.362 . S
C255 H245 0.930 . S
C255 C248 1.409 . S
C255 C254 1.362 . S
H256 C262 0.930 . S
H257 C265 0.930 . S
H258 C266 0.930 . S
H259 C267 0.930 . S
H260 C270 0.930 . S
H261 C271 0.930 1_554 S
C262 H256 0.930 . S
C262 C263 1.355 . S
C262 C264 1.415 . S
C263 C262 1.355 . S
C263 C265 1.419 . S
C264 C262 1.415 . S
C264 C269 1.425 . S
C264 C271 1.409 . S
C265 H257 0.930 . S
C265 C263 1.419 . S
C265 C266 1.362 . S
C266 H258 0.930 . S
C266 C265 1.362 . S
C266 C269 1.409 . S
C267 H259 0.930 . S
C267 C268 1.355 . S
C267 C269 1.415 . S
C268 C267 1.355 . S
C268 C270 1.419 1_556 S
C269 C264 1.425 . S
C269 C266 1.409 . S
C269 C267 1.415 . S
C270 H260 0.930 . S
C270 C268 1.419 1_554 S
C270 C271 1.362 1_554 S
C271 H261 0.930 1_556 S
C271 C264 1.409 . S
C271 C270 1.362 1_556 S
H272 C278 0.930 . S
H273 C281 0.930 . S
H274 C282 0.930 . S
H275 C283 0.930 . S
H276 C286 0.930 . S
H277 C287 0.930 . S
C278 H272 0.930 . S
C278 C279 1.355 . S
C278 C280 1.415 . S
C279 C278 1.355 . S
C279 C281 1.419 . S
C280 C278 1.415 . S
C280 C285 1.425 . S
C280 C287 1.409 . S
C281 H273 0.930 . S
C281 C279 1.419 . S
C281 C282 1.362 . S
C282 H274 0.930 . S
C282 C281 1.362 . S
C282 C285 1.409 . S
C283 H275 0.930 . S
C283 C284 1.355 . S
C283 C285 1.415 . S
C284 C283 1.355 . S
C284 C286 1.419 . S
C285 C280 1.425 . S
C285 C282 1.409 . S
C285 C283 1.415 . S
C286 H276 0.930 . S
C286 C284 1.419 . S
C286 C287 1.362 . S
C287 H277 0.930 . S
C287 C280 1.409 . S
C287 C286 1.362 . S
H288 C294 0.930 . S
H289 C297 0.930 . S
H290 C298 0.930 . S
H291 C299 0.930 . S
H292 C302 0.930 . S
H293 C303 0.930 . S
C294 H288 0.930 . S
C294 C295 1.355 . S
C294 C296 1.415 . S
C295 C294 1.355 . S
C295 C297 1.419 . S
C296 C294 1.415 . S
C296 C301 1.425 . S
C296 C303 1.409 . S
C297 H289 0.930 . S
C297 C295 1.419 . S
C297 C298 1.362 . S
C298 H290 0.930 . S
C298 C297 1.362 . S
C298 C301 1.409 . S
C299 H291 0.930 . S
C299 C300 1.355 . S
C299 C301 1.415 . S
C300 C299 1.355 . S
C300 C302 1.419 . S
C301 C296 1.425 . S
C301 C298 1.409 . S
C301 C299 1.415 . S
C302 H292 0.930 . S
C302 C300 1.419 . S
C302 C303 1.362 . S
C303 H293 0.930 . S
C303 C296 1.409 . S
C303 C302 1.362 . S
H304 C310 0.930 . S
H305 C313 0.930 . S
H306 C314 0.930 . S
H307 C315 0.930 . S
H308 C318 0.930 . S
H309 C319 0.930 . S
C310 H304 0.930 . S
C310 C311 1.355 . S
C310 C312 1.415 . S
C311 C310 1.355 . S
C311 C313 1.419 . S
C312 C310 1.415 . S
C312 C317 1.425 . S
C312 C319 1.409 . S
C313 H305 0.930 . S
C313 C311 1.419 . S
C313 C314 1.362 . S
C314 H306 0.930 . S
C314 C313 1.362 . S
C314 C317 1.409 . S
C315 H307 0.930 . S
C315 C316 1.355 . S
C315 C317 1.415 . S
C316 C315 1.355 . S
C316 C318 1.419 . S
C317 C312 1.425 . S
C317 C314 1.409 . S
C317 C315 1.415 . S
C318 H308 0.930 . S
C318 C316 1.419 . S
C318 C319 1.362 . S
C319 H309 0.930 . S
C319 C312 1.409 . S
C319 C318 1.362 . S
H320 C326 0.930 . S
H321 C329 0.930 . S
H322 C330 0.930 . S
H323 C331 0.930 . S
H324 C334 0.930 . S
H325 C335 0.930 . S
C326 H320 0.930 . S
C326 C327 1.355 . S
C326 C328 1.415 . S
C327 C326 1.355 . S
C327 C329 1.419 . S
C328 C326 1.415 . S
C328 C333 1.425 . S
C328 C335 1.409 . S
C329 H321 0.930 . S
C329 C327 1.419 . S
C329 C330 1.362 . S
C330 H322 0.930 . S
C330 C329 1.362 . S
C330 C333 1.409 . S
C331 H323 0.930 . S
C331 C332 1.355 . S
C331 C333 1.415 . S
C332 C331 1.355 . S
C332 C334 1.419 . S
C333 C328 1.425 . S
C333 C330 1.409 . S
C333 C331 1.415 . S
C334 H324 0.930 . S
C334 C332 1.419 . S
C334 C335 1.362 . S
C335 H325 0.930 . S
C335 C328 1.409 . S
C335 C334 1.362 . S
H336 C342 0.930 . S
H337 C345 0.930 . S
H338 C346 0.930 . S
H339 C347 0.930 . S
H340 C350 0.930 . S
H341 C351 0.930 . S
C342 H336 0.930 . S
C342 C343 1.355 . S
C342 C344 1.415 . S
C343 C342 1.355 . S
C343 C345 1.419 . S
C344 C342 1.415 . S
C344 C349 1.425 . S
C344 C351 1.409 . S
C345 H337 0.930 . S
C345 C343 1.419 . S
C345 C346 1.362 . S
C346 H338 0.930 . S
C346 C345 1.362 . S
C346 C349 1.409 . S
C347 H339 0.930 . S
C347 C348 1.355 . S
C347 C349 1.415 . S
C348 C347 1.355 . S
C348 C350 1.419 . S
C349 C344 1.425 . S
C349 C346 1.409 . S
C349 C347 1.415 . S
C350 H340 0.930 . S
C350 C348 1.419 . S
C350 C351 1.362 . S
C351 H341 0.930 . S
C351 C344 1.409 . S
C351 C350 1.362 . S
H352 C358 0.930 1_565 S
H353 C361 0.930 . S
H354 C362 0.930 1_655 S
H355 C363 0.930 1_545 S
H356 C366 0.930 . S
H357 C367 0.930 1_455 S
C358 H352 0.930 1_545 S
C358 C359 1.355 . S
C358 C360 1.415 1_545 S
C359 C358 1.355 . S
C359 C361 1.419 . S
C360 C358 1.415 1_565 S
C360 C365 1.425 1_465 S
C360 C367 1.409 1_455 S
C361 H353 0.930 . S
C361 C359 1.419 . S
C361 C362 1.362 . S
C362 H354 0.930 1_455 S
C362 C361 1.362 . S
C362 C365 1.409 1_455 S
C363 H355 0.930 1_565 S
C363 C364 1.355 . S
C363 C365 1.415 1_565 S
C364 C363 1.355 . S
C364 C366 1.419 . S
C365 C360 1.425 1_645 S
C365 C362 1.409 1_655 S
C365 C363 1.415 1_545 S
C366 H356 0.930 . S
C366 C364 1.419 . S
C366 C367 1.362 . S
C367 H357 0.930 1_655 S
C367 C360 1.409 1_655 S
C367 C366 1.362 . S
H368 C374 0.930 . S
H369 C377 0.930 . S
H370 C378 0.930 . S
H371 C379 0.930 . S
H372 C382 0.930 . S
H373 C383 0.930 . S
C374 H368 0.930 . S
C374 C375 1.355 1_455 S
C374 C376 1.415 . S
C375 C374 1.355 1_655 S
C375 C377 1.419 . S
C376 C374 1.415 . S
C376 C381 1.425 1_455 S
C376 C383 1.409 . S
C377 H369 0.930 . S
C377 C375 1.419 . S
C377 C378 1.362 . S
C378 H370 0.930 . S
C378 C377 1.362 . S
C378 C381 1.409 . S
C379 H371 0.930 . S
C379 C380 1.355 1_655 S
C379 C381 1.415 . S
C380 C379 1.355 1_455 S
C380 C382 1.419 . S
C381 C376 1.425 1_655 S
C381 C378 1.409 . S
C381 C379 1.415 . S
C382 H372 0.930 . S
C382 C380 1.419 . S
C382 C383 1.362 . S
C383 H373 0.930 . S
C383 C376 1.409 . S
C383 C382 1.362 . S
H384 C390 0.930 . S
H385 C393 0.930 . S
H386 C394 0.930 . S
H387 C395 0.930 . S
H388 C398 0.930 . S
H389 C399 0.930 . S
C390 H384 0.930 . S
C390 C391 1.355 . S
C390 C392 1.415 . S
C391 C390 1.355 . S
C391 C393 1.419 . S
C392 C390 1.415 . S
C392 C397 1.425 . S
C392 C399 1.409 . S
C393 H385 0.930 . S
C393 C391 1.419 . S
C393 C394 1.362 . S
C394 H386 0.930 . S
C394 C393 1.362 . S
C394 C397 1.409 . S
C395 H387 0.930 . S
C395 C396 1.355 . S
C395 C397 1.415 . S
C396 C395 1.355 . S
C396 C398 1.419 . S
C397 C392 1.425 . S
C397 C394 1.409 . S
C397 C395 1.415 . S
C398 H388 0.930 . S
C398 C396 1.419 . S
C398 C399 1.362 . S
C399 H389 0.930 . S
C399 C392 1.409 . S
C399 C398 1.362 . S
H400 C406 0.930 . S
H401 C409 0.930 . S
H402 C410 0.930 . S
H403 C411 0.930 . S
H404 C414 0.930 1_556 S
H405 C415 0.930 1_556 S
C406 H400 0.930 . S
C406 C407 1.355 . S
C406 C408 1.451 . S
C407 C406 1.355 . S
C407 C409 1.419 . S
C408 C406 1.451 . S
C408 C413 1.422 1_565 S
C408 C415 1.376 1_565 S
C409 H401 0.930 . S
C409 C407 1.419 . S
C409 C410 1.362 . S
C410 H402 0.930 . S
C410 C409 1.362 . S
C410 C413 1.376 1_565 S
C411 H403 0.930 . S
C411 C412 1.355 . S
C411 C413 1.451 . S
C412 C411 1.355 . S
C412 C414 1.419 . S
C413 C408 1.422 1_545 S
C413 C410 1.376 1_545 S
C413 C411 1.451 . S
C414 H404 0.930 1_554 S
C414 C412 1.419 . S
C414 C415 1.362 . S
C415 H405 0.930 1_554 S
C415 C408 1.376 1_545 S
C415 C414 1.362 . S
H416 C422 0.930 . S
H417 C425 0.930 . S
H418 C426 0.930 1_655 S
H419 C427 0.930 . S
H420 C430 0.930 . S
H421 C431 0.930 1_455 S
C422 H416 0.930 . S
C422 C423 1.355 1_556 S
C422 C424 1.415 1_556 S
C423 C422 1.355 1_554 S
C423 C425 1.419 . S
C424 C422 1.415 1_554 S
C424 C429 1.425 1_455 S
C424 C431 1.409 1_454 S
C425 H417 0.930 . S
C425 C423 1.419 . S
C425 C426 1.362 . S
C426 H418 0.930 1_455 S
C426 C425 1.362 . S
C426 C429 1.409 1_455 S
C427 H419 0.930 . S
C427 C428 1.355 . S
C427 C429 1.415 . S
C428 C427 1.355 . S
C428 C430 1.419 1_554 S
C429 C424 1.425 1_655 S
C429 C426 1.409 1_655 S
C429 C427 1.415 . S
C430 H420 0.930 . S
C430 C428 1.419 1_556 S
C430 C431 1.362 . S
C431 H421 0.930 1_655 S
C431 C424 1.409 1_656 S
C431 C430 1.362 . S
H432 C438 0.930 . S
H433 C441 0.930 . S
H434 C442 0.930 . S
H435 C443 0.930 . S
H436 C446 0.930 . S
H437 C447 0.930 . S
C438 H432 0.930 . S
C438 C439 1.355 . S
C438 C440 1.415 . S
C439 C438 1.355 . S
C439 C441 1.419 . S
C440 C438 1.415 . S
C440 C445 1.425 . S
C440 C447 1.409 . S
C441 H433 0.930 . S
C441 C439 1.419 . S
C441 C442 1.362 . S
C442 H434 0.930 . S
C442 C441 1.362 . S
C442 C445 1.409 . S
C443 H435 0.930 . S
C443 C444 1.355 . S
C443 C445 1.415 . S
C444 C443 1.355 . S
C444 C446 1.419 . S
C445 C440 1.425 . S
C445 C442 1.409 . S
C445 C443 1.415 . S
C446 H436 0.930 . S
C446 C444 1.419 . S
C446 C447 1.362 . S
C447 H437 0.930 . S
C447 C440 1.409 . S
C447 C446 1.362 . S
H448 C454 0.930 . S
H449 C457 0.930 . S
H450 C458 0.930 . S
H451 C459 0.930 . S
H452 C462 0.930 . S
H453 C463 0.930 . S
C454 H448 0.930 . S
C454 C455 1.355 . S
C454 C456 1.415 . S
C455 C454 1.355 . S
C455 C457 1.419 . S
C456 C454 1.415 . S
C456 C461 1.425 1_545 S
C456 C463 1.409 . S
C457 H449 0.930 . S
C457 C455 1.419 . S
C457 C458 1.362 1_545 S
C458 H450 0.930 . S
C458 C457 1.362 1_565 S
C458 C461 1.409 . S
C459 H451 0.930 . S
C459 C460 1.355 . S
C459 C461 1.415 . S
C460 C459 1.355 . S
C460 C462 1.419 . S
C461 C456 1.425 1_565 S
C461 C458 1.409 . S
C461 C459 1.415 . S
C462 H452 0.930 . S
C462 C460 1.419 . S
C462 C463 1.362 1_565 S
C463 H453 0.930 . S
C463 C456 1.409 . S
C463 C462 1.362 1_545 S
H464 C470 0.930 . S
H465 C473 0.930 . S
H466 C474 0.930 . S
H467 C475 0.930 . S
H468 C478 0.930 . S
H469 C479 0.930 . S
C470 H464 0.930 . S
C470 C471 1.355 . S
C470 C472 1.400 1_545 S
C471 C470 1.355 . S
C471 C473 1.419 1_455 S
C472 C470 1.400 1_565 S
C472 C477 1.425 1_465 S
C472 C479 1.424 . S
C473 H465 0.930 . S
C473 C471 1.419 1_655 S
C473 C474 1.362 . S
C474 H466 0.930 . S
C474 C473 1.362 . S
C474 C477 1.424 . S
C475 H467 0.930 . S
C475 C476 1.355 . S
C475 C477 1.400 1_565 S
C476 C475 1.355 . S
C476 C478 1.419 1_655 S
C477 C472 1.425 1_645 S
C477 C474 1.424 . S
C477 C475 1.400 1_545 S
C478 H468 0.930 . S
C478 C476 1.419 1_455 S
C478 C479 1.362 . S
C479 H469 0.930 . S
C479 C472 1.424 . S
C479 C478 1.362 . S
H480 C486 0.930 . S
H481 C489 0.930 . S
H482 C490 0.930 . S
H483 C491 0.930 . S
H484 C494 0.930 . S
H485 C495 0.930 . S
C486 H480 0.930 . S
C486 C487 1.355 . S
C486 C488 1.415 . S
C487 C486 1.355 . S
C487 C489 1.419 . S
C488 C486 1.415 . S
C488 C493 1.425 . S
C488 C495 1.409 . S
C489 H481 0.930 . S
C489 C487 1.419 . S
C489 C490 1.362 . S
C490 H482 0.930 . S
C490 C489 1.362 . S
C490 C493 1.409 . S
C491 H483 0.930 . S
C491 C492 1.355 . S
C491 C493 1.415 . S
C492 C491 1.355 . S
C492 C494 1.419 . S
C493 C488 1.425 . S
C493 C490 1.409 . S
C493 C491 1.415 . S
C494 H484 0.930 . S
C494 C492 1.419 . S
C494 C495 1.362 . S
C495 H485 0.930 . S
C495 C488 1.409 . S
C495 C494 1.362 . S
H496 C502 0.930 . S
H497 C505 0.930 . S
H498 C506 0.930 . S
H499 C507 0.930 . S
H500 C510 0.930 . S
H501 C511 0.930 . S
C502 H496 0.930 . S
C502 C503 1.355 . S
C502 C504 1.415 . S
C503 C502 1.355 . S
C503 C505 1.419 . S
C504 C502 1.415 . S
C504 C509 1.425 . S
C504 C511 1.409 . S
C505 H497 0.930 . S
C505 C503 1.419 . S
C505 C506 1.362 . S
C506 H498 0.930 . S
C506 C505 1.362 . S
C506 C509 1.409 . S
C507 H499 0.930 . S
C507 C508 1.355 . S
C507 C509 1.415 . S
C508 C507 1.355 . S
C508 C510 1.419 . S
C509 C504 1.425 . S
C509 C506 1.409 . S
C509 C507 1.415 . S
C510 H500 0.930 . S
C510 C508 1.419 . S
C510 C511 1.362 . S
C511 H501 0.930 . S
C511 C504 1.409 . S
C511 C510 1.362 . S
H512 C518 0.930 . S
H513 C521 0.930 . S
H514 C522 0.930 . S
H515 C523 0.930 . S
H516 C526 0.930 . S
H517 C527 0.930 . S
C518 H512 0.930 . S
C518 C519 1.355 . S
C518 C520 1.415 . S
C519 C518 1.355 . S
C519 C521 1.419 . S
C520 C518 1.415 . S
C520 C525 1.425 . S
C520 C527 1.409 . S
C521 H513 0.930 . S
C521 C519 1.419 . S
C521 C522 1.362 . S
C522 H514 0.930 . S
C522 C521 1.362 . S
C522 C525 1.409 . S
C523 H515 0.930 . S
C523 C524 1.355 . S
C523 C525 1.415 1_556 S
C524 C523 1.355 . S
C524 C526 1.419 . S
C525 C520 1.425 . S
C525 C522 1.409 . S
C525 C523 1.415 1_554 S
C526 H516 0.930 . S
C526 C524 1.419 . S
C526 C527 1.362 1_556 S
C527 H517 0.930 . S
C527 C520 1.409 . S
C527 C526 1.362 1_554 S
H528 C534 0.930 . S
H529 C537 0.930 . S
H530 C538 0.930 . S
H531 C539 0.930 . S
H532 C542 0.930 . S
H533 C543 0.930 . S
C534 H528 0.930 . S
C534 C535 1.355 . S
C534 C536 1.415 . S
C535 C534 1.355 . S
C535 C537 1.419 . S
C536 C534 1.415 . S
C536 C541 1.425 . S
C536 C543 1.409 . S
C537 H529 0.930 . S
C537 C535 1.419 . S
C537 C538 1.362 . S
C538 H530 0.930 . S
C538 C537 1.362 . S
C538 C541 1.409 . S
C539 H531 0.930 . S
C539 C540 1.355 . S
C539 C541 1.415 . S
C540 C539 1.355 . S
C540 C542 1.419 . S
C541 C536 1.425 . S
C541 C538 1.409 . S
C541 C539 1.415 . S
C542 H532 0.930 . S
C542 C540 1.419 . S
C542 C543 1.362 . S
C543 H533 0.930 . S
C543 C536 1.409 . S
C543 C542 1.362 . S
H544 C550 0.930 . S
H545 C553 0.930 . S
H546 C554 0.930 . S
H547 C555 0.930 . S
H548 C558 0.930 . S
H549 C559 0.930 . S
C550 H544 0.930 . S
C550 C551 1.355 . S
C550 C552 1.415 . S
C551 C550 1.355 . S
C551 C553 1.419 . S
C552 C550 1.415 . S
C552 C557 1.425 . S
C552 C559 1.409 . S
C553 H545 0.930 . S
C553 C551 1.419 . S
C553 C554 1.362 . S
C554 H546 0.930 . S
C554 C553 1.362 . S
C554 C557 1.409 . S
C555 H547 0.930 . S
C555 C556 1.355 . S
C555 C557 1.415 . S
C556 C555 1.355 . S
C556 C558 1.419 . S
C557 C552 1.425 . S
C557 C554 1.409 . S
C557 C555 1.415 . S
C558 H548 0.930 . S
C558 C556 1.419 . S
C558 C559 1.362 . S
C559 H549 0.930 . S
C559 C552 1.409 . S
C559 C558 1.362 . S
H560 C566 0.930 . S
H561 C569 0.930 . S
H562 C570 0.930 . S
H563 C571 0.930 . S
H564 C574 0.930 . S
H565 C575 0.930 . S
C566 H560 0.930 . S
C566 C567 1.355 . S
C566 C568 1.415 . S
C567 C566 1.355 . S
C567 C569 1.419 . S
C568 C566 1.415 . S
C568 C573 1.425 . S
C568 C575 1.409 . S
C569 H561 0.930 . S
C569 C567 1.419 . S
C569 C570 1.362 . S
C570 H562 0.930 . S
C570 C569 1.362 . S
C570 C573 1.409 . S
C571 H563 0.930 . S
C571 C572 1.355 . S
C571 C573 1.415 1_556 S
C572 C571 1.355 . S
C572 C574 1.419 . S
C573 C568 1.425 . S
C573 C570 1.409 . S
C573 C571 1.415 1_554 S
C574 H564 0.930 . S
C574 C572 1.419 . S
C574 C575 1.362 1_556 S
C575 H565 0.930 . S
C575 C568 1.409 . S
C575 C574 1.362 1_554 S
H576 C582 0.930 . S
H577 C585 0.930 . S
H578 C586 0.930 . S
H579 C587 0.930 . S
H580 C590 0.930 . S
H581 C591 0.930 . S
C582 H576 0.930 . S
C582 C583 1.355 . S
C582 C584 1.415 . S
C583 C582 1.355 . S
C583 C585 1.419 . S
C584 C582 1.415 . S
C584 C589 1.425 . S
C584 C591 1.409 . S
C585 H577 0.930 . S
C585 C583 1.419 . S
C585 C586 1.362 . S
C586 H578 0.930 . S
C586 C585 1.362 . S
C586 C589 1.409 . S
C587 H579 0.930 . S
C587 C588 1.355 . S
C587 C589 1.415 . S
C588 C587 1.355 . S
C588 C590 1.419 . S
C589 C584 1.425 . S
C589 C586 1.409 . S
C589 C587 1.415 . S
C590 H580 0.930 . S
C590 C588 1.419 . S
C590 C591 1.362 . S
C591 H581 0.930 . S
C591 C584 1.409 . S
C591 C590 1.362 . S
H592 C598 0.930 . S
H593 C601 0.930 . S
H594 C602 0.930 . S
H595 C603 0.930 . S
H596 C606 0.930 . S
H597 C607 0.930 . S
C598 H592 0.930 . S
C598 C599 1.355 . S
C598 C600 1.415 . S
C599 C598 1.355 . S
C599 C601 1.419 . S
C600 C598 1.415 . S
C600 C605 1.425 . S
C600 C607 1.409 . S
C601 H593 0.930 . S
C601 C599 1.419 . S
C601 C602 1.362 . S
C602 H594 0.930 . S
C602 C601 1.362 . S
C602 C605 1.409 . S
C603 H595 0.930 . S
C603 C604 1.355 . S
C603 C605 1.415 . S
C604 C603 1.355 . S
C604 C606 1.419 . S
C605 C600 1.425 . S
C605 C602 1.409 . S
C605 C603 1.415 . S
C606 H596 0.930 . S
C606 C604 1.419 . S
C606 C607 1.362 . S
C607 H597 0.930 . S
C607 C600 1.409 . S
C607 C606 1.362 . S
H608 C614 0.930 . S
H609 C617 0.930 . S
H610 C618 0.930 . S
H611 C619 0.930 . S
H612 C622 0.930 . S
H613 C623 0.930 . S
C614 H608 0.930 . S
C614 C615 1.355 . S
C614 C616 1.415 1_556 S
C615 C614 1.355 . S
C615 C617 1.419 . S
C616 C614 1.415 1_554 S
C616 C621 1.425 . S
C616 C623 1.409 . S
C617 H609 0.930 . S
C617 C615 1.419 . S
C617 C618 1.362 1_556 S
C618 H610 0.930 . S
C618 C617 1.362 1_554 S
C618 C621 1.409 . S
C619 H611 0.930 . S
C619 C620 1.355 . S
C619 C621 1.415 . S
C620 C619 1.355 . S
C620 C622 1.419 . S
C621 C616 1.425 . S
C621 C618 1.409 . S
C621 C619 1.415 . S
C622 H612 0.930 . S
C622 C620 1.419 . S
C622 C623 1.362 . S
C623 H613 0.930 . S
C623 C616 1.409 . S
C623 C622 1.362 . S
H624 C630 0.930 . S
H625 C633 0.930 . S
H626 C634 0.930 . S
H627 C635 0.930 . S
H628 C638 0.930 . S
H629 C639 0.930 . S
C630 H624 0.930 . S
C630 C631 1.355 . S
C630 C632 1.415 . S
C631 C630 1.355 . S
C631 C633 1.419 . S
C632 C630 1.415 . S
C632 C637 1.425 . S
C632 C639 1.409 . S
C633 H625 0.930 . S
C633 C631 1.419 . S
C633 C634 1.362 . S
C634 H626 0.930 . S
C634 C633 1.362 . S
C634 C637 1.409 . S
C635 H627 0.930 . S
C635 C636 1.355 . S
C635 C637 1.415 . S
C636 C635 1.355 . S
C636 C638 1.419 . S
C637 C632 1.425 . S
C637 C634 1.409 . S
C637 C635 1.415 . S
C638 H628 0.930 . S
C638 C636 1.419 . S
C638 C639 1.362 . S
C639 H629 0.930 . S
C639 C632 1.409 . S
C639 C638 1.362 . S
H640 C646 0.930 . S
H641 C649 0.930 . S
H642 C650 0.930 . S
H643 C651 0.930 . S
H644 C654 0.930 . S
H645 C655 0.930 . S
C646 H640 0.930 . S
C646 C647 1.355 . S
C646 C648 1.415 . S
C647 C646 1.355 . S
C647 C649 1.419 . S
C648 C646 1.415 . S
C648 C653 1.425 . S
C648 C655 1.409 . S
C649 H641 0.930 . S
C649 C647 1.419 . S
C649 C650 1.362 . S
C650 H642 0.930 . S
C650 C649 1.362 . S
C650 C653 1.409 . S
C651 H643 0.930 . S
C651 C652 1.355 . S
C651 C653 1.415 . S
C652 C651 1.355 . S
C652 C654 1.419 . S
C653 C648 1.425 . S
C653 C650 1.409 . S
C653 C651 1.415 . S
C654 H644 0.930 . S
C654 C652 1.419 . S
C654 C655 1.362 . S
C655 H645 0.930 . S
C655 C648 1.409 . S
C655 C654 1.362 . S
H656 C662 0.930 . S
H657 C665 0.930 . S
H658 C666 0.930 . S
H659 C667 0.930 . S
H660 C670 0.930 . S
H661 C671 0.930 . S
C662 H656 0.930 . S
C662 C663 1.355 . S
C662 C664 1.415 . S
C663 C662 1.355 . S
C663 C665 1.419 . S
C664 C662 1.415 . S
C664 C669 1.425 . S
C664 C671 1.409 . S
C665 H657 0.930 . S
C665 C663 1.419 . S
C665 C666 1.362 . S
C666 H658 0.930 . S
C666 C665 1.362 . S
C666 C669 1.409 . S
C667 H659 0.930 . S
C667 C668 1.355 . S
C667 C669 1.415 . S
C668 C667 1.355 . S
C668 C670 1.419 . S
C669 C664 1.425 . S
C669 C666 1.409 . S
C669 C667 1.415 . S
C670 H660 0.930 . S
C670 C668 1.419 . S
C670 C671 1.362 . S
C671 H661 0.930 . S
C671 C664 1.409 . S
C671 C670 1.362 . S
H672 C678 0.930 . S
H673 C681 0.930 . S
H674 C682 0.930 . S
H675 C683 0.930 . S
H676 C686 0.930 . S
H677 C687 0.930 . S
C678 H672 0.930 . S
C678 C679 1.355 . S
C678 C680 1.415 . S
C679 C678 1.355 . S
C679 C681 1.419 . S
C680 C678 1.415 . S
C680 C685 1.425 . S
C680 C687 1.409 . S
C681 H673 0.930 . S
C681 C679 1.419 . S
C681 C682 1.362 . S
C682 H674 0.930 . S
C682 C681 1.362 . S
C682 C685 1.409 . S
C683 H675 0.930 . S
C683 C684 1.355 . S
C683 C685 1.415 . S
C684 C683 1.355 . S
C684 C686 1.419 . S
C685 C680 1.425 . S
C685 C682 1.409 . S
C685 C683 1.415 . S
C686 H676 0.930 . S
C686 C684 1.419 . S
C686 C687 1.362 . S
C687 H677 0.930 . S
C687 C680 1.409 . S
C687 C686 1.362 . S
H688 C694 0.930 . S
H689 C697 0.930 . S
H690 C698 0.930 . S
H691 C699 0.930 . S
H692 C702 0.930 . S
H693 C703 0.930 . S
C694 H688 0.930 . S
C694 C695 1.355 . S
C694 C696 1.415 . S
C695 C694 1.355 . S
C695 C697 1.419 . S
C696 C694 1.415 . S
C696 C701 1.425 . S
C696 C703 1.409 . S
C697 H689 0.930 . S
C697 C695 1.419 . S
C697 C698 1.362 . S
C698 H690 0.930 . S
C698 C697 1.362 . S
C698 C701 1.409 . S
C699 H691 0.930 . S
C699 C700 1.355 . S
C699 C701 1.415 . S
C700 C699 1.355 . S
C700 C702 1.419 . S
C701 C696 1.425 . S
C701 C698 1.409 . S
C701 C699 1.415 . S
C702 H692 0.930 . S
C702 C700 1.419 . S
C702 C703 1.362 . S
C703 H693 0.930 . S
C703 C696 1.409 . S
C703 C702 1.362 . S
H704 C710 0.930 . S
H705 C713 0.930 . S
H706 C714 0.930 . S
H707 C715 0.930 . S
H708 C718 0.930 . S
H709 C719 0.930 . S
C710 H704 0.930 . S
C710 C711 1.355 . S
C710 C712 1.415 . S
C711 C710 1.355 . S
C711 C713 1.419 . S
C712 C710 1.415 . S
C712 C717 1.425 . S
C712 C719 1.409 . S
C713 H705 0.930 . S
C713 C711 1.419 . S
C713 C714 1.362 . S
C714 H706 0.930 . S
C714 C713 1.362 . S
C714 C717 1.409 . S
C715 H707 0.930 . S
C715 C716 1.355 . S
C715 C717 1.415 . S
C716 C715 1.355 . S
C716 C718 1.419 . S
C717 C712 1.425 . S
C717 C714 1.409 . S
C717 C715 1.415 . S
C718 H708 0.930 . S
C718 C716 1.419 . S
C718 C719 1.362 . S
C719 H709 0.930 . S
C719 C712 1.409 . S
C719 C718 1.362 . S
H720 C726 0.930 . S
H721 C729 0.930 . S
H722 C730 0.930 . S
H723 C731 0.930 . S
H724 C734 0.930 . S
H725 C735 0.930 . S
C726 H720 0.930 . S
C726 C727 1.355 . S
C726 C728 1.415 . S
C727 C726 1.355 . S
C727 C729 1.419 . S
C728 C726 1.415 . S
C728 C733 1.425 . S
C728 C735 1.409 . S
C729 H721 0.930 . S
C729 C727 1.419 . S
C729 C730 1.362 . S
C730 H722 0.930 . S
C730 C729 1.362 . S
C730 C733 1.409 . S
C731 H723 0.930 . S
C731 C732 1.355 . S
C731 C733 1.415 1_556 S
C732 C731 1.355 . S
C732 C734 1.419 . S
C733 C728 1.425 . S
C733 C730 1.409 . S
C733 C731 1.415 1_554 S
C734 H724 0.930 . S
C734 C732 1.419 . S
C734 C735 1.362 1_556 S
C735 H725 0.930 . S
C735 C728 1.409 . S
C735 C734 1.362 1_554 S
C231 C95 1.471 . S
C236 C11 1.469 . S
C247 C109 1.476 . S
C252 C25 1.474 . S
C263 C39 1.531 . S
C268 C67 1.532 . S
C279 C53 1.483 . S
C284 C81 1.487 . S
C295 C123 1.493 . S
C300 C207 1.490 . S
C311 C221 1.498 . S
C316 C137 1.494 . S
C327 C151 1.533 . S
C332 C179 1.533 . S
C343 C165 1.528 . S
C348 C193 1.530 . S
C359 C5 1.416 . S
C364 C145 1.421 . S
C375 C19 1.413 . S
C380 C159 1.413 . S
C391 C33 1.433 . S
C396 C117 1.440 . S
C407 C47 1.447 . S
C412 C131 1.454 . S
C423 C61 1.426 . S
C428 C201 1.420 . S
C439 C215 1.413 . S
C444 C75 1.412 . S
C455 C89 1.456 . S
C460 C173 1.450 . S
C471 C187 1.465 . S
C476 C103 1.466 . S
C487 C191 0.672 . S
C492 C9 0.636 . S
C503 C23 0.574 . S
C508 C205 0.539 . S
C519 C219 0.605 . S
C524 C37 0.566 . S
C535 C177 0.532 . S
C540 C51 0.564 . S
C551 C163 0.652 . S
C556 C65 0.686 . S
C567 C79 0.516 . S
C572 C121 0.542 . S
C583 C93 0.648 . S
C588 C135 0.683 . S
C599 C107 0.706 . S
C604 C149 0.723 . S
C615 C182 1.487 . S
C620 C0 1.525 . S
C631 C14 1.493 . S
C636 C196 1.518 . S
C647 C28 1.494 . S
C652 C210 1.517 . S
C663 C168 1.486 . S
C668 C42 1.526 . S
C679 C154 1.511 . S
C684 C56 1.503 . S
C695 C112 1.511 . S
C700 C70 1.500 . S
C711 C84 1.524 . S
C716 C126 1.487 . S
C727 C140 1.505 . S
C732 C98 1.506 . S
