# Generated by pormake.
# Topology sma, (6)-cn, num edge types: 1
# Building blocks:
#     Node 0, Type 0, BuildingBlock: GEDQOX_clean_sbu_0, # of connection points: 6
#     Node 1, Type 0, BuildingBlock: GEDQOX_clean_sbu_0, # of connection points: 6
#     Node 2, Type 0, BuildingBlock: GEDQOX_clean_sbu_0, # of connection points: 6
#     Edge 3, Type (0, 0), BuildingBlock: CIFDUS_clean_linker_0, # of connection points: 2
#     Edge 4, Type (0, 0), BuildingBlock: CIFDUS_clean_linker_0, # of connection points: 2
#     Edge 5, Type (0, 0), BuildingBlock: CIFDUS_clean_linker_0, # of connection points: 2
#     Edge 6, Type (0, 0), BuildingBlock: CIFDUS_clean_linker_0, # of connection points: 2
#     Edge 7, Type (0, 0), BuildingBlock: CIFDUS_clean_linker_0, # of connection points: 2
#     Edge 8, Type (0, 0), BuildingBlock: CIFDUS_clean_linker_0, # of connection points: 2
#     Edge 9, Type (0, 0), BuildingBlock: CIFDUS_clean_linker_0, # of connection points: 2
#     Edge 10, Type (0, 0), BuildingBlock: CIFDUS_clean_linker_0, # of connection points: 2
#     Edge 11, Type (0, 0), BuildingBlock: CIFDUS_clean_linker_0, # of connection points: 2
# Relax obj value: 0.135
# Max RMSD: 0.269
# Mean RMSD: 0.206
data_MOF--net-sma--node1-GEDQOX_clean_sbu_0--edge1-CIFDUS_clean_linker_0
_symmetry_space_group_name_H-M    P1
_symmetry_Int_Tables_number       1
_symmetry_cell_setting            triclinic
loop_
_symmetry_equiv_pos_as_xyz
'x, y, z'
_cell_length_a     36.942679
_cell_length_b     27.021379
_cell_length_c     12.344245
_cell_angle_alpha  96.697714
_cell_angle_beta   90.540297
_cell_angle_gamma 96.211137
loop_
_atom_site_label
_atom_site_type_symbol
_atom_site_fract_x
_atom_site_fract_y
_atom_site_fract_z
_atom_type_partial_charge
Nd0 Nd 0.07671 0.63207 -0.00129 0.0
Nd1 Nd 0.05574 0.52136 0.0218 0.0
C2 C 0.0951 0.72656 -0.02818 0.0
C3 C 0.12507 0.76211 0.02551 0.0
C4 C 0.15015 0.78859 -0.03725 0.0
C5 C 0.1812 0.81713 0.01214 0.0
C6 C 0.18775 0.81975 0.1254 0.0
C7 C 0.16203 0.79425 0.18824 0.0
C8 C 0.13115 0.76574 0.13899 0.0
C9 C 0.08545 0.60597 0.20543 0.0
C10 C 0.14072 0.55996 -0.01156 0.0
C11 C 1.02978 0.43398 0.08339 0.0
C12 C 0.99778 0.41171 0.13805 0.0
C13 C 0.96574 0.43531 0.14865 0.0
C14 C 0.93492 0.41203 0.19526 0.0
C15 C 0.9357 0.36484 0.23258 0.0
C16 C 0.96815 0.34187 0.22317 0.0
C17 C 0.99883 0.36509 0.17633 0.0
C18 C 0.07209 0.53882 0.81325 0.0
C19 C 0.99004 0.59186 -0.00978 0.0
O20 O 0.10526 0.68944 0.9051 0.0
O21 O 0.06841 0.71222 0.03439 0.0
O22 O 0.10751 0.63838 0.16338 0.0
O23 O 0.05894 0.59054 0.14157 0.0
O24 O 0.12847 0.59815 0.94809 0.0
O25 O 0.11881 0.52823 0.03893 0.0
O26 O 0.05268 0.46659 0.14341 0.0
O27 O 1.02379 0.44705 -0.01341 0.0
O28 O 0.07971 0.49933 0.85563 0.0
O29 O 0.05442 0.56638 0.87809 0.0
O30 O 0.99892 0.54853 0.01574 0.0
O31 O 1.01493 0.62891 -0.02681 0.0
H32 H 0.14625 0.78608 0.87511 0.0
H33 H 0.20027 0.8367 -0.03856 0.0
H34 H 0.1664 0.79469 0.27524 0.0
H35 H 0.11267 0.74523 0.18975 0.0
H36 H 0.96442 0.47143 0.1199 0.0
H37 H 0.91055 0.43102 0.20232 0.0
H38 H 0.96961 0.30528 0.24955 0.0
H39 H 1.02326 0.3462 0.16839 0.0
Nd40 Nd 0.51981 1.0641 0.60675 0.0
Nd41 Nd 0.60017 0.07961 0.55406 0.0
C42 C 0.45231 1.03705 0.66502 0.0
C43 C 0.41905 1.01182 0.60715 0.0
C44 C 0.39102 0.98858 0.66536 0.0
C45 C 0.35905 0.96537 0.61127 0.0
C46 C 0.35445 0.96509 0.4977 0.0
C47 C 0.38295 0.988 0.4396 0.0
C48 C 0.41495 1.01098 0.49373 0.0
C49 C 0.5332 0.07377 0.39145 0.0
C50 C 0.56669 0.96638 0.57295 0.0
C51 C 0.66389 0.10392 0.46594 0.0
C52 C 0.68974 0.146 0.43678 0.0
C53 C 0.69535 0.15184 0.32638 0.0
C54 C 0.72273 0.18722 0.29614 0.0
C55 C 0.74539 0.21743 0.37563 0.0
C56 C 0.73907 0.21259 0.48634 0.0
C57 C 0.71159 0.17726 0.51662 0.0
C58 C 0.5873 1.06606 0.76727 0.0
C59 C 0.5569 0.17741 0.63383 0.0
O60 O 0.479 1.00967 0.67387 0.0
O61 O 0.46352 0.08172 0.6399 0.0
O62 O 0.50638 0.0914 0.44349 0.0
O63 O 0.55056 1.04919 0.45057 0.0
O64 O 0.53831 0.98613 0.61701 0.0
O65 O 0.59294 0.99377 0.52809 0.0
O66 O 0.63341 0.09284 0.40901 0.0
O67 O 0.66001 0.09838 0.56922 0.0
O68 O 0.6144 1.04937 0.71346 0.0
O69 O 0.56961 0.0919 0.7114 0.0
O70 O 0.58338 0.16052 0.5734 0.0
O71 O 0.53216 0.14636 0.67513 0.0
H72 H 0.3938 0.9885 0.7528 0.0
H73 H 0.33803 0.94737 0.65848 0.0
H74 H 0.3803 0.98908 0.3525 0.0
H75 H 0.43637 1.02855 0.44712 0.0
H76 H 0.67929 0.12786 0.26295 0.0
H77 H 0.72708 0.18943 0.21012 0.0
H78 H 0.75571 0.23568 0.5497 0.0
H79 H 0.70814 0.17366 0.60247 0.0
Nd80 Nd 0.51797 0.56469 0.70456 0.0
Nd81 Nd 0.60068 0.59668 0.76365 0.0
C82 C 0.4492 0.5455 0.63552 0.0
C83 C 0.41349 0.55222 0.68447 0.0
C84 C 0.40918 0.59329 0.76223 0.0
C85 C 0.37539 0.59851 0.81001 0.0
C86 C 0.34527 0.56255 0.78181 0.0
C87 C 0.3499 0.52096 0.7054 0.0
C88 C 0.38369 0.51593 0.65709 0.0
C89 C 0.53475 0.58582 0.92256 0.0
C90 C 0.55239 0.68154 0.69745 0.0
C91 C 0.66445 0.61985 0.86713 0.0
C92 C 0.70099 0.60568 0.88755 0.0
C93 C 0.72426 0.63745 -0.03808 0.0
C94 C 0.76022 0.62792 -0.02256 0.0
C95 C 0.77369 0.58627 0.91881 0.0
C96 C 0.74992 0.5535 0.84637 0.0
C97 C 0.71381 0.56327 0.83046 0.0
C98 C 0.58429 0.57978 0.54579 0.0
C99 C 0.56986 0.47616 0.72429 0.0
O100 O 0.46727 0.51256 0.67539 0.0
O101 O 0.47006 0.58604 0.61817 0.0
O102 O 0.50875 0.55249 0.88368 0.0
O103 O 0.54862 0.60928 0.84873 0.0
O104 O 0.52762 0.64491 0.6564 0.0
O105 O 0.58006 0.67342 0.75931 0.0
O106 O 0.63653 0.59502 0.90866 0.0
O107 O 0.65762 0.63197 0.77003 0.0
O108 O 0.61156 0.61115 0.58617 0.0
O109 O 0.56999 0.55505 0.61732 0.0
O110 O 0.59565 0.51048 0.76996 0.0
O111 O 0.54028 0.4886 0.6777 0.0
H112 H 0.43195 0.62132 0.78625 0.0
H113 H 0.37287 0.63066 0.86951 0.0
H114 H 0.3272 0.49289 0.68112 0.0
H115 H 0.38655 0.48368 0.59811 0.0
H116 H 0.71479 0.67035 0.00674 0.0
H117 H 0.77758 0.6534 0.03511 0.0
H118 H 0.75954 0.52123 0.79966 0.0
H119 H 0.69618 0.53843 0.77234 0.0
H120 H 0.19412 0.62908 0.9384 0.0
H121 H 0.17423 0.47363 -0.00811 0.0
H122 H 0.23644 0.46069 0.93538 0.0
H123 H 0.29538 0.49312 0.86 0.0
H124 H 0.31305 0.64881 0.80577 0.0
H125 H 0.25272 0.66198 0.87333 0.0
C126 C 0.20331 0.59228 0.93838 0.0
C127 C 0.17938 0.55223 -0.0316 0.0
C128 C 0.23871 0.58514 0.90493 0.0
C129 C 0.19208 0.50511 -0.03064 0.0
C130 C 0.22757 0.49767 0.93632 0.0
C131 C 0.28595 0.52988 0.86304 0.0
C132 C 0.30881 0.56994 0.82772 0.0
C133 C 0.25093 0.53726 0.90198 0.0
C134 C 0.29633 0.61749 0.83349 0.0
C135 C 0.26172 0.62502 0.87163 0.0
H136 H 0.81439 0.23273 0.46223 0.0
H137 H 0.74693 0.27872 0.21326 0.0
H138 H 0.79936 0.32982 0.14982 0.0
H139 H 0.86508 0.35822 0.15938 0.0
H140 H 0.93217 0.31266 0.40991 0.0
H141 H 0.87916 0.26493 0.47854 0.0
C142 C 0.81096 0.25459 0.3953 0.0
C143 C 0.77669 0.25168 0.34253 0.0
C144 C 0.84127 0.28376 0.35891 0.0
C145 C 0.77303 0.27969 0.2546 0.0
C146 C 0.803 0.30908 0.21846 0.0
C147 C 0.86803 0.33849 0.23003 0.0
C148 C 0.90271 0.33885 0.27881 0.0
C149 C 0.83737 0.31093 0.26912 0.0
C150 C 0.90599 0.31245 0.36954 0.0
C151 C 0.87563 0.28529 0.40924 0.0
H152 H 0.51222 0.89266 0.5947 0.0
H153 H 0.6291 0.92074 0.57797 0.0
H154 H 0.63514 0.83536 0.61802 0.0
H155 H 0.60713 0.75353 0.66493 0.0
H156 H 0.49012 0.72419 0.66984 0.0
H157 H 0.48415 0.80929 0.62804 0.0
C158 C 0.53901 0.87996 0.59896 0.0
C159 C 0.57018 0.91306 0.58381 0.0
C160 C 0.54224 0.83075 0.62106 0.0
C161 C 0.60467 0.89591 0.58856 0.0
C162 C 0.60815 0.8472 0.6123 0.0
C163 C 0.58037 0.76597 0.65723 0.0
C164 C 0.5491 0.73301 0.67199 0.0
C165 C 0.57714 0.81451 0.63016 0.0
C166 C 0.51456 0.74904 0.65935 0.0
C167 C 0.51114 0.79764 0.6354 0.0
H168 H 0.83255 0.65611 0.92488 0.0
H169 H 0.80245 0.49843 0.94072 0.0
H170 H 0.86661 0.4862 -0.03443 0.0
H171 H 0.93124 0.52065 -0.0161 0.0
H172 H 0.96073 0.67858 -0.03374 0.0
H173 H 0.89679 0.69033 0.94221 0.0
C174 C 0.83998 0.6191 0.93462 0.0
C175 C 0.81269 0.5783 0.93157 0.0
C176 C 0.87683 0.6124 0.94878 0.0
C177 C 0.8229 0.53041 0.94202 0.0
C178 C 0.85957 0.52346 0.9568 0.0
C179 C 0.92372 0.55771 -0.02472 0.0
C180 C 0.95093 0.59869 -0.02271 0.0
C181 C 0.88678 0.56423 -0.03947 0.0
C182 C 0.94053 0.64631 -0.03501 0.0
C183 C 0.9039 0.65312 0.95121 0.0
H184 H 0.34609 0.90988 0.29667 0.0
H185 H 0.28472 0.96789 0.56977 0.0
H186 H 0.22813 0.92912 0.47845 0.0
H187 H 0.19582 0.87875 0.32125 0.0
H188 H 0.25699 0.82095 0.04774 0.0
H189 H 0.31361 0.86113 0.13739 0.0
C190 C 0.32034 0.91459 0.33586 0.0
C191 C 0.3199 0.94168 0.44054 0.0
C192 C 0.28772 0.8926 0.2823 0.0
C193 C 0.28614 0.94658 0.4903 0.0
C194 C 0.25364 0.92472 0.4377 0.0
C195 C 0.22154 0.87477 0.28131 0.0
C196 C 0.222 0.8468 0.1777 0.0
C197 C 0.2541 0.89751 0.33389 0.0
C198 C 0.25563 0.84278 0.12666 0.0
C199 C 0.28812 0.86541 0.17835 0.0
H200 H 0.51699 0.39913 0.71785 0.0
H201 H 0.63369 0.43249 0.7124 0.0
H202 H 0.64035 0.34253 0.6818 0.0
H203 H 0.61228 0.25408 0.65 0.0
H204 H 0.49558 0.22267 0.66768 0.0
H205 H 0.48959 0.31212 0.69956 0.0
C206 C 0.54392 0.38671 0.7104 0.0
C207 C 0.57478 0.42228 0.71635 0.0
C208 C 0.54747 0.33525 0.69435 0.0
C209 C 0.60952 0.40573 0.70831 0.0
C210 C 0.6133 0.35434 0.69021 0.0
C211 C 0.58561 0.26699 0.6609 0.0
C212 C 0.55438 0.23187 0.65572 0.0
C213 C 0.58239 0.31872 0.68184 0.0
C214 C 0.52002 0.24895 0.67153 0.0
C215 C 0.51654 0.3001 0.68958 0.0
H216 H 0.07193 0.62361 0.71568 0.0
H217 H 0.08187 0.46535 0.65113 0.0
H218 H 0.08671 0.47211 0.45628 0.0
H219 H 0.08738 0.52288 0.30383 0.0
H220 H 0.08167 0.68182 0.36721 0.0
H221 H 0.0764 0.67547 0.5633 0.0
C222 C 0.07521 0.59078 0.65862 0.0
C223 C 0.07622 0.54406 0.69686 0.0
C224 C 0.07881 0.59515 0.54695 0.0
C225 C 0.08097 0.50173 0.62307 0.0
C226 C 0.08368 0.50551 0.51178 0.0
C227 C 0.08476 0.55586 0.36091 0.0
C228 C 0.08432 0.60247 0.32259 0.0
C229 C 0.08246 0.55194 0.47281 0.0
C230 C 0.08195 0.64554 0.3963 0.0
C231 C 0.07885 0.64187 0.50785 0.0
H232 H 0.58358 1.0308 0.26347 0.0
H233 H 0.49543 0.12302 0.25736 0.0
H234 H 0.50391 0.12811 0.06305 0.0
H235 H 0.53651 0.10684 0.895 0.0
H236 H 0.62514 1.01546 0.9 0.0
H237 H 0.61643 1.00957 0.09447 0.0
C238 C 0.56638 1.05211 0.21947 0.0
C239 C 0.53901 0.07657 0.27437 0.0
C240 C 0.57146 1.05501 0.10767 0.0
C241 C 0.51671 0.10386 0.21663 0.0
C242 C 0.52152 0.10681 0.10557 0.0
C243 C 0.55387 0.08562 0.93875 0.0
C244 C 0.58146 1.06176 0.88377 0.0
C245 C 0.5488 0.08257 0.0503 0.0
C246 C 0.60375 1.03427 0.94102 0.0
C247 C 0.5988 1.03089 0.05208 0.0
H248 H 0.60849 0.63595 0.38891 0.0
H249 H 0.52989 0.5129 0.45115 0.0
H250 H 0.50701 0.50487 0.26305 0.0
H251 H 0.50993 0.53211 0.08129 0.0
H252 H 0.58768 0.65584 0.01807 0.0
H253 H 0.61045 0.66457 0.20699 0.0
C254 C 0.58645 0.60733 0.36086 0.0
C255 C 0.57102 0.57478 0.43261 0.0
C256 C 0.57333 0.60318 0.25312 0.0
C257 C 0.54226 0.53812 0.39652 0.0
C258 C 0.52914 0.53359 0.28934 0.0
C259 C 0.53175 0.56111 0.10913 0.0
C260 C 0.54738 0.59307 0.03662 0.0
C261 C 0.54454 0.56584 0.21707 0.0
C262 C 0.57551 0.63063 0.07302 0.0
C263 C 0.58848 0.63561 0.18068 0.0
loop_
_geom_bond_atom_site_label_1
_geom_bond_atom_site_label_2
_geom_bond_distance
_geom_bond_site_symmetry_2
_ccdc_geom_bond_type
Nd0 C2 2.836 . S
Nd0 O20 2.500 . S
Nd0 O21 2.492 . S
Nd0 O22 2.487 . S
Nd0 O23 2.682 . S
Nd0 O24 2.410 . S
Nd0 O29 2.414 . S
Nd0 O31 2.424 1_455 S
Nd1 C11 2.836 1_455 S
Nd1 O23 2.414 . S
Nd1 O25 2.424 . S
Nd1 O26 2.500 1_455 S
Nd1 O27 2.492 1_455 S
Nd1 O28 2.487 1_554 S
Nd1 O29 2.682 . S
Nd1 O30 2.410 1_455 S
C2 Nd0 2.836 . S
C2 C3 1.498 . S
C2 O20 1.258 . S
C2 O21 1.239 . S
C3 C2 1.498 . S
C3 C4 1.366 . S
C3 C8 1.407 . S
C4 C3 1.366 . S
C4 C5 1.392 . S
C4 H32 0.930 1_554 S
C5 C4 1.392 . S
C5 C6 1.398 . S
C5 H33 0.929 1_554 S
C6 C5 1.398 . S
C6 C7 1.352 . S
C7 C6 1.352 . S
C7 C8 1.384 . S
C7 H34 0.930 . S
C8 C3 1.407 . S
C8 C7 1.384 . S
C8 H35 0.929 . S
C9 O22 1.241 . S
C9 O23 1.273 . S
C10 O24 1.251 . S
C10 O25 1.268 . S
C11 Nd1 2.836 1_655 S
C11 C12 1.498 . S
C11 O26 1.258 . S
C11 O27 1.239 . S
C12 C11 1.498 . S
C12 C13 1.366 . S
C12 C17 1.407 . S
C13 C12 1.366 . S
C13 C14 1.392 . S
C13 H36 0.930 . S
C14 C13 1.392 . S
C14 C15 1.398 . S
C14 H37 0.929 . S
C15 C14 1.398 . S
C15 C16 1.352 . S
C16 C15 1.352 . S
C16 C17 1.384 . S
C16 H38 0.930 1_554 S
C17 C12 1.407 . S
C17 C16 1.384 . S
C17 H39 0.929 1_554 S
C18 O28 1.241 . S
C18 O29 1.273 1_556 S
C19 O30 1.251 . S
C19 O31 1.268 . S
O20 Nd0 2.500 . S
O20 C2 1.258 . S
O21 Nd0 2.492 . S
O21 C2 1.239 . S
O22 Nd0 2.487 . S
O22 C9 1.241 . S
O23 Nd0 2.682 . S
O23 Nd1 2.414 . S
O23 C9 1.273 . S
O24 Nd0 2.410 . S
O24 C10 1.251 . S
O25 Nd1 2.424 . S
O25 C10 1.268 . S
O26 Nd1 2.500 1_655 S
O26 C11 1.258 . S
O27 Nd1 2.492 1_655 S
O27 C11 1.239 . S
O28 Nd1 2.487 1_556 S
O28 C18 1.241 . S
O29 Nd0 2.414 . S
O29 Nd1 2.682 . S
O29 C18 1.273 1_554 S
O30 Nd1 2.410 1_655 S
O30 C19 1.251 . S
O31 Nd0 2.424 1_655 S
O31 C19 1.268 . S
H32 C4 0.930 1_556 S
H33 C5 0.929 1_556 S
H34 C7 0.930 . S
H35 C8 0.929 . S
H36 C13 0.930 . S
H37 C14 0.929 . S
H38 C16 0.930 1_556 S
H39 C17 0.929 1_556 S
Nd40 C42 2.826 1_545 S
Nd40 O60 2.490 1_545 S
Nd40 O61 2.484 1_545 S
Nd40 O62 2.487 1_545 S
Nd40 O63 2.684 . S
Nd40 O64 2.397 1_545 S
Nd40 O69 2.412 . S
Nd40 O71 2.438 . S
Nd41 C51 2.836 . S
Nd41 O63 2.414 . S
Nd41 O65 2.424 1_545 S
Nd41 O66 2.500 . S
Nd41 O67 2.492 . S
Nd41 O68 2.487 . S
Nd41 O69 2.682 . S
Nd41 O70 2.410 . S
C42 Nd40 2.826 1_565 S
C42 C43 1.498 . S
C42 O60 1.258 . S
C42 O61 1.239 . S
C43 C42 1.498 . S
C43 C44 1.366 . S
C43 C48 1.407 . S
C44 C43 1.366 . S
C44 C45 1.392 . S
C44 H72 0.930 . S
C45 C44 1.392 . S
C45 C46 1.398 . S
C45 H73 0.929 . S
C46 C45 1.398 . S
C46 C47 1.352 . S
C47 C46 1.352 . S
C47 C48 1.384 . S
C47 H74 0.930 . S
C48 C43 1.407 . S
C48 C47 1.384 . S
C48 H75 0.929 . S
C49 O62 1.241 1_545 S
C49 O63 1.273 . S
C50 O64 1.251 . S
C50 O65 1.268 . S
C51 Nd41 2.836 . S
C51 C52 1.498 . S
C51 O66 1.258 . S
C51 O67 1.239 . S
C52 C51 1.498 . S
C52 C53 1.366 . S
C52 C57 1.407 . S
C53 C52 1.366 . S
C53 C54 1.392 . S
C53 H76 0.930 . S
C54 C53 1.392 . S
C54 C55 1.398 . S
C54 H77 0.929 . S
C55 C54 1.398 . S
C55 C56 1.352 . S
C56 C55 1.352 . S
C56 C57 1.384 . S
C56 H78 0.930 . S
C57 C52 1.407 . S
C57 C56 1.384 . S
C57 H79 0.929 . S
C58 O68 1.241 . S
C58 O69 1.273 . S
C59 O70 1.251 . S
C59 O71 1.268 . S
O60 Nd40 2.490 1_565 S
O60 C42 1.258 . S
O61 Nd40 2.484 1_565 S
O61 C42 1.239 . S
O62 Nd40 2.487 1_565 S
O62 C49 1.241 1_565 S
O63 Nd40 2.684 . S
O63 Nd41 2.414 . S
O63 C49 1.273 . S
O64 Nd40 2.397 1_565 S
O64 C50 1.251 . S
O65 Nd41 2.424 1_565 S
O65 C50 1.268 . S
O66 Nd41 2.500 . S
O66 C51 1.258 . S
O67 Nd41 2.492 . S
O67 C51 1.239 . S
O68 Nd41 2.487 . S
O68 C58 1.241 . S
O69 Nd40 2.412 . S
O69 Nd41 2.682 . S
O69 C58 1.273 . S
O70 Nd41 2.410 . S
O70 C59 1.251 . S
O71 Nd40 2.438 . S
O71 C59 1.268 . S
H72 C44 0.930 . S
H73 C45 0.929 . S
H74 C47 0.930 . S
H75 C48 0.929 . S
H76 C53 0.930 . S
H77 C54 0.929 . S
H78 C56 0.930 . S
H79 C57 0.929 . S
Nd80 C82 2.836 . S
Nd80 O100 2.500 . S
Nd80 O101 2.492 . S
Nd80 O102 2.487 1_556 S
Nd80 O103 2.682 . S
Nd80 O104 2.410 . S
Nd80 O109 2.414 . S
Nd80 O111 2.424 . S
Nd81 C91 2.836 . S
Nd81 O103 2.414 . S
Nd81 O105 2.424 . S
Nd81 O106 2.500 . S
Nd81 O107 2.492 . S
Nd81 O108 2.487 . S
Nd81 O109 2.682 . S
Nd81 O110 2.410 . S
C82 Nd80 2.836 . S
C82 C83 1.498 . S
C82 O100 1.258 . S
C82 O101 1.239 . S
C83 C82 1.498 . S
C83 C84 1.366 . S
C83 C88 1.407 . S
C84 C83 1.366 . S
C84 C85 1.392 . S
C84 H112 0.930 . S
C85 C84 1.392 . S
C85 C86 1.398 . S
C85 H113 0.929 . S
C86 C85 1.398 . S
C86 C87 1.352 . S
C87 C86 1.352 . S
C87 C88 1.384 . S
C87 H114 0.930 . S
C88 C83 1.407 . S
C88 C87 1.384 . S
C88 H115 0.929 . S
C89 O102 1.241 . S
C89 O103 1.273 1_554 S
C90 O104 1.251 . S
C90 O105 1.268 . S
C91 Nd81 2.836 . S
C91 C92 1.498 . S
C91 O106 1.258 . S
C91 O107 1.239 . S
C92 C91 1.498 . S
C92 C93 1.366 . S
C92 C97 1.407 . S
C93 C92 1.366 . S
C93 C94 1.392 . S
C93 H116 0.930 . S
C94 C93 1.392 . S
C94 C95 1.398 . S
C94 H117 0.929 1_556 S
C95 C94 1.398 . S
C95 C96 1.352 . S
C96 C95 1.352 . S
C96 C97 1.384 . S
C96 H118 0.930 . S
C97 C92 1.407 . S
C97 C96 1.384 . S
C97 H119 0.929 . S
C98 O108 1.241 . S
C98 O109 1.273 . S
C99 O110 1.251 . S
C99 O111 1.268 . S
O100 Nd80 2.500 . S
O100 C82 1.258 . S
O101 Nd80 2.492 . S
O101 C82 1.239 . S
O102 Nd80 2.487 1_554 S
O102 C89 1.241 . S
O103 Nd80 2.682 . S
O103 Nd81 2.414 . S
O103 C89 1.273 1_556 S
O104 Nd80 2.410 . S
O104 C90 1.251 . S
O105 Nd81 2.424 . S
O105 C90 1.268 . S
O106 Nd81 2.500 . S
O106 C91 1.258 . S
O107 Nd81 2.492 . S
O107 C91 1.239 . S
O108 Nd81 2.487 . S
O108 C98 1.241 . S
O109 Nd80 2.414 . S
O109 Nd81 2.682 . S
O109 C98 1.273 . S
O110 Nd81 2.410 . S
O110 C99 1.251 . S
O111 Nd80 2.424 . S
O111 C99 1.268 . S
H112 C84 0.930 . S
H113 C85 0.929 . S
H114 C87 0.930 . S
H115 C88 0.929 . S
H116 C93 0.930 . S
H117 C94 0.929 1_554 S
H118 C96 0.930 . S
H119 C97 0.929 . S
H120 C126 0.930 . S
H121 C129 0.930 . S
H122 C130 0.930 . S
H123 C131 0.930 . S
H124 C134 0.930 . S
H125 C135 0.930 . S
C126 H120 0.930 . S
C126 C127 1.355 1_556 S
C126 C128 1.415 . S
C127 C126 1.355 1_554 S
C127 C129 1.419 . S
C128 C126 1.415 . S
C128 C133 1.425 . S
C128 C135 1.409 . S
C129 H121 0.930 . S
C129 C127 1.419 . S
C129 C130 1.362 . S
C130 H122 0.930 . S
C130 C129 1.362 . S
C130 C133 1.409 1_554 S
C131 H123 0.930 . S
C131 C132 1.355 . S
C131 C133 1.415 . S
C132 C131 1.355 . S
C132 C134 1.419 . S
C133 C128 1.425 . S
C133 C130 1.409 1_556 S
C133 C131 1.415 . S
C134 H124 0.930 . S
C134 C132 1.419 . S
C134 C135 1.362 . S
C135 H125 0.930 . S
C135 C128 1.409 . S
C135 C134 1.362 . S
H136 C142 0.930 . S
H137 C145 0.930 . S
H138 C146 0.930 . S
H139 C147 0.930 . S
H140 C150 0.930 . S
H141 C151 0.930 . S
C142 H136 0.930 . S
C142 C143 1.355 . S
C142 C144 1.415 . S
C143 C142 1.355 . S
C143 C145 1.419 . S
C144 C142 1.415 . S
C144 C149 1.425 . S
C144 C151 1.409 . S
C145 H137 0.930 . S
C145 C143 1.419 . S
C145 C146 1.362 . S
C146 H138 0.930 . S
C146 C145 1.362 . S
C146 C149 1.409 . S
C147 H139 0.930 . S
C147 C148 1.355 . S
C147 C149 1.415 . S
C148 C147 1.355 . S
C148 C150 1.419 . S
C149 C144 1.425 . S
C149 C146 1.409 . S
C149 C147 1.415 . S
C150 H140 0.930 . S
C150 C148 1.419 . S
C150 C151 1.362 . S
C151 H141 0.930 . S
C151 C144 1.409 . S
C151 C150 1.362 . S
H152 C158 0.930 . S
H153 C161 0.930 . S
H154 C162 0.930 . S
H155 C163 0.930 . S
H156 C166 0.930 . S
H157 C167 0.930 . S
C158 H152 0.930 . S
C158 C159 1.355 . S
C158 C160 1.415 . S
C159 C158 1.355 . S
C159 C161 1.419 . S
C160 C158 1.415 . S
C160 C165 1.425 . S
C160 C167 1.409 . S
C161 H153 0.930 . S
C161 C159 1.419 . S
C161 C162 1.362 . S
C162 H154 0.930 . S
C162 C161 1.362 . S
C162 C165 1.409 . S
C163 H155 0.930 . S
C163 C164 1.355 . S
C163 C165 1.415 . S
C164 C163 1.355 . S
C164 C166 1.419 . S
C165 C160 1.425 . S
C165 C162 1.409 . S
C165 C163 1.415 . S
C166 H156 0.930 . S
C166 C164 1.419 . S
C166 C167 1.362 . S
C167 H157 0.930 . S
C167 C160 1.409 . S
C167 C166 1.362 . S
H168 C174 0.930 1_554 S
H169 C177 0.930 . S
H170 C178 0.930 . S
H171 C179 0.930 1_556 S
H172 C182 0.930 . S
H173 C183 0.930 . S
C174 H168 0.930 1_556 S
C174 C175 1.355 . S
C174 C176 1.415 1_556 S
C175 C174 1.355 . S
C175 C177 1.419 . S
C176 C174 1.415 1_554 S
C176 C181 1.425 1_554 S
C176 C183 1.409 . S
C177 H169 0.930 . S
C177 C175 1.419 . S
C177 C178 1.362 . S
C178 H170 0.930 . S
C178 C177 1.362 . S
C178 C181 1.409 . S
C179 H171 0.930 1_554 S
C179 C180 1.355 . S
C179 C181 1.415 1_554 S
C180 C179 1.355 . S
C180 C182 1.419 . S
C181 C176 1.425 1_556 S
C181 C178 1.409 . S
C181 C179 1.415 1_556 S
C182 H172 0.930 . S
C182 C180 1.419 . S
C182 C183 1.362 . S
C183 H173 0.930 . S
C183 C176 1.409 . S
C183 C182 1.362 . S
H184 C190 0.930 . S
H185 C193 0.930 . S
H186 C194 0.930 . S
H187 C195 0.930 . S
H188 C198 0.930 . S
H189 C199 0.930 . S
C190 H184 0.930 . S
C190 C191 1.355 . S
C190 C192 1.415 . S
C191 C190 1.355 . S
C191 C193 1.419 . S
C192 C190 1.415 . S
C192 C197 1.425 . S
C192 C199 1.409 . S
C193 H185 0.930 . S
C193 C191 1.419 . S
C193 C194 1.362 . S
C194 H186 0.930 . S
C194 C193 1.362 . S
C194 C197 1.409 . S
C195 H187 0.930 . S
C195 C196 1.355 . S
C195 C197 1.415 . S
C196 C195 1.355 . S
C196 C198 1.419 . S
C197 C192 1.425 . S
C197 C194 1.409 . S
C197 C195 1.415 . S
C198 H188 0.930 . S
C198 C196 1.419 . S
C198 C199 1.362 . S
C199 H189 0.930 . S
C199 C192 1.409 . S
C199 C198 1.362 . S
H200 C206 0.930 . S
H201 C209 0.930 . S
H202 C210 0.930 . S
H203 C211 0.930 . S
H204 C214 0.930 . S
H205 C215 0.930 . S
C206 H200 0.930 . S
C206 C207 1.355 . S
C206 C208 1.415 . S
C207 C206 1.355 . S
C207 C209 1.419 . S
C208 C206 1.415 . S
C208 C213 1.425 . S
C208 C215 1.409 . S
C209 H201 0.930 . S
C209 C207 1.419 . S
C209 C210 1.362 . S
C210 H202 0.930 . S
C210 C209 1.362 . S
C210 C213 1.409 . S
C211 H203 0.930 . S
C211 C212 1.355 . S
C211 C213 1.415 . S
C212 C211 1.355 . S
C212 C214 1.419 . S
C213 C208 1.425 . S
C213 C210 1.409 . S
C213 C211 1.415 . S
C214 H204 0.930 . S
C214 C212 1.419 . S
C214 C215 1.362 . S
C215 H205 0.930 . S
C215 C208 1.409 . S
C215 C214 1.362 . S
H216 C222 0.930 . S
H217 C225 0.930 . S
H218 C226 0.930 . S
H219 C227 0.930 . S
H220 C230 0.930 1_655 S
H221 C231 0.930 1_655 S
C222 H216 0.930 . S
C222 C223 1.355 . S
C222 C224 1.415 . S
C223 C222 1.355 . S
C223 C225 1.419 . S
C224 C222 1.415 . S
C224 C229 1.425 . S
C224 C231 1.409 . S
C225 H217 0.930 . S
C225 C223 1.419 . S
C225 C226 1.362 . S
C226 H218 0.930 . S
C226 C225 1.362 . S
C226 C229 1.409 . S
C227 H219 0.930 . S
C227 C228 1.355 . S
C227 C229 1.415 . S
C228 C227 1.355 . S
C228 C230 1.419 . S
C229 C224 1.425 . S
C229 C226 1.409 . S
C229 C227 1.415 . S
C230 H220 0.930 1_455 S
C230 C228 1.419 . S
C230 C231 1.362 . S
C231 H221 0.930 1_455 S
C231 C224 1.409 . S
C231 C230 1.362 . S
H232 C238 0.930 . S
H233 C241 0.930 . S
H234 C242 0.930 . S
H235 C243 0.930 . S
H236 C246 0.930 . S
H237 C247 0.930 1_554 S
C238 H232 0.930 . S
C238 C239 1.355 . S
C238 C240 1.415 . S
C239 C238 1.355 . S
C239 C241 1.419 1_545 S
C240 C238 1.415 . S
C240 C245 1.425 1_545 S
C240 C247 1.409 1_554 S
C241 H233 0.930 . S
C241 C239 1.419 1_565 S
C241 C242 1.362 . S
C242 H234 0.930 . S
C242 C241 1.362 . S
C242 C245 1.409 . S
C243 H235 0.930 . S
C243 C244 1.355 1_565 S
C243 C245 1.415 1_556 S
C244 C243 1.355 1_545 S
C244 C246 1.419 . S
C245 C240 1.425 1_565 S
C245 C242 1.409 . S
C245 C243 1.415 1_554 S
C246 H236 0.930 . S
C246 C244 1.419 . S
C246 C247 1.362 . S
C247 H237 0.930 1_556 S
C247 C240 1.409 1_556 S
C247 C246 1.362 . S
H248 C254 0.930 . S
H249 C257 0.930 . S
H250 C258 0.930 . S
H251 C259 0.930 . S
H252 C262 0.930 . S
H253 C263 0.930 . S
C254 H248 0.930 . S
C254 C255 1.355 . S
C254 C256 1.415 . S
C255 C254 1.355 . S
C255 C257 1.419 . S
C256 C254 1.415 . S
C256 C261 1.425 . S
C256 C263 1.409 . S
C257 H249 0.930 . S
C257 C255 1.419 . S
C257 C258 1.362 . S
C258 H250 0.930 . S
C258 C257 1.362 . S
C258 C261 1.409 . S
C259 H251 0.930 . S
C259 C260 1.355 . S
C259 C261 1.415 . S
C260 C259 1.355 . S
C260 C262 1.419 . S
C261 C256 1.425 . S
C261 C258 1.409 . S
C261 C259 1.415 . S
C262 H252 0.930 . S
C262 C260 1.419 . S
C262 C263 1.362 . S
C263 H253 0.930 . S
C263 C256 1.409 . S
C263 C262 1.362 . S
C127 C10 2.646 . S
C132 C86 2.466 . S
C143 C55 1.699 . S
C148 C15 1.697 . S
C159 C50 2.979 . S
C164 C90 2.929 . S
C175 C95 2.267 . S
C180 C19 2.278 . S
C191 C46 1.447 . S
C196 C6 1.469 . S
C207 C99 2.645 . S
C212 C59 2.675 . S
C223 C18 0.578 . S
C228 C9 0.578 . S
C239 C49 0.557 . S
C244 C58 0.557 . S
C255 C98 0.724 . S
C260 C89 0.724 . S
