# Generated by pormake.
# Topology smc, (6)-cn, num edge types: 1
# Building blocks:
#     Node 0, Type 0, BuildingBlock: KUMJIN_clean_sbu_1, # of connection points: 6
#     Node 1, Type 0, BuildingBlock: KUMJIN_clean_sbu_1, # of connection points: 6
#     Node 2, Type 0, BuildingBlock: KUMJIN_clean_sbu_1, # of connection points: 6
#     Node 3, Type 0, BuildingBlock: KUMJIN_clean_sbu_1, # of connection points: 6
#     Node 4, Type 0, BuildingBlock: KUMJIN_clean_sbu_1, # of connection points: 6
#     Node 5, Type 0, BuildingBlock: KUMJIN_clean_sbu_1, # of connection points: 6
#     Node 6, Type 0, BuildingBlock: KUMJIN_clean_sbu_1, # of connection points: 6
#     Node 7, Type 0, BuildingBlock: KUMJIN_clean_sbu_1, # of connection points: 6
#     Node 8, Type 0, BuildingBlock: KUMJIN_clean_sbu_1, # of connection points: 6
#     Edge 9, Type (0, 0), BuildingBlock: MIFKUJ_clean_linker_0, # of connection points: 2
#     Edge 10, Type (0, 0), BuildingBlock: MIFKUJ_clean_linker_0, # of connection points: 2
#     Edge 11, Type (0, 0), BuildingBlock: MIFKUJ_clean_linker_0, # of connection points: 2
#     Edge 12, Type (0, 0), BuildingBlock: MIFKUJ_clean_linker_0, # of connection points: 2
#     Edge 13, Type (0, 0), BuildingBlock: MIFKUJ_clean_linker_0, # of connection points: 2
#     Edge 14, Type (0, 0), BuildingBlock: MIFKUJ_clean_linker_0, # of connection points: 2
#     Edge 15, Type (0, 0), BuildingBlock: MIFKUJ_clean_linker_0, # of connection points: 2
#     Edge 16, Type (0, 0), BuildingBlock: MIFKUJ_clean_linker_0, # of connection points: 2
#     Edge 17, Type (0, 0), BuildingBlock: MIFKUJ_clean_linker_0, # of connection points: 2
#     Edge 18, Type (0, 0), BuildingBlock: MIFKUJ_clean_linker_0, # of connection points: 2
#     Edge 19, Type (0, 0), BuildingBlock: MIFKUJ_clean_linker_0, # of connection points: 2
#     Edge 20, Type (0, 0), BuildingBlock: MIFKUJ_clean_linker_0, # of connection points: 2
#     Edge 21, Type (0, 0), BuildingBlock: MIFKUJ_clean_linker_0, # of connection points: 2
#     Edge 22, Type (0, 0), BuildingBlock: MIFKUJ_clean_linker_0, # of connection points: 2
#     Edge 23, Type (0, 0), BuildingBlock: MIFKUJ_clean_linker_0, # of connection points: 2
#     Edge 24, Type (0, 0), BuildingBlock: MIFKUJ_clean_linker_0, # of connection points: 2
#     Edge 25, Type (0, 0), BuildingBlock: MIFKUJ_clean_linker_0, # of connection points: 2
#     Edge 26, Type (0, 0), BuildingBlock: MIFKUJ_clean_linker_0, # of connection points: 2
#     Edge 27, Type (0, 0), BuildingBlock: MIFKUJ_clean_linker_0, # of connection points: 2
#     Edge 28, Type (0, 0), BuildingBlock: MIFKUJ_clean_linker_0, # of connection points: 2
#     Edge 29, Type (0, 0), BuildingBlock: MIFKUJ_clean_linker_0, # of connection points: 2
#     Edge 30, Type (0, 0), BuildingBlock: MIFKUJ_clean_linker_0, # of connection points: 2
#     Edge 31, Type (0, 0), BuildingBlock: MIFKUJ_clean_linker_0, # of connection points: 2
#     Edge 32, Type (0, 0), BuildingBlock: MIFKUJ_clean_linker_0, # of connection points: 2
#     Edge 33, Type (0, 0), BuildingBlock: MIFKUJ_clean_linker_0, # of connection points: 2
#     Edge 34, Type (0, 0), BuildingBlock: MIFKUJ_clean_linker_0, # of connection points: 2
#     Edge 35, Type (0, 0), BuildingBlock: MIFKUJ_clean_linker_0, # of connection points: 2
# Relax obj value: 0.162
# Max RMSD: 0.302
# Mean RMSD: 0.302
data_MOF--net-smc--node1-KUMJIN_clean_sbu_1--edge1-MIFKUJ_clean_linker_0
_symmetry_space_group_name_H-M    P1
_symmetry_Int_Tables_number       1
_symmetry_cell_setting            triclinic
loop_
_symmetry_equiv_pos_as_xyz
'x, y, z'
_cell_length_a     47.227264
_cell_length_b     47.130977
_cell_length_c     52.809488
_cell_angle_alpha  90.016427
_cell_angle_beta   89.999762
_cell_angle_gamma 120.17366
loop_
_atom_site_label
_atom_site_type_symbol
_atom_site_fract_x
_atom_site_fract_y
_atom_site_fract_z
_atom_type_partial_charge
Eu0 Eu 0.0365 0.42145 1.00303 0.0
C1 C 0.02548 0.54134 0.03487 0.0
N2 N 0.01111 0.51304 0.04838 0.0
C3 C 0.02742 0.54324 0.08728 0.0
C4 C 0.04233 0.57199 0.04725 0.0
C5 C 0.01108 0.5135 0.07419 0.0
C6 C 0.04335 0.57264 0.07375 0.0
C7 C 0.03836 0.56884 0.99418 0.0
C8 C 0.02354 0.53963 1.00858 0.0
C9 C 0.05567 0.59935 1.00643 0.0
C10 C 0.05761 0.60092 0.03288 0.0
Eu11 Eu 0.98363 0.46383 0.02537 0.0
N12 N 0.0067 0.50965 0.99716 0.0
C13 C 0.03478 0.56662 0.96788 0.0
C14 C 1.00062 0.50785 0.97172 0.0
C15 C 0.01532 0.53604 0.95667 0.0
H16 H 0.99796 0.49092 0.08471 0.0
H17 H 0.0109 0.53422 0.93646 0.0
H18 H 0.05942 0.43287 0.94255 0.0
H19 H 0.97406 0.30827 0.05899 0.0
H20 H 0.98338 0.48523 0.96277 0.0
H21 H 0.04585 0.58846 0.95617 0.0
H22 H 0.99992 0.36757 0.05159 0.0
H23 H 0.02752 0.54348 0.10778 0.0
H24 H 0.06726 0.62194 0.99562 0.0
H25 H 0.07086 0.62467 0.04205 0.0
H26 H 0.05409 0.39918 0.90479 0.0
H27 H 0.05602 0.59568 0.08394 0.0
H28 H 0.96791 0.27116 0.02366 0.0
N29 N 0.03328 0.39167 0.96651 0.0
C30 C 0.0185 0.35859 0.96923 0.0
C31 C 0.04387 0.38746 0.92276 0.0
C32 C 0.01563 0.3385 0.94848 0.0
C33 C 0.04645 0.4064 0.94394 0.0
C34 C 0.02825 0.35334 0.925 0.0
N35 N 0.00968 0.36472 0.01262 0.0
C36 C 0.99849 0.352 0.03619 0.0
C37 C 0.99156 0.3105 0.99631 0.0
C38 C 0.00671 0.34476 0.99294 0.0
C39 C 0.97979 0.29736 0.02036 0.0
C40 C 0.98329 0.31822 0.04036 0.0
H41 H 0.02635 0.33871 0.90857 0.0
H42 H 0.99805 0.28856 0.93604 0.0
H43 H 0.97696 0.26407 0.97787 0.0
O44 O 0.08014 0.43982 0.02685 0.0
O45 O 0.981 0.38689 1.00313 0.0
O46 O 0.96529 0.41046 0.03391 0.0
O47 O 0.08007 0.42111 0.98953 0.0
O48 O 0.03318 0.42657 0.0453 0.0
O49 O 0.99923 0.44586 0.06033 0.0
O50 O 0.94269 0.47059 0.01403 0.0
O51 O 0.0383 0.48876 0.03123 0.0
O52 O 0.05261 0.47479 0.99434 0.0
O53 O 0.94731 0.46008 0.053 0.0
O54 O 0.97128 0.43717 0.9867 0.0
O55 O 0.02226 0.44785 0.97456 0.0
C56 C 0.95832 0.38701 0.01753 0.0
C57 C 0.12992 0.4648 1.00424 0.0
C58 C 0.18946 0.49293 1.0069 0.0
C59 C 0.19116 0.52057 0.99531 0.0
C60 C 0.13226 0.49223 0.99188 0.0
C61 C 0.16268 0.52014 0.98781 0.0
C62 C 0.15867 0.46497 1.01141 0.0
C63 C 0.01979 0.43465 0.06379 0.0
C64 C 0.09755 0.43608 1.00936 0.0
C65 C 1.00058 0.30439 0.9518 0.0
C66 C 0.98859 0.29044 0.97564 0.0
C67 C 0.05928 0.49585 0.01285 0.0
C68 C 0.89546 0.45284 0.04008 0.0
C69 C 0.84717 0.45863 0.03506 0.0
C70 C 0.82821 0.42836 0.04729 0.0
C71 C 0.87639 0.42341 0.05335 0.0
C72 C 0.88077 0.47061 0.03129 0.0
C73 C 0.84281 0.41098 0.05648 0.0
C74 C 0.99118 0.43659 0.96929 0.0
C75 C 0.93109 0.46717 0.03682 0.0
H76 H 0.21464 0.54224 0.99153 0.0
H77 H 0.1106 0.49189 0.98508 0.0
H78 H 0.1642 0.54132 0.97849 0.0
H79 H 0.15714 0.44357 0.02041 0.0
H80 H 0.80231 0.41877 0.05056 0.0
H81 H 0.88737 0.41024 0.06164 0.0
H82 H 0.89556 0.49401 0.0219 0.0
H83 H 0.82819 0.38814 0.06654 0.0
Eu84 Eu 0.59946 0.63283 1.00113 0.0
C85 C 0.48158 0.50393 0.03664 0.0
N86 N 0.5105 0.52012 0.04933 0.0
C87 C 0.48222 0.51122 0.08874 0.0
C88 C 0.4516 0.49126 0.04971 0.0
C89 C 0.51134 0.52354 0.07501 0.0
C90 C 0.45222 0.49512 0.07604 0.0
C91 C 0.45231 0.48479 0.99684 0.0
C92 C 0.48209 0.50119 1.01038 0.0
C93 C 0.42241 0.47214 1.00983 0.0
C94 C 0.42207 0.47543 0.03615 0.0
Eu95 Eu 0.55824 0.539 0.025 0.0
N96 N 0.5115 0.51466 0.9981 0.0
C97 C 0.45339 0.48159 0.97059 0.0
C98 C 0.51243 0.50944 0.97274 0.0
C99 C 0.48356 0.4936 0.95857 0.0
H100 H 0.5345 0.53563 0.08489 0.0
H101 H 0.48459 0.49006 0.93841 0.0
H102 H 0.60582 0.63768 0.93789 0.0
H103 H 0.69433 0.69506 0.07338 0.0
H104 H 0.53499 0.51601 0.96327 0.0
H105 H 0.43107 0.46924 0.95953 0.0
H106 H 0.63829 0.66234 0.05744 0.0
H107 H 0.48292 0.51407 0.10911 0.0
H108 H 0.39938 0.45979 0.99965 0.0
H109 H 0.39879 0.46565 0.04586 0.0
H110 H 0.64932 0.66097 0.9054 0.0
H111 H 0.42969 0.4857 0.08674 0.0
H112 H 0.74103 0.7179 0.04361 0.0
N113 N 0.63911 0.6549 0.96874 0.0
C114 C 0.67078 0.6733 0.97632 0.0
C115 C 0.65573 0.6642 0.92525 0.0
C116 C 0.6964 0.68697 0.95842 0.0
C117 C 0.6312 0.65083 0.94365 0.0
C118 C 0.68851 0.68189 0.93264 0.0
N119 N 0.6524 0.66484 0.01892 0.0
C120 C 0.6581 0.67122 0.04418 0.0
C121 C 0.71029 0.69783 1.01043 0.0
C122 C 0.67763 0.67868 1.00206 0.0
C123 C 0.71629 0.70326 0.03643 0.0
C124 C 0.69004 0.69022 0.05332 0.0
H125 H 0.70748 0.69204 0.9183 0.0
H126 H 0.74896 0.71606 0.95327 0.0
H127 H 0.76112 0.72557 0.99878 0.0
O128 O 0.58892 0.67073 0.01665 0.0
O129 O 0.6343 0.61212 1.0036 0.0
O130 O 0.61101 0.57349 0.03507 0.0
O131 O 0.5952 0.66636 0.97608 0.0
O132 O 0.58328 0.62333 0.04245 0.0
O133 O 0.58229 0.57614 0.05741 0.0
O134 O 0.55266 0.49202 0.0132 0.0
O135 O 0.53104 0.56678 0.02935 0.0
O136 O 0.54619 0.59565 0.99274 0.0
O137 O 0.55867 0.50469 0.05287 0.0
O138 O 0.58547 0.55201 0.98663 0.0
O139 O 0.57399 0.59114 0.97327 0.0
C140 C 0.63496 0.59074 0.01929 0.0
C141 C 0.5864 0.71049 0.98727 0.0
C142 C 0.56636 0.74833 0.99503 0.0
C143 C 0.58051 0.76425 0.97213 0.0
C144 C 0.60029 0.7269 0.96438 0.0
C145 C 0.59726 0.75353 0.95689 0.0
C146 C 0.56919 0.72122 1.00268 0.0
C147 C 0.58363 0.60472 0.06109 0.0
C148 C 0.58951 0.68178 0.99386 0.0
C149 C 0.72896 0.70553 0.96675 0.0
C150 C 0.73588 0.71098 0.99267 0.0
C151 C 0.52508 0.58173 1.01115 0.0
C152 C 0.56775 0.46126 0.03972 0.0
C153 C 0.56169 0.407 0.0354 0.0
C154 C 0.59307 0.4191 0.04567 0.0
C155 C 0.5986 0.47278 0.05086 0.0
C156 C 0.54925 0.42823 0.03223 0.0
C157 C 0.61139 0.45186 0.0534 0.0
C158 C 0.58566 0.57163 0.96868 0.0
C159 C 0.55345 0.48238 0.0361 0.0
H160 H 0.5784 0.78501 0.96598 0.0
H161 H 0.61355 0.71913 0.95216 0.0
H162 H 0.60792 0.76589 0.9392 0.0
H163 H 0.55804 0.70862 0.02023 0.0
H164 H 0.60306 0.40303 0.04818 0.0
H165 H 0.61269 0.49775 0.05769 0.0
H166 H 0.52502 0.41892 0.02418 0.0
H167 H 0.63539 0.46093 0.06168 0.0
Eu168 Eu 0.39179 0.9828 1.00194 0.0
C169 C 0.52804 0.00768 0.03443 0.0
N170 N 0.50604 0.01293 0.04712 0.0
C171 C 0.51386 0.98937 0.08477 0.0
C172 C 0.54357 0.9925 0.04656 0.0
C173 C 0.49924 1.00471 0.07206 0.0
C174 C 0.53606 0.98316 0.07196 0.0
C175 C 0.55704 0.01139 0.99549 0.0
C176 C 0.53425 0.01664 1.00898 0.0
C177 C 0.57284 0.99664 1.00765 0.0
C178 C 0.56598 0.98706 0.03304 0.0
Eu179 Eu 0.48498 0.04126 0.02458 0.0
N180 N 0.51766 0.02975 0.9973 0.0
C181 C 0.56295 0.02066 0.97002 0.0
C182 C 0.52444 0.04006 0.97274 0.0
C183 C 0.54669 0.03517 0.95866 0.0
H184 H 0.48277 0.01024 0.08223 0.0
H185 H 0.55174 0.04317 0.93914 0.0
H186 H 0.38421 0.97834 0.93886 0.0
H187 H 0.33025 0.0173 0.07289 0.0
H188 H 0.51388 0.05319 0.96398 0.0
H189 H 0.58022 0.017 0.95903 0.0
H190 H 0.36447 0.99509 0.05766 0.0
H191 H 0.50823 0.98261 0.10449 0.0
H192 H 0.59023 0.99229 0.9975 0.0
H193 H 0.57818 0.97547 0.04207 0.0
H194 H 0.35808 0.99424 0.90541 0.0
H195 H 0.5474 0.97132 0.0819 0.0
H196 H 0.30336 0.03579 0.04214 0.0
N197 N 0.36565 0.99421 0.96891 0.0
C198 C 0.34664 0.00695 0.9759 0.0
C199 C 0.35463 0.9979 0.92515 0.0
C200 C 0.33111 0.01614 0.95752 0.0
C201 C 0.36948 0.98907 0.94405 0.0
C202 C 0.33555 0.01171 0.9319 0.0
N203 N 0.35845 1.00228 0.01881 0.0
C204 C 0.35353 1.00364 0.0441 0.0
C205 C 0.32266 0.02348 1.00937 0.0
C206 C 0.34262 0.01077 1.00154 0.0
C207 C 0.31856 0.02621 0.03535 0.0
C208 C 0.3338 0.01591 0.05277 0.0
H209 H 0.32418 0.01865 0.9172 0.0
H210 H 0.29965 0.03668 0.95141 0.0
H211 H 0.29208 0.04291 0.99676 0.0
O212 O 0.36335 0.93563 0.02105 0.0
O213 O 0.41 0.03831 1.00493 0.0
O214 O 0.4488 0.05661 0.03633 0.0
O215 O 0.35444 0.93998 0.98145 0.0
O216 O 0.40425 0.97685 0.04257 0.0
O217 O 0.44758 0.02649 0.05652 0.0
O218 O 0.52747 0.09009 0.01545 0.0
O219 O 0.46293 0.98591 0.02508 0.0
O220 O 0.43053 0.97086 0.98997 0.0
O221 O 0.51741 0.07216 0.05445 0.0
O222 O 0.46901 0.0523 0.98614 0.0
O223 O 0.43194 1.00056 0.97264 0.0
C224 C 0.4299 0.06123 0.02093 0.0
C225 C 0.31047 0.89948 1.00541 0.0
C226 C 0.26357 0.84441 1.01146 0.0
C227 C 0.24336 0.85825 0.01403 0.0
C228 C 0.28996 0.91279 1.0081 0.0
C229 C 0.25652 0.89218 0.01234 0.0
C230 C 0.29727 0.86534 1.00706 0.0
C231 C 0.42165 0.99734 0.06075 0.0
C232 C 0.34572 0.9208 1.00115 0.0
C233 C 0.31166 0.02935 0.96526 0.0
C234 C 0.30737 0.03292 0.9911 0.0
C235 C 0.44724 0.96506 1.00685 0.0
C236 C 0.56547 0.12533 0.04848 0.0
C237 C 0.62144 0.17119 0.04389 0.0
C238 C 0.62003 0.18069 0.06892 0.0
C239 C 0.56474 0.13553 0.07333 0.0
C240 C 0.59406 0.14305 0.03377 0.0
C241 C 0.59187 0.163 0.08344 0.0
C242 C 0.4504 0.032 0.96807 0.0
C243 C 0.53694 0.0951 0.03901 0.0
H244 H 0.21724 0.84279 0.01696 0.0
H245 H 0.29979 0.93902 1.00688 0.0
H246 H 0.2407 0.90251 0.01425 0.0
H247 H 0.3133 0.85518 1.0052 0.0
H248 H 0.64088 0.20179 0.07736 0.0
H249 H 0.54312 0.12216 0.08502 0.0
H250 H 0.59489 0.13522 0.01461 0.0
H251 H 0.5911 0.1706 0.10265 0.0
Eu252 Eu 0.70497 0.76335 0.33615 0.0
C253 C 0.67692 0.8715 0.37242 0.0
N254 N 0.6673 0.84258 0.38446 0.0
C255 C 0.68269 0.86991 0.42455 0.0
C256 C 0.69013 0.90106 0.38621 0.0
C257 C 0.66973 0.84122 0.4101 0.0
C258 C 0.69291 0.89996 0.41257 0.0
C259 C 0.6842 0.90133 0.33326 0.0
C260 C 0.6744 0.87156 0.34612 0.0
C261 C 0.69717 0.9308 0.34698 0.0
C262 C 0.70022 0.93068 0.37335 0.0
Eu263 Eu 0.64437 0.79542 0.35898 0.0
N264 N 0.66216 0.84266 0.33321 0.0
C265 C 0.68025 0.9006 0.30698 0.0
C266 C 0.65651 0.84173 0.30777 0.0
C267 C 0.66602 0.87064 0.29425 0.0
H268 H 0.66146 0.81793 0.4194 0.0
H269 H 0.66172 0.86969 0.27406 0.0
H270 H 0.71321 0.76447 0.27328 0.0
H271 H 0.66898 0.66286 0.40339 0.0
H272 H 0.64348 0.81889 0.29774 0.0
H273 H 0.68734 0.92292 0.29644 0.0
H274 H 0.69086 0.72022 0.39018 0.0
H275 H 0.68465 0.86882 0.4449 0.0
H276 H 0.70482 0.95385 0.33736 0.0
H277 H 0.71034 0.95364 0.38364 0.0
H278 H 0.7017 0.72522 0.23847 0.0
H279 H 0.70292 0.92216 0.42382 0.0
H280 H 0.65305 0.61944 0.37103 0.0
N281 N 0.6957 0.72788 0.30186 0.0
C282 C 0.68343 0.69571 0.30757 0.0
C283 C 0.69598 0.71644 0.25774 0.0
C284 C 0.67612 0.67233 0.2883 0.0
C285 C 0.7025 0.73863 0.27747 0.0
C286 C 0.68228 0.68305 0.26311 0.0
N287 N 0.68588 0.70943 0.35091 0.0
C288 C 0.68338 0.70156 0.37595 0.0
C289 C 0.66633 0.6531 0.33945 0.0
C290 C 0.67865 0.68622 0.33283 0.0
C291 C 0.66243 0.64463 0.36515 0.0
C292 C 0.67129 0.66904 0.38347 0.0
H293 H 0.67707 0.66588 0.24774 0.0
H294 H 0.65743 0.62083 0.28025 0.0
H295 H 0.64885 0.604 0.32502 0.0
O296 O 0.75108 0.7771 0.3556 0.0
O297 O 0.64982 0.72454 0.33747 0.0
O298 O 0.63147 0.74405 0.36935 0.0
O299 O 0.74931 0.77674 0.31469 0.0
O300 O 0.70898 0.77868 0.37768 0.0
O301 O 0.65903 0.77237 0.39099 0.0
O302 O 0.59793 0.7907 0.3456 0.0
O303 O 0.69894 0.82873 0.364 0.0
O304 O 0.71451 0.81452 0.32794 0.0
O305 O 0.60719 0.7901 0.38615 0.0
O306 O 0.63524 0.77006 0.32002 0.0
O307 O 0.68729 0.78619 0.30725 0.0
C308 C 0.62664 0.72109 0.35325 0.0
C309 C 0.78898 0.76737 0.3335 0.0
C310 C 0.8441 0.77548 0.33716 0.0
C311 C 0.83187 0.74294 0.3289 0.0
C312 C 0.77723 0.73497 0.32554 0.0
C313 C 0.79868 0.72289 0.32323 0.0
C314 C 0.8223 0.78751 0.33937 0.0
C315 C 0.68791 0.77506 0.39556 0.0
C316 C 0.76723 0.78112 0.33461 0.0
C317 C 0.66334 0.63919 0.2948 0.0
C318 C 0.65848 0.62961 0.3203 0.0
C319 C 0.72086 0.83506 0.34658 0.0
C320 C 0.55527 0.78494 0.37474 0.0
C321 C 0.51237 0.79869 0.36897 0.0
C322 C 0.49326 0.77491 0.38712 0.0
C323 C 0.53605 0.76174 0.39309 0.0
C324 C 0.54349 0.80363 0.36268 0.0
C325 C 0.50511 0.75662 0.39914 0.0
C326 C 0.65595 0.77236 0.30225 0.0
C327 C 0.58755 0.78936 0.36861 0.0
H328 H 0.84805 0.73311 0.32639 0.0
H329 H 0.75166 0.71922 0.32082 0.0
H330 H 0.78961 0.69799 0.31678 0.0
H331 H 0.83118 0.8125 0.34563 0.0
H332 H 0.46927 0.77082 0.39223 0.0
H333 H 0.54498 0.74742 0.40255 0.0
H334 H 0.55839 0.82189 0.34866 0.0
H335 H 0.49033 0.73851 0.41323 0.0
Eu336 Eu 0.25823 0.96398 0.33798 0.0
C337 C 0.15942 0.8175 0.37379 0.0
N338 N 0.18803 0.83984 0.38486 0.0
C339 C 0.16445 0.82235 0.42606 0.0
C340 C 0.13192 0.79665 0.38871 0.0
C341 C 0.19099 0.84267 0.41055 0.0
C342 C 0.13483 0.79915 0.41511 0.0
C343 C 0.12689 0.79524 0.33565 0.0
C344 C 0.15696 0.81697 0.34746 0.0
C345 C 0.09971 0.77399 0.35046 0.0
C346 C 0.10222 0.77467 0.37689 0.0
Eu347 Eu 0.23204 0.87053 0.35732 0.0
N348 N 0.18353 0.83835 0.33352 0.0
C349 C 0.12489 0.79558 0.30925 0.0
C350 C 0.18186 0.83786 0.3077 0.0
C351 C 0.15252 0.8169 0.29524 0.0
H352 H 0.21408 0.85985 0.41919 0.0
H353 H 0.15138 0.81688 0.27477 0.0
H354 H 0.25997 0.98106 0.2766 0.0
H355 H 0.35412 0.02118 0.41013 0.0
H356 H 0.20297 0.85275 0.29631 0.0
H357 H 0.10223 0.77929 0.29949 0.0
H358 H 0.29896 0.98338 0.39406 0.0
H359 H 0.16693 0.82443 0.44645 0.0
H360 H 0.07649 0.75711 0.34166 0.0
H361 H 0.08087 0.75842 0.38805 0.0
H362 H 0.29948 0.01863 0.24488 0.0
H363 H 0.11426 0.78354 0.42719 0.0
H364 H 0.39732 0.0595 0.38083 0.0
N365 N 0.29475 0.99736 0.30634 0.0
C366 C 0.32578 0.01897 0.31396 0.0
C367 C 0.30729 0.01876 0.26417 0.0
C368 C 0.34893 0.04151 0.29671 0.0
C369 C 0.28516 0.99709 0.28198 0.0
C370 C 0.33924 0.04124 0.2716 0.0
N371 N 0.31064 0.9985 0.35577 0.0
C372 C 0.31747 0.99925 0.38093 0.0
C373 C 0.36577 0.04236 0.34788 0.0
C374 C 0.33391 0.01977 0.33938 0.0
C375 C 0.37312 0.04252 0.37357 0.0
C376 C 0.34883 0.02091 0.39016 0.0
H377 H 0.35599 0.05871 0.25792 0.0
H378 H 0.39873 0.08163 0.29218 0.0
H379 H 0.41367 0.08193 0.33682 0.0
O380 O 0.24574 0.99608 0.35923 0.0
O381 O 0.29959 0.95172 0.33557 0.0
O382 O 0.28058 0.91445 0.36705 0.0
O383 O 0.23987 0.9923 0.31856 0.0
O384 O 0.23954 0.94757 0.37811 0.0
O385 O 0.24922 0.90607 0.3911 0.0
O386 O 0.23673 0.82918 0.34311 0.0
O387 O 0.19363 0.88517 0.36205 0.0
O388 O 0.20778 0.92082 0.32902 0.0
O389 O 0.25038 0.84584 0.38143 0.0
O390 O 0.25477 0.88887 0.31784 0.0
O391 O 0.24048 0.92708 0.30589 0.0
C392 C 0.30308 0.93136 0.3504 0.0
C393 C 0.25091 0.04218 0.33732 0.0
C394 C 0.24233 0.08867 0.34289 0.0
C395 C 0.27311 0.10918 0.3317 0.0
C396 C 0.28159 0.06311 0.32648 0.0
C397 C 0.29262 0.09644 0.32372 0.0
C398 C 0.23143 0.05503 0.34567 0.0
C399 C 0.24308 0.93007 0.39596 0.0
C400 C 0.23817 0.00673 0.33902 0.0
C401 C 0.38062 0.06411 0.30516 0.0
C402 C 0.3891 0.06434 0.33061 0.0
C403 C 0.18672 0.90248 0.34649 0.0
C404 C 0.22495 0.78855 0.37446 0.0
C405 C 0.20308 0.72975 0.36893 0.0
C406 C 0.18906 0.72414 0.39312 0.0
C407 C 0.21129 0.78223 0.39895 0.0
C408 C 0.22073 0.76196 0.35939 0.0
C409 C 0.19312 0.75026 0.408 0.0
C410 C 0.25335 0.9086 0.30069 0.0
C411 C 0.24439 0.82277 0.36519 0.0
H412 H 0.28186 0.13498 0.32852 0.0
H413 H 0.29682 0.05377 0.31978 0.0
H414 H 0.31614 0.11237 0.315 0.0
H415 H 0.20776 0.03877 0.35413 0.0
H416 H 0.17533 0.69944 0.40064 0.0
H417 H 0.21502 0.80194 0.41144 0.0
H418 H 0.23167 0.76633 0.34071 0.0
H419 H 0.18259 0.74577 0.42679 0.0
Eu420 Eu 0.0577 0.31712 0.33806 0.0
C421 C 0.20108 0.3543 0.37776 0.0
N422 N 0.17813 0.35976 0.38856 0.0
C423 C 0.18849 0.34434 0.42919 0.0
C424 C 0.21868 0.34341 0.39249 0.0
C425 C 0.17183 0.35536 0.41389 0.0
C426 C 0.21201 0.33833 0.41846 0.0
C427 C 0.22992 0.35301 0.34009 0.0
C428 C 0.20621 0.35857 0.35172 0.0
C429 C 0.24784 0.34268 0.3548 0.0
C430 C 0.2421 0.33771 0.38088 0.0
Eu431 Eu 0.15246 0.37936 0.36135 0.0
N432 N 0.18725 0.36687 0.33765 0.0
C433 C 0.23439 0.35727 0.31388 0.0
C434 C 0.19218 0.37189 0.31219 0.0
C435 C 0.21551 0.36684 0.29991 0.0
H436 H 0.1543 0.36075 0.42243 0.0
H437 H 0.21914 0.37067 0.27969 0.0
H438 H 0.04786 0.31854 0.27562 0.0
H439 H 1.00277 0.35056 0.41536 0.0
H440 H 0.179 0.38063 0.30117 0.0
H441 H 0.25232 0.35323 0.30425 0.0
H442 H 0.03109 0.32421 0.39624 0.0
H443 H 0.18337 0.34072 0.44928 0.0
H444 H 0.26594 0.33808 0.34613 0.0
H445 H 0.25587 0.32936 0.39191 0.0
H446 H 0.02369 0.34041 0.24517 0.0
H447 H 0.22492 0.32984 0.43039 0.0
H448 H 0.97715 0.374 0.38797 0.0
N449 N 0.03096 0.33232 0.30791 0.0
C450 C 0.01288 0.3452 0.31699 0.0
C451 C 0.02052 0.34197 0.26532 0.0
C452 C 0.99873 0.35805 0.30041 0.0
C453 C 0.03433 0.32982 0.28253 0.0
C454 C 1.00291 0.35645 0.27429 0.0
N455 N 0.02505 0.33552 0.35851 0.0
C456 C 0.02136 0.3354 0.3841 0.0
C457 C 0.99231 0.36123 0.35312 0.0
C458 C 0.00974 0.34677 0.34305 0.0
C459 C 0.99009 0.36285 0.37945 0.0
C460 C 1.00453 0.34969 0.39498 0.0
H461 H 0.99261 0.36624 0.26092 0.0
H462 H 0.97063 0.38281 0.29796 0.0
H463 H 0.965 0.38559 0.34408 0.0
O464 O 0.02053 0.26908 0.35313 0.0
O465 O 0.07548 0.37218 0.3376 0.0
O466 O 0.1091 0.38478 0.37098 0.0
O467 O 0.03026 0.27596 0.31282 0.0
O468 O 0.07208 0.30981 0.37797 0.0
O469 O 0.11348 0.36035 0.39276 0.0
O470 O 0.18936 0.42803 0.34745 0.0
O471 O 0.13626 0.32523 0.36024 0.0
O472 O 0.09877 0.3076 0.32822 0.0
O473 O 0.18398 0.4179 0.38825 0.0
O474 O 0.13721 0.38802 0.32199 0.0
O475 O 0.09879 0.33602 0.30918 0.0
C476 C 0.09503 0.3938 0.35422 0.0
C477 C 0.97916 0.2309 0.32493 0.0
C478 C 0.93411 0.17454 0.32918 0.0
C479 C 0.91749 0.18032 0.30958 0.0
C480 C 0.96198 0.23627 0.30559 0.0
C481 C 0.93134 0.21098 0.29793 0.0
C482 C 0.96513 0.19998 0.33671 0.0
C483 C 0.08916 0.32987 0.39662 0.0
C484 C 0.01327 0.25553 0.33074 0.0
C485 C 0.98145 0.37256 0.3104 0.0
C486 C 0.97824 0.37415 0.33667 0.0
C487 C 0.1161 0.30215 0.34475 0.0
C488 C 0.22685 0.4721 0.37522 0.0
C489 C 0.28266 0.517 0.36795 0.0
C490 C 0.27633 0.53697 0.38401 0.0
C491 C 0.22144 0.49218 0.3917 0.0
C492 C 0.25762 0.48442 0.36345 0.0
C493 C 0.24598 0.52456 0.39585 0.0
C494 C 0.11819 0.36737 0.30432 0.0
C495 C 0.20003 0.43864 0.3702 0.0
H496 H 0.89399 0.16085 0.3029 0.0
H497 H 0.97258 0.25969 0.29594 0.0
H498 H 0.9185 0.21498 0.28263 0.0
H499 H 0.97857 0.19557 0.35135 0.0
H500 H 0.29525 0.56201 0.38795 0.0
H501 H 0.19806 0.48295 0.40111 0.0
H502 H 0.2621 0.46877 0.35101 0.0
H503 H 0.24153 0.54003 0.40843 0.0
Eu504 Eu 0.37106 0.09588 0.66813 0.0
C505 C 0.33207 0.2029 0.70456 0.0
N506 N 0.32315 0.17419 0.71664 0.0
C507 C 0.32844 0.19968 0.75693 0.0
C508 C 0.33967 0.23141 0.71845 0.0
C509 C 0.32118 0.17208 0.74238 0.0
C510 C 0.33747 0.22941 0.7449 0.0
C511 C 0.34284 0.23345 0.66534 0.0
C512 C 0.33363 0.20377 0.67821 0.0
C513 C 0.35068 0.26191 0.67916 0.0
C514 C 0.34887 0.26084 0.70561 0.0
Eu515 Eu 0.30808 0.12818 0.69097 0.0
N516 N 0.32584 0.17572 0.66522 0.0
C517 C 0.34343 0.23362 0.63889 0.0
C518 C 0.32477 0.17564 0.63934 0.0
C519 C 0.3341 0.20453 0.62586 0.0
H520 H 0.31323 0.14887 0.75168 0.0
H521 H 0.33347 0.20419 0.60537 0.0
H522 H 0.38208 0.09485 0.60592 0.0
H523 H 0.32225 0.99454 0.73665 0.0
H524 H 0.31576 0.15356 0.62861 0.0
H525 H 0.35038 0.2559 0.62835 0.0
H526 H 0.33839 0.04978 0.72151 0.0
H527 H 0.32663 0.1979 0.77736 0.0
H528 H 0.35776 0.28484 0.66954 0.0
H529 H 0.35443 0.28289 0.71593 0.0
H530 H 0.37952 0.05605 0.57319 0.0
H531 H 0.34249 0.25062 0.75619 0.0
H532 H 0.32374 0.95426 0.70751 0.0
N533 N 0.36694 0.06004 0.63561 0.0
C534 C 0.35904 0.02926 0.64281 0.0
C535 C 0.37361 0.04817 0.59268 0.0
C536 C 0.35847 0.00667 0.62502 0.0
C537 C 0.37436 0.06985 0.61107 0.0
C538 C 0.36585 0.0165 0.59971 0.0
N539 N 0.35111 0.04224 0.68453 0.0
C540 C 0.3405 0.03319 0.70883 0.0
C541 C 0.34142 0.98787 0.67575 0.0
C542 C 0.35104 0.02012 0.66797 0.0
C543 C 0.33147 0.97884 0.70085 0.0
C544 C 0.33068 1.00151 0.71737 0.0
H545 H 0.36546 0.99978 0.58545 0.0
H546 H 0.34977 0.95735 0.61955 0.0
H547 H 0.33436 0.94074 0.66387 0.0
O548 O 0.41719 0.10755 0.687 0.0
O549 O 0.31676 0.05581 0.66652 0.0
O550 O 0.30443 0.07931 0.69826 0.0
O551 O 0.4167 0.11714 0.64702 0.0
O552 O 0.37335 0.10895 0.70975 0.0
O553 O 0.32928 0.1139 0.72511 0.0
O554 O 0.26142 0.12252 0.67753 0.0
O555 O 0.36181 0.16486 0.69599 0.0
O556 O 0.37705 0.14627 0.66253 0.0
O557 O 0.2672 0.11389 0.71736 0.0
O558 O 0.29939 0.10337 0.65165 0.0
O559 O 0.35129 0.11686 0.63918 0.0
C560 C 0.29465 0.05571 0.68168 0.0
C561 C 0.45836 0.10727 0.66109 0.0
C562 C 0.51354 0.11593 0.66648 0.0
C563 C 0.50644 0.09171 0.648 0.0
C564 C 0.4518 0.08285 0.64305 0.0
C565 C 0.47577 0.07527 0.63649 0.0
C566 C 0.48932 0.1238 0.67282 0.0
C567 C 0.35632 0.11194 0.72839 0.0
C568 C 0.43428 0.11767 0.66618 0.0
C569 C 0.35023 0.97499 0.63295 0.0
C570 C 0.34147 0.96553 0.65819 0.0
C571 C 0.38499 0.16713 0.68123 0.0
C572 C 0.21484 0.10817 0.70524 0.0
C573 C 0.16935 0.1184 0.69891 0.0
C574 C 0.15041 0.09256 0.71574 0.0
C575 C 0.19554 0.08294 0.72225 0.0
C576 C 0.20177 0.12611 0.69362 0.0
C577 C 0.16346 0.07508 0.72731 0.0
C578 C 0.3198 0.1034 0.6344 0.0
C579 C 0.24852 0.1155 0.70002 0.0
H580 H 0.52486 0.08585 0.64205 0.0
H581 H 0.42846 0.07009 0.63354 0.0
H582 H 0.47071 0.05687 0.62218 0.0
H583 H 0.49459 0.14285 0.68664 0.0
H584 H 0.1256 0.08633 0.72042 0.0
H585 H 0.20519 0.06906 0.7315 0.0
H586 H 0.21672 0.14595 0.6807 0.0
H587 H 0.14869 0.05546 0.7404 0.0
Eu588 Eu 0.92958 0.3008 0.67127 0.0
C589 C 0.8182 0.16017 0.706 0.0
N590 N 0.8468 0.18174 0.71755 0.0
C591 C 0.81933 0.17259 0.75738 0.0
C592 C 0.78872 0.14428 0.71986 0.0
C593 C 0.84797 0.18772 0.74291 0.0
C594 C 0.78956 0.15085 0.7458 0.0
C595 C 0.7888 0.13274 0.66765 0.0
C596 C 0.81829 0.15491 0.68003 0.0
C597 C 0.75946 0.11671 0.68147 0.0
C598 C 0.75939 0.12257 0.70745 0.0
Eu599 Eu 0.89379 0.20483 0.6919 0.0
N600 N 0.84685 0.17191 0.66681 0.0
C601 C 0.78954 0.12769 0.64162 0.0
C602 C 0.84781 0.16591 0.6416 0.0
C603 C 0.8192 0.14419 0.6286 0.0
H604 H 0.87102 0.20392 0.75204 0.0
H605 H 0.82014 0.13983 0.60858 0.0
H606 H 0.95669 0.31613 0.61166 0.0
H607 H 0.99746 0.3608 0.75788 0.0
H608 H 0.87049 0.17677 0.63131 0.0
H609 H 0.76743 0.11094 0.63143 0.0
H610 H 0.94893 0.33454 0.73045 0.0
H611 H 0.82026 0.17754 0.77747 0.0
H612 H 0.7366 0.09987 0.67218 0.0
H613 H 0.7365 0.11017 0.7178 0.0
H614 H 0.00914 0.34136 0.58849 0.0
H615 H 0.7674 0.13916 0.75708 0.0
H616 H 0.05256 0.38131 0.73947 0.0
N617 N 0.97878 0.32746 0.64782 0.0
C618 C 0.00704 0.3442 0.66122 0.0
C619 C 0.00898 0.3418 0.60897 0.0
C620 C 0.03767 0.35898 0.64895 0.0
C621 C 0.97927 0.32707 0.62206 0.0
C622 C 0.03838 0.35725 0.62249 0.0
N623 N 0.97497 0.33246 0.69838 0.0
C624 C 0.97226 0.34013 0.72281 0.0
C625 C 0.03393 0.36401 0.70172 0.0
C626 C 1.00507 0.34629 0.68731 0.0
C627 C 0.03104 0.36807 0.72765 0.0
C628 C 1.00003 0.35657 0.73812 0.0
H629 H 0.06141 0.3684 0.61232 0.0
H630 H 0.09025 0.38659 0.65434 0.0
H631 H 0.087 0.39121 0.70055 0.0
O632 O 0.91742 0.33908 0.68246 0.0
O633 O 0.9644 0.28037 0.66735 0.0
O634 O 0.94564 0.2446 0.70023 0.0
O635 O 0.92587 0.33183 0.64298 0.0
O636 O 0.907 0.28427 0.7107 0.0
O637 O 0.91724 0.24313 0.72352 0.0
O638 O 0.89812 0.16207 0.68013 0.0
O639 O 0.85904 0.22482 0.69411 0.0
O640 O 0.87703 0.26254 0.66187 0.0
O641 O 0.90014 0.17478 0.72012 0.0
O642 O 0.91641 0.21999 0.65213 0.0
O643 O 0.90647 0.26145 0.64079 0.0
C644 C 0.96766 0.26047 0.68286 0.0
C645 C 0.91373 0.3751 0.65011 0.0
C646 C 0.89495 0.41449 0.65583 0.0
C647 C 0.90463 0.42545 0.63089 0.0
C648 C 0.92321 0.38673 0.62524 0.0
C649 C 0.91859 0.41162 0.61575 0.0
C650 C 0.89928 0.38898 0.66547 0.0
C651 C 0.91206 0.26768 0.72856 0.0
C652 C 0.91876 0.34818 0.65898 0.0
C653 C 0.06646 0.37532 0.66339 0.0
C654 C 0.06459 0.37785 0.68972 0.0
C655 C 0.85461 0.24365 0.67828 0.0
C656 C 0.90553 0.12738 0.71094 0.0
C657 C 0.89611 0.07168 0.70538 0.0
C658 C 0.91523 0.07624 0.7271 0.0
C659 C 0.92456 0.13115 0.73244 0.0
C660 C 0.89119 0.09749 0.69735 0.0
C661 C 0.92934 0.10573 0.74042 0.0
C662 C 0.91563 0.24005 0.63496 0.0
C663 C 0.90067 0.15478 0.70345 0.0
H664 H 0.90115 0.44473 0.62303 0.0
H665 H 0.93429 0.37658 0.61298 0.0
H666 H 0.92588 0.42024 0.59655 0.0
H667 H 0.89168 0.38023 0.68464 0.0
H668 H 0.91887 0.05669 0.73407 0.0
H669 H 0.93584 0.15388 0.74311 0.0
H670 H 0.87631 0.09431 0.68079 0.0
H671 H 0.94392 0.10883 0.75711 0.0
Eu672 Eu 0.72475 0.64993 0.66775 0.0
C673 C 0.86839 0.68689 0.70603 0.0
N674 N 0.84757 0.69461 0.71779 0.0
C675 C 0.86423 0.68568 0.75838 0.0
C676 C 0.88812 0.67817 0.72025 0.0
C677 C 0.84494 0.69389 0.74352 0.0
C678 C 0.88621 0.67819 0.74671 0.0
C679 C 0.89087 0.67898 0.66711 0.0
C680 C 0.86963 0.6873 0.67966 0.0
C681 C 0.91041 0.67012 0.68125 0.0
C682 C 0.90919 0.66992 0.70772 0.0
Eu683 Eu 0.81966 0.71271 0.6917 0.0
N684 N 0.85026 0.69587 0.66636 0.0
C685 C 0.89217 0.68013 0.64066 0.0
C686 C 0.85292 0.69867 0.64059 0.0
C687 C 0.8733 0.69025 0.62739 0.0
H688 H 0.82855 0.70049 0.7526 0.0
H689 H 0.87492 0.69223 0.60696 0.0
H690 H 0.71641 0.64486 0.60492 0.0
H691 H 0.66349 0.68526 0.73869 0.0
H692 H 0.8406 0.70847 0.62984 0.0
H693 H 0.90813 0.67389 0.63035 0.0
H694 H 0.69781 0.66331 0.72366 0.0
H695 H 0.86247 0.68555 0.77882 0.0
H696 H 0.9268 0.66366 0.67188 0.0
H697 H 0.92472 0.6634 0.71833 0.0
H698 H 0.68985 0.66014 0.5714 0.0
H699 H 0.90166 0.67257 0.75828 0.0
H700 H 0.63551 0.70242 0.70794 0.0
N701 N 0.69778 0.66064 0.63488 0.0
C702 C 0.67803 0.67256 0.64182 0.0
C703 C 0.68645 0.66391 0.59113 0.0
C704 C 0.66241 0.68162 0.62343 0.0
C705 C 0.70163 0.65551 0.61006 0.0
C706 C 0.66699 0.67731 0.59782 0.0
N707 N 0.69015 0.66821 0.68467 0.0
C708 C 0.68604 0.6707 0.70998 0.0
C709 C 0.65404 0.68914 0.67523 0.0
C710 C 0.67384 0.6762 0.66743 0.0
C711 C 0.6505 0.69258 0.70117 0.0
C712 C 0.66634 0.68303 0.7186 0.0
H713 H 0.65544 0.684 0.58311 0.0
H714 H 0.63091 0.70211 0.61725 0.0
H715 H 0.6236 0.70871 0.66258 0.0
O716 O 0.68764 0.60257 0.68395 0.0
O717 O 0.74056 0.70489 0.66764 0.0
O718 O 0.77565 0.71773 0.70013 0.0
O719 O 0.70035 0.60637 0.64426 0.0
O720 O 0.73615 0.64515 0.70897 0.0
O721 O 0.78155 0.69327 0.72417 0.0
O722 O 0.85995 0.76077 0.67856 0.0
O723 O 0.8019 0.6586 0.69568 0.0
O724 O 0.76822 0.64258 0.66181 0.0
O725 O 0.84895 0.75135 0.71889 0.0
O726 O 0.80422 0.722 0.65244 0.0
O727 O 0.76685 0.66969 0.63999 0.0
C728 C 0.76143 0.72688 0.68355 0.0
C729 C 0.64827 0.56256 0.65561 0.0
C730 C 0.60282 0.50588 0.65811 0.0
C731 C 0.5874 0.51274 0.63813 0.0
C732 C 0.63191 0.56887 0.63619 0.0
C733 C 0.60174 0.54399 0.62745 0.0
C734 C 0.63358 0.53109 0.66666 0.0
C735 C 0.75439 0.66428 0.72768 0.0
C736 C 0.68213 0.58719 0.66237 0.0
C737 C 0.64289 0.69477 0.63113 0.0
C738 C 0.63871 0.6985 0.65695 0.0
C739 C 0.78182 0.63539 0.68042 0.0
C740 C 0.89425 0.80499 0.70813 0.0
C741 C 0.94975 0.8519 0.70278 0.0
C742 C 0.94328 0.86808 0.72242 0.0
C743 C 0.88869 0.82181 0.7276 0.0
C744 C 0.92486 0.82007 0.69563 0.0
C745 C 0.91302 0.85319 0.73459 0.0
C746 C 0.78457 0.70118 0.63505 0.0
C747 C 0.86798 0.77158 0.70162 0.0
H748 H 0.56436 0.49375 0.6304 0.0
H749 H 0.64286 0.59276 0.62727 0.0
H750 H 0.58962 0.54879 0.61204 0.0
H751 H 0.64628 0.52623 0.68163 0.0
H752 H 0.96194 0.89215 0.72883 0.0
H753 H 0.86538 0.81068 0.7374 0.0
H754 H 0.92929 0.80708 0.68063 0.0
H755 H 0.9085 0.86595 0.74969 0.0
H756 H 0.48471 0.56087 0.96998 0.0
H757 H 0.42545 0.53836 0.9703 0.0
H758 H 0.43056 0.56656 0.04882 0.0
H759 H 0.48903 0.58553 0.04903 0.0
H760 H 0.38167 0.51352 0.04619 0.0
H761 H 0.41803 0.6077 0.99189 0.0
H762 H 0.44641 0.64353 0.9554 0.0
H763 H 0.38782 0.56441 0.90435 0.0
H764 H 0.3594 0.52804 0.94057 0.0
H765 H 0.23855 0.53505 0.03805 0.0
H766 H 0.29391 0.543 0.04085 0.0
H767 H 0.26585 0.4613 0.99027 0.0
H768 H 0.21007 0.45276 0.9879 0.0
H769 H 0.323 0.53473 0.97762 0.0
H770 H 0.28208 0.44434 0.03728 0.0
H771 H 0.25348 0.41551 0.07632 0.0
H772 H 0.32165 0.49806 0.12087 0.0
H773 H 0.35029 0.52763 0.08204 0.0
C774 C 0.47314 0.56291 0.98705 0.0
C775 C 0.49132 0.57537 1.00936 0.0
C776 C 0.4392 0.55006 0.98729 0.0
C777 C 0.42317 0.55121 1.00947 0.0
C778 C 0.44193 0.56506 0.03145 0.0
C779 C 0.47549 0.57647 0.03149 0.0
C780 C 0.38695 0.5375 1.01017 0.0
C781 C 0.36911 0.51859 0.03122 0.0
C782 C 0.36989 0.54328 0.9906 0.0
C783 C 0.38687 0.56513 0.96888 0.0
C784 C 0.41136 0.59794 0.97287 0.0
C785 C 0.42743 0.61833 0.95225 0.0
C786 C 0.41898 0.60623 0.92757 0.0
C787 C 0.39438 0.57374 0.92346 0.0
C788 C 0.37828 0.55324 0.94402 0.0
C789 C 0.24399 0.51824 0.02814 0.0
C790 C 0.22023 0.49333 0.01276 0.0
C791 C 0.2755 0.52274 0.02978 0.0
C792 C 0.28378 0.50268 0.01579 0.0
C793 C 0.2597 0.47682 1.00132 0.0
C794 C 0.22795 0.4719 1.00007 0.0
C795 C 0.3185 0.5117 0.01366 0.0
C796 C 0.33587 0.52967 0.99236 0.0
C797 C 0.33523 0.50616 0.0334 0.0
C798 C 0.31811 0.48831 0.05673 0.0
C799 C 0.29075 0.45648 0.05537 0.0
C800 C 0.27458 0.43998 0.07748 0.0
C801 C 0.28569 0.45497 0.10106 0.0
C802 C 0.31304 0.48648 0.10259 0.0
C803 C 0.32926 0.50311 0.08054 0.0
H804 H 0.27314 0.44215 0.11816 0.0
H805 H 0.43145 0.62205 0.91162 0.0
H806 H 0.40831 0.90327 0.02502 0.0
H807 H 0.42147 0.85917 0.02648 0.0
H808 H 0.51315 0.9226 0.98829 0.0
H809 H 0.49593 0.96277 0.98209 0.0
H810 H 0.50112 0.8712 0.97495 0.0
H811 H 0.49678 0.90384 0.06065 0.0
H812 H 0.47065 0.91386 0.09737 0.0
H813 H 0.39631 0.81196 0.09866 0.0
H814 H 0.42178 0.80143 0.06176 0.0
H815 H 0.59251 0.80426 0.0223 0.0
H816 H 0.56513 0.83538 0.03198 0.0
H817 H 0.47299 0.75338 1.00798 0.0
H818 H 0.50043 0.7221 0.99831 0.0
H819 H 0.48295 0.80969 0.05526 0.0
H820 H 0.49264 0.78981 0.95955 0.0
H821 H 0.52854 0.78752 0.92653 0.0
H822 H 0.60882 0.87867 0.95333 0.0
H823 H 0.57324 0.88142 0.98637 0.0
C824 C 0.43069 0.90701 0.01627 0.0
C825 C 0.45192 0.93674 1.00423 0.0
C826 C 0.43874 0.88221 0.0177 0.0
C827 C 0.46926 0.88776 1.00874 0.0
C828 C 0.48961 0.91725 0.99574 0.0
C829 C 0.48034 0.94083 0.99274 0.0
C830 C 0.48028 0.8633 0.01259 0.0
C831 C 0.49716 0.85828 0.99276 0.0
C832 C 0.47558 0.84583 0.03567 0.0
C833 C 0.461 0.85191 0.05837 0.0
C834 C 0.47486 0.8836 0.06879 0.0
C835 C 0.46014 0.88937 0.08959 0.0
C836 C 0.4318 0.86358 0.1003 0.0
C837 C 0.41824 0.83191 0.09033 0.0
C838 C 0.43281 0.82601 0.0695 0.0
C839 C 0.56611 0.79226 0.02052 0.0
C840 C 0.54844 0.76077 1.00986 0.0
C841 C 0.55051 0.81004 0.026 0.0
C842 C 0.51707 0.79659 0.02078 0.0
C843 C 0.49872 0.76392 0.01252 0.0
C844 C 0.51436 0.74605 1.00706 0.0
C845 C 0.50367 0.81879 0.01791 0.0
C846 C 0.48653 0.82308 0.03774 0.0
C847 C 0.50957 0.8371 0.99548 0.0
C848 C 0.53038 0.83588 0.97516 0.0
C849 C 0.5179 0.80939 0.95822 0.0
C850 C 0.53815 0.80804 0.93953 0.0
C851 C 0.57089 0.83303 0.93774 0.0
C852 C 0.58343 0.85944 0.95463 0.0
C853 C 0.56322 0.86096 0.97326 0.0
H854 H 0.58659 0.83182 0.92337 0.0
H855 H 0.42038 0.86812 0.11635 0.0
H856 H 0.27555 0.8047 0.98062 0.0
H857 H 0.24714 0.74447 0.98066 0.0
H858 H 0.19044 0.74211 0.04537 0.0
H859 H 0.21873 0.80218 0.04561 0.0
H860 H 0.22632 0.69457 0.03749 0.0
H861 H 0.1342 0.71626 0.01181 0.0
H862 H 0.12139 0.75339 0.98775 0.0
H863 H 0.16997 0.74362 0.92237 0.0
H864 H 0.18304 0.70649 0.94618 0.0
H865 H 0.08867 0.53718 0.05206 0.0
H866 H 0.12782 0.59569 0.05058 0.0
H867 H 0.13154 0.59114 0.96911 0.0
H868 H 0.09046 0.53232 0.97047 0.0
H869 H 0.1275 0.64289 0.98262 0.0
H870 H 0.19508 0.59887 1.00941 0.0
H871 H 0.20901 0.56488 0.03629 0.0
H872 H 0.21172 0.61997 0.10182 0.0
H873 H 0.1972 0.65399 0.07549 0.0
C874 C 0.25751 0.79139 0.99517 0.0
C875 C 0.24913 0.80819 0.01296 0.0
C876 C 0.24132 0.75703 0.99514 0.0
C877 C 0.21683 0.73902 0.01305 0.0
C878 C 0.20941 0.75568 0.03148 0.0
C879 C 0.22538 0.78995 0.03143 0.0
C880 C 0.19666 0.70289 1.01109 0.0
C881 C 0.20472 0.68309 0.02554 0.0
C882 C 0.16882 0.68816 0.99534 0.0
C883 C 0.15923 0.70852 0.98057 0.0
C884 C 0.14181 0.72185 0.99221 0.0
C885 C 0.13464 0.74296 0.97868 0.0
C886 C 0.14478 0.75079 0.95352 0.0
C887 C 0.16202 0.73743 0.94182 0.0
C888 C 0.16924 0.71631 0.95529 0.0
C889 C 0.09813 0.5485 0.03381 0.0
C890 C 0.0867 0.53012 1.01138 0.0
C891 C 0.12071 0.58201 0.033 0.0
C892 C 0.13327 0.59785 1.00978 0.0
C893 C 0.12238 0.57942 0.98728 0.0
C894 C 0.09926 0.54578 0.98807 0.0
C895 C 0.15683 0.63383 1.0092 0.0
C896 C 0.14933 0.6539 0.99433 0.0
C897 C 0.18521 0.64869 0.02477 0.0
C898 C 0.19496 0.62892 0.04047 0.0
C899 C 0.19857 0.6037 0.02956 0.0
C900 C 0.20653 0.5844 0.0447 0.0
C901 C 0.21125 0.59023 0.07071 0.0
C902 C 0.20809 0.61548 0.08166 0.0
C903 C 0.20003 0.63482 0.06664 0.0
H904 H 0.21737 0.5752 0.08237 0.0
H905 H 0.13935 0.76726 0.9431 0.0
H906 H 0.46825 0.10557 0.98551 0.0
H907 H 0.48202 0.16209 0.98115 0.0
H908 H 0.42992 0.15405 0.05048 0.0
H909 H 0.41131 0.0951 0.05219 0.0
H910 H 0.42321 0.19337 0.02357 0.0
H911 H 0.52838 0.19898 0.04487 0.0
H912 H 0.57432 0.18937 0.03948 0.0
H913 H 0.58202 0.21593 0.96096 0.0
H914 H 0.53696 0.22774 0.96642 0.0
H915 H 0.51487 0.35917 0.06452 0.0
H916 H 0.48602 0.2999 0.05673 0.0
H917 H 0.53407 0.31691 0.98414 0.0
H918 H 0.56394 0.37615 0.99261 0.0
H919 H 0.54021 0.27362 1.00728 0.0
H920 H 0.44781 0.28543 0.99152 0.0
H921 H 0.40733 0.30284 0.99938 0.0
H922 H 0.37565 0.24445 0.06703 0.0
H923 H 0.41628 0.22706 0.05978 0.0
C924 C 0.45788 0.11513 0.99888 0.0
C925 C 0.43683 0.09529 0.01818 0.0
C926 C 0.46712 0.14818 0.99707 0.0
C927 C 0.45803 0.16314 0.01588 0.0
C928 C 0.43729 0.14335 0.03555 0.0
C929 C 0.42666 0.10968 0.03661 0.0
C930 C 0.47058 0.19931 0.01529 0.0
C931 C 0.44889 0.21088 0.02031 0.0
C932 C 0.50375 0.22261 1.00984 0.0
C933 C 0.52904 0.21349 1.00594 0.0
C934 C 0.53963 0.20236 0.0264 0.0
C935 C 0.56568 0.1967 0.02333 0.0
C936 C 0.58081 0.20126 0.99974 0.0
C937 C 0.57017 0.21213 0.97919 0.0
C938 C 0.54461 0.21867 0.98232 0.0
C939 C 0.51876 0.35009 0.04678 0.0
C940 C 0.54149 0.37187 0.02914 0.0
C941 C 0.50208 0.31629 0.04219 0.0
C942 C 0.50743 0.30376 0.01966 0.0
C943 C 0.5294 0.32587 1.00163 0.0
C944 C 0.54641 0.35964 1.0064 0.0
C945 C 0.49308 0.26772 0.01619 0.0
C946 C 0.51441 0.25618 1.01027 0.0
C947 C 0.45964 0.24468 0.0207 0.0
C948 C 0.43525 0.25513 0.02519 0.0
C949 C 0.43238 0.2765 1.00818 0.0
C950 C 0.40938 0.28633 0.01251 0.0
C951 C 0.38897 0.2748 0.03371 0.0
C952 C 0.39149 0.25337 0.05062 0.0
C953 C 0.41447 0.24349 0.04639 0.0
H954 H 0.37116 0.28242 0.03702 0.0
H955 H 0.60097 0.19674 0.99741 0.0
H956 H 0.65599 0.14983 0.01571 0.0
H957 H 0.71206 0.18365 0.99974 0.0
H958 H 0.71197 0.27106 0.024 0.0
H959 H 0.65576 0.23757 0.03885 0.0
H960 H 0.74924 0.2856 0.98435 0.0
H961 H 0.73852 0.23073 0.06301 0.0
H962 H 0.7184 0.18323 0.09172 0.0
H963 H 0.7647 0.14293 0.04577 0.0
H964 H 0.78461 0.19 0.01652 0.0
H965 H 0.90649 0.39299 0.02952 0.0
H966 H 0.84856 0.35308 0.02481 0.0
H967 H 0.87322 0.28496 0.99117 0.0
H968 H 0.93192 0.32526 0.99633 0.0
H969 H 0.82475 0.25676 0.02755 0.0
H970 H 0.84483 0.32449 0.95375 0.0
H971 H 0.86762 0.37824 0.93262 0.0
H972 H 0.80618 0.40119 0.9778 0.0
H973 H 0.78322 0.34773 0.9994 0.0
C974 C 0.66761 0.1763 0.01684 0.0
C975 C 0.6519 0.19107 0.0291 0.0
C976 C 0.69972 0.19561 1.0079 0.0
C977 C 0.71661 0.22987 1.01133 0.0
C978 C 0.69969 0.24472 0.02132 0.0
C979 C 0.66764 0.22552 0.03004 0.0
C980 C 0.75268 0.24991 1.00766 0.0
C981 C 0.76571 0.27915 0.99365 0.0
C982 C 0.77438 0.24174 0.01986 0.0
C983 C 0.76257 0.21353 0.03739 0.0
C984 C 0.74415 0.21157 0.05892 0.0
C985 C 0.73281 0.18477 0.0753 0.0
C986 C 0.74015 0.16 0.07052 0.0
C987 C 0.75893 0.16206 0.04939 0.0
C988 C 0.77021 0.18877 0.03289 0.0
C989 C 0.89955 0.36935 0.02152 0.0
C990 C 0.92358 0.36196 0.01396 0.0
C991 C 0.86647 0.34676 0.01835 0.0
C992 C 0.8566 0.31629 1.00708 0.0
C993 C 0.88048 0.30861 0.99945 0.0
C994 C 0.91387 0.3315 1.00255 0.0
C995 C 0.82119 0.29231 1.00434 0.0
C996 C 0.80829 0.26254 0.01743 0.0
C997 C 0.79969 0.30059 0.99201 0.0
C998 C 0.81223 0.33204 0.97814 0.0
C999 C 0.83612 0.34097 0.95914 0.0
C1000 C 0.84912 0.37141 0.94712 0.0
C1001 C 0.83835 0.3931 0.95386 0.0
C1002 C 0.81443 0.38433 0.97256 0.0
C1003 C 0.80133 0.35391 0.98463 0.0
H1004 H 0.84854 0.41671 0.94459 0.0
H1005 H 0.73136 0.13925 0.08323 0.0
H1006 H 0.86405 0.51985 0.05158 0.0
H1007 H 0.83339 0.54873 0.04532 0.0
H1008 H 0.76558 0.47079 0.99644 0.0
H1009 H 0.79551 0.44132 1.00336 0.0
H1010 H 0.78757 0.54294 0.98142 0.0
H1011 H 0.73762 0.45921 0.04687 0.0
H1012 H 0.74069 0.43154 0.08553 0.0
H1013 H 0.77896 0.52193 0.12694 0.0
H1014 H 0.77669 0.55024 0.08831 0.0
H1015 H 0.62637 0.53034 0.02186 0.0
H1016 H 0.66778 0.51382 0.02316 0.0
H1017 H 0.74326 0.61436 1.01086 0.0
H1018 H 0.70138 0.63106 1.01065 0.0
H1019 H 0.72106 0.53486 0.05686 0.0
H1020 H 0.79802 0.60833 0.97195 0.0
H1021 H 0.78989 0.63258 0.93308 0.0
H1022 H 0.68939 0.55492 0.92993 0.0
H1023 H 0.69724 0.5302 0.96807 0.0
C1024 C 0.84304 0.50931 0.03905 0.0
C1025 C 0.83203 0.47841 0.02793 0.0
C1026 C 0.82561 0.5258 0.03549 0.0
C1027 C 0.79737 0.51192 0.02034 0.0
C1028 C 0.78751 0.48201 1.00799 0.0
C1029 C 0.80448 0.46516 0.01203 0.0
C1030 C 0.77579 0.52631 0.02002 0.0
C1031 C 0.77339 0.54159 0.99801 0.0
C1032 C 0.75675 0.52395 0.04143 0.0
C1033 C 0.75741 0.50688 0.06471 0.0
C1034 C 0.74696 0.47322 0.06418 0.0
C1035 C 0.74851 0.45742 0.08607 0.0
C1036 C 0.76012 0.47499 0.10866 0.0
C1037 C 0.77006 0.50837 0.10942 0.0
C1038 C 0.76865 0.5243 0.08754 0.0
C1039 C 0.65189 0.54897 0.0202 0.0
C1040 C 0.66084 0.58202 0.01733 0.0
C1041 C 0.67547 0.53953 0.0207 0.0
C1042 C 0.70864 0.56293 0.01772 0.0
C1043 C 0.71775 0.59597 0.01355 0.0
C1044 C 0.69391 0.60548 0.0133 0.0
C1045 C 0.73318 0.55205 0.01842 0.0
C1046 C 0.73592 0.53708 0.04049 0.0
C1047 C 0.75204 0.55419 0.99695 0.0
C1048 C 0.74815 0.56767 0.97287 0.0
C1049 C 0.77436 0.59636 0.96267 0.0
C1050 C 0.76978 0.61023 0.94077 0.0
C1051 C 0.73912 0.59549 0.92899 0.0
C1052 C 0.71315 0.56659 0.9389 0.0
C1053 C 0.71766 0.55256 0.96061 0.0
H1054 H 0.73553 0.60649 0.91222 0.0
H1055 H 0.76133 0.46273 0.1256 0.0
H1056 H 0.88442 0.84064 0.32527 0.0
H1057 H 0.94387 0.87347 0.33094 0.0
H1058 H 0.94358 0.79102 0.36662 0.0
H1059 H 0.88422 0.75855 0.36194 0.0
H1060 H 0.98715 0.84954 0.3893 0.0
H1061 H 0.95825 0.80539 0.30267 0.0
H1062 H 0.92964 0.80009 0.26232 0.0
H1063 H 0.9828 0.90489 0.25343 0.0
H1064 H 0.01143 0.91074 0.2939 0.0
H1065 H 0.13513 0.85732 0.37422 0.0
H1066 H 0.07912 0.84454 0.37335 0.0
H1067 H 0.10521 0.92581 0.32255 0.0
H1068 H 0.16155 0.93588 0.32064 0.0
H1069 H 0.05019 0.8808 0.30894 0.0
H1070 H 0.08786 0.92534 0.39078 0.0
H1071 H 0.11563 0.93255 0.43181 0.0
H1072 H 0.04643 0.83283 0.45174 0.0
H1073 H 0.01858 0.82483 0.41068 0.0
C1074 C 0.89691 0.82972 0.33483 0.0
C1075 C 0.87961 0.79674 0.34278 0.0
C1076 C 0.93092 0.84848 0.33791 0.0
C1077 C 0.94821 0.83451 0.34882 0.0
C1078 C 0.93077 0.80226 0.35804 0.0
C1079 C 0.89686 0.78359 0.35506 0.0
C1080 C 0.98457 0.85203 0.3488 0.0
C1081 C 1.00106 0.85646 0.37179 0.0
C1082 C 1.00281 0.8622 0.32605 0.0
C1083 C 0.98679 0.8585 0.30126 0.0
C1084 C 0.96381 0.82726 0.29206 0.0
C1085 C 0.94757 0.82417 0.26922 0.0
C1086 C 0.95437 0.85214 0.25533 0.0
C1087 C 0.97756 0.88325 0.2642 0.0
C1088 C 0.99383 0.88647 0.28706 0.0
C1089 C 0.12912 0.87201 0.36223 0.0
C1090 C 0.15289 0.897 0.34691 0.0
C1091 C 0.0969 0.86525 0.36235 0.0
C1092 C 0.08777 0.88484 0.34861 0.0
C1093 C 0.11153 0.91036 0.3335 0.0
C1094 C 0.14377 0.91619 0.33246 0.0
C1095 C 0.05311 0.87745 0.34952 0.0
C1096 C 0.03677 0.87483 0.32666 0.0
C1097 C 0.03511 0.86952 0.37254 0.0
C1098 C 0.05117 0.87451 0.39761 0.0
C1099 C 0.0786 0.90494 0.4039 0.0
C1100 C 0.09438 0.90914 0.42715 0.0
C1101 C 0.0828 0.88316 0.44437 0.0
C1102 C 0.05535 0.85295 0.43841 0.0
C1103 C 0.03951 0.84858 0.41517 0.0
H1104 H 0.0951 0.88645 0.46234 0.0
H1105 H 0.94169 0.84971 0.23769 0.0
H1106 H 0.07184 0.23736 0.35294 0.0
H1107 H 0.08319 0.19176 0.35258 0.0
H1108 H 0.1832 0.25958 0.33056 0.0
H1109 H 0.17 0.30287 0.32746 0.0
H1110 H 0.16932 0.20907 0.30941 0.0
H1111 H 0.1529 0.23076 0.39596 0.0
H1112 H 0.12154 0.23581 0.4313 0.0
H1113 H 0.04782 0.13434 0.42292 0.0
H1114 H 0.07853 0.12886 0.38726 0.0
H1115 H 0.26107 0.14781 0.36522 0.0
H1116 H 0.22898 0.17518 0.36853 0.0
H1117 H 0.14358 0.08803 0.34121 0.0
H1118 H 0.17578 0.06073 0.33674 0.0
H1119 H 0.1423 0.13946 0.38623 0.0
H1120 H 0.16816 0.1242 0.29689 0.0
H1121 H 0.20957 0.1251 0.26787 0.0
H1122 H 0.27729 0.22474 0.28918 0.0
H1123 H 0.23642 0.22413 0.31868 0.0
C1124 C 0.09592 0.24202 0.3475 0.0
C1125 C 0.12074 0.27386 0.3413 0.0
C1126 C 0.1026 0.21618 0.34766 0.0
C1127 C 0.13446 0.22226 0.34245 0.0
C1128 C 0.15851 0.25395 0.33499 0.0
C1129 C 0.15139 0.27914 0.33389 0.0
C1130 C 0.14363 0.19646 0.34521 0.0
C1131 C 0.16312 0.19391 0.32624 0.0
C1132 C 0.13585 0.17637 0.36711 0.0
C1133 C 0.11777 0.1795 0.3888 0.0
C1134 C 0.12992 0.20958 0.40161 0.0
C1135 C 0.11227 0.21252 0.42167 0.0
C1136 C 0.08266 0.18544 0.4293 0.0
C1137 C 0.07072 0.15531 0.41695 0.0
C1138 C 0.08822 0.15227 0.39681 0.0
C1139 C 0.23535 0.13424 0.36023 0.0
C1140 C 0.22121 0.10238 0.35012 0.0
C1141 C 0.21697 0.14976 0.36252 0.0
C1142 C 0.18404 0.13354 0.35509 0.0
C1143 C 0.16894 0.10072 0.34725 0.0
C1144 C 0.18744 0.08523 0.34466 0.0
C1145 C 0.16793 0.15297 0.3507 0.0
C1146 C 0.14751 0.15428 0.36928 0.0
C1147 C 0.17581 0.17295 0.32899 0.0
C1148 C 0.19934 0.17407 0.30994 0.0
C1149 C 0.19189 0.14627 0.29533 0.0
C1150 C 0.21527 0.14671 0.27886 0.0
C1151 C 0.24605 0.17496 0.27669 0.0
C1152 C 0.25344 0.20289 0.29087 0.0
C1153 C 0.23017 0.20252 0.30743 0.0
H1154 H 0.26417 0.1752 0.264 0.0
H1155 H 0.069 0.18777 0.44483 0.0
H1156 H 0.87217 0.13754 0.34705 0.0
H1157 H 0.84389 0.07926 0.35746 0.0
H1158 H 0.93391 0.07797 0.34734 0.0
H1159 H 0.96232 0.13656 0.33645 0.0
H1160 H 0.88645 0.03318 0.31829 0.0
H1161 H 0.89579 0.06022 0.4058 0.0
H1162 H 0.89285 0.08776 0.44459 0.0
H1163 H 0.7893 0.04634 0.43402 0.0
H1164 H 0.79166 0.01884 0.39502 0.0
H1165 H 0.76828 0.8631 0.3819 0.0
H1166 H 0.81279 0.92052 0.38357 0.0
H1167 H 0.77871 0.93948 0.31325 0.0
H1168 H 0.73594 0.88161 0.31068 0.0
H1169 H 0.80638 0.9737 0.38683 0.0
H1170 H 0.82279 0.98274 0.2845 0.0
H1171 H 0.82875 0.95497 0.2469 0.0
H1172 H 0.88745 0.92633 0.29006 0.0
H1173 H 0.88093 0.95319 0.32805 0.0
C1174 C 0.88607 0.12496 0.34757 0.0
C1175 C 0.91925 0.14137 0.34058 0.0
C1176 C 0.86997 0.09172 0.35376 0.0
C1177 C 0.88675 0.0742 0.35319 0.0
C1178 C 0.9205 0.09104 0.34789 0.0
C1179 C 0.93672 0.12449 0.34178 0.0
C1180 C 0.8679 0.03784 0.35445 0.0
C1181 C 0.86936 0.02025 0.33354 0.0
C1182 C 0.84545 0.02073 0.37421 0.0
C1183 C 0.84396 0.03764 0.39741 0.0
C1184 C 0.87244 0.05722 0.41163 0.0
C1185 C 0.87086 0.07276 0.43369 0.0
C1186 C 0.84092 0.06884 0.44175 0.0
C1187 C 0.81248 0.04936 0.42776 0.0
C1188 C 0.81391 0.03374 0.4057 0.0
C1189 C 0.77113 0.87948 0.36646 0.0
C1190 C 0.74946 0.86816 0.34589 0.0
C1191 C 0.79633 0.91219 0.36747 0.0
C1192 C 0.79969 0.93417 0.34819 0.0
C1193 C 0.77768 0.92274 0.32771 0.0
C1194 C 0.7531 0.88979 0.32633 0.0
C1195 C 0.82455 0.96948 0.35046 0.0
C1196 C 0.82401 0.98676 0.37193 0.0
C1197 C 0.848 0.9864 0.33137 0.0
C1198 C 0.85101 0.96943 0.309 0.0
C1199 C 0.83673 0.97026 0.28592 0.0
C1200 C 0.84013 0.95464 0.26461 0.0
C1201 C 0.85838 0.93879 0.26611 0.0
C1202 C 0.8731 0.93837 0.28898 0.0
C1203 C 0.86933 0.95354 0.31044 0.0
H1204 H 0.86122 0.92694 0.24954 0.0
H1205 H 0.83974 0.08086 0.45885 0.0
H1206 H 0.24067 0.70184 0.37331 0.0
H1207 H 0.22494 0.64571 0.36124 0.0
H1208 H 0.13985 0.63591 0.3227 0.0
H1209 H 0.15551 0.69206 0.33525 0.0
H1210 H 0.12231 0.58956 0.35633 0.0
H1211 H 0.20287 0.63159 0.29101 0.0
H1212 H 0.25705 0.66556 0.27136 0.0
H1213 H 0.29787 0.62251 0.32027 0.0
H1214 H 0.24405 0.58869 0.34056 0.0
H1215 H 0.07026 0.42245 0.32273 0.0
H1216 H 0.09157 0.48149 0.31663 0.0
H1217 H 0.16727 0.50353 0.37166 0.0
H1218 H 0.14531 0.44502 0.37875 0.0
H1219 H 0.18849 0.54251 0.32373 0.0
H1220 H 0.11307 0.51066 0.3939 0.0
H1221 H 0.05977 0.47454 0.41423 0.0
H1222 H 0.01116 0.49833 0.35639 0.0
H1223 H 0.06426 0.53426 0.33551 0.0
C1224 C 0.21948 0.68814 0.36125 0.0
C1225 C 0.19954 0.70122 0.35478 0.0
C1226 C 0.2104 0.65602 0.35441 0.0
C1227 C 0.18121 0.63651 0.34096 0.0
C1228 C 0.16251 0.6505 0.333 0.0
C1229 C 0.17158 0.68262 0.33991 0.0
C1230 C 0.16791 0.60055 0.33857 0.0
C1231 C 0.13657 0.57941 0.34852 0.0
C1232 C 0.18683 0.58709 0.32929 0.0
C1233 C 0.21942 0.6078 0.31746 0.0
C1234 C 0.22346 0.62962 0.29778 0.0
C1235 C 0.25411 0.64881 0.28649 0.0
C1236 C 0.28091 0.64626 0.29459 0.0
C1237 C 0.27711 0.6245 0.31403 0.0
C1238 C 0.24652 0.6053 0.32543 0.0
C1239 C 0.09142 0.43991 0.33352 0.0
C1240 C 0.10653 0.4291 0.35089 0.0
C1241 C 0.10369 0.47353 0.32988 0.0
C1242 C 0.13134 0.49671 0.34339 0.0
C1243 C 0.14636 0.48597 0.3607 0.0
C1244 C 0.13372 0.45252 0.36473 0.0
C1245 C 0.14317 0.5322 0.34118 0.0
C1246 C 0.17419 0.55301 0.33081 0.0
C1247 C 0.12425 0.54555 0.35023 0.0
C1248 C 0.09248 0.5248 0.36303 0.0
C1249 C 0.09097 0.508 0.38545 0.0
C1250 C 0.06083 0.4876 0.39707 0.0
C1251 C 0.03207 0.48406 0.38656 0.0
C1252 C 0.03345 0.50106 0.36447 0.0
C1253 C 0.06355 0.52146 0.35275 0.0
H1254 H 0.00874 0.4682 0.39556 0.0
H1255 H 0.3046 0.66108 0.28578 0.0
H1256 H 0.31792 0.5728 0.34028 0.0
H1257 H 0.37687 0.60094 0.3314 0.0
H1258 H 0.38239 0.52041 0.36481 0.0
H1259 H 0.32324 0.49186 0.37326 0.0
H1260 H 0.42276 0.58569 0.3876 0.0
H1261 H 0.39825 0.5316 0.30668 0.0
H1262 H 0.37315 0.51525 0.26437 0.0
H1263 H 0.41857 0.6165 0.24232 0.0
H1264 H 0.4434 0.6335 0.28467 0.0
H1265 H 0.59653 0.65832 0.37144 0.0
H1266 H 0.53729 0.61805 0.3703 0.0
H1267 H 0.52088 0.68599 0.3269 0.0
H1268 H 0.57898 0.72609 0.32889 0.0
H1269 H 0.48633 0.6234 0.30776 0.0
H1270 H 0.50238 0.67955 0.386 0.0
H1271 H 0.52442 0.70132 0.42852 0.0
H1272 H 0.49312 0.604 0.45511 0.0
H1273 H 0.47095 0.58154 0.41281 0.0
C1274 C 0.33159 0.56071 0.34501 0.0
C1275 C 0.31614 0.53025 0.35752 0.0
C1276 C 0.3652 0.57675 0.3399 0.0
C1277 C 0.38397 0.56277 0.3475 0.0
C1278 C 0.36827 0.53152 0.35872 0.0
C1279 C 0.33451 0.51518 0.36343 0.0
C1280 C 0.42027 0.58266 0.34693 0.0
C1281 C 0.43676 0.59326 0.37014 0.0
C1282 C 0.43827 0.59394 0.32413 0.0
C1283 C 0.42235 0.58381 0.29898 0.0
C1284 C 0.40246 0.5504 0.29296 0.0
C1285 C 0.38838 0.54101 0.26892 0.0
C1286 C 0.39416 0.56482 0.25069 0.0
C1287 C 0.41402 0.59808 0.25647 0.0
C1288 C 0.42809 0.6076 0.2805 0.0
C1289 C 0.58021 0.66418 0.36125 0.0
C1290 C 0.59244 0.69485 0.34955 0.0
C1291 C 0.54647 0.64141 0.36077 0.0
C1292 C 0.52472 0.64901 0.34838 0.0
C1293 C 0.53718 0.67944 0.33632 0.0
C1294 C 0.57055 0.70231 0.33733 0.0
C1295 C 0.48882 0.62589 0.34845 0.0
C1296 C 0.47237 0.61517 0.32521 0.0
C1297 C 0.47063 0.61531 0.37118 0.0
C1298 C 0.48557 0.62892 0.39615 0.0
C1299 C 0.5007 0.66285 0.40079 0.0
C1300 C 0.51306 0.67531 0.42485 0.0
C1301 C 0.51041 0.65413 0.44437 0.0
C1302 C 0.49532 0.6204 0.43992 0.0
C1303 C 0.48282 0.60777 0.41593 0.0
H1304 H 0.5199 0.66385 0.463 0.0
H1305 H 0.38335 0.55749 0.23205 0.0
H1306 H 0.29497 0.87459 0.33089 0.0
H1307 H 0.33495 0.85741 0.3265 0.0
H1308 H 0.4086 0.94904 0.35933 0.0
H1309 H 0.36856 0.96796 0.36083 0.0
H1310 H 0.43721 0.93187 0.32762 0.0
H1311 H 0.35962 0.86939 0.39384 0.0
H1312 H 0.30663 0.83148 0.41401 0.0
H1313 H 0.29056 0.75651 0.36022 0.0
H1314 H 0.3432 0.794 0.33958 0.0
H1315 H 0.53329 0.86355 0.37617 0.0
H1316 H 0.50264 0.89146 0.36601 0.0
H1317 H 0.43069 0.80505 0.32618 0.0
H1318 H 0.46072 0.77697 0.33715 0.0
H1319 H 0.40259 0.82072 0.3607 0.0
H1320 H 0.48139 0.88132 0.29632 0.0
H1321 H 0.53618 0.91726 0.27817 0.0
H1322 H 0.5508 0.99459 0.32904 0.0
H1323 H 0.49629 0.95893 0.34777 0.0
C1324 C 0.31979 0.89162 0.33639 0.0
C1325 C 0.3287 0.92285 0.34577 0.0
C1326 C 0.34269 0.88142 0.33441 0.0
C1327 C 0.37466 0.90125 0.34353 0.0
C1328 C 0.38402 0.93304 0.35234 0.0
C1329 C 0.36122 0.94387 0.35322 0.0
C1330 C 0.39769 0.88827 0.34447 0.0
C1331 C 0.42974 0.90772 0.33519 0.0
C1332 C 0.3879 0.85634 0.35367 0.0
C1333 C 0.35533 0.83454 0.36517 0.0
C1334 C 0.34463 0.84493 0.38618 0.0
C1335 C 0.31473 0.82347 0.39776 0.0
C1336 C 0.29548 0.7915 0.3886 0.0
C1337 C 0.30565 0.78115 0.36746 0.0
C1338 C 0.33549 0.80249 0.35582 0.0
C1339 C 0.51151 0.85106 0.36453 0.0
C1340 C 0.49924 0.81822 0.35737 0.0
C1341 C 0.49401 0.86699 0.35869 0.0
C1342 C 0.46425 0.85038 0.34533 0.0
C1343 C 0.45347 0.81837 0.33658 0.0
C1344 C 0.47067 0.80237 0.3427 0.0
C1345 C 0.44196 0.86411 0.34366 0.0
C1346 C 0.41004 0.84481 0.35298 0.0
C1347 C 0.45196 0.89605 0.3346 0.0
C1348 C 0.4849 0.91733 0.32362 0.0
C1349 C 0.49643 0.90587 0.30382 0.0
C1350 C 0.52741 0.92622 0.29339 0.0
C1351 C 0.54699 0.95816 0.30249 0.0
C1352 C 0.53563 0.96983 0.32203 0.0
C1353 C 0.50469 0.94956 0.33255 0.0
H1354 H 0.57095 0.9739 0.29435 0.0
H1355 H 0.27268 0.77473 0.3979 0.0
H1356 H 0.80482 0.19492 0.65257 0.0
H1357 H 0.74696 0.1757 0.65781 0.0
H1358 H 0.77126 0.26406 0.69958 0.0
H1359 H 0.82924 0.2792 0.69883 0.0
H1360 H 0.72205 0.22228 0.71957 0.0
H1361 H 0.74081 0.24269 0.62974 0.0
H1362 H 0.75936 0.23782 0.58709 0.0
H1363 H 0.69545 0.13328 0.58917 0.0
H1364 H 0.67678 0.13752 0.63187 0.0
H1365 H 0.5535 0.18231 0.67433 0.0
H1366 H 0.61247 0.21085 0.68371 0.0
H1367 H 0.60775 0.11768 0.69249 0.0
H1368 H 0.54907 0.08913 0.68389 0.0
H1369 H 0.64615 0.16804 0.64773 0.0
H1370 H 0.62735 0.15067 0.73854 0.0
H1371 H 0.60833 0.15842 0.78003 0.0
H1372 H 0.67201 0.26268 0.77397 0.0
H1373 H 0.69083 0.2556 0.73212 0.0
C1374 C 0.79758 0.20954 0.66349 0.0
C1375 C 0.82111 0.23775 0.67592 0.0
C1376 C 0.76443 0.19927 0.66574 0.0
C1377 C 0.75414 0.21885 0.67835 0.0
C1378 C 0.77815 0.24831 0.68971 0.0
C1379 C 0.81134 0.25734 0.68892 0.0
C1380 C 0.71847 0.20798 0.68027 0.0
C1381 C 0.70573 0.21107 0.7036 0.0
C1382 C 0.69651 0.19289 0.65972 0.0
C1383 C 0.70753 0.19045 0.63397 0.0
C1384 C 0.73081 0.21869 0.62109 0.0
C1385 C 0.74133 0.21603 0.59692 0.0
C1386 C 0.72861 0.18527 0.58544 0.0
C1387 C 0.70527 0.15709 0.59807 0.0
C1388 C 0.69466 0.15962 0.62221 0.0
C1389 C 0.5648 0.16797 0.67925 0.0
C1390 C 0.54683 0.13346 0.67786 0.0
C1391 C 0.59845 0.1843 0.68464 0.0
C1392 C 0.61431 0.16629 0.68882 0.0
C1393 C 0.59585 0.13196 0.68951 0.0
C1394 C 0.5624 0.11571 0.68433 0.0
C1395 C 0.6503 0.18217 0.6868 0.0
C1396 C 0.66289 0.17992 0.66342 0.0
C1397 C 0.67192 0.1985 0.70706 0.0
C1398 C 0.66005 0.20263 0.73198 0.0
C1399 C 0.63686 0.17528 0.74582 0.0
C1400 C 0.62622 0.17955 0.76947 0.0
C1401 C 0.63883 0.21103 0.77958 0.0
C1402 C 0.66215 0.23832 0.76608 0.0
C1403 C 0.67278 0.23419 0.74239 0.0
H1404 H 0.63064 0.21427 0.79793 0.0
H1405 H 0.73681 0.18327 0.56674 0.0
H1406 H 0.83254 0.38709 0.67453 0.0
H1407 H 0.80502 0.41735 0.68753 0.0
H1408 H 0.89677 0.50851 0.68137 0.0
H1409 H 0.92411 0.47836 0.66908 0.0
H1410 H 0.86126 0.51274 0.71849 0.0
H1411 H 0.84165 0.47375 0.63084 0.0
H1412 H 0.82083 0.42957 0.59889 0.0
H1413 H 0.72433 0.38702 0.63084 0.0
H1414 H 0.74476 0.43069 0.66322 0.0
H1415 H 0.82583 0.62696 0.65355 0.0
H1416 H 0.83828 0.58261 0.65833 0.0
H1417 H 0.75577 0.53187 0.70861 0.0
H1418 H 0.74503 0.57784 0.70542 0.0
H1419 H 0.77722 0.50034 0.65606 0.0
H1420 H 0.79532 0.54089 0.74212 0.0
H1421 H 0.81645 0.58166 0.77654 0.0
H1422 H 0.9147 0.61823 0.74998 0.0
H1423 H 0.89394 0.57871 0.71456 0.0
C1424 C 0.84693 0.41344 0.67702 0.0
C1425 C 0.88038 0.4305 0.6708 0.0
C1426 C 0.83117 0.43076 0.68413 0.0
C1427 C 0.84867 0.46531 0.68484 0.0
C1428 C 0.88266 0.48194 0.68087 0.0
C1429 C 0.89832 0.46471 0.67389 0.0
C1430 C 0.83175 0.48472 0.68682 0.0
C1431 C 0.84274 0.50985 0.70492 0.0
C1432 C 0.8071 0.48073 0.66946 0.0
C1433 C 0.79476 0.45519 0.64955 0.0
C1434 C 0.81602 0.45489 0.63107 0.0
C1435 C 0.80431 0.42994 0.61291 0.0
C1436 C 0.7713 0.40545 0.61288 0.0
C1437 C 0.7499 0.40596 0.63092 0.0
C1438 C 0.76153 0.43078 0.64918 0.0
C1439 C 0.81056 0.60644 0.66569 0.0
C1440 C 0.78479 0.60583 0.67931 0.0
C1441 C 0.81756 0.5811 0.66836 0.0
C1442 C 0.79832 0.55432 0.68422 0.0
C1443 C 0.77127 0.55267 0.69668 0.0
C1444 C 0.76491 0.57862 0.69462 0.0
C1445 C 0.80706 0.52843 0.68753 0.0
C1446 C 0.79501 0.50255 0.67009 0.0
C1447 C 0.83057 0.5316 0.70559 0.0
C1448 C 0.84298 0.55731 0.72538 0.0
C1449 C 0.82132 0.55831 0.74311 0.0
C1450 C 0.83325 0.58106 0.7629 0.0
C1451 C 0.86689 0.60247 0.76545 0.0
C1452 C 0.88863 0.60163 0.74794 0.0
C1453 C 0.87678 0.57924 0.72789 0.0
H1454 H 0.8761 0.61964 0.78108 0.0
H1455 H 0.76228 0.38612 0.59884 0.0
H1456 H 0.63106 0.4694 0.67307 0.0
H1457 H 0.6026 0.41139 0.68549 0.0
H1458 H 0.5098 0.40788 0.67905 0.0
H1459 H 0.53797 0.46583 0.66838 0.0
H1460 H 0.50633 0.37049 0.71612 0.0
H1461 H 0.54849 0.38653 0.62887 0.0
H1462 H 0.59436 0.40974 0.59843 0.0
H1463 H 0.63734 0.35987 0.63633 0.0
H1464 H 0.59191 0.33675 0.66718 0.0
H1465 H 0.39494 0.21913 0.65281 0.0
H1466 H 0.43959 0.27606 0.65705 0.0
H1467 H 0.488 0.24511 0.71021 0.0
H1468 H 0.44171 0.18828 0.70746 0.0
H1469 H 0.52211 0.29731 0.65748 0.0
H1470 H 0.47778 0.27659 0.74218 0.0
H1471 H 0.43528 0.25689 0.7752 0.0
H1472 H 0.40004 0.31816 0.74536 0.0
H1473 H 0.4412 0.33679 0.71119 0.0
C1474 C 0.60465 0.45645 0.67493 0.0
C1475 C 0.58674 0.47213 0.66909 0.0
C1476 C 0.58837 0.42315 0.68178 0.0
C1477 C 0.55391 0.40487 0.68251 0.0
C1478 C 0.53633 0.42118 0.6784 0.0
C1479 C 0.5525 0.45435 0.67195 0.0
C1480 C 0.53548 0.36847 0.68558 0.0
C1481 C 0.50994 0.35454 0.70335 0.0
C1482 C 0.54061 0.34736 0.66951 0.0
C1483 C 0.56705 0.36019 0.65039 0.0
C1484 C 0.56776 0.38056 0.63067 0.0
C1485 C 0.59368 0.39373 0.6134 0.0
C1486 C 0.61879 0.38634 0.61548 0.0
C1487 C 0.61791 0.36561 0.63476 0.0
C1488 C 0.59209 0.35247 0.65214 0.0
C1489 C 0.41506 0.22454 0.6654 0.0
C1490 C 0.41488 0.19959 0.67995 0.0
C1491 C 0.44057 0.25697 0.66778 0.0
C1492 C 0.46679 0.26483 0.68428 0.0
C1493 C 0.46769 0.23958 0.6977 0.0
C1494 C 0.44153 0.2072 0.69592 0.0
C1495 C 0.49257 0.29968 0.6875 0.0
C1496 C 0.51913 0.31326 0.67069 0.0
C1497 C 0.48855 0.32048 0.70458 0.0
C1498 C 0.46211 0.30747 0.72377 0.0
C1499 C 0.46029 0.28502 0.74212 0.0
C1500 C 0.43653 0.27417 0.76112 0.0
C1501 C 0.41491 0.28619 0.76232 0.0
C1502 C 0.41669 0.30872 0.74429 0.0
C1503 C 0.44006 0.31924 0.72499 0.0
H1504 H 0.39693 0.2782 0.77734 0.0
H1505 H 0.63889 0.39664 0.60213 0.0
H1506 H 0.73281 0.75673 0.657 0.0
H1507 H 0.75213 0.81578 0.65469 0.0
H1508 H 0.83615 0.83561 0.70027 0.0
H1509 H 0.81456 0.77754 0.70529 0.0
H1510 H 0.82077 0.87206 0.71657 0.0
H1511 H 0.83692 0.85375 0.63014 0.0
H1512 H 0.82338 0.82895 0.58753 0.0
H1513 H 0.74908 0.85545 0.57974 0.0
H1514 H 0.76244 0.88068 0.62225 0.0
H1515 H 0.92593 0.0376 0.69124 0.0
H1516 H 0.89952 0.97958 0.67989 0.0
H1517 H 0.80555 0.97385 0.67897 0.0
H1518 H 0.83194 0.03223 0.6907 0.0
H1519 H 0.82192 0.93195 0.63902 0.0
H1520 H 0.81974 0.95647 0.73055 0.0
H1521 H 0.85034 0.98856 0.76801 0.0
H1522 H 0.91737 0.95258 0.76049 0.0
H1523 H 0.88748 0.92076 0.72273 0.0
C1524 C 0.75526 0.77387 0.66662 0.0
C1525 C 0.77245 0.76237 0.68107 0.0
C1526 C 0.76664 0.80775 0.665 0.0
C1527 C 0.79604 0.83078 0.67705 0.0
C1528 C 0.81329 0.81891 0.69095 0.0
C1529 C 0.80119 0.78538 0.69347 0.0
C1530 C 0.8084 0.86701 0.67673 0.0
C1531 C 0.82109 0.88476 0.69936 0.0
C1532 C 0.80905 0.88448 0.65462 0.0
C1533 C 0.80039 0.86872 0.62941 0.0
C1534 C 0.81755 0.85408 0.61938 0.0
C1535 C 0.81004 0.84012 0.59521 0.0
C1536 C 0.78532 0.84054 0.58096 0.0
C1537 C 0.76819 0.85511 0.5908 0.0
C1538 C 0.77581 0.86936 0.61488 0.0
C1539 C 0.89973 0.02424 0.68799 0.0
C1540 C 0.88094 0.03934 0.69226 0.0
C1541 C 0.88471 0.99113 0.68135 0.0
C1542 C 0.85059 0.97238 0.67877 0.0
C1543 C 0.83196 0.98798 0.68074 0.0
C1544 C 0.84705 0.02131 0.68745 0.0
C1545 C 0.83446 0.93601 0.67848 0.0
C1546 C 0.82108 0.91857 0.65598 0.0
C1547 C 0.83488 0.91888 0.70027 0.0
C1548 C 0.85147 0.93639 0.72384 0.0
C1549 C 0.84102 0.95546 0.73691 0.0
C1550 C 0.85827 0.97363 0.75815 0.0
C1551 C 0.8858 0.97264 0.76661 0.0
C1552 C 0.89604 0.95332 0.75393 0.0
C1553 C 0.87893 0.93519 0.73264 0.0
H1554 H 0.89919 0.98682 0.78301 0.0
H1555 H 0.77944 0.82957 0.56229 0.0
H1556 H 0.98673 0.91615 0.68873 0.0
H1557 H 0.0446 0.946 0.67797 0.0
H1558 H 0.04648 0.85541 0.67839 0.0
H1559 H 0.9885 0.82546 0.69065 0.0
H1560 H 0.09481 0.89847 0.70541 0.0
H1561 H 0.05692 0.90306 0.62203 0.0
H1562 H 0.02495 0.91326 0.59011 0.0
H1563 H 0.07219 0.01465 0.61212 0.0
H1564 H 0.10414 1.00498 0.64438 0.0
H1565 H 0.2642 1.00354 0.64848 0.0
H1566 H 0.20491 0.96458 0.64465 0.0
H1567 H 0.18609 0.01472 0.70469 0.0
H1568 H 0.24463 0.05226 0.70954 0.0
H1569 H 0.14808 0.98693 0.64128 0.0
H1570 H 0.16003 0.96815 0.73651 0.0
H1571 H 0.19385 0.96066 0.76852 0.0
H1572 H 0.19711 0.88796 0.72149 0.0
H1573 H 0.16378 0.89559 0.68904 0.0
C1574 C 0.99932 0.90244 0.68631 0.0
C1575 C 0.98301 0.86843 0.69098 0.0
C1576 C 0.03247 0.91957 0.6798 0.0
C1577 C 0.05015 0.90309 0.67713 0.0
C1578 C 0.03347 0.86877 0.68033 0.0
C1579 C 1.00021 0.85159 0.68711 0.0
C1580 C 0.08648 0.92215 0.67359 0.0
C1581 C 0.10619 0.91725 0.69096 0.0
C1582 C 0.1019 0.9473 0.65512 0.0
C1583 C 0.08283 0.95324 0.63567 0.0
C1584 C 0.06035 0.92749 0.62015 0.0
C1585 C 0.04226 0.93319 0.60198 0.0
C1586 C 0.04652 0.96458 0.5991 0.0
C1587 C 0.06893 0.99035 0.61435 0.0
C1588 C 0.08709 0.98479 0.63255 0.0
C1589 C 0.24739 0.00613 0.66092 0.0
C1590 C 0.25919 0.03135 0.67914 0.0
C1591 C 0.2136 0.98403 0.65858 0.0
C1592 C 0.19123 0.9869 0.67436 0.0
C1593 C 0.20296 0.01209 0.69236 0.0
C1594 C 0.23651 0.03373 0.69496 0.0
C1595 C 0.15558 0.96305 0.67309 0.0
C1596 C 0.13627 0.96739 0.65512 0.0
C1597 C 0.14034 0.93756 0.69099 0.0
C1598 C 0.15968 0.93248 0.71048 0.0
C1599 C 0.16808 0.95064 0.73305 0.0
C1600 C 0.18718 0.94644 0.75121 0.0
C1601 C 0.19765 0.92386 0.74703 0.0
C1602 C 0.18905 0.90547 0.72467 0.0
C1603 C 0.17013 0.90978 0.70638 0.0
H1604 H 0.21239 0.92058 0.76113 0.0
H1605 H 0.03248 0.96893 0.58502 0.0
H1606 H 0.11017 0.09475 0.67566 0.0
H1607 H 0.08167 0.12465 0.66582 0.0
H1608 H 0.16682 0.2152 0.68878 0.0
H1609 H 0.19546 0.18516 0.69882 0.0
H1610 H 0.11088 0.20384 0.7135 0.0
H1611 H 0.14176 0.20233 0.62683 0.0
H1612 H 0.14649 0.17765 0.58703 0.0
H1613 H 0.04182 0.1169 0.58341 0.0
H1614 H 0.03649 0.14086 0.62337 0.0
H1615 H 0.03443 0.29828 0.6853 0.0
H1616 H 0.0742 0.2791 0.68183 0.0
H1617 H 0.99541 0.18138 0.66516 0.0
H1618 H 0.95616 0.20036 0.66908 0.0
H1619 H 0.05173 0.20069 0.63498 0.0
H1620 H 0.01862 0.19126 0.72057 0.0
H1621 H 0.00749 0.20896 0.76143 0.0
H1622 H 0.10928 0.28185 0.76862 0.0
H1623 H 0.12089 0.2649 0.72747 0.0
C1624 C 0.12307 0.12115 0.67809 0.0
C1625 C 0.15498 0.13759 0.68815 0.0
C1626 C 0.10681 0.13826 0.67233 0.0
C1627 C 0.12206 0.17224 0.67651 0.0
C1628 C 0.15456 0.189 0.68536 0.0
C1629 C 0.17099 0.17188 0.69093 0.0
C1630 C 0.10284 0.18934 0.67426 0.0
C1631 C 0.09881 0.20402 0.69606 0.0
C1632 C 0.08557 0.1881 0.65195 0.0
C1633 C 0.08878 0.17321 0.6282 0.0
C1634 C 0.11978 0.18346 0.61768 0.0
C1635 C 0.12256 0.16965 0.59506 0.0
C1636 C 0.09448 0.14568 0.58272 0.0
C1637 C 0.06355 0.13545 0.59299 0.0
C1638 C 0.06065 0.14916 0.61561 0.0
C1639 C 0.02584 0.27287 0.68058 0.0
C1640 C 0.99223 0.25062 0.67774 0.0
C1641 C 0.04844 0.26191 0.67865 0.0
C1642 C 0.03769 0.22874 0.67338 0.0
C1643 C 1.00428 0.20704 0.66922 0.0
C1644 C 0.98179 0.21783 0.67168 0.0
C1645 C 0.06071 0.21592 0.67393 0.0
C1646 C 0.06483 0.2015 0.65208 0.0
C1647 C 0.07738 0.21654 0.69632 0.0
C1648 C 0.07053 0.22724 0.72078 0.0
C1649 C 0.03855 0.21138 0.73069 0.0
C1650 C 0.03217 0.22119 0.75394 0.0
C1651 C 0.05764 0.24662 0.76757 0.0
C1652 C 0.08956 0.26224 0.75798 0.0
C1653 C 0.09606 0.25257 0.7347 0.0
H1654 H 0.05268 0.25414 0.78561 0.0
H1655 H 0.09669 0.13507 0.56518 0.0
H1656 H 0.1085 0.33767 0.25821 0.0
H1657 H 0.09532 0.35466 0.21811 0.0
H1658 H 0.10673 0.44196 0.25408 0.0
H1659 H 0.12082 0.4254 0.29401 0.0
H1660 H 0.04815 0.40774 0.22685 0.0
H1661 H 0.16238 0.44931 0.21336 0.0
H1662 H 0.21346 0.44726 0.21126 0.0
H1663 H 0.17169 0.37312 0.1536 0.0
H1664 H 0.12011 0.3743 0.15568 0.0
H1665 H 0.01945 0.46517 0.10868 0.0
H1666 H 0.04044 0.46066 0.14993 0.0
H1667 H 0.06087 0.38785 0.1193 0.0
H1668 H 0.04359 0.39497 0.07806 0.0
H1669 H 0.10722 0.42171 0.14608 0.0
H1670 H 0.99054 0.37479 0.1629 0.0
H1671 H 0.93895 0.37597 0.16535 0.0
H1672 H 0.98386 0.45771 0.21659 0.0
H1673 H 0.0358 0.45725 0.2142 0.0
C1674 C 0.10883 0.3608 0.2574 0.0
C1675 C 0.11538 0.38007 0.2793 0.0
C1676 C 0.10121 0.37045 0.23451 0.0
C1677 C 0.09987 0.39954 0.23307 0.0
C1678 C 0.10742 0.41934 0.25475 0.0
C1679 C 0.11561 0.40994 0.27753 0.0
C1680 C 0.0896 0.40862 0.20913 0.0
C1681 C 0.06124 0.41118 0.20919 0.0
C1682 C 0.10635 0.41264 0.18603 0.0
C1683 C 0.13727 0.41171 0.18484 0.0
C1684 C 0.16396 0.43234 0.20041 0.0
C1685 C 0.19303 0.43137 0.19919 0.0
C1686 C 0.1958 0.41003 0.18234 0.0
C1687 C 0.1695 0.38961 0.16667 0.0
C1688 C 0.14034 0.39043 0.16785 0.0
C1689 C 0.02812 0.44802 0.11081 0.0
C1690 C 0.02896 0.42997 0.0899 0.0
C1691 C 0.04003 0.44525 0.13458 0.0
C1692 C 0.05181 0.42332 0.13825 0.0
C1693 C 0.05211 0.40503 0.11737 0.0
C1694 C 0.04152 0.40875 0.0936 0.0
C1695 C 0.06468 0.4195 0.1633 0.0
C1696 C 0.09383 0.41816 0.16358 0.0
C1697 C 0.04836 0.41615 0.18664 0.0
C1698 C 0.01708 0.41617 0.18818 0.0
C1699 C 0.98942 0.39309 0.17459 0.0
C1700 C 0.96013 0.39364 0.17597 0.0
C1701 C 0.95815 0.41694 0.19107 0.0
C1702 C 0.98543 0.4397 0.20488 0.0
C1703 C 0.01478 0.4393 0.20353 0.0
H1704 H 0.93546 0.41732 0.19211 0.0
H1705 H 0.21835 0.40936 0.1814 0.0
H1706 H 0.67871 0.79506 0.25461 0.0
H1707 H 0.6622 0.76386 0.21468 0.0
H1708 H 0.59081 0.67812 0.25508 0.0
H1709 H 0.60676 0.70927 0.29466 0.0
H1710 H 0.66111 0.69778 0.20814 0.0
H1711 H 0.54111 0.66077 0.23079 0.0
H1712 H 0.5014 0.67671 0.24544 0.0
H1713 H 0.53909 0.75518 0.19113 0.0
H1714 H 0.57945 0.73998 0.1766 0.0
H1715 H 0.59539 0.58234 0.10623 0.0
H1716 H 0.60342 0.6074 0.14835 0.0
H1717 H 0.58715 0.68258 0.11714 0.0
H1718 H 0.57813 0.65737 0.07564 0.0
H1719 H 0.55906 0.66675 0.16072 0.0
H1720 H 0.6661 0.69373 0.13003 0.0
H1721 H 0.70857 0.68224 0.11436 0.0
H1722 H 0.7002 0.62845 0.18221 0.0
H1723 H 0.65755 0.6394 0.19825 0.0
C1724 C 0.65893 0.76978 0.2548 0.0
C1725 C 0.6435 0.75486 0.27773 0.0
C1726 C 0.64961 0.75193 0.23203 0.0
C1727 C 0.62476 0.71877 0.23173 0.0
C1728 C 0.60927 0.70389 0.25461 0.0
C1729 C 0.61833 0.72182 0.2773 0.0
C1730 C 0.6164 0.6993 0.20779 0.0
C1731 C 0.63862 0.69062 0.19797 0.0
C1732 C 0.58739 0.69034 0.19413 0.0
C1733 C 0.56355 0.69966 0.20299 0.0
C1734 C 0.54117 0.68168 0.22226 0.0
C1735 C 0.51852 0.69053 0.23049 0.0
C1736 C 0.51784 0.71706 0.21931 0.0
C1737 C 0.53977 0.73476 0.19987 0.0
C1738 C 0.56258 0.7261 0.19168 0.0
C1739 C 0.59317 0.60398 0.10841 0.0
C1740 C 0.58635 0.61784 0.08733 0.0
C1741 C 0.59802 0.6185 0.13251 0.0
C1742 C 0.59643 0.64734 0.13604 0.0
C1743 C 0.58859 0.66046 0.11514 0.0
C1744 C 0.58358 0.64596 0.09123 0.0
C1745 C 0.60364 0.66457 0.16112 0.0
C1746 C 0.58138 0.67329 0.17105 0.0
C1747 C 0.63278 0.67361 0.17487 0.0
C1748 C 0.65835 0.66701 0.16518 0.0
C1749 C 0.67314 0.67923 0.14151 0.0
C1750 C 0.69725 0.67285 0.13257 0.0
C1751 C 0.70692 0.65448 0.14719 0.0
C1752 C 0.69261 0.64258 0.17086 0.0
C1753 C 0.6685 0.64889 0.1799 0.0
H1754 H 0.72558 0.64957 0.14022 0.0
H1755 H 0.50022 0.72382 0.22564 0.0
H1756 H 0.39855 0.93726 0.08219 0.0
H1757 H 0.37292 0.91868 0.12372 0.0
H1758 H 0.38822 0.01546 0.13886 0.0
H1759 H 0.4163 0.0346 0.09808 0.0
H1760 H 0.39636 0.9938 0.17985 0.0
H1761 H 0.30974 0.94046 0.11598 0.0
H1762 H 0.28523 0.90489 0.07856 0.0
H1763 H 0.28427 0.82465 0.11788 0.0
H1764 H 0.30913 0.85985 0.15535 0.0
H1765 H 0.2438 0.93358 0.2564 0.0
H1766 H 0.2764 0.94725 0.21751 0.0
H1767 H 0.32557 0.89797 0.24635 0.0
H1768 H 0.29582 0.88756 0.28631 0.0
H1769 H 0.28703 0.89326 0.18514 0.0
H1770 H 0.37662 0.94566 0.24697 0.0
H1771 H 0.4066 0.98123 0.28303 0.0
H1772 H 0.40874 0.06318 0.24572 0.0
H1773 H 0.37607 0.02728 0.21044 0.0
C1774 C 0.39685 0.95464 0.09462 0.0
C1775 C 0.40942 0.98737 0.08696 0.0
C1776 C 0.38173 0.94389 0.11826 0.0
C1777 C 0.37735 0.96521 0.13434 0.0
C1778 C 0.39093 0.99828 0.12693 0.0
C1779 C 0.4071 0.00932 0.10362 0.0
C1780 C 0.35864 0.95334 0.15874 0.0
C1781 C 0.37232 0.97193 0.1808 0.0
C1782 C 0.3276 0.92417 0.16056 0.0
C1783 C 0.31143 0.90281 0.13838 0.0
C1784 C 0.30427 0.91522 0.11661 0.0
C1785 C 0.29037 0.89515 0.09539 0.0
C1786 C 0.28323 0.86255 0.09583 0.0
C1787 C 0.2898 0.8499 0.11755 0.0
C1788 C 0.30375 0.86987 0.13878 0.0
C1789 C 0.26248 0.92683 0.25492 0.0
C1790 C 0.26856 0.91137 0.27528 0.0
C1791 C 0.28076 0.9342 0.23248 0.0
C1792 C 0.30464 0.92508 0.22946 0.0
C1793 C 0.30854 0.9068 0.24872 0.0
C1794 C 0.29109 0.90046 0.27151 0.0
C1795 C 0.3247 0.93407 0.20587 0.0
C1796 C 0.31109 0.91507 0.18401 0.0
C1797 C 0.35602 0.9626 0.20425 0.0
C1798 C 0.37268 0.9834 0.22655 0.0
C1799 C 0.38201 0.97082 0.247 0.0
C1800 C 0.39967 0.99112 0.26726 0.0
C1801 C 0.40919 0.02437 0.26683 0.0
C1802 C 0.40089 0.03731 0.24621 0.0
C1803 C 0.38238 0.01689 0.22627 0.0
H1804 H 0.42334 0.04017 0.28233 0.0
H1805 H 0.27259 0.8471 0.07935 0.0
H1806 H 0.45766 0.0152 0.92005 0.0
H1807 H 0.4428 0.03115 0.8802 0.0
H1808 H 0.41546 0.09263 0.92172 0.0
H1809 H 0.42613 0.0732 0.96111 0.0
H1810 H 0.37344 0.06523 0.88888 0.0
H1811 H 0.49178 0.12109 0.88219 0.0
H1812 H 0.54565 0.12449 0.88141 0.0
H1813 H 0.51455 0.05733 0.81877 0.0
H1814 H 0.46039 0.05324 0.81937 0.0
H1815 H 0.34676 0.13304 0.77539 0.0
H1816 H 0.36605 0.12597 0.81676 0.0
H1817 H 0.40552 0.07072 0.78115 0.0
H1818 H 0.39084 0.08175 0.74038 0.0
H1819 H 0.44424 0.10012 0.81279 0.0
H1820 H 0.32418 0.03969 0.82175 0.0
H1821 H 0.27001 0.03569 0.82259 0.0
H1822 H 0.30359 0.10961 0.88052 0.0
H1823 H 0.35798 0.1142 0.87984 0.0
C1824 C 0.44911 0.03264 0.92051 0.0
C1825 C 0.44544 0.04489 0.94378 0.0
C1826 C 0.44076 0.04197 0.89768 0.0
C1827 C 0.4291 0.06428 0.89754 0.0
C1828 C 0.42514 0.07612 0.92093 0.0
C1829 C 0.43256 0.06604 0.94367 0.0
C1830 C 0.41941 0.0741 0.87339 0.0
C1831 C 0.38915 0.07312 0.87232 0.0
C1832 C 0.43932 0.08399 0.85141 0.0
C1833 C 0.47199 0.08673 0.85094 0.0
C1834 C 0.49641 0.10696 0.86833 0.0
C1835 C 0.52698 0.109 0.86791 0.0
C1836 C 0.5335 0.09111 0.85008 0.0
C1837 C 0.50948 0.07117 0.83258 0.0
C1838 C 0.47886 0.06901 0.83293 0.0
C1839 C 0.35963 0.11951 0.77648 0.0
C1840 C 0.3665 0.10752 0.75432 0.0
C1841 C 0.3704 0.11502 0.80031 0.0
C1842 C 0.38669 0.09684 0.80271 0.0
C1843 C 0.39329 0.08494 0.78044 0.0
C1844 C 0.38424 0.09092 0.7568 0.0
C1845 C 0.39758 0.09015 0.82782 0.0
C1846 C 0.42829 0.09198 0.82921 0.0
C1847 C 0.37792 0.08069 0.85 0.0
C1848 C 0.34512 0.07746 0.85059 0.0
C1849 C 0.31997 0.0551 0.83461 0.0
C1850 C 0.28926 0.05276 0.83506 0.0
C1851 C 0.28339 0.07243 0.85156 0.0
C1852 C 0.30817 0.09441 0.86773 0.0
C1853 C 0.33891 0.09687 0.86734 0.0
H1854 H 0.25961 0.07062 0.85185 0.0
H1855 H 0.55719 0.09273 0.84979 0.0
H1856 H 0.92792 0.39026 0.95605 0.0
H1857 H 0.90878 0.36169 0.91547 0.0
H1858 H 0.00699 0.41783 0.88564 0.0
H1859 H 0.02463 0.44929 0.92472 0.0
H1860 H 0.97345 0.40949 0.84978 0.0
H1861 H 0.95925 0.32774 0.91363 0.0
H1862 H 0.9351 0.2938 0.9519 0.0
H1863 H 0.83876 0.25568 0.92087 0.0
H1864 H 0.86216 0.29004 0.88284 0.0
H1865 H 0.95563 0.27404 0.76566 0.0
H1866 H 0.96501 0.30275 0.80648 0.0
H1867 H 0.88275 0.31625 0.79216 0.0
H1868 H 0.87433 0.28916 0.75093 0.0
H1869 H 0.90438 0.28822 0.84868 0.0
H1870 H 0.91886 0.37483 0.7876 0.0
H1871 H 0.94268 0.40701 0.74869 0.0
H1872 H 0.03931 0.43554 0.77534 0.0
H1873 H 0.01583 0.4023 0.81397 0.0
C1874 C 0.94523 0.39688 0.94062 0.0
C1875 C 0.97823 0.42127 0.94401 0.0
C1876 C 0.93441 0.37997 0.91744 0.0
C1877 C 0.95657 0.38611 0.89738 0.0
C1878 C 0.98911 0.41181 0.90054 0.0
C1879 C 0.99949 0.42955 0.92323 0.0
C1880 C 0.94656 0.36637 0.87312 0.0
C1881 C 0.95857 0.38294 0.84991 0.0
C1882 C 0.92631 0.33157 0.87239 0.0
C1883 C 0.91247 0.31151 0.89549 0.0
C1884 C 0.93295 0.31225 0.91508 0.0
C1885 C 0.91941 0.29295 0.93669 0.0
C1886 C 0.88553 0.27236 0.93864 0.0
C1887 C 0.86501 0.2715 0.91926 0.0
C1888 C 0.87838 0.29093 0.89772 0.0
C1889 C 0.93921 0.28262 0.77145 0.0
C1890 C 0.91416 0.27924 0.75512 0.0
C1891 C 0.94478 0.29931 0.79466 0.0
C1892 C 0.92502 0.31231 0.80216 0.0
C1893 C 0.89879 0.30715 0.78655 0.0
C1894 C 0.89378 0.29133 0.76311 0.0
C1895 C 0.9319 0.3315 0.82615 0.0
C1896 C 0.91933 0.31478 0.84902 0.0
C1897 C 0.95152 0.36608 0.82667 0.0
C1898 C 0.96554 0.38537 0.80327 0.0
C1899 C 0.94511 0.38728 0.78486 0.0
C1900 C 0.95856 0.40585 0.76293 0.0
C1901 C 0.99249 0.4232 0.75948 0.0
C1902 C 0.01303 0.42206 0.77801 0.0
C1903 C 0.99965 0.40317 0.79984 0.0
H1904 H 1.00286 0.43757 0.74249 0.0
H1905 H 0.87515 0.25691 0.95512 0.0
H1906 H 0.70139 0.60555 0.74141 0.0
H1907 H 0.67408 0.58923 0.78224 0.0
H1908 H 0.74709 0.68111 0.81457 0.0
H1909 H 0.77445 0.69846 0.77317 0.0
H1910 H 0.70234 0.58598 0.83151 0.0
H1911 H 0.71337 0.70276 0.83151 0.0
H1912 H 0.7065 0.74238 0.80539 0.0
H1913 H 0.61274 0.6651 0.78003 0.0
H1914 H 0.61952 0.62502 0.80559 0.0
H1915 H 0.64585 0.57876 0.95886 0.0
H1916 H 0.67502 0.59324 0.91815 0.0
H1917 H 0.58956 0.58387 0.88112 0.0
H1918 H 0.56107 0.57156 0.92198 0.0
H1919 H 0.63888 0.63568 0.86442 0.0
H1920 H 0.61524 0.52798 0.87602 0.0
H1921 H 0.61179 0.47796 0.89343 0.0
H1922 H 0.71612 0.52153 0.8874 0.0
H1923 H 0.72047 0.57238 0.8709 0.0
C1924 C 0.71195 0.62253 0.75708 0.0
C1925 C 0.74026 0.65362 0.7537 0.0
C1926 C 0.69611 0.61301 0.78052 0.0
C1927 C 0.70806 0.6341 0.80143 0.0
C1928 C 0.73692 0.66468 0.79856 0.0
C1929 C 0.75279 0.67444 0.77491 0.0
C1930 C 0.69015 0.62363 0.8261 0.0
C1931 C 0.68929 0.59742 0.83934 0.0
C1932 C 0.6711 0.63687 0.83515 0.0
C1933 C 0.66711 0.66101 0.82014 0.0
C1934 C 0.69146 0.69427 0.82017 0.0
C1935 C 0.68757 0.71678 0.8055 0.0
C1936 C 0.65921 0.70626 0.79104 0.0
C1937 C 0.6347 0.67321 0.79121 0.0
C1938 C 0.6386 0.65061 0.80571 0.0
C1939 C 0.63299 0.57889 0.94192 0.0
C1940 C 0.60098 0.57364 0.94358 0.0
C1941 C 0.64968 0.587 0.91861 0.0
C1942 C 0.63448 0.58891 0.89626 0.0
C1943 C 0.60202 0.58249 0.89788 0.0
C1944 C 0.58556 0.57509 0.92123 0.0
C1945 C 0.65294 0.59932 0.8716 0.0
C1946 C 0.65311 0.62494 0.85774 0.0
C1947 C 0.67064 0.58468 0.8617 0.0
C1948 C 0.66827 0.55456 0.87283 0.0
C1949 C 0.6376 0.52734 0.879 0.0
C1950 C 0.63545 0.49869 0.8886 0.0
C1951 C 0.66373 0.49662 0.89167 0.0
C1952 C 0.69422 0.52316 0.88505 0.0
C1953 C 0.69654 0.55199 0.87569 0.0
H1954 H 0.662 0.47439 0.89906 0.0
H1955 H 0.65624 0.7237 0.77969 0.0
H1956 H 0.65296 0.72412 0.42798 0.0
H1957 H 0.67162 0.7131 0.46799 0.0
H1958 H 0.7611 0.8068 0.46268 0.0
H1959 H 0.74373 0.81575 0.42126 0.0
H1960 H 0.7789 0.77189 0.48036 0.0
H1961 H 0.6874 0.78242 0.50655 0.0
H1962 H 0.63029 0.77077 0.50655 0.0
H1963 H 0.59639 0.67022 0.52594 0.0
H1964 H 0.65324 0.68118 0.52574 0.0
H1965 H 0.78373 0.7576 0.6244 0.0
H1966 H 0.76861 0.77258 0.58411 0.0
H1967 H 0.76173 0.68709 0.54875 0.0
H1968 H 0.77633 0.67167 0.58898 0.0
H1969 H 0.70479 0.72136 0.55374 0.0
H1970 H 0.80369 0.71727 0.51668 0.0
H1971 H 0.86281 0.73666 0.52 0.0
H1972 H 0.88351 0.83616 0.52634 0.0
H1973 H 0.8244 0.81715 0.52364 0.0
C1974 C 0.67635 0.74253 0.43567 0.0
C1975 C 0.69665 0.77105 0.42178 0.0
C1976 C 0.68707 0.73636 0.45873 0.0
C1977 C 0.71762 0.75943 0.46925 0.0
C1978 C 0.73749 0.78836 0.4554 0.0
C1979 C 0.72739 0.79378 0.43179 0.0
C1980 C 0.72943 0.75307 0.49403 0.0
C1981 C 0.76238 0.76097 0.49626 0.0
C1982 C 0.70864 0.73906 0.51544 0.0
C1983 C 0.67452 0.73256 0.5159 0.0
C1984 C 0.66773 0.7578 0.5107 0.0
C1985 C 0.63541 0.75131 0.51074 0.0
C1986 C 0.60972 0.71976 0.51618 0.0
C1987 C 0.6163 0.69464 0.5217 0.0
C1988 C 0.64856 0.70098 0.52164 0.0
C1989 C 0.7797 0.74239 0.60791 0.0
C1990 C 0.78107 0.71335 0.6099 0.0
C1991 C 0.77112 0.75104 0.5849 0.0
C1992 C 0.76472 0.73141 0.56326 0.0
C1993 C 0.76724 0.70303 0.56501 0.0
C1994 C 0.77551 0.6942 0.58803 0.0
C1995 C 0.75335 0.73933 0.53933 0.0
C1996 C 0.72077 0.73204 0.53753 0.0
C1997 C 0.77449 0.7546 0.51861 0.0
C1998 C 0.80977 0.76578 0.52031 0.0
C1999 C 0.82086 0.74321 0.51911 0.0
C2000 C 0.85434 0.75414 0.52082 0.0
C2001 C 0.8769 0.78762 0.52346 0.0
C2002 C 0.86602 0.81024 0.52438 0.0
C2003 C 0.83255 0.7994 0.52281 0.0
H2004 H 0.90282 0.79604 0.5247 0.0
H2005 H 0.58471 0.71478 0.51618 0.0
H2006 H 0.21426 0.96363 0.41378 0.0
H2007 H 0.22191 0.99029 0.45473 0.0
H2008 H 0.28269 0.95122 0.47903 0.0
H2009 H 0.27432 0.9235 0.43793 0.0
H2010 H 0.24463 0.95116 0.51773 0.0
H2011 H 0.31521 0.03196 0.45456 0.0
H2012 H 0.32337 0.0606 0.41373 0.0
H2013 H 0.25822 0.09426 0.43724 0.0
H2014 H 0.24946 0.06562 0.47809 0.0
H2015 H 0.3523 0.11707 0.58912 0.0
H2016 H 0.33475 0.08456 0.55027 0.0
H2017 H 0.23924 0.02259 0.58295 0.0
H2018 H 0.25777 0.05364 0.62256 0.0
H2019 H 0.29249 0.07201 0.51573 0.0
H2020 H 0.20191 0.95622 0.56056 0.0
H2021 H 0.18907 0.92532 0.60074 0.0
H2022 H 0.29117 0.96022 0.61261 0.0
H2023 H 0.3047 0.99195 0.57268 0.0
C2024 C 0.22892 0.96024 0.42792 0.0
C2025 C 0.2439 0.94155 0.42243 0.0
C2026 C 0.23345 0.97576 0.45136 0.0
C2027 C 0.25364 0.97365 0.46987 0.0
C2028 C 0.26721 0.95351 0.46503 0.0
C2029 C 0.26233 0.93755 0.44154 0.0
C2030 C 0.26163 0.99353 0.4937 0.0
C2031 C 0.2552 0.9776 0.51721 0.0
C2032 C 0.27492 0.02805 0.49335 0.0
C2033 C 0.28155 0.04652 0.46929 0.0
C2034 C 0.30266 0.04549 0.451 0.0
C2035 C 0.30733 0.06166 0.42785 0.0
C2036 C 0.29124 0.07912 0.42286 0.0
C2037 C 0.27065 0.0807 0.44111 0.0
C2038 C 0.26588 0.06458 0.46428 0.0
C2039 C 0.32776 0.09607 0.58822 0.0
C2040 C 0.30702 0.08705 0.60941 0.0
C2041 C 0.31755 0.07763 0.56581 0.0
C2042 C 0.28592 0.05008 0.56368 0.0
C2043 C 0.26426 0.04259 0.58425 0.0
C2044 C 0.27473 0.06074 0.60687 0.0
C2045 C 0.27605 0.02976 0.53989 0.0
C2046 C 0.28204 0.0456 0.5163 0.0
C2047 C 0.26192 0.99515 0.54012 0.0
C2048 C 0.25428 0.97648 0.56394 0.0
C2049 C 0.22159 0.95725 0.57181 0.0
C2050 C 0.21425 0.93976 0.59453 0.0
C2051 C 0.23941 0.94095 0.60925 0.0
C2052 C 0.27191 0.95967 0.60128 0.0
C2053 C 0.27945 0.97753 0.57872 0.0
H2054 H 0.23372 0.92736 0.62682 0.0
H2055 H 0.29475 0.09145 0.40487 0.0
H2056 H 0.95034 0.21107 0.61767 0.0
H2057 H 0.97762 0.21928 0.57686 0.0
H2058 H 0.94186 0.28374 0.55412 0.0
H2059 H 0.91024 0.27082 0.59283 0.0
H2060 H 0.94572 0.26257 0.51581 0.0
H2061 H 0.03098 0.30526 0.58075 0.0
H2062 H 0.05812 0.30054 0.6192 0.0
H2063 H 0.06984 0.22517 0.5835 0.0
H2064 H 0.04225 0.22923 0.54506 0.0
H2065 H 0.08852 0.3673 0.4363 0.0
H2066 H 0.05853 0.34755 0.4765 0.0
H2067 H 0.02952 0.24815 0.4559 0.0
H2068 H 0.05836 0.26751 0.4154 0.0
H2069 H 0.05969 0.28379 0.51406 0.0
H2070 H 0.97379 0.24607 0.44796 0.0
H2071 H 0.94715 0.25533 0.41126 0.0
H2072 H 0.94062 0.33054 0.45226 0.0
H2073 H 0.96807 0.32229 0.48896 0.0
C2074 C 0.94767 0.22635 0.60367 0.0
C2075 C 0.92892 0.24124 0.60901 0.0
C2076 C 0.96413 0.23183 0.58039 0.0
C2077 C 0.9638 0.2538 0.56237 0.0
C2078 C 0.94335 0.26697 0.56731 0.0
C2079 C 0.92537 0.25985 0.58983 0.0
C2080 C 0.98423 0.26327 0.53845 0.0
C2081 C 0.97079 0.26763 0.51594 0.0
C2082 C 0.01697 0.26926 0.53752 0.0
C2083 C 0.03424 0.26733 0.56027 0.0
C2084 C 0.03922 0.28764 0.58124 0.0
C2085 C 0.05466 0.28507 0.60298 0.0
C2086 C 0.06567 0.26256 0.60378 0.0
C2087 C 0.06129 0.2426 0.58284 0.0
C2088 C 0.04576 0.24503 0.56108 0.0
C2089 C 0.07633 0.34132 0.44057 0.0
C2090 C 0.07601 0.319 0.42269 0.0
C2091 C 0.05901 0.33004 0.46347 0.0
C2092 C 0.04164 0.29634 0.46915 0.0
C2093 C 0.04265 0.27422 0.4519 0.0
C2094 C 0.05924 0.28536 0.42879 0.0
C2095 C 0.02125 0.28405 0.49253 0.0
C2096 C 0.03469 0.27898 0.51456 0.0
C2097 C 0.9889 0.27831 0.49333 0.0
C2098 C 0.97344 0.28393 0.47099 0.0
C2099 C 0.96721 0.26498 0.44897 0.0
C2100 C 0.95178 0.2699 0.42823 0.0
C2101 C 0.94205 0.29339 0.42948 0.0
C2102 C 0.94803 0.31225 0.45137 0.0
C2103 C 0.96364 0.30755 0.47209 0.0
H2104 H 0.93007 0.29714 0.41341 0.0
H2105 H 0.07773 0.26071 0.6206 0.0
loop_
_geom_bond_atom_site_label_1
_geom_bond_atom_site_label_2
_geom_bond_distance
_geom_bond_site_symmetry_2
_ccdc_geom_bond_type
Eu0 N29 2.600 . S
Eu0 N35 2.562 1_556 S
Eu0 O44 2.462 1_556 S
Eu0 O45 2.373 1_455 S
Eu0 O47 2.432 . S
Eu0 O48 2.291 1_556 S
Eu0 O52 2.335 . S
Eu0 O55 2.372 . S
Eu0 C64 2.787 . S
C1 N2 1.369 1_455 S
C1 C4 1.405 . S
C1 C8 1.448 . S
N2 C1 1.369 1_655 S
N2 C5 1.314 1_655 S
N2 Eu11 2.597 . S
C3 C5 1.398 . S
C3 C6 1.367 . S
C3 H23 0.931 . S
C4 C1 1.405 . S
C4 C6 1.403 . S
C4 C10 1.439 . S
C5 N2 1.314 1_455 S
C5 C3 1.398 . S
C5 H16 0.933 1_455 S
C6 C3 1.367 . S
C6 C4 1.403 . S
C6 H27 0.929 . S
C7 C8 1.437 . S
C7 C9 1.399 . S
C7 C13 1.385 1_554 S
C8 C1 1.448 . S
C8 C7 1.437 . S
C8 N12 1.351 1_454 S
C9 C7 1.399 . S
C9 C10 1.374 . S
C9 H24 0.931 . S
C10 C4 1.439 . S
C10 C9 1.374 . S
C10 H25 0.931 . S
Eu11 N2 2.597 . S
Eu11 N12 2.562 1_554 S
Eu11 O46 2.335 . S
Eu11 O49 2.372 . S
Eu11 O50 2.462 1_554 S
Eu11 O51 2.373 1_655 S
Eu11 O53 2.432 . S
Eu11 O54 2.291 1_554 S
Eu11 C75 2.787 . S
N12 C8 1.351 1_656 S
N12 Eu11 2.562 1_556 S
N12 C14 1.325 . S
C13 C7 1.385 1_556 S
C13 C15 1.366 . S
C13 H21 0.930 . S
C14 N12 1.325 . S
C14 C15 1.416 1_655 S
C14 H20 0.929 . S
C15 C13 1.366 . S
C15 C14 1.416 1_455 S
C15 H17 0.930 . S
H16 C5 0.933 1_655 S
H17 C15 0.930 . S
H18 C33 0.930 . S
H19 C40 0.930 . S
H20 C14 0.929 . S
H21 C13 0.930 . S
H22 C36 0.929 . S
H23 C3 0.931 . S
H24 C9 0.931 . S
H25 C10 0.931 . S
H26 C31 0.931 . S
H27 C6 0.929 . S
H28 C39 0.930 . S
N29 Eu0 2.600 . S
N29 C30 1.365 . S
N29 C33 1.319 . S
C30 N29 1.365 . S
C30 C32 1.405 1_455 S
C30 C38 1.448 . S
C31 H26 0.931 . S
C31 C33 1.397 1_655 S
C31 C34 1.367 . S
C32 C30 1.405 1_655 S
C32 C34 1.403 . S
C32 C65 1.439 . S
C33 H18 0.930 . S
C33 N29 1.319 . S
C33 C31 1.397 1_455 S
C34 C31 1.367 . S
C34 C32 1.403 . S
C34 H41 0.929 . S
N35 Eu0 2.562 1_554 S
N35 C36 1.325 . S
N35 C38 1.351 1_554 S
C36 H22 0.929 . S
C36 N35 1.325 . S
C36 C40 1.416 . S
C37 C38 1.430 1_654 S
C37 C39 1.404 . S
C37 C66 1.387 1_554 S
C38 C30 1.448 . S
C38 N35 1.351 1_556 S
C38 C37 1.430 1_456 S
C39 H28 0.930 . S
C39 C37 1.404 . S
C39 C40 1.366 1_655 S
C40 H19 0.930 . S
C40 C36 1.416 . S
C40 C39 1.366 1_455 S
H41 C34 0.929 . S
H42 C65 0.931 . S
H43 C66 0.931 . S
O44 Eu0 2.462 1_554 S
O44 C64 1.252 1_554 S
O45 Eu0 2.373 1_655 S
O45 C56 1.249 1_556 S
O46 Eu11 2.335 . S
O46 C56 1.264 . S
O47 Eu0 2.432 . S
O47 C64 1.268 . S
O48 Eu0 2.291 1_554 S
O48 C63 1.255 . S
O49 Eu11 2.372 . S
O49 C63 1.257 1_655 S
O50 Eu11 2.462 1_556 S
O50 C75 1.252 1_556 S
O51 Eu11 2.373 1_455 S
O51 C67 1.249 1_554 S
O52 Eu0 2.335 . S
O52 C67 1.264 . S
O53 Eu11 2.432 . S
O53 C75 1.268 . S
O54 Eu11 2.291 1_556 S
O54 C74 1.255 . S
O55 Eu0 2.372 . S
O55 C74 1.257 1_455 S
C56 O45 1.249 1_554 S
C56 O46 1.264 . S
C57 C60 1.382 . S
C57 C62 1.390 1_556 S
C57 C64 1.506 . S
C58 C59 1.398 1_554 S
C58 C62 1.392 . S
C59 C58 1.398 1_556 S
C59 C61 1.372 . S
C59 H76 0.931 . S
C60 C57 1.382 . S
C60 C61 1.390 . S
C60 H77 0.931 . S
C61 C59 1.372 . S
C61 C60 1.390 . S
C61 H78 0.929 . S
C62 C57 1.390 1_554 S
C62 C58 1.392 . S
C62 H79 0.930 . S
C63 O48 1.255 . S
C63 O49 1.257 1_455 S
C64 Eu0 2.787 . S
C64 O44 1.252 1_556 S
C64 O47 1.268 . S
C64 C57 1.506 . S
C65 C32 1.439 . S
C65 H42 0.931 . S
C65 C66 1.374 . S
C66 C37 1.387 1_556 S
C66 H43 0.931 . S
C66 C65 1.374 . S
C67 O51 1.249 1_556 S
C67 O52 1.264 . S
C68 C71 1.382 . S
C68 C72 1.390 1_554 S
C68 C75 1.506 . S
C69 C70 1.398 1_556 S
C69 C72 1.392 . S
C70 C69 1.398 1_554 S
C70 C73 1.372 . S
C70 H80 0.931 . S
C71 C68 1.382 . S
C71 C73 1.390 . S
C71 H81 0.931 . S
C72 C68 1.390 1_556 S
C72 C69 1.392 . S
C72 H82 0.930 . S
C73 C70 1.372 . S
C73 C71 1.390 . S
C73 H83 0.929 . S
C74 O54 1.255 . S
C74 O55 1.257 1_655 S
C75 Eu11 2.787 . S
C75 O50 1.252 1_554 S
C75 O53 1.268 . S
C75 C68 1.506 . S
H76 C59 0.931 . S
H77 C60 0.931 . S
H78 C61 0.929 . S
H79 C62 0.930 . S
H80 C70 0.931 . S
H81 C71 0.931 . S
H82 C72 0.930 . S
H83 C73 0.929 . S
Eu84 N113 2.600 . S
Eu84 N119 2.562 1_556 S
Eu84 O128 2.462 1_556 S
Eu84 O129 2.373 . S
Eu84 O131 2.432 . S
Eu84 O132 2.291 1_556 S
Eu84 O136 2.335 . S
Eu84 O139 2.372 . S
Eu84 C148 2.787 . S
C85 N86 1.365 . S
C85 C88 1.405 . S
C85 C92 1.448 . S
N86 C85 1.365 . S
N86 C89 1.319 . S
N86 Eu95 2.600 . S
C87 C89 1.397 . S
C87 C90 1.367 . S
C87 H107 0.931 . S
C88 C85 1.405 . S
C88 C90 1.403 . S
C88 C94 1.439 . S
C89 N86 1.319 . S
C89 C87 1.397 . S
C89 H100 0.930 . S
C90 C87 1.367 . S
C90 C88 1.403 . S
C90 H111 0.929 . S
C91 C92 1.437 . S
C91 C93 1.399 . S
C91 C97 1.385 1_554 S
C92 C85 1.448 . S
C92 C91 1.437 . S
C92 N96 1.351 1_554 S
C93 C91 1.399 . S
C93 C94 1.374 . S
C93 H108 0.931 . S
C94 C88 1.439 . S
C94 C93 1.374 . S
C94 H109 0.931 . S
Eu95 N86 2.600 . S
Eu95 N96 2.562 1_554 S
Eu95 O130 2.335 . S
Eu95 O133 2.372 . S
Eu95 O134 2.462 1_554 S
Eu95 O135 2.373 . S
Eu95 O137 2.432 . S
Eu95 O138 2.291 1_554 S
Eu95 C159 2.787 . S
N96 C92 1.351 1_556 S
N96 Eu95 2.562 1_556 S
N96 C98 1.325 . S
C97 C91 1.385 1_556 S
C97 C99 1.366 . S
C97 H105 0.930 . S
C98 N96 1.325 . S
C98 C99 1.416 . S
C98 H104 0.929 . S
C99 C97 1.366 . S
C99 C98 1.416 . S
C99 H101 0.930 . S
H100 C89 0.930 . S
H101 C99 0.930 . S
H102 C117 0.930 . S
H103 C124 0.930 . S
H104 C98 0.929 . S
H105 C97 0.930 . S
H106 C120 0.929 . S
H107 C87 0.931 . S
H108 C93 0.931 . S
H109 C94 0.931 . S
H110 C115 0.931 . S
H111 C90 0.929 . S
H112 C123 0.930 . S
N113 Eu84 2.600 . S
N113 C114 1.365 . S
N113 C117 1.319 . S
C114 N113 1.365 . S
C114 C116 1.405 . S
C114 C122 1.448 . S
C115 H110 0.931 . S
C115 C117 1.397 . S
C115 C118 1.367 . S
C116 C114 1.405 . S
C116 C118 1.403 . S
C116 C149 1.439 . S
C117 H102 0.930 . S
C117 N113 1.319 . S
C117 C115 1.397 . S
C118 C115 1.367 . S
C118 C116 1.403 . S
C118 H125 0.929 . S
N119 Eu84 2.562 1_554 S
N119 C120 1.325 . S
N119 C122 1.351 1_554 S
C120 H106 0.929 . S
C120 N119 1.325 . S
C120 C124 1.416 . S
C121 C122 1.430 1_554 S
C121 C123 1.404 . S
C121 C150 1.387 1_554 S
C122 C114 1.448 . S
C122 N119 1.351 1_556 S
C122 C121 1.430 1_556 S
C123 H112 0.930 . S
C123 C121 1.404 . S
C123 C124 1.366 . S
C124 H103 0.930 . S
C124 C120 1.416 . S
C124 C123 1.366 . S
H125 C118 0.929 . S
H126 C149 0.931 . S
H127 C150 0.931 . S
O128 Eu84 2.462 1_554 S
O128 C148 1.252 1_554 S
O129 Eu84 2.373 . S
O129 C140 1.249 1_556 S
O130 Eu95 2.335 . S
O130 C140 1.264 . S
O131 Eu84 2.432 . S
O131 C148 1.268 . S
O132 Eu84 2.291 1_554 S
O132 C147 1.255 . S
O133 Eu95 2.372 . S
O133 C147 1.257 . S
O134 Eu95 2.462 1_556 S
O134 C159 1.252 1_556 S
O135 Eu95 2.373 . S
O135 C151 1.249 1_554 S
O136 Eu84 2.335 . S
O136 C151 1.264 . S
O137 Eu95 2.432 . S
O137 C159 1.268 . S
O138 Eu95 2.291 1_556 S
O138 C158 1.255 . S
O139 Eu84 2.372 . S
O139 C158 1.257 . S
C140 O129 1.249 1_554 S
C140 O130 1.264 . S
C141 C144 1.382 . S
C141 C146 1.390 1_556 S
C141 C148 1.506 . S
C142 C143 1.398 1_554 S
C142 C146 1.392 . S
C143 C142 1.398 1_556 S
C143 C145 1.372 . S
C143 H160 0.931 . S
C144 C141 1.382 . S
C144 C145 1.390 . S
C144 H161 0.931 . S
C145 C143 1.372 . S
C145 C144 1.390 . S
C145 H162 0.929 . S
C146 C141 1.390 1_554 S
C146 C142 1.392 . S
C146 H163 0.930 . S
C147 O132 1.255 . S
C147 O133 1.257 . S
C148 Eu84 2.787 . S
C148 O128 1.252 1_556 S
C148 O131 1.268 . S
C148 C141 1.506 . S
C149 C116 1.439 . S
C149 H126 0.931 . S
C149 C150 1.374 . S
C150 C121 1.387 1_556 S
C150 H127 0.931 . S
C150 C149 1.374 . S
C151 O135 1.249 1_556 S
C151 O136 1.264 . S
C152 C155 1.382 . S
C152 C156 1.390 1_554 S
C152 C159 1.506 . S
C153 C154 1.398 1_556 S
C153 C156 1.392 . S
C154 C153 1.398 1_554 S
C154 C157 1.372 . S
C154 H164 0.931 . S
C155 C152 1.382 . S
C155 C157 1.390 . S
C155 H165 0.931 . S
C156 C152 1.390 1_556 S
C156 C153 1.392 . S
C156 H166 0.930 . S
C157 C154 1.372 . S
C157 C155 1.390 . S
C157 H167 0.929 . S
C158 O138 1.255 . S
C158 O139 1.257 . S
C159 Eu95 2.787 . S
C159 O134 1.252 1_554 S
C159 O137 1.268 . S
C159 C152 1.506 . S
H160 C143 0.931 . S
H161 C144 0.931 . S
H162 C145 0.929 . S
H163 C146 0.930 . S
H164 C154 0.931 . S
H165 C155 0.931 . S
H166 C156 0.930 . S
H167 C157 0.929 . S
Eu168 N197 2.600 . S
Eu168 N203 2.562 1_556 S
Eu168 O212 2.462 1_556 S
Eu168 O213 2.373 1_565 S
Eu168 O215 2.432 . S
Eu168 O216 2.291 1_556 S
Eu168 O220 2.335 . S
Eu168 O223 2.372 . S
Eu168 C232 2.787 . S
C169 N170 1.365 . S
C169 C172 1.405 1_545 S
C169 C176 1.448 . S
N170 C169 1.365 . S
N170 C173 1.319 . S
N170 Eu179 2.600 . S
C171 C173 1.397 1_565 S
C171 C174 1.367 . S
C171 H191 0.931 . S
C172 C169 1.405 1_565 S
C172 C174 1.403 . S
C172 C178 1.439 . S
C173 N170 1.319 . S
C173 C171 1.397 1_545 S
C173 H184 0.930 . S
C174 C171 1.367 . S
C174 C172 1.403 . S
C174 H195 0.929 . S
C175 C176 1.437 1_565 S
C175 C177 1.399 . S
C175 C181 1.385 1_554 S
C176 C169 1.448 . S
C176 C175 1.437 1_545 S
C176 N180 1.351 1_554 S
C177 C175 1.399 . S
C177 C178 1.374 . S
C177 H192 0.931 . S
C178 C172 1.439 . S
C178 C177 1.374 . S
C178 H193 0.931 . S
Eu179 N170 2.600 . S
Eu179 N180 2.562 1_554 S
Eu179 O214 2.335 . S
Eu179 O217 2.372 . S
Eu179 O218 2.462 1_554 S
Eu179 O219 2.373 1_545 S
Eu179 O221 2.432 . S
Eu179 O222 2.291 1_554 S
Eu179 C243 2.787 . S
N180 C176 1.351 1_556 S
N180 Eu179 2.562 1_556 S
N180 C182 1.325 . S
C181 C175 1.385 1_556 S
C181 C183 1.366 1_565 S
C181 H189 0.930 . S
C182 N180 1.325 . S
C182 C183 1.416 . S
C182 H188 0.929 . S
C183 C181 1.366 1_545 S
C183 C182 1.416 . S
C183 H185 0.930 . S
H184 C173 0.930 . S
H185 C183 0.930 . S
H186 C201 0.930 . S
H187 C208 0.930 . S
H188 C182 0.929 . S
H189 C181 0.930 . S
H190 C204 0.929 . S
H191 C171 0.931 . S
H192 C177 0.931 . S
H193 C178 0.931 . S
H194 C199 0.931 . S
H195 C174 0.929 . S
H196 C207 0.930 . S
N197 Eu168 2.600 . S
N197 C198 1.365 1_565 S
N197 C201 1.319 . S
C198 N197 1.365 1_545 S
C198 C200 1.405 . S
C198 C206 1.448 . S
C199 H194 0.931 . S
C199 C201 1.397 1_545 S
C199 C202 1.367 . S
C200 C198 1.405 . S
C200 C202 1.403 . S
C200 C233 1.439 . S
C201 H186 0.930 . S
C201 N197 1.319 . S
C201 C199 1.397 1_565 S
C202 C199 1.367 . S
C202 C200 1.403 . S
C202 H209 0.929 . S
N203 Eu168 2.562 1_554 S
N203 C204 1.325 . S
N203 C206 1.351 1_564 S
C204 H190 0.929 . S
C204 N203 1.325 . S
C204 C208 1.416 1_565 S
C205 C206 1.430 1_554 S
C205 C207 1.404 . S
C205 C234 1.387 1_554 S
C206 C198 1.448 . S
C206 N203 1.351 1_546 S
C206 C205 1.430 1_556 S
C207 H196 0.930 . S
C207 C205 1.404 . S
C207 C208 1.366 . S
C208 H187 0.930 . S
C208 C204 1.416 1_545 S
C208 C207 1.366 . S
H209 C202 0.929 . S
H210 C233 0.931 . S
H211 C234 0.931 . S
O212 Eu168 2.462 1_554 S
O212 C232 1.252 1_554 S
O213 Eu168 2.373 1_545 S
O213 C224 1.249 1_556 S
O214 Eu179 2.335 . S
O214 C224 1.264 . S
O215 Eu168 2.432 . S
O215 C232 1.268 . S
O216 Eu168 2.291 1_554 S
O216 C231 1.255 . S
O217 Eu179 2.372 . S
O217 C231 1.257 1_545 S
O218 Eu179 2.462 1_556 S
O218 C243 1.252 1_556 S
O219 Eu179 2.373 1_565 S
O219 C235 1.249 1_554 S
O220 Eu168 2.335 . S
O220 C235 1.264 . S
O221 Eu179 2.432 . S
O221 C243 1.268 . S
O222 Eu179 2.291 1_556 S
O222 C242 1.255 . S
O223 Eu168 2.372 . S
O223 C242 1.257 1_565 S
C224 O213 1.249 1_554 S
C224 O214 1.264 . S
C225 C228 1.382 . S
C225 C230 1.390 1_556 S
C225 C232 1.506 . S
C226 C227 1.398 1_554 S
C226 C230 1.392 . S
C227 C226 1.398 1_556 S
C227 C229 1.372 . S
C227 H244 0.931 . S
C228 C225 1.382 . S
C228 C229 1.390 . S
C228 H245 0.931 . S
C229 C227 1.372 . S
C229 C228 1.390 . S
C229 H246 0.929 . S
C230 C225 1.390 1_554 S
C230 C226 1.392 . S
C230 H247 0.930 . S
C231 O216 1.255 . S
C231 O217 1.257 1_565 S
C232 Eu168 2.787 . S
C232 O212 1.252 1_556 S
C232 O215 1.268 . S
C232 C225 1.506 . S
C233 C200 1.439 . S
C233 H210 0.931 . S
C233 C234 1.374 . S
C234 C205 1.387 1_556 S
C234 H211 0.931 . S
C234 C233 1.374 . S
C235 O219 1.249 1_556 S
C235 O220 1.264 . S
C236 C239 1.382 . S
C236 C240 1.390 1_554 S
C236 C243 1.506 . S
C237 C238 1.398 1_556 S
C237 C240 1.392 . S
C238 C237 1.398 1_554 S
C238 C241 1.372 . S
C238 H248 0.931 . S
C239 C236 1.382 . S
C239 C241 1.390 . S
C239 H249 0.931 . S
C240 C236 1.390 1_556 S
C240 C237 1.392 . S
C240 H250 0.930 . S
C241 C238 1.372 . S
C241 C239 1.390 . S
C241 H251 0.929 . S
C242 O222 1.255 . S
C242 O223 1.257 1_545 S
C243 Eu179 2.787 . S
C243 O218 1.252 1_554 S
C243 O221 1.268 . S
C243 C236 1.506 . S
H244 C227 0.931 . S
H245 C228 0.931 . S
H246 C229 0.929 . S
H247 C230 0.930 . S
H248 C238 0.931 . S
H249 C239 0.931 . S
H250 C240 0.930 . S
H251 C241 0.929 . S
Eu252 N281 2.600 . S
Eu252 N287 2.562 . S
Eu252 O296 2.462 . S
Eu252 O297 2.373 . S
Eu252 O299 2.432 . S
Eu252 O300 2.291 . S
Eu252 O304 2.335 . S
Eu252 O307 2.372 . S
Eu252 C316 2.787 . S
C253 N254 1.365 . S
C253 C256 1.405 . S
C253 C260 1.448 . S
N254 C253 1.365 . S
N254 C257 1.319 . S
N254 Eu263 2.600 . S
C255 C257 1.397 . S
C255 C258 1.367 . S
C255 H275 0.931 . S
C256 C253 1.405 . S
C256 C258 1.403 . S
C256 C262 1.439 . S
C257 N254 1.319 . S
C257 C255 1.397 . S
C257 H268 0.930 . S
C258 C255 1.367 . S
C258 C256 1.403 . S
C258 H279 0.929 . S
C259 C260 1.430 . S
C259 C261 1.387 . S
C259 C265 1.404 . S
C260 C253 1.448 . S
C260 C259 1.430 . S
C260 N264 1.351 . S
C261 C259 1.387 . S
C261 C262 1.374 . S
C261 H276 0.931 . S
C262 C256 1.439 . S
C262 C261 1.374 . S
C262 H277 0.931 . S
Eu263 N254 2.600 . S
Eu263 N264 2.562 . S
Eu263 O298 2.335 . S
Eu263 O301 2.372 . S
Eu263 O302 2.462 . S
Eu263 O303 2.373 . S
Eu263 O305 2.432 . S
Eu263 O306 2.291 . S
Eu263 C327 2.787 . S
N264 C260 1.351 . S
N264 Eu263 2.562 . S
N264 C266 1.325 . S
C265 C259 1.404 . S
C265 C267 1.366 . S
C265 H273 0.930 . S
C266 N264 1.325 . S
C266 C267 1.416 . S
C266 H272 0.929 . S
C267 C265 1.366 . S
C267 C266 1.416 . S
C267 H269 0.930 . S
H268 C257 0.930 . S
H269 C267 0.930 . S
H270 C285 0.930 . S
H271 C292 0.930 . S
H272 C266 0.929 . S
H273 C265 0.930 . S
H274 C288 0.929 . S
H275 C255 0.931 . S
H276 C261 0.931 . S
H277 C262 0.931 . S
H278 C283 0.931 . S
H279 C258 0.929 . S
H280 C291 0.930 . S
N281 Eu252 2.600 . S
N281 C282 1.365 . S
N281 C285 1.319 . S
C282 N281 1.365 . S
C282 C284 1.405 . S
C282 C290 1.448 . S
C283 H278 0.931 . S
C283 C285 1.397 . S
C283 C286 1.367 . S
C284 C282 1.405 . S
C284 C286 1.403 . S
C284 C317 1.439 . S
C285 H270 0.930 . S
C285 N281 1.319 . S
C285 C283 1.397 . S
C286 C283 1.367 . S
C286 C284 1.403 . S
C286 H293 0.929 . S
N287 Eu252 2.562 . S
N287 C288 1.325 . S
N287 C290 1.351 . S
C288 H274 0.929 . S
C288 N287 1.325 . S
C288 C292 1.416 . S
C289 C290 1.430 . S
C289 C291 1.404 . S
C289 C318 1.387 . S
C290 C282 1.448 . S
C290 N287 1.351 . S
C290 C289 1.430 . S
C291 H280 0.930 . S
C291 C289 1.404 . S
C291 C292 1.366 . S
C292 H271 0.930 . S
C292 C288 1.416 . S
C292 C291 1.366 . S
H293 C286 0.929 . S
H294 C317 0.931 . S
H295 C318 0.931 . S
O296 Eu252 2.462 . S
O296 C316 1.252 . S
O297 Eu252 2.373 . S
O297 C308 1.249 . S
O298 Eu263 2.335 . S
O298 C308 1.264 . S
O299 Eu252 2.432 . S
O299 C316 1.268 . S
O300 Eu252 2.291 . S
O300 C315 1.255 . S
O301 Eu263 2.372 . S
O301 C315 1.257 . S
O302 Eu263 2.462 . S
O302 C327 1.252 . S
O303 Eu263 2.373 . S
O303 C319 1.249 . S
O304 Eu252 2.335 . S
O304 C319 1.264 . S
O305 Eu263 2.432 . S
O305 C327 1.268 . S
O306 Eu263 2.291 . S
O306 C326 1.255 . S
O307 Eu252 2.372 . S
O307 C326 1.257 . S
C308 O297 1.249 . S
C308 O298 1.264 . S
C309 C312 1.382 . S
C309 C314 1.390 . S
C309 C316 1.506 . S
C310 C311 1.398 . S
C310 C314 1.392 . S
C311 C310 1.398 . S
C311 C313 1.372 . S
C311 H328 0.931 . S
C312 C309 1.382 . S
C312 C313 1.390 . S
C312 H329 0.931 . S
C313 C311 1.372 . S
C313 C312 1.390 . S
C313 H330 0.929 . S
C314 C309 1.390 . S
C314 C310 1.392 . S
C314 H331 0.930 . S
C315 O300 1.255 . S
C315 O301 1.257 . S
C316 Eu252 2.787 . S
C316 O296 1.252 . S
C316 O299 1.268 . S
C316 C309 1.506 . S
C317 C284 1.439 . S
C317 H294 0.931 . S
C317 C318 1.374 . S
C318 C289 1.387 . S
C318 H295 0.931 . S
C318 C317 1.374 . S
C319 O303 1.249 . S
C319 O304 1.264 . S
C320 C323 1.382 . S
C320 C324 1.390 . S
C320 C327 1.506 . S
C321 C322 1.398 . S
C321 C324 1.392 . S
C322 C321 1.398 . S
C322 C325 1.372 . S
C322 H332 0.931 . S
C323 C320 1.382 . S
C323 C325 1.390 . S
C323 H333 0.931 . S
C324 C320 1.390 . S
C324 C321 1.392 . S
C324 H334 0.930 . S
C325 C322 1.372 . S
C325 C323 1.390 . S
C325 H335 0.929 . S
C326 O306 1.255 . S
C326 O307 1.257 . S
C327 Eu263 2.787 . S
C327 O302 1.252 . S
C327 O305 1.268 . S
C327 C320 1.506 . S
H328 C311 0.931 . S
H329 C312 0.931 . S
H330 C313 0.929 . S
H331 C314 0.930 . S
H332 C322 0.931 . S
H333 C323 0.931 . S
H334 C324 0.930 . S
H335 C325 0.929 . S
Eu336 N365 2.600 . S
Eu336 N371 2.562 . S
Eu336 O380 2.462 . S
Eu336 O381 2.373 . S
Eu336 O383 2.432 . S
Eu336 O384 2.291 . S
Eu336 O388 2.335 . S
Eu336 O391 2.372 . S
Eu336 C400 2.787 . S
C337 N338 1.365 . S
C337 C340 1.405 . S
C337 C344 1.448 . S
N338 C337 1.365 . S
N338 C341 1.319 . S
N338 Eu347 2.600 . S
C339 C341 1.397 . S
C339 C342 1.367 . S
C339 H359 0.931 . S
C340 C337 1.405 . S
C340 C342 1.403 . S
C340 C346 1.439 . S
C341 N338 1.319 . S
C341 C339 1.397 . S
C341 H352 0.930 . S
C342 C339 1.367 . S
C342 C340 1.403 . S
C342 H363 0.929 . S
C343 C344 1.430 . S
C343 C345 1.387 . S
C343 C349 1.404 . S
C344 C337 1.448 . S
C344 C343 1.430 . S
C344 N348 1.351 . S
C345 C343 1.387 . S
C345 C346 1.374 . S
C345 H360 0.931 . S
C346 C340 1.439 . S
C346 C345 1.374 . S
C346 H361 0.931 . S
Eu347 N338 2.600 . S
Eu347 N348 2.562 . S
Eu347 O382 2.335 . S
Eu347 O385 2.372 . S
Eu347 O386 2.462 . S
Eu347 O387 2.373 . S
Eu347 O389 2.432 . S
Eu347 O390 2.291 . S
Eu347 C411 2.787 . S
N348 C344 1.351 . S
N348 Eu347 2.562 . S
N348 C350 1.325 . S
C349 C343 1.404 . S
C349 C351 1.366 . S
C349 H357 0.930 . S
C350 N348 1.325 . S
C350 C351 1.416 . S
C350 H356 0.929 . S
C351 C349 1.366 . S
C351 C350 1.416 . S
C351 H353 0.930 . S
H352 C341 0.930 . S
H353 C351 0.930 . S
H354 C369 0.930 . S
H355 C376 0.930 . S
H356 C350 0.929 . S
H357 C349 0.930 . S
H358 C372 0.929 . S
H359 C339 0.931 . S
H360 C345 0.931 . S
H361 C346 0.931 . S
H362 C367 0.931 . S
H363 C342 0.929 . S
H364 C375 0.930 . S
N365 Eu336 2.600 . S
N365 C366 1.365 . S
N365 C369 1.319 . S
C366 N365 1.365 . S
C366 C368 1.405 . S
C366 C374 1.448 . S
C367 H362 0.931 . S
C367 C369 1.397 . S
C367 C370 1.367 . S
C368 C366 1.405 . S
C368 C370 1.403 . S
C368 C401 1.439 1_565 S
C369 H354 0.930 . S
C369 N365 1.319 . S
C369 C367 1.397 . S
C370 C367 1.367 . S
C370 C368 1.403 . S
C370 H377 0.929 1_565 S
N371 Eu336 2.562 . S
N371 C372 1.325 . S
N371 C374 1.351 . S
C372 H358 0.929 . S
C372 N371 1.325 . S
C372 C376 1.416 1_565 S
C373 C374 1.430 1_545 S
C373 C375 1.404 . S
C373 C402 1.387 . S
C374 C366 1.448 . S
C374 N371 1.351 . S
C374 C373 1.430 1_565 S
C375 H364 0.930 . S
C375 C373 1.404 . S
C375 C376 1.366 . S
C376 H355 0.930 . S
C376 C372 1.416 1_545 S
C376 C375 1.366 . S
H377 C370 0.929 1_545 S
H378 C401 0.931 . S
H379 C402 0.931 . S
O380 Eu336 2.462 . S
O380 C400 1.252 . S
O381 Eu336 2.373 . S
O381 C392 1.249 . S
O382 Eu347 2.335 . S
O382 C392 1.264 . S
O383 Eu336 2.432 . S
O383 C400 1.268 . S
O384 Eu336 2.291 . S
O384 C399 1.255 . S
O385 Eu347 2.372 . S
O385 C399 1.257 . S
O386 Eu347 2.462 . S
O386 C411 1.252 . S
O387 Eu347 2.373 . S
O387 C403 1.249 . S
O388 Eu336 2.335 . S
O388 C403 1.264 . S
O389 Eu347 2.432 . S
O389 C411 1.268 . S
O390 Eu347 2.291 . S
O390 C410 1.255 . S
O391 Eu336 2.372 . S
O391 C410 1.257 . S
C392 O381 1.249 . S
C392 O382 1.264 . S
C393 C396 1.382 . S
C393 C398 1.390 . S
C393 C400 1.506 1_545 S
C394 C395 1.398 . S
C394 C398 1.392 . S
C395 C394 1.398 . S
C395 C397 1.372 . S
C395 H412 0.931 . S
C396 C393 1.382 . S
C396 C397 1.390 . S
C396 H413 0.931 . S
C397 C395 1.372 . S
C397 C396 1.390 . S
C397 H414 0.929 . S
C398 C393 1.390 . S
C398 C394 1.392 . S
C398 H415 0.930 . S
C399 O384 1.255 . S
C399 O385 1.257 . S
C400 Eu336 2.787 . S
C400 O380 1.252 . S
C400 O383 1.268 . S
C400 C393 1.506 1_565 S
C401 C368 1.439 1_545 S
C401 H378 0.931 . S
C401 C402 1.374 . S
C402 C373 1.387 . S
C402 H379 0.931 . S
C402 C401 1.374 . S
C403 O387 1.249 . S
C403 O388 1.264 . S
C404 C407 1.382 . S
C404 C408 1.390 . S
C404 C411 1.506 . S
C405 C406 1.398 . S
C405 C408 1.392 . S
C406 C405 1.398 . S
C406 C409 1.372 . S
C406 H416 0.931 . S
C407 C404 1.382 . S
C407 C409 1.390 . S
C407 H417 0.931 . S
C408 C404 1.390 . S
C408 C405 1.392 . S
C408 H418 0.930 . S
C409 C406 1.372 . S
C409 C407 1.390 . S
C409 H419 0.929 . S
C410 O390 1.255 . S
C410 O391 1.257 . S
C411 Eu347 2.787 . S
C411 O386 1.252 . S
C411 O389 1.268 . S
C411 C404 1.506 . S
H412 C395 0.931 . S
H413 C396 0.931 . S
H414 C397 0.929 . S
H415 C398 0.930 . S
H416 C406 0.931 . S
H417 C407 0.931 . S
H418 C408 0.930 . S
H419 C409 0.929 . S
Eu420 N449 2.600 . S
Eu420 N455 2.562 . S
Eu420 O464 2.462 . S
Eu420 O465 2.373 . S
Eu420 O467 2.432 . S
Eu420 O468 2.291 . S
Eu420 O472 2.335 . S
Eu420 O475 2.372 . S
Eu420 C484 2.787 . S
C421 N422 1.365 . S
C421 C424 1.405 . S
C421 C428 1.448 . S
N422 C421 1.365 . S
N422 C425 1.319 . S
N422 Eu431 2.600 . S
C423 C425 1.397 . S
C423 C426 1.367 . S
C423 H443 0.931 . S
C424 C421 1.405 . S
C424 C426 1.403 . S
C424 C430 1.439 . S
C425 N422 1.319 . S
C425 C423 1.397 . S
C425 H436 0.930 . S
C426 C423 1.367 . S
C426 C424 1.403 . S
C426 H447 0.929 . S
C427 C428 1.430 . S
C427 C429 1.387 . S
C427 C433 1.404 . S
C428 C421 1.448 . S
C428 C427 1.430 . S
C428 N432 1.351 . S
C429 C427 1.387 . S
C429 C430 1.374 . S
C429 H444 0.931 . S
C430 C424 1.439 . S
C430 C429 1.374 . S
C430 H445 0.931 . S
Eu431 N422 2.600 . S
Eu431 N432 2.562 . S
Eu431 O466 2.335 . S
Eu431 O469 2.372 . S
Eu431 O470 2.462 . S
Eu431 O471 2.373 . S
Eu431 O473 2.432 . S
Eu431 O474 2.291 . S
Eu431 C495 2.787 . S
N432 C428 1.351 . S
N432 Eu431 2.562 . S
N432 C434 1.325 . S
C433 C427 1.404 . S
C433 C435 1.366 . S
C433 H441 0.930 . S
C434 N432 1.325 . S
C434 C435 1.416 . S
C434 H440 0.929 . S
C435 C433 1.366 . S
C435 C434 1.416 . S
C435 H437 0.930 . S
H436 C425 0.930 . S
H437 C435 0.930 . S
H438 C453 0.930 . S
H439 C460 0.930 . S
H440 C434 0.929 . S
H441 C433 0.930 . S
H442 C456 0.929 . S
H443 C423 0.931 . S
H444 C429 0.931 . S
H445 C430 0.931 . S
H446 C451 0.931 . S
H447 C426 0.929 . S
H448 C459 0.930 . S
N449 Eu420 2.600 . S
N449 C450 1.365 . S
N449 C453 1.319 . S
C450 N449 1.365 . S
C450 C452 1.405 . S
C450 C458 1.448 . S
C451 H446 0.931 . S
C451 C453 1.397 . S
C451 C454 1.367 . S
C452 C450 1.405 . S
C452 C454 1.403 . S
C452 C485 1.439 1_455 S
C453 H438 0.930 . S
C453 N449 1.319 . S
C453 C451 1.397 . S
C454 C451 1.367 . S
C454 C452 1.403 . S
C454 H461 0.929 . S
N455 Eu420 2.562 . S
N455 C456 1.325 . S
N455 C458 1.351 . S
C456 H442 0.929 . S
C456 N455 1.325 . S
C456 C460 1.416 . S
C457 C458 1.450 . S
C457 C459 1.401 1_455 S
C457 C486 1.371 1_455 S
C458 C450 1.448 . S
C458 N455 1.351 . S
C458 C457 1.450 . S
C459 H448 0.930 . S
C459 C457 1.401 1_655 S
C459 C460 1.366 1_655 S
C460 H439 0.930 . S
C460 C456 1.416 . S
C460 C459 1.366 1_455 S
H461 C454 0.929 . S
H462 C485 0.931 . S
H463 C486 0.931 . S
O464 Eu420 2.462 . S
O464 C484 1.252 . S
O465 Eu420 2.373 . S
O465 C476 1.249 . S
O466 Eu431 2.335 . S
O466 C476 1.264 . S
O467 Eu420 2.432 . S
O467 C484 1.268 . S
O468 Eu420 2.291 . S
O468 C483 1.255 . S
O469 Eu431 2.372 . S
O469 C483 1.257 . S
O470 Eu431 2.462 . S
O470 C495 1.252 . S
O471 Eu431 2.373 . S
O471 C487 1.249 . S
O472 Eu420 2.335 . S
O472 C487 1.264 . S
O473 Eu431 2.432 . S
O473 C495 1.268 . S
O474 Eu431 2.291 . S
O474 C494 1.255 . S
O475 Eu420 2.372 . S
O475 C494 1.257 . S
C476 O465 1.249 . S
C476 O466 1.264 . S
C477 C480 1.382 . S
C477 C482 1.390 . S
C477 C484 1.506 1_655 S
C478 C479 1.398 . S
C478 C482 1.392 . S
C479 C478 1.398 . S
C479 C481 1.372 . S
C479 H496 0.931 . S
C480 C477 1.382 . S
C480 C481 1.390 . S
C480 H497 0.931 . S
C481 C479 1.372 . S
C481 C480 1.390 . S
C481 H498 0.929 . S
C482 C477 1.390 . S
C482 C478 1.392 . S
C482 H499 0.930 . S
C483 O468 1.255 . S
C483 O469 1.257 . S
C484 Eu420 2.787 . S
C484 O464 1.252 . S
C484 O467 1.268 . S
C484 C477 1.506 1_455 S
C485 C452 1.439 1_655 S
C485 H462 0.931 . S
C485 C486 1.374 . S
C486 C457 1.371 1_655 S
C486 H463 0.931 . S
C486 C485 1.374 . S
C487 O471 1.249 . S
C487 O472 1.264 . S
C488 C491 1.382 . S
C488 C492 1.390 . S
C488 C495 1.506 . S
C489 C490 1.398 . S
C489 C492 1.392 . S
C490 C489 1.398 . S
C490 C493 1.372 . S
C490 H500 0.931 . S
C491 C488 1.382 . S
C491 C493 1.390 . S
C491 H501 0.931 . S
C492 C488 1.390 . S
C492 C489 1.392 . S
C492 H502 0.930 . S
C493 C490 1.372 . S
C493 C491 1.390 . S
C493 H503 0.929 . S
C494 O474 1.255 . S
C494 O475 1.257 . S
C495 Eu431 2.787 . S
C495 O470 1.252 . S
C495 O473 1.268 . S
C495 C488 1.506 . S
H496 C479 0.931 . S
H497 C480 0.931 . S
H498 C481 0.929 . S
H499 C482 0.930 . S
H500 C490 0.931 . S
H501 C491 0.931 . S
H502 C492 0.930 . S
H503 C493 0.929 . S
Eu504 N533 2.600 . S
Eu504 N539 2.562 . S
Eu504 O548 2.462 . S
Eu504 O549 2.373 . S
Eu504 O551 2.432 . S
Eu504 O552 2.291 . S
Eu504 O556 2.335 . S
Eu504 O559 2.372 . S
Eu504 C568 2.787 . S
C505 N506 1.365 . S
C505 C508 1.405 . S
C505 C512 1.448 . S
N506 C505 1.365 . S
N506 C509 1.319 . S
N506 Eu515 2.600 . S
C507 C509 1.397 . S
C507 C510 1.367 . S
C507 H527 0.931 . S
C508 C505 1.405 . S
C508 C510 1.403 . S
C508 C514 1.439 . S
C509 N506 1.319 . S
C509 C507 1.397 . S
C509 H520 0.930 . S
C510 C507 1.367 . S
C510 C508 1.403 . S
C510 H531 0.929 . S
C511 C512 1.430 . S
C511 C513 1.387 . S
C511 C517 1.404 . S
C512 C505 1.448 . S
C512 C511 1.430 . S
C512 N516 1.351 . S
C513 C511 1.387 . S
C513 C514 1.374 . S
C513 H528 0.931 . S
C514 C508 1.439 . S
C514 C513 1.374 . S
C514 H529 0.931 . S
Eu515 N506 2.600 . S
Eu515 N516 2.562 . S
Eu515 O550 2.335 . S
Eu515 O553 2.372 . S
Eu515 O554 2.462 . S
Eu515 O555 2.373 . S
Eu515 O557 2.432 . S
Eu515 O558 2.291 . S
Eu515 C579 2.787 . S
N516 C512 1.351 . S
N516 Eu515 2.562 . S
N516 C518 1.325 . S
C517 C511 1.404 . S
C517 C519 1.366 . S
C517 H525 0.930 . S
C518 N516 1.325 . S
C518 C519 1.416 . S
C518 H524 0.929 . S
C519 C517 1.366 . S
C519 C518 1.416 . S
C519 H521 0.930 . S
H520 C509 0.930 . S
H521 C519 0.930 . S
H522 C537 0.930 . S
H523 C544 0.930 . S
H524 C518 0.929 . S
H525 C517 0.930 . S
H526 C540 0.929 . S
H527 C507 0.931 . S
H528 C513 0.931 . S
H529 C514 0.931 . S
H530 C535 0.931 . S
H531 C510 0.929 . S
H532 C543 0.930 . S
N533 Eu504 2.600 . S
N533 C534 1.365 . S
N533 C537 1.319 . S
C534 N533 1.365 . S
C534 C536 1.405 . S
C534 C542 1.448 . S
C535 H530 0.931 . S
C535 C537 1.397 . S
C535 C538 1.367 . S
C536 C534 1.405 . S
C536 C538 1.403 . S
C536 C569 1.439 1_545 S
C537 H522 0.930 . S
C537 N533 1.319 . S
C537 C535 1.397 . S
C538 C535 1.367 . S
C538 C536 1.403 . S
C538 H545 0.929 1_545 S
N539 Eu504 2.562 . S
N539 C540 1.325 . S
N539 C542 1.351 . S
C540 H526 0.929 . S
C540 N539 1.325 . S
C540 C544 1.416 . S
C541 C542 1.412 1_565 S
C541 C543 1.407 . S
C541 C570 1.401 . S
C542 C534 1.448 . S
C542 N539 1.351 . S
C542 C541 1.412 1_545 S
C543 H532 0.930 . S
C543 C541 1.407 . S
C543 C544 1.366 1_565 S
C544 H523 0.930 . S
C544 C540 1.416 . S
C544 C543 1.366 1_545 S
H545 C538 0.929 1_565 S
H546 C569 0.931 . S
H547 C570 0.931 . S
O548 Eu504 2.462 . S
O548 C568 1.252 . S
O549 Eu504 2.373 . S
O549 C560 1.249 . S
O550 Eu515 2.335 . S
O550 C560 1.264 . S
O551 Eu504 2.432 . S
O551 C568 1.268 . S
O552 Eu504 2.291 . S
O552 C567 1.255 . S
O553 Eu515 2.372 . S
O553 C567 1.257 . S
O554 Eu515 2.462 . S
O554 C579 1.252 . S
O555 Eu515 2.373 . S
O555 C571 1.249 . S
O556 Eu504 2.335 . S
O556 C571 1.264 . S
O557 Eu515 2.432 . S
O557 C579 1.268 . S
O558 Eu515 2.291 . S
O558 C578 1.255 . S
O559 Eu504 2.372 . S
O559 C578 1.257 . S
C560 O549 1.249 . S
C560 O550 1.264 . S
C561 C564 1.382 . S
C561 C566 1.390 . S
C561 C568 1.506 . S
C562 C563 1.398 . S
C562 C566 1.392 . S
C563 C562 1.398 . S
C563 C565 1.372 . S
C563 H580 0.931 . S
C564 C561 1.382 . S
C564 C565 1.390 . S
C564 H581 0.931 . S
C565 C563 1.372 . S
C565 C564 1.390 . S
C565 H582 0.929 . S
C566 C561 1.390 . S
C566 C562 1.392 . S
C566 H583 0.930 . S
C567 O552 1.255 . S
C567 O553 1.257 . S
C568 Eu504 2.787 . S
C568 O548 1.252 . S
C568 O551 1.268 . S
C568 C561 1.506 . S
C569 C536 1.439 1_565 S
C569 H546 0.931 . S
C569 C570 1.374 . S
C570 C541 1.401 . S
C570 H547 0.931 . S
C570 C569 1.374 . S
C571 O555 1.249 . S
C571 O556 1.264 . S
C572 C575 1.382 . S
C572 C576 1.390 . S
C572 C579 1.506 . S
C573 C574 1.398 . S
C573 C576 1.392 . S
C574 C573 1.398 . S
C574 C577 1.372 . S
C574 H584 0.931 . S
C575 C572 1.382 . S
C575 C577 1.390 . S
C575 H585 0.931 . S
C576 C572 1.390 . S
C576 C573 1.392 . S
C576 H586 0.930 . S
C577 C574 1.372 . S
C577 C575 1.390 . S
C577 H587 0.929 . S
C578 O558 1.255 . S
C578 O559 1.257 . S
C579 Eu515 2.787 . S
C579 O554 1.252 . S
C579 O557 1.268 . S
C579 C572 1.506 . S
H580 C563 0.931 . S
H581 C564 0.931 . S
H582 C565 0.929 . S
H583 C566 0.930 . S
H584 C574 0.931 . S
H585 C575 0.931 . S
H586 C576 0.930 . S
H587 C577 0.929 . S
Eu588 N617 2.600 . S
Eu588 N623 2.562 . S
Eu588 O632 2.462 . S
Eu588 O633 2.373 . S
Eu588 O635 2.432 . S
Eu588 O636 2.291 . S
Eu588 O640 2.335 . S
Eu588 O643 2.372 . S
Eu588 C652 2.787 . S
C589 N590 1.365 . S
C589 C592 1.405 . S
C589 C596 1.448 . S
N590 C589 1.365 . S
N590 C593 1.319 . S
N590 Eu599 2.600 . S
C591 C593 1.397 . S
C591 C594 1.367 . S
C591 H611 0.931 . S
C592 C589 1.405 . S
C592 C594 1.403 . S
C592 C598 1.439 . S
C593 N590 1.319 . S
C593 C591 1.397 . S
C593 H604 0.930 . S
C594 C591 1.367 . S
C594 C592 1.403 . S
C594 H615 0.929 . S
C595 C596 1.430 . S
C595 C597 1.387 . S
C595 C601 1.404 . S
C596 C589 1.448 . S
C596 C595 1.430 . S
C596 N600 1.351 . S
C597 C595 1.387 . S
C597 C598 1.374 . S
C597 H612 0.931 . S
C598 C592 1.439 . S
C598 C597 1.374 . S
C598 H613 0.931 . S
Eu599 N590 2.600 . S
Eu599 N600 2.562 . S
Eu599 O634 2.335 . S
Eu599 O637 2.372 . S
Eu599 O638 2.462 . S
Eu599 O639 2.373 . S
Eu599 O641 2.432 . S
Eu599 O642 2.291 . S
Eu599 C663 2.787 . S
N600 C596 1.351 . S
N600 Eu599 2.562 . S
N600 C602 1.325 . S
C601 C595 1.404 . S
C601 C603 1.366 . S
C601 H609 0.930 . S
C602 N600 1.325 . S
C602 C603 1.416 . S
C602 H608 0.929 . S
C603 C601 1.366 . S
C603 C602 1.416 . S
C603 H605 0.930 . S
H604 C593 0.930 . S
H605 C603 0.930 . S
H606 C621 0.930 . S
H607 C628 0.930 . S
H608 C602 0.929 . S
H609 C601 0.930 . S
H610 C624 0.929 . S
H611 C591 0.931 . S
H612 C597 0.931 . S
H613 C598 0.931 . S
H614 C619 0.931 . S
H615 C594 0.929 . S
H616 C627 0.930 . S
N617 Eu588 2.600 . S
N617 C618 1.365 . S
N617 C621 1.319 . S
C618 N617 1.365 . S
C618 C620 1.405 1_655 S
C618 C626 1.448 . S
C619 H614 0.931 . S
C619 C621 1.397 . S
C619 C622 1.367 . S
C620 C618 1.405 1_455 S
C620 C622 1.403 1_455 S
C620 C653 1.439 . S
C621 H606 0.930 . S
C621 N617 1.319 . S
C621 C619 1.397 . S
C622 C619 1.367 . S
C622 C620 1.403 1_655 S
C622 H629 0.929 1_655 S
N623 Eu588 2.562 . S
N623 C624 1.325 . S
N623 C626 1.351 . S
C624 H610 0.929 . S
C624 N623 1.325 . S
C624 C628 1.416 . S
C625 C626 1.430 1_455 S
C625 C627 1.404 . S
C625 C654 1.387 . S
C626 C618 1.448 . S
C626 N623 1.351 . S
C626 C625 1.430 1_655 S
C627 H616 0.930 . S
C627 C625 1.404 . S
C627 C628 1.366 1_455 S
C628 H607 0.930 . S
C628 C624 1.416 . S
C628 C627 1.366 1_655 S
H629 C622 0.929 1_455 S
H630 C653 0.931 . S
H631 C654 0.931 . S
O632 Eu588 2.462 . S
O632 C652 1.252 . S
O633 Eu588 2.373 . S
O633 C644 1.249 . S
O634 Eu599 2.335 . S
O634 C644 1.264 . S
O635 Eu588 2.432 . S
O635 C652 1.268 . S
O636 Eu588 2.291 . S
O636 C651 1.255 . S
O637 Eu599 2.372 . S
O637 C651 1.257 . S
O638 Eu599 2.462 . S
O638 C663 1.252 . S
O639 Eu599 2.373 . S
O639 C655 1.249 . S
O640 Eu588 2.335 . S
O640 C655 1.264 . S
O641 Eu599 2.432 . S
O641 C663 1.268 . S
O642 Eu599 2.291 . S
O642 C662 1.255 . S
O643 Eu588 2.372 . S
O643 C662 1.257 . S
C644 O633 1.249 . S
C644 O634 1.264 . S
C645 C648 1.382 . S
C645 C650 1.390 . S
C645 C652 1.506 . S
C646 C647 1.398 . S
C646 C650 1.392 . S
C647 C646 1.398 . S
C647 C649 1.372 . S
C647 H664 0.931 . S
C648 C645 1.382 . S
C648 C649 1.390 . S
C648 H665 0.931 . S
C649 C647 1.372 . S
C649 C648 1.390 . S
C649 H666 0.929 . S
C650 C645 1.390 . S
C650 C646 1.392 . S
C650 H667 0.930 . S
C651 O636 1.255 . S
C651 O637 1.257 . S
C652 Eu588 2.787 . S
C652 O632 1.252 . S
C652 O635 1.268 . S
C652 C645 1.506 . S
C653 C620 1.439 . S
C653 H630 0.931 . S
C653 C654 1.374 . S
C654 C625 1.387 . S
C654 H631 0.931 . S
C654 C653 1.374 . S
C655 O639 1.249 . S
C655 O640 1.264 . S
C656 C659 1.382 . S
C656 C660 1.390 . S
C656 C663 1.506 . S
C657 C658 1.398 . S
C657 C660 1.392 . S
C658 C657 1.398 . S
C658 C661 1.372 . S
C658 H668 0.931 . S
C659 C656 1.382 . S
C659 C661 1.390 . S
C659 H669 0.931 . S
C660 C656 1.390 . S
C660 C657 1.392 . S
C660 H670 0.930 . S
C661 C658 1.372 . S
C661 C659 1.390 . S
C661 H671 0.929 . S
C662 O642 1.255 . S
C662 O643 1.257 . S
C663 Eu599 2.787 . S
C663 O638 1.252 . S
C663 O641 1.268 . S
C663 C656 1.506 . S
H664 C647 0.931 . S
H665 C648 0.931 . S
H666 C649 0.929 . S
H667 C650 0.930 . S
H668 C658 0.931 . S
H669 C659 0.931 . S
H670 C660 0.930 . S
H671 C661 0.929 . S
Eu672 N701 2.600 . S
Eu672 N707 2.562 . S
Eu672 O716 2.462 . S
Eu672 O717 2.373 . S
Eu672 O719 2.432 . S
Eu672 O720 2.291 . S
Eu672 O724 2.335 . S
Eu672 O727 2.372 . S
Eu672 C736 2.787 . S
C673 N674 1.365 . S
C673 C676 1.405 . S
C673 C680 1.448 . S
N674 C673 1.365 . S
N674 C677 1.319 . S
N674 Eu683 2.600 . S
C675 C677 1.397 . S
C675 C678 1.367 . S
C675 H695 0.931 . S
C676 C673 1.405 . S
C676 C678 1.403 . S
C676 C682 1.439 . S
C677 N674 1.319 . S
C677 C675 1.397 . S
C677 H688 0.930 . S
C678 C675 1.367 . S
C678 C676 1.403 . S
C678 H699 0.929 . S
C679 C680 1.430 . S
C679 C681 1.387 . S
C679 C685 1.404 . S
C680 C673 1.448 . S
C680 C679 1.430 . S
C680 N684 1.351 . S
C681 C679 1.387 . S
C681 C682 1.374 . S
C681 H696 0.931 . S
C682 C676 1.439 . S
C682 C681 1.374 . S
C682 H697 0.931 . S
Eu683 N674 2.600 . S
Eu683 N684 2.562 . S
Eu683 O718 2.335 . S
Eu683 O721 2.372 . S
Eu683 O722 2.462 . S
Eu683 O723 2.373 . S
Eu683 O725 2.432 . S
Eu683 O726 2.291 . S
Eu683 C747 2.787 . S
N684 C680 1.351 . S
N684 Eu683 2.562 . S
N684 C686 1.325 . S
C685 C679 1.404 . S
C685 C687 1.366 . S
C685 H693 0.930 . S
C686 N684 1.325 . S
C686 C687 1.416 . S
C686 H692 0.929 . S
C687 C685 1.366 . S
C687 C686 1.416 . S
C687 H689 0.930 . S
H688 C677 0.930 . S
H689 C687 0.930 . S
H690 C705 0.930 . S
H691 C712 0.930 . S
H692 C686 0.929 . S
H693 C685 0.930 . S
H694 C708 0.929 . S
H695 C675 0.931 . S
H696 C681 0.931 . S
H697 C682 0.931 . S
H698 C703 0.931 . S
H699 C678 0.929 . S
H700 C711 0.930 . S
N701 Eu672 2.600 . S
N701 C702 1.365 . S
N701 C705 1.319 . S
C702 N701 1.365 . S
C702 C704 1.405 . S
C702 C710 1.448 . S
C703 H698 0.931 . S
C703 C705 1.397 . S
C703 C706 1.367 . S
C704 C702 1.405 . S
C704 C706 1.403 . S
C704 C737 1.439 . S
C705 H690 0.930 . S
C705 N701 1.319 . S
C705 C703 1.397 . S
C706 C703 1.367 . S
C706 C704 1.403 . S
C706 H713 0.929 . S
N707 Eu672 2.562 . S
N707 C708 1.325 . S
N707 C710 1.351 . S
C708 H694 0.929 . S
C708 N707 1.325 . S
C708 C712 1.416 . S
C709 C710 1.430 . S
C709 C711 1.404 . S
C709 C738 1.387 . S
C710 C702 1.448 . S
C710 N707 1.351 . S
C710 C709 1.430 . S
C711 H700 0.930 . S
C711 C709 1.404 . S
C711 C712 1.366 . S
C712 H691 0.930 . S
C712 C708 1.416 . S
C712 C711 1.366 . S
H713 C706 0.929 . S
H714 C737 0.931 . S
H715 C738 0.931 . S
O716 Eu672 2.462 . S
O716 C736 1.252 . S
O717 Eu672 2.373 . S
O717 C728 1.249 . S
O718 Eu683 2.335 . S
O718 C728 1.264 . S
O719 Eu672 2.432 . S
O719 C736 1.268 . S
O720 Eu672 2.291 . S
O720 C735 1.255 . S
O721 Eu683 2.372 . S
O721 C735 1.257 . S
O722 Eu683 2.462 . S
O722 C747 1.252 . S
O723 Eu683 2.373 . S
O723 C739 1.249 . S
O724 Eu672 2.335 . S
O724 C739 1.264 . S
O725 Eu683 2.432 . S
O725 C747 1.268 . S
O726 Eu683 2.291 . S
O726 C746 1.255 . S
O727 Eu672 2.372 . S
O727 C746 1.257 . S
C728 O717 1.249 . S
C728 O718 1.264 . S
C729 C732 1.382 . S
C729 C734 1.390 . S
C729 C736 1.506 . S
C730 C731 1.398 . S
C730 C734 1.392 . S
C731 C730 1.398 . S
C731 C733 1.372 . S
C731 H748 0.931 . S
C732 C729 1.382 . S
C732 C733 1.390 . S
C732 H749 0.931 . S
C733 C731 1.372 . S
C733 C732 1.390 . S
C733 H750 0.929 . S
C734 C729 1.390 . S
C734 C730 1.392 . S
C734 H751 0.930 . S
C735 O720 1.255 . S
C735 O721 1.257 . S
C736 Eu672 2.787 . S
C736 O716 1.252 . S
C736 O719 1.268 . S
C736 C729 1.506 . S
C737 C704 1.439 . S
C737 H714 0.931 . S
C737 C738 1.374 . S
C738 C709 1.387 . S
C738 H715 0.931 . S
C738 C737 1.374 . S
C739 O723 1.249 . S
C739 O724 1.264 . S
C740 C743 1.382 . S
C740 C744 1.390 . S
C740 C747 1.506 . S
C741 C742 1.398 . S
C741 C744 1.392 . S
C742 C741 1.398 . S
C742 C745 1.372 . S
C742 H752 0.931 . S
C743 C740 1.382 . S
C743 C745 1.390 . S
C743 H753 0.931 . S
C744 C740 1.390 . S
C744 C741 1.392 . S
C744 H754 0.930 . S
C745 C742 1.372 . S
C745 C743 1.390 . S
C745 H755 0.929 . S
C746 O726 1.255 . S
C746 O727 1.257 . S
C747 Eu683 2.787 . S
C747 O722 1.252 . S
C747 O725 1.268 . S
C747 C740 1.506 . S
H748 C731 0.931 . S
H749 C732 0.931 . S
H750 C733 0.929 . S
H751 C734 0.930 . S
H752 C742 0.931 . S
H753 C743 0.931 . S
H754 C744 0.930 . S
H755 C745 0.929 . S
H756 C774 0.951 . S
H757 C776 0.951 . S
H758 C778 0.950 . S
H759 C779 0.950 . S
H760 C781 0.950 . S
H761 C784 0.950 . S
H762 C785 0.950 . S
H763 C787 0.950 . S
H764 C788 0.950 . S
H765 C789 0.951 . S
H766 C791 0.951 . S
H767 C793 0.950 . S
H768 C794 0.946 1_556 S
H769 C796 0.950 . S
H770 C799 0.950 . S
H771 C800 0.950 . S
H772 C802 0.950 . S
H773 C803 0.950 . S
C774 H756 0.951 . S
C774 C775 1.366 . S
C774 C776 1.388 . S
C775 C774 1.366 . S
C775 C779 1.385 1_556 S
C776 H757 0.951 . S
C776 C774 1.388 . S
C776 C777 1.339 1_556 S
C777 C776 1.339 1_554 S
C777 C778 1.437 . S
C777 C780 1.504 . S
C778 H758 0.950 . S
C778 C777 1.437 . S
C778 C779 1.374 . S
C779 H759 0.950 . S
C779 C775 1.385 1_554 S
C779 C778 1.374 . S
C780 C777 1.504 . S
C780 C781 1.373 . S
C780 C782 1.389 1_554 S
C781 H760 0.950 . S
C781 C780 1.373 . S
C781 C797 1.377 . S
C782 C780 1.389 1_556 S
C782 C783 1.524 . S
C782 C796 1.377 . S
C783 C782 1.524 . S
C783 C784 1.397 . S
C783 C788 1.363 . S
C784 H761 0.950 . S
C784 C783 1.397 . S
C784 C785 1.334 . S
C785 H762 0.950 . S
C785 C784 1.334 . S
C785 C786 1.287 . S
C786 C785 1.287 . S
C786 C787 1.524 . S
C786 H805 0.913 . S
C787 H763 0.950 . S
C787 C786 1.524 . S
C787 C788 1.415 . S
C788 H764 0.950 . S
C788 C783 1.363 . S
C788 C787 1.415 . S
C789 H765 0.951 . S
C789 C790 1.366 . S
C789 C791 1.388 . S
C790 C789 1.366 . S
C790 C794 1.390 . S
C791 H766 0.951 . S
C791 C789 1.388 . S
C791 C792 1.366 . S
C792 C791 1.366 . S
C792 C793 1.414 1_554 S
C792 C795 1.499 . S
C793 H767 0.950 . S
C793 C792 1.414 1_556 S
C793 C794 1.373 1_556 S
C794 H768 0.946 1_554 S
C794 C790 1.390 . S
C794 C793 1.373 1_554 S
C795 C792 1.499 . S
C795 C796 1.373 1_554 S
C795 C797 1.389 . S
C796 H769 0.950 . S
C796 C782 1.377 . S
C796 C795 1.373 1_556 S
C797 C781 1.377 . S
C797 C795 1.389 . S
C797 C798 1.524 . S
C798 C797 1.524 . S
C798 C799 1.397 . S
C798 C803 1.363 . S
C799 H770 0.950 . S
C799 C798 1.397 . S
C799 C800 1.334 . S
C800 H771 0.950 . S
C800 C799 1.334 . S
C800 C801 1.287 . S
C801 C800 1.287 . S
C801 C802 1.524 . S
C801 H804 0.999 . S
C802 H772 0.950 . S
C802 C801 1.524 . S
C802 C803 1.415 . S
C803 H773 0.950 . S
C803 C798 1.363 . S
C803 C802 1.415 . S
H804 C801 0.999 . S
H805 C786 0.913 . S
H806 C824 0.951 . S
H807 C826 0.951 . S
H808 C828 0.951 . S
H809 C829 0.950 . S
H810 C831 0.950 . S
H811 C834 0.950 . S
H812 C835 0.950 . S
H813 C837 0.950 . S
H814 C838 0.950 . S
H815 C839 0.951 . S
H816 C841 0.951 . S
H817 C843 0.950 . S
H818 C844 0.950 . S
H819 C846 0.950 . S
H820 C849 0.950 . S
H821 C850 0.950 . S
H822 C852 0.950 . S
H823 C853 0.950 . S
C824 H806 0.951 . S
C824 C825 1.366 . S
C824 C826 1.386 1_556 S
C825 C824 1.366 . S
C825 C829 1.385 . S
C826 H807 0.951 . S
C826 C824 1.386 1_554 S
C826 C827 1.367 . S
C827 C826 1.367 . S
C827 C828 1.415 . S
C827 C830 1.499 . S
C828 H808 0.951 . S
C828 C827 1.415 . S
C828 C829 1.372 1_554 S
C829 H809 0.950 . S
C829 C825 1.385 . S
C829 C828 1.372 1_556 S
C830 C827 1.499 . S
C830 C831 1.373 1_554 S
C830 C832 1.389 . S
C831 H810 0.950 . S
C831 C830 1.373 1_556 S
C831 C847 1.377 . S
C832 C830 1.389 . S
C832 C833 1.524 . S
C832 C846 1.377 . S
C833 C832 1.524 . S
C833 C834 1.397 . S
C833 C838 1.363 . S
C834 H811 0.950 . S
C834 C833 1.397 . S
C834 C835 1.334 . S
C835 H812 0.950 . S
C835 C834 1.334 . S
C835 C836 1.287 . S
C836 C835 1.287 . S
C836 C837 1.524 . S
C836 H855 0.913 . S
C837 H813 0.950 . S
C837 C836 1.524 . S
C837 C838 1.415 . S
C838 H814 0.950 . S
C838 C833 1.363 . S
C838 C837 1.415 . S
C839 H815 0.951 . S
C839 C840 1.366 . S
C839 C841 1.388 . S
C840 C839 1.366 . S
C840 C844 1.385 . S
C841 H816 0.951 . S
C841 C839 1.388 . S
C841 C842 1.366 . S
C842 C841 1.366 . S
C842 C843 1.414 . S
C842 C845 1.499 . S
C843 H817 0.950 . S
C843 C842 1.414 . S
C843 C844 1.374 . S
C844 H818 0.950 . S
C844 C840 1.385 . S
C844 C843 1.374 . S
C845 C842 1.499 . S
C845 C846 1.373 . S
C845 C847 1.389 1_554 S
C846 H819 0.950 . S
C846 C832 1.377 . S
C846 C845 1.373 . S
C847 C831 1.377 . S
C847 C845 1.389 1_556 S
C847 C848 1.524 . S
C848 C847 1.524 . S
C848 C849 1.397 . S
C848 C853 1.363 . S
C849 H820 0.950 . S
C849 C848 1.397 . S
C849 C850 1.334 . S
C850 H821 0.950 . S
C850 C849 1.334 . S
C850 C851 1.287 . S
C851 C850 1.287 . S
C851 C852 1.524 . S
C851 H854 0.999 . S
C852 H822 0.950 . S
C852 C851 1.524 . S
C852 C853 1.415 . S
C853 H823 0.950 . S
C853 C848 1.363 . S
C853 C852 1.415 . S
H854 C851 0.999 . S
H855 C836 0.913 . S
H856 C874 0.951 . S
H857 C876 0.951 . S
H858 C878 0.950 . S
H859 C879 0.950 . S
H860 C881 0.950 . S
H861 C884 0.950 1_554 S
H862 C885 0.950 . S
H863 C887 0.950 . S
H864 C888 0.950 . S
H865 C889 0.951 . S
H866 C891 0.951 . S
H867 C893 0.950 . S
H868 C894 0.950 . S
H869 C896 0.950 . S
H870 C899 0.950 . S
H871 C900 0.950 . S
H872 C902 0.950 . S
H873 C903 0.950 . S
C874 H856 0.951 . S
C874 C875 1.366 1_556 S
C874 C876 1.388 . S
C875 C874 1.366 1_554 S
C875 C879 1.385 . S
C876 H857 0.951 . S
C876 C874 1.388 . S
C876 C877 1.366 1_556 S
C877 C876 1.366 1_554 S
C877 C878 1.414 . S
C877 C880 1.499 . S
C878 H858 0.950 . S
C878 C877 1.414 . S
C878 C879 1.374 . S
C879 H859 0.950 . S
C879 C875 1.385 . S
C879 C878 1.374 . S
C880 C877 1.499 . S
C880 C881 1.373 . S
C880 C882 1.389 1_554 S
C881 H860 0.950 . S
C881 C880 1.373 . S
C881 C897 1.377 . S
C882 C880 1.389 1_556 S
C882 C883 1.524 . S
C882 C896 1.377 . S
C883 C882 1.524 . S
C883 C884 1.397 . S
C883 C888 1.363 . S
C884 H861 0.950 1_556 S
C884 C883 1.397 . S
C884 C885 1.334 . S
C885 H862 0.950 . S
C885 C884 1.334 . S
C885 C886 1.287 . S
C886 C885 1.287 . S
C886 C887 1.524 . S
C886 H905 0.913 . S
C887 H863 0.950 . S
C887 C886 1.524 . S
C887 C888 1.415 . S
C888 H864 0.950 . S
C888 C883 1.363 . S
C888 C887 1.415 . S
C889 H865 0.951 . S
C889 C890 1.366 1_554 S
C889 C891 1.388 . S
C890 C889 1.366 1_556 S
C890 C894 1.385 . S
C891 H866 0.951 . S
C891 C889 1.388 . S
C891 C892 1.366 . S
C892 C891 1.366 . S
C892 C893 1.414 1_554 S
C892 C895 1.499 . S
C893 H867 0.950 . S
C893 C892 1.414 1_556 S
C893 C894 1.374 . S
C894 H868 0.950 . S
C894 C890 1.385 . S
C894 C893 1.374 . S
C895 C892 1.499 . S
C895 C896 1.373 1_554 S
C895 C897 1.389 . S
C896 H869 0.950 . S
C896 C882 1.377 . S
C896 C895 1.373 1_556 S
C897 C881 1.377 . S
C897 C895 1.389 . S
C897 C898 1.524 . S
C898 C897 1.524 . S
C898 C899 1.397 . S
C898 C903 1.363 . S
C899 H870 0.950 . S
C899 C898 1.397 . S
C899 C900 1.334 . S
C900 H871 0.950 . S
C900 C899 1.334 . S
C900 C901 1.287 . S
C901 C900 1.287 . S
C901 C902 1.524 . S
C901 H904 0.999 . S
C902 H872 0.950 . S
C902 C901 1.524 . S
C902 C903 1.415 . S
C903 H873 0.950 . S
C903 C898 1.363 . S
C903 C902 1.415 . S
H904 C901 0.999 . S
H905 C886 0.913 . S
H906 C924 0.951 . S
H907 C926 0.951 . S
H908 C928 0.950 . S
H909 C929 0.950 . S
H910 C931 0.950 . S
H911 C934 0.945 1_554 S
H912 C935 0.950 1_554 S
H913 C937 0.950 . S
H914 C938 0.950 . S
H915 C939 0.951 . S
H916 C941 0.951 . S
H917 C943 0.950 . S
H918 C944 0.950 . S
H919 C946 0.950 . S
H920 C949 0.950 . S
H921 C950 0.950 . S
H922 C952 0.950 . S
H923 C953 0.950 . S
C924 H906 0.951 . S
C924 C925 1.366 1_556 S
C924 C926 1.388 . S
C925 C924 1.366 1_554 S
C925 C929 1.385 . S
C926 H907 0.951 . S
C926 C924 1.388 . S
C926 C927 1.366 1_556 S
C927 C926 1.366 1_554 S
C927 C928 1.414 . S
C927 C930 1.502 . S
C928 H908 0.950 . S
C928 C927 1.414 . S
C928 C929 1.374 . S
C929 H909 0.950 . S
C929 C925 1.385 . S
C929 C928 1.374 . S
C930 C927 1.502 . S
C930 C931 1.384 . S
C930 C932 1.374 1_554 S
C931 H910 0.950 . S
C931 C930 1.384 . S
C931 C947 1.377 . S
C932 C930 1.374 1_556 S
C932 C933 1.524 . S
C932 C946 1.377 . S
C933 C932 1.524 . S
C933 C934 1.400 . S
C933 C938 1.363 . S
C934 H911 0.945 1_556 S
C934 C933 1.400 . S
C934 C935 1.335 . S
C935 H912 0.950 1_556 S
C935 C934 1.335 . S
C935 C936 1.287 . S
C936 C935 1.287 . S
C936 C937 1.524 . S
C936 H955 0.913 . S
C937 H913 0.950 . S
C937 C936 1.524 . S
C937 C938 1.415 . S
C938 H914 0.950 . S
C938 C933 1.363 . S
C938 C937 1.415 . S
C939 H915 0.951 . S
C939 C940 1.366 1_554 S
C939 C941 1.388 . S
C940 C939 1.366 1_556 S
C940 C944 1.385 . S
C941 H916 0.951 . S
C941 C939 1.388 . S
C941 C942 1.366 1_554 S
C942 C941 1.366 1_556 S
C942 C943 1.414 . S
C942 C945 1.499 . S
C943 H917 0.950 . S
C943 C942 1.414 . S
C943 C944 1.374 . S
C944 H918 0.950 . S
C944 C940 1.385 . S
C944 C943 1.374 . S
C945 C942 1.499 . S
C945 C946 1.373 . S
C945 C947 1.389 1_556 S
C946 H919 0.950 . S
C946 C932 1.377 . S
C946 C945 1.373 . S
C947 C931 1.377 . S
C947 C945 1.389 1_554 S
C947 C948 1.524 . S
C948 C947 1.524 . S
C948 C949 1.397 1_554 S
C948 C953 1.363 . S
C949 H920 0.950 . S
C949 C948 1.397 1_556 S
C949 C950 1.334 . S
C950 H921 0.950 . S
C950 C949 1.334 . S
C950 C951 1.287 1_556 S
C951 C950 1.287 1_554 S
C951 C952 1.524 . S
C951 H954 0.999 . S
C952 H922 0.950 . S
C952 C951 1.524 . S
C952 C953 1.415 . S
C953 H923 0.950 . S
C953 C948 1.363 . S
C953 C952 1.415 . S
H954 C951 0.999 . S
H955 C936 0.913 . S
H956 C974 0.951 . S
H957 C976 0.951 . S
H958 C978 0.957 . S
H959 C979 0.950 . S
H960 C981 0.950 . S
H961 C984 0.950 . S
H962 C985 0.950 . S
H963 C987 0.950 . S
H964 C988 0.950 . S
H965 C989 0.951 . S
H966 C991 0.951 . S
H967 C993 0.950 . S
H968 C994 0.950 1_556 S
H969 C996 0.950 . S
H970 C999 0.950 . S
H971 C1000 0.950 . S
H972 C1002 0.950 . S
H973 C1003 0.950 . S
C974 H956 0.951 . S
C974 C975 1.366 . S
C974 C976 1.388 . S
C975 C974 1.366 . S
C975 C979 1.385 . S
C976 H957 0.951 . S
C976 C974 1.388 . S
C976 C977 1.366 . S
C977 C976 1.366 . S
C977 C978 1.414 . S
C977 C980 1.499 . S
C978 H958 0.957 . S
C978 C977 1.414 . S
C978 C979 1.374 . S
C979 H959 0.950 . S
C979 C975 1.385 . S
C979 C978 1.374 . S
C980 C977 1.499 . S
C980 C981 1.373 . S
C980 C982 1.389 1_556 S
C981 H960 0.950 . S
C981 C980 1.373 . S
C981 C997 1.377 . S
C982 C980 1.389 1_554 S
C982 C983 1.524 . S
C982 C996 1.377 . S
C983 C982 1.524 . S
C983 C984 1.397 . S
C983 C988 1.363 . S
C984 H961 0.950 . S
C984 C983 1.397 . S
C984 C985 1.334 . S
C985 H962 0.950 . S
C985 C984 1.334 . S
C985 C986 1.287 . S
C986 C985 1.287 . S
C986 C987 1.524 . S
C986 H1005 0.913 . S
C987 H963 0.950 . S
C987 C986 1.524 . S
C987 C988 1.415 . S
C988 H964 0.950 . S
C988 C983 1.363 . S
C988 C987 1.415 . S
C989 H965 0.951 . S
C989 C990 1.366 . S
C989 C991 1.388 . S
C990 C989 1.366 . S
C990 C994 1.385 . S
C991 H966 0.951 . S
C991 C989 1.388 . S
C991 C992 1.366 . S
C992 C991 1.366 . S
C992 C993 1.414 1_554 S
C992 C995 1.499 1_554 S
C993 H967 0.950 . S
C993 C992 1.414 1_556 S
C993 C994 1.374 1_556 S
C994 H968 0.950 1_554 S
C994 C990 1.385 . S
C994 C993 1.374 1_554 S
C995 C992 1.499 1_556 S
C995 C996 1.373 1_556 S
C995 C997 1.389 . S
C996 H969 0.950 . S
C996 C982 1.377 . S
C996 C995 1.373 1_554 S
C997 C981 1.377 . S
C997 C995 1.389 . S
C997 C998 1.524 . S
C998 C997 1.524 . S
C998 C999 1.397 . S
C998 C1003 1.363 . S
C999 H970 0.950 . S
C999 C998 1.397 . S
C999 C1000 1.334 . S
C1000 H971 0.950 . S
C1000 C999 1.334 . S
C1000 C1001 1.287 . S
C1001 C1000 1.287 . S
C1001 C1002 1.524 . S
C1001 H1004 0.999 . S
C1002 H972 0.950 . S
C1002 C1001 1.524 . S
C1002 C1003 1.415 . S
C1003 H973 0.950 . S
C1003 C998 1.363 . S
C1003 C1002 1.415 . S
H1004 C1001 0.999 . S
H1005 C986 0.913 . S
H1006 C1024 0.973 . S
H1007 C1026 0.951 . S
H1008 C1028 0.950 . S
H1009 C1029 0.950 . S
H1010 C1031 0.950 . S
H1011 C1034 0.950 . S
H1012 C1035 0.950 . S
H1013 C1037 0.950 . S
H1014 C1038 0.950 . S
H1015 C1039 0.951 . S
H1016 C1041 0.951 . S
H1017 C1043 0.950 . S
H1018 C1044 0.950 . S
H1019 C1046 0.950 . S
H1020 C1049 0.950 . S
H1021 C1050 0.950 . S
H1022 C1052 0.950 . S
H1023 C1053 0.950 . S
C1024 H1006 0.973 . S
C1024 C1025 1.340 1_554 S
C1024 C1026 1.394 . S
C1025 C1024 1.340 1_556 S
C1025 C1029 1.385 . S
C1026 H1007 0.951 . S
C1026 C1024 1.394 . S
C1026 C1027 1.366 1_554 S
C1027 C1026 1.366 1_556 S
C1027 C1028 1.414 . S
C1027 C1030 1.499 . S
C1028 H1008 0.950 . S
C1028 C1027 1.414 . S
C1028 C1029 1.374 . S
C1029 H1009 0.950 . S
C1029 C1025 1.385 . S
C1029 C1028 1.374 . S
C1030 C1027 1.499 . S
C1030 C1031 1.373 . S
C1030 C1032 1.389 1_556 S
C1031 H1010 0.950 . S
C1031 C1030 1.373 . S
C1031 C1047 1.377 . S
C1032 C1030 1.389 1_554 S
C1032 C1033 1.524 . S
C1032 C1046 1.377 . S
C1033 C1032 1.524 . S
C1033 C1034 1.397 . S
C1033 C1038 1.363 . S
C1034 H1011 0.950 . S
C1034 C1033 1.397 . S
C1034 C1035 1.334 . S
C1035 H1012 0.950 . S
C1035 C1034 1.334 . S
C1035 C1036 1.287 . S
C1036 C1035 1.287 . S
C1036 C1037 1.524 . S
C1036 H1055 0.913 . S
C1037 H1013 0.950 . S
C1037 C1036 1.524 . S
C1037 C1038 1.415 . S
C1038 H1014 0.950 . S
C1038 C1033 1.363 . S
C1038 C1037 1.415 . S
C1039 H1015 0.951 . S
C1039 C1040 1.366 1_556 S
C1039 C1041 1.388 . S
C1040 C1039 1.366 1_554 S
C1040 C1044 1.385 . S
C1041 H1016 0.951 . S
C1041 C1039 1.388 . S
C1041 C1042 1.366 1_556 S
C1042 C1041 1.366 1_554 S
C1042 C1043 1.414 . S
C1042 C1045 1.495 1_554 S
C1043 H1017 0.950 . S
C1043 C1042 1.414 . S
C1043 C1044 1.374 . S
C1044 H1018 0.950 . S
C1044 C1040 1.385 . S
C1044 C1043 1.374 . S
C1045 C1042 1.495 1_556 S
C1045 C1046 1.341 1_556 S
C1045 C1047 1.426 . S
C1046 H1019 0.950 . S
C1046 C1032 1.377 . S
C1046 C1045 1.341 1_554 S
C1047 C1031 1.377 . S
C1047 C1045 1.426 . S
C1047 C1048 1.524 . S
C1048 C1047 1.524 . S
C1048 C1049 1.397 . S
C1048 C1053 1.363 . S
C1049 H1020 0.950 . S
C1049 C1048 1.397 . S
C1049 C1050 1.334 . S
C1050 H1021 0.950 . S
C1050 C1049 1.334 . S
C1050 C1051 1.287 . S
C1051 C1050 1.287 . S
C1051 C1052 1.524 . S
C1051 H1054 0.999 . S
C1052 H1022 0.950 . S
C1052 C1051 1.524 . S
C1052 C1053 1.415 . S
C1053 H1023 0.950 . S
C1053 C1048 1.363 . S
C1053 C1052 1.415 . S
H1054 C1051 0.999 . S
H1055 C1036 0.913 . S
H1056 C1074 0.951 . S
H1057 C1076 0.951 . S
H1058 C1078 0.950 . S
H1059 C1079 0.950 . S
H1060 C1081 0.950 . S
H1061 C1084 0.950 . S
H1062 C1085 0.950 . S
H1063 C1087 0.950 . S
H1064 C1088 0.950 . S
H1065 C1089 0.951 . S
H1066 C1091 0.951 . S
H1067 C1093 0.950 . S
H1068 C1094 0.950 . S
H1069 C1096 0.950 . S
H1070 C1099 0.950 . S
H1071 C1100 0.950 . S
H1072 C1102 0.950 . S
H1073 C1103 0.950 1_655 S
C1074 H1056 0.951 . S
C1074 C1075 1.366 . S
C1074 C1076 1.388 . S
C1075 C1074 1.366 . S
C1075 C1079 1.385 . S
C1076 H1057 0.951 . S
C1076 C1074 1.388 . S
C1076 C1077 1.366 . S
C1077 C1076 1.366 . S
C1077 C1078 1.414 . S
C1077 C1080 1.499 . S
C1078 H1058 0.950 . S
C1078 C1077 1.414 . S
C1078 C1079 1.374 . S
C1079 H1059 0.950 . S
C1079 C1075 1.385 . S
C1079 C1078 1.374 . S
C1080 C1077 1.499 . S
C1080 C1081 1.373 . S
C1080 C1082 1.389 . S
C1081 H1060 0.950 . S
C1081 C1080 1.373 . S
C1081 C1097 1.377 1_655 S
C1082 C1080 1.389 . S
C1082 C1083 1.524 . S
C1082 C1096 1.377 1_655 S
C1083 C1082 1.524 . S
C1083 C1084 1.397 . S
C1083 C1088 1.363 . S
C1084 H1061 0.950 . S
C1084 C1083 1.397 . S
C1084 C1085 1.334 . S
C1085 H1062 0.950 . S
C1085 C1084 1.334 . S
C1085 C1086 1.287 . S
C1086 C1085 1.287 . S
C1086 C1087 1.524 . S
C1086 H1105 0.913 . S
C1087 H1063 0.950 . S
C1087 C1086 1.524 . S
C1087 C1088 1.415 . S
C1088 H1064 0.950 . S
C1088 C1083 1.363 . S
C1088 C1087 1.415 . S
C1089 H1065 0.951 . S
C1089 C1090 1.366 . S
C1089 C1091 1.388 . S
C1090 C1089 1.366 . S
C1090 C1094 1.385 . S
C1091 H1066 0.951 . S
C1091 C1089 1.388 . S
C1091 C1092 1.366 . S
C1092 C1091 1.366 . S
C1092 C1093 1.414 . S
C1092 C1095 1.499 . S
C1093 H1067 0.950 . S
C1093 C1092 1.414 . S
C1093 C1094 1.374 . S
C1094 H1068 0.950 . S
C1094 C1090 1.385 . S
C1094 C1093 1.374 . S
C1095 C1092 1.499 . S
C1095 C1096 1.373 . S
C1095 C1097 1.389 . S
C1096 H1069 0.950 . S
C1096 C1082 1.377 1_455 S
C1096 C1095 1.373 . S
C1097 C1081 1.377 1_455 S
C1097 C1095 1.389 . S
C1097 C1098 1.524 . S
C1098 C1097 1.524 . S
C1098 C1099 1.397 . S
C1098 C1103 1.363 . S
C1099 H1070 0.950 . S
C1099 C1098 1.397 . S
C1099 C1100 1.334 . S
C1100 H1071 0.950 . S
C1100 C1099 1.334 . S
C1100 C1101 1.287 . S
C1101 C1100 1.287 . S
C1101 C1102 1.524 . S
C1101 H1104 0.999 . S
C1102 H1072 0.950 . S
C1102 C1101 1.524 . S
C1102 C1103 1.415 . S
C1103 H1073 0.950 1_455 S
C1103 C1098 1.363 . S
C1103 C1102 1.415 . S
H1104 C1101 0.999 . S
H1105 C1086 0.913 . S
H1106 C1124 0.951 . S
H1107 C1126 0.951 . S
H1108 C1128 0.950 . S
H1109 C1129 0.950 . S
H1110 C1131 0.950 . S
H1111 C1134 0.950 . S
H1112 C1135 0.950 . S
H1113 C1137 0.950 . S
H1114 C1138 0.950 . S
H1115 C1139 0.951 . S
H1116 C1141 0.951 . S
H1117 C1143 0.950 . S
H1118 C1144 0.950 . S
H1119 C1146 0.950 . S
H1120 C1149 0.950 . S
H1121 C1150 0.950 . S
H1122 C1152 0.950 . S
H1123 C1153 0.950 . S
C1124 H1106 0.951 . S
C1124 C1125 1.366 . S
C1124 C1126 1.388 . S
C1125 C1124 1.366 . S
C1125 C1129 1.385 . S
C1126 H1107 0.951 . S
C1126 C1124 1.388 . S
C1126 C1127 1.366 . S
C1127 C1126 1.366 . S
C1127 C1128 1.414 . S
C1127 C1130 1.499 . S
C1128 H1108 0.950 . S
C1128 C1127 1.414 . S
C1128 C1129 1.374 . S
C1129 H1109 0.950 . S
C1129 C1125 1.385 . S
C1129 C1128 1.374 . S
C1130 C1127 1.499 . S
C1130 C1131 1.373 . S
C1130 C1132 1.389 . S
C1131 H1110 0.950 . S
C1131 C1130 1.373 . S
C1131 C1147 1.377 . S
C1132 C1130 1.389 . S
C1132 C1133 1.524 . S
C1132 C1146 1.377 . S
C1133 C1132 1.524 . S
C1133 C1134 1.397 . S
C1133 C1138 1.363 . S
C1134 H1111 0.950 . S
C1134 C1133 1.397 . S
C1134 C1135 1.334 . S
C1135 H1112 0.950 . S
C1135 C1134 1.334 . S
C1135 C1136 1.287 . S
C1136 C1135 1.287 . S
C1136 C1137 1.524 . S
C1136 H1155 0.913 . S
C1137 H1113 0.950 . S
C1137 C1136 1.524 . S
C1137 C1138 1.415 . S
C1138 H1114 0.950 . S
C1138 C1133 1.363 . S
C1138 C1137 1.415 . S
C1139 H1115 0.951 . S
C1139 C1140 1.366 . S
C1139 C1141 1.388 . S
C1140 C1139 1.366 . S
C1140 C1144 1.385 . S
C1141 H1116 0.951 . S
C1141 C1139 1.388 . S
C1141 C1142 1.366 . S
C1142 C1141 1.366 . S
C1142 C1143 1.414 . S
C1142 C1145 1.499 . S
C1143 H1117 0.950 . S
C1143 C1142 1.414 . S
C1143 C1144 1.374 . S
C1144 H1118 0.950 . S
C1144 C1140 1.385 . S
C1144 C1143 1.374 . S
C1145 C1142 1.499 . S
C1145 C1146 1.373 . S
C1145 C1147 1.389 . S
C1146 H1119 0.950 . S
C1146 C1132 1.377 . S
C1146 C1145 1.373 . S
C1147 C1131 1.377 . S
C1147 C1145 1.389 . S
C1147 C1148 1.524 . S
C1148 C1147 1.524 . S
C1148 C1149 1.397 . S
C1148 C1153 1.363 . S
C1149 H1120 0.950 . S
C1149 C1148 1.397 . S
C1149 C1150 1.334 . S
C1150 H1121 0.950 . S
C1150 C1149 1.334 . S
C1150 C1151 1.287 . S
C1151 C1150 1.287 . S
C1151 C1152 1.524 . S
C1151 H1154 0.999 . S
C1152 H1122 0.950 . S
C1152 C1151 1.524 . S
C1152 C1153 1.415 . S
C1153 H1123 0.950 . S
C1153 C1148 1.363 . S
C1153 C1152 1.415 . S
H1154 C1151 0.999 . S
H1155 C1136 0.913 . S
H1156 C1174 0.951 . S
H1157 C1176 0.951 . S
H1158 C1178 0.950 . S
H1159 C1179 0.950 . S
H1160 C1181 0.950 . S
H1161 C1184 0.950 . S
H1162 C1185 0.950 . S
H1163 C1187 0.950 . S
H1164 C1188 0.950 . S
H1165 C1189 0.951 . S
H1166 C1191 0.951 . S
H1167 C1193 0.950 . S
H1168 C1194 0.950 . S
H1169 C1196 0.950 1_565 S
H1170 C1199 0.950 . S
H1171 C1200 0.950 . S
H1172 C1202 0.950 . S
H1173 C1203 0.950 . S
C1174 H1156 0.951 . S
C1174 C1175 1.366 . S
C1174 C1176 1.388 . S
C1175 C1174 1.366 . S
C1175 C1179 1.385 . S
C1176 H1157 0.951 . S
C1176 C1174 1.388 . S
C1176 C1177 1.366 . S
C1177 C1176 1.366 . S
C1177 C1178 1.414 . S
C1177 C1180 1.499 . S
C1178 H1158 0.950 . S
C1178 C1177 1.414 . S
C1178 C1179 1.374 . S
C1179 H1159 0.950 . S
C1179 C1175 1.385 . S
C1179 C1178 1.374 . S
C1180 C1177 1.499 . S
C1180 C1181 1.373 . S
C1180 C1182 1.389 . S
C1181 H1160 0.950 . S
C1181 C1180 1.373 . S
C1181 C1197 1.377 . S
C1182 C1180 1.389 . S
C1182 C1183 1.524 . S
C1182 C1196 1.377 . S
C1183 C1182 1.524 . S
C1183 C1184 1.397 . S
C1183 C1188 1.363 . S
C1184 H1161 0.950 . S
C1184 C1183 1.397 . S
C1184 C1185 1.334 . S
C1185 H1162 0.950 . S
C1185 C1184 1.334 . S
C1185 C1186 1.287 . S
C1186 C1185 1.287 . S
C1186 C1187 1.524 . S
C1186 H1205 0.913 . S
C1187 H1163 0.950 . S
C1187 C1186 1.524 . S
C1187 C1188 1.415 . S
C1188 H1164 0.950 . S
C1188 C1183 1.363 . S
C1188 C1187 1.415 . S
C1189 H1165 0.951 . S
C1189 C1190 1.366 . S
C1189 C1191 1.388 . S
C1190 C1189 1.366 . S
C1190 C1194 1.385 . S
C1191 H1166 0.951 . S
C1191 C1189 1.388 . S
C1191 C1192 1.366 . S
C1192 C1191 1.366 . S
C1192 C1193 1.414 . S
C1192 C1195 1.499 . S
C1193 H1167 0.950 . S
C1193 C1192 1.414 . S
C1193 C1194 1.374 . S
C1194 H1168 0.950 . S
C1194 C1190 1.385 . S
C1194 C1193 1.374 . S
C1195 C1192 1.499 . S
C1195 C1196 1.373 1_565 S
C1195 C1197 1.389 1_565 S
C1196 H1169 0.950 1_545 S
C1196 C1182 1.377 . S
C1196 C1195 1.373 1_545 S
C1197 C1181 1.377 . S
C1197 C1195 1.389 1_545 S
C1197 C1198 1.524 1_545 S
C1198 C1197 1.524 1_565 S
C1198 C1199 1.397 . S
C1198 C1203 1.363 . S
C1199 H1170 0.950 . S
C1199 C1198 1.397 . S
C1199 C1200 1.334 . S
C1200 H1171 0.950 . S
C1200 C1199 1.334 . S
C1200 C1201 1.287 . S
C1201 C1200 1.287 . S
C1201 C1202 1.524 . S
C1201 H1204 0.999 . S
C1202 H1172 0.950 . S
C1202 C1201 1.524 . S
C1202 C1203 1.415 . S
C1203 H1173 0.950 . S
C1203 C1198 1.363 . S
C1203 C1202 1.415 . S
H1204 C1201 0.999 . S
H1205 C1186 0.913 . S
H1206 C1224 0.951 . S
H1207 C1226 0.951 . S
H1208 C1228 0.950 . S
H1209 C1229 0.950 . S
H1210 C1231 0.950 . S
H1211 C1234 0.950 . S
H1212 C1235 0.950 . S
H1213 C1237 0.950 . S
H1214 C1238 0.950 . S
H1215 C1239 0.951 . S
H1216 C1241 0.951 . S
H1217 C1243 0.950 . S
H1218 C1244 0.950 . S
H1219 C1246 0.950 . S
H1220 C1249 0.950 . S
H1221 C1250 0.950 . S
H1222 C1252 0.950 . S
H1223 C1253 0.950 . S
C1224 H1206 0.951 . S
C1224 C1225 1.366 . S
C1224 C1226 1.388 . S
C1225 C1224 1.366 . S
C1225 C1229 1.385 . S
C1226 H1207 0.951 . S
C1226 C1224 1.388 . S
C1226 C1227 1.366 . S
C1227 C1226 1.366 . S
C1227 C1228 1.414 . S
C1227 C1230 1.499 . S
C1228 H1208 0.950 . S
C1228 C1227 1.414 . S
C1228 C1229 1.374 . S
C1229 H1209 0.950 . S
C1229 C1225 1.385 . S
C1229 C1228 1.374 . S
C1230 C1227 1.499 . S
C1230 C1231 1.373 . S
C1230 C1232 1.389 . S
C1231 H1210 0.950 . S
C1231 C1230 1.373 . S
C1231 C1247 1.377 . S
C1232 C1230 1.389 . S
C1232 C1233 1.524 . S
C1232 C1246 1.377 . S
C1233 C1232 1.524 . S
C1233 C1234 1.397 . S
C1233 C1238 1.363 . S
C1234 H1211 0.950 . S
C1234 C1233 1.397 . S
C1234 C1235 1.334 . S
C1235 H1212 0.950 . S
C1235 C1234 1.334 . S
C1235 C1236 1.287 . S
C1236 C1235 1.287 . S
C1236 C1237 1.524 . S
C1236 H1255 0.913 . S
C1237 H1213 0.950 . S
C1237 C1236 1.524 . S
C1237 C1238 1.415 . S
C1238 H1214 0.950 . S
C1238 C1233 1.363 . S
C1238 C1237 1.415 . S
C1239 H1215 0.951 . S
C1239 C1240 1.366 . S
C1239 C1241 1.388 . S
C1240 C1239 1.366 . S
C1240 C1244 1.385 . S
C1241 H1216 0.951 . S
C1241 C1239 1.388 . S
C1241 C1242 1.366 . S
C1242 C1241 1.366 . S
C1242 C1243 1.414 . S
C1242 C1245 1.499 . S
C1243 H1217 0.950 . S
C1243 C1242 1.414 . S
C1243 C1244 1.374 . S
C1244 H1218 0.950 . S
C1244 C1240 1.385 . S
C1244 C1243 1.374 . S
C1245 C1242 1.499 . S
C1245 C1246 1.373 . S
C1245 C1247 1.389 . S
C1246 H1219 0.950 . S
C1246 C1232 1.377 . S
C1246 C1245 1.373 . S
C1247 C1231 1.377 . S
C1247 C1245 1.389 . S
C1247 C1248 1.524 . S
C1248 C1247 1.524 . S
C1248 C1249 1.397 . S
C1248 C1253 1.363 . S
C1249 H1220 0.950 . S
C1249 C1248 1.397 . S
C1249 C1250 1.334 . S
C1250 H1221 0.950 . S
C1250 C1249 1.334 . S
C1250 C1251 1.287 . S
C1251 C1250 1.287 . S
C1251 C1252 1.524 . S
C1251 H1254 0.999 . S
C1252 H1222 0.950 . S
C1252 C1251 1.524 . S
C1252 C1253 1.415 . S
C1253 H1223 0.950 . S
C1253 C1248 1.363 . S
C1253 C1252 1.415 . S
H1254 C1251 0.999 . S
H1255 C1236 0.913 . S
H1256 C1274 0.951 . S
H1257 C1276 0.951 . S
H1258 C1278 0.950 . S
H1259 C1279 0.950 . S
H1260 C1281 0.950 . S
H1261 C1284 0.950 . S
H1262 C1285 0.950 . S
H1263 C1287 0.950 . S
H1264 C1288 0.950 . S
H1265 C1289 0.951 . S
H1266 C1291 0.951 . S
H1267 C1293 0.950 . S
H1268 C1294 0.950 . S
H1269 C1296 0.950 . S
H1270 C1299 0.950 . S
H1271 C1300 0.950 . S
H1272 C1302 0.950 . S
H1273 C1303 0.950 . S
C1274 H1256 0.951 . S
C1274 C1275 1.366 . S
C1274 C1276 1.388 . S
C1275 C1274 1.366 . S
C1275 C1279 1.385 . S
C1276 H1257 0.951 . S
C1276 C1274 1.388 . S
C1276 C1277 1.366 . S
C1277 C1276 1.366 . S
C1277 C1278 1.414 . S
C1277 C1280 1.499 . S
C1278 H1258 0.950 . S
C1278 C1277 1.414 . S
C1278 C1279 1.374 . S
C1279 H1259 0.950 . S
C1279 C1275 1.385 . S
C1279 C1278 1.374 . S
C1280 C1277 1.499 . S
C1280 C1281 1.373 . S
C1280 C1282 1.389 . S
C1281 H1260 0.950 . S
C1281 C1280 1.373 . S
C1281 C1297 1.377 . S
C1282 C1280 1.389 . S
C1282 C1283 1.524 . S
C1282 C1296 1.377 . S
C1283 C1282 1.524 . S
C1283 C1284 1.397 . S
C1283 C1288 1.363 . S
C1284 H1261 0.950 . S
C1284 C1283 1.397 . S
C1284 C1285 1.334 . S
C1285 H1262 0.950 . S
C1285 C1284 1.334 . S
C1285 C1286 1.287 . S
C1286 C1285 1.287 . S
C1286 C1287 1.524 . S
C1286 H1305 0.913 . S
C1287 H1263 0.950 . S
C1287 C1286 1.524 . S
C1287 C1288 1.415 . S
C1288 H1264 0.950 . S
C1288 C1283 1.363 . S
C1288 C1287 1.415 . S
C1289 H1265 0.951 . S
C1289 C1290 1.366 . S
C1289 C1291 1.388 . S
C1290 C1289 1.366 . S
C1290 C1294 1.385 . S
C1291 H1266 0.951 . S
C1291 C1289 1.388 . S
C1291 C1292 1.366 . S
C1292 C1291 1.366 . S
C1292 C1293 1.414 . S
C1292 C1295 1.499 . S
C1293 H1267 0.950 . S
C1293 C1292 1.414 . S
C1293 C1294 1.374 . S
C1294 H1268 0.950 . S
C1294 C1290 1.385 . S
C1294 C1293 1.374 . S
C1295 C1292 1.499 . S
C1295 C1296 1.373 . S
C1295 C1297 1.389 . S
C1296 H1269 0.950 . S
C1296 C1282 1.377 . S
C1296 C1295 1.373 . S
C1297 C1281 1.377 . S
C1297 C1295 1.389 . S
C1297 C1298 1.524 . S
C1298 C1297 1.524 . S
C1298 C1299 1.397 . S
C1298 C1303 1.363 . S
C1299 H1270 0.950 . S
C1299 C1298 1.397 . S
C1299 C1300 1.334 . S
C1300 H1271 0.950 . S
C1300 C1299 1.334 . S
C1300 C1301 1.287 . S
C1301 C1300 1.287 . S
C1301 C1302 1.524 . S
C1301 H1304 0.999 . S
C1302 H1272 0.950 . S
C1302 C1301 1.524 . S
C1302 C1303 1.415 . S
C1303 H1273 0.950 . S
C1303 C1298 1.363 . S
C1303 C1302 1.415 . S
H1304 C1301 0.999 . S
H1305 C1286 0.913 . S
H1306 C1324 0.951 . S
H1307 C1326 0.951 . S
H1308 C1328 0.950 . S
H1309 C1329 0.950 . S
H1310 C1331 0.950 . S
H1311 C1334 0.950 . S
H1312 C1335 0.950 . S
H1313 C1337 0.950 . S
H1314 C1338 0.950 . S
H1315 C1339 0.951 . S
H1316 C1341 0.951 . S
H1317 C1343 0.950 . S
H1318 C1344 0.950 . S
H1319 C1346 0.950 . S
H1320 C1349 0.950 . S
H1321 C1350 0.950 . S
H1322 C1352 0.950 . S
H1323 C1353 0.950 . S
C1324 H1306 0.951 . S
C1324 C1325 1.366 . S
C1324 C1326 1.388 . S
C1325 C1324 1.366 . S
C1325 C1329 1.385 . S
C1326 H1307 0.951 . S
C1326 C1324 1.388 . S
C1326 C1327 1.366 . S
C1327 C1326 1.366 . S
C1327 C1328 1.414 . S
C1327 C1330 1.499 . S
C1328 H1308 0.950 . S
C1328 C1327 1.414 . S
C1328 C1329 1.374 . S
C1329 H1309 0.950 . S
C1329 C1325 1.385 . S
C1329 C1328 1.374 . S
C1330 C1327 1.499 . S
C1330 C1331 1.373 . S
C1330 C1332 1.389 . S
C1331 H1310 0.950 . S
C1331 C1330 1.373 . S
C1331 C1347 1.377 . S
C1332 C1330 1.389 . S
C1332 C1333 1.524 . S
C1332 C1346 1.377 . S
C1333 C1332 1.524 . S
C1333 C1334 1.397 . S
C1333 C1338 1.363 . S
C1334 H1311 0.950 . S
C1334 C1333 1.397 . S
C1334 C1335 1.334 . S
C1335 H1312 0.950 . S
C1335 C1334 1.334 . S
C1335 C1336 1.287 . S
C1336 C1335 1.287 . S
C1336 C1337 1.524 . S
C1336 H1355 0.913 . S
C1337 H1313 0.950 . S
C1337 C1336 1.524 . S
C1337 C1338 1.415 . S
C1338 H1314 0.950 . S
C1338 C1333 1.363 . S
C1338 C1337 1.415 . S
C1339 H1315 0.951 . S
C1339 C1340 1.366 . S
C1339 C1341 1.388 . S
C1340 C1339 1.366 . S
C1340 C1344 1.385 . S
C1341 H1316 0.951 . S
C1341 C1339 1.388 . S
C1341 C1342 1.366 . S
C1342 C1341 1.366 . S
C1342 C1343 1.414 . S
C1342 C1345 1.499 . S
C1343 H1317 0.950 . S
C1343 C1342 1.414 . S
C1343 C1344 1.374 . S
C1344 H1318 0.950 . S
C1344 C1340 1.385 . S
C1344 C1343 1.374 . S
C1345 C1342 1.499 . S
C1345 C1346 1.373 . S
C1345 C1347 1.389 . S
C1346 H1319 0.950 . S
C1346 C1332 1.377 . S
C1346 C1345 1.373 . S
C1347 C1331 1.377 . S
C1347 C1345 1.389 . S
C1347 C1348 1.524 . S
C1348 C1347 1.524 . S
C1348 C1349 1.397 . S
C1348 C1353 1.363 . S
C1349 H1320 0.950 . S
C1349 C1348 1.397 . S
C1349 C1350 1.334 . S
C1350 H1321 0.950 . S
C1350 C1349 1.334 . S
C1350 C1351 1.287 . S
C1351 C1350 1.287 . S
C1351 C1352 1.524 . S
C1351 H1354 0.999 . S
C1352 H1322 0.950 . S
C1352 C1351 1.524 . S
C1352 C1353 1.415 . S
C1353 H1323 0.950 . S
C1353 C1348 1.363 . S
C1353 C1352 1.415 . S
H1354 C1351 0.999 . S
H1355 C1336 0.913 . S
H1356 C1374 0.951 . S
H1357 C1376 0.951 . S
H1358 C1378 0.950 . S
H1359 C1379 0.950 . S
H1360 C1381 0.950 . S
H1361 C1384 0.950 . S
H1362 C1385 0.950 . S
H1363 C1387 0.950 . S
H1364 C1388 0.950 . S
H1365 C1389 0.951 . S
H1366 C1391 0.951 . S
H1367 C1393 0.950 . S
H1368 C1394 0.950 . S
H1369 C1396 0.950 . S
H1370 C1399 0.950 . S
H1371 C1400 0.950 . S
H1372 C1402 0.950 . S
H1373 C1403 0.950 . S
C1374 H1356 0.951 . S
C1374 C1375 1.366 . S
C1374 C1376 1.388 . S
C1375 C1374 1.366 . S
C1375 C1379 1.385 . S
C1376 H1357 0.951 . S
C1376 C1374 1.388 . S
C1376 C1377 1.366 . S
C1377 C1376 1.366 . S
C1377 C1378 1.414 . S
C1377 C1380 1.499 . S
C1378 H1358 0.950 . S
C1378 C1377 1.414 . S
C1378 C1379 1.374 . S
C1379 H1359 0.950 . S
C1379 C1375 1.385 . S
C1379 C1378 1.374 . S
C1380 C1377 1.499 . S
C1380 C1381 1.373 . S
C1380 C1382 1.389 . S
C1381 H1360 0.950 . S
C1381 C1380 1.373 . S
C1381 C1397 1.377 . S
C1382 C1380 1.389 . S
C1382 C1383 1.524 . S
C1382 C1396 1.377 . S
C1383 C1382 1.524 . S
C1383 C1384 1.397 . S
C1383 C1388 1.363 . S
C1384 H1361 0.950 . S
C1384 C1383 1.397 . S
C1384 C1385 1.334 . S
C1385 H1362 0.950 . S
C1385 C1384 1.334 . S
C1385 C1386 1.287 . S
C1386 C1385 1.287 . S
C1386 C1387 1.524 . S
C1386 H1405 0.913 . S
C1387 H1363 0.950 . S
C1387 C1386 1.524 . S
C1387 C1388 1.415 . S
C1388 H1364 0.950 . S
C1388 C1383 1.363 . S
C1388 C1387 1.415 . S
C1389 H1365 0.951 . S
C1389 C1390 1.366 . S
C1389 C1391 1.388 . S
C1390 C1389 1.366 . S
C1390 C1394 1.385 . S
C1391 H1366 0.951 . S
C1391 C1389 1.388 . S
C1391 C1392 1.366 . S
C1392 C1391 1.366 . S
C1392 C1393 1.414 . S
C1392 C1395 1.499 . S
C1393 H1367 0.950 . S
C1393 C1392 1.414 . S
C1393 C1394 1.374 . S
C1394 H1368 0.950 . S
C1394 C1390 1.385 . S
C1394 C1393 1.374 . S
C1395 C1392 1.499 . S
C1395 C1396 1.373 . S
C1395 C1397 1.389 . S
C1396 H1369 0.950 . S
C1396 C1382 1.377 . S
C1396 C1395 1.373 . S
C1397 C1381 1.377 . S
C1397 C1395 1.389 . S
C1397 C1398 1.524 . S
C1398 C1397 1.524 . S
C1398 C1399 1.397 . S
C1398 C1403 1.363 . S
C1399 H1370 0.950 . S
C1399 C1398 1.397 . S
C1399 C1400 1.334 . S
C1400 H1371 0.950 . S
C1400 C1399 1.334 . S
C1400 C1401 1.287 . S
C1401 C1400 1.287 . S
C1401 C1402 1.524 . S
C1401 H1404 0.999 . S
C1402 H1372 0.950 . S
C1402 C1401 1.524 . S
C1402 C1403 1.415 . S
C1403 H1373 0.950 . S
C1403 C1398 1.363 . S
C1403 C1402 1.415 . S
H1404 C1401 0.999 . S
H1405 C1386 0.913 . S
H1406 C1424 0.951 . S
H1407 C1426 0.951 . S
H1408 C1428 0.950 . S
H1409 C1429 0.950 . S
H1410 C1431 0.950 . S
H1411 C1434 0.950 . S
H1412 C1435 0.950 . S
H1413 C1437 0.950 . S
H1414 C1438 0.950 . S
H1415 C1439 0.951 . S
H1416 C1441 0.951 . S
H1417 C1443 0.950 . S
H1418 C1444 0.950 . S
H1419 C1446 0.950 . S
H1420 C1449 0.950 . S
H1421 C1450 0.950 . S
H1422 C1452 0.950 . S
H1423 C1453 0.950 . S
C1424 H1406 0.951 . S
C1424 C1425 1.366 . S
C1424 C1426 1.388 . S
C1425 C1424 1.366 . S
C1425 C1429 1.385 . S
C1426 H1407 0.951 . S
C1426 C1424 1.388 . S
C1426 C1427 1.366 . S
C1427 C1426 1.366 . S
C1427 C1428 1.414 . S
C1427 C1430 1.499 . S
C1428 H1408 0.950 . S
C1428 C1427 1.414 . S
C1428 C1429 1.374 . S
C1429 H1409 0.950 . S
C1429 C1425 1.385 . S
C1429 C1428 1.374 . S
C1430 C1427 1.499 . S
C1430 C1431 1.373 . S
C1430 C1432 1.389 . S
C1431 H1410 0.950 . S
C1431 C1430 1.373 . S
C1431 C1447 1.377 . S
C1432 C1430 1.389 . S
C1432 C1433 1.524 . S
C1432 C1446 1.377 . S
C1433 C1432 1.524 . S
C1433 C1434 1.397 . S
C1433 C1438 1.363 . S
C1434 H1411 0.950 . S
C1434 C1433 1.397 . S
C1434 C1435 1.334 . S
C1435 H1412 0.950 . S
C1435 C1434 1.334 . S
C1435 C1436 1.287 . S
C1436 C1435 1.287 . S
C1436 C1437 1.524 . S
C1436 H1455 0.913 . S
C1437 H1413 0.950 . S
C1437 C1436 1.524 . S
C1437 C1438 1.415 . S
C1438 H1414 0.950 . S
C1438 C1433 1.363 . S
C1438 C1437 1.415 . S
C1439 H1415 0.951 . S
C1439 C1440 1.366 . S
C1439 C1441 1.388 . S
C1440 C1439 1.366 . S
C1440 C1444 1.385 . S
C1441 H1416 0.951 . S
C1441 C1439 1.388 . S
C1441 C1442 1.366 . S
C1442 C1441 1.366 . S
C1442 C1443 1.414 . S
C1442 C1445 1.499 . S
C1443 H1417 0.950 . S
C1443 C1442 1.414 . S
C1443 C1444 1.374 . S
C1444 H1418 0.950 . S
C1444 C1440 1.385 . S
C1444 C1443 1.374 . S
C1445 C1442 1.499 . S
C1445 C1446 1.373 . S
C1445 C1447 1.389 . S
C1446 H1419 0.950 . S
C1446 C1432 1.377 . S
C1446 C1445 1.373 . S
C1447 C1431 1.377 . S
C1447 C1445 1.389 . S
C1447 C1448 1.524 . S
C1448 C1447 1.524 . S
C1448 C1449 1.397 . S
C1448 C1453 1.363 . S
C1449 H1420 0.950 . S
C1449 C1448 1.397 . S
C1449 C1450 1.334 . S
C1450 H1421 0.950 . S
C1450 C1449 1.334 . S
C1450 C1451 1.287 . S
C1451 C1450 1.287 . S
C1451 C1452 1.524 . S
C1451 H1454 0.999 . S
C1452 H1422 0.950 . S
C1452 C1451 1.524 . S
C1452 C1453 1.415 . S
C1453 H1423 0.950 . S
C1453 C1448 1.363 . S
C1453 C1452 1.415 . S
H1454 C1451 0.999 . S
H1455 C1436 0.913 . S
H1456 C1474 0.951 . S
H1457 C1476 0.951 . S
H1458 C1478 0.950 . S
H1459 C1479 0.950 . S
H1460 C1481 0.950 . S
H1461 C1484 0.950 . S
H1462 C1485 0.950 . S
H1463 C1487 0.950 . S
H1464 C1488 0.950 . S
H1465 C1489 0.951 . S
H1466 C1491 0.951 . S
H1467 C1493 0.950 . S
H1468 C1494 0.950 . S
H1469 C1496 0.950 . S
H1470 C1499 0.950 . S
H1471 C1500 0.950 . S
H1472 C1502 0.950 . S
H1473 C1503 0.950 . S
C1474 H1456 0.951 . S
C1474 C1475 1.366 . S
C1474 C1476 1.388 . S
C1475 C1474 1.366 . S
C1475 C1479 1.385 . S
C1476 H1457 0.951 . S
C1476 C1474 1.388 . S
C1476 C1477 1.366 . S
C1477 C1476 1.366 . S
C1477 C1478 1.414 . S
C1477 C1480 1.499 . S
C1478 H1458 0.950 . S
C1478 C1477 1.414 . S
C1478 C1479 1.374 . S
C1479 H1459 0.950 . S
C1479 C1475 1.385 . S
C1479 C1478 1.374 . S
C1480 C1477 1.499 . S
C1480 C1481 1.373 . S
C1480 C1482 1.389 . S
C1481 H1460 0.950 . S
C1481 C1480 1.373 . S
C1481 C1497 1.377 . S
C1482 C1480 1.389 . S
C1482 C1483 1.524 . S
C1482 C1496 1.377 . S
C1483 C1482 1.524 . S
C1483 C1484 1.397 . S
C1483 C1488 1.363 . S
C1484 H1461 0.950 . S
C1484 C1483 1.397 . S
C1484 C1485 1.334 . S
C1485 H1462 0.950 . S
C1485 C1484 1.334 . S
C1485 C1486 1.287 . S
C1486 C1485 1.287 . S
C1486 C1487 1.524 . S
C1486 H1505 0.913 . S
C1487 H1463 0.950 . S
C1487 C1486 1.524 . S
C1487 C1488 1.415 . S
C1488 H1464 0.950 . S
C1488 C1483 1.363 . S
C1488 C1487 1.415 . S
C1489 H1465 0.951 . S
C1489 C1490 1.366 . S
C1489 C1491 1.388 . S
C1490 C1489 1.366 . S
C1490 C1494 1.385 . S
C1491 H1466 0.951 . S
C1491 C1489 1.388 . S
C1491 C1492 1.366 . S
C1492 C1491 1.366 . S
C1492 C1493 1.414 . S
C1492 C1495 1.499 . S
C1493 H1467 0.950 . S
C1493 C1492 1.414 . S
C1493 C1494 1.374 . S
C1494 H1468 0.950 . S
C1494 C1490 1.385 . S
C1494 C1493 1.374 . S
C1495 C1492 1.499 . S
C1495 C1496 1.373 . S
C1495 C1497 1.389 . S
C1496 H1469 0.950 . S
C1496 C1482 1.377 . S
C1496 C1495 1.373 . S
C1497 C1481 1.377 . S
C1497 C1495 1.389 . S
C1497 C1498 1.524 . S
C1498 C1497 1.524 . S
C1498 C1499 1.397 . S
C1498 C1503 1.363 . S
C1499 H1470 0.950 . S
C1499 C1498 1.397 . S
C1499 C1500 1.334 . S
C1500 H1471 0.950 . S
C1500 C1499 1.334 . S
C1500 C1501 1.287 . S
C1501 C1500 1.287 . S
C1501 C1502 1.524 . S
C1501 H1504 0.999 . S
C1502 H1472 0.950 . S
C1502 C1501 1.524 . S
C1502 C1503 1.415 . S
C1503 H1473 0.950 . S
C1503 C1498 1.363 . S
C1503 C1502 1.415 . S
H1504 C1501 0.999 . S
H1505 C1486 0.913 . S
H1506 C1524 0.951 . S
H1507 C1526 0.951 . S
H1508 C1528 0.950 . S
H1509 C1529 0.950 . S
H1510 C1531 0.950 . S
H1511 C1534 0.950 . S
H1512 C1535 0.950 . S
H1513 C1537 0.950 . S
H1514 C1538 0.950 . S
H1515 C1539 0.951 . S
H1516 C1541 0.951 . S
H1517 C1543 0.950 . S
H1518 C1544 0.950 1_545 S
H1519 C1546 0.950 . S
H1520 C1549 0.950 . S
H1521 C1550 0.950 . S
H1522 C1552 0.950 . S
H1523 C1553 0.950 . S
C1524 H1506 0.951 . S
C1524 C1525 1.366 . S
C1524 C1526 1.388 . S
C1525 C1524 1.366 . S
C1525 C1529 1.385 . S
C1526 H1507 0.951 . S
C1526 C1524 1.388 . S
C1526 C1527 1.366 . S
C1527 C1526 1.366 . S
C1527 C1528 1.414 . S
C1527 C1530 1.499 . S
C1528 H1508 0.950 . S
C1528 C1527 1.414 . S
C1528 C1529 1.374 . S
C1529 H1509 0.950 . S
C1529 C1525 1.385 . S
C1529 C1528 1.374 . S
C1530 C1527 1.499 . S
C1530 C1531 1.373 . S
C1530 C1532 1.389 . S
C1531 H1510 0.950 . S
C1531 C1530 1.373 . S
C1531 C1547 1.377 . S
C1532 C1530 1.389 . S
C1532 C1533 1.524 . S
C1532 C1546 1.377 . S
C1533 C1532 1.524 . S
C1533 C1534 1.397 . S
C1533 C1538 1.363 . S
C1534 H1511 0.950 . S
C1534 C1533 1.397 . S
C1534 C1535 1.334 . S
C1535 H1512 0.950 . S
C1535 C1534 1.334 . S
C1535 C1536 1.287 . S
C1536 C1535 1.287 . S
C1536 C1537 1.524 . S
C1536 H1555 0.913 . S
C1537 H1513 0.950 . S
C1537 C1536 1.524 . S
C1537 C1538 1.415 . S
C1538 H1514 0.950 . S
C1538 C1533 1.363 . S
C1538 C1537 1.415 . S
C1539 H1515 0.951 . S
C1539 C1540 1.366 . S
C1539 C1541 1.388 1_545 S
C1540 C1539 1.366 . S
C1540 C1544 1.385 1_545 S
C1541 H1516 0.951 . S
C1541 C1539 1.388 1_565 S
C1541 C1542 1.366 . S
C1542 C1541 1.366 . S
C1542 C1543 1.414 . S
C1542 C1545 1.499 . S
C1543 H1517 0.950 . S
C1543 C1542 1.414 . S
C1543 C1544 1.374 . S
C1544 H1518 0.950 1_565 S
C1544 C1540 1.385 1_565 S
C1544 C1543 1.374 . S
C1545 C1542 1.499 . S
C1545 C1546 1.373 . S
C1545 C1547 1.389 . S
C1546 H1519 0.950 . S
C1546 C1532 1.377 . S
C1546 C1545 1.373 . S
C1547 C1531 1.377 . S
C1547 C1545 1.389 . S
C1547 C1548 1.524 . S
C1548 C1547 1.524 . S
C1548 C1549 1.397 . S
C1548 C1553 1.363 . S
C1549 H1520 0.950 . S
C1549 C1548 1.397 . S
C1549 C1550 1.334 . S
C1550 H1521 0.950 . S
C1550 C1549 1.334 . S
C1550 C1551 1.287 . S
C1551 C1550 1.287 . S
C1551 C1552 1.524 . S
C1551 H1554 0.999 . S
C1552 H1522 0.950 . S
C1552 C1551 1.524 . S
C1552 C1553 1.415 . S
C1553 H1523 0.950 . S
C1553 C1548 1.363 . S
C1553 C1552 1.415 . S
H1554 C1551 0.999 . S
H1555 C1536 0.913 . S
H1556 C1574 0.951 . S
H1557 C1576 0.951 . S
H1558 C1578 0.950 . S
H1559 C1579 0.950 . S
H1560 C1581 0.950 . S
H1561 C1584 0.950 . S
H1562 C1585 0.950 . S
H1563 C1587 0.950 . S
H1564 C1588 0.950 1_545 S
H1565 C1589 0.951 . S
H1566 C1591 0.951 . S
H1567 C1593 0.950 . S
H1568 C1594 0.950 . S
H1569 C1596 0.950 1_545 S
H1570 C1599 0.950 . S
H1571 C1600 0.950 . S
H1572 C1602 0.950 . S
H1573 C1603 0.950 . S
C1574 H1556 0.951 . S
C1574 C1575 1.366 . S
C1574 C1576 1.388 1_655 S
C1575 C1574 1.366 . S
C1575 C1579 1.385 1_655 S
C1576 H1557 0.951 . S
C1576 C1574 1.388 1_455 S
C1576 C1577 1.366 . S
C1577 C1576 1.366 . S
C1577 C1578 1.414 . S
C1577 C1580 1.499 . S
C1578 H1558 0.950 . S
C1578 C1577 1.414 . S
C1578 C1579 1.374 . S
C1579 H1559 0.950 . S
C1579 C1575 1.385 1_455 S
C1579 C1578 1.374 . S
C1580 C1577 1.499 . S
C1580 C1581 1.373 . S
C1580 C1582 1.389 . S
C1581 H1560 0.950 . S
C1581 C1580 1.373 . S
C1581 C1597 1.377 . S
C1582 C1580 1.389 . S
C1582 C1583 1.524 . S
C1582 C1596 1.377 . S
C1583 C1582 1.524 . S
C1583 C1584 1.397 . S
C1583 C1588 1.363 . S
C1584 H1561 0.950 . S
C1584 C1583 1.397 . S
C1584 C1585 1.334 . S
C1585 H1562 0.950 . S
C1585 C1584 1.334 . S
C1585 C1586 1.287 . S
C1586 C1585 1.287 . S
C1586 C1587 1.524 1_565 S
C1586 H1605 0.913 . S
C1587 H1563 0.950 . S
C1587 C1586 1.524 1_545 S
C1587 C1588 1.415 1_545 S
C1588 H1564 0.950 1_565 S
C1588 C1583 1.363 . S
C1588 C1587 1.415 1_565 S
C1589 H1565 0.951 . S
C1589 C1590 1.366 . S
C1589 C1591 1.388 1_545 S
C1590 C1589 1.366 . S
C1590 C1594 1.385 . S
C1591 H1566 0.951 . S
C1591 C1589 1.388 1_565 S
C1591 C1592 1.366 1_565 S
C1592 C1591 1.366 1_545 S
C1592 C1593 1.414 . S
C1592 C1595 1.499 1_545 S
C1593 H1567 0.950 . S
C1593 C1592 1.414 . S
C1593 C1594 1.374 . S
C1594 H1568 0.950 . S
C1594 C1590 1.385 . S
C1594 C1593 1.374 . S
C1595 C1592 1.499 1_565 S
C1595 C1596 1.373 . S
C1595 C1597 1.389 . S
C1596 H1569 0.950 1_565 S
C1596 C1582 1.377 . S
C1596 C1595 1.373 . S
C1597 C1581 1.377 . S
C1597 C1595 1.389 . S
C1597 C1598 1.524 . S
C1598 C1597 1.524 . S
C1598 C1599 1.397 . S
C1598 C1603 1.363 . S
C1599 H1570 0.950 . S
C1599 C1598 1.397 . S
C1599 C1600 1.334 . S
C1600 H1571 0.950 . S
C1600 C1599 1.334 . S
C1600 C1601 1.287 . S
C1601 C1600 1.287 . S
C1601 C1602 1.524 . S
C1601 H1604 0.999 . S
C1602 H1572 0.950 . S
C1602 C1601 1.524 . S
C1602 C1603 1.415 . S
C1603 H1573 0.950 . S
C1603 C1598 1.363 . S
C1603 C1602 1.415 . S
H1604 C1601 0.999 . S
H1605 C1586 0.913 . S
H1606 C1624 0.951 . S
H1607 C1626 0.951 . S
H1608 C1628 0.950 . S
H1609 C1629 0.950 . S
H1610 C1631 0.950 . S
H1611 C1634 0.950 . S
H1612 C1635 0.950 . S
H1613 C1637 0.950 . S
H1614 C1638 0.950 . S
H1615 C1639 0.951 . S
H1616 C1641 0.951 . S
H1617 C1643 0.950 . S
H1618 C1644 0.950 . S
H1619 C1646 0.950 . S
H1620 C1649 0.952 . S
H1621 C1650 0.950 1_655 S
H1622 C1652 0.950 . S
H1623 C1653 0.950 . S
C1624 H1606 0.951 . S
C1624 C1625 1.366 . S
C1624 C1626 1.388 . S
C1625 C1624 1.366 . S
C1625 C1629 1.385 . S
C1626 H1607 0.951 . S
C1626 C1624 1.388 . S
C1626 C1627 1.366 . S
C1627 C1626 1.366 . S
C1627 C1628 1.414 . S
C1627 C1630 1.499 . S
C1628 H1608 0.950 . S
C1628 C1627 1.414 . S
C1628 C1629 1.374 . S
C1629 H1609 0.950 . S
C1629 C1625 1.385 . S
C1629 C1628 1.374 . S
C1630 C1627 1.499 . S
C1630 C1631 1.373 . S
C1630 C1632 1.389 . S
C1631 H1610 0.950 . S
C1631 C1630 1.373 . S
C1631 C1647 1.377 . S
C1632 C1630 1.389 . S
C1632 C1633 1.524 . S
C1632 C1646 1.377 . S
C1633 C1632 1.524 . S
C1633 C1634 1.397 . S
C1633 C1638 1.363 . S
C1634 H1611 0.950 . S
C1634 C1633 1.397 . S
C1634 C1635 1.334 . S
C1635 H1612 0.950 . S
C1635 C1634 1.334 . S
C1635 C1636 1.287 . S
C1636 C1635 1.287 . S
C1636 C1637 1.524 . S
C1636 H1655 0.913 . S
C1637 H1613 0.950 . S
C1637 C1636 1.524 . S
C1637 C1638 1.415 . S
C1638 H1614 0.950 . S
C1638 C1633 1.363 . S
C1638 C1637 1.415 . S
C1639 H1615 0.951 . S
C1639 C1640 1.366 . S
C1639 C1641 1.388 1_655 S
C1640 C1639 1.366 . S
C1640 C1644 1.385 . S
C1641 H1616 0.951 . S
C1641 C1639 1.388 1_455 S
C1641 C1642 1.366 . S
C1642 C1641 1.366 . S
C1642 C1643 1.414 1_455 S
C1642 C1645 1.499 . S
C1643 H1617 0.950 . S
C1643 C1642 1.414 1_655 S
C1643 C1644 1.374 . S
C1644 H1618 0.950 . S
C1644 C1640 1.385 . S
C1644 C1643 1.374 . S
C1645 C1642 1.499 . S
C1645 C1646 1.373 . S
C1645 C1647 1.389 . S
C1646 H1619 0.950 . S
C1646 C1632 1.377 . S
C1646 C1645 1.373 . S
C1647 C1631 1.377 . S
C1647 C1645 1.389 . S
C1647 C1648 1.524 . S
C1648 C1647 1.524 . S
C1648 C1649 1.397 . S
C1648 C1653 1.363 . S
C1649 H1620 0.952 . S
C1649 C1648 1.397 . S
C1649 C1650 1.334 . S
C1650 H1621 0.950 1_455 S
C1650 C1649 1.334 . S
C1650 C1651 1.287 . S
C1651 C1650 1.287 . S
C1651 C1652 1.524 . S
C1651 H1654 0.999 . S
C1652 H1622 0.950 . S
C1652 C1651 1.524 . S
C1652 C1653 1.415 . S
C1653 H1623 0.950 . S
C1653 C1648 1.363 . S
C1653 C1652 1.415 . S
H1654 C1651 0.999 . S
H1655 C1636 0.913 . S
H1656 C1674 0.951 . S
H1657 C1676 0.951 . S
H1658 C1678 0.950 . S
H1659 C1679 0.950 . S
H1660 C1681 0.950 . S
H1661 C1684 0.950 . S
H1662 C1685 0.950 . S
H1663 C1687 0.950 . S
H1664 C1688 0.950 . S
H1665 C1689 0.951 . S
H1666 C1691 0.951 . S
H1667 C1693 0.950 . S
H1668 C1694 0.950 . S
H1669 C1696 0.950 . S
H1670 C1699 0.950 . S
H1671 C1700 0.950 . S
H1672 C1702 0.958 . S
H1673 C1703 0.950 . S
C1674 H1656 0.951 . S
C1674 C1675 1.366 . S
C1674 C1676 1.388 . S
C1675 C1674 1.366 . S
C1675 C1679 1.385 . S
C1676 H1657 0.951 . S
C1676 C1674 1.388 . S
C1676 C1677 1.366 . S
C1677 C1676 1.366 . S
C1677 C1678 1.414 . S
C1677 C1680 1.499 . S
C1678 H1658 0.950 . S
C1678 C1677 1.414 . S
C1678 C1679 1.374 . S
C1679 H1659 0.950 . S
C1679 C1675 1.385 . S
C1679 C1678 1.374 . S
C1680 C1677 1.499 . S
C1680 C1681 1.373 . S
C1680 C1682 1.389 . S
C1681 H1660 0.950 . S
C1681 C1680 1.373 . S
C1681 C1697 1.377 . S
C1682 C1680 1.389 . S
C1682 C1683 1.524 . S
C1682 C1696 1.377 . S
C1683 C1682 1.524 . S
C1683 C1684 1.397 . S
C1683 C1688 1.363 . S
C1684 H1661 0.950 . S
C1684 C1683 1.397 . S
C1684 C1685 1.334 . S
C1685 H1662 0.950 . S
C1685 C1684 1.334 . S
C1685 C1686 1.287 . S
C1686 C1685 1.287 . S
C1686 C1687 1.524 . S
C1686 H1705 0.913 . S
C1687 H1663 0.950 . S
C1687 C1686 1.524 . S
C1687 C1688 1.415 . S
C1688 H1664 0.950 . S
C1688 C1683 1.363 . S
C1688 C1687 1.415 . S
C1689 H1665 0.951 . S
C1689 C1690 1.366 . S
C1689 C1691 1.388 . S
C1690 C1689 1.366 . S
C1690 C1694 1.385 . S
C1691 H1666 0.951 . S
C1691 C1689 1.388 . S
C1691 C1692 1.366 . S
C1692 C1691 1.366 . S
C1692 C1693 1.414 . S
C1692 C1695 1.499 . S
C1693 H1667 0.950 . S
C1693 C1692 1.414 . S
C1693 C1694 1.374 . S
C1694 H1668 0.950 . S
C1694 C1690 1.385 . S
C1694 C1693 1.374 . S
C1695 C1692 1.499 . S
C1695 C1696 1.373 . S
C1695 C1697 1.389 . S
C1696 H1669 0.950 . S
C1696 C1682 1.377 . S
C1696 C1695 1.373 . S
C1697 C1681 1.377 . S
C1697 C1695 1.389 . S
C1697 C1698 1.524 . S
C1698 C1697 1.524 . S
C1698 C1699 1.397 . S
C1698 C1703 1.363 . S
C1699 H1670 0.950 . S
C1699 C1698 1.397 . S
C1699 C1700 1.334 1_455 S
C1700 H1671 0.950 . S
C1700 C1699 1.334 1_655 S
C1700 C1701 1.287 . S
C1701 C1700 1.287 . S
C1701 C1702 1.524 1_655 S
C1701 H1704 0.999 . S
C1702 H1672 0.958 . S
C1702 C1701 1.524 1_455 S
C1702 C1703 1.415 . S
C1703 H1673 0.950 . S
C1703 C1698 1.363 . S
C1703 C1702 1.415 . S
H1704 C1701 0.999 . S
H1705 C1686 0.913 . S
H1706 C1724 0.951 . S
H1707 C1726 0.951 . S
H1708 C1728 0.950 . S
H1709 C1729 0.950 . S
H1710 C1731 0.950 . S
H1711 C1734 0.950 . S
H1712 C1735 0.950 . S
H1713 C1737 0.950 . S
H1714 C1738 0.950 . S
H1715 C1739 0.951 . S
H1716 C1741 0.951 . S
H1717 C1743 0.950 . S
H1718 C1744 0.950 . S
H1719 C1746 0.950 . S
H1720 C1749 0.950 . S
H1721 C1750 0.950 . S
H1722 C1752 0.950 . S
H1723 C1753 0.950 . S
C1724 H1706 0.951 . S
C1724 C1725 1.366 . S
C1724 C1726 1.388 . S
C1725 C1724 1.366 . S
C1725 C1729 1.385 . S
C1726 H1707 0.951 . S
C1726 C1724 1.388 . S
C1726 C1727 1.366 . S
C1727 C1726 1.366 . S
C1727 C1728 1.414 . S
C1727 C1730 1.499 . S
C1728 H1708 0.950 . S
C1728 C1727 1.414 . S
C1728 C1729 1.374 . S
C1729 H1709 0.950 . S
C1729 C1725 1.385 . S
C1729 C1728 1.374 . S
C1730 C1727 1.499 . S
C1730 C1731 1.373 . S
C1730 C1732 1.389 . S
C1731 H1710 0.950 . S
C1731 C1730 1.373 . S
C1731 C1747 1.377 . S
C1732 C1730 1.389 . S
C1732 C1733 1.524 . S
C1732 C1746 1.377 . S
C1733 C1732 1.524 . S
C1733 C1734 1.397 . S
C1733 C1738 1.363 . S
C1734 H1711 0.950 . S
C1734 C1733 1.397 . S
C1734 C1735 1.334 . S
C1735 H1712 0.950 . S
C1735 C1734 1.334 . S
C1735 C1736 1.287 . S
C1736 C1735 1.287 . S
C1736 C1737 1.524 . S
C1736 H1755 0.913 . S
C1737 H1713 0.950 . S
C1737 C1736 1.524 . S
C1737 C1738 1.415 . S
C1738 H1714 0.950 . S
C1738 C1733 1.363 . S
C1738 C1737 1.415 . S
C1739 H1715 0.951 . S
C1739 C1740 1.366 . S
C1739 C1741 1.388 . S
C1740 C1739 1.366 . S
C1740 C1744 1.385 . S
C1741 H1716 0.951 . S
C1741 C1739 1.388 . S
C1741 C1742 1.366 . S
C1742 C1741 1.366 . S
C1742 C1743 1.414 . S
C1742 C1745 1.499 . S
C1743 H1717 0.950 . S
C1743 C1742 1.414 . S
C1743 C1744 1.374 . S
C1744 H1718 0.950 . S
C1744 C1740 1.385 . S
C1744 C1743 1.374 . S
C1745 C1742 1.499 . S
C1745 C1746 1.373 . S
C1745 C1747 1.389 . S
C1746 H1719 0.950 . S
C1746 C1732 1.377 . S
C1746 C1745 1.373 . S
C1747 C1731 1.377 . S
C1747 C1745 1.389 . S
C1747 C1748 1.524 . S
C1748 C1747 1.524 . S
C1748 C1749 1.397 . S
C1748 C1753 1.363 . S
C1749 H1720 0.950 . S
C1749 C1748 1.397 . S
C1749 C1750 1.334 . S
C1750 H1721 0.950 . S
C1750 C1749 1.334 . S
C1750 C1751 1.287 . S
C1751 C1750 1.287 . S
C1751 C1752 1.524 . S
C1751 H1754 0.999 . S
C1752 H1722 0.950 . S
C1752 C1751 1.524 . S
C1752 C1753 1.415 . S
C1753 H1723 0.950 . S
C1753 C1748 1.363 . S
C1753 C1752 1.415 . S
H1754 C1751 0.999 . S
H1755 C1736 0.913 . S
H1756 C1774 0.951 . S
H1757 C1776 0.951 . S
H1758 C1778 0.950 . S
H1759 C1779 0.950 1_545 S
H1760 C1781 0.950 . S
H1761 C1784 0.950 . S
H1762 C1785 0.950 . S
H1763 C1787 0.950 . S
H1764 C1788 0.950 . S
H1765 C1789 0.951 . S
H1766 C1791 0.951 . S
H1767 C1793 0.950 . S
H1768 C1794 0.950 . S
H1769 C1796 0.950 . S
H1770 C1799 0.950 . S
H1771 C1800 0.950 . S
H1772 C1802 0.950 . S
H1773 C1803 0.950 1_545 S
C1774 H1756 0.951 . S
C1774 C1775 1.366 . S
C1774 C1776 1.388 . S
C1775 C1774 1.366 . S
C1775 C1779 1.385 . S
C1776 H1757 0.951 . S
C1776 C1774 1.388 . S
C1776 C1777 1.366 . S
C1777 C1776 1.366 . S
C1777 C1778 1.414 . S
C1777 C1780 1.499 . S
C1778 H1758 0.950 . S
C1778 C1777 1.414 . S
C1778 C1779 1.374 . S
C1779 H1759 0.950 1_565 S
C1779 C1775 1.385 . S
C1779 C1778 1.374 . S
C1780 C1777 1.499 . S
C1780 C1781 1.373 . S
C1780 C1782 1.389 . S
C1781 H1760 0.950 . S
C1781 C1780 1.373 . S
C1781 C1797 1.377 . S
C1782 C1780 1.389 . S
C1782 C1783 1.524 . S
C1782 C1796 1.377 . S
C1783 C1782 1.524 . S
C1783 C1784 1.397 . S
C1783 C1788 1.363 . S
C1784 H1761 0.950 . S
C1784 C1783 1.397 . S
C1784 C1785 1.334 . S
C1785 H1762 0.950 . S
C1785 C1784 1.334 . S
C1785 C1786 1.287 . S
C1786 C1785 1.287 . S
C1786 C1787 1.524 . S
C1786 H1805 0.913 . S
C1787 H1763 0.950 . S
C1787 C1786 1.524 . S
C1787 C1788 1.415 . S
C1788 H1764 0.950 . S
C1788 C1783 1.363 . S
C1788 C1787 1.415 . S
C1789 H1765 0.951 . S
C1789 C1790 1.366 . S
C1789 C1791 1.388 . S
C1790 C1789 1.366 . S
C1790 C1794 1.385 . S
C1791 H1766 0.951 . S
C1791 C1789 1.388 . S
C1791 C1792 1.366 . S
C1792 C1791 1.366 . S
C1792 C1793 1.414 . S
C1792 C1795 1.499 . S
C1793 H1767 0.950 . S
C1793 C1792 1.414 . S
C1793 C1794 1.374 . S
C1794 H1768 0.950 . S
C1794 C1790 1.385 . S
C1794 C1793 1.374 . S
C1795 C1792 1.499 . S
C1795 C1796 1.373 . S
C1795 C1797 1.389 . S
C1796 H1769 0.950 . S
C1796 C1782 1.377 . S
C1796 C1795 1.373 . S
C1797 C1781 1.377 . S
C1797 C1795 1.389 . S
C1797 C1798 1.524 . S
C1798 C1797 1.524 . S
C1798 C1799 1.397 . S
C1798 C1803 1.363 . S
C1799 H1770 0.950 . S
C1799 C1798 1.397 . S
C1799 C1800 1.334 . S
C1800 H1771 0.950 . S
C1800 C1799 1.334 . S
C1800 C1801 1.287 1_565 S
C1801 C1800 1.287 1_545 S
C1801 C1802 1.524 . S
C1801 H1804 0.999 . S
C1802 H1772 0.950 . S
C1802 C1801 1.524 . S
C1802 C1803 1.415 1_545 S
C1803 H1773 0.950 1_565 S
C1803 C1798 1.363 . S
C1803 C1802 1.415 1_565 S
H1804 C1801 0.999 . S
H1805 C1786 0.913 . S
H1806 C1824 0.951 . S
H1807 C1826 0.951 . S
H1808 C1828 0.950 . S
H1809 C1829 0.950 . S
H1810 C1831 0.950 . S
H1811 C1834 0.950 . S
H1812 C1835 0.950 . S
H1813 C1837 0.950 . S
H1814 C1838 0.950 . S
H1815 C1839 0.951 . S
H1816 C1841 0.951 . S
H1817 C1843 0.950 . S
H1818 C1844 0.950 . S
H1819 C1846 0.950 . S
H1820 C1849 0.950 . S
H1821 C1850 0.950 . S
H1822 C1852 0.950 . S
H1823 C1853 0.950 . S
C1824 H1806 0.951 . S
C1824 C1825 1.366 . S
C1824 C1826 1.388 . S
C1825 C1824 1.366 . S
C1825 C1829 1.385 . S
C1826 H1807 0.951 . S
C1826 C1824 1.388 . S
C1826 C1827 1.366 . S
C1827 C1826 1.366 . S
C1827 C1828 1.414 . S
C1827 C1830 1.499 . S
C1828 H1808 0.950 . S
C1828 C1827 1.414 . S
C1828 C1829 1.374 . S
C1829 H1809 0.950 . S
C1829 C1825 1.385 . S
C1829 C1828 1.374 . S
C1830 C1827 1.499 . S
C1830 C1831 1.373 . S
C1830 C1832 1.389 . S
C1831 H1810 0.950 . S
C1831 C1830 1.373 . S
C1831 C1847 1.377 . S
C1832 C1830 1.389 . S
C1832 C1833 1.524 . S
C1832 C1846 1.377 . S
C1833 C1832 1.524 . S
C1833 C1834 1.397 . S
C1833 C1838 1.363 . S
C1834 H1811 0.950 . S
C1834 C1833 1.397 . S
C1834 C1835 1.334 . S
C1835 H1812 0.950 . S
C1835 C1834 1.334 . S
C1835 C1836 1.287 . S
C1836 C1835 1.287 . S
C1836 C1837 1.524 . S
C1836 H1855 0.913 . S
C1837 H1813 0.950 . S
C1837 C1836 1.524 . S
C1837 C1838 1.415 . S
C1838 H1814 0.950 . S
C1838 C1833 1.363 . S
C1838 C1837 1.415 . S
C1839 H1815 0.951 . S
C1839 C1840 1.366 . S
C1839 C1841 1.388 . S
C1840 C1839 1.366 . S
C1840 C1844 1.385 . S
C1841 H1816 0.951 . S
C1841 C1839 1.388 . S
C1841 C1842 1.366 . S
C1842 C1841 1.366 . S
C1842 C1843 1.414 . S
C1842 C1845 1.499 . S
C1843 H1817 0.950 . S
C1843 C1842 1.414 . S
C1843 C1844 1.374 . S
C1844 H1818 0.950 . S
C1844 C1840 1.385 . S
C1844 C1843 1.374 . S
C1845 C1842 1.499 . S
C1845 C1846 1.373 . S
C1845 C1847 1.389 . S
C1846 H1819 0.950 . S
C1846 C1832 1.377 . S
C1846 C1845 1.373 . S
C1847 C1831 1.377 . S
C1847 C1845 1.389 . S
C1847 C1848 1.524 . S
C1848 C1847 1.524 . S
C1848 C1849 1.397 . S
C1848 C1853 1.363 . S
C1849 H1820 0.950 . S
C1849 C1848 1.397 . S
C1849 C1850 1.334 . S
C1850 H1821 0.950 . S
C1850 C1849 1.334 . S
C1850 C1851 1.287 . S
C1851 C1850 1.287 . S
C1851 C1852 1.524 . S
C1851 H1854 0.999 . S
C1852 H1822 0.950 . S
C1852 C1851 1.524 . S
C1852 C1853 1.415 . S
C1853 H1823 0.950 . S
C1853 C1848 1.363 . S
C1853 C1852 1.415 . S
H1854 C1851 0.999 . S
H1855 C1836 0.913 . S
H1856 C1874 0.951 . S
H1857 C1876 0.951 . S
H1858 C1878 0.950 . S
H1859 C1879 0.950 1_455 S
H1860 C1881 0.950 . S
H1861 C1884 0.950 . S
H1862 C1885 0.950 . S
H1863 C1887 0.950 . S
H1864 C1888 0.950 . S
H1865 C1889 0.951 . S
H1866 C1891 0.951 . S
H1867 C1893 0.950 . S
H1868 C1894 0.950 . S
H1869 C1896 0.950 . S
H1870 C1899 0.950 . S
H1871 C1900 0.950 . S
H1872 C1902 0.950 1_455 S
H1873 C1903 0.950 . S
C1874 H1856 0.951 . S
C1874 C1875 1.366 . S
C1874 C1876 1.388 . S
C1875 C1874 1.366 . S
C1875 C1879 1.385 . S
C1876 H1857 0.951 . S
C1876 C1874 1.388 . S
C1876 C1877 1.366 . S
C1877 C1876 1.366 . S
C1877 C1878 1.414 . S
C1877 C1880 1.499 . S
C1878 H1858 0.950 . S
C1878 C1877 1.414 . S
C1878 C1879 1.374 . S
C1879 H1859 0.950 1_655 S
C1879 C1875 1.385 . S
C1879 C1878 1.374 . S
C1880 C1877 1.499 . S
C1880 C1881 1.373 . S
C1880 C1882 1.389 . S
C1881 H1860 0.950 . S
C1881 C1880 1.373 . S
C1881 C1897 1.377 . S
C1882 C1880 1.389 . S
C1882 C1883 1.524 . S
C1882 C1896 1.377 . S
C1883 C1882 1.524 . S
C1883 C1884 1.397 . S
C1883 C1888 1.363 . S
C1884 H1861 0.950 . S
C1884 C1883 1.397 . S
C1884 C1885 1.334 . S
C1885 H1862 0.950 . S
C1885 C1884 1.334 . S
C1885 C1886 1.287 . S
C1886 C1885 1.287 . S
C1886 C1887 1.524 . S
C1886 H1905 0.913 . S
C1887 H1863 0.950 . S
C1887 C1886 1.524 . S
C1887 C1888 1.415 . S
C1888 H1864 0.950 . S
C1888 C1883 1.363 . S
C1888 C1887 1.415 . S
C1889 H1865 0.951 . S
C1889 C1890 1.366 . S
C1889 C1891 1.388 . S
C1890 C1889 1.366 . S
C1890 C1894 1.385 . S
C1891 H1866 0.951 . S
C1891 C1889 1.388 . S
C1891 C1892 1.366 . S
C1892 C1891 1.366 . S
C1892 C1893 1.414 . S
C1892 C1895 1.499 . S
C1893 H1867 0.950 . S
C1893 C1892 1.414 . S
C1893 C1894 1.374 . S
C1894 H1868 0.950 . S
C1894 C1890 1.385 . S
C1894 C1893 1.374 . S
C1895 C1892 1.499 . S
C1895 C1896 1.373 . S
C1895 C1897 1.389 . S
C1896 H1869 0.950 . S
C1896 C1882 1.377 . S
C1896 C1895 1.373 . S
C1897 C1881 1.377 . S
C1897 C1895 1.389 . S
C1897 C1898 1.524 . S
C1898 C1897 1.524 . S
C1898 C1899 1.397 . S
C1898 C1903 1.363 . S
C1899 H1870 0.950 . S
C1899 C1898 1.397 . S
C1899 C1900 1.334 . S
C1900 H1871 0.950 . S
C1900 C1899 1.334 . S
C1900 C1901 1.287 . S
C1901 C1900 1.287 . S
C1901 C1902 1.524 . S
C1901 H1904 0.999 . S
C1902 H1872 0.950 1_655 S
C1902 C1901 1.524 . S
C1902 C1903 1.415 . S
C1903 H1873 0.950 . S
C1903 C1898 1.363 . S
C1903 C1902 1.415 . S
H1904 C1901 0.999 . S
H1905 C1886 0.913 . S
H1906 C1924 0.951 . S
H1907 C1926 0.951 . S
H1908 C1928 0.950 . S
H1909 C1929 0.950 . S
H1910 C1931 0.950 . S
H1911 C1934 0.950 . S
H1912 C1935 0.950 . S
H1913 C1937 0.950 . S
H1914 C1938 0.950 . S
H1915 C1939 0.951 . S
H1916 C1941 0.951 . S
H1917 C1943 0.950 . S
H1918 C1944 0.950 . S
H1919 C1946 0.950 . S
H1920 C1949 0.950 . S
H1921 C1950 0.950 . S
H1922 C1952 0.950 . S
H1923 C1953 0.950 . S
C1924 H1906 0.951 . S
C1924 C1925 1.366 . S
C1924 C1926 1.388 . S
C1925 C1924 1.366 . S
C1925 C1929 1.385 . S
C1926 H1907 0.951 . S
C1926 C1924 1.388 . S
C1926 C1927 1.366 . S
C1927 C1926 1.366 . S
C1927 C1928 1.414 . S
C1927 C1930 1.499 . S
C1928 H1908 0.950 . S
C1928 C1927 1.414 . S
C1928 C1929 1.374 . S
C1929 H1909 0.950 . S
C1929 C1925 1.385 . S
C1929 C1928 1.374 . S
C1930 C1927 1.499 . S
C1930 C1931 1.373 . S
C1930 C1932 1.389 . S
C1931 H1910 0.950 . S
C1931 C1930 1.373 . S
C1931 C1947 1.377 . S
C1932 C1930 1.389 . S
C1932 C1933 1.524 . S
C1932 C1946 1.377 . S
C1933 C1932 1.524 . S
C1933 C1934 1.397 . S
C1933 C1938 1.363 . S
C1934 H1911 0.950 . S
C1934 C1933 1.397 . S
C1934 C1935 1.334 . S
C1935 H1912 0.950 . S
C1935 C1934 1.334 . S
C1935 C1936 1.287 . S
C1936 C1935 1.287 . S
C1936 C1937 1.524 . S
C1936 H1955 0.913 . S
C1937 H1913 0.950 . S
C1937 C1936 1.524 . S
C1937 C1938 1.415 . S
C1938 H1914 0.950 . S
C1938 C1933 1.363 . S
C1938 C1937 1.415 . S
C1939 H1915 0.951 . S
C1939 C1940 1.366 . S
C1939 C1941 1.388 . S
C1940 C1939 1.366 . S
C1940 C1944 1.385 . S
C1941 H1916 0.951 . S
C1941 C1939 1.388 . S
C1941 C1942 1.366 . S
C1942 C1941 1.366 . S
C1942 C1943 1.414 . S
C1942 C1945 1.499 . S
C1943 H1917 0.950 . S
C1943 C1942 1.414 . S
C1943 C1944 1.374 . S
C1944 H1918 0.950 . S
C1944 C1940 1.385 . S
C1944 C1943 1.374 . S
C1945 C1942 1.499 . S
C1945 C1946 1.373 . S
C1945 C1947 1.389 . S
C1946 H1919 0.950 . S
C1946 C1932 1.377 . S
C1946 C1945 1.373 . S
C1947 C1931 1.377 . S
C1947 C1945 1.389 . S
C1947 C1948 1.524 . S
C1948 C1947 1.524 . S
C1948 C1949 1.397 . S
C1948 C1953 1.363 . S
C1949 H1920 0.950 . S
C1949 C1948 1.397 . S
C1949 C1950 1.334 . S
C1950 H1921 0.950 . S
C1950 C1949 1.334 . S
C1950 C1951 1.287 . S
C1951 C1950 1.287 . S
C1951 C1952 1.524 . S
C1951 H1954 0.999 . S
C1952 H1922 0.950 . S
C1952 C1951 1.524 . S
C1952 C1953 1.415 . S
C1953 H1923 0.950 . S
C1953 C1948 1.363 . S
C1953 C1952 1.415 . S
H1954 C1951 0.999 . S
H1955 C1936 0.913 . S
H1956 C1974 0.951 . S
H1957 C1976 0.951 . S
H1958 C1978 0.950 . S
H1959 C1979 0.950 . S
H1960 C1981 0.950 . S
H1961 C1984 0.950 . S
H1962 C1985 0.950 . S
H1963 C1987 0.950 . S
H1964 C1988 0.950 . S
H1965 C1989 0.951 . S
H1966 C1991 0.951 . S
H1967 C1993 0.950 . S
H1968 C1994 0.950 . S
H1969 C1996 0.950 . S
H1970 C1999 0.950 . S
H1971 C2000 0.950 . S
H1972 C2002 0.950 . S
H1973 C2003 0.950 . S
C1974 H1956 0.951 . S
C1974 C1975 1.366 . S
C1974 C1976 1.388 . S
C1975 C1974 1.366 . S
C1975 C1979 1.385 . S
C1976 H1957 0.951 . S
C1976 C1974 1.388 . S
C1976 C1977 1.366 . S
C1977 C1976 1.366 . S
C1977 C1978 1.414 . S
C1977 C1980 1.499 . S
C1978 H1958 0.950 . S
C1978 C1977 1.414 . S
C1978 C1979 1.374 . S
C1979 H1959 0.950 . S
C1979 C1975 1.385 . S
C1979 C1978 1.374 . S
C1980 C1977 1.499 . S
C1980 C1981 1.373 . S
C1980 C1982 1.389 . S
C1981 H1960 0.950 . S
C1981 C1980 1.373 . S
C1981 C1997 1.377 . S
C1982 C1980 1.389 . S
C1982 C1983 1.524 . S
C1982 C1996 1.377 . S
C1983 C1982 1.524 . S
C1983 C1984 1.397 . S
C1983 C1988 1.363 . S
C1984 H1961 0.950 . S
C1984 C1983 1.397 . S
C1984 C1985 1.334 . S
C1985 H1962 0.950 . S
C1985 C1984 1.334 . S
C1985 C1986 1.287 . S
C1986 C1985 1.287 . S
C1986 C1987 1.524 . S
C1986 H2005 0.913 . S
C1987 H1963 0.950 . S
C1987 C1986 1.524 . S
C1987 C1988 1.415 . S
C1988 H1964 0.950 . S
C1988 C1983 1.363 . S
C1988 C1987 1.415 . S
C1989 H1965 0.951 . S
C1989 C1990 1.366 . S
C1989 C1991 1.388 . S
C1990 C1989 1.366 . S
C1990 C1994 1.385 . S
C1991 H1966 0.951 . S
C1991 C1989 1.388 . S
C1991 C1992 1.366 . S
C1992 C1991 1.366 . S
C1992 C1993 1.414 . S
C1992 C1995 1.499 . S
C1993 H1967 0.950 . S
C1993 C1992 1.414 . S
C1993 C1994 1.374 . S
C1994 H1968 0.950 . S
C1994 C1990 1.385 . S
C1994 C1993 1.374 . S
C1995 C1992 1.499 . S
C1995 C1996 1.373 . S
C1995 C1997 1.389 . S
C1996 H1969 0.950 . S
C1996 C1982 1.377 . S
C1996 C1995 1.373 . S
C1997 C1981 1.377 . S
C1997 C1995 1.389 . S
C1997 C1998 1.524 . S
C1998 C1997 1.524 . S
C1998 C1999 1.397 . S
C1998 C2003 1.363 . S
C1999 H1970 0.950 . S
C1999 C1998 1.397 . S
C1999 C2000 1.334 . S
C2000 H1971 0.950 . S
C2000 C1999 1.334 . S
C2000 C2001 1.287 . S
C2001 C2000 1.287 . S
C2001 C2002 1.524 . S
C2001 H2004 0.999 . S
C2002 H1972 0.950 . S
C2002 C2001 1.524 . S
C2002 C2003 1.415 . S
C2003 H1973 0.950 . S
C2003 C1998 1.363 . S
C2003 C2002 1.415 . S
H2004 C2001 0.999 . S
H2005 C1986 0.913 . S
H2006 C2024 0.951 . S
H2007 C2026 0.951 . S
H2008 C2028 0.950 . S
H2009 C2029 0.950 . S
H2010 C2031 0.950 . S
H2011 C2034 0.950 . S
H2012 C2035 0.950 . S
H2013 C2037 0.950 . S
H2014 C2038 0.950 . S
H2015 C2039 0.951 . S
H2016 C2041 0.951 . S
H2017 C2043 0.950 . S
H2018 C2044 0.950 . S
H2019 C2046 0.950 . S
H2020 C2049 0.950 1_545 S
H2021 C2050 0.950 . S
H2022 C2052 0.950 . S
H2023 C2053 0.950 . S
C2024 H2006 0.951 . S
C2024 C2025 1.366 . S
C2024 C2026 1.388 . S
C2025 C2024 1.366 . S
C2025 C2029 1.385 . S
C2026 H2007 0.951 . S
C2026 C2024 1.388 . S
C2026 C2027 1.366 . S
C2027 C2026 1.366 . S
C2027 C2028 1.414 . S
C2027 C2030 1.499 1_565 S
C2028 H2008 0.950 . S
C2028 C2027 1.414 . S
C2028 C2029 1.374 . S
C2029 H2009 0.950 . S
C2029 C2025 1.385 . S
C2029 C2028 1.374 . S
C2030 C2027 1.499 1_545 S
C2030 C2031 1.373 1_545 S
C2030 C2032 1.389 . S
C2031 H2010 0.950 . S
C2031 C2030 1.373 1_565 S
C2031 C2047 1.377 1_565 S
C2032 C2030 1.389 . S
C2032 C2033 1.524 . S
C2032 C2046 1.377 . S
C2033 C2032 1.524 . S
C2033 C2034 1.397 . S
C2033 C2038 1.363 . S
C2034 H2011 0.950 . S
C2034 C2033 1.397 . S
C2034 C2035 1.334 . S
C2035 H2012 0.950 . S
C2035 C2034 1.334 . S
C2035 C2036 1.287 . S
C2036 C2035 1.287 . S
C2036 C2037 1.524 . S
C2036 H2055 0.913 . S
C2037 H2013 0.950 . S
C2037 C2036 1.524 . S
C2037 C2038 1.415 . S
C2038 H2014 0.950 . S
C2038 C2033 1.363 . S
C2038 C2037 1.415 . S
C2039 H2015 0.951 . S
C2039 C2040 1.366 . S
C2039 C2041 1.388 . S
C2040 C2039 1.366 . S
C2040 C2044 1.385 . S
C2041 H2016 0.951 . S
C2041 C2039 1.388 . S
C2041 C2042 1.366 . S
C2042 C2041 1.366 . S
C2042 C2043 1.414 . S
C2042 C2045 1.499 . S
C2043 H2017 0.950 . S
C2043 C2042 1.414 . S
C2043 C2044 1.374 . S
C2044 H2018 0.950 . S
C2044 C2040 1.385 . S
C2044 C2043 1.374 . S
C2045 C2042 1.499 . S
C2045 C2046 1.373 . S
C2045 C2047 1.389 . S
C2046 H2019 0.950 . S
C2046 C2032 1.377 . S
C2046 C2045 1.373 . S
C2047 C2031 1.377 1_545 S
C2047 C2045 1.389 . S
C2047 C2048 1.524 1_545 S
C2048 C2047 1.524 1_565 S
C2048 C2049 1.397 . S
C2048 C2053 1.363 . S
C2049 H2020 0.950 1_565 S
C2049 C2048 1.397 . S
C2049 C2050 1.334 . S
C2050 H2021 0.950 . S
C2050 C2049 1.334 . S
C2050 C2051 1.287 . S
C2051 C2050 1.287 . S
C2051 C2052 1.524 . S
C2051 H2054 0.999 . S
C2052 H2022 0.950 . S
C2052 C2051 1.524 . S
C2052 C2053 1.415 . S
C2053 H2023 0.950 . S
C2053 C2048 1.363 . S
C2053 C2052 1.415 . S
H2054 C2051 0.999 . S
H2055 C2036 0.913 . S
H2056 C2074 0.951 . S
H2057 C2076 0.951 . S
H2058 C2078 0.950 . S
H2059 C2079 0.950 . S
H2060 C2081 0.950 . S
H2061 C2084 0.950 . S
H2062 C2085 0.950 . S
H2063 C2087 0.950 . S
H2064 C2088 0.950 . S
H2065 C2089 0.951 . S
H2066 C2091 0.951 . S
H2067 C2093 0.950 . S
H2068 C2094 0.950 . S
H2069 C2096 0.950 . S
H2070 C2099 0.950 . S
H2071 C2100 0.950 . S
H2072 C2102 0.950 . S
H2073 C2103 0.950 . S
C2074 H2056 0.951 . S
C2074 C2075 1.366 . S
C2074 C2076 1.388 . S
C2075 C2074 1.366 . S
C2075 C2079 1.385 . S
C2076 H2057 0.951 . S
C2076 C2074 1.388 . S
C2076 C2077 1.366 . S
C2077 C2076 1.366 . S
C2077 C2078 1.414 . S
C2077 C2080 1.499 . S
C2078 H2058 0.950 . S
C2078 C2077 1.414 . S
C2078 C2079 1.374 . S
C2079 H2059 0.950 . S
C2079 C2075 1.385 . S
C2079 C2078 1.374 . S
C2080 C2077 1.499 . S
C2080 C2081 1.373 . S
C2080 C2082 1.389 . S
C2081 H2060 0.950 . S
C2081 C2080 1.373 . S
C2081 C2097 1.377 . S
C2082 C2080 1.389 . S
C2082 C2083 1.524 1_655 S
C2082 C2096 1.377 1_655 S
C2083 C2082 1.524 1_455 S
C2083 C2084 1.397 . S
C2083 C2088 1.363 . S
C2084 H2061 0.950 . S
C2084 C2083 1.397 . S
C2084 C2085 1.334 . S
C2085 H2062 0.950 . S
C2085 C2084 1.334 . S
C2085 C2086 1.287 . S
C2086 C2085 1.287 . S
C2086 C2087 1.524 . S
C2086 H2105 0.913 . S
C2087 H2063 0.950 . S
C2087 C2086 1.524 . S
C2087 C2088 1.415 . S
C2088 H2064 0.950 . S
C2088 C2083 1.363 . S
C2088 C2087 1.415 . S
C2089 H2065 0.951 . S
C2089 C2090 1.366 . S
C2089 C2091 1.388 . S
C2090 C2089 1.366 . S
C2090 C2094 1.385 . S
C2091 H2066 0.951 . S
C2091 C2089 1.388 . S
C2091 C2092 1.366 . S
C2092 C2091 1.366 . S
C2092 C2093 1.414 . S
C2092 C2095 1.499 . S
C2093 H2067 0.950 . S
C2093 C2092 1.414 . S
C2093 C2094 1.374 . S
C2094 H2068 0.950 . S
C2094 C2090 1.385 . S
C2094 C2093 1.374 . S
C2095 C2092 1.499 . S
C2095 C2096 1.373 . S
C2095 C2097 1.389 1_455 S
C2096 H2069 0.950 . S
C2096 C2082 1.377 1_455 S
C2096 C2095 1.373 . S
C2097 C2081 1.377 . S
C2097 C2095 1.389 1_655 S
C2097 C2098 1.524 . S
C2098 C2097 1.524 . S
C2098 C2099 1.397 . S
C2098 C2103 1.363 . S
C2099 H2070 0.950 . S
C2099 C2098 1.397 . S
C2099 C2100 1.334 . S
C2100 H2071 0.950 . S
C2100 C2099 1.334 . S
C2100 C2101 1.287 . S
C2101 C2100 1.287 . S
C2101 C2102 1.524 . S
C2101 H2104 0.999 . S
C2102 H2072 0.950 . S
C2102 C2101 1.524 . S
C2102 C2103 1.415 . S
C2103 H2073 0.950 . S
C2103 C2098 1.363 . S
C2103 C2102 1.415 . S
H2104 C2101 0.999 . S
H2105 C2086 0.913 . S
C775 C151 1.083 . S
C790 C58 0.965 . S
C825 C235 1.084 . S
C840 C142 0.967 . S
C875 C226 0.967 . S
C890 C67 1.083 . S
C925 C224 1.419 . S
C940 C153 1.226 . S
C975 C237 1.227 . S
C990 C56 1.420 . S
C1025 C69 1.227 . S
C1040 C140 1.419 . S
C1075 C310 0.967 . S
C1090 C403 1.084 . S
C1125 C487 1.084 . S
C1140 C394 0.967 . S
C1175 C478 0.964 . S
C1190 C319 1.083 . S
C1225 C405 1.224 . S
C1240 C476 1.418 . S
C1275 C489 1.225 . S
C1290 C308 1.419 . S
C1325 C392 1.419 . S
C1340 C321 1.225 . S
C1375 C655 1.083 . S
C1390 C562 0.964 . S
C1425 C646 0.967 . S
C1440 C739 1.084 . S
C1475 C730 0.967 . S
C1490 C571 1.084 . S
C1525 C728 1.419 . S
C1540 C657 1.227 . S
C1575 C741 1.224 . S
C1590 C560 1.418 . S
C1625 C573 1.224 . S
C1640 C644 1.419 . S
C1675 C494 2.459 . S
C1690 C63 2.584 . S
C1725 C326 2.459 . S
C1740 C147 2.584 . S
C1775 C231 2.584 . S
C1790 C410 2.460 . S
C1825 C242 2.459 . S
C1840 C567 2.584 . S
C1875 C74 2.460 . S
C1890 C651 2.584 . S
C1925 C735 2.584 . S
C1940 C158 2.459 . S
C1975 C315 2.584 . S
C1990 C746 2.459 . S
C2025 C399 2.584 . S
C2040 C578 2.459 . S
C2075 C662 2.459 . S
C2090 C483 2.584 . S
