# Generated by pormake.
# Topology smm, (6)-cn, num edge types: 1
# Building blocks:
#     Node 0, Type 0, BuildingBlock: BETDIP_clean_sbu_0, # of connection points: 6
#     Node 1, Type 0, BuildingBlock: BETDIP_clean_sbu_0, # of connection points: 6
#     Node 2, Type 0, BuildingBlock: BETDIP_clean_sbu_0, # of connection points: 6
#     Node 3, Type 0, BuildingBlock: BETDIP_clean_sbu_0, # of connection points: 6
#     Node 4, Type 0, BuildingBlock: BETDIP_clean_sbu_0, # of connection points: 6
#     Node 5, Type 0, BuildingBlock: BETDIP_clean_sbu_0, # of connection points: 6
#     Node 6, Type 0, BuildingBlock: BETDIP_clean_sbu_0, # of connection points: 6
#     Node 7, Type 0, BuildingBlock: BETDIP_clean_sbu_0, # of connection points: 6
#     Node 8, Type 0, BuildingBlock: BETDIP_clean_sbu_0, # of connection points: 6
#     Edge 9, Type (0, 0), BuildingBlock: XUDNAN_clean_linker_2, # of connection points: 2
#     Edge 10, Type (0, 0), BuildingBlock: XUDNAN_clean_linker_2, # of connection points: 2
#     Edge 11, Type (0, 0), BuildingBlock: XUDNAN_clean_linker_2, # of connection points: 2
#     Edge 12, Type (0, 0), BuildingBlock: XUDNAN_clean_linker_2, # of connection points: 2
#     Edge 13, Type (0, 0), BuildingBlock: XUDNAN_clean_linker_2, # of connection points: 2
#     Edge 14, Type (0, 0), BuildingBlock: XUDNAN_clean_linker_2, # of connection points: 2
#     Edge 15, Type (0, 0), BuildingBlock: XUDNAN_clean_linker_2, # of connection points: 2
#     Edge 16, Type (0, 0), BuildingBlock: XUDNAN_clean_linker_2, # of connection points: 2
#     Edge 17, Type (0, 0), BuildingBlock: XUDNAN_clean_linker_2, # of connection points: 2
#     Edge 18, Type (0, 0), BuildingBlock: XUDNAN_clean_linker_2, # of connection points: 2
#     Edge 19, Type (0, 0), BuildingBlock: XUDNAN_clean_linker_2, # of connection points: 2
#     Edge 20, Type (0, 0), BuildingBlock: XUDNAN_clean_linker_2, # of connection points: 2
#     Edge 21, Type (0, 0), BuildingBlock: XUDNAN_clean_linker_2, # of connection points: 2
#     Edge 22, Type (0, 0), BuildingBlock: XUDNAN_clean_linker_2, # of connection points: 2
#     Edge 23, Type (0, 0), BuildingBlock: XUDNAN_clean_linker_2, # of connection points: 2
#     Edge 24, Type (0, 0), BuildingBlock: XUDNAN_clean_linker_2, # of connection points: 2
#     Edge 25, Type (0, 0), BuildingBlock: XUDNAN_clean_linker_2, # of connection points: 2
#     Edge 26, Type (0, 0), BuildingBlock: XUDNAN_clean_linker_2, # of connection points: 2
#     Edge 27, Type (0, 0), BuildingBlock: XUDNAN_clean_linker_2, # of connection points: 2
#     Edge 28, Type (0, 0), BuildingBlock: XUDNAN_clean_linker_2, # of connection points: 2
#     Edge 29, Type (0, 0), BuildingBlock: XUDNAN_clean_linker_2, # of connection points: 2
#     Edge 30, Type (0, 0), BuildingBlock: XUDNAN_clean_linker_2, # of connection points: 2
#     Edge 31, Type (0, 0), BuildingBlock: XUDNAN_clean_linker_2, # of connection points: 2
#     Edge 32, Type (0, 0), BuildingBlock: XUDNAN_clean_linker_2, # of connection points: 2
#     Edge 33, Type (0, 0), BuildingBlock: XUDNAN_clean_linker_2, # of connection points: 2
#     Edge 34, Type (0, 0), BuildingBlock: XUDNAN_clean_linker_2, # of connection points: 2
#     Edge 35, Type (0, 0), BuildingBlock: XUDNAN_clean_linker_2, # of connection points: 2
# Relax obj value: 0.037
# Max RMSD: 0.111
# Mean RMSD: 0.111
data_MOF--net-smm--node1-BETDIP_clean_sbu_0--edge1-XUDNAN_clean_linker_2
_symmetry_space_group_name_H-M    P1
_symmetry_Int_Tables_number       1
_symmetry_cell_setting            triclinic
loop_
_symmetry_equiv_pos_as_xyz
'x, y, z'
_cell_length_a     69.888734
_cell_length_b     70.172757
_cell_length_c     14.205939
_cell_angle_alpha  90.20855
_cell_angle_beta   89.731177
_cell_angle_gamma 119.84103
loop_
_atom_site_label
_atom_site_type_symbol
_atom_site_fract_x
_atom_site_fract_y
_atom_site_fract_z
_atom_type_partial_charge
Tb0 Tb 1.03435 0.20657 -0.00992 0.0
Tb1 Tb 0.07866 0.20969 0.95519 0.0
C2 C 1.0038 0.21185 0.05825 0.0
C3 C 0.99915 0.22973 0.08538 0.0
C4 C 1.00624 0.24082 0.17201 0.0
C5 C 1.00016 0.2563 0.1999 0.0
C6 C 0.98675 0.26112 0.14217 0.0
C7 C 0.97984 0.25012 0.05519 0.0
C8 C 0.98588 0.23462 0.02744 0.0
C9 C 0.04262 0.20172 0.81414 0.0
C10 C 0.0775 0.25336 0.95411 0.0
C11 C 0.11082 0.20568 0.89777 0.0
C12 C 0.12196 0.19275 0.91651 0.0
C13 C 0.11023 0.17007 0.93532 0.0
C14 C 0.1215 0.15841 0.95089 0.0
C15 C 0.14473 0.16926 0.9489 0.0
C16 C 0.15631 0.19196 0.92969 0.0
C17 C 0.14507 0.20349 0.91367 0.0
C18 C 0.06905 0.21255 0.13402 0.0
C19 C 1.03449 0.16221 0.97434 0.0
O20 O 1.01782 0.20912 0.10943 0.0
O21 O 1.00602 0.2092 0.96839 0.0
O22 O 0.05643 0.21485 0.87253 0.0
O23 O 1.02296 0.19248 0.85016 0.0
O24 O 0.0581 0.24215 -0.00311 0.0
O25 O 0.08724 0.24309 0.91623 0.0
O26 O 0.09115 0.1955 0.86011 0.0
O27 O 0.1124 0.21955 0.96312 0.0
O28 O 0.05612 0.20032 0.07145 0.0
O29 O 0.08871 0.22181 0.0988 0.0
O30 O 0.05555 0.17411 0.94897 0.0
O31 O 1.02299 0.17149 0.00391 0.0
H32 H 1.0162 0.2373 0.21926 0.0
H33 H 1.00557 0.2641 0.268 0.0
H34 H 0.96979 0.25353 0.00803 0.0
H35 H 0.97989 0.22622 0.96078 0.0
H36 H 0.09242 0.16138 0.93834 0.0
H37 H 0.11204 0.14101 0.96621 0.0
H38 H 0.17415 0.20085 0.92607 0.0
H39 H 0.15451 0.22093 0.8987 0.0
Tb40 Tb 0.88535 0.85061 -0.00654 0.0
Tb41 Tb 0.88734 0.89408 0.96617 0.0
C42 C 0.87707 0.81208 0.0319 0.0
C43 C 0.86232 0.79163 0.08477 0.0
C44 C 0.87004 0.78667 0.16707 0.0
C45 C 0.85872 0.76562 0.2064 0.0
C46 C 0.83942 0.7489 0.16427 0.0
C47 C 0.83084 0.75424 0.08572 0.0
C48 C 0.84222 0.77534 0.04609 0.0
C49 C 0.89357 0.86587 0.8191 0.0
C50 C 0.84146 0.85197 0.97162 0.0
C51 C 0.89533 0.93124 0.90668 0.0
C52 C 0.91168 0.95469 0.92215 0.0
C53 C 0.93274 0.96128 0.95824 0.0
C54 C 0.94824 0.98366 0.96848 0.0
C55 C 0.94303 0.99996 0.94299 0.0
C56 C 0.92169 0.99319 0.90901 0.0
C57 C 0.90623 0.97082 0.89863 0.0
C58 C 0.88015 0.87984 0.14165 0.0
C59 C 0.93199 0.89241 0.00355 0.0
O60 O 0.89099 0.8295 0.07932 0.0
O61 O 0.86903 0.81706 0.9591 0.0
O62 O 0.88022 0.86692 0.87577 0.0
O63 O 0.90225 0.85556 0.8598 0.0
O64 O 0.85164 0.84362 0.02036 0.0
O65 O 0.853 0.87108 0.92792 0.0
O66 O 0.90249 0.9192 0.86584 0.0
O67 O 0.88193 0.92094 0.97662 0.0
O68 O 0.89215 0.87764 0.08171 0.0
O69 O 0.87393 0.893 0.10818 0.0
O70 O 0.92277 0.90392 0.97394 0.0
O71 O 0.92004 0.87133 0.02517 0.0
H72 H 0.8855 0.79873 0.1984 0.0
H73 H 0.86561 0.76216 0.2678 0.0
H74 H 0.81609 0.74175 0.05123 0.0
H75 H 0.83585 0.77849 0.98223 0.0
H76 H 0.93729 0.94916 0.97761 0.0
H77 H 0.96436 0.98818 -0.0038 0.0
H78 H 0.91712 1.00519 0.88767 0.0
H79 H 0.89007 0.96609 0.87071 0.0
Tb80 Tb 0.24973 0.06135 -0.01139 0.0
Tb81 Tb 0.20237 0.02561 0.95016 0.0
C82 C 0.28631 0.085 0.06895 0.0
C83 C 0.31022 0.09215 0.07542 0.0
C84 C 0.31894 0.09014 0.16153 0.0
C85 C 0.34183 0.10097 0.17639 0.0
C86 C 0.35655 0.11428 0.10573 0.0
C87 C 0.34783 0.11517 0.01769 0.0
C88 C 0.32499 0.10426 0.00267 0.0
C89 C 0.23779 0.05914 0.81197 0.0
C90 C 0.24008 1.01339 0.92709 0.0
C91 C 0.16366 1.00045 0.89144 0.0
C92 C 0.14009 0.99043 0.91975 0.0
C93 C 0.12783 0.96759 0.93235 0.0
C94 C 0.10541 0.95721 0.95504 0.0
C95 C 0.09445 0.96934 0.96547 0.0
C96 C 0.10658 0.99223 0.95127 0.0
C97 C 0.1292 1.0027 0.92879 0.0
C98 C 0.21502 0.03224 0.13015 0.0
C99 C 0.21277 0.07475 0.98077 0.0
O100 O 0.27167 0.06537 0.09892 0.0
O101 O 0.27954 0.09102 -0.00514 0.0
O102 O 0.23171 0.04291 0.86628 0.0
O103 O 0.25307 0.07663 0.85288 0.0
O104 O 0.2539 0.03215 0.96987 0.0
O105 O 0.22022 1.00932 0.90049 0.0
O106 O 0.17485 1.02153 0.87325 0.0
O107 O 0.17546 0.99374 0.93686 0.0
O108 O 0.22009 0.04577 0.06537 0.0
O109 O 0.19981 1.01359 0.09776 0.0
O110 O 0.1996 0.05546 0.94098 0.0
O111 O 0.23186 0.07905 0.01889 0.0
H112 H 0.308 0.08117 0.21934 0.0
H113 H 0.34793 0.1 0.24513 0.0
H114 H 0.35869 0.12499 0.96119 0.0
H115 H 0.31894 0.10624 0.93547 0.0
H116 H 0.13559 0.95762 0.92386 0.0
H117 H 0.09656 0.93953 0.96335 0.0
H118 H 0.09867 1.00207 0.95892 0.0
H119 H 0.1381 1.02033 0.91837 0.0
Tb120 Tb 0.70609 0.54949 0.35045 0.0
Tb121 Tb 0.7442 0.54122 0.31007 0.0
C122 C 0.67999 0.55958 0.43088 0.0
C123 C 0.67034 0.57431 0.43176 0.0
C124 C 0.68241 0.59675 0.456 0.0
C125 C 0.67186 0.60941 0.46214 0.0
C126 C 0.64908 0.59987 0.44415 0.0
C127 C 0.63718 0.57738 0.42127 0.0
C128 C 0.64763 0.56486 0.41518 0.0
C129 C 0.71037 0.54272 0.1722 0.0
C130 C 0.75425 0.59018 0.30662 0.0
C131 C 0.77085 0.52939 0.25023 0.0
C132 C 0.77717 0.51226 0.26655 0.0
C133 C 0.76482 0.49097 0.22886 0.0
C134 C 0.77197 0.47561 0.23904 0.0
C135 C 0.79167 0.48106 0.28715 0.0
C136 C 0.80391 0.50235 0.32517 0.0
C137 C 0.7968 0.51772 0.31466 0.0
C138 C 0.73589 0.54487 0.4903 0.0
C139 C 0.69551 0.50044 0.33133 0.0
O140 O 0.70043 0.56702 0.45807 0.0
O141 O 0.6746 0.54591 0.36007 0.0
O142 O 0.72623 0.55286 0.22874 0.0
O143 O 0.69219 0.53921 0.2119 0.0
O144 O 0.73422 0.58344 0.34161 0.0
O145 O 0.76044 0.57611 0.27717 0.0
O146 O 0.75173 0.52347 0.21117 0.0
O147 O 0.77541 0.54383 0.3173 0.0
O148 O 0.72253 0.53602 0.42476 0.0
O149 O 0.75528 0.55042 0.45805 0.0
O150 O 0.71571 0.50789 0.29762 0.0
O151 O 0.68955 0.51385 0.37105 0.0
H152 H 0.6999 0.60447 0.47062 0.0
H153 H 0.68155 0.62668 0.47981 0.0
H154 H 0.61957 0.56923 0.40921 0.0
H155 H 0.63775 0.54753 0.3987 0.0
H156 H 0.74979 0.48622 0.19016 0.0
H157 H 0.76222 0.45956 0.20724 0.0
H158 H 0.81897 0.50717 0.36372 0.0
H159 H 0.80687 0.53405 0.3436 0.0
Tb160 Tb 0.55332 0.18093 0.33337 0.0
Tb161 Tb 0.56426 0.22818 0.30607 0.0
C162 C 0.54036 0.14362 0.40478 0.0
C163 C 0.52279 0.12036 0.4114 0.0
C164 C 0.50027 0.11392 0.41208 0.0
C165 C 0.48433 0.09202 0.43134 0.0
C166 C 0.4906 0.07617 0.45079 0.0
C167 C 0.51317 0.0827 0.44684 0.0
C168 C 0.52901 0.10448 0.4273 0.0
C169 C 0.56125 0.19509 0.15675 0.0
C170 C 0.51422 0.19166 0.28854 0.0
C171 C 0.58058 0.26847 0.27621 0.0
C172 C 0.59172 0.2926 0.26302 0.0
C173 C 0.58171 0.30235 0.21185 0.0
C174 C 0.59105 0.32529 0.21064 0.0
C175 C 0.61075 0.33895 0.25964 0.0
C176 C 0.62123 0.32913 0.30703 0.0
C177 C 0.61177 0.30625 0.3091 0.0
C178 C 0.55225 0.21231 0.47642 0.0
C179 C 0.6025 0.21684 0.32228 0.0
O180 O 0.53648 0.15851 0.4417 0.0
O181 O 0.55195 0.15028 0.32693 0.0
O182 O 0.55214 0.19993 0.22085 0.0
O183 O 0.56437 0.17947 0.18809 0.0
O184 O 0.51996 0.1771 0.3172 0.0
O185 O 0.52919 0.21259 0.27254 0.0
O186 O 0.56763 0.25374 0.21441 0.0
O187 O 0.5841 0.26031 0.3525 0.0
O188 O 0.56476 0.20902 0.42279 0.0
O189 O 0.54691 0.22546 0.43595 0.0
O190 O 0.59554 0.22881 0.27816 0.0
O191 O 0.58839 0.19844 0.36532 0.0
H192 H 0.49504 0.12588 0.40009 0.0
H193 H 0.46711 0.08758 0.43222 0.0
H194 H 0.51878 0.0712 0.46273 0.0
H195 H 0.5463 0.10912 0.42811 0.0
H196 H 0.56623 0.29222 0.1759 0.0
H197 H 0.58267 0.33234 0.17261 0.0
H198 H 0.63627 0.33907 0.3461 0.0
H199 H 0.6199 0.2992 0.349 0.0
Tb200 Tb 0.91208 0.39357 0.32004 0.0
Tb201 Tb 0.87115 0.34965 0.28354 0.0
C202 C 0.94766 0.42457 0.38557 0.0
C203 C 0.96994 0.42989 0.41966 0.0
C204 C 0.97357 0.42801 0.51564 0.0
C205 C 0.9949 0.43516 0.54949 0.0
C206 C 1.0133 0.44453 0.48855 0.0
C207 C 1.00965 0.44632 0.39243 0.0
C208 C 0.98828 0.43915 0.35853 0.0
C209 C 0.89943 0.38427 0.14257 0.0
C210 C 0.91594 0.35025 0.28563 0.0
C211 C 0.83505 0.31944 0.21984 0.0
C212 C 0.81121 0.31023 0.24066 0.0
C213 C 0.7961 0.30461 0.16649 0.0
C214 C 0.77332 0.29413 0.18448 0.0
C215 C 0.76517 0.28884 0.27714 0.0
C216 C 0.78041 0.29518 0.35148 0.0
C217 C 0.80314 0.30583 0.33356 0.0
C218 C 0.88335 0.35651 0.46037 0.0
C219 C 0.86725 0.39337 0.31393 0.0
O220 O 0.9305 0.41161 0.43738 0.0
O221 O 0.94356 0.42072 0.29559 0.0
O222 O 0.89894 0.37156 0.20503 0.0
O223 O 0.90906 0.4041 0.17627 0.0
O224 O 0.92406 0.36967 0.32823 0.0
O225 O 0.8961 0.34079 0.24664 0.0
O226 O 0.84562 0.33921 0.18354 0.0
O227 O 0.84673 0.31648 0.28391 0.0
O228 O 0.88438 0.37094 0.4042 0.0
O229 O 0.87328 0.33751 0.41969 0.0
O230 O 0.85793 0.37222 0.29198 0.0
O231 O 0.88852 0.4053 0.3339 0.0
H232 H 0.95997 0.42143 0.5653 0.0
H233 H 0.99701 0.43382 0.62419 0.0
H234 H 1.0233 0.45322 0.3431 0.0
H235 H 0.98621 0.44121 0.28446 0.0
H236 H 0.80189 0.30784 0.09428 0.0
H237 H 0.76207 0.28939 0.1256 0.0
H238 H 0.77472 0.29166 0.42375 0.0
H239 H 0.81436 0.31017 0.39242 0.0
Tb240 Tb 0.36237 0.87147 0.65819 0.0
Tb241 Tb 0.4063 0.8748 0.613 0.0
C242 C 0.33301 0.87706 0.73684 0.0
C243 C 0.32609 0.89394 0.74593 0.0
C244 C 0.32476 0.90183 0.83559 0.0
C245 C 0.31577 0.9157 0.84717 0.0
C246 C 0.30766 0.92182 0.76936 0.0
C247 C 0.30989 0.91467 0.67923 0.0
C248 C 0.31899 0.90095 0.6676 0.0
C249 C 0.37091 0.87004 0.47695 0.0
C250 C 0.40523 0.91877 0.61797 0.0
C251 C 0.43747 0.87066 0.54467 0.0
C252 C 0.44853 0.8576 0.56007 0.0
C253 C 0.43697 0.83546 0.5882 0.0
C254 C 0.44826 0.82386 0.604 0.0
C255 C 0.47134 0.83431 0.59332 0.0
C256 C 0.48272 0.8564 0.56425 0.0
C257 C 0.47145 0.86786 0.54769 0.0
C258 C 0.39949 0.8779 0.79354 0.0
C259 C 0.36263 0.82734 0.63615 0.0
O260 O 0.35144 0.88121 0.77784 0.0
O261 O 0.33059 0.86754 0.65481 0.0
O262 O 0.38398 0.88121 0.54069 0.0
O263 O 0.35106 0.86045 0.51149 0.0
O264 O 0.3856 0.90743 0.65925 0.0
O265 O 0.41496 0.90853 0.5794 0.0
O266 O 0.41732 0.86048 0.51166 0.0
O267 O 0.44001 0.88467 0.61105 0.0
O268 O 0.38503 0.86522 0.73564 0.0
O269 O 0.41844 0.88736 0.75195 0.0
O270 O 0.38313 0.8394 0.60473 0.0
O271 O 0.35166 0.8365 0.67314 0.0
H272 H 0.33 0.89665 0.89735 0.0
H273 H 0.3142 0.92075 0.91756 0.0
H274 H 0.30412 0.91931 0.61753 0.0
H275 H 0.31984 0.89533 0.59742 0.0
H276 H 0.41931 0.82723 0.5991 0.0
H277 H 0.43903 0.80693 0.62699 0.0
H278 H 0.50044 0.86489 0.55417 0.0
H279 H 0.48072 0.88489 0.52587 0.0
Tb280 Tb 0.21694 0.51599 0.68536 0.0
Tb281 Tb 0.21842 0.5591 0.64704 0.0
C282 C 0.21051 0.48013 0.75477 0.0
C283 C 0.19371 0.45673 0.76734 0.0
C284 C 0.17101 0.44939 0.76558 0.0
C285 C 0.15564 0.42734 0.78527 0.0
C286 C 0.16266 0.41217 0.80713 0.0
C287 C 0.18544 0.4196 0.80632 0.0
C288 C 0.20074 0.4416 0.78671 0.0
C289 C 0.2197 0.52741 0.50536 0.0
C290 C 0.17177 0.51651 0.65469 0.0
C291 C 0.22554 0.59564 0.5833 0.0
C292 C 0.24226 0.61924 0.59098 0.0
C293 C 0.26441 0.62631 0.6121 0.0
C294 C 0.27982 0.64882 0.61859 0.0
C295 C 0.27343 0.66477 0.60438 0.0
C296 C 0.25112 0.65752 0.58477 0.0
C297 C 0.23576 0.63503 0.57811 0.0
C298 C 0.21303 0.54721 0.82456 0.0
C299 C 0.26353 0.55812 0.67849 0.0
O300 O 0.20753 0.49463 0.80094 0.0
O301 O 0.21804 0.48669 0.66959 0.0
O302 O 0.20898 0.53002 0.56984 0.0
O303 O 0.22841 0.51635 0.53924 0.0
O304 O 0.18181 0.50657 0.69283 0.0
O305 O 0.18334 0.53644 0.61728 0.0
O306 O 0.23125 0.58275 0.5393 0.0
O307 O 0.21407 0.58652 0.6594 0.0
O308 O 0.22537 0.54479 0.76654 0.0
O309 O 0.20503 0.55836 0.78578 0.0
O310 O 0.25389 0.56883 0.64422 0.0
O311 O 0.25181 0.53782 0.71066 0.0
H312 H 0.1652 0.46075 0.75044 0.0
H313 H 0.13824 0.4222 0.78379 0.0
H314 H 0.19156 0.4086 0.82394 0.0
H315 H 0.21819 0.44692 0.78887 0.0
H316 H 0.26981 0.61447 0.62339 0.0
H317 H 0.29677 0.65371 0.63512 0.0
H318 H 0.24559 0.66922 0.57226 0.0
H319 H 0.21873 0.62995 0.56212 0.0
Tb320 Tb 0.58016 0.7314 0.63919 0.0
Tb321 Tb 0.53363 0.69392 0.60218 0.0
C322 C 0.61722 0.75746 0.7111 0.0
C323 C 0.63958 0.76158 0.73707 0.0
C324 C 0.64369 0.75745 0.82942 0.0
C325 C 0.66521 0.76438 0.85958 0.0
C326 C 0.68334 0.77576 0.79849 0.0
C327 C 0.67921 0.77959 0.70553 0.0
C328 C 0.65762 0.77264 0.67529 0.0
C329 C 0.56637 0.72601 0.462 0.0
C330 C 0.57321 0.68435 0.58436 0.0
C331 C 0.49529 0.66789 0.54137 0.0
C332 C 0.47162 0.65761 0.56885 0.0
C333 C 0.45959 0.63477 0.58203 0.0
C334 C 0.43718 0.62419 0.60528 0.0
C335 C 0.42599 0.63609 0.61569 0.0
C336 C 0.43785 0.65895 0.60054 0.0
C337 C 0.46047 0.66964 0.57756 0.0
C338 C 0.54602 0.69808 0.78008 0.0
C339 C 0.54197 0.74267 0.63603 0.0
O340 O 0.60028 0.74261 0.75882 0.0
O341 O 0.61256 0.75771 0.62206 0.0
O342 O 0.56246 0.7117 0.52259 0.0
O343 O 0.58076 0.74492 0.49664 0.0
O344 O 0.58554 0.7028 0.63208 0.0
O345 O 0.55361 0.67981 0.55132 0.0
O346 O 0.50619 0.68891 0.52178 0.0
O347 O 0.50726 0.66172 0.58883 0.0
O348 O 0.55075 0.71359 0.72327 0.0
O349 O 0.5323 0.67992 0.73911 0.0
O350 O 0.52872 0.72261 0.60301 0.0
O351 O 0.56223 0.74888 0.66487 0.0
H352 H 0.63032 0.74951 0.87979 0.0
H353 H 0.66766 0.76145 0.93215 0.0
H354 H 0.69269 0.78809 0.65614 0.0
H355 H 0.65514 0.77649 0.6042 0.0
H356 H 0.46755 0.62497 0.57394 0.0
H357 H 0.42854 0.60653 0.61449 0.0
H358 H 0.42975 0.66862 0.60819 0.0
H359 H 0.46918 0.68725 0.56681 0.0
H360 H 0.11475 0.28199 0.85301 0.0
H361 H 0.06268 0.27972 0.02904 0.0
H362 H 0.07827 0.3196 0.00805 0.0
H363 H 0.15828 0.33433 0.93521 0.0
H364 H 0.17107 0.34298 0.8211 0.0
H365 H 0.15582 0.31418 0.84976 0.0
H366 H 0.13128 0.30692 0.70292 0.0
H367 H 0.14641 0.33571 0.67393 0.0
H368 H 0.11688 0.32204 0.68808 0.0
H369 H 0.09956 0.35994 0.96841 0.0
H370 H 0.12541 0.39773 0.91615 0.0
H371 H 0.16338 0.37401 0.76306 0.0
C372 C 0.10665 0.28986 0.88746 0.0
C373 C 0.08744 0.27758 0.94287 0.0
C374 C 0.07737 0.28863 0.98624 0.0
C375 C 0.08611 0.31135 0.97467 0.0
C376 C 0.10494 0.32291 0.91928 0.0
C377 C 0.11513 0.31257 0.87644 0.0
C378 C 0.1352 0.32887 0.82047 0.0
C379 C 0.15634 0.33017 0.85897 0.0
C380 C 0.13226 0.32303 0.7151 0.0
C381 C 0.1348 0.34999 0.83924 0.0
C382 C 0.11715 0.34616 0.89607 0.0
C383 C 0.11338 0.36311 0.92349 0.0
C384 C 0.1281 0.38455 0.89272 0.0
C385 C 0.14648 0.38903 0.83495 0.0
C386 C 0.14967 0.37132 0.80775 0.0
H387 H 0.81356 0.86017 0.8613 0.0
H388 H 0.81397 0.81276 0.05597 0.0
H389 H 0.77424 0.78852 0.03132 0.0
H390 H 0.75939 0.85169 0.93099 0.0
H391 H 0.75184 0.85458 0.81293 0.0
H392 H 0.78043 0.86873 0.84725 0.0
H393 H 0.78957 0.85049 0.70864 0.0
H394 H 0.76099 0.83614 0.67439 0.0
H395 H 0.77499 0.82097 0.69824 0.0
H396 H 0.73484 0.76849 0.98219 0.0
H397 H 0.69761 0.75477 0.91765 0.0
H398 H 0.72145 0.81505 0.75737 0.0
C399 C 0.80524 0.84481 0.89949 0.0
C400 C 0.81706 0.83849 0.96078 0.0
C401 C 0.80547 0.81812 0.00874 0.0
C402 C 0.78281 0.80413 -0.00488 0.0
C403 C 0.77175 0.81065 0.93344 0.0
C404 C 0.78245 0.83055 0.88686 0.0
C405 C 0.76646 0.83338 0.82415 0.0
C406 C 0.76441 0.85328 0.85575 0.0
C407 C 0.77342 0.83536 0.72019 0.0
C408 C 0.74522 0.81193 0.84257 0.0
C409 C 0.74874 0.79909 0.90574 0.0
C410 C 0.73182 0.77849 0.93335 0.0
C411 C 0.71065 0.77087 0.89653 0.0
C412 C 0.70636 0.78382 0.83287 0.0
C413 C 0.72407 0.8046 0.80518 0.0
H414 H 0.27833 1.01218 0.97437 0.0
H415 H 0.21849 0.97879 0.80752 0.0
H416 H 0.2297 0.95283 0.75028 0.0
H417 H 0.31417 1.00609 0.80601 0.0
H418 H 0.32965 1.00096 0.8935 0.0
H419 H 0.31733 1.0175 0.9226 0.0
H420 H 0.29664 0.99174 0.06237 0.0
H421 H 0.30893 0.97514 0.0338 0.0
H422 H 0.27935 0.96269 0.04153 0.0
H423 H 0.24692 0.93062 0.70747 0.0
H424 H 0.26878 0.91219 0.68695 0.0
H425 H 0.31768 0.95825 0.88222 0.0
C426 C 0.26761 0.99939 0.92592 0.0
C427 C 0.24745 0.99768 0.89587 0.0
C428 C 0.23393 0.9806 0.83242 0.0
C429 C 0.24018 0.96569 0.79897 0.0
C430 C 0.26001 0.9678 0.82958 0.0
C431 C 0.27353 0.98407 0.892 0.0
C432 C 0.29386 0.98219 0.91392 0.0
C433 C 0.31501 1.00292 0.8821 0.0
C434 C 0.29474 0.97767 0.01917 0.0
C435 C 0.28952 0.96236 0.85406 0.0
C436 C 0.26993 0.95452 0.80566 0.0
C437 C 0.26231 0.93661 0.74489 0.0
C438 C 0.27496 0.92632 0.73319 0.0
C439 C 0.29508 0.93379 0.78218 0.0
C440 C 0.30237 0.95207 0.8439 0.0
H441 H 0.47755 0.15001 0.30898 0.0
H442 H 0.49778 0.21555 0.20513 0.0
H443 H 0.4601 0.2027 0.14864 0.0
H444 H 0.44104 0.12044 0.12001 0.0
H445 H 0.42053 0.09894 0.19293 0.0
H446 H 0.44901 0.11317 0.22869 0.0
H447 H 0.43815 0.12346 0.38726 0.0
H448 H 0.4096 0.10915 0.3524 0.0
H449 H 0.42254 0.13759 0.38739 0.0
H450 H 0.42094 0.1828 0.09602 0.0
H451 H 0.38182 0.15753 0.05991 0.0
H452 H 0.38556 0.10459 0.19981 0.0
C453 C 0.47402 0.16172 0.27521 0.0
C454 C 0.49083 0.18389 0.26186 0.0
C455 C 0.48537 0.19856 0.21688 0.0
C456 C 0.46395 0.1914 0.1841 0.0
C457 C 0.44792 0.16948 0.19715 0.0
C458 C 0.45255 0.15487 0.24245 0.0
C459 C 0.4321 0.13216 0.24695 0.0
C460 C 0.43591 0.11518 0.19398 0.0
C461 C 0.42519 0.12518 0.34962 0.0
C462 C 0.41538 0.13633 0.19639 0.0
C463 C 0.42499 0.15798 0.16796 0.0
C464 C 0.41321 0.16582 0.11817 0.0
C465 C 0.391 0.15126 0.09729 0.0
C466 C 0.38054 0.12899 0.12627 0.0
C467 C 0.393 0.12151 0.17693 0.0
H468 H 0.90569 0.31117 0.19714 0.0
H469 H 0.95811 0.36564 0.35047 0.0
H470 H 0.98171 0.34893 0.33073 0.0
H471 H 0.91526 0.26882 0.29139 0.0
H472 H 0.90915 0.25379 0.18215 0.0
H473 H 0.89633 0.26997 0.20895 0.0
H474 H 0.91129 0.29124 0.05252 0.0
H475 H 0.92423 0.27518 0.02538 0.0
H476 H 0.94047 0.30473 0.02816 0.0
H477 H 1.00001 0.32641 0.29198 0.0
H478 H 1.01125 0.29986 0.23948 0.0
H479 H 0.94671 0.25954 0.11413 0.0
C480 C 0.9221 0.31959 0.22692 0.0
C481 C 0.92996 0.3398 0.27553 0.0
C482 C 0.95161 0.35019 0.31305 0.0
C483 C 0.96519 0.34081 0.30212 0.0
C484 C 0.95697 0.32096 0.25352 0.0
C485 C 0.9359 0.31044 0.21672 0.0
C486 C 0.93108 0.28927 0.16732 0.0
C487 C 0.91181 0.26928 0.21534 0.0
C488 C 0.9265 0.29017 0.06211 0.0
C489 C 0.95273 0.28954 0.18189 0.0
C490 C 0.96744 0.30797 0.23175 0.0
C491 C 0.98854 0.31187 0.25338 0.0
C492 C 0.99473 0.29655 0.22366 0.0
C493 C 0.97993 0.2774 0.17276 0.0
C494 C 0.95862 0.27403 0.15182 0.0
H495 H 0.79538 0.71706 0.18995 0.0
H496 H 0.86205 0.72775 0.20609 0.0
H497 H 0.84735 0.68903 0.24968 0.0
H498 H 0.77331 0.67868 0.38859 0.0
H499 H 0.74691 0.66161 0.33394 0.0
H500 H 0.76249 0.69049 0.30675 0.0
H501 H 0.76088 0.68126 0.1293 0.0
H502 H 0.74532 0.65237 0.15597 0.0
H503 H 0.77065 0.66316 0.0897 0.0
H504 H 0.82596 0.64899 0.28069 0.0
H505 H 0.79888 0.60993 0.30632 0.0
H506 H 0.74546 0.62419 0.27789 0.0
C507 C 0.80685 0.71124 0.20329 0.0
C508 C 0.82994 0.72561 0.19548 0.0
C509 C 0.84437 0.71729 0.21339 0.0
C510 C 0.83616 0.69524 0.23765 0.0
C511 C 0.81343 0.68156 0.24458 0.0
C512 C 0.79891 0.68918 0.22884 0.0
C513 C 0.77518 0.67073 0.24062 0.0
C514 C 0.7638 0.67568 0.32235 0.0
C515 C 0.76225 0.66664 0.1484 0.0
C516 C 0.7787 0.65157 0.26399 0.0
C517 C 0.80094 0.65828 0.26539 0.0
C518 C 0.8085 0.64357 0.28082 0.0
C519 C 0.79297 0.62138 0.29501 0.0
C520 C 0.77006 0.614 0.29477 0.0
C521 C 0.76286 0.62939 0.27987 0.0
H522 H 0.14483 0.52425 0.53649 0.0
H523 H 0.14315 0.47979 0.75231 0.0
H524 H 0.10295 0.45693 0.73299 0.0
H525 H 0.09249 0.52079 0.59966 0.0
H526 H 0.08483 0.52156 0.47933 0.0
H527 H 0.11353 0.53491 0.5116 0.0
H528 H 0.12038 0.51235 0.38479 0.0
H529 H 0.09168 0.49884 0.3525 0.0
H530 H 0.10415 0.48278 0.38657 0.0
H531 H 0.06306 0.43818 0.68837 0.0
H532 H 1.02595 0.42516 0.62348 0.0
H533 H 0.05256 0.48166 0.43732 0.0
C534 C 0.13596 0.50985 0.58041 0.0
C535 C 0.14728 0.50385 0.64594 0.0
C536 C 0.13501 0.48471 0.70118 0.0
C537 C 0.11209 0.4716 0.69088 0.0
C538 C 0.10149 0.47775 0.62494 0.0
C539 C 0.11295 0.49644 0.57078 0.0
C540 C 0.09745 0.49903 0.50398 0.0
C541 C 0.09705 0.52034 0.52493 0.0
C542 C 0.1038 0.4982 0.40085 0.0
C543 C 0.07556 0.47887 0.52913 0.0
C544 C 0.07833 0.46687 0.59915 0.0
C545 C 0.06066 0.44754 0.63398 0.0
C546 C 1.03955 0.44033 0.59691 0.0
C547 C 1.0361 0.45237 0.52553 0.0
C548 C 0.05453 0.4719 0.49117 0.0
H549 H 0.60868 0.68126 0.65685 0.0
H550 H 0.55937 0.65629 0.43556 0.0
H551 H 0.57487 0.63416 0.37338 0.0
H552 H 0.65379 0.68376 0.51808 0.0
H553 H 0.6643 0.67429 0.61164 0.0
H554 H 0.65004 0.6891 0.63904 0.0
H555 H 0.62256 0.65702 0.74455 0.0
H556 H 0.63682 0.64219 0.71801 0.0
H557 H 0.60764 0.62967 0.69605 0.0
H558 H 0.59545 0.61517 0.33171 0.0
H559 H 0.61799 0.59731 0.32137 0.0
H560 H 0.65349 0.63201 0.57299 0.0
C561 C 0.6012 0.67114 0.59531 0.0
C562 C 0.58273 0.6706 0.55131 0.0
C563 C 0.57337 0.65698 0.47126 0.0
C564 C 0.58216 0.6444 0.43477 0.0
C565 C 0.60029 0.6453 0.47924 0.0
C566 C 0.60962 0.65807 0.55836 0.0
C567 C 0.62848 0.65506 0.59417 0.0
C568 C 0.65046 0.67686 0.5905 0.0
C569 C 0.62358 0.64541 0.69413 0.0
C570 C 0.62817 0.63864 0.52276 0.0
C571 C 0.61187 0.63353 0.45672 0.0
C572 C 0.60814 0.61886 0.38352 0.0
C573 C 0.621 0.60869 0.37859 0.0
C574 C 0.63736 0.61288 0.44706 0.0
C575 C 0.64122 0.62845 0.51926 0.0
H576 H 0.48985 0.03729 0.40774 0.0
H577 H 0.45395 0.06304 0.56306 0.0
H578 H 0.42799 0.02574 0.62048 0.0
H579 H 0.44257 0.98513 0.34234 0.0
H580 H 0.45699 0.97004 0.35731 0.0
H581 H 0.47199 0.99859 0.32424 0.0
H582 H 0.49775 1.00699 0.46773 0.0
H583 H 0.48276 0.9785 0.50149 0.0
H584 H 0.48595 0.99944 0.58406 0.0
H585 H 0.4065 0.9855 0.66588 0.0
H586 H 0.39093 0.9457 0.69234 0.0
H587 H 0.44164 0.9465 0.51188 0.0
C588 C 0.47656 0.03517 0.45387 0.0
C589 C 0.47401 0.05329 0.4803 0.0
C590 C 0.45614 0.04953 0.54004 0.0
C591 C 0.44136 0.02836 0.57381 0.0
C592 C 0.44461 1.01101 0.5475 0.0
C593 C 0.46173 1.01418 0.48859 0.0
C594 C 0.46185 0.99286 0.47239 0.0
C595 C 0.45812 0.98627 0.36786 0.0
C596 C 0.48335 0.99456 0.5086 0.0
C597 C 0.44224 0.97722 0.53203 0.0
C598 C 0.43245 0.98798 0.57451 0.0
C599 C 0.41403 0.97693 0.6328 0.0
C600 C 0.40532 0.95429 0.64753 0.0
C601 C 0.41504 0.94288 0.60452 0.0
C602 C 0.43383 0.95466 0.54631 0.0
H603 H 0.17565 0.07319 0.90389 0.0
H604 H 0.2332 0.11405 0.07489 0.0
H605 H 0.22139 0.1417 0.08856 0.0
H606 H 0.17584 0.11749 0.77617 0.0
H607 H 0.14623 0.10496 0.77318 0.0
H608 H 0.15884 0.08799 0.77838 0.0
H609 H 0.13613 0.06899 0.9281 0.0
H610 H 0.12348 0.08594 0.92351 0.0
H611 H 0.13763 0.08548 0.02847 0.0
H612 H 0.20374 0.16525 0.08293 0.0
H613 H 0.18189 0.18348 0.05578 0.0
H614 H 0.1357 0.12801 0.88667 0.0
C615 C 0.18575 0.08792 0.94448 0.0
C616 C 0.20542 0.09135 -0.0116 0.0
C617 C 0.21813 0.11095 0.04042 0.0
C618 C 0.21152 0.12679 0.04881 0.0
C619 C 0.19212 0.12291 0.00474 0.0
C620 C 0.17941 0.104 0.9534 0.0
C621 C 0.15949 0.10416 0.91157 0.0
C622 C 0.16015 0.10362 0.80341 0.0
C623 C 0.13791 0.085 0.95024 0.0
C624 C 0.16304 0.12614 0.94726 0.0
C625 C 0.18195 0.13662 0.00102 0.0
C626 C 0.18893 0.15722 0.04072 0.0
C627 C 0.17644 0.16752 0.02439 0.0
C628 C 0.1571 0.15734 0.96849 0.0
C629 C 0.15026 0.1362 0.93035 0.0
H630 H 0.93799 0.03533 -0.00264 0.0
H631 H 0.98676 1.01888 0.89627 0.0
H632 H 1.01502 0.05807 0.89828 0.0
H633 H 0.95735 0.08475 0.86188 0.0
H634 H 0.95225 0.09964 0.95295 0.0
H635 H 0.93577 0.07014 0.94729 0.0
H636 H 0.94615 0.06737 0.11943 0.0
H637 H 0.96267 0.09687 0.12562 0.0
H638 H 0.97482 0.08009 0.15183 0.0
H639 H 1.03772 0.09877 0.90463 0.0
H640 H 0.05398 0.13869 0.9178 0.0
H641 H 0.9912 0.13009 0.01597 0.0
C642 C 0.95461 0.03996 0.97555 0.0
C643 C 0.96009 1.02383 0.94729 0.0
C644 C 0.98213 0.03072 0.91996 0.0
C645 C 0.99831 0.05302 0.92023 0.0
C646 C 0.99235 0.06841 0.94817 0.0
C647 C 0.97108 0.06226 0.97565 0.0
C648 C 0.96917 0.08232 0.00159 0.0
C649 C 0.95265 0.08433 0.93706 0.0
C650 C 0.96283 0.08161 0.10582 0.0
C651 C 0.99264 0.10068 0.9833 0.0
C652 C 1.00565 0.09216 0.95266 0.0
C653 C 1.02774 0.10563 0.9293 0.0
C654 C 1.03686 0.12841 0.93736 0.0
C655 C 1.02406 0.13778 0.96899 0.0
C656 C 1.00156 0.12358 -0.00768 0.0
H657 H 0.9651 0.9299 0.91712 0.0
H658 H 0.95386 0.87932 0.12068 0.0
H659 H 0.9939 0.89548 0.1408 0.0
H660 H 1.01098 0.93051 0.80523 0.0
H661 H 1.02619 0.95974 0.78527 0.0
H662 H 0.99654 0.94564 0.79249 0.0
H663 H 0.99874 0.97194 0.9257 0.0
H664 H 1.02844 0.98615 0.91879 0.0
H665 H 1.01477 0.97488 0.02937 0.0
H666 H 1.03466 0.91551 0.13511 0.0
H667 H 0.07425 0.93746 0.09846 0.0
H668 H 0.06054 0.9749 0.89392 0.0
C669 C 0.97111 0.92247 0.96692 0.0
C670 C 0.95626 0.90334 0.01761 0.0
C671 C 0.96482 0.8939 0.08086 0.0
C672 C 0.98759 0.90303 0.0932 0.0
C673 C 1.00177 0.92163 0.04153 0.0
C674 C 0.99398 0.93127 0.97934 0.0
C675 C 1.01306 0.95038 0.92838 0.0
C676 C 1.0116 0.94631 0.82151 0.0
C677 C 1.01379 0.97213 0.95198 0.0
C678 C 1.03266 0.94964 0.97061 0.0
C679 C 1.02565 0.93305 0.03655 0.0
C680 C 1.04038 0.92856 0.08366 0.0
C681 C 0.06287 0.94106 0.06185 0.0
C682 C 0.0706 0.95782 -0.00729 0.0
C683 C 0.05523 0.96237 0.94771 0.0
H684 H 0.83454 0.48816 0.28379 0.0
H685 H 0.76629 0.43649 0.31513 0.0
H686 H 0.77842 0.40914 0.3279 0.0
H687 H 0.85289 0.45753 0.14674 0.0
H688 H 0.87945 0.46896 0.20278 0.0
H689 H 0.86558 0.48475 0.19681 0.0
H690 H 0.86808 0.48941 0.378 0.0
H691 H 0.88199 0.47365 0.38455 0.0
H692 H 0.85717 0.4654 0.45193 0.0
H693 H 0.79757 0.38706 0.33225 0.0
H694 H 0.82247 0.37172 0.33147 0.0
H695 H 0.87889 0.43744 0.30491 0.0
C696 C 0.82211 0.47115 0.29456 0.0
C697 C 0.79933 0.46462 0.29764 0.0
C698 C 0.78375 0.44203 0.31049 0.0
C699 C 0.7905 0.42632 0.31865 0.0
C700 C 0.81297 0.43332 0.31469 0.0
C701 C 0.82859 0.45519 0.30348 0.0
C702 C 0.85172 0.45823 0.30094 0.0
C703 C 0.86307 0.46794 0.20617 0.0
C704 C 0.86555 0.47252 0.3838 0.0
C705 C 0.84663 0.4346 0.31171 0.0
C706 C 0.82414 0.42056 0.31937 0.0
C707 C 0.81521 0.39792 0.32692 0.0
C708 C 0.82956 0.38936 0.32618 0.0
C709 C 0.85273 0.40332 0.31851 0.0
C710 C 0.86132 0.42632 0.31197 0.0
H711 H 0.70347 0.46648 0.29076 0.0
H712 H 0.65085 0.48018 0.3587 0.0
H713 H 0.62359 0.44074 0.343 0.0
H714 H 0.67385 0.42418 0.11934 0.0
H715 H 0.68543 0.40745 0.15533 0.0
H716 H 0.70094 0.4368 0.17119 0.0
H717 H 0.7049 0.4316 0.34883 0.0
H718 H 0.6895 0.40222 0.33371 0.0
H719 H 0.68052 0.41527 0.41876 0.0
H720 H 0.60181 0.39985 0.31619 0.0
H721 H 0.58741 0.36014 0.29259 0.0
H722 H 0.65407 0.37256 0.24611 0.0
C723 C 0.68621 0.4612 0.30251 0.0
C724 C 0.67933 0.47652 0.32593 0.0
C725 C 0.65659 0.46883 0.34116 0.0
C726 C 0.64094 0.44643 0.33197 0.0
C727 C 0.64824 0.43181 0.30823 0.0
C728 C 0.67036 0.43883 0.29467 0.0
C729 C 0.67386 0.41961 0.27199 0.0
C730 C 0.68413 0.42217 0.1736 0.0
C731 C 0.68803 0.41703 0.34786 0.0
C732 C 0.65025 0.40071 0.27464 0.0
C733 C 0.63572 0.40816 0.29487 0.0
C734 C 0.61304 0.39384 0.30038 0.0
C735 C 0.60499 0.3713 0.28611 0.0
C736 C 0.61954 0.36315 0.26717 0.0
C737 C 0.64249 0.3782 0.26098 0.0
H738 H 0.63661 0.25186 0.22859 0.0
H739 H 0.62304 0.1992 0.42447 0.0
H740 H 0.66285 0.21209 0.43447 0.0
H741 H 0.68087 0.25002 0.10362 0.0
H742 H 0.69697 0.27937 0.0884 0.0
H743 H 0.66736 0.26616 0.09682 0.0
H744 H 0.67091 0.29174 0.23564 0.0
H745 H 0.70053 0.30501 0.22775 0.0
H746 H 0.68681 0.29306 0.33751 0.0
H747 H 0.70417 0.23101 0.42634 0.0
H748 H 0.74408 0.25367 0.39507 0.0
H749 H 0.7314 0.29382 0.20174 0.0
C750 C 0.64198 0.243 0.27349 0.0
C751 C 0.62656 0.22446 0.32581 0.0
C752 C 0.6344 0.21337 0.38349 0.0
C753 C 0.65704 0.22061 0.38984 0.0
C754 C 0.67176 0.23894 0.33775 0.0
C755 C 0.66458 0.24993 0.28022 0.0
C756 C 0.68393 0.26907 0.23102 0.0
C757 C 0.68217 0.26596 0.12359 0.0
C758 C 0.68564 0.29102 0.25972 0.0
C759 C 0.70309 0.26708 0.26984 0.0
C760 C 0.69565 0.24967 0.33181 0.0
C761 C 0.71017 0.24468 0.3779 0.0
C762 C 0.73285 0.25775 0.36008 0.0
C763 C 0.74096 0.2756 0.29621 0.0
C764 C 0.72575 0.28022 0.25042 0.0
H765 H 0.50334 0.73895 0.56518 0.0
H766 H 0.56211 0.78262 0.72424 0.0
H767 H 0.54951 0.80964 0.73545 0.0
H768 H 0.5014 0.78108 0.43115 0.0
H769 H 0.47174 0.76818 0.43239 0.0
H770 H 0.48475 0.75161 0.43991 0.0
H771 H 0.46349 0.73423 0.59449 0.0
H772 H 0.45041 0.75076 0.58753 0.0
H773 H 0.46557 0.75179 0.69153 0.0
H774 H 0.5315 0.83256 0.72607 0.0
H775 H 0.50925 0.85021 0.69511 0.0
H776 H 0.46187 0.79236 0.54136 0.0
C777 C 0.51349 0.75413 0.60297 0.0
C778 C 0.53378 0.75857 0.64388 0.0
C779 C 0.54657 0.77875 0.69203 0.0
C780 C 0.53952 0.79423 0.69907 0.0
C781 C 0.51959 0.78942 0.6576 0.0
C782 C 0.50672 0.7699 0.61044 0.0
C783 C 0.48629 0.76923 0.5699 0.0
C784 C 0.48604 0.76742 0.46193 0.0
C785 C 0.46519 0.75038 0.61349 0.0
C786 C 0.48981 0.79149 0.60126 0.0
C787 C 0.50913 0.80279 0.65196 0.0
C788 C 0.51633 0.82387 0.68653 0.0
C789 C 0.50362 0.83381 0.66813 0.0
C790 C 0.48385 0.82277 0.61543 0.0
C791 C 0.47677 0.80117 0.58258 0.0
H792 H 0.26915 0.69937 0.67683 0.0
H793 H 0.31548 0.68487 0.5334 0.0
H794 H 0.34294 0.72431 0.531 0.0
H795 H 0.28328 0.74889 0.54969 0.0
H796 H 0.28058 0.76324 0.64985 0.0
H797 H 0.26456 0.73371 0.64407 0.0
H798 H 0.28027 0.73098 0.80498 0.0
H799 H 0.29635 0.76051 0.81126 0.0
H800 H 0.30973 0.7443 0.82076 0.0
H801 H 0.36497 0.76496 0.5383 0.0
H802 H 0.38084 0.80469 0.55625 0.0
H803 H 0.32093 0.79438 0.69555 0.0
C804 C 0.28505 0.70448 0.64476 0.0
C805 C 0.2901 0.6888 0.60585 0.0
C806 C 0.31124 0.69633 0.56531 0.0
C807 C 0.32695 0.71878 0.56301 0.0
C808 C 0.32142 0.73369 0.60165 0.0
C809 C 0.30105 0.72694 0.64203 0.0
C810 C 0.29944 0.74661 0.67766 0.0
C811 C 0.28086 0.7482 0.62729 0.0
C812 C 0.29626 0.74553 0.78505 0.0
C813 C 0.32201 0.76545 0.64979 0.0
C814 C 0.33434 0.75747 0.60633 0.0
C815 C 0.35553 0.77139 0.57284 0.0
C816 C 0.36445 0.79408 0.58384 0.0
C817 C 0.35234 0.80294 0.62834 0.0
C818 C 0.33074 0.78827 0.66177 0.0
H819 H 0.39118 0.64042 0.54531 0.0
H820 H 0.40695 0.60505 0.75256 0.0
H821 H 0.36767 0.583 0.7945 0.0
H822 H 0.34615 0.64089 0.68356 0.0
H823 H 0.32935 0.63695 0.58146 0.0
H824 H 0.35899 0.65124 0.5707 0.0
H825 H 0.3561 0.62392 0.44104 0.0
H826 H 0.32649 0.60953 0.45156 0.0
H827 H 0.34137 0.59485 0.46538 0.0
H828 H 0.32704 0.56295 0.80731 0.0
H829 H 0.28685 0.5465 0.79434 0.0
H830 H 0.29574 0.59469 0.58214 0.0
C831 C 0.38637 0.62831 0.60067 0.0
C832 C 0.40225 0.62439 0.64511 0.0
C833 C 0.39517 0.60817 0.71641 0.0
C834 C 0.37286 0.59562 0.74123 0.0
C835 C 0.35763 0.59949 0.69484 0.0
C836 C 0.36397 0.61552 0.62661 0.0
C837 C 0.34385 0.61557 0.58589 0.0
C838 C 0.34464 0.63747 0.60665 0.0
C839 C 0.34184 0.61067 0.47967 0.0
C840 C 0.32531 0.5968 0.64066 0.0
C841 C 0.33379 0.58791 0.70328 0.0
C842 C 0.32019 0.5699 0.7592 0.0
C843 C 0.2973 0.56059 0.7509 0.0
C844 C 0.288 0.56925 0.68732 0.0
C845 C 0.30229 0.5878 0.6321 0.0
H846 H 1.03646 0.22235 0.66484 0.0
H847 H 0.05873 0.17688 0.7408 0.0
H848 H 0.06731 0.1742 0.57361 0.0
H849 H 1.0105 0.19566 0.44445 0.0
H850 H 1.01856 0.22108 0.38374 0.0
H851 H 1.01414 0.21939 0.5092 0.0
H852 H 0.05354 0.25236 0.53334 0.0
H853 H 0.05802 0.25416 0.40796 0.0
H854 H 0.07683 0.2512 0.48482 0.0
H855 H 0.07427 0.1772 0.40003 0.0
H856 H 0.07889 0.18538 0.22931 0.0
H857 H 0.05109 0.22809 0.26364 0.0
C858 C 0.04315 0.21187 0.64565 0.0
C859 C 0.04742 0.20011 0.71482 0.0
C860 C 0.05595 0.18639 0.68839 0.0
C861 C 0.06066 0.18464 0.59376 0.0
C862 C 0.0565 0.1966 0.52682 0.0
C863 C 0.04786 0.20989 0.5513 0.0
C864 C 0.04504 0.22104 0.46541 0.0
C865 C 1.0206 0.21385 0.4498 0.0
C866 C 0.05921 0.24618 0.47339 0.0
C867 C 0.05363 0.2121 0.389 0.0
C868 C 0.06012 0.198 0.42612 0.0
C869 C 0.06912 0.18808 0.37006 0.0
C870 C 0.07169 0.1928 0.27356 0.0
C871 C 0.0652 0.20718 0.23444 0.0
C872 C 0.05595 0.21686 0.29246 0.0
H873 H 0.88667 0.89324 0.7027 0.0
H874 H 0.89299 0.83475 0.70495 0.0
H875 H 0.88651 0.83052 0.53442 0.0
H876 H 0.84484 0.87585 0.51839 0.0
H877 H 0.8571 0.90251 0.46357 0.0
H878 H 0.86038 0.90031 0.58816 0.0
H879 H 0.90285 0.92295 0.56934 0.0
H880 H 0.8997 0.92536 0.44495 0.0
H881 H 0.91635 0.91406 0.48596 0.0
H882 H 0.87976 0.83221 0.36688 0.0
H883 H 0.87749 0.84249 0.20388 0.0
H884 H 0.87821 0.90131 0.30145 0.0
C885 C 0.88656 0.87955 0.6669 0.0
C886 C 0.89028 0.8643 0.71663 0.0
C887 C 0.8903 0.84668 0.66794 0.0
C888 C 0.88644 0.84401 0.57124 0.0
C889 C 0.88287 0.85925 0.52396 0.0
C890 C 0.88322 0.87689 0.56927 0.0
C891 C 0.88068 0.89177 0.49916 0.0
C892 C 0.85948 0.89266 0.51849 0.0
C893 C 0.90111 0.9149 0.4999 0.0
C894 C 0.87906 0.87976 0.40776 0.0
C895 C 0.87999 0.86086 0.42465 0.0
C896 C 0.87924 0.84708 0.35251 0.0
C897 C 0.87822 0.85313 0.26006 0.0
C898 C 0.87828 0.87282 0.24024 0.0
C899 C 0.8781 0.88608 0.31503 0.0
H900 H 0.21486 1.02242 0.69681 0.0
H901 H 0.25303 0.09373 0.6954 0.0
H902 H 0.25109 0.09373 0.52311 0.0
H903 H 0.23891 1.01381 0.48952 0.0
H904 H 0.21367 0.9913 0.44432 0.0
H905 H 0.21706 0.99632 0.56928 0.0
H906 H 0.18136 0.99885 0.57565 0.0
H907 H 0.17775 0.99365 0.45082 0.0
H908 H 0.17865 1.01785 0.49939 0.0
H909 H 0.24793 0.08689 0.35524 0.0
H910 H 0.24009 0.07364 0.19309 0.0
H911 H 0.20205 1.00634 0.29258 0.0
C912 C 0.22254 0.03797 0.65987 0.0
C913 C 0.23425 0.05811 0.70933 0.0
C914 C 0.24412 0.07814 0.65898 0.0
C915 C 0.24314 0.07833 0.56102 0.0
C916 C 0.23203 0.05834 0.51404 0.0
C917 C 0.22159 0.03849 0.56098 0.0
C918 C 0.21079 1.01953 0.49119 0.0
C919 C 0.2207 1.00434 0.49907 0.0
C920 C 0.18564 1.00671 0.5051 0.0
C921 C 0.21708 0.03197 0.39823 0.0
C922 C 0.22947 0.05432 0.41425 0.0
C923 C 0.238 0.06946 0.34147 0.0
C924 C 0.23345 0.06169 0.24928 0.0
C925 C 0.22026 0.03895 0.22981 0.0
C926 C 0.21206 1.02381 0.30542 0.0
H927 H 0.76215 0.56134 0.64961 0.0
H928 H 0.69416 0.52346 0.55608 0.0
H929 H 0.68147 0.51745 0.71988 0.0
H930 H 0.75632 0.52933 0.85985 0.0
H931 H 0.77377 0.55274 0.93223 0.0
H932 H 0.77832 0.5538 0.80687 0.0
H933 H 0.77483 0.58877 0.7958 0.0
H934 H 0.77043 0.58791 0.92116 0.0
H935 H 0.75052 0.58828 0.84212 0.0
H936 H 0.67553 0.51468 0.88849 0.0
H937 H 0.67599 0.51847 0.06003 0.0
H938 H 0.74735 0.55951 0.05441 0.0
C939 C 0.74464 0.55179 0.66414 0.0
C940 C 0.72914 0.54266 0.59007 0.0
C941 C 0.70634 0.53047 0.6114 0.0
C942 C 0.69894 0.52689 0.70439 0.0
C943 C 0.7145 0.53579 0.77573 0.0
C944 C 0.73684 0.54824 0.75757 0.0
C945 C 0.74967 0.55665 0.84905 0.0
C946 C 0.76546 0.54758 0.86278 0.0
C947 C 0.7621 0.5819 0.8522 0.0
C948 C 0.73095 0.54696 0.92065 0.0
C949 C 0.71091 0.53479 0.87582 0.0
C950 C 0.69107 0.52422 0.92468 0.0
C951 C 0.69154 0.52651 0.02221 0.0
C952 C 0.71167 0.53941 0.07034 0.0
C953 C 0.73175 0.54951 0.0192 0.0
H954 H 0.57001 0.19304 0.59124 0.0
H955 H 0.52815 0.22256 0.5915 0.0
H956 H 0.5264 0.22096 0.7637 0.0
H957 H 0.54151 0.15573 0.79371 0.0
H958 H 0.56668 0.15846 0.84065 0.0
H959 H 0.56394 0.16071 0.71564 0.0
H960 H 0.59947 0.19879 0.71643 0.0
H961 H 0.60215 0.19682 0.84158 0.0
H962 H 0.60115 0.22005 0.79347 0.0
H963 H 0.53229 0.22069 0.93064 0.0
H964 H 0.54041 0.21599 0.09293 0.0
H965 H 0.5762 0.18368 -0.00446 0.0
C966 C 0.56021 0.19877 0.62793 0.0
C967 C 0.54939 0.20814 0.57832 0.0
C968 C 0.5367 0.2155 0.62815 0.0
C969 C 0.53561 0.21469 0.72603 0.0
C970 C 0.547 0.20613 0.7732 0.0
C971 C 0.55865 0.19781 0.72668 0.0
C972 C 0.56925 0.18953 0.79676 0.0
C973 C 0.55977 0.16462 0.78605 0.0
C974 C 0.59451 0.20205 0.78641 0.0
C975 C 0.56209 0.19508 0.8893 0.0
C976 C 0.54945 0.20483 0.87284 0.0
C977 C 0.54177 0.21266 0.94494 0.0
C978 C 0.54661 0.20998 0.03714 0.0
C979 C 0.55869 0.19919 0.05714 0.0
C980 C 0.56674 0.19178 0.98215 0.0
H981 H 0.89774 0.39354 0.57607 0.0
H982 H 0.87404 0.32331 0.57838 0.0
H983 H 0.87442 0.32355 0.75019 0.0
H984 H 0.93512 0.40566 0.77661 0.0
H985 H 0.9303 0.42672 0.82467 0.0
H986 H 0.928 0.42154 0.69971 0.0
H987 H 0.8883 0.41545 0.70341 0.0
H988 H 0.89038 0.42039 0.82854 0.0
H989 H 0.86816 0.39517 0.78186 0.0
H990 H 0.87523 0.32979 0.91658 0.0
H991 H 0.88104 0.34284 0.07893 0.0
H992 H 0.90668 0.40991 0.98169 0.0
C993 C 0.89282 0.37833 0.61315 0.0
C994 C 0.88564 0.35835 0.56368 0.0
C995 C 0.87941 0.33878 0.61441 0.0
C996 C 0.87951 0.33869 0.71229 0.0
C997 C 0.88621 0.35838 0.7591 0.0
C998 C 0.89316 0.37797 0.71228 0.0
C999 C 0.90028 0.39675 0.78247 0.0
C1000 C 0.92489 0.41367 0.77013 0.0
C1001 C 0.88592 0.40758 0.7735 0.0
C1002 C 0.89596 0.38442 0.87526 0.0
C1003 C 0.88763 0.36227 0.85874 0.0
C1004 C 0.88193 0.34711 0.93089 0.0
C1005 C 0.88528 0.35475 0.02315 0.0
C1006 C 0.89444 0.37741 0.04322 0.0
C1007 C 0.89963 0.3925 0.96827 0.0
H1008 H 0.34501 0.85268 0.3153 0.0
H1009 H 0.41263 0.89115 0.41309 0.0
H1010 H 0.42601 0.89623 0.25119 0.0
H1011 H 0.35711 0.82562 0.12043 0.0
H1012 H 0.33784 0.8268 0.04011 0.0
H1013 H 0.33274 0.82525 0.16513 0.0
H1014 H 0.3299 0.86061 0.15669 0.0
H1015 H 0.3351 0.86234 0.03174 0.0
H1016 H 0.3524 0.88521 0.10693 0.0
H1017 H 0.43282 0.89921 0.08468 0.0
H1018 H 0.4333 0.89849 0.913 0.0
H1019 H 0.36188 0.85734 0.90937 0.0
C1020 C 0.3626 0.86198 0.30211 0.0
C1021 C 0.37778 0.87148 0.37731 0.0
C1022 C 0.40065 0.88367 0.35735 0.0
C1023 C 0.40848 0.88671 0.26525 0.0
C1024 C 0.39329 0.87745 0.1929 0.0
C1025 C 0.37085 0.86524 0.20915 0.0
C1026 C 0.3585 0.8575 0.11602 0.0
C1027 C 0.3458 0.83229 0.11009 0.0
C1028 C 0.34306 0.86698 0.10205 0.0
C1029 C 0.37761 0.8674 0.04602 0.0
C1030 C 0.39741 0.87888 0.0932 0.0
C1031 C 0.41749 0.89013 0.04658 0.0
C1032 C 0.41752 0.8896 0.94866 0.0
C1033 C 0.39765 0.87775 0.89739 0.0
C1034 C 0.37733 0.86644 0.94673 0.0
H1035 H 0.23814 0.53659 0.94243 0.0
H1036 H 0.18036 0.54445 0.93312 0.0
H1037 H 0.17538 0.53844 0.10358 0.0
H1038 H 0.21693 0.49395 0.13122 0.0
H1039 H 0.2435 0.50483 0.18662 0.0
H1040 H 0.24174 0.50776 0.0614 0.0
H1041 H 0.26694 0.54986 0.0774 0.0
H1042 H 0.26861 0.5471 0.20266 0.0
H1043 H 0.25917 0.56492 0.15711 0.0
H1044 H 0.1782 0.53562 0.27216 0.0
H1045 H 0.187 0.5331 0.43628 0.0
H1046 H 0.24252 0.52574 0.34698 0.0
C1047 C 0.22424 0.53657 0.97649 0.0
C1048 C 0.20961 0.54101 0.92485 0.0
C1049 C 0.19178 0.54118 0.97148 0.0
C1050 C 0.18877 0.53774 0.0683 0.0
C1051 C 0.2037 0.53406 0.1179 0.0
C1052 C 0.22097 0.53318 0.07432 0.0
C1053 C 0.23499 0.52979 0.14685 0.0
C1054 C 0.23424 0.50777 0.13055 0.0
C1055 C 0.25884 0.54907 0.14592 0.0
C1056 C 0.2231 0.52945 0.23752 0.0
C1057 C 0.20511 0.53194 0.21806 0.0
C1058 C 0.19204 0.53335 0.28855 0.0
C1059 C 0.1973 0.53202 0.38191 0.0
C1060 C 0.21538 0.52911 0.40476 0.0
C1061 C 0.22846 0.52773 0.33145 0.0
H1062 H 0.58207 0.75189 0.2993 0.0
H1063 H 0.53517 0.68657 0.40069 0.0
H1064 H 0.52535 0.67355 0.23912 0.0
H1065 H 0.54806 0.75026 0.09489 0.0
H1066 H 0.57147 0.76474 0.01768 0.0
H1067 H 0.57451 0.76997 0.14261 0.0
H1068 H 0.60607 0.76076 0.14529 0.0
H1069 H 0.60295 0.75526 0.02062 0.0
H1070 H 0.60108 0.73458 0.10095 0.0
H1071 H 0.52288 0.66591 0.07301 0.0
H1072 H 0.52406 0.66476 0.90127 0.0
H1073 H 0.57025 0.73503 0.89433 0.0
C1074 C 0.56947 0.735 0.28695 0.0
C1075 C 0.55942 0.72023 0.36296 0.0
C1076 C 0.54315 0.6982 0.34415 0.0
C1077 C 0.53743 0.69057 0.25231 0.0
C1078 C 0.54796 0.70518 0.1791 0.0
C1079 C 0.56334 0.727 0.19427 0.0
C1080 C 0.57202 0.73878 0.10049 0.0
C1081 C 0.56616 0.75702 0.0882 0.0
C1082 C 0.59702 0.74788 0.09134 0.0
C1083 C 0.55929 0.71997 0.03152 0.0
C1084 C 0.54573 0.70081 0.07961 0.0
C1085 C 0.53311 0.68086 0.03408 0.0
C1086 C 0.53399 0.6804 0.9362 0.0
C1087 C 0.54711 0.69982 0.88396 0.0
C1088 C 0.56002 0.71995 0.93233 0.0
loop_
_geom_bond_atom_site_label_1
_geom_bond_atom_site_label_2
_geom_bond_distance
_geom_bond_site_symmetry_2
_ccdc_geom_bond_type
Tb0 C2 2.808 1_556 S
Tb0 O20 2.481 1_556 S
Tb0 O21 2.442 . S
Tb0 O22 2.661 1_655 S
Tb0 O23 2.415 . S
Tb0 O24 2.379 1_655 S
Tb0 O28 2.321 1_656 S
Tb0 O31 2.341 1_556 S
Tb1 C11 2.809 1_554 S
Tb1 O22 2.325 1_554 S
Tb1 O25 2.341 1_554 S
Tb1 O26 2.484 1_554 S
Tb1 O27 2.440 . S
Tb1 O28 2.658 . S
Tb1 O29 2.409 . S
Tb1 O30 2.378 . S
C2 Tb0 2.808 1_554 S
C2 C3 1.514 . S
C2 O20 1.248 . S
C2 O21 1.266 1_554 S
C3 C2 1.514 . S
C3 C4 1.359 . S
C3 C8 1.348 1_554 S
C4 C3 1.359 . S
C4 C5 1.380 . S
C4 H32 0.929 . S
C5 C4 1.380 . S
C5 C6 1.347 . S
C5 H33 0.931 . S
C6 C5 1.347 . S
C6 C7 1.369 1_554 S
C7 C6 1.369 1_556 S
C7 C8 1.408 . S
C7 H34 0.930 . S
C8 C3 1.348 1_556 S
C8 C7 1.408 . S
C8 H35 0.930 . S
C9 O22 1.281 . S
C9 O23 1.254 1_455 S
C10 O24 1.236 . S
C10 O25 1.266 . S
C11 Tb1 2.809 1_556 S
C11 C12 1.514 . S
C11 O26 1.248 . S
C11 O27 1.266 1_556 S
C12 C11 1.514 . S
C12 C13 1.359 . S
C12 C17 1.348 1_556 S
C13 C12 1.359 . S
C13 C14 1.380 . S
C13 H36 0.929 . S
C14 C13 1.380 . S
C14 C15 1.347 . S
C14 H37 0.931 . S
C15 C14 1.347 . S
C15 C16 1.369 1_556 S
C16 C15 1.369 1_554 S
C16 C17 1.408 . S
C16 H38 0.930 . S
C17 C12 1.348 1_554 S
C17 C16 1.408 . S
C17 H39 0.930 . S
C18 O28 1.281 . S
C18 O29 1.254 . S
C19 O30 1.236 1_655 S
C19 O31 1.266 . S
O20 Tb0 2.481 1_554 S
O20 C2 1.248 . S
O21 Tb0 2.442 . S
O21 C2 1.266 1_556 S
O22 Tb0 2.661 1_455 S
O22 Tb1 2.325 1_556 S
O22 C9 1.281 . S
O23 Tb0 2.415 . S
O23 C9 1.254 1_655 S
O24 Tb0 2.379 1_455 S
O24 C10 1.236 . S
O25 Tb1 2.341 1_556 S
O25 C10 1.266 . S
O26 Tb1 2.484 1_556 S
O26 C11 1.248 . S
O27 Tb1 2.440 . S
O27 C11 1.266 1_554 S
O28 Tb0 2.321 1_454 S
O28 Tb1 2.658 . S
O28 C18 1.281 . S
O29 Tb1 2.409 . S
O29 C18 1.254 . S
O30 Tb1 2.378 . S
O30 C19 1.236 1_455 S
O31 Tb0 2.341 1_554 S
O31 C19 1.266 . S
H32 C4 0.929 . S
H33 C5 0.931 . S
H34 C7 0.930 . S
H35 C8 0.930 . S
H36 C13 0.929 . S
H37 C14 0.931 . S
H38 C16 0.930 . S
H39 C17 0.930 . S
Tb40 C42 2.808 1_556 S
Tb40 O60 2.481 1_556 S
Tb40 O61 2.442 . S
Tb40 O62 2.662 . S
Tb40 O63 2.415 . S
Tb40 O64 2.380 . S
Tb40 O68 2.320 1_556 S
Tb40 O71 2.341 1_556 S
Tb41 C51 2.809 1_554 S
Tb41 O62 2.325 1_554 S
Tb41 O65 2.341 1_554 S
Tb41 O66 2.484 1_554 S
Tb41 O67 2.440 . S
Tb41 O68 2.658 . S
Tb41 O69 2.409 . S
Tb41 O70 2.378 . S
C42 Tb40 2.808 1_554 S
C42 C43 1.514 . S
C42 O60 1.248 . S
C42 O61 1.266 1_554 S
C43 C42 1.514 . S
C43 C44 1.359 . S
C43 C48 1.348 1_554 S
C44 C43 1.359 . S
C44 C45 1.380 . S
C44 H72 0.929 . S
C45 C44 1.380 . S
C45 C46 1.347 . S
C45 H73 0.931 . S
C46 C45 1.347 . S
C46 C47 1.369 1_554 S
C47 C46 1.369 1_556 S
C47 C48 1.408 . S
C47 H74 0.930 . S
C48 C43 1.348 1_556 S
C48 C47 1.408 . S
C48 H75 0.930 . S
C49 O62 1.281 . S
C49 O63 1.254 . S
C50 O64 1.236 . S
C50 O65 1.266 . S
C51 Tb41 2.809 1_556 S
C51 C52 1.514 . S
C51 O66 1.248 . S
C51 O67 1.266 1_556 S
C52 C51 1.514 . S
C52 C53 1.359 . S
C52 C57 1.348 1_556 S
C53 C52 1.359 . S
C53 C54 1.380 . S
C53 H76 0.929 . S
C54 C53 1.380 . S
C54 C55 1.347 . S
C54 H77 0.931 . S
C55 C54 1.347 . S
C55 C56 1.369 1_556 S
C56 C55 1.369 1_554 S
C56 C57 1.408 . S
C56 H78 0.930 . S
C57 C52 1.348 1_554 S
C57 C56 1.408 . S
C57 H79 0.930 . S
C58 O68 1.281 . S
C58 O69 1.254 . S
C59 O70 1.236 . S
C59 O71 1.266 . S
O60 Tb40 2.481 1_554 S
O60 C42 1.248 . S
O61 Tb40 2.442 . S
O61 C42 1.266 1_556 S
O62 Tb40 2.662 . S
O62 Tb41 2.325 1_556 S
O62 C49 1.281 . S
O63 Tb40 2.415 . S
O63 C49 1.254 . S
O64 Tb40 2.380 . S
O64 C50 1.236 . S
O65 Tb41 2.341 1_556 S
O65 C50 1.266 . S
O66 Tb41 2.484 1_556 S
O66 C51 1.248 . S
O67 Tb41 2.440 . S
O67 C51 1.266 1_554 S
O68 Tb40 2.320 1_554 S
O68 Tb41 2.658 . S
O68 C58 1.281 . S
O69 Tb41 2.409 . S
O69 C58 1.254 . S
O70 Tb41 2.378 . S
O70 C59 1.236 . S
O71 Tb40 2.341 1_554 S
O71 C59 1.266 . S
H72 C44 0.929 . S
H73 C45 0.931 . S
H74 C47 0.930 . S
H75 C48 0.930 . S
H76 C53 0.929 . S
H77 C54 0.931 . S
H78 C56 0.930 . S
H79 C57 0.930 . S
Tb80 C82 2.808 1_556 S
Tb80 O100 2.481 1_556 S
Tb80 O101 2.442 . S
Tb80 O102 2.662 . S
Tb80 O103 2.415 . S
Tb80 O104 2.380 . S
Tb80 O108 2.320 1_556 S
Tb80 O111 2.341 1_556 S
Tb81 C91 2.809 1_554 S
Tb81 O102 2.325 1_564 S
Tb81 O105 2.341 1_554 S
Tb81 O106 2.484 1_554 S
Tb81 O107 2.440 . S
Tb81 O108 2.658 1_565 S
Tb81 O109 2.409 . S
Tb81 O110 2.378 1_565 S
C82 Tb80 2.808 1_554 S
C82 C83 1.514 . S
C82 O100 1.248 . S
C82 O101 1.266 1_554 S
C83 C82 1.514 . S
C83 C84 1.359 . S
C83 C88 1.348 1_554 S
C84 C83 1.359 . S
C84 C85 1.380 . S
C84 H112 0.929 . S
C85 C84 1.380 . S
C85 C86 1.347 . S
C85 H113 0.931 . S
C86 C85 1.347 . S
C86 C87 1.369 1_554 S
C87 C86 1.369 1_556 S
C87 C88 1.408 . S
C87 H114 0.930 . S
C88 C83 1.348 1_556 S
C88 C87 1.408 . S
C88 H115 0.930 . S
C89 O102 1.281 . S
C89 O103 1.254 . S
C90 O104 1.236 1_565 S
C90 O105 1.266 . S
C91 Tb81 2.809 1_556 S
C91 C92 1.514 . S
C91 O106 1.248 . S
C91 O107 1.266 1_556 S
C92 C91 1.514 . S
C92 C93 1.359 . S
C92 C97 1.348 1_556 S
C93 C92 1.359 . S
C93 C94 1.380 . S
C93 H116 0.929 . S
C94 C93 1.380 . S
C94 C95 1.347 . S
C94 H117 0.931 . S
C95 C94 1.347 . S
C95 C96 1.369 1_556 S
C96 C95 1.369 1_554 S
C96 C97 1.408 . S
C96 H118 0.930 . S
C97 C92 1.348 1_554 S
C97 C96 1.408 . S
C97 H119 0.930 . S
C98 O108 1.281 . S
C98 O109 1.254 1_545 S
C99 O110 1.236 . S
C99 O111 1.266 . S
O100 Tb80 2.481 1_554 S
O100 C82 1.248 . S
O101 Tb80 2.442 . S
O101 C82 1.266 1_556 S
O102 Tb80 2.662 . S
O102 Tb81 2.325 1_546 S
O102 C89 1.281 . S
O103 Tb80 2.415 . S
O103 C89 1.254 . S
O104 Tb80 2.380 . S
O104 C90 1.236 1_545 S
O105 Tb81 2.341 1_556 S
O105 C90 1.266 . S
O106 Tb81 2.484 1_556 S
O106 C91 1.248 . S
O107 Tb81 2.440 . S
O107 C91 1.266 1_554 S
O108 Tb80 2.320 1_554 S
O108 Tb81 2.658 1_545 S
O108 C98 1.281 . S
O109 Tb81 2.409 . S
O109 C98 1.254 1_565 S
O110 Tb81 2.378 1_545 S
O110 C99 1.236 . S
O111 Tb80 2.341 1_554 S
O111 C99 1.266 . S
H112 C84 0.929 . S
H113 C85 0.931 . S
H114 C87 0.930 . S
H115 C88 0.930 . S
H116 C93 0.929 . S
H117 C94 0.931 . S
H118 C96 0.930 . S
H119 C97 0.930 . S
Tb120 C122 2.809 . S
Tb120 O140 2.484 . S
Tb120 O141 2.440 . S
Tb120 O142 2.658 . S
Tb120 O143 2.409 . S
Tb120 O144 2.378 . S
Tb120 O148 2.325 . S
Tb120 O151 2.341 . S
Tb121 C131 2.809 . S
Tb121 O142 2.325 . S
Tb121 O145 2.341 . S
Tb121 O146 2.484 . S
Tb121 O147 2.440 . S
Tb121 O148 2.658 . S
Tb121 O149 2.409 . S
Tb121 O150 2.378 . S
C122 Tb120 2.809 . S
C122 C123 1.514 . S
C122 O140 1.248 . S
C122 O141 1.266 . S
C123 C122 1.514 . S
C123 C124 1.359 . S
C123 C128 1.348 . S
C124 C123 1.359 . S
C124 C125 1.380 . S
C124 H152 0.929 . S
C125 C124 1.380 . S
C125 C126 1.347 . S
C125 H153 0.931 . S
C126 C125 1.347 . S
C126 C127 1.369 . S
C127 C126 1.369 . S
C127 C128 1.408 . S
C127 H154 0.930 . S
C128 C123 1.348 . S
C128 C127 1.408 . S
C128 H155 0.930 . S
C129 O142 1.281 . S
C129 O143 1.254 . S
C130 O144 1.236 . S
C130 O145 1.266 . S
C131 Tb121 2.809 . S
C131 C132 1.514 . S
C131 O146 1.248 . S
C131 O147 1.266 . S
C132 C131 1.514 . S
C132 C133 1.359 . S
C132 C137 1.348 . S
C133 C132 1.359 . S
C133 C134 1.380 . S
C133 H156 0.929 . S
C134 C133 1.380 . S
C134 C135 1.347 . S
C134 H157 0.931 . S
C135 C134 1.347 . S
C135 C136 1.369 . S
C136 C135 1.369 . S
C136 C137 1.408 . S
C136 H158 0.930 . S
C137 C132 1.348 . S
C137 C136 1.408 . S
C137 H159 0.930 . S
C138 O148 1.281 . S
C138 O149 1.254 . S
C139 O150 1.236 . S
C139 O151 1.266 . S
O140 Tb120 2.484 . S
O140 C122 1.248 . S
O141 Tb120 2.440 . S
O141 C122 1.266 . S
O142 Tb120 2.658 . S
O142 Tb121 2.325 . S
O142 C129 1.281 . S
O143 Tb120 2.409 . S
O143 C129 1.254 . S
O144 Tb120 2.378 . S
O144 C130 1.236 . S
O145 Tb121 2.341 . S
O145 C130 1.266 . S
O146 Tb121 2.484 . S
O146 C131 1.248 . S
O147 Tb121 2.440 . S
O147 C131 1.266 . S
O148 Tb120 2.325 . S
O148 Tb121 2.658 . S
O148 C138 1.281 . S
O149 Tb121 2.409 . S
O149 C138 1.254 . S
O150 Tb121 2.378 . S
O150 C139 1.236 . S
O151 Tb120 2.341 . S
O151 C139 1.266 . S
H152 C124 0.929 . S
H153 C125 0.931 . S
H154 C127 0.930 . S
H155 C128 0.930 . S
H156 C133 0.929 . S
H157 C134 0.931 . S
H158 C136 0.930 . S
H159 C137 0.930 . S
Tb160 C162 2.809 . S
Tb160 O180 2.484 . S
Tb160 O181 2.440 . S
Tb160 O182 2.658 . S
Tb160 O183 2.409 . S
Tb160 O184 2.378 . S
Tb160 O188 2.325 . S
Tb160 O191 2.341 . S
Tb161 C171 2.809 . S
Tb161 O182 2.325 . S
Tb161 O185 2.341 . S
Tb161 O186 2.484 . S
Tb161 O187 2.440 . S
Tb161 O188 2.658 . S
Tb161 O189 2.409 . S
Tb161 O190 2.378 . S
C162 Tb160 2.809 . S
C162 C163 1.514 . S
C162 O180 1.248 . S
C162 O181 1.266 . S
C163 C162 1.514 . S
C163 C164 1.359 . S
C163 C168 1.348 . S
C164 C163 1.359 . S
C164 C165 1.380 . S
C164 H192 0.929 . S
C165 C164 1.380 . S
C165 C166 1.347 . S
C165 H193 0.931 . S
C166 C165 1.347 . S
C166 C167 1.369 . S
C167 C166 1.369 . S
C167 C168 1.408 . S
C167 H194 0.930 . S
C168 C163 1.348 . S
C168 C167 1.408 . S
C168 H195 0.930 . S
C169 O182 1.281 . S
C169 O183 1.254 . S
C170 O184 1.236 . S
C170 O185 1.266 . S
C171 Tb161 2.809 . S
C171 C172 1.514 . S
C171 O186 1.248 . S
C171 O187 1.266 . S
C172 C171 1.514 . S
C172 C173 1.359 . S
C172 C177 1.348 . S
C173 C172 1.359 . S
C173 C174 1.380 . S
C173 H196 0.929 . S
C174 C173 1.380 . S
C174 C175 1.347 . S
C174 H197 0.931 . S
C175 C174 1.347 . S
C175 C176 1.369 . S
C176 C175 1.369 . S
C176 C177 1.408 . S
C176 H198 0.930 . S
C177 C172 1.348 . S
C177 C176 1.408 . S
C177 H199 0.930 . S
C178 O188 1.281 . S
C178 O189 1.254 . S
C179 O190 1.236 . S
C179 O191 1.266 . S
O180 Tb160 2.484 . S
O180 C162 1.248 . S
O181 Tb160 2.440 . S
O181 C162 1.266 . S
O182 Tb160 2.658 . S
O182 Tb161 2.325 . S
O182 C169 1.281 . S
O183 Tb160 2.409 . S
O183 C169 1.254 . S
O184 Tb160 2.378 . S
O184 C170 1.236 . S
O185 Tb161 2.341 . S
O185 C170 1.266 . S
O186 Tb161 2.484 . S
O186 C171 1.248 . S
O187 Tb161 2.440 . S
O187 C171 1.266 . S
O188 Tb160 2.325 . S
O188 Tb161 2.658 . S
O188 C178 1.281 . S
O189 Tb161 2.409 . S
O189 C178 1.254 . S
O190 Tb161 2.378 . S
O190 C179 1.236 . S
O191 Tb160 2.341 . S
O191 C179 1.266 . S
H192 C164 0.929 . S
H193 C165 0.931 . S
H194 C167 0.930 . S
H195 C168 0.930 . S
H196 C173 0.929 . S
H197 C174 0.931 . S
H198 C176 0.930 . S
H199 C177 0.930 . S
Tb200 C202 2.809 . S
Tb200 O220 2.484 . S
Tb200 O221 2.440 . S
Tb200 O222 2.658 . S
Tb200 O223 2.409 . S
Tb200 O224 2.378 . S
Tb200 O228 2.325 . S
Tb200 O231 2.341 . S
Tb201 C211 2.809 . S
Tb201 O222 2.325 . S
Tb201 O225 2.341 . S
Tb201 O226 2.484 . S
Tb201 O227 2.440 . S
Tb201 O228 2.658 . S
Tb201 O229 2.409 . S
Tb201 O230 2.378 . S
C202 Tb200 2.809 . S
C202 C203 1.514 . S
C202 O220 1.248 . S
C202 O221 1.266 . S
C203 C202 1.514 . S
C203 C204 1.359 . S
C203 C208 1.348 . S
C204 C203 1.359 . S
C204 C205 1.380 . S
C204 H232 0.929 . S
C205 C204 1.380 . S
C205 C206 1.347 . S
C205 H233 0.931 . S
C206 C205 1.347 . S
C206 C207 1.369 . S
C207 C206 1.369 . S
C207 C208 1.408 . S
C207 H234 0.930 . S
C208 C203 1.348 . S
C208 C207 1.408 . S
C208 H235 0.930 . S
C209 O222 1.281 . S
C209 O223 1.254 . S
C210 O224 1.236 . S
C210 O225 1.266 . S
C211 Tb201 2.809 . S
C211 C212 1.514 . S
C211 O226 1.248 . S
C211 O227 1.266 . S
C212 C211 1.514 . S
C212 C213 1.359 . S
C212 C217 1.348 . S
C213 C212 1.359 . S
C213 C214 1.380 . S
C213 H236 0.929 . S
C214 C213 1.380 . S
C214 C215 1.347 . S
C214 H237 0.931 . S
C215 C214 1.347 . S
C215 C216 1.369 . S
C216 C215 1.369 . S
C216 C217 1.408 . S
C216 H238 0.930 . S
C217 C212 1.348 . S
C217 C216 1.408 . S
C217 H239 0.930 . S
C218 O228 1.281 . S
C218 O229 1.254 . S
C219 O230 1.236 . S
C219 O231 1.266 . S
O220 Tb200 2.484 . S
O220 C202 1.248 . S
O221 Tb200 2.440 . S
O221 C202 1.266 . S
O222 Tb200 2.658 . S
O222 Tb201 2.325 . S
O222 C209 1.281 . S
O223 Tb200 2.409 . S
O223 C209 1.254 . S
O224 Tb200 2.378 . S
O224 C210 1.236 . S
O225 Tb201 2.341 . S
O225 C210 1.266 . S
O226 Tb201 2.484 . S
O226 C211 1.248 . S
O227 Tb201 2.440 . S
O227 C211 1.266 . S
O228 Tb200 2.325 . S
O228 Tb201 2.658 . S
O228 C218 1.281 . S
O229 Tb201 2.409 . S
O229 C218 1.254 . S
O230 Tb201 2.378 . S
O230 C219 1.236 . S
O231 Tb200 2.341 . S
O231 C219 1.266 . S
H232 C204 0.929 . S
H233 C205 0.931 . S
H234 C207 0.930 . S
H235 C208 0.930 . S
H236 C213 0.929 . S
H237 C214 0.931 . S
H238 C216 0.930 . S
H239 C217 0.930 . S
Tb240 C242 2.809 . S
Tb240 O260 2.484 . S
Tb240 O261 2.440 . S
Tb240 O262 2.658 . S
Tb240 O263 2.409 . S
Tb240 O264 2.378 . S
Tb240 O268 2.325 . S
Tb240 O271 2.341 . S
Tb241 C251 2.809 . S
Tb241 O262 2.325 . S
Tb241 O265 2.341 . S
Tb241 O266 2.484 . S
Tb241 O267 2.440 . S
Tb241 O268 2.658 . S
Tb241 O269 2.409 . S
Tb241 O270 2.378 . S
C242 Tb240 2.809 . S
C242 C243 1.514 . S
C242 O260 1.248 . S
C242 O261 1.266 . S
C243 C242 1.514 . S
C243 C244 1.359 . S
C243 C248 1.348 . S
C244 C243 1.359 . S
C244 C245 1.380 . S
C244 H272 0.929 . S
C245 C244 1.380 . S
C245 C246 1.347 . S
C245 H273 0.931 . S
C246 C245 1.347 . S
C246 C247 1.369 . S
C247 C246 1.369 . S
C247 C248 1.408 . S
C247 H274 0.930 . S
C248 C243 1.348 . S
C248 C247 1.408 . S
C248 H275 0.930 . S
C249 O262 1.281 . S
C249 O263 1.254 . S
C250 O264 1.236 . S
C250 O265 1.266 . S
C251 Tb241 2.809 . S
C251 C252 1.514 . S
C251 O266 1.248 . S
C251 O267 1.266 . S
C252 C251 1.514 . S
C252 C253 1.359 . S
C252 C257 1.348 . S
C253 C252 1.359 . S
C253 C254 1.380 . S
C253 H276 0.929 . S
C254 C253 1.380 . S
C254 C255 1.347 . S
C254 H277 0.931 . S
C255 C254 1.347 . S
C255 C256 1.369 . S
C256 C255 1.369 . S
C256 C257 1.408 . S
C256 H278 0.930 . S
C257 C252 1.348 . S
C257 C256 1.408 . S
C257 H279 0.930 . S
C258 O268 1.281 . S
C258 O269 1.254 . S
C259 O270 1.236 . S
C259 O271 1.266 . S
O260 Tb240 2.484 . S
O260 C242 1.248 . S
O261 Tb240 2.440 . S
O261 C242 1.266 . S
O262 Tb240 2.658 . S
O262 Tb241 2.325 . S
O262 C249 1.281 . S
O263 Tb240 2.409 . S
O263 C249 1.254 . S
O264 Tb240 2.378 . S
O264 C250 1.236 . S
O265 Tb241 2.341 . S
O265 C250 1.266 . S
O266 Tb241 2.484 . S
O266 C251 1.248 . S
O267 Tb241 2.440 . S
O267 C251 1.266 . S
O268 Tb240 2.325 . S
O268 Tb241 2.658 . S
O268 C258 1.281 . S
O269 Tb241 2.409 . S
O269 C258 1.254 . S
O270 Tb241 2.378 . S
O270 C259 1.236 . S
O271 Tb240 2.341 . S
O271 C259 1.266 . S
H272 C244 0.929 . S
H273 C245 0.931 . S
H274 C247 0.930 . S
H275 C248 0.930 . S
H276 C253 0.929 . S
H277 C254 0.931 . S
H278 C256 0.930 . S
H279 C257 0.930 . S
Tb280 C282 2.809 . S
Tb280 O300 2.484 . S
Tb280 O301 2.440 . S
Tb280 O302 2.658 . S
Tb280 O303 2.409 . S
Tb280 O304 2.378 . S
Tb280 O308 2.325 . S
Tb280 O311 2.341 . S
Tb281 C291 2.809 . S
Tb281 O302 2.325 . S
Tb281 O305 2.341 . S
Tb281 O306 2.484 . S
Tb281 O307 2.440 . S
Tb281 O308 2.658 . S
Tb281 O309 2.409 . S
Tb281 O310 2.378 . S
C282 Tb280 2.809 . S
C282 C283 1.514 . S
C282 O300 1.248 . S
C282 O301 1.266 . S
C283 C282 1.514 . S
C283 C284 1.359 . S
C283 C288 1.348 . S
C284 C283 1.359 . S
C284 C285 1.380 . S
C284 H312 0.929 . S
C285 C284 1.380 . S
C285 C286 1.347 . S
C285 H313 0.931 . S
C286 C285 1.347 . S
C286 C287 1.369 . S
C287 C286 1.369 . S
C287 C288 1.408 . S
C287 H314 0.930 . S
C288 C283 1.348 . S
C288 C287 1.408 . S
C288 H315 0.930 . S
C289 O302 1.281 . S
C289 O303 1.254 . S
C290 O304 1.236 . S
C290 O305 1.266 . S
C291 Tb281 2.809 . S
C291 C292 1.514 . S
C291 O306 1.248 . S
C291 O307 1.266 . S
C292 C291 1.514 . S
C292 C293 1.359 . S
C292 C297 1.348 . S
C293 C292 1.359 . S
C293 C294 1.380 . S
C293 H316 0.929 . S
C294 C293 1.380 . S
C294 C295 1.347 . S
C294 H317 0.931 . S
C295 C294 1.347 . S
C295 C296 1.369 . S
C296 C295 1.369 . S
C296 C297 1.408 . S
C296 H318 0.930 . S
C297 C292 1.348 . S
C297 C296 1.408 . S
C297 H319 0.930 . S
C298 O308 1.281 . S
C298 O309 1.254 . S
C299 O310 1.236 . S
C299 O311 1.266 . S
O300 Tb280 2.484 . S
O300 C282 1.248 . S
O301 Tb280 2.440 . S
O301 C282 1.266 . S
O302 Tb280 2.658 . S
O302 Tb281 2.325 . S
O302 C289 1.281 . S
O303 Tb280 2.409 . S
O303 C289 1.254 . S
O304 Tb280 2.378 . S
O304 C290 1.236 . S
O305 Tb281 2.341 . S
O305 C290 1.266 . S
O306 Tb281 2.484 . S
O306 C291 1.248 . S
O307 Tb281 2.440 . S
O307 C291 1.266 . S
O308 Tb280 2.325 . S
O308 Tb281 2.658 . S
O308 C298 1.281 . S
O309 Tb281 2.409 . S
O309 C298 1.254 . S
O310 Tb281 2.378 . S
O310 C299 1.236 . S
O311 Tb280 2.341 . S
O311 C299 1.266 . S
H312 C284 0.929 . S
H313 C285 0.931 . S
H314 C287 0.930 . S
H315 C288 0.930 . S
H316 C293 0.929 . S
H317 C294 0.931 . S
H318 C296 0.930 . S
H319 C297 0.930 . S
Tb320 C322 2.809 . S
Tb320 O340 2.484 . S
Tb320 O341 2.440 . S
Tb320 O342 2.658 . S
Tb320 O343 2.409 . S
Tb320 O344 2.378 . S
Tb320 O348 2.325 . S
Tb320 O351 2.341 . S
Tb321 C331 2.809 . S
Tb321 O342 2.325 . S
Tb321 O345 2.341 . S
Tb321 O346 2.484 . S
Tb321 O347 2.440 . S
Tb321 O348 2.658 . S
Tb321 O349 2.409 . S
Tb321 O350 2.378 . S
C322 Tb320 2.809 . S
C322 C323 1.514 . S
C322 O340 1.248 . S
C322 O341 1.266 . S
C323 C322 1.514 . S
C323 C324 1.359 . S
C323 C328 1.348 . S
C324 C323 1.359 . S
C324 C325 1.380 . S
C324 H352 0.929 . S
C325 C324 1.380 . S
C325 C326 1.347 . S
C325 H353 0.931 . S
C326 C325 1.347 . S
C326 C327 1.369 . S
C327 C326 1.369 . S
C327 C328 1.408 . S
C327 H354 0.930 . S
C328 C323 1.348 . S
C328 C327 1.408 . S
C328 H355 0.930 . S
C329 O342 1.281 . S
C329 O343 1.254 . S
C330 O344 1.236 . S
C330 O345 1.266 . S
C331 Tb321 2.809 . S
C331 C332 1.514 . S
C331 O346 1.248 . S
C331 O347 1.266 . S
C332 C331 1.514 . S
C332 C333 1.359 . S
C332 C337 1.348 . S
C333 C332 1.359 . S
C333 C334 1.380 . S
C333 H356 0.929 . S
C334 C333 1.380 . S
C334 C335 1.347 . S
C334 H357 0.931 . S
C335 C334 1.347 . S
C335 C336 1.369 . S
C336 C335 1.369 . S
C336 C337 1.408 . S
C336 H358 0.930 . S
C337 C332 1.348 . S
C337 C336 1.408 . S
C337 H359 0.930 . S
C338 O348 1.281 . S
C338 O349 1.254 . S
C339 O350 1.236 . S
C339 O351 1.266 . S
O340 Tb320 2.484 . S
O340 C322 1.248 . S
O341 Tb320 2.440 . S
O341 C322 1.266 . S
O342 Tb320 2.658 . S
O342 Tb321 2.325 . S
O342 C329 1.281 . S
O343 Tb320 2.409 . S
O343 C329 1.254 . S
O344 Tb320 2.378 . S
O344 C330 1.236 . S
O345 Tb321 2.341 . S
O345 C330 1.266 . S
O346 Tb321 2.484 . S
O346 C331 1.248 . S
O347 Tb321 2.440 . S
O347 C331 1.266 . S
O348 Tb320 2.325 . S
O348 Tb321 2.658 . S
O348 C338 1.281 . S
O349 Tb321 2.409 . S
O349 C338 1.254 . S
O350 Tb321 2.378 . S
O350 C339 1.236 . S
O351 Tb320 2.341 . S
O351 C339 1.266 . S
H352 C324 0.929 . S
H353 C325 0.931 . S
H354 C327 0.930 . S
H355 C328 0.930 . S
H356 C333 0.929 . S
H357 C334 0.931 . S
H358 C336 0.930 . S
H359 C337 0.930 . S
H360 C372 0.930 . S
H361 C374 0.930 . S
H362 C375 0.930 . S
H363 C379 0.959 . S
H364 C379 0.959 . S
H365 C379 0.961 . S
H366 C380 0.960 . S
H367 C380 0.961 . S
H368 C380 0.959 . S
H369 C383 0.929 . S
H370 C384 0.931 . S
H371 C386 0.930 . S
C372 H360 0.930 . S
C372 C373 1.399 . S
C372 C377 1.399 . S
C373 C372 1.399 . S
C373 C374 1.376 1_556 S
C374 H361 0.930 . S
C374 C373 1.376 1_554 S
C374 C375 1.388 . S
C375 H362 0.930 . S
C375 C374 1.388 . S
C375 C376 1.390 1_554 S
C376 C375 1.390 1_556 S
C376 C377 1.394 . S
C376 C382 1.465 . S
C377 C372 1.399 . S
C377 C376 1.394 . S
C377 C378 1.516 . S
C378 C377 1.516 . S
C378 C379 1.502 . S
C378 C380 1.561 . S
C378 C381 1.526 . S
C379 H363 0.959 . S
C379 H364 0.959 . S
C379 H365 0.961 . S
C379 C378 1.502 . S
C380 H366 0.960 . S
C380 H367 0.961 . S
C380 H368 0.959 . S
C380 C378 1.561 . S
C381 C378 1.526 . S
C381 C382 1.396 . S
C381 C386 1.390 . S
C382 C376 1.465 . S
C382 C381 1.396 . S
C382 C383 1.399 . S
C383 H369 0.929 . S
C383 C382 1.399 . S
C383 C384 1.385 . S
C384 H370 0.931 . S
C384 C383 1.385 . S
C384 C385 1.389 . S
C385 C384 1.389 . S
C385 C386 1.387 . S
C386 H371 0.930 . S
C386 C381 1.390 . S
C386 C385 1.387 . S
H387 C399 0.930 . S
H388 C401 0.930 . S
H389 C402 0.930 . S
H390 C406 0.959 . S
H391 C406 0.959 . S
H392 C406 0.961 . S
H393 C407 0.960 . S
H394 C407 0.961 . S
H395 C407 0.959 . S
H396 C410 0.929 . S
H397 C411 0.931 . S
H398 C413 0.930 . S
C399 H387 0.930 . S
C399 C400 1.399 . S
C399 C404 1.399 . S
C400 C399 1.399 . S
C400 C401 1.376 . S
C401 H388 0.930 . S
C401 C400 1.376 . S
C401 C402 1.388 . S
C402 H389 0.930 . S
C402 C401 1.388 . S
C402 C403 1.390 . S
C403 C402 1.390 . S
C403 C404 1.394 . S
C403 C409 1.465 . S
C404 C399 1.399 . S
C404 C403 1.394 . S
C404 C405 1.516 . S
C405 C404 1.516 . S
C405 C406 1.502 . S
C405 C407 1.561 . S
C405 C408 1.526 . S
C406 H390 0.959 . S
C406 H391 0.959 . S
C406 H392 0.961 . S
C406 C405 1.502 . S
C407 H393 0.960 . S
C407 H394 0.961 . S
C407 H395 0.959 . S
C407 C405 1.561 . S
C408 C405 1.526 . S
C408 C409 1.396 . S
C408 C413 1.390 . S
C409 C403 1.465 . S
C409 C408 1.396 . S
C409 C410 1.399 . S
C410 H396 0.929 . S
C410 C409 1.399 . S
C410 C411 1.385 . S
C411 H397 0.931 . S
C411 C410 1.385 . S
C411 C412 1.389 . S
C412 C411 1.389 . S
C412 C413 1.387 . S
C413 H398 0.930 . S
C413 C408 1.390 . S
C413 C412 1.387 . S
H414 C426 0.930 1_545 S
H415 C428 0.930 . S
H416 C429 0.930 . S
H417 C433 0.959 1_565 S
H418 C433 0.960 . S
H419 C433 0.958 . S
H420 C434 0.960 . S
H421 C434 0.961 1_556 S
H422 C434 0.959 . S
H423 C437 0.929 . S
H424 C438 0.931 . S
H425 C440 0.930 . S
C426 H414 0.930 1_565 S
C426 C427 1.399 . S
C426 C431 1.399 . S
C427 C426 1.399 . S
C427 C428 1.376 . S
C428 H415 0.930 . S
C428 C427 1.376 . S
C428 C429 1.388 . S
C429 H416 0.930 . S
C429 C428 1.388 . S
C429 C430 1.390 . S
C430 C429 1.390 . S
C430 C431 1.394 . S
C430 C436 1.465 . S
C431 C426 1.399 . S
C431 C430 1.394 . S
C431 C432 1.516 . S
C432 C431 1.516 . S
C432 C433 1.504 1_565 S
C432 C434 1.561 1_556 S
C432 C435 1.526 . S
C433 H417 0.959 1_545 S
C433 H418 0.960 . S
C433 H419 0.958 . S
C433 C432 1.504 1_545 S
C434 H420 0.960 . S
C434 H421 0.961 1_554 S
C434 H422 0.959 . S
C434 C432 1.561 1_554 S
C435 C432 1.526 . S
C435 C436 1.396 . S
C435 C440 1.390 . S
C436 C430 1.465 . S
C436 C435 1.396 . S
C436 C437 1.399 . S
C437 H423 0.929 . S
C437 C436 1.399 . S
C437 C438 1.385 . S
C438 H424 0.931 . S
C438 C437 1.385 . S
C438 C439 1.389 . S
C439 C438 1.389 . S
C439 C440 1.387 . S
C440 H425 0.930 . S
C440 C435 1.390 . S
C440 C439 1.387 . S
H441 C453 0.930 . S
H442 C455 0.930 . S
H443 C456 0.930 . S
H444 C460 0.959 . S
H445 C460 0.959 . S
H446 C460 0.961 . S
H447 C461 0.960 . S
H448 C461 0.961 . S
H449 C461 0.959 . S
H450 C464 0.929 . S
H451 C465 0.931 . S
H452 C467 0.930 . S
C453 H441 0.930 . S
C453 C454 1.399 . S
C453 C458 1.399 . S
C454 C453 1.399 . S
C454 C455 1.376 . S
C455 H442 0.930 . S
C455 C454 1.376 . S
C455 C456 1.388 . S
C456 H443 0.930 . S
C456 C455 1.388 . S
C456 C457 1.390 . S
C457 C456 1.390 . S
C457 C458 1.394 . S
C457 C463 1.465 . S
C458 C453 1.399 . S
C458 C457 1.394 . S
C458 C459 1.516 . S
C459 C458 1.516 . S
C459 C460 1.502 . S
C459 C461 1.561 . S
C459 C462 1.526 . S
C460 H444 0.959 . S
C460 H445 0.959 . S
C460 H446 0.961 . S
C460 C459 1.502 . S
C461 H447 0.960 . S
C461 H448 0.961 . S
C461 H449 0.959 . S
C461 C459 1.561 . S
C462 C459 1.526 . S
C462 C463 1.396 . S
C462 C467 1.390 . S
C463 C457 1.465 . S
C463 C462 1.396 . S
C463 C464 1.399 . S
C464 H450 0.929 . S
C464 C463 1.399 . S
C464 C465 1.385 . S
C465 H451 0.931 . S
C465 C464 1.385 . S
C465 C466 1.389 . S
C466 C465 1.389 . S
C466 C467 1.387 . S
C467 H452 0.930 . S
C467 C462 1.390 . S
C467 C466 1.387 . S
H468 C480 0.930 . S
H469 C482 0.930 . S
H470 C483 0.930 . S
H471 C487 0.959 . S
H472 C487 0.959 . S
H473 C487 0.961 . S
H474 C488 0.960 . S
H475 C488 0.961 1_556 S
H476 C488 0.959 . S
H477 C491 0.929 . S
H478 C492 0.931 . S
H479 C494 0.930 . S
C480 H468 0.930 . S
C480 C481 1.399 . S
C480 C485 1.399 . S
C481 C480 1.399 . S
C481 C482 1.376 . S
C482 H469 0.930 . S
C482 C481 1.376 . S
C482 C483 1.388 . S
C483 H470 0.930 . S
C483 C482 1.388 . S
C483 C484 1.390 . S
C484 C483 1.390 . S
C484 C485 1.394 . S
C484 C490 1.465 . S
C485 C480 1.399 . S
C485 C484 1.394 . S
C485 C486 1.516 . S
C486 C485 1.516 . S
C486 C487 1.502 . S
C486 C488 1.561 . S
C486 C489 1.526 . S
C487 H471 0.959 . S
C487 H472 0.959 . S
C487 H473 0.961 . S
C487 C486 1.502 . S
C488 H474 0.960 . S
C488 H475 0.961 1_554 S
C488 H476 0.959 . S
C488 C486 1.561 . S
C489 C486 1.526 . S
C489 C490 1.396 . S
C489 C494 1.390 . S
C490 C484 1.465 . S
C490 C489 1.396 . S
C490 C491 1.399 . S
C491 H477 0.929 . S
C491 C490 1.399 . S
C491 C492 1.385 . S
C492 H478 0.931 . S
C492 C491 1.385 . S
C492 C493 1.389 . S
C493 C492 1.389 . S
C493 C494 1.387 . S
C494 H479 0.930 . S
C494 C489 1.390 . S
C494 C493 1.387 . S
H495 C507 0.930 1_556 S
H496 C509 0.930 . S
H497 C510 0.930 . S
H498 C514 0.959 . S
H499 C514 0.959 . S
H500 C514 0.961 1_556 S
H501 C515 0.960 1_556 S
H502 C515 0.961 . S
H503 C515 0.959 . S
H504 C518 0.929 . S
H505 C519 0.931 . S
H506 C521 0.930 . S
C507 H495 0.930 1_554 S
C507 C508 1.399 . S
C507 C512 1.399 . S
C508 C507 1.399 . S
C508 C509 1.376 . S
C509 H496 0.930 . S
C509 C508 1.376 . S
C509 C510 1.388 . S
C510 H497 0.930 . S
C510 C509 1.388 . S
C510 C511 1.390 . S
C511 C510 1.390 . S
C511 C512 1.394 . S
C511 C517 1.465 . S
C512 C507 1.399 . S
C512 C511 1.394 . S
C512 C513 1.516 . S
C513 C512 1.516 . S
C513 C514 1.502 . S
C513 C515 1.561 . S
C513 C516 1.526 . S
C514 H498 0.959 . S
C514 H499 0.959 . S
C514 H500 0.961 1_554 S
C514 C513 1.502 . S
C515 H501 0.960 1_554 S
C515 H502 0.961 . S
C515 H503 0.959 . S
C515 C513 1.561 . S
C516 C513 1.526 . S
C516 C517 1.396 . S
C516 C521 1.390 . S
C517 C511 1.465 . S
C517 C516 1.396 . S
C517 C518 1.399 . S
C518 H504 0.929 . S
C518 C517 1.399 . S
C518 C519 1.385 . S
C519 H505 0.931 . S
C519 C518 1.385 . S
C519 C520 1.389 . S
C520 C519 1.389 . S
C520 C521 1.387 . S
C521 H506 0.930 . S
C521 C516 1.390 . S
C521 C520 1.387 . S
H522 C534 0.930 . S
H523 C536 0.930 . S
H524 C537 0.930 . S
H525 C541 0.959 . S
H526 C541 0.959 . S
H527 C541 0.961 . S
H528 C542 0.960 . S
H529 C542 0.961 . S
H530 C542 0.959 . S
H531 C545 0.929 . S
H532 C546 0.931 . S
H533 C548 0.930 . S
C534 H522 0.930 . S
C534 C535 1.399 . S
C534 C539 1.399 . S
C535 C534 1.399 . S
C535 C536 1.376 . S
C536 H523 0.930 . S
C536 C535 1.376 . S
C536 C537 1.388 . S
C537 H524 0.930 . S
C537 C536 1.388 . S
C537 C538 1.390 . S
C538 C537 1.390 . S
C538 C539 1.394 . S
C538 C544 1.465 . S
C539 C534 1.399 . S
C539 C538 1.394 . S
C539 C540 1.516 . S
C540 C539 1.516 . S
C540 C541 1.502 . S
C540 C542 1.561 . S
C540 C543 1.526 . S
C541 H525 0.959 . S
C541 H526 0.959 . S
C541 H527 0.961 . S
C541 C540 1.502 . S
C542 H528 0.960 . S
C542 H529 0.961 . S
C542 H530 0.959 . S
C542 C540 1.561 . S
C543 C540 1.526 . S
C543 C544 1.396 . S
C543 C548 1.390 . S
C544 C538 1.465 . S
C544 C543 1.396 . S
C544 C545 1.399 . S
C545 H531 0.929 . S
C545 C544 1.399 . S
C545 C546 1.385 . S
C546 H532 0.931 . S
C546 C545 1.385 . S
C546 C547 1.389 . S
C547 C546 1.389 . S
C547 C548 1.387 . S
C548 H533 0.930 . S
C548 C543 1.390 . S
C548 C547 1.387 . S
H549 C561 0.930 . S
H550 C563 0.930 . S
H551 C564 0.930 . S
H552 C568 0.959 . S
H553 C568 0.959 . S
H554 C568 0.961 . S
H555 C569 0.960 . S
H556 C569 0.961 . S
H557 C569 0.959 . S
H558 C572 0.929 . S
H559 C573 0.931 . S
H560 C575 0.930 . S
C561 H549 0.930 . S
C561 C562 1.399 . S
C561 C566 1.399 . S
C562 C561 1.399 . S
C562 C563 1.376 . S
C563 H550 0.930 . S
C563 C562 1.376 . S
C563 C564 1.388 . S
C564 H551 0.930 . S
C564 C563 1.388 . S
C564 C565 1.390 . S
C565 C564 1.390 . S
C565 C566 1.394 . S
C565 C571 1.465 . S
C566 C561 1.399 . S
C566 C565 1.394 . S
C566 C567 1.516 . S
C567 C566 1.516 . S
C567 C568 1.502 . S
C567 C569 1.561 . S
C567 C570 1.526 . S
C568 H552 0.959 . S
C568 H553 0.959 . S
C568 H554 0.961 . S
C568 C567 1.502 . S
C569 H555 0.960 . S
C569 H556 0.961 . S
C569 H557 0.959 . S
C569 C567 1.561 . S
C570 C567 1.526 . S
C570 C571 1.396 . S
C570 C575 1.390 . S
C571 C565 1.465 . S
C571 C570 1.396 . S
C571 C572 1.399 . S
C572 H558 0.929 . S
C572 C571 1.399 . S
C572 C573 1.385 . S
C573 H559 0.931 . S
C573 C572 1.385 . S
C573 C574 1.389 . S
C574 C573 1.389 . S
C574 C575 1.387 . S
C575 H560 0.930 . S
C575 C570 1.390 . S
C575 C574 1.387 . S
H576 C588 0.938 1_565 S
H577 C590 0.930 . S
H578 C591 0.930 . S
H579 C595 0.959 . S
H580 C595 0.959 . S
H581 C595 0.961 . S
H582 C596 0.960 . S
H583 C596 0.961 . S
H584 C596 0.959 . S
H585 C599 0.929 . S
H586 C600 0.931 . S
H587 C602 0.930 . S
C588 H576 0.938 1_545 S
C588 C589 1.420 . S
C588 C593 1.376 1_545 S
C589 C588 1.420 . S
C589 C590 1.376 . S
C590 H577 0.930 . S
C590 C589 1.376 . S
C590 C591 1.388 . S
C591 H578 0.930 . S
C591 C590 1.388 . S
C591 C592 1.390 1_545 S
C592 C591 1.390 1_565 S
C592 C593 1.394 . S
C592 C598 1.465 . S
C593 C588 1.376 1_565 S
C593 C592 1.394 . S
C593 C594 1.516 . S
C594 C593 1.516 . S
C594 C595 1.502 . S
C594 C596 1.561 . S
C594 C597 1.526 . S
C595 H579 0.959 . S
C595 H580 0.959 . S
C595 H581 0.961 . S
C595 C594 1.502 . S
C596 H582 0.960 . S
C596 H583 0.961 . S
C596 H584 0.959 . S
C596 C594 1.561 . S
C597 C594 1.526 . S
C597 C598 1.396 . S
C597 C602 1.390 . S
C598 C592 1.465 . S
C598 C597 1.396 . S
C598 C599 1.399 . S
C599 H585 0.929 . S
C599 C598 1.399 . S
C599 C600 1.385 . S
C600 H586 0.931 . S
C600 C599 1.385 . S
C600 C601 1.389 . S
C601 C600 1.389 . S
C601 C602 1.387 . S
C602 H587 0.930 . S
C602 C597 1.390 . S
C602 C601 1.387 . S
H603 C615 0.930 . S
H604 C617 0.930 . S
H605 C618 0.930 . S
H606 C622 0.959 . S
H607 C622 0.959 . S
H608 C622 0.961 . S
H609 C623 0.960 . S
H610 C623 0.961 . S
H611 C623 0.959 . S
H612 C626 0.929 . S
H613 C627 0.931 . S
H614 C629 0.930 . S
C615 H603 0.930 . S
C615 C616 1.399 1_556 S
C615 C620 1.399 . S
C616 C615 1.399 1_554 S
C616 C617 1.376 . S
C617 H604 0.930 . S
C617 C616 1.376 . S
C617 C618 1.388 . S
C618 H605 0.930 . S
C618 C617 1.388 . S
C618 C619 1.390 . S
C619 C618 1.390 . S
C619 C620 1.394 1_554 S
C619 C625 1.465 . S
C620 C615 1.399 . S
C620 C619 1.394 1_556 S
C620 C621 1.516 . S
C621 C620 1.516 . S
C621 C622 1.502 . S
C621 C623 1.561 . S
C621 C624 1.526 . S
C622 H606 0.959 . S
C622 H607 0.959 . S
C622 H608 0.961 . S
C622 C621 1.502 . S
C623 H609 0.960 . S
C623 H610 0.961 . S
C623 H611 0.959 . S
C623 C621 1.561 . S
C624 C621 1.526 . S
C624 C625 1.396 1_556 S
C624 C629 1.390 . S
C625 C619 1.465 . S
C625 C624 1.396 1_554 S
C625 C626 1.399 . S
C626 H612 0.929 . S
C626 C625 1.399 . S
C626 C627 1.385 . S
C627 H613 0.931 . S
C627 C626 1.385 . S
C627 C628 1.389 1_554 S
C628 C627 1.389 1_556 S
C628 C629 1.387 . S
C629 H614 0.930 . S
C629 C624 1.390 . S
C629 C628 1.387 . S
H630 C642 0.930 . S
H631 C644 0.930 . S
H632 C645 0.930 . S
H633 C649 0.959 . S
H634 C649 0.959 . S
H635 C649 0.961 . S
H636 C650 0.960 . S
H637 C650 0.961 . S
H638 C650 0.959 . S
H639 C653 0.929 . S
H640 C654 0.931 . S
H641 C656 0.930 . S
C642 H630 0.930 . S
C642 C643 1.399 1_554 S
C642 C647 1.399 . S
C643 C642 1.399 1_556 S
C643 C644 1.376 . S
C644 H631 0.930 . S
C644 C643 1.376 . S
C644 C645 1.388 . S
C645 H632 0.930 . S
C645 C644 1.388 . S
C645 C646 1.390 . S
C646 C645 1.390 . S
C646 C647 1.394 1_556 S
C646 C652 1.465 . S
C647 C642 1.399 . S
C647 C646 1.394 1_554 S
C647 C648 1.516 . S
C648 C647 1.516 . S
C648 C649 1.502 . S
C648 C650 1.561 . S
C648 C651 1.526 . S
C649 H633 0.959 . S
C649 H634 0.959 . S
C649 H635 0.961 . S
C649 C648 1.502 . S
C650 H636 0.960 . S
C650 H637 0.961 . S
C650 H638 0.959 . S
C650 C648 1.561 . S
C651 C648 1.526 . S
C651 C652 1.396 1_554 S
C651 C656 1.390 . S
C652 C646 1.465 . S
C652 C651 1.396 1_556 S
C652 C653 1.399 . S
C653 H639 0.929 . S
C653 C652 1.399 . S
C653 C654 1.385 . S
C654 H640 0.931 . S
C654 C653 1.385 . S
C654 C655 1.380 1_556 S
C655 C654 1.380 1_554 S
C655 C656 1.393 . S
C656 H641 0.930 . S
C656 C651 1.390 . S
C656 C655 1.393 . S
H657 C669 0.930 . S
H658 C671 0.930 . S
H659 C672 0.930 . S
H660 C676 0.959 . S
H661 C676 0.959 . S
H662 C676 0.961 . S
H663 C677 0.960 . S
H664 C677 0.961 . S
H665 C677 0.959 . S
H666 C680 0.929 . S
H667 C681 0.931 . S
H668 C683 0.930 . S
C669 H657 0.930 . S
C669 C670 1.399 . S
C669 C674 1.399 . S
C670 C669 1.399 . S
C670 C671 1.376 1_554 S
C671 H658 0.930 . S
C671 C670 1.376 1_556 S
C671 C672 1.388 . S
C672 H659 0.930 . S
C672 C671 1.388 . S
C672 C673 1.390 . S
C673 C672 1.390 . S
C673 C674 1.394 1_556 S
C673 C679 1.465 . S
C674 C669 1.399 . S
C674 C673 1.394 1_554 S
C674 C675 1.516 . S
C675 C674 1.516 . S
C675 C676 1.502 . S
C675 C677 1.561 . S
C675 C678 1.526 . S
C676 H660 0.959 . S
C676 H661 0.959 . S
C676 H662 0.961 . S
C676 C675 1.502 . S
C677 H663 0.960 . S
C677 H664 0.961 . S
C677 H665 0.959 . S
C677 C675 1.561 . S
C678 C675 1.526 . S
C678 C679 1.396 1_554 S
C678 C683 1.390 1_655 S
C679 C673 1.465 . S
C679 C678 1.396 1_556 S
C679 C680 1.399 . S
C680 H666 0.929 . S
C680 C679 1.399 . S
C680 C681 1.385 1_655 S
C681 H667 0.931 . S
C681 C680 1.385 1_455 S
C681 C682 1.389 . S
C682 C681 1.389 . S
C682 C683 1.387 1_556 S
C683 H668 0.930 . S
C683 C678 1.390 1_455 S
C683 C682 1.387 1_554 S
H684 C696 0.930 . S
H685 C698 0.930 . S
H686 C699 0.930 . S
H687 C703 0.959 . S
H688 C703 0.959 . S
H689 C703 0.961 . S
H690 C704 0.960 . S
H691 C704 0.961 . S
H692 C704 0.959 . S
H693 C707 0.929 . S
H694 C708 0.931 . S
H695 C710 0.930 . S
C696 H684 0.930 . S
C696 C697 1.399 . S
C696 C701 1.399 . S
C697 C696 1.399 . S
C697 C698 1.376 . S
C698 H685 0.930 . S
C698 C697 1.376 . S
C698 C699 1.388 . S
C699 H686 0.930 . S
C699 C698 1.388 . S
C699 C700 1.390 . S
C700 C699 1.390 . S
C700 C701 1.394 . S
C700 C706 1.465 . S
C701 C696 1.399 . S
C701 C700 1.394 . S
C701 C702 1.516 . S
C702 C701 1.516 . S
C702 C703 1.502 . S
C702 C704 1.561 . S
C702 C705 1.526 . S
C703 H687 0.959 . S
C703 H688 0.959 . S
C703 H689 0.961 . S
C703 C702 1.502 . S
C704 H690 0.960 . S
C704 H691 0.961 . S
C704 H692 0.959 . S
C704 C702 1.561 . S
C705 C702 1.526 . S
C705 C706 1.396 . S
C705 C710 1.390 . S
C706 C700 1.465 . S
C706 C705 1.396 . S
C706 C707 1.399 . S
C707 H693 0.929 . S
C707 C706 1.399 . S
C707 C708 1.385 . S
C708 H694 0.931 . S
C708 C707 1.385 . S
C708 C709 1.389 . S
C709 C708 1.389 . S
C709 C710 1.387 . S
C710 H695 0.930 . S
C710 C705 1.390 . S
C710 C709 1.387 . S
H711 C723 0.930 . S
H712 C725 0.930 . S
H713 C726 0.930 . S
H714 C730 0.959 . S
H715 C730 0.959 . S
H716 C730 0.961 . S
H717 C731 0.960 . S
H718 C731 0.961 . S
H719 C731 0.959 . S
H720 C734 0.929 . S
H721 C735 0.931 . S
H722 C737 0.930 . S
C723 H711 0.930 . S
C723 C724 1.399 . S
C723 C728 1.399 . S
C724 C723 1.399 . S
C724 C725 1.376 . S
C725 H712 0.930 . S
C725 C724 1.376 . S
C725 C726 1.388 . S
C726 H713 0.930 . S
C726 C725 1.388 . S
C726 C727 1.390 . S
C727 C726 1.390 . S
C727 C728 1.394 . S
C727 C733 1.465 . S
C728 C723 1.399 . S
C728 C727 1.394 . S
C728 C729 1.516 . S
C729 C728 1.516 . S
C729 C730 1.502 . S
C729 C731 1.561 . S
C729 C732 1.526 . S
C730 H714 0.959 . S
C730 H715 0.959 . S
C730 H716 0.961 . S
C730 C729 1.502 . S
C731 H717 0.960 . S
C731 H718 0.961 . S
C731 H719 0.959 . S
C731 C729 1.561 . S
C732 C729 1.526 . S
C732 C733 1.396 . S
C732 C737 1.390 . S
C733 C727 1.465 . S
C733 C732 1.396 . S
C733 C734 1.399 . S
C734 H720 0.929 . S
C734 C733 1.399 . S
C734 C735 1.385 . S
C735 H721 0.931 . S
C735 C734 1.385 . S
C735 C736 1.389 . S
C736 C735 1.389 . S
C736 C737 1.387 . S
C737 H722 0.930 . S
C737 C732 1.390 . S
C737 C736 1.387 . S
H738 C750 0.930 . S
H739 C752 0.930 . S
H740 C753 0.930 . S
H741 C757 0.959 . S
H742 C757 0.959 . S
H743 C757 0.961 . S
H744 C758 0.960 . S
H745 C758 0.961 . S
H746 C758 0.959 . S
H747 C761 0.929 . S
H748 C762 0.931 . S
H749 C764 0.930 . S
C750 H738 0.930 . S
C750 C751 1.399 . S
C750 C755 1.399 . S
C751 C750 1.399 . S
C751 C752 1.376 . S
C752 H739 0.930 . S
C752 C751 1.376 . S
C752 C753 1.388 . S
C753 H740 0.930 . S
C753 C752 1.388 . S
C753 C754 1.390 . S
C754 C753 1.390 . S
C754 C755 1.394 . S
C754 C760 1.465 . S
C755 C750 1.399 . S
C755 C754 1.394 . S
C755 C756 1.516 . S
C756 C755 1.516 . S
C756 C757 1.502 . S
C756 C758 1.561 . S
C756 C759 1.526 . S
C757 H741 0.959 . S
C757 H742 0.959 . S
C757 H743 0.961 . S
C757 C756 1.502 . S
C758 H744 0.960 . S
C758 H745 0.961 . S
C758 H746 0.959 . S
C758 C756 1.561 . S
C759 C756 1.526 . S
C759 C760 1.396 . S
C759 C764 1.390 . S
C760 C754 1.465 . S
C760 C759 1.396 . S
C760 C761 1.399 . S
C761 H747 0.929 . S
C761 C760 1.399 . S
C761 C762 1.385 . S
C762 H748 0.931 . S
C762 C761 1.385 . S
C762 C763 1.389 . S
C763 C762 1.389 . S
C763 C764 1.387 . S
C764 H749 0.930 . S
C764 C759 1.390 . S
C764 C763 1.387 . S
H765 C777 0.930 . S
H766 C779 0.930 . S
H767 C780 0.930 . S
H768 C784 0.959 . S
H769 C784 0.959 . S
H770 C784 0.961 . S
H771 C785 0.960 . S
H772 C785 0.961 . S
H773 C785 0.959 . S
H774 C788 0.929 . S
H775 C789 0.931 . S
H776 C791 0.930 . S
C777 H765 0.930 . S
C777 C778 1.399 . S
C777 C782 1.399 . S
C778 C777 1.399 . S
C778 C779 1.376 . S
C779 H766 0.930 . S
C779 C778 1.376 . S
C779 C780 1.388 . S
C780 H767 0.930 . S
C780 C779 1.388 . S
C780 C781 1.390 . S
C781 C780 1.390 . S
C781 C782 1.394 . S
C781 C787 1.465 . S
C782 C777 1.399 . S
C782 C781 1.394 . S
C782 C783 1.516 . S
C783 C782 1.516 . S
C783 C784 1.502 . S
C783 C785 1.561 . S
C783 C786 1.526 . S
C784 H768 0.959 . S
C784 H769 0.959 . S
C784 H770 0.961 . S
C784 C783 1.502 . S
C785 H771 0.960 . S
C785 H772 0.961 . S
C785 H773 0.959 . S
C785 C783 1.561 . S
C786 C783 1.526 . S
C786 C787 1.396 . S
C786 C791 1.390 . S
C787 C781 1.465 . S
C787 C786 1.396 . S
C787 C788 1.399 . S
C788 H774 0.929 . S
C788 C787 1.399 . S
C788 C789 1.385 . S
C789 H775 0.931 . S
C789 C788 1.385 . S
C789 C790 1.389 . S
C790 C789 1.389 . S
C790 C791 1.387 . S
C791 H776 0.930 . S
C791 C786 1.390 . S
C791 C790 1.387 . S
H792 C804 0.930 . S
H793 C806 0.930 . S
H794 C807 0.930 . S
H795 C811 0.959 . S
H796 C811 0.959 . S
H797 C811 0.961 . S
H798 C812 0.960 . S
H799 C812 0.961 . S
H800 C812 0.959 . S
H801 C815 0.929 . S
H802 C816 0.931 . S
H803 C818 0.930 . S
C804 H792 0.930 . S
C804 C805 1.399 . S
C804 C809 1.399 . S
C805 C804 1.399 . S
C805 C806 1.376 . S
C806 H793 0.930 . S
C806 C805 1.376 . S
C806 C807 1.388 . S
C807 H794 0.930 . S
C807 C806 1.388 . S
C807 C808 1.390 . S
C808 C807 1.390 . S
C808 C809 1.394 . S
C808 C814 1.465 . S
C809 C804 1.399 . S
C809 C808 1.394 . S
C809 C810 1.516 . S
C810 C809 1.516 . S
C810 C811 1.502 . S
C810 C812 1.561 . S
C810 C813 1.526 . S
C811 H795 0.959 . S
C811 H796 0.959 . S
C811 H797 0.961 . S
C811 C810 1.502 . S
C812 H798 0.960 . S
C812 H799 0.961 . S
C812 H800 0.959 . S
C812 C810 1.561 . S
C813 C810 1.526 . S
C813 C814 1.396 . S
C813 C818 1.390 . S
C814 C808 1.465 . S
C814 C813 1.396 . S
C814 C815 1.399 . S
C815 H801 0.929 . S
C815 C814 1.399 . S
C815 C816 1.385 . S
C816 H802 0.931 . S
C816 C815 1.385 . S
C816 C817 1.389 . S
C817 C816 1.389 . S
C817 C818 1.387 . S
C818 H803 0.930 . S
C818 C813 1.390 . S
C818 C817 1.387 . S
H819 C831 0.930 . S
H820 C833 0.930 . S
H821 C834 0.930 . S
H822 C838 0.959 . S
H823 C838 0.959 . S
H824 C838 0.961 . S
H825 C839 0.960 . S
H826 C839 0.961 . S
H827 C839 0.959 . S
H828 C842 0.929 . S
H829 C843 0.931 . S
H830 C845 0.930 . S
C831 H819 0.930 . S
C831 C832 1.399 . S
C831 C836 1.399 . S
C832 C831 1.399 . S
C832 C833 1.376 . S
C833 H820 0.930 . S
C833 C832 1.376 . S
C833 C834 1.388 . S
C834 H821 0.930 . S
C834 C833 1.388 . S
C834 C835 1.390 . S
C835 C834 1.390 . S
C835 C836 1.394 . S
C835 C841 1.465 . S
C836 C831 1.399 . S
C836 C835 1.394 . S
C836 C837 1.516 . S
C837 C836 1.516 . S
C837 C838 1.502 . S
C837 C839 1.561 . S
C837 C840 1.526 . S
C838 H822 0.959 . S
C838 H823 0.959 . S
C838 H824 0.961 . S
C838 C837 1.502 . S
C839 H825 0.960 . S
C839 H826 0.961 . S
C839 H827 0.959 . S
C839 C837 1.561 . S
C840 C837 1.526 . S
C840 C841 1.396 . S
C840 C845 1.390 . S
C841 C835 1.465 . S
C841 C840 1.396 . S
C841 C842 1.399 . S
C842 H828 0.929 . S
C842 C841 1.399 . S
C842 C843 1.385 . S
C843 H829 0.931 . S
C843 C842 1.385 . S
C843 C844 1.389 . S
C844 C843 1.389 . S
C844 C845 1.387 . S
C845 H830 0.930 . S
C845 C840 1.390 . S
C845 C844 1.387 . S
H846 C858 0.930 . S
H847 C860 0.930 . S
H848 C861 0.930 . S
H849 C865 0.959 1_655 S
H850 C865 0.959 . S
H851 C865 0.961 . S
H852 C866 0.960 . S
H853 C866 0.961 . S
H854 C866 0.959 . S
H855 C869 0.929 . S
H856 C870 0.931 . S
H857 C872 0.930 . S
C858 H846 0.930 . S
C858 C859 1.399 . S
C858 C863 1.399 . S
C859 C858 1.399 . S
C859 C860 1.376 . S
C860 H847 0.930 . S
C860 C859 1.376 . S
C860 C861 1.388 . S
C861 H848 0.930 . S
C861 C860 1.388 . S
C861 C862 1.390 . S
C862 C861 1.390 . S
C862 C863 1.394 . S
C862 C868 1.465 . S
C863 C858 1.399 . S
C863 C862 1.394 . S
C863 C864 1.516 . S
C864 C863 1.516 . S
C864 C865 1.502 . S
C864 C866 1.561 . S
C864 C867 1.526 . S
C865 H849 0.959 1_455 S
C865 H850 0.959 . S
C865 H851 0.961 . S
C865 C864 1.502 . S
C866 H852 0.960 . S
C866 H853 0.961 . S
C866 H854 0.959 . S
C866 C864 1.561 . S
C867 C864 1.526 . S
C867 C868 1.396 . S
C867 C872 1.390 . S
C868 C862 1.465 . S
C868 C867 1.396 . S
C868 C869 1.399 . S
C869 H855 0.929 . S
C869 C868 1.399 . S
C869 C870 1.385 . S
C870 H856 0.931 . S
C870 C869 1.385 . S
C870 C871 1.389 . S
C871 C870 1.389 . S
C871 C872 1.387 . S
C872 H857 0.930 . S
C872 C867 1.390 . S
C872 C871 1.387 . S
H873 C885 0.930 . S
H874 C887 0.930 . S
H875 C888 0.930 . S
H876 C892 0.959 . S
H877 C892 0.959 . S
H878 C892 0.961 . S
H879 C893 0.960 . S
H880 C893 0.961 . S
H881 C893 0.959 . S
H882 C896 0.929 . S
H883 C897 0.931 . S
H884 C899 0.930 . S
C885 H873 0.930 . S
C885 C886 1.399 . S
C885 C890 1.399 . S
C886 C885 1.399 . S
C886 C887 1.376 . S
C887 H874 0.930 . S
C887 C886 1.376 . S
C887 C888 1.388 . S
C888 H875 0.930 . S
C888 C887 1.388 . S
C888 C889 1.390 . S
C889 C888 1.390 . S
C889 C890 1.394 . S
C889 C895 1.465 . S
C890 C885 1.399 . S
C890 C889 1.394 . S
C890 C891 1.516 . S
C891 C890 1.516 . S
C891 C892 1.502 . S
C891 C893 1.561 . S
C891 C894 1.526 . S
C892 H876 0.959 . S
C892 H877 0.959 . S
C892 H878 0.961 . S
C892 C891 1.502 . S
C893 H879 0.960 . S
C893 H880 0.961 . S
C893 H881 0.959 . S
C893 C891 1.561 . S
C894 C891 1.526 . S
C894 C895 1.396 . S
C894 C899 1.390 . S
C895 C889 1.465 . S
C895 C894 1.396 . S
C895 C896 1.399 . S
C896 H882 0.929 . S
C896 C895 1.399 . S
C896 C897 1.385 . S
C897 H883 0.931 . S
C897 C896 1.385 . S
C897 C898 1.389 . S
C898 C897 1.389 . S
C898 C899 1.387 . S
C899 H884 0.930 . S
C899 C894 1.390 . S
C899 C898 1.387 . S
H900 C912 0.930 1_565 S
H901 C914 0.930 . S
H902 C915 0.930 . S
H903 C919 0.959 . S
H904 C919 0.959 . S
H905 C919 0.961 . S
H906 C920 0.960 . S
H907 C920 0.961 . S
H908 C920 0.959 . S
H909 C923 0.929 . S
H910 C924 0.931 . S
H911 C926 0.930 1_565 S
C912 H900 0.930 1_545 S
C912 C913 1.399 . S
C912 C917 1.399 . S
C913 C912 1.399 . S
C913 C914 1.376 . S
C914 H901 0.930 . S
C914 C913 1.376 . S
C914 C915 1.388 . S
C915 H902 0.930 . S
C915 C914 1.388 . S
C915 C916 1.390 . S
C916 C915 1.390 . S
C916 C917 1.394 . S
C916 C922 1.465 . S
C917 C912 1.399 . S
C917 C916 1.394 . S
C917 C918 1.516 1_545 S
C918 C917 1.516 1_565 S
C918 C919 1.502 . S
C918 C920 1.561 . S
C918 C921 1.526 1_565 S
C919 H903 0.959 . S
C919 H904 0.959 . S
C919 H905 0.961 . S
C919 C918 1.502 . S
C920 H906 0.960 . S
C920 H907 0.961 . S
C920 H908 0.959 . S
C920 C918 1.561 . S
C921 C918 1.526 1_545 S
C921 C922 1.396 . S
C921 C926 1.390 . S
C922 C916 1.465 . S
C922 C921 1.396 . S
C922 C923 1.399 . S
C923 H909 0.929 . S
C923 C922 1.399 . S
C923 C924 1.385 . S
C924 H910 0.931 . S
C924 C923 1.385 . S
C924 C925 1.389 . S
C925 C924 1.389 . S
C925 C926 1.387 . S
C926 H911 0.930 1_545 S
C926 C921 1.390 . S
C926 C925 1.387 . S
H927 C939 0.930 . S
H928 C941 0.930 . S
H929 C942 0.930 . S
H930 C946 0.959 . S
H931 C946 0.959 . S
H932 C946 0.961 . S
H933 C947 0.960 . S
H934 C947 0.961 . S
H935 C947 0.959 . S
H936 C950 0.929 . S
H937 C951 0.931 . S
H938 C953 0.930 . S
C939 H927 0.930 . S
C939 C940 1.399 . S
C939 C944 1.399 . S
C940 C939 1.399 . S
C940 C941 1.376 . S
C941 H928 0.930 . S
C941 C940 1.376 . S
C941 C942 1.388 . S
C942 H929 0.930 . S
C942 C941 1.388 . S
C942 C943 1.390 . S
C943 C942 1.390 . S
C943 C944 1.394 . S
C943 C949 1.465 . S
C944 C939 1.399 . S
C944 C943 1.394 . S
C944 C945 1.516 . S
C945 C944 1.516 . S
C945 C946 1.502 . S
C945 C947 1.561 . S
C945 C948 1.526 . S
C946 H930 0.959 . S
C946 H931 0.959 . S
C946 H932 0.961 . S
C946 C945 1.502 . S
C947 H933 0.960 . S
C947 H934 0.961 . S
C947 H935 0.959 . S
C947 C945 1.561 . S
C948 C945 1.526 . S
C948 C949 1.396 . S
C948 C953 1.390 1_556 S
C949 C943 1.465 . S
C949 C948 1.396 . S
C949 C950 1.399 . S
C950 H936 0.929 . S
C950 C949 1.399 . S
C950 C951 1.385 1_556 S
C951 H937 0.931 . S
C951 C950 1.385 1_554 S
C951 C952 1.389 . S
C952 C951 1.389 . S
C952 C953 1.387 . S
C953 H938 0.930 . S
C953 C948 1.390 1_554 S
C953 C952 1.387 . S
H954 C966 0.930 . S
H955 C968 0.930 . S
H956 C969 0.930 . S
H957 C973 0.959 . S
H958 C973 0.959 . S
H959 C973 0.961 . S
H960 C974 0.960 . S
H961 C974 0.961 . S
H962 C974 0.959 . S
H963 C977 0.929 . S
H964 C978 0.931 . S
H965 C980 0.930 . S
C966 H954 0.930 . S
C966 C967 1.399 . S
C966 C971 1.399 . S
C967 C966 1.399 . S
C967 C968 1.376 . S
C968 H955 0.930 . S
C968 C967 1.376 . S
C968 C969 1.388 . S
C969 H956 0.930 . S
C969 C968 1.388 . S
C969 C970 1.390 . S
C970 C969 1.390 . S
C970 C971 1.394 . S
C970 C976 1.465 . S
C971 C966 1.399 . S
C971 C970 1.394 . S
C971 C972 1.516 . S
C972 C971 1.516 . S
C972 C973 1.502 . S
C972 C974 1.561 . S
C972 C975 1.526 . S
C973 H957 0.959 . S
C973 H958 0.959 . S
C973 H959 0.961 . S
C973 C972 1.502 . S
C974 H960 0.960 . S
C974 H961 0.961 . S
C974 H962 0.959 . S
C974 C972 1.561 . S
C975 C972 1.526 . S
C975 C976 1.396 . S
C975 C980 1.390 1_556 S
C976 C970 1.465 . S
C976 C975 1.396 . S
C976 C977 1.399 . S
C977 H963 0.929 . S
C977 C976 1.399 . S
C977 C978 1.385 1_556 S
C978 H964 0.931 . S
C978 C977 1.385 1_554 S
C978 C979 1.389 . S
C979 C978 1.389 . S
C979 C980 1.387 . S
C980 H965 0.930 . S
C980 C975 1.390 1_554 S
C980 C979 1.387 . S
H981 C993 0.930 . S
H982 C995 0.930 . S
H983 C996 0.930 . S
H984 C1000 0.959 . S
H985 C1000 0.959 . S
H986 C1000 0.961 . S
H987 C1001 0.960 . S
H988 C1001 0.961 . S
H989 C1001 0.959 . S
H990 C1004 0.929 . S
H991 C1005 0.931 . S
H992 C1007 0.930 . S
C993 H981 0.930 . S
C993 C994 1.399 . S
C993 C998 1.399 . S
C994 C993 1.399 . S
C994 C995 1.376 . S
C995 H982 0.930 . S
C995 C994 1.376 . S
C995 C996 1.388 . S
C996 H983 0.930 . S
C996 C995 1.388 . S
C996 C997 1.390 . S
C997 C996 1.390 . S
C997 C998 1.394 . S
C997 C1003 1.465 . S
C998 C993 1.399 . S
C998 C997 1.394 . S
C998 C999 1.516 . S
C999 C998 1.516 . S
C999 C1000 1.502 . S
C999 C1001 1.561 . S
C999 C1002 1.526 . S
C1000 H984 0.959 . S
C1000 H985 0.959 . S
C1000 H986 0.961 . S
C1000 C999 1.502 . S
C1001 H987 0.960 . S
C1001 H988 0.961 . S
C1001 H989 0.959 . S
C1001 C999 1.561 . S
C1002 C999 1.526 . S
C1002 C1003 1.396 . S
C1002 C1007 1.390 1_556 S
C1003 C997 1.465 . S
C1003 C1002 1.396 . S
C1003 C1004 1.399 . S
C1004 H990 0.929 . S
C1004 C1003 1.399 . S
C1004 C1005 1.385 1_556 S
C1005 H991 0.931 . S
C1005 C1004 1.385 1_554 S
C1005 C1006 1.389 . S
C1006 C1005 1.389 . S
C1006 C1007 1.387 . S
C1007 H992 0.930 . S
C1007 C1002 1.390 1_554 S
C1007 C1006 1.387 . S
H1008 C1020 0.930 . S
H1009 C1022 0.930 . S
H1010 C1023 0.930 . S
H1011 C1027 0.959 . S
H1012 C1027 0.959 . S
H1013 C1027 0.961 . S
H1014 C1028 0.960 . S
H1015 C1028 0.961 . S
H1016 C1028 0.959 . S
H1017 C1031 0.929 . S
H1018 C1032 0.931 . S
H1019 C1034 0.930 . S
C1020 H1008 0.930 . S
C1020 C1021 1.399 . S
C1020 C1025 1.399 . S
C1021 C1020 1.399 . S
C1021 C1022 1.376 . S
C1022 H1009 0.930 . S
C1022 C1021 1.376 . S
C1022 C1023 1.388 . S
C1023 H1010 0.930 . S
C1023 C1022 1.388 . S
C1023 C1024 1.390 . S
C1024 C1023 1.390 . S
C1024 C1025 1.394 . S
C1024 C1030 1.465 . S
C1025 C1020 1.399 . S
C1025 C1024 1.394 . S
C1025 C1026 1.516 . S
C1026 C1025 1.516 . S
C1026 C1027 1.502 . S
C1026 C1028 1.561 . S
C1026 C1029 1.526 . S
C1027 H1011 0.959 . S
C1027 H1012 0.959 . S
C1027 H1013 0.961 . S
C1027 C1026 1.502 . S
C1028 H1014 0.960 . S
C1028 H1015 0.961 . S
C1028 H1016 0.959 . S
C1028 C1026 1.561 . S
C1029 C1026 1.526 . S
C1029 C1030 1.396 . S
C1029 C1034 1.390 1_554 S
C1030 C1024 1.465 . S
C1030 C1029 1.396 . S
C1030 C1031 1.399 . S
C1031 H1017 0.929 . S
C1031 C1030 1.399 . S
C1031 C1032 1.385 1_554 S
C1032 H1018 0.931 . S
C1032 C1031 1.385 1_556 S
C1032 C1033 1.389 . S
C1033 C1032 1.389 . S
C1033 C1034 1.387 . S
C1034 H1019 0.930 . S
C1034 C1029 1.390 1_556 S
C1034 C1033 1.387 . S
H1035 C1047 0.930 . S
H1036 C1049 0.930 . S
H1037 C1050 0.930 . S
H1038 C1054 0.959 . S
H1039 C1054 0.959 . S
H1040 C1054 0.961 . S
H1041 C1055 0.960 . S
H1042 C1055 0.961 . S
H1043 C1055 0.959 . S
H1044 C1058 0.929 . S
H1045 C1059 0.931 . S
H1046 C1061 0.930 . S
C1047 H1035 0.930 . S
C1047 C1048 1.399 . S
C1047 C1052 1.399 1_556 S
C1048 C1047 1.399 . S
C1048 C1049 1.376 . S
C1049 H1036 0.930 . S
C1049 C1048 1.376 . S
C1049 C1050 1.388 1_556 S
C1050 H1037 0.930 . S
C1050 C1049 1.388 1_554 S
C1050 C1051 1.390 . S
C1051 C1050 1.390 . S
C1051 C1052 1.394 . S
C1051 C1057 1.465 . S
C1052 C1047 1.399 1_554 S
C1052 C1051 1.394 . S
C1052 C1053 1.516 . S
C1053 C1052 1.516 . S
C1053 C1054 1.502 . S
C1053 C1055 1.561 . S
C1053 C1056 1.526 . S
C1054 H1038 0.959 . S
C1054 H1039 0.959 . S
C1054 H1040 0.961 . S
C1054 C1053 1.502 . S
C1055 H1041 0.960 . S
C1055 H1042 0.961 . S
C1055 H1043 0.959 . S
C1055 C1053 1.561 . S
C1056 C1053 1.526 . S
C1056 C1057 1.396 . S
C1056 C1061 1.390 . S
C1057 C1051 1.465 . S
C1057 C1056 1.396 . S
C1057 C1058 1.399 . S
C1058 H1044 0.929 . S
C1058 C1057 1.399 . S
C1058 C1059 1.385 . S
C1059 H1045 0.931 . S
C1059 C1058 1.385 . S
C1059 C1060 1.389 . S
C1060 C1059 1.389 . S
C1060 C1061 1.387 . S
C1061 H1046 0.930 . S
C1061 C1056 1.390 . S
C1061 C1060 1.387 . S
H1062 C1074 0.930 . S
H1063 C1076 0.930 . S
H1064 C1077 0.930 . S
H1065 C1081 0.959 . S
H1066 C1081 0.959 . S
H1067 C1081 0.961 . S
H1068 C1082 0.960 . S
H1069 C1082 0.961 . S
H1070 C1082 0.959 . S
H1071 C1085 0.929 . S
H1072 C1086 0.931 . S
H1073 C1088 0.930 . S
C1074 H1062 0.930 . S
C1074 C1075 1.399 . S
C1074 C1079 1.399 . S
C1075 C1074 1.399 . S
C1075 C1076 1.376 . S
C1076 H1063 0.930 . S
C1076 C1075 1.376 . S
C1076 C1077 1.388 . S
C1077 H1064 0.930 . S
C1077 C1076 1.388 . S
C1077 C1078 1.390 . S
C1078 C1077 1.390 . S
C1078 C1079 1.394 . S
C1078 C1084 1.465 . S
C1079 C1074 1.399 . S
C1079 C1078 1.394 . S
C1079 C1080 1.516 . S
C1080 C1079 1.516 . S
C1080 C1081 1.502 . S
C1080 C1082 1.561 . S
C1080 C1083 1.526 . S
C1081 H1065 0.959 . S
C1081 H1066 0.959 . S
C1081 H1067 0.961 . S
C1081 C1080 1.502 . S
C1082 H1068 0.960 . S
C1082 H1069 0.961 . S
C1082 H1070 0.959 . S
C1082 C1080 1.561 . S
C1083 C1080 1.526 . S
C1083 C1084 1.396 . S
C1083 C1088 1.390 1_554 S
C1084 C1078 1.465 . S
C1084 C1083 1.396 . S
C1084 C1085 1.399 . S
C1085 H1071 0.929 . S
C1085 C1084 1.399 . S
C1085 C1086 1.385 1_554 S
C1086 H1072 0.931 . S
C1086 C1085 1.385 1_556 S
C1086 C1087 1.389 . S
C1087 C1086 1.389 . S
C1087 C1088 1.387 . S
C1088 H1073 0.930 . S
C1088 C1083 1.390 1_556 S
C1088 C1087 1.387 . S
C373 C10 1.857 . S
C385 C286 1.870 . S
C400 C50 1.820 . S
C412 C326 1.893 . S
C427 C90 1.832 . S
C439 C246 1.874 . S
C454 C170 1.827 . S
C466 C86 1.878 . S
C481 C210 1.843 . S
C493 C6 1.881 . S
C508 C46 1.862 . S
C520 C130 1.860 . S
C535 C290 1.840 . S
C547 C206 1.883 1_455 S
C562 C330 1.797 . S
C574 C126 1.900 . S
C589 C166 1.862 . S
C601 C250 1.859 . S
C616 C99 1.724 . S
C628 C15 1.704 . S
C643 C55 1.729 1_545 S
C655 C19 1.733 . S
C670 C59 1.722 . S
C682 C95 1.714 . S
C697 C135 1.728 . S
C709 C219 1.731 . S
C724 C139 1.725 . S
C736 C175 1.720 . S
C751 C179 1.719 . S
C763 C215 1.705 . S
C778 C339 1.726 . S
C790 C255 1.709 . S
C805 C295 1.728 . S
C817 C259 1.731 . S
C832 C335 1.727 . S
C844 C299 1.729 . S
C859 C9 1.078 . S
C871 C18 1.013 . S
C886 C49 0.992 . S
C898 C58 1.088 . S
C913 C89 1.029 . S
C925 C98 1.065 . S
C940 C138 1.074 . S
C952 C129 1.019 . S
C967 C178 1.029 . S
C979 C169 1.065 . S
C994 C218 0.992 . S
C1006 C209 1.088 . S
C1021 C249 1.088 . S
C1033 C258 0.990 . S
C1048 C298 1.045 . S
C1060 C289 1.021 . S
C1075 C329 1.048 . S
C1087 C338 1.018 . S
