# Generated by pormake.
# Topology afi, (4)-cn, num edge types: 1
# Building blocks:
#     Node 0, Type 0, BuildingBlock: QUQFOY_clean_sbu_3, # of connection points: 4
#     Node 1, Type 0, BuildingBlock: QUQFOY_clean_sbu_3, # of connection points: 4
#     Node 2, Type 0, BuildingBlock: QUQFOY_clean_sbu_3, # of connection points: 4
#     Node 3, Type 0, BuildingBlock: QUQFOY_clean_sbu_3, # of connection points: 4
#     Node 4, Type 0, BuildingBlock: QUQFOY_clean_sbu_3, # of connection points: 4
#     Node 5, Type 0, BuildingBlock: QUQFOY_clean_sbu_3, # of connection points: 4
#     Node 6, Type 0, BuildingBlock: QUQFOY_clean_sbu_3, # of connection points: 4
#     Node 7, Type 0, BuildingBlock: QUQFOY_clean_sbu_3, # of connection points: 4
#     Node 8, Type 0, BuildingBlock: QUQFOY_clean_sbu_3, # of connection points: 4
#     Node 9, Type 0, BuildingBlock: QUQFOY_clean_sbu_3, # of connection points: 4
#     Node 10, Type 0, BuildingBlock: QUQFOY_clean_sbu_3, # of connection points: 4
#     Node 11, Type 0, BuildingBlock: QUQFOY_clean_sbu_3, # of connection points: 4
#     Node 12, Type 0, BuildingBlock: QUQFOY_clean_sbu_3, # of connection points: 4
#     Node 13, Type 0, BuildingBlock: QUQFOY_clean_sbu_3, # of connection points: 4
#     Node 14, Type 0, BuildingBlock: QUQFOY_clean_sbu_3, # of connection points: 4
#     Node 15, Type 0, BuildingBlock: QUQFOY_clean_sbu_3, # of connection points: 4
#     Node 16, Type 0, BuildingBlock: QUQFOY_clean_sbu_3, # of connection points: 4
#     Node 17, Type 0, BuildingBlock: QUQFOY_clean_sbu_3, # of connection points: 4
#     Node 18, Type 0, BuildingBlock: QUQFOY_clean_sbu_3, # of connection points: 4
#     Node 19, Type 0, BuildingBlock: QUQFOY_clean_sbu_3, # of connection points: 4
#     Node 20, Type 0, BuildingBlock: QUQFOY_clean_sbu_3, # of connection points: 4
#     Node 21, Type 0, BuildingBlock: QUQFOY_clean_sbu_3, # of connection points: 4
#     Node 22, Type 0, BuildingBlock: QUQFOY_clean_sbu_3, # of connection points: 4
#     Node 23, Type 0, BuildingBlock: QUQFOY_clean_sbu_3, # of connection points: 4
#     Edge 24, Type (0, 0), BuildingBlock: KIFKEQ_clean_linker_1, # of connection points: 2
#     Edge 25, Type (0, 0), BuildingBlock: KIFKEQ_clean_linker_1, # of connection points: 2
#     Edge 26, Type (0, 0), BuildingBlock: KIFKEQ_clean_linker_1, # of connection points: 2
#     Edge 27, Type (0, 0), BuildingBlock: KIFKEQ_clean_linker_1, # of connection points: 2
#     Edge 28, Type (0, 0), BuildingBlock: KIFKEQ_clean_linker_1, # of connection points: 2
#     Edge 29, Type (0, 0), BuildingBlock: KIFKEQ_clean_linker_1, # of connection points: 2
#     Edge 30, Type (0, 0), BuildingBlock: KIFKEQ_clean_linker_1, # of connection points: 2
#     Edge 31, Type (0, 0), BuildingBlock: KIFKEQ_clean_linker_1, # of connection points: 2
#     Edge 32, Type (0, 0), BuildingBlock: KIFKEQ_clean_linker_1, # of connection points: 2
#     Edge 33, Type (0, 0), BuildingBlock: KIFKEQ_clean_linker_1, # of connection points: 2
#     Edge 34, Type (0, 0), BuildingBlock: KIFKEQ_clean_linker_1, # of connection points: 2
#     Edge 35, Type (0, 0), BuildingBlock: KIFKEQ_clean_linker_1, # of connection points: 2
#     Edge 36, Type (0, 0), BuildingBlock: KIFKEQ_clean_linker_1, # of connection points: 2
#     Edge 37, Type (0, 0), BuildingBlock: KIFKEQ_clean_linker_1, # of connection points: 2
#     Edge 38, Type (0, 0), BuildingBlock: KIFKEQ_clean_linker_1, # of connection points: 2
#     Edge 39, Type (0, 0), BuildingBlock: KIFKEQ_clean_linker_1, # of connection points: 2
#     Edge 40, Type (0, 0), BuildingBlock: KIFKEQ_clean_linker_1, # of connection points: 2
#     Edge 41, Type (0, 0), BuildingBlock: KIFKEQ_clean_linker_1, # of connection points: 2
#     Edge 42, Type (0, 0), BuildingBlock: KIFKEQ_clean_linker_1, # of connection points: 2
#     Edge 43, Type (0, 0), BuildingBlock: KIFKEQ_clean_linker_1, # of connection points: 2
#     Edge 44, Type (0, 0), BuildingBlock: KIFKEQ_clean_linker_1, # of connection points: 2
#     Edge 45, Type (0, 0), BuildingBlock: KIFKEQ_clean_linker_1, # of connection points: 2
#     Edge 46, Type (0, 0), BuildingBlock: KIFKEQ_clean_linker_1, # of connection points: 2
#     Edge 47, Type (0, 0), BuildingBlock: KIFKEQ_clean_linker_1, # of connection points: 2
#     Edge 48, Type (0, 0), BuildingBlock: KIFKEQ_clean_linker_1, # of connection points: 2
#     Edge 49, Type (0, 0), BuildingBlock: KIFKEQ_clean_linker_1, # of connection points: 2
#     Edge 50, Type (0, 0), BuildingBlock: KIFKEQ_clean_linker_1, # of connection points: 2
#     Edge 51, Type (0, 0), BuildingBlock: KIFKEQ_clean_linker_1, # of connection points: 2
#     Edge 52, Type (0, 0), BuildingBlock: KIFKEQ_clean_linker_1, # of connection points: 2
#     Edge 53, Type (0, 0), BuildingBlock: KIFKEQ_clean_linker_1, # of connection points: 2
#     Edge 54, Type (0, 0), BuildingBlock: KIFKEQ_clean_linker_1, # of connection points: 2
#     Edge 55, Type (0, 0), BuildingBlock: KIFKEQ_clean_linker_1, # of connection points: 2
#     Edge 56, Type (0, 0), BuildingBlock: KIFKEQ_clean_linker_1, # of connection points: 2
#     Edge 57, Type (0, 0), BuildingBlock: KIFKEQ_clean_linker_1, # of connection points: 2
#     Edge 58, Type (0, 0), BuildingBlock: KIFKEQ_clean_linker_1, # of connection points: 2
#     Edge 59, Type (0, 0), BuildingBlock: KIFKEQ_clean_linker_1, # of connection points: 2
#     Edge 60, Type (0, 0), BuildingBlock: KIFKEQ_clean_linker_1, # of connection points: 2
#     Edge 61, Type (0, 0), BuildingBlock: KIFKEQ_clean_linker_1, # of connection points: 2
#     Edge 62, Type (0, 0), BuildingBlock: KIFKEQ_clean_linker_1, # of connection points: 2
#     Edge 63, Type (0, 0), BuildingBlock: KIFKEQ_clean_linker_1, # of connection points: 2
#     Edge 64, Type (0, 0), BuildingBlock: KIFKEQ_clean_linker_1, # of connection points: 2
#     Edge 65, Type (0, 0), BuildingBlock: KIFKEQ_clean_linker_1, # of connection points: 2
#     Edge 66, Type (0, 0), BuildingBlock: KIFKEQ_clean_linker_1, # of connection points: 2
#     Edge 67, Type (0, 0), BuildingBlock: KIFKEQ_clean_linker_1, # of connection points: 2
#     Edge 68, Type (0, 0), BuildingBlock: KIFKEQ_clean_linker_1, # of connection points: 2
#     Edge 69, Type (0, 0), BuildingBlock: KIFKEQ_clean_linker_1, # of connection points: 2
#     Edge 70, Type (0, 0), BuildingBlock: KIFKEQ_clean_linker_1, # of connection points: 2
#     Edge 71, Type (0, 0), BuildingBlock: KIFKEQ_clean_linker_1, # of connection points: 2
# Relax obj value: 0.097
# Max RMSD: 0.105
# Mean RMSD: 0.105
data_MOF--net-afi--node1-QUQFOY_clean_sbu_3--edge1-KIFKEQ_clean_linker_1
_symmetry_space_group_name_H-M    P1
_symmetry_Int_Tables_number       1
_symmetry_cell_setting            triclinic
loop_
_symmetry_equiv_pos_as_xyz
'x, y, z'
_cell_length_a     71.21475
_cell_length_b     71.264287
_cell_length_c     41.181747
_cell_angle_alpha  90.068354
_cell_angle_beta   89.911178
_cell_angle_gamma 120.12604
loop_
_atom_site_label
_atom_site_type_symbol
_atom_site_fract_x
_atom_site_fract_y
_atom_site_fract_z
_atom_type_partial_charge
C0 C 0.49103 0.12245 0.17954 0.0
O1 O 0.4857 0.11232 0.15271 0.0
Cd2 Cd 0.45319 0.10362 0.12463 0.0
O3 O 0.47923 0.1293 0.19229 0.0
Cd4 Cd 0.44558 0.13029 0.17825 0.0
C5 C 0.41601 0.07619 0.18552 0.0
O6 O 0.45345 0.13719 0.12164 0.0
O7 O 0.41998 0.12559 0.1339 0.0
O8 O 0.465 0.16778 0.19545 0.0
C9 C 0.43506 0.134 0.113 0.0
O10 O 0.42403 0.0758 0.15803 0.0
C11 C 0.44939 0.16717 0.21119 0.0
O12 O 0.42188 0.09413 0.19989 0.0
O13 O 0.43202 0.1489 0.21312 0.0
C14 C 0.36502 0.49647 0.16424 0.0
O15 O 0.36917 0.49043 0.13749 0.0
Cd16 Cd 0.34529 0.45576 0.11447 0.0
O17 O 0.34735 0.4842 0.17933 0.0
Cd18 Cd 0.31372 0.44837 0.17176 0.0
C19 C 0.34263 0.42316 0.17796 0.0
O20 O 0.31029 0.45296 0.11512 0.0
O21 O 0.29092 0.41994 0.13172 0.0
O22 O 0.29438 0.46582 0.19176 0.0
C23 C 0.29525 0.43381 0.10947 0.0
O24 O 0.34908 0.42986 0.14919 0.0
C25 C 0.28174 0.45047 0.2104 0.0
O26 O 0.33032 0.42845 0.19287 0.0
O27 O 0.28448 0.4342 0.21208 0.0
C28 C 0.89187 0.39561 0.15342 0.0
O29 O 0.90495 0.40117 0.12962 0.0
Cd30 Cd 0.91681 0.37748 0.10791 0.0
O31 O 0.88344 0.37657 0.16527 0.0
Cd32 Cd 0.88282 0.34206 0.15483 0.0
C33 C 0.93513 0.36464 0.17677 0.0
O34 O 0.88499 0.34358 0.09589 0.0
O35 O 0.88918 0.31863 0.11883 0.0
O36 O 0.84358 0.323 0.16208 0.0
C37 C 0.88697 0.32694 0.09299 0.0
O38 O 0.93957 0.37426 0.14942 0.0
C39 C 0.84316 0.30935 0.18227 0.0
O40 O 0.91553 0.35272 0.18582 0.0
O41 O 0.86131 0.31154 0.19066 0.0
C42 C 0.50971 0.90243 0.17143 0.0
O43 O 0.51377 0.91275 0.14483 0.0
Cd44 Cd 0.54368 0.92005 0.11075 0.0
O45 O 0.52159 0.89481 0.18106 0.0
Cd46 Cd 0.55363 0.89281 0.16073 0.0
C47 C 0.58502 0.94708 0.16578 0.0
O48 O 0.54067 0.88532 0.10563 0.0
O49 O 0.57357 0.89226 0.11188 0.0
O50 O 0.53483 0.85681 0.18503 0.0
C51 C 0.55713 0.88555 0.09364 0.0
O52 O 0.57541 0.94758 0.14003 0.0
C53 C 0.55197 0.85673 0.1931 0.0
O54 O 0.57962 0.92914 0.17971 0.0
O55 O 0.5699 0.874 0.188 0.0
C56 C 0.62277 0.51083 0.18612 0.0
O57 O 0.61754 0.51171 0.15697 0.0
Cd58 Cd 0.63811 0.54248 0.12374 0.0
O59 O 0.64056 0.52584 0.19805 0.0
Cd60 Cd 0.67373 0.55929 0.17765 0.0
C61 C 0.64383 0.58332 0.17585 0.0
O62 O 0.67298 0.54554 0.12431 0.0
O63 O 0.69222 0.58028 0.12794 0.0
O64 O 0.69372 0.54504 0.20578 0.0
C65 C 0.68675 0.56327 0.11147 0.0
O66 O 0.63542 0.57201 0.15036 0.0
C67 C 0.70945 0.56333 0.2142 0.0
O68 O 0.65804 0.58144 0.19191 0.0
O69 O 0.70803 0.57994 0.20729 0.0
C70 C 0.12024 0.6171 0.19528 0.0
O71 O 0.10965 0.61133 0.16886 0.0
Cd72 Cd 0.10126 0.63401 0.13688 0.0
O73 O 0.12816 0.63646 0.20582 0.0
Cd74 Cd 0.13037 0.67087 0.18752 0.0
C75 C 0.07627 0.64824 0.19583 0.0
O76 O 0.13468 0.66698 0.13038 0.0
O77 O 0.12632 0.69129 0.14227 0.0
O78 O 0.16858 0.69065 0.20192 0.0
C79 C 0.13197 0.68231 0.12085 0.0
O80 O 0.07501 0.63856 0.1692 0.0
C81 C 0.16761 0.70546 0.21768 0.0
O82 O 0.09455 0.66019 0.20944 0.0
O83 O 0.14897 0.70352 0.22095 0.0
C84 C 0.88244 0.51005 0.28003 0.0
O85 O 0.88933 0.50906 0.308 0.0
Cd86 Cd 0.89858 0.53624 0.34809 0.0
O87 O 0.87847 0.52509 0.27264 0.0
Cd88 Cd 0.87791 0.55569 0.30203 0.0
C89 C 0.93218 0.58189 0.3029 0.0
O90 O 0.86597 0.53759 0.35357 0.0
O91 O 0.87977 0.57223 0.35574 0.0
O92 O 0.84303 0.54275 0.27617 0.0
C93 C 0.86922 0.55402 0.36978 0.0
O94 O 0.92998 0.56885 0.32568 0.0
C95 C 0.84535 0.56138 0.27133 0.0
O96 O 0.91563 0.58028 0.28855 0.0
O97 O 0.86348 0.57765 0.27917 0.0
C98 C 0.38835 0.89592 0.30553 0.0
O99 O 0.39347 0.90628 0.33219 0.0
Cd100 Cd 0.36886 0.91241 0.36359 0.0
O101 O 0.36901 0.88737 0.29465 0.0
Cd102 Cd 0.33353 0.88307 0.31193 0.0
C103 C 0.35366 0.93698 0.3057 0.0
O104 O 0.33718 0.87753 0.36872 0.0
O105 O 0.31091 0.8832 0.35714 0.0
O106 O 0.31684 0.84553 0.29453 0.0
C107 C 0.32032 0.87771 0.37799 0.0
O108 O 0.36351 0.93841 0.33217 0.0
C109 C 0.30132 0.84538 0.27922 0.0
O110 O 0.34229 0.91871 0.29178 0.0
O111 O 0.30144 0.86324 0.27751 0.0
C112 C 0.49802 0.39216 0.30897 0.0
O113 O 0.49315 0.39748 0.33576 0.0
Cd114 Cd 0.45964 0.37489 0.36307 0.0
O115 O 0.48566 0.37357 0.29638 0.0
Cd116 Cd 0.45185 0.33934 0.31114 0.0
C117 C 0.42288 0.3643 0.30141 0.0
O118 O 0.45865 0.34111 0.36863 0.0
O119 O 0.42609 0.31739 0.35421 0.0
O120 O 0.47008 0.31968 0.29555 0.0
C121 C 0.44038 0.32515 0.3763 0.0
O122 O 0.43108 0.3736 0.32836 0.0
C123 C 0.45441 0.30533 0.27902 0.0
O124 O 0.42836 0.35152 0.28852 0.0
O125 O 0.43787 0.30753 0.27579 0.0
C126 C 0.10922 0.49465 0.32983 0.0
O127 O 0.09771 0.49011 0.35536 0.0
Cd128 Cd 0.08666 0.45797 0.38649 0.0
O129 O 0.11618 0.48225 0.32006 0.0
Cd130 Cd 0.11535 0.44846 0.33771 0.0
C131 C 0.06115 0.42008 0.32644 0.0
O132 O 0.11962 0.45739 0.39427 0.0
O133 O 0.11171 0.42459 0.3835 0.0
O134 O 0.15306 0.46597 0.32142 0.0
C135 C 0.1175 0.43965 0.40424 0.0
O136 O 0.05951 0.42876 0.35253 0.0
C137 C 0.15139 0.44983 0.30587 0.0
O138 O 0.07968 0.4251 0.31498 0.0
O139 O 0.13261 0.43311 0.30414 0.0
C140 C 0.61991 0.13045 0.29263 0.0
O141 O 0.61612 0.12052 0.31955 0.0
Cd142 Cd 0.6413 0.11328 0.34664 0.0
O143 O 0.63843 0.13812 0.27896 0.0
Cd144 Cd 0.67411 0.14098 0.29115 0.0
C145 C 0.65158 0.0869 0.28496 0.0
O146 O 0.67446 0.14723 0.34839 0.0
O147 O 0.69672 0.13688 0.33322 0.0
O148 O 0.69258 0.17851 0.27299 0.0
C149 C 0.68983 0.14402 0.35575 0.0
O150 O 0.6435 0.08605 0.31293 0.0
C151 C 0.70629 0.17689 0.25527 0.0
O152 O 0.66251 0.10494 0.27027 0.0
O153 O 0.70443 0.15825 0.25318 0.0
C154 C 0.48765 0.62374 0.27585 0.0
O155 O 0.49227 0.61853 0.30289 0.0
Cd156 Cd 0.52369 0.64049 0.33401 0.0
O157 O 0.50009 0.64241 0.26344 0.0
Cd158 Cd 0.53455 0.67585 0.28063 0.0
C159 C 0.56224 0.64928 0.27612 0.0
O160 O 0.52444 0.67419 0.33663 0.0
O161 O 0.55859 0.69433 0.32776 0.0
O162 O 0.52002 0.6977 0.25834 0.0
C163 C 0.54285 0.68809 0.34737 0.0
O164 O 0.55357 0.64116 0.30344 0.0
C165 C 0.53818 0.71268 0.24788 0.0
O166 O 0.55712 0.66158 0.26084 0.0
O167 O 0.55429 0.70978 0.25073 0.0
C168 C 0.48001 0.85612 0.79919 0.0
O169 O 0.48653 0.86706 0.82525 0.0
Cd170 Cd 0.52017 0.87681 0.85074 0.0
O171 O 0.49124 0.84889 0.78558 0.0
Cd172 Cd 0.52572 0.84881 0.7967 0.0
C173 C 0.55465 0.90289 0.78663 0.0
O174 O 0.52086 0.84372 0.85421 0.0
O175 O 0.55362 0.85533 0.83805 0.0
O176 O 0.50819 0.81086 0.78097 0.0
C177 C 0.53985 0.84774 0.86089 0.0
O178 O 0.54802 0.90414 0.81487 0.0
C179 C 0.52348 0.813 0.76261 0.0
O180 O 0.54801 0.88455 0.77316 0.0
O181 O 0.53946 0.83208 0.75898 0.0
C182 C 0.59912 0.48837 0.80534 0.0
O183 O 0.5941 0.49499 0.83075 0.0
Cd184 Cd 0.61895 0.52732 0.85916 0.0
O185 O 0.61843 0.49858 0.79417 0.0
Cd186 Cd 0.65404 0.53066 0.80867 0.0
C187 C 0.63401 0.56408 0.79668 0.0
O188 O 0.65075 0.52459 0.86646 0.0
O189 O 0.67713 0.55576 0.85153 0.0
O190 O 0.6709 0.50945 0.79398 0.0
C191 C 0.66763 0.54216 0.87414 0.0
O192 O 0.62424 0.55711 0.82372 0.0
C193 C 0.68576 0.52413 0.77668 0.0
O194 O 0.64518 0.55636 0.78458 0.0
O195 O 0.68532 0.54162 0.77319 0.0
C196 C 0.09122 0.60984 0.81709 0.0
O197 O 0.08143 0.60486 0.84422 0.0
Cd198 Cd 0.07377 0.62895 0.8733 0.0
O199 O 0.09767 0.6285 0.80459 0.0
Cd200 Cd 0.09764 0.66255 0.81987 0.0
C201 C 0.04334 0.63649 0.81588 0.0
O202 O 0.10848 0.66167 0.87449 0.0
O203 O 0.09641 0.68367 0.86725 0.0
O204 O 0.13254 0.68001 0.79219 0.0
C205 C 0.10679 0.67742 0.88488 0.0
O206 O 0.04381 0.6284 0.84319 0.0
C207 C 0.13152 0.69647 0.78311 0.0
O208 O 0.06087 0.64902 0.80092 0.0
O209 O 0.11414 0.6966 0.78949 0.0
C210 C 0.48936 0.1015 0.80089 0.0
O211 O 0.48658 0.09299 0.82883 0.0
Cd212 Cd 0.4552 0.08369 0.86098 0.0
O213 O 0.47637 0.10739 0.78993 0.0
Cd214 Cd 0.44469 0.10994 0.81017 0.0
C215 C 0.41473 0.05579 0.80449 0.0
O216 O 0.45484 0.11677 0.86657 0.0
O217 O 0.42153 0.10731 0.85639 0.0
O218 O 0.4625 0.14747 0.79277 0.0
C219 C 0.43704 0.11458 0.87657 0.0
O220 O 0.42448 0.05546 0.83022 0.0
C221 C 0.44614 0.14592 0.77807 0.0
O222 O 0.41952 0.07368 0.79092 0.0
O223 O 0.42934 0.12718 0.7766 0.0
C224 C 0.37262 0.48184 0.79639 0.0
O225 O 0.37838 0.47695 0.82273 0.0
Cd226 Cd 0.35476 0.44642 0.85523 0.0
O227 O 0.35301 0.4709 0.78662 0.0
Cd228 Cd 0.31812 0.43998 0.80694 0.0
C229 C 0.33754 0.40613 0.79743 0.0
O230 O 0.32319 0.44915 0.86378 0.0
O231 O 0.29778 0.4165 0.85301 0.0
O232 O 0.30078 0.46089 0.79442 0.0
C233 C 0.30699 0.43168 0.87359 0.0
O234 O 0.34806 0.41476 0.8234 0.0
C235 C 0.28436 0.44556 0.78049 0.0
O236 O 0.32593 0.41299 0.78432 0.0
O237 O 0.28435 0.42786 0.77661 0.0
C238 C 0.8565 0.34931 0.80722 0.0
O239 O 0.86428 0.35353 0.83573 0.0
Cd240 Cd 0.87616 0.33191 0.86311 0.0
O241 O 0.85296 0.33195 0.79288 0.0
Cd242 Cd 0.85487 0.29858 0.80461 0.0
C243 C 0.90898 0.32984 0.80234 0.0
O244 O 0.84702 0.2955 0.86148 0.0
O245 O 0.86342 0.27869 0.8457 0.0
O246 O 0.81763 0.27778 0.78752 0.0
C247 C 0.85401 0.28283 0.86843 0.0
O248 O 0.90679 0.33629 0.83024 0.0
C249 C 0.82005 0.26487 0.76912 0.0
O250 O 0.89243 0.3166 0.78583 0.0
O251 O 0.83924 0.26815 0.76586 0.0
C252 C 0.10239 0.49105 0.70257 0.0
O253 O 0.09412 0.48583 0.67442 0.0
Cd254 Cd 0.08808 0.45388 0.64713 0.0
O255 O 0.10888 0.47954 0.71714 0.0
Cd256 Cd 0.11179 0.44672 0.70473 0.0
C257 C 0.05768 0.41564 0.70518 0.0
O258 O 0.12188 0.45451 0.64873 0.0
O259 O 0.10889 0.42097 0.66202 0.0
O260 O 0.14875 0.46624 0.72443 0.0
C261 C 0.11903 0.43601 0.64153 0.0
O262 O 0.05878 0.42384 0.67727 0.0
C263 C 0.14778 0.45052 0.74022 0.0
O264 O 0.07471 0.42193 0.72224 0.0
O265 O 0.12936 0.4333 0.74182 0.0
C266 C 0.60023 0.09009 0.66423 0.0
O267 O 0.59336 0.0807 0.63705 0.0
Cd268 Cd 0.61363 0.06951 0.60428 0.0
O269 O 0.61921 0.09547 0.67431 0.0
Cd270 Cd 0.65222 0.09557 0.65355 0.0
C271 C 0.62558 0.04118 0.66059 0.0
O272 O 0.64723 0.10251 0.59809 0.0
O273 O 0.67239 0.0945 0.60528 0.0
O274 O 0.67187 0.13262 0.6728 0.0
C275 C 0.66299 0.10123 0.58642 0.0
O276 O 0.61507 0.041 0.63548 0.0
C277 C 0.68725 0.13126 0.68589 0.0
O278 O 0.63983 0.05903 0.67311 0.0
O279 O 0.68586 0.11277 0.68542 0.0
C280 C 0.49278 0.59648 0.66007 0.0
O281 O 0.49784 0.59023 0.6343 0.0
Cd282 Cd 0.52893 0.61355 0.60214 0.0
O283 O 0.50394 0.61614 0.66946 0.0
Cd284 Cd 0.53568 0.65065 0.65049 0.0
C285 C 0.56869 0.62989 0.66014 0.0
O286 O 0.52615 0.64525 0.59373 0.0
O287 O 0.55806 0.67216 0.60426 0.0
O288 O 0.51545 0.66808 0.66733 0.0
C289 C 0.5431 0.66195 0.58368 0.0
O290 O 0.56016 0.61915 0.63429 0.0
C291 C 0.53112 0.68361 0.68227 0.0
O292 O 0.56209 0.64197 0.67234 0.0
O293 O 0.54882 0.68336 0.68355 0.0
C294 C 0.86327 0.47405 0.68465 0.0
O295 O 0.87607 0.48037 0.66045 0.0
Cd296 Cd 0.88601 0.51221 0.62925 0.0
O297 O 0.85431 0.48477 0.69404 0.0
Cd298 Cd 0.85385 0.51798 0.67635 0.0
C299 C 0.90769 0.55062 0.68938 0.0
O300 O 0.85231 0.5106 0.61895 0.0
O301 O 0.85762 0.54231 0.63088 0.0
O302 O 0.81527 0.50005 0.68952 0.0
C303 C 0.85407 0.52823 0.60927 0.0
O304 O 0.91062 0.54285 0.66326 0.0
C305 C 0.8166 0.51582 0.70576 0.0
O306 O 0.88867 0.54348 0.70077 0.0
O307 O 0.83542 0.53221 0.7094 0.0
C308 C 0.35971 0.86312 0.6847 0.0
O309 O 0.36553 0.87341 0.65803 0.0
Cd310 Cd 0.3442 0.8843 0.62821 0.0
O311 O 0.3411 0.85743 0.6969 0.0
Cd312 Cd 0.3085 0.86007 0.68075 0.0
C313 C 0.33701 0.91424 0.68743 0.0
O314 O 0.30981 0.85174 0.6247 0.0
O315 O 0.29014 0.86617 0.63408 0.0
O316 O 0.28681 0.82388 0.7036 0.0
C317 C 0.29594 0.85637 0.6144 0.0
O318 O 0.3452 0.9139 0.66007 0.0
C319 C 0.27184 0.82699 0.71414 0.0
O320 O 0.32389 0.89665 0.70178 0.0
O321 O 0.27452 0.84587 0.71075 0.0
C322 C 0.47823 0.3649 0.68186 0.0
O323 O 0.47388 0.36948 0.65412 0.0
Cd324 Cd 0.44321 0.34483 0.62297 0.0
O325 O 0.46659 0.34596 0.69385 0.0
Cd326 Cd 0.43498 0.31044 0.6766 0.0
C327 C 0.40294 0.3323 0.6798 0.0
O328 O 0.44515 0.3124 0.62084 0.0
O329 O 0.41149 0.28941 0.63039 0.0
O330 O 0.45494 0.29338 0.69536 0.0
C331 C 0.42737 0.29681 0.61082 0.0
O332 O 0.41194 0.3414 0.6531 0.0
C333 C 0.4392 0.27795 0.71032 0.0
O334 O 0.40897 0.3207 0.69505 0.0
O335 O 0.42148 0.27819 0.71117 0.0
H336 H 0.39733 0.07022 0.24572 0.0
H337 H 0.40112 0.03513 0.16261 0.0
H338 H 0.37692 0.03614 0.27528 0.0
H339 H 0.38128 0.00131 0.19234 0.0
H340 H 0.33792 0.941 0.24695 0.0
H341 H 0.3478 0.9745 0.21778 0.0
H342 H 0.38754 0.01179 0.29882 0.0
H343 H 0.37733 0.97852 0.32819 0.0
C344 C 0.3936 0.05525 0.2336 0.0
C345 C 0.40114 0.05545 0.20196 0.0
C346 C 0.38197 0.03573 0.2506 0.0
C347 C 0.37765 0.01602 0.2363 0.0
C348 C 0.38411 0.01613 0.20401 0.0
C349 C 0.39569 0.03561 0.18702 0.0
C350 C 0.34846 0.95636 0.25876 0.0
C351 C 0.35708 0.95707 0.28973 0.0
C352 C 0.35418 0.97555 0.24198 0.0
C353 C 0.36863 -0.00419 0.25583 0.0
C354 C 0.37621 -0.00351 0.28753 0.0
C355 C 0.37049 0.97736 0.3043 0.0
H356 H 0.40396 0.3495 0.24193 0.0
H357 H 0.40755 0.39062 0.3218 0.0
H358 H 0.3813 0.36017 0.2119 0.0
H359 H 0.3853 0.40151 0.29157 0.0
H360 H 0.33286 0.40667 0.23959 0.0
H361 H 0.34914 0.38898 0.26959 0.0
H362 H 0.38742 0.39348 0.18535 0.0
H363 H 0.37089 0.41078 0.15512 0.0
C364 C 0.3998 0.36068 0.25319 0.0
C365 C 0.40771 0.36933 0.28419 0.0
C366 C 0.3869 0.36685 0.23591 0.0
C367 C 0.38158 0.38174 0.2493 0.0
C368 C 0.38888 0.38981 0.28072 0.0
C369 C 0.40179 0.38367 0.29796 0.0
C370 C 0.34454 0.40365 0.22731 0.0
C371 C 0.35073 0.41036 0.19504 0.0
C372 C 0.35394 0.39359 0.24457 0.0
C373 C 0.3697 0.39001 0.22995 0.0
C374 C 0.37518 0.39583 0.19724 0.0
C375 C 0.36579 0.40589 0.17997 0.0
H376 H 0.93199 0.34932 0.23869 0.0
H377 H 0.97868 0.3878 0.16466 0.0
H378 H 0.96161 0.3576 0.2763 0.0
H379 H 0.00811 0.39629 0.20233 0.0
H380 H 0.05848 0.39967 0.2689 0.0
H381 H 0.02704 0.38151 0.2333 0.0
H382 H 0.98793 0.39074 0.30478 0.0
H383 H 0.01918 0.40852 0.34065 0.0
C384 C 0.94855 0.35938 0.23033 0.0
C385 C 0.95298 0.36808 0.19876 0.0
C386 C 0.96549 0.36415 0.25191 0.0
C387 C 0.98717 0.37762 0.2423 0.0
C388 C -0.00842 0.38561 0.21036 0.0
C389 C 0.97469 0.3809 0.18883 0.0
C390 C 0.04308 0.39747 0.27731 0.0
C391 C 0.04143 0.40586 0.3074 0.0
C392 C 0.02511 0.38714 0.25684 0.0
C393 C 0.00512 0.38499 0.26605 0.0
C394 C 0.00308 0.39204 0.29705 0.0
C395 C 0.02105 0.40236 0.31754 0.0
H396 H 0.60502 0.95304 0.22481 0.0
H397 H 0.60059 0.98807 0.14228 0.0
H398 H 0.62616 0.98722 0.25395 0.0
H399 H 0.62119 0.02197 0.17157 0.0
H400 H 0.62695 0.04543 0.30747 0.0
H401 H 0.61586 0.01191 0.27804 0.0
H402 H 0.65511 0.04856 0.19616 0.0
H403 H 0.66588 0.08224 0.22535 0.0
C404 C 0.60884 0.96802 0.21267 0.0
C405 C 0.60084 0.96779 0.18139 0.0
C406 C 0.62085 0.98758 0.22945 0.0
C407 C 0.62513 0.00728 0.21524 0.0
C408 C 0.61835 0.00714 0.18317 0.0
C409 C 0.60636 0.98762 0.16643 0.0
C410 C 0.63346 0.04638 0.28336 0.0
C411 C 0.64704 0.06655 0.2686 0.0
C412 C 0.62724 0.02711 0.26656 0.0
C413 C 0.6345 0.02756 0.23466 0.0
C414 C 0.64899 0.04769 0.22053 0.0
C415 C 0.65519 0.06699 0.23731 0.0
H416 H 0.57975 0.6587 0.2149 0.0
H417 H 0.57933 0.62639 0.30393 0.0
H418 H 0.60271 0.6464 0.18951 0.0
H419 H 0.60197 0.61397 0.27845 0.0
H420 H 0.61381 0.59149 0.14793 0.0
H421 H 0.59696 0.61072 0.1718 0.0
H422 H 0.63837 0.62628 0.25588 0.0
H423 H 0.65509 0.6068 0.23227 0.0
C424 C 0.5847 0.64916 0.22915 0.0
C425 C 0.57758 0.6434 0.26139 0.0
C426 C 0.59777 0.64205 0.21455 0.0
C427 C 0.6041 0.62919 0.23195 0.0
C428 C 0.59759 0.62407 0.2645 0.0
C429 C 0.58445 0.63106 0.27903 0.0
C430 C 0.61955 0.59924 0.17132 0.0
C431 C 0.63564 0.59738 0.18834 0.0
C432 C 0.60997 0.61039 0.18491 0.0
C433 C 0.61622 0.61986 0.21584 0.0
C434 C 0.633 0.61887 0.2322 0.0
C435 C 0.64265 0.60779 0.21858 0.0
H436 H 0.03557 0.6289 0.16999 0.0
H437 H 0.07105 0.65822 0.25831 0.0
H438 H 0.0016 0.61789 0.19814 0.0
H439 H 0.03684 0.64731 0.28649 0.0
H440 H 0.97113 0.59017 0.32805 0.0
H441 H 0.0068 0.6112 0.30321 0.0
H442 H 0.97897 0.6302 0.22579 0.0
H443 H 0.94314 0.60891 0.25036 0.0
C444 C 0.03615 0.6333 0.1953 0.0
C445 C 0.05601 0.64421 0.212 0.0
C446 C 0.01666 0.62716 0.21138 0.0
C447 C 0.01655 0.63168 0.24456 0.0
C448 C 0.03644 0.64345 0.26096 0.0
C449 C 0.05601 0.64976 0.24478 0.0
C450 C 0.97263 0.59912 0.30604 0.0
C451 C 0.95421 0.59756 0.29092 0.0
C452 C -0.00687 0.61132 0.29193 0.0
C453 C -0.00436 0.62217 0.26237 0.0
C454 C 0.97745 0.62174 0.24834 0.0
C455 C 0.95695 0.6096 0.2625 0.0
H456 H 0.57015 0.90663 0.72465 0.0
H457 H 0.57209 0.94477 0.80767 0.0
H458 H 0.59126 0.93981 0.69334 0.0
H459 H 0.59285 0.97781 0.7762 0.0
H460 H 0.64088 0.03529 0.71843 0.0
H461 H 0.62741 0.00151 0.74868 0.0
H462 H 0.58299 0.96655 0.67057 0.0
H463 H 0.59662 0.00012 0.64013 0.0
C464 C 0.57523 0.92207 0.73634 0.0
C465 C 0.56922 0.92302 0.76859 0.0
C466 C 0.58726 0.94107 0.71834 0.0
C467 C 0.59361 0.96142 0.73222 0.0
C468 C 0.58841 0.96241 0.76488 0.0
C469 C 0.57635 0.94343 0.78286 0.0
C470 C 0.6285 0.02034 0.70746 0.0
C471 C 0.61966 0.02045 0.67699 0.0
C472 C 0.62071 0.00102 0.72489 0.0
C473 C 0.604 0.9814 0.71216 0.0
C474 C 0.596 0.98135 0.68096 0.0
C475 C 0.60373 0.00065 0.66359 0.0
H476 H 0.65015 0.58093 0.73653 0.0
H477 H 0.61026 0.58292 0.8142 0.0
H478 H 0.64022 0.60264 0.70264 0.0
H479 H 0.60001 0.6041 0.78017 0.0
H480 H 0.58852 0.64782 0.71807 0.0
H481 H 0.61024 0.63746 0.75116 0.0
H482 H 0.60639 0.59344 0.67577 0.0
H483 H 0.58521 0.60409 0.64248 0.0
C484 C 0.63952 0.58623 0.74656 0.0
C485 C 0.63072 0.57989 0.7779 0.0
C486 C 0.63378 0.59861 0.72708 0.0
C487 C 0.61915 0.6049 0.73856 0.0
C488 C 0.61148 0.59972 0.77064 0.0
C489 C 0.61722 0.58738 0.7901 0.0
C490 C 0.59269 0.63626 0.70828 0.0
C491 C 0.58481 0.6265 0.67785 0.0
C492 C 0.60506 0.63027 0.72731 0.0
C493 C 0.6098 0.61443 0.71629 0.0
C494 C 0.6032 0.60582 0.68493 0.0
C495 C 0.59087 0.61181 0.66591 0.0
H496 H 0.95018 0.57093 0.6706 0.0
H497 H 0.90839 0.56824 0.74893 0.0
H498 H 0.98183 0.59572 0.70212 0.0
H499 H 0.94026 0.59346 0.78035 0.0
H500 H 0.00278 0.60741 0.8384 0.0
H501 H 0.9691 0.59034 0.80766 0.0
H502 H 0.00222 0.63188 0.72587 0.0
H503 H 0.03609 0.64874 0.75638 0.0
C504 C 0.94771 0.57586 0.69438 0.0
C505 C 0.92674 0.56739 0.70737 0.0
C506 C 0.96589 0.59026 0.71235 0.0
C507 C 0.96356 0.59655 0.74377 0.0
C508 C 0.94257 0.58875 0.75633 0.0
C509 C 0.92433 0.57435 0.73827 0.0
C510 C 0.00283 0.61323 0.81409 0.0
C511 C 0.02223 0.62919 0.79966 0.0
C512 C 0.98346 0.6035 0.79651 0.0
C513 C 0.98306 0.60955 0.76417 0.0
C514 C 0.00212 0.6266 0.75056 0.0
C515 C 0.0215 0.63632 0.76812 0.0
H516 H 0.39972 0.01469 0.82737 0.0
H517 H 0.39401 0.04997 0.74623 0.0
H518 H 0.37731 0.9807 0.79884 0.0
H519 H 0.37129 0.01581 0.7179 0.0
H520 H 0.32606 0.92121 0.74821 0.0
H521 H 0.34099 0.95565 0.77712 0.0
H522 H 0.37917 0.98919 0.6927 0.0
H523 H 0.36409 0.95492 0.66362 0.0
C524 C 0.3934 0.01519 0.80367 0.0
C525 C 0.39888 0.03508 0.78894 0.0
C526 C 0.38042 -0.00433 0.78741 0.0
C527 C 0.37264 -0.00441 0.75604 0.0
C528 C 0.37728 0.0154 0.74189 0.0
C529 C 0.39022 0.03495 0.75821 0.0
C530 C 0.3374 0.93596 0.73564 0.0
C531 C 0.34406 0.93528 0.7037 0.0
C532 C 0.34601 0.95566 0.75227 0.0
C533 C 0.36136 0.97509 0.73727 0.0
C534 C 0.36721 0.97453 0.70484 0.0
C535 C 0.35867 0.95484 0.68824 0.0
H536 H 0.3591 0.38636 0.82054 0.0
H537 H 0.32302 0.38797 0.73728 0.0
H538 H 0.3693 0.36344 0.7909 0.0
H539 H 0.33289 0.36444 0.70771 0.0
H540 H 0.38854 0.35864 0.65616 0.0
H541 H 0.3671 0.37131 0.68455 0.0
H542 H 0.35888 0.32913 0.76524 0.0
H543 H 0.3809 0.3168 0.73712 0.0
C544 C 0.35296 0.38146 0.7961 0.0
C545 C 0.34055 0.38932 0.7811 0.0
C546 C 0.35865 0.3681 0.77917 0.0
C547 C 0.35205 0.36222 0.74682 0.0
C548 C 0.33849 0.36895 0.73246 0.0
C549 C 0.33276 0.38235 0.74946 0.0
C550 C 0.38188 0.35176 0.67972 0.0
C551 C 0.38681 0.33702 0.69463 0.0
C552 C 0.36939 0.35891 0.69591 0.0
C553 C 0.36148 0.35142 0.72734 0.0
C554 C 0.36509 0.3355 0.74128 0.0
C555 C 0.37765 0.32839 0.72511 0.0
H556 H 0.0181 0.39984 0.67617 0.0
H557 H 0.0485 0.395 0.7641 0.0
H558 H 0.98253 0.37621 0.69966 0.0
H559 H 0.01277 0.37086 0.78733 0.0
H560 H 0.94749 0.35797 0.83128 0.0
H561 H 0.98348 0.37567 0.80728 0.0
H562 H 0.95688 0.33984 0.71832 0.0
H563 H 0.92057 0.32238 0.74215 0.0
C564 C 0.01722 0.39349 0.70035 0.0
C565 C 0.03618 0.39953 0.71839 0.0
C566 C -0.00321 0.37977 0.71373 0.0
C567 C -0.0052 0.37172 0.74543 0.0
C568 C 0.01376 0.37706 0.76301 0.0
C569 C 0.03423 0.39082 0.74964 0.0
C570 C 0.94927 0.35367 0.80668 0.0
C571 C 0.93108 0.33889 0.78853 0.0
C572 C 0.96999 0.36372 0.79301 0.0
C573 C 0.97307 0.35922 0.76085 0.0
C574 C 0.955 0.34386 0.74303 0.0
C575 C 0.93421 0.33378 0.75674 0.0
H576 H 0.48439 0.20801 0.20901 0.0
H577 H 0.41774 0.1718 0.24154 0.0
H578 H 0.48592 0.24173 0.22423 0.0
H579 H 0.41944 0.20564 0.25751 0.0
H580 H 0.4868 0.29582 0.28551 0.0
H581 H 0.48577 0.26219 0.27103 0.0
H582 H 0.42159 0.23732 0.23073 0.0
H583 H 0.42241 0.27085 0.24589 0.0
C584 C 0.47015 0.20723 0.21987 0.0
C585 C 0.45092 0.18725 0.22402 0.0
C586 C 0.47106 0.22657 0.22865 0.0
C587 C 0.45276 0.22637 0.24184 0.0
C588 C 0.43369 0.20634 0.24686 0.0
C589 C 0.43278 0.18695 0.23805 0.0
C590 C 0.47255 0.28327 0.27327 0.0
C591 C 0.45468 0.28598 0.26684 0.0
C592 C 0.47197 0.264 0.26495 0.0
C593 C 0.45353 0.24703 0.24997 0.0
C594 C 0.43587 0.24995 0.2428 0.0
C595 C 0.43644 0.26924 0.25115 0.0
H596 H 0.15311 0.4173 0.27324 0.0
H597 H 0.19322 0.48314 0.30734 0.0
H598 H 0.18532 0.41768 0.25199 0.0
H599 H 0.22537 0.48334 0.28668 0.0
H600 H 0.27284 0.48339 0.21099 0.0
H601 H 0.24137 0.48319 0.23442 0.0
H602 H 0.21846 0.4186 0.27169 0.0
H603 H 0.24986 0.41863 0.24764 0.0
C604 C 0.16879 0.43184 0.27616 0.0
C605 C 0.17064 0.45022 0.29183 0.0
C606 C 0.18723 0.43199 0.26427 0.0
C607 C 0.20786 0.45051 0.2678 0.0
C608 C 0.20967 0.46891 0.28332 0.0
C609 C 0.19125 0.46876 0.2952 0.0
C610 C 0.2612 0.46921 0.22442 0.0
C611 C 0.26378 0.451 0.22742 0.0
C612 C 0.24321 0.46913 0.23794 0.0
C613 C 0.22741 0.45084 0.25475 0.0
C614 C 0.23024 0.43281 0.25844 0.0
C615 C 0.24829 0.4329 0.24493 0.0
H616 H 0.71348 0.21831 0.25411 0.0
H617 H 0.74086 0.1791 0.22316 0.0
H618 H 0.74621 0.2509 0.23577 0.0
H619 H 0.77347 0.21167 0.2047 0.0
H620 H 0.83755 0.27525 0.21928 0.0
H621 H 0.80343 0.24319 0.23436 0.0
H622 H 0.76785 0.26922 0.1855 0.0
H623 H 0.80206 0.30146 0.17045 0.0
C624 C 0.72634 0.21662 0.24297 0.0
C625 C 0.72468 0.19617 0.24028 0.0
C626 C 0.74503 0.23527 0.23242 0.0
C627 C 0.76244 0.2338 0.21922 0.0
C628 C 0.76041 0.21328 0.21532 0.0
C629 C 0.74168 0.19463 0.22565 0.0
C630 C 0.82247 0.27423 0.21195 0.0
C631 C 0.82248 0.29085 0.19365 0.0
C632 C 0.80295 0.25579 0.22033 0.0
C633 C 0.78303 0.25364 0.21076 0.0
C634 C 0.78299 0.2705 0.19323 0.0
C635 C 0.80255 0.28892 0.18462 0.0
H636 H 0.51812 0.82177 0.22225 0.0
H637 H 0.58362 0.84622 0.18788 0.0
H638 H 0.51535 0.78712 0.23509 0.0
H639 H 0.58052 0.81125 0.19851 0.0
H640 H 0.57535 0.7518 0.24731 0.0
H641 H 0.57918 0.78704 0.23652 0.0
H642 H 0.51108 0.75583 0.21114 0.0
H643 H 0.50711 0.72067 0.22418 0.0
C644 C 0.53194 0.8197 0.21753 0.0
C645 C 0.55111 0.83667 0.20426 0.0
C646 C 0.53028 0.79974 0.22443 0.0
C647 C 0.54759 0.79613 0.21745 0.0
C648 C 0.56693 0.81338 0.20473 0.0
C649 C 0.56874 0.83349 0.19855 0.0
C650 C 0.56127 0.75249 0.23906 0.0
C651 C 0.54093 0.73353 0.23658 0.0
C652 C 0.56345 0.77274 0.23278 0.0
C653 C 0.54541 0.77446 0.22316 0.0
C654 C 0.52523 0.75529 0.21936 0.0
C655 C 0.52297 0.73508 0.22639 0.0
H656 H 0.71386 0.53171 0.24381 0.0
H657 H 0.75022 0.59878 0.21395 0.0
H658 H 0.74749 0.5327 0.25794 0.0
H659 H 0.78406 0.59958 0.22667 0.0
H660 H 0.84025 0.59673 0.27756 0.0
H661 H 0.80743 0.59844 0.26691 0.0
H662 H 0.7763 0.53301 0.22907 0.0
H663 H 0.80869 0.53106 0.24105 0.0
C664 C 0.72907 0.54673 0.24053 0.0
C665 C 0.72945 0.56513 0.22766 0.0
C666 C 0.74839 0.54725 0.24824 0.0
C667 C 0.76855 0.56607 0.2427 0.0
C668 C 0.76885 0.58483 0.23134 0.0
C669 C 0.74946 0.58439 0.22406 0.0
C670 C 0.82645 0.58284 0.26659 0.0
C671 C 0.82694 0.56371 0.2603 0.0
C672 C 0.80763 0.5838 0.2605 0.0
C673 C 0.78905 0.56572 0.24768 0.0
C674 C 0.79004 0.54701 0.2399 0.0
C675 C 0.8087 0.54596 0.24639 0.0
H676 H 0.20951 0.71478 0.21043 0.0
H677 H 0.17067 0.74049 0.24962 0.0
H678 H 0.24244 0.7487 0.22329 0.0
H679 H 0.20366 0.77427 0.26311 0.0
H680 H 0.29619 0.80485 0.28259 0.0
H681 H 0.26399 0.77056 0.26878 0.0
H682 H 0.23262 0.80524 0.2343 0.0
H683 H 0.2647 0.83957 0.24878 0.0
C684 C 0.20801 0.72756 0.22223 0.0
C685 C 0.18749 0.72498 0.22896 0.0
C686 C 0.22689 0.74699 0.22962 0.0
C687 C 0.22565 0.76425 0.24392 0.0
C688 C 0.20513 0.76142 0.25151 0.0
C689 C 0.18625 0.74199 0.2441 0.0
C690 C 0.28252 0.80518 0.27172 0.0
C691 C 0.28295 0.82491 0.26688 0.0
C692 C 0.26407 0.78552 0.26376 0.0
C693 C 0.24567 0.78517 0.25078 0.0
C694 C 0.24639 0.80496 0.24488 0.0
C695 C 0.26485 0.82463 0.25285 0.0
H696 H 0.49546 0.68839 0.68182 0.0
H697 H 0.56255 0.72012 0.71227 0.0
H698 H 0.49307 0.71974 0.69965 0.0
H699 H 0.56003 0.75134 0.73063 0.0
H700 H 0.55501 0.81248 0.72548 0.0
H701 H 0.55632 0.78077 0.70624 0.0
H702 H 0.49346 0.73883 0.74925 0.0
H703 H 0.49196 0.77049 0.76799 0.0
C704 C 0.50963 0.70196 0.69264 0.0
C705 C 0.52921 0.70181 0.69561 0.0
C706 C 0.50824 0.71989 0.70291 0.0
C707 C 0.5264 0.73805 0.71632 0.0
C708 C 0.54586 0.73772 0.71987 0.0
C709 C 0.54725 0.71977 0.70964 0.0
C710 C 0.54137 0.79649 0.73051 0.0
C711 C 0.5234 0.79397 0.74829 0.0
C712 C 0.54222 0.77834 0.71976 0.0
C713 C 0.52509 0.75731 0.72652 0.0
C714 C 0.50684 0.75482 0.74348 0.0
C715 C 0.50601 0.77296 0.75427 0.0
H716 H 0.72125 0.55397 0.74289 0.0
H717 H 0.69087 0.48874 0.78113 0.0
H718 H 0.75251 0.55109 0.72585 0.0
H719 H 0.72229 0.486 0.76447 0.0
H720 H 0.81464 0.54827 0.7379 0.0
H721 H 0.78225 0.54943 0.75373 0.0
H722 H 0.74191 0.48469 0.71584 0.0
H723 H 0.77434 0.48339 0.70035 0.0
C724 C 0.72117 0.53896 0.74742 0.0
C725 C 0.70364 0.52161 0.76344 0.0
C726 C 0.73915 0.53738 0.73792 0.0
C727 C 0.73994 0.51841 0.74417 0.0
C728 C 0.72209 0.50079 0.7592 0.0
C729 C 0.70413 0.50238 0.76879 0.0
C730 C 0.79887 0.53421 0.73319 0.0
C731 C 0.79703 0.51575 0.71783 0.0
C732 C 0.78033 0.53495 0.74199 0.0
C733 C 0.75956 0.51724 0.73569 0.0
C734 C 0.75771 0.49855 0.72112 0.0
C735 C 0.77627 0.49782 0.71223 0.0
H736 H 0.23228 0.82402 0.71542 0.0
H737 H 0.26516 0.78899 0.74011 0.0
H738 H 0.19758 0.79241 0.72916 0.0
H739 H 0.23068 0.75774 0.75595 0.0
H740 H 0.16553 0.69755 0.75113 0.0
H741 H 0.19908 0.72953 0.73413 0.0
H742 H 0.17481 0.7705 0.76993 0.0
H743 H 0.14081 0.73841 0.78486 0.0
C744 C 0.2321 0.80968 0.72456 0.0
C745 C 0.25136 0.8089 0.72668 0.0
C746 C 0.21219 0.79153 0.73251 0.0
C747 C 0.21117 0.77232 0.74341 0.0
C748 C 0.23067 0.77196 0.74675 0.0
C749 C 0.2505 0.78996 0.7381 0.0
C750 C 0.1673 0.71342 0.75478 0.0
C751 C 0.15061 0.71554 0.76921 0.0
C752 C 0.18664 0.7318 0.74547 0.0
C753 C 0.18993 0.75273 0.75113 0.0
C754 C 0.17287 0.75473 0.76477 0.0
C755 C 0.15334 0.73632 0.77341 0.0
H756 H 0.47448 0.27269 0.70806 0.0
H757 H 0.40793 0.24162 0.74118 0.0
H758 H 0.47644 0.24079 0.7233 0.0
H759 H 0.41009 0.2098 0.75734 0.0
H760 H 0.41344 0.14783 0.74635 0.0
H761 H 0.41217 0.18028 0.7313 0.0
H762 H 0.47696 0.2204 0.76929 0.0
H763 H 0.47845 0.18805 0.78347 0.0
C764 C 0.46036 0.25917 0.7191 0.0
C765 C 0.44102 0.25964 0.72335 0.0
C766 C 0.46151 0.24088 0.72791 0.0
C767 C 0.44337 0.22268 0.7413 0.0
C768 C 0.42422 0.22341 0.7465 0.0
C769 C 0.42305 0.24172 0.73758 0.0
C770 C 0.42749 0.16359 0.75112 0.0
C771 C 0.44605 0.16538 0.76602 0.0
C772 C 0.42668 0.18217 0.74284 0.0
C773 C 0.44439 0.20292 0.74939 0.0
C774 C 0.46312 0.20467 0.76365 0.0
C775 C 0.46396 0.18611 0.7718 0.0
H776 H 0.18919 0.48448 0.73623 0.0
H777 H 0.15168 0.41811 0.7692 0.0
H778 H 0.22254 0.4838 0.74541 0.0
H779 H 0.1852 0.41761 0.77929 0.0
H780 H 0.24614 0.4151 0.75292 0.0
H781 H 0.21315 0.41708 0.74611 0.0
H782 H 0.24594 0.48205 0.78562 0.0
H783 H 0.27901 0.4803 0.79156 0.0
C784 C 0.18808 0.46989 0.74616 0.0
C785 C 0.16779 0.4513 0.75182 0.0
C786 C 0.20723 0.4695 0.75144 0.0
C787 C 0.20653 0.45055 0.76264 0.0
C788 C 0.18626 0.43231 0.76994 0.0
C789 C 0.16707 0.43268 0.76457 0.0
C790 C 0.24637 0.4299 0.75972 0.0
C791 C 0.26518 0.44755 0.7727 0.0
C792 C 0.22739 0.43094 0.75622 0.0
C793 C 0.22683 0.44962 0.76572 0.0
C794 C 0.24584 0.46747 0.77788 0.0
C795 C 0.26482 0.46646 0.78127 0.0
H796 H 0.7779 0.25469 0.77336 0.0
H797 H 0.81908 0.23235 0.73213 0.0
H798 H 0.74599 0.22226 0.75373 0.0
H799 H 0.78693 0.19992 0.71163 0.0
H800 H 0.69484 0.17266 0.68643 0.0
H801 H 0.72741 0.20525 0.70421 0.0
H802 H 0.75585 0.16661 0.73277 0.0
H803 H 0.72331 0.1339 0.71411 0.0
C804 C 0.78016 0.24297 0.7597 0.0
C805 C 0.80102 0.24608 0.75429 0.0
C806 C 0.76184 0.22439 0.74834 0.0
C807 C 0.76391 0.20848 0.73117 0.0
C808 C 0.7848 0.21176 0.72518 0.0
C809 C 0.80321 0.23041 0.73663 0.0
C810 C 0.70797 0.17107 0.69667 0.0
C811 C 0.70647 0.15069 0.69899 0.0
C812 C 0.72664 0.18976 0.70692 0.0
C813 C 0.74423 0.18853 0.71988 0.0
C814 C 0.74269 0.16812 0.72246 0.0
C815 C 0.72398 0.14937 0.7121 0.0
H816 H 0.39941 0.10635 0.07734 0.0
H817 H 0.4619 0.16484 0.0712 0.0
H818 H 0.39768 0.10405 0.01797 0.0
H819 H 0.45984 0.16319 0.01217 0.0
H820 H 0.46788 0.12976 0.92331 0.0
H821 H 0.46443 0.13756 0.97945 0.0
H822 H 0.39729 0.11885 0.96331 0.0
H823 H 0.40068 0.11056 0.90648 0.0
C824 C 0.41233 0.11914 0.06322 0.0
C825 C 0.43096 0.13555 0.07852 0.0
C826 C 0.41135 0.11787 0.0293 0.0
C827 C 0.4289 0.13316 0.01052 0.0
C828 C 0.44637 0.15085 0.02606 0.0
C829 C 0.44751 0.15188 0.05977 0.0
C830 C 0.45238 0.12738 0.93156 0.0
C831 C 0.43454 0.11951 0.91052 0.0
C832 C 0.45045 0.13208 0.96372 0.0
C833 C 0.43066 0.12914 0.97568 0.0
C834 C 0.41274 0.12129 0.95469 0.0
C835 C 0.41469 0.11657 0.92226 0.0
H836 H 0.27662 0.39471 0.90486 0.0
H837 H 0.32165 0.46307 0.91936 0.0
H838 H 0.26617 0.39125 0.96236 0.0
H839 H 0.31147 0.45961 0.97601 0.0
H840 H 0.28442 0.4565 0.06926 0.0
H841 H 0.28047 0.45249 0.01052 0.0
H842 H 0.28515 0.39442 0.01593 0.0
H843 H 0.2882 0.39803 0.07516 0.0
C844 C 0.28416 0.40896 0.92024 0.0
C845 C 0.3 0.42915 0.90774 0.0
C846 C 0.27818 0.40697 0.95302 0.0
C847 C 0.28777 0.4252 0.97348 0.0
C848 C 0.30338 0.44535 0.96069 0.0
C849 C 0.30942 0.4473 0.92826 0.0
C850 C 0.2838 0.44247 0.05793 0.0
C851 C 0.28693 0.42775 0.07635 0.0
C852 C 0.28163 0.44021 0.02439 0.0
C853 C 0.28313 0.4235 0.00869 0.0
C854 C 0.28397 0.40746 0.02745 0.0
C855 C 0.28575 0.40953 0.06126 0.0
H856 H 0.88948 0.2838 0.89522 0.0
H857 H 0.8269 0.27628 0.91844 0.0
H858 H 0.89959 0.29032 0.9528 0.0
H859 H 0.83687 0.28223 0.97585 0.0
H860 H 0.87545 0.28488 0.07997 0.0
H861 H 0.86762 0.2674 0.02627 0.0
H862 H 0.88679 0.32897 0.98098 0.0
H863 H 0.89418 0.34639 0.03421 0.0
C864 C 0.87754 0.28246 0.91281 0.0
C865 C 0.85748 0.27971 0.90262 0.0
C866 C 0.88334 0.28619 0.94559 0.0
C867 C 0.8689 0.28664 0.96831 0.0
C868 C 0.84807 0.28168 0.95855 0.0
C869 C 0.84243 0.27835 0.92585 0.0
C870 C 0.8784 0.29471 0.05845 0.0
C871 C 0.88521 0.31692 0.06109 0.0
C872 C 0.87397 0.28473 0.02795 0.0
C873 C 0.87678 0.29701 -4e-05 0.0
C874 C 0.88471 0.31935 0.00248 0.0
C875 C 0.8888 0.32923 0.03283 0.0
H876 H 0.52368 0.87075 0.0513 0.0
H877 H 0.58984 0.88429 0.05992 0.0
H878 H 0.52224 0.8585 -0.00391 0.0
H879 H 0.58824 0.87158 0.00398 0.0
H880 H 0.57866 0.87624 0.88911 0.0
H881 H 0.58507 0.8833 0.94743 0.0
H882 H 0.5217 0.8282 0.96741 0.0
H883 H 0.51506 0.82171 0.90939 0.0
C884 C 0.53792 0.871 0.04143 0.0
C885 C 0.55687 0.87847 0.05994 0.0
C886 C 0.53701 0.86375 0.00985 0.0
C887 C 0.55501 0.86372 -0.00408 0.0
C888 C 0.57412 0.87138 0.01422 0.0
C889 C 0.57502 0.87863 0.04612 0.0
C890 C 0.56642 0.86532 0.9061 0.0
C891 C 0.54621 0.84871 0.89499 0.0
C892 C 0.57009 0.86932 0.93942 0.0
C893 C 0.55365 0.8566 0.96183 0.0
C894 C 0.53441 0.8386 0.9506 0.0
C895 C 0.53065 0.83482 0.91747 0.0
H896 H 0.69555 0.59543 0.06743 0.0
H897 H 0.68907 0.53214 0.07755 0.0
H898 H 0.6954 0.59194 0.00825 0.0
H899 H 0.68971 0.52896 0.01876 0.0
H900 H 0.65026 0.51514 0.92554 0.0
H901 H 0.66048 0.52268 0.98211 0.0
H902 H 0.71149 0.58731 0.95704 0.0
H903 H 0.70091 0.5798 0.89975 0.0
C904 C 0.69484 0.58113 0.05697 0.0
C905 C 0.69188 0.56385 0.07681 0.0
C906 C 0.6948 0.57915 0.02315 0.0
C907 C 0.69204 0.55995 0.00895 0.0
C908 C 0.69129 0.54368 0.02905 0.0
C909 C 0.691 0.54553 0.06265 0.0
C910 C 0.66374 0.53094 0.93194 0.0
C911 C 0.67474 0.5469 0.90823 0.0
C912 C 0.66976 0.5352 0.96439 0.0
C913 C 0.68697 0.55552 0.97398 0.0
C914 C 0.69815 0.57152 0.95029 0.0
C915 C 0.69213 0.5672 0.91759 0.0
H916 H 0.08677 0.68908 0.93081 0.0
H917 H 0.14398 0.68451 0.91229 0.0
H918 H 0.09627 0.69536 0.98852 0.0
H919 H 0.15419 0.69195 0.96921 0.0
H920 H 0.12253 0.71124 0.09173 0.0
H921 H 0.1201 0.71626 0.03333 0.0
H922 H 0.13835 0.66791 0.01368 0.0
H923 H 0.14135 0.66345 0.07123 0.0
C924 C 0.10174 0.69017 0.93899 0.0
C925 C 0.11447 0.68592 0.91757 0.0
C926 C 0.10725 0.69384 0.97192 0.0
C927 C 0.12573 0.69364 0.98354 0.0
C928 C 0.13951 0.69154 0.96121 0.0
C929 C 0.13375 0.6874 0.92864 0.0
C930 C 0.1263 0.70196 0.07477 0.0
C931 C 0.13203 0.68688 0.08597 0.0
C932 C 0.12483 0.70477 0.04142 0.0
C933 C 0.12914 0.69259 0.01884 0.0
C934 C 0.13538 0.67794 0.03028 0.0
C935 C 0.1369 0.6752 0.06338 0.0
H936 H 0.85679 0.56422 0.58055 0.0
H937 H 0.85197 0.50255 0.5592 0.0
H938 H 0.85778 0.57151 0.52226 0.0
H939 H 0.8536 0.51003 0.50162 0.0
H940 H 0.83886 0.51814 0.40085 0.0
H941 H 0.83256 0.51283 0.45899 0.0
H942 H 0.88189 0.57964 0.47567 0.0
H943 H 0.88753 0.58515 0.41703 0.0
C944 C 0.85594 0.55224 0.56341 0.0
C945 C 0.85427 0.53279 0.57436 0.0
C946 C 0.85659 0.55646 0.53013 0.0
C947 C 0.8556 0.54129 0.50733 0.0
C948 C 0.85389 0.52186 0.51847 0.0
C949 C 0.85313 0.51762 0.55154 0.0
C950 C 0.84815 0.53176 0.41693 0.0
C951 C 0.8639 0.55195 0.40459 0.0
C952 C 0.84463 0.52871 0.45023 0.0
C953 C 0.85705 0.54568 0.47198 0.0
C954 C 0.872 0.56626 0.45953 0.0
C955 C 0.87532 0.5694 0.42602 0.0
H956 H 0.28732 0.88325 0.57792 0.0
H957 H 0.29481 0.82684 0.5723 0.0
H958 H 0.28886 0.88592 0.51859 0.0
H959 H 0.29556 0.82899 0.51328 0.0
H960 H 0.33744 0.86467 0.42547 0.0
H961 H 0.32584 0.85635 0.48145 0.0
H962 H 0.27421 0.87016 0.46356 0.0
H963 H 0.28613 0.87889 0.40689 0.0
C964 C 0.28853 0.87101 0.56393 0.0
C965 C 0.2914 0.8551 0.57946 0.0
C966 C 0.28936 0.8725 0.53003 0.0
C967 C 0.29285 0.85795 0.51144 0.0
C968 C 0.29344 0.84075 0.52707 0.0
C969 C 0.29292 0.83946 0.56078 0.0
C970 C 0.32355 0.86587 0.43331 0.0
C971 C 0.31272 0.87247 0.41182 0.0
C972 C 0.31675 0.86088 0.46536 0.0
C973 C 0.29891 0.8623 0.47676 0.0
C974 C 0.28799 0.86891 0.45535 0.0
C975 C 0.2948 0.87387 0.42301 0.0
H976 H 0.39325 0.2893 0.57198 0.0
H977 H 0.45585 0.29353 0.57172 0.0
H978 H 0.39414 0.29133 0.51259 0.0
H979 H 0.45639 0.29455 0.5126 0.0
H980 H 0.46868 0.33935 0.42647 0.0
H981 H 0.46246 0.32604 0.48166 0.0
H982 H 0.39645 0.27789 0.45741 0.0
H983 H 0.40265 0.29162 0.40147 0.0
C984 C 0.40673 0.28974 0.55909 0.0
C985 C 0.42466 0.29165 0.57611 0.0
C986 C 0.40725 0.29087 0.52516 0.0
C987 C 0.4256 0.29366 0.50809 0.0
C988 C 0.44231 0.29301 0.52521 0.0
C989 C 0.44197 0.2923 0.55895 0.0
C990 C 0.45284 0.32586 0.43273 0.0
C991 C 0.43614 0.31655 0.40967 0.0
C992 C 0.44934 0.31805 0.46433 0.0
C993 C 0.42906 0.30066 0.47373 0.0
C994 C 0.41225 0.29128 0.45075 0.0
C995 C 0.4158 0.29912 0.41884 0.0
H996 H 0.09369 0.40091 0.60343 0.0
H997 H 0.15399 0.46195 0.60521 0.0
H998 H 0.09666 0.39923 0.54439 0.0
H999 H 0.15763 0.45984 0.54669 0.0
H1000 H 0.11062 0.40257 0.4353 0.0
H1001 H 0.11513 0.3984 0.49347 0.0
H1002 H 0.1358 0.46611 0.50835 0.0
H1003 H 0.13173 0.4703 0.45109 0.0
C1004 C 0.10799 0.41348 0.59127 0.0
C1005 C 0.12341 0.43178 0.6084 0.0
C1006 C 0.10975 0.4125 0.55756 0.0
C1007 C 0.12711 0.4297 0.54091 0.0
C1008 C 0.14377 0.44667 0.55882 0.0
C1009 C 0.14176 0.44786 0.59223 0.0
C1010 C 0.11633 0.41654 0.45111 0.0
C1011 C 0.12074 0.43673 0.43875 0.0
C1012 C 0.11889 0.41415 0.48429 0.0
C1013 C 0.12608 0.43198 0.50537 0.0
C1014 C 0.13077 0.45217 0.49269 0.0
C1015 C 0.12817 0.45452 0.45983 0.0
H1016 H 0.68833 0.16811 0.40508 0.0
H1017 H 0.70097 0.11614 0.38363 0.0
H1018 H 0.68657 0.15999 0.46279 0.0
H1019 H 0.69845 0.10744 0.44157 0.0
H1020 H 0.64397 0.11433 0.54218 0.0
H1021 H 0.65623 0.12777 0.48785 0.0
H1022 H 0.711 0.118 0.49974 0.0
H1023 H 0.69845 0.10412 0.55485 0.0
C1024 C 0.69122 0.15527 0.41288 0.0
C1025 C 0.69442 0.14252 0.39008 0.0
C1026 C 0.69011 0.15053 0.44582 0.0
C1027 C 0.69176 0.1327 0.45648 0.0
C1028 C 0.69707 0.12124 0.43397 0.0
C1029 C 0.69849 0.12621 0.40088 0.0
C1030 C 0.65864 0.11502 0.53337 0.0
C1031 C 0.6703 0.10826 0.55284 0.0
C1032 C 0.6658 0.12294 0.5023 0.0
C1033 C 0.68485 0.12439 0.48984 0.0
C1034 C 0.69634 0.11718 0.5089 0.0
C1035 C 0.68915 0.10922 0.5403 0.0
H1036 H 0.5793 0.69837 0.3828 0.0
H1037 H 0.51338 0.6854 0.39117 0.0
H1038 H 0.58104 0.69559 0.44184 0.0
H1039 H 0.5153 0.68328 0.44994 0.0
H1040 H 0.51322 0.64243 0.53613 0.0
H1041 H 0.51535 0.65377 0.48019 0.0
H1042 H 0.57913 0.70888 0.49772 0.0
H1043 H 0.57712 0.69727 0.5543 0.0
C1044 C 0.56547 0.69563 0.39735 0.0
C1045 C 0.54605 0.69167 0.38256 0.0
C1046 C 0.56647 0.69407 0.4311 0.0
C1047 C 0.54812 0.68871 0.45033 0.0
C1048 C 0.52949 0.68686 0.4356 0.0
C1049 C 0.52842 0.68818 0.40203 0.0
C1050 C 0.52772 0.65699 0.5282 0.0
C1051 C 0.54499 0.66898 0.54962 0.0
C1052 C 0.52885 0.66361 0.49617 0.0
C1053 C 0.54726 0.68242 0.48474 0.0
C1054 C 0.56473 0.69434 0.50597 0.0
C1055 C 0.56357 0.68771 0.53826 0.0
H1056 H 0.52161 0.11352 0.1563 0.0
H1057 H 0.50584 0.13969 0.24002 0.0
H1058 H 0.55378 0.11804 0.18389 0.0
H1059 H 0.53832 0.14442 0.26752 0.0
H1060 H 0.58017 0.11944 0.31763 0.0
H1061 H 0.55014 0.11988 0.2903 0.0
H1062 H 0.58963 0.14627 0.20433 0.0
H1063 H 0.61975 0.14562 0.23155 0.0
C1064 C 0.52506 0.12038 0.18052 0.0
C1065 C 0.51106 0.12613 0.19603 0.0
C1066 C 0.54363 0.12313 0.19622 0.0
C1067 C 0.54859 0.13161 0.22784 0.0
C1068 C 0.53479 0.13767 0.24322 0.0
C1069 C 0.51624 0.13503 0.22743 0.0
C1070 C 0.58255 0.12549 0.29297 0.0
C1071 C 0.60233 0.13234 0.27669 0.0
C1072 C 0.56537 0.12589 0.27741 0.0
C1073 C 0.56751 0.13305 0.24515 0.0
C1074 C 0.58745 0.14044 0.2291 0.0
C1075 C 0.60472 0.14016 0.24475 0.0
H1076 H 0.47539 0.62464 0.2128 0.0
H1077 H 0.45509 0.58589 0.30027 0.0
H1078 H 0.44385 0.59595 0.18422 0.0
H1079 H 0.42411 0.55742 0.27183 0.0
H1080 H 0.36181 0.51486 0.22081 0.0
H1081 H 0.3897 0.54809 0.24635 0.0
H1082 H 0.43286 0.55883 0.16575 0.0
H1083 H 0.40489 0.52587 0.13986 0.0
C1084 C 0.46413 0.61015 0.22598 0.0
C1085 C 0.46785 0.60749 0.25872 0.0
C1086 C 0.44615 0.5937 0.20961 0.0
C1087 C 0.4315 0.57442 0.22578 0.0
C1088 C 0.43489 0.57217 0.25877 0.0
C1089 C 0.45282 0.58846 0.275 0.0
C1090 C 0.37715 0.52441 0.20835 0.0
C1091 C 0.38121 0.51755 0.17849 0.0
C1092 C 0.39315 0.54344 0.22302 0.0
C1093 C 0.41354 0.55599 0.20818 0.0
C1094 C 0.41725 0.54964 0.17766 0.0
C1095 C 0.40126 0.53062 0.16296 0.0
H1096 H 0.90538 0.51591 0.22467 0.0
H1097 H 0.8534 0.46719 0.2827 0.0
H1098 H 0.90532 0.48763 0.19109 0.0
H1099 H 0.85197 0.43878 0.24794 0.0
H1100 H 0.87714 0.3947 0.21463 0.0
H1101 H 0.87223 0.42215 0.24156 0.0
H1102 H 0.89003 0.45988 0.15298 0.0
H1103 H 0.89623 0.43276 0.12664 0.0
C1104 C 0.89344 0.49909 0.22941 0.0
C1105 C 0.87942 0.49355 0.25607 0.0
C1106 C 0.8933 0.48283 0.21016 0.0
C1107 C 0.87884 0.46075 0.21698 0.0
C1108 C 0.86379 0.45549 0.24247 0.0
C1109 C 0.86436 0.47172 0.26216 0.0
C1110 C 0.87984 0.40877 0.20082 0.0
C1111 C 0.88718 0.41162 0.16858 0.0
C1112 C 0.87683 0.42451 0.21619 0.0
C1113 C 0.88063 0.44335 0.19953 0.0
C1114 C 0.8873 0.44583 0.16684 0.0
C1115 C 0.89074 0.43023 0.15164 0.0
H1116 H 0.49892 0.88638 0.23337 0.0
H1117 H 0.47817 0.91155 0.15428 0.0
H1118 H 0.46854 0.88248 0.26624 0.0
H1119 H 0.44807 0.90777 0.18715 0.0
H1120 H 0.38507 0.87987 0.24407 0.0
H1121 H 0.4136 0.87924 0.212 0.0
H1122 H 0.45825 0.90784 0.29207 0.0
H1123 H 0.42979 0.90836 0.32428 0.0
C1124 C 0.48787 0.891 0.22296 0.0
C1125 C 0.49103 0.89936 0.19125 0.0
C1126 C 0.47054 0.88883 0.24181 0.0
C1127 C 0.45594 0.8948 0.22922 0.0
C1128 C 0.45889 0.90279 0.19736 0.0
C1129 C 0.47627 0.90511 0.17863 0.0
C1130 C 0.40092 0.88587 0.25494 0.0
C1131 C 0.40519 0.89431 0.28666 0.0
C1132 C 0.41726 0.88558 0.23652 0.0
C1133 C 0.43815 0.89357 0.24951 0.0
C1134 C 0.44225 0.9014 0.28153 0.0
C1135 C 0.42597 0.90183 0.29987 0.0
H1136 H 0.61165 0.51169 0.24913 0.0
H1137 H 0.59942 0.46866 0.16812 0.0
H1138 H 0.58253 0.48209 0.27961 0.0
H1139 H 0.57152 0.43852 0.1992 0.0
H1140 H 0.50486 0.39694 0.2438 0.0
H1141 H 0.5365 0.42492 0.21553 0.0
H1142 H 0.56844 0.45019 0.30781 0.0
H1143 H 0.53596 0.42308 0.33585 0.0
C1144 C 0.60307 0.49568 0.23828 0.0
C1145 C 0.60755 0.4924 0.2063 0.0
C1146 C 0.58641 0.47861 0.25576 0.0
C1147 C 0.57431 0.45777 0.24187 0.0
C1148 C 0.57987 0.45439 0.21045 0.0
C1149 C 0.59604 0.47159 0.19269 0.0
C1150 C 0.51873 0.40845 0.25793 0.0
C1151 C 0.51796 0.40798 0.29194 0.0
C1152 C 0.53703 0.42445 0.24176 0.0
C1153 C 0.55526 0.44001 0.25924 0.0
C1154 C 0.55465 0.43892 0.2934 0.0
C1155 C 0.53609 0.42327 0.30955 0.0
H1156 H 0.13506 0.62077 0.25767 0.0
H1157 H 0.11011 0.57634 0.17653 0.0
H1158 H 0.13546 0.5925 0.29067 0.0
H1159 H 0.11037 0.54819 0.20955 0.0
H1160 H 0.12883 0.50694 0.27029 0.0
H1161 H 0.13484 0.53815 0.2379 0.0
H1162 H 0.10643 0.55766 0.31404 0.0
H1163 H 0.10057 0.52666 0.34655 0.0
C1164 C 0.12988 0.60508 0.24677 0.0
C1165 C 0.12241 0.60077 0.21455 0.0
C1166 C 0.13001 0.58888 0.26572 0.0
C1167 C 0.12287 0.56813 0.25271 0.0
C1168 C 0.11617 0.56408 0.22016 0.0
C1169 C 0.11588 0.58019 0.20131 0.0
C1170 C 0.12404 0.51799 0.28025 0.0
C1171 C 0.11408 0.51422 0.31091 0.0
C1172 C 0.12742 0.53581 0.26164 0.0
C1173 C 0.12106 0.5503 0.27343 0.0
C1174 C 0.11171 0.5469 0.30447 0.0
C1175 C 0.1082 0.52903 0.32297 0.0
H1176 H 0.45124 0.86727 0.8235 0.0
H1177 H 0.46288 0.83741 0.7403 0.0
H1178 H 0.42004 0.86532 0.79627 0.0
H1179 H 0.43135 0.83518 0.71325 0.0
H1180 H 0.39784 0.8683 0.66145 0.0
H1181 H 0.42452 0.86286 0.68995 0.0
H1182 H 0.38322 0.84114 0.77478 0.0
H1183 H 0.35639 0.84687 0.74625 0.0
C1184 C 0.44699 0.86001 0.79957 0.0
C1185 C 0.45974 0.85274 0.78391 0.0
C1186 C 0.42896 0.85874 0.78408 0.0
C1187 C 0.42331 0.85021 0.75255 0.0
C1188 C 0.43549 0.84209 0.73741 0.0
C1189 C 0.45351 0.8433 0.75295 0.0
C1190 C 0.3943 0.86221 0.68611 0.0
C1191 C 0.37503 0.85819 0.70167 0.0
C1192 C 0.40955 0.8589 0.70235 0.0
C1193 C 0.40597 0.85155 0.7346 0.0
C1194 C 0.38647 0.84698 0.74999 0.0
C1195 C 0.3711 0.85019 0.73362 0.0
H1196 H 0.60234 0.47235 0.74645 0.0
H1197 H 0.55763 0.46035 0.82547 0.0
H1198 H 0.57389 0.4413 0.7172 0.0
H1199 H 0.52923 0.42944 0.79605 0.0
H1200 H 0.48921 0.36366 0.74531 0.0
H1201 H 0.51935 0.39245 0.77585 0.0
H1202 H 0.53926 0.43328 0.69067 0.0
H1203 H 0.50938 0.40464 0.66013 0.0
C1204 C 0.5865 0.46305 0.75767 0.0
C1205 C 0.58223 0.46892 0.78822 0.0
C1206 C 0.5702 0.44532 0.74085 0.0
C1207 C 0.54934 0.433 0.75432 0.0
C1208 C 0.54521 0.43852 0.78521 0.0
C1209 C 0.56146 0.45632 0.80193 0.0
C1210 C 0.5001 0.37873 0.73307 0.0
C1211 C 0.49685 0.38187 0.70032 0.0
C1212 C 0.51728 0.39523 0.75059 0.0
C1213 C 0.53165 0.41508 0.73561 0.0
C1214 C 0.52861 0.41806 0.70276 0.0
C1215 C 0.51138 0.40168 0.68534 0.0
H1216 H 0.08197 0.57002 0.8391 0.0
H1217 H 0.1093 0.6132 0.75692 0.0
H1218 H 0.0872 0.54296 0.81117 0.0
H1219 H 0.11481 0.58602 0.72908 0.0
H1220 H 0.09196 0.52003 0.67716 0.0
H1221 H 0.09154 0.55001 0.70473 0.0
H1222 H 0.11574 0.53591 0.79198 0.0
H1223 H 0.11588 0.50559 0.76456 0.0
C1224 C 0.08922 0.57382 0.81513 0.0
C1225 C 0.09511 0.59376 0.80018 0.0
C1226 C 0.09239 0.55834 0.79925 0.0
C1227 C 0.10147 0.56238 0.76798 0.0
C1228 C 0.10761 0.5824 0.75309 0.0
C1229 C 0.10451 0.59797 0.76907 0.0
C1230 C 0.09735 0.52337 0.70217 0.0
C1231 C 0.10377 0.51026 0.71875 0.0
C1232 C 0.09725 0.54068 0.71787 0.0
C1233 C 0.10352 0.54526 0.75055 0.0
C1234 C 0.11055 0.53258 0.76689 0.0
C1235 C 0.11072 0.51528 0.75114 0.0
H1236 H 0.59529 0.08657 0.72979 0.0
H1237 H 0.57296 0.10383 0.64375 0.0
H1238 H 0.56939 0.09112 0.76249 0.0
H1239 H 0.54833 0.11035 0.67645 0.0
H1240 H 0.4885 0.09476 0.73592 0.0
H1241 H 0.5162 0.09351 0.70306 0.0
H1242 H 0.55872 0.11284 0.78672 0.0
H1243 H 0.53005 0.11212 0.8199 0.0
C1244 C 0.5851 0.09182 0.71807 0.0
C1245 C 0.58591 0.09467 0.68434 0.0
C1246 C 0.57033 0.09465 0.7368 0.0
C1247 C 0.5565 0.10107 0.72231 0.0
C1248 C 0.55812 0.10479 0.68856 0.0
C1249 C 0.57239 0.10126 0.66975 0.0
C1250 C 0.50387 0.09888 0.74708 0.0
C1251 C 0.50717 0.10341 0.78037 0.0
C1252 C 0.51991 0.09833 0.72822 0.0
C1253 C 0.5399 0.10297 0.74204 0.0
C1254 C 0.54343 0.10853 0.77522 0.0
C1255 C 0.5271 0.10837 0.79426 0.0
H1256 H 0.36878 0.4926 0.73386 0.0
H1257 H 0.41377 0.5122 0.81421 0.0
H1258 H 0.39686 0.52144 0.70056 0.0
H1259 H 0.4417 0.54084 0.78091 0.0
H1260 H 0.48057 0.6022 0.72065 0.0
H1261 H 0.45032 0.57557 0.75346 0.0
H1262 H 0.43223 0.52844 0.67644 0.0
H1263 H 0.46234 0.55499 0.64352 0.0
C1264 C 0.38458 0.50313 0.74449 0.0
C1265 C 0.38907 0.50003 0.77663 0.0
C1266 C 0.40066 0.51956 0.72538 0.0
C1267 C 0.42146 0.53334 0.73815 0.0
C1268 C 0.42576 0.5306 0.77052 0.0
C1269 C 0.40978 0.51408 0.78951 0.0
C1270 C 0.47007 0.58621 0.71061 0.0
C1271 C 0.47394 0.58069 0.67952 0.0
C1272 C 0.45281 0.57095 0.72946 0.0
C1273 C 0.43896 0.54995 0.71749 0.0
C1274 C 0.44251 0.54458 0.68615 0.0
C1275 C 0.45987 0.55976 0.66741 0.0
H1276 H 0.84462 0.34837 0.74374 0.0
H1277 H 0.86052 0.38691 0.83131 0.0
H1278 H 0.84285 0.37697 0.71384 0.0
H1279 H 0.85902 0.41553 0.80128 0.0
H1280 H 0.84076 0.45767 0.74153 0.0
H1281 H 0.83532 0.42557 0.77108 0.0
H1282 H 0.87096 0.41361 0.69686 0.0
H1283 H 0.8762 0.44534 0.66724 0.0
C1284 C 0.8475 0.3628 0.75671 0.0
C1285 C 0.85294 0.36544 0.78984 0.0
C1286 C 0.84659 0.37923 0.73953 0.0
C1287 C 0.85099 0.39857 0.75516 0.0
C1288 C 0.85539 0.40075 0.78861 0.0
C1289 C 0.85639 0.38439 0.80576 0.0
C1290 C 0.84728 0.44809 0.73142 0.0
C1291 C 0.85902 0.45415 0.70212 0.0
C1292 C 0.84422 0.42976 0.74839 0.0
C1293 C 0.85268 0.41706 0.73626 0.0
C1294 C 0.86397 0.42287 0.70661 0.0
C1295 C 0.86714 0.4412 0.68978 0.0
loop_
_geom_bond_atom_site_label_1
_geom_bond_atom_site_label_2
_geom_bond_distance
_geom_bond_site_symmetry_2
_ccdc_geom_bond_type
C0 O1 1.306 . S
C0 O3 1.160 . S
O1 C0 1.306 . S
O1 Cd2 2.228 . S
Cd2 O1 2.228 . S
Cd2 O6 2.273 . S
Cd2 O10 2.277 . S
O3 C0 1.160 . S
O3 Cd4 2.203 . S
Cd4 O3 2.203 . S
Cd4 O6 2.411 . S
Cd4 O7 2.333 . S
Cd4 O8 2.352 . S
Cd4 O12 2.277 . S
Cd4 O13 2.356 . S
C5 O10 1.209 . S
C5 O12 1.226 . S
O6 Cd2 2.273 . S
O6 Cd4 2.411 . S
O6 C9 1.320 . S
O7 Cd4 2.333 . S
O7 C9 1.214 . S
O8 Cd4 2.352 . S
O8 C11 1.258 . S
C9 O6 1.320 . S
C9 O7 1.214 . S
O10 Cd2 2.277 . S
O10 C5 1.209 . S
C11 O8 1.258 . S
C11 O13 1.282 . S
O12 Cd4 2.277 . S
O12 C5 1.226 . S
O13 Cd4 2.356 . S
O13 C11 1.282 . S
C14 O15 1.306 . S
C14 O17 1.160 . S
O15 C14 1.306 . S
O15 Cd16 2.228 . S
Cd16 O15 2.228 . S
Cd16 O20 2.273 . S
Cd16 O24 2.277 . S
O17 C14 1.160 . S
O17 Cd18 2.203 . S
Cd18 O17 2.203 . S
Cd18 O20 2.411 . S
Cd18 O21 2.333 . S
Cd18 O22 2.352 . S
Cd18 O26 2.277 . S
Cd18 O27 2.356 . S
C19 O24 1.209 . S
C19 O26 1.226 . S
O20 Cd16 2.273 . S
O20 Cd18 2.411 . S
O20 C23 1.320 . S
O21 Cd18 2.333 . S
O21 C23 1.214 . S
O22 Cd18 2.352 . S
O22 C25 1.258 . S
C23 O20 1.320 . S
C23 O21 1.214 . S
O24 Cd16 2.277 . S
O24 C19 1.209 . S
C25 O22 1.258 . S
C25 O27 1.282 . S
O26 Cd18 2.277 . S
O26 C19 1.226 . S
O27 Cd18 2.356 . S
O27 C25 1.282 . S
C28 O29 1.306 . S
C28 O31 1.160 . S
O29 C28 1.306 . S
O29 Cd30 2.228 . S
Cd30 O29 2.228 . S
Cd30 O34 2.273 . S
Cd30 O38 2.277 . S
O31 C28 1.160 . S
O31 Cd32 2.203 . S
Cd32 O31 2.203 . S
Cd32 O34 2.411 . S
Cd32 O35 2.333 . S
Cd32 O36 2.352 . S
Cd32 O40 2.277 . S
Cd32 O41 2.356 . S
C33 O38 1.209 . S
C33 O40 1.226 . S
O34 Cd30 2.273 . S
O34 Cd32 2.411 . S
O34 C37 1.320 . S
O35 Cd32 2.333 . S
O35 C37 1.214 . S
O36 Cd32 2.352 . S
O36 C39 1.258 . S
C37 O34 1.320 . S
C37 O35 1.214 . S
O38 Cd30 2.277 . S
O38 C33 1.209 . S
C39 O36 1.258 . S
C39 O41 1.282 . S
O40 Cd32 2.277 . S
O40 C33 1.226 . S
O41 Cd32 2.356 . S
O41 C39 1.282 . S
C42 O43 1.306 . S
C42 O45 1.160 . S
O43 C42 1.306 . S
O43 Cd44 2.228 . S
Cd44 O43 2.228 . S
Cd44 O48 2.273 . S
Cd44 O52 2.277 . S
O45 C42 1.160 . S
O45 Cd46 2.203 . S
Cd46 O45 2.203 . S
Cd46 O48 2.411 . S
Cd46 O49 2.333 . S
Cd46 O50 2.352 . S
Cd46 O54 2.277 . S
Cd46 O55 2.356 . S
C47 O52 1.209 . S
C47 O54 1.226 . S
O48 Cd44 2.273 . S
O48 Cd46 2.411 . S
O48 C51 1.320 . S
O49 Cd46 2.333 . S
O49 C51 1.214 . S
O50 Cd46 2.352 . S
O50 C53 1.258 . S
C51 O48 1.320 . S
C51 O49 1.214 . S
O52 Cd44 2.277 . S
O52 C47 1.209 . S
C53 O50 1.258 . S
C53 O55 1.282 . S
O54 Cd46 2.277 . S
O54 C47 1.226 . S
O55 Cd46 2.356 . S
O55 C53 1.282 . S
C56 O57 1.306 . S
C56 O59 1.160 . S
O57 C56 1.306 . S
O57 Cd58 2.228 . S
Cd58 O57 2.228 . S
Cd58 O62 2.273 . S
Cd58 O66 2.277 . S
O59 C56 1.160 . S
O59 Cd60 2.203 . S
Cd60 O59 2.203 . S
Cd60 O62 2.411 . S
Cd60 O63 2.333 . S
Cd60 O64 2.352 . S
Cd60 O68 2.277 . S
Cd60 O69 2.356 . S
C61 O66 1.209 . S
C61 O68 1.226 . S
O62 Cd58 2.273 . S
O62 Cd60 2.411 . S
O62 C65 1.320 . S
O63 Cd60 2.333 . S
O63 C65 1.214 . S
O64 Cd60 2.352 . S
O64 C67 1.258 . S
C65 O62 1.320 . S
C65 O63 1.214 . S
O66 Cd58 2.277 . S
O66 C61 1.209 . S
C67 O64 1.258 . S
C67 O69 1.282 . S
O68 Cd60 2.277 . S
O68 C61 1.226 . S
O69 Cd60 2.356 . S
O69 C67 1.282 . S
C70 O71 1.306 . S
C70 O73 1.160 . S
O71 C70 1.306 . S
O71 Cd72 2.228 . S
Cd72 O71 2.228 . S
Cd72 O76 2.273 . S
Cd72 O80 2.277 . S
O73 C70 1.160 . S
O73 Cd74 2.203 . S
Cd74 O73 2.203 . S
Cd74 O76 2.411 . S
Cd74 O77 2.333 . S
Cd74 O78 2.352 . S
Cd74 O82 2.277 . S
Cd74 O83 2.356 . S
C75 O80 1.209 . S
C75 O82 1.226 . S
O76 Cd72 2.273 . S
O76 Cd74 2.411 . S
O76 C79 1.320 . S
O77 Cd74 2.333 . S
O77 C79 1.214 . S
O78 Cd74 2.352 . S
O78 C81 1.258 . S
C79 O76 1.320 . S
C79 O77 1.214 . S
O80 Cd72 2.277 . S
O80 C75 1.209 . S
C81 O78 1.258 . S
C81 O83 1.282 . S
O82 Cd74 2.277 . S
O82 C75 1.226 . S
O83 Cd74 2.356 . S
O83 C81 1.282 . S
C84 O85 1.306 . S
C84 O87 1.160 . S
O85 C84 1.306 . S
O85 Cd86 2.228 . S
Cd86 O85 2.228 . S
Cd86 O90 2.273 . S
Cd86 O94 2.277 . S
O87 C84 1.160 . S
O87 Cd88 2.203 . S
Cd88 O87 2.203 . S
Cd88 O90 2.411 . S
Cd88 O91 2.333 . S
Cd88 O92 2.352 . S
Cd88 O96 2.277 . S
Cd88 O97 2.356 . S
C89 O94 1.209 . S
C89 O96 1.226 . S
O90 Cd86 2.273 . S
O90 Cd88 2.411 . S
O90 C93 1.320 . S
O91 Cd88 2.333 . S
O91 C93 1.214 . S
O92 Cd88 2.352 . S
O92 C95 1.258 . S
C93 O90 1.320 . S
C93 O91 1.214 . S
O94 Cd86 2.277 . S
O94 C89 1.209 . S
C95 O92 1.258 . S
C95 O97 1.282 . S
O96 Cd88 2.277 . S
O96 C89 1.226 . S
O97 Cd88 2.356 . S
O97 C95 1.282 . S
C98 O99 1.306 . S
C98 O101 1.160 . S
O99 C98 1.306 . S
O99 Cd100 2.228 . S
Cd100 O99 2.228 . S
Cd100 O104 2.273 . S
Cd100 O108 2.277 . S
O101 C98 1.160 . S
O101 Cd102 2.203 . S
Cd102 O101 2.203 . S
Cd102 O104 2.411 . S
Cd102 O105 2.333 . S
Cd102 O106 2.352 . S
Cd102 O110 2.277 . S
Cd102 O111 2.356 . S
C103 O108 1.209 . S
C103 O110 1.226 . S
O104 Cd100 2.273 . S
O104 Cd102 2.411 . S
O104 C107 1.320 . S
O105 Cd102 2.333 . S
O105 C107 1.214 . S
O106 Cd102 2.352 . S
O106 C109 1.258 . S
C107 O104 1.320 . S
C107 O105 1.214 . S
O108 Cd100 2.277 . S
O108 C103 1.209 . S
C109 O106 1.258 . S
C109 O111 1.282 . S
O110 Cd102 2.277 . S
O110 C103 1.226 . S
O111 Cd102 2.356 . S
O111 C109 1.282 . S
C112 O113 1.306 . S
C112 O115 1.160 . S
O113 C112 1.306 . S
O113 Cd114 2.228 . S
Cd114 O113 2.228 . S
Cd114 O118 2.273 . S
Cd114 O122 2.277 . S
O115 C112 1.160 . S
O115 Cd116 2.203 . S
Cd116 O115 2.203 . S
Cd116 O118 2.411 . S
Cd116 O119 2.333 . S
Cd116 O120 2.352 . S
Cd116 O124 2.277 . S
Cd116 O125 2.356 . S
C117 O122 1.209 . S
C117 O124 1.226 . S
O118 Cd114 2.273 . S
O118 Cd116 2.411 . S
O118 C121 1.320 . S
O119 Cd116 2.333 . S
O119 C121 1.214 . S
O120 Cd116 2.352 . S
O120 C123 1.258 . S
C121 O118 1.320 . S
C121 O119 1.214 . S
O122 Cd114 2.277 . S
O122 C117 1.209 . S
C123 O120 1.258 . S
C123 O125 1.282 . S
O124 Cd116 2.277 . S
O124 C117 1.226 . S
O125 Cd116 2.356 . S
O125 C123 1.282 . S
C126 O127 1.306 . S
C126 O129 1.160 . S
O127 C126 1.306 . S
O127 Cd128 2.228 . S
Cd128 O127 2.228 . S
Cd128 O132 2.273 . S
Cd128 O136 2.277 . S
O129 C126 1.160 . S
O129 Cd130 2.203 . S
Cd130 O129 2.203 . S
Cd130 O132 2.411 . S
Cd130 O133 2.333 . S
Cd130 O134 2.352 . S
Cd130 O138 2.277 . S
Cd130 O139 2.356 . S
C131 O136 1.209 . S
C131 O138 1.226 . S
O132 Cd128 2.273 . S
O132 Cd130 2.411 . S
O132 C135 1.320 . S
O133 Cd130 2.333 . S
O133 C135 1.214 . S
O134 Cd130 2.352 . S
O134 C137 1.258 . S
C135 O132 1.320 . S
C135 O133 1.214 . S
O136 Cd128 2.277 . S
O136 C131 1.209 . S
C137 O134 1.258 . S
C137 O139 1.282 . S
O138 Cd130 2.277 . S
O138 C131 1.226 . S
O139 Cd130 2.356 . S
O139 C137 1.282 . S
C140 O141 1.306 . S
C140 O143 1.160 . S
O141 C140 1.306 . S
O141 Cd142 2.228 . S
Cd142 O141 2.228 . S
Cd142 O146 2.273 . S
Cd142 O150 2.277 . S
O143 C140 1.160 . S
O143 Cd144 2.203 . S
Cd144 O143 2.203 . S
Cd144 O146 2.411 . S
Cd144 O147 2.333 . S
Cd144 O148 2.352 . S
Cd144 O152 2.277 . S
Cd144 O153 2.356 . S
C145 O150 1.209 . S
C145 O152 1.226 . S
O146 Cd142 2.273 . S
O146 Cd144 2.411 . S
O146 C149 1.320 . S
O147 Cd144 2.333 . S
O147 C149 1.214 . S
O148 Cd144 2.352 . S
O148 C151 1.258 . S
C149 O146 1.320 . S
C149 O147 1.214 . S
O150 Cd142 2.277 . S
O150 C145 1.209 . S
C151 O148 1.258 . S
C151 O153 1.282 . S
O152 Cd144 2.277 . S
O152 C145 1.226 . S
O153 Cd144 2.356 . S
O153 C151 1.282 . S
C154 O155 1.306 . S
C154 O157 1.160 . S
O155 C154 1.306 . S
O155 Cd156 2.228 . S
Cd156 O155 2.228 . S
Cd156 O160 2.273 . S
Cd156 O164 2.277 . S
O157 C154 1.160 . S
O157 Cd158 2.203 . S
Cd158 O157 2.203 . S
Cd158 O160 2.411 . S
Cd158 O161 2.333 . S
Cd158 O162 2.352 . S
Cd158 O166 2.277 . S
Cd158 O167 2.356 . S
C159 O164 1.209 . S
C159 O166 1.226 . S
O160 Cd156 2.273 . S
O160 Cd158 2.411 . S
O160 C163 1.320 . S
O161 Cd158 2.333 . S
O161 C163 1.214 . S
O162 Cd158 2.352 . S
O162 C165 1.258 . S
C163 O160 1.320 . S
C163 O161 1.214 . S
O164 Cd156 2.277 . S
O164 C159 1.209 . S
C165 O162 1.258 . S
C165 O167 1.282 . S
O166 Cd158 2.277 . S
O166 C159 1.226 . S
O167 Cd158 2.356 . S
O167 C165 1.282 . S
C168 O169 1.306 . S
C168 O171 1.160 . S
O169 C168 1.306 . S
O169 Cd170 2.228 . S
Cd170 O169 2.228 . S
Cd170 O174 2.273 . S
Cd170 O178 2.277 . S
O171 C168 1.160 . S
O171 Cd172 2.203 . S
Cd172 O171 2.203 . S
Cd172 O174 2.411 . S
Cd172 O175 2.333 . S
Cd172 O176 2.352 . S
Cd172 O180 2.277 . S
Cd172 O181 2.356 . S
C173 O178 1.209 . S
C173 O180 1.226 . S
O174 Cd170 2.273 . S
O174 Cd172 2.411 . S
O174 C177 1.320 . S
O175 Cd172 2.333 . S
O175 C177 1.214 . S
O176 Cd172 2.352 . S
O176 C179 1.258 . S
C177 O174 1.320 . S
C177 O175 1.214 . S
O178 Cd170 2.277 . S
O178 C173 1.209 . S
C179 O176 1.258 . S
C179 O181 1.282 . S
O180 Cd172 2.277 . S
O180 C173 1.226 . S
O181 Cd172 2.356 . S
O181 C179 1.282 . S
C182 O183 1.306 . S
C182 O185 1.160 . S
O183 C182 1.306 . S
O183 Cd184 2.228 . S
Cd184 O183 2.228 . S
Cd184 O188 2.273 . S
Cd184 O192 2.277 . S
O185 C182 1.160 . S
O185 Cd186 2.203 . S
Cd186 O185 2.203 . S
Cd186 O188 2.411 . S
Cd186 O189 2.333 . S
Cd186 O190 2.352 . S
Cd186 O194 2.277 . S
Cd186 O195 2.356 . S
C187 O192 1.209 . S
C187 O194 1.226 . S
O188 Cd184 2.273 . S
O188 Cd186 2.411 . S
O188 C191 1.320 . S
O189 Cd186 2.333 . S
O189 C191 1.214 . S
O190 Cd186 2.352 . S
O190 C193 1.258 . S
C191 O188 1.320 . S
C191 O189 1.214 . S
O192 Cd184 2.277 . S
O192 C187 1.209 . S
C193 O190 1.258 . S
C193 O195 1.282 . S
O194 Cd186 2.277 . S
O194 C187 1.226 . S
O195 Cd186 2.356 . S
O195 C193 1.282 . S
C196 O197 1.306 . S
C196 O199 1.160 . S
O197 C196 1.306 . S
O197 Cd198 2.228 . S
Cd198 O197 2.228 . S
Cd198 O202 2.273 . S
Cd198 O206 2.277 . S
O199 C196 1.160 . S
O199 Cd200 2.203 . S
Cd200 O199 2.203 . S
Cd200 O202 2.411 . S
Cd200 O203 2.333 . S
Cd200 O204 2.352 . S
Cd200 O208 2.277 . S
Cd200 O209 2.356 . S
C201 O206 1.209 . S
C201 O208 1.226 . S
O202 Cd198 2.273 . S
O202 Cd200 2.411 . S
O202 C205 1.320 . S
O203 Cd200 2.333 . S
O203 C205 1.214 . S
O204 Cd200 2.352 . S
O204 C207 1.258 . S
C205 O202 1.320 . S
C205 O203 1.214 . S
O206 Cd198 2.277 . S
O206 C201 1.209 . S
C207 O204 1.258 . S
C207 O209 1.282 . S
O208 Cd200 2.277 . S
O208 C201 1.226 . S
O209 Cd200 2.356 . S
O209 C207 1.282 . S
C210 O211 1.306 . S
C210 O213 1.160 . S
O211 C210 1.306 . S
O211 Cd212 2.228 . S
Cd212 O211 2.228 . S
Cd212 O216 2.273 . S
Cd212 O220 2.277 . S
O213 C210 1.160 . S
O213 Cd214 2.203 . S
Cd214 O213 2.203 . S
Cd214 O216 2.411 . S
Cd214 O217 2.333 . S
Cd214 O218 2.352 . S
Cd214 O222 2.277 . S
Cd214 O223 2.356 . S
C215 O220 1.209 . S
C215 O222 1.226 . S
O216 Cd212 2.273 . S
O216 Cd214 2.411 . S
O216 C219 1.320 . S
O217 Cd214 2.333 . S
O217 C219 1.214 . S
O218 Cd214 2.352 . S
O218 C221 1.258 . S
C219 O216 1.320 . S
C219 O217 1.214 . S
O220 Cd212 2.277 . S
O220 C215 1.209 . S
C221 O218 1.258 . S
C221 O223 1.282 . S
O222 Cd214 2.277 . S
O222 C215 1.226 . S
O223 Cd214 2.356 . S
O223 C221 1.282 . S
C224 O225 1.306 . S
C224 O227 1.160 . S
O225 C224 1.306 . S
O225 Cd226 2.228 . S
Cd226 O225 2.228 . S
Cd226 O230 2.273 . S
Cd226 O234 2.277 . S
O227 C224 1.160 . S
O227 Cd228 2.203 . S
Cd228 O227 2.203 . S
Cd228 O230 2.411 . S
Cd228 O231 2.333 . S
Cd228 O232 2.352 . S
Cd228 O236 2.277 . S
Cd228 O237 2.356 . S
C229 O234 1.209 . S
C229 O236 1.226 . S
O230 Cd226 2.273 . S
O230 Cd228 2.411 . S
O230 C233 1.320 . S
O231 Cd228 2.333 . S
O231 C233 1.214 . S
O232 Cd228 2.352 . S
O232 C235 1.258 . S
C233 O230 1.320 . S
C233 O231 1.214 . S
O234 Cd226 2.277 . S
O234 C229 1.209 . S
C235 O232 1.258 . S
C235 O237 1.282 . S
O236 Cd228 2.277 . S
O236 C229 1.226 . S
O237 Cd228 2.356 . S
O237 C235 1.282 . S
C238 O239 1.306 . S
C238 O241 1.160 . S
O239 C238 1.306 . S
O239 Cd240 2.228 . S
Cd240 O239 2.228 . S
Cd240 O244 2.273 . S
Cd240 O248 2.277 . S
O241 C238 1.160 . S
O241 Cd242 2.203 . S
Cd242 O241 2.203 . S
Cd242 O244 2.411 . S
Cd242 O245 2.333 . S
Cd242 O246 2.352 . S
Cd242 O250 2.277 . S
Cd242 O251 2.356 . S
C243 O248 1.209 . S
C243 O250 1.226 . S
O244 Cd240 2.273 . S
O244 Cd242 2.411 . S
O244 C247 1.320 . S
O245 Cd242 2.333 . S
O245 C247 1.214 . S
O246 Cd242 2.352 . S
O246 C249 1.258 . S
C247 O244 1.320 . S
C247 O245 1.214 . S
O248 Cd240 2.277 . S
O248 C243 1.209 . S
C249 O246 1.258 . S
C249 O251 1.282 . S
O250 Cd242 2.277 . S
O250 C243 1.226 . S
O251 Cd242 2.356 . S
O251 C249 1.282 . S
C252 O253 1.306 . S
C252 O255 1.160 . S
O253 C252 1.306 . S
O253 Cd254 2.228 . S
Cd254 O253 2.228 . S
Cd254 O258 2.273 . S
Cd254 O262 2.277 . S
O255 C252 1.160 . S
O255 Cd256 2.203 . S
Cd256 O255 2.203 . S
Cd256 O258 2.411 . S
Cd256 O259 2.333 . S
Cd256 O260 2.352 . S
Cd256 O264 2.277 . S
Cd256 O265 2.356 . S
C257 O262 1.209 . S
C257 O264 1.226 . S
O258 Cd254 2.273 . S
O258 Cd256 2.411 . S
O258 C261 1.320 . S
O259 Cd256 2.333 . S
O259 C261 1.214 . S
O260 Cd256 2.352 . S
O260 C263 1.258 . S
C261 O258 1.320 . S
C261 O259 1.214 . S
O262 Cd254 2.277 . S
O262 C257 1.209 . S
C263 O260 1.258 . S
C263 O265 1.282 . S
O264 Cd256 2.277 . S
O264 C257 1.226 . S
O265 Cd256 2.356 . S
O265 C263 1.282 . S
C266 O267 1.306 . S
C266 O269 1.160 . S
O267 C266 1.306 . S
O267 Cd268 2.228 . S
Cd268 O267 2.228 . S
Cd268 O272 2.273 . S
Cd268 O276 2.277 . S
O269 C266 1.160 . S
O269 Cd270 2.203 . S
Cd270 O269 2.203 . S
Cd270 O272 2.411 . S
Cd270 O273 2.333 . S
Cd270 O274 2.352 . S
Cd270 O278 2.277 . S
Cd270 O279 2.356 . S
C271 O276 1.209 . S
C271 O278 1.226 . S
O272 Cd268 2.273 . S
O272 Cd270 2.411 . S
O272 C275 1.320 . S
O273 Cd270 2.333 . S
O273 C275 1.214 . S
O274 Cd270 2.352 . S
O274 C277 1.258 . S
C275 O272 1.320 . S
C275 O273 1.214 . S
O276 Cd268 2.277 . S
O276 C271 1.209 . S
C277 O274 1.258 . S
C277 O279 1.282 . S
O278 Cd270 2.277 . S
O278 C271 1.226 . S
O279 Cd270 2.356 . S
O279 C277 1.282 . S
C280 O281 1.306 . S
C280 O283 1.160 . S
O281 C280 1.306 . S
O281 Cd282 2.228 . S
Cd282 O281 2.228 . S
Cd282 O286 2.273 . S
Cd282 O290 2.277 . S
O283 C280 1.160 . S
O283 Cd284 2.203 . S
Cd284 O283 2.203 . S
Cd284 O286 2.411 . S
Cd284 O287 2.333 . S
Cd284 O288 2.352 . S
Cd284 O292 2.277 . S
Cd284 O293 2.356 . S
C285 O290 1.209 . S
C285 O292 1.226 . S
O286 Cd282 2.273 . S
O286 Cd284 2.411 . S
O286 C289 1.320 . S
O287 Cd284 2.333 . S
O287 C289 1.214 . S
O288 Cd284 2.352 . S
O288 C291 1.258 . S
C289 O286 1.320 . S
C289 O287 1.214 . S
O290 Cd282 2.277 . S
O290 C285 1.209 . S
C291 O288 1.258 . S
C291 O293 1.282 . S
O292 Cd284 2.277 . S
O292 C285 1.226 . S
O293 Cd284 2.356 . S
O293 C291 1.282 . S
C294 O295 1.306 . S
C294 O297 1.160 . S
O295 C294 1.306 . S
O295 Cd296 2.228 . S
Cd296 O295 2.228 . S
Cd296 O300 2.273 . S
Cd296 O304 2.277 . S
O297 C294 1.160 . S
O297 Cd298 2.203 . S
Cd298 O297 2.203 . S
Cd298 O300 2.411 . S
Cd298 O301 2.333 . S
Cd298 O302 2.352 . S
Cd298 O306 2.277 . S
Cd298 O307 2.356 . S
C299 O304 1.209 . S
C299 O306 1.226 . S
O300 Cd296 2.273 . S
O300 Cd298 2.411 . S
O300 C303 1.320 . S
O301 Cd298 2.333 . S
O301 C303 1.214 . S
O302 Cd298 2.352 . S
O302 C305 1.258 . S
C303 O300 1.320 . S
C303 O301 1.214 . S
O304 Cd296 2.277 . S
O304 C299 1.209 . S
C305 O302 1.258 . S
C305 O307 1.282 . S
O306 Cd298 2.277 . S
O306 C299 1.226 . S
O307 Cd298 2.356 . S
O307 C305 1.282 . S
C308 O309 1.306 . S
C308 O311 1.160 . S
O309 C308 1.306 . S
O309 Cd310 2.228 . S
Cd310 O309 2.228 . S
Cd310 O314 2.273 . S
Cd310 O318 2.277 . S
O311 C308 1.160 . S
O311 Cd312 2.203 . S
Cd312 O311 2.203 . S
Cd312 O314 2.411 . S
Cd312 O315 2.333 . S
Cd312 O316 2.352 . S
Cd312 O320 2.277 . S
Cd312 O321 2.356 . S
C313 O318 1.209 . S
C313 O320 1.226 . S
O314 Cd310 2.273 . S
O314 Cd312 2.411 . S
O314 C317 1.320 . S
O315 Cd312 2.333 . S
O315 C317 1.214 . S
O316 Cd312 2.352 . S
O316 C319 1.258 . S
C317 O314 1.320 . S
C317 O315 1.214 . S
O318 Cd310 2.277 . S
O318 C313 1.209 . S
C319 O316 1.258 . S
C319 O321 1.282 . S
O320 Cd312 2.277 . S
O320 C313 1.226 . S
O321 Cd312 2.356 . S
O321 C319 1.282 . S
C322 O323 1.306 . S
C322 O325 1.160 . S
O323 C322 1.306 . S
O323 Cd324 2.228 . S
Cd324 O323 2.228 . S
Cd324 O328 2.273 . S
Cd324 O332 2.277 . S
O325 C322 1.160 . S
O325 Cd326 2.203 . S
Cd326 O325 2.203 . S
Cd326 O328 2.411 . S
Cd326 O329 2.333 . S
Cd326 O330 2.352 . S
Cd326 O334 2.277 . S
Cd326 O335 2.356 . S
C327 O332 1.209 . S
C327 O334 1.226 . S
O328 Cd324 2.273 . S
O328 Cd326 2.411 . S
O328 C331 1.320 . S
O329 Cd326 2.333 . S
O329 C331 1.214 . S
O330 Cd326 2.352 . S
O330 C333 1.258 . S
C331 O328 1.320 . S
C331 O329 1.214 . S
O332 Cd324 2.277 . S
O332 C327 1.209 . S
C333 O330 1.258 . S
C333 O335 1.282 . S
O334 Cd326 2.277 . S
O334 C327 1.226 . S
O335 Cd326 2.356 . S
O335 C333 1.282 . S
H336 C344 0.950 . S
H337 C349 0.950 . S
H338 C346 0.950 . S
H339 C348 0.950 . S
H340 C350 0.950 . S
H341 C352 0.950 . S
H342 C354 0.950 . S
H343 C355 0.950 . S
C344 H336 0.950 . S
C344 C345 1.386 . S
C344 C346 1.391 . S
C345 C344 1.386 . S
C345 C349 1.393 . S
C346 H338 0.950 . S
C346 C344 1.391 . S
C346 C347 1.400 . S
C347 C346 1.400 . S
C347 C348 1.398 . S
C347 C353 1.491 1_545 S
C348 H339 0.950 . S
C348 C347 1.398 . S
C348 C349 1.391 . S
C349 H337 0.950 . S
C349 C345 1.393 . S
C349 C348 1.391 . S
C350 H340 0.950 . S
C350 C351 1.386 . S
C350 C352 1.391 . S
C351 C350 1.386 . S
C351 C355 1.393 . S
C352 H341 0.950 . S
C352 C350 1.391 . S
C352 C353 1.400 . S
C353 C347 1.491 1_565 S
C353 C352 1.400 . S
C353 C354 1.398 . S
C354 H342 0.950 . S
C354 C353 1.398 . S
C354 C355 1.391 . S
C355 H343 0.950 . S
C355 C351 1.393 . S
C355 C354 1.391 . S
H356 C364 0.950 . S
H357 C369 0.950 . S
H358 C366 0.950 . S
H359 C368 0.950 . S
H360 C370 0.950 . S
H361 C372 0.950 . S
H362 C374 0.950 . S
H363 C375 0.950 . S
C364 H356 0.950 . S
C364 C365 1.386 . S
C364 C366 1.391 . S
C365 C364 1.386 . S
C365 C369 1.393 . S
C366 H358 0.950 . S
C366 C364 1.391 . S
C366 C367 1.400 . S
C367 C366 1.400 . S
C367 C368 1.398 . S
C367 C373 1.491 . S
C368 H359 0.950 . S
C368 C367 1.398 . S
C368 C369 1.391 . S
C369 H357 0.950 . S
C369 C365 1.393 . S
C369 C368 1.391 . S
C370 H360 0.950 . S
C370 C371 1.386 . S
C370 C372 1.391 . S
C371 C370 1.386 . S
C371 C375 1.393 . S
C372 H361 0.950 . S
C372 C370 1.391 . S
C372 C373 1.400 . S
C373 C367 1.491 . S
C373 C372 1.400 . S
C373 C374 1.398 . S
C374 H362 0.950 . S
C374 C373 1.398 . S
C374 C375 1.391 . S
C375 H363 0.950 . S
C375 C371 1.393 . S
C375 C374 1.391 . S
H376 C384 0.950 . S
H377 C389 0.950 . S
H378 C386 0.950 . S
H379 C388 0.950 . S
H380 C390 0.950 . S
H381 C392 0.950 . S
H382 C394 0.950 . S
H383 C395 0.950 . S
C384 H376 0.950 . S
C384 C385 1.386 . S
C384 C386 1.391 . S
C385 C384 1.386 . S
C385 C389 1.393 . S
C386 H378 0.950 . S
C386 C384 1.391 . S
C386 C387 1.400 . S
C387 C386 1.400 . S
C387 C388 1.398 . S
C387 C393 1.491 1_655 S
C388 H379 0.950 . S
C388 C387 1.398 . S
C388 C389 1.391 . S
C389 H377 0.950 . S
C389 C385 1.393 . S
C389 C388 1.391 . S
C390 H380 0.950 . S
C390 C391 1.386 . S
C390 C392 1.391 . S
C391 C390 1.386 . S
C391 C395 1.393 . S
C392 H381 0.950 . S
C392 C390 1.391 . S
C392 C393 1.400 . S
C393 C387 1.491 1_455 S
C393 C392 1.400 . S
C393 C394 1.398 . S
C394 H382 0.950 . S
C394 C393 1.398 . S
C394 C395 1.391 . S
C395 H383 0.950 . S
C395 C391 1.393 . S
C395 C394 1.391 . S
H396 C404 0.950 . S
H397 C409 0.950 . S
H398 C406 0.950 . S
H399 C408 0.950 . S
H400 C410 0.950 . S
H401 C412 0.950 . S
H402 C414 0.950 . S
H403 C415 0.950 . S
C404 H396 0.950 . S
C404 C405 1.386 . S
C404 C406 1.391 . S
C405 C404 1.386 . S
C405 C409 1.393 . S
C406 H398 0.950 . S
C406 C404 1.391 . S
C406 C407 1.400 . S
C407 C406 1.400 . S
C407 C408 1.398 . S
C407 C413 1.491 1_565 S
C408 H399 0.950 . S
C408 C407 1.398 . S
C408 C409 1.391 . S
C409 H397 0.950 . S
C409 C405 1.393 . S
C409 C408 1.391 . S
C410 H400 0.950 . S
C410 C411 1.386 . S
C410 C412 1.391 . S
C411 C410 1.386 . S
C411 C415 1.393 . S
C412 H401 0.950 . S
C412 C410 1.391 . S
C412 C413 1.400 . S
C413 C407 1.491 1_545 S
C413 C412 1.400 . S
C413 C414 1.398 . S
C414 H402 0.950 . S
C414 C413 1.398 . S
C414 C415 1.391 . S
C415 H403 0.950 . S
C415 C411 1.393 . S
C415 C414 1.391 . S
H416 C424 0.950 . S
H417 C429 0.950 . S
H418 C426 0.950 . S
H419 C428 0.950 . S
H420 C430 0.950 . S
H421 C432 0.950 . S
H422 C434 0.950 . S
H423 C435 0.950 . S
C424 H416 0.950 . S
C424 C425 1.386 . S
C424 C426 1.391 . S
C425 C424 1.386 . S
C425 C429 1.393 . S
C426 H418 0.950 . S
C426 C424 1.391 . S
C426 C427 1.400 . S
C427 C426 1.400 . S
C427 C428 1.398 . S
C427 C433 1.491 . S
C428 H419 0.950 . S
C428 C427 1.398 . S
C428 C429 1.391 . S
C429 H417 0.950 . S
C429 C425 1.393 . S
C429 C428 1.391 . S
C430 H420 0.950 . S
C430 C431 1.386 . S
C430 C432 1.391 . S
C431 C430 1.386 . S
C431 C435 1.393 . S
C432 H421 0.950 . S
C432 C430 1.391 . S
C432 C433 1.400 . S
C433 C427 1.491 . S
C433 C432 1.400 . S
C433 C434 1.398 . S
C434 H422 0.950 . S
C434 C433 1.398 . S
C434 C435 1.391 . S
C435 H423 0.950 . S
C435 C431 1.393 . S
C435 C434 1.391 . S
H436 C444 0.950 . S
H437 C449 0.950 . S
H438 C446 0.950 . S
H439 C448 0.950 . S
H440 C450 0.950 . S
H441 C452 0.950 . S
H442 C454 0.950 . S
H443 C455 0.950 . S
C444 H436 0.950 . S
C444 C445 1.386 . S
C444 C446 1.391 . S
C445 C444 1.386 . S
C445 C449 1.393 . S
C446 H438 0.950 . S
C446 C444 1.391 . S
C446 C447 1.400 . S
C447 C446 1.400 . S
C447 C448 1.398 . S
C447 C453 1.491 1_455 S
C448 H439 0.950 . S
C448 C447 1.398 . S
C448 C449 1.391 . S
C449 H437 0.950 . S
C449 C445 1.393 . S
C449 C448 1.391 . S
C450 H440 0.950 . S
C450 C451 1.386 . S
C450 C452 1.391 . S
C451 C450 1.386 . S
C451 C455 1.393 . S
C452 H441 0.950 . S
C452 C450 1.391 . S
C452 C453 1.400 . S
C453 C447 1.491 1_655 S
C453 C452 1.400 . S
C453 C454 1.398 . S
C454 H442 0.950 . S
C454 C453 1.398 . S
C454 C455 1.391 . S
C455 H443 0.950 . S
C455 C451 1.393 . S
C455 C454 1.391 . S
H456 C464 0.950 . S
H457 C469 0.950 . S
H458 C466 0.950 . S
H459 C468 0.950 . S
H460 C470 0.950 . S
H461 C472 0.950 . S
H462 C474 0.950 . S
H463 C475 0.950 . S
C464 H456 0.950 . S
C464 C465 1.386 . S
C464 C466 1.391 . S
C465 C464 1.386 . S
C465 C469 1.393 . S
C466 H458 0.950 . S
C466 C464 1.391 . S
C466 C467 1.400 . S
C467 C466 1.400 . S
C467 C468 1.398 . S
C467 C473 1.491 1_565 S
C468 H459 0.950 . S
C468 C467 1.398 . S
C468 C469 1.391 . S
C469 H457 0.950 . S
C469 C465 1.393 . S
C469 C468 1.391 . S
C470 H460 0.950 . S
C470 C471 1.386 . S
C470 C472 1.391 . S
C471 C470 1.386 . S
C471 C475 1.393 . S
C472 H461 0.950 . S
C472 C470 1.391 . S
C472 C473 1.400 . S
C473 C467 1.491 1_545 S
C473 C472 1.400 . S
C473 C474 1.398 . S
C474 H462 0.950 . S
C474 C473 1.398 . S
C474 C475 1.391 . S
C475 H463 0.950 . S
C475 C471 1.393 . S
C475 C474 1.391 . S
H476 C484 0.950 . S
H477 C489 0.950 . S
H478 C486 0.950 . S
H479 C488 0.950 . S
H480 C490 0.950 . S
H481 C492 0.950 . S
H482 C494 0.950 . S
H483 C495 0.950 . S
C484 H476 0.950 . S
C484 C485 1.386 . S
C484 C486 1.391 . S
C485 C484 1.386 . S
C485 C489 1.393 . S
C486 H478 0.950 . S
C486 C484 1.391 . S
C486 C487 1.400 . S
C487 C486 1.400 . S
C487 C488 1.398 . S
C487 C493 1.491 . S
C488 H479 0.950 . S
C488 C487 1.398 . S
C488 C489 1.391 . S
C489 H477 0.950 . S
C489 C485 1.393 . S
C489 C488 1.391 . S
C490 H480 0.950 . S
C490 C491 1.386 . S
C490 C492 1.391 . S
C491 C490 1.386 . S
C491 C495 1.393 . S
C492 H481 0.950 . S
C492 C490 1.391 . S
C492 C493 1.400 . S
C493 C487 1.491 . S
C493 C492 1.400 . S
C493 C494 1.398 . S
C494 H482 0.950 . S
C494 C493 1.398 . S
C494 C495 1.391 . S
C495 H483 0.950 . S
C495 C491 1.393 . S
C495 C494 1.391 . S
H496 C504 0.950 . S
H497 C509 0.950 . S
H498 C506 0.950 . S
H499 C508 0.950 . S
H500 C510 0.950 . S
H501 C512 0.950 . S
H502 C514 0.950 . S
H503 C515 0.950 . S
C504 H496 0.950 . S
C504 C505 1.386 . S
C504 C506 1.391 . S
C505 C504 1.386 . S
C505 C509 1.393 . S
C506 H498 0.950 . S
C506 C504 1.391 . S
C506 C507 1.400 . S
C507 C506 1.400 . S
C507 C508 1.398 . S
C507 C513 1.491 1_655 S
C508 H499 0.950 . S
C508 C507 1.398 . S
C508 C509 1.391 . S
C509 H497 0.950 . S
C509 C505 1.393 . S
C509 C508 1.391 . S
C510 H500 0.950 . S
C510 C511 1.386 . S
C510 C512 1.391 . S
C511 C510 1.386 . S
C511 C515 1.393 . S
C512 H501 0.950 . S
C512 C510 1.391 . S
C512 C513 1.400 . S
C513 C507 1.491 1_455 S
C513 C512 1.400 . S
C513 C514 1.398 . S
C514 H502 0.950 . S
C514 C513 1.398 . S
C514 C515 1.391 . S
C515 H503 0.950 . S
C515 C511 1.393 . S
C515 C514 1.391 . S
H516 C524 0.950 . S
H517 C529 0.950 . S
H518 C526 0.950 . S
H519 C528 0.950 . S
H520 C530 0.950 . S
H521 C532 0.950 . S
H522 C534 0.950 . S
H523 C535 0.950 . S
C524 H516 0.950 . S
C524 C525 1.386 . S
C524 C526 1.391 . S
C525 C524 1.386 . S
C525 C529 1.393 . S
C526 H518 0.950 . S
C526 C524 1.391 . S
C526 C527 1.400 . S
C527 C526 1.400 . S
C527 C528 1.398 . S
C527 C533 1.491 1_545 S
C528 H519 0.950 . S
C528 C527 1.398 . S
C528 C529 1.391 . S
C529 H517 0.950 . S
C529 C525 1.393 . S
C529 C528 1.391 . S
C530 H520 0.950 . S
C530 C531 1.386 . S
C530 C532 1.391 . S
C531 C530 1.386 . S
C531 C535 1.393 . S
C532 H521 0.950 . S
C532 C530 1.391 . S
C532 C533 1.400 . S
C533 C527 1.491 1_565 S
C533 C532 1.400 . S
C533 C534 1.398 . S
C534 H522 0.950 . S
C534 C533 1.398 . S
C534 C535 1.391 . S
C535 H523 0.950 . S
C535 C531 1.393 . S
C535 C534 1.391 . S
H536 C544 0.950 . S
H537 C549 0.950 . S
H538 C546 0.950 . S
H539 C548 0.950 . S
H540 C550 0.950 . S
H541 C552 0.950 . S
H542 C554 0.950 . S
H543 C555 0.950 . S
C544 H536 0.950 . S
C544 C545 1.386 . S
C544 C546 1.391 . S
C545 C544 1.386 . S
C545 C549 1.393 . S
C546 H538 0.950 . S
C546 C544 1.391 . S
C546 C547 1.400 . S
C547 C546 1.400 . S
C547 C548 1.398 . S
C547 C553 1.491 . S
C548 H539 0.950 . S
C548 C547 1.398 . S
C548 C549 1.391 . S
C549 H537 0.950 . S
C549 C545 1.393 . S
C549 C548 1.391 . S
C550 H540 0.950 . S
C550 C551 1.386 . S
C550 C552 1.391 . S
C551 C550 1.386 . S
C551 C555 1.393 . S
C552 H541 0.950 . S
C552 C550 1.391 . S
C552 C553 1.400 . S
C553 C547 1.491 . S
C553 C552 1.400 . S
C553 C554 1.398 . S
C554 H542 0.950 . S
C554 C553 1.398 . S
C554 C555 1.391 . S
C555 H543 0.950 . S
C555 C551 1.393 . S
C555 C554 1.391 . S
H556 C564 0.950 . S
H557 C569 0.950 . S
H558 C566 0.950 . S
H559 C568 0.950 . S
H560 C570 0.950 . S
H561 C572 0.950 . S
H562 C574 0.950 . S
H563 C575 0.950 . S
C564 H556 0.950 . S
C564 C565 1.386 . S
C564 C566 1.391 . S
C565 C564 1.386 . S
C565 C569 1.393 . S
C566 H558 0.950 . S
C566 C564 1.391 . S
C566 C567 1.400 . S
C567 C566 1.400 . S
C567 C568 1.398 . S
C567 C573 1.491 1_455 S
C568 H559 0.950 . S
C568 C567 1.398 . S
C568 C569 1.391 . S
C569 H557 0.950 . S
C569 C565 1.393 . S
C569 C568 1.391 . S
C570 H560 0.950 . S
C570 C571 1.386 . S
C570 C572 1.391 . S
C571 C570 1.386 . S
C571 C575 1.393 . S
C572 H561 0.950 . S
C572 C570 1.391 . S
C572 C573 1.400 . S
C573 C567 1.491 1_655 S
C573 C572 1.400 . S
C573 C574 1.398 . S
C574 H562 0.950 . S
C574 C573 1.398 . S
C574 C575 1.391 . S
C575 H563 0.950 . S
C575 C571 1.393 . S
C575 C574 1.391 . S
H576 C584 0.950 . S
H577 C589 0.950 . S
H578 C586 0.950 . S
H579 C588 0.950 . S
H580 C590 0.950 . S
H581 C592 0.950 . S
H582 C594 0.950 . S
H583 C595 0.950 . S
C584 H576 0.950 . S
C584 C585 1.386 . S
C584 C586 1.391 . S
C585 C584 1.386 . S
C585 C589 1.393 . S
C586 H578 0.950 . S
C586 C584 1.391 . S
C586 C587 1.400 . S
C587 C586 1.400 . S
C587 C588 1.398 . S
C587 C593 1.491 . S
C588 H579 0.950 . S
C588 C587 1.398 . S
C588 C589 1.391 . S
C589 H577 0.950 . S
C589 C585 1.393 . S
C589 C588 1.391 . S
C590 H580 0.950 . S
C590 C591 1.386 . S
C590 C592 1.391 . S
C591 C590 1.386 . S
C591 C595 1.393 . S
C592 H581 0.950 . S
C592 C590 1.391 . S
C592 C593 1.400 . S
C593 C587 1.491 . S
C593 C592 1.400 . S
C593 C594 1.398 . S
C594 H582 0.950 . S
C594 C593 1.398 . S
C594 C595 1.391 . S
C595 H583 0.950 . S
C595 C591 1.393 . S
C595 C594 1.391 . S
H596 C604 0.950 . S
H597 C609 0.950 . S
H598 C606 0.950 . S
H599 C608 0.950 . S
H600 C610 0.950 . S
H601 C612 0.950 . S
H602 C614 0.950 . S
H603 C615 0.950 . S
C604 H596 0.950 . S
C604 C605 1.386 . S
C604 C606 1.391 . S
C605 C604 1.386 . S
C605 C609 1.393 . S
C606 H598 0.950 . S
C606 C604 1.391 . S
C606 C607 1.400 . S
C607 C606 1.400 . S
C607 C608 1.398 . S
C607 C613 1.491 . S
C608 H599 0.950 . S
C608 C607 1.398 . S
C608 C609 1.391 . S
C609 H597 0.950 . S
C609 C605 1.393 . S
C609 C608 1.391 . S
C610 H600 0.950 . S
C610 C611 1.386 . S
C610 C612 1.391 . S
C611 C610 1.386 . S
C611 C615 1.393 . S
C612 H601 0.950 . S
C612 C610 1.391 . S
C612 C613 1.400 . S
C613 C607 1.491 . S
C613 C612 1.400 . S
C613 C614 1.398 . S
C614 H602 0.950 . S
C614 C613 1.398 . S
C614 C615 1.391 . S
C615 H603 0.950 . S
C615 C611 1.393 . S
C615 C614 1.391 . S
H616 C624 0.950 . S
H617 C629 0.950 . S
H618 C626 0.950 . S
H619 C628 0.950 . S
H620 C630 0.950 . S
H621 C632 0.950 . S
H622 C634 0.950 . S
H623 C635 0.950 . S
C624 H616 0.950 . S
C624 C625 1.386 . S
C624 C626 1.391 . S
C625 C624 1.386 . S
C625 C629 1.393 . S
C626 H618 0.950 . S
C626 C624 1.391 . S
C626 C627 1.400 . S
C627 C626 1.400 . S
C627 C628 1.398 . S
C627 C633 1.491 . S
C628 H619 0.950 . S
C628 C627 1.398 . S
C628 C629 1.391 . S
C629 H617 0.950 . S
C629 C625 1.393 . S
C629 C628 1.391 . S
C630 H620 0.950 . S
C630 C631 1.386 . S
C630 C632 1.391 . S
C631 C630 1.386 . S
C631 C635 1.393 . S
C632 H621 0.950 . S
C632 C630 1.391 . S
C632 C633 1.400 . S
C633 C627 1.491 . S
C633 C632 1.400 . S
C633 C634 1.398 . S
C634 H622 0.950 . S
C634 C633 1.398 . S
C634 C635 1.391 . S
C635 H623 0.950 . S
C635 C631 1.393 . S
C635 C634 1.391 . S
H636 C644 0.950 . S
H637 C649 0.950 . S
H638 C646 0.950 . S
H639 C648 0.950 . S
H640 C650 0.950 . S
H641 C652 0.950 . S
H642 C654 0.950 . S
H643 C655 0.950 . S
C644 H636 0.950 . S
C644 C645 1.386 . S
C644 C646 1.391 . S
C645 C644 1.386 . S
C645 C649 1.393 . S
C646 H638 0.950 . S
C646 C644 1.391 . S
C646 C647 1.400 . S
C647 C646 1.400 . S
C647 C648 1.398 . S
C647 C653 1.491 . S
C648 H639 0.950 . S
C648 C647 1.398 . S
C648 C649 1.391 . S
C649 H637 0.950 . S
C649 C645 1.393 . S
C649 C648 1.391 . S
C650 H640 0.950 . S
C650 C651 1.386 . S
C650 C652 1.391 . S
C651 C650 1.386 . S
C651 C655 1.393 . S
C652 H641 0.950 . S
C652 C650 1.391 . S
C652 C653 1.400 . S
C653 C647 1.491 . S
C653 C652 1.400 . S
C653 C654 1.398 . S
C654 H642 0.950 . S
C654 C653 1.398 . S
C654 C655 1.391 . S
C655 H643 0.950 . S
C655 C651 1.393 . S
C655 C654 1.391 . S
H656 C664 0.950 . S
H657 C669 0.950 . S
H658 C666 0.950 . S
H659 C668 0.950 . S
H660 C670 0.950 . S
H661 C672 0.950 . S
H662 C674 0.950 . S
H663 C675 0.950 . S
C664 H656 0.950 . S
C664 C665 1.386 . S
C664 C666 1.391 . S
C665 C664 1.386 . S
C665 C669 1.393 . S
C666 H658 0.950 . S
C666 C664 1.391 . S
C666 C667 1.400 . S
C667 C666 1.400 . S
C667 C668 1.398 . S
C667 C673 1.491 . S
C668 H659 0.950 . S
C668 C667 1.398 . S
C668 C669 1.391 . S
C669 H657 0.950 . S
C669 C665 1.393 . S
C669 C668 1.391 . S
C670 H660 0.950 . S
C670 C671 1.386 . S
C670 C672 1.391 . S
C671 C670 1.386 . S
C671 C675 1.393 . S
C672 H661 0.950 . S
C672 C670 1.391 . S
C672 C673 1.400 . S
C673 C667 1.491 . S
C673 C672 1.400 . S
C673 C674 1.398 . S
C674 H662 0.950 . S
C674 C673 1.398 . S
C674 C675 1.391 . S
C675 H663 0.950 . S
C675 C671 1.393 . S
C675 C674 1.391 . S
H676 C684 0.950 . S
H677 C689 0.950 . S
H678 C686 0.950 . S
H679 C688 0.950 . S
H680 C690 0.950 . S
H681 C692 0.950 . S
H682 C694 0.950 . S
H683 C695 0.950 . S
C684 H676 0.950 . S
C684 C685 1.386 . S
C684 C686 1.391 . S
C685 C684 1.386 . S
C685 C689 1.393 . S
C686 H678 0.950 . S
C686 C684 1.391 . S
C686 C687 1.400 . S
C687 C686 1.400 . S
C687 C688 1.398 . S
C687 C693 1.491 . S
C688 H679 0.950 . S
C688 C687 1.398 . S
C688 C689 1.391 . S
C689 H677 0.950 . S
C689 C685 1.393 . S
C689 C688 1.391 . S
C690 H680 0.950 . S
C690 C691 1.386 . S
C690 C692 1.391 . S
C691 C690 1.386 . S
C691 C695 1.393 . S
C692 H681 0.950 . S
C692 C690 1.391 . S
C692 C693 1.400 . S
C693 C687 1.491 . S
C693 C692 1.400 . S
C693 C694 1.398 . S
C694 H682 0.950 . S
C694 C693 1.398 . S
C694 C695 1.391 . S
C695 H683 0.950 . S
C695 C691 1.393 . S
C695 C694 1.391 . S
H696 C704 0.950 . S
H697 C709 0.950 . S
H698 C706 0.950 . S
H699 C708 0.950 . S
H700 C710 0.950 . S
H701 C712 0.950 . S
H702 C714 0.950 . S
H703 C715 0.950 . S
C704 H696 0.950 . S
C704 C705 1.386 . S
C704 C706 1.391 . S
C705 C704 1.386 . S
C705 C709 1.393 . S
C706 H698 0.950 . S
C706 C704 1.391 . S
C706 C707 1.400 . S
C707 C706 1.400 . S
C707 C708 1.398 . S
C707 C713 1.491 . S
C708 H699 0.950 . S
C708 C707 1.398 . S
C708 C709 1.391 . S
C709 H697 0.950 . S
C709 C705 1.393 . S
C709 C708 1.391 . S
C710 H700 0.950 . S
C710 C711 1.386 . S
C710 C712 1.391 . S
C711 C710 1.386 . S
C711 C715 1.393 . S
C712 H701 0.950 . S
C712 C710 1.391 . S
C712 C713 1.400 . S
C713 C707 1.491 . S
C713 C712 1.400 . S
C713 C714 1.398 . S
C714 H702 0.950 . S
C714 C713 1.398 . S
C714 C715 1.391 . S
C715 H703 0.950 . S
C715 C711 1.393 . S
C715 C714 1.391 . S
H716 C724 0.950 . S
H717 C729 0.950 . S
H718 C726 0.950 . S
H719 C728 0.950 . S
H720 C730 0.950 . S
H721 C732 0.950 . S
H722 C734 0.950 . S
H723 C735 0.950 . S
C724 H716 0.950 . S
C724 C725 1.386 . S
C724 C726 1.391 . S
C725 C724 1.386 . S
C725 C729 1.393 . S
C726 H718 0.950 . S
C726 C724 1.391 . S
C726 C727 1.400 . S
C727 C726 1.400 . S
C727 C728 1.398 . S
C727 C733 1.491 . S
C728 H719 0.950 . S
C728 C727 1.398 . S
C728 C729 1.391 . S
C729 H717 0.950 . S
C729 C725 1.393 . S
C729 C728 1.391 . S
C730 H720 0.950 . S
C730 C731 1.386 . S
C730 C732 1.391 . S
C731 C730 1.386 . S
C731 C735 1.393 . S
C732 H721 0.950 . S
C732 C730 1.391 . S
C732 C733 1.400 . S
C733 C727 1.491 . S
C733 C732 1.400 . S
C733 C734 1.398 . S
C734 H722 0.950 . S
C734 C733 1.398 . S
C734 C735 1.391 . S
C735 H723 0.950 . S
C735 C731 1.393 . S
C735 C734 1.391 . S
H736 C744 0.950 . S
H737 C749 0.950 . S
H738 C746 0.950 . S
H739 C748 0.950 . S
H740 C750 0.950 . S
H741 C752 0.950 . S
H742 C754 0.950 . S
H743 C755 0.950 . S
C744 H736 0.950 . S
C744 C745 1.386 . S
C744 C746 1.391 . S
C745 C744 1.386 . S
C745 C749 1.393 . S
C746 H738 0.950 . S
C746 C744 1.391 . S
C746 C747 1.400 . S
C747 C746 1.400 . S
C747 C748 1.398 . S
C747 C753 1.491 . S
C748 H739 0.950 . S
C748 C747 1.398 . S
C748 C749 1.391 . S
C749 H737 0.950 . S
C749 C745 1.393 . S
C749 C748 1.391 . S
C750 H740 0.950 . S
C750 C751 1.386 . S
C750 C752 1.391 . S
C751 C750 1.386 . S
C751 C755 1.393 . S
C752 H741 0.950 . S
C752 C750 1.391 . S
C752 C753 1.400 . S
C753 C747 1.491 . S
C753 C752 1.400 . S
C753 C754 1.398 . S
C754 H742 0.950 . S
C754 C753 1.398 . S
C754 C755 1.391 . S
C755 H743 0.950 . S
C755 C751 1.393 . S
C755 C754 1.391 . S
H756 C764 0.950 . S
H757 C769 0.950 . S
H758 C766 0.950 . S
H759 C768 0.950 . S
H760 C770 0.950 . S
H761 C772 0.950 . S
H762 C774 0.950 . S
H763 C775 0.950 . S
C764 H756 0.950 . S
C764 C765 1.386 . S
C764 C766 1.391 . S
C765 C764 1.386 . S
C765 C769 1.393 . S
C766 H758 0.950 . S
C766 C764 1.391 . S
C766 C767 1.400 . S
C767 C766 1.400 . S
C767 C768 1.398 . S
C767 C773 1.491 . S
C768 H759 0.950 . S
C768 C767 1.398 . S
C768 C769 1.391 . S
C769 H757 0.950 . S
C769 C765 1.393 . S
C769 C768 1.391 . S
C770 H760 0.950 . S
C770 C771 1.386 . S
C770 C772 1.391 . S
C771 C770 1.386 . S
C771 C775 1.393 . S
C772 H761 0.950 . S
C772 C770 1.391 . S
C772 C773 1.400 . S
C773 C767 1.491 . S
C773 C772 1.400 . S
C773 C774 1.398 . S
C774 H762 0.950 . S
C774 C773 1.398 . S
C774 C775 1.391 . S
C775 H763 0.950 . S
C775 C771 1.393 . S
C775 C774 1.391 . S
H776 C784 0.950 . S
H777 C789 0.950 . S
H778 C786 0.950 . S
H779 C788 0.950 . S
H780 C790 0.950 . S
H781 C792 0.950 . S
H782 C794 0.950 . S
H783 C795 0.950 . S
C784 H776 0.950 . S
C784 C785 1.386 . S
C784 C786 1.391 . S
C785 C784 1.386 . S
C785 C789 1.393 . S
C786 H778 0.950 . S
C786 C784 1.391 . S
C786 C787 1.400 . S
C787 C786 1.400 . S
C787 C788 1.398 . S
C787 C793 1.491 . S
C788 H779 0.950 . S
C788 C787 1.398 . S
C788 C789 1.391 . S
C789 H777 0.950 . S
C789 C785 1.393 . S
C789 C788 1.391 . S
C790 H780 0.950 . S
C790 C791 1.386 . S
C790 C792 1.391 . S
C791 C790 1.386 . S
C791 C795 1.393 . S
C792 H781 0.950 . S
C792 C790 1.391 . S
C792 C793 1.400 . S
C793 C787 1.491 . S
C793 C792 1.400 . S
C793 C794 1.398 . S
C794 H782 0.950 . S
C794 C793 1.398 . S
C794 C795 1.391 . S
C795 H783 0.950 . S
C795 C791 1.393 . S
C795 C794 1.391 . S
H796 C804 0.950 . S
H797 C809 0.950 . S
H798 C806 0.950 . S
H799 C808 0.950 . S
H800 C810 0.950 . S
H801 C812 0.950 . S
H802 C814 0.950 . S
H803 C815 0.950 . S
C804 H796 0.950 . S
C804 C805 1.386 . S
C804 C806 1.391 . S
C805 C804 1.386 . S
C805 C809 1.393 . S
C806 H798 0.950 . S
C806 C804 1.391 . S
C806 C807 1.400 . S
C807 C806 1.400 . S
C807 C808 1.398 . S
C807 C813 1.491 . S
C808 H799 0.950 . S
C808 C807 1.398 . S
C808 C809 1.391 . S
C809 H797 0.950 . S
C809 C805 1.393 . S
C809 C808 1.391 . S
C810 H800 0.950 . S
C810 C811 1.386 . S
C810 C812 1.391 . S
C811 C810 1.386 . S
C811 C815 1.393 . S
C812 H801 0.950 . S
C812 C810 1.391 . S
C812 C813 1.400 . S
C813 C807 1.491 . S
C813 C812 1.400 . S
C813 C814 1.398 . S
C814 H802 0.950 . S
C814 C813 1.398 . S
C814 C815 1.391 . S
C815 H803 0.950 . S
C815 C811 1.393 . S
C815 C814 1.391 . S
H816 C824 0.950 . S
H817 C829 0.950 . S
H818 C826 0.950 . S
H819 C828 0.950 . S
H820 C830 0.950 . S
H821 C832 0.950 . S
H822 C834 0.950 . S
H823 C835 0.950 . S
C824 H816 0.950 . S
C824 C825 1.386 . S
C824 C826 1.391 . S
C825 C824 1.386 . S
C825 C829 1.393 . S
C826 H818 0.950 . S
C826 C824 1.391 . S
C826 C827 1.400 . S
C827 C826 1.400 . S
C827 C828 1.398 . S
C827 C833 1.491 1_554 S
C828 H819 0.950 . S
C828 C827 1.398 . S
C828 C829 1.391 . S
C829 H817 0.950 . S
C829 C825 1.393 . S
C829 C828 1.391 . S
C830 H820 0.950 . S
C830 C831 1.386 . S
C830 C832 1.391 . S
C831 C830 1.386 . S
C831 C835 1.393 . S
C832 H821 0.950 . S
C832 C830 1.391 . S
C832 C833 1.400 . S
C833 C827 1.491 1_556 S
C833 C832 1.400 . S
C833 C834 1.398 . S
C834 H822 0.950 . S
C834 C833 1.398 . S
C834 C835 1.391 . S
C835 H823 0.950 . S
C835 C831 1.393 . S
C835 C834 1.391 . S
H836 C844 0.950 . S
H837 C849 0.950 . S
H838 C846 0.950 . S
H839 C848 0.950 . S
H840 C850 0.950 . S
H841 C852 0.950 . S
H842 C854 0.950 . S
H843 C855 0.950 . S
C844 H836 0.950 . S
C844 C845 1.386 . S
C844 C846 1.391 . S
C845 C844 1.386 . S
C845 C849 1.393 . S
C846 H838 0.950 . S
C846 C844 1.391 . S
C846 C847 1.400 . S
C847 C846 1.400 . S
C847 C848 1.398 . S
C847 C853 1.491 1_556 S
C848 H839 0.950 . S
C848 C847 1.398 . S
C848 C849 1.391 . S
C849 H837 0.950 . S
C849 C845 1.393 . S
C849 C848 1.391 . S
C850 H840 0.950 . S
C850 C851 1.386 . S
C850 C852 1.391 . S
C851 C850 1.386 . S
C851 C855 1.393 . S
C852 H841 0.950 . S
C852 C850 1.391 . S
C852 C853 1.400 . S
C853 C847 1.491 1_554 S
C853 C852 1.400 . S
C853 C854 1.398 . S
C854 H842 0.950 . S
C854 C853 1.398 . S
C854 C855 1.391 . S
C855 H843 0.950 . S
C855 C851 1.393 . S
C855 C854 1.391 . S
H856 C864 0.950 . S
H857 C869 0.950 . S
H858 C866 0.950 . S
H859 C868 0.950 . S
H860 C870 0.950 . S
H861 C872 0.950 . S
H862 C874 0.950 . S
H863 C875 0.950 . S
C864 H856 0.950 . S
C864 C865 1.386 . S
C864 C866 1.391 . S
C865 C864 1.386 . S
C865 C869 1.393 . S
C866 H858 0.950 . S
C866 C864 1.391 . S
C866 C867 1.400 . S
C867 C866 1.400 . S
C867 C868 1.398 . S
C867 C873 1.491 1_556 S
C868 H859 0.950 . S
C868 C867 1.398 . S
C868 C869 1.391 . S
C869 H857 0.950 . S
C869 C865 1.393 . S
C869 C868 1.391 . S
C870 H860 0.950 . S
C870 C871 1.386 . S
C870 C872 1.391 . S
C871 C870 1.386 . S
C871 C875 1.393 . S
C872 H861 0.950 . S
C872 C870 1.391 . S
C872 C873 1.400 . S
C873 C867 1.491 1_554 S
C873 C872 1.400 . S
C873 C874 1.398 . S
C874 H862 0.950 . S
C874 C873 1.398 . S
C874 C875 1.391 . S
C875 H863 0.950 . S
C875 C871 1.393 . S
C875 C874 1.391 . S
H876 C884 0.950 . S
H877 C889 0.950 . S
H878 C886 0.950 . S
H879 C888 0.950 . S
H880 C890 0.950 . S
H881 C892 0.950 . S
H882 C894 0.950 . S
H883 C895 0.950 . S
C884 H876 0.950 . S
C884 C885 1.386 . S
C884 C886 1.391 . S
C885 C884 1.386 . S
C885 C889 1.393 . S
C886 H878 0.950 . S
C886 C884 1.391 . S
C886 C887 1.400 . S
C887 C886 1.400 . S
C887 C888 1.398 . S
C887 C893 1.491 1_554 S
C888 H879 0.950 . S
C888 C887 1.398 . S
C888 C889 1.391 . S
C889 H877 0.950 . S
C889 C885 1.393 . S
C889 C888 1.391 . S
C890 H880 0.950 . S
C890 C891 1.386 . S
C890 C892 1.391 . S
C891 C890 1.386 . S
C891 C895 1.393 . S
C892 H881 0.950 . S
C892 C890 1.391 . S
C892 C893 1.400 . S
C893 C887 1.491 1_556 S
C893 C892 1.400 . S
C893 C894 1.398 . S
C894 H882 0.950 . S
C894 C893 1.398 . S
C894 C895 1.391 . S
C895 H883 0.950 . S
C895 C891 1.393 . S
C895 C894 1.391 . S
H896 C904 0.950 . S
H897 C909 0.950 . S
H898 C906 0.950 . S
H899 C908 0.950 . S
H900 C910 0.950 . S
H901 C912 0.950 . S
H902 C914 0.950 . S
H903 C915 0.950 . S
C904 H896 0.950 . S
C904 C905 1.386 . S
C904 C906 1.391 . S
C905 C904 1.386 . S
C905 C909 1.393 . S
C906 H898 0.950 . S
C906 C904 1.391 . S
C906 C907 1.400 . S
C907 C906 1.400 . S
C907 C908 1.398 . S
C907 C913 1.491 1_554 S
C908 H899 0.950 . S
C908 C907 1.398 . S
C908 C909 1.391 . S
C909 H897 0.950 . S
C909 C905 1.393 . S
C909 C908 1.391 . S
C910 H900 0.950 . S
C910 C911 1.386 . S
C910 C912 1.391 . S
C911 C910 1.386 . S
C911 C915 1.393 . S
C912 H901 0.950 . S
C912 C910 1.391 . S
C912 C913 1.400 . S
C913 C907 1.491 1_556 S
C913 C912 1.400 . S
C913 C914 1.398 . S
C914 H902 0.950 . S
C914 C913 1.398 . S
C914 C915 1.391 . S
C915 H903 0.950 . S
C915 C911 1.393 . S
C915 C914 1.391 . S
H916 C924 0.950 . S
H917 C929 0.950 . S
H918 C926 0.950 . S
H919 C928 0.950 . S
H920 C930 0.950 . S
H921 C932 0.950 . S
H922 C934 0.950 . S
H923 C935 0.950 . S
C924 H916 0.950 . S
C924 C925 1.386 . S
C924 C926 1.391 . S
C925 C924 1.386 . S
C925 C929 1.393 . S
C926 H918 0.950 . S
C926 C924 1.391 . S
C926 C927 1.400 . S
C927 C926 1.400 . S
C927 C928 1.398 . S
C927 C933 1.491 1_556 S
C928 H919 0.950 . S
C928 C927 1.398 . S
C928 C929 1.391 . S
C929 H917 0.950 . S
C929 C925 1.393 . S
C929 C928 1.391 . S
C930 H920 0.950 . S
C930 C931 1.386 . S
C930 C932 1.391 . S
C931 C930 1.386 . S
C931 C935 1.393 . S
C932 H921 0.950 . S
C932 C930 1.391 . S
C932 C933 1.400 . S
C933 C927 1.491 1_554 S
C933 C932 1.400 . S
C933 C934 1.398 . S
C934 H922 0.950 . S
C934 C933 1.398 . S
C934 C935 1.391 . S
C935 H923 0.950 . S
C935 C931 1.393 . S
C935 C934 1.391 . S
H936 C944 0.950 . S
H937 C949 0.950 . S
H938 C946 0.950 . S
H939 C948 0.950 . S
H940 C950 0.950 . S
H941 C952 0.950 . S
H942 C954 0.950 . S
H943 C955 0.950 . S
C944 H936 0.950 . S
C944 C945 1.386 . S
C944 C946 1.391 . S
C945 C944 1.386 . S
C945 C949 1.393 . S
C946 H938 0.950 . S
C946 C944 1.391 . S
C946 C947 1.400 . S
C947 C946 1.400 . S
C947 C948 1.398 . S
C947 C953 1.491 . S
C948 H939 0.950 . S
C948 C947 1.398 . S
C948 C949 1.391 . S
C949 H937 0.950 . S
C949 C945 1.393 . S
C949 C948 1.391 . S
C950 H940 0.950 . S
C950 C951 1.386 . S
C950 C952 1.391 . S
C951 C950 1.386 . S
C951 C955 1.393 . S
C952 H941 0.950 . S
C952 C950 1.391 . S
C952 C953 1.400 . S
C953 C947 1.491 . S
C953 C952 1.400 . S
C953 C954 1.398 . S
C954 H942 0.950 . S
C954 C953 1.398 . S
C954 C955 1.391 . S
C955 H943 0.950 . S
C955 C951 1.393 . S
C955 C954 1.391 . S
H956 C964 0.950 . S
H957 C969 0.950 . S
H958 C966 0.950 . S
H959 C968 0.950 . S
H960 C970 0.950 . S
H961 C972 0.950 . S
H962 C974 0.950 . S
H963 C975 0.950 . S
C964 H956 0.950 . S
C964 C965 1.386 . S
C964 C966 1.391 . S
C965 C964 1.386 . S
C965 C969 1.393 . S
C966 H958 0.950 . S
C966 C964 1.391 . S
C966 C967 1.400 . S
C967 C966 1.400 . S
C967 C968 1.398 . S
C967 C973 1.491 . S
C968 H959 0.950 . S
C968 C967 1.398 . S
C968 C969 1.391 . S
C969 H957 0.950 . S
C969 C965 1.393 . S
C969 C968 1.391 . S
C970 H960 0.950 . S
C970 C971 1.386 . S
C970 C972 1.391 . S
C971 C970 1.386 . S
C971 C975 1.393 . S
C972 H961 0.950 . S
C972 C970 1.391 . S
C972 C973 1.400 . S
C973 C967 1.491 . S
C973 C972 1.400 . S
C973 C974 1.398 . S
C974 H962 0.950 . S
C974 C973 1.398 . S
C974 C975 1.391 . S
C975 H963 0.950 . S
C975 C971 1.393 . S
C975 C974 1.391 . S
H976 C984 0.950 . S
H977 C989 0.950 . S
H978 C986 0.950 . S
H979 C988 0.950 . S
H980 C990 0.950 . S
H981 C992 0.950 . S
H982 C994 0.950 . S
H983 C995 0.950 . S
C984 H976 0.950 . S
C984 C985 1.386 . S
C984 C986 1.391 . S
C985 C984 1.386 . S
C985 C989 1.393 . S
C986 H978 0.950 . S
C986 C984 1.391 . S
C986 C987 1.400 . S
C987 C986 1.400 . S
C987 C988 1.398 . S
C987 C993 1.491 . S
C988 H979 0.950 . S
C988 C987 1.398 . S
C988 C989 1.391 . S
C989 H977 0.950 . S
C989 C985 1.393 . S
C989 C988 1.391 . S
C990 H980 0.950 . S
C990 C991 1.386 . S
C990 C992 1.391 . S
C991 C990 1.386 . S
C991 C995 1.393 . S
C992 H981 0.950 . S
C992 C990 1.391 . S
C992 C993 1.400 . S
C993 C987 1.491 . S
C993 C992 1.400 . S
C993 C994 1.398 . S
C994 H982 0.950 . S
C994 C993 1.398 . S
C994 C995 1.391 . S
C995 H983 0.950 . S
C995 C991 1.393 . S
C995 C994 1.391 . S
H996 C1004 0.950 . S
H997 C1009 0.950 . S
H998 C1006 0.950 . S
H999 C1008 0.950 . S
H1000 C1010 0.950 . S
H1001 C1012 0.950 . S
H1002 C1014 0.950 . S
H1003 C1015 0.950 . S
C1004 H996 0.950 . S
C1004 C1005 1.386 . S
C1004 C1006 1.391 . S
C1005 C1004 1.386 . S
C1005 C1009 1.393 . S
C1006 H998 0.950 . S
C1006 C1004 1.391 . S
C1006 C1007 1.400 . S
C1007 C1006 1.400 . S
C1007 C1008 1.398 . S
C1007 C1013 1.491 . S
C1008 H999 0.950 . S
C1008 C1007 1.398 . S
C1008 C1009 1.391 . S
C1009 H997 0.950 . S
C1009 C1005 1.393 . S
C1009 C1008 1.391 . S
C1010 H1000 0.950 . S
C1010 C1011 1.386 . S
C1010 C1012 1.391 . S
C1011 C1010 1.386 . S
C1011 C1015 1.393 . S
C1012 H1001 0.950 . S
C1012 C1010 1.391 . S
C1012 C1013 1.400 . S
C1013 C1007 1.491 . S
C1013 C1012 1.400 . S
C1013 C1014 1.398 . S
C1014 H1002 0.950 . S
C1014 C1013 1.398 . S
C1014 C1015 1.391 . S
C1015 H1003 0.950 . S
C1015 C1011 1.393 . S
C1015 C1014 1.391 . S
H1016 C1024 0.950 . S
H1017 C1029 0.950 . S
H1018 C1026 0.950 . S
H1019 C1028 0.950 . S
H1020 C1030 0.950 . S
H1021 C1032 0.950 . S
H1022 C1034 0.950 . S
H1023 C1035 0.950 . S
C1024 H1016 0.950 . S
C1024 C1025 1.386 . S
C1024 C1026 1.391 . S
C1025 C1024 1.386 . S
C1025 C1029 1.393 . S
C1026 H1018 0.950 . S
C1026 C1024 1.391 . S
C1026 C1027 1.400 . S
C1027 C1026 1.400 . S
C1027 C1028 1.398 . S
C1027 C1033 1.491 . S
C1028 H1019 0.950 . S
C1028 C1027 1.398 . S
C1028 C1029 1.391 . S
C1029 H1017 0.950 . S
C1029 C1025 1.393 . S
C1029 C1028 1.391 . S
C1030 H1020 0.950 . S
C1030 C1031 1.386 . S
C1030 C1032 1.391 . S
C1031 C1030 1.386 . S
C1031 C1035 1.393 . S
C1032 H1021 0.950 . S
C1032 C1030 1.391 . S
C1032 C1033 1.400 . S
C1033 C1027 1.491 . S
C1033 C1032 1.400 . S
C1033 C1034 1.398 . S
C1034 H1022 0.950 . S
C1034 C1033 1.398 . S
C1034 C1035 1.391 . S
C1035 H1023 0.950 . S
C1035 C1031 1.393 . S
C1035 C1034 1.391 . S
H1036 C1044 0.950 . S
H1037 C1049 0.950 . S
H1038 C1046 0.950 . S
H1039 C1048 0.950 . S
H1040 C1050 0.950 . S
H1041 C1052 0.950 . S
H1042 C1054 0.950 . S
H1043 C1055 0.950 . S
C1044 H1036 0.950 . S
C1044 C1045 1.386 . S
C1044 C1046 1.391 . S
C1045 C1044 1.386 . S
C1045 C1049 1.393 . S
C1046 H1038 0.950 . S
C1046 C1044 1.391 . S
C1046 C1047 1.400 . S
C1047 C1046 1.400 . S
C1047 C1048 1.398 . S
C1047 C1053 1.491 . S
C1048 H1039 0.950 . S
C1048 C1047 1.398 . S
C1048 C1049 1.391 . S
C1049 H1037 0.950 . S
C1049 C1045 1.393 . S
C1049 C1048 1.391 . S
C1050 H1040 0.950 . S
C1050 C1051 1.386 . S
C1050 C1052 1.391 . S
C1051 C1050 1.386 . S
C1051 C1055 1.393 . S
C1052 H1041 0.950 . S
C1052 C1050 1.391 . S
C1052 C1053 1.400 . S
C1053 C1047 1.491 . S
C1053 C1052 1.400 . S
C1053 C1054 1.398 . S
C1054 H1042 0.950 . S
C1054 C1053 1.398 . S
C1054 C1055 1.391 . S
C1055 H1043 0.950 . S
C1055 C1051 1.393 . S
C1055 C1054 1.391 . S
H1056 C1064 0.950 . S
H1057 C1069 0.950 . S
H1058 C1066 0.950 . S
H1059 C1068 0.950 . S
H1060 C1070 0.950 . S
H1061 C1072 0.950 . S
H1062 C1074 0.950 . S
H1063 C1075 0.950 . S
C1064 H1056 0.950 . S
C1064 C1065 1.386 . S
C1064 C1066 1.391 . S
C1065 C1064 1.386 . S
C1065 C1069 1.393 . S
C1066 H1058 0.950 . S
C1066 C1064 1.391 . S
C1066 C1067 1.400 . S
C1067 C1066 1.400 . S
C1067 C1068 1.398 . S
C1067 C1073 1.491 . S
C1068 H1059 0.950 . S
C1068 C1067 1.398 . S
C1068 C1069 1.391 . S
C1069 H1057 0.950 . S
C1069 C1065 1.393 . S
C1069 C1068 1.391 . S
C1070 H1060 0.950 . S
C1070 C1071 1.386 . S
C1070 C1072 1.391 . S
C1071 C1070 1.386 . S
C1071 C1075 1.393 . S
C1072 H1061 0.950 . S
C1072 C1070 1.391 . S
C1072 C1073 1.400 . S
C1073 C1067 1.491 . S
C1073 C1072 1.400 . S
C1073 C1074 1.398 . S
C1074 H1062 0.950 . S
C1074 C1073 1.398 . S
C1074 C1075 1.391 . S
C1075 H1063 0.950 . S
C1075 C1071 1.393 . S
C1075 C1074 1.391 . S
H1076 C1084 0.950 . S
H1077 C1089 0.950 . S
H1078 C1086 0.950 . S
H1079 C1088 0.950 . S
H1080 C1090 0.950 . S
H1081 C1092 0.950 . S
H1082 C1094 0.950 . S
H1083 C1095 0.950 . S
C1084 H1076 0.950 . S
C1084 C1085 1.386 . S
C1084 C1086 1.391 . S
C1085 C1084 1.386 . S
C1085 C1089 1.393 . S
C1086 H1078 0.950 . S
C1086 C1084 1.391 . S
C1086 C1087 1.400 . S
C1087 C1086 1.400 . S
C1087 C1088 1.398 . S
C1087 C1093 1.491 . S
C1088 H1079 0.950 . S
C1088 C1087 1.398 . S
C1088 C1089 1.391 . S
C1089 H1077 0.950 . S
C1089 C1085 1.393 . S
C1089 C1088 1.391 . S
C1090 H1080 0.950 . S
C1090 C1091 1.386 . S
C1090 C1092 1.391 . S
C1091 C1090 1.386 . S
C1091 C1095 1.393 . S
C1092 H1081 0.950 . S
C1092 C1090 1.391 . S
C1092 C1093 1.400 . S
C1093 C1087 1.491 . S
C1093 C1092 1.400 . S
C1093 C1094 1.398 . S
C1094 H1082 0.950 . S
C1094 C1093 1.398 . S
C1094 C1095 1.391 . S
C1095 H1083 0.950 . S
C1095 C1091 1.393 . S
C1095 C1094 1.391 . S
H1096 C1104 0.950 . S
H1097 C1109 0.950 . S
H1098 C1106 0.950 . S
H1099 C1108 0.950 . S
H1100 C1110 0.950 . S
H1101 C1112 0.950 . S
H1102 C1114 0.950 . S
H1103 C1115 0.950 . S
C1104 H1096 0.950 . S
C1104 C1105 1.386 . S
C1104 C1106 1.391 . S
C1105 C1104 1.386 . S
C1105 C1109 1.393 . S
C1106 H1098 0.950 . S
C1106 C1104 1.391 . S
C1106 C1107 1.400 . S
C1107 C1106 1.400 . S
C1107 C1108 1.398 . S
C1107 C1113 1.491 . S
C1108 H1099 0.950 . S
C1108 C1107 1.398 . S
C1108 C1109 1.391 . S
C1109 H1097 0.950 . S
C1109 C1105 1.393 . S
C1109 C1108 1.391 . S
C1110 H1100 0.950 . S
C1110 C1111 1.386 . S
C1110 C1112 1.391 . S
C1111 C1110 1.386 . S
C1111 C1115 1.393 . S
C1112 H1101 0.950 . S
C1112 C1110 1.391 . S
C1112 C1113 1.400 . S
C1113 C1107 1.491 . S
C1113 C1112 1.400 . S
C1113 C1114 1.398 . S
C1114 H1102 0.950 . S
C1114 C1113 1.398 . S
C1114 C1115 1.391 . S
C1115 H1103 0.950 . S
C1115 C1111 1.393 . S
C1115 C1114 1.391 . S
H1116 C1124 0.950 . S
H1117 C1129 0.950 . S
H1118 C1126 0.950 . S
H1119 C1128 0.950 . S
H1120 C1130 0.950 . S
H1121 C1132 0.950 . S
H1122 C1134 0.950 . S
H1123 C1135 0.950 . S
C1124 H1116 0.950 . S
C1124 C1125 1.386 . S
C1124 C1126 1.391 . S
C1125 C1124 1.386 . S
C1125 C1129 1.393 . S
C1126 H1118 0.950 . S
C1126 C1124 1.391 . S
C1126 C1127 1.400 . S
C1127 C1126 1.400 . S
C1127 C1128 1.398 . S
C1127 C1133 1.491 . S
C1128 H1119 0.950 . S
C1128 C1127 1.398 . S
C1128 C1129 1.391 . S
C1129 H1117 0.950 . S
C1129 C1125 1.393 . S
C1129 C1128 1.391 . S
C1130 H1120 0.950 . S
C1130 C1131 1.386 . S
C1130 C1132 1.391 . S
C1131 C1130 1.386 . S
C1131 C1135 1.393 . S
C1132 H1121 0.950 . S
C1132 C1130 1.391 . S
C1132 C1133 1.400 . S
C1133 C1127 1.491 . S
C1133 C1132 1.400 . S
C1133 C1134 1.398 . S
C1134 H1122 0.950 . S
C1134 C1133 1.398 . S
C1134 C1135 1.391 . S
C1135 H1123 0.950 . S
C1135 C1131 1.393 . S
C1135 C1134 1.391 . S
H1136 C1144 0.950 . S
H1137 C1149 0.950 . S
H1138 C1146 0.950 . S
H1139 C1148 0.950 . S
H1140 C1150 0.950 . S
H1141 C1152 0.950 . S
H1142 C1154 0.950 . S
H1143 C1155 0.950 . S
C1144 H1136 0.950 . S
C1144 C1145 1.386 . S
C1144 C1146 1.391 . S
C1145 C1144 1.386 . S
C1145 C1149 1.393 . S
C1146 H1138 0.950 . S
C1146 C1144 1.391 . S
C1146 C1147 1.400 . S
C1147 C1146 1.400 . S
C1147 C1148 1.398 . S
C1147 C1153 1.491 . S
C1148 H1139 0.950 . S
C1148 C1147 1.398 . S
C1148 C1149 1.391 . S
C1149 H1137 0.950 . S
C1149 C1145 1.393 . S
C1149 C1148 1.391 . S
C1150 H1140 0.950 . S
C1150 C1151 1.386 . S
C1150 C1152 1.391 . S
C1151 C1150 1.386 . S
C1151 C1155 1.393 . S
C1152 H1141 0.950 . S
C1152 C1150 1.391 . S
C1152 C1153 1.400 . S
C1153 C1147 1.491 . S
C1153 C1152 1.400 . S
C1153 C1154 1.398 . S
C1154 H1142 0.950 . S
C1154 C1153 1.398 . S
C1154 C1155 1.391 . S
C1155 H1143 0.950 . S
C1155 C1151 1.393 . S
C1155 C1154 1.391 . S
H1156 C1164 0.950 . S
H1157 C1169 0.950 . S
H1158 C1166 0.950 . S
H1159 C1168 0.950 . S
H1160 C1170 0.950 . S
H1161 C1172 0.950 . S
H1162 C1174 0.950 . S
H1163 C1175 0.950 . S
C1164 H1156 0.950 . S
C1164 C1165 1.386 . S
C1164 C1166 1.391 . S
C1165 C1164 1.386 . S
C1165 C1169 1.393 . S
C1166 H1158 0.950 . S
C1166 C1164 1.391 . S
C1166 C1167 1.400 . S
C1167 C1166 1.400 . S
C1167 C1168 1.398 . S
C1167 C1173 1.491 . S
C1168 H1159 0.950 . S
C1168 C1167 1.398 . S
C1168 C1169 1.391 . S
C1169 H1157 0.950 . S
C1169 C1165 1.393 . S
C1169 C1168 1.391 . S
C1170 H1160 0.950 . S
C1170 C1171 1.386 . S
C1170 C1172 1.391 . S
C1171 C1170 1.386 . S
C1171 C1175 1.393 . S
C1172 H1161 0.950 . S
C1172 C1170 1.391 . S
C1172 C1173 1.400 . S
C1173 C1167 1.491 . S
C1173 C1172 1.400 . S
C1173 C1174 1.398 . S
C1174 H1162 0.950 . S
C1174 C1173 1.398 . S
C1174 C1175 1.391 . S
C1175 H1163 0.950 . S
C1175 C1171 1.393 . S
C1175 C1174 1.391 . S
H1176 C1184 0.950 . S
H1177 C1189 0.950 . S
H1178 C1186 0.950 . S
H1179 C1188 0.950 . S
H1180 C1190 0.950 . S
H1181 C1192 0.950 . S
H1182 C1194 0.950 . S
H1183 C1195 0.950 . S
C1184 H1176 0.950 . S
C1184 C1185 1.386 . S
C1184 C1186 1.391 . S
C1185 C1184 1.386 . S
C1185 C1189 1.393 . S
C1186 H1178 0.950 . S
C1186 C1184 1.391 . S
C1186 C1187 1.400 . S
C1187 C1186 1.400 . S
C1187 C1188 1.398 . S
C1187 C1193 1.491 . S
C1188 H1179 0.950 . S
C1188 C1187 1.398 . S
C1188 C1189 1.391 . S
C1189 H1177 0.950 . S
C1189 C1185 1.393 . S
C1189 C1188 1.391 . S
C1190 H1180 0.950 . S
C1190 C1191 1.386 . S
C1190 C1192 1.391 . S
C1191 C1190 1.386 . S
C1191 C1195 1.393 . S
C1192 H1181 0.950 . S
C1192 C1190 1.391 . S
C1192 C1193 1.400 . S
C1193 C1187 1.491 . S
C1193 C1192 1.400 . S
C1193 C1194 1.398 . S
C1194 H1182 0.950 . S
C1194 C1193 1.398 . S
C1194 C1195 1.391 . S
C1195 H1183 0.950 . S
C1195 C1191 1.393 . S
C1195 C1194 1.391 . S
H1196 C1204 0.950 . S
H1197 C1209 0.950 . S
H1198 C1206 0.950 . S
H1199 C1208 0.950 . S
H1200 C1210 0.950 . S
H1201 C1212 0.950 . S
H1202 C1214 0.950 . S
H1203 C1215 0.950 . S
C1204 H1196 0.950 . S
C1204 C1205 1.386 . S
C1204 C1206 1.391 . S
C1205 C1204 1.386 . S
C1205 C1209 1.393 . S
C1206 H1198 0.950 . S
C1206 C1204 1.391 . S
C1206 C1207 1.400 . S
C1207 C1206 1.400 . S
C1207 C1208 1.398 . S
C1207 C1213 1.491 . S
C1208 H1199 0.950 . S
C1208 C1207 1.398 . S
C1208 C1209 1.391 . S
C1209 H1197 0.950 . S
C1209 C1205 1.393 . S
C1209 C1208 1.391 . S
C1210 H1200 0.950 . S
C1210 C1211 1.386 . S
C1210 C1212 1.391 . S
C1211 C1210 1.386 . S
C1211 C1215 1.393 . S
C1212 H1201 0.950 . S
C1212 C1210 1.391 . S
C1212 C1213 1.400 . S
C1213 C1207 1.491 . S
C1213 C1212 1.400 . S
C1213 C1214 1.398 . S
C1214 H1202 0.950 . S
C1214 C1213 1.398 . S
C1214 C1215 1.391 . S
C1215 H1203 0.950 . S
C1215 C1211 1.393 . S
C1215 C1214 1.391 . S
H1216 C1224 0.950 . S
H1217 C1229 0.950 . S
H1218 C1226 0.950 . S
H1219 C1228 0.950 . S
H1220 C1230 0.950 . S
H1221 C1232 0.950 . S
H1222 C1234 0.950 . S
H1223 C1235 0.950 . S
C1224 H1216 0.950 . S
C1224 C1225 1.386 . S
C1224 C1226 1.391 . S
C1225 C1224 1.386 . S
C1225 C1229 1.393 . S
C1226 H1218 0.950 . S
C1226 C1224 1.391 . S
C1226 C1227 1.400 . S
C1227 C1226 1.400 . S
C1227 C1228 1.398 . S
C1227 C1233 1.491 . S
C1228 H1219 0.950 . S
C1228 C1227 1.398 . S
C1228 C1229 1.391 . S
C1229 H1217 0.950 . S
C1229 C1225 1.393 . S
C1229 C1228 1.391 . S
C1230 H1220 0.950 . S
C1230 C1231 1.386 . S
C1230 C1232 1.391 . S
C1231 C1230 1.386 . S
C1231 C1235 1.393 . S
C1232 H1221 0.950 . S
C1232 C1230 1.391 . S
C1232 C1233 1.400 . S
C1233 C1227 1.491 . S
C1233 C1232 1.400 . S
C1233 C1234 1.398 . S
C1234 H1222 0.950 . S
C1234 C1233 1.398 . S
C1234 C1235 1.391 . S
C1235 H1223 0.950 . S
C1235 C1231 1.393 . S
C1235 C1234 1.391 . S
H1236 C1244 0.950 . S
H1237 C1249 0.950 . S
H1238 C1246 0.950 . S
H1239 C1248 0.950 . S
H1240 C1250 0.950 . S
H1241 C1252 0.950 . S
H1242 C1254 0.950 . S
H1243 C1255 0.950 . S
C1244 H1236 0.950 . S
C1244 C1245 1.386 . S
C1244 C1246 1.391 . S
C1245 C1244 1.386 . S
C1245 C1249 1.393 . S
C1246 H1238 0.950 . S
C1246 C1244 1.391 . S
C1246 C1247 1.400 . S
C1247 C1246 1.400 . S
C1247 C1248 1.398 . S
C1247 C1253 1.491 . S
C1248 H1239 0.950 . S
C1248 C1247 1.398 . S
C1248 C1249 1.391 . S
C1249 H1237 0.950 . S
C1249 C1245 1.393 . S
C1249 C1248 1.391 . S
C1250 H1240 0.950 . S
C1250 C1251 1.386 . S
C1250 C1252 1.391 . S
C1251 C1250 1.386 . S
C1251 C1255 1.393 . S
C1252 H1241 0.950 . S
C1252 C1250 1.391 . S
C1252 C1253 1.400 . S
C1253 C1247 1.491 . S
C1253 C1252 1.400 . S
C1253 C1254 1.398 . S
C1254 H1242 0.950 . S
C1254 C1253 1.398 . S
C1254 C1255 1.391 . S
C1255 H1243 0.950 . S
C1255 C1251 1.393 . S
C1255 C1254 1.391 . S
H1256 C1264 0.950 . S
H1257 C1269 0.950 . S
H1258 C1266 0.950 . S
H1259 C1268 0.950 . S
H1260 C1270 0.950 . S
H1261 C1272 0.950 . S
H1262 C1274 0.950 . S
H1263 C1275 0.950 . S
C1264 H1256 0.950 . S
C1264 C1265 1.386 . S
C1264 C1266 1.391 . S
C1265 C1264 1.386 . S
C1265 C1269 1.393 . S
C1266 H1258 0.950 . S
C1266 C1264 1.391 . S
C1266 C1267 1.400 . S
C1267 C1266 1.400 . S
C1267 C1268 1.398 . S
C1267 C1273 1.491 . S
C1268 H1259 0.950 . S
C1268 C1267 1.398 . S
C1268 C1269 1.391 . S
C1269 H1257 0.950 . S
C1269 C1265 1.393 . S
C1269 C1268 1.391 . S
C1270 H1260 0.950 . S
C1270 C1271 1.386 . S
C1270 C1272 1.391 . S
C1271 C1270 1.386 . S
C1271 C1275 1.393 . S
C1272 H1261 0.950 . S
C1272 C1270 1.391 . S
C1272 C1273 1.400 . S
C1273 C1267 1.491 . S
C1273 C1272 1.400 . S
C1273 C1274 1.398 . S
C1274 H1262 0.950 . S
C1274 C1273 1.398 . S
C1274 C1275 1.391 . S
C1275 H1263 0.950 . S
C1275 C1271 1.393 . S
C1275 C1274 1.391 . S
H1276 C1284 0.950 . S
H1277 C1289 0.950 . S
H1278 C1286 0.950 . S
H1279 C1288 0.950 . S
H1280 C1290 0.950 . S
H1281 C1292 0.950 . S
H1282 C1294 0.950 . S
H1283 C1295 0.950 . S
C1284 H1276 0.950 . S
C1284 C1285 1.386 . S
C1284 C1286 1.391 . S
C1285 C1284 1.386 . S
C1285 C1289 1.393 . S
C1286 H1278 0.950 . S
C1286 C1284 1.391 . S
C1286 C1287 1.400 . S
C1287 C1286 1.400 . S
C1287 C1288 1.398 . S
C1287 C1293 1.491 . S
C1288 H1279 0.950 . S
C1288 C1287 1.398 . S
C1288 C1289 1.391 . S
C1289 H1277 0.950 . S
C1289 C1285 1.393 . S
C1289 C1288 1.391 . S
C1290 H1280 0.950 . S
C1290 C1291 1.386 . S
C1290 C1292 1.391 . S
C1291 C1290 1.386 . S
C1291 C1295 1.393 . S
C1292 H1281 0.950 . S
C1292 C1290 1.391 . S
C1292 C1293 1.400 . S
C1293 C1287 1.491 . S
C1293 C1292 1.400 . S
C1293 C1294 1.398 . S
C1294 H1282 0.950 . S
C1294 C1293 1.398 . S
C1294 C1295 1.391 . S
C1295 H1283 0.950 . S
C1295 C1291 1.393 . S
C1295 C1294 1.391 . S
C345 C5 1.537 . S
C351 C103 1.531 . S
C365 C117 1.534 . S
C371 C19 1.533 . S
C385 C33 1.535 . S
C391 C131 1.532 . S
C405 C47 1.540 . S
C411 C145 1.540 . S
C425 C159 1.536 . S
C431 C61 1.542 . S
C445 C75 1.534 . S
C451 C89 1.542 . S
C465 C173 1.532 . S
C471 C271 1.540 . S
C485 C187 1.532 . S
C491 C285 1.541 . S
C505 C299 1.538 . S
C511 C201 1.531 . S
C525 C215 1.539 . S
C531 C313 1.540 . S
C545 C229 1.534 . S
C551 C327 1.533 . S
C565 C257 1.535 . S
C571 C243 1.532 . S
C585 C11 1.382 . S
C591 C123 1.386 . S
C605 C137 1.384 . S
C611 C25 1.380 . S
C625 C151 1.386 . S
C631 C39 1.383 . S
C645 C53 1.382 . S
C651 C165 1.387 . S
C665 C67 1.384 . S
C671 C95 1.386 . S
C685 C81 1.380 . S
C691 C109 1.385 . S
C705 C291 1.381 . S
C711 C179 1.382 . S
C725 C193 1.381 . S
C731 C305 1.386 . S
C745 C319 1.383 . S
C751 C207 1.386 . S
C765 C333 1.384 . S
C771 C221 1.380 . S
C785 C263 1.384 . S
C791 C235 1.380 . S
C805 C249 1.385 . S
C811 C277 1.380 . S
C825 C9 1.590 . S
C831 C219 1.592 . S
C845 C233 1.589 . S
C851 C23 1.593 . S
C865 C247 1.588 . S
C871 C37 1.593 . S
C885 C51 1.591 . S
C891 C177 1.590 . S
C905 C65 1.593 . S
C911 C191 1.589 . S
C925 C205 1.588 . S
C931 C79 1.593 . S
C945 C303 1.589 . S
C951 C93 1.593 . S
C965 C317 1.593 . S
C971 C107 1.588 . S
C985 C331 1.593 . S
C991 C121 1.589 . S
C1005 C261 1.588 . S
C1011 C135 1.593 . S
C1025 C149 1.589 . S
C1031 C275 1.593 . S
C1045 C163 1.588 . S
C1051 C289 1.593 . S
C1065 C0 1.431 . S
C1071 C140 1.430 . S
C1085 C154 1.424 . S
C1091 C14 1.433 . S
C1105 C84 1.411 . S
C1111 C28 1.422 . S
C1125 C42 1.428 . S
C1131 C98 1.432 . S
C1145 C56 1.413 . S
C1151 C112 1.425 . S
C1165 C70 1.420 . S
C1171 C126 1.431 . S
C1185 C168 1.428 . S
C1191 C308 1.432 . S
C1205 C182 1.412 . S
C1211 C322 1.414 . S
C1225 C196 1.411 . S
C1231 C252 1.421 . S
C1245 C266 1.424 . S
C1251 C210 1.412 . S
C1265 C224 1.432 . S
C1271 C280 1.428 . S
C1285 C238 1.431 . S
C1291 C294 1.429 . S
