# Generated by pormake.
# Topology vbx, (6)-cn, num edge types: 1
# Building blocks:
#     Node 0, Type 0, BuildingBlock: IZENUY_clean_sbu_0, # of connection points: 6
#     Node 1, Type 0, BuildingBlock: IZENUY_clean_sbu_0, # of connection points: 6
#     Node 2, Type 0, BuildingBlock: IZENUY_clean_sbu_0, # of connection points: 6
#     Node 3, Type 0, BuildingBlock: IZENUY_clean_sbu_0, # of connection points: 6
#     Node 4, Type 0, BuildingBlock: IZENUY_clean_sbu_0, # of connection points: 6
#     Node 5, Type 0, BuildingBlock: IZENUY_clean_sbu_0, # of connection points: 6
#     Node 6, Type 0, BuildingBlock: IZENUY_clean_sbu_0, # of connection points: 6
#     Node 7, Type 0, BuildingBlock: IZENUY_clean_sbu_0, # of connection points: 6
#     Node 8, Type 0, BuildingBlock: IZENUY_clean_sbu_0, # of connection points: 6
#     Node 9, Type 0, BuildingBlock: IZENUY_clean_sbu_0, # of connection points: 6
#     Node 10, Type 0, BuildingBlock: IZENUY_clean_sbu_0, # of connection points: 6
#     Node 11, Type 0, BuildingBlock: IZENUY_clean_sbu_0, # of connection points: 6
#     Node 12, Type 0, BuildingBlock: IZENUY_clean_sbu_0, # of connection points: 6
#     Node 13, Type 0, BuildingBlock: IZENUY_clean_sbu_0, # of connection points: 6
#     Node 14, Type 0, BuildingBlock: IZENUY_clean_sbu_0, # of connection points: 6
#     Node 15, Type 0, BuildingBlock: IZENUY_clean_sbu_0, # of connection points: 6
#     Edge 16, Type (0, 0), BuildingBlock: TEMPAE_clean_linker_10, # of connection points: 2
#     Edge 17, Type (0, 0), BuildingBlock: TEMPAE_clean_linker_10, # of connection points: 2
#     Edge 18, Type (0, 0), BuildingBlock: TEMPAE_clean_linker_10, # of connection points: 2
#     Edge 19, Type (0, 0), BuildingBlock: TEMPAE_clean_linker_10, # of connection points: 2
#     Edge 20, Type (0, 0), BuildingBlock: TEMPAE_clean_linker_10, # of connection points: 2
#     Edge 21, Type (0, 0), BuildingBlock: TEMPAE_clean_linker_10, # of connection points: 2
#     Edge 22, Type (0, 0), BuildingBlock: TEMPAE_clean_linker_10, # of connection points: 2
#     Edge 23, Type (0, 0), BuildingBlock: TEMPAE_clean_linker_10, # of connection points: 2
#     Edge 24, Type (0, 0), BuildingBlock: TEMPAE_clean_linker_10, # of connection points: 2
#     Edge 25, Type (0, 0), BuildingBlock: TEMPAE_clean_linker_10, # of connection points: 2
#     Edge 26, Type (0, 0), BuildingBlock: TEMPAE_clean_linker_10, # of connection points: 2
#     Edge 27, Type (0, 0), BuildingBlock: TEMPAE_clean_linker_10, # of connection points: 2
#     Edge 28, Type (0, 0), BuildingBlock: TEMPAE_clean_linker_10, # of connection points: 2
#     Edge 29, Type (0, 0), BuildingBlock: TEMPAE_clean_linker_10, # of connection points: 2
#     Edge 30, Type (0, 0), BuildingBlock: TEMPAE_clean_linker_10, # of connection points: 2
#     Edge 31, Type (0, 0), BuildingBlock: TEMPAE_clean_linker_10, # of connection points: 2
#     Edge 32, Type (0, 0), BuildingBlock: TEMPAE_clean_linker_10, # of connection points: 2
#     Edge 33, Type (0, 0), BuildingBlock: TEMPAE_clean_linker_10, # of connection points: 2
#     Edge 34, Type (0, 0), BuildingBlock: TEMPAE_clean_linker_10, # of connection points: 2
#     Edge 35, Type (0, 0), BuildingBlock: TEMPAE_clean_linker_10, # of connection points: 2
#     Edge 36, Type (0, 0), BuildingBlock: TEMPAE_clean_linker_10, # of connection points: 2
#     Edge 37, Type (0, 0), BuildingBlock: TEMPAE_clean_linker_10, # of connection points: 2
#     Edge 38, Type (0, 0), BuildingBlock: TEMPAE_clean_linker_10, # of connection points: 2
#     Edge 39, Type (0, 0), BuildingBlock: TEMPAE_clean_linker_10, # of connection points: 2
#     Edge 40, Type (0, 0), BuildingBlock: TEMPAE_clean_linker_10, # of connection points: 2
#     Edge 41, Type (0, 0), BuildingBlock: TEMPAE_clean_linker_10, # of connection points: 2
#     Edge 42, Type (0, 0), BuildingBlock: TEMPAE_clean_linker_10, # of connection points: 2
#     Edge 43, Type (0, 0), BuildingBlock: TEMPAE_clean_linker_10, # of connection points: 2
#     Edge 44, Type (0, 0), BuildingBlock: TEMPAE_clean_linker_10, # of connection points: 2
#     Edge 45, Type (0, 0), BuildingBlock: TEMPAE_clean_linker_10, # of connection points: 2
#     Edge 46, Type (0, 0), BuildingBlock: TEMPAE_clean_linker_10, # of connection points: 2
#     Edge 47, Type (0, 0), BuildingBlock: TEMPAE_clean_linker_10, # of connection points: 2
#     Edge 48, Type (0, 0), BuildingBlock: TEMPAE_clean_linker_10, # of connection points: 2
#     Edge 49, Type (0, 0), BuildingBlock: TEMPAE_clean_linker_10, # of connection points: 2
#     Edge 50, Type (0, 0), BuildingBlock: TEMPAE_clean_linker_10, # of connection points: 2
#     Edge 51, Type (0, 0), BuildingBlock: TEMPAE_clean_linker_10, # of connection points: 2
#     Edge 52, Type (0, 0), BuildingBlock: TEMPAE_clean_linker_10, # of connection points: 2
#     Edge 53, Type (0, 0), BuildingBlock: TEMPAE_clean_linker_10, # of connection points: 2
#     Edge 54, Type (0, 0), BuildingBlock: TEMPAE_clean_linker_10, # of connection points: 2
#     Edge 55, Type (0, 0), BuildingBlock: TEMPAE_clean_linker_10, # of connection points: 2
#     Edge 56, Type (0, 0), BuildingBlock: TEMPAE_clean_linker_10, # of connection points: 2
#     Edge 57, Type (0, 0), BuildingBlock: TEMPAE_clean_linker_10, # of connection points: 2
#     Edge 58, Type (0, 0), BuildingBlock: TEMPAE_clean_linker_10, # of connection points: 2
#     Edge 59, Type (0, 0), BuildingBlock: TEMPAE_clean_linker_10, # of connection points: 2
#     Edge 60, Type (0, 0), BuildingBlock: TEMPAE_clean_linker_10, # of connection points: 2
#     Edge 61, Type (0, 0), BuildingBlock: TEMPAE_clean_linker_10, # of connection points: 2
#     Edge 62, Type (0, 0), BuildingBlock: TEMPAE_clean_linker_10, # of connection points: 2
#     Edge 63, Type (0, 0), BuildingBlock: TEMPAE_clean_linker_10, # of connection points: 2
# Relax obj value: 0.242
# Max RMSD: 0.243
# Mean RMSD: 0.243
data_MOF--net-vbx--node1-IZENUY_clean_sbu_0--edge1-TEMPAE_clean_linker_10
_symmetry_space_group_name_H-M    P1
_symmetry_Int_Tables_number       1
_symmetry_cell_setting            triclinic
loop_
_symmetry_equiv_pos_as_xyz
'x, y, z'
_cell_length_a     46.577192
_cell_length_b     27.939825
_cell_length_c     57.126532
_cell_angle_alpha  89.96458
_cell_angle_beta   90.108521
_cell_angle_gamma 90.045067
loop_
_atom_site_label
_atom_site_type_symbol
_atom_site_fract_x
_atom_site_fract_y
_atom_site_fract_z
_atom_type_partial_charge
Fe0 Fe 0.36049 0.42827 0.11827 0.0
Fe1 Fe 0.36782 0.33861 0.08841 0.0
O2 O 0.34617 0.37419 0.10706 0.0
Fe3 Fe 0.31067 0.35667 0.11441 0.0
O4 O 0.29516 0.41231 0.10372 0.0
O5 O 0.32613 0.4597 0.12089 0.0
O6 O 0.36323 0.45271 0.089 0.0
C7 C 0.37721 0.4331 0.07271 0.0
C8 C 0.33517 0.39021 0.15701 0.0
O9 O 0.38621 0.39039 0.0749 0.0
C10 C 0.33536 0.26802 0.11378 0.0
O11 O 0.39803 0.40836 0.11798 0.0
O12 O 0.39557 0.33161 0.11079 0.0
O13 O 0.31335 0.37944 0.14465 0.0
O14 O 0.35801 0.40573 0.14782 0.0
C15 C 0.31608 0.33233 0.06609 0.0
O16 O 0.35224 0.28062 0.09749 0.0
O17 O 0.32242 0.29918 0.1257 0.0
C18 C 0.40925 0.36716 0.11873 0.0
O19 O 0.34225 0.34322 0.06498 0.0
O20 O 0.30271 0.33088 0.08542 0.0
C21 C 0.30242 0.45334 0.11063 0.0
Fe22 Fe 0.65944 0.61366 0.61436 0.0
Fe23 Fe 0.6557 0.70052 0.58181 0.0
O24 O 0.67523 0.66592 0.60243 0.0
Fe25 Fe 0.71047 0.68307 0.61061 0.0
O26 O 0.72572 0.62648 0.60098 0.0
O27 O 0.69327 0.58054 0.61756 0.0
O28 O 0.65657 0.58703 0.58554 0.0
C29 C 0.64392 0.60584 0.56833 0.0
C30 C 0.68493 0.65217 0.65309 0.0
O31 O 0.63609 0.64923 0.5692 0.0
C32 C 0.68686 0.77163 0.60777 0.0
O33 O 0.62246 0.63727 0.61339 0.0
O34 O 0.62741 0.71247 0.60269 0.0
O35 O 0.70692 0.66195 0.64092 0.0
O36 O 0.66204 0.63704 0.6438 0.0
C37 C 0.7082 0.70263 0.56171 0.0
O38 O 0.67235 0.75845 0.59006 0.0
O39 O 0.6982 0.74079 0.62094 0.0
C40 C 0.6128 0.67971 0.61214 0.0
O41 O 0.68241 0.69015 0.55968 0.0
O42 O 0.7197 0.70803 0.58168 0.0
C43 C 0.71748 0.58581 0.60786 0.0
Fe44 Fe 0.31834 0.67765 0.87567 0.0
Fe45 Fe 0.36965 0.60912 0.87143 0.0
O46 O 0.35384 0.66125 0.8834 0.0
Fe47 Fe 0.3739 0.69613 0.90349 0.0
O48 O 0.34788 0.68634 0.92612 0.0
O49 O 0.30934 0.70151 0.90496 0.0
O50 O 0.30365 0.62016 0.88515 0.0
C51 C 0.31216 0.57995 0.87788 0.0
C52 C 0.34174 0.76688 0.87836 0.0
O53 O 0.33609 0.57596 0.86775 0.0
C54 C 0.41635 0.67449 0.87318 0.0
O55 O 0.32203 0.65741 0.84518 0.0
O56 O 0.36712 0.63306 0.84211 0.0
O57 O 0.35708 0.75371 0.89554 0.0
O58 O 0.32968 0.73627 0.86549 0.0
C59 C 0.38513 0.60159 0.91731 0.0
O60 O 0.40662 0.63212 0.87282 0.0
O61 O 0.4016 0.70788 0.88185 0.0
C62 C 0.34409 0.64802 0.83293 0.0
O63 O 0.37223 0.58255 0.90026 0.0
O64 O 0.39355 0.64471 0.916 0.0
C65 C 0.32182 0.69763 0.92468 0.0
Fe66 Fe 0.66494 0.42975 0.36785 0.0
Fe67 Fe 0.65716 0.3405 0.39781 0.0
O68 O 0.67907 0.37586 0.37933 0.0
Fe69 Fe 0.71467 0.35823 0.3725 0.0
O70 O 0.73001 0.41387 0.38343 0.0
O71 O 0.69944 0.46113 0.36563 0.0
O72 O 0.66177 0.45443 0.39701 0.0
C73 C 0.64766 0.43493 0.41326 0.0
C74 C 0.69102 0.39171 0.32949 0.0
O75 O 0.63841 0.39236 0.41095 0.0
C76 C 0.68996 0.26982 0.37285 0.0
O77 O 0.62733 0.40959 0.36776 0.0
O78 O 0.62998 0.33288 0.37512 0.0
O79 O 0.71266 0.38125 0.34216 0.0
O80 O 0.66796 0.40696 0.33841 0.0
C81 C 0.70807 0.33334 0.42086 0.0
O82 O 0.67306 0.28239 0.38914 0.0
O83 O 0.70289 0.30106 0.36095 0.0
C84 C 0.61628 0.36818 0.36699 0.0
O85 O 0.68223 0.34616 0.4214 0.0
O86 O 0.72194 0.33177 0.40171 0.0
C87 C 0.72291 0.45487 0.37631 0.0
Fe88 Fe 0.67466 0.69896 0.90215 0.0
Fe89 Fe 0.67353 0.61622 0.86729 0.0
O90 O 0.69168 0.66545 0.87985 0.0
Fe91 Fe 0.72681 0.68048 0.87054 0.0
O92 O 0.7387 0.70122 0.89962 0.0
O93 O 0.70251 0.68344 0.92276 0.0
O94 O 0.65404 0.64825 0.914 0.0
C95 C 0.66046 0.60427 0.91342 0.0
C96 C 0.70593 0.77029 0.87681 0.0
O97 O 0.67178 0.58636 0.89544 0.0
C98 C 0.69737 0.65696 0.8286 0.0
O99 O 0.64553 0.71606 0.88284 0.0
O100 O 0.63758 0.64269 0.87045 0.0
O101 O 0.71575 0.74057 0.86225 0.0
O102 O 0.69263 0.75584 0.89483 0.0
C103 C 0.73073 0.58262 0.87099 0.0
O104 O 0.67469 0.64357 0.83867 0.0
O105 O 0.72066 0.66244 0.83987 0.0
C106 C 0.62962 0.68587 0.87272 0.0
O107 O 0.70604 0.58067 0.86171 0.0
O108 O 0.74065 0.62183 0.87835 0.0
C109 C 0.72858 0.69368 0.9199 0.0
Fe110 Fe 0.35537 0.31996 0.40213 0.0
Fe111 Fe 0.35438 0.41454 0.37421 0.0
O112 O 0.3374 0.3605 0.3831 0.0
Fe113 Fe 0.30218 0.34663 0.37318 0.0
O114 O 0.28827 0.3453 0.40309 0.0
O115 O 0.3228 0.29881 0.41622 0.0
O116 O 0.35772 0.36466 0.42479 0.0
C117 C 0.36744 0.40651 0.42256 0.0
C118 C 0.33007 0.25565 0.37309 0.0
O119 O 0.37185 0.42504 0.40262 0.0
C120 C 0.32723 0.37985 0.33296 0.0
O121 O 0.39158 0.33396 0.39201 0.0
O122 O 0.38559 0.38311 0.36251 0.0
O123 O 0.3078 0.28162 0.37322 0.0
O124 O 0.35368 0.27153 0.38085 0.0
C125 C 0.29915 0.4479 0.37921 0.0
O126 O 0.33932 0.4131 0.34446 0.0
O127 O 0.31395 0.34638 0.34308 0.0
C128 C 0.4012 0.35473 0.37405 0.0
O129 O 0.32514 0.45144 0.38507 0.0
O130 O 0.28965 0.40905 0.37084 0.0
C131 C 0.29812 0.31687 0.41836 0.0
Fe132 Fe 0.6712 0.42588 0.11229 0.0
Fe133 Fe 0.7237 0.35844 0.11251 0.0
O134 O 0.68837 0.37242 0.10285 0.0
Fe135 Fe 0.67042 0.33249 0.08348 0.0
O136 O 0.66807 0.37805 0.06118 0.0
O137 O 0.65386 0.43754 0.08386 0.0
O138 O 0.70034 0.46364 0.10188 0.0
C139 C 0.72644 0.46 0.10737 0.0
C140 C 0.6245 0.36559 0.11177 0.0
O141 O 0.7362 0.42085 0.11517 0.0
C142 C 0.6958 0.26737 0.11212 0.0
O143 O 0.68619 0.42323 0.1421 0.0
O144 O 0.71222 0.35722 0.14269 0.0
O145 O 0.63421 0.34588 0.0936 0.0
O146 O 0.63999 0.39363 0.12362 0.0
C147 C 0.72761 0.3298 0.06717 0.0
O148 O 0.71807 0.29342 0.11212 0.0
O149 O 0.67217 0.28329 0.10439 0.0
C150 C 0.69876 0.3899 0.1532 0.0
O151 O 0.73752 0.35794 0.08253 0.0
O152 O 0.70289 0.3119 0.06927 0.0
C153 C 0.65837 0.41981 0.06375 0.0
Fe154 Fe 0.30042 0.66882 0.61588 0.0
Fe155 Fe 0.35351 0.68509 0.58485 0.0
O156 O 0.33524 0.65191 0.60659 0.0
Fe157 Fe 0.35209 0.60102 0.61881 0.0
O158 O 0.31877 0.56795 0.62476 0.0
O159 O 0.28524 0.61089 0.60791 0.0
O160 O 0.28911 0.69064 0.58683 0.0
C161 C 0.29955 0.68411 0.56657 0.0
C162 C 0.32976 0.64341 0.65761 0.0
O163 O 0.32553 0.67314 0.56378 0.0
C164 C 0.39834 0.66629 0.61358 0.0
O165 O 0.31249 0.72836 0.62439 0.0
O166 O 0.33721 0.74299 0.59251 0.0
O167 O 0.35202 0.62829 0.64747 0.0
O168 O 0.30643 0.6501 0.6465 0.0
C169 C 0.36461 0.58951 0.57277 0.0
O170 O 0.38295 0.69884 0.60479 0.0
O171 O 0.38886 0.6239 0.61512 0.0
C172 C 0.32342 0.7578 0.61017 0.0
O173 O 0.37244 0.63296 0.57256 0.0
O174 O 0.35256 0.57184 0.59053 0.0
C175 C 0.29428 0.57109 0.61529 0.0
Fe176 Fe 0.86104 0.9344 0.11526 0.0
Fe177 Fe 0.8675 0.84428 0.08562 0.0
O178 O 0.84629 0.88037 0.10434 0.0
Fe179 Fe 0.81082 0.86334 0.11207 0.0
O180 O 0.79545 0.91899 0.10127 0.0
O181 O 0.82682 0.96634 0.11798 0.0
O182 O 0.86359 0.95843 0.08587 0.0
C183 C 0.87733 0.93841 0.06956 0.0
C184 C 0.83597 0.89725 0.15438 0.0
O185 O 0.88608 0.89558 0.07183 0.0
C186 C 0.83514 0.77442 0.11149 0.0
O187 O 0.89851 0.91385 0.11478 0.0
O188 O 0.89536 0.83704 0.10784 0.0
O189 O 0.81395 0.88657 0.14222 0.0
O190 O 0.85876 0.91234 0.14493 0.0
C191 C 0.81552 0.83807 0.06378 0.0
O192 O 0.85175 0.78668 0.09497 0.0
O193 O 0.82249 0.80585 0.12347 0.0
C194 C 0.90935 0.87235 0.11563 0.0
O195 O 0.84167 0.84904 0.06238 0.0
O196 O 0.80242 0.83706 0.08324 0.0
C197 C 0.80295 0.96008 0.10793 0.0
Fe198 Fe 0.15885 0.09992 0.61781 0.0
Fe199 Fe 0.15327 0.18708 0.58585 0.0
O200 O 0.17413 0.15227 0.60547 0.0
Fe201 Fe 0.20988 0.16882 0.61239 0.0
O202 O 0.22431 0.11138 0.6027 0.0
O203 O 0.19259 0.06702 0.62086 0.0
O204 O 0.15548 0.07338 0.58905 0.0
C205 C 0.14211 0.09237 0.57224 0.0
C206 C 0.1854 0.13938 0.65569 0.0
O207 O 0.13357 0.13539 0.57368 0.0
C208 C 0.1861 0.25804 0.61032 0.0
O209 O 0.12175 0.12233 0.61719 0.0
O210 O 0.12605 0.19811 0.60802 0.0
O211 O 0.2071 0.14884 0.64303 0.0
O212 O 0.16219 0.12396 0.647 0.0
C213 C 0.20483 0.18856 0.56343 0.0
O214 O 0.17005 0.2449 0.59357 0.0
O215 O 0.19895 0.22748 0.62271 0.0
C216 C 0.11163 0.16442 0.61688 0.0
O217 O 0.17859 0.17806 0.56263 0.0
O218 O 0.218 0.19231 0.58286 0.0
C219 C 0.21616 0.07111 0.61018 0.0
Fe220 Fe 0.87321 0.20154 0.90221 0.0
Fe221 Fe 0.81843 0.1802 0.87407 0.0
O222 O 0.85441 0.16642 0.88146 0.0
Fe223 Fe 0.87171 0.11681 0.86849 0.0
O224 O 0.8758 0.08844 0.89684 0.0
O225 O 0.89467 0.15138 0.91378 0.0
O226 O 0.84748 0.18746 0.92452 0.0
C227 C 0.82127 0.19765 0.92328 0.0
C228 C 0.91602 0.18685 0.87108 0.0
O229 O 0.80896 0.20265 0.90355 0.0
C230 C 0.84413 0.15464 0.83071 0.0
O231 O 0.85452 0.25794 0.89493 0.0
O232 O 0.82828 0.23976 0.86423 0.0
O233 O 0.90787 0.1436 0.86958 0.0
O234 O 0.90049 0.21753 0.8811 0.0
C235 C 0.81511 0.08246 0.87553 0.0
O236 O 0.82201 0.16056 0.84338 0.0
O237 O 0.86789 0.14267 0.83962 0.0
C238 C 0.83954 0.27068 0.87743 0.0
O239 O 0.80573 0.12164 0.88337 0.0
O240 O 0.83897 0.08068 0.86498 0.0
C241 C 0.88782 0.10748 0.9143 0.0
Fe242 Fe 0.16603 0.92271 0.37092 0.0
Fe243 Fe 0.15889 0.83221 0.40027 0.0
O244 O 0.18041 0.86828 0.38168 0.0
Fe245 Fe 0.21579 0.85089 0.37393 0.0
O246 O 0.23152 0.90621 0.38484 0.0
O247 O 0.2004 0.95417 0.36827 0.0
O248 O 0.16364 0.94629 0.40033 0.0
C249 C 0.14973 0.9263 0.41656 0.0
C250 C 0.19087 0.88603 0.3317 0.0
O251 O 0.14072 0.88362 0.41422 0.0
C252 C 0.19094 0.76228 0.37429 0.0
O253 O 0.12847 0.90286 0.37134 0.0
O254 O 0.13091 0.82589 0.37802 0.0
O255 O 0.21278 0.87452 0.34381 0.0
O256 O 0.16815 0.90112 0.34121 0.0
C257 C 0.2109 0.82513 0.4222 0.0
O258 O 0.17424 0.77453 0.39073 0.0
O259 O 0.20383 0.79368 0.36243 0.0
C260 C 0.11723 0.86168 0.37038 0.0
O261 O 0.18474 0.836 0.42356 0.0
O262 O 0.22406 0.82432 0.40275 0.0
C263 C 0.22421 0.94747 0.37831 0.0
Fe264 Fe 0.17401 0.19592 0.9032 0.0
Fe265 Fe 0.174 0.10968 0.87048 0.0
O266 O 0.19172 0.16063 0.88198 0.0
Fe267 Fe 0.22681 0.17582 0.87248 0.0
O268 O 0.23846 0.19864 0.90121 0.0
O269 O 0.20174 0.18394 0.92442 0.0
O270 O 0.15437 0.14569 0.9163 0.0
C271 C 0.16113 0.10183 0.91676 0.0
C272 C 0.20517 0.266 0.87701 0.0
O273 O 0.17237 0.08203 0.89919 0.0
C274 C 0.19738 0.1486 0.83106 0.0
O275 O 0.14482 0.20976 0.88305 0.0
O276 O 0.13775 0.1346 0.87354 0.0
O277 O 0.21574 0.2355 0.86318 0.0
O278 O 0.19114 0.25253 0.89478 0.0
C279 C 0.23157 0.0779 0.87436 0.0
O280 O 0.17486 0.13498 0.84136 0.0
O281 O 0.22064 0.15567 0.84217 0.0
C282 C 0.12904 0.17747 0.87449 0.0
O283 O 0.20681 0.07475 0.86532 0.0
O284 O 0.24111 0.11781 0.88117 0.0
C285 C 0.22792 0.19324 0.9215 0.0
Fe286 Fe 0.85427 0.82736 0.40026 0.0
Fe287 Fe 0.85588 0.92158 0.37229 0.0
O288 O 0.83769 0.86852 0.38084 0.0
Fe289 Fe 0.80238 0.85638 0.37067 0.0
O290 O 0.78817 0.85732 0.40059 0.0
O291 O 0.82095 0.80772 0.41335 0.0
O292 O 0.85607 0.87227 0.4229 0.0
C293 C 0.86638 0.91383 0.42106 0.0
C294 C 0.82875 0.76406 0.37097 0.0
O295 O 0.87273 0.93135 0.4012 0.0
C296 C 0.82895 0.88747 0.33065 0.0
O297 O 0.89105 0.83981 0.39118 0.0
O298 O 0.88692 0.88848 0.36131 0.0
O299 O 0.80681 0.79096 0.37112 0.0
O300 O 0.85255 0.77904 0.37889 0.0
C301 C 0.80094 0.95761 0.37627 0.0
O302 O 0.84159 0.92017 0.34221 0.0
O303 O 0.81468 0.85491 0.34068 0.0
C304 C 0.90164 0.85956 0.37332 0.0
O305 O 0.8269 0.9602 0.38244 0.0
O306 O 0.79111 0.91918 0.36777 0.0
C307 C 0.79816 0.83089 0.41664 0.0
Fe308 Fe 0.22414 0.85216 0.11556 0.0
Fe309 Fe 0.1718 0.82433 0.08625 0.0
O310 O 0.18899 0.86524 0.10542 0.0
Fe311 Fe 0.17132 0.9189 0.11383 0.0
O312 O 0.20055 0.95662 0.10343 0.0
O313 O 0.2363 0.91479 0.1177 0.0
O314 O 0.2384 0.8508 0.08566 0.0
C315 C 0.22874 0.82216 0.07041 0.0
C316 C 0.19815 0.88511 0.1555 0.0
O317 O 0.20465 0.80251 0.07319 0.0
C318 C 0.12487 0.85862 0.11306 0.0
O319 O 0.21854 0.78698 0.11585 0.0
O320 O 0.17266 0.77657 0.10794 0.0
O321 O 0.18569 0.9179 0.14389 0.0
O322 O 0.21208 0.85224 0.14554 0.0
C323 C 0.16098 0.9105 0.06519 0.0
O324 O 0.13515 0.83865 0.09515 0.0
O325 O 0.1401 0.8867 0.1251 0.0
C326 C 0.19619 0.76095 0.11607 0.0
O327 O 0.17103 0.86883 0.06348 0.0
O328 O 0.15441 0.92841 0.08489 0.0
C329 C 0.22656 0.95352 0.10938 0.0
Fe330 Fe 0.79892 0.18408 0.61512 0.0
Fe331 Fe 0.84914 0.21172 0.58331 0.0
O332 O 0.83358 0.17187 0.60388 0.0
Fe333 Fe 0.8523 0.11964 0.61279 0.0
O334 O 0.82337 0.08051 0.60317 0.0
O335 O 0.78824 0.12111 0.61903 0.0
O336 O 0.78305 0.18141 0.58593 0.0
C337 C 0.79146 0.20781 0.56935 0.0
C338 C 0.82736 0.15539 0.65463 0.0
O339 O 0.81512 0.22964 0.57037 0.0
C340 C 0.89719 0.18272 0.61057 0.0
O341 O 0.80288 0.24943 0.61352 0.0
O342 O 0.84792 0.2618 0.60367 0.0
O343 O 0.83869 0.12155 0.64304 0.0
O344 O 0.81291 0.18767 0.64461 0.0
C345 C 0.86166 0.1244 0.56389 0.0
O346 O 0.88637 0.20056 0.59223 0.0
O347 O 0.8829 0.15425 0.62311 0.0
C348 C 0.82453 0.2768 0.61218 0.0
O349 O 0.85042 0.16509 0.5615 0.0
O350 O 0.86891 0.10891 0.58394 0.0
C351 C 0.79765 0.08301 0.60987 0.0
C352 C 0.30679 0.20244 0.13314 0.0
C353 C 0.32507 0.21732 0.11499 0.0
C354 C 0.29257 0.15793 0.13231 0.0
C355 C 0.29645 0.12729 0.1128 0.0
C356 C 0.31579 0.14116 0.09489 0.0
C357 C 0.3299 0.18576 0.09624 0.0
C358 C 0.27239 0.14461 0.15192 0.0
C359 C 0.32057 0.1099 0.07371 0.0
C360 C 0.27273 0.99668 0.11904 0.0
C361 C 0.2452 0.99721 0.10887 0.0
C362 C 0.28979 0.03835 0.12009 0.0
C363 C 0.27927 0.08191 0.11069 0.0
C364 C 0.25184 0.08243 0.09986 0.0
C365 C 0.23517 0.0403 0.09914 0.0
C366 C 0.31888 0.03597 0.13171 0.0
C367 C 0.23981 0.12782 0.08936 0.0
H368 H 0.30278 0.22638 0.1477 0.0
H369 H 0.34365 0.19684 0.08193 0.0
H370 H 0.25007 0.1429 0.14513 0.0
H371 H 0.27779 0.10861 0.15884 0.0
H372 H 0.27311 0.17072 0.16657 0.0
H373 H 0.33808 0.12363 0.06236 0.0
H374 H 0.32588 0.07284 0.07917 0.0
H375 H 0.30054 0.10815 0.06319 0.0
H376 H 0.28083 0.96378 0.12663 0.0
H377 H 0.21407 0.04131 0.09113 0.0
H378 H 0.31924 0.05973 0.14727 0.0
H379 H 0.33569 0.04904 0.11953 0.0
H380 H 0.3245 0.9991 0.13736 0.0
H381 H 0.23735 0.15534 0.10321 0.0
H382 H 0.21862 0.12204 0.08087 0.0
H383 H 0.2549 0.14243 0.07615 0.0
C384 C 0.71333 0.83672 0.62911 0.0
C385 C 0.69717 0.82207 0.60959 0.0
C386 C 0.72783 0.88089 0.62936 0.0
C387 C 0.72626 0.91146 0.6096 0.0
C388 C 0.70892 0.89797 0.59027 0.0
C389 C 0.69449 0.85363 0.59054 0.0
C390 C 0.74591 0.89383 0.65039 0.0
C391 C 0.70641 0.92966 0.56896 0.0
C392 C 0.75063 0.04107 0.61735 0.0
C393 C 0.77896 0.03959 0.60893 0.0
C394 C 0.73309 0.99998 0.61733 0.0
C395 C 0.74404 0.95614 0.60871 0.0
C396 C 0.77243 0.95456 0.59983 0.0
C397 C 0.78949 0.99617 0.60002 0.0
C398 C 0.70298 1.00333 0.62691 0.0
C399 C 0.785 0.90864 0.59044 0.0
H400 H 0.71554 0.81279 0.64395 0.0
H401 H 0.68224 0.84275 0.5753 0.0
H402 H 0.7689 0.89479 0.64532 0.0
H403 H 0.74018 0.93004 0.65681 0.0
H404 H 0.74331 0.86788 0.66498 0.0
H405 H 0.69309 0.91318 0.55496 0.0
H406 H 0.6967 0.96442 0.57394 0.0
H407 H 0.72802 0.93744 0.56175 0.0
H408 H 0.74216 0.07433 0.6242 0.0
H409 H 0.81125 0.99447 0.59339 0.0
H410 H 0.70076 0.97953 0.64235 0.0
H411 H 0.68729 0.99093 0.6136 0.0
H412 H 0.69729 0.04037 0.63221 0.0
H413 H 0.78628 0.88168 0.60468 0.0
H414 H 0.80682 0.91383 0.58304 0.0
H415 H 0.77088 0.89365 0.57662 0.0
C416 C 0.32231 0.83713 0.85594 0.0
C417 C 0.33143 0.81714 0.87721 0.0
C418 C 0.3084 0.88186 0.85527 0.0
C419 C 0.30261 0.90653 0.87645 0.0
C420 C 0.31236 0.8869 0.89792 0.0
C421 C 0.32698 0.84287 0.898 0.0
C422 C 0.29891 0.90184 0.83196 0.0
C423 C 0.30591 0.91098 0.92098 0.0
C424 C 0.28008 0.0381 0.87507 0.0
C425 C 0.25003 0.03451 0.87541 0.0
C426 C 0.2975 0.99685 0.8752 0.0
C427 C 0.2846 0.95092 0.87628 0.0
C428 C 0.25427 0.94723 0.87718 0.0
C429 C 0.23741 0.98893 0.87643 0.0
C430 C 0.32968 1.00237 0.87383 0.0
C431 C 0.23958 0.89917 0.87898 0.0
H432 H 0.32553 0.81729 0.83986 0.0
H433 H 0.33339 0.82719 0.91457 0.0
H434 H 0.27513 0.90148 0.83089 0.0
H435 H 0.30596 0.93961 0.83017 0.0
H436 H 0.30756 0.88094 0.81702 0.0
H437 H 0.31635 0.89259 0.93599 0.0
H438 H 0.31314 0.94879 0.92063 0.0
H439 H 0.28237 0.91117 0.92395 0.0
H440 H 0.29 0.07317 0.87417 0.0
H441 H 0.21421 0.98585 0.87695 0.0
H442 H 0.33793 0.9833 0.8582 0.0
H443 H 0.33993 0.98584 0.8894 0.0
H444 H 0.3364 0.04048 0.87282 0.0
H445 H 0.24464 0.8772 0.86337 0.0
H446 H 0.21588 0.9025 0.8804 0.0
H447 H 0.24766 0.87948 0.89454 0.0
C448 C 0.75445 1.00021 0.36737 0.0
C449 C 0.78233 1.00128 0.37687 0.0
C450 C 0.73714 0.04154 0.36662 0.0
C451 C 0.74776 0.08534 0.37565 0.0
C452 C 0.7756 0.08647 0.38576 0.0
C453 C 0.79251 0.04462 0.38622 0.0
C454 C 0.70763 0.03849 0.35576 0.0
C455 C 0.78776 0.1322 0.39578 0.0
C456 C 0.71839 0.20463 0.35325 0.0
C457 C 0.7006 0.21937 0.37173 0.0
C458 C 0.73312 0.16062 0.35401 0.0
C459 C 0.73023 0.13033 0.37379 0.0
C460 C 0.71138 0.14402 0.39207 0.0
C461 C 0.69675 0.18814 0.39078 0.0
C462 C 0.75272 0.14746 0.33401 0.0
C463 C 0.70765 0.11308 0.41352 0.0
H464 H 0.7462 0.96709 0.36012 0.0
H465 H 0.81389 0.04604 0.39371 0.0
H466 H 0.69122 0.05129 0.36834 0.0
H467 H 0.70651 0.06213 0.34017 0.0
H468 H 0.70203 1.00147 0.35032 0.0
H469 H 0.80925 0.12686 0.40384 0.0
H470 H 0.78964 0.1595 0.38176 0.0
H471 H 0.77305 0.14682 0.40925 0.0
H472 H 0.72164 0.22834 0.33846 0.0
H473 H 0.68341 0.19918 0.40533 0.0
H474 H 0.7473 0.11128 0.32733 0.0
H475 H 0.77526 0.14624 0.3403 0.0
H476 H 0.75136 0.17337 0.3193 0.0
H477 H 0.70238 0.0758 0.40838 0.0
H478 H 0.69049 0.12664 0.42525 0.0
H479 H 0.72808 0.11192 0.42351 0.0
C480 C 0.76703 0.04162 0.87682 0.0
C481 C 0.7971 0.03867 0.87669 0.0
C482 C 0.74995 1.00001 0.87659 0.0
C483 C 0.76325 0.95439 0.87682 0.0
C484 C 0.79361 0.95134 0.87735 0.0
C485 C 0.81013 0.99344 0.87697 0.0
C486 C 0.7177 1.00482 0.87567 0.0
C487 C 0.80869 0.90354 0.87831 0.0
C488 C 0.72188 0.84462 0.8974 0.0
C489 C 0.71688 0.82023 0.87628 0.0
C490 C 0.73646 0.88865 0.89781 0.0
C491 C 0.74559 0.90968 0.87652 0.0
C492 C 0.73936 0.88636 0.85506 0.0
C493 C 0.72546 0.84159 0.85521 0.0
C494 C 0.74329 0.91149 0.92113 0.0
C495 C 0.74825 0.90794 0.83195 0.0
H496 H 0.75685 0.07649 0.87646 0.0
H497 H 0.83336 0.99096 0.87712 0.0
H498 H 0.70927 0.98676 0.85977 0.0
H499 H 0.70789 0.98686 0.89102 0.0
H500 H 0.71067 0.04281 0.87542 0.0
H501 H 0.83239 0.90736 0.87953 0.0
H502 H 0.80108 0.88273 0.89365 0.0
H503 H 0.80347 0.8824 0.86243 0.0
H504 H 0.71577 0.82806 0.91382 0.0
H505 H 0.72173 0.82289 0.83886 0.0
H506 H 0.73454 0.94837 0.92175 0.0
H507 H 0.76691 0.91426 0.92338 0.0
H508 H 0.73442 0.89082 0.93609 0.0
H509 H 0.74085 0.94561 0.83077 0.0
H510 H 0.73949 0.88772 0.81679 0.0
H511 H 0.77201 0.90829 0.83066 0.0
C512 C 0.27349 0.98233 0.37348 0.0
C513 C 0.24463 0.98794 0.37985 0.0
C514 C 0.29199 0.02217 0.37203 0.0
C515 C 0.28152 0.06834 0.37774 0.0
C516 C 0.25275 0.07355 0.38539 0.0
C517 C 0.23456 0.03346 0.38594 0.0
C518 C 0.32227 1.01519 0.36336 0.0
C519 C 0.24089 0.12175 0.39243 0.0
C520 C 0.32966 0.17498 0.39131 0.0
C521 C 0.32524 0.20357 0.37146 0.0
C522 C 0.31681 0.12954 0.3932 0.0
C523 C 0.29978 0.11188 0.37451 0.0
C524 C 0.29739 0.13908 0.35363 0.0
C525 C 0.30967 0.185 0.35254 0.0
C526 C 0.31931 0.10252 0.416 0.0
C527 C 0.28005 0.12127 0.33305 0.0
H528 H 0.28121 0.94717 0.36853 0.0
H529 H 0.21227 0.03773 0.39101 0.0
H530 H 0.32483 0.03331 0.3462 0.0
H531 H 0.33785 0.03179 0.37562 0.0
H532 H 0.32778 0.97675 0.36124 0.0
H533 H 0.219 0.11898 0.4 0.0
H534 H 0.25521 0.13901 0.40549 0.0
H535 H 0.23993 0.1456 0.37691 0.0
H536 H 0.34102 0.18987 0.40622 0.0
H537 H 0.30587 0.20744 0.33735 0.0
H538 H 0.32475 0.06446 0.41276 0.0
H539 H 0.29832 0.10322 0.42516 0.0
H540 H 0.3358 0.11829 0.42777 0.0
H541 H 0.28536 0.08339 0.32918 0.0
H542 H 0.28382 0.14305 0.31707 0.0
H543 H 0.25685 0.12288 0.33737 0.0
C544 C 0.75342 0.99475 0.11144 0.0
C545 C 0.78267 1.00081 0.10647 0.0
C546 C 0.7348 0.03442 0.11266 0.0
C547 C 0.74557 0.08098 0.10811 0.0
C548 C 0.77484 0.08678 0.10193 0.0
C549 C 0.79309 0.04679 0.1016 0.0
C550 C 0.70394 0.02676 0.11971 0.0
C551 C 0.78708 0.13545 0.09616 0.0
C552 C 0.69793 0.18753 0.09326 0.0
C553 C 0.70071 0.2153 0.11357 0.0
C554 C 0.71119 0.14243 0.09154 0.0
C555 C 0.72692 0.12419 0.11086 0.0
C556 C 0.72759 0.15049 0.13208 0.0
C557 C 0.71501 0.19618 0.13301 0.0
C558 C 0.7106 0.11657 0.06836 0.0
C559 C 0.74342 0.13198 0.15331 0.0
H560 H 0.74537 0.95924 0.11541 0.0
H561 H 0.81567 0.05148 0.09756 0.0
H562 H 0.69988 0.04473 0.1367 0.0
H563 H 0.68929 0.04316 0.10664 0.0
H564 H 0.6985 0.98821 0.12149 0.0
H565 H 0.80955 0.13331 0.08976 0.0
H566 H 0.77379 0.15326 0.08257 0.0
H567 H 0.78669 0.15848 0.11196 0.0
H568 H 0.68756 0.20288 0.078 0.0
H569 H 0.71759 0.21803 0.14856 0.0
H570 H 0.7062 0.0779 0.07086 0.0
H571 H 0.73195 0.11978 0.0599 0.0
H572 H 0.69422 0.13167 0.05628 0.0
H573 H 0.73802 0.09384 0.1565 0.0
H574 H 0.73831 0.15294 0.16929 0.0
H575 H 0.7669 0.13414 0.15021 0.0
C576 C 0.2648 0.03159 0.60951 0.0
C577 C 0.23479 0.02818 0.60827 0.0
C578 C 0.28206 0.99011 0.60993 0.0
C579 C 0.26902 0.94428 0.60852 0.0
C580 C 0.23878 0.94093 0.60635 0.0
C581 C 0.22209 0.98276 0.60654 0.0
C582 C 0.31415 0.99523 0.61255 0.0
C583 C 0.22395 0.89305 0.60408 0.0
C584 C 0.31087 0.83394 0.58947 0.0
C585 C 0.31362 0.80849 0.61059 0.0
C586 C 0.29721 0.87875 0.58862 0.0
C587 C 0.28666 0.89952 0.60951 0.0
C588 C 0.29076 0.87522 0.63107 0.0
C589 C 0.30382 0.82973 0.63132 0.0
C590 C 0.29263 0.90255 0.56516 0.0
C591 C 0.28026 0.89636 0.6538 0.0
H592 H 0.27471 0.06658 0.611 0.0
H593 H 0.19891 0.97993 0.60534 0.0
H594 H 0.32127 0.97753 0.62895 0.0
H595 H 0.32523 0.97706 0.59787 0.0
H596 H 0.32106 0.03329 0.613 0.0
H597 H 0.20045 0.89673 0.60126 0.0
H598 H 0.23314 0.87265 0.58921 0.0
H599 H 0.22755 0.87158 0.62016 0.0
H600 H 0.31795 0.8176 0.57327 0.0
H601 H 0.3058 0.81033 0.64768 0.0
H602 H 0.30137 0.93948 0.56543 0.0
H603 H 0.2693 0.90532 0.56145 0.0
H604 H 0.30292 0.88251 0.55063 0.0
H605 H 0.28763 0.93399 0.65552 0.0
H606 H 0.28787 0.87576 0.66925 0.0
H607 H 0.25645 0.89672 0.65393 0.0
C608 C 0.80617 0.70935 0.13089 0.0
C609 C 0.82479 0.72378 0.11289 0.0
C610 C 0.79199 0.66479 0.13015 0.0
C611 C 0.79631 0.63364 0.11089 0.0
C612 C 0.81599 0.64707 0.09316 0.0
C613 C 0.83003 0.69172 0.09441 0.0
C614 C 0.77139 0.65195 0.14954 0.0
C615 C 0.82124 0.61526 0.07225 0.0
C616 C 0.77245 0.50319 0.11748 0.0
C617 C 0.74516 0.50356 0.10692 0.0
C618 C 0.78947 0.54489 0.11859 0.0
C619 C 0.77917 0.58824 0.10879 0.0
C620 C 0.752 0.58854 0.09753 0.0
C621 C 0.73536 0.54642 0.0968 0.0
C622 C 0.8183 0.54278 0.13066 0.0
C623 C 0.74024 0.63367 0.08657 0.0
H624 H 0.80184 0.73366 0.14524 0.0
H625 H 0.84407 0.70242 0.08023 0.0
H626 H 0.74922 0.65008 0.14246 0.0
H627 H 0.77664 0.61612 0.15675 0.0
H628 H 0.77181 0.67841 0.16405 0.0
H629 H 0.83898 0.62873 0.06106 0.0
H630 H 0.82647 0.57836 0.07802 0.0
H631 H 0.80144 0.61316 0.06147 0.0
H632 H 0.78034 0.47045 0.12537 0.0
H633 H 0.71444 0.54726 0.08845 0.0
H634 H 0.8183 0.56689 0.14608 0.0
H635 H 0.83538 0.55555 0.11867 0.0
H636 H 0.82377 0.50603 0.1366 0.0
H637 H 0.73734 0.66145 0.10023 0.0
H638 H 0.7193 0.62762 0.07769 0.0
H639 H 0.75568 0.64806 0.07358 0.0
C640 C 0.24573 0.53108 0.61519 0.0
C641 C 0.27576 0.52774 0.61414 0.0
C642 C 0.22838 0.48967 0.61502 0.0
C643 C 0.2413 0.44388 0.61307 0.0
C644 C 0.27159 0.44055 0.61139 0.0
C645 C 0.2884 0.48234 0.61227 0.0
C646 C 0.19626 0.49481 0.61731 0.0
C647 C 0.28632 0.39276 0.6086 0.0
C648 C 0.20543 0.32801 0.63302 0.0
C649 C 0.19569 0.30874 0.61178 0.0
C650 C 0.21879 0.37323 0.63388 0.0
C651 C 0.22342 0.39923 0.61288 0.0
C652 C 0.2129 0.38046 0.59146 0.0
C653 C 0.19884 0.33584 0.59123 0.0
C654 C 0.22903 0.39226 0.65717 0.0
C655 C 0.21805 0.40604 0.56856 0.0
H656 H 0.23583 0.56603 0.61675 0.0
H657 H 0.31158 0.47952 0.61117 0.0
H658 H 0.1854 0.47882 0.60189 0.0
H659 H 0.18871 0.47501 0.63299 0.0
H660 H 0.18952 0.53281 0.61887 0.0
H661 H 0.30993 0.39644 0.60648 0.0
H662 H 0.28207 0.37 0.62412 0.0
H663 H 0.27758 0.37372 0.5931 0.0
H664 H 0.20316 0.30719 0.64894 0.0
H665 H 0.1919 0.32082 0.57466 0.0
H666 H 0.22194 0.42987 0.65951 0.0
H667 H 0.25284 0.3921 0.65769 0.0
H668 H 0.22095 0.37057 0.67208 0.0
H669 H 0.21073 0.44372 0.56968 0.0
H670 H 0.20689 0.38843 0.55367 0.0
H671 H 0.24142 0.40675 0.56479 0.0
C672 C 0.73561 0.49347 0.87235 0.0
C673 C 0.74867 0.53872 0.87195 0.0
C674 C 0.75209 0.45141 0.87343 0.0
C675 C 0.78246 0.45447 0.87356 0.0
C676 C 0.79579 0.50007 0.873 0.0
C677 C 0.77874 0.54165 0.8725 0.0
C678 C 0.73695 0.40365 0.8746 0.0
C679 C 0.82807 0.50488 0.87272 0.0
C680 C 0.82326 0.34613 0.89667 0.0
C681 C 0.82883 0.32057 0.87603 0.0
C682 C 0.80867 0.39014 0.89611 0.0
C683 C 0.80011 0.40982 0.87432 0.0
C684 C 0.80695 0.38524 0.85335 0.0
C685 C 0.82081 0.34056 0.85448 0.0
C686 C 0.8011 0.41428 0.91893 0.0
C687 C 0.79876 0.40538 0.82974 0.0
H688 H 0.71237 0.49095 0.8722 0.0
H689 H 0.78899 0.57649 0.8721 0.0
H690 H 0.74278 0.38159 0.85919 0.0
H691 H 0.74394 0.38378 0.89044 0.0
H692 H 0.71321 0.40746 0.87506 0.0
H693 H 0.83513 0.54283 0.87182 0.0
H694 H 0.83736 0.48837 0.88868 0.0
H695 H 0.83698 0.48542 0.85745 0.0
H696 H 0.82887 0.33043 0.91343 0.0
H697 H 0.82497 0.32082 0.83851 0.0
H698 H 0.77741 0.41538 0.92093 0.0
H699 H 0.80886 0.45181 0.91895 0.0
H700 H 0.81036 0.39543 0.93432 0.0
H701 H 0.77505 0.4055 0.82788 0.0
H702 H 0.80801 0.38432 0.8151 0.0
H703 H 0.80616 0.44301 0.8282 0.0
C704 C 0.25336 0.4911 0.36866 0.0
C705 C 0.28041 0.49137 0.37962 0.0
C706 C 0.23638 0.53278 0.36741 0.0
C707 C 0.24649 0.57601 0.37745 0.0
C708 C 0.2734 0.5762 0.38913 0.0
C709 C 0.29001 0.53409 0.39 0.0
C710 C 0.20783 0.53079 0.35489 0.0
C711 C 0.28494 0.6212 0.40036 0.0
C712 C 0.22013 0.6973 0.35515 0.0
C713 C 0.20113 0.71158 0.37289 0.0
C714 C 0.23424 0.65273 0.35603 0.0
C715 C 0.22945 0.62141 0.37517 0.0
C716 C 0.20935 0.63464 0.3926 0.0
C717 C 0.19541 0.67932 0.39122 0.0
C718 C 0.25528 0.64008 0.33694 0.0
C719 C 0.20356 0.6026 0.41335 0.0
H720 H 0.24563 0.45847 0.36055 0.0
H721 H 0.31074 0.53484 0.39865 0.0
H722 H 0.19049 0.54352 0.36662 0.0
H723 H 0.20823 0.555 0.33949 0.0
H724 H 0.20244 0.49409 0.34882 0.0
H725 H 0.30565 0.61506 0.40957 0.0
H726 H 0.28821 0.64912 0.3868 0.0
H727 H 0.2692 0.63549 0.41312 0.0
H728 H 0.22483 0.72175 0.34092 0.0
H729 H 0.18104 0.68988 0.4052 0.0
H730 H 0.25019 0.60431 0.3296 0.0
H731 H 0.27728 0.63818 0.34437 0.0
H732 H 0.25522 0.66668 0.32247 0.0
H733 H 0.19848 0.56575 0.40743 0.0
H734 H 0.18554 0.61591 0.42427 0.0
H735 H 0.22308 0.60043 0.42446 0.0
C736 C 0.26369 0.53989 0.87669 0.0
C737 C 0.29357 0.53689 0.87932 0.0
C738 C 0.24665 0.49815 0.87571 0.0
C739 C 0.25976 0.45255 0.878 0.0
C740 C 0.28982 0.44966 0.8815 0.0
C741 C 0.30633 0.4917 0.88182 0.0
C742 C 0.21475 0.50276 0.87168 0.0
C743 C 0.30466 0.40204 0.88476 0.0
C744 C 0.21706 0.34313 0.89698 0.0
C745 C 0.21542 0.31646 0.87615 0.0
C746 C 0.23066 0.38798 0.89769 0.0
C747 C 0.24231 0.4076 0.87693 0.0
C748 C 0.23944 0.38204 0.85559 0.0
C749 C 0.22639 0.33649 0.8555 0.0
C750 C 0.23394 0.4131 0.92096 0.0
C751 C 0.25116 0.40199 0.83299 0.0
H752 H 0.25378 0.57471 0.87455 0.0
H753 H 0.32941 0.48924 0.88406 0.0
H754 H 0.20869 0.48396 0.85529 0.0
H755 H 0.20281 0.48539 0.88617 0.0
H756 H 0.2078 0.54069 0.87036 0.0
H757 H 0.32797 0.4061 0.88838 0.0
H758 H 0.29473 0.3821 0.89948 0.0
H759 H 0.30199 0.37992 0.86878 0.0
H760 H 0.20906 0.32781 0.91315 0.0
H761 H 0.22526 0.31617 0.83937 0.0
H762 H 0.22548 0.45011 0.91982 0.0
H763 H 0.25704 0.41574 0.92557 0.0
H764 H 0.22266 0.39404 0.93533 0.0
H765 H 0.24382 0.43943 0.83048 0.0
H766 H 0.24446 0.38046 0.81757 0.0
H767 H 0.27496 0.40259 0.83373 0.0
C768 C 0.82892 0.68224 0.38828 0.0
C769 C 0.82326 0.71208 0.36907 0.0
C770 C 0.81614 0.63669 0.39006 0.0
C771 C 0.79782 0.6202 0.37192 0.0
C772 C 0.79408 0.64872 0.3516 0.0
C773 C 0.80639 0.69466 0.35063 0.0
C774 C 0.82021 0.60821 0.41227 0.0
C775 C 0.77544 0.63215 0.33153 0.0
C776 C 0.77176 0.49043 0.37015 0.0
C777 C 0.74332 0.49537 0.37776 0.0
C778 C 0.79004 0.53053 0.36848 0.0
C779 C 0.77984 0.57628 0.37525 0.0
C780 C 0.75154 0.58073 0.38412 0.0
C781 C 0.73349 0.54044 0.38482 0.0
C782 C 0.81974 0.52434 0.35844 0.0
C783 C 0.74 0.62836 0.39231 0.0
H784 H 0.84134 0.69612 0.40285 0.0
H785 H 0.80169 0.71794 0.33592 0.0
H786 H 0.80017 0.60962 0.42273 0.0
H787 H 0.82454 0.57006 0.40829 0.0
H788 H 0.83808 0.62245 0.42315 0.0
H789 H 0.77816 0.65494 0.31575 0.0
H790 H 0.78052 0.59456 0.32686 0.0
H791 H 0.75256 0.63337 0.33685 0.0
H792 H 0.77924 0.45564 0.3644 0.0
H793 H 0.7115 0.54419 0.39077 0.0
H794 H 0.83605 0.54027 0.37027 0.0
H795 H 0.82117 0.54357 0.34147 0.0
H796 H 0.82517 0.48611 0.35549 0.0
H797 H 0.75513 0.6451 0.40491 0.0
H798 H 0.71868 0.62487 0.40084 0.0
H799 H 0.73787 0.65301 0.37718 0.0
C800 C 0.2921 0.53952 0.10352 0.0
C801 C 0.28201 0.49381 0.10932 0.0
C802 C 0.27388 0.57951 0.10421 0.0
C803 C 0.24507 0.57401 0.11173 0.0
C804 C 0.23462 0.52767 0.11723 0.0
C805 C 0.25314 0.48794 0.11561 0.0
C806 C 0.28573 0.6279 0.09742 0.0
C807 C 0.2043 0.52038 0.12576 0.0
C808 C 0.2165 0.6904 0.13679 0.0
C809 C 0.20106 0.70889 0.11779 0.0
C810 C 0.22885 0.64455 0.13579 0.0
C811 C 0.22667 0.61736 0.1149 0.0
C812 C 0.20972 0.63491 0.09613 0.0
C813 C 0.19682 0.68028 0.09793 0.0
C814 C 0.24604 0.62681 0.15646 0.0
C815 C 0.20743 0.60799 0.07331 0.0
H816 H 0.3144 0.54399 0.09852 0.0
H817 H 0.24541 0.45263 0.12035 0.0
H818 H 0.27149 0.64529 0.08435 0.0
H819 H 0.28654 0.65149 0.11302 0.0
H820 H 0.30769 0.6254 0.08994 0.0
H821 H 0.19893 0.4819 0.12801 0.0
H822 H 0.20149 0.53875 0.14282 0.0
H823 H 0.18877 0.53656 0.11332 0.0
H824 H 0.22017 0.71286 0.15199 0.0
H825 H 0.18559 0.69511 0.08295 0.0
H826 H 0.26927 0.62875 0.15232 0.0
H827 H 0.24082 0.58883 0.16026 0.0
H828 H 0.24201 0.64842 0.17244 0.0
H829 H 0.2281 0.61083 0.06377 0.0
H830 H 0.19016 0.62253 0.06191 0.0
H831 H 0.20325 0.56943 0.07644 0.0
C832 C 0.81925 0.355 0.59207 0.0
C833 C 0.81865 0.32865 0.61295 0.0
C834 C 0.80572 0.39989 0.59045 0.0
C835 C 0.79195 0.41939 0.61039 0.0
C836 C 0.79324 0.39433 0.63197 0.0
C837 C 0.80604 0.34878 0.63286 0.0
C838 C 0.80419 0.42457 0.56697 0.0
C839 C 0.77943 0.41416 0.65378 0.0
C840 C 0.76678 0.54957 0.61021 0.0
C841 C 0.73713 0.54414 0.6067 0.0
C842 C 0.78503 0.50941 0.61129 0.0
C843 C 0.77345 0.46291 0.60815 0.0
C844 C 0.74369 0.45759 0.60359 0.0
C845 C 0.72588 0.49813 0.60329 0.0
C846 C 0.81648 0.51659 0.61663 0.0
C847 C 0.73051 0.40891 0.59938 0.0
H848 H 0.82824 0.33876 0.57649 0.0
H849 H 0.8051 0.32796 0.64887 0.0
H850 H 0.78154 0.42585 0.56092 0.0
H851 H 0.81179 0.46206 0.56847 0.0
H852 H 0.81717 0.40597 0.55345 0.0
H853 H 0.78581 0.39389 0.6697 0.0
H854 H 0.78534 0.45233 0.65619 0.0
H855 H 0.75573 0.41234 0.65203 0.0
H856 H 0.77553 0.58508 0.61302 0.0
H857 H 0.70301 0.49385 0.60035 0.0
H858 H 0.82986 0.49921 0.60304 0.0
H859 H 0.82181 0.49932 0.63359 0.0
H860 H 0.82239 0.55506 0.61764 0.0
H861 H 0.7423 0.3899 0.58532 0.0
H862 H 0.70751 0.41124 0.59434 0.0
H863 H 0.73226 0.38687 0.61548 0.0
C864 C 0.36656 0.5008 0.04542 0.0
C865 C 0.38289 0.46006 0.05084 0.0
C866 C 0.36937 0.52394 0.02373 0.0
C867 C 0.38933 0.50638 0.00715 0.0
C868 C 0.40673 0.4665 0.01288 0.0
C869 C 0.40312 0.44353 0.03457 0.0
C870 C 0.35016 0.56604 0.01822 0.0
C871 C 0.42862 0.44732 -0.00415 0.0
C872 C 0.37243 0.53312 0.94344 0.0
C873 C 0.38898 0.57426 0.93934 0.0
C874 C 0.37286 0.51009 0.96527 0.0
C875 C 0.39065 0.52811 0.98336 0.0
C876 C 0.40838 0.56834 0.97902 0.0
C877 C 0.40713 0.59124 0.95713 0.0
C878 C 0.35331 0.46769 0.96925 0.0
C879 C 0.428 0.58808 -0.00227 0.0
H880 H 0.35073 0.51364 0.05781 0.0
H881 H 0.41592 0.41222 0.03866 0.0
H882 H 0.36323 0.59729 0.01276 0.0
H883 H 0.33579 0.5569 0.00336 0.0
H884 H 0.33671 0.57666 0.03339 0.0
H885 H 0.44221 0.41888 0.00373 0.0
H886 H 0.41753 0.43228 0.9803 0.0
H887 H 0.44273 0.47667 0.98959 0.0
H888 H 0.35815 0.51996 0.92988 0.0
H889 H 0.42003 0.62294 0.95408 0.0
H890 H 0.33734 0.47653 0.98297 0.0
H891 H 0.36586 0.43657 0.97562 0.0
H892 H 0.3416 0.457 0.95311 0.0
H893 H 0.41501 0.60335 0.01216 0.0
H894 H 0.44243 0.6165 0.9909 0.0
H895 H 0.44133 0.55902 0.00532 0.0
C896 C 0.62284 0.44509 0.45199 0.0
C897 C 0.64264 0.46161 0.43535 0.0
C898 C 0.61991 0.46797 0.47378 0.0
C899 C 0.6376 0.50772 0.47924 0.0
C900 C 0.65724 0.52508 0.46235 0.0
C901 C 0.65934 0.50209 0.44058 0.0
C902 C 0.59835 0.44897 0.49116 0.0
C903 C 0.67681 0.56693 0.46755 0.0
C904 C 0.62108 0.59422 0.52888 0.0
C905 C 0.63954 0.57774 0.54657 0.0
C906 C 0.61925 0.57052 0.50721 0.0
C907 C 0.6367 0.52995 0.50297 0.0
C908 C 0.65477 0.51239 0.52099 0.0
C909 C 0.65578 0.53623 0.54261 0.0
C910 C 0.59931 0.58982 0.48861 0.0
C911 C 0.67405 0.46967 0.51711 0.0
H912 H 0.60982 0.41391 0.44808 0.0
H913 H 0.67489 0.5149 0.42794 0.0
H914 H 0.60973 0.43418 0.50663 0.0
H915 H 0.58437 0.47838 0.49747 0.0
H916 H 0.58462 0.42038 0.48356 0.0
H917 H 0.69039 0.57678 0.45231 0.0
H918 H 0.664 0.59864 0.47271 0.0
H919 H 0.69107 0.55801 0.48251 0.0
H920 H 0.60839 0.62616 0.53181 0.0
H921 H 0.67029 0.52342 0.55609 0.0
H922 H 0.58572 0.56063 0.48145 0.0
H923 H 0.61207 0.6045 0.47388 0.0
H924 H 0.58514 0.61858 0.4954 0.0
H925 H 0.66129 0.43857 0.51098 0.0
H926 H 0.68586 0.45917 0.53324 0.0
H927 H 0.68994 0.47807 0.50325 0.0
C928 C 0.63934 0.42882 0.02327 0.0
C929 C 0.65315 0.44888 0.04271 0.0
C930 C 0.63725 0.45419 0.00213 0.0
C931 C 0.65038 0.49975 0.00019 0.0
C932 C 0.66397 0.52044 0.01998 0.0
C933 C 0.66471 0.49502 0.04118 0.0
C934 C 0.62175 0.43164 0.98168 0.0
C935 C 0.67904 0.56824 0.01845 0.0
C936 C 0.67577 0.53855 0.94 0.0
C937 C 0.65599 0.57457 0.93445 0.0
C938 C 0.67412 0.51384 0.96133 0.0
C939 C 0.65158 0.52439 0.97713 0.0
C940 C 0.63081 0.55931 0.97112 0.0
C941 C 0.63357 0.58466 0.95001 0.0
C942 C 0.69714 0.47776 0.96733 0.0
C943 C 0.60595 0.57037 0.98714 0.0
H944 H 0.63041 0.39305 0.02456 0.0
H945 H 0.67577 0.51008 0.05619 0.0
H946 H 0.60634 0.45743 0.97389 0.0
H947 H 0.63742 0.42204 0.96787 0.0
H948 H 0.6099 0.39877 0.98684 0.0
H949 H 0.68811 0.57972 0.03556 0.0
H950 H 0.69677 0.5661 0.00554 0.0
H951 H 0.66396 0.59617 0.01219 0.0
H952 H 0.69335 0.53122 0.92811 0.0
H953 H 0.61823 0.61247 0.94567 0.0
H954 H 0.68735 0.44225 0.97075 0.0
H955 H 0.70842 0.48886 0.98357 0.0
H956 H 0.71324 0.47383 0.95313 0.0
H957 H 0.59451 0.53689 0.99188 0.0
H958 H 0.59038 0.59553 0.97903 0.0
H959 H 0.61402 0.58647 0.00363 0.0
C960 C 0.39245 0.56834 0.53699 0.0
C961 C 0.36909 0.55982 0.55183 0.0
C962 C 0.39545 0.54286 0.51597 0.0
C963 C 0.37405 0.50946 0.50939 0.0
C964 C 0.35058 0.50043 0.5245 0.0
C965 C 0.34864 0.52523 0.54575 0.0
C966 C 0.42125 0.5522 0.50067 0.0
C967 C 0.32693 0.46595 0.51784 0.0
C968 C 0.36236 0.4818 0.44512 0.0
C969 C 0.37269 0.43487 0.44376 0.0
C970 C 0.36312 0.50696 0.46634 0.0
C971 C 0.37548 0.48508 0.48635 0.0
C972 C 0.38745 0.43865 0.48464 0.0
C973 C 0.38536 0.41366 0.46343 0.0
C974 C 0.34933 0.55581 0.46765 0.0
C975 C 0.4016 0.41482 0.50539 0.0
H976 H 0.40833 0.59499 0.5418 0.0
H977 H 0.33039 0.51912 0.55714 0.0
H978 H 0.43194 0.51795 0.49615 0.0
H979 H 0.41431 0.56907 0.48402 0.0
H980 H 0.43716 0.57608 0.50927 0.0
H981 H 0.3102 0.46297 0.53161 0.0
H982 H 0.31656 0.47795 0.50135 0.0
H983 H 0.33595 0.42985 0.51459 0.0
H984 H 0.35219 0.49778 0.42991 0.0
H985 H 0.39338 0.3773 0.46225 0.0
H986 H 0.36493 0.58252 0.47434 0.0
H987 H 0.33109 0.55483 0.48011 0.0
H988 H 0.34121 0.56814 0.45036 0.0
H989 H 0.41736 0.43945 0.51363 0.0
H990 H 0.4128 0.38124 0.50042 0.0
H991 H 0.3852 0.40611 0.51878 0.0
C992 C 0.90906 0.09681 0.95437 0.0
C993 C 0.89163 0.07957 0.93618 0.0
C994 C 0.90985 0.07372 0.97624 0.0
C995 C 0.89232 0.03306 0.98016 0.0
C996 C 0.8753 1.01473 0.96164 0.0
C997 C 0.87538 0.03791 0.93984 0.0
C998 C 0.92871 0.09379 -0.00461 0.0
C999 C 0.85595 0.9719 0.96515 0.0
C1000 C 0.9039 0.94881 0.0317 0.0
C1001 C 0.8832 0.96512 0.04762 0.0
C1002 C 0.9079 0.9717 0.01002 0.0
C1003 C 0.89038 1.01121 0.00392 0.0
C1004 C 0.86986 0.02844 0.02013 0.0
C1005 C 0.86669 1.00545 0.04183 0.0
C1006 C 0.93042 0.95293 -0.00657 0.0
C1007 C 0.85047 0.07009 0.0142 0.0
H1008 H 0.9217 0.12894 0.95168 0.0
H1009 H 0.86162 0.02458 0.92597 0.0
H1010 H 0.91512 0.10898 0.00947 0.0
H1011 H 0.94189 0.06495 0.00333 0.0
H1012 H 0.94323 0.12237 0.98886 0.0
H1013 H 0.84489 0.96101 0.94874 0.0
H1014 H 0.86851 0.94104 0.9718 0.0
H1015 H 0.83944 0.98039 0.9785 0.0
H1016 H 0.91683 0.91783 0.03608 0.0
H1017 H 0.85049 0.01808 0.05395 0.0
H1018 H 0.94458 0.98252 0.98754 0.0
H1019 H 0.91992 0.93786 0.97763 0.0
H1020 H 0.94389 0.92461 0.00156 0.0
H1021 H 0.86343 0.1017 0.00908 0.0
H1022 H 0.83639 0.0803 0.02906 0.0
H1023 H 0.83671 0.06067 -0.001 0.0
C1024 C 0.1237 0.93605 0.45465 0.0
C1025 C 0.14399 0.95289 0.43849 0.0
C1026 C 0.12 0.95871 0.47638 0.0
C1027 C 0.13737 0.99858 0.48223 0.0
C1028 C 0.15734 1.01651 0.46575 0.0
C1029 C 0.16025 0.99366 0.44402 0.0
C1030 C 0.09808 0.93919 0.49333 0.0
C1031 C 0.17651 0.05864 0.47141 0.0
C1032 C 0.11972 0.08245 0.53257 0.0
C1033 C 0.13797 0.06522 0.55022 0.0
C1034 C 0.11836 0.05991 0.51061 0.0
C1035 C 0.13607 0.0198 0.5061 0.0
C1036 C 0.1539 1.00145 0.52408 0.0
C1037 C 0.15445 0.02412 0.54596 0.0
C1038 C 0.0987 0.07997 0.49201 0.0
C1039 C 0.17342 0.95914 0.5199 0.0
H1040 H 0.11095 0.90473 0.45045 0.0
H1041 H 0.1761 1.00676 0.43169 0.0
H1042 H 0.10916 0.92384 0.50881 0.0
H1043 H 0.084 0.96841 0.4997 0.0
H1044 H 0.08448 0.9109 0.48532 0.0
H1045 H 0.19002 0.06949 0.4563 0.0
H1046 H 0.16343 0.0898 0.4769 0.0
H1047 H 0.19083 0.04937 0.48628 0.0
H1048 H 0.10689 0.11412 0.53574 0.0
H1049 H 0.16879 1.01076 0.55943 0.0
H1050 H 0.08547 0.051 0.48421 0.0
H1051 H 0.11167 0.09582 0.4777 0.0
H1052 H 0.08418 0.10803 0.49901 0.0
H1053 H 0.16084 0.92813 0.51341 0.0
H1054 H 0.18515 0.94813 0.53598 0.0
H1055 H 0.18937 0.96827 0.50619 0.0
C1056 C 0.13415 0.96776 0.03949 0.0
C1057 C 0.1582 0.93901 0.04367 0.0
C1058 C 0.13173 0.99398 0.01856 0.0
C1059 C 0.15443 0.99265 0.00207 0.0
C1060 C 0.17895 0.96418 0.00653 0.0
C1061 C 0.18028 0.93707 0.02709 0.0
C1062 C 0.10489 0.02277 0.014 0.0
C1063 C 0.20408 0.96304 0.98983 0.0
C1064 C 0.14672 0.02761 0.93815 0.0
C1065 C 0.15688 0.07473 0.93853 0.0
C1066 C 0.14413 1.00129 0.959 0.0
C1067 C 0.15321 0.02203 0.98041 0.0
C1068 C 0.16339 0.06977 0.98079 0.0
C1069 C 0.1645 0.09587 0.95988 0.0
C1070 C 0.1323 0.95102 0.95804 0.0
C1071 C 0.17451 0.09252 0.00303 0.0
H1072 H 0.11703 0.96886 0.05232 0.0
H1073 H 0.19903 0.9151 0.03052 0.0
H1074 H 0.11027 0.06136 0.01284 0.0
H1075 H 0.09534 1.01223 -0.00305 0.0
H1076 H 0.08854 0.01779 0.02793 0.0
H1077 H 0.22186 0.93999 -0.00372 0.0
H1078 H 0.19707 0.94951 0.9725 0.0
H1079 H 0.2125 0.99982 0.98718 0.0
H1080 H 0.1407 1.01151 0.92158 0.0
H1081 H 0.17264 0.13224 0.96007 0.0
H1082 H 0.1155 0.94614 0.9716 0.0
H1083 H 0.14965 0.92497 0.96182 0.0
H1084 H 0.12295 0.94241 0.94064 0.0
H1085 H 0.15804 0.09069 0.01698 0.0
H1086 H 0.18074 0.13056 0.00045 0.0
H1087 H 0.19358 0.07249 0.00937 0.0
C1088 C 0.85417 0.93106 0.46269 0.0
C1089 C 0.86997 0.94284 0.44258 0.0
C1090 C 0.85489 0.9602 0.48265 0.0
C1091 C 0.8723 1.00174 0.48273 0.0
C1092 C 0.8892 1.01286 0.46285 0.0
C1093 C 0.88757 0.98356 0.44288 0.0
C1094 C 0.83607 0.94751 0.50326 0.0
C1095 C 0.90844 0.05635 0.46248 0.0
C1096 C 0.84883 0.10233 0.52294 0.0
C1097 C 0.86597 0.0945 0.5428 0.0
C1098 C 0.85098 0.07282 0.50319 0.0
C1099 C 0.87122 0.03503 0.50306 0.0
C1100 C 0.88919 0.02775 0.52278 0.0
C1101 C 0.88611 0.05723 0.54257 0.0
C1102 C 0.83092 0.08119 0.48277 0.0
C1103 C 0.91137 0.98839 0.5231 0.0
H1104 H 0.84028 0.89989 0.46256 0.0
H1105 H 0.89992 0.99274 0.42744 0.0
H1106 H 0.84915 0.94492 0.51945 0.0
H1107 H 0.81998 0.9762 0.50607 0.0
H1108 H 0.8245 0.91309 0.5007 0.0
H1109 H 0.92219 0.05753 0.44662 0.0
H1110 H 0.89518 0.08929 0.46295 0.0
H1111 H 0.92243 0.05678 0.47822 0.0
H1112 H 0.83298 0.13075 0.52308 0.0
H1113 H 0.89948 0.05117 0.55784 0.0
H1114 H 0.81722 0.04915 0.48005 0.0
H1115 H 0.8434 0.08677 0.46648 0.0
H1116 H 0.81676 0.11269 0.48549 0.0
H1117 H 0.90056 0.95302 0.52249 0.0
H1118 H 0.92513 0.98977 0.53899 0.0
H1119 H 0.92527 0.99096 0.5074 0.0
C1120 C 0.45738 0.40544 0.1238 0.0
C1121 C 0.4406 0.36358 0.12366 0.0
C1122 C 0.48743 0.40349 0.12504 0.0
C1123 C 0.50131 0.35861 0.12684 0.0
C1124 C 0.48449 0.31635 0.12839 0.0
C1125 C 0.45434 0.31925 0.12645 0.0
C1126 C 0.50435 0.44942 0.12272 0.0
C1127 C 0.4984 0.26791 0.13104 0.0
C1128 C 0.57442 0.35259 0.0978 0.0
C1129 C 0.59326 0.36113 0.11656 0.0
C1130 C 0.54463 0.35063 0.10109 0.0
C1131 C 0.53316 0.35598 0.12386 0.0
C1132 C 0.55208 0.3628 0.14308 0.0
C1133 C 0.58193 0.36614 0.13916 0.0
C1134 C 0.52539 0.34476 0.07995 0.0
C1135 C 0.54076 0.36726 0.16771 0.0
H1136 H 0.44714 0.43999 0.12168 0.0
H1137 H 0.44161 0.28676 0.12661 0.0
H1138 H 0.52042 0.45241 0.13698 0.0
H1139 H 0.51626 0.44927 0.10591 0.0
H1140 H 0.49038 0.48162 0.12313 0.0
H1141 H 0.4826 0.23987 0.13597 0.0
H1142 H 0.50853 0.25741 0.11426 0.0
H1143 H 0.51559 0.26918 0.14451 0.0
H1144 H 0.58293 0.3491 0.08023 0.0
H1145 H 0.59639 0.37236 0.15374 0.0
H1146 H 0.51127 0.37654 0.07814 0.0
H1147 H 0.5113 0.31308 0.08216 0.0
H1148 H 0.53775 0.34044 0.06347 0.0
H1149 H 0.52883 0.40138 0.16958 0.0
H1150 H 0.55825 0.36654 0.18095 0.0
H1151 H 0.52547 0.33778 0.1715 0.0
C1152 C 0.56763 0.66157 0.63403 0.0
C1153 C 0.58194 0.688 0.61677 0.0
C1154 C 0.53761 0.66378 0.63623 0.0
C1155 C 0.52146 0.69171 0.62022 0.0
C1156 C 0.53596 0.72013 0.60343 0.0
C1157 C 0.56606 0.71847 0.60214 0.0
C1158 C 0.52308 0.63414 0.65487 0.0
C1159 C 0.51965 0.74934 0.58558 0.0
C1160 C 0.44815 0.64201 0.60436 0.0
C1161 C 0.42958 0.67387 0.61565 0.0
C1162 C 0.47798 0.64803 0.60547 0.0
C1163 C 0.48966 0.68599 0.61888 0.0
C1164 C 0.47096 0.71801 0.63063 0.0
C1165 C 0.44101 0.71208 0.62851 0.0
C1166 C 0.49698 0.6139 0.59205 0.0
C1167 C 0.4826 0.75797 0.64566 0.0
H1168 H 0.57988 0.63823 0.64547 0.0
H1169 H 0.57701 0.73865 0.58861 0.0
H1170 H 0.50618 0.6553 0.66379 0.0
H1171 H 0.5125 0.60275 0.64666 0.0
H1172 H 0.53857 0.62094 0.6682 0.0
H1173 H 0.53399 0.77329 0.57537 0.0
H1174 H 0.50852 0.72489 0.57322 0.0
H1175 H 0.50296 0.77141 0.59419 0.0
H1176 H 0.43923 0.61278 0.59418 0.0
H1177 H 0.42655 0.73655 0.6373 0.0
H1178 H 0.51088 0.59374 0.60436 0.0
H1179 H 0.51128 0.6342 0.58011 0.0
H1180 H 0.48441 0.5878 0.58153 0.0
H1181 H 0.49664 0.74295 0.65955 0.0
H1182 H 0.46525 0.77913 0.65403 0.0
H1183 H 0.49601 0.7824 0.63496 0.0
C1184 C 0.58341 0.72202 0.88548 0.0
C1185 C 0.59919 0.69746 0.86845 0.0
C1186 C 0.55335 0.72451 0.88414 0.0
C1187 C 0.53892 0.70318 0.86493 0.0
C1188 C 0.55508 0.68217 0.84664 0.0
C1189 C 0.58503 0.67866 0.84886 0.0
C1190 C 0.53699 0.74603 0.90435 0.0
C1191 C 0.54063 0.66054 0.82547 0.0
C1192 C 0.4666 0.64626 0.87698 0.0
C1193 C 0.44743 0.68184 0.86959 0.0
C1194 C 0.49632 0.65307 0.87562 0.0
C1195 C 0.50726 0.69595 0.86586 0.0
C1196 C 0.48801 0.73154 0.85768 0.0
C1197 C 0.45821 0.72445 0.86008 0.0
C1198 C 0.516 0.61473 0.88519 0.0
C1199 C 0.49888 0.77694 0.84646 0.0
H1200 H 0.59437 0.73615 0.90075 0.0
H1201 H 0.59732 0.65992 0.83563 0.0
H1202 H 0.52003 0.77059 0.89794 0.0
H1203 H 0.52623 0.71702 0.91431 0.0
H1204 H 0.55127 0.76601 0.91651 0.0
H1205 H 0.5561 0.65399 0.81104 0.0
H1206 H 0.53069 0.62586 0.83035 0.0
H1207 H 0.52327 0.68427 0.81896 0.0
H1208 H 0.45832 0.61356 0.88468 0.0
H1209 H 0.44335 0.75192 0.85434 0.0
H1210 H 0.5303 0.63013 0.8988 0.0
H1211 H 0.52987 0.60064 0.87103 0.0
H1212 H 0.50398 0.58431 0.893 0.0
H1213 H 0.51138 0.79807 0.85937 0.0
H1214 H 0.48114 0.79959 0.83964 0.0
H1215 H 0.51359 0.76813 0.83182 0.0
C1216 C 0.57213 0.31931 0.35764 0.0
C1217 C 0.58498 0.36381 0.36215 0.0
C1218 C 0.54206 0.31493 0.35574 0.0
C1219 C 0.52442 0.35569 0.35915 0.0
C1220 C 0.53739 0.40091 0.36281 0.0
C1221 C 0.56741 0.40449 0.36393 0.0
C1222 C 0.52913 0.26633 0.35107 0.0
C1223 C 0.51956 0.44517 0.36715 0.0
C1224 C 0.44379 0.36077 0.34688 0.0
C1225 C 0.43247 0.35133 0.36915 0.0
C1226 C 0.47368 0.35972 0.34295 0.0
C1227 C 0.49265 0.35061 0.36189 0.0
C1228 C 0.48121 0.34044 0.3843 0.0
C1229 C 0.45139 0.34028 0.38754 0.0
C1230 C 0.48498 0.36929 0.31866 0.0
C1231 C 0.50051 0.33183 0.40518 0.0
H1232 H 0.58553 0.28779 0.35603 0.0
H1233 H 0.57702 0.43907 0.36749 0.0
H1234 H 0.51921 0.25234 0.36733 0.0
H1235 H 0.51193 0.26896 0.33766 0.0
H1236 H 0.54547 0.24018 0.34504 0.0
H1237 H 0.53287 0.4781 0.36825 0.0
H1238 H 0.50346 0.44993 0.35303 0.0
H1239 H 0.50762 0.44107 0.38384 0.0
H1240 H 0.4293 0.36899 0.33256 0.0
H1241 H 0.44291 0.33331 0.40488 0.0
H1242 H 0.50102 0.34173 0.31374 0.0
H1243 H 0.49602 0.40446 0.31827 0.0
H1244 H 0.46757 0.36962 0.30534 0.0
H1245 H 0.51533 0.30167 0.40163 0.0
H1246 H 0.4882 0.32357 0.42133 0.0
H1247 H 0.51388 0.36404 0.40847 0.0
C1248 C 0.95321 0.82334 0.12569 0.0
C1249 C 0.94062 0.86774 0.12056 0.0
C1250 C 0.98323 0.81886 0.12814 0.0
C1251 C 1.00108 0.85941 0.12467 0.0
C1252 C 0.98835 0.9045 0.12024 0.0
C1253 C 0.95838 0.90819 0.11857 0.0
C1254 C 0.99589 0.77043 0.13358 0.0
C1255 C 1.00644 0.9485 0.1158 0.0
C1256 C 0.08119 0.86519 0.13904 0.0
C1257 C 0.09341 0.85505 0.11717 0.0
C1258 C 0.05115 0.86413 0.14218 0.0
C1259 C 0.03295 0.85419 0.12283 0.0
C1260 C 0.04529 0.84322 0.10086 0.0
C1261 C 0.07523 0.84316 0.0984 0.0
C1262 C 0.03887 0.87467 0.16604 0.0
C1263 C 0.02684 0.83368 0.07957 0.0
H1264 H 0.93966 0.792 0.12747 0.0
H1265 H 0.94897 0.9427 0.11452 0.0
H1266 H 1.00656 0.75596 0.11776 0.0
H1267 H 1.01246 0.77351 0.14749 0.0
H1268 H 0.97926 0.74443 0.13932 0.0
H1269 H 0.99324 0.98138 0.11388 0.0
H1270 H 0.02192 0.954 0.13031 0.0
H1271 H 0.01909 0.9435 0.09953 0.0
H1272 H 0.09508 0.87406 0.15366 0.0
H1273 H 0.08439 0.8356 0.08137 0.0
H1274 H 0.02259 0.84733 0.1708 0.0
H1275 H 0.02789 0.90986 0.16577 0.0
H1276 H 0.05573 0.87551 0.17982 0.0
H1277 H 1.01176 0.80381 0.08308 0.0
H1278 H 0.03979 0.82455 0.06388 0.0
H1279 H 0.01375 0.86581 0.07551 0.0
C1280 C 0.94679 0.19838 0.59605 0.0
C1281 C 0.92841 0.18857 0.61488 0.0
C1282 C 0.97669 0.19852 0.59893 0.0
C1283 C 0.98862 0.18996 0.62137 0.0
C1284 C 0.97015 0.18285 0.64075 0.0
C1285 C 0.94023 0.18146 0.63722 0.0
C1286 C 0.99551 0.20507 0.57765 0.0
C1287 C 0.982 0.17509 0.66506 0.0
C1288 C 0.062 0.13148 0.62018 0.0
C1289 C 0.0805 0.17113 0.62136 0.0
C1290 C 0.03212 0.13707 0.62102 0.0
C1291 C 0.02027 0.18335 0.62377 0.0
C1292 C 0.03881 0.22324 0.62648 0.0
C1293 C 0.06874 0.21677 0.62488 0.0
C1294 C 1.01324 0.09364 0.61751 0.0
C1295 C 0.02703 0.27293 0.6302 0.0
H1296 H 0.93785 0.20364 0.5787 0.0
H1297 H 0.92612 0.17428 0.65188 0.0
H1298 H 1.01119 0.23433 0.58063 0.0
H1299 H 1.00795 0.17184 0.57447 0.0
H1300 H 0.9829 0.21346 0.56165 0.0
H1301 H 0.96501 0.1773 0.67864 0.0
H1302 H 0.99213 0.13925 0.66615 0.0
H1303 H 0.99886 0.20199 0.66904 0.0
H1304 H 0.0708 0.09605 0.61736 0.0
H1305 H 0.08289 0.24751 0.626 0.0
H1306 H 1.00082 0.09758 0.60102 0.0
H1307 H 0.99755 0.09049 0.632 0.0
H1308 H 0.0258 0.05991 0.61657 0.0
H1309 H 0.01707 0.28601 0.61375 0.0
H1310 H 0.04403 0.29866 0.63552 0.0
H1311 H 1.01005 0.27249 0.6438 0.0
C1312 C 0.07867 0.15487 0.88233 0.0
C1313 C 0.09806 0.18632 0.87166 0.0
C1314 C 0.04901 0.16151 0.88021 0.0
C1315 C 0.0384 0.19975 0.86641 0.0
C1316 C 0.05792 0.23154 0.85539 0.0
C1317 C 0.08767 0.22491 0.8585 0.0
C1318 C 0.02906 0.12755 0.89284 0.0
C1319 C 0.04738 0.2718 0.84001 0.0
C1320 C 0.9616 0.17332 0.84914 0.0
C1321 C 0.94646 0.19828 0.86642 0.0
C1322 C 0.99158 0.17733 0.84739 0.0
C1323 C 1.00678 0.20565 0.86384 0.0
C1324 C 0.99137 0.2333 0.88036 0.0
C1325 C 0.96133 0.22977 0.88123 0.0
C1326 C 1.0071 0.14851 0.82902 0.0
C1327 C 1.00668 0.26304 0.89858 0.0
H1328 H 0.08679 0.12532 0.89274 0.0
H1329 H 0.10279 0.24901 0.85018 0.0
H1330 H 0.01413 0.14794 0.9042 0.0
H1331 H 0.01586 0.10751 0.87998 0.0
H1332 H 0.04085 0.10131 0.90387 0.0
H1333 H 0.06529 0.29353 0.83282 0.0
H1334 H 0.03472 0.25694 0.82523 0.0
H1335 H 0.03288 0.29563 0.85003 0.0
H1336 H 0.9501 0.14932 0.83753 0.0
H1337 H 0.94972 0.24895 0.89472 0.0
H1338 H 0.01718 0.11677 0.83732 0.0
H1339 H 0.02448 0.17 0.8209 0.0
H1340 H 0.99231 0.13585 0.81505 0.0
H1341 H 0.01678 0.23892 0.91166 0.0
H1342 H 0.99179 0.28749 0.90791 0.0
H1343 H 0.02405 0.2846 0.89054 0.0
C1344 C 0.06878 0.89943 0.3675 0.0
C1345 C 0.08587 0.85821 0.36553 0.0
C1346 C 0.03877 0.8971 0.36582 0.0
C1347 C 0.02528 0.85262 0.36139 0.0
C1348 C 0.04244 0.81127 0.35796 0.0
C1349 C 0.07254 0.81438 0.36043 0.0
C1350 C 0.02146 0.94191 0.37026 0.0
C1351 C 0.02896 0.76346 0.35249 0.0
C1352 C 0.95093 0.84077 0.38779 0.0
C1353 C 0.93298 0.85404 0.36909 0.0
C1354 C 0.98083 0.83873 0.38523 0.0
C1355 C 0.99333 0.84896 0.36323 0.0
C1356 C 0.97531 0.86019 0.34394 0.0
C1357 C 0.94534 0.86337 0.34718 0.0
C1358 C 0.99911 0.82792 0.40648 0.0
C1359 C 0.98773 0.86996 0.32004 0.0
H1360 H 0.07874 0.93353 0.37153 0.0
H1361 H 0.08556 0.78246 0.35867 0.0
H1362 H 1.00617 0.94827 0.35569 0.0
H1363 H 1.00862 0.93738 0.38646 0.0
H1364 H 0.03522 0.97414 0.37228 0.0
H1365 H 0.04512 0.7368 0.34667 0.0
H1366 H 0.01812 0.74933 0.36833 0.0
H1367 H 1.01238 0.76737 0.33864 0.0
H1368 H 0.94168 0.83377 0.40485 0.0
H1369 H 0.93162 0.87324 0.33261 0.0
H1370 H 1.01285 0.85928 0.4106 0.0
H1371 H 0.01356 0.7973 0.40289 0.0
H1372 H 0.98601 0.81931 0.42216 0.0
H1373 H 0.99933 0.90464 0.32022 0.0
H1374 H 0.97087 0.87152 0.30628 0.0
H1375 H 1.00351 0.84184 0.31533 0.0
C1376 C 0.31967 0.28262 0.03052 0.0
C1377 C 0.30293 0.31191 0.04499 0.0
C1378 C 0.30802 0.26146 0.01051 0.0
C1379 C 0.27913 0.27086 0.00454 0.0
C1380 C 0.26209 0.3006 0.01902 0.0
C1381 C 0.27413 0.32026 0.03942 0.0
C1382 C 0.32657 0.22879 -0.00413 0.0
C1383 C 0.23134 0.31205 0.01281 0.0
C1384 C 0.25919 0.25275 0.94094 0.0
C1385 C 0.244 0.20959 0.94202 0.0
C1386 C 0.27041 0.27354 0.96128 0.0
C1387 C 0.26699 0.24967 0.98297 0.0
C1388 C 0.25257 0.20508 0.98397 0.0
C1389 C 0.24077 0.18594 0.96345 0.0
C1390 C 0.28507 0.32169 0.95966 0.0
C1391 C 0.24923 0.178 0.00671 0.0
H1392 H 0.34185 0.27543 0.03514 0.0
H1393 H 0.26129 0.34288 0.05071 0.0
H1394 H 0.31622 0.19317 -0.0058 0.0
H1395 H 0.32887 0.24363 0.97796 0.0
H1396 H 0.34834 0.22389 0.00348 0.0
H1397 H 0.22125 0.3367 0.02563 0.0
H1398 H 0.23037 0.32877 -0.00481 0.0
H1399 H 0.2185 0.27865 0.01203 0.0
H1400 H 0.26098 0.27151 0.92437 0.0
H1401 H 0.22871 0.15273 0.96416 0.0
H1402 H 0.30733 0.31921 0.96647 0.0
H1403 H 0.27352 0.34807 0.97068 0.0
H1404 H 0.28582 0.33546 0.94142 0.0
H1405 H 0.27042 0.17352 0.01536 0.0
H1406 H 0.2395 0.14208 0.00408 0.0
H1407 H 0.23541 0.19861 0.01885 0.0
C1408 C 0.79827 0.79883 0.45682 0.0
C1409 C 0.78291 0.82152 0.43877 0.0
C1410 C 0.7847 0.78308 0.47707 0.0
C1411 C 0.75506 0.79149 0.47982 0.0
C1412 C 0.73962 0.8173 0.4625 0.0
C1413 C 0.75377 0.83186 0.44192 0.0
C1414 C 0.80196 0.75541 0.49501 0.0
C1415 C 0.70813 0.82825 0.46545 0.0
C1416 C 0.71946 0.70104 0.5194 0.0
C1417 C 0.72153 0.72405 0.54106 0.0
C1418 C 0.72933 0.72343 0.49902 0.0
C1419 C 0.74048 0.77055 0.50039 0.0
C1420 C 0.7415 0.79461 0.52216 0.0
C1421 C 0.7325 0.77062 0.54238 0.0
C1422 C 0.72876 0.69606 0.47622 0.0
C1423 C 0.75254 0.84527 0.5242 0.0
H1424 H 0.82104 0.79185 0.45485 0.0
H1425 H 0.74193 0.84991 0.42816 0.0
H1426 H 0.80084 0.77332 0.51229 0.0
H1427 H 0.79285 0.71895 0.49711 0.0
H1428 H 0.82492 0.75193 0.49005 0.0
H1429 H 0.70016 0.85349 0.45189 0.0
H1430 H 0.69552 0.79465 0.46426 0.0
H1431 H 0.70412 0.84384 0.48301 0.0
H1432 H 0.71037 0.66532 0.5185 0.0
H1433 H 0.73315 0.78888 0.55913 0.0
H1434 H 0.75106 0.69007 0.47006 0.0
H1435 H 0.71753 0.71709 0.46253 0.0
H1436 H 0.71797 0.66076 0.47795 0.0
H1437 H 0.77629 0.84539 0.52286 0.0
H1438 H 0.74651 0.86177 0.54115 0.0
H1439 H 0.74405 0.86784 0.50977 0.0
C1440 C 0.23653 0.76499 0.03804 0.0
C1441 C 0.2458 0.80604 0.05012 0.0
C1442 C 0.24992 0.74989 0.01758 0.0
C1443 C 0.2736 0.77596 0.00897 0.0
C1444 C 0.28375 0.81673 0.02127 0.0
C1445 C 0.26961 0.83149 0.04182 0.0
C1446 C 0.23839 0.70619 0.00504 0.0
C1447 C 0.3093 0.84476 0.0126 0.0
C1448 C 0.31879 0.70186 0.968 0.0
C1449 C 0.30824 0.71616 0.94607 0.0
C1450 C 0.30878 0.72297 0.98861 0.0
C1451 C 0.28764 0.75917 0.98726 0.0
C1452 C 0.27715 0.77427 0.96516 0.0
C1453 C 0.2875 0.75235 0.94477 0.0
C1454 C 0.32028 0.70552 0.01185 0.0
C1455 C 0.25456 0.81279 0.96308 0.0
H1456 H 0.21837 0.74452 0.04442 0.0
H1457 H 0.27679 0.8632 0.05106 0.0
H1458 H 0.23196 0.71583 0.98693 0.0
H1459 H 0.25534 0.67845 0.00376 0.0
H1460 H 0.21953 0.69029 0.01404 0.0
H1461 H 0.31477 0.87515 0.02433 0.0
H1462 H 0.32825 0.82089 0.01121 0.0
H1463 H 0.30487 0.85895 -0.00518 0.0
H1464 H 0.33502 0.6741 0.96903 0.0
H1465 H 0.27985 0.76432 0.92782 0.0
H1466 H 0.3034 0.6848 0.02107 0.0
H1467 H 0.32615 0.73621 0.02321 0.0
H1468 H 0.3394 0.68219 0.00975 0.0
H1469 H 0.23394 0.79937 0.97027 0.0
H1470 H 0.25101 0.82402 0.94464 0.0
H1471 H 0.26079 0.84467 0.97349 0.0
C1472 C 0.76683 0.18734 0.5323 0.0
C1473 C 0.77251 0.22052 0.55 0.0
C1474 C 0.75586 0.2026 0.51064 0.0
C1475 C 0.75064 0.25202 0.50693 0.0
C1476 C 0.75516 0.28518 0.52529 0.0
C1477 C 0.76619 0.26895 0.54661 0.0
C1478 C 0.75109 0.16632 0.49144 0.0
C1479 C 0.74964 0.33809 0.52211 0.0
C1480 C 0.74931 0.30533 0.44577 0.0
C1481 C 0.71979 0.31185 0.44247 0.0
C1482 C 0.75979 0.28464 0.46654 0.0
C1483 C 0.74016 0.26954 0.48401 0.0
C1484 C 0.71037 0.27457 0.48036 0.0
C1485 C 0.70058 0.29596 0.45977 0.0
C1486 C 0.79179 0.28008 0.47007 0.0
C1487 C 0.6888 0.25834 0.49845 0.0
H1488 H 0.77263 0.15011 0.53488 0.0
H1489 H 0.77125 0.29449 0.56032 0.0
H1490 H 0.729 0.16955 0.48432 0.0
H1491 H 0.76615 0.17336 0.47681 0.0
H1492 H 0.75443 0.12904 0.49765 0.0
H1493 H 0.75313 0.35863 0.53852 0.0
H1494 H 0.76415 0.35255 0.50843 0.0
H1495 H 0.72729 0.34419 0.5161 0.0
H1496 H 0.76417 0.31716 0.43237 0.0
H1497 H 0.67764 0.29986 0.45721 0.0
H1498 H 0.79746 0.24252 0.47434 0.0
H1499 H 0.79858 0.30251 0.48513 0.0
H1500 H 0.8041 0.29135 0.45437 0.0
H1501 H 0.6928 0.22049 0.50335 0.0
H1502 H 0.66631 0.26161 0.49213 0.0
H1503 H 0.69116 0.28014 0.51457 0.0
C1504 C 0.77412 0.82579 0.03655 0.0
C1505 C 0.80242 0.81586 0.04311 0.0
C1506 C 0.76231 0.80478 0.01638 0.0
C1507 C 0.77902 0.77213 0.00317 0.0
C1508 C 0.80729 0.76095 0.01028 0.0
C1509 C 0.81876 0.78345 0.03001 0.0
C1510 C 0.73223 0.81807 0.00896 0.0
C1511 C 0.82545 0.72534 -0.00297 0.0
C1512 C 0.73994 0.6876 0.96228 0.0
C1513 C 0.74463 0.70964 0.94059 0.0
C1514 C 0.75148 0.70709 0.98283 0.0
C1515 C 0.76731 0.75028 0.98159 0.0
C1516 C 0.77243 0.77228 0.95965 0.0
C1517 C 0.76131 0.75126 0.93933 0.0
C1518 C 0.74632 0.68197 0.00588 0.0
C1519 C 0.78875 0.81887 0.95771 0.0
H1520 H 0.76159 0.85078 0.04683 0.0
H1521 H 0.84052 0.77509 0.03546 0.0
H1522 H 0.73264 0.83383 0.99112 0.0
H1523 H 0.71856 0.7856 0.00815 0.0
H1524 H 0.72217 0.84417 0.0211 0.0
H1525 H 0.84654 0.71897 0.0056 0.0
H1526 H 0.81396 0.69067 -0.00444 0.0
H1527 H 0.82933 0.7385 0.97898 0.0
H1528 H 0.72683 0.65554 0.96316 0.0
H1529 H 0.76437 0.76884 0.92258 0.0
H1530 H 0.73361 0.70534 0.01763 0.0
H1531 H 0.76707 0.67472 0.01477 0.0
H1532 H 0.73464 0.64757 0.00364 0.0
H1533 H 0.77742 0.84719 0.96769 0.0
H1534 H 0.79109 0.83094 0.93928 0.0
H1535 H 0.81046 0.81503 0.96551 0.0
C1536 C 0.24363 0.23207 0.54186 0.0
C1537 C 0.21841 0.20472 0.54145 0.0
C1538 C 0.2547 0.25195 0.5212 0.0
C1539 C 0.24015 0.24425 0.49972 0.0
C1540 C 0.21486 0.21631 0.49917 0.0
C1541 C 0.20439 0.19668 0.52001 0.0
C1542 C 0.28201 0.28103 0.52232 0.0
C1543 C 0.19886 0.20709 0.47657 0.0
C1544 C 0.2598 0.326 0.44889 0.0
C1545 C 0.28009 0.29774 0.43733 0.0
C1546 C 0.24596 0.30868 0.46908 0.0
C1547 C 0.25267 0.26226 0.47757 0.0
C1548 C 0.27213 0.23298 0.46521 0.0
C1549 C 0.28547 0.25102 0.44524 0.0
C1550 C 0.22492 0.34045 0.48175 0.0
C1551 C 0.27973 0.18318 0.47355 0.0
H1552 H 0.25439 0.23882 0.55837 0.0
H1553 H 0.18489 0.17546 0.51952 0.0
H1554 H 0.29882 0.26384 0.51146 0.0
H1555 H 0.27826 0.31731 0.51504 0.0
H1556 H 0.29028 0.28473 0.54049 0.0
H1557 H 0.17858 0.18697 0.4794 0.0
H1558 H 0.19373 0.24149 0.46781 0.0
H1559 H 0.21257 0.18626 0.46443 0.0
H1560 H 0.25568 0.36208 0.44277 0.0
H1561 H 0.30079 0.22869 0.43605 0.0
H1562 H 0.23349 0.34957 0.49933 0.0
H1563 H 0.20431 0.32128 0.48441 0.0
H1564 H 0.22064 0.37421 0.47207 0.0
H1565 H 0.2896 0.18509 0.49121 0.0
H1566 H 0.29496 0.16484 0.4616 0.0
H1567 H 0.26008 0.16096 0.47504 0.0
C1568 C 0.73887 0.26478 0.03948 0.0
C1569 C 0.74553 0.31048 0.04817 0.0
C1570 C 0.75224 0.24665 0.01958 0.0
C1571 C 0.7732 0.2746 0.00815 0.0
C1572 C 0.7812 0.31983 0.0174 0.0
C1573 C 0.76718 0.33741 0.03745 0.0
C1574 C 0.74314 0.19818 0.01038 0.0
C1575 C 0.80395 0.35001 0.00576 0.0
C1576 C 0.8202 0.20441 0.96668 0.0
C1577 C 0.80735 0.21435 0.94496 0.0
C1578 C 0.80996 0.22523 0.98731 0.0
C1579 C 0.78604 0.25625 0.98623 0.0
C1580 C 0.77269 0.26599 0.96443 0.0
C1581 C 0.78353 0.24488 0.94401 0.0
C1582 C 0.82466 0.21378 0.01024 0.0
C1583 C 0.74686 0.29846 0.96272 0.0
H1584 H 0.72253 0.24329 0.04798 0.0
H1585 H 0.77236 0.37265 0.04418 0.0
H1586 H 0.73441 0.20195 0.99239 0.0
H1587 H 0.76192 0.1739 0.00939 0.0
H1588 H 0.72652 0.18101 0.02151 0.0
H1589 H 0.80897 0.38285 0.01594 0.0
H1590 H 0.82394 0.32892 0.00355 0.0
H1591 H 0.79661 0.36071 0.98803 0.0
H1592 H 0.83865 0.18082 0.96755 0.0
H1593 H 0.77378 0.25325 0.92725 0.0
H1594 H 0.81003 0.19261 0.02152 0.0
H1595 H 0.82989 0.24724 0.01979 0.0
H1596 H 0.84475 0.193 0.00773 0.0
H1597 H 0.73973 0.3039 0.94434 0.0
H1598 H 0.75186 0.33387 0.9705 0.0
H1599 H 0.72879 0.28295 0.97284 0.0
C1600 C 0.25301 0.81315 0.44878 0.0
C1601 C 0.22431 0.80412 0.4431 0.0
C1602 C 0.26522 0.79322 0.46907 0.0
C1603 C 0.24848 0.76248 0.48334 0.0
C1604 C 0.21972 0.75231 0.47721 0.0
C1605 C 0.20788 0.77378 0.45732 0.0
C1606 C 0.29582 0.80553 0.47544 0.0
C1607 C 0.20145 0.7187 0.49161 0.0
C1608 C 0.28739 0.67777 0.52434 0.0
C1609 C 0.28375 0.70081 0.54589 0.0
C1610 C 0.27564 0.6971 0.50381 0.0
C1611 C 0.26076 0.74122 0.5049 0.0
C1612 C 0.25695 0.76449 0.52669 0.0
C1613 C 0.26818 0.74358 0.54702 0.0
C1614 C 0.2794 0.67061 0.48097 0.0
C1615 C 0.24179 0.81214 0.52845 0.0
H1616 H 0.26562 0.83659 0.43769 0.0
H1617 H 0.18578 0.76609 0.45262 0.0
H1618 H 0.29648 0.82216 0.49307 0.0
H1619 H 0.30898 0.77251 0.47626 0.0
H1620 H 0.30575 0.83056 0.46268 0.0
H1621 H 0.17984 0.71306 0.48382 0.0
H1622 H 0.21225 0.68347 0.49327 0.0
H1623 H 0.19876 0.73319 0.50955 0.0
H1624 H 0.29968 0.64485 0.52356 0.0
H1625 H 0.26601 0.76193 0.56366 0.0
H1626 H 0.29179 0.69291 0.46849 0.0
H1627 H 0.25813 0.66359 0.47287 0.0
H1628 H 0.29074 0.63596 0.4833 0.0
H1629 H 0.25327 0.83918 0.51773 0.0
H1630 H 0.24059 0.82536 0.54676 0.0
H1631 H 0.21967 0.80922 0.52138 0.0
C1632 C 0.3066 0.39142 0.19398 0.0
C1633 C 0.33326 0.38814 0.18276 0.0
C1634 C 0.30473 0.39056 0.21848 0.0
C1635 C 0.33007 0.38523 0.23196 0.0
C1636 C 0.35698 0.38112 0.22069 0.0
C1637 C 0.35828 0.38313 0.19621 0.0
C1638 C 0.27573 0.39591 0.22996 0.0
C1639 C 0.38439 0.37443 0.23448 0.0
C1640 C 0.33169 0.42495 0.29539 0.0
C1641 C 0.32739 0.38149 0.30715 0.0
C1642 C 0.332 0.42683 0.27087 0.0
C1643 C 0.32853 0.38408 0.25788 0.0
C1644 C 0.32426 0.34009 0.26966 0.0
C1645 C 0.32346 0.3394 0.29419 0.0
C1646 C 0.33609 0.47452 0.25886 0.0
C1647 C 0.32103 0.29366 0.25638 0.0
H1648 H 0.28723 0.3956 0.18362 0.0
H1649 H 0.3789 0.38013 0.18755 0.0
H1650 H 0.27099 0.36401 0.24085 0.0
H1651 H 0.27587 0.4274 0.24179 0.0
H1652 H 0.25816 0.40044 0.21697 0.0
H1653 H 0.40346 0.37047 0.22299 0.0
H1654 H 0.38791 0.40553 0.2462 0.0
H1655 H 0.38267 0.34218 0.24574 0.0
H1656 H 0.33452 0.45762 0.30537 0.0
H1657 H 0.32035 0.30567 0.30324 0.0
H1658 H 0.31812 0.48121 0.2465 0.0
H1659 H 0.35617 0.47408 0.24846 0.0
H1660 H 0.33722 0.50468 0.2715 0.0
H1661 H 0.30251 0.29588 0.2442 0.0
H1662 H 0.31779 0.26253 0.2682 0.0
H1663 H 0.34046 0.28716 0.24564 0.0
C1664 C 0.71988 0.64209 0.78975 0.0
C1665 C 0.69718 0.66071 0.80293 0.0
C1666 C 0.71855 0.64151 0.76521 0.0
C1667 C 0.6944 0.66156 0.75372 0.0
C1668 C 0.672 0.68222 0.76702 0.0
C1669 C 0.67342 0.68073 0.79152 0.0
C1670 C 0.74242 0.61786 0.75163 0.0
C1671 C 0.64636 0.70533 0.7554 0.0
C1672 C 0.70224 0.69231 0.68931 0.0
C1673 C 0.68705 0.65479 0.67875 0.0
C1674 C 0.70442 0.69546 0.71375 0.0
C1675 C 0.69198 0.65925 0.72782 0.0
C1676 C 0.67699 0.62087 0.71715 0.0
C1677 C 0.67426 0.61957 0.69271 0.0
C1678 C 0.71971 0.73776 0.72452 0.0
C1679 C 0.66414 0.58088 0.73153 0.0
H1680 H 0.73809 0.62617 0.79867 0.0
H1681 H 0.65597 0.69536 0.80181 0.0
H1682 H 0.73366 0.58735 0.74142 0.0
H1683 H 0.75182 0.64344 0.73893 0.0
H1684 H 0.75982 0.60437 0.76321 0.0
H1685 H 0.63204 0.72323 0.76822 0.0
H1686 H 0.65358 0.7322 0.74235 0.0
H1687 H 0.63372 0.67792 0.74585 0.0
H1688 H 0.71192 0.71972 0.67842 0.0
H1689 H 0.66273 0.59035 0.68446 0.0
H1690 H 0.73843 0.72537 0.73489 0.0
H1691 H 0.70509 0.75665 0.73674 0.0
H1692 H 0.72733 0.76366 0.71113 0.0
H1693 H 0.68095 0.56434 0.7427 0.0
H1694 H 0.65431 0.55257 0.72046 0.0
H1695 H 0.64741 0.59531 0.74337 0.0
C1696 C 0.35403 0.61347 0.79368 0.0
C1697 C 0.34173 0.64969 0.80728 0.0
C1698 C 0.35104 0.61359 0.76926 0.0
C1699 C 0.3363 0.65178 0.75823 0.0
C1700 C 0.32437 0.68902 0.77191 0.0
C1701 C 0.32678 0.68703 0.79638 0.0
C1702 C 0.36333 0.57255 0.75531 0.0
C1703 C 0.30938 0.73112 0.76071 0.0
C1704 C 0.35441 0.66865 0.69412 0.0
C1705 C 0.33036 0.64841 0.68321 0.0
C1706 C 0.35605 0.67186 0.71856 0.0
C1707 C 0.33357 0.65269 0.73234 0.0
C1708 C 0.30914 0.63242 0.72134 0.0
C1709 C 0.3076 0.63131 0.69681 0.0
C1710 C 0.382 0.69516 0.72964 0.0
C1711 C 0.28517 0.6103 0.73545 0.0
H1712 H 0.36533 0.58436 0.80221 0.0
H1713 H 0.31748 0.71518 0.807 0.0
H1714 H 0.34622 0.55582 0.74451 0.0
H1715 H 0.38003 0.58594 0.74315 0.0
H1716 H 0.37303 0.5446 0.76668 0.0
H1717 H 0.30225 0.75795 0.77381 0.0
H1718 H 0.32401 0.74891 0.74808 0.0
H1719 H 0.29037 0.71867 0.75071 0.0
H1720 H 0.37188 0.6822 0.68347 0.0
H1721 H 0.28914 0.61531 0.68826 0.0
H1722 H 0.39456 0.66807 0.73948 0.0
H1723 H 0.37515 0.72291 0.74234 0.0
H1724 H 0.3963 0.71203 0.71644 0.0
H1725 H 0.29372 0.58022 0.74607 0.0
H1726 H 0.2675 0.59658 0.72421 0.0
H1727 H 0.27618 0.63693 0.74781 0.0
C1728 C 0.69416 0.43282 0.19144 0.0
C1729 C 0.69883 0.39021 0.17908 0.0
C1730 C 0.69418 0.43334 0.21601 0.0
C1731 C 0.69835 0.39004 0.22846 0.0
C1732 C 0.70304 0.34691 0.21606 0.0
C1733 C 0.70349 0.34761 0.19152 0.0
C1734 C 0.6896 0.48016 0.22865 0.0
C1735 C 0.70698 0.29988 0.22871 0.0
C1736 C 0.71997 0.39468 0.29263 0.0
C1737 C 0.6933 0.39002 0.30372 0.0
C1738 C 0.72197 0.39507 0.26809 0.0
C1739 C 0.69676 0.38957 0.25444 0.0
C1740 C 0.66988 0.38381 0.26559 0.0
C1741 C 0.66844 0.38461 0.29009 0.0
C1742 C 0.75094 0.40211 0.25679 0.0
C1743 C 0.6426 0.37682 0.25164 0.0
H1744 H 0.69077 0.4659 0.1819 0.0
H1745 H 0.70692 0.3145 0.18203 0.0
H1746 H 0.66951 0.47849 0.23901 0.0
H1747 H 0.70747 0.48667 0.24112 0.0
H1748 H 0.68818 0.511 0.21642 0.0
H1749 H 0.71072 0.26963 0.21647 0.0
H1750 H 0.72543 0.30222 0.24096 0.0
H1751 H 0.68763 0.29185 0.23932 0.0
H1752 H 0.73921 0.39917 0.30312 0.0
H1753 H 0.6478 0.38053 0.29861 0.0
H1754 H 0.7505 0.43444 0.24549 0.0
H1755 H 0.75602 0.37119 0.24536 0.0
H1756 H 0.76842 0.40623 0.26989 0.0
H1757 H 0.63863 0.40854 0.24042 0.0
H1758 H 0.62358 0.37122 0.26302 0.0
H1759 H 0.64483 0.34545 0.23988 0.0
C1760 C 0.80794 0.89934 0.19167 0.0
C1761 C 0.8344 0.89538 0.18019 0.0
C1762 C 0.80641 0.89857 0.21621 0.0
C1763 C 0.83186 0.89257 0.22948 0.0
C1764 C 0.85857 0.88778 0.21794 0.0
C1765 C 0.85955 0.88977 0.19343 0.0
C1766 C 0.77762 0.90471 0.22794 0.0
C1767 C 0.8861 0.88031 0.23148 0.0
C1768 C 0.83434 0.93221 0.29301 0.0
C1769 C 0.82947 0.88895 0.3048 0.0
C1770 C 0.83465 0.93405 0.26846 0.0
C1771 C 0.83064 0.89142 0.25546 0.0
C1772 C 0.82594 0.84758 0.26729 0.0
C1773 C 0.82511 0.84696 0.29183 0.0
C1774 C 0.83918 0.9816 0.25644 0.0
C1775 C 0.82217 0.80124 0.25403 0.0
H1776 H 0.78847 0.90397 0.18149 0.0
H1777 H 0.88001 0.88624 0.18459 0.0
H1778 H 0.77267 0.87287 0.23882 0.0
H1779 H 0.77825 0.9361 0.23983 0.0
H1780 H 0.75993 0.90986 0.21511 0.0
H1781 H 0.90496 0.87586 0.21981 0.0
H1782 H 0.89008 0.91127 0.24319 0.0
H1783 H 0.88421 0.84808 0.24273 0.0
H1784 H 0.83749 0.96481 0.30297 0.0
H1785 H 0.82156 0.81338 0.3009 0.0
H1786 H 0.82111 0.98896 0.24428 0.0
H1787 H 0.85908 0.98048 0.24582 0.0
H1788 H 0.8409 1.01168 0.26908 0.0
H1789 H 0.80346 0.80385 0.24207 0.0
H1790 H 0.81892 0.77016 0.26588 0.0
H1791 H 0.84136 0.79439 0.24306 0.0
C1792 C 0.17323 0.16976 0.79368 0.0
C1793 C 0.1972 0.15121 0.80537 0.0
C1794 C 0.17215 0.17083 0.76917 0.0
C1795 C 0.19516 0.15125 0.75616 0.0
C1796 C 0.21951 0.13268 0.76794 0.0
C1797 C 0.22045 0.13365 0.79248 0.0
C1798 C 0.14624 0.19232 0.75721 0.0
C1799 C 0.24404 0.11017 0.75468 0.0
C1800 C 0.17619 0.10663 0.69543 0.0
C1801 C 0.18816 0.14231 0.68128 0.0
C1802 C 0.17893 0.10858 0.71984 0.0
C1803 C 0.19307 0.14809 0.73028 0.0
C1804 C 0.20484 0.18461 0.71601 0.0
C1805 C 0.20269 0.18081 0.69158 0.0
C1806 C 0.16685 0.06825 0.73444 0.0
C1807 C 0.21922 0.22801 0.72656 0.0
H1808 H 0.15538 0.18369 0.80376 0.0
H1809 H 0.23887 0.11896 0.80162 0.0
H1810 H 0.1531 0.21924 0.74406 0.0
H1811 H 0.13423 0.16403 0.74773 0.0
H1812 H 0.13143 0.20977 0.76981 0.0
H1813 H 0.26159 0.09805 0.76646 0.0
H1814 H 0.23607 0.0789 0.7446 0.0
H1815 H 0.25302 0.13599 0.74188 0.0
H1816 H 0.16518 0.07665 0.68735 0.0
H1817 H 0.21171 0.20855 0.68053 0.0
H1818 H 0.14961 0.08196 0.74599 0.0
H1819 H 0.18387 0.05322 0.74591 0.0
H1820 H 0.15787 0.03893 0.72352 0.0
H1821 H 0.20406 0.24663 0.73843 0.0
H1822 H 0.22661 0.25376 0.71301 0.0
H1823 H 0.23797 0.21693 0.73724 0.0
C1824 C 0.83622 0.11359 0.69272 0.0
C1825 C 0.82964 0.15568 0.68046 0.0
C1826 C 0.83829 0.11351 0.71723 0.0
C1827 C 0.83425 0.15675 0.72972 0.0
C1828 C 0.82792 0.19945 0.71741 0.0
C1829 C 0.82543 0.19831 0.69294 0.0
C1830 C 0.84461 0.06711 0.72979 0.0
C1831 C 0.824 0.24642 0.73008 0.0
C1832 C 0.8146 0.15052 0.79415 0.0
C1833 C 0.84144 0.15659 0.80492 0.0
C1834 C 0.81197 0.15031 0.76967 0.0
C1835 C 0.83668 0.15729 0.75567 0.0
C1836 C 0.86373 0.16439 0.76646 0.0
C1837 C 0.86583 0.16351 0.79096 0.0
C1838 C 0.78283 0.14186 0.75878 0.0
C1839 C 0.89047 0.17286 0.75212 0.0
H1840 H 0.83936 0.08049 0.68317 0.0
H1841 H 0.82061 0.23106 0.68353 0.0
H1842 H 0.8649 0.07036 0.73986 0.0
H1843 H 0.82728 0.05918 0.74252 0.0
H1844 H 0.84657 0.03641 0.71754 0.0
H1845 H 0.81966 0.27656 0.71789 0.0
H1846 H 0.80589 0.24364 0.7426 0.0
H1847 H 0.84355 0.2549 0.74041 0.0
H1848 H 0.7957 0.14485 0.80484 0.0
H1849 H 0.88659 0.16858 0.79922 0.0
H1850 H 0.78355 0.10967 0.74743 0.0
H1851 H 0.77686 0.17262 0.74751 0.0
H1852 H 0.76579 0.13672 0.77213 0.0
H1853 H 0.89469 0.14144 0.74078 0.0
H1854 H 0.90969 0.17932 0.76323 0.0
H1855 H 0.88734 0.20418 0.74044 0.0
C1856 C 0.16738 0.88135 0.29256 0.0
C1857 C 0.19254 0.88577 0.3059 0.0
C1858 C 0.16836 0.88141 0.26805 0.0
C1859 C 0.19508 0.88705 0.25663 0.0
C1860 C 0.22055 0.89195 0.27 0.0
C1861 C 0.21901 0.89069 0.29453 0.0
C1862 C 0.14083 0.875 0.25438 0.0
C1863 C 0.24936 0.89888 0.2584 0.0
C1864 C 0.20171 0.84367 0.19402 0.0
C1865 C 0.19749 0.88609 0.18134 0.0
C1866 C 0.20092 0.84349 0.21854 0.0
C1867 C 0.19637 0.88696 0.23066 0.0
C1868 C 0.19246 0.93004 0.21798 0.0
C1869 C 0.19275 0.92901 0.19341 0.0
C1870 C 0.20458 0.79668 0.23144 0.0
C1871 C 0.18805 0.97719 0.23036 0.0
H1872 H 0.1469 0.87717 0.30132 0.0
H1873 H 0.23846 0.89451 0.30481 0.0
H1874 H 0.1371 0.90652 0.24296 0.0
H1875 H 0.14255 0.84324 0.24281 0.0
H1876 H 0.12189 0.87033 0.26595 0.0
H1877 H 0.26699 0.90359 0.27132 0.0
H1878 H 0.25439 0.86755 0.24723 0.0
H1879 H 0.2487 0.93076 0.24682 0.0
H1880 H 0.20514 0.81032 0.18474 0.0
H1881 H 0.18969 0.96192 0.18366 0.0
H1882 H 0.18537 0.7895 0.24236 0.0
H1883 H 0.2233 0.7988 0.24343 0.0
H1884 H 0.20778 0.76599 0.21937 0.0
H1885 H 0.16814 0.97579 0.24096 0.0
H1886 H 0.18642 1.0077 0.21795 0.0
H1887 H 0.20613 0.98402 0.24259 0.0
loop_
_geom_bond_atom_site_label_1
_geom_bond_atom_site_label_2
_geom_bond_distance
_geom_bond_site_symmetry_2
_ccdc_geom_bond_type
Fe0 O2 1.918 . S
Fe0 O5 1.997 . S
Fe0 O6 2.002 . S
Fe0 O11 1.976 . S
Fe0 O14 1.996 . S
Fe1 O2 1.918 . S
Fe1 O9 1.997 . S
Fe1 O12 1.996 . S
Fe1 O16 1.976 . S
Fe1 O19 2.002 . S
O2 Fe0 1.918 . S
O2 Fe1 1.918 . S
O2 Fe3 1.918 . S
Fe3 O2 1.918 . S
Fe3 O4 2.002 . S
Fe3 O13 1.976 . S
Fe3 O17 1.996 . S
Fe3 O20 1.997 . S
O4 Fe3 2.002 . S
O4 C21 1.295 . S
O5 Fe0 1.997 . S
O5 C21 1.235 . S
O6 Fe0 2.002 . S
O6 C7 1.295 . S
C7 O6 1.295 . S
C7 O9 1.235 . S
C8 O13 1.287 . S
C8 O14 1.255 . S
O9 Fe1 1.997 . S
O9 C7 1.235 . S
C10 O16 1.287 . S
C10 O17 1.255 . S
O11 Fe0 1.976 . S
O11 C18 1.287 . S
O12 Fe1 1.996 . S
O12 C18 1.255 . S
O13 Fe3 1.976 . S
O13 C8 1.287 . S
O14 Fe0 1.996 . S
O14 C8 1.255 . S
C15 O19 1.295 . S
C15 O20 1.235 . S
O16 Fe1 1.976 . S
O16 C10 1.287 . S
O17 Fe3 1.996 . S
O17 C10 1.255 . S
C18 O11 1.287 . S
C18 O12 1.255 . S
O19 Fe1 2.002 . S
O19 C15 1.295 . S
O20 Fe3 1.997 . S
O20 C15 1.235 . S
C21 O4 1.295 . S
C21 O5 1.235 . S
Fe22 O24 1.918 . S
Fe22 O27 1.997 . S
Fe22 O28 2.002 . S
Fe22 O33 1.976 . S
Fe22 O36 1.996 . S
Fe23 O24 1.918 . S
Fe23 O31 1.997 . S
Fe23 O34 1.996 . S
Fe23 O38 1.976 . S
Fe23 O41 2.002 . S
O24 Fe22 1.918 . S
O24 Fe23 1.918 . S
O24 Fe25 1.918 . S
Fe25 O24 1.918 . S
Fe25 O26 2.002 . S
Fe25 O35 1.976 . S
Fe25 O39 1.996 . S
Fe25 O42 1.997 . S
O26 Fe25 2.002 . S
O26 C43 1.295 . S
O27 Fe22 1.997 . S
O27 C43 1.235 . S
O28 Fe22 2.002 . S
O28 C29 1.295 . S
C29 O28 1.295 . S
C29 O31 1.235 . S
C30 O35 1.287 . S
C30 O36 1.255 . S
O31 Fe23 1.997 . S
O31 C29 1.235 . S
C32 O38 1.287 . S
C32 O39 1.255 . S
O33 Fe22 1.976 . S
O33 C40 1.287 . S
O34 Fe23 1.996 . S
O34 C40 1.255 . S
O35 Fe25 1.976 . S
O35 C30 1.287 . S
O36 Fe22 1.996 . S
O36 C30 1.255 . S
C37 O41 1.295 . S
C37 O42 1.235 . S
O38 Fe23 1.976 . S
O38 C32 1.287 . S
O39 Fe25 1.996 . S
O39 C32 1.255 . S
C40 O33 1.287 . S
C40 O34 1.255 . S
O41 Fe23 2.002 . S
O41 C37 1.295 . S
O42 Fe25 1.997 . S
O42 C37 1.235 . S
C43 O26 1.295 . S
C43 O27 1.235 . S
Fe44 O46 1.918 . S
Fe44 O49 1.997 . S
Fe44 O50 2.002 . S
Fe44 O55 1.976 . S
Fe44 O58 1.996 . S
Fe45 O46 1.918 . S
Fe45 O53 1.997 . S
Fe45 O56 1.996 . S
Fe45 O60 1.976 . S
Fe45 O63 2.002 . S
O46 Fe44 1.918 . S
O46 Fe45 1.918 . S
O46 Fe47 1.918 . S
Fe47 O46 1.918 . S
Fe47 O48 2.002 . S
Fe47 O57 1.976 . S
Fe47 O61 1.996 . S
Fe47 O64 1.997 . S
O48 Fe47 2.002 . S
O48 C65 1.295 . S
O49 Fe44 1.997 . S
O49 C65 1.235 . S
O50 Fe44 2.002 . S
O50 C51 1.295 . S
C51 O50 1.295 . S
C51 O53 1.235 . S
C52 O57 1.287 . S
C52 O58 1.255 . S
O53 Fe45 1.997 . S
O53 C51 1.235 . S
C54 O60 1.287 . S
C54 O61 1.255 . S
O55 Fe44 1.976 . S
O55 C62 1.287 . S
O56 Fe45 1.996 . S
O56 C62 1.255 . S
O57 Fe47 1.976 . S
O57 C52 1.287 . S
O58 Fe44 1.996 . S
O58 C52 1.255 . S
C59 O63 1.295 . S
C59 O64 1.235 . S
O60 Fe45 1.976 . S
O60 C54 1.287 . S
O61 Fe47 1.996 . S
O61 C54 1.255 . S
C62 O55 1.287 . S
C62 O56 1.255 . S
O63 Fe45 2.002 . S
O63 C59 1.295 . S
O64 Fe47 1.997 . S
O64 C59 1.235 . S
C65 O48 1.295 . S
C65 O49 1.235 . S
Fe66 O68 1.918 . S
Fe66 O71 1.997 . S
Fe66 O72 2.002 . S
Fe66 O77 1.976 . S
Fe66 O80 1.996 . S
Fe67 O68 1.918 . S
Fe67 O75 1.997 . S
Fe67 O78 1.996 . S
Fe67 O82 1.976 . S
Fe67 O85 2.002 . S
O68 Fe66 1.918 . S
O68 Fe67 1.918 . S
O68 Fe69 1.918 . S
Fe69 O68 1.918 . S
Fe69 O70 2.002 . S
Fe69 O79 1.976 . S
Fe69 O83 1.996 . S
Fe69 O86 1.997 . S
O70 Fe69 2.002 . S
O70 C87 1.295 . S
O71 Fe66 1.997 . S
O71 C87 1.235 . S
O72 Fe66 2.002 . S
O72 C73 1.295 . S
C73 O72 1.295 . S
C73 O75 1.235 . S
C74 O79 1.287 . S
C74 O80 1.255 . S
O75 Fe67 1.997 . S
O75 C73 1.235 . S
C76 O82 1.287 . S
C76 O83 1.255 . S
O77 Fe66 1.976 . S
O77 C84 1.287 . S
O78 Fe67 1.996 . S
O78 C84 1.255 . S
O79 Fe69 1.976 . S
O79 C74 1.287 . S
O80 Fe66 1.996 . S
O80 C74 1.255 . S
C81 O85 1.295 . S
C81 O86 1.235 . S
O82 Fe67 1.976 . S
O82 C76 1.287 . S
O83 Fe69 1.996 . S
O83 C76 1.255 . S
C84 O77 1.287 . S
C84 O78 1.255 . S
O85 Fe67 2.002 . S
O85 C81 1.295 . S
O86 Fe69 1.997 . S
O86 C81 1.235 . S
C87 O70 1.295 . S
C87 O71 1.235 . S
Fe88 O90 1.918 . S
Fe88 O93 1.997 . S
Fe88 O94 2.002 . S
Fe88 O99 1.976 . S
Fe88 O102 1.996 . S
Fe89 O90 1.918 . S
Fe89 O97 1.997 . S
Fe89 O100 1.996 . S
Fe89 O104 1.976 . S
Fe89 O107 2.002 . S
O90 Fe88 1.918 . S
O90 Fe89 1.918 . S
O90 Fe91 1.918 . S
Fe91 O90 1.918 . S
Fe91 O92 2.002 . S
Fe91 O101 1.976 . S
Fe91 O105 1.996 . S
Fe91 O108 1.997 . S
O92 Fe91 2.002 . S
O92 C109 1.295 . S
O93 Fe88 1.997 . S
O93 C109 1.235 . S
O94 Fe88 2.002 . S
O94 C95 1.295 . S
C95 O94 1.295 . S
C95 O97 1.235 . S
C96 O101 1.287 . S
C96 O102 1.255 . S
O97 Fe89 1.997 . S
O97 C95 1.235 . S
C98 O104 1.287 . S
C98 O105 1.255 . S
O99 Fe88 1.976 . S
O99 C106 1.287 . S
O100 Fe89 1.996 . S
O100 C106 1.255 . S
O101 Fe91 1.976 . S
O101 C96 1.287 . S
O102 Fe88 1.996 . S
O102 C96 1.255 . S
C103 O107 1.295 . S
C103 O108 1.235 . S
O104 Fe89 1.976 . S
O104 C98 1.287 . S
O105 Fe91 1.996 . S
O105 C98 1.255 . S
C106 O99 1.287 . S
C106 O100 1.255 . S
O107 Fe89 2.002 . S
O107 C103 1.295 . S
O108 Fe91 1.997 . S
O108 C103 1.235 . S
C109 O92 1.295 . S
C109 O93 1.235 . S
Fe110 O112 1.918 . S
Fe110 O115 1.997 . S
Fe110 O116 2.002 . S
Fe110 O121 1.976 . S
Fe110 O124 1.996 . S
Fe111 O112 1.918 . S
Fe111 O119 1.997 . S
Fe111 O122 1.996 . S
Fe111 O126 1.976 . S
Fe111 O129 2.002 . S
O112 Fe110 1.918 . S
O112 Fe111 1.918 . S
O112 Fe113 1.918 . S
Fe113 O112 1.918 . S
Fe113 O114 2.002 . S
Fe113 O123 1.976 . S
Fe113 O127 1.996 . S
Fe113 O130 1.997 . S
O114 Fe113 2.002 . S
O114 C131 1.295 . S
O115 Fe110 1.997 . S
O115 C131 1.235 . S
O116 Fe110 2.002 . S
O116 C117 1.295 . S
C117 O116 1.295 . S
C117 O119 1.235 . S
C118 O123 1.287 . S
C118 O124 1.255 . S
O119 Fe111 1.997 . S
O119 C117 1.235 . S
C120 O126 1.287 . S
C120 O127 1.255 . S
O121 Fe110 1.976 . S
O121 C128 1.287 . S
O122 Fe111 1.996 . S
O122 C128 1.255 . S
O123 Fe113 1.976 . S
O123 C118 1.287 . S
O124 Fe110 1.996 . S
O124 C118 1.255 . S
C125 O129 1.295 . S
C125 O130 1.235 . S
O126 Fe111 1.976 . S
O126 C120 1.287 . S
O127 Fe113 1.996 . S
O127 C120 1.255 . S
C128 O121 1.287 . S
C128 O122 1.255 . S
O129 Fe111 2.002 . S
O129 C125 1.295 . S
O130 Fe113 1.997 . S
O130 C125 1.235 . S
C131 O114 1.295 . S
C131 O115 1.235 . S
Fe132 O134 1.918 . S
Fe132 O137 1.997 . S
Fe132 O138 2.002 . S
Fe132 O143 1.976 . S
Fe132 O146 1.996 . S
Fe133 O134 1.918 . S
Fe133 O141 1.997 . S
Fe133 O144 1.996 . S
Fe133 O148 1.976 . S
Fe133 O151 2.002 . S
O134 Fe132 1.918 . S
O134 Fe133 1.918 . S
O134 Fe135 1.918 . S
Fe135 O134 1.918 . S
Fe135 O136 2.002 . S
Fe135 O145 1.976 . S
Fe135 O149 1.996 . S
Fe135 O152 1.997 . S
O136 Fe135 2.002 . S
O136 C153 1.295 . S
O137 Fe132 1.997 . S
O137 C153 1.235 . S
O138 Fe132 2.002 . S
O138 C139 1.295 . S
C139 O138 1.295 . S
C139 O141 1.235 . S
C140 O145 1.287 . S
C140 O146 1.255 . S
O141 Fe133 1.997 . S
O141 C139 1.235 . S
C142 O148 1.287 . S
C142 O149 1.255 . S
O143 Fe132 1.976 . S
O143 C150 1.287 . S
O144 Fe133 1.996 . S
O144 C150 1.255 . S
O145 Fe135 1.976 . S
O145 C140 1.287 . S
O146 Fe132 1.996 . S
O146 C140 1.255 . S
C147 O151 1.295 . S
C147 O152 1.235 . S
O148 Fe133 1.976 . S
O148 C142 1.287 . S
O149 Fe135 1.996 . S
O149 C142 1.255 . S
C150 O143 1.287 . S
C150 O144 1.255 . S
O151 Fe133 2.002 . S
O151 C147 1.295 . S
O152 Fe135 1.997 . S
O152 C147 1.235 . S
C153 O136 1.295 . S
C153 O137 1.235 . S
Fe154 O156 1.918 . S
Fe154 O159 1.997 . S
Fe154 O160 2.002 . S
Fe154 O165 1.976 . S
Fe154 O168 1.996 . S
Fe155 O156 1.918 . S
Fe155 O163 1.997 . S
Fe155 O166 1.996 . S
Fe155 O170 1.976 . S
Fe155 O173 2.002 . S
O156 Fe154 1.918 . S
O156 Fe155 1.918 . S
O156 Fe157 1.918 . S
Fe157 O156 1.918 . S
Fe157 O158 2.002 . S
Fe157 O167 1.976 . S
Fe157 O171 1.996 . S
Fe157 O174 1.997 . S
O158 Fe157 2.002 . S
O158 C175 1.295 . S
O159 Fe154 1.997 . S
O159 C175 1.235 . S
O160 Fe154 2.002 . S
O160 C161 1.295 . S
C161 O160 1.295 . S
C161 O163 1.235 . S
C162 O167 1.287 . S
C162 O168 1.255 . S
O163 Fe155 1.997 . S
O163 C161 1.235 . S
C164 O170 1.287 . S
C164 O171 1.255 . S
O165 Fe154 1.976 . S
O165 C172 1.287 . S
O166 Fe155 1.996 . S
O166 C172 1.255 . S
O167 Fe157 1.976 . S
O167 C162 1.287 . S
O168 Fe154 1.996 . S
O168 C162 1.255 . S
C169 O173 1.295 . S
C169 O174 1.235 . S
O170 Fe155 1.976 . S
O170 C164 1.287 . S
O171 Fe157 1.996 . S
O171 C164 1.255 . S
C172 O165 1.287 . S
C172 O166 1.255 . S
O173 Fe155 2.002 . S
O173 C169 1.295 . S
O174 Fe157 1.997 . S
O174 C169 1.235 . S
C175 O158 1.295 . S
C175 O159 1.235 . S
Fe176 O178 1.918 . S
Fe176 O181 1.997 . S
Fe176 O182 2.002 . S
Fe176 O187 1.976 . S
Fe176 O190 1.996 . S
Fe177 O178 1.918 . S
Fe177 O185 1.997 . S
Fe177 O188 1.996 . S
Fe177 O192 1.976 . S
Fe177 O195 2.002 . S
O178 Fe176 1.918 . S
O178 Fe177 1.918 . S
O178 Fe179 1.918 . S
Fe179 O178 1.918 . S
Fe179 O180 2.002 . S
Fe179 O189 1.976 . S
Fe179 O193 1.996 . S
Fe179 O196 1.997 . S
O180 Fe179 2.002 . S
O180 C197 1.295 . S
O181 Fe176 1.997 . S
O181 C197 1.235 . S
O182 Fe176 2.002 . S
O182 C183 1.295 . S
C183 O182 1.295 . S
C183 O185 1.235 . S
C184 O189 1.287 . S
C184 O190 1.255 . S
O185 Fe177 1.997 . S
O185 C183 1.235 . S
C186 O192 1.287 . S
C186 O193 1.255 . S
O187 Fe176 1.976 . S
O187 C194 1.287 . S
O188 Fe177 1.996 . S
O188 C194 1.255 . S
O189 Fe179 1.976 . S
O189 C184 1.287 . S
O190 Fe176 1.996 . S
O190 C184 1.255 . S
C191 O195 1.295 . S
C191 O196 1.235 . S
O192 Fe177 1.976 . S
O192 C186 1.287 . S
O193 Fe179 1.996 . S
O193 C186 1.255 . S
C194 O187 1.287 . S
C194 O188 1.255 . S
O195 Fe177 2.002 . S
O195 C191 1.295 . S
O196 Fe179 1.997 . S
O196 C191 1.235 . S
C197 O180 1.295 . S
C197 O181 1.235 . S
Fe198 O200 1.918 . S
Fe198 O203 1.997 . S
Fe198 O204 2.002 . S
Fe198 O209 1.976 . S
Fe198 O212 1.996 . S
Fe199 O200 1.918 . S
Fe199 O207 1.997 . S
Fe199 O210 1.996 . S
Fe199 O214 1.976 . S
Fe199 O217 2.002 . S
O200 Fe198 1.918 . S
O200 Fe199 1.918 . S
O200 Fe201 1.918 . S
Fe201 O200 1.918 . S
Fe201 O202 2.002 . S
Fe201 O211 1.976 . S
Fe201 O215 1.996 . S
Fe201 O218 1.997 . S
O202 Fe201 2.002 . S
O202 C219 1.295 . S
O203 Fe198 1.997 . S
O203 C219 1.235 . S
O204 Fe198 2.002 . S
O204 C205 1.295 . S
C205 O204 1.295 . S
C205 O207 1.235 . S
C206 O211 1.287 . S
C206 O212 1.255 . S
O207 Fe199 1.997 . S
O207 C205 1.235 . S
C208 O214 1.287 . S
C208 O215 1.255 . S
O209 Fe198 1.976 . S
O209 C216 1.287 . S
O210 Fe199 1.996 . S
O210 C216 1.255 . S
O211 Fe201 1.976 . S
O211 C206 1.287 . S
O212 Fe198 1.996 . S
O212 C206 1.255 . S
C213 O217 1.295 . S
C213 O218 1.235 . S
O214 Fe199 1.976 . S
O214 C208 1.287 . S
O215 Fe201 1.996 . S
O215 C208 1.255 . S
C216 O209 1.287 . S
C216 O210 1.255 . S
O217 Fe199 2.002 . S
O217 C213 1.295 . S
O218 Fe201 1.997 . S
O218 C213 1.235 . S
C219 O202 1.295 . S
C219 O203 1.235 . S
Fe220 O222 1.918 . S
Fe220 O225 1.997 . S
Fe220 O226 2.002 . S
Fe220 O231 1.976 . S
Fe220 O234 1.996 . S
Fe221 O222 1.918 . S
Fe221 O229 1.997 . S
Fe221 O232 1.996 . S
Fe221 O236 1.976 . S
Fe221 O239 2.002 . S
O222 Fe220 1.918 . S
O222 Fe221 1.918 . S
O222 Fe223 1.918 . S
Fe223 O222 1.918 . S
Fe223 O224 2.002 . S
Fe223 O233 1.976 . S
Fe223 O237 1.996 . S
Fe223 O240 1.997 . S
O224 Fe223 2.002 . S
O224 C241 1.295 . S
O225 Fe220 1.997 . S
O225 C241 1.235 . S
O226 Fe220 2.002 . S
O226 C227 1.295 . S
C227 O226 1.295 . S
C227 O229 1.235 . S
C228 O233 1.287 . S
C228 O234 1.255 . S
O229 Fe221 1.997 . S
O229 C227 1.235 . S
C230 O236 1.287 . S
C230 O237 1.255 . S
O231 Fe220 1.976 . S
O231 C238 1.287 . S
O232 Fe221 1.996 . S
O232 C238 1.255 . S
O233 Fe223 1.976 . S
O233 C228 1.287 . S
O234 Fe220 1.996 . S
O234 C228 1.255 . S
C235 O239 1.295 . S
C235 O240 1.235 . S
O236 Fe221 1.976 . S
O236 C230 1.287 . S
O237 Fe223 1.996 . S
O237 C230 1.255 . S
C238 O231 1.287 . S
C238 O232 1.255 . S
O239 Fe221 2.002 . S
O239 C235 1.295 . S
O240 Fe223 1.997 . S
O240 C235 1.235 . S
C241 O224 1.295 . S
C241 O225 1.235 . S
Fe242 O244 1.918 . S
Fe242 O247 1.997 . S
Fe242 O248 2.002 . S
Fe242 O253 1.976 . S
Fe242 O256 1.996 . S
Fe243 O244 1.918 . S
Fe243 O251 1.997 . S
Fe243 O254 1.996 . S
Fe243 O258 1.976 . S
Fe243 O261 2.002 . S
O244 Fe242 1.918 . S
O244 Fe243 1.918 . S
O244 Fe245 1.918 . S
Fe245 O244 1.918 . S
Fe245 O246 2.002 . S
Fe245 O255 1.976 . S
Fe245 O259 1.996 . S
Fe245 O262 1.997 . S
O246 Fe245 2.002 . S
O246 C263 1.295 . S
O247 Fe242 1.997 . S
O247 C263 1.235 . S
O248 Fe242 2.002 . S
O248 C249 1.295 . S
C249 O248 1.295 . S
C249 O251 1.235 . S
C250 O255 1.287 . S
C250 O256 1.255 . S
O251 Fe243 1.997 . S
O251 C249 1.235 . S
C252 O258 1.287 . S
C252 O259 1.255 . S
O253 Fe242 1.976 . S
O253 C260 1.287 . S
O254 Fe243 1.996 . S
O254 C260 1.255 . S
O255 Fe245 1.976 . S
O255 C250 1.287 . S
O256 Fe242 1.996 . S
O256 C250 1.255 . S
C257 O261 1.295 . S
C257 O262 1.235 . S
O258 Fe243 1.976 . S
O258 C252 1.287 . S
O259 Fe245 1.996 . S
O259 C252 1.255 . S
C260 O253 1.287 . S
C260 O254 1.255 . S
O261 Fe243 2.002 . S
O261 C257 1.295 . S
O262 Fe245 1.997 . S
O262 C257 1.235 . S
C263 O246 1.295 . S
C263 O247 1.235 . S
Fe264 O266 1.918 . S
Fe264 O269 1.997 . S
Fe264 O270 2.002 . S
Fe264 O275 1.976 . S
Fe264 O278 1.996 . S
Fe265 O266 1.918 . S
Fe265 O273 1.997 . S
Fe265 O276 1.996 . S
Fe265 O280 1.976 . S
Fe265 O283 2.002 . S
O266 Fe264 1.918 . S
O266 Fe265 1.918 . S
O266 Fe267 1.918 . S
Fe267 O266 1.918 . S
Fe267 O268 2.002 . S
Fe267 O277 1.976 . S
Fe267 O281 1.996 . S
Fe267 O284 1.997 . S
O268 Fe267 2.002 . S
O268 C285 1.295 . S
O269 Fe264 1.997 . S
O269 C285 1.235 . S
O270 Fe264 2.002 . S
O270 C271 1.295 . S
C271 O270 1.295 . S
C271 O273 1.235 . S
C272 O277 1.287 . S
C272 O278 1.255 . S
O273 Fe265 1.997 . S
O273 C271 1.235 . S
C274 O280 1.287 . S
C274 O281 1.255 . S
O275 Fe264 1.976 . S
O275 C282 1.287 . S
O276 Fe265 1.996 . S
O276 C282 1.255 . S
O277 Fe267 1.976 . S
O277 C272 1.287 . S
O278 Fe264 1.996 . S
O278 C272 1.255 . S
C279 O283 1.295 . S
C279 O284 1.235 . S
O280 Fe265 1.976 . S
O280 C274 1.287 . S
O281 Fe267 1.996 . S
O281 C274 1.255 . S
C282 O275 1.287 . S
C282 O276 1.255 . S
O283 Fe265 2.002 . S
O283 C279 1.295 . S
O284 Fe267 1.997 . S
O284 C279 1.235 . S
C285 O268 1.295 . S
C285 O269 1.235 . S
Fe286 O288 1.918 . S
Fe286 O291 1.997 . S
Fe286 O292 2.002 . S
Fe286 O297 1.976 . S
Fe286 O300 1.996 . S
Fe287 O288 1.918 . S
Fe287 O295 1.997 . S
Fe287 O298 1.996 . S
Fe287 O302 1.976 . S
Fe287 O305 2.002 . S
O288 Fe286 1.918 . S
O288 Fe287 1.918 . S
O288 Fe289 1.918 . S
Fe289 O288 1.918 . S
Fe289 O290 2.002 . S
Fe289 O299 1.976 . S
Fe289 O303 1.996 . S
Fe289 O306 1.997 . S
O290 Fe289 2.002 . S
O290 C307 1.295 . S
O291 Fe286 1.997 . S
O291 C307 1.235 . S
O292 Fe286 2.002 . S
O292 C293 1.295 . S
C293 O292 1.295 . S
C293 O295 1.235 . S
C294 O299 1.287 . S
C294 O300 1.255 . S
O295 Fe287 1.997 . S
O295 C293 1.235 . S
C296 O302 1.287 . S
C296 O303 1.255 . S
O297 Fe286 1.976 . S
O297 C304 1.287 . S
O298 Fe287 1.996 . S
O298 C304 1.255 . S
O299 Fe289 1.976 . S
O299 C294 1.287 . S
O300 Fe286 1.996 . S
O300 C294 1.255 . S
C301 O305 1.295 . S
C301 O306 1.235 . S
O302 Fe287 1.976 . S
O302 C296 1.287 . S
O303 Fe289 1.996 . S
O303 C296 1.255 . S
C304 O297 1.287 . S
C304 O298 1.255 . S
O305 Fe287 2.002 . S
O305 C301 1.295 . S
O306 Fe289 1.997 . S
O306 C301 1.235 . S
C307 O290 1.295 . S
C307 O291 1.235 . S
Fe308 O310 1.918 . S
Fe308 O313 1.997 . S
Fe308 O314 2.002 . S
Fe308 O319 1.976 . S
Fe308 O322 1.996 . S
Fe309 O310 1.918 . S
Fe309 O317 1.997 . S
Fe309 O320 1.996 . S
Fe309 O324 1.976 . S
Fe309 O327 2.002 . S
O310 Fe308 1.918 . S
O310 Fe309 1.918 . S
O310 Fe311 1.918 . S
Fe311 O310 1.918 . S
Fe311 O312 2.002 . S
Fe311 O321 1.976 . S
Fe311 O325 1.996 . S
Fe311 O328 1.997 . S
O312 Fe311 2.002 . S
O312 C329 1.295 . S
O313 Fe308 1.997 . S
O313 C329 1.235 . S
O314 Fe308 2.002 . S
O314 C315 1.295 . S
C315 O314 1.295 . S
C315 O317 1.235 . S
C316 O321 1.287 . S
C316 O322 1.255 . S
O317 Fe309 1.997 . S
O317 C315 1.235 . S
C318 O324 1.287 . S
C318 O325 1.255 . S
O319 Fe308 1.976 . S
O319 C326 1.287 . S
O320 Fe309 1.996 . S
O320 C326 1.255 . S
O321 Fe311 1.976 . S
O321 C316 1.287 . S
O322 Fe308 1.996 . S
O322 C316 1.255 . S
C323 O327 1.295 . S
C323 O328 1.235 . S
O324 Fe309 1.976 . S
O324 C318 1.287 . S
O325 Fe311 1.996 . S
O325 C318 1.255 . S
C326 O319 1.287 . S
C326 O320 1.255 . S
O327 Fe309 2.002 . S
O327 C323 1.295 . S
O328 Fe311 1.997 . S
O328 C323 1.235 . S
C329 O312 1.295 . S
C329 O313 1.235 . S
Fe330 O332 1.918 . S
Fe330 O335 1.997 . S
Fe330 O336 2.002 . S
Fe330 O341 1.976 . S
Fe330 O344 1.996 . S
Fe331 O332 1.918 . S
Fe331 O339 1.997 . S
Fe331 O342 1.996 . S
Fe331 O346 1.976 . S
Fe331 O349 2.002 . S
O332 Fe330 1.918 . S
O332 Fe331 1.918 . S
O332 Fe333 1.918 . S
Fe333 O332 1.918 . S
Fe333 O334 2.002 . S
Fe333 O343 1.976 . S
Fe333 O347 1.996 . S
Fe333 O350 1.997 . S
O334 Fe333 2.002 . S
O334 C351 1.295 . S
O335 Fe330 1.997 . S
O335 C351 1.235 . S
O336 Fe330 2.002 . S
O336 C337 1.295 . S
C337 O336 1.295 . S
C337 O339 1.235 . S
C338 O343 1.287 . S
C338 O344 1.255 . S
O339 Fe331 1.997 . S
O339 C337 1.235 . S
C340 O346 1.287 . S
C340 O347 1.255 . S
O341 Fe330 1.976 . S
O341 C348 1.287 . S
O342 Fe331 1.996 . S
O342 C348 1.255 . S
O343 Fe333 1.976 . S
O343 C338 1.287 . S
O344 Fe330 1.996 . S
O344 C338 1.255 . S
C345 O349 1.295 . S
C345 O350 1.235 . S
O346 Fe331 1.976 . S
O346 C340 1.287 . S
O347 Fe333 1.996 . S
O347 C340 1.255 . S
C348 O341 1.287 . S
C348 O342 1.255 . S
O349 Fe331 2.002 . S
O349 C345 1.295 . S
O350 Fe333 1.997 . S
O350 C345 1.235 . S
C351 O334 1.295 . S
C351 O335 1.235 . S
C352 C353 1.391 . S
C352 C354 1.394 . S
C352 H368 0.931 . S
C353 C352 1.391 . S
C353 C357 1.376 . S
C354 C352 1.394 . S
C354 C355 1.369 . S
C354 C358 1.531 . S
C355 C354 1.369 . S
C355 C356 1.410 . S
C355 C363 1.503 . S
C356 C355 1.410 . S
C356 C357 1.392 . S
C356 C359 1.511 . S
C357 C353 1.376 . S
C357 C356 1.392 . S
C357 H369 0.929 . S
C358 C354 1.531 . S
C358 H370 0.960 . S
C358 H371 0.962 . S
C358 H372 0.960 . S
C359 C356 1.511 . S
C359 H373 0.961 . S
C359 H374 0.961 . S
C359 H375 0.961 . S
C360 C361 1.370 . S
C360 C362 1.363 1_565 S
C360 H376 0.931 . S
C361 C360 1.370 . S
C361 C365 1.408 . S
C362 C360 1.363 1_545 S
C362 C363 1.370 . S
C362 C366 1.524 . S
C363 C355 1.503 . S
C363 C362 1.370 . S
C363 C364 1.403 . S
C364 C363 1.403 . S
C364 C365 1.404 1_545 S
C364 C367 1.539 . S
C365 C361 1.408 . S
C365 C364 1.404 1_565 S
C365 H377 0.930 . S
C366 C362 1.524 . S
C366 H378 0.956 . S
C366 H379 0.961 . S
C366 H380 0.961 . S
C367 C364 1.539 . S
C367 H381 0.958 . S
C367 H382 0.961 . S
C367 H383 0.960 . S
H368 C352 0.931 . S
H369 C357 0.929 . S
H370 C358 0.960 . S
H371 C358 0.962 . S
H372 C358 0.960 . S
H373 C359 0.961 . S
H374 C359 0.961 . S
H375 C359 0.961 . S
H376 C360 0.931 . S
H377 C365 0.930 . S
H378 C366 0.956 . S
H379 C366 0.961 . S
H380 C366 0.961 . S
H381 C367 0.958 . S
H382 C367 0.961 . S
H383 C367 0.960 . S
C384 C385 1.391 . S
C384 C386 1.394 . S
C384 H400 0.931 . S
C385 C384 1.391 . S
C385 C389 1.376 . S
C386 C384 1.394 . S
C386 C387 1.369 . S
C386 C390 1.531 . S
C387 C386 1.369 . S
C387 C388 1.410 . S
C387 C395 1.503 . S
C388 C387 1.410 . S
C388 C389 1.392 . S
C388 C391 1.511 . S
C389 C385 1.376 . S
C389 C388 1.392 . S
C389 H401 0.929 . S
C390 C386 1.531 . S
C390 H402 0.960 . S
C390 H403 0.962 . S
C390 H404 0.960 . S
C391 C388 1.511 . S
C391 H405 0.961 . S
C391 H406 0.961 . S
C391 H407 0.961 . S
C392 C393 1.370 . S
C392 C394 1.363 1_545 S
C392 H408 0.931 . S
C393 C392 1.370 . S
C393 C397 1.408 1_545 S
C394 C392 1.363 1_565 S
C394 C395 1.370 . S
C394 C398 1.524 . S
C395 C387 1.503 . S
C395 C394 1.370 . S
C395 C396 1.403 . S
C396 C395 1.403 . S
C396 C397 1.404 . S
C396 C399 1.539 . S
C397 C393 1.408 1_565 S
C397 C396 1.404 . S
C397 H409 0.930 . S
C398 C394 1.524 . S
C398 H410 0.956 . S
C398 H411 0.961 . S
C398 H412 0.961 1_565 S
C399 C396 1.539 . S
C399 H413 0.958 . S
C399 H414 0.961 . S
C399 H415 0.960 . S
H400 C384 0.931 . S
H401 C389 0.929 . S
H402 C390 0.960 . S
H403 C390 0.962 . S
H404 C390 0.960 . S
H405 C391 0.961 . S
H406 C391 0.961 . S
H407 C391 0.961 . S
H408 C392 0.931 . S
H409 C397 0.930 . S
H410 C398 0.956 . S
H411 C398 0.961 . S
H412 C398 0.961 1_545 S
H413 C399 0.958 . S
H414 C399 0.961 . S
H415 C399 0.960 . S
C416 C417 1.391 . S
C416 C418 1.394 . S
C416 H432 0.931 . S
C417 C416 1.391 . S
C417 C421 1.376 . S
C418 C416 1.394 . S
C418 C419 1.369 . S
C418 C422 1.531 . S
C419 C418 1.369 . S
C419 C420 1.410 . S
C419 C427 1.503 . S
C420 C419 1.410 . S
C420 C421 1.392 . S
C420 C423 1.511 . S
C421 C417 1.376 . S
C421 C420 1.392 . S
C421 H433 0.929 . S
C422 C418 1.531 . S
C422 H434 0.960 . S
C422 H435 0.962 . S
C422 H436 0.960 . S
C423 C420 1.511 . S
C423 H437 0.961 . S
C423 H438 0.961 . S
C423 H439 0.961 . S
C424 C425 1.370 . S
C424 C426 1.363 1_545 S
C424 H440 0.931 . S
C425 C424 1.370 . S
C425 C429 1.408 . S
C426 C424 1.363 1_565 S
C426 C427 1.370 . S
C426 C430 1.524 . S
C427 C419 1.503 . S
C427 C426 1.370 . S
C427 C428 1.403 . S
C428 C427 1.403 . S
C428 C429 1.404 1_565 S
C428 C431 1.539 . S
C429 C425 1.408 . S
C429 C428 1.404 1_545 S
C429 H441 0.930 . S
C430 C426 1.524 . S
C430 H442 0.956 . S
C430 H443 0.961 . S
C430 H444 0.961 . S
C431 C428 1.539 . S
C431 H445 0.958 . S
C431 H446 0.961 . S
C431 H447 0.960 . S
H432 C416 0.931 . S
H433 C421 0.929 . S
H434 C422 0.960 . S
H435 C422 0.962 . S
H436 C422 0.960 . S
H437 C423 0.961 . S
H438 C423 0.961 . S
H439 C423 0.961 . S
H440 C424 0.931 . S
H441 C429 0.930 . S
H442 C430 0.956 . S
H443 C430 0.961 . S
H444 C430 0.961 . S
H445 C431 0.958 . S
H446 C431 0.961 . S
H447 C431 0.960 . S
C448 C449 1.391 . S
C448 C450 1.394 1_565 S
C448 H464 0.931 . S
C449 C448 1.391 . S
C449 C453 1.386 . S
C450 C448 1.394 1_545 S
C450 C451 1.369 . S
C450 C454 1.531 . S
C451 C450 1.369 . S
C451 C452 1.410 . S
C451 C459 1.503 . S
C452 C451 1.410 . S
C452 C453 1.381 1_545 S
C452 C455 1.511 . S
C453 C449 1.386 . S
C453 C452 1.381 1_565 S
C453 H465 0.930 . S
C454 C450 1.531 . S
C454 H466 0.960 . S
C454 H467 0.962 . S
C454 H468 0.960 1_545 S
C455 C452 1.511 . S
C455 H469 0.961 . S
C455 H470 0.961 . S
C455 H471 0.961 . S
C456 C457 1.370 . S
C456 C458 1.363 . S
C456 H472 0.931 . S
C457 C456 1.370 . S
C457 C461 1.408 . S
C458 C456 1.363 . S
C458 C459 1.370 . S
C458 C462 1.524 . S
C459 C451 1.503 . S
C459 C458 1.370 . S
C459 C460 1.403 . S
C460 C459 1.403 . S
C460 C461 1.404 . S
C460 C463 1.539 . S
C461 C457 1.408 . S
C461 C460 1.404 . S
C461 H473 0.930 . S
C462 C458 1.524 . S
C462 H474 0.956 . S
C462 H475 0.961 . S
C462 H476 0.961 . S
C463 C460 1.539 . S
C463 H477 0.958 . S
C463 H478 0.961 . S
C463 H479 0.960 . S
H464 C448 0.931 . S
H465 C453 0.930 . S
H466 C454 0.960 . S
H467 C454 0.962 . S
H468 C454 0.960 1_565 S
H469 C455 0.961 . S
H470 C455 0.961 . S
H471 C455 0.961 . S
H472 C456 0.931 . S
H473 C461 0.930 . S
H474 C462 0.956 . S
H475 C462 0.961 . S
H476 C462 0.961 . S
H477 C463 0.958 . S
H478 C463 0.961 . S
H479 C463 0.960 . S
C480 C481 1.391 . S
C480 C482 1.394 1_545 S
C480 H496 0.931 . S
C481 C480 1.391 . S
C481 C485 1.376 . S
C482 C480 1.394 1_565 S
C482 C483 1.369 . S
C482 C486 1.531 . S
C483 C482 1.369 . S
C483 C484 1.410 . S
C483 C491 1.503 . S
C484 C483 1.410 . S
C484 C485 1.392 1_565 S
C484 C487 1.511 . S
C485 C481 1.376 . S
C485 C484 1.392 1_545 S
C485 H497 0.929 . S
C486 C482 1.531 . S
C486 H498 0.960 . S
C486 H499 0.962 . S
C486 H500 0.960 . S
C487 C484 1.511 . S
C487 H501 0.961 . S
C487 H502 0.961 . S
C487 H503 0.961 . S
C488 C489 1.370 . S
C488 C490 1.363 . S
C488 H504 0.931 . S
C489 C488 1.370 . S
C489 C493 1.408 . S
C490 C488 1.363 . S
C490 C491 1.370 . S
C490 C494 1.524 . S
C491 C483 1.503 . S
C491 C490 1.370 . S
C491 C492 1.403 . S
C492 C491 1.403 . S
C492 C493 1.404 . S
C492 C495 1.539 . S
C493 C489 1.408 . S
C493 C492 1.404 . S
C493 H505 0.930 . S
C494 C490 1.524 . S
C494 H506 0.956 . S
C494 H507 0.961 . S
C494 H508 0.961 . S
C495 C492 1.539 . S
C495 H509 0.958 . S
C495 H510 0.961 . S
C495 H511 0.960 . S
H496 C480 0.931 . S
H497 C485 0.929 . S
H498 C486 0.960 . S
H499 C486 0.962 . S
H500 C486 0.960 . S
H501 C487 0.961 . S
H502 C487 0.961 . S
H503 C487 0.961 . S
H504 C488 0.931 . S
H505 C493 0.930 . S
H506 C494 0.956 . S
H507 C494 0.961 . S
H508 C494 0.961 . S
H509 C495 0.958 . S
H510 C495 0.961 . S
H511 C495 0.960 . S
C512 C513 1.391 . S
C512 C514 1.394 1_565 S
C512 H528 0.931 . S
C513 C512 1.391 . S
C513 C517 1.376 1_565 S
C514 C512 1.394 1_545 S
C514 C515 1.369 . S
C514 C518 1.531 . S
C515 C514 1.369 . S
C515 C516 1.410 . S
C515 C523 1.503 . S
C516 C515 1.410 . S
C516 C517 1.392 . S
C516 C519 1.511 . S
C517 C513 1.376 1_545 S
C517 C516 1.392 . S
C517 H529 0.929 . S
C518 C514 1.531 . S
C518 H530 0.966 . S
C518 H531 0.961 1_545 S
C518 H532 0.954 1_545 S
C519 C516 1.511 . S
C519 H533 0.961 . S
C519 H534 0.961 . S
C519 H535 0.961 . S
C520 C521 1.370 . S
C520 C522 1.363 . S
C520 H536 0.931 . S
C521 C520 1.370 . S
C521 C525 1.408 . S
C522 C520 1.363 . S
C522 C523 1.370 . S
C522 C526 1.524 . S
C523 C515 1.503 . S
C523 C522 1.370 . S
C523 C524 1.403 . S
C524 C523 1.403 . S
C524 C525 1.404 . S
C524 C527 1.539 . S
C525 C521 1.408 . S
C525 C524 1.404 . S
C525 H537 0.930 . S
C526 C522 1.524 . S
C526 H538 0.956 . S
C526 H539 0.961 . S
C526 H540 0.961 . S
C527 C524 1.539 . S
C527 H541 0.958 . S
C527 H542 0.961 . S
C527 H543 0.960 . S
H528 C512 0.931 . S
H529 C517 0.929 . S
H530 C518 0.966 . S
H531 C518 0.961 1_565 S
H532 C518 0.954 1_565 S
H533 C519 0.961 . S
H534 C519 0.961 . S
H535 C519 0.961 . S
H536 C520 0.931 . S
H537 C525 0.930 . S
H538 C526 0.956 . S
H539 C526 0.961 . S
H540 C526 0.961 . S
H541 C527 0.958 . S
H542 C527 0.961 . S
H543 C527 0.960 . S
C544 C545 1.391 . S
C544 C546 1.394 1_565 S
C544 H560 0.931 . S
C545 C544 1.391 . S
C545 C549 1.376 1_565 S
C546 C544 1.394 1_545 S
C546 C547 1.369 . S
C546 C550 1.531 . S
C547 C546 1.369 . S
C547 C548 1.410 . S
C547 C555 1.503 . S
C548 C547 1.410 . S
C548 C549 1.392 . S
C548 C551 1.511 . S
C549 C545 1.376 1_545 S
C549 C548 1.392 . S
C549 H561 0.929 . S
C550 C546 1.531 . S
C550 H562 0.960 . S
C550 H563 0.960 1_545 S
C550 H564 0.960 1_545 S
C551 C548 1.511 . S
C551 H565 0.961 . S
C551 H566 0.961 . S
C551 H567 0.961 . S
C552 C553 1.370 . S
C552 C554 1.363 . S
C552 H568 0.931 . S
C553 C552 1.370 . S
C553 C557 1.408 . S
C554 C552 1.363 . S
C554 C555 1.370 . S
C554 C558 1.524 . S
C555 C547 1.503 . S
C555 C554 1.370 . S
C555 C556 1.403 . S
C556 C555 1.403 . S
C556 C557 1.404 . S
C556 C559 1.539 . S
C557 C553 1.408 . S
C557 C556 1.404 . S
C557 H569 0.930 . S
C558 C554 1.524 . S
C558 H570 0.956 . S
C558 H571 0.961 . S
C558 H572 0.961 . S
C559 C556 1.539 . S
C559 H573 0.958 . S
C559 H574 0.961 . S
C559 H575 0.960 . S
H560 C544 0.931 . S
H561 C549 0.929 . S
H562 C550 0.960 . S
H563 C550 0.960 1_565 S
H564 C550 0.960 1_565 S
H565 C551 0.961 . S
H566 C551 0.961 . S
H567 C551 0.961 . S
H568 C552 0.931 . S
H569 C557 0.930 . S
H570 C558 0.956 . S
H571 C558 0.961 . S
H572 C558 0.961 . S
H573 C559 0.958 . S
H574 C559 0.961 . S
H575 C559 0.960 . S
C576 C577 1.391 . S
C576 C578 1.394 1_545 S
C576 H592 0.931 . S
C577 C576 1.391 . S
C577 C581 1.376 1_545 S
C578 C576 1.394 1_565 S
C578 C579 1.369 . S
C578 C582 1.531 . S
C579 C578 1.369 . S
C579 C580 1.410 . S
C579 C587 1.503 . S
C580 C579 1.410 . S
C580 C581 1.392 . S
C580 C583 1.511 . S
C581 C577 1.376 1_565 S
C581 C580 1.392 . S
C581 H593 0.929 . S
C582 C578 1.531 . S
C582 H594 0.960 . S
C582 H595 0.962 . S
C582 H596 0.960 1_565 S
C583 C580 1.511 . S
C583 H597 0.961 . S
C583 H598 0.961 . S
C583 H599 0.961 . S
C584 C585 1.370 . S
C584 C586 1.363 . S
C584 H600 0.931 . S
C585 C584 1.370 . S
C585 C589 1.408 . S
C586 C584 1.363 . S
C586 C587 1.370 . S
C586 C590 1.524 . S
C587 C579 1.503 . S
C587 C586 1.370 . S
C587 C588 1.403 . S
C588 C587 1.403 . S
C588 C589 1.404 . S
C588 C591 1.539 . S
C589 C585 1.408 . S
C589 C588 1.404 . S
C589 H601 0.930 . S
C590 C586 1.524 . S
C590 H602 0.956 . S
C590 H603 0.961 . S
C590 H604 0.961 . S
C591 C588 1.539 . S
C591 H605 0.958 . S
C591 H606 0.961 . S
C591 H607 0.960 . S
H592 C576 0.931 . S
H593 C581 0.929 . S
H594 C582 0.960 . S
H595 C582 0.962 . S
H596 C582 0.960 1_545 S
H597 C583 0.961 . S
H598 C583 0.961 . S
H599 C583 0.961 . S
H600 C584 0.931 . S
H601 C589 0.930 . S
H602 C590 0.956 . S
H603 C590 0.961 . S
H604 C590 0.961 . S
H605 C591 0.958 . S
H606 C591 0.961 . S
H607 C591 0.960 . S
C608 C609 1.391 . S
C608 C610 1.394 . S
C608 H624 0.931 . S
C609 C608 1.391 . S
C609 C613 1.376 . S
C610 C608 1.394 . S
C610 C611 1.369 . S
C610 C614 1.531 . S
C611 C610 1.369 . S
C611 C612 1.410 . S
C611 C619 1.503 . S
C612 C611 1.410 . S
C612 C613 1.392 . S
C612 C615 1.511 . S
C613 C609 1.376 . S
C613 C612 1.392 . S
C613 H625 0.929 . S
C614 C610 1.531 . S
C614 H626 0.960 . S
C614 H627 0.962 . S
C614 H628 0.960 . S
C615 C612 1.511 . S
C615 H629 0.961 . S
C615 H630 0.961 . S
C615 H631 0.961 . S
C616 C617 1.370 . S
C616 C618 1.363 . S
C616 H632 0.931 . S
C617 C616 1.370 . S
C617 C621 1.408 . S
C618 C616 1.363 . S
C618 C619 1.370 . S
C618 C622 1.524 . S
C619 C611 1.503 . S
C619 C618 1.370 . S
C619 C620 1.403 . S
C620 C619 1.403 . S
C620 C621 1.404 . S
C620 C623 1.539 . S
C621 C617 1.408 . S
C621 C620 1.404 . S
C621 H633 0.930 . S
C622 C618 1.524 . S
C622 H634 0.956 . S
C622 H635 0.961 . S
C622 H636 0.961 . S
C623 C620 1.539 . S
C623 H637 0.958 . S
C623 H638 0.961 . S
C623 H639 0.960 . S
H624 C608 0.931 . S
H625 C613 0.929 . S
H626 C614 0.960 . S
H627 C614 0.962 . S
H628 C614 0.960 . S
H629 C615 0.961 . S
H630 C615 0.961 . S
H631 C615 0.961 . S
H632 C616 0.931 . S
H633 C621 0.930 . S
H634 C622 0.956 . S
H635 C622 0.961 . S
H636 C622 0.961 . S
H637 C623 0.958 . S
H638 C623 0.961 . S
H639 C623 0.960 . S
C640 C641 1.391 . S
C640 C642 1.394 . S
C640 H656 0.931 . S
C641 C640 1.391 . S
C641 C645 1.376 . S
C642 C640 1.394 . S
C642 C643 1.369 . S
C642 C646 1.531 . S
C643 C642 1.369 . S
C643 C644 1.410 . S
C643 C651 1.503 . S
C644 C643 1.410 . S
C644 C645 1.392 . S
C644 C647 1.511 . S
C645 C641 1.376 . S
C645 C644 1.392 . S
C645 H657 0.929 . S
C646 C642 1.531 . S
C646 H658 0.960 . S
C646 H659 0.962 . S
C646 H660 0.960 . S
C647 C644 1.511 . S
C647 H661 0.961 . S
C647 H662 0.961 . S
C647 H663 0.961 . S
C648 C649 1.370 . S
C648 C650 1.363 . S
C648 H664 0.931 . S
C649 C648 1.370 . S
C649 C653 1.408 . S
C650 C648 1.363 . S
C650 C651 1.370 . S
C650 C654 1.524 . S
C651 C643 1.503 . S
C651 C650 1.370 . S
C651 C652 1.403 . S
C652 C651 1.403 . S
C652 C653 1.404 . S
C652 C655 1.539 . S
C653 C649 1.408 . S
C653 C652 1.404 . S
C653 H665 0.930 . S
C654 C650 1.524 . S
C654 H666 0.956 . S
C654 H667 0.961 . S
C654 H668 0.961 . S
C655 C652 1.539 . S
C655 H669 0.958 . S
C655 H670 0.961 . S
C655 H671 0.960 . S
H656 C640 0.931 . S
H657 C645 0.929 . S
H658 C646 0.960 . S
H659 C646 0.962 . S
H660 C646 0.960 . S
H661 C647 0.961 . S
H662 C647 0.961 . S
H663 C647 0.961 . S
H664 C648 0.931 . S
H665 C653 0.930 . S
H666 C654 0.956 . S
H667 C654 0.961 . S
H668 C654 0.961 . S
H669 C655 0.958 . S
H670 C655 0.961 . S
H671 C655 0.960 . S
C672 C673 1.391 . S
C672 C674 1.394 . S
C672 H688 0.931 . S
C673 C672 1.391 . S
C673 C677 1.376 . S
C674 C672 1.394 . S
C674 C675 1.369 . S
C674 C678 1.531 . S
C675 C674 1.369 . S
C675 C676 1.410 . S
C675 C683 1.503 . S
C676 C675 1.410 . S
C676 C677 1.392 . S
C676 C679 1.511 . S
C677 C673 1.376 . S
C677 C676 1.392 . S
C677 H689 0.929 . S
C678 C674 1.531 . S
C678 H690 0.960 . S
C678 H691 0.962 . S
C678 H692 0.960 . S
C679 C676 1.511 . S
C679 H693 0.961 . S
C679 H694 0.961 . S
C679 H695 0.961 . S
C680 C681 1.370 . S
C680 C682 1.363 . S
C680 H696 0.931 . S
C681 C680 1.370 . S
C681 C685 1.408 . S
C682 C680 1.363 . S
C682 C683 1.370 . S
C682 C686 1.524 . S
C683 C675 1.503 . S
C683 C682 1.370 . S
C683 C684 1.403 . S
C684 C683 1.403 . S
C684 C685 1.404 . S
C684 C687 1.539 . S
C685 C681 1.408 . S
C685 C684 1.404 . S
C685 H697 0.930 . S
C686 C682 1.524 . S
C686 H698 0.956 . S
C686 H699 0.961 . S
C686 H700 0.961 . S
C687 C684 1.539 . S
C687 H701 0.958 . S
C687 H702 0.961 . S
C687 H703 0.960 . S
H688 C672 0.931 . S
H689 C677 0.929 . S
H690 C678 0.960 . S
H691 C678 0.962 . S
H692 C678 0.960 . S
H693 C679 0.961 . S
H694 C679 0.961 . S
H695 C679 0.961 . S
H696 C680 0.931 . S
H697 C685 0.930 . S
H698 C686 0.956 . S
H699 C686 0.961 . S
H700 C686 0.961 . S
H701 C687 0.958 . S
H702 C687 0.961 . S
H703 C687 0.960 . S
C704 C705 1.391 . S
C704 C706 1.394 . S
C704 H720 0.931 . S
C705 C704 1.391 . S
C705 C709 1.376 . S
C706 C704 1.394 . S
C706 C707 1.369 . S
C706 C710 1.531 . S
C707 C706 1.369 . S
C707 C708 1.410 . S
C707 C715 1.503 . S
C708 C707 1.410 . S
C708 C709 1.392 . S
C708 C711 1.511 . S
C709 C705 1.376 . S
C709 C708 1.392 . S
C709 H721 0.929 . S
C710 C706 1.531 . S
C710 H722 0.960 . S
C710 H723 0.962 . S
C710 H724 0.960 . S
C711 C708 1.511 . S
C711 H725 0.961 . S
C711 H726 0.961 . S
C711 H727 0.961 . S
C712 C713 1.370 . S
C712 C714 1.363 . S
C712 H728 0.931 . S
C713 C712 1.370 . S
C713 C717 1.408 . S
C714 C712 1.363 . S
C714 C715 1.370 . S
C714 C718 1.524 . S
C715 C707 1.503 . S
C715 C714 1.370 . S
C715 C716 1.403 . S
C716 C715 1.403 . S
C716 C717 1.404 . S
C716 C719 1.539 . S
C717 C713 1.408 . S
C717 C716 1.404 . S
C717 H729 0.930 . S
C718 C714 1.524 . S
C718 H730 0.956 . S
C718 H731 0.961 . S
C718 H732 0.961 . S
C719 C716 1.539 . S
C719 H733 0.958 . S
C719 H734 0.961 . S
C719 H735 0.960 . S
H720 C704 0.931 . S
H721 C709 0.929 . S
H722 C710 0.960 . S
H723 C710 0.962 . S
H724 C710 0.960 . S
H725 C711 0.961 . S
H726 C711 0.961 . S
H727 C711 0.961 . S
H728 C712 0.931 . S
H729 C717 0.930 . S
H730 C718 0.956 . S
H731 C718 0.961 . S
H732 C718 0.961 . S
H733 C719 0.958 . S
H734 C719 0.961 . S
H735 C719 0.960 . S
C736 C737 1.391 . S
C736 C738 1.394 . S
C736 H752 0.931 . S
C737 C736 1.391 . S
C737 C741 1.376 . S
C738 C736 1.394 . S
C738 C739 1.369 . S
C738 C742 1.531 . S
C739 C738 1.369 . S
C739 C740 1.410 . S
C739 C747 1.503 . S
C740 C739 1.410 . S
C740 C741 1.392 . S
C740 C743 1.511 . S
C741 C737 1.376 . S
C741 C740 1.392 . S
C741 H753 0.929 . S
C742 C738 1.531 . S
C742 H754 0.960 . S
C742 H755 0.962 . S
C742 H756 0.960 . S
C743 C740 1.511 . S
C743 H757 0.961 . S
C743 H758 0.961 . S
C743 H759 0.961 . S
C744 C745 1.370 . S
C744 C746 1.363 . S
C744 H760 0.931 . S
C745 C744 1.370 . S
C745 C749 1.408 . S
C746 C744 1.363 . S
C746 C747 1.370 . S
C746 C750 1.524 . S
C747 C739 1.503 . S
C747 C746 1.370 . S
C747 C748 1.403 . S
C748 C747 1.403 . S
C748 C749 1.404 . S
C748 C751 1.539 . S
C749 C745 1.408 . S
C749 C748 1.404 . S
C749 H761 0.930 . S
C750 C746 1.524 . S
C750 H762 0.956 . S
C750 H763 0.961 . S
C750 H764 0.961 . S
C751 C748 1.539 . S
C751 H765 0.958 . S
C751 H766 0.961 . S
C751 H767 0.960 . S
H752 C736 0.931 . S
H753 C741 0.929 . S
H754 C742 0.960 . S
H755 C742 0.962 . S
H756 C742 0.960 . S
H757 C743 0.961 . S
H758 C743 0.961 . S
H759 C743 0.961 . S
H760 C744 0.931 . S
H761 C749 0.930 . S
H762 C750 0.956 . S
H763 C750 0.961 . S
H764 C750 0.961 . S
H765 C751 0.958 . S
H766 C751 0.961 . S
H767 C751 0.960 . S
C768 C769 1.391 . S
C768 C770 1.394 . S
C768 H784 0.931 . S
C769 C768 1.391 . S
C769 C773 1.376 . S
C770 C768 1.394 . S
C770 C771 1.369 . S
C770 C774 1.531 . S
C771 C770 1.369 . S
C771 C772 1.410 . S
C771 C779 1.503 . S
C772 C771 1.410 . S
C772 C773 1.392 . S
C772 C775 1.511 . S
C773 C769 1.376 . S
C773 C772 1.392 . S
C773 H785 0.929 . S
C774 C770 1.531 . S
C774 H786 0.960 . S
C774 H787 0.962 . S
C774 H788 0.960 . S
C775 C772 1.511 . S
C775 H789 0.961 . S
C775 H790 0.961 . S
C775 H791 0.961 . S
C776 C777 1.370 . S
C776 C778 1.363 . S
C776 H792 0.931 . S
C777 C776 1.370 . S
C777 C781 1.408 . S
C778 C776 1.363 . S
C778 C779 1.370 . S
C778 C782 1.524 . S
C779 C771 1.503 . S
C779 C778 1.370 . S
C779 C780 1.403 . S
C780 C779 1.403 . S
C780 C781 1.404 . S
C780 C783 1.539 . S
C781 C777 1.408 . S
C781 C780 1.404 . S
C781 H793 0.930 . S
C782 C778 1.524 . S
C782 H794 0.956 . S
C782 H795 0.961 . S
C782 H796 0.961 . S
C783 C780 1.539 . S
C783 H797 0.958 . S
C783 H798 0.961 . S
C783 H799 0.960 . S
H784 C768 0.931 . S
H785 C773 0.929 . S
H786 C774 0.960 . S
H787 C774 0.962 . S
H788 C774 0.960 . S
H789 C775 0.961 . S
H790 C775 0.961 . S
H791 C775 0.961 . S
H792 C776 0.931 . S
H793 C781 0.930 . S
H794 C782 0.956 . S
H795 C782 0.961 . S
H796 C782 0.961 . S
H797 C783 0.958 . S
H798 C783 0.961 . S
H799 C783 0.960 . S
C800 C801 1.391 . S
C800 C802 1.394 . S
C800 H816 0.931 . S
C801 C800 1.391 . S
C801 C805 1.376 . S
C802 C800 1.394 . S
C802 C803 1.369 . S
C802 C806 1.531 . S
C803 C802 1.369 . S
C803 C804 1.410 . S
C803 C811 1.503 . S
C804 C803 1.410 . S
C804 C805 1.392 . S
C804 C807 1.511 . S
C805 C801 1.376 . S
C805 C804 1.392 . S
C805 H817 0.929 . S
C806 C802 1.531 . S
C806 H818 0.960 . S
C806 H819 0.962 . S
C806 H820 0.960 . S
C807 C804 1.511 . S
C807 H821 0.961 . S
C807 H822 0.961 . S
C807 H823 0.961 . S
C808 C809 1.370 . S
C808 C810 1.363 . S
C808 H824 0.931 . S
C809 C808 1.370 . S
C809 C813 1.408 . S
C810 C808 1.363 . S
C810 C811 1.370 . S
C810 C814 1.524 . S
C811 C803 1.503 . S
C811 C810 1.370 . S
C811 C812 1.403 . S
C812 C811 1.403 . S
C812 C813 1.404 . S
C812 C815 1.539 . S
C813 C809 1.408 . S
C813 C812 1.404 . S
C813 H825 0.930 . S
C814 C810 1.524 . S
C814 H826 0.956 . S
C814 H827 0.961 . S
C814 H828 0.961 . S
C815 C812 1.539 . S
C815 H829 0.958 . S
C815 H830 0.961 . S
C815 H831 0.960 . S
H816 C800 0.931 . S
H817 C805 0.929 . S
H818 C806 0.960 . S
H819 C806 0.962 . S
H820 C806 0.960 . S
H821 C807 0.961 . S
H822 C807 0.961 . S
H823 C807 0.961 . S
H824 C808 0.931 . S
H825 C813 0.930 . S
H826 C814 0.956 . S
H827 C814 0.961 . S
H828 C814 0.961 . S
H829 C815 0.958 . S
H830 C815 0.961 . S
H831 C815 0.960 . S
C832 C833 1.391 . S
C832 C834 1.394 . S
C832 H848 0.931 . S
C833 C832 1.391 . S
C833 C837 1.376 . S
C834 C832 1.394 . S
C834 C835 1.369 . S
C834 C838 1.531 . S
C835 C834 1.369 . S
C835 C836 1.410 . S
C835 C843 1.503 . S
C836 C835 1.410 . S
C836 C837 1.392 . S
C836 C839 1.511 . S
C837 C833 1.376 . S
C837 C836 1.392 . S
C837 H849 0.929 . S
C838 C834 1.531 . S
C838 H850 0.960 . S
C838 H851 0.962 . S
C838 H852 0.960 . S
C839 C836 1.511 . S
C839 H853 0.961 . S
C839 H854 0.961 . S
C839 H855 0.961 . S
C840 C841 1.370 . S
C840 C842 1.363 . S
C840 H856 0.931 . S
C841 C840 1.370 . S
C841 C845 1.408 . S
C842 C840 1.363 . S
C842 C843 1.370 . S
C842 C846 1.524 . S
C843 C835 1.503 . S
C843 C842 1.370 . S
C843 C844 1.403 . S
C844 C843 1.403 . S
C844 C845 1.404 . S
C844 C847 1.539 . S
C845 C841 1.408 . S
C845 C844 1.404 . S
C845 H857 0.930 . S
C846 C842 1.524 . S
C846 H858 0.956 . S
C846 H859 0.961 . S
C846 H860 0.961 . S
C847 C844 1.539 . S
C847 H861 0.958 . S
C847 H862 0.961 . S
C847 H863 0.960 . S
H848 C832 0.931 . S
H849 C837 0.929 . S
H850 C838 0.960 . S
H851 C838 0.962 . S
H852 C838 0.960 . S
H853 C839 0.961 . S
H854 C839 0.961 . S
H855 C839 0.961 . S
H856 C840 0.931 . S
H857 C845 0.930 . S
H858 C846 0.956 . S
H859 C846 0.961 . S
H860 C846 0.961 . S
H861 C847 0.958 . S
H862 C847 0.961 . S
H863 C847 0.960 . S
C864 C865 1.391 . S
C864 C866 1.394 . S
C864 H880 0.931 . S
C865 C864 1.391 . S
C865 C869 1.376 . S
C866 C864 1.394 . S
C866 C867 1.369 . S
C866 C870 1.531 . S
C867 C866 1.369 . S
C867 C868 1.410 . S
C867 C875 1.503 1_554 S
C868 C867 1.410 . S
C868 C869 1.392 . S
C868 C871 1.511 1_554 S
C869 C865 1.376 . S
C869 C868 1.392 . S
C869 H881 0.929 . S
C870 C866 1.531 . S
C870 H882 0.960 . S
C870 H883 0.962 . S
C870 H884 0.960 . S
C871 C868 1.511 1_556 S
C871 H885 0.961 . S
C871 H886 0.961 . S
C871 H887 0.961 . S
C872 C873 1.370 . S
C872 C874 1.363 . S
C872 H888 0.931 . S
C873 C872 1.370 . S
C873 C877 1.408 . S
C874 C872 1.363 . S
C874 C875 1.370 . S
C874 C878 1.524 . S
C875 C867 1.503 1_556 S
C875 C874 1.370 . S
C875 C876 1.403 . S
C876 C875 1.403 . S
C876 C877 1.404 . S
C876 C879 1.539 1_556 S
C877 C873 1.408 . S
C877 C876 1.404 . S
C877 H889 0.930 . S
C878 C874 1.524 . S
C878 H890 0.956 . S
C878 H891 0.961 . S
C878 H892 0.961 . S
C879 C876 1.539 1_554 S
C879 H893 0.958 . S
C879 H894 0.961 . S
C879 H895 0.960 . S
H880 C864 0.931 . S
H881 C869 0.929 . S
H882 C870 0.960 . S
H883 C870 0.962 . S
H884 C870 0.960 . S
H885 C871 0.961 . S
H886 C871 0.961 . S
H887 C871 0.961 . S
H888 C872 0.931 . S
H889 C877 0.930 . S
H890 C878 0.956 . S
H891 C878 0.961 . S
H892 C878 0.961 . S
H893 C879 0.958 . S
H894 C879 0.961 . S
H895 C879 0.960 . S
C896 C897 1.391 . S
C896 C898 1.394 . S
C896 H912 0.931 . S
C897 C896 1.391 . S
C897 C901 1.376 . S
C898 C896 1.394 . S
C898 C899 1.369 . S
C898 C902 1.531 . S
C899 C898 1.369 . S
C899 C900 1.410 . S
C899 C907 1.503 . S
C900 C899 1.410 . S
C900 C901 1.392 . S
C900 C903 1.511 . S
C901 C897 1.376 . S
C901 C900 1.392 . S
C901 H913 0.929 . S
C902 C898 1.531 . S
C902 H914 0.960 . S
C902 H915 0.962 . S
C902 H916 0.960 . S
C903 C900 1.511 . S
C903 H917 0.961 . S
C903 H918 0.961 . S
C903 H919 0.961 . S
C904 C905 1.370 . S
C904 C906 1.363 . S
C904 H920 0.931 . S
C905 C904 1.370 . S
C905 C909 1.408 . S
C906 C904 1.363 . S
C906 C907 1.370 . S
C906 C910 1.524 . S
C907 C899 1.503 . S
C907 C906 1.370 . S
C907 C908 1.403 . S
C908 C907 1.403 . S
C908 C909 1.404 . S
C908 C911 1.539 . S
C909 C905 1.408 . S
C909 C908 1.404 . S
C909 H921 0.930 . S
C910 C906 1.524 . S
C910 H922 0.956 . S
C910 H923 0.961 . S
C910 H924 0.961 . S
C911 C908 1.539 . S
C911 H925 0.958 . S
C911 H926 0.961 . S
C911 H927 0.960 . S
H912 C896 0.931 . S
H913 C901 0.929 . S
H914 C902 0.960 . S
H915 C902 0.962 . S
H916 C902 0.960 . S
H917 C903 0.961 . S
H918 C903 0.961 . S
H919 C903 0.961 . S
H920 C904 0.931 . S
H921 C909 0.930 . S
H922 C910 0.956 . S
H923 C910 0.961 . S
H924 C910 0.961 . S
H925 C911 0.958 . S
H926 C911 0.961 . S
H927 C911 0.960 . S
C928 C929 1.391 . S
C928 C930 1.394 . S
C928 H944 0.931 . S
C929 C928 1.391 . S
C929 C933 1.376 . S
C930 C928 1.394 . S
C930 C931 1.369 . S
C930 C934 1.531 1_554 S
C931 C930 1.369 . S
C931 C932 1.410 . S
C931 C939 1.503 1_554 S
C932 C931 1.410 . S
C932 C933 1.392 . S
C932 C935 1.511 . S
C933 C929 1.376 . S
C933 C932 1.392 . S
C933 H945 0.929 . S
C934 C930 1.531 1_556 S
C934 H946 0.960 . S
C934 H947 0.962 . S
C934 H948 0.960 . S
C935 C932 1.511 . S
C935 H949 0.961 . S
C935 H950 0.961 . S
C935 H951 0.961 . S
C936 C937 1.370 . S
C936 C938 1.363 . S
C936 H952 0.931 . S
C937 C936 1.370 . S
C937 C941 1.408 . S
C938 C936 1.363 . S
C938 C939 1.370 . S
C938 C942 1.524 . S
C939 C931 1.503 1_556 S
C939 C938 1.370 . S
C939 C940 1.403 . S
C940 C939 1.403 . S
C940 C941 1.404 . S
C940 C943 1.539 1_556 S
C941 C937 1.408 . S
C941 C940 1.404 . S
C941 H953 0.930 . S
C942 C938 1.524 . S
C942 H954 0.956 . S
C942 H955 0.992 . S
C942 H956 0.961 . S
C943 C940 1.539 1_554 S
C943 H957 0.958 1_554 S
C943 H958 0.961 . S
C943 H959 0.960 . S
H944 C928 0.931 . S
H945 C933 0.929 . S
H946 C934 0.960 . S
H947 C934 0.962 . S
H948 C934 0.960 . S
H949 C935 0.961 . S
H950 C935 0.961 . S
H951 C935 0.961 . S
H952 C936 0.931 . S
H953 C941 0.930 . S
H954 C942 0.956 . S
H955 C942 0.992 . S
H956 C942 0.961 . S
H957 C943 0.958 1_556 S
H958 C943 0.961 . S
H959 C943 0.960 . S
C960 C961 1.391 . S
C960 C962 1.394 . S
C960 H976 0.931 . S
C961 C960 1.391 . S
C961 C965 1.376 . S
C962 C960 1.394 . S
C962 C963 1.369 . S
C962 C966 1.531 . S
C963 C962 1.369 . S
C963 C964 1.410 . S
C963 C971 1.503 . S
C964 C963 1.410 . S
C964 C965 1.392 . S
C964 C967 1.511 . S
C965 C961 1.376 . S
C965 C964 1.392 . S
C965 H977 0.929 . S
C966 C962 1.531 . S
C966 H978 0.960 . S
C966 H979 0.962 . S
C966 H980 0.960 . S
C967 C964 1.511 . S
C967 H981 0.961 . S
C967 H982 0.961 . S
C967 H983 0.961 . S
C968 C969 1.370 . S
C968 C970 1.363 . S
C968 H984 0.931 . S
C969 C968 1.370 . S
C969 C973 1.408 . S
C970 C968 1.363 . S
C970 C971 1.370 . S
C970 C974 1.524 . S
C971 C963 1.503 . S
C971 C970 1.370 . S
C971 C972 1.403 . S
C972 C971 1.403 . S
C972 C973 1.404 . S
C972 C975 1.539 . S
C973 C969 1.408 . S
C973 C972 1.404 . S
C973 H985 0.930 . S
C974 C970 1.524 . S
C974 H986 0.956 . S
C974 H987 0.961 . S
C974 H988 0.961 . S
C975 C972 1.539 . S
C975 H989 0.958 . S
C975 H990 0.961 . S
C975 H991 0.960 . S
H976 C960 0.931 . S
H977 C965 0.929 . S
H978 C966 0.960 . S
H979 C966 0.962 . S
H980 C966 0.960 . S
H981 C967 0.961 . S
H982 C967 0.961 . S
H983 C967 0.961 . S
H984 C968 0.931 . S
H985 C973 0.930 . S
H986 C974 0.956 . S
H987 C974 0.961 . S
H988 C974 0.961 . S
H989 C975 0.958 . S
H990 C975 0.961 . S
H991 C975 0.960 . S
C992 C993 1.391 . S
C992 C994 1.394 . S
C992 H1008 0.931 . S
C993 C992 1.391 . S
C993 C997 1.376 . S
C994 C992 1.394 . S
C994 C995 1.369 . S
C994 C998 1.531 1_556 S
C995 C994 1.369 . S
C995 C996 1.410 . S
C995 C1003 1.503 1_546 S
C996 C995 1.410 . S
C996 C997 1.392 . S
C996 C999 1.511 1_545 S
C997 C993 1.376 . S
C997 C996 1.392 . S
C997 H1009 0.929 . S
C998 C994 1.531 1_554 S
C998 H1010 0.960 . S
C998 H1011 0.962 . S
C998 H1012 0.960 . S
C999 C996 1.511 1_565 S
C999 H1013 0.961 . S
C999 H1014 0.961 . S
C999 H1015 0.961 . S
C1000 C1001 1.370 . S
C1000 C1002 1.363 . S
C1000 H1016 0.931 . S
C1001 C1000 1.370 . S
C1001 C1005 1.408 . S
C1002 C1000 1.363 . S
C1002 C1003 1.370 . S
C1002 C1006 1.524 1_554 S
C1003 C995 1.503 1_564 S
C1003 C1002 1.370 . S
C1003 C1004 1.403 . S
C1004 C1003 1.403 . S
C1004 C1005 1.404 . S
C1004 C1007 1.539 1_565 S
C1005 C1001 1.408 . S
C1005 C1004 1.404 . S
C1005 H1017 0.930 . S
C1006 C1002 1.524 1_556 S
C1006 H1018 0.956 . S
C1006 H1019 0.961 . S
C1006 H1020 0.961 . S
C1007 C1004 1.539 1_545 S
C1007 H1021 0.958 . S
C1007 H1022 0.961 . S
C1007 H1023 0.960 . S
H1008 C992 0.931 . S
H1009 C997 0.929 . S
H1010 C998 0.960 . S
H1011 C998 0.962 . S
H1012 C998 0.960 . S
H1013 C999 0.961 . S
H1014 C999 0.961 . S
H1015 C999 0.961 . S
H1016 C1000 0.931 . S
H1017 C1005 0.930 . S
H1018 C1006 0.956 . S
H1019 C1006 0.961 . S
H1020 C1006 0.961 . S
H1021 C1007 0.958 . S
H1022 C1007 0.961 . S
H1023 C1007 0.960 . S
C1024 C1025 1.391 . S
C1024 C1026 1.394 . S
C1024 H1040 0.931 . S
C1025 C1024 1.391 . S
C1025 C1029 1.376 . S
C1026 C1024 1.394 . S
C1026 C1027 1.369 . S
C1026 C1030 1.531 . S
C1027 C1026 1.369 . S
C1027 C1028 1.410 . S
C1027 C1035 1.503 1_565 S
C1028 C1027 1.410 . S
C1028 C1029 1.392 . S
C1028 C1031 1.511 1_565 S
C1029 C1025 1.376 . S
C1029 C1028 1.392 . S
C1029 H1041 0.929 . S
C1030 C1026 1.531 . S
C1030 H1042 0.960 . S
C1030 H1043 0.962 . S
C1030 H1044 0.960 . S
C1031 C1028 1.511 1_545 S
C1031 H1045 0.961 . S
C1031 H1046 0.961 . S
C1031 H1047 0.961 1_545 S
C1032 C1033 1.370 . S
C1032 C1034 1.363 . S
C1032 H1048 0.931 . S
C1033 C1032 1.370 . S
C1033 C1037 1.408 . S
C1034 C1032 1.363 . S
C1034 C1035 1.370 . S
C1034 C1038 1.524 . S
C1035 C1027 1.503 1_545 S
C1035 C1034 1.370 . S
C1035 C1036 1.403 . S
C1036 C1035 1.403 . S
C1036 C1037 1.404 . S
C1036 C1039 1.539 1_545 S
C1037 C1033 1.408 . S
C1037 C1036 1.404 . S
C1037 H1049 0.930 . S
C1038 C1034 1.524 . S
C1038 H1050 0.956 . S
C1038 H1051 0.961 . S
C1038 H1052 0.961 . S
C1039 C1036 1.539 1_565 S
C1039 H1053 0.958 . S
C1039 H1054 0.961 . S
C1039 H1055 0.960 . S
H1040 C1024 0.931 . S
H1041 C1029 0.929 . S
H1042 C1030 0.960 . S
H1043 C1030 0.962 . S
H1044 C1030 0.960 . S
H1045 C1031 0.961 . S
H1046 C1031 0.961 . S
H1047 C1031 0.961 1_565 S
H1048 C1032 0.931 . S
H1049 C1037 0.930 . S
H1050 C1038 0.956 . S
H1051 C1038 0.961 . S
H1052 C1038 0.961 . S
H1053 C1039 0.958 . S
H1054 C1039 0.961 . S
H1055 C1039 0.960 . S
C1056 C1057 1.391 . S
C1056 C1058 1.394 . S
C1056 H1072 0.931 . S
C1057 C1056 1.391 . S
C1057 C1061 1.376 . S
C1058 C1056 1.394 . S
C1058 C1059 1.369 . S
C1058 C1062 1.531 . S
C1059 C1058 1.369 . S
C1059 C1060 1.410 . S
C1059 C1067 1.503 1_564 S
C1060 C1059 1.410 . S
C1060 C1061 1.392 . S
C1060 C1063 1.511 . S
C1061 C1057 1.376 . S
C1061 C1060 1.392 . S
C1061 H1073 0.929 . S
C1062 C1058 1.531 . S
C1062 H1074 0.960 1_565 S
C1062 H1075 0.961 1_554 S
C1062 H1076 0.960 . S
C1063 C1060 1.511 . S
C1063 H1077 0.961 . S
C1063 H1078 0.961 1_564 S
C1063 H1079 0.961 1_565 S
C1064 C1065 1.370 . S
C1064 C1066 1.363 . S
C1064 H1080 0.931 . S
C1065 C1064 1.370 . S
C1065 C1069 1.408 . S
C1066 C1064 1.363 . S
C1066 C1067 1.370 . S
C1066 C1070 1.524 1_545 S
C1067 C1059 1.503 1_546 S
C1067 C1066 1.370 . S
C1067 C1068 1.403 . S
C1068 C1067 1.403 . S
C1068 C1069 1.404 . S
C1068 C1071 1.539 1_556 S
C1069 C1065 1.408 . S
C1069 C1068 1.404 . S
C1069 H1081 0.930 . S
C1070 C1066 1.524 1_565 S
C1070 H1082 0.956 . S
C1070 H1083 0.961 . S
C1070 H1084 0.961 . S
C1071 C1068 1.539 1_554 S
C1071 H1085 0.958 . S
C1071 H1086 0.961 . S
C1071 H1087 0.960 . S
H1072 C1056 0.931 . S
H1073 C1061 0.929 . S
H1074 C1062 0.960 1_545 S
H1075 C1062 0.961 1_556 S
H1076 C1062 0.960 . S
H1077 C1063 0.961 . S
H1078 C1063 0.961 1_546 S
H1079 C1063 0.961 1_545 S
H1080 C1064 0.931 . S
H1081 C1069 0.930 . S
H1082 C1070 0.956 . S
H1083 C1070 0.961 . S
H1084 C1070 0.961 . S
H1085 C1071 0.958 . S
H1086 C1071 0.961 . S
H1087 C1071 0.960 . S
C1088 C1089 1.391 . S
C1088 C1090 1.394 . S
C1088 H1104 0.931 . S
C1089 C1088 1.391 . S
C1089 C1093 1.376 . S
C1090 C1088 1.394 . S
C1090 C1091 1.369 . S
C1090 C1094 1.531 . S
C1091 C1090 1.369 . S
C1091 C1092 1.410 . S
C1091 C1099 1.503 1_565 S
C1092 C1091 1.410 . S
C1092 C1093 1.392 . S
C1092 C1095 1.511 . S
C1093 C1089 1.376 . S
C1093 C1092 1.392 . S
C1093 H1105 0.929 . S
C1094 C1090 1.531 . S
C1094 H1106 0.960 . S
C1094 H1107 0.962 . S
C1094 H1108 0.960 . S
C1095 C1092 1.511 . S
C1095 H1109 0.961 . S
C1095 H1110 0.961 1_565 S
C1095 H1111 0.961 . S
C1096 C1097 1.370 . S
C1096 C1098 1.363 . S
C1096 H1112 0.931 . S
C1097 C1096 1.370 . S
C1097 C1101 1.408 . S
C1098 C1096 1.363 . S
C1098 C1099 1.370 . S
C1098 C1102 1.524 . S
C1099 C1091 1.503 1_545 S
C1099 C1098 1.370 . S
C1099 C1100 1.403 1_545 S
C1100 C1099 1.403 1_565 S
C1100 C1101 1.404 1_565 S
C1100 C1103 1.539 . S
C1101 C1097 1.408 . S
C1101 C1100 1.404 1_545 S
C1101 H1113 0.930 . S
C1102 C1098 1.524 . S
C1102 H1114 0.956 . S
C1102 H1115 0.961 . S
C1102 H1116 0.961 . S
C1103 C1100 1.539 . S
C1103 H1117 0.958 . S
C1103 H1118 0.961 . S
C1103 H1119 0.960 . S
H1104 C1088 0.931 . S
H1105 C1093 0.929 . S
H1106 C1094 0.960 . S
H1107 C1094 0.962 . S
H1108 C1094 0.960 . S
H1109 C1095 0.961 . S
H1110 C1095 0.961 1_545 S
H1111 C1095 0.961 . S
H1112 C1096 0.931 . S
H1113 C1101 0.930 . S
H1114 C1102 0.956 . S
H1115 C1102 0.961 . S
H1116 C1102 0.961 . S
H1117 C1103 0.958 . S
H1118 C1103 0.961 . S
H1119 C1103 0.960 . S
C1120 C1121 1.391 . S
C1120 C1122 1.394 . S
C1120 H1136 0.931 . S
C1121 C1120 1.391 . S
C1121 C1125 1.376 . S
C1122 C1120 1.394 . S
C1122 C1123 1.369 . S
C1122 C1126 1.531 . S
C1123 C1122 1.369 . S
C1123 C1124 1.410 . S
C1123 C1131 1.503 . S
C1124 C1123 1.410 . S
C1124 C1125 1.392 . S
C1124 C1127 1.511 . S
C1125 C1121 1.376 . S
C1125 C1124 1.392 . S
C1125 H1137 0.929 . S
C1126 C1122 1.531 . S
C1126 H1138 0.960 . S
C1126 H1139 0.962 . S
C1126 H1140 0.960 . S
C1127 C1124 1.511 . S
C1127 H1141 0.961 . S
C1127 H1142 0.961 . S
C1127 H1143 0.961 . S
C1128 C1129 1.370 . S
C1128 C1130 1.363 . S
C1128 H1144 0.931 . S
C1129 C1128 1.370 . S
C1129 C1133 1.408 . S
C1130 C1128 1.363 . S
C1130 C1131 1.370 . S
C1130 C1134 1.524 . S
C1131 C1123 1.503 . S
C1131 C1130 1.370 . S
C1131 C1132 1.403 . S
C1132 C1131 1.403 . S
C1132 C1133 1.404 . S
C1132 C1135 1.539 . S
C1133 C1129 1.408 . S
C1133 C1132 1.404 . S
C1133 H1145 0.930 . S
C1134 C1130 1.524 . S
C1134 H1146 0.956 . S
C1134 H1147 0.961 . S
C1134 H1148 0.961 . S
C1135 C1132 1.539 . S
C1135 H1149 0.958 . S
C1135 H1150 0.961 . S
C1135 H1151 0.960 . S
H1136 C1120 0.931 . S
H1137 C1125 0.929 . S
H1138 C1126 0.960 . S
H1139 C1126 0.962 . S
H1140 C1126 0.960 . S
H1141 C1127 0.961 . S
H1142 C1127 0.961 . S
H1143 C1127 0.961 . S
H1144 C1128 0.931 . S
H1145 C1133 0.930 . S
H1146 C1134 0.956 . S
H1147 C1134 0.961 . S
H1148 C1134 0.961 . S
H1149 C1135 0.958 . S
H1150 C1135 0.961 . S
H1151 C1135 0.960 . S
C1152 C1153 1.391 . S
C1152 C1154 1.394 . S
C1152 H1168 0.931 . S
C1153 C1152 1.391 . S
C1153 C1157 1.376 . S
C1154 C1152 1.394 . S
C1154 C1155 1.369 . S
C1154 C1158 1.531 . S
C1155 C1154 1.369 . S
C1155 C1156 1.410 . S
C1155 C1163 1.503 . S
C1156 C1155 1.410 . S
C1156 C1157 1.392 . S
C1156 C1159 1.511 . S
C1157 C1153 1.376 . S
C1157 C1156 1.392 . S
C1157 H1169 0.929 . S
C1158 C1154 1.531 . S
C1158 H1170 0.960 . S
C1158 H1171 0.962 . S
C1158 H1172 0.960 . S
C1159 C1156 1.511 . S
C1159 H1173 0.961 . S
C1159 H1174 0.961 . S
C1159 H1175 0.961 . S
C1160 C1161 1.370 . S
C1160 C1162 1.363 . S
C1160 H1176 0.931 . S
C1161 C1160 1.370 . S
C1161 C1165 1.408 . S
C1162 C1160 1.363 . S
C1162 C1163 1.370 . S
C1162 C1166 1.524 . S
C1163 C1155 1.503 . S
C1163 C1162 1.370 . S
C1163 C1164 1.403 . S
C1164 C1163 1.403 . S
C1164 C1165 1.404 . S
C1164 C1167 1.539 . S
C1165 C1161 1.408 . S
C1165 C1164 1.404 . S
C1165 H1177 0.930 . S
C1166 C1162 1.524 . S
C1166 H1178 0.956 . S
C1166 H1179 0.961 . S
C1166 H1180 0.961 . S
C1167 C1164 1.539 . S
C1167 H1181 0.958 . S
C1167 H1182 0.961 . S
C1167 H1183 0.960 . S
H1168 C1152 0.931 . S
H1169 C1157 0.929 . S
H1170 C1158 0.960 . S
H1171 C1158 0.962 . S
H1172 C1158 0.960 . S
H1173 C1159 0.961 . S
H1174 C1159 0.961 . S
H1175 C1159 0.961 . S
H1176 C1160 0.931 . S
H1177 C1165 0.930 . S
H1178 C1166 0.956 . S
H1179 C1166 0.961 . S
H1180 C1166 0.961 . S
H1181 C1167 0.958 . S
H1182 C1167 0.961 . S
H1183 C1167 0.960 . S
C1184 C1185 1.391 . S
C1184 C1186 1.394 . S
C1184 H1200 0.931 . S
C1185 C1184 1.391 . S
C1185 C1189 1.376 . S
C1186 C1184 1.394 . S
C1186 C1187 1.369 . S
C1186 C1190 1.531 . S
C1187 C1186 1.369 . S
C1187 C1188 1.410 . S
C1187 C1195 1.503 . S
C1188 C1187 1.410 . S
C1188 C1189 1.392 . S
C1188 C1191 1.511 . S
C1189 C1185 1.376 . S
C1189 C1188 1.392 . S
C1189 H1201 0.929 . S
C1190 C1186 1.531 . S
C1190 H1202 0.960 . S
C1190 H1203 0.962 . S
C1190 H1204 0.960 . S
C1191 C1188 1.511 . S
C1191 H1205 0.961 . S
C1191 H1206 0.961 . S
C1191 H1207 0.961 . S
C1192 C1193 1.370 . S
C1192 C1194 1.363 . S
C1192 H1208 0.931 . S
C1193 C1192 1.370 . S
C1193 C1197 1.408 . S
C1194 C1192 1.363 . S
C1194 C1195 1.370 . S
C1194 C1198 1.524 . S
C1195 C1187 1.503 . S
C1195 C1194 1.370 . S
C1195 C1196 1.403 . S
C1196 C1195 1.403 . S
C1196 C1197 1.404 . S
C1196 C1199 1.539 . S
C1197 C1193 1.408 . S
C1197 C1196 1.404 . S
C1197 H1209 0.930 . S
C1198 C1194 1.524 . S
C1198 H1210 0.956 . S
C1198 H1211 0.961 . S
C1198 H1212 0.961 . S
C1199 C1196 1.539 . S
C1199 H1213 0.958 . S
C1199 H1214 0.961 . S
C1199 H1215 0.960 . S
H1200 C1184 0.931 . S
H1201 C1189 0.929 . S
H1202 C1190 0.960 . S
H1203 C1190 0.962 . S
H1204 C1190 0.960 . S
H1205 C1191 0.961 . S
H1206 C1191 0.961 . S
H1207 C1191 0.961 . S
H1208 C1192 0.931 . S
H1209 C1197 0.930 . S
H1210 C1198 0.956 . S
H1211 C1198 0.961 . S
H1212 C1198 0.961 . S
H1213 C1199 0.958 . S
H1214 C1199 0.961 . S
H1215 C1199 0.960 . S
C1216 C1217 1.391 . S
C1216 C1218 1.394 . S
C1216 H1232 0.931 . S
C1217 C1216 1.391 . S
C1217 C1221 1.376 . S
C1218 C1216 1.394 . S
C1218 C1219 1.369 . S
C1218 C1222 1.531 . S
C1219 C1218 1.369 . S
C1219 C1220 1.410 . S
C1219 C1227 1.503 . S
C1220 C1219 1.410 . S
C1220 C1221 1.392 . S
C1220 C1223 1.511 . S
C1221 C1217 1.376 . S
C1221 C1220 1.392 . S
C1221 H1233 0.929 . S
C1222 C1218 1.531 . S
C1222 H1234 0.960 . S
C1222 H1235 0.962 . S
C1222 H1236 0.960 . S
C1223 C1220 1.511 . S
C1223 H1237 0.961 . S
C1223 H1238 0.961 . S
C1223 H1239 0.961 . S
C1224 C1225 1.370 . S
C1224 C1226 1.363 . S
C1224 H1240 0.931 . S
C1225 C1224 1.370 . S
C1225 C1229 1.408 . S
C1226 C1224 1.363 . S
C1226 C1227 1.370 . S
C1226 C1230 1.524 . S
C1227 C1219 1.503 . S
C1227 C1226 1.370 . S
C1227 C1228 1.403 . S
C1228 C1227 1.403 . S
C1228 C1229 1.404 . S
C1228 C1231 1.539 . S
C1229 C1225 1.408 . S
C1229 C1228 1.404 . S
C1229 H1241 0.930 . S
C1230 C1226 1.524 . S
C1230 H1242 0.956 . S
C1230 H1243 0.961 . S
C1230 H1244 0.961 . S
C1231 C1228 1.539 . S
C1231 H1245 0.958 . S
C1231 H1246 0.961 . S
C1231 H1247 0.960 . S
H1232 C1216 0.931 . S
H1233 C1221 0.929 . S
H1234 C1222 0.960 . S
H1235 C1222 0.962 . S
H1236 C1222 0.960 . S
H1237 C1223 0.961 . S
H1238 C1223 0.961 . S
H1239 C1223 0.961 . S
H1240 C1224 0.931 . S
H1241 C1229 0.930 . S
H1242 C1230 0.956 . S
H1243 C1230 0.961 . S
H1244 C1230 0.961 . S
H1245 C1231 0.958 . S
H1246 C1231 0.961 . S
H1247 C1231 0.960 . S
C1248 C1249 1.391 . S
C1248 C1250 1.394 . S
C1248 H1264 0.931 . S
C1249 C1248 1.391 . S
C1249 C1253 1.376 . S
C1250 C1248 1.394 . S
C1250 C1251 1.369 . S
C1250 C1254 1.531 . S
C1251 C1250 1.369 . S
C1251 C1252 1.410 . S
C1251 C1259 1.503 1_655 S
C1252 C1251 1.410 . S
C1252 C1253 1.392 . S
C1252 C1255 1.511 . S
C1253 C1249 1.376 . S
C1253 C1252 1.392 . S
C1253 H1265 0.929 . S
C1254 C1250 1.531 . S
C1254 H1266 0.960 1_655 S
C1254 H1267 0.962 . S
C1254 H1268 0.960 . S
C1255 C1252 1.511 . S
C1255 H1269 0.961 . S
C1255 H1270 0.961 1_655 S
C1255 H1271 0.961 . S
C1256 C1257 1.370 . S
C1256 C1258 1.363 . S
C1256 H1272 0.931 . S
C1257 C1256 1.370 . S
C1257 C1261 1.408 . S
C1258 C1256 1.363 . S
C1258 C1259 1.370 . S
C1258 C1262 1.524 . S
C1259 C1251 1.503 1_455 S
C1259 C1258 1.370 . S
C1259 C1260 1.403 . S
C1260 C1259 1.403 . S
C1260 C1261 1.404 . S
C1260 C1263 1.539 . S
C1261 C1257 1.408 . S
C1261 C1260 1.404 . S
C1261 H1273 0.930 . S
C1262 C1258 1.524 . S
C1262 H1274 0.973 . S
C1262 H1275 0.961 1_455 S
C1262 H1276 0.961 . S
C1263 C1260 1.539 . S
C1263 H1277 0.958 . S
C1263 H1278 0.961 . S
C1263 H1279 0.969 . S
H1264 C1248 0.931 . S
H1265 C1253 0.929 . S
H1266 C1254 0.960 1_455 S
H1267 C1254 0.962 . S
H1268 C1254 0.960 . S
H1269 C1255 0.961 . S
H1270 C1255 0.961 1_455 S
H1271 C1255 0.961 . S
H1272 C1256 0.931 . S
H1273 C1261 0.930 . S
H1274 C1262 0.973 . S
H1275 C1262 0.961 1_655 S
H1276 C1262 0.961 . S
H1277 C1263 0.958 . S
H1278 C1263 0.961 . S
H1279 C1263 0.969 . S
C1280 C1281 1.391 . S
C1280 C1282 1.394 . S
C1280 H1296 0.931 . S
C1281 C1280 1.391 . S
C1281 C1285 1.376 . S
C1282 C1280 1.394 . S
C1282 C1283 1.369 . S
C1282 C1286 1.531 . S
C1283 C1282 1.369 . S
C1283 C1284 1.410 . S
C1283 C1291 1.503 1_655 S
C1284 C1283 1.410 . S
C1284 C1285 1.392 . S
C1284 C1287 1.511 . S
C1285 C1281 1.376 . S
C1285 C1284 1.392 . S
C1285 H1297 0.929 . S
C1286 C1282 1.531 . S
C1286 H1298 0.960 1_655 S
C1286 H1299 0.962 . S
C1286 H1300 0.960 . S
C1287 C1284 1.511 . S
C1287 H1301 0.961 . S
C1287 H1302 0.961 1_655 S
C1287 H1303 0.961 . S
C1288 C1289 1.370 . S
C1288 C1290 1.363 . S
C1288 H1304 0.931 . S
C1289 C1288 1.370 . S
C1289 C1293 1.408 . S
C1290 C1288 1.363 . S
C1290 C1291 1.370 . S
C1290 C1294 1.524 . S
C1291 C1283 1.503 1_455 S
C1291 C1290 1.370 . S
C1291 C1292 1.403 . S
C1292 C1291 1.403 . S
C1292 C1293 1.404 . S
C1292 C1295 1.539 . S
C1293 C1289 1.408 . S
C1293 C1292 1.404 . S
C1293 H1305 0.930 . S
C1294 C1290 1.524 . S
C1294 H1306 0.956 . S
C1294 H1307 0.961 1_455 S
C1294 H1308 0.961 . S
C1295 C1292 1.539 . S
C1295 H1309 0.958 . S
C1295 H1310 0.961 . S
C1295 H1311 0.973 . S
H1296 C1280 0.931 . S
H1297 C1285 0.929 . S
H1298 C1286 0.960 1_455 S
H1299 C1286 0.962 . S
H1300 C1286 0.960 . S
H1301 C1287 0.961 . S
H1302 C1287 0.961 1_455 S
H1303 C1287 0.961 . S
H1304 C1288 0.931 . S
H1305 C1293 0.930 . S
H1306 C1294 0.956 . S
H1307 C1294 0.961 1_655 S
H1308 C1294 0.961 . S
H1309 C1295 0.958 . S
H1310 C1295 0.961 . S
H1311 C1295 0.973 . S
C1312 C1313 1.391 . S
C1312 C1314 1.394 . S
C1312 H1328 0.931 . S
C1313 C1312 1.391 . S
C1313 C1317 1.376 . S
C1314 C1312 1.394 . S
C1314 C1315 1.369 . S
C1314 C1318 1.531 . S
C1315 C1314 1.369 . S
C1315 C1316 1.410 . S
C1315 C1323 1.503 1_455 S
C1316 C1315 1.410 . S
C1316 C1317 1.392 . S
C1316 C1319 1.511 . S
C1317 C1313 1.376 . S
C1317 C1316 1.392 . S
C1317 H1329 0.929 . S
C1318 C1314 1.531 . S
C1318 H1330 0.960 1_455 S
C1318 H1331 0.962 . S
C1318 H1332 0.960 . S
C1319 C1316 1.511 . S
C1319 H1333 0.961 . S
C1319 H1334 0.961 1_455 S
C1319 H1335 0.961 . S
C1320 C1321 1.370 . S
C1320 C1322 1.363 . S
C1320 H1336 0.931 . S
C1321 C1320 1.370 . S
C1321 C1325 1.408 . S
C1322 C1320 1.363 . S
C1322 C1323 1.370 . S
C1322 C1326 1.524 . S
C1323 C1315 1.503 1_655 S
C1323 C1322 1.370 . S
C1323 C1324 1.403 . S
C1324 C1323 1.403 . S
C1324 C1325 1.404 . S
C1324 C1327 1.539 . S
C1325 C1321 1.408 . S
C1325 C1324 1.404 . S
C1325 H1337 0.930 . S
C1326 C1322 1.524 . S
C1326 H1338 0.956 . S
C1326 H1339 0.961 1_655 S
C1326 H1340 0.961 . S
C1327 C1324 1.539 . S
C1327 H1341 0.958 . S
C1327 H1342 0.961 . S
C1327 H1343 0.974 . S
H1328 C1312 0.931 . S
H1329 C1317 0.929 . S
H1330 C1318 0.960 1_655 S
H1331 C1318 0.962 . S
H1332 C1318 0.960 . S
H1333 C1319 0.961 . S
H1334 C1319 0.961 1_655 S
H1335 C1319 0.961 . S
H1336 C1320 0.931 . S
H1337 C1325 0.930 . S
H1338 C1326 0.956 . S
H1339 C1326 0.961 1_455 S
H1340 C1326 0.961 . S
H1341 C1327 0.958 . S
H1342 C1327 0.961 . S
H1343 C1327 0.974 . S
C1344 C1345 1.391 . S
C1344 C1346 1.394 . S
C1344 H1360 0.931 . S
C1345 C1344 1.391 . S
C1345 C1349 1.376 . S
C1346 C1344 1.394 . S
C1346 C1347 1.369 . S
C1346 C1350 1.531 . S
C1347 C1346 1.369 . S
C1347 C1348 1.410 . S
C1347 C1355 1.503 1_455 S
C1348 C1347 1.410 . S
C1348 C1349 1.392 . S
C1348 C1351 1.511 . S
C1349 C1345 1.376 . S
C1349 C1348 1.392 . S
C1349 H1361 0.929 . S
C1350 C1346 1.531 . S
C1350 H1362 0.960 1_455 S
C1350 H1363 0.962 . S
C1350 H1364 0.960 . S
C1351 C1348 1.511 . S
C1351 H1365 0.961 . S
C1351 H1366 0.961 1_455 S
C1351 H1367 0.961 . S
C1352 C1353 1.370 . S
C1352 C1354 1.363 . S
C1352 H1368 0.931 . S
C1353 C1352 1.370 . S
C1353 C1357 1.408 . S
C1354 C1352 1.363 . S
C1354 C1355 1.370 . S
C1354 C1358 1.524 . S
C1355 C1347 1.503 1_655 S
C1355 C1354 1.370 . S
C1355 C1356 1.403 . S
C1356 C1355 1.403 . S
C1356 C1357 1.404 . S
C1356 C1359 1.539 . S
C1357 C1353 1.408 . S
C1357 C1356 1.404 . S
C1357 H1369 0.930 . S
C1358 C1354 1.524 . S
C1358 H1370 0.956 . S
C1358 H1371 0.961 1_655 S
C1358 H1372 0.961 . S
C1359 C1356 1.539 . S
C1359 H1373 0.958 . S
C1359 H1374 0.961 . S
C1359 H1375 0.960 1_655 S
H1360 C1344 0.931 . S
H1361 C1349 0.929 . S
H1362 C1350 0.960 1_655 S
H1363 C1350 0.962 . S
H1364 C1350 0.960 . S
H1365 C1351 0.961 . S
H1366 C1351 0.961 1_655 S
H1367 C1351 0.961 . S
H1368 C1352 0.931 . S
H1369 C1357 0.930 . S
H1370 C1358 0.956 . S
H1371 C1358 0.961 1_455 S
H1372 C1358 0.961 . S
H1373 C1359 0.958 . S
H1374 C1359 0.961 . S
H1375 C1359 0.960 1_455 S
C1376 C1377 1.391 . S
C1376 C1378 1.394 . S
C1376 H1392 0.931 . S
C1377 C1376 1.391 . S
C1377 C1381 1.376 . S
C1378 C1376 1.394 . S
C1378 C1379 1.369 . S
C1378 C1382 1.531 . S
C1379 C1378 1.369 . S
C1379 C1380 1.410 . S
C1379 C1387 1.503 1_554 S
C1380 C1379 1.410 . S
C1380 C1381 1.392 . S
C1380 C1383 1.511 . S
C1381 C1377 1.376 . S
C1381 C1380 1.392 . S
C1381 H1393 0.929 . S
C1382 C1378 1.531 . S
C1382 H1394 0.960 1_554 S
C1382 H1395 0.962 1_554 S
C1382 H1396 0.960 . S
C1383 C1380 1.511 . S
C1383 H1397 0.961 . S
C1383 H1398 0.961 . S
C1383 H1399 0.961 . S
C1384 C1385 1.370 . S
C1384 C1386 1.363 . S
C1384 H1400 0.931 . S
C1385 C1384 1.370 . S
C1385 C1389 1.408 . S
C1386 C1384 1.363 . S
C1386 C1387 1.370 . S
C1386 C1390 1.524 . S
C1387 C1379 1.503 1_556 S
C1387 C1386 1.370 . S
C1387 C1388 1.403 . S
C1388 C1387 1.403 . S
C1388 C1389 1.404 . S
C1388 C1391 1.539 1_556 S
C1389 C1385 1.408 . S
C1389 C1388 1.404 . S
C1389 H1401 0.930 . S
C1390 C1386 1.524 . S
C1390 H1402 0.956 . S
C1390 H1403 0.961 . S
C1390 H1404 0.961 . S
C1391 C1388 1.539 1_554 S
C1391 H1405 0.958 . S
C1391 H1406 0.961 . S
C1391 H1407 0.960 . S
H1392 C1376 0.931 . S
H1393 C1381 0.929 . S
H1394 C1382 0.960 1_556 S
H1395 C1382 0.962 1_556 S
H1396 C1382 0.960 . S
H1397 C1383 0.961 . S
H1398 C1383 0.961 . S
H1399 C1383 0.961 . S
H1400 C1384 0.931 . S
H1401 C1389 0.930 . S
H1402 C1390 0.956 . S
H1403 C1390 0.961 . S
H1404 C1390 0.961 . S
H1405 C1391 0.958 . S
H1406 C1391 0.961 . S
H1407 C1391 0.960 . S
C1408 C1409 1.391 . S
C1408 C1410 1.394 . S
C1408 H1424 0.931 . S
C1409 C1408 1.391 . S
C1409 C1413 1.376 . S
C1410 C1408 1.394 . S
C1410 C1411 1.369 . S
C1410 C1414 1.531 . S
C1411 C1410 1.369 . S
C1411 C1412 1.410 . S
C1411 C1419 1.503 . S
C1412 C1411 1.410 . S
C1412 C1413 1.392 . S
C1412 C1415 1.511 . S
C1413 C1409 1.376 . S
C1413 C1412 1.392 . S
C1413 H1425 0.929 . S
C1414 C1410 1.531 . S
C1414 H1426 0.960 . S
C1414 H1427 0.962 . S
C1414 H1428 0.960 . S
C1415 C1412 1.511 . S
C1415 H1429 0.961 . S
C1415 H1430 0.961 . S
C1415 H1431 0.961 . S
C1416 C1417 1.370 . S
C1416 C1418 1.363 . S
C1416 H1432 0.931 . S
C1417 C1416 1.370 . S
C1417 C1421 1.408 . S
C1418 C1416 1.363 . S
C1418 C1419 1.370 . S
C1418 C1422 1.524 . S
C1419 C1411 1.503 . S
C1419 C1418 1.370 . S
C1419 C1420 1.403 . S
C1420 C1419 1.403 . S
C1420 C1421 1.404 . S
C1420 C1423 1.539 . S
C1421 C1417 1.408 . S
C1421 C1420 1.404 . S
C1421 H1433 0.930 . S
C1422 C1418 1.524 . S
C1422 H1434 0.956 . S
C1422 H1435 0.961 . S
C1422 H1436 0.961 . S
C1423 C1420 1.539 . S
C1423 H1437 0.958 . S
C1423 H1438 0.961 . S
C1423 H1439 0.960 . S
H1424 C1408 0.931 . S
H1425 C1413 0.929 . S
H1426 C1414 0.960 . S
H1427 C1414 0.962 . S
H1428 C1414 0.960 . S
H1429 C1415 0.961 . S
H1430 C1415 0.961 . S
H1431 C1415 0.961 . S
H1432 C1416 0.931 . S
H1433 C1421 0.930 . S
H1434 C1422 0.956 . S
H1435 C1422 0.961 . S
H1436 C1422 0.961 . S
H1437 C1423 0.958 . S
H1438 C1423 0.961 . S
H1439 C1423 0.960 . S
C1440 C1441 1.391 . S
C1440 C1442 1.394 . S
C1440 H1456 0.931 . S
C1441 C1440 1.391 . S
C1441 C1445 1.376 . S
C1442 C1440 1.394 . S
C1442 C1443 1.369 . S
C1442 C1446 1.531 1_554 S
C1443 C1442 1.369 . S
C1443 C1444 1.410 . S
C1443 C1451 1.503 1_554 S
C1444 C1443 1.410 . S
C1444 C1445 1.392 . S
C1444 C1447 1.511 . S
C1445 C1441 1.376 . S
C1445 C1444 1.392 . S
C1445 H1457 0.929 . S
C1446 C1442 1.531 1_556 S
C1446 H1458 0.960 . S
C1446 H1459 0.962 . S
C1446 H1460 0.960 . S
C1447 C1444 1.511 . S
C1447 H1461 0.961 . S
C1447 H1462 0.961 . S
C1447 H1463 0.961 . S
C1448 C1449 1.370 . S
C1448 C1450 1.363 . S
C1448 H1464 0.931 . S
C1449 C1448 1.370 . S
C1449 C1453 1.408 . S
C1450 C1448 1.363 . S
C1450 C1451 1.370 . S
C1450 C1454 1.524 . S
C1451 C1443 1.503 1_556 S
C1451 C1450 1.370 . S
C1451 C1452 1.403 . S
C1452 C1451 1.403 . S
C1452 C1453 1.404 . S
C1452 C1455 1.539 . S
C1453 C1449 1.408 . S
C1453 C1452 1.404 . S
C1453 H1465 0.930 . S
C1454 C1450 1.524 . S
C1454 H1466 0.956 1_556 S
C1454 H1467 0.961 1_556 S
C1454 H1468 0.961 . S
C1455 C1452 1.539 . S
C1455 H1469 0.958 . S
C1455 H1470 0.961 . S
C1455 H1471 0.960 . S
H1456 C1440 0.931 . S
H1457 C1445 0.929 . S
H1458 C1446 0.960 . S
H1459 C1446 0.962 . S
H1460 C1446 0.960 . S
H1461 C1447 0.961 . S
H1462 C1447 0.961 . S
H1463 C1447 0.961 . S
H1464 C1448 0.931 . S
H1465 C1453 0.930 . S
H1466 C1454 0.956 1_554 S
H1467 C1454 0.961 1_554 S
H1468 C1454 0.961 . S
H1469 C1455 0.958 . S
H1470 C1455 0.961 . S
H1471 C1455 0.960 . S
C1472 C1473 1.391 . S
C1472 C1474 1.394 . S
C1472 H1488 0.931 . S
C1473 C1472 1.391 . S
C1473 C1477 1.376 . S
C1474 C1472 1.394 . S
C1474 C1475 1.369 . S
C1474 C1478 1.531 . S
C1475 C1474 1.369 . S
C1475 C1476 1.410 . S
C1475 C1483 1.503 . S
C1476 C1475 1.410 . S
C1476 C1477 1.392 . S
C1476 C1479 1.511 . S
C1477 C1473 1.376 . S
C1477 C1476 1.392 . S
C1477 H1489 0.929 . S
C1478 C1474 1.531 . S
C1478 H1490 0.960 . S
C1478 H1491 0.962 . S
C1478 H1492 0.960 . S
C1479 C1476 1.511 . S
C1479 H1493 0.961 . S
C1479 H1494 0.961 . S
C1479 H1495 0.961 . S
C1480 C1481 1.370 . S
C1480 C1482 1.363 . S
C1480 H1496 0.931 . S
C1481 C1480 1.370 . S
C1481 C1485 1.408 . S
C1482 C1480 1.363 . S
C1482 C1483 1.370 . S
C1482 C1486 1.524 . S
C1483 C1475 1.503 . S
C1483 C1482 1.370 . S
C1483 C1484 1.403 . S
C1484 C1483 1.403 . S
C1484 C1485 1.404 . S
C1484 C1487 1.539 . S
C1485 C1481 1.408 . S
C1485 C1484 1.404 . S
C1485 H1497 0.930 . S
C1486 C1482 1.524 . S
C1486 H1498 0.956 . S
C1486 H1499 0.961 . S
C1486 H1500 0.961 . S
C1487 C1484 1.539 . S
C1487 H1501 0.958 . S
C1487 H1502 0.961 . S
C1487 H1503 0.960 . S
H1488 C1472 0.931 . S
H1489 C1477 0.929 . S
H1490 C1478 0.960 . S
H1491 C1478 0.962 . S
H1492 C1478 0.960 . S
H1493 C1479 0.961 . S
H1494 C1479 0.961 . S
H1495 C1479 0.961 . S
H1496 C1480 0.931 . S
H1497 C1485 0.930 . S
H1498 C1486 0.956 . S
H1499 C1486 0.961 . S
H1500 C1486 0.961 . S
H1501 C1487 0.958 . S
H1502 C1487 0.961 . S
H1503 C1487 0.960 . S
C1504 C1505 1.391 . S
C1504 C1506 1.394 . S
C1504 H1520 0.931 . S
C1505 C1504 1.391 . S
C1505 C1509 1.376 . S
C1506 C1504 1.394 . S
C1506 C1507 1.369 . S
C1506 C1510 1.531 . S
C1507 C1506 1.369 . S
C1507 C1508 1.410 . S
C1507 C1515 1.503 1_554 S
C1508 C1507 1.410 . S
C1508 C1509 1.392 . S
C1508 C1511 1.511 . S
C1509 C1505 1.376 . S
C1509 C1508 1.392 . S
C1509 H1521 0.929 . S
C1510 C1506 1.531 . S
C1510 H1522 0.960 1_554 S
C1510 H1523 0.962 . S
C1510 H1524 0.960 . S
C1511 C1508 1.511 . S
C1511 H1525 0.961 . S
C1511 H1526 0.961 1_554 S
C1511 H1527 0.961 1_554 S
C1512 C1513 1.370 . S
C1512 C1514 1.363 . S
C1512 H1528 0.931 . S
C1513 C1512 1.370 . S
C1513 C1517 1.408 . S
C1514 C1512 1.363 . S
C1514 C1515 1.370 . S
C1514 C1518 1.524 1_556 S
C1515 C1507 1.503 1_556 S
C1515 C1514 1.370 . S
C1515 C1516 1.403 . S
C1516 C1515 1.403 . S
C1516 C1517 1.404 . S
C1516 C1519 1.539 . S
C1517 C1513 1.408 . S
C1517 C1516 1.404 . S
C1517 H1529 0.930 . S
C1518 C1514 1.524 1_554 S
C1518 H1530 0.956 . S
C1518 H1531 0.961 . S
C1518 H1532 0.961 . S
C1519 C1516 1.539 . S
C1519 H1533 0.958 . S
C1519 H1534 0.961 . S
C1519 H1535 0.960 . S
H1520 C1504 0.931 . S
H1521 C1509 0.929 . S
H1522 C1510 0.960 1_556 S
H1523 C1510 0.962 . S
H1524 C1510 0.960 . S
H1525 C1511 0.961 . S
H1526 C1511 0.961 1_556 S
H1527 C1511 0.961 1_556 S
H1528 C1512 0.931 . S
H1529 C1517 0.930 . S
H1530 C1518 0.956 . S
H1531 C1518 0.961 . S
H1532 C1518 0.961 . S
H1533 C1519 0.958 . S
H1534 C1519 0.961 . S
H1535 C1519 0.960 . S
C1536 C1537 1.391 . S
C1536 C1538 1.394 . S
C1536 H1552 0.931 . S
C1537 C1536 1.391 . S
C1537 C1541 1.376 . S
C1538 C1536 1.394 . S
C1538 C1539 1.369 . S
C1538 C1542 1.531 . S
C1539 C1538 1.369 . S
C1539 C1540 1.410 . S
C1539 C1547 1.503 . S
C1540 C1539 1.410 . S
C1540 C1541 1.392 . S
C1540 C1543 1.511 . S
C1541 C1537 1.376 . S
C1541 C1540 1.392 . S
C1541 H1553 0.929 . S
C1542 C1538 1.531 . S
C1542 H1554 0.960 . S
C1542 H1555 0.962 . S
C1542 H1556 0.960 . S
C1543 C1540 1.511 . S
C1543 H1557 0.961 . S
C1543 H1558 0.961 . S
C1543 H1559 0.961 . S
C1544 C1545 1.370 . S
C1544 C1546 1.363 . S
C1544 H1560 0.931 . S
C1545 C1544 1.370 . S
C1545 C1549 1.408 . S
C1546 C1544 1.363 . S
C1546 C1547 1.370 . S
C1546 C1550 1.524 . S
C1547 C1539 1.503 . S
C1547 C1546 1.370 . S
C1547 C1548 1.403 . S
C1548 C1547 1.403 . S
C1548 C1549 1.404 . S
C1548 C1551 1.539 . S
C1549 C1545 1.408 . S
C1549 C1548 1.404 . S
C1549 H1561 0.930 . S
C1550 C1546 1.524 . S
C1550 H1562 0.956 . S
C1550 H1563 0.961 . S
C1550 H1564 0.961 . S
C1551 C1548 1.539 . S
C1551 H1565 0.958 . S
C1551 H1566 0.961 . S
C1551 H1567 0.960 . S
H1552 C1536 0.931 . S
H1553 C1541 0.929 . S
H1554 C1542 0.960 . S
H1555 C1542 0.962 . S
H1556 C1542 0.960 . S
H1557 C1543 0.961 . S
H1558 C1543 0.961 . S
H1559 C1543 0.961 . S
H1560 C1544 0.931 . S
H1561 C1549 0.930 . S
H1562 C1550 0.956 . S
H1563 C1550 0.961 . S
H1564 C1550 0.961 . S
H1565 C1551 0.958 . S
H1566 C1551 0.961 . S
H1567 C1551 0.960 . S
C1568 C1569 1.391 . S
C1568 C1570 1.394 . S
C1568 H1584 0.931 . S
C1569 C1568 1.391 . S
C1569 C1573 1.376 . S
C1570 C1568 1.394 . S
C1570 C1571 1.369 . S
C1570 C1574 1.531 1_554 S
C1571 C1570 1.369 . S
C1571 C1572 1.410 . S
C1571 C1579 1.503 1_554 S
C1572 C1571 1.410 . S
C1572 C1573 1.392 . S
C1572 C1575 1.511 . S
C1573 C1569 1.376 . S
C1573 C1572 1.392 . S
C1573 H1585 0.929 . S
C1574 C1570 1.531 1_556 S
C1574 H1586 0.960 . S
C1574 H1587 0.962 . S
C1574 H1588 0.968 . S
C1575 C1572 1.511 . S
C1575 H1589 0.961 . S
C1575 H1590 0.961 . S
C1575 H1591 0.961 . S
C1576 C1577 1.370 . S
C1576 C1578 1.363 . S
C1576 H1592 0.931 . S
C1577 C1576 1.370 . S
C1577 C1581 1.408 . S
C1578 C1576 1.363 . S
C1578 C1579 1.370 . S
C1578 C1582 1.524 1_556 S
C1579 C1571 1.503 1_556 S
C1579 C1578 1.370 . S
C1579 C1580 1.403 . S
C1580 C1579 1.403 . S
C1580 C1581 1.404 . S
C1580 C1583 1.539 . S
C1581 C1577 1.408 . S
C1581 C1580 1.404 . S
C1581 H1593 0.930 . S
C1582 C1578 1.524 1_554 S
C1582 H1594 0.956 . S
C1582 H1595 0.961 . S
C1582 H1596 0.961 . S
C1583 C1580 1.539 . S
C1583 H1597 0.958 . S
C1583 H1598 0.961 . S
C1583 H1599 0.960 . S
H1584 C1568 0.931 . S
H1585 C1573 0.929 . S
H1586 C1574 0.960 . S
H1587 C1574 0.962 . S
H1588 C1574 0.968 . S
H1589 C1575 0.961 . S
H1590 C1575 0.961 . S
H1591 C1575 0.961 . S
H1592 C1576 0.931 . S
H1593 C1581 0.930 . S
H1594 C1582 0.956 . S
H1595 C1582 0.961 . S
H1596 C1582 0.961 . S
H1597 C1583 0.958 . S
H1598 C1583 0.961 . S
H1599 C1583 0.960 . S
C1600 C1601 1.391 . S
C1600 C1602 1.394 . S
C1600 H1616 0.931 . S
C1601 C1600 1.391 . S
C1601 C1605 1.376 . S
C1602 C1600 1.394 . S
C1602 C1603 1.369 . S
C1602 C1606 1.531 . S
C1603 C1602 1.369 . S
C1603 C1604 1.410 . S
C1603 C1611 1.503 . S
C1604 C1603 1.410 . S
C1604 C1605 1.392 . S
C1604 C1607 1.511 . S
C1605 C1601 1.376 . S
C1605 C1604 1.392 . S
C1605 H1617 0.929 . S
C1606 C1602 1.531 . S
C1606 H1618 0.960 . S
C1606 H1619 0.962 . S
C1606 H1620 0.960 . S
C1607 C1604 1.511 . S
C1607 H1621 0.961 . S
C1607 H1622 0.961 . S
C1607 H1623 0.961 . S
C1608 C1609 1.370 . S
C1608 C1610 1.363 . S
C1608 H1624 0.931 . S
C1609 C1608 1.370 . S
C1609 C1613 1.408 . S
C1610 C1608 1.363 . S
C1610 C1611 1.370 . S
C1610 C1614 1.524 . S
C1611 C1603 1.503 . S
C1611 C1610 1.370 . S
C1611 C1612 1.403 . S
C1612 C1611 1.403 . S
C1612 C1613 1.404 . S
C1612 C1615 1.539 . S
C1613 C1609 1.408 . S
C1613 C1612 1.404 . S
C1613 H1625 0.930 . S
C1614 C1610 1.524 . S
C1614 H1626 0.956 . S
C1614 H1627 0.961 . S
C1614 H1628 0.961 . S
C1615 C1612 1.539 . S
C1615 H1629 0.958 . S
C1615 H1630 0.961 . S
C1615 H1631 0.960 . S
H1616 C1600 0.931 . S
H1617 C1605 0.929 . S
H1618 C1606 0.960 . S
H1619 C1606 0.962 . S
H1620 C1606 0.960 . S
H1621 C1607 0.961 . S
H1622 C1607 0.961 . S
H1623 C1607 0.961 . S
H1624 C1608 0.931 . S
H1625 C1613 0.930 . S
H1626 C1614 0.956 . S
H1627 C1614 0.961 . S
H1628 C1614 0.961 . S
H1629 C1615 0.958 . S
H1630 C1615 0.961 . S
H1631 C1615 0.960 . S
C1632 C1633 1.391 . S
C1632 C1634 1.394 . S
C1632 H1648 0.931 . S
C1633 C1632 1.391 . S
C1633 C1637 1.376 . S
C1634 C1632 1.394 . S
C1634 C1635 1.369 . S
C1634 C1638 1.531 . S
C1635 C1634 1.369 . S
C1635 C1636 1.410 . S
C1635 C1643 1.503 . S
C1636 C1635 1.410 . S
C1636 C1637 1.392 . S
C1636 C1639 1.511 . S
C1637 C1633 1.376 . S
C1637 C1636 1.392 . S
C1637 H1649 0.929 . S
C1638 C1634 1.531 . S
C1638 H1650 0.960 . S
C1638 H1651 0.962 . S
C1638 H1652 0.960 . S
C1639 C1636 1.511 . S
C1639 H1653 0.961 . S
C1639 H1654 0.961 . S
C1639 H1655 0.961 . S
C1640 C1641 1.370 . S
C1640 C1642 1.363 . S
C1640 H1656 0.931 . S
C1641 C1640 1.370 . S
C1641 C1645 1.408 . S
C1642 C1640 1.363 . S
C1642 C1643 1.370 . S
C1642 C1646 1.524 . S
C1643 C1635 1.503 . S
C1643 C1642 1.370 . S
C1643 C1644 1.403 . S
C1644 C1643 1.403 . S
C1644 C1645 1.404 . S
C1644 C1647 1.539 . S
C1645 C1641 1.408 . S
C1645 C1644 1.404 . S
C1645 H1657 0.930 . S
C1646 C1642 1.524 . S
C1646 H1658 0.956 . S
C1646 H1659 0.961 . S
C1646 H1660 0.961 . S
C1647 C1644 1.539 . S
C1647 H1661 0.958 . S
C1647 H1662 0.961 . S
C1647 H1663 0.960 . S
H1648 C1632 0.931 . S
H1649 C1637 0.929 . S
H1650 C1638 0.960 . S
H1651 C1638 0.962 . S
H1652 C1638 0.960 . S
H1653 C1639 0.961 . S
H1654 C1639 0.961 . S
H1655 C1639 0.961 . S
H1656 C1640 0.931 . S
H1657 C1645 0.930 . S
H1658 C1646 0.956 . S
H1659 C1646 0.961 . S
H1660 C1646 0.961 . S
H1661 C1647 0.958 . S
H1662 C1647 0.961 . S
H1663 C1647 0.960 . S
C1664 C1665 1.391 . S
C1664 C1666 1.394 . S
C1664 H1680 0.931 . S
C1665 C1664 1.391 . S
C1665 C1669 1.376 . S
C1666 C1664 1.394 . S
C1666 C1667 1.369 . S
C1666 C1670 1.531 . S
C1667 C1666 1.369 . S
C1667 C1668 1.410 . S
C1667 C1675 1.503 . S
C1668 C1667 1.410 . S
C1668 C1669 1.392 . S
C1668 C1671 1.511 . S
C1669 C1665 1.376 . S
C1669 C1668 1.392 . S
C1669 H1681 0.929 . S
C1670 C1666 1.531 . S
C1670 H1682 0.960 . S
C1670 H1683 0.962 . S
C1670 H1684 0.960 . S
C1671 C1668 1.511 . S
C1671 H1685 0.961 . S
C1671 H1686 0.961 . S
C1671 H1687 0.961 . S
C1672 C1673 1.370 . S
C1672 C1674 1.363 . S
C1672 H1688 0.931 . S
C1673 C1672 1.370 . S
C1673 C1677 1.408 . S
C1674 C1672 1.363 . S
C1674 C1675 1.370 . S
C1674 C1678 1.524 . S
C1675 C1667 1.503 . S
C1675 C1674 1.370 . S
C1675 C1676 1.403 . S
C1676 C1675 1.403 . S
C1676 C1677 1.404 . S
C1676 C1679 1.539 . S
C1677 C1673 1.408 . S
C1677 C1676 1.404 . S
C1677 H1689 0.930 . S
C1678 C1674 1.524 . S
C1678 H1690 0.956 . S
C1678 H1691 0.961 . S
C1678 H1692 0.961 . S
C1679 C1676 1.539 . S
C1679 H1693 0.958 . S
C1679 H1694 0.961 . S
C1679 H1695 0.960 . S
H1680 C1664 0.931 . S
H1681 C1669 0.929 . S
H1682 C1670 0.960 . S
H1683 C1670 0.962 . S
H1684 C1670 0.960 . S
H1685 C1671 0.961 . S
H1686 C1671 0.961 . S
H1687 C1671 0.961 . S
H1688 C1672 0.931 . S
H1689 C1677 0.930 . S
H1690 C1678 0.956 . S
H1691 C1678 0.961 . S
H1692 C1678 0.961 . S
H1693 C1679 0.958 . S
H1694 C1679 0.961 . S
H1695 C1679 0.960 . S
C1696 C1697 1.391 . S
C1696 C1698 1.394 . S
C1696 H1712 0.931 . S
C1697 C1696 1.391 . S
C1697 C1701 1.376 . S
C1698 C1696 1.394 . S
C1698 C1699 1.369 . S
C1698 C1702 1.531 . S
C1699 C1698 1.369 . S
C1699 C1700 1.410 . S
C1699 C1707 1.503 . S
C1700 C1699 1.410 . S
C1700 C1701 1.392 . S
C1700 C1703 1.511 . S
C1701 C1697 1.376 . S
C1701 C1700 1.392 . S
C1701 H1713 0.929 . S
C1702 C1698 1.531 . S
C1702 H1714 0.960 . S
C1702 H1715 0.962 . S
C1702 H1716 0.960 . S
C1703 C1700 1.511 . S
C1703 H1717 0.961 . S
C1703 H1718 0.961 . S
C1703 H1719 0.961 . S
C1704 C1705 1.370 . S
C1704 C1706 1.363 . S
C1704 H1720 0.931 . S
C1705 C1704 1.370 . S
C1705 C1709 1.408 . S
C1706 C1704 1.363 . S
C1706 C1707 1.370 . S
C1706 C1710 1.524 . S
C1707 C1699 1.503 . S
C1707 C1706 1.370 . S
C1707 C1708 1.403 . S
C1708 C1707 1.403 . S
C1708 C1709 1.404 . S
C1708 C1711 1.539 . S
C1709 C1705 1.408 . S
C1709 C1708 1.404 . S
C1709 H1721 0.930 . S
C1710 C1706 1.524 . S
C1710 H1722 0.956 . S
C1710 H1723 0.961 . S
C1710 H1724 0.961 . S
C1711 C1708 1.539 . S
C1711 H1725 0.958 . S
C1711 H1726 0.961 . S
C1711 H1727 0.960 . S
H1712 C1696 0.931 . S
H1713 C1701 0.929 . S
H1714 C1702 0.960 . S
H1715 C1702 0.962 . S
H1716 C1702 0.960 . S
H1717 C1703 0.961 . S
H1718 C1703 0.961 . S
H1719 C1703 0.961 . S
H1720 C1704 0.931 . S
H1721 C1709 0.930 . S
H1722 C1710 0.956 . S
H1723 C1710 0.961 . S
H1724 C1710 0.961 . S
H1725 C1711 0.958 . S
H1726 C1711 0.961 . S
H1727 C1711 0.960 . S
C1728 C1729 1.391 . S
C1728 C1730 1.394 . S
C1728 H1744 0.931 . S
C1729 C1728 1.391 . S
C1729 C1733 1.376 . S
C1730 C1728 1.394 . S
C1730 C1731 1.369 . S
C1730 C1734 1.531 . S
C1731 C1730 1.369 . S
C1731 C1732 1.410 . S
C1731 C1739 1.503 . S
C1732 C1731 1.410 . S
C1732 C1733 1.392 . S
C1732 C1735 1.511 . S
C1733 C1729 1.376 . S
C1733 C1732 1.392 . S
C1733 H1745 0.929 . S
C1734 C1730 1.531 . S
C1734 H1746 0.960 . S
C1734 H1747 0.962 . S
C1734 H1748 0.960 . S
C1735 C1732 1.511 . S
C1735 H1749 0.961 . S
C1735 H1750 0.961 . S
C1735 H1751 0.961 . S
C1736 C1737 1.370 . S
C1736 C1738 1.363 . S
C1736 H1752 0.931 . S
C1737 C1736 1.370 . S
C1737 C1741 1.408 . S
C1738 C1736 1.363 . S
C1738 C1739 1.370 . S
C1738 C1742 1.524 . S
C1739 C1731 1.503 . S
C1739 C1738 1.370 . S
C1739 C1740 1.403 . S
C1740 C1739 1.403 . S
C1740 C1741 1.404 . S
C1740 C1743 1.539 . S
C1741 C1737 1.408 . S
C1741 C1740 1.404 . S
C1741 H1753 0.930 . S
C1742 C1738 1.524 . S
C1742 H1754 0.956 . S
C1742 H1755 0.961 . S
C1742 H1756 0.961 . S
C1743 C1740 1.539 . S
C1743 H1757 0.958 . S
C1743 H1758 0.961 . S
C1743 H1759 0.960 . S
H1744 C1728 0.931 . S
H1745 C1733 0.929 . S
H1746 C1734 0.960 . S
H1747 C1734 0.962 . S
H1748 C1734 0.960 . S
H1749 C1735 0.961 . S
H1750 C1735 0.961 . S
H1751 C1735 0.961 . S
H1752 C1736 0.931 . S
H1753 C1741 0.930 . S
H1754 C1742 0.956 . S
H1755 C1742 0.961 . S
H1756 C1742 0.961 . S
H1757 C1743 0.958 . S
H1758 C1743 0.961 . S
H1759 C1743 0.960 . S
C1760 C1761 1.391 . S
C1760 C1762 1.394 . S
C1760 H1776 0.931 . S
C1761 C1760 1.391 . S
C1761 C1765 1.376 . S
C1762 C1760 1.394 . S
C1762 C1763 1.369 . S
C1762 C1766 1.531 . S
C1763 C1762 1.369 . S
C1763 C1764 1.410 . S
C1763 C1771 1.503 . S
C1764 C1763 1.410 . S
C1764 C1765 1.392 . S
C1764 C1767 1.511 . S
C1765 C1761 1.376 . S
C1765 C1764 1.392 . S
C1765 H1777 0.929 . S
C1766 C1762 1.531 . S
C1766 H1778 0.960 . S
C1766 H1779 0.962 . S
C1766 H1780 0.960 . S
C1767 C1764 1.511 . S
C1767 H1781 0.961 . S
C1767 H1782 0.961 . S
C1767 H1783 0.961 . S
C1768 C1769 1.370 . S
C1768 C1770 1.363 . S
C1768 H1784 0.931 . S
C1769 C1768 1.370 . S
C1769 C1773 1.408 . S
C1770 C1768 1.363 . S
C1770 C1771 1.370 . S
C1770 C1774 1.524 . S
C1771 C1763 1.503 . S
C1771 C1770 1.370 . S
C1771 C1772 1.403 . S
C1772 C1771 1.403 . S
C1772 C1773 1.404 . S
C1772 C1775 1.539 . S
C1773 C1769 1.408 . S
C1773 C1772 1.404 . S
C1773 H1785 0.930 . S
C1774 C1770 1.524 . S
C1774 H1786 0.956 . S
C1774 H1787 0.961 . S
C1774 H1788 0.961 . S
C1775 C1772 1.539 . S
C1775 H1789 0.958 . S
C1775 H1790 0.961 . S
C1775 H1791 0.960 . S
H1776 C1760 0.931 . S
H1777 C1765 0.929 . S
H1778 C1766 0.960 . S
H1779 C1766 0.962 . S
H1780 C1766 0.960 . S
H1781 C1767 0.961 . S
H1782 C1767 0.961 . S
H1783 C1767 0.961 . S
H1784 C1768 0.931 . S
H1785 C1773 0.930 . S
H1786 C1774 0.956 . S
H1787 C1774 0.961 . S
H1788 C1774 0.961 . S
H1789 C1775 0.958 . S
H1790 C1775 0.961 . S
H1791 C1775 0.960 . S
C1792 C1793 1.391 . S
C1792 C1794 1.394 . S
C1792 H1808 0.931 . S
C1793 C1792 1.391 . S
C1793 C1797 1.376 . S
C1794 C1792 1.394 . S
C1794 C1795 1.369 . S
C1794 C1798 1.531 . S
C1795 C1794 1.369 . S
C1795 C1796 1.410 . S
C1795 C1803 1.503 . S
C1796 C1795 1.410 . S
C1796 C1797 1.392 . S
C1796 C1799 1.511 . S
C1797 C1793 1.376 . S
C1797 C1796 1.392 . S
C1797 H1809 0.929 . S
C1798 C1794 1.531 . S
C1798 H1810 0.960 . S
C1798 H1811 0.962 . S
C1798 H1812 0.960 . S
C1799 C1796 1.511 . S
C1799 H1813 0.961 . S
C1799 H1814 0.961 . S
C1799 H1815 0.961 . S
C1800 C1801 1.370 . S
C1800 C1802 1.363 . S
C1800 H1816 0.931 . S
C1801 C1800 1.370 . S
C1801 C1805 1.408 . S
C1802 C1800 1.363 . S
C1802 C1803 1.370 . S
C1802 C1806 1.524 . S
C1803 C1795 1.503 . S
C1803 C1802 1.370 . S
C1803 C1804 1.403 . S
C1804 C1803 1.403 . S
C1804 C1805 1.404 . S
C1804 C1807 1.539 . S
C1805 C1801 1.408 . S
C1805 C1804 1.404 . S
C1805 H1817 0.930 . S
C1806 C1802 1.524 . S
C1806 H1818 0.956 . S
C1806 H1819 0.961 . S
C1806 H1820 0.961 . S
C1807 C1804 1.539 . S
C1807 H1821 0.958 . S
C1807 H1822 0.961 . S
C1807 H1823 0.960 . S
H1808 C1792 0.931 . S
H1809 C1797 0.929 . S
H1810 C1798 0.960 . S
H1811 C1798 0.962 . S
H1812 C1798 0.960 . S
H1813 C1799 0.961 . S
H1814 C1799 0.961 . S
H1815 C1799 0.961 . S
H1816 C1800 0.931 . S
H1817 C1805 0.930 . S
H1818 C1806 0.956 . S
H1819 C1806 0.961 . S
H1820 C1806 0.961 . S
H1821 C1807 0.958 . S
H1822 C1807 0.961 . S
H1823 C1807 0.960 . S
C1824 C1825 1.391 . S
C1824 C1826 1.394 . S
C1824 H1840 0.931 . S
C1825 C1824 1.391 . S
C1825 C1829 1.376 . S
C1826 C1824 1.394 . S
C1826 C1827 1.369 . S
C1826 C1830 1.531 . S
C1827 C1826 1.369 . S
C1827 C1828 1.410 . S
C1827 C1835 1.503 . S
C1828 C1827 1.410 . S
C1828 C1829 1.392 . S
C1828 C1831 1.511 . S
C1829 C1825 1.376 . S
C1829 C1828 1.392 . S
C1829 H1841 0.929 . S
C1830 C1826 1.531 . S
C1830 H1842 0.960 . S
C1830 H1843 0.962 . S
C1830 H1844 0.960 . S
C1831 C1828 1.511 . S
C1831 H1845 0.961 . S
C1831 H1846 0.961 . S
C1831 H1847 0.961 . S
C1832 C1833 1.370 . S
C1832 C1834 1.363 . S
C1832 H1848 0.931 . S
C1833 C1832 1.370 . S
C1833 C1837 1.408 . S
C1834 C1832 1.363 . S
C1834 C1835 1.370 . S
C1834 C1838 1.524 . S
C1835 C1827 1.503 . S
C1835 C1834 1.370 . S
C1835 C1836 1.403 . S
C1836 C1835 1.403 . S
C1836 C1837 1.404 . S
C1836 C1839 1.539 . S
C1837 C1833 1.408 . S
C1837 C1836 1.404 . S
C1837 H1849 0.930 . S
C1838 C1834 1.524 . S
C1838 H1850 0.956 . S
C1838 H1851 0.961 . S
C1838 H1852 0.961 . S
C1839 C1836 1.539 . S
C1839 H1853 0.958 . S
C1839 H1854 0.961 . S
C1839 H1855 0.960 . S
H1840 C1824 0.931 . S
H1841 C1829 0.929 . S
H1842 C1830 0.960 . S
H1843 C1830 0.962 . S
H1844 C1830 0.960 . S
H1845 C1831 0.961 . S
H1846 C1831 0.961 . S
H1847 C1831 0.961 . S
H1848 C1832 0.931 . S
H1849 C1837 0.930 . S
H1850 C1838 0.956 . S
H1851 C1838 0.961 . S
H1852 C1838 0.961 . S
H1853 C1839 0.958 . S
H1854 C1839 0.961 . S
H1855 C1839 0.960 . S
C1856 C1857 1.391 . S
C1856 C1858 1.394 . S
C1856 H1872 0.931 . S
C1857 C1856 1.391 . S
C1857 C1861 1.376 . S
C1858 C1856 1.394 . S
C1858 C1859 1.369 . S
C1858 C1862 1.531 . S
C1859 C1858 1.369 . S
C1859 C1860 1.410 . S
C1859 C1867 1.503 . S
C1860 C1859 1.410 . S
C1860 C1861 1.392 . S
C1860 C1863 1.511 . S
C1861 C1857 1.376 . S
C1861 C1860 1.392 . S
C1861 H1873 0.929 . S
C1862 C1858 1.531 . S
C1862 H1874 0.960 . S
C1862 H1875 0.962 . S
C1862 H1876 0.960 . S
C1863 C1860 1.511 . S
C1863 H1877 0.961 . S
C1863 H1878 0.961 . S
C1863 H1879 0.961 . S
C1864 C1865 1.370 . S
C1864 C1866 1.363 . S
C1864 H1880 0.931 . S
C1865 C1864 1.370 . S
C1865 C1869 1.408 . S
C1866 C1864 1.363 . S
C1866 C1867 1.370 . S
C1866 C1870 1.524 . S
C1867 C1859 1.503 . S
C1867 C1866 1.370 . S
C1867 C1868 1.403 . S
C1868 C1867 1.403 . S
C1868 C1869 1.404 . S
C1868 C1871 1.539 . S
C1869 C1865 1.408 . S
C1869 C1868 1.404 . S
C1869 H1881 0.930 . S
C1870 C1866 1.524 . S
C1870 H1882 0.956 . S
C1870 H1883 0.961 . S
C1870 H1884 0.961 . S
C1871 C1868 1.539 . S
C1871 H1885 0.958 . S
C1871 H1886 0.961 . S
C1871 H1887 0.960 . S
H1872 C1856 0.931 . S
H1873 C1861 0.929 . S
H1874 C1862 0.960 . S
H1875 C1862 0.962 . S
H1876 C1862 0.960 . S
H1877 C1863 0.961 . S
H1878 C1863 0.961 . S
H1879 C1863 0.961 . S
H1880 C1864 0.931 . S
H1881 C1869 0.930 . S
H1882 C1870 0.956 . S
H1883 C1870 0.961 . S
H1884 C1870 0.961 . S
H1885 C1871 0.958 . S
H1886 C1871 0.961 . S
H1887 C1871 0.960 . S
C353 C10 1.557 . S
C361 C329 1.625 . S
C385 C32 1.529 . S
C393 C351 1.622 . S
C417 C52 1.552 . S
C425 C279 1.625 . S
C449 C301 1.624 . S
C457 C76 1.565 . S
C481 C235 1.624 . S
C489 C96 1.565 . S
C513 C263 1.626 . S
C521 C118 1.578 . S
C545 C197 1.626 . S
C553 C142 1.576 . S
C577 C219 1.625 . S
C585 C172 1.573 . S
C609 C186 1.549 . S
C617 C139 1.622 . S
C641 C175 1.616 . S
C649 C208 1.552 . S
C673 C103 1.622 . S
C681 C238 1.573 . S
C705 C125 1.626 . S
C713 C252 1.576 . S
C737 C51 1.625 . S
C745 C272 1.572 . S
C769 C294 1.552 . S
C777 C87 1.631 . S
C801 C21 1.629 . S
C809 C326 1.578 . S
C833 C348 1.580 . S
C841 C43 1.631 . S
C865 C7 1.275 . S
C873 C59 1.278 . S
C897 C73 1.271 . S
C905 C29 1.269 . S
C929 C153 1.286 . S
C937 C95 1.283 . S
C961 C169 1.272 . S
C969 C117 1.277 . S
C993 C241 1.267 . S
C1001 C183 1.268 . S
C1025 C249 1.268 . S
C1033 C205 1.269 . S
C1057 C323 1.275 . S
C1065 C271 1.278 . S
C1089 C293 1.278 . S
C1097 C345 1.280 . S
C1121 C18 1.525 . S
C1129 C140 1.519 . S
C1153 C40 1.525 . S
C1161 C164 1.519 . S
C1185 C106 1.524 . S
C1193 C54 1.520 . S
C1217 C84 1.496 . S
C1225 C128 1.506 . S
C1249 C194 1.513 . S
C1257 C318 1.514 . S
C1281 C340 1.515 . S
C1289 C216 1.516 . S
C1313 C282 1.504 . S
C1321 C228 1.512 . S
C1345 C260 1.504 . S
C1353 C304 1.509 . S
C1377 C15 0.884 . S
C1385 C285 0.907 . S
C1409 C307 0.940 . S
C1417 C37 0.881 . S
C1441 C315 0.949 . S
C1449 C65 0.877 . S
C1473 C337 0.944 . S
C1481 C81 0.879 . S
C1505 C191 0.896 . S
C1513 C109 0.907 . S
C1537 C213 0.870 . S
C1545 C131 0.916 . S
C1569 C147 0.932 . S
C1577 C227 0.884 . S
C1601 C257 0.864 . S
C1609 C161 0.918 . S
C1633 C8 1.426 . S
C1641 C120 1.427 . S
C1665 C98 1.423 . S
C1673 C30 1.426 . S
C1697 C62 1.420 . S
C1705 C162 1.424 . S
C1729 C150 1.428 . S
C1737 C74 1.428 . S
C1761 C184 1.426 . S
C1769 C296 1.427 . S
C1793 C274 1.420 . S
C1801 C206 1.427 . S
C1825 C338 1.426 . S
C1833 C230 1.427 . S
C1857 C250 1.420 . S
C1865 C316 1.424 . S
