# Generated by pormake.
# Topology uka, (4)-cn, num edge types: 1
# Building blocks:
#     Node 0, Type 0, BuildingBlock: NAHDIM_clean_sbu_0, # of connection points: 4
#     Node 1, Type 0, BuildingBlock: NAHDIM_clean_sbu_0, # of connection points: 4
#     Node 2, Type 0, BuildingBlock: NAHDIM_clean_sbu_0, # of connection points: 4
#     Node 3, Type 0, BuildingBlock: NAHDIM_clean_sbu_0, # of connection points: 4
#     Node 4, Type 0, BuildingBlock: NAHDIM_clean_sbu_0, # of connection points: 4
#     Node 5, Type 0, BuildingBlock: NAHDIM_clean_sbu_0, # of connection points: 4
#     Node 6, Type 0, BuildingBlock: NAHDIM_clean_sbu_0, # of connection points: 4
#     Node 7, Type 0, BuildingBlock: NAHDIM_clean_sbu_0, # of connection points: 4
#     Node 8, Type 0, BuildingBlock: NAHDIM_clean_sbu_0, # of connection points: 4
#     Node 9, Type 0, BuildingBlock: NAHDIM_clean_sbu_0, # of connection points: 4
#     Node 10, Type 0, BuildingBlock: NAHDIM_clean_sbu_0, # of connection points: 4
#     Node 11, Type 0, BuildingBlock: NAHDIM_clean_sbu_0, # of connection points: 4
#     Node 12, Type 0, BuildingBlock: NAHDIM_clean_sbu_0, # of connection points: 4
#     Node 13, Type 0, BuildingBlock: NAHDIM_clean_sbu_0, # of connection points: 4
#     Node 14, Type 0, BuildingBlock: NAHDIM_clean_sbu_0, # of connection points: 4
#     Node 15, Type 0, BuildingBlock: NAHDIM_clean_sbu_0, # of connection points: 4
#     Node 16, Type 0, BuildingBlock: NAHDIM_clean_sbu_0, # of connection points: 4
#     Node 17, Type 0, BuildingBlock: NAHDIM_clean_sbu_0, # of connection points: 4
#     Node 18, Type 0, BuildingBlock: NAHDIM_clean_sbu_0, # of connection points: 4
#     Node 19, Type 0, BuildingBlock: NAHDIM_clean_sbu_0, # of connection points: 4
#     Node 20, Type 0, BuildingBlock: NAHDIM_clean_sbu_0, # of connection points: 4
#     Node 21, Type 0, BuildingBlock: NAHDIM_clean_sbu_0, # of connection points: 4
#     Node 22, Type 0, BuildingBlock: NAHDIM_clean_sbu_0, # of connection points: 4
#     Node 23, Type 0, BuildingBlock: NAHDIM_clean_sbu_0, # of connection points: 4
#     Node 24, Type 0, BuildingBlock: NAHDIM_clean_sbu_0, # of connection points: 4
#     Node 25, Type 0, BuildingBlock: NAHDIM_clean_sbu_0, # of connection points: 4
#     Node 26, Type 0, BuildingBlock: NAHDIM_clean_sbu_0, # of connection points: 4
#     Node 27, Type 0, BuildingBlock: NAHDIM_clean_sbu_0, # of connection points: 4
#     Node 28, Type 0, BuildingBlock: NAHDIM_clean_sbu_0, # of connection points: 4
#     Node 29, Type 0, BuildingBlock: NAHDIM_clean_sbu_0, # of connection points: 4
#     Node 30, Type 0, BuildingBlock: NAHDIM_clean_sbu_0, # of connection points: 4
#     Node 31, Type 0, BuildingBlock: NAHDIM_clean_sbu_0, # of connection points: 4
#     Edge 32, Type (0, 0), BuildingBlock: AJUNOK_clean_linker_0, # of connection points: 2
#     Edge 33, Type (0, 0), BuildingBlock: AJUNOK_clean_linker_0, # of connection points: 2
#     Edge 34, Type (0, 0), BuildingBlock: AJUNOK_clean_linker_0, # of connection points: 2
#     Edge 35, Type (0, 0), BuildingBlock: AJUNOK_clean_linker_0, # of connection points: 2
#     Edge 36, Type (0, 0), BuildingBlock: AJUNOK_clean_linker_0, # of connection points: 2
#     Edge 37, Type (0, 0), BuildingBlock: AJUNOK_clean_linker_0, # of connection points: 2
#     Edge 38, Type (0, 0), BuildingBlock: AJUNOK_clean_linker_0, # of connection points: 2
#     Edge 39, Type (0, 0), BuildingBlock: AJUNOK_clean_linker_0, # of connection points: 2
#     Edge 40, Type (0, 0), BuildingBlock: AJUNOK_clean_linker_0, # of connection points: 2
#     Edge 41, Type (0, 0), BuildingBlock: AJUNOK_clean_linker_0, # of connection points: 2
#     Edge 42, Type (0, 0), BuildingBlock: AJUNOK_clean_linker_0, # of connection points: 2
#     Edge 43, Type (0, 0), BuildingBlock: AJUNOK_clean_linker_0, # of connection points: 2
#     Edge 44, Type (0, 0), BuildingBlock: AJUNOK_clean_linker_0, # of connection points: 2
#     Edge 45, Type (0, 0), BuildingBlock: AJUNOK_clean_linker_0, # of connection points: 2
#     Edge 46, Type (0, 0), BuildingBlock: AJUNOK_clean_linker_0, # of connection points: 2
#     Edge 47, Type (0, 0), BuildingBlock: AJUNOK_clean_linker_0, # of connection points: 2
#     Edge 48, Type (0, 0), BuildingBlock: AJUNOK_clean_linker_0, # of connection points: 2
#     Edge 49, Type (0, 0), BuildingBlock: AJUNOK_clean_linker_0, # of connection points: 2
#     Edge 50, Type (0, 0), BuildingBlock: AJUNOK_clean_linker_0, # of connection points: 2
#     Edge 51, Type (0, 0), BuildingBlock: AJUNOK_clean_linker_0, # of connection points: 2
#     Edge 52, Type (0, 0), BuildingBlock: AJUNOK_clean_linker_0, # of connection points: 2
#     Edge 53, Type (0, 0), BuildingBlock: AJUNOK_clean_linker_0, # of connection points: 2
#     Edge 54, Type (0, 0), BuildingBlock: AJUNOK_clean_linker_0, # of connection points: 2
#     Edge 55, Type (0, 0), BuildingBlock: AJUNOK_clean_linker_0, # of connection points: 2
#     Edge 56, Type (0, 0), BuildingBlock: AJUNOK_clean_linker_0, # of connection points: 2
#     Edge 57, Type (0, 0), BuildingBlock: AJUNOK_clean_linker_0, # of connection points: 2
#     Edge 58, Type (0, 0), BuildingBlock: AJUNOK_clean_linker_0, # of connection points: 2
#     Edge 59, Type (0, 0), BuildingBlock: AJUNOK_clean_linker_0, # of connection points: 2
#     Edge 60, Type (0, 0), BuildingBlock: AJUNOK_clean_linker_0, # of connection points: 2
#     Edge 61, Type (0, 0), BuildingBlock: AJUNOK_clean_linker_0, # of connection points: 2
#     Edge 62, Type (0, 0), BuildingBlock: AJUNOK_clean_linker_0, # of connection points: 2
#     Edge 63, Type (0, 0), BuildingBlock: AJUNOK_clean_linker_0, # of connection points: 2
#     Edge 64, Type (0, 0), BuildingBlock: AJUNOK_clean_linker_0, # of connection points: 2
#     Edge 65, Type (0, 0), BuildingBlock: AJUNOK_clean_linker_0, # of connection points: 2
#     Edge 66, Type (0, 0), BuildingBlock: AJUNOK_clean_linker_0, # of connection points: 2
#     Edge 67, Type (0, 0), BuildingBlock: AJUNOK_clean_linker_0, # of connection points: 2
#     Edge 68, Type (0, 0), BuildingBlock: AJUNOK_clean_linker_0, # of connection points: 2
#     Edge 69, Type (0, 0), BuildingBlock: AJUNOK_clean_linker_0, # of connection points: 2
#     Edge 70, Type (0, 0), BuildingBlock: AJUNOK_clean_linker_0, # of connection points: 2
#     Edge 71, Type (0, 0), BuildingBlock: AJUNOK_clean_linker_0, # of connection points: 2
#     Edge 72, Type (0, 0), BuildingBlock: AJUNOK_clean_linker_0, # of connection points: 2
#     Edge 73, Type (0, 0), BuildingBlock: AJUNOK_clean_linker_0, # of connection points: 2
#     Edge 74, Type (0, 0), BuildingBlock: AJUNOK_clean_linker_0, # of connection points: 2
#     Edge 75, Type (0, 0), BuildingBlock: AJUNOK_clean_linker_0, # of connection points: 2
#     Edge 76, Type (0, 0), BuildingBlock: AJUNOK_clean_linker_0, # of connection points: 2
#     Edge 77, Type (0, 0), BuildingBlock: AJUNOK_clean_linker_0, # of connection points: 2
#     Edge 78, Type (0, 0), BuildingBlock: AJUNOK_clean_linker_0, # of connection points: 2
#     Edge 79, Type (0, 0), BuildingBlock: AJUNOK_clean_linker_0, # of connection points: 2
#     Edge 80, Type (0, 0), BuildingBlock: AJUNOK_clean_linker_0, # of connection points: 2
#     Edge 81, Type (0, 0), BuildingBlock: AJUNOK_clean_linker_0, # of connection points: 2
#     Edge 82, Type (0, 0), BuildingBlock: AJUNOK_clean_linker_0, # of connection points: 2
#     Edge 83, Type (0, 0), BuildingBlock: AJUNOK_clean_linker_0, # of connection points: 2
#     Edge 84, Type (0, 0), BuildingBlock: AJUNOK_clean_linker_0, # of connection points: 2
#     Edge 85, Type (0, 0), BuildingBlock: AJUNOK_clean_linker_0, # of connection points: 2
#     Edge 86, Type (0, 0), BuildingBlock: AJUNOK_clean_linker_0, # of connection points: 2
#     Edge 87, Type (0, 0), BuildingBlock: AJUNOK_clean_linker_0, # of connection points: 2
#     Edge 88, Type (0, 0), BuildingBlock: AJUNOK_clean_linker_0, # of connection points: 2
#     Edge 89, Type (0, 0), BuildingBlock: AJUNOK_clean_linker_0, # of connection points: 2
#     Edge 90, Type (0, 0), BuildingBlock: AJUNOK_clean_linker_0, # of connection points: 2
#     Edge 91, Type (0, 0), BuildingBlock: AJUNOK_clean_linker_0, # of connection points: 2
#     Edge 92, Type (0, 0), BuildingBlock: AJUNOK_clean_linker_0, # of connection points: 2
#     Edge 93, Type (0, 0), BuildingBlock: AJUNOK_clean_linker_0, # of connection points: 2
#     Edge 94, Type (0, 0), BuildingBlock: AJUNOK_clean_linker_0, # of connection points: 2
#     Edge 95, Type (0, 0), BuildingBlock: AJUNOK_clean_linker_0, # of connection points: 2
# Relax obj value: 0.247
# Max RMSD: 0.251
# Mean RMSD: 0.251
data_MOF--net-uka--node1-NAHDIM_clean_sbu_0--edge1-AJUNOK_clean_linker_0
_symmetry_space_group_name_H-M    P1
_symmetry_Int_Tables_number       1
_symmetry_cell_setting            triclinic
loop_
_symmetry_equiv_pos_as_xyz
'x, y, z'
_cell_length_a     45.291979
_cell_length_b     45.204103
_cell_length_c     30.290087
_cell_angle_alpha  89.984838
_cell_angle_beta   90.097722
_cell_angle_gamma 89.906371
loop_
_atom_site_label
_atom_site_type_symbol
_atom_site_fract_x
_atom_site_fract_y
_atom_site_fract_z
_atom_type_partial_charge
C0 C 0.17874 0.25965 0.26123 0.0
O1 O 0.16312 0.23837 0.24317 0.0
O2 O 0.10853 0.23903 0.2966 0.0
Zn3 Zn 0.1212 0.28008 0.28062 0.0
O4 O 0.10364 0.29458 0.22345 0.0
C5 C 0.10721 0.29584 0.36922 0.0
O6 O 0.12092 0.27078 0.37727 0.0
O7 O 0.16531 0.28121 0.27907 0.0
C8 C 0.07606 0.29345 0.21572 0.0
O9 O 0.05846 0.28114 0.24482 0.0
C10 C 0.09584 0.21854 0.27518 0.0
O11 O 0.08873 0.22261 0.23356 0.0
O12 O 0.10614 0.30541 0.32975 0.0
C13 C 0.9895 0.93504 0.50582 0.0
O14 O 0.0083 0.91772 0.48528 0.0
O15 O 0.00616 0.86202 0.54697 0.0
Zn16 Zn 0.96664 0.87923 0.53213 0.0
O17 O 0.9524 0.86192 0.47483 0.0
C18 C 0.91195 0.86163 0.57264 0.0
O19 O 0.90145 0.86701 0.53299 0.0
O20 O 0.969 0.92335 0.52837 0.0
C21 C 0.96967 0.85038 0.44661 0.0
O22 O -0.00177 0.85059 0.45414 0.0
C23 C 0.02164 0.87275 0.57802 0.0
O24 O 0.01198 0.89638 0.59873 0.0
O25 O 0.93902 0.86672 0.58044 0.0
C26 C 0.30958 0.73069 0.75245 0.0
O27 O 0.32464 0.75073 0.73061 0.0
O28 O 0.37969 0.75407 0.78473 0.0
Zn29 Zn 0.3674 0.71224 0.77426 0.0
O30 O 0.38437 0.69521 0.71872 0.0
C31 C 0.37978 0.70218 0.8644 0.0
O32 O 0.36578 0.72756 0.86738 0.0
O33 O 0.32351 0.71072 0.77331 0.0
C34 C 0.41155 0.69739 0.70904 0.0
O35 O 0.42928 0.71205 0.73549 0.0
C36 C 0.39208 0.77365 0.76118 0.0
O37 O 0.3988 0.768 0.71988 0.0
O38 O 0.38229 0.6899 0.82681 0.0
C39 C 0.48735 0.05059 0.0029 0.0
O40 O 0.46741 0.0676 0.98412 0.0
O41 O 0.46762 0.11925 0.05287 0.0
Zn42 Zn 0.50728 0.10638 0.0312 0.0
O43 O 0.51728 0.12552 0.9732 0.0
C44 C 0.52995 0.117 0.11796 0.0
O45 O 0.50524 0.10391 0.12939 0.0
O46 O 0.50775 0.06258 0.02534 0.0
C47 C 0.53061 0.15023 0.97209 0.0
O48 O 0.53747 0.16336 0.0094 0.0
C49 C 0.44989 0.13685 0.03374 0.0
O50 O 0.4567 0.14746 0.9947 0.0
O51 O 0.53629 0.11908 0.07721 0.0
C52 C 0.17952 0.73141 0.23336 0.0
O53 O 0.16273 0.74986 0.25555 0.0
O54 O 0.11115 0.75572 0.19255 0.0
Zn55 Zn 0.12332 0.71386 0.20474 0.0
O56 O 0.10533 0.69825 0.26081 0.0
C57 C 0.10776 0.70091 0.11485 0.0
O58 O 0.11899 0.72731 0.10813 0.0
O59 O 0.16726 0.71243 0.20849 0.0
C60 C 0.08033 0.68549 0.26046 0.0
O61 O 0.06581 0.68333 0.22301 0.0
C62 C 0.0858 0.76597 0.20181 0.0
O63 O 0.06757 0.74964 0.22498 0.0
O64 O 0.10867 0.68995 0.15348 0.0
C65 C 0.51014 0.93205 0.48375 0.0
O66 O 0.48702 0.91753 0.49836 0.0
O67 O 0.48686 0.8664 0.43103 0.0
Zn68 Zn 0.52501 0.87395 0.46262 0.0
O69 O 0.52611 0.85584 0.52329 0.0
C70 C 0.55396 0.85417 0.38432 0.0
O71 O 0.53266 0.86945 0.3656 0.0
O72 O 0.53114 0.91754 0.46643 0.0
C73 C 0.52994 0.82811 0.5275 0.0
O74 O 0.53137 0.81171 0.49177 0.0
C75 C 0.46465 0.85226 0.44524 0.0
O76 O 0.46485 0.84217 0.48589 0.0
O77 O 0.55632 0.85459 0.42613 0.0
C78 C 0.29933 0.23591 0.74253 0.0
O79 O 0.31452 0.21503 0.76252 0.0
O80 O 0.37367 0.21732 0.7102 0.0
Zn81 Zn 0.35685 0.25779 0.71943 0.0
O82 O 0.37512 0.27759 0.77208 0.0
C83 C 0.37227 0.30789 0.66455 0.0
O84 O 0.36849 0.32327 0.70092 0.0
O85 O 0.31301 0.25666 0.72327 0.0
C86 C 0.38369 0.26351 0.80603 0.0
O87 O 0.37959 0.23476 0.80783 0.0
C88 C 0.3645 0.20387 0.67603 0.0
O89 O 0.34289 0.21585 0.65317 0.0
O90 O 0.3679 0.2802 0.66518 0.0
C91 C 0.98168 0.046 0.98843 0.0
O92 O 0.00241 0.06173 0.00763 0.0
O93 O 0.00091 0.11636 0.95283 0.0
Zn94 Zn 0.96075 0.10343 0.97178 0.0
O95 O 0.95064 0.11917 0.03209 0.0
C96 C 0.93962 0.11955 0.88609 0.0
O97 O 0.96365 0.10549 0.87383 0.0
O98 O 0.95999 0.05935 0.97078 0.0
C99 C 0.93751 0.14392 0.03577 0.0
O100 O 0.93094 0.15891 -0.0001 0.0
C101 C 0.01774 0.13477 0.97194 0.0
O102 O 0.00938 0.14676 0.0094 0.0
O103 O 0.93285 0.11997 0.92679 0.0
C104 C 0.79035 0.72716 0.73489 0.0
O105 O 0.80634 0.74582 0.75795 0.0
O106 O 0.85424 0.75595 0.679 0.0
Zn107 Zn 0.84714 0.71525 0.70393 0.0
O108 O 0.86627 0.70734 0.76295 0.0
C109 C 0.88924 0.69463 0.64362 0.0
O110 O 0.89989 0.72077 0.65379 0.0
O111 O 0.80342 0.7097 0.70848 0.0
C112 C 0.88939 0.7195 0.7783 0.0
O113 O 0.90273 0.74034 0.75571 0.0
C114 C 0.85869 0.78113 0.69634 0.0
O115 O 0.85937 0.78397 0.73948 0.0
O116 O 0.86514 0.68638 0.66115 0.0
C117 C -0.0035 0.06365 0.49857 0.0
O118 O 0.97588 0.07928 0.51826 0.0
O119 O 0.97535 0.13385 0.45198 0.0
Zn120 Zn 0.01523 0.12122 0.47386 0.0
O121 O 0.0256 0.13959 0.53232 0.0
C122 C 0.03898 0.1335 0.38802 0.0
O123 O 0.01483 0.12 0.37495 0.0
O124 O 0.0166 0.07709 0.47749 0.0
C125 C 0.02644 0.16752 0.53714 0.0
O126 O 0.01944 0.18464 0.50365 0.0
C127 C 0.95536 0.14805 0.47233 0.0
O128 O 0.95923 0.15515 0.51397 0.0
O129 O 0.04426 0.13557 0.42912 0.0
C130 C 0.671 0.24415 0.24335 0.0
O131 O 0.65609 0.2226 0.262 0.0
O132 O 0.60038 0.2227 0.20476 0.0
Zn133 Zn 0.61292 0.26352 0.22197 0.0
O134 O 0.59456 0.27613 0.27924 0.0
C135 C 0.60038 0.28189 0.13384 0.0
O136 O 0.61324 0.25652 0.12485 0.0
O137 O 0.65691 0.26502 0.22478 0.0
C138 C 0.5667 0.27534 0.28418 0.0
O139 O 0.55013 0.26576 0.25156 0.0
C140 C 0.5883 0.20273 0.22801 0.0
O141 O 0.58346 0.20744 0.27016 0.0
O142 O 0.59851 0.2902 0.17382 0.0
C143 C 0.48398 0.92214 0.99245 0.0
O144 O 0.50552 0.90675 0.01041 0.0
O145 O 0.50417 0.85131 0.94815 0.0
Zn146 Zn 0.46418 0.86469 0.96774 0.0
O147 O 0.45098 0.84539 0.0242 0.0
C148 C 0.44519 0.85689 0.87913 0.0
O149 O 0.46985 0.87124 0.87148 0.0
O150 O 0.4633 0.90854 0.97286 0.0
C151 C 0.45444 0.81799 0.03216 0.0
O152 O 0.46829 0.8013 0.00334 0.0
C153 C 0.5255 0.83938 0.96875 0.0
O154 O 0.52369 0.83515 0.01156 0.0
O155 O 0.4372 0.85261 0.91886 0.0
C156 C 0.80665 0.24831 0.76187 0.0
O157 O 0.82281 0.22865 0.74105 0.0
O158 O 0.87926 0.23254 0.79656 0.0
Zn159 Zn 0.86341 0.27189 0.77689 0.0
O160 O 0.87653 0.28424 0.7162 0.0
C161 C 0.87676 0.29701 0.86151 0.0
O162 O 0.86285 0.27331 0.87552 0.0
O163 O 0.81936 0.27026 0.77979 0.0
C164 C 0.90166 0.2783 0.69984 0.0
O165 O 0.92043 0.26192 0.72219 0.0
C166 C 0.88684 0.20956 0.77523 0.0
O167 O 0.88529 0.20929 0.73193 0.0
O168 O 0.87872 0.30153 0.82022 0.0
C169 C 0.50825 0.06062 0.49235 0.0
O170 O 0.53133 0.07717 0.48359 0.0
O171 O 0.51728 0.13203 0.54193 0.0
Zn172 Zn 0.48152 0.11675 0.51031 0.0
O173 O 0.47493 0.13603 0.45133 0.0
C174 C 0.44703 0.1263 0.58927 0.0
O175 O 0.47129 0.11772 0.60943 0.0
O176 O 0.48432 0.07299 0.50398 0.0
C177 C 0.46359 0.16178 0.45116 0.0
O178 O 0.45943 0.17526 0.48905 0.0
C179 C 0.53506 0.15165 0.52817 0.0
O180 O 0.53126 0.16298 0.48864 0.0
O181 O 0.44634 0.12654 0.54738 0.0
C182 C 0.69332 0.71948 0.27761 0.0
O183 O 0.67575 0.73635 0.2539 0.0
O184 O 0.62286 0.73724 0.31955 0.0
Zn185 Zn 0.63822 0.69765 0.30062 0.0
O186 O 0.62241 0.68666 0.24095 0.0
C187 C 0.62323 0.67349 0.38514 0.0
O188 O 0.63657 0.69735 0.39978 0.0
O189 O 0.68204 0.69916 0.30096 0.0
C190 C 0.59489 0.68153 0.23803 0.0
O191 O 0.57852 0.68447 0.27353 0.0
C192 C 0.61169 0.75684 0.29451 0.0
O193 O 0.60976 0.75179 0.25191 0.0
O194 O 0.6232 0.66827 0.34396 0.0
C195 C 0.98749 0.91772 0.97574 0.0
O196 O 0.96858 0.90386 0.95015 0.0
O197 O 0.95749 0.84709 0.0086 0.0
Zn198 Zn -7e-05 0.85876 0.00443 0.0
O199 O 0.02037 0.83856 0.95428 0.0
C200 C 0.04272 0.85064 0.07593 0.0
O201 O 0.06015 0.86807 0.05309 0.0
O202 O 0.00404 0.90265 0.00102 0.0
C203 C 0.01831 0.81075 0.94894 0.0
O204 O 0.00173 0.79533 0.97601 0.0
C205 C 0.94229 0.86169 0.03625 0.0
O206 O 0.95393 0.88562 0.05363 0.0
O207 O 0.01735 0.84433 0.06092 0.0
C208 C 0.66183 0.72856 0.73971 0.0
O209 O 0.64699 0.70544 0.72567 0.0
O210 O 0.58954 0.713 0.78282 0.0
Zn211 Zn 0.60389 0.75176 0.75963 0.0
O212 O 0.58422 0.76247 0.70179 0.0
C213 C 0.59919 0.77585 0.84658 0.0
O214 O 0.61361 0.75152 0.85666 0.0
O215 O 0.64781 0.75088 0.75411 0.0
C216 C 0.56587 0.78376 0.69946 0.0
O217 O 0.55954 0.79881 0.73531 0.0
C218 C 0.56193 0.70891 0.78645 0.0
O219 O 0.54376 0.72886 0.77031 0.0
O220 O 0.59353 0.7813 0.80627 0.0
C221 C 0.4843 0.42755 0.99298 0.0
O222 O 0.50778 0.41244 0.98114 0.0
O223 O 0.50321 0.35681 0.02589 0.0
Zn224 Zn 0.4624 0.36956 0.00891 0.0
O225 O 0.44784 0.34997 0.95338 0.0
C226 C 0.44722 0.3598 0.09861 0.0
O227 O 0.47232 0.37378 0.10452 0.0
O228 O 0.4613 0.41361 0.00474 0.0
C229 C 0.43849 0.32351 0.95547 0.0
O230 O 0.43971 0.30956 0.9935 0.0
C231 C 0.51815 0.33507 0.0117 0.0
O232 O 0.50774 0.31916 0.97892 0.0
O233 O 0.43724 0.35679 0.05961 0.0
C234 C 0.79939 0.23757 0.24163 0.0
O235 O 0.81586 0.25737 0.22169 0.0
O236 O 0.86933 0.25795 0.27939 0.0
Zn237 Zn 0.85604 0.21689 0.26473 0.0
O238 O 0.87302 0.20305 0.20685 0.0
C239 C 0.87005 0.20063 0.35366 0.0
O240 O 0.85737 0.2262 0.36182 0.0
O241 O 0.81199 0.2167 0.26252 0.0
C242 C 0.89653 0.18764 0.20584 0.0
O243 O 0.90998 0.18134 0.24312 0.0
C244 C 0.89398 0.26882 0.26793 0.0
O245 O 0.91127 0.25346 0.24176 0.0
O246 O 0.8706 0.19116 0.31414 0.0
C247 C 0.00139 0.55611 0.48236 0.0
O248 O 0.98577 0.57412 0.45753 0.0
O249 O 0.98946 0.63141 0.52317 0.0
Zn250 Zn 0.02737 0.6107 0.50789 0.0
O251 O 0.04339 0.62558 0.45031 0.0
C252 C 0.05192 0.61831 0.59556 0.0
O253 O 0.02875 0.60301 0.60803 0.0
O254 O 0.02154 0.56684 0.50675 0.0
C255 C 0.02759 0.63617 0.41945 0.0
O256 O -0.00127 0.63636 0.42371 0.0
C257 C 0.96948 0.61927 0.54636 0.0
O258 O 0.97264 0.59149 0.55817 0.0
O259 O 0.05626 0.62252 0.55463 0.0
C260 C 0.67872 0.23927 0.77194 0.0
O261 O 0.6637 0.26175 0.78787 0.0
O262 O 0.61075 0.26153 0.73017 0.0
Zn263 Zn 0.62093 0.22058 0.75002 0.0
O264 O 0.60109 0.20944 0.80709 0.0
C265 C 0.61178 0.20258 0.66141 0.0
O266 O 0.62818 0.22607 0.65458 0.0
O267 O 0.66473 0.21779 0.75495 0.0
C268 C 0.57632 0.19624 0.80639 0.0
O269 O 0.56363 0.19109 0.76815 0.0
C270 C 0.58611 0.2741 0.73668 0.0
O271 O 0.56683 0.26147 0.76296 0.0
O272 O 0.60693 0.19439 0.7009 0.0
C273 C -0.00279 0.4396 0.98971 0.0
O274 O 0.97526 0.42433 0.00647 0.0
O275 O 0.98122 0.36704 0.95782 0.0
Zn276 Zn 0.02033 0.38163 0.97983 0.0
O277 O 0.03097 0.36712 0.04072 0.0
C278 C 0.04594 0.36745 0.89613 0.0
O279 O 0.02347 0.38314 0.88165 0.0
O280 O 0.02012 0.42589 0.97681 0.0
C281 C 0.0281 0.34014 0.05176 0.0
O282 O 0.01607 0.32145 0.02386 0.0
C283 C 0.9588 0.35653 0.9774 0.0
O284 O 0.95904 0.35334 0.0205 0.0
O285 O 0.04992 0.36511 0.93752 0.0
C286 C 0.81896 0.7451 0.27614 0.0
O287 O 0.83847 0.7301 0.29923 0.0
O288 O 0.89061 0.73362 0.2198 0.0
Zn289 Zn 0.87072 0.77111 0.23957 0.0
O290 O 0.88982 0.7869 0.29422 0.0
C291 C 0.8685 0.79541 0.15176 0.0
O292 O 0.85476 0.77061 0.14256 0.0
O293 O 0.8279 0.76449 0.24904 0.0
C294 C 0.91731 0.79243 0.29363 0.0
O295 O 0.93236 0.78668 0.2576 0.0
C296 C 0.87653 0.71361 0.19921 0.0
O297 O 0.84792 0.7166 0.19348 0.0
O298 O 0.87617 0.8007 0.19135 0.0
C299 C 0.48274 0.54758 0.50537 0.0
O300 O 0.49868 0.56435 0.53152 0.0
O301 O 0.50519 0.61677 0.4606 0.0
Zn302 Zn 0.46442 0.60382 0.47674 0.0
O303 O 0.45105 0.62092 0.53447 0.0
C304 C 0.44467 0.61402 0.38813 0.0
O305 O 0.46935 0.60008 0.37873 0.0
O306 O 0.46467 0.55982 0.479 0.0
C307 C 0.45684 0.64733 0.54588 0.0
O308 O 0.47287 0.66403 0.51977 0.0
C309 C 0.52721 0.6233 0.4847 0.0
O310 O 0.52471 0.62288 0.52789 0.0
O311 O 0.43757 0.6176 0.42836 0.0
C312 C 0.3069 0.24941 0.25949 0.0
O313 O 0.32436 0.27091 0.27247 0.0
O314 O 0.37576 0.26307 0.20916 0.0
Zn315 Zn 0.36194 0.22449 0.23387 0.0
O316 O 0.38342 0.21505 0.29024 0.0
C317 C 0.36943 0.19907 0.14786 0.0
O318 O 0.35795 0.22443 0.13524 0.0
O319 O 0.3183 0.22636 0.24264 0.0
C320 C 0.40815 0.20172 0.28874 0.0
O321 O 0.41908 0.19406 0.25026 0.0
C322 C 0.39645 0.27886 0.22477 0.0
O323 O 0.40948 0.27076 0.2616 0.0
O324 O 0.37183 0.19368 0.18886 0.0
C325 C 0.48551 0.55553 0.01359 0.0
O326 O 0.46118 0.56887 0.02636 0.0
O327 O 0.46448 0.62825 -0.00281 0.0
Zn328 Zn 0.50592 0.6151 0.00861 0.0
O329 O 0.52064 0.63054 0.06672 0.0
C330 C 0.51719 0.6295 0.92016 0.0
O331 O 0.49293 0.61387 0.91595 0.0
O332 O 0.5082 0.57101 0.00541 0.0
C333 C 0.54744 0.63823 0.07118 0.0
O334 O 0.56537 0.63547 0.03737 0.0
C335 C 0.459 0.65577 0.99641 0.0
O336 O 0.47934 0.67426 0.01031 0.0
O337 O 0.52884 0.6322 0.95817 0.0
C338 C 0.18159 0.74041 0.75751 0.0
O339 O 0.16484 0.72072 0.77711 0.0
O340 O 0.11277 0.72407 0.70281 0.0
Zn341 Zn 0.12548 0.76145 0.7331 0.0
O342 O 0.10759 0.76668 0.79297 0.0
C343 C 0.1083 0.79451 0.65555 0.0
O344 O 0.11664 0.77045 0.63463 0.0
O345 O 0.16935 0.76146 0.73662 0.0
C346 C 0.08071 0.76031 0.79997 0.0
O347 O 0.06498 0.74813 0.76839 0.0
C348 C 0.10526 0.69938 0.71938 0.0
O349 O 0.10409 0.69619 0.76244 0.0
O350 O 0.11122 0.79574 0.69719 0.0
C351 C 0.9778 0.42977 0.49336 0.0
O352 O -0.0039 0.4132 0.51633 0.0
O353 O -0.00164 0.35973 0.4582 0.0
Zn354 Zn 0.95714 0.37313 0.47119 0.0
O355 O 0.94213 0.35636 0.52826 0.0
C356 C 0.94319 0.35812 0.38243 0.0
O357 O 0.96876 0.37102 0.37566 0.0
O358 O 0.95734 0.41729 0.47161 0.0
C359 C 0.93972 0.32852 0.53295 0.0
O360 O 0.94788 0.31102 0.50054 0.0
C361 C 0.0164 0.34431 0.48063 0.0
O362 O 0.00906 0.3351 0.52023 0.0
O363 O 0.93255 0.35787 0.42125 0.0
C364 C 0.30789 0.73634 0.23927 0.0
O365 O 0.32314 0.71553 0.21933 0.0
O366 O 0.37751 0.71422 0.28173 0.0
Zn367 Zn 0.36555 0.75492 0.26281 0.0
O368 O 0.38299 0.7683 0.20509 0.0
C369 C 0.38791 0.80752 0.30813 0.0
O370 O 0.38687 0.8203 0.26918 0.0
O371 O 0.32163 0.75652 0.25987 0.0
C372 C 0.41007 0.76608 0.19465 0.0
O373 O 0.42857 0.75296 0.22178 0.0
C374 C 0.39067 0.69297 0.26267 0.0
O375 O 0.39902 0.69564 0.22137 0.0
O376 O 0.37949 0.78091 0.31197 0.0
C377 C 0.98449 0.56749 0.97472 0.0
O378 O 0.00563 0.58437 0.95916 0.0
O379 O 0.00129 0.63704 0.01387 0.0
Zn380 Zn 0.9609 0.6239 0.99541 0.0
O381 O 0.94729 0.64295 0.9389 0.0
C382 C 0.94287 0.63679 0.08354 0.0
O383 O 0.96936 0.62648 0.09234 0.0
O384 O 0.96167 0.57969 0.99096 0.0
C385 C 0.94117 0.67042 0.938 0.0
O386 O 0.94508 0.68626 0.97388 0.0
C387 C 0.01902 0.65528 0.9964 0.0
O388 O 0.01166 0.66873 0.95956 0.0
O389 O 0.93362 0.63646 0.0439 0.0
C390 C 0.17099 0.23125 0.74369 0.0
O391 O 0.15461 0.24863 0.71896 0.0
O392 O 0.10326 0.25602 0.79806 0.0
Zn393 Zn 0.1145 0.21604 0.77464 0.0
O394 O 0.09627 0.20599 0.71588 0.0
C395 C 0.10268 0.19234 0.8601 0.0
O396 O 0.11623 0.21662 0.87263 0.0
O397 O 0.15835 0.214 0.77073 0.0
C398 C 0.07151 0.21546 0.70197 0.0
O399 O 0.0561 0.23386 0.72633 0.0
C400 C 0.09771 0.28061 0.77952 0.0
O401 O 0.09779 0.28267 0.73627 0.0
O402 O 0.10022 0.18682 0.81914 0.0
C403 C 0.49731 0.41993 0.49701 0.0
O404 O 0.47738 0.40432 0.47579 0.0
O405 O 0.47562 0.35248 0.54385 0.0
Zn406 Zn 0.51574 0.36266 0.52092 0.0
O407 O 0.52625 0.3444 0.46249 0.0
C408 C 0.53726 0.35405 0.60744 0.0
O409 O 0.51377 0.37013 0.61608 0.0
O410 O 0.51764 0.40651 0.51777 0.0
C411 C 0.51697 0.31967 0.44818 0.0
O412 O 0.49844 0.30413 0.47204 0.0
C413 C 0.4508 0.34571 0.52725 0.0
O414 O 0.44772 0.34308 0.48431 0.0
O415 O 0.54373 0.34855 0.56745 0.0
C416 C 0.04578 0.15682 0.31373 0.0
C417 C 0.05697 0.15059 0.35618 0.0
C418 C 0.05966 0.17741 0.28604 0.0
C419 C 0.08517 0.19247 0.29991 0.0
H420 H 0.02525 0.14702 0.30266 0.0
H421 H 0.04929 0.18284 0.25481 0.0
S422 S 0.12648 0.17991 0.40424 0.0
N423 N 0.09745 0.15804 0.40794 0.0
N424 N 0.12346 0.19662 0.356 0.0
C425 C 0.09794 0.18457 0.34063 0.0
C426 C 0.08386 0.16365 0.36875 0.0
C427 C 0.0562 0.82973 0.5732 0.0
C428 C 0.04761 0.85605 0.59455 0.0
C429 C 0.07734 0.81083 0.59178 0.0
C430 C 0.09065 0.81742 0.63256 0.0
H431 H 0.04562 0.82292 0.54276 0.0
H432 H 0.08205 0.79016 0.57511 0.0
S433 S 0.07982 0.88596 0.69814 0.0
N434 N 0.05699 0.88954 0.65594 0.0
N435 N 0.09666 0.85392 0.69091 0.0
C436 C 0.08399 0.84472 0.65259 0.0
C437 C 0.06251 0.86406 0.63357 0.0
C438 C 0.40121 0.82985 0.85134 0.0
C439 C 0.42947 0.84138 0.84312 0.0
C440 C 0.38817 0.80977 0.82229 0.0
C441 C 0.40283 0.80042 0.78385 0.0
H442 H 0.38968 0.83513 0.88165 0.0
H443 H 0.36711 0.8002 0.83136 0.0
S444 S 0.47549 0.8269 0.74397 0.0
N445 N 0.47041 0.84445 0.79118 0.0
N446 N 0.44571 0.80645 0.73655 0.0
C447 C 0.42992 0.81366 0.77313 0.0
C448 C 0.44332 0.83422 0.80284 0.0
C449 C 0.3919 0.19098 0.07348 0.0
C450 C 0.38484 0.1799 0.11561 0.0
C451 C 0.41151 0.17588 0.04569 0.0
C452 C 0.42474 0.14915 0.05903 0.0
H453 H 0.38364 0.21232 0.06281 0.0
H454 H 0.4176 0.18616 0.01471 0.0
S455 S 0.40897 0.10788 0.16239 0.0
N456 N 0.38924 0.13847 0.16653 0.0
N457 N 0.42596 0.11005 0.11434 0.0
C458 C 0.41581 0.13656 0.09938 0.0
C459 C 0.3959 0.15194 0.12766 0.0
C460 C 0.09463 0.808 0.14996 0.0
C461 C 0.0751 0.7925 0.1778 0.0
C462 C 0.08421 0.82859 0.11911 0.0
C463 C 0.05386 0.83433 0.11483 0.0
H464 H 0.11803 0.80299 0.15012 0.0
H465 H 0.09987 0.83854 0.09658 0.0
S466 S -0.00585 0.80458 0.18585 0.0
N467 N 0.02441 0.78801 0.2037 0.0
N468 N 0.00486 0.8266 0.14547 0.0
C469 C 0.0344 0.82117 0.14518 0.0
C470 C 0.04502 0.80033 0.17682 0.0
C471 C 0.42244 0.8457 0.33766 0.0
C472 C 0.40322 0.82194 0.34561 0.0
C473 C 0.44107 0.85639 0.37091 0.0
C474 C 0.44112 0.84388 0.41354 0.0
H475 H 0.42429 0.85519 0.30494 0.0
H476 H 0.4564 0.87387 0.36248 0.0
S477 S 0.39145 0.7843 0.45319 0.0
N478 N 0.38276 0.78849 0.40061 0.0
N479 N 0.41777 0.80863 0.46314 0.0
C480 C 0.4204 0.82159 0.42285 0.0
C481 C 0.40149 0.81059 0.38887 0.0
C482 C 0.40818 0.16998 0.67846 0.0
C483 C 0.38196 0.17909 0.65735 0.0
C484 C 0.42827 0.15114 0.65736 0.0
C485 C 0.42297 0.14078 0.6143 0.0
H486 H 0.41408 0.17868 0.7106 0.0
H487 H 0.44887 0.14614 0.67402 0.0
S488 S 0.35512 0.15341 0.54793 0.0
N489 N 0.34987 0.17277 0.59344 0.0
N490 N 0.38771 0.13752 0.5538 0.0
C491 C 0.39572 0.14762 0.59436 0.0
C492 C 0.37518 0.16671 0.6159 0.0
C493 C 0.07703 0.18742 0.93265 0.0
C494 C 0.08577 0.17465 0.89235 0.0
C495 C 0.05634 0.17343 0.95992 0.0
C496 C 0.04376 0.14616 0.94787 0.0
H497 H 0.08483 0.20917 0.94204 0.0
H498 H 0.04898 0.18491 0.9893 0.0
S499 S 0.06391 0.10081 0.85014 0.0
N500 N 0.0836 0.1313 0.84495 0.0
N501 N 0.04497 0.10486 0.89625 0.0
C502 C 0.05433 0.13199 0.9096 0.0
C503 C 0.07526 0.14629 0.88181 0.0
C504 C 0.90349 0.84431 0.65006 0.0
C505 C 0.89423 0.84523 0.60563 0.0
C506 C 0.8903 0.82503 0.68045 0.0
C507 C 0.86774 0.80566 0.66724 0.0
H508 H 0.92187 0.85775 0.66107 0.0
H509 H 0.89911 0.82398 0.71369 0.0
S510 S 0.83297 0.80172 0.55646 0.0
N511 N 0.85894 0.82706 0.55132 0.0
N512 N 0.83462 0.79052 0.60828 0.0
C513 C 0.85701 0.80764 0.62377 0.0
C514 C 0.87011 0.82754 0.59299 0.0
C515 C 0.92289 0.14605 0.40608 0.0
C516 C 0.92981 0.1593 0.44681 0.0
C517 C 0.90222 0.1587 0.37741 0.0
C518 C 0.88769 0.18528 0.3881 0.0
H519 H 0.9343 0.12621 0.39545 0.0
H520 H 0.89859 0.14811 0.34579 0.0
S521 S 0.89583 0.22736 0.49285 0.0
N522 N 0.91884 0.19921 0.49809 0.0
N523 N 0.87993 0.22318 0.44415 0.0
C524 C 0.89305 0.19785 0.42996 0.0
C525 C 0.91411 0.18481 0.45934 0.0
C526 C 0.57347 0.14816 0.13666 0.0
C527 C 0.54751 0.13394 0.15061 0.0
C528 C 0.58758 0.16899 0.16336 0.0
C529 C 0.57643 0.17638 0.20524 0.0
H530 H 0.58227 0.14432 0.10392 0.0
H531 H 0.60668 0.18034 0.15016 0.0
S532 S 0.51159 0.14249 0.26009 0.0
N533 N 0.51305 0.12632 0.21126 0.0
N534 N 0.53976 0.16561 0.26153 0.0
C535 C 0.55192 0.16065 0.22122 0.0
C536 C 0.53741 0.13938 0.19386 0.0
C537 C 0.55404 0.83661 0.89899 0.0
C538 C 0.54955 0.82622 0.94224 0.0
C539 C 0.57172 0.82109 0.86919 0.0
C540 C 0.58563 0.79446 0.88134 0.0
H541 H 0.54266 0.85621 0.88729 0.0
H542 H 0.57333 0.82939 0.83573 0.0
S543 S 0.58403 0.75975 0.99251 0.0
N544 N 0.56278 0.7893 -0.00275 0.0
N545 N 0.59621 0.75997 0.94117 0.0
C546 C 0.58322 0.785 0.92554 0.0
C547 C 0.56514 0.80093 0.95604 0.0
C548 C 0.88933 0.1803 0.84452 0.0
C549 C 0.89789 0.18375 0.80023 0.0
C550 C 0.90175 0.15834 0.87115 0.0
C551 C 0.92357 0.13907 0.85481 0.0
H552 H 0.87333 0.19519 0.85918 0.0
H553 H 0.89495 0.15735 0.9054 0.0
S554 S 0.95188 0.13728 0.73975 0.0
N555 N 0.92789 0.16483 0.74004 0.0
N556 N 0.95163 0.1235 0.79026 0.0
C557 C 0.9313 0.14129 0.80985 0.0
C558 C 0.91835 0.16362 0.78252 0.0
C559 C 0.58061 0.16162 0.63206 0.0
C560 C 0.59573 0.18826 0.6245 0.0
C561 C 0.5621 0.1494 0.59993 0.0
C562 C 0.55779 0.16335 0.55883 0.0
H563 H 0.5824 0.15042 0.66358 0.0
H564 H 0.55041 0.12923 0.60804 0.0
S565 S 0.59384 0.23264 0.52123 0.0
N566 N 0.6065 0.22748 0.57178 0.0
N567 N 0.57159 0.2045 0.51134 0.0
C568 C 0.57382 0.18933 0.54995 0.0
C569 C 0.59281 0.20178 0.58278 0.0
C570 C 0.60536 0.7904 0.35906 0.0
C571 C 0.59945 0.78416 0.3144 0.0
C572 C 0.59177 0.8141 0.38059 0.0
C573 C 0.57154 0.83256 0.3585 0.0
H574 H 0.62006 0.77639 0.37809 0.0
H575 H 0.59642 0.8172 0.41538 0.0
S576 S 0.55063 0.82761 0.24005 0.0
N577 N 0.57374 0.79981 0.24772 0.0
N578 N 0.54807 0.84444 0.28825 0.0
C579 C 0.56661 0.82761 0.31314 0.0
C580 C 0.58058 0.8034 0.2911 0.0
C581 C 0.88816 0.84367 0.12621 0.0
C582 C 0.88021 0.8144 0.11628 0.0
C583 C 0.90587 0.86008 0.09754 0.0
C584 C 0.91671 0.84763 0.05817 0.0
H585 H 0.88213 0.85342 0.15762 0.0
H586 H 0.91288 0.88185 0.10814 0.0
S587 S 0.89736 0.77379 0.01297 0.0
N588 N 0.88057 0.77518 0.06126 0.0
N589 N 0.91418 0.80595 0.00735 0.0
C590 C 0.90632 0.8195 0.04564 0.0
C591 C 0.88799 0.80286 0.07477 0.0
C592 C 0.55861 0.65504 0.88189 0.0
C593 C 0.52877 0.64667 0.88254 0.0
C594 C 0.56951 0.67385 0.84904 0.0
C595 C 0.55081 0.68547 0.81611 0.0
H596 H 0.57357 0.64749 0.90748 0.0
H597 H 0.59248 0.68038 0.85079 0.0
S598 S 0.47108 0.66917 0.80198 0.0
N599 N 0.4809 0.65023 0.84624 0.0
N600 N 0.5013 0.68602 0.78487 0.0
C601 C 0.52111 0.67649 0.81552 0.0
C602 C 0.5101 0.65696 0.84863 0.0
C603 C 0.5754 0.28321 0.06024 0.0
C604 C 0.58397 0.29802 0.09906 0.0
C605 C 0.55552 0.29615 0.0304 0.0
C606 C 0.54363 0.32445 0.03819 0.0
H607 H 0.58273 0.26079 0.05396 0.0
H608 H 0.5483 0.2832 0.00233 0.0
S609 S 0.56349 0.3746 0.13083 0.0
N610 N 0.58221 0.34395 0.14071 0.0
N611 N 0.54526 0.36852 0.08451 0.0
C612 C 0.55405 0.34047 0.07498 0.0
C613 C 0.57409 0.32718 0.10548 0.0
C614 C 0.8887 0.30724 0.32647 0.0
C615 C 0.90503 0.29555 0.29098 0.0
C616 C 0.90065 0.32878 0.35432 0.0
C617 C 0.92931 0.33975 0.34766 0.0
H618 H 0.86702 0.29867 0.33439 0.0
H619 H 0.88769 0.33596 0.38238 0.0
S620 S 0.97952 0.31994 0.25532 0.0
N621 N 0.95008 0.29908 0.24759 0.0
N622 N 0.97253 0.33979 0.29986 0.0
C623 C 0.94502 0.33004 0.31024 0.0
C624 C 0.93289 0.30787 0.28193 0.0
C625 C 0.92929 0.68686 0.58876 0.0
C626 C 0.90652 0.67481 0.61459 0.0
C627 C 0.94849 0.66873 0.56485 0.0
C628 C 0.94592 0.63774 0.56614 0.0
H629 H 0.93288 0.71054 0.58782 0.0
H630 H 0.96626 0.67919 0.54677 0.0
S631 S 0.888 0.59516 0.62495 0.0
N632 N 0.88085 0.63005 0.63713 0.0
N633 N 0.91716 0.59582 0.59232 0.0
C634 C 0.92227 0.6254 0.58995 0.0
C635 C 0.9025 0.64396 0.61411 0.0
C636 C 0.53767 0.33224 0.68309 0.0
C637 C 0.55264 0.3382 0.64342 0.0
C638 C 0.54951 0.3128 0.71451 0.0
C639 C 0.57693 0.29891 0.70767 0.0
H640 H 0.51584 0.34127 0.6889 0.0
H641 H 0.53643 0.30766 0.74342 0.0
S642 S 0.62709 0.31115 0.6123 0.0
N643 N 0.59771 0.3315 0.6012 0.0
N644 N 0.62041 0.29549 0.66046 0.0
C645 C 0.59323 0.30666 0.66973 0.0
C646 C 0.58094 0.32614 0.63751 0.0
C647 C 0.91748 0.32077 0.9652 0.0
C648 C 0.93424 0.34492 0.95034 0.0
C649 C 0.89767 0.30629 0.93689 0.0
C650 C 0.89385 0.31555 0.8928 0.0
H651 H 0.92083 0.31197 -0.00189 0.0
H652 H 0.88635 0.28688 0.94915 0.0
S653 S 0.92878 0.38109 0.84059 0.0
N654 N 0.94303 0.37986 0.89074 0.0
N655 N 0.90577 0.35289 0.83766 0.0
C656 C 0.90887 0.34111 0.87872 0.0
C657 C 0.92908 0.35571 0.90745 0.0
C658 C 0.89531 0.6577 0.11078 0.0
C659 C 0.92558 0.6525 0.11768 0.0
C660 C 0.87919 0.67609 0.13903 0.0
C661 C 0.89283 0.69037 0.17493 0.0
H662 H 0.88412 0.64822 0.0825 0.0
H663 H 0.85621 0.68026 0.13123 0.0
S664 S 0.97095 0.68187 0.21 0.0
N665 N 0.96809 0.66122 0.16526 0.0
N666 N 0.93781 0.6961 0.21809 0.0
C667 C 0.92272 0.68413 0.18364 0.0
C668 C 0.93909 0.66509 0.15511 0.0
C669 C 0.58233 0.63741 0.39409 0.0
C670 C 0.60273 0.65678 0.41382 0.0
C671 C 0.55884 0.62572 0.41805 0.0
C672 C 0.55484 0.63261 0.46291 0.0
H673 H 0.58348 0.63233 0.35918 0.0
H674 H 0.54309 0.61192 0.4007 0.0
S675 S 0.60509 0.67782 0.53222 0.0
N676 N 0.61966 0.67927 0.48233 0.0
N677 N 0.57534 0.65695 0.5277 0.0
C678 C 0.57638 0.64993 0.48412 0.0
C679 C 0.60036 0.66211 0.45948 0.0
C680 C 0.40451 0.33214 0.12946 0.0
C681 C 0.43307 0.34359 0.13536 0.0
C682 C 0.39224 0.31258 0.16004 0.0
C683 C 0.40806 0.30353 0.19775 0.0
H684 H 0.39186 0.33742 0.1001 0.0
H685 H 0.37058 0.30359 0.153 0.0
S686 S 0.48263 0.32943 0.231 0.0
N687 N 0.47601 0.34641 0.18373 0.0
N688 N 0.45291 0.30949 0.24125 0.0
C689 C 0.43592 0.31627 0.20561 0.0
C690 C 0.44843 0.33634 0.17439 0.0
C691 C 0.42302 0.64854 0.93513 0.0
C692 C 0.43434 0.66673 0.96886 0.0
C693 C 0.40433 0.65996 0.90252 0.0
C694 C 0.39575 0.68984 0.90284 0.0
H695 H 0.43 0.6257 0.9322 0.0
H696 H 0.39736 0.64545 0.87602 0.0
S697 S 0.41597 0.74571 0.98754 0.0
N698 N 0.43342 0.71534 0.00311 0.0
N699 N 0.39769 0.73678 0.94226 0.0
C700 C 0.40513 0.70776 0.93821 0.0
C701 C 0.42459 0.69621 0.9711 0.0
C702 C 0.07332 0.65565 0.7031 0.0
C703 C 0.09539 0.67549 0.68962 0.0
C704 C 0.06048 0.6359 0.67298 0.0
C705 C 0.06942 0.63518 0.62844 0.0
H706 H 0.0648 0.65643 0.73648 0.0
H707 H 0.04248 0.62211 0.68432 0.0
S708 S 0.13028 0.67913 0.57904 0.0
N709 N 0.1283 0.69075 0.63058 0.0
N710 N 0.10459 0.65349 0.57412 0.0
C711 C 0.09314 0.65336 0.6156 0.0
C712 C 0.10598 0.67359 0.64614 0.0
C713 C 0.05393 0.34956 0.4215 0.0
C714 C 0.04372 0.33407 0.45874 0.0
C715 C 0.07596 0.33786 0.39444 0.0
C716 C 0.08869 0.31011 0.40341 0.0
H717 H 0.04391 0.3704 0.41196 0.0
H718 H 0.08204 0.35011 0.36509 0.0
S719 S 0.07227 0.26223 0.50006 0.0
N720 N 0.04994 0.29088 0.50575 0.0
N721 N 0.09152 0.2687 0.45482 0.0
C722 C 0.0803 0.29535 0.44244 0.0
C723 C 0.05777 0.30739 0.47015 0.0
C724 C 0.44101 0.63474 0.31161 0.0
C725 C 0.42783 0.62938 0.35296 0.0
C726 C 0.42773 0.65371 0.28071 0.0
C727 C 0.40089 0.66796 0.29019 0.0
H728 H 0.46252 0.62561 0.30394 0.0
H729 H 0.4395 0.65868 0.25053 0.0
S730 S 0.35451 0.65665 0.38966 0.0
N731 N 0.38426 0.63639 0.39874 0.0
N732 N 0.35944 0.67202 0.34079 0.0
C733 C 0.38629 0.66076 0.3297 0.0
C734 C 0.39973 0.64148 0.36107 0.0
C735 C 0.0584 0.69212 0.01453 0.0
C736 C 0.04559 0.66421 0.02155 0.0
C737 C 0.07996 0.70316 0.04342 0.0
C738 C 0.08947 0.68666 0.0803 0.0
H739 H 0.0506 0.70626 0.98805 0.0
H740 H 0.08801 0.72542 0.03803 0.0
S741 S 0.06671 0.61007 0.10834 0.0
N742 N 0.04688 0.61866 0.06441 0.0
N743 N 0.08726 0.63939 0.11862 0.0
C744 C 0.07851 0.65778 0.08554 0.0
C745 C 0.05661 0.64657 0.05619 0.0
C746 C 0.06774 0.32642 0.79174 0.0
C747 C 0.0885 0.30579 0.80738 0.0
C748 C 0.05518 0.34743 0.8202 0.0
C749 C 0.06312 0.34867 0.8652 0.0
H750 H 0.05995 0.32533 0.75794 0.0
H751 H 0.0382 0.36191 0.80716 0.0
S752 S 0.12041 0.30261 0.92021 0.0
N753 N 0.11916 0.29011 0.86906 0.0
N754 N 0.09591 0.32963 0.92244 0.0
C755 C 0.08555 0.32954 0.88028 0.0
C756 C 0.09812 0.30808 0.8514 0.0
C757 C 0.42588 0.35387 0.59909 0.0
C758 C 0.42631 0.33949 0.55788 0.0
C759 C 0.40656 0.34501 0.63248 0.0
C760 C 0.3873 0.32107 0.6261 0.0
H761 H 0.44148 0.37139 0.60628 0.0
H762 H 0.40815 0.35576 0.66436 0.0
S763 S 0.37692 0.2787 0.52238 0.0
N764 N 0.40358 0.30238 0.51086 0.0
N765 N 0.36737 0.28531 0.57402 0.0
C766 C 0.38602 0.30786 0.58405 0.0
C767 C 0.40548 0.3172 0.54977 0.0
C768 C 0.25631 0.23082 0.24215 0.0
C769 C 0.27435 0.25252 0.26169 0.0
C770 C 0.22555 0.23346 0.24212 0.0
C771 C 0.21143 0.25787 0.26172 0.0
H772 H 0.26597 0.21165 0.22628 0.0
H773 H 0.2128 0.21613 0.22645 0.0
S774 S 0.24843 0.32054 0.31856 0.0
N775 N 0.27576 0.29908 0.30201 0.0
N776 N 0.21788 0.30403 0.30202 0.0
C777 C 0.22913 0.27967 0.28179 0.0
C778 C 0.26057 0.27699 0.28177 0.0
C779 C 0.97181 0.98565 0.52612 0.0
C780 C -0.00786 0.96771 0.50334 0.0
C781 C 0.97356 0.01653 0.52452 0.0
C782 C -0.00427 0.03085 0.50011 0.0
H783 H 0.95426 0.97582 0.54541 0.0
H784 H 0.95727 0.02922 0.5426 0.0
S785 S 0.05461 -0.00585 0.43456 0.0
N786 N 0.03533 0.96662 0.45561 0.0
N787 N 0.03864 0.02466 0.45261 0.0
C788 C 0.01633 0.01323 0.47725 0.0
C789 C 0.01453 0.9817 0.47885 0.0
C790 C 0.26207 0.75491 0.73141 0.0
C791 C 0.27696 0.73225 0.75423 0.0
C792 C 0.23133 0.75746 0.73307 0.0
C793 C 0.21415 0.73744 0.75758 0.0
H794 H 0.2742 0.77094 0.71204 0.0
H795 H 0.22102 0.77527 0.71471 0.0
S796 S 0.2423 0.67419 0.82379 0.0
N797 N 0.27215 0.68941 0.80249 0.0
N798 N 0.21433 0.69423 0.80559 0.0
C799 C 0.2287 0.71467 0.78071 0.0
C800 C 0.26008 0.71206 0.77903 0.0
C801 C 0.5071 0.00039 0.02084 0.0
C802 C 0.48589 0.01796 -0.00089 0.0
C803 C 0.50623 0.96951 0.01851 0.0
C804 C 0.48411 0.95487 0.99439 0.0
H805 H 0.52458 0.01051 0.04003 0.0
H806 H 0.52308 0.95708 0.03592 0.0
S807 S 0.42349 0.99057 0.9308 0.0
N808 N 0.44219 0.0184 0.9522 0.0
N809 N 0.44052 0.96034 0.94779 0.0
C810 C 0.46275 0.97213 0.97231 0.0
C811 C 0.46366 0.00365 0.97466 0.0
C812 C 0.22956 0.71285 0.21233 0.0
C813 C 0.21214 0.73315 0.23607 0.0
C814 C 0.26042 0.71414 0.21356 0.0
C815 C 0.27518 0.73582 0.23849 0.0
H816 H 0.21935 0.69576 0.19248 0.0
H817 H 0.27273 0.69797 0.19465 0.0
S818 S 0.2399 0.79415 0.30699 0.0
N819 N 0.21201 0.77558 0.28559 0.0
N820 N 0.26998 0.77803 0.28785 0.0
C821 C 0.25807 0.75627 0.26251 0.0
C822 C 0.22659 0.75491 0.26133 0.0
C823 C 0.48595 0.98013 0.50148 0.0
C824 C 0.5109 0.96477 0.48606 0.0
C825 C 0.48542 0.011 0.50323 0.0
C826 C 0.50987 0.02793 0.4898 0.0
H827 H 0.46644 0.96828 0.51209 0.0
H828 H 0.46556 0.02162 0.51534 0.0
S829 S 0.58094 -0.00148 0.44724 0.0
N830 N 0.56093 0.96881 0.45738 0.0
N831 N 0.55996 0.02698 0.46078 0.0
C832 C 0.53511 0.01291 0.47453 0.0
C833 C 0.53563 0.98133 0.47263 0.0
C834 C 0.22061 0.21377 0.76894 0.0
C835 C 0.20364 0.23249 0.74169 0.0
C836 C 0.25149 0.21496 0.76884 0.0
C837 C 0.26666 0.23501 0.74166 0.0
H838 H 0.21002 0.19809 0.79082 0.0
H839 H 0.26349 0.20019 0.79061 0.0
S840 S 0.23272 0.2882 0.66283 0.0
N841 N 0.20443 0.27123 0.68585 0.0
N842 N 0.26241 0.27352 0.6857 0.0
C843 C 0.25001 0.25369 0.71386 0.0
C844 C 0.21854 0.25239 0.71384 0.0
C845 C 0.96422 -0.00249 0.9588 0.0
C846 C 0.98404 0.01337 0.98564 0.0
C847 C 0.96594 0.96671 0.95513 0.0
C848 C 0.98745 0.95045 0.97831 0.0
H849 H 0.94717 0.00893 0.94032 0.0
H850 H 0.94997 0.95559 0.93431 0.0
S851 S 0.04494 0.9814 0.05274 0.0
N852 N 0.02614 0.0105 0.03553 0.0
N853 N 0.02938 0.95261 0.02869 0.0
C854 C 0.00762 0.96603 0.00502 0.0
C855 C 0.00591 -0.00254 0.00868 0.0
C856 C 0.74094 0.70627 0.71481 0.0
C857 C 0.75767 0.72751 0.73782 0.0
C858 C 0.71001 0.70667 0.71582 0.0
C859 C 0.69455 0.72847 0.73958 0.0
H860 H 0.75177 0.68919 0.69566 0.0
H861 H 0.69817 0.68992 0.69738 0.0
S862 S 0.72785 0.78867 0.80662 0.0
N863 N 0.75634 0.77062 0.786 0.0
N864 N 0.69835 0.77143 0.78773 0.0
C865 C 0.71099 0.7497 0.7631 0.0
C866 C 0.74248 0.74919 0.7623 0.0
C867 C 0.71886 0.2205 0.26449 0.0
C868 C 0.70371 0.24343 0.24263 0.0
C869 C 0.7497 0.21879 0.26377 0.0
C870 C 0.76674 0.2399 0.24112 0.0
H871 H 0.70686 0.20363 0.28238 0.0
H872 H 0.76021 0.20069 0.28125 0.0
S873 S 0.73789 0.30436 0.17821 0.0
N874 N 0.70814 0.28777 0.19743 0.0
N875 N 0.76609 0.28452 0.19606 0.0
C876 C 0.75191 0.26298 0.21904 0.0
C877 C 0.72044 0.26476 0.21982 0.0
C878 C 0.72635 0.26519 0.78687 0.0
C879 C 0.71141 0.24016 0.77072 0.0
C880 C 0.75708 0.26751 0.78403 0.0
C881 C 0.77419 0.24492 0.76486 0.0
H882 H 0.71424 0.28341 0.80144 0.0
H883 H 0.76743 0.28738 0.79667 0.0
S884 S 0.74601 0.17406 0.71924 0.0
N885 N 0.7162 0.19177 0.73605 0.0
N886 N 0.77396 0.19616 0.73069 0.0
C887 C 0.75961 0.2195 0.74919 0.0
C888 C 0.72826 0.21711 0.75215 0.0
C889 C 0.76726 0.75379 0.25119 0.0
C890 C 0.78708 0.73821 0.27849 0.0
C891 C 0.73714 0.74737 0.25108 0.0
C892 C 0.72547 0.72509 0.27826 0.0
H893 H 0.77501 0.77109 0.22934 0.0
H894 H 0.72294 0.76006 0.22933 0.0
S895 S 0.76776 0.67801 0.35665 0.0
N896 N 0.79284 0.69965 0.33397 0.0
N897 N 0.73603 0.68754 0.33382 0.0
C898 C 0.74494 0.70936 0.306 0.0
C899 C 0.77576 0.71595 0.30613 0.0
C900 C 0.4604 0.4756 0.01255 0.0
C901 C 0.48513 0.46025 0.99615 0.0
C902 C 0.46084 0.5063 0.01809 0.0
C903 C 0.48601 0.52302 0.00748 0.0
H904 H 0.44051 0.46383 0.02168 0.0
H905 H 0.44123 0.51693 0.03103 0.0
S906 S 0.55637 0.49373 0.96198 0.0
N907 N 0.53537 0.46424 0.96836 0.0
N908 N 0.53621 0.52199 0.97876 0.0
C909 C 0.51084 0.50805 0.99056 0.0
C910 C 0.51038 0.4767 0.98487 0.0
C911 C 0.0054 0.47523 0.51512 0.0
C912 C 0.98247 0.46216 0.49061 0.0
C913 C 0.01134 0.50551 0.51201 0.0
C914 C -0.00537 0.52406 0.48421 0.0
H915 H 0.01909 0.462 0.53686 0.0
H916 H 0.02928 0.51436 0.53165 0.0
S917 S 0.93185 0.50096 0.41313 0.0
N918 N 0.94272 0.47021 0.43768 0.0
N919 N 0.95391 0.52715 0.43181 0.0
C920 C 0.9715 0.51136 0.4596 0.0
C921 C 0.96539 0.48044 0.46283 0.0
C922 C 0.96962 0.48685 0.00141 0.0
C923 C -0.0053 0.47217 0.98491 0.0
C924 C 0.96637 0.51752 -0.00269 0.0
C925 C 0.98805 0.53487 0.97652 0.0
H926 H 0.9523 0.47463 0.0179 0.0
H927 H 0.94674 0.52767 0.01102 0.0
S928 S 0.0576 0.50718 0.92628 0.0
N929 N 0.0414 0.4773 0.94597 0.0
N930 N 0.03529 0.53493 0.93826 0.0
C931 C 0.01314 0.52047 0.95937 0.0
C932 C 0.01647 0.48916 0.9636 0.0
C933 C 0.4728 0.46701 0.47437 0.0
C934 C 0.49473 0.45253 0.49923 0.0
C935 C 0.469 0.49766 0.4769 0.0
C936 C 0.4869 0.51511 0.50452 0.0
H937 H 0.45833 0.45462 0.45272 0.0
H938 H 0.45181 0.50768 0.45694 0.0
S939 S 0.5476 0.48804 0.5767 0.0
N940 N 0.5347 0.458 0.55252 0.0
N941 N 0.5275 0.51563 0.55733 0.0
C942 C 0.50895 0.50095 0.52965 0.0
C943 C 0.51291 0.46969 0.52694 0.0
C944 C 0.02668 0.30524 0.11582 0.0
C945 C 0.03997 0.3294 0.09438 0.0
C946 C 0.03818 0.29407 0.15553 0.0
C947 C 0.06385 0.30612 0.17451 0.0
H948 H 0.00716 0.29499 0.10193 0.0
H949 H 0.02721 0.27548 0.17098 0.0
S950 S 0.10692 0.36962 0.13146 0.0
N951 N 0.07988 0.36532 0.09543 0.0
N952 N 0.10193 0.34382 0.16929 0.0
C953 C 0.07733 0.33028 0.1534 0.0
C954 C 0.06526 0.34207 0.11356 0.0
C955 C 0.91398 0.81771 0.36674 0.0
C956 C 0.93159 0.80666 0.33225 0.0
C957 C 0.92654 0.83196 0.40318 0.0
C958 C 0.95729 0.83564 0.40692 0.0
H959 H 0.89017 0.8156 0.36558 0.0
H960 H 0.91187 0.84001 0.42873 0.0
S961 S 0.0134 0.81031 0.32586 0.0
N962 N 0.98152 0.80009 0.30428 0.0
N963 N 0.00519 0.82684 0.37287 0.0
C964 C 0.97526 0.82457 0.37277 0.0
C965 C 0.96241 0.81011 0.33545 0.0
C966 C 0.4487 0.69514 0.64814 0.0
C967 C 0.423 0.6839 0.668 0.0
C968 C 0.45944 0.68327 0.60852 0.0
C969 C 0.44522 0.65933 0.58784 0.0
H970 H 0.46035 0.71359 0.66288 0.0
H971 H 0.47916 0.6928 0.59419 0.0
S972 S 0.37762 0.62126 0.62719 0.0
N973 N 0.38384 0.64719 0.66439 0.0
N974 N 0.40428 0.62458 0.59045 0.0
C975 C 0.41977 0.64757 0.60775 0.0
C976 C 0.40858 0.65995 0.64767 0.0
C977 C 0.57434 0.19492 0.8889 0.0
C978 C 0.5628 0.18559 0.84805 0.0
C979 C 0.5632 0.18399 0.9288 0.0
C980 C 0.5403 0.16302 0.92949 0.0
H981 H 0.59239 0.2106 0.8902 0.0
H982 H 0.57321 0.19152 0.9593 0.0
S983 S 0.50098 0.13271 0.83188 0.0
N984 N 0.526 0.15518 0.81092 0.0
N985 N 0.50531 0.13448 0.88593 0.0
C986 C 0.52799 0.15404 0.88899 0.0
C987 C 0.53915 0.16538 0.8483 0.0
C988 C 0.02487 0.65313 0.34093 0.0
C989 C 0.04164 0.64876 0.37949 0.0
C990 C 0.03761 0.66493 0.30267 0.0
C991 C 0.06755 0.67322 0.3016 0.0
H992 H 0.00172 0.64714 0.34004 0.0
H993 H 0.02378 0.6677 0.27378 0.0
S994 S 0.12102 0.66697 0.39426 0.0
N995 N 0.08979 0.65402 0.41448 0.0
N996 N 0.11363 0.67642 0.34278 0.0
C997 C 0.08455 0.66922 0.34009 0.0
C998 C 0.07164 0.65692 0.37894 0.0
C999 C 0.545 0.82303 0.65058 0.0
C1000 C 0.55396 0.79347 0.65627 0.0
C1001 C 0.53632 0.83372 0.60915 0.0
C1002 C 0.53596 0.81522 0.57174 0.0
H1003 H 0.54567 0.83839 0.67801 0.0
H1004 H 0.53059 0.85692 0.60633 0.0
S1005 S 0.55295 0.73478 0.57075 0.0
N1006 N 0.55903 0.74505 0.62226 0.0
N1007 N 0.54235 0.76494 0.54437 0.0
C1008 C 0.54322 0.78513 0.57757 0.0
C1009 C 0.55234 0.77433 0.6198 0.0
C1010 C 0.40305 0.26461 0.88343 0.0
C1011 C 0.39821 0.2793 0.84312 0.0
C1012 C 0.41631 0.27903 0.91926 0.0
C1013 C 0.42546 0.30872 0.91625 0.0
H1014 H 0.39628 0.24181 0.88766 0.0
H1015 H 0.41924 0.26672 0.94964 0.0
S1016 S 0.41902 0.35689 0.81727 0.0
N1017 N 0.40445 0.3251 0.80182 0.0
N1018 N 0.4294 0.35213 0.86904 0.0
C1019 C 0.42119 0.32359 0.87587 0.0
C1020 C 0.40755 0.30892 0.83939 0.0
C1021 C 0.89636 0.18749 0.12327 0.0
C1022 C 0.90824 0.17669 0.16312 0.0
C1023 C 0.90635 0.17709 0.08238 0.0
C1024 C 0.9284 0.15523 0.0796 0.0
H1025 H 0.8791 0.2041 0.12352 0.0
H1026 H 0.89627 0.18597 0.05274 0.0
S1027 S 0.96767 0.12036 0.17393 0.0
N1028 N 0.94405 0.14344 0.19709 0.0
N1029 N 0.96259 0.12377 0.12019 0.0
C1030 C 0.94079 0.14446 0.1191 0.0
C1031 C 0.93079 0.15524 0.16082 0.0
C1032 C 0.91629 0.66543 0.86474 0.0
C1033 C 0.92833 0.68386 0.89761 0.0
C1034 C 0.90338 0.67727 0.82661 0.0
C1035 C 0.90269 0.70795 0.81928 0.0
H1036 H 0.91645 0.64162 0.86867 0.0
H1037 H 0.89427 0.66223 0.80231 0.0
S1038 S 0.93055 0.76602 0.89482 0.0
N1039 N 0.9377 0.73463 0.9207 0.0
N1040 N 0.91474 0.75666 0.84768 0.0
C1041 C 0.91479 0.7267 0.85144 0.0
C1042 C 0.92721 0.71472 0.891 0.0
C1043 C 0.06658 0.17517 0.64638 0.0
C1044 C 0.05948 0.20406 0.65993 0.0
C1045 C 0.05532 0.16346 0.60706 0.0
C1046 C 0.03701 0.18039 0.57923 0.0
H1047 H 0.0807 0.16131 0.6666 0.0
H1048 H 0.06144 0.14108 0.5981 0.0
S1049 S 0.01234 0.25756 0.59935 0.0
N1050 N 0.03306 0.24943 0.6426 0.0
N1051 N 0.01236 0.22769 0.56795 0.0
C1052 C 0.02988 0.20944 0.59221 0.0
C1053 C 0.04096 0.22118 0.63278 0.0
C1054 C 0.55711 0.31631 0.3923 0.0
C1055 C 0.52874 0.30787 0.4062 0.0
C1056 C 0.56924 0.30538 0.35311 0.0
C1057 C 0.55326 0.286 0.32576 0.0
H1058 H 0.5703 0.33124 0.41216 0.0
H1059 H 0.59122 0.3125 0.34397 0.0
S1060 S 0.47771 0.25762 0.34669 0.0
N1061 N 0.48483 0.27905 0.38955 0.0
N1062 N 0.50737 0.25895 0.31515 0.0
C1063 C 0.5247 0.27756 0.33901 0.0
C1064 C 0.51253 0.28833 0.37944 0.0
C1065 C 0.45591 0.7796 0.09172 0.0
C1066 C 0.44266 0.80497 0.07334 0.0
C1067 C 0.44539 0.76723 0.13119 0.0
C1068 C 0.4208 0.77935 0.15302 0.0
H1069 H 0.47482 0.76947 0.07587 0.0
H1070 H 0.45641 0.74786 0.14441 0.0
S1071 S 0.37775 0.84525 0.1179 0.0
N1072 N 0.4035 0.84159 0.07979 0.0
N1073 N 0.38338 0.81801 0.15324 0.0
C1074 C 0.4071 0.80445 0.13462 0.0
C1075 C 0.41814 0.81735 0.09499 0.0
C1076 C 0.937 0.28693 0.58722 0.0
C1077 C 0.92894 0.31589 0.57499 0.0
C1078 C 0.92827 0.27494 0.62785 0.0
C1079 C 0.9103 0.29111 0.65695 0.0
H1080 H 0.95062 0.2736 0.5656 0.0
H1081 H 0.93539 0.25275 0.63633 0.0
S1082 S 0.88187 0.36726 0.63969 0.0
N1083 N 0.90145 0.36018 0.59498 0.0
N1084 N 0.88417 0.33722 0.67055 0.0
C1085 C 0.90139 0.31975 0.64465 0.0
C1086 C 0.91091 0.33225 0.60386 0.0
C1087 C 0.44366 0.16967 0.32998 0.0
C1088 C 0.42383 0.19363 0.32985 0.0
C1089 C 0.45723 0.16018 0.3691 0.0
C1090 C 0.45175 0.17449 0.40956 0.0
H1091 H 0.44801 0.15749 0.29989 0.0
H1092 H 0.47162 0.14103 0.36767 0.0
S1093 S 0.4045 0.24089 0.42556 0.0
N1094 N 0.40127 0.23308 0.37258 0.0
N1095 N 0.42704 0.21566 0.4461 0.0
C1096 C 0.4331 0.19948 0.40939 0.0
C1097 C 0.41901 0.20888 0.36959 0.0
C1098 C 0.58867 0.65679 0.11861 0.0
C1099 C 0.55854 0.64989 0.11389 0.0
C1100 C 0.60006 0.6673 0.15862 0.0
C1101 C 0.58183 0.67139 0.1957 0.0
H1102 H 0.60377 0.65387 0.09126 0.0
H1103 H 0.62347 0.67201 0.16046 0.0
S1104 S 0.50101 0.65768 0.20047 0.0
N1105 N 0.51042 0.64869 0.1496 0.0
N1106 N 0.53181 0.66842 0.22477 0.0
C1107 C 0.55152 0.665 0.19135 0.0
C1108 C 0.5399 0.65427 0.15052 0.0
C1109 C 0.07412 0.79877 0.85768 0.0
C1110 C 0.0661 0.77114 0.84025 0.0
C1111 C 0.05863 0.8112 0.89303 0.0
C1112 C 0.0349 0.79619 0.91289 0.0
H1113 H 0.09184 0.81143 0.8429 0.0
H1114 H 0.06524 0.83286 0.90464 0.0
S1115 S 0.00726 0.72173 0.88183 0.0
N1116 N 0.03412 0.72834 0.84642 0.0
N1117 N 0.00554 0.75109 0.91421 0.0
C1118 C 0.02752 0.76788 0.89693 0.0
C1119 C 0.04294 0.75553 0.8602 0.0
loop_
_geom_bond_atom_site_label_1
_geom_bond_atom_site_label_2
_geom_bond_distance
_geom_bond_site_symmetry_2
_ccdc_geom_bond_type
C0 O1 1.160 . S
C0 O7 1.185 . S
O1 C0 1.160 . S
O2 Zn3 1.899 . S
O2 C10 1.284 . S
Zn3 O2 1.899 . S
Zn3 O4 2.032 . S
Zn3 O7 2.086 . S
Zn3 O12 1.977 . S
O4 Zn3 2.032 . S
O4 C8 1.278 . S
C5 O6 1.203 . S
C5 O12 1.267 . S
O6 C5 1.203 . S
O7 C0 1.185 . S
O7 Zn3 2.086 . S
C8 O4 1.278 . S
C8 O9 1.211 . S
O9 C8 1.211 . S
C10 O2 1.284 . S
C10 O11 1.273 . S
O11 C10 1.273 . S
O12 Zn3 1.977 . S
O12 C5 1.267 . S
C13 O14 1.160 1_655 S
C13 O20 1.185 . S
O14 C13 1.160 1_455 S
O15 Zn16 1.899 1_455 S
O15 C23 1.284 . S
Zn16 O15 1.899 1_655 S
Zn16 O17 2.032 . S
Zn16 O20 2.086 . S
Zn16 O25 1.977 . S
O17 Zn16 2.032 . S
O17 C21 1.278 . S
C18 O19 1.203 . S
C18 O25 1.267 . S
O19 C18 1.203 . S
O20 C13 1.185 . S
O20 Zn16 2.086 . S
C21 O17 1.278 . S
C21 O22 1.211 . S
O22 C21 1.211 . S
C23 O15 1.284 . S
C23 O24 1.273 . S
O24 C23 1.273 . S
O25 Zn16 1.977 . S
O25 C18 1.267 . S
C26 O27 1.160 . S
C26 O33 1.185 . S
O27 C26 1.160 . S
O28 Zn29 1.899 . S
O28 C36 1.284 . S
Zn29 O28 1.899 . S
Zn29 O30 2.032 . S
Zn29 O33 2.086 . S
Zn29 O38 1.977 . S
O30 Zn29 2.032 . S
O30 C34 1.278 . S
C31 O32 1.203 . S
C31 O38 1.267 . S
O32 C31 1.203 . S
O33 C26 1.185 . S
O33 Zn29 2.086 . S
C34 O30 1.278 . S
C34 O35 1.211 . S
O35 C34 1.211 . S
C36 O28 1.284 . S
C36 O37 1.273 . S
O37 C36 1.273 . S
O38 Zn29 1.977 . S
O38 C31 1.267 . S
C39 O40 1.160 . S
C39 O46 1.185 . S
O40 C39 1.160 . S
O41 Zn42 1.899 . S
O41 C49 1.284 . S
Zn42 O41 1.899 . S
Zn42 O43 2.032 1_554 S
Zn42 O46 2.086 . S
Zn42 O51 1.977 . S
O43 Zn42 2.032 1_556 S
O43 C47 1.278 . S
C44 O45 1.203 . S
C44 O51 1.267 . S
O45 C44 1.203 . S
O46 C39 1.185 . S
O46 Zn42 2.086 . S
C47 O43 1.278 . S
C47 O48 1.211 . S
O48 C47 1.211 . S
C49 O41 1.284 . S
C49 O50 1.273 . S
O50 C49 1.273 . S
O51 Zn42 1.977 . S
O51 C44 1.267 . S
C52 O53 1.160 . S
C52 O59 1.185 . S
O53 C52 1.160 . S
O54 Zn55 1.899 . S
O54 C62 1.284 . S
Zn55 O54 1.899 . S
Zn55 O56 2.032 . S
Zn55 O59 2.086 . S
Zn55 O64 1.977 . S
O56 Zn55 2.032 . S
O56 C60 1.278 . S
C57 O58 1.203 . S
C57 O64 1.267 . S
O58 C57 1.203 . S
O59 C52 1.185 . S
O59 Zn55 2.086 . S
C60 O56 1.278 . S
C60 O61 1.211 . S
O61 C60 1.211 . S
C62 O54 1.284 . S
C62 O63 1.273 . S
O63 C62 1.273 . S
O64 Zn55 1.977 . S
O64 C57 1.267 . S
C65 O66 1.160 . S
C65 O72 1.185 . S
O66 C65 1.160 . S
O67 Zn68 1.899 . S
O67 C75 1.284 . S
Zn68 O67 1.899 . S
Zn68 O69 2.032 . S
Zn68 O72 2.086 . S
Zn68 O77 1.977 . S
O69 Zn68 2.032 . S
O69 C73 1.278 . S
C70 O71 1.203 . S
C70 O77 1.267 . S
O71 C70 1.203 . S
O72 C65 1.185 . S
O72 Zn68 2.086 . S
C73 O69 1.278 . S
C73 O74 1.211 . S
O74 C73 1.211 . S
C75 O67 1.284 . S
C75 O76 1.273 . S
O76 C75 1.273 . S
O77 Zn68 1.977 . S
O77 C70 1.267 . S
C78 O79 1.160 . S
C78 O85 1.185 . S
O79 C78 1.160 . S
O80 Zn81 1.899 . S
O80 C88 1.284 . S
Zn81 O80 1.899 . S
Zn81 O82 2.032 . S
Zn81 O85 2.086 . S
Zn81 O90 1.977 . S
O82 Zn81 2.032 . S
O82 C86 1.278 . S
C83 O84 1.203 . S
C83 O90 1.267 . S
O84 C83 1.203 . S
O85 C78 1.185 . S
O85 Zn81 2.086 . S
C86 O82 1.278 . S
C86 O87 1.211 . S
O87 C86 1.211 . S
C88 O80 1.284 . S
C88 O89 1.273 . S
O89 C88 1.273 . S
O90 Zn81 1.977 . S
O90 C83 1.267 . S
C91 O92 1.160 1_655 S
C91 O98 1.185 . S
O92 C91 1.160 1_455 S
O93 Zn94 1.899 1_455 S
O93 C101 1.284 . S
Zn94 O93 1.899 1_655 S
Zn94 O95 2.032 1_556 S
Zn94 O98 2.086 . S
Zn94 O103 1.977 . S
O95 Zn94 2.032 1_554 S
O95 C99 1.278 . S
C96 O97 1.203 . S
C96 O103 1.267 . S
O97 C96 1.203 . S
O98 C91 1.185 . S
O98 Zn94 2.086 . S
C99 O95 1.278 . S
C99 O100 1.211 . S
O100 C99 1.211 . S
C101 O93 1.284 . S
C101 O102 1.273 . S
O102 C101 1.273 . S
O103 Zn94 1.977 . S
O103 C96 1.267 . S
C104 O105 1.160 . S
C104 O111 1.185 . S
O105 C104 1.160 . S
O106 Zn107 1.899 . S
O106 C114 1.284 . S
Zn107 O106 1.899 . S
Zn107 O108 2.032 . S
Zn107 O111 2.086 . S
Zn107 O116 1.977 . S
O108 Zn107 2.032 . S
O108 C112 1.278 . S
C109 O110 1.203 . S
C109 O116 1.267 . S
O110 C109 1.203 . S
O111 C104 1.185 . S
O111 Zn107 2.086 . S
C112 O108 1.278 . S
C112 O113 1.211 . S
O113 C112 1.211 . S
C114 O106 1.284 . S
C114 O115 1.273 . S
O115 C114 1.273 . S
O116 Zn107 1.977 . S
O116 C109 1.267 . S
C117 O118 1.160 1_455 S
C117 O124 1.185 . S
O118 C117 1.160 1_655 S
O119 Zn120 1.899 1_655 S
O119 C127 1.284 . S
Zn120 O119 1.899 1_455 S
Zn120 O121 2.032 . S
Zn120 O124 2.086 . S
Zn120 O129 1.977 . S
O121 Zn120 2.032 . S
O121 C125 1.278 . S
C122 O123 1.203 . S
C122 O129 1.267 . S
O123 C122 1.203 . S
O124 C117 1.185 . S
O124 Zn120 2.086 . S
C125 O121 1.278 . S
C125 O126 1.211 . S
O126 C125 1.211 . S
C127 O119 1.284 . S
C127 O128 1.273 . S
O128 C127 1.273 . S
O129 Zn120 1.977 . S
O129 C122 1.267 . S
C130 O131 1.160 . S
C130 O137 1.185 . S
O131 C130 1.160 . S
O132 Zn133 1.899 . S
O132 C140 1.284 . S
Zn133 O132 1.899 . S
Zn133 O134 2.032 . S
Zn133 O137 2.086 . S
Zn133 O142 1.977 . S
O134 Zn133 2.032 . S
O134 C138 1.278 . S
C135 O136 1.203 . S
C135 O142 1.267 . S
O136 C135 1.203 . S
O137 C130 1.185 . S
O137 Zn133 2.086 . S
C138 O134 1.278 . S
C138 O139 1.211 . S
O139 C138 1.211 . S
C140 O132 1.284 . S
C140 O141 1.273 . S
O141 C140 1.273 . S
O142 Zn133 1.977 . S
O142 C135 1.267 . S
C143 O144 1.160 . S
C143 O150 1.185 . S
O144 C143 1.160 . S
O145 Zn146 1.899 . S
O145 C153 1.284 . S
Zn146 O145 1.899 . S
Zn146 O147 2.032 1_556 S
Zn146 O150 2.086 . S
Zn146 O155 1.977 . S
O147 Zn146 2.032 1_554 S
O147 C151 1.278 . S
C148 O149 1.203 . S
C148 O155 1.267 . S
O149 C148 1.203 . S
O150 C143 1.185 . S
O150 Zn146 2.086 . S
C151 O147 1.278 . S
C151 O152 1.211 . S
O152 C151 1.211 . S
C153 O145 1.284 . S
C153 O154 1.273 . S
O154 C153 1.273 . S
O155 Zn146 1.977 . S
O155 C148 1.267 . S
C156 O157 1.160 . S
C156 O163 1.185 . S
O157 C156 1.160 . S
O158 Zn159 1.899 . S
O158 C166 1.284 . S
Zn159 O158 1.899 . S
Zn159 O160 2.032 . S
Zn159 O163 2.086 . S
Zn159 O168 1.977 . S
O160 Zn159 2.032 . S
O160 C164 1.278 . S
C161 O162 1.203 . S
C161 O168 1.267 . S
O162 C161 1.203 . S
O163 C156 1.185 . S
O163 Zn159 2.086 . S
C164 O160 1.278 . S
C164 O165 1.211 . S
O165 C164 1.211 . S
C166 O158 1.284 . S
C166 O167 1.273 . S
O167 C166 1.273 . S
O168 Zn159 1.977 . S
O168 C161 1.267 . S
C169 O170 1.160 . S
C169 O176 1.185 . S
O170 C169 1.160 . S
O171 Zn172 1.899 . S
O171 C179 1.284 . S
Zn172 O171 1.899 . S
Zn172 O173 2.032 . S
Zn172 O176 2.086 . S
Zn172 O181 1.977 . S
O173 Zn172 2.032 . S
O173 C177 1.278 . S
C174 O175 1.203 . S
C174 O181 1.267 . S
O175 C174 1.203 . S
O176 C169 1.185 . S
O176 Zn172 2.086 . S
C177 O173 1.278 . S
C177 O178 1.211 . S
O178 C177 1.211 . S
C179 O171 1.284 . S
C179 O180 1.273 . S
O180 C179 1.273 . S
O181 Zn172 1.977 . S
O181 C174 1.267 . S
C182 O183 1.160 . S
C182 O189 1.185 . S
O183 C182 1.160 . S
O184 Zn185 1.899 . S
O184 C192 1.284 . S
Zn185 O184 1.899 . S
Zn185 O186 2.032 . S
Zn185 O189 2.086 . S
Zn185 O194 1.977 . S
O186 Zn185 2.032 . S
O186 C190 1.278 . S
C187 O188 1.203 . S
C187 O194 1.267 . S
O188 C187 1.203 . S
O189 C182 1.185 . S
O189 Zn185 2.086 . S
C190 O186 1.278 . S
C190 O191 1.211 . S
O191 C190 1.211 . S
C192 O184 1.284 . S
C192 O193 1.273 . S
O193 C192 1.273 . S
O194 Zn185 1.977 . S
O194 C187 1.267 . S
C195 O196 1.160 1_455 S
C195 O202 1.185 . S
O196 C195 1.160 1_655 S
O197 Zn198 1.899 1_655 S
O197 C205 1.284 . S
Zn198 O197 1.899 1_455 S
Zn198 O199 2.032 1_554 S
Zn198 O202 2.086 . S
Zn198 O207 1.977 . S
O199 Zn198 2.032 1_556 S
O199 C203 1.278 . S
C200 O201 1.203 . S
C200 O207 1.267 . S
O201 C200 1.203 . S
O202 C195 1.185 . S
O202 Zn198 2.086 . S
C203 O199 1.278 . S
C203 O204 1.211 . S
O204 C203 1.211 . S
C205 O197 1.284 . S
C205 O206 1.273 . S
O206 C205 1.273 . S
O207 Zn198 1.977 . S
O207 C200 1.267 . S
C208 O209 1.160 . S
C208 O215 1.185 . S
O209 C208 1.160 . S
O210 Zn211 1.899 . S
O210 C218 1.284 . S
Zn211 O210 1.899 . S
Zn211 O212 2.032 . S
Zn211 O215 2.086 . S
Zn211 O220 1.977 . S
O212 Zn211 2.032 . S
O212 C216 1.278 . S
C213 O214 1.203 . S
C213 O220 1.267 . S
O214 C213 1.203 . S
O215 C208 1.185 . S
O215 Zn211 2.086 . S
C216 O212 1.278 . S
C216 O217 1.211 . S
O217 C216 1.211 . S
C218 O210 1.284 . S
C218 O219 1.273 . S
O219 C218 1.273 . S
O220 Zn211 1.977 . S
O220 C213 1.267 . S
C221 O222 1.160 . S
C221 O228 1.185 . S
O222 C221 1.160 . S
O223 Zn224 1.899 . S
O223 C231 1.284 . S
Zn224 O223 1.899 . S
Zn224 O225 2.032 1_554 S
Zn224 O228 2.086 . S
Zn224 O233 1.977 . S
O225 Zn224 2.032 1_556 S
O225 C229 1.278 . S
C226 O227 1.203 . S
C226 O233 1.267 . S
O227 C226 1.203 . S
O228 C221 1.185 . S
O228 Zn224 2.086 . S
C229 O225 1.278 . S
C229 O230 1.211 . S
O230 C229 1.211 . S
C231 O223 1.284 . S
C231 O232 1.273 . S
O232 C231 1.273 . S
O233 Zn224 1.977 . S
O233 C226 1.267 . S
C234 O235 1.160 . S
C234 O241 1.185 . S
O235 C234 1.160 . S
O236 Zn237 1.899 . S
O236 C244 1.284 . S
Zn237 O236 1.899 . S
Zn237 O238 2.032 . S
Zn237 O241 2.086 . S
Zn237 O246 1.977 . S
O238 Zn237 2.032 . S
O238 C242 1.278 . S
C239 O240 1.203 . S
C239 O246 1.267 . S
O240 C239 1.203 . S
O241 C234 1.185 . S
O241 Zn237 2.086 . S
C242 O238 1.278 . S
C242 O243 1.211 . S
O243 C242 1.211 . S
C244 O236 1.284 . S
C244 O245 1.273 . S
O245 C244 1.273 . S
O246 Zn237 1.977 . S
O246 C239 1.267 . S
C247 O248 1.160 1_455 S
C247 O254 1.185 . S
O248 C247 1.160 1_655 S
O249 Zn250 1.899 1_655 S
O249 C257 1.284 . S
Zn250 O249 1.899 1_455 S
Zn250 O251 2.032 . S
Zn250 O254 2.086 . S
Zn250 O259 1.977 . S
O251 Zn250 2.032 . S
O251 C255 1.278 . S
C252 O253 1.203 . S
C252 O259 1.267 . S
O253 C252 1.203 . S
O254 C247 1.185 . S
O254 Zn250 2.086 . S
C255 O251 1.278 . S
C255 O256 1.211 . S
O256 C255 1.211 . S
C257 O249 1.284 . S
C257 O258 1.273 . S
O258 C257 1.273 . S
O259 Zn250 1.977 . S
O259 C252 1.267 . S
C260 O261 1.160 . S
C260 O267 1.185 . S
O261 C260 1.160 . S
O262 Zn263 1.899 . S
O262 C270 1.284 . S
Zn263 O262 1.899 . S
Zn263 O264 2.032 . S
Zn263 O267 2.086 . S
Zn263 O272 1.977 . S
O264 Zn263 2.032 . S
O264 C268 1.278 . S
C265 O266 1.203 . S
C265 O272 1.267 . S
O266 C265 1.203 . S
O267 C260 1.185 . S
O267 Zn263 2.086 . S
C268 O264 1.278 . S
C268 O269 1.211 . S
O269 C268 1.211 . S
C270 O262 1.284 . S
C270 O271 1.273 . S
O271 C270 1.273 . S
O272 Zn263 1.977 . S
O272 C265 1.267 . S
C273 O274 1.160 1_455 S
C273 O280 1.185 . S
O274 C273 1.160 1_655 S
O275 Zn276 1.899 1_655 S
O275 C283 1.284 . S
Zn276 O275 1.899 1_455 S
Zn276 O277 2.032 1_556 S
Zn276 O280 2.086 . S
Zn276 O285 1.977 . S
O277 Zn276 2.032 1_554 S
O277 C281 1.278 . S
C278 O279 1.203 . S
C278 O285 1.267 . S
O279 C278 1.203 . S
O280 C273 1.185 . S
O280 Zn276 2.086 . S
C281 O277 1.278 . S
C281 O282 1.211 . S
O282 C281 1.211 . S
C283 O275 1.284 . S
C283 O284 1.273 . S
O284 C283 1.273 . S
O285 Zn276 1.977 . S
O285 C278 1.267 . S
C286 O287 1.160 . S
C286 O293 1.185 . S
O287 C286 1.160 . S
O288 Zn289 1.899 . S
O288 C296 1.284 . S
Zn289 O288 1.899 . S
Zn289 O290 2.032 . S
Zn289 O293 2.086 . S
Zn289 O298 1.977 . S
O290 Zn289 2.032 . S
O290 C294 1.278 . S
C291 O292 1.203 . S
C291 O298 1.267 . S
O292 C291 1.203 . S
O293 C286 1.185 . S
O293 Zn289 2.086 . S
C294 O290 1.278 . S
C294 O295 1.211 . S
O295 C294 1.211 . S
C296 O288 1.284 . S
C296 O297 1.273 . S
O297 C296 1.273 . S
O298 Zn289 1.977 . S
O298 C291 1.267 . S
C299 O300 1.160 . S
C299 O306 1.185 . S
O300 C299 1.160 . S
O301 Zn302 1.899 . S
O301 C309 1.284 . S
Zn302 O301 1.899 . S
Zn302 O303 2.032 . S
Zn302 O306 2.086 . S
Zn302 O311 1.977 . S
O303 Zn302 2.032 . S
O303 C307 1.278 . S
C304 O305 1.203 . S
C304 O311 1.267 . S
O305 C304 1.203 . S
O306 C299 1.185 . S
O306 Zn302 2.086 . S
C307 O303 1.278 . S
C307 O308 1.211 . S
O308 C307 1.211 . S
C309 O301 1.284 . S
C309 O310 1.273 . S
O310 C309 1.273 . S
O311 Zn302 1.977 . S
O311 C304 1.267 . S
C312 O313 1.160 . S
C312 O319 1.185 . S
O313 C312 1.160 . S
O314 Zn315 1.899 . S
O314 C322 1.284 . S
Zn315 O314 1.899 . S
Zn315 O316 2.032 . S
Zn315 O319 2.086 . S
Zn315 O324 1.977 . S
O316 Zn315 2.032 . S
O316 C320 1.278 . S
C317 O318 1.203 . S
C317 O324 1.267 . S
O318 C317 1.203 . S
O319 C312 1.185 . S
O319 Zn315 2.086 . S
C320 O316 1.278 . S
C320 O321 1.211 . S
O321 C320 1.211 . S
C322 O314 1.284 . S
C322 O323 1.273 . S
O323 C322 1.273 . S
O324 Zn315 1.977 . S
O324 C317 1.267 . S
C325 O326 1.160 . S
C325 O332 1.185 . S
O326 C325 1.160 . S
O327 Zn328 1.899 . S
O327 C335 1.284 . S
Zn328 O327 1.899 . S
Zn328 O329 2.032 1_556 S
Zn328 O332 2.086 . S
Zn328 O337 1.977 . S
O329 Zn328 2.032 1_554 S
O329 C333 1.278 . S
C330 O331 1.203 . S
C330 O337 1.267 . S
O331 C330 1.203 . S
O332 C325 1.185 . S
O332 Zn328 2.086 . S
C333 O329 1.278 . S
C333 O334 1.211 . S
O334 C333 1.211 . S
C335 O327 1.284 . S
C335 O336 1.273 . S
O336 C335 1.273 . S
O337 Zn328 1.977 . S
O337 C330 1.267 . S
C338 O339 1.160 . S
C338 O345 1.185 . S
O339 C338 1.160 . S
O340 Zn341 1.899 . S
O340 C348 1.284 . S
Zn341 O340 1.899 . S
Zn341 O342 2.032 . S
Zn341 O345 2.086 . S
Zn341 O350 1.977 . S
O342 Zn341 2.032 . S
O342 C346 1.278 . S
C343 O344 1.203 . S
C343 O350 1.267 . S
O344 C343 1.203 . S
O345 C338 1.185 . S
O345 Zn341 2.086 . S
C346 O342 1.278 . S
C346 O347 1.211 . S
O347 C346 1.211 . S
C348 O340 1.284 . S
C348 O349 1.273 . S
O349 C348 1.273 . S
O350 Zn341 1.977 . S
O350 C343 1.267 . S
C351 O352 1.160 1_655 S
C351 O358 1.185 . S
O352 C351 1.160 1_455 S
O353 Zn354 1.899 1_455 S
O353 C361 1.284 . S
Zn354 O353 1.899 1_655 S
Zn354 O355 2.032 . S
Zn354 O358 2.086 . S
Zn354 O363 1.977 . S
O355 Zn354 2.032 . S
O355 C359 1.278 . S
C356 O357 1.203 . S
C356 O363 1.267 . S
O357 C356 1.203 . S
O358 C351 1.185 . S
O358 Zn354 2.086 . S
C359 O355 1.278 . S
C359 O360 1.211 . S
O360 C359 1.211 . S
C361 O353 1.284 . S
C361 O362 1.273 . S
O362 C361 1.273 . S
O363 Zn354 1.977 . S
O363 C356 1.267 . S
C364 O365 1.160 . S
C364 O371 1.185 . S
O365 C364 1.160 . S
O366 Zn367 1.899 . S
O366 C374 1.284 . S
Zn367 O366 1.899 . S
Zn367 O368 2.032 . S
Zn367 O371 2.086 . S
Zn367 O376 1.977 . S
O368 Zn367 2.032 . S
O368 C372 1.278 . S
C369 O370 1.203 . S
C369 O376 1.267 . S
O370 C369 1.203 . S
O371 C364 1.185 . S
O371 Zn367 2.086 . S
C372 O368 1.278 . S
C372 O373 1.211 . S
O373 C372 1.211 . S
C374 O366 1.284 . S
C374 O375 1.273 . S
O375 C374 1.273 . S
O376 Zn367 1.977 . S
O376 C369 1.267 . S
C377 O378 1.160 1_655 S
C377 O384 1.185 . S
O378 C377 1.160 1_455 S
O379 Zn380 1.899 1_455 S
O379 C387 1.284 . S
Zn380 O379 1.899 1_655 S
Zn380 O381 2.032 1_554 S
Zn380 O384 2.086 . S
Zn380 O389 1.977 . S
O381 Zn380 2.032 1_556 S
O381 C385 1.278 . S
C382 O383 1.203 . S
C382 O389 1.267 . S
O383 C382 1.203 . S
O384 C377 1.185 . S
O384 Zn380 2.086 . S
C385 O381 1.278 . S
C385 O386 1.211 . S
O386 C385 1.211 . S
C387 O379 1.284 . S
C387 O388 1.273 . S
O388 C387 1.273 . S
O389 Zn380 1.977 . S
O389 C382 1.267 . S
C390 O391 1.160 . S
C390 O397 1.185 . S
O391 C390 1.160 . S
O392 Zn393 1.899 . S
O392 C400 1.284 . S
Zn393 O392 1.899 . S
Zn393 O394 2.032 . S
Zn393 O397 2.086 . S
Zn393 O402 1.977 . S
O394 Zn393 2.032 . S
O394 C398 1.278 . S
C395 O396 1.203 . S
C395 O402 1.267 . S
O396 C395 1.203 . S
O397 C390 1.185 . S
O397 Zn393 2.086 . S
C398 O394 1.278 . S
C398 O399 1.211 . S
O399 C398 1.211 . S
C400 O392 1.284 . S
C400 O401 1.273 . S
O401 C400 1.273 . S
O402 Zn393 1.977 . S
O402 C395 1.267 . S
C403 O404 1.160 . S
C403 O410 1.185 . S
O404 C403 1.160 . S
O405 Zn406 1.899 . S
O405 C413 1.284 . S
Zn406 O405 1.899 . S
Zn406 O407 2.032 . S
Zn406 O410 2.086 . S
Zn406 O415 1.977 . S
O407 Zn406 2.032 . S
O407 C411 1.278 . S
C408 O409 1.203 . S
C408 O415 1.267 . S
O409 C408 1.203 . S
O410 C403 1.185 . S
O410 Zn406 2.086 . S
C411 O407 1.278 . S
C411 O412 1.211 . S
O412 C411 1.211 . S
C413 O405 1.284 . S
C413 O414 1.273 . S
O414 C413 1.273 . S
O415 Zn406 1.977 . S
O415 C408 1.267 . S
C416 C417 1.369 . S
C416 C418 1.419 . S
C416 H420 0.930 . S
C417 C416 1.369 . S
C417 C426 1.429 . S
C418 C416 1.419 . S
C418 C419 1.363 . S
C418 H421 0.929 . S
C419 C418 1.363 . S
C419 C425 1.428 . S
H420 C416 0.930 . S
H421 C418 0.929 . S
S422 N423 1.613 . S
S422 N424 1.610 . S
N423 S422 1.613 . S
N423 C426 1.350 . S
N424 S422 1.610 . S
N424 C425 1.351 . S
C425 C419 1.428 . S
C425 N424 1.351 . S
C425 C426 1.434 . S
C426 C417 1.429 . S
C426 N423 1.350 . S
C426 C425 1.434 . S
C427 C428 1.369 . S
C427 C429 1.419 . S
C427 H431 0.930 . S
C428 C427 1.369 . S
C428 C437 1.429 . S
C429 C427 1.419 . S
C429 C430 1.363 . S
C429 H432 0.929 . S
C430 C429 1.363 . S
C430 C436 1.428 . S
H431 C427 0.930 . S
H432 C429 0.929 . S
S433 N434 1.613 . S
S433 N435 1.610 . S
N434 S433 1.613 . S
N434 C437 1.350 . S
N435 S433 1.610 . S
N435 C436 1.351 . S
C436 C430 1.428 . S
C436 N435 1.351 . S
C436 C437 1.434 . S
C437 C428 1.429 . S
C437 N434 1.350 . S
C437 C436 1.434 . S
C438 C439 1.369 . S
C438 C440 1.419 . S
C438 H442 0.930 . S
C439 C438 1.369 . S
C439 C448 1.429 . S
C440 C438 1.419 . S
C440 C441 1.363 . S
C440 H443 0.929 . S
C441 C440 1.363 . S
C441 C447 1.428 . S
H442 C438 0.930 . S
H443 C440 0.929 . S
S444 N445 1.613 . S
S444 N446 1.610 . S
N445 S444 1.613 . S
N445 C448 1.350 . S
N446 S444 1.610 . S
N446 C447 1.351 . S
C447 C441 1.428 . S
C447 N446 1.351 . S
C447 C448 1.434 . S
C448 C439 1.429 . S
C448 N445 1.350 . S
C448 C447 1.434 . S
C449 C450 1.369 . S
C449 C451 1.419 . S
C449 H453 0.930 . S
C450 C449 1.369 . S
C450 C459 1.429 . S
C451 C449 1.419 . S
C451 C452 1.363 . S
C451 H454 0.929 . S
C452 C451 1.363 . S
C452 C458 1.428 . S
H453 C449 0.930 . S
H454 C451 0.929 . S
S455 N456 1.613 . S
S455 N457 1.610 . S
N456 S455 1.613 . S
N456 C459 1.350 . S
N457 S455 1.610 . S
N457 C458 1.351 . S
C458 C452 1.428 . S
C458 N457 1.351 . S
C458 C459 1.434 . S
C459 C450 1.429 . S
C459 N456 1.350 . S
C459 C458 1.434 . S
C460 C461 1.369 . S
C460 C462 1.419 . S
C460 H464 0.930 . S
C461 C460 1.369 . S
C461 C470 1.429 . S
C462 C460 1.419 . S
C462 C463 1.363 . S
C462 H465 0.929 . S
C463 C462 1.363 . S
C463 C469 1.428 . S
H464 C460 0.930 . S
H465 C462 0.929 . S
S466 N467 1.613 . S
S466 N468 1.610 . S
N467 S466 1.613 . S
N467 C470 1.350 . S
N468 S466 1.610 . S
N468 C469 1.351 . S
C469 C463 1.428 . S
C469 N468 1.351 . S
C469 C470 1.434 . S
C470 C461 1.429 . S
C470 N467 1.350 . S
C470 C469 1.434 . S
C471 C472 1.369 . S
C471 C473 1.419 . S
C471 H475 0.930 . S
C472 C471 1.369 . S
C472 C481 1.429 . S
C473 C471 1.419 . S
C473 C474 1.363 . S
C473 H476 0.929 . S
C474 C473 1.363 . S
C474 C480 1.428 . S
H475 C471 0.930 . S
H476 C473 0.929 . S
S477 N478 1.613 . S
S477 N479 1.610 . S
N478 S477 1.613 . S
N478 C481 1.350 . S
N479 S477 1.610 . S
N479 C480 1.351 . S
C480 C474 1.428 . S
C480 N479 1.351 . S
C480 C481 1.434 . S
C481 C472 1.429 . S
C481 N478 1.350 . S
C481 C480 1.434 . S
C482 C483 1.369 . S
C482 C484 1.419 . S
C482 H486 0.930 . S
C483 C482 1.369 . S
C483 C492 1.429 . S
C484 C482 1.419 . S
C484 C485 1.363 . S
C484 H487 0.929 . S
C485 C484 1.363 . S
C485 C491 1.428 . S
H486 C482 0.930 . S
H487 C484 0.929 . S
S488 N489 1.613 . S
S488 N490 1.610 . S
N489 S488 1.613 . S
N489 C492 1.350 . S
N490 S488 1.610 . S
N490 C491 1.351 . S
C491 C485 1.428 . S
C491 N490 1.351 . S
C491 C492 1.434 . S
C492 C483 1.429 . S
C492 N489 1.350 . S
C492 C491 1.434 . S
C493 C494 1.369 . S
C493 C495 1.419 . S
C493 H497 0.930 . S
C494 C493 1.369 . S
C494 C503 1.429 . S
C495 C493 1.419 . S
C495 C496 1.363 . S
C495 H498 0.929 . S
C496 C495 1.363 . S
C496 C502 1.428 . S
H497 C493 0.930 . S
H498 C495 0.929 . S
S499 N500 1.613 . S
S499 N501 1.610 . S
N500 S499 1.613 . S
N500 C503 1.350 . S
N501 S499 1.610 . S
N501 C502 1.351 . S
C502 C496 1.428 . S
C502 N501 1.351 . S
C502 C503 1.434 . S
C503 C494 1.429 . S
C503 N500 1.350 . S
C503 C502 1.434 . S
C504 C505 1.369 . S
C504 C506 1.419 . S
C504 H508 0.930 . S
C505 C504 1.369 . S
C505 C514 1.429 . S
C506 C504 1.419 . S
C506 C507 1.363 . S
C506 H509 0.929 . S
C507 C506 1.363 . S
C507 C513 1.428 . S
H508 C504 0.930 . S
H509 C506 0.929 . S
S510 N511 1.613 . S
S510 N512 1.610 . S
N511 S510 1.613 . S
N511 C514 1.350 . S
N512 S510 1.610 . S
N512 C513 1.351 . S
C513 C507 1.428 . S
C513 N512 1.351 . S
C513 C514 1.434 . S
C514 C505 1.429 . S
C514 N511 1.350 . S
C514 C513 1.434 . S
C515 C516 1.369 . S
C515 C517 1.419 . S
C515 H519 0.930 . S
C516 C515 1.369 . S
C516 C525 1.429 . S
C517 C515 1.419 . S
C517 C518 1.363 . S
C517 H520 0.929 . S
C518 C517 1.363 . S
C518 C524 1.428 . S
H519 C515 0.930 . S
H520 C517 0.929 . S
S521 N522 1.613 . S
S521 N523 1.610 . S
N522 S521 1.613 . S
N522 C525 1.350 . S
N523 S521 1.610 . S
N523 C524 1.351 . S
C524 C518 1.428 . S
C524 N523 1.351 . S
C524 C525 1.434 . S
C525 C516 1.429 . S
C525 N522 1.350 . S
C525 C524 1.434 . S
C526 C527 1.369 . S
C526 C528 1.419 . S
C526 H530 0.930 . S
C527 C526 1.369 . S
C527 C536 1.429 . S
C528 C526 1.419 . S
C528 C529 1.363 . S
C528 H531 0.929 . S
C529 C528 1.363 . S
C529 C535 1.428 . S
H530 C526 0.930 . S
H531 C528 0.929 . S
S532 N533 1.613 . S
S532 N534 1.610 . S
N533 S532 1.613 . S
N533 C536 1.350 . S
N534 S532 1.610 . S
N534 C535 1.351 . S
C535 C529 1.428 . S
C535 N534 1.351 . S
C535 C536 1.434 . S
C536 C527 1.429 . S
C536 N533 1.350 . S
C536 C535 1.434 . S
C537 C538 1.369 . S
C537 C539 1.419 . S
C537 H541 0.930 . S
C538 C537 1.369 . S
C538 C547 1.429 . S
C539 C537 1.419 . S
C539 C540 1.363 . S
C539 H542 0.929 . S
C540 C539 1.363 . S
C540 C546 1.428 . S
H541 C537 0.930 . S
H542 C539 0.929 . S
S543 N544 1.613 . S
S543 N545 1.610 . S
N544 S543 1.613 . S
N544 C547 1.350 . S
N545 S543 1.610 . S
N545 C546 1.351 . S
C546 C540 1.428 . S
C546 N545 1.351 . S
C546 C547 1.434 . S
C547 C538 1.429 . S
C547 N544 1.350 . S
C547 C546 1.434 . S
C548 C549 1.369 . S
C548 C550 1.419 . S
C548 H552 0.930 . S
C549 C548 1.369 . S
C549 C558 1.429 . S
C550 C548 1.419 . S
C550 C551 1.363 . S
C550 H553 0.929 . S
C551 C550 1.363 . S
C551 C557 1.428 . S
H552 C548 0.930 . S
H553 C550 0.929 . S
S554 N555 1.613 . S
S554 N556 1.610 . S
N555 S554 1.613 . S
N555 C558 1.350 . S
N556 S554 1.610 . S
N556 C557 1.351 . S
C557 C551 1.428 . S
C557 N556 1.351 . S
C557 C558 1.434 . S
C558 C549 1.429 . S
C558 N555 1.350 . S
C558 C557 1.434 . S
C559 C560 1.369 . S
C559 C561 1.419 . S
C559 H563 0.930 . S
C560 C559 1.369 . S
C560 C569 1.429 . S
C561 C559 1.419 . S
C561 C562 1.363 . S
C561 H564 0.929 . S
C562 C561 1.363 . S
C562 C568 1.428 . S
H563 C559 0.930 . S
H564 C561 0.929 . S
S565 N566 1.613 . S
S565 N567 1.610 . S
N566 S565 1.613 . S
N566 C569 1.350 . S
N567 S565 1.610 . S
N567 C568 1.351 . S
C568 C562 1.428 . S
C568 N567 1.351 . S
C568 C569 1.434 . S
C569 C560 1.429 . S
C569 N566 1.350 . S
C569 C568 1.434 . S
C570 C571 1.369 . S
C570 C572 1.419 . S
C570 H574 0.930 . S
C571 C570 1.369 . S
C571 C580 1.429 . S
C572 C570 1.419 . S
C572 C573 1.363 . S
C572 H575 0.929 . S
C573 C572 1.363 . S
C573 C579 1.428 . S
H574 C570 0.930 . S
H575 C572 0.929 . S
S576 N577 1.613 . S
S576 N578 1.610 . S
N577 S576 1.613 . S
N577 C580 1.350 . S
N578 S576 1.610 . S
N578 C579 1.351 . S
C579 C573 1.428 . S
C579 N578 1.351 . S
C579 C580 1.434 . S
C580 C571 1.429 . S
C580 N577 1.350 . S
C580 C579 1.434 . S
C581 C582 1.369 . S
C581 C583 1.419 . S
C581 H585 0.930 . S
C582 C581 1.369 . S
C582 C591 1.429 . S
C583 C581 1.419 . S
C583 C584 1.363 . S
C583 H586 0.929 . S
C584 C583 1.363 . S
C584 C590 1.428 . S
H585 C581 0.930 . S
H586 C583 0.929 . S
S587 N588 1.613 . S
S587 N589 1.610 . S
N588 S587 1.613 . S
N588 C591 1.350 . S
N589 S587 1.610 . S
N589 C590 1.351 . S
C590 C584 1.428 . S
C590 N589 1.351 . S
C590 C591 1.434 . S
C591 C582 1.429 . S
C591 N588 1.350 . S
C591 C590 1.434 . S
C592 C593 1.369 . S
C592 C594 1.419 . S
C592 H596 0.930 . S
C593 C592 1.369 . S
C593 C602 1.429 . S
C594 C592 1.419 . S
C594 C595 1.363 . S
C594 H597 0.929 . S
C595 C594 1.363 . S
C595 C601 1.428 . S
H596 C592 0.930 . S
H597 C594 0.929 . S
S598 N599 1.613 . S
S598 N600 1.610 . S
N599 S598 1.613 . S
N599 C602 1.350 . S
N600 S598 1.610 . S
N600 C601 1.351 . S
C601 C595 1.428 . S
C601 N600 1.351 . S
C601 C602 1.434 . S
C602 C593 1.429 . S
C602 N599 1.350 . S
C602 C601 1.434 . S
C603 C604 1.369 . S
C603 C605 1.419 . S
C603 H607 0.930 . S
C604 C603 1.369 . S
C604 C613 1.429 . S
C605 C603 1.419 . S
C605 C606 1.363 . S
C605 H608 0.929 . S
C606 C605 1.363 . S
C606 C612 1.428 . S
H607 C603 0.930 . S
H608 C605 0.929 . S
S609 N610 1.613 . S
S609 N611 1.610 . S
N610 S609 1.613 . S
N610 C613 1.350 . S
N611 S609 1.610 . S
N611 C612 1.351 . S
C612 C606 1.428 . S
C612 N611 1.351 . S
C612 C613 1.434 . S
C613 C604 1.429 . S
C613 N610 1.350 . S
C613 C612 1.434 . S
C614 C615 1.369 . S
C614 C616 1.419 . S
C614 H618 0.930 . S
C615 C614 1.369 . S
C615 C624 1.429 . S
C616 C614 1.419 . S
C616 C617 1.363 . S
C616 H619 0.929 . S
C617 C616 1.363 . S
C617 C623 1.428 . S
H618 C614 0.930 . S
H619 C616 0.929 . S
S620 N621 1.613 . S
S620 N622 1.610 . S
N621 S620 1.613 . S
N621 C624 1.350 . S
N622 S620 1.610 . S
N622 C623 1.351 . S
C623 C617 1.428 . S
C623 N622 1.351 . S
C623 C624 1.434 . S
C624 C615 1.429 . S
C624 N621 1.350 . S
C624 C623 1.434 . S
C625 C626 1.369 . S
C625 C627 1.419 . S
C625 H629 0.930 . S
C626 C625 1.369 . S
C626 C635 1.429 . S
C627 C625 1.419 . S
C627 C628 1.363 . S
C627 H630 0.929 . S
C628 C627 1.363 . S
C628 C634 1.428 . S
H629 C625 0.930 . S
H630 C627 0.929 . S
S631 N632 1.613 . S
S631 N633 1.610 . S
N632 S631 1.613 . S
N632 C635 1.350 . S
N633 S631 1.610 . S
N633 C634 1.351 . S
C634 C628 1.428 . S
C634 N633 1.351 . S
C634 C635 1.434 . S
C635 C626 1.429 . S
C635 N632 1.350 . S
C635 C634 1.434 . S
C636 C637 1.369 . S
C636 C638 1.419 . S
C636 H640 0.930 . S
C637 C636 1.369 . S
C637 C646 1.429 . S
C638 C636 1.419 . S
C638 C639 1.363 . S
C638 H641 0.929 . S
C639 C638 1.363 . S
C639 C645 1.428 . S
H640 C636 0.930 . S
H641 C638 0.929 . S
S642 N643 1.613 . S
S642 N644 1.610 . S
N643 S642 1.613 . S
N643 C646 1.350 . S
N644 S642 1.610 . S
N644 C645 1.351 . S
C645 C639 1.428 . S
C645 N644 1.351 . S
C645 C646 1.434 . S
C646 C637 1.429 . S
C646 N643 1.350 . S
C646 C645 1.434 . S
C647 C648 1.369 . S
C647 C649 1.419 . S
C647 H651 0.930 . S
C648 C647 1.369 . S
C648 C657 1.429 . S
C649 C647 1.419 . S
C649 C650 1.363 . S
C649 H652 0.929 . S
C650 C649 1.363 . S
C650 C656 1.428 . S
H651 C647 0.930 . S
H652 C649 0.929 . S
S653 N654 1.613 . S
S653 N655 1.610 . S
N654 S653 1.613 . S
N654 C657 1.350 . S
N655 S653 1.610 . S
N655 C656 1.351 . S
C656 C650 1.428 . S
C656 N655 1.351 . S
C656 C657 1.434 . S
C657 C648 1.429 . S
C657 N654 1.350 . S
C657 C656 1.434 . S
C658 C659 1.369 . S
C658 C660 1.419 . S
C658 H662 0.930 . S
C659 C658 1.369 . S
C659 C668 1.429 . S
C660 C658 1.419 . S
C660 C661 1.363 . S
C660 H663 0.929 . S
C661 C660 1.363 . S
C661 C667 1.428 . S
H662 C658 0.930 . S
H663 C660 0.929 . S
S664 N665 1.613 . S
S664 N666 1.610 . S
N665 S664 1.613 . S
N665 C668 1.350 . S
N666 S664 1.610 . S
N666 C667 1.351 . S
C667 C661 1.428 . S
C667 N666 1.351 . S
C667 C668 1.434 . S
C668 C659 1.429 . S
C668 N665 1.350 . S
C668 C667 1.434 . S
C669 C670 1.369 . S
C669 C671 1.419 . S
C669 H673 0.930 . S
C670 C669 1.369 . S
C670 C679 1.429 . S
C671 C669 1.419 . S
C671 C672 1.363 . S
C671 H674 0.929 . S
C672 C671 1.363 . S
C672 C678 1.428 . S
H673 C669 0.930 . S
H674 C671 0.929 . S
S675 N676 1.613 . S
S675 N677 1.610 . S
N676 S675 1.613 . S
N676 C679 1.350 . S
N677 S675 1.610 . S
N677 C678 1.351 . S
C678 C672 1.428 . S
C678 N677 1.351 . S
C678 C679 1.434 . S
C679 C670 1.429 . S
C679 N676 1.350 . S
C679 C678 1.434 . S
C680 C681 1.369 . S
C680 C682 1.419 . S
C680 H684 0.930 . S
C681 C680 1.369 . S
C681 C690 1.429 . S
C682 C680 1.419 . S
C682 C683 1.363 . S
C682 H685 0.929 . S
C683 C682 1.363 . S
C683 C689 1.428 . S
H684 C680 0.930 . S
H685 C682 0.929 . S
S686 N687 1.613 . S
S686 N688 1.610 . S
N687 S686 1.613 . S
N687 C690 1.350 . S
N688 S686 1.610 . S
N688 C689 1.351 . S
C689 C683 1.428 . S
C689 N688 1.351 . S
C689 C690 1.434 . S
C690 C681 1.429 . S
C690 N687 1.350 . S
C690 C689 1.434 . S
C691 C692 1.369 . S
C691 C693 1.419 . S
C691 H695 0.930 . S
C692 C691 1.369 . S
C692 C701 1.429 . S
C693 C691 1.419 . S
C693 C694 1.363 . S
C693 H696 0.929 . S
C694 C693 1.363 . S
C694 C700 1.428 . S
H695 C691 0.930 . S
H696 C693 0.929 . S
S697 N698 1.613 . S
S697 N699 1.610 . S
N698 S697 1.613 . S
N698 C701 1.350 . S
N699 S697 1.610 . S
N699 C700 1.351 . S
C700 C694 1.428 . S
C700 N699 1.351 . S
C700 C701 1.434 . S
C701 C692 1.429 . S
C701 N698 1.350 . S
C701 C700 1.434 . S
C702 C703 1.369 . S
C702 C704 1.419 . S
C702 H706 0.930 . S
C703 C702 1.369 . S
C703 C712 1.429 . S
C704 C702 1.419 . S
C704 C705 1.363 . S
C704 H707 0.929 . S
C705 C704 1.363 . S
C705 C711 1.428 . S
H706 C702 0.930 . S
H707 C704 0.929 . S
S708 N709 1.613 . S
S708 N710 1.610 . S
N709 S708 1.613 . S
N709 C712 1.350 . S
N710 S708 1.610 . S
N710 C711 1.351 . S
C711 C705 1.428 . S
C711 N710 1.351 . S
C711 C712 1.434 . S
C712 C703 1.429 . S
C712 N709 1.350 . S
C712 C711 1.434 . S
C713 C714 1.369 . S
C713 C715 1.419 . S
C713 H717 0.930 . S
C714 C713 1.369 . S
C714 C723 1.429 . S
C715 C713 1.419 . S
C715 C716 1.363 . S
C715 H718 0.929 . S
C716 C715 1.363 . S
C716 C722 1.428 . S
H717 C713 0.930 . S
H718 C715 0.929 . S
S719 N720 1.613 . S
S719 N721 1.610 . S
N720 S719 1.613 . S
N720 C723 1.350 . S
N721 S719 1.610 . S
N721 C722 1.351 . S
C722 C716 1.428 . S
C722 N721 1.351 . S
C722 C723 1.434 . S
C723 C714 1.429 . S
C723 N720 1.350 . S
C723 C722 1.434 . S
C724 C725 1.369 . S
C724 C726 1.419 . S
C724 H728 0.930 . S
C725 C724 1.369 . S
C725 C734 1.429 . S
C726 C724 1.419 . S
C726 C727 1.363 . S
C726 H729 0.929 . S
C727 C726 1.363 . S
C727 C733 1.428 . S
H728 C724 0.930 . S
H729 C726 0.929 . S
S730 N731 1.613 . S
S730 N732 1.610 . S
N731 S730 1.613 . S
N731 C734 1.350 . S
N732 S730 1.610 . S
N732 C733 1.351 . S
C733 C727 1.428 . S
C733 N732 1.351 . S
C733 C734 1.434 . S
C734 C725 1.429 . S
C734 N731 1.350 . S
C734 C733 1.434 . S
C735 C736 1.369 . S
C735 C737 1.419 . S
C735 H739 0.930 . S
C736 C735 1.369 . S
C736 C745 1.429 . S
C737 C735 1.419 . S
C737 C738 1.363 . S
C737 H740 0.929 . S
C738 C737 1.363 . S
C738 C744 1.428 . S
H739 C735 0.930 . S
H740 C737 0.929 . S
S741 N742 1.613 . S
S741 N743 1.610 . S
N742 S741 1.613 . S
N742 C745 1.350 . S
N743 S741 1.610 . S
N743 C744 1.351 . S
C744 C738 1.428 . S
C744 N743 1.351 . S
C744 C745 1.434 . S
C745 C736 1.429 . S
C745 N742 1.350 . S
C745 C744 1.434 . S
C746 C747 1.369 . S
C746 C748 1.419 . S
C746 H750 0.930 . S
C747 C746 1.369 . S
C747 C756 1.429 . S
C748 C746 1.419 . S
C748 C749 1.363 . S
C748 H751 0.929 . S
C749 C748 1.363 . S
C749 C755 1.428 . S
H750 C746 0.930 . S
H751 C748 0.929 . S
S752 N753 1.613 . S
S752 N754 1.610 . S
N753 S752 1.613 . S
N753 C756 1.350 . S
N754 S752 1.610 . S
N754 C755 1.351 . S
C755 C749 1.428 . S
C755 N754 1.351 . S
C755 C756 1.434 . S
C756 C747 1.429 . S
C756 N753 1.350 . S
C756 C755 1.434 . S
C757 C758 1.369 . S
C757 C759 1.419 . S
C757 H761 0.930 . S
C758 C757 1.369 . S
C758 C767 1.429 . S
C759 C757 1.419 . S
C759 C760 1.363 . S
C759 H762 0.929 . S
C760 C759 1.363 . S
C760 C766 1.428 . S
H761 C757 0.930 . S
H762 C759 0.929 . S
S763 N764 1.613 . S
S763 N765 1.610 . S
N764 S763 1.613 . S
N764 C767 1.350 . S
N765 S763 1.610 . S
N765 C766 1.351 . S
C766 C760 1.428 . S
C766 N765 1.351 . S
C766 C767 1.434 . S
C767 C758 1.429 . S
C767 N764 1.350 . S
C767 C766 1.434 . S
C768 C769 1.369 . S
C768 C770 1.419 . S
C768 H772 0.930 . S
C769 C768 1.369 . S
C769 C778 1.429 . S
C770 C768 1.419 . S
C770 C771 1.363 . S
C770 H773 0.929 . S
C771 C770 1.363 . S
C771 C777 1.428 . S
H772 C768 0.930 . S
H773 C770 0.929 . S
S774 N775 1.613 . S
S774 N776 1.610 . S
N775 S774 1.613 . S
N775 C778 1.350 . S
N776 S774 1.610 . S
N776 C777 1.351 . S
C777 C771 1.428 . S
C777 N776 1.351 . S
C777 C778 1.434 . S
C778 C769 1.429 . S
C778 N775 1.350 . S
C778 C777 1.434 . S
C779 C780 1.369 . S
C779 C781 1.419 1_565 S
C779 H783 0.930 . S
C780 C779 1.369 . S
C780 C789 1.429 1_655 S
C781 C779 1.419 1_545 S
C781 C782 1.363 1_655 S
C781 H784 0.929 . S
C782 C781 1.363 1_455 S
C782 C788 1.428 . S
H783 C779 0.930 . S
H784 C781 0.929 . S
S785 N786 1.613 . S
S785 N787 1.610 . S
N786 S785 1.613 . S
N786 C789 1.350 . S
N787 S785 1.610 . S
N787 C788 1.351 1_565 S
C788 C782 1.428 . S
C788 N787 1.351 1_545 S
C788 C789 1.434 1_545 S
C789 C780 1.429 1_455 S
C789 N786 1.350 . S
C789 C788 1.434 1_565 S
C790 C791 1.369 . S
C790 C792 1.419 . S
C790 H794 0.930 . S
C791 C790 1.369 . S
C791 C800 1.429 . S
C792 C790 1.419 . S
C792 C793 1.363 . S
C792 H795 0.929 . S
C793 C792 1.363 . S
C793 C799 1.428 . S
H794 C790 0.930 . S
H795 C792 0.929 . S
S796 N797 1.613 . S
S796 N798 1.610 . S
N797 S796 1.613 . S
N797 C800 1.350 . S
N798 S796 1.610 . S
N798 C799 1.351 . S
C799 C793 1.428 . S
C799 N798 1.351 . S
C799 C800 1.434 . S
C800 C791 1.429 . S
C800 N797 1.350 . S
C800 C799 1.434 . S
C801 C802 1.369 . S
C801 C803 1.419 1_545 S
C801 H805 0.930 . S
C802 C801 1.369 . S
C802 C811 1.429 1_554 S
C803 C801 1.419 1_565 S
C803 C804 1.363 1_554 S
C803 H806 0.929 . S
C804 C803 1.363 1_556 S
C804 C810 1.428 . S
H805 C801 0.930 . S
H806 C803 0.929 . S
S807 N808 1.613 1_565 S
S807 N809 1.610 . S
N808 S807 1.613 1_545 S
N808 C811 1.350 . S
N809 S807 1.610 . S
N809 C810 1.351 . S
C810 C804 1.428 . S
C810 N809 1.351 . S
C810 C811 1.434 1_565 S
C811 C802 1.429 1_556 S
C811 N808 1.350 . S
C811 C810 1.434 1_545 S
C812 C813 1.369 . S
C812 C814 1.419 . S
C812 H816 0.930 . S
C813 C812 1.369 . S
C813 C822 1.429 . S
C814 C812 1.419 . S
C814 C815 1.363 . S
C814 H817 0.929 . S
C815 C814 1.363 . S
C815 C821 1.428 . S
H816 C812 0.930 . S
H817 C814 0.929 . S
S818 N819 1.613 . S
S818 N820 1.610 . S
N819 S818 1.613 . S
N819 C822 1.350 . S
N820 S818 1.610 . S
N820 C821 1.351 . S
C821 C815 1.428 . S
C821 N820 1.351 . S
C821 C822 1.434 . S
C822 C813 1.429 . S
C822 N819 1.350 . S
C822 C821 1.434 . S
C823 C824 1.369 . S
C823 C825 1.419 1_565 S
C823 H827 0.930 . S
C824 C823 1.369 . S
C824 C833 1.429 . S
C825 C823 1.419 1_545 S
C825 C826 1.363 . S
C825 H828 0.929 . S
C826 C825 1.363 . S
C826 C832 1.428 . S
H827 C823 0.930 . S
H828 C825 0.929 . S
S829 N830 1.613 1_545 S
S829 N831 1.610 . S
N830 S829 1.613 1_565 S
N830 C833 1.350 . S
N831 S829 1.610 . S
N831 C832 1.351 . S
C832 C826 1.428 . S
C832 N831 1.351 . S
C832 C833 1.434 1_545 S
C833 C824 1.429 . S
C833 N830 1.350 . S
C833 C832 1.434 1_565 S
C834 C835 1.369 . S
C834 C836 1.419 . S
C834 H838 0.930 . S
C835 C834 1.369 . S
C835 C844 1.429 . S
C836 C834 1.419 . S
C836 C837 1.363 . S
C836 H839 0.929 . S
C837 C836 1.363 . S
C837 C843 1.428 . S
H838 C834 0.930 . S
H839 C836 0.929 . S
S840 N841 1.613 . S
S840 N842 1.610 . S
N841 S840 1.613 . S
N841 C844 1.350 . S
N842 S840 1.610 . S
N842 C843 1.351 . S
C843 C837 1.428 . S
C843 N842 1.351 . S
C843 C844 1.434 . S
C844 C835 1.429 . S
C844 N841 1.350 . S
C844 C843 1.434 . S
C845 C846 1.369 1_455 S
C845 C847 1.419 1_545 S
C845 H849 0.930 . S
C846 C845 1.369 1_655 S
C846 C855 1.429 1_556 S
C847 C845 1.419 1_565 S
C847 C848 1.363 1_556 S
C847 H850 0.929 . S
C848 C847 1.363 1_554 S
C848 C854 1.428 1_455 S
H849 C845 0.930 . S
H850 C847 0.929 . S
S851 N852 1.613 1_565 S
S851 N853 1.610 . S
N852 S851 1.613 1_545 S
N852 C855 1.350 . S
N853 S851 1.610 . S
N853 C854 1.351 . S
C854 C848 1.428 1_655 S
C854 N853 1.351 . S
C854 C855 1.434 1_565 S
C855 C846 1.429 1_554 S
C855 N852 1.350 . S
C855 C854 1.434 1_545 S
C856 C857 1.369 . S
C856 C858 1.419 . S
C856 H860 0.930 . S
C857 C856 1.369 . S
C857 C866 1.429 . S
C858 C856 1.419 . S
C858 C859 1.363 . S
C858 H861 0.929 . S
C859 C858 1.363 . S
C859 C865 1.428 . S
H860 C856 0.930 . S
H861 C858 0.929 . S
S862 N863 1.613 . S
S862 N864 1.610 . S
N863 S862 1.613 . S
N863 C866 1.350 . S
N864 S862 1.610 . S
N864 C865 1.351 . S
C865 C859 1.428 . S
C865 N864 1.351 . S
C865 C866 1.434 . S
C866 C857 1.429 . S
C866 N863 1.350 . S
C866 C865 1.434 . S
C867 C868 1.369 . S
C867 C869 1.419 . S
C867 H871 0.930 . S
C868 C867 1.369 . S
C868 C877 1.429 . S
C869 C867 1.419 . S
C869 C870 1.363 . S
C869 H872 0.929 . S
C870 C869 1.363 . S
C870 C876 1.428 . S
H871 C867 0.930 . S
H872 C869 0.929 . S
S873 N874 1.613 . S
S873 N875 1.610 . S
N874 S873 1.613 . S
N874 C877 1.350 . S
N875 S873 1.610 . S
N875 C876 1.351 . S
C876 C870 1.428 . S
C876 N875 1.351 . S
C876 C877 1.434 . S
C877 C868 1.429 . S
C877 N874 1.350 . S
C877 C876 1.434 . S
C878 C879 1.369 . S
C878 C880 1.419 . S
C878 H882 0.930 . S
C879 C878 1.369 . S
C879 C888 1.429 . S
C880 C878 1.419 . S
C880 C881 1.363 . S
C880 H883 0.929 . S
C881 C880 1.363 . S
C881 C887 1.428 . S
H882 C878 0.930 . S
H883 C880 0.929 . S
S884 N885 1.613 . S
S884 N886 1.610 . S
N885 S884 1.613 . S
N885 C888 1.350 . S
N886 S884 1.610 . S
N886 C887 1.351 . S
C887 C881 1.428 . S
C887 N886 1.351 . S
C887 C888 1.434 . S
C888 C879 1.429 . S
C888 N885 1.350 . S
C888 C887 1.434 . S
C889 C890 1.369 . S
C889 C891 1.419 . S
C889 H893 0.930 . S
C890 C889 1.369 . S
C890 C899 1.429 . S
C891 C889 1.419 . S
C891 C892 1.363 . S
C891 H894 0.929 . S
C892 C891 1.363 . S
C892 C898 1.428 . S
H893 C889 0.930 . S
H894 C891 0.929 . S
S895 N896 1.613 . S
S895 N897 1.610 . S
N896 S895 1.613 . S
N896 C899 1.350 . S
N897 S895 1.610 . S
N897 C898 1.351 . S
C898 C892 1.428 . S
C898 N897 1.351 . S
C898 C899 1.434 . S
C899 C890 1.429 . S
C899 N896 1.350 . S
C899 C898 1.434 . S
C900 C901 1.369 1_556 S
C900 C902 1.419 . S
C900 H904 0.930 . S
C901 C900 1.369 1_554 S
C901 C910 1.429 . S
C902 C900 1.419 . S
C902 C903 1.363 . S
C902 H905 0.929 . S
C903 C902 1.363 . S
C903 C909 1.428 1_556 S
H904 C900 0.930 . S
H905 C902 0.929 . S
S906 N907 1.613 . S
S906 N908 1.610 . S
N907 S906 1.613 . S
N907 C910 1.350 . S
N908 S906 1.610 . S
N908 C909 1.351 . S
C909 C903 1.428 1_554 S
C909 N908 1.351 . S
C909 C910 1.434 . S
C910 C901 1.429 . S
C910 N907 1.350 . S
C910 C909 1.434 . S
C911 C912 1.369 . S
C911 C913 1.419 . S
C911 H915 0.930 . S
C912 C911 1.369 . S
C912 C921 1.429 1_655 S
C913 C911 1.419 . S
C913 C914 1.363 1_655 S
C913 H916 0.929 . S
C914 C913 1.363 1_455 S
C914 C920 1.428 . S
H915 C911 0.930 . S
H916 C913 0.929 . S
S917 N918 1.613 . S
S917 N919 1.610 . S
N918 S917 1.613 . S
N918 C921 1.350 . S
N919 S917 1.610 . S
N919 C920 1.351 . S
C920 C914 1.428 . S
C920 N919 1.351 . S
C920 C921 1.434 . S
C921 C912 1.429 1_455 S
C921 N918 1.350 . S
C921 C920 1.434 . S
C922 C923 1.369 1_554 S
C922 C924 1.419 . S
C922 H926 0.930 . S
C923 C922 1.369 1_556 S
C923 C932 1.429 1_455 S
C924 C922 1.419 . S
C924 C925 1.363 1_455 S
C924 H927 0.929 . S
C925 C924 1.363 1_655 S
C925 C931 1.428 1_554 S
H926 C922 0.930 . S
H927 C924 0.929 . S
S928 N929 1.613 . S
S928 N930 1.610 . S
N929 S928 1.613 . S
N929 C932 1.350 . S
N930 S928 1.610 . S
N930 C931 1.351 . S
C931 C925 1.428 1_556 S
C931 N930 1.351 . S
C931 C932 1.434 . S
C932 C923 1.429 1_655 S
C932 N929 1.350 . S
C932 C931 1.434 . S
C933 C934 1.369 . S
C933 C935 1.419 . S
C933 H937 0.930 . S
C934 C933 1.369 . S
C934 C943 1.429 . S
C935 C933 1.419 . S
C935 C936 1.363 . S
C935 H938 0.929 . S
C936 C935 1.363 . S
C936 C942 1.428 . S
H937 C933 0.930 . S
H938 C935 0.929 . S
S939 N940 1.613 . S
S939 N941 1.610 . S
N940 S939 1.613 . S
N940 C943 1.350 . S
N941 S939 1.610 . S
N941 C942 1.351 . S
C942 C936 1.428 . S
C942 N941 1.351 . S
C942 C943 1.434 . S
C943 C934 1.429 . S
C943 N940 1.350 . S
C943 C942 1.434 . S
C944 C945 1.369 . S
C944 C946 1.419 . S
C944 H948 0.930 . S
C945 C944 1.369 . S
C945 C954 1.429 . S
C946 C944 1.419 . S
C946 C947 1.363 . S
C946 H949 0.929 . S
C947 C946 1.363 . S
C947 C953 1.428 . S
H948 C944 0.930 . S
H949 C946 0.929 . S
S950 N951 1.613 . S
S950 N952 1.610 . S
N951 S950 1.613 . S
N951 C954 1.350 . S
N952 S950 1.610 . S
N952 C953 1.351 . S
C953 C947 1.428 . S
C953 N952 1.351 . S
C953 C954 1.434 . S
C954 C945 1.429 . S
C954 N951 1.350 . S
C954 C953 1.434 . S
C955 C956 1.369 . S
C955 C957 1.419 . S
C955 H959 0.930 . S
C956 C955 1.369 . S
C956 C965 1.429 . S
C957 C955 1.419 . S
C957 C958 1.363 . S
C957 H960 0.929 . S
C958 C957 1.363 . S
C958 C964 1.428 . S
H959 C955 0.930 . S
H960 C957 0.929 . S
S961 N962 1.613 . S
S961 N963 1.610 . S
N962 S961 1.613 . S
N962 C965 1.350 . S
N963 S961 1.610 . S
N963 C964 1.351 . S
C964 C958 1.428 . S
C964 N963 1.351 . S
C964 C965 1.434 . S
C965 C956 1.429 . S
C965 N962 1.350 . S
C965 C964 1.434 . S
C966 C967 1.369 . S
C966 C968 1.419 . S
C966 H970 0.930 . S
C967 C966 1.369 . S
C967 C976 1.429 . S
C968 C966 1.419 . S
C968 C969 1.363 . S
C968 H971 0.929 . S
C969 C968 1.363 . S
C969 C975 1.428 . S
H970 C966 0.930 . S
H971 C968 0.929 . S
S972 N973 1.613 . S
S972 N974 1.610 . S
N973 S972 1.613 . S
N973 C976 1.350 . S
N974 S972 1.610 . S
N974 C975 1.351 . S
C975 C969 1.428 . S
C975 N974 1.351 . S
C975 C976 1.434 . S
C976 C967 1.429 . S
C976 N973 1.350 . S
C976 C975 1.434 . S
C977 C978 1.369 . S
C977 C979 1.419 . S
C977 H981 0.930 . S
C978 C977 1.369 . S
C978 C987 1.429 . S
C979 C977 1.419 . S
C979 C980 1.363 . S
C979 H982 0.929 . S
C980 C979 1.363 . S
C980 C986 1.428 . S
H981 C977 0.930 . S
H982 C979 0.929 . S
S983 N984 1.613 . S
S983 N985 1.610 . S
N984 S983 1.613 . S
N984 C987 1.350 . S
N985 S983 1.610 . S
N985 C986 1.351 . S
C986 C980 1.428 . S
C986 N985 1.351 . S
C986 C987 1.434 . S
C987 C978 1.429 . S
C987 N984 1.350 . S
C987 C986 1.434 . S
C988 C989 1.369 . S
C988 C990 1.419 . S
C988 H992 0.930 . S
C989 C988 1.369 . S
C989 C998 1.429 . S
C990 C988 1.419 . S
C990 C991 1.363 . S
C990 H993 0.929 . S
C991 C990 1.363 . S
C991 C997 1.428 . S
H992 C988 0.930 . S
H993 C990 0.929 . S
S994 N995 1.613 . S
S994 N996 1.610 . S
N995 S994 1.613 . S
N995 C998 1.350 . S
N996 S994 1.610 . S
N996 C997 1.351 . S
C997 C991 1.428 . S
C997 N996 1.351 . S
C997 C998 1.434 . S
C998 C989 1.429 . S
C998 N995 1.350 . S
C998 C997 1.434 . S
C999 C1000 1.369 . S
C999 C1001 1.419 . S
C999 H1003 0.930 . S
C1000 C999 1.369 . S
C1000 C1009 1.429 . S
C1001 C999 1.419 . S
C1001 C1002 1.363 . S
C1001 H1004 0.929 . S
C1002 C1001 1.363 . S
C1002 C1008 1.428 . S
H1003 C999 0.930 . S
H1004 C1001 0.929 . S
S1005 N1006 1.613 . S
S1005 N1007 1.610 . S
N1006 S1005 1.613 . S
N1006 C1009 1.350 . S
N1007 S1005 1.610 . S
N1007 C1008 1.351 . S
C1008 C1002 1.428 . S
C1008 N1007 1.351 . S
C1008 C1009 1.434 . S
C1009 C1000 1.429 . S
C1009 N1006 1.350 . S
C1009 C1008 1.434 . S
C1010 C1011 1.369 . S
C1010 C1012 1.419 . S
C1010 H1014 0.930 . S
C1011 C1010 1.369 . S
C1011 C1020 1.429 . S
C1012 C1010 1.419 . S
C1012 C1013 1.363 . S
C1012 H1015 0.929 . S
C1013 C1012 1.363 . S
C1013 C1019 1.428 . S
H1014 C1010 0.930 . S
H1015 C1012 0.929 . S
S1016 N1017 1.613 . S
S1016 N1018 1.610 . S
N1017 S1016 1.613 . S
N1017 C1020 1.350 . S
N1018 S1016 1.610 . S
N1018 C1019 1.351 . S
C1019 C1013 1.428 . S
C1019 N1018 1.351 . S
C1019 C1020 1.434 . S
C1020 C1011 1.429 . S
C1020 N1017 1.350 . S
C1020 C1019 1.434 . S
C1021 C1022 1.369 . S
C1021 C1023 1.419 . S
C1021 H1025 0.930 . S
C1022 C1021 1.369 . S
C1022 C1031 1.429 . S
C1023 C1021 1.419 . S
C1023 C1024 1.363 . S
C1023 H1026 0.929 . S
C1024 C1023 1.363 . S
C1024 C1030 1.428 . S
H1025 C1021 0.930 . S
H1026 C1023 0.929 . S
S1027 N1028 1.613 . S
S1027 N1029 1.610 . S
N1028 S1027 1.613 . S
N1028 C1031 1.350 . S
N1029 S1027 1.610 . S
N1029 C1030 1.351 . S
C1030 C1024 1.428 . S
C1030 N1029 1.351 . S
C1030 C1031 1.434 . S
C1031 C1022 1.429 . S
C1031 N1028 1.350 . S
C1031 C1030 1.434 . S
C1032 C1033 1.369 . S
C1032 C1034 1.419 . S
C1032 H1036 0.930 . S
C1033 C1032 1.369 . S
C1033 C1042 1.429 . S
C1034 C1032 1.419 . S
C1034 C1035 1.363 . S
C1034 H1037 0.929 . S
C1035 C1034 1.363 . S
C1035 C1041 1.428 . S
H1036 C1032 0.930 . S
H1037 C1034 0.929 . S
S1038 N1039 1.613 . S
S1038 N1040 1.610 . S
N1039 S1038 1.613 . S
N1039 C1042 1.350 . S
N1040 S1038 1.610 . S
N1040 C1041 1.351 . S
C1041 C1035 1.428 . S
C1041 N1040 1.351 . S
C1041 C1042 1.434 . S
C1042 C1033 1.429 . S
C1042 N1039 1.350 . S
C1042 C1041 1.434 . S
C1043 C1044 1.369 . S
C1043 C1045 1.419 . S
C1043 H1047 0.930 . S
C1044 C1043 1.369 . S
C1044 C1053 1.429 . S
C1045 C1043 1.419 . S
C1045 C1046 1.363 . S
C1045 H1048 0.929 . S
C1046 C1045 1.363 . S
C1046 C1052 1.428 . S
H1047 C1043 0.930 . S
H1048 C1045 0.929 . S
S1049 N1050 1.613 . S
S1049 N1051 1.610 . S
N1050 S1049 1.613 . S
N1050 C1053 1.350 . S
N1051 S1049 1.610 . S
N1051 C1052 1.351 . S
C1052 C1046 1.428 . S
C1052 N1051 1.351 . S
C1052 C1053 1.434 . S
C1053 C1044 1.429 . S
C1053 N1050 1.350 . S
C1053 C1052 1.434 . S
C1054 C1055 1.369 . S
C1054 C1056 1.419 . S
C1054 H1058 0.930 . S
C1055 C1054 1.369 . S
C1055 C1064 1.429 . S
C1056 C1054 1.419 . S
C1056 C1057 1.363 . S
C1056 H1059 0.929 . S
C1057 C1056 1.363 . S
C1057 C1063 1.428 . S
H1058 C1054 0.930 . S
H1059 C1056 0.929 . S
S1060 N1061 1.613 . S
S1060 N1062 1.610 . S
N1061 S1060 1.613 . S
N1061 C1064 1.350 . S
N1062 S1060 1.610 . S
N1062 C1063 1.351 . S
C1063 C1057 1.428 . S
C1063 N1062 1.351 . S
C1063 C1064 1.434 . S
C1064 C1055 1.429 . S
C1064 N1061 1.350 . S
C1064 C1063 1.434 . S
C1065 C1066 1.369 . S
C1065 C1067 1.419 . S
C1065 H1069 0.930 . S
C1066 C1065 1.369 . S
C1066 C1075 1.429 . S
C1067 C1065 1.419 . S
C1067 C1068 1.363 . S
C1067 H1070 0.929 . S
C1068 C1067 1.363 . S
C1068 C1074 1.428 . S
H1069 C1065 0.930 . S
H1070 C1067 0.929 . S
S1071 N1072 1.613 . S
S1071 N1073 1.610 . S
N1072 S1071 1.613 . S
N1072 C1075 1.350 . S
N1073 S1071 1.610 . S
N1073 C1074 1.351 . S
C1074 C1068 1.428 . S
C1074 N1073 1.351 . S
C1074 C1075 1.434 . S
C1075 C1066 1.429 . S
C1075 N1072 1.350 . S
C1075 C1074 1.434 . S
C1076 C1077 1.369 . S
C1076 C1078 1.419 . S
C1076 H1080 0.930 . S
C1077 C1076 1.369 . S
C1077 C1086 1.429 . S
C1078 C1076 1.419 . S
C1078 C1079 1.363 . S
C1078 H1081 0.929 . S
C1079 C1078 1.363 . S
C1079 C1085 1.428 . S
H1080 C1076 0.930 . S
H1081 C1078 0.929 . S
S1082 N1083 1.613 . S
S1082 N1084 1.610 . S
N1083 S1082 1.613 . S
N1083 C1086 1.350 . S
N1084 S1082 1.610 . S
N1084 C1085 1.351 . S
C1085 C1079 1.428 . S
C1085 N1084 1.351 . S
C1085 C1086 1.434 . S
C1086 C1077 1.429 . S
C1086 N1083 1.350 . S
C1086 C1085 1.434 . S
C1087 C1088 1.369 . S
C1087 C1089 1.419 . S
C1087 H1091 0.930 . S
C1088 C1087 1.369 . S
C1088 C1097 1.429 . S
C1089 C1087 1.419 . S
C1089 C1090 1.363 . S
C1089 H1092 0.929 . S
C1090 C1089 1.363 . S
C1090 C1096 1.428 . S
H1091 C1087 0.930 . S
H1092 C1089 0.929 . S
S1093 N1094 1.613 . S
S1093 N1095 1.610 . S
N1094 S1093 1.613 . S
N1094 C1097 1.350 . S
N1095 S1093 1.610 . S
N1095 C1096 1.351 . S
C1096 C1090 1.428 . S
C1096 N1095 1.351 . S
C1096 C1097 1.434 . S
C1097 C1088 1.429 . S
C1097 N1094 1.350 . S
C1097 C1096 1.434 . S
C1098 C1099 1.369 . S
C1098 C1100 1.419 . S
C1098 H1102 0.930 . S
C1099 C1098 1.369 . S
C1099 C1108 1.429 . S
C1100 C1098 1.419 . S
C1100 C1101 1.363 . S
C1100 H1103 0.929 . S
C1101 C1100 1.363 . S
C1101 C1107 1.428 . S
H1102 C1098 0.930 . S
H1103 C1100 0.929 . S
S1104 N1105 1.613 . S
S1104 N1106 1.610 . S
N1105 S1104 1.613 . S
N1105 C1108 1.350 . S
N1106 S1104 1.610 . S
N1106 C1107 1.351 . S
C1107 C1101 1.428 . S
C1107 N1106 1.351 . S
C1107 C1108 1.434 . S
C1108 C1099 1.429 . S
C1108 N1105 1.350 . S
C1108 C1107 1.434 . S
C1109 C1110 1.369 . S
C1109 C1111 1.419 . S
C1109 H1113 0.930 . S
C1110 C1109 1.369 . S
C1110 C1119 1.429 . S
C1111 C1109 1.419 . S
C1111 C1112 1.363 . S
C1111 H1114 0.929 . S
C1112 C1111 1.363 . S
C1112 C1118 1.428 . S
H1113 C1109 0.930 . S
H1114 C1111 0.929 . S
S1115 N1116 1.613 . S
S1115 N1117 1.610 . S
N1116 S1115 1.613 . S
N1116 C1119 1.350 . S
N1117 S1115 1.610 . S
N1117 C1118 1.351 . S
C1118 C1112 1.428 . S
C1118 N1117 1.351 . S
C1118 C1119 1.434 . S
C1119 C1110 1.429 . S
C1119 N1116 1.350 . S
C1119 C1118 1.434 . S
C417 C122 1.009 . S
C419 C10 1.112 . S
C428 C23 1.115 . S
C430 C343 1.017 . S
C439 C148 0.999 . S
C441 C36 1.114 . S
C450 C317 1.009 . S
C452 C49 1.112 . S
C461 C62 1.115 . S
C463 C200 1.008 . S
C472 C369 1.019 . S
C474 C75 1.114 . S
C483 C88 1.115 . S
C485 C174 1.016 . S
C494 C395 1.013 . S
C496 C101 1.112 . S
C505 C18 1.011 . S
C507 C114 1.112 . S
C516 C127 1.115 . S
C518 C239 1.004 . S
C527 C44 1.006 . S
C529 C140 1.115 . S
C538 C153 1.114 . S
C540 C213 1.017 . S
C549 C166 1.115 . S
C551 C96 1.006 . S
C560 C265 1.004 . S
C562 C179 1.115 . S
C571 C192 1.115 . S
C573 C70 1.006 . S
C582 C291 1.003 . S
C584 C205 1.112 . S
C593 C330 1.007 . S
C595 C218 1.115 . S
C604 C135 1.012 . S
C606 C231 1.112 . S
C615 C244 1.115 . S
C617 C356 1.014 . S
C626 C109 1.017 . S
C628 C257 1.115 . S
C637 C408 1.008 . S
C639 C270 1.112 . S
C648 C283 1.114 . S
C650 C161 1.017 . S
C659 C382 0.998 . S
C661 C296 1.113 . S
C670 C187 1.010 . S
C672 C309 1.115 . S
C681 C226 1.013 . S
C683 C322 1.115 . S
C692 C335 1.114 . S
C694 C31 1.001 . S
C703 C348 1.112 . S
C705 C252 1.001 . S
C714 C361 1.116 . S
C716 C5 1.010 . S
C725 C304 1.004 . S
C727 C374 1.112 . S
C736 C387 1.112 . S
C738 C57 1.002 . S
C747 C400 1.111 . S
C749 C278 1.005 . S
C758 C413 1.115 . S
C760 C83 1.006 . S
C769 C312 1.321 . S
C771 C0 1.312 . S
C780 C13 1.310 . S
C782 C117 1.320 . S
C791 C26 1.323 . S
C793 C338 1.310 . S
C802 C39 1.319 . S
C804 C143 1.313 . S
C813 C52 1.312 . S
C815 C364 1.319 . S
C824 C65 1.322 . S
C826 C169 1.311 . S
C835 C390 1.322 . S
C837 C78 1.311 . S
C846 C91 1.317 . S
C848 C195 1.314 . S
C857 C104 1.309 . S
C859 C208 1.321 . S
C868 C130 1.311 . S
C870 C234 1.319 . S
C879 C260 1.320 . S
C881 C156 1.313 . S
C890 C286 1.317 . S
C892 C182 1.315 . S
C901 C221 1.310 . S
C903 C325 1.320 . S
C912 C351 1.310 . S
C914 C247 1.320 . S
C923 C273 1.315 . S
C925 C377 1.317 . S
C934 C403 1.317 . S
C936 C299 1.314 . S
C945 C281 1.593 . S
C947 C8 1.590 . S
C956 C294 1.593 . S
C958 C21 1.593 . S
C967 C34 1.591 . S
C969 C307 1.592 . S
C978 C268 1.586 . S
C980 C47 1.596 . S
C989 C255 1.587 . S
C991 C60 1.595 . S
C1000 C216 1.598 . S
C1002 C73 1.588 . S
C1011 C86 1.587 . S
C1013 C229 1.596 . S
C1022 C242 1.587 . S
C1024 C99 1.597 . S
C1033 C385 1.587 . S
C1035 C112 1.596 . S
C1044 C398 1.590 . S
C1046 C125 1.595 . S
C1055 C411 1.593 . S
C1057 C138 1.592 . S
C1066 C151 1.593 . S
C1068 C372 1.591 . S
C1077 C359 1.595 . S
C1079 C164 1.589 . S
C1088 C320 1.596 . S
C1090 C177 1.590 . S
C1099 C333 1.598 . S
C1101 C190 1.588 . S
C1110 C346 1.593 . S
C1112 C203 1.592 . S
