# Generated by pormake.
# Topology wme, (6)-cn, num edge types: 1
# Building blocks:
#     Node 0, Type 0, BuildingBlock: PAMTOO_clean_sbu_0, # of connection points: 6
#     Node 1, Type 0, BuildingBlock: PAMTOO_clean_sbu_0, # of connection points: 6
#     Node 2, Type 0, BuildingBlock: PAMTOO_clean_sbu_0, # of connection points: 6
#     Node 3, Type 0, BuildingBlock: PAMTOO_clean_sbu_0, # of connection points: 6
#     Node 4, Type 0, BuildingBlock: PAMTOO_clean_sbu_0, # of connection points: 6
#     Node 5, Type 0, BuildingBlock: PAMTOO_clean_sbu_0, # of connection points: 6
#     Node 6, Type 0, BuildingBlock: PAMTOO_clean_sbu_0, # of connection points: 6
#     Node 7, Type 0, BuildingBlock: PAMTOO_clean_sbu_0, # of connection points: 6
#     Node 8, Type 0, BuildingBlock: PAMTOO_clean_sbu_0, # of connection points: 6
#     Node 9, Type 0, BuildingBlock: PAMTOO_clean_sbu_0, # of connection points: 6
#     Node 10, Type 0, BuildingBlock: PAMTOO_clean_sbu_0, # of connection points: 6
#     Node 11, Type 0, BuildingBlock: PAMTOO_clean_sbu_0, # of connection points: 6
#     Edge 12, Type (0, 0), BuildingBlock: XIVTED_clean_linker_0, # of connection points: 2
#     Edge 13, Type (0, 0), BuildingBlock: XIVTED_clean_linker_0, # of connection points: 2
#     Edge 14, Type (0, 0), BuildingBlock: XIVTED_clean_linker_0, # of connection points: 2
#     Edge 15, Type (0, 0), BuildingBlock: XIVTED_clean_linker_0, # of connection points: 2
#     Edge 16, Type (0, 0), BuildingBlock: XIVTED_clean_linker_0, # of connection points: 2
#     Edge 17, Type (0, 0), BuildingBlock: XIVTED_clean_linker_0, # of connection points: 2
#     Edge 18, Type (0, 0), BuildingBlock: XIVTED_clean_linker_0, # of connection points: 2
#     Edge 19, Type (0, 0), BuildingBlock: XIVTED_clean_linker_0, # of connection points: 2
#     Edge 20, Type (0, 0), BuildingBlock: XIVTED_clean_linker_0, # of connection points: 2
#     Edge 21, Type (0, 0), BuildingBlock: XIVTED_clean_linker_0, # of connection points: 2
#     Edge 22, Type (0, 0), BuildingBlock: XIVTED_clean_linker_0, # of connection points: 2
#     Edge 23, Type (0, 0), BuildingBlock: XIVTED_clean_linker_0, # of connection points: 2
#     Edge 24, Type (0, 0), BuildingBlock: XIVTED_clean_linker_0, # of connection points: 2
#     Edge 25, Type (0, 0), BuildingBlock: XIVTED_clean_linker_0, # of connection points: 2
#     Edge 26, Type (0, 0), BuildingBlock: XIVTED_clean_linker_0, # of connection points: 2
#     Edge 27, Type (0, 0), BuildingBlock: XIVTED_clean_linker_0, # of connection points: 2
#     Edge 28, Type (0, 0), BuildingBlock: XIVTED_clean_linker_0, # of connection points: 2
#     Edge 29, Type (0, 0), BuildingBlock: XIVTED_clean_linker_0, # of connection points: 2
#     Edge 30, Type (0, 0), BuildingBlock: XIVTED_clean_linker_0, # of connection points: 2
#     Edge 31, Type (0, 0), BuildingBlock: XIVTED_clean_linker_0, # of connection points: 2
#     Edge 32, Type (0, 0), BuildingBlock: XIVTED_clean_linker_0, # of connection points: 2
#     Edge 33, Type (0, 0), BuildingBlock: XIVTED_clean_linker_0, # of connection points: 2
#     Edge 34, Type (0, 0), BuildingBlock: XIVTED_clean_linker_0, # of connection points: 2
#     Edge 35, Type (0, 0), BuildingBlock: XIVTED_clean_linker_0, # of connection points: 2
#     Edge 36, Type (0, 0), BuildingBlock: XIVTED_clean_linker_0, # of connection points: 2
#     Edge 37, Type (0, 0), BuildingBlock: XIVTED_clean_linker_0, # of connection points: 2
#     Edge 38, Type (0, 0), BuildingBlock: XIVTED_clean_linker_0, # of connection points: 2
#     Edge 39, Type (0, 0), BuildingBlock: XIVTED_clean_linker_0, # of connection points: 2
#     Edge 40, Type (0, 0), BuildingBlock: XIVTED_clean_linker_0, # of connection points: 2
#     Edge 41, Type (0, 0), BuildingBlock: XIVTED_clean_linker_0, # of connection points: 2
#     Edge 42, Type (0, 0), BuildingBlock: XIVTED_clean_linker_0, # of connection points: 2
#     Edge 43, Type (0, 0), BuildingBlock: XIVTED_clean_linker_0, # of connection points: 2
#     Edge 44, Type (0, 0), BuildingBlock: XIVTED_clean_linker_0, # of connection points: 2
#     Edge 45, Type (0, 0), BuildingBlock: XIVTED_clean_linker_0, # of connection points: 2
#     Edge 46, Type (0, 0), BuildingBlock: XIVTED_clean_linker_0, # of connection points: 2
#     Edge 47, Type (0, 0), BuildingBlock: XIVTED_clean_linker_0, # of connection points: 2
# Relax obj value: 0.088
# Max RMSD: 0.202
# Mean RMSD: 0.202
data_MOF--net-wme--node1-PAMTOO_clean_sbu_0--edge1-XIVTED_clean_linker_0
_symmetry_space_group_name_H-M    P1
_symmetry_Int_Tables_number       1
_symmetry_cell_setting            triclinic
loop_
_symmetry_equiv_pos_as_xyz
'x, y, z'
_cell_length_a     40.380893
_cell_length_b     40.442432
_cell_length_c     53.494534
_cell_angle_alpha  89.380791
_cell_angle_beta   90.308095
_cell_angle_gamma 120.02136
loop_
_atom_site_label
_atom_site_type_symbol
_atom_site_fract_x
_atom_site_fract_y
_atom_site_fract_z
_atom_type_partial_charge
Dy0 Dy 0.2363 0.31756 0.12776 0.0
Dy1 Dy 0.19761 0.36737 0.1047 0.0
C2 C 0.23894 0.3353 0.07159 0.0
O3 O 0.28381 0.3783 0.13269 0.0
O4 O 0.25894 0.41062 0.11039 0.0
O5 O 0.26551 0.28683 0.1189 0.0
O6 O 0.24776 0.28691 0.15693 0.0
O7 O 0.20865 0.38439 0.14492 0.0
O8 O 0.21658 0.33532 0.16088 0.0
O9 O 0.15001 0.31333 0.11963 0.0
O10 O 0.17643 0.27528 0.11519 0.0
O11 O 0.14976 0.3769 0.10203 0.0
O12 O 0.19857 0.40819 0.0776 0.0
C13 C 0.2867 0.40988 0.123 0.0
O14 O 0.26099 0.34265 0.09098 0.0
O15 O 0.20599 0.33404 0.07413 0.0
C16 C 0.24646 0.23095 0.14275 0.0
C17 C 0.22121 0.15185 0.14252 0.0
C18 C 0.20066 0.16637 0.1296 0.0
C19 C 0.21315 0.20554 0.12973 0.0
C20 C 0.26643 0.21656 0.1562 0.0
C21 C 0.25393 0.17743 0.15615 0.0
C22 C 0.26178 0.27254 0.14133 0.0
C23 C 0.2128 0.36549 0.16374 0.0
C24 C 0.14637 0.27953 0.11744 0.0
C25 C 0.1631 0.43827 0.08879 0.0
C26 C 0.15291 0.50195 0.09557 0.0
C27 C 0.16663 0.4886 0.11524 0.0
C28 C 0.17174 0.45706 0.11187 0.0
C29 C 0.14964 0.45156 0.06917 0.0
C30 C 0.14458 0.48299 0.07248 0.0
C31 C 0.16579 0.40361 0.08504 0.0
H32 H 0.17559 0.14771 0.11872 0.0
H33 H 0.19732 0.2161 0.11918 0.0
H34 H 0.29212 0.23569 0.16643 0.0
H35 H 0.27009 0.16728 0.16671 0.0
H36 H 0.17373 0.50272 0.13317 0.0
H37 H 0.18211 0.44716 0.1273 0.0
H38 H 0.14247 0.43724 0.0513 0.0
H39 H 0.1334 0.49197 0.05703 0.0
Dy40 Dy 0.94014 0.23262 0.63325 0.0
Dy41 Dy 0.8574 0.20446 0.60308 0.0
C42 C 0.93415 0.22074 0.57374 0.0
O43 O 0.92979 0.2826 0.63217 0.0
O44 O 0.89752 0.26612 0.59519 0.0
O45 O 1.00056 0.27205 0.63823 0.0
O46 O 0.97128 0.22223 0.6623 0.0
O47 O 0.84772 0.21885 0.64182 0.0
O48 O 0.89748 0.21846 0.66309 0.0
O49 O 0.85269 0.1533 0.62274 0.0
O50 O 0.9161 0.17119 0.62269 0.0
O51 O 0.80374 0.16098 0.58694 0.0
O52 O 0.81925 0.22043 0.58553 0.0
C53 C 0.91569 0.29142 0.61262 0.0
O54 O 0.95493 0.23878 0.5932 0.0
O55 O 0.89635 0.20204 0.57392 0.0
C56 C 0.03418 0.2407 0.65065 0.0
C57 C 0.08917 0.21806 0.64303 0.0
C58 C 0.06309 0.21369 0.62401 0.0
C59 C 0.03575 0.22473 0.62785 0.0
C60 C 0.06021 0.24538 0.66962 0.0
C61 C 0.08744 0.23412 0.66587 0.0
C62 C 1.00423 0.25058 0.65516 0.0
C63 C 0.86563 0.21959 0.66262 0.0
C64 C 0.87987 0.14453 0.62397 0.0
C65 C 0.75281 0.17543 0.58884 0.0
C66 C 0.67694 0.15752 0.60037 0.0
C67 C 0.68643 0.1285 0.59887 0.0
C68 C 0.72394 0.13735 0.59316 0.0
C69 C 0.7431 0.20427 0.59008 0.0
C70 C 0.70584 0.19548 0.59583 0.0
C71 C 0.79236 0.18533 0.58169 0.0
H72 H 0.06325 0.20096 0.60633 0.0
H73 H 1.01548 0.22035 0.61314 0.0
H74 H 0.05925 0.25743 0.68741 0.0
H75 H 0.10732 0.23823 0.68081 0.0
H76 H 0.66497 0.09897 0.60233 0.0
H77 H 0.73025 0.11434 0.59203 0.0
H78 H 0.76429 0.23382 0.58636 0.0
H79 H 0.69953 0.21854 0.59623 0.0
Dy80 Dy 0.70437 0.92741 0.1269 0.0
Dy81 Dy 0.65449 0.84285 0.10132 0.0
C82 C 0.70494 0.91773 0.0694 0.0
O83 O 0.64786 0.92201 0.11492 0.0
O84 O 0.61119 0.85651 0.1154 0.0
O85 O 0.72826 0.98843 0.1236 0.0
O86 O 0.74196 0.96449 0.1558 0.0
O87 O 0.65217 0.83356 0.14302 0.0
O88 O 0.66403 0.89221 0.15684 0.0
O89 O 0.71576 0.85819 0.0996 0.0
O90 O 0.73518 0.89503 0.13448 0.0
O91 O 0.64725 0.78684 0.09567 0.0
O92 O 0.60893 0.80247 0.07754 0.0
C93 C 0.61416 0.89034 0.11531 0.0
O94 O 0.72714 0.92953 0.08897 0.0
O95 O 0.67065 0.88748 0.07098 0.0
C96 C 0.79217 0.02228 0.13898 0.0
C97 C 0.87162 0.07246 0.132 0.0
C98 C 0.84649 0.05998 0.11146 0.0
C99 C 0.80728 0.03508 0.11487 0.0
C100 C 0.81725 0.0346 0.1595 0.0
C101 C 0.85657 0.05927 0.15605 0.0
C102 C 0.75074 0.99537 0.14288 0.0
C103 C 0.65163 0.85577 0.16072 0.0
C104 C 0.73957 0.87326 0.11834 0.0
C105 C 0.5838 0.7378 0.08975 0.0
C106 C 0.52287 0.66535 0.10411 0.0
C107 C 0.53044 0.69835 0.11735 0.0
C108 C 0.56072 0.73425 0.11028 0.0
C109 C 0.57654 0.70508 0.07659 0.0
C110 C 0.5464 0.66919 0.08369 0.0
C111 C 0.61631 0.7751 0.08237 0.0
H112 H 0.8572 0.06927 0.09266 0.0
H113 H 0.78891 0.02581 0.09857 0.0
H114 H 0.8064 0.0251 0.17825 0.0
H115 H 0.87508 0.06866 0.17228 0.0
H116 H 0.51317 0.6964 0.13333 0.0
H117 H 0.56621 0.75919 0.12086 0.0
H118 H 0.59421 0.70728 0.06077 0.0
H119 H 0.5411 0.64453 0.07287 0.0
Dy120 Dy 0.79399 0.70211 0.63231 0.0
Dy121 Dy 0.83047 0.6529 0.60555 0.0
C122 C 0.80321 0.70322 0.57469 0.0
O123 O 0.74519 0.64126 0.63405 0.0
O124 O 0.76723 0.61513 0.60471 0.0
O125 O 0.75617 0.72561 0.63121 0.0
O126 O 0.79819 0.74169 0.66067 0.0
O127 O 0.8165 0.62855 0.64449 0.0
O128 O 0.80295 0.67155 0.66388 0.0
O129 O 0.8761 0.69966 0.6277 0.0
O130 O 0.85572 0.74232 0.62206 0.0
O131 O 0.87946 0.64618 0.59825 0.0
O132 O 0.82533 0.60849 0.58072 0.0
C133 C 0.74042 0.61272 0.61977 0.0
O134 O 0.77831 0.69444 0.59254 0.0
O135 O 0.83093 0.69512 0.57698 0.0
C136 C 0.78437 0.78882 0.6462 0.0
C137 C 0.80666 0.86694 0.64012 0.0
C138 C 0.82643 0.85142 0.62771 0.0
C139 C 0.81535 0.81274 0.63069 0.0
C140 C 0.76453 0.80403 0.65854 0.0
C141 C 0.77551 0.84263 0.65554 0.0
C142 C 0.7729 0.74826 0.65001 0.0
C143 C 0.80826 0.64203 0.6644 0.0
C144 C 0.88344 0.73497 0.62648 0.0
C145 C 0.86555 0.58224 0.59044 0.0
C146 C 0.87938 0.52021 0.59702 0.0
C147 C 0.90232 0.55521 0.60914 0.0
C148 C 0.89559 0.58585 0.60582 0.0
C149 C 0.84223 0.54708 0.5787 0.0
C150 C 0.84894 0.51649 0.58202 0.0
C151 C 0.86003 0.61545 0.58503 0.0
H152 H 0.85022 0.86906 0.61545 0.0
H153 H 0.831 0.8015 0.62094 0.0
H154 H 0.74065 0.78607 0.67067 0.0
H155 H 0.75993 0.85355 0.66568 0.0
H156 H 0.92627 0.5594 0.6206 0.0
H157 H 0.91447 0.61261 0.61496 0.0
H158 H 0.81903 0.54333 0.56659 0.0
H159 H 0.83022 0.48988 0.57268 0.0
Dy160 Dy 0.09239 0.78737 0.13398 0.0
Dy161 Dy 0.17503 0.8196 0.10333 0.0
C162 C 0.09689 0.80017 0.07512 0.0
O163 O 0.10458 0.73878 0.13339 0.0
O164 O 0.1375 0.75735 0.09655 0.0
O165 O 0.03195 0.74732 0.13828 0.0
O166 O 0.06028 0.79589 0.16286 0.0
O167 O 0.18702 0.80524 0.14179 0.0
O168 O 0.13465 0.79848 0.16378 0.0
O169 O 0.17869 0.86807 0.12492 0.0
O170 O 0.11519 0.84905 0.12376 0.0
O171 O 0.22854 0.86539 0.08818 0.0
O172 O 0.2129 0.80647 0.08301 0.0
C173 C 0.11975 0.73143 0.11402 0.0
O174 O 0.07823 0.77763 0.09392 0.0
O175 O 0.13428 0.82355 0.07586 0.0
C176 C 0.9975 0.7775 0.15056 0.0
C177 C 0.94157 0.79902 0.14253 0.0
C178 C 0.96927 0.80623 0.12415 0.0
C179 C 0.99708 0.79576 0.12819 0.0
C180 C 0.96989 0.77004 0.16888 0.0
C181 C 0.9422 0.78075 0.16494 0.0
C182 C 0.02761 0.76776 0.15529 0.0
C183 C 0.1682 0.80081 0.16277 0.0
C184 C 0.15107 0.87608 0.12612 0.0
C185 C 0.27948 0.85096 0.08718 0.0
C186 C 0.35558 0.86763 0.09712 0.0
C187 C 0.34681 0.89716 0.09502 0.0
C188 C 0.30923 0.88892 0.09008 0.0
C189 C 0.28838 0.82154 0.0891 0.0
C190 C 0.32577 0.82974 0.09403 0.0
C191 C 0.23986 0.84201 0.08077 0.0
H192 H 0.96994 0.82069 0.10684 0.0
H193 H 0.01856 0.80229 0.11397 0.0
H194 H 0.9699 0.75616 0.18632 0.0
H195 H 0.92108 0.77444 0.17936 0.0
H196 H 0.36891 0.92665 0.0974 0.0
H197 H 0.30351 0.91232 0.0884 0.0
H198 H 0.2665 0.792 0.08652 0.0
H199 H 0.3314 0.80624 0.09492 0.0
Dy200 Dy 0.32558 0.0883 0.63093 0.0
Dy201 Dy 0.37436 0.17426 0.6047 0.0
C202 C 0.32658 0.09824 0.57313 0.0
O203 O 0.38241 0.09508 0.61897 0.0
O204 O 0.41818 0.16075 0.61872 0.0
O205 O 0.30124 0.02721 0.62801 0.0
O206 O 0.2904 0.05118 0.66086 0.0
O207 O 0.37487 0.18205 0.64634 0.0
O208 O 0.36617 0.12423 0.66021 0.0
O209 O 0.31259 0.15649 0.60188 0.0
O210 O 0.293 0.1191 0.63703 0.0
O211 O 0.38079 0.23026 0.59945 0.0
O212 O 0.41964 0.21609 0.58106 0.0
C213 C 0.41577 0.12713 0.61889 0.0
O214 O 0.304 0.08534 0.59253 0.0
O215 O 0.3591 0.13082 0.57421 0.0
C216 C 0.23997 0.99265 0.64632 0.0
C217 C 0.16082 0.93934 0.64227 0.0
C218 C 0.17746 0.97373 0.62839 0.0
C219 C 0.21666 1.00011 0.6304 0.0
C220 C 0.22355 0.95872 0.66038 0.0
C221 C 0.18441 0.93235 0.65841 0.0
C222 C 0.28126 0.02015 0.64848 0.0
C223 C 0.37654 0.16007 0.66412 0.0
C224 C 0.28842 0.14069 0.62043 0.0
C225 C 0.44388 0.28066 0.5929 0.0
C226 C 0.505 0.35384 0.60549 0.0
C227 C 0.50078 0.32074 0.6175 0.0
C228 C 0.47043 0.2845 0.61133 0.0
C229 C 0.44773 0.31351 0.58108 0.0
C230 C 0.4779 0.34972 0.58731 0.0
C231 C 0.41167 0.24289 0.586 0.0
H232 H 0.16038 0.97996 0.61561 0.0
H233 H 0.22885 0.02626 0.61942 0.0
H234 H 0.24102 0.95259 0.6729 0.0
H235 H 0.17259 0.90657 0.66972 0.0
H236 H 0.52084 0.32284 0.63178 0.0
H237 H 0.46773 0.2595 0.62088 0.0
H238 H 0.42744 0.31115 0.56687 0.0
H239 H 0.48049 0.37442 0.57744 0.0
Dy240 Dy 0.72121 0.78749 0.36891 0.0
Dy241 Dy 0.67569 0.82766 0.39604 0.0
C242 C 0.72647 0.80034 0.42692 0.0
O243 O 0.65967 0.74003 0.36977 0.0
O244 O 0.63689 0.76487 0.39944 0.0
O245 O 0.74168 0.74724 0.36811 0.0
O246 O 0.7594 0.79108 0.33952 0.0
O247 O 0.64874 0.81155 0.35809 0.0
O248 O 0.69273 0.80036 0.33791 0.0
O249 O 0.72379 0.87168 0.37333 0.0
O250 O 0.76392 0.84816 0.37885 0.0
O251 O 0.6694 0.87745 0.40055 0.0
O252 O 0.6352 0.82677 0.42281 0.0
C253 C 0.63266 0.73672 0.38516 0.0
O254 O 0.71935 0.77567 0.40924 0.0
O255 O 0.71745 0.82741 0.42449 0.0
C256 C 0.80525 0.77544 0.35325 0.0
C257 C 0.88369 0.79927 0.35901 0.0
C258 C 0.8645 0.80883 0.37691 0.0
C259 C 0.82572 0.79721 0.37398 0.0
C260 C 0.82412 0.76565 0.33543 0.0
C261 C 0.86299 0.77749 0.33825 0.0
C262 C 0.76489 0.76465 0.34947 0.0
C263 C 0.66274 0.80491 0.33779 0.0
C264 C 0.75843 0.8769 0.37393 0.0
C265 C 0.60676 0.86425 0.4109 0.0
C266 C 0.54238 0.87355 0.40194 0.0
C267 C 0.53798 0.83693 0.40536 0.0
C268 C 0.56971 0.83232 0.40972 0.0
C269 C 0.61127 0.90079 0.40757 0.0
C270 C 0.57957 0.90542 0.40308 0.0
C271 C 0.64085 0.86029 0.41604 0.0
H272 H 0.87965 0.82598 0.39294 0.0
H273 H 0.8118 0.80561 0.38774 0.0
H274 H 0.80886 0.74909 0.31922 0.0
H275 H 0.87677 0.76931 0.32426 0.0
H276 H 0.50987 0.81167 0.40507 0.0
H277 H 0.56512 0.80372 0.41228 0.0
H278 H 0.63947 0.92592 0.40842 0.0
H279 H 0.58435 0.93402 0.40021 0.0
Dy280 Dy 0.93092 0.71137 0.86674 0.0
Dy281 Dy 0.84906 0.66041 0.89814 0.0
C282 C 0.9278 0.71875 0.92567 0.0
O283 O 0.91986 0.65096 0.86815 0.0
O284 O 0.88669 0.63552 0.90498 0.0
O285 O 0.99134 0.73244 0.86169 0.0
O286 O 0.96171 0.75214 0.83725 0.0
O287 O 0.83714 0.63307 0.86036 0.0
O288 O 0.88793 0.67971 0.83753 0.0
O289 O 0.84508 0.70603 0.87688 0.0
O290 O 0.90862 0.75016 0.87752 0.0
O291 O 0.79499 0.65195 0.9123 0.0
O292 O 0.81227 0.61034 0.92024 0.0
C293 C 0.905 0.62818 0.8877 0.0
O294 O 0.94627 0.71567 0.90665 0.0
O295 O 0.89036 0.70455 0.92525 0.0
C296 C 0.02453 0.79713 0.8488 0.0
C297 C 0.07973 0.87477 0.8561 0.0
C298 C 0.05235 0.85388 0.87468 0.0
C299 C 0.02492 0.8155 0.87101 0.0
C300 C 0.05176 0.81769 0.83026 0.0
C301 C 0.07911 0.85618 0.83385 0.0
C302 C 0.99479 0.75715 0.84451 0.0
C303 C 0.85525 0.64758 0.83913 0.0
C304 C 0.87277 0.74165 0.8757 0.0
C305 C 0.74542 0.5862 0.9158 0.0
C306 C 0.67051 0.52439 0.90661 0.0
C307 C 0.68005 0.56219 0.90083 0.0
C308 C 0.71709 0.59275 0.90535 0.0
C309 C 0.73559 0.54849 0.92195 0.0
C310 C 0.69879 0.51807 0.91735 0.0
C311 C 0.78465 0.61809 0.92138 0.0
H312 H 0.05165 0.8674 0.89188 0.0
H313 H 1.00375 0.80023 0.88541 0.0
H314 H 0.05176 0.80404 0.81295 0.0
H315 H 0.09999 0.87127 0.81928 0.0
H316 H 0.65907 0.56813 0.89247 0.0
H317 H 0.72347 0.62147 0.90066 0.0
H318 H 0.75639 0.54242 0.93047 0.0
H319 H 0.69236 0.48951 0.92255 0.0
Dy320 Dy 0.24997 0.92792 0.36955 0.0
Dy321 Dy 0.21443 0.84331 0.39705 0.0
C322 C 0.24207 0.92002 0.42759 0.0
O323 O 0.30101 0.92276 0.38202 0.0
O324 O 0.27219 0.8572 0.38414 0.0
O325 O 0.28674 0.98914 0.37135 0.0
O326 O 0.24958 0.9638 0.33942 0.0
O327 O 0.20793 0.8341 0.35542 0.0
O328 O 0.25615 0.8921 0.3411 0.0
O329 O 0.17004 0.8605 0.39941 0.0
O330 O 0.18633 0.89566 0.36338 0.0
O331 O 0.16537 0.78699 0.40228 0.0
O332 O 0.21817 0.8028 0.42196 0.0
C333 C 0.30302 0.89112 0.38326 0.0
O334 O 0.23236 0.93236 0.4078 0.0
O335 O 0.24231 0.8876 0.42713 0.0
C336 C 0.25792 0.02236 0.35393 0.0
C337 C 0.23259 0.07559 0.36019 0.0
C338 C 0.21362 0.03969 0.37224 0.0
C339 C 0.22622 0.01336 0.36917 0.0
C340 C 0.27645 0.05772 0.34151 0.0
C341 C 0.26392 0.08404 0.34457 0.0
C342 C 0.27209 0.99531 0.35124 0.0
C343 C 0.23176 0.85577 0.33769 0.0
C344 C 0.16078 0.87503 0.38045 0.0
C345 C 0.17954 0.73801 0.41025 0.0
C346 C 0.16973 0.66566 0.39833 0.0
C347 C 0.19752 0.69894 0.38594 0.0
C348 C 0.2023 0.73477 0.3918 0.0
C349 C 0.15166 0.70499 0.42249 0.0
C350 C 0.14675 0.66917 0.4166 0.0
C351 C 0.18377 0.77532 0.41659 0.0
H352 H 0.18968 0.03231 0.38457 0.0
H353 H 0.21152 0.98613 0.37893 0.0
H354 H 0.30082 0.0651 0.32957 0.0
H355 H 0.27885 0.1111 0.33467 0.0
H356 H 0.2154 0.69726 0.37158 0.0
H357 H 0.22371 0.75993 0.38193 0.0
H358 H 0.13371 0.70692 0.43672 0.0
H359 H 0.12545 0.64431 0.42674 0.0
Dy360 Dy 0.32108 0.2387 0.8745 0.0
Dy361 Dy 0.36805 0.20073 0.90175 0.0
C362 C 0.31685 0.22591 0.93201 0.0
O363 O 0.37768 0.28811 0.88761 0.0
O364 O 0.41296 0.2578 0.88836 0.0
O365 O 0.2995 0.2778 0.87669 0.0
O366 O 0.28585 0.24094 0.8446 0.0
O367 O 0.37112 0.19439 0.86018 0.0
O368 O 0.36227 0.24321 0.84573 0.0
O369 O 0.30634 0.15624 0.90267 0.0
O370 O 0.28849 0.17549 0.86733 0.0
O371 O 0.37512 0.15154 0.90715 0.0
O372 O 0.41082 0.20356 0.92756 0.0
C373 C 0.41095 0.2892 0.88817 0.0
O374 O 0.2959 0.21716 0.91188 0.0
O375 O 0.35053 0.22826 0.93141 0.0
C376 C 0.23744 0.25204 0.85958 0.0
C377 C 0.15888 0.22805 0.86472 0.0
C378 C 0.1786 0.22094 0.88387 0.0
C379 C 0.2174 0.23264 0.88128 0.0
C380 C 0.21792 0.25902 0.84036 0.0
C381 C 0.17897 0.24707 0.84286 0.0
C382 C 0.27834 0.26425 0.85672 0.0
C383 C 0.37314 0.21801 0.84226 0.0
C384 C 0.28311 0.14867 0.88363 0.0
C385 C 0.43809 0.16506 0.91653 0.0
C386 C 0.50127 0.15446 0.90725 0.0
C387 C 0.46437 0.12293 0.91092 0.0
C388 C 0.43324 0.12821 0.91557 0.0
C389 C 0.47481 0.19667 0.91276 0.0
C390 C 0.50603 0.19143 0.90825 0.0
C391 C 0.40458 0.16959 0.92186 0.0
H392 H 0.16391 0.20589 0.90078 0.0
H393 H 0.23174 0.22647 0.89623 0.0
H394 H 0.23281 0.27377 0.82342 0.0
H395 H 0.16475 0.25328 0.82785 0.0
H396 H 0.45935 0.09406 0.90994 0.0
H397 H 0.40522 0.10336 0.91841 0.0
H398 H 0.47955 0.22548 0.91342 0.0
H399 H 0.53402 0.21647 0.90593 0.0
Dy400 Dy 0.10966 0.31769 0.3794 0.0
Dy401 Dy 0.19715 0.36548 0.40273 0.0
C402 C 0.12292 0.33034 0.43518 0.0
O403 O 0.1231 0.37876 0.37525 0.0
O404 O 0.17994 0.40957 0.39765 0.0
O405 O 0.05058 0.28289 0.39021 0.0
O406 O 0.06579 0.29198 0.35097 0.0
O407 O 0.20396 0.38444 0.36255 0.0
O408 O 0.14709 0.33635 0.34611 0.0
O409 O 0.19234 0.31464 0.38429 0.0
O410 O 0.12825 0.27482 0.38916 0.0
O411 O 0.25361 0.3724 0.40672 0.0
O412 O 0.23767 0.40689 0.42865 0.0
C413 C 0.15186 0.40981 0.38512 0.0
O414 O 0.11145 0.34221 0.41623 0.0
O415 O 0.15448 0.32886 0.43265 0.0
C416 C 1.01291 0.23237 0.36328 0.0
C417 C 0.9618 0.15287 0.35978 0.0
C418 C 1.00161 0.16744 0.36087 0.0
C419 C 0.02694 0.20686 0.36264 0.0
C420 C 0.97343 0.21809 0.36191 0.0
C421 C 0.94814 0.17881 0.36019 0.0
C422 C 0.0386 0.27348 0.36733 0.0
C423 C 0.18129 0.36649 0.34354 0.0
C424 C 0.1628 0.28018 0.38544 0.0
C425 C 0.30269 0.43483 0.41597 0.0
C426 C 0.3751 0.49865 0.40452 0.0
C427 C 0.34115 0.49788 0.39715 0.0
C428 C 0.3053 0.46622 0.40273 0.0
C429 C 0.33639 0.43533 0.42315 0.0
C430 C 0.37222 0.46683 0.41746 0.0
C431 C 0.26532 0.40099 0.42197 0.0
H432 H 1.01321 0.14844 0.36037 0.0
H433 H 0.05739 0.21739 0.36388 0.0
H434 H 0.96207 0.2373 0.36272 0.0
H435 H 0.91775 0.16875 0.35988 0.0
H436 H 0.34229 0.52167 0.3869 0.0
H437 H 0.27966 0.46627 0.3967 0.0
H438 H 0.335 0.41131 0.43327 0.0
H439 H 0.39767 0.4666 0.42367 0.0
Dy440 Dy 0.79239 0.10094 0.87348 0.0
Dy441 Dy 0.82833 0.18639 0.89891 0.0
C442 C 0.80305 0.1109 0.93092 0.0
O443 O 0.74232 0.10719 0.88619 0.0
O444 O 0.77111 0.17269 0.88498 0.0
O445 O 0.75508 0.03994 0.87732 0.0
O446 O 0.7898 0.06345 0.84407 0.0
O447 O 0.83449 0.19539 0.85722 0.0
O448 O 0.78702 0.13662 0.84379 0.0
O449 O 0.87357 0.17018 0.90101 0.0
O450 O 0.85577 0.13217 0.86655 0.0
O451 O 0.87674 0.24302 0.90373 0.0
O452 O 0.82409 0.22607 0.92378 0.0
C453 C 0.74029 0.13881 0.88558 0.0
O454 O 0.81307 0.09862 0.91153 0.0
O455 O 0.79965 0.14151 0.92909 0.0
C456 C 0.7789 1.00343 0.85854 0.0
C457 C 0.80031 0.9467 0.8621 0.0
C458 C 0.82101 0.98147 0.87494 0.0
C459 C 0.81039 1.00954 0.87319 0.0
C460 C 0.75836 0.96906 0.84558 0.0
C461 C 0.76891 0.94099 0.84732 0.0
C462 C 0.76711 0.03251 0.85669 0.0
C463 C 0.81111 0.173 0.83972 0.0
C464 C 0.88202 0.15438 0.88268 0.0
C465 C 0.86345 0.29196 0.91388 0.0
C466 C 0.87566 0.36656 0.90568 0.0
C467 C 0.85773 0.33819 0.88734 0.0
C468 C 0.85164 0.30118 0.89142 0.0
C469 C 0.88146 0.32011 0.93208 0.0
C470 C 0.88755 0.35696 0.92805 0.0
C471 C 0.85852 0.25376 0.91863 0.0
H472 H 0.84504 0.98675 0.88671 0.0
H473 H 0.8266 0.03594 0.88337 0.0
H474 H 0.73407 0.96389 0.83409 0.0
H475 H 0.75265 0.91492 0.83684 0.0
H476 H 0.8479 0.34442 0.87 0.0
H477 H 0.83778 0.2798 0.87708 0.0
H478 H 0.89111 0.31366 0.94943 0.0
H479 H 0.90205 0.37808 0.94242 0.0
H480 H 0.22232 0.93898 0.13048 0.0
H481 H 0.14842 0.08895 0.14238 0.0
H482 H 0.10266 0.90555 0.12926 0.0
H483 H 0.2674 0.12027 0.13894 0.0
H484 H 0.13057 0.0217 0.1388 0.0
H485 H 0.23872 1.00529 0.13511 0.0
C486 C 0.1994 0.9455 0.13122 0.0
C487 C 0.16098 0.91646 0.12942 0.0
C488 C 0.16058 0.04332 0.1389 0.0
C489 C 0.17974 0.9929 0.13474 0.0
C490 C 0.17082 0.08179 0.14082 0.0
C491 C 0.20955 0.11055 0.14103 0.0
C492 C 0.18922 0.03339 0.13714 0.0
C493 C 0.23722 0.09928 0.1393 0.0
C494 C 0.20884 0.98353 0.13386 0.0
C495 C 0.13265 0.92692 0.13054 0.0
N496 N 0.22653 0.06175 0.13741 0.0
N497 N 0.1426 0.96427 0.1331 0.0
H498 H 0.23675 0.11979 0.65894 0.0
H499 H 0.13241 0.2278 0.60124 0.0
H500 H 0.26808 0.18102 0.58852 0.0
H501 H 0.1111 0.17978 0.67581 0.0
H502 H 0.17903 0.20687 0.59511 0.0
H503 H 0.18732 0.13731 0.66423 0.0
C504 C 0.23314 0.13671 0.64451 0.0
C505 C 0.25678 0.14903 0.62328 0.0
C506 C 0.16417 0.20089 0.61282 0.0
C507 C 0.20021 0.16927 0.62926 0.0
C508 C 0.13738 0.21268 0.6163 0.0
C509 C 0.11779 0.20562 0.6391 0.0
C510 C 0.17139 0.18165 0.63223 0.0
C511 C 0.12585 0.1863 0.65803 0.0
C512 C 0.20496 0.14682 0.64759 0.0
C513 C 0.25068 0.17094 0.60523 0.0
N514 N 0.15194 0.17495 0.65416 0.0
N515 N 0.22309 0.18037 0.60865 0.0
H516 H 0.93369 0.07207 0.15348 0.0
H517 H 0.08244 0.27941 0.10188 0.0
H518 H 0.90409 0.13641 0.10233 0.0
H519 H 0.1203 0.20448 0.13198 0.0
H520 H 1.01666 0.22738 0.10387 0.0
H521 H 1.00165 0.12006 0.14804 0.0
C522 C 0.94146 0.09623 0.1411 0.0
C523 C 0.91309 0.10025 0.12836 0.0
C524 C 0.03922 0.22204 0.1099 0.0
C525 C 0.99063 0.15512 0.12213 0.0
C526 C 0.07689 0.25185 0.10886 0.0
C527 C 0.10695 0.24637 0.11691 0.0
C528 C 0.03107 0.18632 0.11947 0.0
C529 C 0.09795 0.20988 0.12554 0.0
C530 C 0.98023 0.12341 0.13788 0.0
C531 C 0.92487 0.13189 0.11236 0.0
N532 N 0.06068 0.18125 0.12689 0.0
N533 N 0.96258 0.15815 0.10987 0.0
H534 H 0.8795 0.92933 0.63737 0.0
H535 H 0.80792 0.08175 0.62648 0.0
H536 H 0.76073 0.89904 0.63609 0.0
H537 H 0.92719 0.1137 0.62691 0.0
H538 H 0.79053 0.0148 0.63001 0.0
H539 H 0.8978 0.99671 0.63316 0.0
C540 C 0.85722 0.93673 0.63604 0.0
C541 C 0.81843 0.90822 0.63715 0.0
C542 C 0.82053 0.03639 0.62934 0.0
C543 C 0.83932 0.98566 0.63259 0.0
C544 C 0.83054 0.07478 0.62734 0.0
C545 C 0.86916 0.10364 0.6264 0.0
C546 C 0.84924 0.02646 0.63043 0.0
C547 C 0.89705 0.09255 0.62758 0.0
C548 C 0.86773 0.97531 0.63379 0.0
C549 C 0.79097 0.91985 0.6357 0.0
N550 N 0.88656 0.05491 0.62953 0.0
N551 N 0.80192 0.95752 0.63351 0.0
H552 H 0.90068 0.79247 0.09986 0.0
H553 H 0.78955 0.89184 0.15774 0.0
H554 H 0.91592 0.83254 0.17578 0.0
H555 H 0.7612 0.83463 0.08661 0.0
H556 H 0.83936 0.8748 0.16347 0.0
H557 H 0.85293 0.81212 0.0935 0.0
C558 C 0.89413 0.80558 0.11517 0.0
C559 C 0.91235 0.81078 0.13841 0.0
C560 C 0.82227 0.86603 0.1466 0.0
C561 C 0.85749 0.83328 0.13127 0.0
C562 C 0.79387 0.87586 0.14326 0.0
C563 C 0.771 0.8646 0.12167 0.0
C564 C 0.82809 0.84497 0.12815 0.0
C565 C 0.77798 0.84386 0.10359 0.0
C566 C 0.8667 0.81661 0.11156 0.0
C567 C 0.9023 0.82752 0.15764 0.0
N568 N 0.80585 0.83476 0.10723 0.0
N569 N 0.87566 0.83824 0.15363 0.0
H570 H 0.94606 0.72737 0.63414 0.0
H571 H 0.09931 0.95117 0.63711 0.0
H572 H 0.91346 0.81346 0.62487 0.0
H573 H 0.12737 0.86134 0.64118 0.0
H574 H 0.03148 0.90259 0.63309 0.0
H575 H 1.0124 0.7772 0.63773 0.0
C576 C 0.95276 0.75683 0.6329 0.0
C577 C 0.92387 0.76607 0.62918 0.0
C578 C 0.05254 0.8936 0.63489 0.0
C579 C 1.00074 0.82392 0.63328 0.0
C580 C 0.09133 0.92131 0.63705 0.0
C581 C 0.11931 0.91046 0.63965 0.0
C582 C 0.04157 0.85469 0.63528 0.0
C583 C 0.10702 0.87125 0.63972 0.0
C584 C 0.9909 0.78541 0.63492 0.0
C585 C 0.93472 0.80495 0.62773 0.0
N586 N 0.06926 0.84498 0.6376 0.0
N587 N 0.97232 0.83248 0.62978 0.0
H588 H 0.10311 0.84109 0.41489 0.0
H589 H 0.93992 0.82814 0.32308 0.0
H590 H 0.12655 0.88906 0.34027 0.0
H591 H 0.92202 0.79967 0.40167 0.0
H592 H 1.00772 0.8484 0.32836 0.0
H593 H 0.03636 0.82411 0.40988 0.0
C594 C 0.0943 0.8482 0.39745 0.0
C595 C 0.12061 0.8665 0.37795 0.0
C596 C 0.98898 0.83784 0.34446 0.0
C597 C 0.04377 0.84678 0.37202 0.0
C598 C 0.95019 0.826 0.34143 0.0
C599 C 0.92512 0.81207 0.36196 0.0
C600 C 1.00288 0.83545 0.36815 0.0
C601 C 0.94027 0.81052 0.38536 0.0
C602 C 0.05609 0.8385 0.39462 0.0
C603 C 0.10736 0.87503 0.35582 0.0
N604 N 0.97803 0.82186 0.38778 0.0
N605 N 0.06985 0.86489 0.3534 0.0
H606 H 0.10531 0.93432 0.82234 0.0
H607 H 0.25913 0.08823 0.91613 0.0
H608 H 0.1204 0.90877 0.89866 0.0
H609 H 0.23463 0.11814 0.8434 0.0
H610 H 0.20899 0.02227 0.90964 0.0
H611 H 0.15345 1.00133 0.82911 0.0
C612 C 0.11884 0.94274 0.84049 0.0
C613 C 0.10877 0.91575 0.85995 0.0
C614 C 0.21442 0.04323 0.89511 0.0
C615 C 0.16381 0.9926 0.86787 0.0
C616 C 0.24313 0.08101 0.8988 0.0
C617 C 0.25125 0.10892 0.88026 0.0
C618 C 0.19367 0.03296 0.87263 0.0
C619 C 0.22938 0.09768 0.85823 0.0
C620 C 0.14615 0.98108 0.84439 0.0
C621 C 0.1269 0.92854 0.88318 0.0
N622 N 0.20175 0.06056 0.85497 0.0
N623 N 0.15357 0.96591 0.88645 0.0
H624 H 0.11083 0.20221 0.38224 0.0
H625 H 0.27893 0.15243 0.36656 0.0
H626 H 0.23183 0.28418 0.38214 0.0
H627 H 0.1597 0.06548 0.36418 0.0
H628 H 0.26043 0.20032 0.37308 0.0
H629 H 0.12619 0.15086 0.37663 0.0
C630 C 0.14048 0.20945 0.38111 0.0
C631 C 0.17 0.24772 0.38259 0.0
C632 C 0.23813 0.17081 0.37112 0.0
C633 C 0.18771 0.18932 0.37621 0.0
C634 C 0.24876 0.14337 0.3672 0.0
C635 C 0.22091 0.10477 0.36454 0.0
C636 C 0.19921 0.15993 0.37244 0.0
C637 C 0.1822 0.09486 0.36624 0.0
C638 C 0.14923 0.18016 0.37788 0.0
C639 C 0.20792 0.25531 0.381 0.0
N640 N 0.17247 0.12226 0.37 0.0
N641 N 0.21554 0.22657 0.3779 0.0
H642 H 0.12273 0.23382 0.90628 0.0
H643 H 0.91406 0.13547 0.84406 0.0
H644 H 0.10101 0.19484 0.83001 0.0
H645 H 0.94151 0.19228 0.91532 0.0
H646 H 0.98108 0.15215 0.83965 0.0
H647 H 0.05515 0.21397 0.91097 0.0
C648 C 0.1037 0.22087 0.89054 0.0
C649 C 0.11766 0.21601 0.86771 0.0
C650 C 0.97236 0.16088 0.85626 0.0
C651 C 0.03999 0.19332 0.87292 0.0
C652 C 0.93406 0.15126 0.85884 0.0
C653 C 0.92204 0.16255 0.88007 0.0
C654 C 0.99883 0.18174 0.87512 0.0
C655 C 0.94936 0.18304 0.89858 0.0
C656 C 0.06511 0.20973 0.89319 0.0
C657 C 0.09164 0.19953 0.84787 0.0
N658 N 0.98635 0.19193 0.89567 0.0
N659 N 0.05409 0.18871 0.85095 0.0
H660 H 0.89478 0.11516 0.33327 0.0
H661 H 0.83476 0.90588 0.38534 0.0
H662 H 0.96598 0.09451 0.38416 0.0
H663 H 0.7563 0.93713 0.35247 0.0
H664 H 0.88676 0.97234 0.37985 0.0
H665 H 0.84741 0.04733 0.33481 0.0
C666 C 0.90052 0.09643 0.34482 0.0
C667 C 0.93434 0.1109 0.35889 0.0
C668 C 0.85815 0.96446 0.37377 0.0
C669 C 0.8801 0.03263 0.36044 0.0
C670 C 0.82853 0.92657 0.37681 0.0
C671 C 0.79106 0.91597 0.36953 0.0
C672 C 0.85025 0.99169 0.36305 0.0
C673 C 0.78462 0.94399 0.35859 0.0
C674 C 0.87345 0.05758 0.34559 0.0
C675 C 0.94047 0.08477 0.37291 0.0
N676 N 0.81381 0.9804 0.35571 0.0
N677 N 0.91353 0.04696 0.37344 0.0
H678 H 0.92179 0.81939 0.87303 0.0
H679 H 0.75272 0.86897 0.86548 0.0
H680 H 0.80169 0.7346 0.87282 0.0
H681 H 0.87238 0.95492 0.86367 0.0
H682 H 0.77054 0.81963 0.86825 0.0
H683 H 0.90473 0.86952 0.86975 0.0
C684 C 0.89185 0.81125 0.87225 0.0
C685 C 0.86317 0.77259 0.87321 0.0
C686 C 0.79296 0.84927 0.86724 0.0
C687 C 0.84343 0.82999 0.86951 0.0
C688 C 0.78279 0.87754 0.8655 0.0
C689 C 0.81104 0.91634 0.86421 0.0
C690 C 0.83176 0.85961 0.86772 0.0
C691 C 0.84955 0.9255 0.86487 0.0
C692 C 0.88213 0.83994 0.8704 0.0
C693 C 0.82486 0.76391 0.87213 0.0
N694 N 0.85875 0.8974 0.86653 0.0
N695 N 0.81617 0.7923 0.87037 0.0
H696 H 0.10063 0.67447 0.14964 0.0
H697 H 0.16869 0.55966 0.06204 0.0
H698 H 0.13888 0.70474 0.07329 0.0
H699 H 0.12451 0.52106 0.13647 0.0
H700 H 0.15728 0.61289 0.06658 0.0
H701 H 0.1075 0.61756 0.1458 0.0
C702 C 0.10998 0.66897 0.13202 0.0
C703 C 0.11927 0.69458 0.1118 0.0
C704 C 0.14995 0.59282 0.08197 0.0
C705 C 0.12763 0.62994 0.10738 0.0
C706 C 0.15634 0.5622 0.07934 0.0
C707 C 0.14732 0.53549 0.09881 0.0
C708 C 0.13444 0.59719 0.10431 0.0
C709 C 0.13221 0.54104 0.12101 0.0
C710 C 0.11411 0.63662 0.12989 0.0
C711 C 0.13154 0.68609 0.08948 0.0
N712 N 0.12618 0.57121 0.12315 0.0
N713 N 0.13548 0.65476 0.08795 0.0
H714 H 0.65513 0.19778 0.63034 0.0
H715 H 0.42975 0.06988 0.60388 0.0
H716 H 0.60793 0.09729 0.58433 0.0
H717 H 0.48529 0.1834 0.63454 0.0
H718 H 0.49253 0.07361 0.60161 0.0
H719 H 0.59089 0.18697 0.6372 0.0
C720 C 0.63126 0.17341 0.62162 0.0
C721 C 0.63723 0.1488 0.60638 0.0
C722 C 0.49078 0.09753 0.60897 0.0
C723 C 0.56293 0.13591 0.61443 0.0
C724 C 0.45498 0.09533 0.61038 0.0
C725 C 0.45225 0.12647 0.61924 0.0
C726 C 0.52387 0.13088 0.61678 0.0
C727 C 0.48593 0.15882 0.62732 0.0
C728 C 0.59445 0.16714 0.62564 0.0
C729 C 0.60482 0.11703 0.59623 0.0
N730 N 0.52012 0.16014 0.62587 0.0
N731 N 0.56909 0.11165 0.60027 0.0
H732 H 0.51944 0.59555 0.10568 0.0
H733 H 0.29351 0.47983 0.12586 0.0
H734 H 0.45073 0.64819 0.11801 0.0
H735 H 0.36119 0.42447 0.12582 0.0
H736 H 0.35183 0.54169 0.12483 0.0
H737 H 0.46322 0.53292 0.11424 0.0
C738 C 0.49259 0.59399 0.11024 0.0
C739 C 0.48983 0.62729 0.11097 0.0
C740 C 0.35417 0.51616 0.12527 0.0
C741 C 0.42543 0.55565 0.12092 0.0
C742 C 0.3208 0.48074 0.12583 0.0
C743 C 0.3225 0.44693 0.12572 0.0
C744 C 0.38981 0.5181 0.12421 0.0
C745 C 0.35864 0.44987 0.12595 0.0
C746 C 0.46059 0.55823 0.1153 0.0
C747 C 0.45442 0.62348 0.11741 0.0
N748 N 0.39096 0.48491 0.12484 0.0
N749 N 0.42367 0.58839 0.12191 0.0
H750 H 0.87507 0.47097 0.56052 0.0
H751 H 0.93322 0.34608 0.64893 0.0
H752 H 0.90345 0.49625 0.63849 0.0
H753 H 0.89985 0.3217 0.57156 0.0
H754 H 0.92714 0.40356 0.64541 0.0
H755 H 0.88757 0.41815 0.56429 0.0
C756 C 0.88368 0.46532 0.57854 0.0
C757 C 0.88776 0.48811 0.59927 0.0
C758 C 0.92146 0.38573 0.62919 0.0
C759 C 0.90288 0.4274 0.60366 0.0
C760 C 0.92517 0.35303 0.63114 0.0
C761 C 0.91696 0.32884 0.61054 0.0
C762 C 0.90956 0.39434 0.60645 0.0
C763 C 0.90631 0.33922 0.58802 0.0
C764 C 0.89114 0.43519 0.58063 0.0
C765 C 0.90006 0.47971 0.62193 0.0
N766 N 0.9028 0.37091 0.58665 0.0
N767 N 0.907 0.45 0.62355 0.0
H768 H 0.54561 0.83578 0.13358 0.0
H769 H 0.42413 0.9268 0.07907 0.0
H770 H 0.59974 0.94691 0.09811 0.0
H771 H 0.37838 0.82716 0.12709 0.0
H772 H 0.48854 0.93637 0.08588 0.0
H773 H 0.48446 0.83356 0.13131 0.0
C774 C 0.54468 0.85992 0.12539 0.0
C775 C 0.57796 0.89152 0.11589 0.0
C776 C 0.46438 0.91258 0.09502 0.0
C777 C 0.50722 0.88898 0.11299 0.0
C778 C 0.42755 0.90715 0.09124 0.0
C779 C 0.39546 0.8758 0.10227 0.0
C780 C 0.46922 0.88644 0.10989 0.0
C781 C 0.4019 0.8512 0.11768 0.0
C782 C 0.5096 0.85865 0.12414 0.0
C783 C 0.57484 0.92204 0.10572 0.0
N784 N 0.4378 0.85691 0.12086 0.0
N785 N 0.53998 0.91985 0.10427 0.0
H786 H 0.73433 0.54377 0.6131 0.0
H787 H 0.50663 0.42257 0.61035 0.0
H788 H 0.66575 0.59523 0.62956 0.0
H789 H 0.57972 0.37315 0.61306 0.0
H790 H 0.56297 0.48594 0.61666 0.0
H791 H 0.67694 0.4814 0.61242 0.0
C792 C 0.70705 0.54195 0.61657 0.0
C793 C 0.70486 0.57494 0.62113 0.0
C794 C 0.56654 0.46115 0.6161 0.0
C795 C 0.63836 0.50287 0.62027 0.0
C796 C 0.53445 0.42497 0.61234 0.0
C797 C 0.53835 0.39233 0.61105 0.0
C798 C 0.6029 0.46483 0.61831 0.0
C799 C 0.5751 0.39725 0.61412 0.0
C800 C 0.67419 0.50614 0.6163 0.0
C801 C 0.66871 0.57055 0.62593 0.0
N802 N 0.60581 0.4327 0.61737 0.0
N803 N 0.63672 0.53515 0.62508 0.0
H804 H 0.37434 0.95059 0.39673 0.0
H805 H 0.47765 0.82752 0.37464 0.0
H806 H 0.31721 0.83441 0.37056 0.0
H807 H 0.52918 0.93074 0.41818 0.0
H808 H 0.42144 0.83417 0.36846 0.0
H809 H 0.43426 0.94861 0.39991 0.0
C810 C 0.37444 0.92488 0.39142 0.0
C811 C 0.34058 0.89256 0.38352 0.0
C812 C 0.44506 0.85544 0.37936 0.0
C813 C 0.40885 0.89011 0.38704 0.0
C814 C 0.4772 0.85152 0.38306 0.0
C815 C 0.50836 0.87833 0.39723 0.0
C816 C 0.44376 0.88656 0.38972 0.0
C817 C 0.50615 0.90943 0.40697 0.0
C818 C 0.40856 0.92368 0.39337 0.0
C819 C 0.34242 0.85993 0.37699 0.0
N820 N 0.47444 0.91262 0.4031 0.0
N821 N 0.37579 0.85958 0.37889 0.0
H822 H 0.65208 0.45457 0.88781 0.0
H823 H 0.42405 0.36216 0.8978 0.0
H824 H 0.59988 0.51872 0.9133 0.0
H825 H 0.48228 0.30056 0.87949 0.0
H826 H 0.48668 0.42123 0.90056 0.0
H827 H 0.58881 0.39941 0.88165 0.0
C828 C 0.62728 0.45707 0.89222 0.0
C829 C 0.63153 0.49137 0.90141 0.0
C830 C 0.48556 0.39473 0.89584 0.0
C831 C 0.55823 0.42782 0.89413 0.0
C832 C 0.44983 0.36104 0.89419 0.0
C833 C 0.44774 0.32617 0.88856 0.0
C834 C 0.51933 0.39349 0.89165 0.0
C835 C 0.4822 0.32652 0.88411 0.0
C836 C 0.59099 0.42549 0.88857 0.0
C837 C 0.59807 0.49295 0.90613 0.0
N838 N 0.51628 0.35942 0.88579 0.0
N839 N 0.56285 0.46158 0.9026 0.0
H840 H 0.10355 0.59593 0.39421 0.0
H841 H 0.21536 0.48005 0.38645 0.0
H842 H 0.22639 0.64845 0.39025 0.0
H843 H 0.09275 0.42516 0.37865 0.0
H844 H 0.21904 0.54186 0.38678 0.0
H845 H 0.09805 0.5334 0.38785 0.0
C846 C 0.12937 0.59437 0.39197 0.0
C847 C 0.16554 0.62763 0.3929 0.0
C848 C 0.19126 0.51645 0.38482 0.0
C849 C 0.15936 0.55607 0.38549 0.0
C850 C 0.1891 0.481 0.38469 0.0
C851 C 0.15361 0.44725 0.38273 0.0
C852 C 0.15765 0.51853 0.38329 0.0
C853 C 0.12069 0.45044 0.38019 0.0
C854 C 0.12616 0.55866 0.38818 0.0
C855 C 0.19791 0.62381 0.38947 0.0
N856 N 0.12344 0.48548 0.38082 0.0
N857 N 0.19404 0.58877 0.38612 0.0
H858 H 0.72484 0.19288 0.86795 0.0
H859 H 0.51619 0.10003 0.92738 0.0
H860 H 0.6707 0.0821 0.90392 0.0
H861 H 0.56277 0.19602 0.87612 0.0
H862 H 0.57189 0.09267 0.91983 0.0
H863 H 0.66556 0.19433 0.87158 0.0
C864 C 0.70033 0.16867 0.87653 0.0
C865 C 0.70285 0.13737 0.88576 0.0
C866 C 0.56976 0.1152 0.91016 0.0
C867 C 0.63451 0.13905 0.89022 0.0
C868 C 0.53785 0.11939 0.91437 0.0
C869 C 0.53463 0.1489 0.90249 0.0
C870 C 0.59893 0.14084 0.89409 0.0
C871 C 0.56414 0.17336 0.88615 0.0
C872 C 0.66638 0.16951 0.87855 0.0
C873 C 0.66998 0.10674 0.89649 0.0
N874 N 0.59498 0.16889 0.88257 0.0
N875 N 0.63724 0.10851 0.89868 0.0
H876 H 0.44172 0.50173 0.38903 0.0
H877 H 0.56659 0.72797 0.40445 0.0
H878 H 0.39578 0.57398 0.40887 0.0
H879 H 0.61203 0.66384 0.36875 0.0
H880 H 0.50479 0.67041 0.40763 0.0
H881 H 0.5047 0.55895 0.38285 0.0
C882 C 0.44482 0.52957 0.39208 0.0
C883 C 0.41328 0.53296 0.39952 0.0
C884 C 0.5281 0.6687 0.39904 0.0
C885 C 0.4853 0.5985 0.39246 0.0
C886 C 0.56371 0.70169 0.39731 0.0
C887 C 0.59492 0.70089 0.38645 0.0
C888 C 0.52319 0.63409 0.39006 0.0
C889 C 0.58885 0.66584 0.37729 0.0
C890 C 0.48074 0.5622 0.3884 0.0
C891 C 0.419 0.56983 0.40288 0.0
N892 N 0.55371 0.63371 0.37945 0.0
N893 N 0.45421 0.60098 0.39949 0.0
H894 H 0.89233 0.58519 0.92983 0.0
H895 H 0.89701 0.41122 0.86272 0.0
H896 H 0.92003 0.58875 0.85169 0.0
H897 H 0.86778 0.41184 0.94013 0.0
H898 H 0.9076 0.47629 0.85785 0.0
H899 H 0.88693 0.52281 0.9337 0.0
C900 C 0.89762 0.57298 0.91345 0.0
C901 C 0.90656 0.59235 0.89035 0.0
C902 C 0.89898 0.46215 0.87589 0.0
C903 C 0.8999 0.51998 0.89464 0.0
C904 C 0.89265 0.42487 0.87866 0.0
C905 C 0.88163 0.40588 0.90193 0.0
C906 C 0.89415 0.48058 0.89652 0.0
C907 C 0.87688 0.42534 0.92195 0.0
C908 C 0.89441 0.53714 0.91568 0.0
C909 C 0.91325 0.57496 0.86988 0.0
N910 N 0.88313 0.4614 0.91876 0.0
N911 N 0.9095 0.5396 0.87245 0.0
H912 H 0.25183 0.39331 0.32207 0.0
H913 H 0.17258 0.39624 0.18494 0.0
H914 H 0.13767 0.37161 0.30702 0.0
H915 H 0.25861 0.36545 0.20069 0.0
H916 H 0.17166 0.40979 0.22963 0.0
H917 H 0.26653 0.40598 0.27718 0.0
C918 C 0.23025 0.39209 0.30938 0.0
C919 C 0.19335 0.38072 0.31794 0.0
C920 C 0.19117 0.4007 0.22311 0.0
C921 C 0.20984 0.39544 0.26719 0.0
C922 C 0.19169 0.39303 0.19774 0.0
C923 C 0.21504 0.37893 0.18943 0.0
C924 C 0.21472 0.39488 0.23993 0.0
C925 C 0.23953 0.37544 0.20659 0.0
C926 C 0.23853 0.39917 0.28388 0.0
C927 C 0.16626 0.37957 0.30092 0.0
N928 N 0.23857 0.3831 0.23109 0.0
N929 N 0.17493 0.38652 0.27628 0.0
H930 H 0.79189 0.17944 0.68018 0.0
H931 H 0.86533 0.24202 0.8201 0.0
H932 H 0.90624 0.26574 0.70044 0.0
H933 H 0.76118 0.13865 0.80109 0.0
H934 H 0.87265 0.2619 0.77619 0.0
H935 H 0.77251 0.17539 0.72419 0.0
C936 C 0.81253 0.19823 0.69378 0.0
C937 C 0.85074 0.22251 0.68697 0.0
C938 C 0.84792 0.2351 0.78173 0.0
C939 C 0.82917 0.21805 0.73687 0.0
C940 C 0.84372 0.22376 0.80679 0.0
C941 C 0.81312 0.18821 0.81417 0.0
C942 C 0.82131 0.21074 0.76397 0.0
C943 C 0.78573 0.16593 0.79614 0.0
C944 C 0.80162 0.19579 0.71884 0.0
C945 C 0.8766 0.24622 0.70516 0.0
N946 N 0.79073 0.17732 0.77181 0.0
N947 N 0.86547 0.24312 0.72933 0.0
H948 H 0.63704 0.78645 0.17972 0.0
H949 H 0.63096 0.84711 0.32061 0.0
H950 H 0.63801 0.88998 0.20007 0.0
H951 H 0.65622 0.75963 0.29904 0.0
H952 H 0.61543 0.85265 0.2768 0.0
H953 H 0.6261 0.76614 0.22356 0.0
C954 C 0.63442 0.80467 0.19331 0.0
C955 C 0.63934 0.84036 0.1863 0.0
C956 C 0.62368 0.83175 0.2818 0.0
C957 C 0.62687 0.81734 0.23645 0.0
C958 C 0.63229 0.82846 0.30677 0.0
C959 C 0.6455 0.8034 0.31322 0.0
C960 C 0.62806 0.80954 0.26345 0.0
C961 C 0.64681 0.77985 0.29466 0.0
C962 C 0.62821 0.79308 0.21835 0.0
C963 C 0.63522 0.86258 0.20471 0.0
N964 N 0.63863 0.78377 0.27059 0.0
N965 N 0.62971 0.85093 0.22899 0.0
H966 H 0.75629 0.62946 0.70032 0.0
H967 H 0.8932 0.63214 0.80411 0.0
H968 H 0.85255 0.61457 0.68449 0.0
H969 H 0.78268 0.61854 0.82048 0.0
H970 H 0.87322 0.61347 0.761 0.0
H971 H 0.75885 0.61339 0.74407 0.0
C972 C 0.77755 0.62204 0.70607 0.0
C973 C 0.80475 0.62402 0.68902 0.0
C974 C 0.85288 0.6136 0.77405 0.0
C975 C 0.80839 0.60636 0.73913 0.0
C976 C 0.86431 0.62429 0.79864 0.0
C977 C 0.83963 0.62733 0.81558 0.0
C978 C 0.81688 0.607 0.76619 0.0
C979 C 0.8025 0.61665 0.80782 0.0
C980 C 0.77894 0.61275 0.73103 0.0
C981 C 0.8313 0.61363 0.69719 0.0
N982 N 0.7925 0.60782 0.78344 0.0
N983 N 0.83307 0.60612 0.72187 0.0
H984 H 0.13136 0.75125 0.20052 0.0
H985 H 0.28232 0.88855 0.29906 0.0
H986 H 0.24146 0.84589 0.17986 0.0
H987 H 0.17624 0.78727 0.31884 0.0
H988 H 0.27347 0.86715 0.25587 0.0
H989 H 0.15288 0.75678 0.24371 0.0
C990 C 0.16046 0.77272 0.2051 0.0
C991 C 0.1846 0.7985 0.18684 0.0
C992 C 0.2524 0.84929 0.2697 0.0
C993 C 0.20913 0.80578 0.23631 0.0
C994 C 0.25733 0.86155 0.29439 0.0
C995 C 0.22948 0.84007 0.31251 0.0
C996 C 0.21919 0.81548 0.26298 0.0
C997 C 0.19815 0.80502 0.30544 0.0
C998 C 0.17273 0.77594 0.22976 0.0
C999 C 0.22204 0.82558 0.19352 0.0
N1000 N 0.19354 0.79414 0.28114 0.0
N1001 N 0.23296 0.8291 0.21793 0.0
H1002 H 0.38664 0.16255 0.82409 0.0
H1003 H 0.39032 0.22893 0.68261 0.0
H1004 H 0.38687 0.26582 0.80234 0.0
H1005 H 0.38755 0.12438 0.70428 0.0
H1006 H 0.3997 0.24813 0.72642 0.0
H1007 H 0.39764 0.15333 0.78046 0.0
C1008 C 0.3895 0.18354 0.81023 0.0
C1009 C 0.38512 0.2146 0.81682 0.0
C1010 C 0.39746 0.22117 0.72153 0.0
C1011 C 0.39745 0.20415 0.76689 0.0
C1012 C 0.39215 0.21023 0.6965 0.0
C1013 C 0.38743 0.17469 0.68981 0.0
C1014 C 0.39793 0.19633 0.73995 0.0
C1015 C 0.39038 0.15176 0.7086 0.0
C1016 C 0.39571 0.17824 0.78531 0.0
C1017 C 0.38937 0.24106 0.79808 0.0
N1018 N 0.395 0.16278 0.73283 0.0
N1019 N 0.39485 0.23499 0.77395 0.0
H1020 H 0.24484 0.21254 0.94147 0.0
H1021 H 0.31046 0.35277 0.05825 0.0
H1022 H 0.35899 0.26802 0.97219 0.0
H1023 H 0.19318 0.28928 0.03345 0.0
H1024 H 0.32883 0.32459 0.02507 0.0
H1025 H 0.22527 0.24084 0.97412 0.0
C1026 C 0.26575 0.23038 0.95526 0.0
C1027 C 0.30374 0.23805 0.95403 0.0
C1028 C 0.2991 0.31688 0.0267 0.0
C1029 C 0.28146 0.27095 0.99134 0.0
C1030 C 0.28855 0.33316 0.04557 0.0
C1031 C 0.25013 0.3232 0.0487 0.0
C1032 C 0.27108 0.29027 0.01069 0.0
C1033 C 0.22312 0.29787 0.03162 0.0
C1034 C 0.25451 0.24663 0.97385 0.0
C1035 C 0.32942 0.26119 0.97247 0.0
N1036 N 0.23408 0.282 0.0134 0.0
N1037 N 0.31787 0.27705 0.99025 0.0
H1038 H 0.05901 0.33445 0.44359 0.0
H1039 H 0.9969 0.21338 0.56941 0.0
H1040 H 0.12376 0.28508 0.47442 0.0
H1041 H 0.92225 0.23965 0.52651 0.0
H1042 H 0.04293 0.23705 0.53499 0.0
H1043 H 1.00972 0.30037 0.4746 0.0
C1044 C 0.06307 0.31654 0.45701 0.0
C1045 C 0.09577 0.31265 0.45629 0.0
C1046 C 1.01621 0.23697 0.53285 0.0
C1047 C 0.0386 0.27305 0.49215 0.0
C1048 C 0.98984 0.22332 0.55242 0.0
C1049 C 0.95582 0.2247 0.55075 0.0
C1050 C 1.0088 0.25279 0.5116 0.0
C1051 C 0.94798 0.2378 0.52843 0.0
C1052 C 0.03457 0.29679 0.47466 0.0
C1053 C 0.0992 0.28911 0.47435 0.0
N1054 N 0.97462 0.25196 0.50986 0.0
N1055 N 0.07093 0.27021 0.49163 0.0
H1056 H 0.77695 0.95509 0.05088 0.0
H1057 H 0.74387 0.09531 0.96278 0.0
H1058 H 0.66383 0.93748 0.03777 0.0
H1059 H 0.83352 0.06926 0.94933 0.0
H1060 H 0.71816 0.04563 0.99572 0.0
H1061 H 0.80181 1.00397 0.01792 0.0
C1062 C 0.75726 0.96113 0.04071 0.0
C1063 C 0.71824 0.94195 0.04674 0.0
C1064 C 0.74363 0.05113 0.98563 0.0
C1065 C 0.74669 0.99881 0.00974 0.0
C1066 C 0.7586 0.07976 0.96717 0.0
C1067 C 0.79098 0.08648 0.95353 0.0
C1068 C 0.76173 0.0298 0.9907 0.0
C1069 C 0.80856 0.06502 0.95952 0.0
C1070 C 0.77148 0.98913 0.02204 0.0
C1071 C 0.69399 0.95119 0.0333 0.0
N1072 N 0.79382 0.03777 0.97772 0.0
N1073 N 0.70871 0.97942 0.01558 0.0
H1074 H 0.83414 0.71344 0.52707 0.0
H1075 H 0.72033 0.81677 0.47619 0.0
H1076 H 0.76443 0.74185 0.57297 0.0
H1077 H 0.7765 0.7744 0.4286 0.0
H1078 H 0.74579 0.79952 0.51287 0.0
H1079 H 0.82234 0.7452 0.49139 0.0
C1080 C 0.81665 0.7265 0.52969 0.0
C1081 C 0.79968 0.72426 0.5529 0.0
C1082 C 0.75289 0.79445 0.49434 0.0
C1083 C 0.78626 0.76076 0.51246 0.0
C1084 C 0.73854 0.80454 0.47348 0.0
C1085 C 0.74584 0.7965 0.44941 0.0
C1086 C 0.77486 0.77654 0.49098 0.0
C1087 C 0.7696 0.7805 0.44689 0.0
C1088 C 0.80986 0.74459 0.50938 0.0
C1089 C 0.77748 0.74204 0.55531 0.0
N1090 N 0.78296 0.77079 0.46735 0.0
N1091 N 0.77127 0.75925 0.53539 0.0
H1092 H 0.90464 0.71566 0.97466 0.0
H1093 H 0.1204 0.82237 0.02619 0.0
H1094 H 1.00472 0.76632 0.92737 0.0
H1095 H 0.02005 0.77086 0.07324 0.0
H1096 H 0.07863 0.80915 0.9896 0.0
H1097 H 0.94654 0.74275 0.01118 0.0
C1098 C 0.93526 0.7328 0.97193 0.0
C1099 C 0.95114 0.73813 0.94799 0.0
C1100 C 0.06587 0.8011 0.00802 0.0
C1101 C 0.99926 0.76904 0.9895 0.0
C1102 C 0.08976 0.80877 0.02886 0.0
C1103 C 0.07376 0.79719 0.05275 0.0
C1104 C 0.02583 0.78184 0.01119 0.0
C1105 C 0.03375 0.77973 0.05514 0.0
C1106 C 0.95923 0.74817 0.99274 0.0
C1107 C 0.99113 0.76077 0.94552 0.0
N1108 N 1.01126 0.77234 0.03468 0.0
N1109 N 1.01374 0.77504 0.96597 0.0
H1110 H 0.24548 0.90131 0.47697 0.0
H1111 H 0.35138 0.11731 0.52431 0.0
H1112 H 0.27033 0.99661 0.42809 0.0
H1113 H 0.27821 0.02162 0.57201 0.0
H1114 H 0.33248 0.07333 0.48872 0.0
H1115 H 0.26823 0.9454 0.51257 0.0
C1116 C 0.25575 0.93138 0.47374 0.0
C1117 C 0.25558 0.94521 0.44963 0.0
C1118 C 0.32067 0.06217 0.50705 0.0
C1119 C 0.28223 0.99564 0.48989 0.0
C1120 C 0.33144 0.08719 0.52729 0.0
C1121 C 0.31602 0.07322 0.55105 0.0
C1122 C 0.29508 0.02293 0.51084 0.0
C1123 C 0.29043 0.0338 0.55394 0.0
C1124 C 0.26864 0.95647 0.49398 0.0
C1125 C 0.26941 0.98457 0.44642 0.0
N1126 N 0.28093 1.01006 0.53414 0.0
N1127 N 0.28232 1.00839 0.46627 0.0
loop_
_geom_bond_atom_site_label_1
_geom_bond_atom_site_label_2
_geom_bond_distance
_geom_bond_site_symmetry_2
_ccdc_geom_bond_type
Dy0 O3 2.307 . S
Dy0 O5 2.395 . S
Dy0 O6 2.379 . S
Dy0 O8 2.339 . S
Dy0 O10 2.298 . S
Dy0 O14 2.275 . S
Dy0 C22 2.738 . S
Dy1 O4 2.298 . S
Dy1 O7 2.275 . S
Dy1 O9 2.307 . S
Dy1 O11 2.395 . S
Dy1 O12 2.379 . S
Dy1 O15 2.339 . S
Dy1 C31 2.738 . S
C2 O14 1.254 . S
C2 O15 1.257 . S
O3 Dy0 2.307 . S
O3 C13 1.266 . S
O4 Dy1 2.298 . S
O4 C13 1.236 . S
O5 Dy0 2.395 . S
O5 C22 1.255 . S
O6 Dy0 2.379 . S
O6 C22 1.249 . S
O7 Dy1 2.275 . S
O7 C23 1.254 . S
O8 Dy0 2.339 . S
O8 C23 1.257 . S
O9 Dy1 2.307 . S
O9 C24 1.266 . S
O10 Dy0 2.298 . S
O10 C24 1.236 . S
O11 Dy1 2.395 . S
O11 C31 1.255 . S
O12 Dy1 2.379 . S
O12 C31 1.249 . S
C13 O3 1.266 . S
C13 O4 1.236 . S
O14 Dy0 2.275 . S
O14 C2 1.254 . S
O15 Dy1 2.339 . S
O15 C2 1.257 . S
C16 C19 1.344 . S
C16 C20 1.328 . S
C16 C22 1.516 . S
C17 C18 1.304 . S
C17 C21 1.323 . S
C18 C17 1.304 . S
C18 C19 1.371 . S
C18 H32 0.930 . S
C19 C16 1.344 . S
C19 C18 1.371 . S
C19 H33 0.931 . S
C20 C16 1.328 . S
C20 C21 1.433 . S
C20 H34 0.931 . S
C21 C17 1.323 . S
C21 C20 1.433 . S
C21 H35 0.933 . S
C22 Dy0 2.738 . S
C22 O5 1.255 . S
C22 O6 1.249 . S
C22 C16 1.516 . S
C23 O7 1.254 . S
C23 O8 1.257 . S
C24 O9 1.266 . S
C24 O10 1.236 . S
C25 C28 1.344 . S
C25 C29 1.328 . S
C25 C31 1.516 . S
C26 C27 1.304 . S
C26 C30 1.323 . S
C27 C26 1.304 . S
C27 C28 1.371 . S
C27 H36 0.930 . S
C28 C25 1.344 . S
C28 C27 1.371 . S
C28 H37 0.931 . S
C29 C25 1.328 . S
C29 C30 1.433 . S
C29 H38 0.931 . S
C30 C26 1.323 . S
C30 C29 1.433 . S
C30 H39 0.933 . S
C31 Dy1 2.738 . S
C31 O11 1.255 . S
C31 O12 1.249 . S
C31 C25 1.516 . S
H32 C18 0.930 . S
H33 C19 0.931 . S
H34 C20 0.931 . S
H35 C21 0.933 . S
H36 C27 0.930 . S
H37 C28 0.931 . S
H38 C29 0.931 . S
H39 C30 0.933 . S
Dy40 O43 2.307 . S
Dy40 O45 2.395 . S
Dy40 O46 2.379 . S
Dy40 O48 2.339 . S
Dy40 O50 2.298 . S
Dy40 O54 2.275 . S
Dy40 C62 2.738 . S
Dy41 O44 2.298 . S
Dy41 O47 2.275 . S
Dy41 O49 2.307 . S
Dy41 O51 2.395 . S
Dy41 O52 2.379 . S
Dy41 O55 2.339 . S
Dy41 C71 2.738 . S
C42 O54 1.254 . S
C42 O55 1.257 . S
O43 Dy40 2.307 . S
O43 C53 1.266 . S
O44 Dy41 2.298 . S
O44 C53 1.236 . S
O45 Dy40 2.395 . S
O45 C62 1.255 . S
O46 Dy40 2.379 . S
O46 C62 1.249 . S
O47 Dy41 2.275 . S
O47 C63 1.254 . S
O48 Dy40 2.339 . S
O48 C63 1.257 . S
O49 Dy41 2.307 . S
O49 C64 1.266 . S
O50 Dy40 2.298 . S
O50 C64 1.236 . S
O51 Dy41 2.395 . S
O51 C71 1.255 . S
O52 Dy41 2.379 . S
O52 C71 1.249 . S
C53 O43 1.266 . S
C53 O44 1.236 . S
O54 Dy40 2.275 . S
O54 C42 1.254 . S
O55 Dy41 2.339 . S
O55 C42 1.257 . S
C56 C59 1.344 . S
C56 C60 1.328 . S
C56 C62 1.516 1_455 S
C57 C58 1.304 . S
C57 C61 1.323 . S
C58 C57 1.304 . S
C58 C59 1.371 . S
C58 H72 0.930 . S
C59 C56 1.344 . S
C59 C58 1.371 . S
C59 H73 0.931 . S
C60 C56 1.328 . S
C60 C61 1.433 . S
C60 H74 0.931 . S
C61 C57 1.323 . S
C61 C60 1.433 . S
C61 H75 0.933 . S
C62 Dy40 2.738 . S
C62 O45 1.255 . S
C62 O46 1.249 . S
C62 C56 1.516 1_655 S
C63 O47 1.254 . S
C63 O48 1.257 . S
C64 O49 1.266 . S
C64 O50 1.236 . S
C65 C68 1.344 . S
C65 C69 1.328 . S
C65 C71 1.516 . S
C66 C67 1.304 . S
C66 C70 1.323 . S
C67 C66 1.304 . S
C67 C68 1.371 . S
C67 H76 0.930 . S
C68 C65 1.344 . S
C68 C67 1.371 . S
C68 H77 0.931 . S
C69 C65 1.328 . S
C69 C70 1.433 . S
C69 H78 0.931 . S
C70 C66 1.323 . S
C70 C69 1.433 . S
C70 H79 0.933 . S
C71 Dy41 2.738 . S
C71 O51 1.255 . S
C71 O52 1.249 . S
C71 C65 1.516 . S
H72 C58 0.930 . S
H73 C59 0.931 . S
H74 C60 0.931 . S
H75 C61 0.933 . S
H76 C67 0.930 . S
H77 C68 0.931 . S
H78 C69 0.931 . S
H79 C70 0.933 . S
Dy80 O83 2.307 . S
Dy80 O85 2.395 . S
Dy80 O86 2.379 . S
Dy80 O88 2.339 . S
Dy80 O90 2.298 . S
Dy80 O94 2.275 . S
Dy80 C102 2.738 . S
Dy81 O84 2.298 . S
Dy81 O87 2.275 . S
Dy81 O89 2.307 . S
Dy81 O91 2.395 . S
Dy81 O92 2.379 . S
Dy81 O95 2.339 . S
Dy81 C111 2.738 . S
C82 O94 1.254 . S
C82 O95 1.257 . S
O83 Dy80 2.307 . S
O83 C93 1.266 . S
O84 Dy81 2.298 . S
O84 C93 1.236 . S
O85 Dy80 2.395 . S
O85 C102 1.255 . S
O86 Dy80 2.379 . S
O86 C102 1.249 . S
O87 Dy81 2.275 . S
O87 C103 1.254 . S
O88 Dy80 2.339 . S
O88 C103 1.257 . S
O89 Dy81 2.307 . S
O89 C104 1.266 . S
O90 Dy80 2.298 . S
O90 C104 1.236 . S
O91 Dy81 2.395 . S
O91 C111 1.255 . S
O92 Dy81 2.379 . S
O92 C111 1.249 . S
C93 O83 1.266 . S
C93 O84 1.236 . S
O94 Dy80 2.275 . S
O94 C82 1.254 . S
O95 Dy81 2.339 . S
O95 C82 1.257 . S
C96 C99 1.344 . S
C96 C100 1.328 . S
C96 C102 1.516 1_545 S
C97 C98 1.304 . S
C97 C101 1.323 . S
C98 C97 1.304 . S
C98 C99 1.371 . S
C98 H112 0.930 . S
C99 C96 1.344 . S
C99 C98 1.371 . S
C99 H113 0.931 . S
C100 C96 1.328 . S
C100 C101 1.433 . S
C100 H114 0.931 . S
C101 C97 1.323 . S
C101 C100 1.433 . S
C101 H115 0.933 . S
C102 Dy80 2.738 . S
C102 O85 1.255 . S
C102 O86 1.249 . S
C102 C96 1.516 1_565 S
C103 O87 1.254 . S
C103 O88 1.257 . S
C104 O89 1.266 . S
C104 O90 1.236 . S
C105 C108 1.344 . S
C105 C109 1.328 . S
C105 C111 1.516 . S
C106 C107 1.304 . S
C106 C110 1.323 . S
C107 C106 1.304 . S
C107 C108 1.371 . S
C107 H116 0.930 . S
C108 C105 1.344 . S
C108 C107 1.371 . S
C108 H117 0.931 . S
C109 C105 1.328 . S
C109 C110 1.433 . S
C109 H118 0.931 . S
C110 C106 1.323 . S
C110 C109 1.433 . S
C110 H119 0.933 . S
C111 Dy81 2.738 . S
C111 O91 1.255 . S
C111 O92 1.249 . S
C111 C105 1.516 . S
H112 C98 0.930 . S
H113 C99 0.931 . S
H114 C100 0.931 . S
H115 C101 0.933 . S
H116 C107 0.930 . S
H117 C108 0.931 . S
H118 C109 0.931 . S
H119 C110 0.933 . S
Dy120 O123 2.307 . S
Dy120 O125 2.395 . S
Dy120 O126 2.379 . S
Dy120 O128 2.339 . S
Dy120 O130 2.298 . S
Dy120 O134 2.275 . S
Dy120 C142 2.738 . S
Dy121 O124 2.298 . S
Dy121 O127 2.275 . S
Dy121 O129 2.307 . S
Dy121 O131 2.395 . S
Dy121 O132 2.379 . S
Dy121 O135 2.339 . S
Dy121 C151 2.738 . S
C122 O134 1.254 . S
C122 O135 1.257 . S
O123 Dy120 2.307 . S
O123 C133 1.266 . S
O124 Dy121 2.298 . S
O124 C133 1.236 . S
O125 Dy120 2.395 . S
O125 C142 1.255 . S
O126 Dy120 2.379 . S
O126 C142 1.249 . S
O127 Dy121 2.275 . S
O127 C143 1.254 . S
O128 Dy120 2.339 . S
O128 C143 1.257 . S
O129 Dy121 2.307 . S
O129 C144 1.266 . S
O130 Dy120 2.298 . S
O130 C144 1.236 . S
O131 Dy121 2.395 . S
O131 C151 1.255 . S
O132 Dy121 2.379 . S
O132 C151 1.249 . S
C133 O123 1.266 . S
C133 O124 1.236 . S
O134 Dy120 2.275 . S
O134 C122 1.254 . S
O135 Dy121 2.339 . S
O135 C122 1.257 . S
C136 C139 1.344 . S
C136 C140 1.328 . S
C136 C142 1.516 . S
C137 C138 1.304 . S
C137 C141 1.323 . S
C138 C137 1.304 . S
C138 C139 1.371 . S
C138 H152 0.930 . S
C139 C136 1.344 . S
C139 C138 1.371 . S
C139 H153 0.931 . S
C140 C136 1.328 . S
C140 C141 1.433 . S
C140 H154 0.931 . S
C141 C137 1.323 . S
C141 C140 1.433 . S
C141 H155 0.933 . S
C142 Dy120 2.738 . S
C142 O125 1.255 . S
C142 O126 1.249 . S
C142 C136 1.516 . S
C143 O127 1.254 . S
C143 O128 1.257 . S
C144 O129 1.266 . S
C144 O130 1.236 . S
C145 C148 1.344 . S
C145 C149 1.328 . S
C145 C151 1.516 . S
C146 C147 1.304 . S
C146 C150 1.323 . S
C147 C146 1.304 . S
C147 C148 1.371 . S
C147 H156 0.930 . S
C148 C145 1.344 . S
C148 C147 1.371 . S
C148 H157 0.931 . S
C149 C145 1.328 . S
C149 C150 1.433 . S
C149 H158 0.931 . S
C150 C146 1.323 . S
C150 C149 1.433 . S
C150 H159 0.933 . S
C151 Dy121 2.738 . S
C151 O131 1.255 . S
C151 O132 1.249 . S
C151 C145 1.516 . S
H152 C138 0.930 . S
H153 C139 0.931 . S
H154 C140 0.931 . S
H155 C141 0.933 . S
H156 C147 0.930 . S
H157 C148 0.931 . S
H158 C149 0.931 . S
H159 C150 0.933 . S
Dy160 O163 2.307 . S
Dy160 O165 2.395 . S
Dy160 O166 2.379 . S
Dy160 O168 2.339 . S
Dy160 O170 2.298 . S
Dy160 O174 2.275 . S
Dy160 C182 2.738 . S
Dy161 O164 2.298 . S
Dy161 O167 2.275 . S
Dy161 O169 2.307 . S
Dy161 O171 2.395 . S
Dy161 O172 2.379 . S
Dy161 O175 2.339 . S
Dy161 C191 2.738 . S
C162 O174 1.254 . S
C162 O175 1.257 . S
O163 Dy160 2.307 . S
O163 C173 1.266 . S
O164 Dy161 2.298 . S
O164 C173 1.236 . S
O165 Dy160 2.395 . S
O165 C182 1.255 . S
O166 Dy160 2.379 . S
O166 C182 1.249 . S
O167 Dy161 2.275 . S
O167 C183 1.254 . S
O168 Dy160 2.339 . S
O168 C183 1.257 . S
O169 Dy161 2.307 . S
O169 C184 1.266 . S
O170 Dy160 2.298 . S
O170 C184 1.236 . S
O171 Dy161 2.395 . S
O171 C191 1.255 . S
O172 Dy161 2.379 . S
O172 C191 1.249 . S
C173 O163 1.266 . S
C173 O164 1.236 . S
O174 Dy160 2.275 . S
O174 C162 1.254 . S
O175 Dy161 2.339 . S
O175 C162 1.257 . S
C176 C179 1.344 . S
C176 C180 1.328 . S
C176 C182 1.516 1_655 S
C177 C178 1.304 . S
C177 C181 1.323 . S
C178 C177 1.304 . S
C178 C179 1.371 . S
C178 H192 0.930 . S
C179 C176 1.344 . S
C179 C178 1.371 . S
C179 H193 0.931 . S
C180 C176 1.328 . S
C180 C181 1.433 . S
C180 H194 0.931 . S
C181 C177 1.323 . S
C181 C180 1.433 . S
C181 H195 0.933 . S
C182 Dy160 2.738 . S
C182 O165 1.255 . S
C182 O166 1.249 . S
C182 C176 1.516 1_455 S
C183 O167 1.254 . S
C183 O168 1.257 . S
C184 O169 1.266 . S
C184 O170 1.236 . S
C185 C188 1.344 . S
C185 C189 1.328 . S
C185 C191 1.516 . S
C186 C187 1.304 . S
C186 C190 1.323 . S
C187 C186 1.304 . S
C187 C188 1.371 . S
C187 H196 0.930 . S
C188 C185 1.344 . S
C188 C187 1.371 . S
C188 H197 0.931 . S
C189 C185 1.328 . S
C189 C190 1.433 . S
C189 H198 0.931 . S
C190 C186 1.323 . S
C190 C189 1.433 . S
C190 H199 0.933 . S
C191 Dy161 2.738 . S
C191 O171 1.255 . S
C191 O172 1.249 . S
C191 C185 1.516 . S
H192 C178 0.930 . S
H193 C179 0.931 . S
H194 C180 0.931 . S
H195 C181 0.933 . S
H196 C187 0.930 . S
H197 C188 0.931 . S
H198 C189 0.931 . S
H199 C190 0.933 . S
Dy200 O203 2.307 . S
Dy200 O205 2.395 . S
Dy200 O206 2.379 . S
Dy200 O208 2.339 . S
Dy200 O210 2.298 . S
Dy200 O214 2.275 . S
Dy200 C222 2.738 . S
Dy201 O204 2.298 . S
Dy201 O207 2.275 . S
Dy201 O209 2.307 . S
Dy201 O211 2.395 . S
Dy201 O212 2.379 . S
Dy201 O215 2.339 . S
Dy201 C231 2.738 . S
C202 O214 1.254 . S
C202 O215 1.257 . S
O203 Dy200 2.307 . S
O203 C213 1.266 . S
O204 Dy201 2.298 . S
O204 C213 1.236 . S
O205 Dy200 2.395 . S
O205 C222 1.255 . S
O206 Dy200 2.379 . S
O206 C222 1.249 . S
O207 Dy201 2.275 . S
O207 C223 1.254 . S
O208 Dy200 2.339 . S
O208 C223 1.257 . S
O209 Dy201 2.307 . S
O209 C224 1.266 . S
O210 Dy200 2.298 . S
O210 C224 1.236 . S
O211 Dy201 2.395 . S
O211 C231 1.255 . S
O212 Dy201 2.379 . S
O212 C231 1.249 . S
C213 O203 1.266 . S
C213 O204 1.236 . S
O214 Dy200 2.275 . S
O214 C202 1.254 . S
O215 Dy201 2.339 . S
O215 C202 1.257 . S
C216 C219 1.344 . S
C216 C220 1.328 . S
C216 C222 1.516 1_565 S
C217 C218 1.304 . S
C217 C221 1.323 . S
C218 C217 1.304 . S
C218 C219 1.371 . S
C218 H232 0.930 . S
C219 C216 1.344 . S
C219 C218 1.371 . S
C219 H233 0.931 . S
C220 C216 1.328 . S
C220 C221 1.433 . S
C220 H234 0.931 . S
C221 C217 1.323 . S
C221 C220 1.433 . S
C221 H235 0.933 . S
C222 Dy200 2.738 . S
C222 O205 1.255 . S
C222 O206 1.249 . S
C222 C216 1.516 1_545 S
C223 O207 1.254 . S
C223 O208 1.257 . S
C224 O209 1.266 . S
C224 O210 1.236 . S
C225 C228 1.344 . S
C225 C229 1.328 . S
C225 C231 1.516 . S
C226 C227 1.304 . S
C226 C230 1.323 . S
C227 C226 1.304 . S
C227 C228 1.371 . S
C227 H236 0.930 . S
C228 C225 1.344 . S
C228 C227 1.371 . S
C228 H237 0.931 . S
C229 C225 1.328 . S
C229 C230 1.433 . S
C229 H238 0.931 . S
C230 C226 1.323 . S
C230 C229 1.433 . S
C230 H239 0.933 . S
C231 Dy201 2.738 . S
C231 O211 1.255 . S
C231 O212 1.249 . S
C231 C225 1.516 . S
H232 C218 0.930 . S
H233 C219 0.931 . S
H234 C220 0.931 . S
H235 C221 0.933 . S
H236 C227 0.930 . S
H237 C228 0.931 . S
H238 C229 0.931 . S
H239 C230 0.933 . S
Dy240 O243 2.307 . S
Dy240 O245 2.395 . S
Dy240 O246 2.379 . S
Dy240 O248 2.339 . S
Dy240 O250 2.298 . S
Dy240 O254 2.275 . S
Dy240 C262 2.738 . S
Dy241 O244 2.298 . S
Dy241 O247 2.275 . S
Dy241 O249 2.307 . S
Dy241 O251 2.395 . S
Dy241 O252 2.379 . S
Dy241 O255 2.339 . S
Dy241 C271 2.738 . S
C242 O254 1.254 . S
C242 O255 1.257 . S
O243 Dy240 2.307 . S
O243 C253 1.266 . S
O244 Dy241 2.298 . S
O244 C253 1.236 . S
O245 Dy240 2.395 . S
O245 C262 1.255 . S
O246 Dy240 2.379 . S
O246 C262 1.249 . S
O247 Dy241 2.275 . S
O247 C263 1.254 . S
O248 Dy240 2.339 . S
O248 C263 1.257 . S
O249 Dy241 2.307 . S
O249 C264 1.266 . S
O250 Dy240 2.298 . S
O250 C264 1.236 . S
O251 Dy241 2.395 . S
O251 C271 1.255 . S
O252 Dy241 2.379 . S
O252 C271 1.249 . S
C253 O243 1.266 . S
C253 O244 1.236 . S
O254 Dy240 2.275 . S
O254 C242 1.254 . S
O255 Dy241 2.339 . S
O255 C242 1.257 . S
C256 C259 1.344 . S
C256 C260 1.328 . S
C256 C262 1.516 . S
C257 C258 1.304 . S
C257 C261 1.323 . S
C258 C257 1.304 . S
C258 C259 1.371 . S
C258 H272 0.930 . S
C259 C256 1.344 . S
C259 C258 1.371 . S
C259 H273 0.931 . S
C260 C256 1.328 . S
C260 C261 1.433 . S
C260 H274 0.931 . S
C261 C257 1.323 . S
C261 C260 1.433 . S
C261 H275 0.933 . S
C262 Dy240 2.738 . S
C262 O245 1.255 . S
C262 O246 1.249 . S
C262 C256 1.516 . S
C263 O247 1.254 . S
C263 O248 1.257 . S
C264 O249 1.266 . S
C264 O250 1.236 . S
C265 C268 1.344 . S
C265 C269 1.328 . S
C265 C271 1.516 . S
C266 C267 1.304 . S
C266 C270 1.323 . S
C267 C266 1.304 . S
C267 C268 1.371 . S
C267 H276 0.930 . S
C268 C265 1.344 . S
C268 C267 1.371 . S
C268 H277 0.931 . S
C269 C265 1.328 . S
C269 C270 1.433 . S
C269 H278 0.931 . S
C270 C266 1.323 . S
C270 C269 1.433 . S
C270 H279 0.933 . S
C271 Dy241 2.738 . S
C271 O251 1.255 . S
C271 O252 1.249 . S
C271 C265 1.516 . S
H272 C258 0.930 . S
H273 C259 0.931 . S
H274 C260 0.931 . S
H275 C261 0.933 . S
H276 C267 0.930 . S
H277 C268 0.931 . S
H278 C269 0.931 . S
H279 C270 0.933 . S
Dy280 O283 2.307 . S
Dy280 O285 2.395 . S
Dy280 O286 2.379 . S
Dy280 O288 2.339 . S
Dy280 O290 2.298 . S
Dy280 O294 2.275 . S
Dy280 C302 2.738 . S
Dy281 O284 2.298 . S
Dy281 O287 2.275 . S
Dy281 O289 2.307 . S
Dy281 O291 2.395 . S
Dy281 O292 2.379 . S
Dy281 O295 2.339 . S
Dy281 C311 2.738 . S
C282 O294 1.254 . S
C282 O295 1.257 . S
O283 Dy280 2.307 . S
O283 C293 1.266 . S
O284 Dy281 2.298 . S
O284 C293 1.236 . S
O285 Dy280 2.395 . S
O285 C302 1.255 . S
O286 Dy280 2.379 . S
O286 C302 1.249 . S
O287 Dy281 2.275 . S
O287 C303 1.254 . S
O288 Dy280 2.339 . S
O288 C303 1.257 . S
O289 Dy281 2.307 . S
O289 C304 1.266 . S
O290 Dy280 2.298 . S
O290 C304 1.236 . S
O291 Dy281 2.395 . S
O291 C311 1.255 . S
O292 Dy281 2.379 . S
O292 C311 1.249 . S
C293 O283 1.266 . S
C293 O284 1.236 . S
O294 Dy280 2.275 . S
O294 C282 1.254 . S
O295 Dy281 2.339 . S
O295 C282 1.257 . S
C296 C299 1.344 . S
C296 C300 1.328 . S
C296 C302 1.516 1_455 S
C297 C298 1.304 . S
C297 C301 1.323 . S
C298 C297 1.304 . S
C298 C299 1.371 . S
C298 H312 0.930 . S
C299 C296 1.344 . S
C299 C298 1.371 . S
C299 H313 0.931 . S
C300 C296 1.328 . S
C300 C301 1.433 . S
C300 H314 0.931 . S
C301 C297 1.323 . S
C301 C300 1.433 . S
C301 H315 0.933 . S
C302 Dy280 2.738 . S
C302 O285 1.255 . S
C302 O286 1.249 . S
C302 C296 1.516 1_655 S
C303 O287 1.254 . S
C303 O288 1.257 . S
C304 O289 1.266 . S
C304 O290 1.236 . S
C305 C308 1.344 . S
C305 C309 1.328 . S
C305 C311 1.516 . S
C306 C307 1.304 . S
C306 C310 1.323 . S
C307 C306 1.304 . S
C307 C308 1.371 . S
C307 H316 0.930 . S
C308 C305 1.344 . S
C308 C307 1.371 . S
C308 H317 0.931 . S
C309 C305 1.328 . S
C309 C310 1.433 . S
C309 H318 0.931 . S
C310 C306 1.323 . S
C310 C309 1.433 . S
C310 H319 0.933 . S
C311 Dy281 2.738 . S
C311 O291 1.255 . S
C311 O292 1.249 . S
C311 C305 1.516 . S
H312 C298 0.930 . S
H313 C299 0.931 . S
H314 C300 0.931 . S
H315 C301 0.933 . S
H316 C307 0.930 . S
H317 C308 0.931 . S
H318 C309 0.931 . S
H319 C310 0.933 . S
Dy320 O323 2.307 . S
Dy320 O325 2.395 . S
Dy320 O326 2.379 . S
Dy320 O328 2.339 . S
Dy320 O330 2.298 . S
Dy320 O334 2.275 . S
Dy320 C342 2.738 . S
Dy321 O324 2.298 . S
Dy321 O327 2.275 . S
Dy321 O329 2.307 . S
Dy321 O331 2.395 . S
Dy321 O332 2.379 . S
Dy321 O335 2.339 . S
Dy321 C351 2.738 . S
C322 O334 1.254 . S
C322 O335 1.257 . S
O323 Dy320 2.307 . S
O323 C333 1.266 . S
O324 Dy321 2.298 . S
O324 C333 1.236 . S
O325 Dy320 2.395 . S
O325 C342 1.255 . S
O326 Dy320 2.379 . S
O326 C342 1.249 . S
O327 Dy321 2.275 . S
O327 C343 1.254 . S
O328 Dy320 2.339 . S
O328 C343 1.257 . S
O329 Dy321 2.307 . S
O329 C344 1.266 . S
O330 Dy320 2.298 . S
O330 C344 1.236 . S
O331 Dy321 2.395 . S
O331 C351 1.255 . S
O332 Dy321 2.379 . S
O332 C351 1.249 . S
C333 O323 1.266 . S
C333 O324 1.236 . S
O334 Dy320 2.275 . S
O334 C322 1.254 . S
O335 Dy321 2.339 . S
O335 C322 1.257 . S
C336 C339 1.344 . S
C336 C340 1.328 . S
C336 C342 1.516 1_545 S
C337 C338 1.304 . S
C337 C341 1.323 . S
C338 C337 1.304 . S
C338 C339 1.371 . S
C338 H352 0.930 . S
C339 C336 1.344 . S
C339 C338 1.371 . S
C339 H353 0.931 . S
C340 C336 1.328 . S
C340 C341 1.433 . S
C340 H354 0.931 . S
C341 C337 1.323 . S
C341 C340 1.433 . S
C341 H355 0.933 . S
C342 Dy320 2.738 . S
C342 O325 1.255 . S
C342 O326 1.249 . S
C342 C336 1.516 1_565 S
C343 O327 1.254 . S
C343 O328 1.257 . S
C344 O329 1.266 . S
C344 O330 1.236 . S
C345 C348 1.344 . S
C345 C349 1.328 . S
C345 C351 1.516 . S
C346 C347 1.304 . S
C346 C350 1.323 . S
C347 C346 1.304 . S
C347 C348 1.371 . S
C347 H356 0.930 . S
C348 C345 1.344 . S
C348 C347 1.371 . S
C348 H357 0.931 . S
C349 C345 1.328 . S
C349 C350 1.433 . S
C349 H358 0.931 . S
C350 C346 1.323 . S
C350 C349 1.433 . S
C350 H359 0.933 . S
C351 Dy321 2.738 . S
C351 O331 1.255 . S
C351 O332 1.249 . S
C351 C345 1.516 . S
H352 C338 0.930 . S
H353 C339 0.931 . S
H354 C340 0.931 . S
H355 C341 0.933 . S
H356 C347 0.930 . S
H357 C348 0.931 . S
H358 C349 0.931 . S
H359 C350 0.933 . S
Dy360 O363 2.307 . S
Dy360 O365 2.395 . S
Dy360 O366 2.379 . S
Dy360 O368 2.339 . S
Dy360 O370 2.298 . S
Dy360 O374 2.275 . S
Dy360 C382 2.738 . S
Dy361 O364 2.298 . S
Dy361 O367 2.275 . S
Dy361 O369 2.307 . S
Dy361 O371 2.395 . S
Dy361 O372 2.379 . S
Dy361 O375 2.339 . S
Dy361 C391 2.738 . S
C362 O374 1.254 . S
C362 O375 1.257 . S
O363 Dy360 2.307 . S
O363 C373 1.266 . S
O364 Dy361 2.298 . S
O364 C373 1.236 . S
O365 Dy360 2.395 . S
O365 C382 1.255 . S
O366 Dy360 2.379 . S
O366 C382 1.249 . S
O367 Dy361 2.275 . S
O367 C383 1.254 . S
O368 Dy360 2.339 . S
O368 C383 1.257 . S
O369 Dy361 2.307 . S
O369 C384 1.266 . S
O370 Dy360 2.298 . S
O370 C384 1.236 . S
O371 Dy361 2.395 . S
O371 C391 1.255 . S
O372 Dy361 2.379 . S
O372 C391 1.249 . S
C373 O363 1.266 . S
C373 O364 1.236 . S
O374 Dy360 2.275 . S
O374 C362 1.254 . S
O375 Dy361 2.339 . S
O375 C362 1.257 . S
C376 C379 1.344 . S
C376 C380 1.328 . S
C376 C382 1.516 . S
C377 C378 1.304 . S
C377 C381 1.323 . S
C378 C377 1.304 . S
C378 C379 1.371 . S
C378 H392 0.930 . S
C379 C376 1.344 . S
C379 C378 1.371 . S
C379 H393 0.931 . S
C380 C376 1.328 . S
C380 C381 1.433 . S
C380 H394 0.931 . S
C381 C377 1.323 . S
C381 C380 1.433 . S
C381 H395 0.933 . S
C382 Dy360 2.738 . S
C382 O365 1.255 . S
C382 O366 1.249 . S
C382 C376 1.516 . S
C383 O367 1.254 . S
C383 O368 1.257 . S
C384 O369 1.266 . S
C384 O370 1.236 . S
C385 C388 1.344 . S
C385 C389 1.328 . S
C385 C391 1.516 . S
C386 C387 1.304 . S
C386 C390 1.323 . S
C387 C386 1.304 . S
C387 C388 1.371 . S
C387 H396 0.930 . S
C388 C385 1.344 . S
C388 C387 1.371 . S
C388 H397 0.931 . S
C389 C385 1.328 . S
C389 C390 1.433 . S
C389 H398 0.931 . S
C390 C386 1.323 . S
C390 C389 1.433 . S
C390 H399 0.933 . S
C391 Dy361 2.738 . S
C391 O371 1.255 . S
C391 O372 1.249 . S
C391 C385 1.516 . S
H392 C378 0.930 . S
H393 C379 0.931 . S
H394 C380 0.931 . S
H395 C381 0.933 . S
H396 C387 0.930 . S
H397 C388 0.931 . S
H398 C389 0.931 . S
H399 C390 0.933 . S
Dy400 O403 2.307 . S
Dy400 O405 2.395 . S
Dy400 O406 2.379 . S
Dy400 O408 2.339 . S
Dy400 O410 2.298 . S
Dy400 O414 2.275 . S
Dy400 C422 2.738 . S
Dy401 O404 2.298 . S
Dy401 O407 2.275 . S
Dy401 O409 2.307 . S
Dy401 O411 2.395 . S
Dy401 O412 2.379 . S
Dy401 O415 2.339 . S
Dy401 C431 2.738 . S
C402 O414 1.254 . S
C402 O415 1.257 . S
O403 Dy400 2.307 . S
O403 C413 1.266 . S
O404 Dy401 2.298 . S
O404 C413 1.236 . S
O405 Dy400 2.395 . S
O405 C422 1.255 . S
O406 Dy400 2.379 . S
O406 C422 1.249 . S
O407 Dy401 2.275 . S
O407 C423 1.254 . S
O408 Dy400 2.339 . S
O408 C423 1.257 . S
O409 Dy401 2.307 . S
O409 C424 1.266 . S
O410 Dy400 2.298 . S
O410 C424 1.236 . S
O411 Dy401 2.395 . S
O411 C431 1.255 . S
O412 Dy401 2.379 . S
O412 C431 1.249 . S
C413 O403 1.266 . S
C413 O404 1.236 . S
O414 Dy400 2.275 . S
O414 C402 1.254 . S
O415 Dy401 2.339 . S
O415 C402 1.257 . S
C416 C419 1.344 . S
C416 C420 1.328 . S
C416 C422 1.516 1_655 S
C417 C418 1.304 . S
C417 C421 1.323 . S
C418 C417 1.304 . S
C418 C419 1.371 . S
C418 H432 0.930 . S
C419 C416 1.344 . S
C419 C418 1.371 . S
C419 H433 0.931 . S
C420 C416 1.328 . S
C420 C421 1.433 . S
C420 H434 0.931 . S
C421 C417 1.323 . S
C421 C420 1.433 . S
C421 H435 0.933 . S
C422 Dy400 2.738 . S
C422 O405 1.255 . S
C422 O406 1.249 . S
C422 C416 1.516 1_455 S
C423 O407 1.254 . S
C423 O408 1.257 . S
C424 O409 1.266 . S
C424 O410 1.236 . S
C425 C428 1.344 . S
C425 C429 1.328 . S
C425 C431 1.516 . S
C426 C427 1.304 . S
C426 C430 1.323 . S
C427 C426 1.304 . S
C427 C428 1.371 . S
C427 H436 0.930 . S
C428 C425 1.344 . S
C428 C427 1.371 . S
C428 H437 0.931 . S
C429 C425 1.328 . S
C429 C430 1.433 . S
C429 H438 0.931 . S
C430 C426 1.323 . S
C430 C429 1.433 . S
C430 H439 0.933 . S
C431 Dy401 2.738 . S
C431 O411 1.255 . S
C431 O412 1.249 . S
C431 C425 1.516 . S
H432 C418 0.930 . S
H433 C419 0.931 . S
H434 C420 0.931 . S
H435 C421 0.933 . S
H436 C427 0.930 . S
H437 C428 0.931 . S
H438 C429 0.931 . S
H439 C430 0.933 . S
Dy440 O443 2.307 . S
Dy440 O445 2.395 . S
Dy440 O446 2.379 . S
Dy440 O448 2.339 . S
Dy440 O450 2.298 . S
Dy440 O454 2.275 . S
Dy440 C462 2.738 . S
Dy441 O444 2.298 . S
Dy441 O447 2.275 . S
Dy441 O449 2.307 . S
Dy441 O451 2.395 . S
Dy441 O452 2.379 . S
Dy441 O455 2.339 . S
Dy441 C471 2.738 . S
C442 O454 1.254 . S
C442 O455 1.257 . S
O443 Dy440 2.307 . S
O443 C453 1.266 . S
O444 Dy441 2.298 . S
O444 C453 1.236 . S
O445 Dy440 2.395 . S
O445 C462 1.255 . S
O446 Dy440 2.379 . S
O446 C462 1.249 . S
O447 Dy441 2.275 . S
O447 C463 1.254 . S
O448 Dy440 2.339 . S
O448 C463 1.257 . S
O449 Dy441 2.307 . S
O449 C464 1.266 . S
O450 Dy440 2.298 . S
O450 C464 1.236 . S
O451 Dy441 2.395 . S
O451 C471 1.255 . S
O452 Dy441 2.379 . S
O452 C471 1.249 . S
C453 O443 1.266 . S
C453 O444 1.236 . S
O454 Dy440 2.275 . S
O454 C442 1.254 . S
O455 Dy441 2.339 . S
O455 C442 1.257 . S
C456 C459 1.344 . S
C456 C460 1.328 . S
C456 C462 1.516 1_565 S
C457 C458 1.304 . S
C457 C461 1.323 . S
C458 C457 1.304 . S
C458 C459 1.371 . S
C458 H472 0.930 . S
C459 C456 1.344 . S
C459 C458 1.371 . S
C459 H473 0.931 . S
C460 C456 1.328 . S
C460 C461 1.433 . S
C460 H474 0.931 . S
C461 C457 1.323 . S
C461 C460 1.433 . S
C461 H475 0.933 . S
C462 Dy440 2.738 . S
C462 O445 1.255 . S
C462 O446 1.249 . S
C462 C456 1.516 1_545 S
C463 O447 1.254 . S
C463 O448 1.257 . S
C464 O449 1.266 . S
C464 O450 1.236 . S
C465 C468 1.344 . S
C465 C469 1.328 . S
C465 C471 1.516 . S
C466 C467 1.304 . S
C466 C470 1.323 . S
C467 C466 1.304 . S
C467 C468 1.371 . S
C467 H476 0.930 . S
C468 C465 1.344 . S
C468 C467 1.371 . S
C468 H477 0.931 . S
C469 C465 1.328 . S
C469 C470 1.433 . S
C469 H478 0.931 . S
C470 C466 1.323 . S
C470 C469 1.433 . S
C470 H479 0.933 . S
C471 Dy441 2.738 . S
C471 O451 1.255 . S
C471 O452 1.249 . S
C471 C465 1.516 . S
H472 C458 0.930 . S
H473 C459 0.931 . S
H474 C460 0.931 . S
H475 C461 0.933 . S
H476 C467 0.930 . S
H477 C468 0.931 . S
H478 C469 0.931 . S
H479 C470 0.933 . S
H480 C486 0.930 . S
H481 C490 0.930 . S
H482 C495 0.929 . S
H483 C493 0.929 . S
H484 C488 0.929 . S
H485 C494 0.929 . S
C486 H480 0.930 . S
C486 C487 1.367 . S
C486 C494 1.378 . S
C487 C486 1.367 . S
C487 C495 1.433 . S
C488 H484 0.929 . S
C488 C490 1.378 . S
C488 C492 1.350 . S
C489 C492 1.463 1_565 S
C489 C494 1.350 . S
C489 N497 1.427 . S
C490 H481 0.930 . S
C490 C488 1.378 . S
C490 C491 1.367 . S
C491 C490 1.367 . S
C491 C493 1.433 . S
C492 C488 1.350 . S
C492 C489 1.463 1_545 S
C492 N496 1.427 . S
C493 H483 0.929 . S
C493 C491 1.433 . S
C493 N496 1.384 . S
C494 H485 0.929 . S
C494 C486 1.378 . S
C494 C489 1.350 . S
C495 H482 0.929 . S
C495 C487 1.433 . S
C495 N497 1.384 . S
N496 C492 1.427 . S
N496 C493 1.384 . S
N497 C489 1.427 . S
N497 C495 1.384 . S
H498 C504 0.930 . S
H499 C508 0.930 . S
H500 C513 0.929 . S
H501 C511 0.929 . S
H502 C506 0.929 . S
H503 C512 0.929 . S
C504 H498 0.930 . S
C504 C505 1.367 . S
C504 C512 1.378 . S
C505 C504 1.367 . S
C505 C513 1.433 . S
C506 H502 0.929 . S
C506 C508 1.378 . S
C506 C510 1.350 . S
C507 C510 1.463 . S
C507 C512 1.350 . S
C507 N515 1.427 . S
C508 H499 0.930 . S
C508 C506 1.378 . S
C508 C509 1.367 . S
C509 C508 1.367 . S
C509 C511 1.433 . S
C510 C506 1.350 . S
C510 C507 1.463 . S
C510 N514 1.427 . S
C511 H501 0.929 . S
C511 C509 1.433 . S
C511 N514 1.384 . S
C512 H503 0.929 . S
C512 C504 1.378 . S
C512 C507 1.350 . S
C513 H500 0.929 . S
C513 C505 1.433 . S
C513 N515 1.384 . S
N514 C510 1.427 . S
N514 C511 1.384 . S
N515 C507 1.427 . S
N515 C513 1.384 . S
H516 C522 0.930 . S
H517 C526 0.930 . S
H518 C531 0.929 . S
H519 C529 0.929 . S
H520 C524 0.929 . S
H521 C530 0.929 . S
C522 H516 0.930 . S
C522 C523 1.367 . S
C522 C530 1.378 . S
C523 C522 1.367 . S
C523 C531 1.433 . S
C524 H520 0.929 . S
C524 C526 1.378 . S
C524 C528 1.350 . S
C525 C528 1.463 1_655 S
C525 C530 1.350 . S
C525 N533 1.427 . S
C526 H517 0.930 . S
C526 C524 1.378 . S
C526 C527 1.367 . S
C527 C526 1.367 . S
C527 C529 1.433 . S
C528 C524 1.350 . S
C528 C525 1.463 1_455 S
C528 N532 1.427 . S
C529 H519 0.929 . S
C529 C527 1.433 . S
C529 N532 1.384 . S
C530 H521 0.929 . S
C530 C522 1.378 . S
C530 C525 1.350 . S
C531 H518 0.929 . S
C531 C523 1.433 . S
C531 N533 1.384 . S
N532 C528 1.427 . S
N532 C529 1.384 . S
N533 C525 1.427 . S
N533 C531 1.384 . S
H534 C540 0.930 . S
H535 C544 0.930 . S
H536 C549 0.929 . S
H537 C547 0.929 . S
H538 C542 0.929 . S
H539 C548 0.929 . S
C540 H534 0.930 . S
C540 C541 1.367 . S
C540 C548 1.378 . S
C541 C540 1.367 . S
C541 C549 1.433 . S
C542 H538 0.929 . S
C542 C544 1.378 . S
C542 C546 1.350 . S
C543 C546 1.463 1_565 S
C543 C548 1.350 . S
C543 N551 1.427 . S
C544 H535 0.930 . S
C544 C542 1.378 . S
C544 C545 1.367 . S
C545 C544 1.367 . S
C545 C547 1.433 . S
C546 C542 1.350 . S
C546 C543 1.463 1_545 S
C546 N550 1.427 . S
C547 H537 0.929 . S
C547 C545 1.433 . S
C547 N550 1.384 . S
C548 H539 0.929 . S
C548 C540 1.378 . S
C548 C543 1.350 . S
C549 H536 0.929 . S
C549 C541 1.433 . S
C549 N551 1.384 . S
N550 C546 1.427 . S
N550 C547 1.384 . S
N551 C543 1.427 . S
N551 C549 1.384 . S
H552 C558 0.930 . S
H553 C562 0.930 . S
H554 C567 0.929 . S
H555 C565 0.929 . S
H556 C560 0.929 . S
H557 C566 0.929 . S
C558 H552 0.930 . S
C558 C559 1.367 . S
C558 C566 1.378 . S
C559 C558 1.367 . S
C559 C567 1.433 . S
C560 H556 0.929 . S
C560 C562 1.378 . S
C560 C564 1.350 . S
C561 C564 1.463 . S
C561 C566 1.350 . S
C561 N569 1.427 . S
C562 H553 0.930 . S
C562 C560 1.378 . S
C562 C563 1.367 . S
C563 C562 1.367 . S
C563 C565 1.433 . S
C564 C560 1.350 . S
C564 C561 1.463 . S
C564 N568 1.427 . S
C565 H555 0.929 . S
C565 C563 1.433 . S
C565 N568 1.384 . S
C566 H557 0.929 . S
C566 C558 1.378 . S
C566 C561 1.350 . S
C567 H554 0.929 . S
C567 C559 1.433 . S
C567 N569 1.384 . S
N568 C564 1.427 . S
N568 C565 1.384 . S
N569 C561 1.427 . S
N569 C567 1.384 . S
H570 C576 0.930 . S
H571 C580 0.930 . S
H572 C585 0.929 . S
H573 C583 0.929 . S
H574 C578 0.929 . S
H575 C584 0.929 . S
C576 H570 0.930 . S
C576 C577 1.367 . S
C576 C584 1.378 . S
C577 C576 1.367 . S
C577 C585 1.433 . S
C578 H574 0.929 . S
C578 C580 1.378 . S
C578 C582 1.350 . S
C579 C582 1.463 1_655 S
C579 C584 1.350 . S
C579 N587 1.427 . S
C580 H571 0.930 . S
C580 C578 1.378 . S
C580 C581 1.367 . S
C581 C580 1.367 . S
C581 C583 1.433 . S
C582 C578 1.350 . S
C582 C579 1.463 1_455 S
C582 N586 1.427 . S
C583 H573 0.929 . S
C583 C581 1.433 . S
C583 N586 1.384 . S
C584 H575 0.929 . S
C584 C576 1.378 . S
C584 C579 1.350 . S
C585 H572 0.929 . S
C585 C577 1.433 . S
C585 N587 1.384 . S
N586 C582 1.427 . S
N586 C583 1.384 . S
N587 C579 1.427 . S
N587 C585 1.384 . S
H588 C594 0.930 . S
H589 C598 0.930 . S
H590 C603 0.929 . S
H591 C601 0.929 . S
H592 C596 0.929 . S
H593 C602 0.929 . S
C594 H588 0.930 . S
C594 C595 1.367 . S
C594 C602 1.378 . S
C595 C594 1.367 . S
C595 C603 1.433 . S
C596 H592 0.929 . S
C596 C598 1.378 . S
C596 C600 1.350 . S
C597 C600 1.463 1_455 S
C597 C602 1.350 . S
C597 N605 1.427 . S
C598 H589 0.930 . S
C598 C596 1.378 . S
C598 C599 1.367 . S
C599 C598 1.367 . S
C599 C601 1.433 . S
C600 C596 1.350 . S
C600 C597 1.463 1_655 S
C600 N604 1.427 . S
C601 H591 0.929 . S
C601 C599 1.433 . S
C601 N604 1.384 . S
C602 H593 0.929 . S
C602 C594 1.378 . S
C602 C597 1.350 . S
C603 H590 0.929 . S
C603 C595 1.433 . S
C603 N605 1.384 . S
N604 C600 1.427 . S
N604 C601 1.384 . S
N605 C597 1.427 . S
N605 C603 1.384 . S
H606 C612 0.930 . S
H607 C616 0.930 . S
H608 C621 0.929 . S
H609 C619 0.929 . S
H610 C614 0.929 . S
H611 C620 0.929 . S
C612 H606 0.930 . S
C612 C613 1.367 . S
C612 C620 1.378 . S
C613 C612 1.367 . S
C613 C621 1.433 . S
C614 H610 0.929 . S
C614 C616 1.378 . S
C614 C618 1.350 . S
C615 C618 1.463 1_565 S
C615 C620 1.350 . S
C615 N623 1.427 . S
C616 H607 0.930 . S
C616 C614 1.378 . S
C616 C617 1.367 . S
C617 C616 1.367 . S
C617 C619 1.433 . S
C618 C614 1.350 . S
C618 C615 1.463 1_545 S
C618 N622 1.427 . S
C619 H609 0.929 . S
C619 C617 1.433 . S
C619 N622 1.384 . S
C620 H611 0.929 . S
C620 C612 1.378 . S
C620 C615 1.350 . S
C621 H608 0.929 . S
C621 C613 1.433 . S
C621 N623 1.384 . S
N622 C618 1.427 . S
N622 C619 1.384 . S
N623 C615 1.427 . S
N623 C621 1.384 . S
H624 C630 0.930 . S
H625 C634 0.930 . S
H626 C639 0.929 . S
H627 C637 0.929 . S
H628 C632 0.929 . S
H629 C638 0.929 . S
C630 H624 0.930 . S
C630 C631 1.367 . S
C630 C638 1.378 . S
C631 C630 1.367 . S
C631 C639 1.433 . S
C632 H628 0.929 . S
C632 C634 1.378 . S
C632 C636 1.350 . S
C633 C636 1.463 . S
C633 C638 1.350 . S
C633 N641 1.427 . S
C634 H625 0.930 . S
C634 C632 1.378 . S
C634 C635 1.367 . S
C635 C634 1.367 . S
C635 C637 1.433 . S
C636 C632 1.350 . S
C636 C633 1.463 . S
C636 N640 1.427 . S
C637 H627 0.929 . S
C637 C635 1.433 . S
C637 N640 1.384 . S
C638 H629 0.929 . S
C638 C630 1.378 . S
C638 C633 1.350 . S
C639 H626 0.929 . S
C639 C631 1.433 . S
C639 N641 1.384 . S
N640 C636 1.427 . S
N640 C637 1.384 . S
N641 C633 1.427 . S
N641 C639 1.384 . S
H642 C648 0.930 . S
H643 C652 0.930 . S
H644 C657 0.929 . S
H645 C655 0.929 . S
H646 C650 0.929 . S
H647 C656 0.929 . S
C648 H642 0.930 . S
C648 C649 1.367 . S
C648 C656 1.378 . S
C649 C648 1.367 . S
C649 C657 1.433 . S
C650 H646 0.929 . S
C650 C652 1.378 . S
C650 C654 1.350 . S
C651 C654 1.463 1_455 S
C651 C656 1.350 . S
C651 N659 1.427 . S
C652 H643 0.930 . S
C652 C650 1.378 . S
C652 C653 1.367 . S
C653 C652 1.367 . S
C653 C655 1.433 . S
C654 C650 1.350 . S
C654 C651 1.463 1_655 S
C654 N658 1.427 . S
C655 H645 0.929 . S
C655 C653 1.433 . S
C655 N658 1.384 . S
C656 H647 0.929 . S
C656 C648 1.378 . S
C656 C651 1.350 . S
C657 H644 0.929 . S
C657 C649 1.433 . S
C657 N659 1.384 . S
N658 C654 1.427 . S
N658 C655 1.384 . S
N659 C651 1.427 . S
N659 C657 1.384 . S
H660 C666 0.930 . S
H661 C670 0.930 . S
H662 C675 0.929 . S
H663 C673 0.929 . S
H664 C668 0.929 . S
H665 C674 0.929 . S
C666 H660 0.930 . S
C666 C667 1.367 . S
C666 C674 1.378 . S
C667 C666 1.367 . S
C667 C675 1.433 . S
C668 H664 0.929 . S
C668 C670 1.378 . S
C668 C672 1.350 . S
C669 C672 1.463 1_545 S
C669 C674 1.350 . S
C669 N677 1.427 . S
C670 H661 0.930 . S
C670 C668 1.378 . S
C670 C671 1.367 . S
C671 C670 1.367 . S
C671 C673 1.433 . S
C672 C668 1.350 . S
C672 C669 1.463 1_565 S
C672 N676 1.427 . S
C673 H663 0.929 . S
C673 C671 1.433 . S
C673 N676 1.384 . S
C674 H665 0.929 . S
C674 C666 1.378 . S
C674 C669 1.350 . S
C675 H662 0.929 . S
C675 C667 1.433 . S
C675 N677 1.384 . S
N676 C672 1.427 . S
N676 C673 1.384 . S
N677 C669 1.427 . S
N677 C675 1.384 . S
H678 C684 0.930 . S
H679 C688 0.930 . S
H680 C693 0.929 . S
H681 C691 0.929 . S
H682 C686 0.929 . S
H683 C692 0.929 . S
C684 H678 0.930 . S
C684 C685 1.367 . S
C684 C692 1.378 . S
C685 C684 1.367 . S
C685 C693 1.433 . S
C686 H682 0.929 . S
C686 C688 1.378 . S
C686 C690 1.350 . S
C687 C690 1.463 . S
C687 C692 1.350 . S
C687 N695 1.427 . S
C688 H679 0.930 . S
C688 C686 1.378 . S
C688 C689 1.367 . S
C689 C688 1.367 . S
C689 C691 1.433 . S
C690 C686 1.350 . S
C690 C687 1.463 . S
C690 N694 1.427 . S
C691 H681 0.929 . S
C691 C689 1.433 . S
C691 N694 1.384 . S
C692 H683 0.929 . S
C692 C684 1.378 . S
C692 C687 1.350 . S
C693 H680 0.929 . S
C693 C685 1.433 . S
C693 N695 1.384 . S
N694 C690 1.427 . S
N694 C691 1.384 . S
N695 C687 1.427 . S
N695 C693 1.384 . S
H696 C702 0.930 . S
H697 C706 0.930 . S
H698 C711 0.929 . S
H699 C709 0.929 . S
H700 C704 0.929 . S
H701 C710 0.929 . S
C702 H696 0.930 . S
C702 C703 1.367 . S
C702 C710 1.378 . S
C703 C702 1.367 . S
C703 C711 1.433 . S
C704 H700 0.929 . S
C704 C706 1.378 . S
C704 C708 1.350 . S
C705 C708 1.463 . S
C705 C710 1.350 . S
C705 N713 1.427 . S
C706 H697 0.930 . S
C706 C704 1.378 . S
C706 C707 1.367 . S
C707 C706 1.367 . S
C707 C709 1.433 . S
C708 C704 1.350 . S
C708 C705 1.463 . S
C708 N712 1.427 . S
C709 H699 0.929 . S
C709 C707 1.433 . S
C709 N712 1.384 . S
C710 H701 0.929 . S
C710 C702 1.378 . S
C710 C705 1.350 . S
C711 H698 0.929 . S
C711 C703 1.433 . S
C711 N713 1.384 . S
N712 C708 1.427 . S
N712 C709 1.384 . S
N713 C705 1.427 . S
N713 C711 1.384 . S
H714 C720 0.930 . S
H715 C724 0.930 . S
H716 C729 0.929 . S
H717 C727 0.929 . S
H718 C722 0.929 . S
H719 C728 0.929 . S
C720 H714 0.930 . S
C720 C721 1.367 . S
C720 C728 1.378 . S
C721 C720 1.367 . S
C721 C729 1.433 . S
C722 H718 0.929 . S
C722 C724 1.378 . S
C722 C726 1.350 . S
C723 C726 1.463 . S
C723 C728 1.350 . S
C723 N731 1.427 . S
C724 H715 0.930 . S
C724 C722 1.378 . S
C724 C725 1.367 . S
C725 C724 1.367 . S
C725 C727 1.433 . S
C726 C722 1.350 . S
C726 C723 1.463 . S
C726 N730 1.427 . S
C727 H717 0.929 . S
C727 C725 1.433 . S
C727 N730 1.384 . S
C728 H719 0.929 . S
C728 C720 1.378 . S
C728 C723 1.350 . S
C729 H716 0.929 . S
C729 C721 1.433 . S
C729 N731 1.384 . S
N730 C726 1.427 . S
N730 C727 1.384 . S
N731 C723 1.427 . S
N731 C729 1.384 . S
H732 C738 0.930 . S
H733 C742 0.930 . S
H734 C747 0.929 . S
H735 C745 0.929 . S
H736 C740 0.929 . S
H737 C746 0.929 . S
C738 H732 0.930 . S
C738 C739 1.367 . S
C738 C746 1.378 . S
C739 C738 1.367 . S
C739 C747 1.433 . S
C740 H736 0.929 . S
C740 C742 1.378 . S
C740 C744 1.350 . S
C741 C744 1.463 . S
C741 C746 1.350 . S
C741 N749 1.427 . S
C742 H733 0.930 . S
C742 C740 1.378 . S
C742 C743 1.367 . S
C743 C742 1.367 . S
C743 C745 1.433 . S
C744 C740 1.350 . S
C744 C741 1.463 . S
C744 N748 1.427 . S
C745 H735 0.929 . S
C745 C743 1.433 . S
C745 N748 1.384 . S
C746 H737 0.929 . S
C746 C738 1.378 . S
C746 C741 1.350 . S
C747 H734 0.929 . S
C747 C739 1.433 . S
C747 N749 1.384 . S
N748 C744 1.427 . S
N748 C745 1.384 . S
N749 C741 1.427 . S
N749 C747 1.384 . S
H750 C756 0.930 . S
H751 C760 0.930 . S
H752 C765 0.929 . S
H753 C763 0.929 . S
H754 C758 0.929 . S
H755 C764 0.929 . S
C756 H750 0.930 . S
C756 C757 1.367 . S
C756 C764 1.378 . S
C757 C756 1.367 . S
C757 C765 1.433 . S
C758 H754 0.929 . S
C758 C760 1.378 . S
C758 C762 1.350 . S
C759 C762 1.463 . S
C759 C764 1.350 . S
C759 N767 1.427 . S
C760 H751 0.930 . S
C760 C758 1.378 . S
C760 C761 1.367 . S
C761 C760 1.367 . S
C761 C763 1.433 . S
C762 C758 1.350 . S
C762 C759 1.463 . S
C762 N766 1.427 . S
C763 H753 0.929 . S
C763 C761 1.433 . S
C763 N766 1.384 . S
C764 H755 0.929 . S
C764 C756 1.378 . S
C764 C759 1.350 . S
C765 H752 0.929 . S
C765 C757 1.433 . S
C765 N767 1.384 . S
N766 C762 1.427 . S
N766 C763 1.384 . S
N767 C759 1.427 . S
N767 C765 1.384 . S
H768 C774 0.930 . S
H769 C778 0.930 . S
H770 C783 0.929 . S
H771 C781 0.929 . S
H772 C776 0.929 . S
H773 C782 0.929 . S
C774 H768 0.930 . S
C774 C775 1.367 . S
C774 C782 1.378 . S
C775 C774 1.367 . S
C775 C783 1.433 . S
C776 H772 0.929 . S
C776 C778 1.378 . S
C776 C780 1.350 . S
C777 C780 1.463 . S
C777 C782 1.350 . S
C777 N785 1.427 . S
C778 H769 0.930 . S
C778 C776 1.378 . S
C778 C779 1.367 . S
C779 C778 1.367 . S
C779 C781 1.433 . S
C780 C776 1.350 . S
C780 C777 1.463 . S
C780 N784 1.427 . S
C781 H771 0.929 . S
C781 C779 1.433 . S
C781 N784 1.384 . S
C782 H773 0.929 . S
C782 C774 1.378 . S
C782 C777 1.350 . S
C783 H770 0.929 . S
C783 C775 1.433 . S
C783 N785 1.384 . S
N784 C780 1.427 . S
N784 C781 1.384 . S
N785 C777 1.427 . S
N785 C783 1.384 . S
H786 C792 0.930 . S
H787 C796 0.930 . S
H788 C801 0.929 . S
H789 C799 0.929 . S
H790 C794 0.929 . S
H791 C800 0.929 . S
C792 H786 0.930 . S
C792 C793 1.367 . S
C792 C800 1.378 . S
C793 C792 1.367 . S
C793 C801 1.433 . S
C794 H790 0.929 . S
C794 C796 1.378 . S
C794 C798 1.350 . S
C795 C798 1.463 . S
C795 C800 1.350 . S
C795 N803 1.427 . S
C796 H787 0.930 . S
C796 C794 1.378 . S
C796 C797 1.367 . S
C797 C796 1.367 . S
C797 C799 1.433 . S
C798 C794 1.350 . S
C798 C795 1.463 . S
C798 N802 1.427 . S
C799 H789 0.929 . S
C799 C797 1.433 . S
C799 N802 1.384 . S
C800 H791 0.929 . S
C800 C792 1.378 . S
C800 C795 1.350 . S
C801 H788 0.929 . S
C801 C793 1.433 . S
C801 N803 1.384 . S
N802 C798 1.427 . S
N802 C799 1.384 . S
N803 C795 1.427 . S
N803 C801 1.384 . S
H804 C810 0.930 . S
H805 C814 0.930 . S
H806 C819 0.929 . S
H807 C817 0.929 . S
H808 C812 0.929 . S
H809 C818 0.929 . S
C810 H804 0.930 . S
C810 C811 1.367 . S
C810 C818 1.378 . S
C811 C810 1.367 . S
C811 C819 1.433 . S
C812 H808 0.929 . S
C812 C814 1.378 . S
C812 C816 1.350 . S
C813 C816 1.463 . S
C813 C818 1.350 . S
C813 N821 1.427 . S
C814 H805 0.930 . S
C814 C812 1.378 . S
C814 C815 1.367 . S
C815 C814 1.367 . S
C815 C817 1.433 . S
C816 C812 1.350 . S
C816 C813 1.463 . S
C816 N820 1.427 . S
C817 H807 0.929 . S
C817 C815 1.433 . S
C817 N820 1.384 . S
C818 H809 0.929 . S
C818 C810 1.378 . S
C818 C813 1.350 . S
C819 H806 0.929 . S
C819 C811 1.433 . S
C819 N821 1.384 . S
N820 C816 1.427 . S
N820 C817 1.384 . S
N821 C813 1.427 . S
N821 C819 1.384 . S
H822 C828 0.930 . S
H823 C832 0.930 . S
H824 C837 0.929 . S
H825 C835 0.929 . S
H826 C830 0.929 . S
H827 C836 0.929 . S
C828 H822 0.930 . S
C828 C829 1.367 . S
C828 C836 1.378 . S
C829 C828 1.367 . S
C829 C837 1.433 . S
C830 H826 0.929 . S
C830 C832 1.378 . S
C830 C834 1.350 . S
C831 C834 1.463 . S
C831 C836 1.350 . S
C831 N839 1.427 . S
C832 H823 0.930 . S
C832 C830 1.378 . S
C832 C833 1.367 . S
C833 C832 1.367 . S
C833 C835 1.433 . S
C834 C830 1.350 . S
C834 C831 1.463 . S
C834 N838 1.427 . S
C835 H825 0.929 . S
C835 C833 1.433 . S
C835 N838 1.384 . S
C836 H827 0.929 . S
C836 C828 1.378 . S
C836 C831 1.350 . S
C837 H824 0.929 . S
C837 C829 1.433 . S
C837 N839 1.384 . S
N838 C834 1.427 . S
N838 C835 1.384 . S
N839 C831 1.427 . S
N839 C837 1.384 . S
H840 C846 0.930 . S
H841 C850 0.930 . S
H842 C855 0.929 . S
H843 C853 0.929 . S
H844 C848 0.929 . S
H845 C854 0.929 . S
C846 H840 0.930 . S
C846 C847 1.367 . S
C846 C854 1.378 . S
C847 C846 1.367 . S
C847 C855 1.433 . S
C848 H844 0.929 . S
C848 C850 1.378 . S
C848 C852 1.350 . S
C849 C852 1.463 . S
C849 C854 1.350 . S
C849 N857 1.427 . S
C850 H841 0.930 . S
C850 C848 1.378 . S
C850 C851 1.367 . S
C851 C850 1.367 . S
C851 C853 1.433 . S
C852 C848 1.350 . S
C852 C849 1.463 . S
C852 N856 1.427 . S
C853 H843 0.929 . S
C853 C851 1.433 . S
C853 N856 1.384 . S
C854 H845 0.929 . S
C854 C846 1.378 . S
C854 C849 1.350 . S
C855 H842 0.929 . S
C855 C847 1.433 . S
C855 N857 1.384 . S
N856 C852 1.427 . S
N856 C853 1.384 . S
N857 C849 1.427 . S
N857 C855 1.384 . S
H858 C864 0.930 . S
H859 C868 0.930 . S
H860 C873 0.929 . S
H861 C871 0.929 . S
H862 C866 0.929 . S
H863 C872 0.929 . S
C864 H858 0.930 . S
C864 C865 1.367 . S
C864 C872 1.378 . S
C865 C864 1.367 . S
C865 C873 1.433 . S
C866 H862 0.929 . S
C866 C868 1.378 . S
C866 C870 1.350 . S
C867 C870 1.463 . S
C867 C872 1.350 . S
C867 N875 1.427 . S
C868 H859 0.930 . S
C868 C866 1.378 . S
C868 C869 1.367 . S
C869 C868 1.367 . S
C869 C871 1.433 . S
C870 C866 1.350 . S
C870 C867 1.463 . S
C870 N874 1.427 . S
C871 H861 0.929 . S
C871 C869 1.433 . S
C871 N874 1.384 . S
C872 H863 0.929 . S
C872 C864 1.378 . S
C872 C867 1.350 . S
C873 H860 0.929 . S
C873 C865 1.433 . S
C873 N875 1.384 . S
N874 C870 1.427 . S
N874 C871 1.384 . S
N875 C867 1.427 . S
N875 C873 1.384 . S
H876 C882 0.930 . S
H877 C886 0.930 . S
H878 C891 0.929 . S
H879 C889 0.929 . S
H880 C884 0.929 . S
H881 C890 0.929 . S
C882 H876 0.930 . S
C882 C883 1.367 . S
C882 C890 1.378 . S
C883 C882 1.367 . S
C883 C891 1.433 . S
C884 H880 0.929 . S
C884 C886 1.378 . S
C884 C888 1.350 . S
C885 C888 1.463 . S
C885 C890 1.350 . S
C885 N893 1.427 . S
C886 H877 0.930 . S
C886 C884 1.378 . S
C886 C887 1.367 . S
C887 C886 1.367 . S
C887 C889 1.433 . S
C888 C884 1.350 . S
C888 C885 1.463 . S
C888 N892 1.427 . S
C889 H879 0.929 . S
C889 C887 1.433 . S
C889 N892 1.384 . S
C890 H881 0.929 . S
C890 C882 1.378 . S
C890 C885 1.350 . S
C891 H878 0.929 . S
C891 C883 1.433 . S
C891 N893 1.384 . S
N892 C888 1.427 . S
N892 C889 1.384 . S
N893 C885 1.427 . S
N893 C891 1.384 . S
H894 C900 0.930 . S
H895 C904 0.930 . S
H896 C909 0.929 . S
H897 C907 0.929 . S
H898 C902 0.929 . S
H899 C908 0.929 . S
C900 H894 0.930 . S
C900 C901 1.367 . S
C900 C908 1.378 . S
C901 C900 1.367 . S
C901 C909 1.433 . S
C902 H898 0.929 . S
C902 C904 1.378 . S
C902 C906 1.350 . S
C903 C906 1.463 . S
C903 C908 1.350 . S
C903 N911 1.427 . S
C904 H895 0.930 . S
C904 C902 1.378 . S
C904 C905 1.367 . S
C905 C904 1.367 . S
C905 C907 1.433 . S
C906 C902 1.350 . S
C906 C903 1.463 . S
C906 N910 1.427 . S
C907 H897 0.929 . S
C907 C905 1.433 . S
C907 N910 1.384 . S
C908 H899 0.929 . S
C908 C900 1.378 . S
C908 C903 1.350 . S
C909 H896 0.929 . S
C909 C901 1.433 . S
C909 N911 1.384 . S
N910 C906 1.427 . S
N910 C907 1.384 . S
N911 C903 1.427 . S
N911 C909 1.384 . S
H912 C918 0.930 . S
H913 C922 0.930 . S
H914 C927 0.929 . S
H915 C925 0.929 . S
H916 C920 0.929 . S
H917 C926 0.929 . S
C918 H912 0.930 . S
C918 C919 1.367 . S
C918 C926 1.378 . S
C919 C918 1.367 . S
C919 C927 1.433 . S
C920 H916 0.929 . S
C920 C922 1.378 . S
C920 C924 1.350 . S
C921 C924 1.463 . S
C921 C926 1.350 . S
C921 N929 1.427 . S
C922 H913 0.930 . S
C922 C920 1.378 . S
C922 C923 1.367 . S
C923 C922 1.367 . S
C923 C925 1.433 . S
C924 C920 1.350 . S
C924 C921 1.463 . S
C924 N928 1.427 . S
C925 H915 0.929 . S
C925 C923 1.433 . S
C925 N928 1.384 . S
C926 H917 0.929 . S
C926 C918 1.378 . S
C926 C921 1.350 . S
C927 H914 0.929 . S
C927 C919 1.433 . S
C927 N929 1.384 . S
N928 C924 1.427 . S
N928 C925 1.384 . S
N929 C921 1.427 . S
N929 C927 1.384 . S
H930 C936 0.930 . S
H931 C940 0.930 . S
H932 C945 0.929 . S
H933 C943 0.929 . S
H934 C938 0.929 . S
H935 C944 0.929 . S
C936 H930 0.930 . S
C936 C937 1.367 . S
C936 C944 1.378 . S
C937 C936 1.367 . S
C937 C945 1.433 . S
C938 H934 0.929 . S
C938 C940 1.378 . S
C938 C942 1.350 . S
C939 C942 1.463 . S
C939 C944 1.350 . S
C939 N947 1.427 . S
C940 H931 0.930 . S
C940 C938 1.378 . S
C940 C941 1.367 . S
C941 C940 1.367 . S
C941 C943 1.433 . S
C942 C938 1.350 . S
C942 C939 1.463 . S
C942 N946 1.427 . S
C943 H933 0.929 . S
C943 C941 1.433 . S
C943 N946 1.384 . S
C944 H935 0.929 . S
C944 C936 1.378 . S
C944 C939 1.350 . S
C945 H932 0.929 . S
C945 C937 1.433 . S
C945 N947 1.384 . S
N946 C942 1.427 . S
N946 C943 1.384 . S
N947 C939 1.427 . S
N947 C945 1.384 . S
H948 C954 0.930 . S
H949 C958 0.930 . S
H950 C963 0.929 . S
H951 C961 0.929 . S
H952 C956 0.929 . S
H953 C962 0.929 . S
C954 H948 0.930 . S
C954 C955 1.367 . S
C954 C962 1.378 . S
C955 C954 1.367 . S
C955 C963 1.433 . S
C956 H952 0.929 . S
C956 C958 1.378 . S
C956 C960 1.350 . S
C957 C960 1.463 . S
C957 C962 1.350 . S
C957 N965 1.427 . S
C958 H949 0.930 . S
C958 C956 1.378 . S
C958 C959 1.367 . S
C959 C958 1.367 . S
C959 C961 1.433 . S
C960 C956 1.350 . S
C960 C957 1.463 . S
C960 N964 1.427 . S
C961 H951 0.929 . S
C961 C959 1.433 . S
C961 N964 1.384 . S
C962 H953 0.929 . S
C962 C954 1.378 . S
C962 C957 1.350 . S
C963 H950 0.929 . S
C963 C955 1.433 . S
C963 N965 1.384 . S
N964 C960 1.427 . S
N964 C961 1.384 . S
N965 C957 1.427 . S
N965 C963 1.384 . S
H966 C972 0.930 . S
H967 C976 0.930 . S
H968 C981 0.929 . S
H969 C979 0.929 . S
H970 C974 0.929 . S
H971 C980 0.929 . S
C972 H966 0.930 . S
C972 C973 1.367 . S
C972 C980 1.378 . S
C973 C972 1.367 . S
C973 C981 1.433 . S
C974 H970 0.929 . S
C974 C976 1.378 . S
C974 C978 1.350 . S
C975 C978 1.463 . S
C975 C980 1.350 . S
C975 N983 1.427 . S
C976 H967 0.930 . S
C976 C974 1.378 . S
C976 C977 1.367 . S
C977 C976 1.367 . S
C977 C979 1.433 . S
C978 C974 1.350 . S
C978 C975 1.463 . S
C978 N982 1.427 . S
C979 H969 0.929 . S
C979 C977 1.433 . S
C979 N982 1.384 . S
C980 H971 0.929 . S
C980 C972 1.378 . S
C980 C975 1.350 . S
C981 H968 0.929 . S
C981 C973 1.433 . S
C981 N983 1.384 . S
N982 C978 1.427 . S
N982 C979 1.384 . S
N983 C975 1.427 . S
N983 C981 1.384 . S
H984 C990 0.930 . S
H985 C994 0.930 . S
H986 C999 0.929 . S
H987 C997 0.929 . S
H988 C992 0.929 . S
H989 C998 0.929 . S
C990 H984 0.930 . S
C990 C991 1.367 . S
C990 C998 1.378 . S
C991 C990 1.367 . S
C991 C999 1.433 . S
C992 H988 0.929 . S
C992 C994 1.378 . S
C992 C996 1.350 . S
C993 C996 1.463 . S
C993 C998 1.350 . S
C993 N1001 1.427 . S
C994 H985 0.930 . S
C994 C992 1.378 . S
C994 C995 1.367 . S
C995 C994 1.367 . S
C995 C997 1.433 . S
C996 C992 1.350 . S
C996 C993 1.463 . S
C996 N1000 1.427 . S
C997 H987 0.929 . S
C997 C995 1.433 . S
C997 N1000 1.384 . S
C998 H989 0.929 . S
C998 C990 1.378 . S
C998 C993 1.350 . S
C999 H986 0.929 . S
C999 C991 1.433 . S
C999 N1001 1.384 . S
N1000 C996 1.427 . S
N1000 C997 1.384 . S
N1001 C993 1.427 . S
N1001 C999 1.384 . S
H1002 C1008 0.930 . S
H1003 C1012 0.930 . S
H1004 C1017 0.929 . S
H1005 C1015 0.929 . S
H1006 C1010 0.929 . S
H1007 C1016 0.929 . S
C1008 H1002 0.930 . S
C1008 C1009 1.367 . S
C1008 C1016 1.378 . S
C1009 C1008 1.367 . S
C1009 C1017 1.433 . S
C1010 H1006 0.929 . S
C1010 C1012 1.378 . S
C1010 C1014 1.350 . S
C1011 C1014 1.463 . S
C1011 C1016 1.350 . S
C1011 N1019 1.427 . S
C1012 H1003 0.930 . S
C1012 C1010 1.378 . S
C1012 C1013 1.367 . S
C1013 C1012 1.367 . S
C1013 C1015 1.433 . S
C1014 C1010 1.350 . S
C1014 C1011 1.463 . S
C1014 N1018 1.427 . S
C1015 H1005 0.929 . S
C1015 C1013 1.433 . S
C1015 N1018 1.384 . S
C1016 H1007 0.929 . S
C1016 C1008 1.378 . S
C1016 C1011 1.350 . S
C1017 H1004 0.929 . S
C1017 C1009 1.433 . S
C1017 N1019 1.384 . S
N1018 C1014 1.427 . S
N1018 C1015 1.384 . S
N1019 C1011 1.427 . S
N1019 C1017 1.384 . S
H1020 C1026 0.930 . S
H1021 C1030 0.930 . S
H1022 C1035 0.929 . S
H1023 C1033 0.929 . S
H1024 C1028 0.929 . S
H1025 C1034 0.929 . S
C1026 H1020 0.930 . S
C1026 C1027 1.367 . S
C1026 C1034 1.378 1_556 S
C1027 C1026 1.367 . S
C1027 C1035 1.433 . S
C1028 H1024 0.929 . S
C1028 C1030 1.378 1_556 S
C1028 C1032 1.350 1_556 S
C1029 C1032 1.463 1_556 S
C1029 C1034 1.350 1_556 S
C1029 N1037 1.427 . S
C1030 H1021 0.930 . S
C1030 C1028 1.378 1_554 S
C1030 C1031 1.367 . S
C1031 C1030 1.367 . S
C1031 C1033 1.433 . S
C1032 C1028 1.350 1_554 S
C1032 C1029 1.463 1_554 S
C1032 N1036 1.427 . S
C1033 H1023 0.929 . S
C1033 C1031 1.433 . S
C1033 N1036 1.384 . S
C1034 H1025 0.929 . S
C1034 C1026 1.378 1_554 S
C1034 C1029 1.350 1_554 S
C1035 H1022 0.929 . S
C1035 C1027 1.433 . S
C1035 N1037 1.384 . S
N1036 C1032 1.427 . S
N1036 C1033 1.384 . S
N1037 C1029 1.427 . S
N1037 C1035 1.384 . S
H1038 C1044 0.930 . S
H1039 C1048 0.930 . S
H1040 C1053 0.929 . S
H1041 C1051 0.929 . S
H1042 C1046 0.929 . S
H1043 C1052 0.929 . S
C1044 H1038 0.930 . S
C1044 C1045 1.367 . S
C1044 C1052 1.378 . S
C1045 C1044 1.367 . S
C1045 C1053 1.433 . S
C1046 H1042 0.929 . S
C1046 C1048 1.378 . S
C1046 C1050 1.350 . S
C1047 C1050 1.463 1_455 S
C1047 C1052 1.350 . S
C1047 N1055 1.427 . S
C1048 H1039 0.930 . S
C1048 C1046 1.378 . S
C1048 C1049 1.367 . S
C1049 C1048 1.367 . S
C1049 C1051 1.433 . S
C1050 C1046 1.350 . S
C1050 C1047 1.463 1_655 S
C1050 N1054 1.427 . S
C1051 H1041 0.929 . S
C1051 C1049 1.433 . S
C1051 N1054 1.384 . S
C1052 H1043 0.929 . S
C1052 C1044 1.378 . S
C1052 C1047 1.350 . S
C1053 H1040 0.929 . S
C1053 C1045 1.433 . S
C1053 N1055 1.384 . S
N1054 C1050 1.427 . S
N1054 C1051 1.384 . S
N1055 C1047 1.427 . S
N1055 C1053 1.384 . S
H1056 C1062 0.930 . S
H1057 C1066 0.930 . S
H1058 C1071 0.929 . S
H1059 C1069 0.929 . S
H1060 C1064 0.929 . S
H1061 C1070 0.929 . S
C1062 H1056 0.930 . S
C1062 C1063 1.367 . S
C1062 C1070 1.378 . S
C1063 C1062 1.367 . S
C1063 C1071 1.433 . S
C1064 H1060 0.929 . S
C1064 C1066 1.378 . S
C1064 C1068 1.350 . S
C1065 C1068 1.463 1_564 S
C1065 C1070 1.350 . S
C1065 N1073 1.427 . S
C1066 H1057 0.930 . S
C1066 C1064 1.378 . S
C1066 C1067 1.367 . S
C1067 C1066 1.367 . S
C1067 C1069 1.433 . S
C1068 C1064 1.350 . S
C1068 C1065 1.463 1_546 S
C1068 N1072 1.427 . S
C1069 H1059 0.929 . S
C1069 C1067 1.433 . S
C1069 N1072 1.384 . S
C1070 H1061 0.929 . S
C1070 C1062 1.378 . S
C1070 C1065 1.350 . S
C1071 H1058 0.929 . S
C1071 C1063 1.433 . S
C1071 N1073 1.384 . S
N1072 C1068 1.427 . S
N1072 C1069 1.384 . S
N1073 C1065 1.427 . S
N1073 C1071 1.384 . S
H1074 C1080 0.930 . S
H1075 C1084 0.930 . S
H1076 C1089 0.929 . S
H1077 C1087 0.929 . S
H1078 C1082 0.929 . S
H1079 C1088 0.929 . S
C1080 H1074 0.930 . S
C1080 C1081 1.367 . S
C1080 C1088 1.378 . S
C1081 C1080 1.367 . S
C1081 C1089 1.433 . S
C1082 H1078 0.929 . S
C1082 C1084 1.378 . S
C1082 C1086 1.350 . S
C1083 C1086 1.463 . S
C1083 C1088 1.350 . S
C1083 N1091 1.427 . S
C1084 H1075 0.930 . S
C1084 C1082 1.378 . S
C1084 C1085 1.367 . S
C1085 C1084 1.367 . S
C1085 C1087 1.433 . S
C1086 C1082 1.350 . S
C1086 C1083 1.463 . S
C1086 N1090 1.427 . S
C1087 H1077 0.929 . S
C1087 C1085 1.433 . S
C1087 N1090 1.384 . S
C1088 H1079 0.929 . S
C1088 C1080 1.378 . S
C1088 C1083 1.350 . S
C1089 H1076 0.929 . S
C1089 C1081 1.433 . S
C1089 N1091 1.384 . S
N1090 C1086 1.427 . S
N1090 C1087 1.384 . S
N1091 C1083 1.427 . S
N1091 C1089 1.384 . S
H1092 C1098 0.930 . S
H1093 C1102 0.930 . S
H1094 C1107 0.929 . S
H1095 C1105 0.929 . S
H1096 C1100 0.929 . S
H1097 C1106 0.929 . S
C1098 H1092 0.930 . S
C1098 C1099 1.367 . S
C1098 C1106 1.378 . S
C1099 C1098 1.367 . S
C1099 C1107 1.433 . S
C1100 H1096 0.929 . S
C1100 C1102 1.378 . S
C1100 C1104 1.350 . S
C1101 C1104 1.463 1_656 S
C1101 C1106 1.350 . S
C1101 N1109 1.427 . S
C1102 H1093 0.930 . S
C1102 C1100 1.378 . S
C1102 C1103 1.367 . S
C1103 C1102 1.367 . S
C1103 C1105 1.433 . S
C1104 C1100 1.350 . S
C1104 C1101 1.463 1_454 S
C1104 N1108 1.427 . S
C1105 H1095 0.929 . S
C1105 C1103 1.433 . S
C1105 N1108 1.384 . S
C1106 H1097 0.929 . S
C1106 C1098 1.378 . S
C1106 C1101 1.350 . S
C1107 H1094 0.929 . S
C1107 C1099 1.433 . S
C1107 N1109 1.384 . S
N1108 C1104 1.427 . S
N1108 C1105 1.384 . S
N1109 C1101 1.427 . S
N1109 C1107 1.384 . S
H1110 C1116 0.930 . S
H1111 C1120 0.930 . S
H1112 C1125 0.929 . S
H1113 C1123 0.929 . S
H1114 C1118 0.929 . S
H1115 C1124 0.929 . S
C1116 H1110 0.930 . S
C1116 C1117 1.367 . S
C1116 C1124 1.378 . S
C1117 C1116 1.367 . S
C1117 C1125 1.433 . S
C1118 H1114 0.929 . S
C1118 C1120 1.378 . S
C1118 C1122 1.350 . S
C1119 C1122 1.463 1_565 S
C1119 C1124 1.350 . S
C1119 N1127 1.427 . S
C1120 H1111 0.930 . S
C1120 C1118 1.378 . S
C1120 C1121 1.367 . S
C1121 C1120 1.367 . S
C1121 C1123 1.433 . S
C1122 C1118 1.350 . S
C1122 C1119 1.463 1_545 S
C1122 N1126 1.427 . S
C1123 H1113 0.929 . S
C1123 C1121 1.433 . S
C1123 N1126 1.384 . S
C1124 H1115 0.929 . S
C1124 C1116 1.378 . S
C1124 C1119 1.350 . S
C1125 H1112 0.929 . S
C1125 C1117 1.433 . S
C1125 N1127 1.384 . S
N1126 C1122 1.427 . S
N1126 C1123 1.384 . S
N1127 C1119 1.427 . S
N1127 C1125 1.384 . S
C487 C184 1.216 . S
C491 C17 1.219 . S
C505 C224 1.221 . S
C509 C57 1.224 . S
C523 C97 1.232 . S
C527 C24 1.229 . S
C541 C137 1.219 . S
C545 C64 1.216 . S
C559 C177 1.221 . S
C563 C104 1.218 . S
C577 C144 1.216 . S
C581 C217 1.219 . S
C595 C344 1.224 . S
C599 C257 1.227 . S
C613 C297 1.231 . S
C617 C384 1.228 . S
C631 C424 1.231 . S
C635 C337 1.233 . S
C649 C377 1.222 . S
C653 C464 1.220 . S
C667 C417 1.234 . S
C671 C264 1.231 . S
C685 C304 1.232 . S
C689 C457 1.234 . S
C703 C173 1.565 . S
C707 C26 1.565 . S
C721 C66 1.564 . S
C725 C213 1.564 . S
C739 C106 1.558 . S
C743 C13 1.557 . S
C757 C146 1.563 . S
C761 C53 1.563 . S
C775 C93 1.554 . S
C779 C186 1.555 . S
C793 C133 1.558 . S
C797 C226 1.558 . S
C811 C333 1.554 . S
C815 C266 1.555 . S
C829 C306 1.565 . S
C833 C373 1.564 . S
C847 C346 1.561 . S
C851 C413 1.561 . S
C865 C453 1.554 . S
C869 C386 1.555 . S
C883 C426 1.562 . S
C887 C253 1.562 . S
C901 C293 1.554 . S
C905 C466 1.555 . S
C919 C423 1.673 . S
C923 C23 1.674 . S
C937 C63 1.665 . S
C941 C463 1.675 . S
C955 C103 1.671 . S
C959 C263 1.675 . S
C973 C143 1.661 . S
C977 C303 1.672 . S
C991 C183 1.670 . S
C995 C343 1.660 . S
C1009 C383 1.665 . S
C1013 C223 1.675 . S
C1027 C362 2.218 . S
C1031 C2 2.217 . S
C1045 C402 2.213 . S
C1049 C42 2.215 . S
C1063 C82 2.215 . S
C1067 C442 2.212 . S
C1081 C122 2.216 . S
C1085 C242 2.213 . S
C1099 C282 2.213 . S
C1103 C162 2.216 . S
C1117 C322 2.218 . S
C1121 C202 2.218 . S
