# Generated by pormake.
# Topology umf, (4)-cn, num edge types: 1
# Building blocks:
#     Node 0, Type 0, BuildingBlock: QUQFOY_clean_sbu_3, # of connection points: 4
#     Node 1, Type 0, BuildingBlock: QUQFOY_clean_sbu_3, # of connection points: 4
#     Node 2, Type 0, BuildingBlock: QUQFOY_clean_sbu_3, # of connection points: 4
#     Node 3, Type 0, BuildingBlock: QUQFOY_clean_sbu_3, # of connection points: 4
#     Node 4, Type 0, BuildingBlock: QUQFOY_clean_sbu_3, # of connection points: 4
#     Node 5, Type 0, BuildingBlock: QUQFOY_clean_sbu_3, # of connection points: 4
#     Node 6, Type 0, BuildingBlock: QUQFOY_clean_sbu_3, # of connection points: 4
#     Node 7, Type 0, BuildingBlock: QUQFOY_clean_sbu_3, # of connection points: 4
#     Edge 8, Type (0, 0), BuildingBlock: AJUNOK_clean_linker_0, # of connection points: 2
#     Edge 9, Type (0, 0), BuildingBlock: AJUNOK_clean_linker_0, # of connection points: 2
#     Edge 10, Type (0, 0), BuildingBlock: AJUNOK_clean_linker_0, # of connection points: 2
#     Edge 11, Type (0, 0), BuildingBlock: AJUNOK_clean_linker_0, # of connection points: 2
#     Edge 12, Type (0, 0), BuildingBlock: AJUNOK_clean_linker_0, # of connection points: 2
#     Edge 13, Type (0, 0), BuildingBlock: AJUNOK_clean_linker_0, # of connection points: 2
#     Edge 14, Type (0, 0), BuildingBlock: AJUNOK_clean_linker_0, # of connection points: 2
#     Edge 15, Type (0, 0), BuildingBlock: AJUNOK_clean_linker_0, # of connection points: 2
#     Edge 16, Type (0, 0), BuildingBlock: AJUNOK_clean_linker_0, # of connection points: 2
#     Edge 17, Type (0, 0), BuildingBlock: AJUNOK_clean_linker_0, # of connection points: 2
#     Edge 18, Type (0, 0), BuildingBlock: AJUNOK_clean_linker_0, # of connection points: 2
#     Edge 19, Type (0, 0), BuildingBlock: AJUNOK_clean_linker_0, # of connection points: 2
#     Edge 20, Type (0, 0), BuildingBlock: AJUNOK_clean_linker_0, # of connection points: 2
#     Edge 21, Type (0, 0), BuildingBlock: AJUNOK_clean_linker_0, # of connection points: 2
#     Edge 22, Type (0, 0), BuildingBlock: AJUNOK_clean_linker_0, # of connection points: 2
#     Edge 23, Type (0, 0), BuildingBlock: AJUNOK_clean_linker_0, # of connection points: 2
# Relax obj value: 0.167
# Max RMSD: 0.288
# Mean RMSD: 0.288
data_MOF--net-umf--node1-QUQFOY_clean_sbu_3--edge1-AJUNOK_clean_linker_0
_symmetry_space_group_name_H-M    P1
_symmetry_Int_Tables_number       1
_symmetry_cell_setting            triclinic
loop_
_symmetry_equiv_pos_as_xyz
'x, y, z'
_cell_length_a     22.403048
_cell_length_b     22.357794
_cell_length_c     39.907415
_cell_angle_alpha  90.394171
_cell_angle_beta   89.444911
_cell_angle_gamma 89.723236
loop_
_atom_site_label
_atom_site_type_symbol
_atom_site_fract_x
_atom_site_fract_y
_atom_site_fract_z
_atom_type_partial_charge
C0 C 0.15108 0.20687 0.16569 0.0
O1 O 0.17839 0.18945 0.1394 0.0
Cd2 Cd 0.11397 0.16435 0.09275 0.0
O3 O 0.09576 0.21858 0.16452 0.0
Cd4 Cd 0.01512 0.23077 0.12487 0.0
C5 C 0.00443 0.08476 0.1334 0.0
O6 O 0.05252 0.24 0.06645 0.0
O7 O 0.96068 0.21243 0.07517 0.0
O8 O 0.02962 0.3332 0.1383 0.0
C9 C 0.00107 0.22801 0.05457 0.0
O10 O 0.05071 0.0858 0.11465 0.0
C11 C -0.02367 0.3443 0.14741 0.0
O12 O -0.02019 0.13324 0.14349 0.0
O13 O 0.93935 0.30115 0.14662 0.0
C14 C 0.71035 0.16458 0.68048 0.0
O15 O 0.69687 0.1934 0.65441 0.0
Cd16 Cd 0.74677 0.12757 0.61343 0.0
O17 O 0.72956 0.11152 0.67719 0.0
Cd18 Cd 0.70727 0.05005 0.62813 0.0
C19 C 0.8456 0.03514 0.64519 0.0
O20 O 0.70675 0.07267 0.5663 0.0
O21 O 0.7202 -0.01887 0.584 0.0
O22 O 0.60582 0.08011 0.63685 0.0
C23 C 0.71107 0.0165 0.55976 0.0
O24 O 0.8417 0.08695 0.63247 0.0
C25 C 0.58877 0.02991 0.6481 0.0
O26 O 0.79848 0.00422 0.64852 0.0
O27 O 0.62797 -0.01144 0.65036 0.0
C28 C 0.78259 0.71759 0.17078 0.0
O29 O 0.75436 0.69599 0.14622 0.0
Cd30 Cd 0.81297 0.7468 0.10239 0.0
O31 O 0.83308 0.74081 0.1652 0.0
Cd32 Cd 0.89377 0.70958 0.11702 0.0
C33 C 0.90408 0.84876 0.13338 0.0
O34 O 0.8703 0.70596 0.05558 0.0
O35 O 0.96165 0.72249 0.07229 0.0
O36 O 0.8665 0.60808 0.12828 0.0
C37 C 0.92593 0.71217 0.04841 0.0
O38 O 0.8523 0.84326 0.12099 0.0
C39 C 0.917 0.59321 0.13999 0.0
O40 O 0.93689 0.80257 0.13635 0.0
O41 O 0.95716 0.63341 0.141 0.0
C42 C 0.22083 0.79524 0.66768 0.0
O43 O 0.2041 0.76652 0.64198 0.0
Cd44 Cd 0.16619 0.83145 0.59832 0.0
O45 O 0.22544 0.85158 0.66634 0.0
Cd46 Cd 0.22656 0.93219 0.62605 0.0
C47 C 0.08192 0.93512 0.64147 0.0
O48 O 0.23424 0.89543 0.56726 0.0
O49 O 0.20441 -0.0131 0.5769 0.0
O50 O 0.32964 0.91972 0.63565 0.0
C51 C 0.22078 0.9471 0.55591 0.0
O52 O 0.08401 0.88808 0.62335 0.0
C53 C 0.33953 -0.02763 0.64611 0.0
O54 O 0.12948 0.96344 0.6484 0.0
O55 O 0.29534 0.00853 0.6474 0.0
C56 C 0.17409 0.73205 0.80171 0.0
O57 O 0.19982 0.74803 0.82843 0.0
Cd58 Cd 0.12852 0.77629 0.87223 0.0
O59 O 0.11859 0.7218 0.80227 0.0
Cd60 Cd 0.0351 0.70967 0.84024 0.0
C61 C 0.0247 0.8548 0.82755 0.0
O62 O 0.06408 0.70385 0.9 0.0
O63 O -0.02697 0.72934 0.88751 0.0
O64 O 0.05478 0.60659 0.83001 0.0
C65 C 0.01062 0.71544 0.90977 0.0
O66 O 0.06946 0.85502 0.84695 0.0
C67 C 0.0045 0.5943 0.81743 0.0
O68 O 7e-05 0.80581 0.81903 0.0
O69 O 0.96687 0.63705 0.81511 0.0
C70 C 0.2066 0.14398 0.29977 0.0
O71 O 0.19127 0.17246 0.32607 0.0
Cd72 Cd 0.16232 0.11101 0.37329 0.0
O73 O 0.21637 0.08813 0.3013 0.0
Cd74 Cd 0.22718 0.00844 0.34241 0.0
C75 C 0.08058 0.00112 0.33421 0.0
O76 O 0.23626 0.04891 0.40004 0.0
O77 O 0.20778 0.95677 0.39331 0.0
O78 O 0.33041 0.02113 0.33031 0.0
C79 C 0.22317 -0.0015 0.41306 0.0
O80 O 0.08276 0.04873 0.35183 0.0
C81 C 0.34142 0.96747 0.32172 0.0
O82 O 0.12827 -0.02614 0.32514 0.0
O83 O 0.2976 0.93124 0.32168 0.0
C84 C 0.7667 0.21543 0.81384 0.0
O85 O 0.74498 0.19334 0.84044 0.0
Cd86 Cd 0.81885 0.1649 0.88176 0.0
O87 O 0.8218 0.22734 0.81216 0.0
Cd88 Cd 0.91234 0.23408 0.84412 0.0
C89 C 0.91915 0.08712 0.83186 0.0
O90 O 0.88413 0.24198 0.90397 0.0
O91 O -0.02419 0.21857 0.89091 0.0
O92 O 0.89448 0.33613 0.83147 0.0
C93 C 0.93757 0.23179 0.91343 0.0
O94 O 0.87713 0.08713 0.85358 0.0
C95 C 0.94496 0.34627 0.81816 0.0
O96 O 0.94159 0.13611 0.82167 0.0
O97 O -0.01771 0.30305 0.81683 0.0
C98 C 0.7212 0.76843 0.30588 0.0
O99 O 0.6893 0.74826 0.32951 0.0
Cd100 Cd 0.74072 0.81289 0.37043 0.0
O101 O 0.74693 0.81813 0.31005 0.0
Cd102 Cd 0.70643 0.88709 0.35391 0.0
C103 C 0.84346 0.90358 0.3386 0.0
O104 O 0.69766 0.86679 0.4162 0.0
O105 O 0.72025 0.95634 0.39921 0.0
O106 O 0.60609 0.85711 0.34111 0.0
C107 C 0.70682 0.92183 0.42327 0.0
O108 O 0.83845 0.85298 0.35274 0.0
C109 C 0.59049 0.90702 0.32885 0.0
O110 O 0.79655 0.93424 0.33345 0.0
O111 O 0.62983 0.94803 0.32785 0.0
C112 C 0.89996 0.42533 0.1455 0.0
C113 C 0.95773 0.4066 0.15393 0.0
C114 C 0.8861 0.48626 0.14305 0.0
C115 C 0.9295 0.5304 0.14907 0.0
H116 H 0.86649 0.39293 0.1384 0.0
H117 H 0.84196 0.49857 0.13456 0.0
S118 S 0.08354 0.50382 0.17915 0.0
N119 N 0.05574 0.43628 0.17354 0.0
N120 N 0.02972 0.55088 0.16907 0.0
C121 C -0.01433 0.51209 0.1607 0.0
C122 C -0.00023 0.45009 0.16311 0.0
C123 C 0.44483 0.94521 0.65739 0.0
C124 C 0.40125 -0.0098 0.65369 0.0
C125 C 0.5055 0.95897 0.65793 0.0
C126 C 0.52492 0.01825 0.65462 0.0
H127 H 0.43225 0.89851 0.65832 0.0
H128 H 0.53733 0.92242 0.65902 0.0
S129 S 0.42833 0.15346 0.65041 0.0
N130 N 0.38111 0.097 0.6512 0.0
N131 N 0.4956 0.12324 0.65228 0.0
C132 C 0.48168 0.06421 0.65384 0.0
C133 C 0.41965 0.0501 0.65341 0.0
C134 C 0.02048 0.42648 0.81168 0.0
C135 C 0.96106 0.40783 0.80898 0.0
C136 C 0.03458 0.48733 0.81191 0.0
C137 C -0.01023 0.53153 0.80931 0.0
H138 H 0.05577 0.39428 0.81615 0.0
H139 H 0.08061 0.49971 0.81614 0.0
S140 S 0.82912 0.5046 0.79385 0.0
N141 N 0.85845 0.43717 0.79785 0.0
N142 N 0.88501 0.55181 0.79826 0.0
C143 C 0.93108 0.51312 0.80298 0.0
C144 C 0.91671 0.45109 0.80286 0.0
C145 C 0.44828 -0.00747 0.31257 0.0
C146 C 0.40399 0.94841 0.31584 0.0
C147 C 0.5089 -0.02193 0.31443 0.0
C148 C 0.52766 0.9189 0.31979 0.0
H149 H 0.43608 0.03927 0.31027 0.0
H150 H 0.54096 0.01416 0.31362 0.0
S151 S 0.43006 0.7852 0.32364 0.0
N152 N 0.3833 0.84204 0.31999 0.0
N153 N 0.49756 0.81455 0.3234 0.0
C154 C 0.48415 0.87355 0.32005 0.0
C155 C 0.42219 0.88837 0.31805 0.0
C156 C 0.91113 0.2331 0.97446 0.0
C157 C 0.95507 0.23474 0.94917 0.0
C158 C 0.92672 0.2318 0.00836 0.0
C159 C -0.01311 0.23276 0.01844 0.0
H160 H 0.86428 0.23138 0.96807 0.0
H161 H 0.89104 0.22955 0.02682 0.0
S162 S 0.11912 0.2408 0.96207 0.0
N163 N 0.06159 0.23985 0.93654 0.0
N164 N 0.09057 0.23788 0.00032 0.0
C165 C 0.0313 0.23621 -0.00653 0.0
C166 C 0.01547 0.23701 0.95885 0.0
C167 C 0.7136 0.02975 0.49736 0.0
C168 C 0.70596 -0.00774 0.52516 0.0
C169 C 0.7128 0.00666 0.46457 0.0
C170 C 0.70383 0.9452 0.45822 0.0
H171 H 0.72172 0.0771 0.50091 0.0
H172 H 0.7201 0.03731 0.44405 0.0
S173 S 0.67656 0.82874 0.52235 0.0
N174 N 0.6856 0.89098 0.54414 0.0
N175 N 0.68392 0.8479 0.48268 0.0
C176 C 0.69418 0.90756 0.4858 0.0
C177 C 0.69532 0.93097 0.51919 0.0
C178 C 0.90879 0.71322 0.9865 0.0
C179 C 0.94866 0.70903 0.01332 0.0
C180 C 0.92946 0.71454 0.95326 0.0
C181 C -0.00907 0.71119 0.94534 0.0
H182 H 0.86117 0.71688 -0.00883 0.0
H183 H 0.89673 0.71872 0.93362 0.0
S184 S 0.11392 0.69595 0.00628 0.0
N185 N 0.05277 0.69888 0.02967 0.0
N186 N 0.09132 0.70107 0.96715 0.0
C187 C 0.03126 0.70529 0.97184 0.0
C188 C 0.01026 0.70433 0.0058 0.0
C189 C 0.2248 0.92789 0.46135 0.0
C190 C 0.22619 -0.01277 0.4496 0.0
C191 C 0.22462 0.91521 0.4957 0.0
C192 C 0.225 0.96137 0.51972 0.0
H193 H 0.22344 0.89065 0.44387 0.0
H194 H 0.22272 0.8689 0.50344 0.0
S195 S 0.23148 0.12437 0.50226 0.0
N196 N 0.23033 0.09253 0.46483 0.0
N197 N 0.2294 0.06899 0.52939 0.0
C198 C 0.22758 0.02095 0.50836 0.0
C199 C 0.2284 0.0338 0.47333 0.0
C200 C 0.22048 0.15844 0.20579 0.0
C201 C 0.17941 0.20427 0.19896 0.0
C202 C 0.23326 0.14262 0.23889 0.0
C203 C 0.20587 0.17243 0.2663 0.0
H204 H 0.23878 0.13111 0.18562 0.0
H205 H 0.26172 0.10407 0.24294 0.0
S206 S 0.10563 0.30459 0.26135 0.0
N207 N 0.1193 0.2859 0.22191 0.0
N208 N 0.14364 0.2565 0.28414 0.0
C209 C 0.17026 0.22286 0.25971 0.0
C210 C 0.15688 0.23863 0.22599 0.0
C211 C 0.69734 0.16719 0.77406 0.0
C212 C 0.73286 0.21656 0.78234 0.0
C213 C 0.68479 0.15393 0.74053 0.0
C214 C 0.70617 0.19032 0.71443 0.0
H215 H 0.68491 0.135 0.79303 0.0
H216 H 0.66235 0.1123 0.7348 0.0
S217 S 0.78933 0.33191 0.7238 0.0
N218 N 0.78063 0.30735 0.76248 0.0
N219 N 0.75576 0.2827 0.69939 0.0
C220 C 0.73484 0.24385 0.7227 0.0
C221 C 0.74845 0.25696 0.7568 0.0
C222 C 0.78857 0.72162 0.26465 0.0
C223 C 0.72999 0.7369 0.27392 0.0
C224 C 0.80371 0.71049 0.2312 0.0
C225 C 0.7609 0.71488 0.20575 0.0
H226 H 0.82383 0.72254 0.28306 0.0
H227 H 0.85022 0.70201 0.22501 0.0
S228 S 0.59986 0.74767 0.21775 0.0
N229 N 0.6277 0.75103 0.25593 0.0
N230 N 0.65625 0.72993 0.19249 0.0
C231 C 0.70107 0.72523 0.215 0.0
C232 C 0.68559 0.73653 0.24933 0.0
C233 C 0.19054 0.71677 0.70845 0.0
C234 C 0.22637 0.76621 0.70072 0.0
C235 C 0.17939 0.70113 0.74185 0.0
C236 C 0.20405 0.73407 0.76856 0.0
H237 H 0.16631 0.6937 0.68891 0.0
H238 H 0.1471 0.66626 0.7468 0.0
S239 S 0.31317 0.85737 0.76103 0.0
N240 N 0.29596 0.84034 0.72198 0.0
N241 N 0.27469 0.81089 0.78478 0.0
C242 C 0.24628 0.77821 0.76099 0.0
C243 C 0.25742 0.79439 0.72698 0.0
C244 C 0.01458 -0.02515 0.14026 0.0
C245 C -0.02223 0.02602 0.14087 0.0
C246 C -0.00972 0.9174 0.14033 0.0
C247 C 0.92817 0.90894 0.1405 0.0
H248 H 0.06263 -0.02082 0.13823 0.0
H249 H 0.02049 0.87955 0.13813 0.0
S250 S 0.81255 0.02808 0.14722 0.0
N251 N 0.87639 0.06464 0.14568 0.0
N252 N 0.83039 0.95636 0.14547 0.0
C253 C 0.8909 0.95962 0.14367 0.0
C254 C 0.91579 0.01829 0.14401 0.0
C255 C 0.01376 0.02227 0.65048 0.0
C256 C 0.02286 0.96009 0.65071 0.0
C257 C 0.95596 0.04648 0.651 0.0
C258 C 0.90528 0.00938 0.65216 0.0
H259 H 0.05122 0.05229 0.64745 0.0
H260 H 0.95104 0.0945 0.64873 0.0
S261 S 0.9063 0.84399 0.66004 0.0
N262 N -0.02255 0.86228 0.65705 0.0
N263 N 0.86875 0.90761 0.65851 0.0
C264 C 0.91418 0.9474 0.65573 0.0
C265 C -0.02697 0.92279 0.65482 0.0
C266 C 0.90965 -0.02284 0.82312 0.0
C267 C 0.94519 0.02892 0.82154 0.0
C268 C 0.93532 0.91995 0.82154 0.0
C269 C -0.00254 0.91273 0.81895 0.0
H270 H 0.86197 -0.01913 0.82753 0.0
H271 H 0.90681 0.88148 0.82519 0.0
S272 S 0.10914 0.03309 0.80813 0.0
N273 N 0.0448 0.06885 0.81243 0.0
N274 N 0.09316 0.96117 0.8102 0.0
C275 C 0.0329 0.96379 0.81434 0.0
C276 C 0.0067 0.02203 0.81538 0.0
C277 C 0.9542 0.89031 0.33314 0.0
C278 C 0.90355 0.92773 0.33084 0.0
C279 C 0.01213 0.91366 0.33133 0.0
C280 C 0.02135 -0.02469 0.32759 0.0
H281 H 0.94917 0.84291 0.33779 0.0
H282 H 0.04966 0.88382 0.33517 0.0
S283 S 0.90489 0.09125 0.31508 0.0
N284 N 0.8672 0.02869 0.32038 0.0
N285 N -0.02397 0.07239 0.31757 0.0
C286 C -0.02852 0.01255 0.3228 0.0
C287 C 0.91257 -0.0112 0.32423 0.0
loop_
_geom_bond_atom_site_label_1
_geom_bond_atom_site_label_2
_geom_bond_distance
_geom_bond_site_symmetry_2
_ccdc_geom_bond_type
C0 O1 1.306 . S
C0 O3 1.160 . S
O1 C0 1.306 . S
O1 Cd2 2.228 . S
Cd2 O1 2.228 . S
Cd2 O6 2.273 . S
Cd2 O10 2.277 . S
O3 C0 1.160 . S
O3 Cd4 2.203 . S
Cd4 O3 2.203 . S
Cd4 O6 2.411 . S
Cd4 O7 2.333 . S
Cd4 O8 2.352 . S
Cd4 O12 2.277 1_455 S
Cd4 O13 2.356 1_455 S
C5 O10 1.209 . S
C5 O12 1.226 1_455 S
O6 Cd2 2.273 . S
O6 Cd4 2.411 . S
O6 C9 1.320 . S
O7 Cd4 2.333 . S
O7 C9 1.214 . S
O8 Cd4 2.352 . S
O8 C11 1.258 . S
C9 O6 1.320 . S
C9 O7 1.214 . S
O10 Cd2 2.277 . S
O10 C5 1.209 . S
C11 O8 1.258 . S
C11 O13 1.282 1_455 S
O12 Cd4 2.277 1_655 S
O12 C5 1.226 1_655 S
O13 Cd4 2.356 1_655 S
O13 C11 1.282 1_655 S
C14 O15 1.306 . S
C14 O17 1.160 . S
O15 C14 1.306 . S
O15 Cd16 2.228 . S
Cd16 O15 2.228 . S
Cd16 O20 2.273 . S
Cd16 O24 2.277 . S
O17 C14 1.160 . S
O17 Cd18 2.203 . S
Cd18 O17 2.203 . S
Cd18 O20 2.411 . S
Cd18 O21 2.333 . S
Cd18 O22 2.352 . S
Cd18 O26 2.277 1_545 S
Cd18 O27 2.356 1_545 S
C19 O24 1.209 . S
C19 O26 1.226 1_545 S
O20 Cd16 2.273 . S
O20 Cd18 2.411 . S
O20 C23 1.320 . S
O21 Cd18 2.333 . S
O21 C23 1.214 . S
O22 Cd18 2.352 . S
O22 C25 1.258 . S
C23 O20 1.320 . S
C23 O21 1.214 . S
O24 Cd16 2.277 . S
O24 C19 1.209 . S
C25 O22 1.258 . S
C25 O27 1.282 1_545 S
O26 Cd18 2.277 1_565 S
O26 C19 1.226 1_565 S
O27 Cd18 2.356 1_565 S
O27 C25 1.282 1_565 S
C28 O29 1.306 . S
C28 O31 1.160 . S
O29 C28 1.306 . S
O29 Cd30 2.228 . S
Cd30 O29 2.228 . S
Cd30 O34 2.273 . S
Cd30 O38 2.277 . S
O31 C28 1.160 . S
O31 Cd32 2.203 . S
Cd32 O31 2.203 . S
Cd32 O34 2.411 . S
Cd32 O35 2.333 . S
Cd32 O36 2.352 . S
Cd32 O40 2.277 1_655 S
Cd32 O41 2.356 1_655 S
C33 O38 1.209 . S
C33 O40 1.226 1_655 S
O34 Cd30 2.273 . S
O34 Cd32 2.411 . S
O34 C37 1.320 . S
O35 Cd32 2.333 . S
O35 C37 1.214 . S
O36 Cd32 2.352 . S
O36 C39 1.258 . S
C37 O34 1.320 . S
C37 O35 1.214 . S
O38 Cd30 2.277 . S
O38 C33 1.209 . S
C39 O36 1.258 . S
C39 O41 1.282 1_655 S
O40 Cd32 2.277 1_455 S
O40 C33 1.226 1_455 S
O41 Cd32 2.356 1_455 S
O41 C39 1.282 1_455 S
C42 O43 1.306 . S
C42 O45 1.160 . S
O43 C42 1.306 . S
O43 Cd44 2.228 . S
Cd44 O43 2.228 . S
Cd44 O48 2.273 . S
Cd44 O52 2.277 . S
O45 C42 1.160 . S
O45 Cd46 2.203 . S
Cd46 O45 2.203 . S
Cd46 O48 2.411 . S
Cd46 O49 2.333 . S
Cd46 O50 2.352 . S
Cd46 O54 2.277 1_565 S
Cd46 O55 2.356 1_565 S
C47 O52 1.209 . S
C47 O54 1.226 1_565 S
O48 Cd44 2.273 . S
O48 Cd46 2.411 . S
O48 C51 1.320 . S
O49 Cd46 2.333 . S
O49 C51 1.214 . S
O50 Cd46 2.352 . S
O50 C53 1.258 . S
C51 O48 1.320 . S
C51 O49 1.214 . S
O52 Cd44 2.277 . S
O52 C47 1.209 . S
C53 O50 1.258 . S
C53 O55 1.282 1_565 S
O54 Cd46 2.277 1_545 S
O54 C47 1.226 1_545 S
O55 Cd46 2.356 1_545 S
O55 C53 1.282 1_545 S
C56 O57 1.306 . S
C56 O59 1.160 . S
O57 C56 1.306 . S
O57 Cd58 2.228 . S
Cd58 O57 2.228 . S
Cd58 O62 2.273 . S
Cd58 O66 2.277 . S
O59 C56 1.160 . S
O59 Cd60 2.203 . S
Cd60 O59 2.203 . S
Cd60 O62 2.411 . S
Cd60 O63 2.333 . S
Cd60 O64 2.352 . S
Cd60 O68 2.277 1_455 S
Cd60 O69 2.356 1_455 S
C61 O66 1.209 . S
C61 O68 1.226 1_455 S
O62 Cd58 2.273 . S
O62 Cd60 2.411 . S
O62 C65 1.320 . S
O63 Cd60 2.333 . S
O63 C65 1.214 . S
O64 Cd60 2.352 . S
O64 C67 1.258 . S
C65 O62 1.320 . S
C65 O63 1.214 . S
O66 Cd58 2.277 . S
O66 C61 1.209 . S
C67 O64 1.258 . S
C67 O69 1.282 1_455 S
O68 Cd60 2.277 1_655 S
O68 C61 1.226 1_655 S
O69 Cd60 2.356 1_655 S
O69 C67 1.282 1_655 S
C70 O71 1.306 . S
C70 O73 1.160 . S
O71 C70 1.306 . S
O71 Cd72 2.228 . S
Cd72 O71 2.228 . S
Cd72 O76 2.273 . S
Cd72 O80 2.277 . S
O73 C70 1.160 . S
O73 Cd74 2.203 . S
Cd74 O73 2.203 . S
Cd74 O76 2.411 . S
Cd74 O77 2.333 . S
Cd74 O78 2.352 . S
Cd74 O82 2.277 1_545 S
Cd74 O83 2.356 1_545 S
C75 O80 1.209 . S
C75 O82 1.226 1_545 S
O76 Cd72 2.273 . S
O76 Cd74 2.411 . S
O76 C79 1.320 . S
O77 Cd74 2.333 . S
O77 C79 1.214 . S
O78 Cd74 2.352 . S
O78 C81 1.258 . S
C79 O76 1.320 . S
C79 O77 1.214 . S
O80 Cd72 2.277 . S
O80 C75 1.209 . S
C81 O78 1.258 . S
C81 O83 1.282 1_545 S
O82 Cd74 2.277 1_565 S
O82 C75 1.226 1_565 S
O83 Cd74 2.356 1_565 S
O83 C81 1.282 1_565 S
C84 O85 1.306 . S
C84 O87 1.160 . S
O85 C84 1.306 . S
O85 Cd86 2.228 . S
Cd86 O85 2.228 . S
Cd86 O90 2.273 . S
Cd86 O94 2.277 . S
O87 C84 1.160 . S
O87 Cd88 2.203 . S
Cd88 O87 2.203 . S
Cd88 O90 2.411 . S
Cd88 O91 2.333 . S
Cd88 O92 2.352 . S
Cd88 O96 2.277 1_655 S
Cd88 O97 2.356 1_655 S
C89 O94 1.209 . S
C89 O96 1.226 1_655 S
O90 Cd86 2.273 . S
O90 Cd88 2.411 . S
O90 C93 1.320 . S
O91 Cd88 2.333 . S
O91 C93 1.214 . S
O92 Cd88 2.352 . S
O92 C95 1.258 . S
C93 O90 1.320 . S
C93 O91 1.214 . S
O94 Cd86 2.277 . S
O94 C89 1.209 . S
C95 O92 1.258 . S
C95 O97 1.282 1_655 S
O96 Cd88 2.277 1_455 S
O96 C89 1.226 1_455 S
O97 Cd88 2.356 1_455 S
O97 C95 1.282 1_455 S
C98 O99 1.306 . S
C98 O101 1.160 . S
O99 C98 1.306 . S
O99 Cd100 2.228 . S
Cd100 O99 2.228 . S
Cd100 O104 2.273 . S
Cd100 O108 2.277 . S
O101 C98 1.160 . S
O101 Cd102 2.203 . S
Cd102 O101 2.203 . S
Cd102 O104 2.411 . S
Cd102 O105 2.333 . S
Cd102 O106 2.352 . S
Cd102 O110 2.277 1_565 S
Cd102 O111 2.356 1_565 S
C103 O108 1.209 . S
C103 O110 1.226 1_565 S
O104 Cd100 2.273 . S
O104 Cd102 2.411 . S
O104 C107 1.320 . S
O105 Cd102 2.333 . S
O105 C107 1.214 . S
O106 Cd102 2.352 . S
O106 C109 1.258 . S
C107 O104 1.320 . S
C107 O105 1.214 . S
O108 Cd100 2.277 . S
O108 C103 1.209 . S
C109 O106 1.258 . S
C109 O111 1.282 1_565 S
O110 Cd102 2.277 1_545 S
O110 C103 1.226 1_545 S
O111 Cd102 2.356 1_545 S
O111 C109 1.282 1_545 S
C112 C113 1.369 1_655 S
C112 C114 1.419 . S
C112 H116 0.930 . S
C113 C112 1.369 1_455 S
C113 C122 1.429 . S
C114 C112 1.419 . S
C114 C115 1.363 . S
C114 H117 0.929 . S
C115 C114 1.363 . S
C115 C121 1.428 1_655 S
H116 C112 0.930 . S
H117 C114 0.929 . S
S118 N119 1.613 . S
S118 N120 1.610 . S
N119 S118 1.613 . S
N119 C122 1.350 . S
N120 S118 1.610 . S
N120 C121 1.351 . S
C121 C115 1.428 1_455 S
C121 N120 1.351 . S
C121 C122 1.434 . S
C122 C113 1.429 . S
C122 N119 1.350 . S
C122 C121 1.434 . S
C123 C124 1.369 . S
C123 C125 1.419 . S
C123 H127 0.930 . S
C124 C123 1.369 . S
C124 C133 1.429 1_565 S
C125 C123 1.419 . S
C125 C126 1.363 1_565 S
C125 H128 0.929 . S
C126 C125 1.363 1_545 S
C126 C132 1.428 . S
H127 C123 0.930 . S
H128 C125 0.929 . S
S129 N130 1.613 . S
S129 N131 1.610 . S
N130 S129 1.613 . S
N130 C133 1.350 . S
N131 S129 1.610 . S
N131 C132 1.351 . S
C132 C126 1.428 . S
C132 N131 1.351 . S
C132 C133 1.434 . S
C133 C124 1.429 1_545 S
C133 N130 1.350 . S
C133 C132 1.434 . S
C134 C135 1.369 1_455 S
C134 C136 1.419 . S
C134 H138 0.930 . S
C135 C134 1.369 1_655 S
C135 C144 1.429 . S
C136 C134 1.419 . S
C136 C137 1.363 . S
C136 H139 0.929 . S
C137 C136 1.363 . S
C137 C143 1.428 1_455 S
H138 C134 0.930 . S
H139 C136 0.929 . S
S140 N141 1.613 . S
S140 N142 1.610 . S
N141 S140 1.613 . S
N141 C144 1.350 . S
N142 S140 1.610 . S
N142 C143 1.351 . S
C143 C137 1.428 1_655 S
C143 N142 1.351 . S
C143 C144 1.434 . S
C144 C135 1.429 . S
C144 N141 1.350 . S
C144 C143 1.434 . S
C145 C146 1.369 . S
C145 C147 1.419 . S
C145 H149 0.930 . S
C146 C145 1.369 . S
C146 C155 1.429 1_545 S
C147 C145 1.419 . S
C147 C148 1.363 1_545 S
C147 H150 0.929 . S
C148 C147 1.363 1_565 S
C148 C154 1.428 . S
H149 C145 0.930 . S
H150 C147 0.929 . S
S151 N152 1.613 . S
S151 N153 1.610 . S
N152 S151 1.613 . S
N152 C155 1.350 . S
N153 S151 1.610 . S
N153 C154 1.351 . S
C154 C148 1.428 . S
C154 N153 1.351 . S
C154 C155 1.434 . S
C155 C146 1.429 1_565 S
C155 N152 1.350 . S
C155 C154 1.434 . S
C156 C157 1.369 . S
C156 C158 1.419 1_656 S
C156 H160 0.930 . S
C157 C156 1.369 . S
C157 C166 1.429 . S
C158 C156 1.419 1_454 S
C158 C159 1.363 . S
C158 H161 0.929 . S
C159 C158 1.363 . S
C159 C165 1.428 . S
H160 C156 0.930 . S
H161 C158 0.929 . S
S162 N163 1.613 1_455 S
S162 N164 1.610 1_556 S
N163 S162 1.613 1_655 S
N163 C166 1.350 . S
N164 S162 1.610 1_554 S
N164 C165 1.351 . S
C165 C159 1.428 . S
C165 N164 1.351 . S
C165 C166 1.434 1_454 S
C166 C157 1.429 . S
C166 N163 1.350 . S
C166 C165 1.434 1_656 S
C167 C168 1.369 . S
C167 C169 1.408 1_545 S
C167 H171 0.930 . S
C168 C167 1.369 . S
C168 C177 1.429 1_545 S
C169 C167 1.408 1_565 S
C169 C170 1.375 . S
C169 H172 0.929 1_565 S
C170 C169 1.375 . S
C170 C176 1.428 . S
H171 C167 0.930 . S
H172 C169 0.929 1_545 S
S173 N174 1.613 . S
S173 N175 1.610 . S
N174 S173 1.613 . S
N174 C177 1.350 . S
N175 S173 1.610 . S
N175 C176 1.351 . S
C176 C170 1.428 . S
C176 N175 1.351 . S
C176 C177 1.434 . S
C177 C168 1.429 1_565 S
C177 N174 1.350 . S
C177 C176 1.434 . S
C178 C179 1.369 1_556 S
C178 C180 1.419 1_655 S
C178 H182 0.930 . S
C179 C178 1.369 1_554 S
C179 C188 1.429 . S
C180 C178 1.419 1_455 S
C180 C181 1.363 . S
C180 H183 0.929 . S
C181 C180 1.363 . S
C181 C187 1.428 1_556 S
H182 C178 0.930 . S
H183 C180 0.929 . S
S184 N185 1.613 1_455 S
S184 N186 1.610 . S
N185 S184 1.613 1_655 S
N185 C188 1.350 . S
N186 S184 1.610 . S
N186 C187 1.351 . S
C187 C181 1.428 1_554 S
C187 N186 1.351 . S
C187 C188 1.434 1_455 S
C188 C179 1.429 . S
C188 N185 1.350 . S
C188 C187 1.434 1_655 S
C189 C190 1.369 . S
C189 C191 1.419 1_545 S
C189 H193 0.930 . S
C190 C189 1.369 . S
C190 C199 1.429 . S
C191 C189 1.419 1_565 S
C191 C192 1.363 . S
C191 H194 0.929 . S
C192 C191 1.363 . S
C192 C198 1.442 . S
H193 C189 0.930 . S
H194 C191 0.929 . S
S195 N196 1.613 . S
S195 N197 1.610 . S
N196 S195 1.613 . S
N196 C199 1.350 . S
N197 S195 1.610 . S
N197 C198 1.349 1_545 S
C198 C192 1.442 . S
C198 N197 1.349 1_565 S
C198 C199 1.420 1_565 S
C199 C190 1.429 . S
C199 N196 1.350 . S
C199 C198 1.420 1_545 S
C200 C201 1.369 . S
C200 C202 1.419 . S
C200 H204 0.930 . S
C201 C200 1.369 . S
C201 C210 1.429 . S
C202 C200 1.419 . S
C202 C203 1.363 . S
C202 H205 0.929 . S
C203 C202 1.363 . S
C203 C209 1.428 . S
H204 C200 0.930 . S
H205 C202 0.929 . S
S206 N207 1.613 . S
S206 N208 1.610 . S
N207 S206 1.613 . S
N207 C210 1.350 . S
N208 S206 1.610 . S
N208 C209 1.351 . S
C209 C203 1.428 . S
C209 N208 1.351 . S
C209 C210 1.434 . S
C210 C201 1.429 . S
C210 N207 1.350 . S
C210 C209 1.434 . S
C211 C212 1.369 . S
C211 C213 1.419 . S
C211 H215 0.930 . S
C212 C211 1.369 . S
C212 C221 1.429 . S
C213 C211 1.419 . S
C213 C214 1.363 . S
C213 H216 0.929 . S
C214 C213 1.363 . S
C214 C220 1.428 . S
H215 C211 0.930 . S
H216 C213 0.929 . S
S217 N218 1.613 . S
S217 N219 1.610 . S
N218 S217 1.613 . S
N218 C221 1.350 . S
N219 S217 1.610 . S
N219 C220 1.351 . S
C220 C214 1.428 . S
C220 N219 1.351 . S
C220 C221 1.434 . S
C221 C212 1.429 . S
C221 N218 1.350 . S
C221 C220 1.434 . S
C222 C223 1.369 . S
C222 C224 1.419 . S
C222 H226 0.930 . S
C223 C222 1.369 . S
C223 C232 1.429 . S
C224 C222 1.419 . S
C224 C225 1.363 . S
C224 H227 0.929 . S
C225 C224 1.363 . S
C225 C231 1.428 . S
H226 C222 0.930 . S
H227 C224 0.929 . S
S228 N229 1.613 . S
S228 N230 1.610 . S
N229 S228 1.613 . S
N229 C232 1.350 . S
N230 S228 1.610 . S
N230 C231 1.351 . S
C231 C225 1.428 . S
C231 N230 1.351 . S
C231 C232 1.434 . S
C232 C223 1.429 . S
C232 N229 1.350 . S
C232 C231 1.434 . S
C233 C234 1.369 . S
C233 C235 1.419 . S
C233 H237 0.930 . S
C234 C233 1.369 . S
C234 C243 1.429 . S
C235 C233 1.419 . S
C235 C236 1.363 . S
C235 H238 0.929 . S
C236 C235 1.363 . S
C236 C242 1.428 . S
H237 C233 0.930 . S
H238 C235 0.929 . S
S239 N240 1.613 . S
S239 N241 1.610 . S
N240 S239 1.613 . S
N240 C243 1.350 . S
N241 S239 1.610 . S
N241 C242 1.351 . S
C242 C236 1.428 . S
C242 N241 1.351 . S
C242 C243 1.434 . S
C243 C234 1.429 . S
C243 N240 1.350 . S
C243 C242 1.434 . S
C244 C245 1.369 . S
C244 C246 1.419 1_545 S
C244 H248 0.930 . S
C245 C244 1.369 . S
C245 C254 1.429 1_455 S
C246 C244 1.419 1_565 S
C246 C247 1.363 1_455 S
C246 H249 0.929 . S
C247 C246 1.363 1_655 S
C247 C253 1.428 . S
H248 C244 0.930 . S
H249 C246 0.929 . S
S250 N251 1.613 . S
S250 N252 1.610 1_545 S
N251 S250 1.613 . S
N251 C254 1.350 . S
N252 S250 1.610 1_565 S
N252 C253 1.351 . S
C253 C247 1.428 . S
C253 N252 1.351 . S
C253 C254 1.434 1_565 S
C254 C245 1.429 1_655 S
C254 N251 1.350 . S
C254 C253 1.434 1_545 S
C255 C256 1.369 . S
C255 C257 1.419 1_465 S
C255 H259 0.930 . S
C256 C255 1.369 . S
C256 C265 1.429 . S
C257 C255 1.419 1_645 S
C257 C258 1.363 . S
C257 H260 0.929 . S
C258 C257 1.363 . S
C258 C264 1.428 . S
H259 C255 0.930 . S
H260 C257 0.929 . S
S261 N262 1.614 1_545 S
S261 N263 1.610 1_455 S
N262 S261 1.614 1_565 S
N262 C265 1.350 . S
N263 S261 1.610 1_655 S
N263 C264 1.351 . S
C264 C258 1.428 . S
C264 N263 1.351 . S
C264 C265 1.434 1_645 S
C265 C256 1.429 . S
C265 N262 1.350 . S
C265 C264 1.434 1_465 S
C266 C267 1.369 . S
C266 C268 1.419 1_545 S
C266 H270 0.930 . S
C267 C266 1.369 . S
C267 C276 1.429 1_655 S
C268 C266 1.419 1_565 S
C268 C269 1.363 1_655 S
C268 H271 0.929 . S
C269 C268 1.363 1_455 S
C269 C275 1.428 . S
H270 C266 0.930 . S
H271 C268 0.929 . S
S272 N273 1.613 . S
S272 N274 1.610 1_545 S
N273 S272 1.613 . S
N273 C276 1.350 . S
N274 S272 1.610 1_565 S
N274 C275 1.351 . S
C275 C269 1.428 . S
C275 N274 1.351 . S
C275 C276 1.434 1_565 S
C276 C267 1.429 1_455 S
C276 N273 1.350 . S
C276 C275 1.434 1_545 S
C277 C278 1.369 . S
C277 C279 1.419 1_655 S
C277 H281 0.930 . S
C278 C277 1.369 . S
C278 C287 1.429 1_565 S
C279 C277 1.419 1_455 S
C279 C280 1.363 1_565 S
C279 H282 0.929 . S
C280 C279 1.363 1_545 S
C280 C286 1.428 . S
H281 C277 0.930 . S
H282 C279 0.929 . S
S283 N284 1.613 . S
S283 N285 1.610 1_655 S
N284 S283 1.613 . S
N284 C287 1.350 . S
N285 S283 1.610 1_455 S
N285 C286 1.351 . S
C286 C280 1.428 . S
C286 N285 1.351 . S
C286 C287 1.434 1_455 S
C287 C278 1.429 1_545 S
C287 N284 1.350 . S
C287 C286 1.434 1_655 S
C113 C11 1.438 . S
C115 C39 1.438 . S
C124 C53 1.436 . S
C126 C25 1.437 . S
C135 C95 1.438 . S
C137 C67 1.438 . S
C146 C81 1.437 . S
C148 C109 1.438 . S
C157 C93 1.711 . S
C159 C9 1.710 . S
C168 C23 1.703 . S
C170 C107 1.715 . S
C179 C37 1.708 . S
C181 C65 1.713 . S
C190 C79 1.717 . S
C192 C51 1.705 . S
C201 C0 1.584 . S
C203 C70 1.587 . S
C212 C84 1.585 . S
C214 C14 1.588 . S
C223 C98 1.589 . S
C225 C28 1.586 . S
C234 C42 1.579 . S
C236 C56 1.583 . S
C245 C5 1.125 . S
C247 C33 1.120 . S
C256 C47 1.123 . S
C258 C19 1.121 . S
C267 C89 1.123 . S
C269 C61 1.124 . S
C278 C103 1.125 . S
C280 C75 1.120 . S
