# Generated by pormake.
# Topology lcs-e, (6)-cn, num edge types: 1
# Building blocks:
#     Node 0, Type 0, BuildingBlock: MIFKUJ_clean_sbu_0, # of connection points: 6
#     Node 1, Type 0, BuildingBlock: MIFKUJ_clean_sbu_0, # of connection points: 6
#     Node 2, Type 0, BuildingBlock: MIFKUJ_clean_sbu_0, # of connection points: 6
#     Node 3, Type 0, BuildingBlock: MIFKUJ_clean_sbu_0, # of connection points: 6
#     Node 4, Type 0, BuildingBlock: MIFKUJ_clean_sbu_0, # of connection points: 6
#     Node 5, Type 0, BuildingBlock: MIFKUJ_clean_sbu_0, # of connection points: 6
#     Node 6, Type 0, BuildingBlock: MIFKUJ_clean_sbu_0, # of connection points: 6
#     Node 7, Type 0, BuildingBlock: MIFKUJ_clean_sbu_0, # of connection points: 6
#     Node 8, Type 0, BuildingBlock: MIFKUJ_clean_sbu_0, # of connection points: 6
#     Node 9, Type 0, BuildingBlock: MIFKUJ_clean_sbu_0, # of connection points: 6
#     Node 10, Type 0, BuildingBlock: MIFKUJ_clean_sbu_0, # of connection points: 6
#     Node 11, Type 0, BuildingBlock: MIFKUJ_clean_sbu_0, # of connection points: 6
#     Node 12, Type 0, BuildingBlock: MIFKUJ_clean_sbu_0, # of connection points: 6
#     Node 13, Type 0, BuildingBlock: MIFKUJ_clean_sbu_0, # of connection points: 6
#     Node 14, Type 0, BuildingBlock: MIFKUJ_clean_sbu_0, # of connection points: 6
#     Node 15, Type 0, BuildingBlock: MIFKUJ_clean_sbu_0, # of connection points: 6
#     Node 16, Type 0, BuildingBlock: MIFKUJ_clean_sbu_0, # of connection points: 6
#     Node 17, Type 0, BuildingBlock: MIFKUJ_clean_sbu_0, # of connection points: 6
#     Node 18, Type 0, BuildingBlock: MIFKUJ_clean_sbu_0, # of connection points: 6
#     Node 19, Type 0, BuildingBlock: MIFKUJ_clean_sbu_0, # of connection points: 6
#     Node 20, Type 0, BuildingBlock: MIFKUJ_clean_sbu_0, # of connection points: 6
#     Node 21, Type 0, BuildingBlock: MIFKUJ_clean_sbu_0, # of connection points: 6
#     Node 22, Type 0, BuildingBlock: MIFKUJ_clean_sbu_0, # of connection points: 6
#     Node 23, Type 0, BuildingBlock: MIFKUJ_clean_sbu_0, # of connection points: 6
#     Node 24, Type 0, BuildingBlock: MIFKUJ_clean_sbu_0, # of connection points: 6
#     Node 25, Type 0, BuildingBlock: MIFKUJ_clean_sbu_0, # of connection points: 6
#     Node 26, Type 0, BuildingBlock: MIFKUJ_clean_sbu_0, # of connection points: 6
#     Node 27, Type 0, BuildingBlock: MIFKUJ_clean_sbu_0, # of connection points: 6
#     Node 28, Type 0, BuildingBlock: MIFKUJ_clean_sbu_0, # of connection points: 6
#     Node 29, Type 0, BuildingBlock: MIFKUJ_clean_sbu_0, # of connection points: 6
#     Node 30, Type 0, BuildingBlock: MIFKUJ_clean_sbu_0, # of connection points: 6
#     Node 31, Type 0, BuildingBlock: MIFKUJ_clean_sbu_0, # of connection points: 6
#     Node 32, Type 0, BuildingBlock: MIFKUJ_clean_sbu_0, # of connection points: 6
#     Node 33, Type 0, BuildingBlock: MIFKUJ_clean_sbu_0, # of connection points: 6
#     Node 34, Type 0, BuildingBlock: MIFKUJ_clean_sbu_0, # of connection points: 6
#     Node 35, Type 0, BuildingBlock: MIFKUJ_clean_sbu_0, # of connection points: 6
#     Node 36, Type 0, BuildingBlock: MIFKUJ_clean_sbu_0, # of connection points: 6
#     Node 37, Type 0, BuildingBlock: MIFKUJ_clean_sbu_0, # of connection points: 6
#     Node 38, Type 0, BuildingBlock: MIFKUJ_clean_sbu_0, # of connection points: 6
#     Node 39, Type 0, BuildingBlock: MIFKUJ_clean_sbu_0, # of connection points: 6
#     Node 40, Type 0, BuildingBlock: MIFKUJ_clean_sbu_0, # of connection points: 6
#     Node 41, Type 0, BuildingBlock: MIFKUJ_clean_sbu_0, # of connection points: 6
#     Node 42, Type 0, BuildingBlock: MIFKUJ_clean_sbu_0, # of connection points: 6
#     Node 43, Type 0, BuildingBlock: MIFKUJ_clean_sbu_0, # of connection points: 6
#     Node 44, Type 0, BuildingBlock: MIFKUJ_clean_sbu_0, # of connection points: 6
#     Node 45, Type 0, BuildingBlock: MIFKUJ_clean_sbu_0, # of connection points: 6
#     Node 46, Type 0, BuildingBlock: MIFKUJ_clean_sbu_0, # of connection points: 6
#     Node 47, Type 0, BuildingBlock: MIFKUJ_clean_sbu_0, # of connection points: 6
#     Edge 48, Type (0, 0), BuildingBlock: KIFKEQ_clean_linker_1, # of connection points: 2
#     Edge 49, Type (0, 0), BuildingBlock: KIFKEQ_clean_linker_1, # of connection points: 2
#     Edge 50, Type (0, 0), BuildingBlock: KIFKEQ_clean_linker_1, # of connection points: 2
#     Edge 51, Type (0, 0), BuildingBlock: KIFKEQ_clean_linker_1, # of connection points: 2
#     Edge 52, Type (0, 0), BuildingBlock: KIFKEQ_clean_linker_1, # of connection points: 2
#     Edge 53, Type (0, 0), BuildingBlock: KIFKEQ_clean_linker_1, # of connection points: 2
#     Edge 54, Type (0, 0), BuildingBlock: KIFKEQ_clean_linker_1, # of connection points: 2
#     Edge 55, Type (0, 0), BuildingBlock: KIFKEQ_clean_linker_1, # of connection points: 2
#     Edge 56, Type (0, 0), BuildingBlock: KIFKEQ_clean_linker_1, # of connection points: 2
#     Edge 57, Type (0, 0), BuildingBlock: KIFKEQ_clean_linker_1, # of connection points: 2
#     Edge 58, Type (0, 0), BuildingBlock: KIFKEQ_clean_linker_1, # of connection points: 2
#     Edge 59, Type (0, 0), BuildingBlock: KIFKEQ_clean_linker_1, # of connection points: 2
#     Edge 60, Type (0, 0), BuildingBlock: KIFKEQ_clean_linker_1, # of connection points: 2
#     Edge 61, Type (0, 0), BuildingBlock: KIFKEQ_clean_linker_1, # of connection points: 2
#     Edge 62, Type (0, 0), BuildingBlock: KIFKEQ_clean_linker_1, # of connection points: 2
#     Edge 63, Type (0, 0), BuildingBlock: KIFKEQ_clean_linker_1, # of connection points: 2
#     Edge 64, Type (0, 0), BuildingBlock: KIFKEQ_clean_linker_1, # of connection points: 2
#     Edge 65, Type (0, 0), BuildingBlock: KIFKEQ_clean_linker_1, # of connection points: 2
#     Edge 66, Type (0, 0), BuildingBlock: KIFKEQ_clean_linker_1, # of connection points: 2
#     Edge 67, Type (0, 0), BuildingBlock: KIFKEQ_clean_linker_1, # of connection points: 2
#     Edge 68, Type (0, 0), BuildingBlock: KIFKEQ_clean_linker_1, # of connection points: 2
#     Edge 69, Type (0, 0), BuildingBlock: KIFKEQ_clean_linker_1, # of connection points: 2
#     Edge 70, Type (0, 0), BuildingBlock: KIFKEQ_clean_linker_1, # of connection points: 2
#     Edge 71, Type (0, 0), BuildingBlock: KIFKEQ_clean_linker_1, # of connection points: 2
#     Edge 72, Type (0, 0), BuildingBlock: KIFKEQ_clean_linker_1, # of connection points: 2
#     Edge 73, Type (0, 0), BuildingBlock: KIFKEQ_clean_linker_1, # of connection points: 2
#     Edge 74, Type (0, 0), BuildingBlock: KIFKEQ_clean_linker_1, # of connection points: 2
#     Edge 75, Type (0, 0), BuildingBlock: KIFKEQ_clean_linker_1, # of connection points: 2
#     Edge 76, Type (0, 0), BuildingBlock: KIFKEQ_clean_linker_1, # of connection points: 2
#     Edge 77, Type (0, 0), BuildingBlock: KIFKEQ_clean_linker_1, # of connection points: 2
#     Edge 78, Type (0, 0), BuildingBlock: KIFKEQ_clean_linker_1, # of connection points: 2
#     Edge 79, Type (0, 0), BuildingBlock: KIFKEQ_clean_linker_1, # of connection points: 2
#     Edge 80, Type (0, 0), BuildingBlock: KIFKEQ_clean_linker_1, # of connection points: 2
#     Edge 81, Type (0, 0), BuildingBlock: KIFKEQ_clean_linker_1, # of connection points: 2
#     Edge 82, Type (0, 0), BuildingBlock: KIFKEQ_clean_linker_1, # of connection points: 2
#     Edge 83, Type (0, 0), BuildingBlock: KIFKEQ_clean_linker_1, # of connection points: 2
#     Edge 84, Type (0, 0), BuildingBlock: KIFKEQ_clean_linker_1, # of connection points: 2
#     Edge 85, Type (0, 0), BuildingBlock: KIFKEQ_clean_linker_1, # of connection points: 2
#     Edge 86, Type (0, 0), BuildingBlock: KIFKEQ_clean_linker_1, # of connection points: 2
#     Edge 87, Type (0, 0), BuildingBlock: KIFKEQ_clean_linker_1, # of connection points: 2
#     Edge 88, Type (0, 0), BuildingBlock: KIFKEQ_clean_linker_1, # of connection points: 2
#     Edge 89, Type (0, 0), BuildingBlock: KIFKEQ_clean_linker_1, # of connection points: 2
#     Edge 90, Type (0, 0), BuildingBlock: KIFKEQ_clean_linker_1, # of connection points: 2
#     Edge 91, Type (0, 0), BuildingBlock: KIFKEQ_clean_linker_1, # of connection points: 2
#     Edge 92, Type (0, 0), BuildingBlock: KIFKEQ_clean_linker_1, # of connection points: 2
#     Edge 93, Type (0, 0), BuildingBlock: KIFKEQ_clean_linker_1, # of connection points: 2
#     Edge 94, Type (0, 0), BuildingBlock: KIFKEQ_clean_linker_1, # of connection points: 2
#     Edge 95, Type (0, 0), BuildingBlock: KIFKEQ_clean_linker_1, # of connection points: 2
#     Edge 96, Type (0, 0), BuildingBlock: KIFKEQ_clean_linker_1, # of connection points: 2
#     Edge 97, Type (0, 0), BuildingBlock: KIFKEQ_clean_linker_1, # of connection points: 2
#     Edge 98, Type (0, 0), BuildingBlock: KIFKEQ_clean_linker_1, # of connection points: 2
#     Edge 99, Type (0, 0), BuildingBlock: KIFKEQ_clean_linker_1, # of connection points: 2
#     Edge 100, Type (0, 0), BuildingBlock: KIFKEQ_clean_linker_1, # of connection points: 2
#     Edge 101, Type (0, 0), BuildingBlock: KIFKEQ_clean_linker_1, # of connection points: 2
#     Edge 102, Type (0, 0), BuildingBlock: KIFKEQ_clean_linker_1, # of connection points: 2
#     Edge 103, Type (0, 0), BuildingBlock: KIFKEQ_clean_linker_1, # of connection points: 2
#     Edge 104, Type (0, 0), BuildingBlock: KIFKEQ_clean_linker_1, # of connection points: 2
#     Edge 105, Type (0, 0), BuildingBlock: KIFKEQ_clean_linker_1, # of connection points: 2
#     Edge 106, Type (0, 0), BuildingBlock: KIFKEQ_clean_linker_1, # of connection points: 2
#     Edge 107, Type (0, 0), BuildingBlock: KIFKEQ_clean_linker_1, # of connection points: 2
#     Edge 108, Type (0, 0), BuildingBlock: KIFKEQ_clean_linker_1, # of connection points: 2
#     Edge 109, Type (0, 0), BuildingBlock: KIFKEQ_clean_linker_1, # of connection points: 2
#     Edge 110, Type (0, 0), BuildingBlock: KIFKEQ_clean_linker_1, # of connection points: 2
#     Edge 111, Type (0, 0), BuildingBlock: KIFKEQ_clean_linker_1, # of connection points: 2
#     Edge 112, Type (0, 0), BuildingBlock: KIFKEQ_clean_linker_1, # of connection points: 2
#     Edge 113, Type (0, 0), BuildingBlock: KIFKEQ_clean_linker_1, # of connection points: 2
#     Edge 114, Type (0, 0), BuildingBlock: KIFKEQ_clean_linker_1, # of connection points: 2
#     Edge 115, Type (0, 0), BuildingBlock: KIFKEQ_clean_linker_1, # of connection points: 2
#     Edge 116, Type (0, 0), BuildingBlock: KIFKEQ_clean_linker_1, # of connection points: 2
#     Edge 117, Type (0, 0), BuildingBlock: KIFKEQ_clean_linker_1, # of connection points: 2
#     Edge 118, Type (0, 0), BuildingBlock: KIFKEQ_clean_linker_1, # of connection points: 2
#     Edge 119, Type (0, 0), BuildingBlock: KIFKEQ_clean_linker_1, # of connection points: 2
#     Edge 120, Type (0, 0), BuildingBlock: KIFKEQ_clean_linker_1, # of connection points: 2
#     Edge 121, Type (0, 0), BuildingBlock: KIFKEQ_clean_linker_1, # of connection points: 2
#     Edge 122, Type (0, 0), BuildingBlock: KIFKEQ_clean_linker_1, # of connection points: 2
#     Edge 123, Type (0, 0), BuildingBlock: KIFKEQ_clean_linker_1, # of connection points: 2
#     Edge 124, Type (0, 0), BuildingBlock: KIFKEQ_clean_linker_1, # of connection points: 2
#     Edge 125, Type (0, 0), BuildingBlock: KIFKEQ_clean_linker_1, # of connection points: 2
#     Edge 126, Type (0, 0), BuildingBlock: KIFKEQ_clean_linker_1, # of connection points: 2
#     Edge 127, Type (0, 0), BuildingBlock: KIFKEQ_clean_linker_1, # of connection points: 2
#     Edge 128, Type (0, 0), BuildingBlock: KIFKEQ_clean_linker_1, # of connection points: 2
#     Edge 129, Type (0, 0), BuildingBlock: KIFKEQ_clean_linker_1, # of connection points: 2
#     Edge 130, Type (0, 0), BuildingBlock: KIFKEQ_clean_linker_1, # of connection points: 2
#     Edge 131, Type (0, 0), BuildingBlock: KIFKEQ_clean_linker_1, # of connection points: 2
#     Edge 132, Type (0, 0), BuildingBlock: KIFKEQ_clean_linker_1, # of connection points: 2
#     Edge 133, Type (0, 0), BuildingBlock: KIFKEQ_clean_linker_1, # of connection points: 2
#     Edge 134, Type (0, 0), BuildingBlock: KIFKEQ_clean_linker_1, # of connection points: 2
#     Edge 135, Type (0, 0), BuildingBlock: KIFKEQ_clean_linker_1, # of connection points: 2
#     Edge 136, Type (0, 0), BuildingBlock: KIFKEQ_clean_linker_1, # of connection points: 2
#     Edge 137, Type (0, 0), BuildingBlock: KIFKEQ_clean_linker_1, # of connection points: 2
#     Edge 138, Type (0, 0), BuildingBlock: KIFKEQ_clean_linker_1, # of connection points: 2
#     Edge 139, Type (0, 0), BuildingBlock: KIFKEQ_clean_linker_1, # of connection points: 2
#     Edge 140, Type (0, 0), BuildingBlock: KIFKEQ_clean_linker_1, # of connection points: 2
#     Edge 141, Type (0, 0), BuildingBlock: KIFKEQ_clean_linker_1, # of connection points: 2
#     Edge 142, Type (0, 0), BuildingBlock: KIFKEQ_clean_linker_1, # of connection points: 2
#     Edge 143, Type (0, 0), BuildingBlock: KIFKEQ_clean_linker_1, # of connection points: 2
#     Edge 144, Type (0, 0), BuildingBlock: KIFKEQ_clean_linker_1, # of connection points: 2
#     Edge 145, Type (0, 0), BuildingBlock: KIFKEQ_clean_linker_1, # of connection points: 2
#     Edge 146, Type (0, 0), BuildingBlock: KIFKEQ_clean_linker_1, # of connection points: 2
#     Edge 147, Type (0, 0), BuildingBlock: KIFKEQ_clean_linker_1, # of connection points: 2
#     Edge 148, Type (0, 0), BuildingBlock: KIFKEQ_clean_linker_1, # of connection points: 2
#     Edge 149, Type (0, 0), BuildingBlock: KIFKEQ_clean_linker_1, # of connection points: 2
#     Edge 150, Type (0, 0), BuildingBlock: KIFKEQ_clean_linker_1, # of connection points: 2
#     Edge 151, Type (0, 0), BuildingBlock: KIFKEQ_clean_linker_1, # of connection points: 2
#     Edge 152, Type (0, 0), BuildingBlock: KIFKEQ_clean_linker_1, # of connection points: 2
#     Edge 153, Type (0, 0), BuildingBlock: KIFKEQ_clean_linker_1, # of connection points: 2
#     Edge 154, Type (0, 0), BuildingBlock: KIFKEQ_clean_linker_1, # of connection points: 2
#     Edge 155, Type (0, 0), BuildingBlock: KIFKEQ_clean_linker_1, # of connection points: 2
#     Edge 156, Type (0, 0), BuildingBlock: KIFKEQ_clean_linker_1, # of connection points: 2
#     Edge 157, Type (0, 0), BuildingBlock: KIFKEQ_clean_linker_1, # of connection points: 2
#     Edge 158, Type (0, 0), BuildingBlock: KIFKEQ_clean_linker_1, # of connection points: 2
#     Edge 159, Type (0, 0), BuildingBlock: KIFKEQ_clean_linker_1, # of connection points: 2
#     Edge 160, Type (0, 0), BuildingBlock: KIFKEQ_clean_linker_1, # of connection points: 2
#     Edge 161, Type (0, 0), BuildingBlock: KIFKEQ_clean_linker_1, # of connection points: 2
#     Edge 162, Type (0, 0), BuildingBlock: KIFKEQ_clean_linker_1, # of connection points: 2
#     Edge 163, Type (0, 0), BuildingBlock: KIFKEQ_clean_linker_1, # of connection points: 2
#     Edge 164, Type (0, 0), BuildingBlock: KIFKEQ_clean_linker_1, # of connection points: 2
#     Edge 165, Type (0, 0), BuildingBlock: KIFKEQ_clean_linker_1, # of connection points: 2
#     Edge 166, Type (0, 0), BuildingBlock: KIFKEQ_clean_linker_1, # of connection points: 2
#     Edge 167, Type (0, 0), BuildingBlock: KIFKEQ_clean_linker_1, # of connection points: 2
#     Edge 168, Type (0, 0), BuildingBlock: KIFKEQ_clean_linker_1, # of connection points: 2
#     Edge 169, Type (0, 0), BuildingBlock: KIFKEQ_clean_linker_1, # of connection points: 2
#     Edge 170, Type (0, 0), BuildingBlock: KIFKEQ_clean_linker_1, # of connection points: 2
#     Edge 171, Type (0, 0), BuildingBlock: KIFKEQ_clean_linker_1, # of connection points: 2
#     Edge 172, Type (0, 0), BuildingBlock: KIFKEQ_clean_linker_1, # of connection points: 2
#     Edge 173, Type (0, 0), BuildingBlock: KIFKEQ_clean_linker_1, # of connection points: 2
#     Edge 174, Type (0, 0), BuildingBlock: KIFKEQ_clean_linker_1, # of connection points: 2
#     Edge 175, Type (0, 0), BuildingBlock: KIFKEQ_clean_linker_1, # of connection points: 2
#     Edge 176, Type (0, 0), BuildingBlock: KIFKEQ_clean_linker_1, # of connection points: 2
#     Edge 177, Type (0, 0), BuildingBlock: KIFKEQ_clean_linker_1, # of connection points: 2
#     Edge 178, Type (0, 0), BuildingBlock: KIFKEQ_clean_linker_1, # of connection points: 2
#     Edge 179, Type (0, 0), BuildingBlock: KIFKEQ_clean_linker_1, # of connection points: 2
#     Edge 180, Type (0, 0), BuildingBlock: KIFKEQ_clean_linker_1, # of connection points: 2
#     Edge 181, Type (0, 0), BuildingBlock: KIFKEQ_clean_linker_1, # of connection points: 2
#     Edge 182, Type (0, 0), BuildingBlock: KIFKEQ_clean_linker_1, # of connection points: 2
#     Edge 183, Type (0, 0), BuildingBlock: KIFKEQ_clean_linker_1, # of connection points: 2
#     Edge 184, Type (0, 0), BuildingBlock: KIFKEQ_clean_linker_1, # of connection points: 2
#     Edge 185, Type (0, 0), BuildingBlock: KIFKEQ_clean_linker_1, # of connection points: 2
#     Edge 186, Type (0, 0), BuildingBlock: KIFKEQ_clean_linker_1, # of connection points: 2
#     Edge 187, Type (0, 0), BuildingBlock: KIFKEQ_clean_linker_1, # of connection points: 2
#     Edge 188, Type (0, 0), BuildingBlock: KIFKEQ_clean_linker_1, # of connection points: 2
#     Edge 189, Type (0, 0), BuildingBlock: KIFKEQ_clean_linker_1, # of connection points: 2
#     Edge 190, Type (0, 0), BuildingBlock: KIFKEQ_clean_linker_1, # of connection points: 2
#     Edge 191, Type (0, 0), BuildingBlock: KIFKEQ_clean_linker_1, # of connection points: 2
# Relax obj value: 0.414
# Max RMSD: 0.311
# Mean RMSD: 0.282
data_MOF--net-lcs-e--node1-MIFKUJ_clean_sbu_0--edge1-KIFKEQ_clean_linker_1
_symmetry_space_group_name_H-M    P1
_symmetry_Int_Tables_number       1
_symmetry_cell_setting            triclinic
loop_
_symmetry_equiv_pos_as_xyz
'x, y, z'
_cell_length_a     59.435314
_cell_length_b     60.772559
_cell_length_c     61.091724
_cell_angle_alpha  86.989092
_cell_angle_beta   86.831143
_cell_angle_gamma 87.955613
loop_
_atom_site_label
_atom_site_type_symbol
_atom_site_fract_x
_atom_site_fract_y
_atom_site_fract_z
_atom_type_partial_charge
Zn0 Zn 0.03957 0.3889 0.22263 0.0
Zn1 Zn 0.02011 0.36878 0.27598 0.0
C2 C 0.01831 0.43384 0.21411 0.0
O3 O 0.02706 0.43143 0.19412 0.0
C4 C 0.04696 0.36398 0.31213 0.0
O5 O 0.03582 0.38265 0.31559 0.0
O6 O 0.06279 0.39637 0.19795 0.0
O7 O 0.05961 0.38494 0.24803 0.0
O8 O 0.03247 0.39882 0.26906 0.0
C9 C 0.07641 0.41081 0.20294 0.0
O10 O 0.07271 0.42053 0.22156 0.0
O11 O 0.01953 0.41747 0.22811 0.0
C12 C 0.98373 0.35175 0.30082 0.0
O13 O 0.99045 0.33492 0.28919 0.0
O14 O -0.0072 0.37019 0.29656 0.0
O15 O 0.01507 0.34834 0.2516 0.0
O16 O 0.02523 0.35914 0.21731 0.0
O17 O 0.04321 0.35373 0.29515 0.0
C18 C 0.05338 0.39615 0.2643 0.0
C19 C 0.01678 0.34484 0.23123 0.0
Zn20 Zn 0.86239 0.77574 0.48796 0.0
Zn21 Zn 0.88953 0.76144 0.54165 0.0
C22 C 0.82877 0.74525 0.47631 0.0
O23 O 0.83436 0.75262 0.45621 0.0
C24 C 0.91882 0.79618 0.55133 0.0
O25 O 0.90417 0.80906 0.54106 0.0
O26 O 0.85552 0.79458 0.46168 0.0
O27 O 0.8536 0.79625 0.51212 0.0
O28 O 0.86524 0.78533 0.54495 0.0
C29 C 0.83692 0.80539 0.46292 0.0
O30 O 0.82208 0.80033 0.47898 0.0
O31 O 0.84046 0.75069 0.4919 0.0
C32 C 0.9016 0.7272 0.56975 0.0
O33 O 0.92017 0.73065 0.55758 0.0
O34 O 0.88377 0.73815 0.5652 0.0
O35 O 0.89446 0.74682 0.51308 0.0
O36 O 0.89584 0.76933 0.48432 0.0
O37 O 0.91763 0.77542 0.55043 0.0
C38 C 0.85391 0.79853 0.53266 0.0
C39 C 0.90599 0.75623 0.49748 0.0
Zn40 Zn 0.45739 0.6469 0.72795 0.0
Zn41 Zn 0.4727 0.66197 0.7814 0.0
C42 C 0.47407 0.60164 0.71892 0.0
O43 O 0.46507 0.60693 0.70014 0.0
C44 C 0.44021 0.66684 0.817 0.0
O45 O 0.44538 0.64577 0.82019 0.0
O46 O 0.43806 0.64321 0.7022 0.0
O47 O 0.43476 0.64861 0.75338 0.0
O48 O 0.45875 0.63304 0.77581 0.0
C49 C 0.417 0.64787 0.70292 0.0
O50 O 0.40767 0.65773 0.71993 0.0
O51 O 0.47522 0.61667 0.73273 0.0
C52 C 0.50961 0.67509 0.80373 0.0
O53 O 0.50484 0.69314 0.79189 0.0
O54 O 0.49874 0.65784 0.80119 0.0
O55 O 0.48033 0.68423 0.75627 0.0
O56 O 0.47334 0.6763 0.72234 0.0
O57 O 0.44948 0.67753 0.80068 0.0
C58 C 0.43863 0.63618 0.77011 0.0
C59 C 0.48066 0.68936 0.7358 0.0
Zn60 Zn 0.61802 0.20253 0.97789 0.0
Zn61 Zn 0.60907 0.22465 0.02901 0.0
C62 C 0.65783 0.22677 0.95944 0.0
O63 O 0.65394 0.21786 0.94094 0.0
C64 C 0.58208 0.19163 0.05487 0.0
O65 O 0.56771 0.19343 0.03924 0.0
O66 O 0.62443 0.17867 0.95645 0.0
O67 O 0.62147 0.18469 0.00615 0.0
O68 O 0.63889 0.21202 0.01856 0.0
C69 C 0.64357 0.16889 0.95835 0.0
O70 O 0.65772 0.17647 0.97168 0.0
O71 O 0.64364 0.22434 0.97569 0.0
C72 C 0.59626 0.26567 0.04744 0.0
O73 O 0.57939 0.26476 0.03455 0.0
O74 O 0.61256 0.25172 0.04557 0.0
O75 O 0.58299 0.22792 0.00899 0.0
O76 O 0.58629 0.21565 0.97547 0.0
O77 O 0.59964 0.20301 0.05331 0.0
C78 C 0.63631 0.19147 0.01806 0.0
C79 C 0.57463 0.22497 0.99069 0.0
Zn80 Zn 0.98512 0.64191 0.22582 0.0
Zn81 Zn 0.03932 0.62352 0.23717 0.0
C82 C 0.97303 0.68051 0.25238 0.0
O83 O 0.95245 0.67585 0.2478 0.0
C84 C 0.0679 0.61832 0.19905 0.0
O85 O 0.07636 0.63618 0.20599 0.0
O86 O 0.95946 0.65234 0.20664 0.0
O87 O 0.01067 0.6445 0.20385 0.0
O88 O 0.03326 0.65549 0.22776 0.0
C89 C 0.9631 0.67097 0.19669 0.0
O90 O 0.98074 0.68183 0.20148 0.0
O91 O 0.9891 0.66677 0.24751 0.0
C92 C 0.06544 0.6149 0.27576 0.0
O93 O 0.04572 0.61212 0.28614 0.0
O94 O 0.06626 0.62098 0.25556 0.0
O95 O 0.01652 0.60126 0.24917 0.0
O96 O 0.98329 0.60881 0.23507 0.0
O97 O 0.05125 0.60972 0.20975 0.0
C98 C 0.02593 0.65713 0.20861 0.0
C99 C -0.00283 0.59524 0.24437 0.0
Zn100 Zn 0.61929 0.73584 0.47345 0.0
Zn101 Zn 0.63721 0.78867 0.4866 0.0
C102 C 0.57517 0.72452 0.49281 0.0
O103 O 0.58059 0.70589 0.48359 0.0
C104 C 0.64173 0.82862 0.46135 0.0
O105 O 0.62402 0.83305 0.47441 0.0
O106 O 0.61341 0.71406 0.45146 0.0
O107 O 0.62101 0.7632 0.45438 0.0
O108 O 0.60565 0.78552 0.47809 0.0
C109 C 0.62462 0.71386 0.43317 0.0
O110 O 0.64242 0.72606 0.42982 0.0
O111 O 0.5902 0.73897 0.49319 0.0
C112 C 0.65645 0.81345 0.51503 0.0
O113 O 0.67324 0.80729 0.5016 0.0
O114 O 0.63714 0.80576 0.51328 0.0
O115 O 0.65864 0.76236 0.49068 0.0
O116 O 0.64926 0.72798 0.48639 0.0
O117 O 0.65086 0.80937 0.46265 0.0
C118 C 0.60528 0.77669 0.45986 0.0
C119 C 0.66355 0.74181 0.49122 0.0
Zn120 Zn 0.46026 0.39375 0.74573 0.0
Zn121 Zn 0.47718 0.37617 0.69251 0.0
C122 C 0.4772 0.43666 0.75739 0.0
O123 O 0.46744 0.43083 0.77653 0.0
C124 C 0.4415 0.37426 0.66238 0.0
O125 O 0.45126 0.39157 0.6528 0.0
O126 O 0.43503 0.39957 0.76856 0.0
O127 O 0.4426 0.39389 0.71892 0.0
O128 O 0.46974 0.40802 0.69796 0.0
C129 C 0.42201 0.41559 0.76254 0.0
O130 O 0.4272 0.42707 0.74428 0.0
O131 O 0.47913 0.4224 0.74263 0.0
C132 C 0.4995 0.35626 0.65728 0.0
O133 O 0.48464 0.34156 0.66402 0.0
O134 O 0.50116 0.37331 0.6682 0.0
O135 O 0.48232 0.35343 0.71723 0.0
O136 O 0.47388 0.3624 0.75155 0.0
O137 O 0.44925 0.36546 0.67983 0.0
C138 C 0.44909 0.40807 0.70425 0.0
C139 C 0.48096 0.34829 0.73772 0.0
Zn140 Zn 0.86764 0.23894 0.95406 0.0
Zn141 Zn 0.85056 0.19792 0.98427 0.0
C142 C 0.90617 0.25745 0.97281 0.0
O143 O 0.90399 0.27214 0.95645 0.0
C144 C 0.84277 0.16569 0.95492 0.0
O145 O 0.85599 0.15508 0.96872 0.0
O146 O 0.87475 0.25876 0.92767 0.0
O147 O 0.87608 0.20915 0.94402 0.0
O148 O 0.88443 0.19756 0.97729 0.0
C149 C 0.87314 0.25223 0.90841 0.0
O150 O 0.86538 0.23262 0.90579 0.0
O151 O 0.89058 0.24375 0.97707 0.0
C152 C 0.82591 0.16615 0.00912 0.0
O153 O 0.80996 0.17506 0.99712 0.0
O154 O 0.84522 0.17454 0.00783 0.0
O155 O 0.83079 0.22422 0.99296 0.0
O156 O 0.83452 0.24359 0.96167 0.0
O157 O 0.8374 0.18579 0.95784 0.0
C158 C 0.88891 0.19816 0.9567 0.0
C159 C 0.8226 0.23774 0.9787 0.0
Zn160 Zn 0.25989 0.98484 0.38908 0.0
Zn161 Zn 0.24507 0.03823 0.40342 0.0
C162 C 0.2354 0.97676 0.34892 0.0
O163 O 0.23936 0.9559 0.35466 0.0
C164 C 0.27308 0.07445 0.40228 0.0
O165 O 0.26264 0.07836 0.38401 0.0
O166 O 0.28146 0.95978 0.38162 0.0
O167 O 0.28272 0.00858 0.38817 0.0
O168 O 0.25894 0.0321 0.37322 0.0
C169 C 0.29195 0.96333 0.36311 0.0
O170 O 0.28574 0.98039 0.3505 0.0
O171 O 0.23999 0.99135 0.36219 0.0
C172 C 0.20069 0.05736 0.41479 0.0
O173 O 0.19864 0.03995 0.42834 0.0
O174 O 0.2179 0.05867 0.40157 0.0
O175 O 0.24036 0.01429 0.42783 0.0
O176 O 0.246 0.97924 0.42049 0.0
O177 O 0.26806 0.05758 0.41452 0.0
C178 C 0.27904 0.02471 0.37474 0.0
C179 C 0.24034 0.99396 0.43409 0.0
Zn180 Zn 0.20273 0.96818 0.64443 0.0
Zn181 Zn 0.22135 0.02177 0.62876 0.0
C182 C 0.22079 0.95847 0.68838 0.0
O183 O 0.21073 0.93987 0.68625 0.0
C184 C 0.19348 0.06005 0.62265 0.0
O185 O 0.20069 0.06364 0.64204 0.0
O186 O 0.17865 0.94539 0.65315 0.0
O187 O 0.18232 0.99489 0.64111 0.0
O188 O 0.20448 0.01572 0.6577 0.0
C189 C 0.16425 0.95176 0.668 0.0
O190 O 0.16764 0.97001 0.67773 0.0
O191 O 0.2219 0.97233 0.67186 0.0
C192 C 0.26394 0.04124 0.61674 0.0
O193 O 0.26581 0.02535 0.60295 0.0
O194 O 0.24778 0.04108 0.63123 0.0
O195 O 0.22658 0.99811 0.60668 0.0
O196 O 0.21791 0.96322 0.61341 0.0
O197 O 0.20008 0.0426 0.61333 0.0
C198 C 0.18475 0.01032 0.65383 0.0
C199 C 0.22582 0.97855 0.60033 0.0
Zn200 Zn 0.25088 0.98135 0.89195 0.0
Zn201 Zn 0.18956 0.98178 0.85875 0.0
C202 C 0.26851 0.99824 0.93244 0.0
O203 O 0.28634 0.98578 0.92731 0.0
C204 C 0.18741 0.93764 0.84463 0.0
O205 O 0.19615 0.93246 0.86357 0.0
O206 O 0.26966 0.9537 0.89821 0.0
O207 O 0.21801 0.97212 0.89593 0.0
O208 O 0.18255 0.96856 0.88879 0.0
C209 C 0.26543 0.94341 0.91655 0.0
O210 O 0.25002 0.95163 0.93035 0.0
O211 O 0.25345 0.00151 0.91832 0.0
C212 C 0.14704 7e-05 0.85578 0.0
O213 O 0.1434 0.97935 0.86175 0.0
O214 O 0.16723 0.00633 0.85321 0.0
O215 O 0.22148 0.98997 0.85895 0.0
O216 O 0.25744 0.99195 0.85814 0.0
O217 O 0.18487 0.95783 0.8384 0.0
C218 C 0.19869 0.96458 0.90133 0.0
C219 C 0.23959 0.99197 0.84738 0.0
Zn220 Zn 0.23614 0.98252 0.13995 0.0
Zn221 Zn 0.29102 0.99336 0.15548 0.0
C222 C 0.22642 0.00211 0.09575 0.0
O223 O 0.2062 0.99486 0.1011 0.0
C224 C 0.32501 0.96094 0.15285 0.0
O225 O 0.32981 0.97356 0.1352 0.0
O226 O 0.2114 0.96164 0.13557 0.0
O227 O 0.26281 0.96148 0.14059 0.0
O228 O 0.2848 0.98607 0.12447 0.0
C229 C 0.21658 0.9483 0.1206 0.0
O230 O 0.2355 0.95078 0.10873 0.0
O231 O 0.24085 0.00161 0.11058 0.0
C232 C 0.31885 0.01815 0.17773 0.0
O233 O 0.30893 0.00514 0.19288 0.0
O234 O 0.31339 0.01724 0.15794 0.0
O235 O 0.26562 0.99734 0.17859 0.0
O236 O 0.23 0.99507 0.1705 0.0
O237 O 0.30824 0.96625 0.1655 0.0
C238 C 0.27816 0.96638 0.12613 0.0
C239 C 0.24473 0.99833 0.18432 0.0
Zn240 Zn 0.36407 0.27267 0.9776 0.0
Zn241 Zn 0.38809 0.26019 0.03593 0.0
C242 C 0.32476 0.24765 0.9666 0.0
O243 O 0.33338 0.24973 0.94636 0.0
C244 C 0.40731 0.29869 0.05402 0.0
O245 O 0.39021 0.30998 0.04589 0.0
O246 O 0.35902 0.29605 0.95372 0.0
O247 O 0.36479 0.2919 0.00449 0.0
O248 O 0.35827 0.27596 0.03742 0.0
C249 C 0.33951 0.30507 0.95232 0.0
O250 O 0.3227 0.29761 0.96512 0.0
O251 O 0.33589 0.25426 0.9821 0.0
C252 C 0.40662 0.22381 0.05867 0.0
O253 O 0.4242 0.2305 0.04644 0.0
O254 O 0.38735 0.23238 0.05482 0.0
O255 O 0.39464 0.25666 0.00472 0.0
O256 O 0.39471 0.25655 0.96968 0.0
O257 O 0.41037 0.27851 0.04982 0.0
C258 C 0.35288 0.29035 0.02255 0.0
C259 C 0.4055 0.25317 0.98689 0.0
Zn260 Zn 0.96561 0.89103 0.25894 0.0
Zn261 Zn 0.98149 0.87308 0.20598 0.0
C262 C 0.98777 0.93244 0.26754 0.0
O263 O 0.98007 0.92764 0.28774 0.0
C264 C 0.95136 0.87227 0.17198 0.0
O265 O 0.96586 0.88641 0.1631 0.0
O266 O 0.94172 0.90057 0.28188 0.0
O267 O 0.94647 0.89141 0.23319 0.0
O268 O 0.97356 0.90471 0.21152 0.0
C269 C 0.93214 0.91883 0.27585 0.0
O270 O 0.93915 0.92887 0.25729 0.0
O271 O 0.9868 0.9178 0.25333 0.0
C272 C 0.00626 0.85099 0.17465 0.0
O273 O -0.00825 0.83652 0.18283 0.0
O274 O 0.00686 0.86949 0.18333 0.0
O275 O 0.98552 0.8505 0.23095 0.0
O276 O 0.97776 0.85898 0.26546 0.0
O277 O 0.95435 0.86376 0.19107 0.0
C278 C 0.95271 0.904 0.21699 0.0
C279 C 0.9844 0.84498 0.25134 0.0
Zn280 Zn 0.11951 0.72367 0.48424 0.0
Zn281 Zn 0.09167 0.73893 0.54129 0.0
C282 C 0.16225 0.74287 0.4694 0.0
O283 O 0.15923 0.73202 0.45181 0.0
C284 C 0.06948 0.69924 0.55925 0.0
O285 O 0.08446 0.68839 0.54702 0.0
O286 O 0.12674 0.69918 0.4642 0.0
O287 O 0.11745 0.70752 0.51462 0.0
O288 O 0.12173 0.72441 0.5449 0.0
C289 C 0.11816 0.68055 0.46901 0.0
O290 O 0.10426 0.67817 0.48638 0.0
O291 O 0.14658 0.74336 0.48446 0.0
C292 C 0.07024 0.77429 0.55932 0.0
O293 O 0.0542 0.76664 0.54822 0.0
O294 O 0.09038 0.76793 0.55478 0.0
O295 O 0.08686 0.74002 0.50992 0.0
O296 O 0.08882 0.73781 0.47506 0.0
O297 O 0.06924 0.72017 0.55848 0.0
C298 C 0.1291 0.71072 0.53099 0.0
C299 C 0.0768 0.74172 0.49226 0.0
Zn300 Zn 0.9701 0.62784 0.73338 0.0
Zn301 Zn 0.94467 0.61104 0.78245 0.0
C302 C 0.93991 0.63753 0.70014 0.0
O303 O 0.94887 0.61879 0.6935 0.0
C304 C 0.96384 0.56545 0.79258 0.0
O305 O 0.95125 0.56691 0.81084 0.0
O306 O -0.00471 0.62776 0.71018 0.0
O307 O 0.97709 0.64866 0.75683 0.0
O308 O 0.95738 0.64141 0.78803 0.0
C309 C 0.00085 0.64723 0.70414 0.0
O310 O -0.00766 0.66371 0.71537 0.0
O311 O 0.94628 0.64514 0.71764 0.0
C312 C 0.90441 0.59201 0.80003 0.0
O313 O 0.90696 0.58273 0.78109 0.0
O314 O 0.91958 0.60459 0.80559 0.0
O315 O 0.92771 0.61366 0.75501 0.0
O316 O 0.9565 0.59773 0.73785 0.0
O317 O 0.9655 0.58253 0.77949 0.0
C318 C 0.97031 0.65395 0.776 0.0
C319 C 0.93529 0.60046 0.74082 0.0
Zn320 Zn 0.10909 0.23689 0.4538 0.0
Zn321 Zn 0.11643 0.2206 0.50759 0.0
C322 C 0.08651 0.20469 0.43006 0.0
O323 O 0.0841 0.19388 0.44918 0.0
C324 C 0.15353 0.24847 0.51443 0.0
O325 O 0.1455 0.24635 0.53488 0.0
O326 O 0.11879 0.26582 0.43958 0.0
O327 O 0.08234 0.2402 0.47549 0.0
O328 O 0.08545 0.23435 0.51118 0.0
C329 C 0.10567 0.28269 0.44107 0.0
O330 O 0.08881 0.28223 0.4559 0.0
O331 O 0.09598 0.22315 0.42867 0.0
C332 C 0.14185 0.19134 0.53217 0.0
O333 O 0.1545 0.19506 0.51412 0.0
O334 O 0.12359 0.20263 0.53493 0.0
O335 O 0.11679 0.19653 0.48638 0.0
O336 O 0.13499 0.2158 0.46019 0.0
O337 O 0.14251 0.24072 0.49947 0.0
C338 C 0.07363 0.23993 0.49499 0.0
C339 C 0.12982 0.1973 0.46927 0.0
Zn340 Zn 0.50384 0.3359 0.22009 0.0
Zn341 Zn 0.51892 0.34921 0.27292 0.0
C342 C 0.54222 0.31411 0.19527 0.0
O343 O 0.55483 0.31665 0.21188 0.0
C344 C 0.4962 0.39274 0.28174 0.0
O345 O 0.49873 0.38607 0.30229 0.0
O346 O 0.4756 0.34306 0.20427 0.0
O347 O 0.49842 0.3127 0.24503 0.0
O348 O 0.50381 0.31939 0.27962 0.0
C349 C 0.46652 0.32553 0.19921 0.0
O350 O 0.47318 0.30673 0.20877 0.0
O351 O 0.52153 0.32012 0.19648 0.0
C352 C 0.55163 0.37236 0.29075 0.0
O353 O 0.54588 0.38454 0.27344 0.0
O354 O 0.54066 0.3551 0.29615 0.0
O355 O 0.5418 0.34521 0.24814 0.0
O356 O 0.5225 0.36276 0.22289 0.0
O357 O 0.50081 0.37902 0.26678 0.0
C358 C 0.4979 0.30648 0.26527 0.0
C359 C 0.54099 0.35911 0.23203 0.0
Zn360 Zn 0.38116 0.77876 0.97458 0.0
Zn361 Zn 0.3644 0.80281 0.02369 0.0
C362 C 0.4052 0.81532 0.9486 0.0
O363 O 0.40435 0.82729 0.96592 0.0
C364 C 0.32356 0.77819 0.03681 0.0
O365 O 0.32616 0.78603 0.05611 0.0
O366 O 0.3783 0.75038 0.95976 0.0
O367 O 0.40321 0.77462 0.99878 0.0
O368 O 0.39475 0.78904 0.03086 0.0
C369 C 0.39779 0.7435 0.95302 0.0
O370 O 0.41548 0.75248 0.96042 0.0
O371 O 0.39716 0.79618 0.9499 0.0
C372 C 0.34002 0.83957 0.0401 0.0
O373 O 0.33069 0.8376 0.02134 0.0
O374 O 0.35498 0.82532 0.04605 0.0
O375 O 0.36654 0.82121 0.99547 0.0
O376 O 0.35127 0.79529 0.97827 0.0
O377 O 0.33856 0.78175 0.02145 0.0
C378 C 0.40819 0.77816 0.01824 0.0
C379 C 0.35384 0.81559 0.98088 0.0
Zn380 Zn 0.94302 0.37472 0.76829 0.0
Zn381 Zn 0.0003 0.35707 0.77659 0.0
C382 C 0.90888 0.3715 0.80322 0.0
O383 O 0.90047 0.35787 0.79006 0.0
C384 C 0.01598 0.31709 0.75371 0.0
O385 O 0.03539 0.32205 0.76115 0.0
O386 O 0.9189 0.38096 0.74682 0.0
O387 O 0.96555 0.39872 0.76388 0.0
O388 O 0.0019 0.39047 0.76707 0.0
C389 C 0.90779 0.39879 0.75047 0.0
O390 O 0.91395 0.41111 0.766 0.0
O391 O 0.9276 0.38019 0.79766 0.0
C392 C 0.02243 0.33094 0.80845 0.0
O393 O 0.00587 0.31842 0.80402 0.0
O394 O 0.02488 0.34926 0.79758 0.0
O395 O 0.97346 0.35194 0.79681 0.0
O396 O 0.95289 0.34282 0.77052 0.0
O397 O -0.00031 0.33139 0.75495 0.0
C398 C 0.98587 0.40462 0.7635 0.0
C399 C 0.95916 0.33933 0.78993 0.0
Zn400 Zn 0.35252 0.20358 0.51366 0.0
Zn401 Zn 0.36188 0.25711 0.53011 0.0
C402 C 0.32113 0.18132 0.5462 0.0
O403 O 0.30777 0.19892 0.54423 0.0
C404 C 0.40651 0.26909 0.51235 0.0
O405 O 0.40028 0.28789 0.52087 0.0
O406 O 0.35966 0.1871 0.48643 0.0
O407 O 0.32724 0.22636 0.50834 0.0
O408 O 0.33302 0.26124 0.51456 0.0
C409 C 0.3507 0.1927 0.46849 0.0
O410 O 0.3399 0.21188 0.46659 0.0
O411 O 0.33966 0.18031 0.53484 0.0
C412 C 0.35586 0.28257 0.56884 0.0
O413 O 0.34391 0.26584 0.57656 0.0
O414 O 0.36406 0.2828 0.54916 0.0
O415 O 0.36037 0.23141 0.55174 0.0
O416 O 0.38021 0.21139 0.52854 0.0
O417 O 0.39203 0.25411 0.51207 0.0
C418 C 0.32058 0.2465 0.50819 0.0
C419 C 0.37397 0.21536 0.54815 0.0
Zn420 Zn 0.50395 0.62082 0.30955 0.0
Zn421 Zn 0.52308 0.60062 0.26019 0.0
C422 C 0.54187 0.63183 0.33145 0.0
O423 O 0.53454 0.61495 0.34379 0.0
C424 C 0.50214 0.55896 0.25003 0.0
O425 O 0.50992 0.56453 0.23004 0.0
O426 O 0.48376 0.62435 0.33673 0.0
O427 O 0.48819 0.63585 0.28407 0.0
O428 O 0.51217 0.63298 0.25549 0.0
C429 C 0.48447 0.64251 0.34605 0.0
O430 O 0.4968 0.65832 0.33684 0.0
O431 O 0.53141 0.63812 0.31453 0.0
C432 C 0.55942 0.5769 0.24269 0.0
O433 O 0.55407 0.56578 0.26115 0.0
O434 O 0.54699 0.59339 0.23673 0.0
O435 O 0.54187 0.59984 0.28602 0.0
O436 O 0.51482 0.58886 0.30922 0.0
O437 O 0.50299 0.57296 0.26489 0.0
C438 C 0.49834 0.64464 0.2671 0.0
C439 C 0.53549 0.58823 0.30285 0.0
Zn440 Zn 0.1318 0.80484 0.02185 0.0
Zn441 Zn 0.1158 0.75243 0.03916 0.0
C442 C 0.1309 0.83794 0.05288 0.0
O443 O 0.1148 0.84581 0.04047 0.0
C444 C 0.07521 0.73943 0.0178 0.0
O445 O 0.08051 0.71962 0.02597 0.0
O446 O 0.13691 0.82799 0.99815 0.0
O447 O 0.15511 0.78045 0.01753 0.0
O448 O 0.14762 0.74575 0.02676 0.0
C449 C 0.15695 0.83461 0.99814 0.0
O450 O 0.17117 0.82432 0.01121 0.0
O451 O 0.14089 0.81978 0.04837 0.0
C452 C 0.08949 0.73688 0.07419 0.0
O453 O 0.07728 0.75316 0.0655 0.0
O454 O 0.1079 0.73098 0.06423 0.0
O455 O 0.11423 0.78009 0.05555 0.0
O456 O 0.09906 0.79906 0.02863 0.0
O457 O 0.08914 0.75477 0.01892 0.0
C458 C 0.16126 0.76024 0.01901 0.0
C459 C 0.0992 0.7938 0.04896 0.0
Zn460 Zn 0.74406 0.96529 0.60289 0.0
Zn461 Zn 0.72313 0.01734 0.61862 0.0
C462 C 0.71176 0.93373 0.59549 0.0
O463 O 0.71524 0.92747 0.61596 0.0
C464 C 0.73721 0.02511 0.66322 0.0
O465 O 0.72905 0.045 0.65823 0.0
O466 O 0.77004 0.94268 0.60348 0.0
O467 O 0.75069 0.99119 0.58136 0.0
O468 O 0.7409 0.02527 0.58959 0.0
C469 C 0.77767 0.93864 0.58416 0.0
O470 O 0.77004 0.95075 0.56756 0.0
O471 O 0.72242 0.94968 0.58627 0.0
C472 C 0.68168 0.03688 0.63363 0.0
O473 O 0.67948 0.01673 0.64206 0.0
O474 O 0.69999 0.04215 0.62325 0.0
O475 O 0.70359 0.99164 0.61449 0.0
O476 O 0.72617 0.96863 0.63202 0.0
O477 O 0.73863 0.01103 0.64833 0.0
C478 C 0.74982 0.01173 0.57613 0.0
C479 C 0.70625 0.97554 0.62824 0.0
Zn480 Zn 0.76675 0.97902 0.38232 0.0
Zn481 Zn 0.77801 0.03362 0.36491 0.0
C482 C 0.79927 0.94525 0.3847 0.0
O483 O 0.78956 0.94096 0.36668 0.0
C484 C 0.74867 0.04037 0.326 0.0
O485 O 0.74904 0.06154 0.32925 0.0
O486 O 0.74322 0.9558 0.38404 0.0
O487 O 0.76008 0.00186 0.40471 0.0
O488 O 0.76521 0.0373 0.39693 0.0
C489 C 0.72198 0.95757 0.38746 0.0
O490 O 0.71218 0.97725 0.38829 0.0
O491 O 0.79244 0.96199 0.39502 0.0
C492 C 0.80692 0.05622 0.33488 0.0
O493 O 0.80123 0.03926 0.32417 0.0
O494 O 0.79752 0.05914 0.35383 0.0
O495 O 0.80191 0.00957 0.36441 0.0
O496 O 0.77901 0.9867 0.35154 0.0
O497 O 0.75723 0.02663 0.34 0.0
C498 C 0.75944 0.02162 0.41064 0.0
C499 C 0.79871 0.99398 0.35206 0.0
Zn500 Zn 0.78984 0.00921 0.13563 0.0
Zn501 Zn 0.73856 0.03384 0.11883 0.0
C502 C 0.82864 0.03628 0.13592 0.0
O503 O 0.8377 0.02103 0.1234 0.0
C504 C 0.72287 0.01884 0.07704 0.0
O505 O 0.70568 0.03221 0.08188 0.0
O506 O 0.81085 0.98296 0.13988 0.0
O507 O 0.76469 0.00871 0.15949 0.0
O508 O 0.73116 0.02259 0.1506 0.0
C509 C 0.82044 0.98352 0.1579 0.0
O510 O 0.81347 0.99832 0.17189 0.0
O511 O 0.80825 0.03481 0.1431 0.0
C512 C 0.7261 0.07463 0.09777 0.0
O513 O 0.74558 0.0704 0.08742 0.0
O514 O 0.71865 0.06088 0.11264 0.0
O515 O 0.76928 0.04587 0.11706 0.0
O516 O 0.78466 0.01604 0.10359 0.0
O517 O 0.73742 0.01456 0.09149 0.0
C518 C 0.74421 0.01372 0.16474 0.0
C519 C 0.78148 0.03678 0.10225 0.0
Zn520 Zn 0.69384 0.00252 0.8518 0.0
Zn521 Zn 0.73971 0.0264 0.86926 0.0
C522 C 0.66889 0.03879 0.83776 0.0
O523 O 0.65556 0.0295 0.85311 0.0
C524 C 0.75503 0.0124 0.91303 0.0
O525 O 0.77144 0.02562 0.90677 0.0
O526 O 0.66745 0.9839 0.84702 0.0
O527 O 0.72148 0.98778 0.83734 0.0
O528 O 0.74499 0.01472 0.83849 0.0
C529 C 0.6691 0.96405 0.84143 0.0
O530 O 0.689 0.95393 0.8404 0.0
O531 O 0.68785 0.02964 0.83289 0.0
C532 C 0.75694 0.07044 0.86575 0.0
O533 O 0.73687 0.07604 0.8589 0.0
O534 O 0.76197 0.05028 0.87029 0.0
O535 O 0.70997 0.04207 0.87257 0.0
O536 O 0.69097 0.0127 0.88338 0.0
O537 O 0.7412 0.00754 0.89882 0.0
C538 C 0.73721 0.99922 0.82822 0.0
C539 C 0.69552 0.03275 0.88558 0.0
Zn540 Zn 0.59937 0.7427 0.96664 0.0
Zn541 Zn 0.61428 0.71759 0.0169 0.0
C542 C 0.59444 0.71757 0.92999 0.0
O543 O 0.61431 0.72603 0.92548 0.0
C544 C 0.65647 0.73286 0.03163 0.0
O545 O 0.6484 0.72344 0.05013 0.0
O546 O 0.60004 0.77009 0.94668 0.0
O547 O 0.57759 0.74837 0.99269 0.0
O548 O 0.58539 0.73407 0.0256 0.0
C549 C 0.58011 0.77514 0.94119 0.0
O550 O 0.56328 0.76439 0.95105 0.0
O551 O 0.58396 0.72173 0.94809 0.0
C552 C 0.63392 0.67812 0.03381 0.0
O553 O 0.64627 0.68158 0.01553 0.0
O554 O 0.6183 0.69209 0.03885 0.0
O555 O 0.61177 0.70231 0.98888 0.0
O556 O 0.63025 0.72807 0.97004 0.0
O557 O 0.64396 0.73449 0.01527 0.0
C558 C 0.57253 0.74545 0.01311 0.0
C559 C 0.62683 0.70779 0.97437 0.0
Zn560 Zn -0.00597 0.12552 0.79324 0.0
Zn561 Zn 0.01455 0.10819 0.74483 0.0
C562 C 0.02956 0.13476 0.81856 0.0
O563 O 0.02125 0.11734 0.82933 0.0
C564 C -0.00784 0.0667 0.7363 0.0
O565 O -0.00021 0.07126 0.71604 0.0
O566 O 0.97374 0.12747 0.82052 0.0
O567 O 0.98045 0.14415 0.76835 0.0
O568 O 0.00485 0.14092 0.74005 0.0
C569 C 0.96645 0.14675 0.82473 0.0
O570 O 0.96972 0.16283 0.80983 0.0
O571 O 0.02062 0.14202 0.80111 0.0
C572 C 0.04774 0.08099 0.72662 0.0
O573 O 0.04092 0.06995 0.74469 0.0
O574 O 0.03801 0.0994 0.7215 0.0
O575 O 0.03366 0.10636 0.77044 0.0
O576 O 0.00569 0.09388 0.79158 0.0
O577 O -0.00707 0.08163 0.75025 0.0
C578 C 0.99091 0.15269 0.7514 0.0
C579 C 0.02662 0.09359 0.78614 0.0
Zn580 Zn 0.88352 0.26424 0.46393 0.0
Zn581 Zn 0.86203 0.27165 0.52216 0.0
C582 C 0.90983 0.30082 0.44435 0.0
O583 O 0.89764 0.31332 0.45766 0.0
C584 C 0.82193 0.24633 0.53219 0.0
O585 O 0.82614 0.25055 0.55241 0.0
O586 O 0.87831 0.23728 0.44835 0.0
O587 O 0.89243 0.25898 0.49368 0.0
O588 O 0.89284 0.25682 0.52861 0.0
C589 C 0.89541 0.22438 0.44604 0.0
O590 O 0.91263 0.22685 0.45819 0.0
O591 O 0.90708 0.28016 0.44525 0.0
C592 C 0.83767 0.3029 0.5457 0.0
O593 O 0.8261 0.30261 0.52801 0.0
O594 O 0.85374 0.28889 0.54834 0.0
O595 O 0.86237 0.29684 0.49766 0.0
O596 O 0.85603 0.28343 0.46543 0.0
O597 O 0.83612 0.25194 0.51671 0.0
C598 C 0.9036 0.25502 0.5104 0.0
C599 C 0.85313 0.29841 0.47917 0.0
Zn600 Zn 0.52774 0.89479 0.72196 0.0
Zn601 Zn 0.506 0.87654 0.77443 0.0
C602 C 0.50252 0.93735 0.71348 0.0
O603 O 0.50988 0.93464 0.6931 0.0
C604 C 0.53211 0.86722 0.81132 0.0
O605 O 0.52434 0.88711 0.81564 0.0
O606 O 0.55121 0.90388 0.69787 0.0
O607 O 0.54768 0.8906 0.74735 0.0
O608 O 0.52179 0.90534 0.76926 0.0
C609 C 0.56326 0.91936 0.70351 0.0
O610 O 0.55752 0.92905 0.7218 0.0
O611 O 0.50632 0.92191 0.72795 0.0
C612 C 0.46658 0.86318 0.79848 0.0
O613 O 0.47045 0.84602 0.78645 0.0
O614 O 0.47842 0.88006 0.79452 0.0
O615 O 0.50111 0.85606 0.74997 0.0
O616 O 0.51415 0.86512 0.71609 0.0
O617 O 0.52665 0.85874 0.79388 0.0
C618 C 0.54245 0.90219 0.76359 0.0
C619 C 0.50412 0.85172 0.72984 0.0
Zn620 Zn 0.96513 0.14081 0.22592 0.0
Zn621 Zn 0.98632 0.15182 0.27582 0.0
C622 C 0.98074 0.09493 0.21925 0.0
O623 O 0.96913 0.09864 0.2017 0.0
C624 C 0.95163 0.17899 0.29837 0.0
O625 O 0.94076 0.17969 0.2802 0.0
O626 O 0.94606 0.1366 0.20035 0.0
O627 O 0.94196 0.14176 0.2511 0.0
O628 O 0.96551 0.12609 0.2741 0.0
C629 C 0.92562 0.14354 0.2006 0.0
O630 O 0.91782 0.15613 0.21632 0.0
O631 O 0.98378 0.11112 0.23128 0.0
C632 C 0.03044 0.15531 0.29071 0.0
O633 O 0.031 0.17198 0.27613 0.0
O634 O 0.0143 0.14215 0.29095 0.0
O635 O -0.00784 0.17621 0.25237 0.0
O636 O 0.97993 0.17075 0.21968 0.0
O637 O 0.97048 0.1686 0.29938 0.0
C638 C 0.94553 0.12989 0.26829 0.0
C639 C 0.98959 0.18276 0.23257 0.0
Zn640 Zn 0.46457 0.1438 0.71988 0.0
Zn641 Zn 0.52063 0.12891 0.73012 0.0
C642 C 0.45336 0.18625 0.74159 0.0
O643 O 0.43294 0.18355 0.7352 0.0
C644 C 0.55592 0.12839 0.69538 0.0
O645 O 0.56225 0.1463 0.70416 0.0
O646 O 0.43926 0.15052 0.69973 0.0
O647 O 0.49041 0.14568 0.69761 0.0
O648 O 0.50995 0.15964 0.72218 0.0
C649 C 0.443 0.16746 0.68709 0.0
O650 O 0.45965 0.18007 0.69106 0.0
O651 O 0.46806 0.17052 0.73945 0.0
C652 C 0.55742 0.11263 0.75182 0.0
O653 O 0.55487 0.09741 0.73777 0.0
O654 O 0.54318 0.12862 0.75321 0.0
O655 O 0.49891 0.10443 0.73685 0.0
O656 O 0.46261 0.1117 0.73236 0.0
O657 O 0.53825 0.11899 0.70314 0.0
C658 C 0.50496 0.15911 0.70236 0.0
C659 C 0.47868 0.09821 0.73746 0.0
Zn660 Zn 0.1128 0.23649 0.9634 0.0
Zn661 Zn 0.15315 0.29169 0.96261 0.0
C662 C 0.0699 0.22118 0.98364 0.0
O663 O 0.07631 0.20265 0.97465 0.0
C664 C 0.19668 0.30619 0.94788 0.0
O665 O 0.19825 0.31024 0.96865 0.0
O666 O 0.10879 0.2171 0.93889 0.0
O667 O 0.11414 0.26749 0.9478 0.0
O668 O 0.12863 0.30037 0.94275 0.0
C669 C 0.09201 0.2225 0.92759 0.0
O670 O 0.0782 0.23861 0.9339 0.0
O671 O 0.08374 0.23678 0.98304 0.0
C672 C 0.14824 0.30942 0.00629 0.0
O673 O 0.14548 0.28909 0.01408 0.0
O674 O 0.15188 0.31338 0.98584 0.0
O675 O 0.1461 0.26151 0.97306 0.0
O676 O 0.1429 0.2266 0.97762 0.0
O677 O 0.18084 0.29436 0.94274 0.0
C678 C 0.11452 0.28647 0.93783 0.0
C679 C 0.1554 0.24307 0.97784 0.0
Zn680 Zn 0.37143 0.74917 0.46451 0.0
Zn681 Zn 0.35008 0.70662 0.48954 0.0
C682 C 0.41017 0.76404 0.48636 0.0
O683 O 0.40574 0.78239 0.47484 0.0
C684 C 0.34033 0.67822 0.45624 0.0
O685 O 0.35601 0.66656 0.4664 0.0
O686 O 0.38247 0.76878 0.43919 0.0
O687 O 0.37325 0.72012 0.45087 0.0
O688 O 0.38372 0.7049 0.48189 0.0
C689 C 0.40055 0.76122 0.42979 0.0
O690 O 0.4104 0.74322 0.43804 0.0
O691 O 0.396 0.74871 0.48704 0.0
C692 C 0.32428 0.67415 0.51039 0.0
O693 O 0.30907 0.6854 0.49922 0.0
O694 O 0.34391 0.68156 0.511 0.0
O695 O 0.33287 0.73341 0.50088 0.0
O696 O 0.33914 0.75768 0.47331 0.0
O697 O 0.33467 0.69731 0.46269 0.0
C698 C 0.38562 0.70619 0.46111 0.0
C699 C 0.32636 0.75006 0.48909 0.0
Zn700 Zn 0.75953 0.4884 0.89888 0.0
Zn701 Zn 0.74051 0.54042 0.91751 0.0
C702 C 0.74427 0.48025 0.85469 0.0
O703 O 0.75294 0.46049 0.85937 0.0
C704 C 0.76579 0.57811 0.91824 0.0
O705 O 0.75218 0.58357 0.90246 0.0
O706 O 0.7822 0.46362 0.89327 0.0
O707 O 0.77934 0.51411 0.90044 0.0
O708 O 0.7529 0.53557 0.88673 0.0
C709 C 0.79838 0.46831 0.87952 0.0
O710 O 0.79865 0.48801 0.8696 0.0
O711 O 0.74236 0.49401 0.86991 0.0
C712 C 0.7101 0.56891 0.93734 0.0
O713 O 0.72203 0.56052 0.95343 0.0
O714 O 0.71313 0.56089 0.91854 0.0
O715 O 0.73643 0.51506 0.94034 0.0
O716 O 0.74419 0.48129 0.9293 0.0
O717 O 0.76436 0.55924 0.92814 0.0
C718 C 0.77371 0.53078 0.88842 0.0
C719 C 0.73748 0.49427 0.94428 0.0
Zn720 Zn 0.71058 0.4644 0.15423 0.0
Zn721 Zn 0.72246 0.5185 0.1358 0.0
C722 C 0.73686 0.45588 0.19504 0.0
O723 O 0.7333 0.43498 0.19252 0.0
C724 C 0.68977 0.55387 0.13146 0.0
O725 O 0.69918 0.55997 0.14903 0.0
O726 O 0.6914 0.43846 0.16336 0.0
O727 O 0.68672 0.48843 0.15495 0.0
O728 O 0.71192 0.50957 0.16648 0.0
C729 C 0.68031 0.44066 0.18159 0.0
O730 O 0.68413 0.4576 0.19321 0.0
O731 O 0.73115 0.4701 0.18 0.0
C732 C 0.74662 0.55269 0.11775 0.0
O733 O 0.73567 0.54625 0.10124 0.0
O734 O 0.74596 0.54119 0.1357 0.0
O735 O 0.73054 0.4964 0.1129 0.0
O736 O 0.72342 0.46147 0.12227 0.0
O737 O 0.69609 0.53566 0.12342 0.0
C738 C 0.69147 0.50461 0.16586 0.0
C739 C 0.7303 0.47631 0.1081 0.0
Zn740 Zn 0.75675 0.47594 0.40202 0.0
Zn741 Zn 0.69676 0.47131 0.36648 0.0
C742 C 0.7745 0.49924 0.44002 0.0
O743 O 0.79436 0.4907 0.43399 0.0
C744 C 0.68704 0.42704 0.35596 0.0
O745 O 0.69169 0.42243 0.3765 0.0
O746 O 0.77486 0.44814 0.40994 0.0
O747 O 0.72401 0.46764 0.40401 0.0
O748 O 0.68914 0.4612 0.39773 0.0
C749 C 0.77621 0.44143 0.4299 0.0
O750 O 0.76543 0.45228 0.44549 0.0
O751 O 0.75809 0.49733 0.42762 0.0
C752 C 0.66318 0.50615 0.37197 0.0
O753 O 0.66531 0.50177 0.39305 0.0
O754 O 0.67605 0.49627 0.35809 0.0
O755 O 0.72911 0.47913 0.36526 0.0
O756 O 0.76442 0.48518 0.36807 0.0
O757 O 0.69028 0.44636 0.34761 0.0
C758 C 0.70518 0.45987 0.41064 0.0
C759 C 0.74788 0.48352 0.35568 0.0
Zn760 Zn 0.77638 0.51315 0.64871 0.0
Zn761 Zn 0.756 0.4622 0.6361 0.0
C762 C 0.7565 0.52583 0.69219 0.0
O763 O 0.76814 0.5436 0.68758 0.0
C764 C 0.78625 0.42495 0.63643 0.0
O765 O 0.77376 0.4197 0.65424 0.0
O766 O 0.80171 0.53362 0.65389 0.0
O767 O 0.79305 0.48401 0.64953 0.0
O768 O 0.76433 0.46811 0.66667 0.0
C769 C 0.81417 0.52651 0.66923 0.0
O770 O 0.80859 0.50857 0.68085 0.0
O771 O 0.75489 0.5122 0.67712 0.0
C772 C 0.73049 0.43308 0.61693 0.0
O773 O 0.7458 0.4391 0.60165 0.0
O774 O 0.72964 0.44238 0.63514 0.0
O775 O 0.75422 0.48596 0.61176 0.0
O776 O 0.76504 0.51957 0.61745 0.0
O777 O 0.78212 0.44305 0.62585 0.0
C778 C 0.78544 0.47075 0.66461 0.0
C779 C 0.7574 0.50576 0.60486 0.0
Zn780 Zn 0.48034 0.1372 0.22313 0.0
Zn781 Zn 0.46102 0.09821 0.28056 0.0
C782 C 0.44623 0.16715 0.209 0.0
O783 O 0.43348 0.15322 0.22072 0.0
C784 C 0.47738 0.05432 0.29625 0.0
O785 O 0.46031 0.05694 0.31057 0.0
O786 O 0.51 0.13105 0.20721 0.0
O787 O 0.47908 0.13321 0.25537 0.0
O788 O 0.47254 0.12858 0.29017 0.0
C789 C 0.52294 0.14696 0.20244 0.0
O790 O 0.51848 0.16584 0.21153 0.0
O791 O 0.46743 0.16577 0.21083 0.0
C792 C 0.4124 0.09425 0.29106 0.0
O793 O 0.41036 0.1036 0.27137 0.0
O794 O 0.43196 0.09124 0.29842 0.0
O795 O 0.45352 0.10008 0.24794 0.0
O796 O 0.45933 0.11473 0.21436 0.0
O797 O 0.48259 0.07058 0.28307 0.0
C798 C 0.47869 0.1414 0.27396 0.0
C799 C 0.44897 0.10132 0.22772 0.0
Zn800 Zn 0.98982 0.84597 0.73112 0.0
Zn801 Zn 0.01849 0.85807 0.77172 0.0
C802 C 0.02068 0.82881 0.70083 0.0
O803 O 0.01408 0.84751 0.69108 0.0
C804 C 0.00362 0.90377 0.78348 0.0
O805 O 0.01674 0.8995 0.79988 0.0
O806 O 0.96817 0.8473 0.70696 0.0
O807 O 0.97507 0.82983 0.75811 0.0
O808 O 0.00425 0.82808 0.77886 0.0
C809 C 0.96187 0.82874 0.70134 0.0
O810 O 0.96616 0.81114 0.71405 0.0
O811 O 0.01266 0.82362 0.71996 0.0
C812 C 0.05917 0.87341 0.7836 0.0
O813 O 0.05503 0.88574 0.76593 0.0
O814 O 0.04435 0.86026 0.7916 0.0
O815 O 0.035 0.85729 0.74218 0.0
O816 O 0.00621 0.8755 0.72864 0.0
O817 O -0.00037 0.88809 0.77119 0.0
C818 C 0.98661 0.8195 0.77257 0.0
C819 C 0.02744 0.87234 0.72924 0.0
Zn820 Zn 0.46022 0.87852 0.27128 0.0
Zn821 Zn 0.51923 0.85086 0.28692 0.0
C822 C 0.44036 0.89789 0.31072 0.0
O823 O 0.45188 0.88217 0.32109 0.0
C824 C 0.53189 0.80637 0.27223 0.0
O825 O 0.54962 0.80947 0.28347 0.0
O826 O 0.4464 0.87801 0.24263 0.0
O827 O 0.49307 0.8826 0.27001 0.0
O828 O 0.52866 0.88217 0.27352 0.0
C829 C 0.44861 0.89322 0.22779 0.0
O830 O 0.46256 0.90908 0.23027 0.0
O831 O 0.44235 0.9 0.2899 0.0
C832 C 0.52921 0.82728 0.32514 0.0
O833 O 0.51297 0.81609 0.31781 0.0
O834 O 0.53709 0.84336 0.31332 0.0
O835 O 0.48776 0.85458 0.3019 0.0
O836 O 0.45662 0.84887 0.28598 0.0
O837 O 0.51818 0.82271 0.26864 0.0
C838 C 0.51073 0.89354 0.26992 0.0
C839 C 0.47134 0.84227 0.29933 0.0
Zn840 Zn 0.8444 0.70586 0.03799 0.0
Zn841 Zn 0.86349 0.76537 0.04254 0.0
C842 C 0.81842 0.69235 0.07857 0.0
O843 O 0.8339 0.70132 0.08941 0.0
C844 C 0.9078 0.77463 0.02047 0.0
O845 O 0.90206 0.79523 0.02417 0.0
O846 O 0.84804 0.68659 0.01259 0.0
O847 O 0.83722 0.73638 0.03028 0.0
O848 O 0.83383 0.7712 0.02599 0.0
C849 C 0.84268 0.69222 0.99322 0.0
O850 O 0.83676 0.71286 0.98836 0.0
O851 O 0.81986 0.6932 0.05773 0.0
C852 C 0.8564 0.7924 0.07873 0.0
O853 O 0.84314 0.77632 0.08555 0.0
O854 O 0.86672 0.79181 0.05998 0.0
O855 O 0.86211 0.7395 0.06627 0.0
O856 O 0.87235 0.7067 0.05431 0.0
O857 O 0.89334 0.7598 0.02486 0.0
C858 C 0.8249 0.75277 0.02477 0.0
C859 C 0.87545 0.72251 0.06659 0.0
Zn860 Zn 0.63465 0.29633 0.51722 0.0
Zn861 Zn 0.61252 0.24792 0.53802 0.0
C862 C 0.63821 0.32743 0.54983 0.0
O863 O 0.62343 0.33787 0.53748 0.0
C864 C 0.57225 0.23326 0.51861 0.0
O865 O 0.57717 0.21493 0.52997 0.0
O866 O 0.64255 0.32042 0.49529 0.0
O867 O 0.65523 0.27034 0.51082 0.0
O868 O 0.64371 0.23852 0.52596 0.0
C869 C 0.66294 0.32577 0.49618 0.0
O870 O 0.67644 0.31348 0.50844 0.0
O871 O 0.64542 0.30827 0.54492 0.0
C872 C 0.58669 0.23511 0.57512 0.0
O873 O 0.57608 0.25323 0.56812 0.0
O874 O 0.60375 0.2278 0.56392 0.0
O875 O 0.61146 0.27708 0.55184 0.0
O876 O 0.60098 0.29451 0.5219 0.0
O877 O 0.58633 0.24867 0.51742 0.0
C878 C 0.65853 0.24984 0.51507 0.0
C879 C 0.59854 0.29126 0.54253 0.0
Zn880 Zn 0.24562 0.45927 0.08756 0.0
Zn881 Zn 0.22437 0.51087 0.10421 0.0
C882 C 0.21516 0.42535 0.08432 0.0
O883 O 0.22324 0.41944 0.10342 0.0
C884 C 0.23712 0.51978 0.14904 0.0
O885 O 0.22621 0.53847 0.14443 0.0
O886 O 0.27173 0.43744 0.08726 0.0
O887 O 0.25102 0.48506 0.06568 0.0
O888 O 0.24095 0.51897 0.07454 0.0
C889 C 0.28072 0.4341 0.06832 0.0
O890 O 0.27484 0.44705 0.05158 0.0
O891 O 0.22244 0.44243 0.07375 0.0
C892 C 0.18218 0.52835 0.11982 0.0
O893 O 0.18111 0.50811 0.12826 0.0
O894 O 0.19997 0.53443 0.10898 0.0
O895 O 0.20629 0.48393 0.10135 0.0
O896 O 0.23134 0.46312 0.11799 0.0
O897 O 0.24083 0.50628 0.13374 0.0
C898 C 0.2496 0.50564 0.06071 0.0
C899 C 0.21082 0.46854 0.11536 0.0
Zn900 Zn 0.25632 0.47494 0.86301 0.0
Zn901 Zn 0.27094 0.52974 0.84983 0.0
C902 C 0.29276 0.45146 0.88698 0.0
O903 O 0.29463 0.46936 0.89782 0.0
C904 C 0.2475 0.54137 0.80838 0.0
O905 O 0.2541 0.56132 0.81148 0.0
O906 O 0.22923 0.45708 0.86001 0.0
O907 O 0.25316 0.49559 0.88818 0.0
O908 O 0.25801 0.53136 0.88188 0.0
C909 C 0.21852 0.45164 0.8779 0.0
O910 O 0.22057 0.46364 0.89489 0.0
O911 O 0.27837 0.45113 0.8724 0.0
C912 C 0.30442 0.55184 0.8256 0.0
O913 O 0.30143 0.53455 0.8142 0.0
O914 O 0.2912 0.55532 0.84226 0.0
O915 O 0.2941 0.50482 0.84895 0.0
O916 O 0.26937 0.48571 0.834 0.0
O917 O 0.25048 0.52627 0.82344 0.0
C918 C 0.25344 0.51496 0.89515 0.0
C919 C 0.28977 0.48922 0.83709 0.0
Zn920 Zn 0.28959 0.51921 0.61971 0.0
Zn921 Zn 0.23203 0.53401 0.59935 0.0
C922 C 0.32662 0.54804 0.62092 0.0
O923 O 0.3374 0.53112 0.61218 0.0
C924 C 0.214 0.51085 0.56148 0.0
O925 O 0.19429 0.51988 0.56729 0.0
O926 O 0.31121 0.49484 0.62815 0.0
O927 O 0.26311 0.51789 0.64132 0.0
O928 O 0.22768 0.52435 0.63269 0.0
C929 C 0.31963 0.49687 0.64656 0.0
O930 O 0.31199 0.51286 0.65891 0.0
O931 O 0.30541 0.5473 0.62488 0.0
C932 C 0.20976 0.56843 0.57446 0.0
O933 O 0.22113 0.55851 0.55864 0.0
O934 O 0.21056 0.56027 0.594 0.0
O935 O 0.26198 0.54733 0.59164 0.0
O936 O 0.28502 0.51887 0.58763 0.0
O937 O 0.23029 0.51222 0.57413 0.0
C938 C 0.24226 0.51928 0.64693 0.0
C939 C 0.27593 0.53639 0.5796 0.0
Zn940 Zn 0.22814 0.53762 0.36988 0.0
Zn941 Zn 0.21052 0.48829 0.35439 0.0
C942 C 0.1912 0.56459 0.38068 0.0
O943 O 0.19994 0.57446 0.36271 0.0
C944 C 0.23369 0.47691 0.31218 0.0
O945 O 0.22521 0.45758 0.31755 0.0
O946 O 0.24845 0.56338 0.37136 0.0
O947 O 0.24332 0.51209 0.38681 0.0
O948 O 0.21991 0.48484 0.3864 0.0
C949 C 0.24873 0.57045 0.39058 0.0
O950 O 0.23754 0.55995 0.40683 0.0
O951 O 0.20041 0.54672 0.38798 0.0
C952 C 0.17657 0.47053 0.33233 0.0
O953 O 0.18135 0.48861 0.32054 0.0
O954 O 0.18837 0.46489 0.34861 0.0
O955 O 0.19042 0.51498 0.35271 0.0
O956 O 0.21695 0.53645 0.33899 0.0
O957 O 0.23263 0.4915 0.32662 0.0
C958 C 0.23339 0.49591 0.39667 0.0
C959 C 0.19648 0.53087 0.33975 0.0
H960 H 0.0076 0.46965 0.1872 0.0
H961 H 0.01121 0.44951 0.25573 0.0
H962 H -0.00128 0.50744 0.19696 0.0
H963 H 0.00214 0.48754 0.26559 0.0
H964 H 0.96938 0.57239 0.21962 0.0
H965 H 0.97109 0.53282 0.21387 0.0
H966 H 0.02039 0.52311 0.26304 0.0
H967 H 0.01857 0.56252 0.26887 0.0
C968 C 0.00614 0.47318 0.20442 0.0
C969 C 0.01008 0.45633 0.22064 0.0
C970 C 0.00091 0.49496 0.21005 0.0
C971 C -0.00037 0.50078 0.23211 0.0
C972 C 0.0031 0.48383 0.24841 0.0
C973 C 0.00811 0.46192 0.24277 0.0
C974 C 0.98004 0.56176 0.22974 0.0
C975 C -0.00629 0.57085 0.24484 0.0
C976 C 0.9813 0.53901 0.22619 0.0
C977 C -0.00392 0.52458 0.2378 0.0
C978 C 0.00868 0.5335 0.25386 0.0
C979 C 0.0076 0.55623 0.25724 0.0
H980 H 0.80678 0.73797 0.5166 0.0
H981 H 0.79909 0.73214 0.44726 0.0
H982 H 0.76683 0.73086 0.52392 0.0
H983 H 0.7592 0.72512 0.45462 0.0
H984 H 0.68787 0.70718 0.47365 0.0
H985 H 0.72896 0.70141 0.47265 0.0
H986 H 0.73389 0.75555 0.51498 0.0
H987 H 0.69312 0.76134 0.51584 0.0
C988 C 0.79675 0.73462 0.50296 0.0
C989 C 0.80614 0.73593 0.48129 0.0
C990 C 0.7738 0.73065 0.50717 0.0
C991 C 0.75975 0.72768 0.48984 0.0
C992 C 0.76954 0.7272 0.46837 0.0
C993 C 0.79244 0.73134 0.46414 0.0
C994 C 0.69771 0.71737 0.48328 0.0
C995 C 0.68728 0.73477 0.49476 0.0
C996 C 0.72124 0.7142 0.48255 0.0
C997 C 0.73473 0.72811 0.49361 0.0
C998 C 0.72406 0.7444 0.50642 0.0
C999 C 0.70066 0.74779 0.50686 0.0
H1000 H 0.49482 0.45689 0.71876 0.0
H1001 H 0.4691 0.4711 0.78412 0.0
H1002 H 0.49815 0.49637 0.70985 0.0
H1003 H 0.47131 0.51027 0.77504 0.0
H1004 H 0.48673 0.58163 0.75849 0.0
H1005 H 0.49144 0.54213 0.76781 0.0
H1006 H 0.47685 0.528 0.70156 0.0
H1007 H 0.47322 0.5671 0.69219 0.0
C1008 C 0.49005 0.46837 0.73131 0.0
C1009 C 0.48175 0.46058 0.7522 0.0
C1010 C 0.49169 0.49117 0.72614 0.0
C1011 C 0.48485 0.50695 0.7416 0.0
C1012 C 0.47715 0.49898 0.76267 0.0
C1013 C 0.47573 0.47628 0.76787 0.0
C1014 C 0.48498 0.57008 0.74583 0.0
C1015 C 0.4796 0.57777 0.72456 0.0
C1016 C 0.48741 0.54728 0.75122 0.0
C1017 C 0.4844 0.53144 0.73555 0.0
C1018 C 0.4797 0.53933 0.71414 0.0
C1019 C 0.47742 0.56199 0.70876 0.0
H1020 H 0.79905 0.26446 0.9499 0.0
H1021 H 0.78988 0.22186 0.00837 0.0
H1022 H 0.75841 0.26655 0.94625 0.0
H1023 H 0.74924 0.22376 0.00452 0.0
H1024 H 0.67485 0.23838 0.99796 0.0
H1025 H 0.71394 0.2458 0.00453 0.0
H1026 H 0.73183 0.24006 0.93554 0.0
H1027 H 0.69282 0.2329 0.92893 0.0
C1028 C 0.78838 0.25588 0.96225 0.0
C1029 C 0.79786 0.24284 0.97935 0.0
C1030 C 0.76504 0.25695 0.96003 0.0
C1031 C 0.75052 0.24507 0.97488 0.0
C1032 C 0.75986 0.23324 0.99283 0.0
C1033 C 0.78324 0.23213 0.99504 0.0
C1034 C 0.68701 0.23914 0.9841 0.0
C1035 C 0.68063 0.23494 0.9629 0.0
C1036 C 0.70949 0.24322 0.98793 0.0
C1037 C 0.72613 0.24338 0.97062 0.0
C1038 C 0.71949 0.2403 0.94925 0.0
C1039 C 0.69706 0.2361 0.94545 0.0
H1040 H 0.22593 0.02162 0.46616 0.0
H1041 H 0.24479 0.95328 0.45708 0.0
H1042 H 0.2234 0.01438 0.50561 0.0
H1043 H 0.24208 0.94602 0.4972 0.0
H1044 H 0.21153 0.94628 0.57378 0.0
H1045 H 0.2141 0.94713 0.53328 0.0
H1046 H 0.25375 0.00526 0.53207 0.0
H1047 H 0.25131 0.00443 0.57176 0.0
C1048 C 0.22933 0.00492 0.47249 0.0
C1049 C 0.2358 0.98813 0.45815 0.0
C1050 C 0.22797 0.00079 0.49528 0.0
C1051 C 0.23292 0.97969 0.50475 0.0
C1052 C 0.2382 0.96248 0.49052 0.0
C1053 C 0.23974 0.96668 0.46749 0.0
C1054 C 0.22131 0.95887 0.56486 0.0
C1055 C 0.23111 0.97537 0.57629 0.0
C1056 C 0.22267 0.95943 0.54161 0.0
C1057 C 0.23372 0.97658 0.52932 0.0
C1058 C 0.24466 0.9921 0.54086 0.0
C1059 C 0.24339 0.9915 0.56382 0.0
H1060 H 0.24485 0.99396 0.70072 0.0
H1061 H 0.21119 0.93585 0.72732 0.0
H1062 H 0.25226 0.00366 0.73835 0.0
H1063 H 0.21801 0.94591 0.76436 0.0
H1064 H 0.20335 0.99471 0.82178 0.0
H1065 H 0.20167 0.9869 0.78325 0.0
H1066 H 0.27402 0.97882 0.7777 0.0
H1067 H 0.27577 0.98558 0.81708 0.0
C1068 C 0.23925 0.98314 0.71444 0.0
C1069 C 0.22743 0.96407 0.71078 0.0
C1070 C 0.24354 0.98869 0.73599 0.0
C1071 C 0.23574 0.97551 0.75433 0.0
C1072 C 0.2243 0.95636 0.75061 0.0
C1073 C 0.22041 0.95062 0.72925 0.0
C1074 C 0.219 0.99116 0.81256 0.0
C1075 C 0.23966 0.99032 0.82289 0.0
C1076 C 0.21799 0.98686 0.79033 0.0
C1077 C 0.23767 0.98219 0.7774 0.0
C1078 C 0.25855 0.98245 0.78724 0.0
C1079 C 0.25954 0.98634 0.80979 0.0
H1080 H 0.26871 0.01032 0.07623 0.0
H1081 H 0.19943 0.00323 0.06086 0.0
H1082 H 0.27961 0.01315 0.037 0.0
H1083 H 0.21027 0.00512 0.02199 0.0
H1084 H 0.23143 0.02039 0.95121 0.0
H1085 H 0.22213 0.02509 0.99017 0.0
H1086 H 0.28509 0.99198 0.00617 0.0
H1087 H 0.29468 0.98817 0.96738 0.0
C1088 C 0.25574 0.00963 0.06454 0.0
C1089 C 0.23314 0.00664 0.07192 0.0
C1090 C 0.26202 0.01099 0.04191 0.0
C1091 C 0.24592 0.00928 0.02593 0.0
C1092 C 0.22325 0.00691 0.03346 0.0
C1093 C 0.21699 0.00568 0.05597 0.0
C1094 C 0.24349 0.0145 0.96301 0.0
C1095 C 0.26385 0.00392 0.95593 0.0
C1096 C 0.23804 0.01696 0.98551 0.0
C1097 C 0.25268 0.00874 0.00172 0.0
C1098 C 0.27339 0.99885 0.99448 0.0
C1099 C 0.27888 0.99655 0.97203 0.0
H1100 H 0.20615 0.98486 0.20794 0.0
H1101 H 0.2695 0.0155 0.21529 0.0
H1102 H 0.1999 0.98187 0.24808 0.0
H1103 H 0.26329 0.01251 0.25504 0.0
H1104 H 0.22136 0.95032 0.31764 0.0
H1105 H 0.21976 0.9587 0.27819 0.0
H1106 H 0.23831 0.02548 0.28712 0.0
H1107 H 0.23977 0.01719 0.32669 0.0
C1108 C 0.21848 0.99144 0.21802 0.0
C1109 C 0.23838 0.00038 0.20824 0.0
C1110 C 0.215 0.98952 0.24106 0.0
C1111 C 0.23114 0.99686 0.25488 0.0
C1112 C 0.25039 0.00686 0.24501 0.0
C1113 C 0.25399 0.0085 0.22212 0.0
C1114 C 0.22462 0.96695 0.31132 0.0
C1115 C 0.2307 0.98305 0.32551 0.0
C1116 C 0.22363 0.97177 0.28863 0.0
C1117 C 0.229 0.99275 0.27936 0.0
C1118 C 0.23422 0.0091 0.29364 0.0
C1119 C 0.2349 0.00438 0.3164 0.0
H1120 H 0.43499 0.26997 0.01301 0.0
H1121 H 0.4319 0.228 0.95863 0.0
H1122 H 0.47559 0.26504 0.01206 0.0
H1123 H 0.47289 0.22154 0.95846 0.0
H1124 H 0.54999 0.22692 0.95341 0.0
H1125 H 0.50938 0.23439 0.95122 0.0
H1126 H 0.50347 0.24064 0.02153 0.0
H1127 H 0.54357 0.23467 0.02337 0.0
C1128 C 0.44305 0.25923 1.00113 0.0
C1129 C 0.43024 0.24906 0.98617 0.0
C1130 C 0.46646 0.25627 1.00059 0.0
C1131 C 0.47784 0.24249 0.98545 0.0
C1132 C 0.46494 0.23244 0.97026 0.0
C1133 C 0.4414 0.23593 0.97045 0.0
C1134 C 0.53996 0.23021 0.96829 0.0
C1135 C 0.55019 0.23042 0.9885 0.0
C1136 C 0.51659 0.23428 0.96711 0.0
C1137 C 0.50285 0.23833 0.98617 0.0
C1138 C 0.51327 0.23831 0.00631 0.0
C1139 C 0.53648 0.2347 0.00741 0.0
H1140 H 0.94181 0.28466 0.96891 0.0
H1141 H 0.92197 0.22104 0.99675 0.0
H1142 H 0.98073 0.27556 0.9768 0.0
H1143 H 0.96105 0.21206 0.0052 0.0
H1144 H 0.03495 0.19346 0.98111 0.0
H1145 H -0.00519 0.20273 0.9839 0.0
H1146 H 0.00918 0.26818 0.00251 0.0
H1147 H 0.0495 0.25905 0.99908 0.0
C1148 C 0.94565 0.26892 0.97726 0.0
C1149 C 0.9287 0.25357 0.98206 0.0
C1150 C 0.96806 0.26371 0.98191 0.0
C1151 C 0.97423 0.24296 0.9915 0.0
C1152 C 0.95704 0.22807 0.9975 0.0
C1153 C 0.93454 0.23332 0.99288 0.0
C1154 C 0.0296 0.20971 0.98621 0.0
C1155 C 0.04557 0.22557 0.98962 0.0
C1156 C 0.00646 0.21502 0.98793 0.0
C1157 C -0.00139 0.23633 0.99319 0.0
C1158 C 0.01456 0.25174 0.99799 0.0
C1159 C 0.03773 0.24645 0.9962 0.0
H1160 H 0.94267 0.71186 0.26746 0.0
H1161 H 0.01352 0.7017 0.25017 0.0
H1162 H 0.9484 0.75091 0.2713 0.0
H1163 H 0.01937 0.74092 0.25431 0.0
H1164 H 0.0108 0.81483 0.22948 0.0
H1165 H 0.01026 0.77484 0.23382 0.0
H1166 H 0.96437 0.78001 0.29075 0.0
H1167 H 0.96481 0.82036 0.2862 0.0
C1168 C 0.95962 0.71784 0.26494 0.0
C1169 C 0.97761 0.70346 0.25848 0.0
C1170 C 0.96294 0.74035 0.26725 0.0
C1171 C 0.98435 0.74934 0.26303 0.0
C1172 C 0.00256 0.73476 0.25747 0.0
C1173 C -0.00074 0.71215 0.25531 0.0
C1174 C 0.00101 0.8075 0.24329 0.0
C1175 C 0.98788 0.82096 0.2575 0.0
C1176 C 0.00074 0.78443 0.24582 0.0
C1177 C 0.98712 0.77394 0.26254 0.0
C1178 C 0.97486 0.7874 0.2775 0.0
C1179 C 0.97533 0.81059 0.27509 0.0
H1180 H 0.55575 0.76392 0.50604 0.0
H1181 H 0.53942 0.69776 0.49152 0.0
H1182 H 0.51558 0.77393 0.50965 0.0
H1183 H 0.49961 0.70787 0.49416 0.0
H1184 H 0.42727 0.72662 0.50782 0.0
H1185 H 0.46666 0.71742 0.51462 0.0
H1186 H 0.48549 0.78143 0.4868 0.0
H1187 H 0.44621 0.79088 0.48099 0.0
C1188 C 0.54363 0.75141 0.50392 0.0
C1189 C 0.55094 0.73003 0.49842 0.0
C1190 C 0.52052 0.75721 0.50574 0.0
C1191 C 0.50409 0.74182 0.50199 0.0
C1192 C 0.51151 0.72019 0.49748 0.0
C1193 C 0.53452 0.71438 0.49581 0.0
C1194 C 0.43977 0.73891 0.50363 0.0
C1195 C 0.43346 0.75948 0.4938 0.0
C1196 C 0.46248 0.73355 0.5073 0.0
C1197 C 0.47956 0.74853 0.50103 0.0
C1198 C 0.47301 0.76948 0.49215 0.0
C1199 C 0.45033 0.77489 0.48868 0.0
H1200 H 0.93586 0.78298 0.47426 0.0
H1201 H 0.93274 0.72377 0.51638 0.0
H1202 H 0.97695 0.77975 0.4723 0.0
H1203 H 0.9738 0.72034 0.51429 0.0
H1204 H 0.0464 0.73322 0.52613 0.0
H1205 H 0.00566 0.73729 0.52699 0.0
H1206 H 0.00935 0.75862 0.45832 0.0
H1207 H 0.05063 0.75559 0.45798 0.0
C1208 C 0.94395 0.76919 0.48304 0.0
C1209 C 0.931 0.75381 0.49579 0.0
C1210 C 0.96755 0.76728 0.48182 0.0
C1211 C 0.97883 0.74988 0.49325 0.0
C1212 C 0.96579 0.73425 0.50565 0.0
C1213 C 0.94221 0.73621 0.5069 0.0
C1214 C 0.03862 0.73938 0.51139 0.0
C1215 C 0.05187 0.74472 0.49223 0.0
C1216 C 0.01513 0.74127 0.51172 0.0
C1217 C 0.00404 0.74824 0.49271 0.0
C1218 C 0.01727 0.75348 0.47338 0.0
C1219 C 0.04093 0.75165 0.47312 0.0
H1220 H 0.02676 0.20504 0.24209 0.0
H1221 H 0.96445 0.21354 0.20924 0.0
H1222 H 0.0329 0.24471 0.23683 0.0
H1223 H 0.97016 0.25346 0.20483 0.0
H1224 H 0.97956 0.32158 0.24427 0.0
H1225 H 0.97345 0.28241 0.2398 0.0
H1226 H 0.0362 0.27731 0.20127 0.0
H1227 H 0.04187 0.31686 0.20494 0.0
C1228 C 0.01459 0.21531 0.23336 0.0
C1229 C -0.00475 0.20602 0.22586 0.0
C1230 C 0.01811 0.23805 0.23036 0.0
C1231 C 0.00203 0.25225 0.22041 0.0
C1232 C 0.9829 0.24294 0.21246 0.0
C1233 C 0.97973 0.22006 0.21485 0.0
C1234 C 0.9917 0.31229 0.23423 0.0
C1235 C 0.01103 0.32247 0.22468 0.0
C1236 C 0.98822 0.28983 0.23172 0.0
C1237 C 0.00434 0.27673 0.2202 0.0
C1238 C 0.02344 0.28698 0.21017 0.0
C1239 C 0.02658 0.30966 0.21211 0.0
H1240 H 0.52941 0.82413 0.70331 0.0
H1241 H 0.46796 0.82741 0.74417 0.0
H1242 H 0.52509 0.78425 0.70059 0.0
H1243 H 0.46332 0.78783 0.74078 0.0
H1244 H 0.45979 0.7175 0.70613 0.0
H1245 H 0.46473 0.75745 0.70029 0.0
H1246 H 0.5196 0.75335 0.74369 0.0
H1247 H 0.51423 0.71365 0.75016 0.0
C1248 C 0.51457 0.81654 0.71102 0.0
C1249 C 0.49892 0.82904 0.72381 0.0
C1250 C 0.5122 0.79369 0.70959 0.0
C1251 C 0.49383 0.78298 0.72042 0.0
C1252 C 0.47754 0.79568 0.73214 0.0
C1253 C 0.48019 0.81835 0.73403 0.0
C1254 C 0.4733 0.72501 0.71395 0.0
C1255 C 0.48672 0.71232 0.72851 0.0
C1256 C 0.47601 0.7479 0.71071 0.0
C1257 C 0.4926 0.75846 0.72147 0.0
C1258 C 0.5068 0.7456 0.73507 0.0
C1259 C 0.50372 0.72288 0.73875 0.0
H1260 H 0.96305 0.43695 0.74022 0.0
H1261 H 0.01539 0.42748 0.78626 0.0
H1262 H 0.962 0.47659 0.74537 0.0
H1263 H 0.01402 0.46726 0.7918 0.0
H1264 H 0.97426 0.55048 0.75116 0.0
H1265 H 0.98386 0.51246 0.74133 0.0
H1266 H 0.98318 0.49184 0.80999 0.0
H1267 H 0.97327 0.52954 0.81977 0.0
C1268 C 0.97483 0.44341 0.75098 0.0
C1269 C 0.98949 0.42893 0.76263 0.0
C1270 C 0.97419 0.46621 0.75398 0.0
C1271 C 0.9878 0.47523 0.76912 0.0
C1272 C 0.0032 0.46091 0.78008 0.0
C1273 C 0.0042 0.4381 0.7767 0.0
C1274 C 0.97662 0.53793 0.76416 0.0
C1275 C 0.97307 0.54322 0.7863 0.0
C1276 C 0.98196 0.51607 0.75852 0.0
C1277 C 0.98437 0.49897 0.77485 0.0
C1278 C 0.98176 0.50451 0.79695 0.0
C1279 C 0.97599 0.5262 0.80257 0.0
H1280 H 0.17891 0.24612 0.47567 0.0
H1281 H 0.18204 0.26505 0.5426 0.0
H1282 H 0.21958 0.25024 0.47007 0.0
H1283 H 0.22261 0.26897 0.53702 0.0
H1284 H 0.29199 0.22216 0.48652 0.0
H1285 H 0.25135 0.22764 0.48469 0.0
H1286 H 0.25427 0.28864 0.51746 0.0
H1287 H 0.29509 0.28314 0.51937 0.0
C1288 C 0.18816 0.25161 0.48905 0.0
C1289 C 0.1772 0.25505 0.50966 0.0
C1290 C 0.2115 0.25384 0.48587 0.0
C1291 C 0.2244 0.25973 0.50315 0.0
C1292 C 0.2132 0.26458 0.52329 0.0
C1293 C 0.1899 0.26223 0.52653 0.0
C1294 C 0.28407 0.237 0.49292 0.0
C1295 C 0.29681 0.25212 0.50324 0.0
C1296 C 0.26074 0.2402 0.49177 0.0
C1297 C 0.24951 0.2585 0.5011 0.0
C1298 C 0.2624 0.27426 0.51033 0.0
C1299 C 0.28582 0.27119 0.51126 0.0
H1300 H 0.48007 0.42481 0.30895 0.0
H1301 H 0.50542 0.41592 0.24239 0.0
H1302 H 0.4786 0.46461 0.30177 0.0
H1303 H 0.50493 0.45578 0.23533 0.0
H1304 H 0.48981 0.52832 0.22217 0.0
H1305 H 0.48553 0.4889 0.22941 0.0
H1306 H 0.49974 0.49595 0.29727 0.0
H1307 H 0.50297 0.53565 0.29005 0.0
C1308 C 0.4852 0.43134 0.29267 0.0
C1309 C 0.49269 0.41695 0.27623 0.0
C1310 C 0.48462 0.45434 0.28859 0.0
C1311 C 0.4918 0.4639 0.26795 0.0
C1312 C 0.49885 0.4494 0.25135 0.0
C1313 C 0.49918 0.42634 0.25539 0.0
C1314 C 0.49164 0.52152 0.23875 0.0
C1315 C 0.49657 0.53535 0.25552 0.0
C1316 C 0.48946 0.49871 0.24289 0.0
C1317 C 0.49251 0.48872 0.26394 0.0
C1318 C 0.4969 0.50273 0.28088 0.0
C1319 C 0.49877 0.52566 0.27677 0.0
H1320 H 0.28998 0.76441 0.06624 0.0
H1321 H 0.30735 0.77093 0.99667 0.0
H1322 H 0.252 0.75426 0.05856 0.0
H1323 H 0.26927 0.7607 0.989 0.0
H1324 H 0.19163 0.78163 0.99136 0.0
H1325 H 0.23241 0.78067 0.99366 0.0
H1326 H 0.22759 0.72719 0.04291 0.0
H1327 H 0.18654 0.72818 0.04058 0.0
C1328 C 0.28585 0.76325 0.0493 0.0
C1329 C 0.30173 0.76863 0.03209 0.0
C1330 C 0.26406 0.75728 0.04488 0.0
C1331 C 0.2575 0.75672 0.02314 0.0
C1332 C 0.2737 0.76111 0.00592 0.0
C1333 C 0.29559 0.76687 0.01034 0.0
C1334 C 0.19931 0.76914 0.00214 0.0
C1335 C 0.1858 0.75501 0.01581 0.0
C1336 C 0.22275 0.76859 0.00346 0.0
C1337 C 0.2333 0.75404 0.01868 0.0
C1338 C 0.21996 0.73878 0.0312 0.0
C1339 C 0.19646 0.73914 0.02967 0.0
H1340 H 0.74238 0.99219 0.44181 0.0
H1341 H 0.76761 0.05811 0.43465 0.0
H1342 H 0.74217 0.99353 0.48142 0.0
H1343 H 0.76688 0.0595 0.475 0.0
H1344 H 0.73561 0.04941 0.55237 0.0
H1345 H 0.73736 0.0554 0.51213 0.0
H1346 H 0.77694 0.995 0.50612 0.0
H1347 H 0.77568 0.98926 0.54585 0.0
C1348 C 0.74756 0.0072 0.44862 0.0
C1349 C 0.75523 0.02498 0.43475 0.0
C1350 C 0.74753 0.00788 0.47147 0.0
C1351 C 0.75488 0.02645 0.48144 0.0
C1352 C 0.76119 0.0449 0.46782 0.0
C1353 C 0.7615 0.04414 0.44469 0.0
C1354 C 0.7453 0.03778 0.5425 0.0
C1355 C 0.75528 0.01866 0.55253 0.0
C1356 C 0.74619 0.04118 0.5194 0.0
C1357 C 0.75692 0.02545 0.50587 0.0
C1358 C 0.76818 0.00724 0.516 0.0
C1359 C 0.76749 0.00398 0.53889 0.0
H1360 H 0.71708 0.05818 0.29858 0.0
H1361 H 0.76871 0.00684 0.3031 0.0
H1362 H 0.71107 0.04905 0.26112 0.0
H1363 H 0.76454 0.99887 0.26516 0.0
H1364 H 0.75296 0.98197 0.1969 0.0
H1365 H 0.74985 0.98568 0.23639 0.0
H1366 H 0.72154 0.05184 0.22589 0.0
H1367 H 0.72275 0.04687 0.18677 0.0
C1368 C 0.72713 0.04485 0.29151 0.0
C1369 C 0.7432 0.03313 0.30397 0.0
C1370 C 0.72398 0.03974 0.26972 0.0
C1371 C 0.73743 0.02325 0.25929 0.0
C1372 C 0.75329 0.01132 0.27214 0.0
C1373 C 0.75586 0.01596 0.29414 0.0
C1374 C 0.74531 0.99696 0.20322 0.0
C1375 C 0.73773 0.01393 0.18866 0.0
C1376 C 0.74395 0.99941 0.22602 0.0
C1377 C 0.73588 0.01935 0.23504 0.0
C1378 C 0.72755 0.03601 0.22027 0.0
C1379 C 0.72818 0.03321 0.19754 0.0
H1380 H 0.71588 0.99848 0.93537 0.0
H1381 H 0.78426 0.01539 0.94558 0.0
H1382 H 0.70788 0.99583 0.97517 0.0
H1383 H 0.77624 0.01337 0.98504 0.0
H1384 H 0.76067 0.99856 0.05736 0.0
H1385 H 0.76832 0.99259 0.01829 0.0
H1386 H 0.70206 0.01961 0.00467 0.0
H1387 H 0.6943 0.02494 0.0435 0.0
C1388 C 0.72934 0.0012 0.94606 0.0
C1389 C 0.75075 0.00708 0.93711 0.0
C1390 C 0.72469 0.99997 0.96897 0.0
C1391 C 0.74133 0.00453 0.98363 0.0
C1392 C 0.76298 0.00945 0.97457 0.0
C1393 C 0.76758 0.01073 0.95176 0.0
C1394 C 0.74758 0.0028 0.04608 0.0
C1395 C 0.72685 0.01223 0.05377 0.0
C1396 C 0.75204 0.9996 0.02355 0.0
C1397 C 0.7359 0.0057 0.008 0.0
C1398 C 0.71489 0.01436 0.01591 0.0
C1399 C 0.71046 0.01756 0.03835 0.0
H1400 H 0.74368 0.05278 0.69585 0.0
H1401 H 0.74034 0.9836 0.68412 0.0
H1402 H 0.74661 0.04394 0.73486 0.0
H1403 H 0.74348 0.97462 0.72355 0.0
H1404 H 0.71796 0.97382 0.79852 0.0
H1405 H 0.72096 0.97815 0.75847 0.0
H1406 H 0.77051 0.02779 0.76243 0.0
H1407 H 0.76737 0.02367 0.80235 0.0
C1408 C 0.74393 0.03559 0.70153 0.0
C1409 C 0.74188 0.01894 0.68666 0.0
C1410 C 0.74573 0.03048 0.72403 0.0
C1411 C 0.74537 0.00851 0.73259 0.0
C1412 C 0.7437 0.99174 0.71768 0.0
C1413 C 0.74213 0.99687 0.695 0.0
C1414 C 0.7299 0.98531 0.79089 0.0
C1415 C 0.74235 0.99843 0.80391 0.0
C1416 C 0.73161 0.9878 0.7678 0.0
C1417 C 0.74575 0.00357 0.75702 0.0
C1418 C 0.75909 0.01579 0.77003 0.0
C1419 C 0.75745 0.01325 0.79305 0.0
H1420 H 0.43563 0.80091 0.04285 0.0
H1421 H 0.43322 0.7416 0.00728 0.0
H1422 H 0.47625 0.79403 0.04688 0.0
H1423 H 0.47349 0.73436 0.0121 0.0
H1424 H 0.54417 0.72312 0.04234 0.0
H1425 H 0.50352 0.73041 0.04888 0.0
H1426 H 0.50816 0.79047 0.00832 0.0
H1427 H 0.54857 0.78278 1.001 0.0
C1428 C 0.44359 0.78604 0.03658 0.0
C1429 C 0.43126 0.77176 0.02479 0.0
C1430 C 0.46681 0.78219 0.0388 0.0
C1431 C 0.47788 0.76364 0.02986 0.0
C1432 C 0.46527 0.74866 0.0193 0.0
C1433 C 0.44226 0.75282 0.01654 0.0
C1434 C 0.53664 0.7382 0.03536 0.0
C1435 C 0.54955 0.75245 0.02123 0.0
C1436 C 0.51339 0.74228 0.03901 0.0
C1437 C 0.50282 0.76102 0.02916 0.0
C1438 C 0.51599 0.77602 0.01627 0.0
C1439 C 0.53907 0.77163 0.01209 0.0
H1440 H 0.94053 0.80072 1.00097 0.0
H1441 H 0.92979 0.73487 0.02852 0.0
H1442 H 0.98081 0.79217 0.99613 0.0
H1443 H 0.97012 0.72657 0.02491 0.0
H1444 H 0.04296 0.71128 0.00729 0.0
H1445 H 0.00278 0.71925 0.004 0.0
H1446 H 0.01297 0.78772 0.01551 0.0
H1447 H 0.05317 0.77983 0.01756 0.0
C1448 C 0.94678 0.78434 0.00589 0.0
C1449 C 0.93188 0.76848 0.01505 0.0
C1450 C 0.97 0.77946 0.00335 0.0
C1451 C 0.97912 0.75868 0.01032 0.0
C1452 C 0.96399 0.74263 0.01894 0.0
C1453 C 0.94072 0.74741 0.0211 0.0
C1454 C 0.03665 0.72812 0.00864 0.0
C1455 C 0.05138 0.7449 0.01258 0.0
C1456 C 0.01347 0.7327 0.00704 0.0
C1457 C 0.00422 0.75415 0.00972 0.0
C1458 C 0.0192 0.77105 0.01296 0.0
C1459 C 0.04242 0.76652 0.01419 0.0
H1460 H 0.98784 0.1813 0.71444 0.0
H1461 H -0.00089 0.17967 0.78358 0.0
H1462 H -0.00716 0.22163 0.71232 0.0
H1463 H 0.00411 0.21927 0.78151 0.0
H1464 H 0.04392 0.28132 0.76163 0.0
H1465 H 0.03654 0.24246 0.7591 0.0
H1466 H 0.97194 0.25948 0.73305 0.0
H1467 H 0.979 0.29893 0.73616 0.0
C1468 C 0.99097 0.18954 0.72922 0.0
C1469 C -0.00771 0.17728 0.74936 0.0
C1470 C -0.0062 0.2126 0.72802 0.0
C1471 C -0.00128 0.22372 0.74681 0.0
C1472 C 0.00018 0.21134 0.76678 0.0
C1473 C -0.00306 0.18859 0.76803 0.0
C1474 C 0.02822 0.27701 0.75502 0.0
C1475 C 0.01209 0.29352 0.74906 0.0
C1476 C 0.02398 0.2546 0.75366 0.0
C1477 C 0.00367 0.24781 0.74588 0.0
C1478 C 0.98783 0.26418 0.73898 0.0
C1479 C -0.00812 0.28678 0.74078 0.0
H1480 H 0.44145 0.29653 0.51524 0.0
H1481 H 0.42708 0.23058 0.49824 0.0
H1482 H 0.48149 0.28744 0.51265 0.0
H1483 H 0.46749 0.22164 0.49472 0.0
H1484 H 0.53691 0.20557 0.52361 0.0
H1485 H 0.49743 0.21427 0.51799 0.0
H1486 H 0.51467 0.27925 0.4916 0.0
H1487 H 0.55425 0.27076 0.49813 0.0
C1488 C 0.44683 0.28018 0.51043 0.0
C1489 C 0.43091 0.26426 0.50709 0.0
C1490 C 0.46997 0.27498 0.50879 0.0
C1491 C 0.47797 0.25371 0.50358 0.0
C1492 C 0.46205 0.23807 0.49917 0.0
C1493 C 0.43882 0.24326 0.50097 0.0
C1494 C 0.53239 0.22162 0.51629 0.0
C1495 C 0.54885 0.23749 0.51147 0.0
C1496 C 0.50962 0.2266 0.51292 0.0
C1497 C 0.5026 0.24757 0.50447 0.0
C1498 C 0.51926 0.26307 0.49855 0.0
C1499 C 0.54207 0.25813 0.50208 0.0
H1500 H 0.93177 0.27377 0.47927 0.0
H1501 H 0.93139 0.23167 0.53829 0.0
H1502 H 0.97258 0.2723 0.47689 0.0
H1503 H 0.97268 0.22889 0.53535 0.0
H1504 H 0.04789 0.24252 0.53382 0.0
H1505 H 0.00686 0.2468 0.53833 0.0
H1506 H 0.00279 0.24951 0.46775 0.0
H1507 H 0.04333 0.2465 0.46336 0.0
C1508 C 0.9405 0.26369 0.49143 0.0
C1509 C 0.92843 0.2525 0.50869 0.0
C1510 C 0.96399 0.26281 0.49012 0.0
C1511 C 0.97616 0.25022 0.50575 0.0
C1512 C 0.964 0.23898 0.52313 0.0
C1513 C 0.94035 0.24033 0.52471 0.0
C1514 C 0.03818 0.24438 0.51931 0.0
C1515 C 0.04897 0.24426 0.49824 0.0
C1516 C 0.01461 0.24658 0.52188 0.0
C1517 C 0.00131 0.2485 0.50342 0.0
C1518 C 0.01228 0.24858 0.48241 0.0
C1519 C 0.0357 0.2467 0.47987 0.0
H1520 H 0.94072 0.6823 0.79752 0.0
H1521 H 0.00721 0.67893 0.76562 0.0
H1522 H 0.94343 0.7224 0.79938 0.0
H1523 H 0.01018 0.71878 0.76807 0.0
H1524 H 0.01495 0.78877 0.7923 0.0
H1525 H 0.0113 0.74885 0.79631 0.0
H1526 H 0.94559 0.75524 0.76967 0.0
H1527 H 0.94939 0.79532 0.76512 0.0
C1528 C 0.95623 0.68996 0.79159 0.0
C1529 C 0.97391 0.6772 0.78176 0.0
C1530 C 0.95765 0.71303 0.79238 0.0
C1531 C 0.97701 0.72394 0.78385 0.0
C1532 C -0.00492 0.71101 0.77497 0.0
C1533 C -0.00657 0.68809 0.77366 0.0
C1534 C -0.00052 0.78184 0.78764 0.0
C1535 C 0.98242 0.79556 0.77847 0.0
C1536 C -0.0025 0.75882 0.7898 0.0
C1537 C 0.97819 0.74869 0.78328 0.0
C1538 C 0.96064 0.76242 0.77503 0.0
C1539 C 0.96282 0.78547 0.77245 0.0
H1540 H 0.46634 0.28192 0.24788 0.0
H1541 H 0.51792 0.27746 0.29502 0.0
H1542 H 0.46157 0.242 0.25257 0.0
H1543 H 0.51342 0.23728 0.29929 0.0
H1544 H 0.51087 0.16708 0.25331 0.0
H1545 H 0.51437 0.20724 0.25413 0.0
H1546 H 0.45661 0.2105 0.2998 0.0
H1547 H 0.45332 0.17022 0.2992 0.0
C1548 C 0.47641 0.27248 0.25952 0.0
C1549 C 0.49238 0.283 0.27121 0.0
C1550 C 0.47368 0.24961 0.26216 0.0
C1551 C 0.48713 0.23654 0.27627 0.0
C1552 C 0.50273 0.247 0.28841 0.0
C1553 C 0.50517 0.27001 0.28609 0.0
C1554 C 0.49897 0.17638 0.26353 0.0
C1555 C 0.4818 0.16548 0.27607 0.0
C1556 C 0.50106 0.19931 0.26413 0.0
C1557 C 0.4858 0.21198 0.27708 0.0
C1558 C 0.46871 0.20112 0.28981 0.0
C1559 C 0.46688 0.17808 0.28951 0.0
H1560 H 0.4477 0.07392 0.7182 0.0
H1561 H 0.50319 0.0674 0.76095 0.0
H1562 H 0.44912 0.0339 0.7146 0.0
H1563 H 0.50458 0.0276 0.75747 0.0
H1564 H 0.49701 0.95388 0.75471 0.0
H1565 H 0.48644 0.99175 0.76395 0.0
H1566 H 0.47668 0.00893 0.69561 0.0
H1567 H 0.48715 0.97125 0.68642 0.0
C1568 C 0.45968 0.06391 0.72745 0.0
C1569 C 0.47528 0.07395 0.73994 0.0
C1570 C 0.46071 0.04096 0.72515 0.0
C1571 C 0.47713 0.02741 0.73555 0.0
C1572 C 0.49161 0.03735 0.74931 0.0
C1573 C 0.4908 0.06025 0.75133 0.0
C1574 C 0.49219 0.96562 0.74171 0.0
C1575 C 0.49302 0.95942 0.71978 0.0
C1576 C 0.48627 0.98742 0.74699 0.0
C1577 C 0.48073 0.00355 0.73054 0.0
C1578 C 0.48055 0.99702 0.70878 0.0
C1579 C 0.48671 0.97535 0.70348 0.0
H1580 H 0.18335 0.20788 0.96714 0.0
H1581 H 0.18355 0.27314 0.99163 0.0
H1582 H 0.22472 0.20604 0.96608 0.0
H1583 H 0.22469 0.2713 0.99076 0.0
H1584 H 0.29787 0.25376 0.00385 0.0
H1585 H 0.25707 0.25027 0.00861 0.0
H1586 H 0.25575 0.22658 0.94336 0.0
H1587 H 0.2966 0.2302 0.93845 0.0
C1588 C 0.19221 0.22168 0.97262 0.0
C1589 C 0.18021 0.24072 0.97941 0.0
C1590 C 0.21588 0.22069 0.97186 0.0
C1591 C 0.228 0.23852 0.97832 0.0
C1592 C 0.2159 0.2572 0.98586 0.0
C1593 C 0.19232 0.25832 0.98624 0.0
C1594 C 0.28899 0.24742 0.99064 0.0
C1595 C 0.30058 0.2423 0.97073 0.0
C1596 C 0.26556 0.24558 0.99333 0.0
C1597 C 0.25314 0.23827 0.97632 0.0
C1598 C 0.26484 0.23212 0.95683 0.0
C1599 C 0.28826 0.23424 0.95401 0.0
H1600 H 0.97748 0.05858 0.19546 0.0
H1601 H -0.00236 0.07775 0.25833 0.0
H1602 H 0.98223 0.02013 0.20703 0.0
H1603 H 0.00347 0.03882 0.26979 0.0
H1604 H 0.00208 0.95035 0.22675 0.0
H1605 H 0.00469 0.98931 0.21519 0.0
H1606 H 0.98408 0.00718 0.28102 0.0
H1607 H 0.98259 0.96846 0.29265 0.0
C1608 C 0.9834 0.05463 0.2117 0.0
C1609 C 0.98709 0.0715 0.22593 0.0
C1610 C 0.98632 0.03233 0.21834 0.0
C1611 C -0.00676 0.02592 0.23947 0.0
C1612 C -0.00224 0.04285 0.25351 0.0
C1613 C -0.00532 0.0653 0.24685 0.0
C1614 C -0.00145 0.96259 0.23884 0.0
C1615 C -0.0078 0.95604 0.26068 0.0
C1616 C -0.00022 0.98509 0.23217 0.0
C1617 C -0.00561 0.00181 0.24704 0.0
C1618 C 0.98872 0.99511 0.26902 0.0
C1619 C 0.98775 0.97269 0.27571 0.0
H1620 H 0.30386 0.77879 0.46109 0.0
H1621 H 0.29327 0.73585 0.51912 0.0
H1622 H 0.26322 0.78234 0.45754 0.0
H1623 H 0.2527 0.73931 0.51542 0.0
H1624 H 0.17858 0.755 0.50806 0.0
H1625 H 0.21764 0.76244 0.51511 0.0
H1626 H 0.23662 0.7554 0.44652 0.0
H1627 H 0.19774 0.74813 0.43947 0.0
C1628 C 0.29291 0.77057 0.47345 0.0
C1629 C 0.30198 0.75683 0.49028 0.0
C1630 C 0.26956 0.77245 0.47128 0.0
C1631 C 0.25467 0.76082 0.48597 0.0
C1632 C 0.26363 0.74857 0.50384 0.0
C1633 C 0.28698 0.74657 0.50595 0.0
C1634 C 0.191 0.75551 0.4944 0.0
C1635 C 0.18501 0.75087 0.47319 0.0
C1636 C 0.21343 0.75963 0.49848 0.0
C1637 C 0.23033 0.75944 0.48141 0.0
C1638 C 0.22406 0.75593 0.46003 0.0
C1639 C 0.20173 0.75163 0.45599 0.0
H1640 H 0.75776 0.45824 0.96528 0.0
H1641 H 0.70982 0.51203 0.97648 0.0
H1642 H 0.75712 0.44918 0.00506 0.0
H1643 H 0.70895 0.50263 0.01601 0.0
H1644 H 0.70669 0.44946 0.08345 0.0
H1645 H 0.7071 0.44977 0.0431 0.0
H1646 H 0.76221 0.49419 0.03867 0.0
H1647 H 0.76157 0.49433 0.07881 0.0
C1648 C 0.74653 0.46766 0.97609 0.0
C1649 C 0.73374 0.48581 0.96759 0.0
C1650 C 0.74628 0.46252 0.99887 0.0
C1651 C 0.73293 0.47517 0.01357 0.0
C1652 C 0.71931 0.49256 0.00503 0.0
C1653 C 0.7198 0.4979 0.98237 0.0
C1654 C 0.71944 0.45863 0.07389 0.0
C1655 C 0.73431 0.47165 0.08442 0.0
C1656 C 0.71953 0.45895 0.05079 0.0
C1657 C 0.73473 0.47197 0.0378 0.0
C1658 C 0.7504 0.48393 0.0483 0.0
C1659 C 0.75009 0.4839 0.07128 0.0
H1660 H 0.7583 0.43118 0.22699 0.0
H1661 H 0.72911 0.49613 0.21329 0.0
H1662 H 0.76396 0.44065 0.26469 0.0
H1663 H 0.73449 0.50548 0.25114 0.0
H1664 H 0.71583 0.49635 0.32723 0.0
H1665 H 0.71634 0.49204 0.28774 0.0
H1666 H 0.78472 0.46587 0.28879 0.0
H1667 H 0.78433 0.47064 0.32859 0.0
C1668 C 0.75344 0.44763 0.23188 0.0
C1669 C 0.74332 0.46288 0.21695 0.0
C1670 C 0.75676 0.45308 0.25354 0.0
C1671 C 0.74966 0.47383 0.26109 0.0
C1672 C 0.7401 0.48932 0.24598 0.0
C1673 C 0.73717 0.484 0.22418 0.0
C1674 C 0.73119 0.49013 0.31901 0.0
C1675 C 0.75011 0.48402 0.33114 0.0
C1676 C 0.73148 0.48768 0.29628 0.0
C1677 C 0.75055 0.47857 0.28495 0.0
C1678 C 0.76972 0.47289 0.29696 0.0
C1679 C 0.76959 0.47581 0.31975 0.0
H1680 H 0.78095 0.53586 0.5779 0.0
H1681 H 0.731 0.48621 0.57675 0.0
H1682 H 0.78377 0.53807 0.53763 0.0
H1683 H 0.73375 0.48841 0.53676 0.0
H1684 H 0.73381 0.50485 0.4634 0.0
H1685 H 0.72741 0.51042 0.50266 0.0
H1686 H 0.79916 0.51361 0.50892 0.0
H1687 H 0.80555 0.50808 0.46975 0.0
C1688 C 0.77008 0.52589 0.56912 0.0
C1689 C 0.75565 0.51095 0.58072 0.0
C1690 C 0.77191 0.52693 0.54597 0.0
C1691 C 0.75911 0.51331 0.53375 0.0
C1692 C 0.74377 0.49931 0.54541 0.0
C1693 C 0.74219 0.49804 0.56847 0.0
C1694 C 0.74822 0.50719 0.47302 0.0
C1695 C 0.77023 0.50606 0.4632 0.0
C1696 C 0.74456 0.51019 0.49566 0.0
C1697 C 0.76275 0.51242 0.50918 0.0
C1698 C 0.78468 0.51223 0.49914 0.0
C1699 C 0.78835 0.50898 0.47658 0.0
H1700 H 0.73173 0.52133 0.83647 0.0
H1701 H 0.74952 0.45479 0.81907 0.0
H1702 H 0.73045 0.53264 0.79751 0.0
H1703 H 0.74925 0.46611 0.78047 0.0
H1704 H 0.73754 0.48758 0.71031 0.0
H1705 H 0.73043 0.47712 0.7492 0.0
H1706 H 0.7538 0.54016 0.76637 0.0
H1707 H 0.75989 0.55082 0.72775 0.0
C1708 C 0.73514 0.50904 0.8244 0.0
C1709 C 0.74069 0.4871 0.83113 0.0
C1710 C 0.73468 0.51557 0.80192 0.0
C1711 C 0.73991 0.50041 0.78544 0.0
C1712 C 0.74475 0.47835 0.79234 0.0
C1713 C 0.74505 0.47183 0.8147 0.0
C1714 C 0.74071 0.49937 0.72238 0.0
C1715 C 0.74928 0.52009 0.71568 0.0
C1716 C 0.73689 0.49328 0.74483 0.0
C1717 C 0.74168 0.50763 0.76134 0.0
C1718 C 0.74953 0.52862 0.75447 0.0
C1719 C 0.75318 0.53474 0.73211 0.0
H1720 H 0.45962 0.32587 0.77281 0.0
H1721 H 0.50514 0.3159 0.71645 0.0
H1722 H 0.45503 0.28599 0.77758 0.0
H1723 H 0.50057 0.27619 0.72118 0.0
H1724 H 0.49597 0.20306 0.74031 0.0
H1725 H 0.50593 0.2415 0.74335 0.0
H1726 H 0.43576 0.25938 0.75665 0.0
H1727 H 0.42586 0.2211 0.75363 0.0
C1728 C 0.46925 0.31517 0.76187 0.0
C1729 C 0.48283 0.32423 0.74429 0.0
C1730 C 0.46636 0.29227 0.76441 0.0
C1731 C 0.47721 0.27773 0.74963 0.0
C1732 C 0.49202 0.28671 0.733 0.0
C1733 C 0.49467 0.30958 0.73029 0.0
C1734 C 0.48271 0.21509 0.74437 0.0
C1735 C 0.46007 0.20883 0.74682 0.0
C1736 C 0.48841 0.23723 0.74592 0.0
C1737 C 0.47168 0.25371 0.75025 0.0
C1738 C 0.44919 0.24723 0.7536 0.0
C1739 C 0.44347 0.2252 0.75178 0.0
H1740 H 0.545 0.92289 0.27386 0.0
H1741 H 0.47307 0.92018 0.26887 0.0
H1742 H 0.54068 0.96266 0.28016 0.0
H1743 H 0.46879 0.95905 0.2758 0.0
H1744 H 0.46709 0.01671 0.32043 0.0
H1745 H 0.47823 0.97888 0.31286 0.0
H1746 H 0.52169 0.00174 0.25818 0.0
H1747 H 0.51017 0.04014 0.26546 0.0
C1748 C 0.52834 0.93071 0.27384 0.0
C1749 C 0.50931 0.91813 0.27098 0.0
C1750 C 0.52589 0.95346 0.27747 0.0
C1751 C 0.50435 0.96391 0.27871 0.0
C1752 C 0.48558 0.95146 0.27516 0.0
C1753 C 0.48806 0.92907 0.27116 0.0
C1754 C 0.47928 0.0139 0.30693 0.0
C1755 C 0.48749 0.03165 0.29342 0.0
C1756 C 0.48564 0.99211 0.30261 0.0
C1757 C 0.50068 0.9873 0.28483 0.0
C1758 C 0.5101 0.00496 0.27204 0.0
C1759 C 0.50347 0.02694 0.27621 0.0
H1760 H 0.80119 0.71503 0.02524 0.0
H1761 H 0.79295 0.78577 0.01676 0.0
H1762 H 0.76041 0.71159 0.02568 0.0
H1763 H 0.75194 0.78218 0.01644 0.0
H1764 H 0.67928 0.75686 0.99817 0.0
H1765 H 0.72013 0.7627 0.99391 0.0
H1766 H 0.72951 0.72555 0.05501 0.0
H1767 H 0.68914 0.72018 0.05959 0.0
C1768 C 0.79074 0.72985 0.02325 0.0
C1769 C 0.80042 0.7507 0.02139 0.0
C1770 C 0.76734 0.72786 0.02345 0.0
C1771 C 0.75295 0.74663 0.02132 0.0
C1772 C 0.76261 0.76743 0.0181 0.0
C1773 C 0.7861 0.76946 0.0183 0.0
C1774 C 0.69006 0.75017 0.01079 0.0
C1775 C 0.68084 0.7381 0.02925 0.0
C1776 C 0.71341 0.75352 0.00834 0.0
C1777 C 0.72802 0.74439 0.02403 0.0
C1778 C 0.71873 0.73258 0.04253 0.0
C1779 C 0.6955 0.72964 0.0452 0.0
H1780 H -0.00499 0.03064 0.71111 0.0
H1781 H 0.98165 0.04865 0.77809 0.0
H1782 H -0.00518 0.99192 0.7229 0.0
H1783 H 0.98045 0.00964 0.78992 0.0
H1784 H 0.0096 0.94003 0.80695 0.0
H1785 H 0.00379 0.97865 0.79603 0.0
H1786 H 0.97627 0.9603 0.73583 0.0
H1787 H 0.98302 0.92137 0.74654 0.0
C1788 C 0.99148 0.02639 0.72837 0.0
C1789 C 0.98832 0.04304 0.74358 0.0
C1790 C 0.99126 0.00395 0.73518 0.0
C1791 C 0.98772 0.9972 0.75749 0.0
C1792 C 0.98367 0.0139 0.77264 0.0
C1793 C 0.98407 0.03643 0.76582 0.0
C1794 C 0.00207 0.94412 0.79145 0.0
C1795 C -0.00316 0.92734 0.77768 0.0
C1796 C -0.00144 0.9665 0.7852 0.0
C1797 C 0.98958 0.97305 0.76491 0.0
C1798 C 0.98359 0.95619 0.75142 0.0
C1799 C 0.98721 0.93372 0.75768 0.0
H1800 H 0.69124 0.26548 0.4859 0.0
H1801 H 0.67926 0.21493 0.53714 0.0
H1802 H 0.73163 0.25887 0.48784 0.0
H1803 H 0.7199 0.20797 0.53884 0.0
H1804 H 0.78718 0.23524 0.56136 0.0
H1805 H 0.74814 0.22997 0.55362 0.0
H1806 H 0.76563 0.23611 0.48404 0.0
H1807 H 0.80481 0.24187 0.49183 0.0
C1808 C 0.69722 0.25238 0.49706 0.0
C1809 C 0.68197 0.2409 0.51152 0.0
C1810 C 0.72047 0.24854 0.49815 0.0
C1811 C 0.72912 0.23314 0.51378 0.0
C1812 C 0.71382 0.22025 0.52688 0.0
C1813 C 0.69049 0.22402 0.52571 0.0
C1814 C 0.78286 0.23504 0.54438 0.0
C1815 C 0.79916 0.23918 0.52724 0.0
C1816 C 0.7604 0.23185 0.53992 0.0
C1817 C 0.75362 0.2327 0.51818 0.0
C1818 C 0.77019 0.23561 0.50098 0.0
C1819 C 0.7927 0.23879 0.50545 0.0
H1820 H 0.27805 0.48572 0.0307 0.0
H1821 H 0.23128 0.54126 0.03682 0.0
H1822 H 0.27858 0.49078 0.99093 0.0
H1823 H 0.23211 0.54657 0.99656 0.0
H1824 H 0.25676 0.55238 0.91921 0.0
H1825 H 0.25767 0.55387 0.95941 0.0
H1826 H 0.24666 0.48405 0.96631 0.0
H1827 H 0.24552 0.48248 0.92689 0.0
C1828 C 0.26818 0.4993 0.0236 0.0
C1829 C 0.25437 0.51283 0.03712 0.0
C1830 C 0.26843 0.50217 1.0007 0.0
C1831 C 0.255 0.51878 0.99046 0.0
C1832 C 0.2426 0.53356 0.00389 0.0
C1833 C 0.24224 0.53059 0.02699 0.0
C1834 C 0.25417 0.53743 0.92935 0.0
C1835 C 0.25112 0.5173 0.91955 0.0
C1836 C 0.25475 0.5383 0.95239 0.0
C1837 C 0.25264 0.519 0.96611 0.0
C1838 C 0.24879 0.49916 0.9563 0.0
C1839 C 0.24796 0.49834 0.93353 0.0
H1840 H 0.24443 0.50059 0.79096 0.0
H1841 H 0.23548 0.57021 0.77474 0.0
H1842 H 0.23839 0.49273 0.75286 0.0
H1843 H 0.22966 0.56241 0.73678 0.0
H1844 H 0.2093 0.54286 0.67031 0.0
H1845 H 0.20621 0.54661 0.71021 0.0
H1846 H 0.25983 0.49749 0.71795 0.0
H1847 H 0.26281 0.49381 0.67841 0.0
C1848 C 0.24075 0.51422 0.77942 0.0
C1849 C 0.24048 0.53607 0.78608 0.0
C1850 C 0.23747 0.50972 0.75745 0.0
C1851 C 0.23361 0.52691 0.74151 0.0
C1852 C 0.23231 0.54867 0.74847 0.0
C1853 C 0.23578 0.55316 0.77034 0.0
C1854 C 0.21989 0.53236 0.68062 0.0
C1855 C 0.2362 0.51792 0.67107 0.0
C1856 C 0.21836 0.53472 0.70352 0.0
C1857 C 0.23289 0.52248 0.7175 0.0
C1858 C 0.24819 0.50708 0.70795 0.0
C1859 C 0.24991 0.50496 0.68516 0.0
H1860 H 0.18297 0.50295 0.5315 0.0
H1861 H 0.25476 0.50416 0.53844 0.0
H1862 H 0.18945 0.49661 0.49256 0.0
H1863 H 0.2613 0.49758 0.49938 0.0
H1864 H 0.26061 0.51622 0.42399 0.0
H1865 H 0.25702 0.51704 0.4639 0.0
H1866 H 0.20327 0.47099 0.46546 0.0
H1867 H 0.20671 0.47032 0.42547 0.0
C1868 C 0.20019 0.50144 0.52484 0.0
C1869 C 0.2183 0.5039 0.53835 0.0
C1870 C 0.20394 0.49773 0.50239 0.0
C1871 C 0.22594 0.49653 0.49257 0.0
C1872 C 0.24411 0.49855 0.50618 0.0
C1873 C 0.24035 0.50208 0.52873 0.0
C1874 C 0.2483 0.50589 0.4328 0.0
C1875 C 0.234 0.49316 0.42125 0.0
C1876 C 0.24625 0.50635 0.45583 0.0
C1877 C 0.2297 0.49423 0.46814 0.0
C1878 C 0.216 0.48082 0.45665 0.0
C1879 C 0.21816 0.48023 0.43362 0.0
H1880 H 0.23241 0.45055 0.27733 0.0
H1881 H 0.24801 0.51659 0.29279 0.0
H1882 H 0.23637 0.46077 0.23845 0.0
H1883 H 0.25307 0.5267 0.25362 0.0
H1884 H 0.25418 0.48031 0.1674 0.0
H1885 H 0.25765 0.46999 0.20637 0.0
H1886 H 0.23242 0.5349 0.223 0.0
H1887 H 0.22996 0.54532 0.1844 0.0
C1888 C 0.23721 0.4672 0.27248 0.0
C1889 C 0.23979 0.48272 0.28844 0.0
C1890 C 0.23963 0.47307 0.24995 0.0
C1891 C 0.24491 0.4947 0.24246 0.0
C1892 C 0.24851 0.50999 0.25849 0.0
C1893 C 0.24588 0.50414 0.28109 0.0
C1894 C 0.24979 0.49248 0.17937 0.0
C1895 C 0.2418 0.51368 0.17254 0.0
C1896 C 0.25153 0.4865 0.20187 0.0
C1897 C 0.2452 0.50149 0.21825 0.0
C1898 C 0.23786 0.52286 0.21121 0.0
C1899 C 0.23627 0.52884 0.18884 0.0
H1900 H 0.54115 0.77008 0.29832 0.0
H1901 H 0.50757 0.7902 0.23934 0.0
H1902 H 0.53 0.73223 0.29499 0.0
H1903 H 0.49705 0.75164 0.23557 0.0
H1904 H 0.51718 0.6707 0.23281 0.0
H1905 H 0.52324 0.71053 0.23208 0.0
H1906 H 0.48764 0.71424 0.29521 0.0
H1907 H 0.48089 0.67486 0.29578 0.0
C1908 C 0.53163 0.76639 0.28442 0.0
C1909 C 0.52544 0.78324 0.26897 0.0
C1910 C 0.52512 0.74466 0.28262 0.0
C1911 C 0.51267 0.73891 0.26503 0.0
C1912 C 0.5067 0.75559 0.24929 0.0
C1913 C 0.5127 0.77763 0.25144 0.0
C1914 C 0.51008 0.68008 0.24626 0.0
C1915 C 0.49851 0.66934 0.26435 0.0
C1916 C 0.51359 0.70293 0.24582 0.0
C1917 C 0.50601 0.71551 0.26363 0.0
C1918 C 0.49372 0.705 0.28126 0.0
C1919 C 0.4898 0.68235 0.28151 0.0
H1920 H 0.06425 0.38515 0.34524 0.0
H1921 H 0.0644 0.32177 0.31634 0.0
H1922 H 0.08506 0.3688 0.37566 0.0
H1923 H 0.08491 0.30533 0.34696 0.0
H1924 H 0.1281 0.28101 0.40074 0.0
H1925 H 0.11952 0.30335 0.3677 0.0
H1926 H 0.07255 0.34358 0.40609 0.0
H1927 H 0.08122 0.32146 0.43906 0.0
C1928 C 0.06892 0.36775 0.34529 0.0
C1929 C 0.06231 0.35462 0.32865 0.0
C1930 C 0.08084 0.35841 0.3627 0.0
C1931 C 0.08639 0.33574 0.36386 0.0
C1932 C 0.08106 0.3229 0.34646 0.0
C1933 C 0.06918 0.33227 0.32898 0.0
C1934 C 0.11645 0.29504 0.40226 0.0
C1935 C 0.1051 0.29931 0.4225 0.0
C1936 C 0.11141 0.3077 0.38327 0.0
C1937 C 0.09513 0.32501 0.38422 0.0
C1938 C 0.08527 0.33043 0.40478 0.0
C1939 C 0.09018 0.31769 0.42371 0.0
H1940 H 0.96004 0.86021 0.66758 0.0
H1941 H 0.94895 0.79121 0.6838 0.0
H1942 H 0.95375 0.85446 0.62916 0.0
H1943 H 0.94235 0.7856 0.64563 0.0
H1944 H 0.95159 0.77499 0.57482 0.0
H1945 H 0.96358 0.78475 0.61046 0.0
H1946 H 0.92403 0.84567 0.60535 0.0
H1947 H 0.91251 0.83622 0.5695 0.0
C1948 C 0.9559 0.8439 0.66303 0.0
C1949 C 0.95495 0.82617 0.67877 0.0
C1950 C 0.95241 0.84061 0.641 0.0
C1951 C 0.94794 0.8195 0.63429 0.0
C1952 C 0.94634 0.80195 0.65016 0.0
C1953 C 0.9498 0.80524 0.67212 0.0
C1954 C 0.94597 0.79076 0.58103 0.0
C1955 C 0.93086 0.80469 0.56947 0.0
C1956 C 0.95263 0.79623 0.60155 0.0
C1957 C 0.94423 0.81569 0.61098 0.0
C1958 C 0.93075 0.83054 0.59857 0.0
C1959 C 0.92419 0.82512 0.57796 0.0
H1960 H 0.43704 0.71119 0.82205 0.0
H1961 H 0.41392 0.64902 0.85103 0.0
H1962 H 0.42245 0.72962 0.85466 0.0
H1963 H 0.39914 0.6677 0.88362 0.0
H1964 H 0.36588 0.72089 0.93298 0.0
H1965 H 0.37101 0.70272 0.89787 0.0
H1966 H 0.44115 0.71931 0.89352 0.0
H1967 H 0.43642 0.73675 0.92833 0.0
C1968 C 0.42829 0.70156 0.83508 0.0
C1969 C 0.42705 0.67859 0.83422 0.0
C1970 C 0.41997 0.71212 0.85371 0.0
C1971 C 0.40998 0.69994 0.87162 0.0
C1972 C 0.40679 0.67736 0.86996 0.0
C1973 C 0.41538 0.66671 0.8514 0.0
C1974 C 0.38243 0.72034 0.92463 0.0
C1975 C 0.40075 0.73019 0.93346 0.0
C1976 C 0.38529 0.7101 0.90457 0.0
C1977 C 0.40635 0.71008 0.89297 0.0
C1978 C 0.42466 0.71949 0.90203 0.0
C1979 C 0.42195 0.72926 0.92211 0.0
H1980 H 0.61044 0.18054 0.0875 0.0
H1981 H 0.5422 0.17296 0.06863 0.0
H1982 H 0.60061 0.16377 0.12375 0.0
H1983 H 0.53243 0.15622 0.10494 0.0
H1984 H 0.52227 0.1188 0.1691 0.0
H1985 H 0.54013 0.12424 0.13237 0.0
H1986 H 0.57501 0.17979 0.15369 0.0
H1987 H 0.55704 0.17451 0.19034 0.0
C1988 C 0.59342 0.17501 0.09098 0.0
C1989 C 0.57696 0.17839 0.07536 0.0
C1990 C 0.58785 0.16539 0.11171 0.0
C1991 C 0.56577 0.15885 0.11716 0.0
C1992 C 0.54967 0.16091 0.10108 0.0
C1993 C 0.55523 0.1706 0.08034 0.0
C1994 C 0.5343 0.13174 0.16616 0.0
C1995 C 0.53809 0.14643 0.18252 0.0
C1996 C 0.54437 0.13492 0.14508 0.0
C1997 C 0.55871 0.15256 0.14017 0.0
C1998 C 0.56408 0.16598 0.15706 0.0
C1999 C 0.55376 0.16301 0.17803 0.0
H2000 H 0.06496 0.68032 0.20913 0.0
H2001 H 0.01054 0.66628 0.16825 0.0
H2002 H 0.08318 0.70143 0.17795 0.0
H2003 H 0.02818 0.68782 0.13799 0.0
H2004 H 0.05222 0.74827 0.09911 0.0
H2005 H 0.03906 0.73163 0.1343 0.0
H2006 H 0.09734 0.68724 0.13418 0.0
H2007 H 0.11083 0.70389 0.09855 0.0
C2008 C 0.05683 0.68189 0.19366 0.0
C2009 C 0.03644 0.67148 0.19106 0.0
C2010 C 0.06726 0.69385 0.17594 0.0
C2011 C 0.05696 0.69606 0.15579 0.0
C2012 C 0.03633 0.68629 0.15347 0.0
C2013 C 0.02627 0.674 0.17083 0.0
C2014 C 0.06239 0.73505 0.10653 0.0
C2015 C 0.08234 0.72704 0.09585 0.0
C2016 C 0.05492 0.72573 0.12675 0.0
C2017 C 0.06729 0.70833 0.13675 0.0
C2018 C 0.08775 0.70087 0.12672 0.0
C2019 C 0.09525 0.71017 0.1063 0.0
H2020 H 0.58908 0.75299 0.42855 0.0
H2021 H 0.58589 0.81787 0.4545 0.0
H2022 H 0.56717 0.76678 0.39789 0.0
H2023 H 0.56409 0.83184 0.42347 0.0
H2024 H 0.5624 0.84671 0.34592 0.0
H2025 H 0.57665 0.8356 0.38179 0.0
H2026 H 0.52845 0.78388 0.3896 0.0
H2027 H 0.5142 0.79481 0.35393 0.0
C2028 C 0.58335 0.77014 0.42781 0.0
C2029 C 0.58923 0.78446 0.44364 0.0
C2030 C 0.57076 0.77799 0.41038 0.0
C2031 C 0.56412 0.80036 0.40838 0.0
C2032 C 0.56918 0.81454 0.42471 0.0
C2033 C 0.58148 0.80655 0.44243 0.0
C2034 C 0.55478 0.83307 0.35536 0.0
C2035 C 0.5375 0.82137 0.34698 0.0
C2036 C 0.56275 0.82689 0.37593 0.0
C2037 C 0.55359 0.80891 0.38829 0.0
C2038 C 0.53583 0.79772 0.38024 0.0
C2039 C 0.5278 0.80393 0.35979 0.0
H2040 H 0.4268 0.33261 0.67088 0.0
H2041 H 0.41574 0.39153 0.62963 0.0
H2042 H 0.40147 0.31287 0.64962 0.0
H2043 H 0.3897 0.37191 0.60869 0.0
H2044 H 0.3795 0.3195 0.55788 0.0
H2045 H 0.39573 0.34381 0.58258 0.0
H2046 H 0.36392 0.30791 0.6382 0.0
H2047 H 0.34807 0.28312 0.6134 0.0
C2048 C 0.41851 0.3415 0.65758 0.0
C2049 C 0.42352 0.3635 0.65166 0.0
C2050 C 0.40386 0.33021 0.64546 0.0
C2051 C 0.39372 0.34076 0.62731 0.0
C2052 C 0.39761 0.36321 0.62231 0.0
C2053 C 0.41246 0.37445 0.63431 0.0
C2054 C 0.37565 0.31698 0.57535 0.0
C2055 C 0.36266 0.29927 0.58368 0.0
C2056 C 0.38483 0.33105 0.58954 0.0
C2057 C 0.38119 0.32777 0.61239 0.0
C2058 C 0.36725 0.31071 0.62069 0.0
C2059 C 0.35805 0.2966 0.60646 0.0
H2060 H 0.94883 0.18597 0.83785 0.0
H2061 H 0.96472 0.1194 0.862 0.0
H2062 H 0.93671 0.19578 0.87464 0.0
H2063 H 0.95278 0.12943 0.89928 0.0
H2064 H 0.89423 0.15446 0.94972 0.0
H2065 H 0.91747 0.13967 0.91959 0.0
H2066 H 0.95105 0.20165 0.91018 0.0
H2067 H 0.92681 0.21668 0.93972 0.0
C2068 C 0.94979 0.17341 0.85106 0.0
C2069 C 0.95764 0.15189 0.84699 0.0
C2070 C 0.94316 0.17913 0.87225 0.0
C2071 C 0.94428 0.1635 0.88999 0.0
C2072 C 0.95187 0.14184 0.88595 0.0
C2073 C 0.95854 0.13609 0.86462 0.0
C2074 C 0.90721 0.16457 0.94186 0.0
C2075 C 0.90866 0.18672 0.9468 0.0
C2076 C 0.92057 0.1561 0.92454 0.0
C2077 C 0.9356 0.16974 0.91209 0.0
C2078 C 0.93915 0.19096 0.91912 0.0
C2079 C 0.92556 0.19948 0.93621 0.0
H2080 H 0.3238 0.01344 0.37606 0.0
H2081 H 0.27763 0.06043 0.34529 0.0
H2082 H 0.35538 0.03112 0.35623 0.0
H2083 H 0.3094 0.07876 0.32605 0.0
H2084 H 0.36999 0.08999 0.27693 0.0
H2085 H 0.33763 0.07382 0.29715 0.0
H2086 H 0.37682 0.06355 0.35455 0.0
H2087 H 0.40939 0.07906 0.33407 0.0
C2088 C 0.32038 0.0277 0.3652 0.0
C2089 C 0.29815 0.03563 0.36243 0.0
C2090 C 0.33856 0.03797 0.35394 0.0
C2091 C 0.33505 0.05653 0.33963 0.0
C2092 C 0.31278 0.0644 0.33677 0.0
C2093 C 0.29454 0.054 0.34795 0.0
C2094 C 0.37166 0.08443 0.29392 0.0
C2095 C 0.39231 0.08579 0.30387 0.0
C2096 C 0.35304 0.07523 0.30557 0.0
C2097 C 0.35456 0.06727 0.32751 0.0
C2098 C 0.37511 0.06911 0.33758 0.0
C2099 C 0.39377 0.07816 0.32588 0.0
H2100 H 0.18286 0.06119 0.57974 0.0
H2101 H 0.17424 0.09783 0.63858 0.0
H2102 H 0.16676 0.09241 0.55858 0.0
H2103 H 0.15826 0.12914 0.61726 0.0
H2104 H 0.11866 0.17697 0.57012 0.0
H2105 H 0.12672 0.14335 0.59272 0.0
H2106 H 0.18491 0.12885 0.54976 0.0
H2107 H 0.17704 0.16204 0.52736 0.0
C2108 C 0.17719 0.07576 0.58823 0.0
C2109 C 0.18029 0.0773 0.61071 0.0
C2110 C 0.16804 0.09362 0.5761 0.0
C2111 C 0.1617 0.11327 0.58626 0.0
C2112 C 0.16308 0.11418 0.60905 0.0
C2113 C 0.17237 0.09633 0.62119 0.0
C2114 C 0.13325 0.16665 0.56564 0.0
C2115 C 0.14726 0.1722 0.54701 0.0
C2116 C 0.13778 0.14743 0.5785 0.0
C2117 C 0.15622 0.13341 0.57275 0.0
C2118 C 0.1703 0.13913 0.55429 0.0
C2119 C 0.16592 0.15831 0.54161 0.0
H2120 H 0.17351 0.89747 0.8614 0.0
H2121 H 0.17323 0.94094 0.80311 0.0
H2122 H 0.14563 0.87481 0.84618 0.0
H2123 H 0.14528 0.91876 0.78818 0.0
H2124 H 0.09885 0.87651 0.76068 0.0
H2125 H 0.13511 0.88468 0.77444 0.0
H2126 H 0.10542 0.88198 0.84074 0.0
H2127 H 0.06925 0.87266 0.82681 0.0
C2128 C 0.168 0.90182 0.84509 0.0
C2129 C 0.1753 0.9211 0.83351 0.0
C2130 C 0.15189 0.88897 0.83649 0.0
C2131 C 0.14306 0.8951 0.81612 0.0
C2132 C 0.15184 0.91338 0.80384 0.0
C2133 C 0.1678 0.92622 0.81243 0.0
C2134 C 0.10027 0.87717 0.77824 0.0
C2135 C 0.08135 0.8744 0.79274 0.0
C2136 C 0.12098 0.88187 0.78611 0.0
C2137 C 0.12302 0.88446 0.8086 0.0
C2138 C 0.10443 0.87998 0.82331 0.0
C2139 C 0.08371 0.87479 0.8154 0.0
H2140 H 0.3468 0.84485 0.08357 0.0
H2141 H 0.31946 0.87796 0.02609 0.0
H2142 H 0.33503 0.87663 0.10509 0.0
H2143 H 0.30791 0.90952 0.04746 0.0
H2144 H 0.3057 0.97007 0.08868 0.0
H2145 H 0.32398 0.93994 0.06838 0.0
H2146 H 0.29642 0.89261 0.1169 0.0
H2147 H 0.27824 0.92245 0.13704 0.0
C2148 C 0.33844 0.85894 0.07552 0.0
C2149 C 0.33383 0.85883 0.05323 0.0
C2150 C 0.33171 0.87708 0.08781 0.0
C2151 C 0.32061 0.89554 0.0779 0.0
C2152 C 0.31665 0.89564 0.05547 0.0
C2153 C 0.32305 0.87744 0.0433 0.0
C2154 C 0.30377 0.95323 0.09506 0.0
C2155 C 0.29043 0.94861 0.11433 0.0
C2156 C 0.31416 0.93603 0.08346 0.0
C2157 C 0.31161 0.91396 0.09111 0.0
C2158 C 0.29889 0.90945 0.11076 0.0
C2159 C 0.2883 0.92656 0.12216 0.0
H2160 H 0.44763 0.9235 0.19331 0.0
H2161 H 0.41177 0.86836 0.22408 0.0
H2162 H 0.41612 0.93217 0.17025 0.0
H2163 H 0.38018 0.87722 0.20101 0.0
H2164 H 0.36039 0.94404 0.12817 0.0
H2165 H 0.39074 0.91963 0.14139 0.0
H2166 H 0.35443 0.9115 0.20435 0.0
H2167 H 0.32408 0.9358 0.19121 0.0
C2168 C 0.43333 0.91286 0.1947 0.0
C2169 C 0.43207 0.89547 0.21068 0.0
C2170 C 0.41535 0.91771 0.18139 0.0
C2171 C 0.39575 0.90535 0.18395 0.0
C2172 C 0.39512 0.88698 0.1988 0.0
C2173 C 0.41322 0.88197 0.21196 0.0
C2174 C 0.35867 0.93665 0.14468 0.0
C2175 C 0.34034 0.94241 0.15898 0.0
C2176 C 0.37596 0.92262 0.15215 0.0
C2177 C 0.37506 0.91411 0.17395 0.0
C2178 C 0.35552 0.91785 0.18743 0.0
C2179 C 0.33824 0.93192 0.17998 0.0
H2180 H 0.36719 0.15006 0.46959 0.0
H2181 H 0.32518 0.19625 0.43255 0.0
H2182 H 0.35329 0.11984 0.45001 0.0
H2183 H 0.31096 0.16604 0.4134 0.0
H2184 H 0.29174 0.1083 0.37732 0.0
H2185 H 0.31664 0.13597 0.38901 0.0
H2186 H 0.31658 0.1034 0.45363 0.0
H2187 H 0.29216 0.07553 0.44182 0.0
C2188 C 0.3554 0.15385 0.45692 0.0
C2189 C 0.34697 0.17552 0.45292 0.0
C2190 C 0.34731 0.1365 0.44582 0.0
C2191 C 0.33068 0.14049 0.4305 0.0
C2192 C 0.32382 0.16238 0.42507 0.0
C2193 C 0.33193 0.17974 0.43613 0.0
C2194 C 0.29724 0.10695 0.39396 0.0
C2195 C 0.28973 0.08996 0.40877 0.0
C2196 C 0.3115 0.12279 0.40063 0.0
C2197 C 0.3185 0.12197 0.42226 0.0
C2198 C 0.31178 0.10437 0.43676 0.0
C2199 C 0.2976 0.08848 0.43006 0.0
H2200 H 0.183 0.04528 0.68067 0.0
H2201 H 0.14096 0.00237 0.64755 0.0
H2202 H 0.14911 0.06436 0.69591 0.0
H2203 H 0.10746 0.02101 0.66323 0.0
H2204 H 0.06011 0.03806 0.72392 0.0
H2205 H 0.0935 0.02247 0.70479 0.0
H2206 H 0.11247 0.08765 0.6808 0.0
H2207 H 0.07857 0.10345 0.69986 0.0
C2208 C 0.16662 0.04008 0.67647 0.0
C2209 C 0.16466 0.02239 0.66284 0.0
C2210 C 0.1473 0.05102 0.68512 0.0
C2211 C 0.12584 0.04412 0.6806 0.0
C2212 C 0.12389 0.02659 0.66689 0.0
C2213 C 0.14309 0.01594 0.65798 0.0
C2214 C 0.07126 0.04907 0.71438 0.0
C2215 C 0.0668 0.07192 0.71324 0.0
C2216 C 0.0903 0.04014 0.70344 0.0
C2217 C 0.10542 0.05392 0.69142 0.0
C2218 C 0.10098 0.07679 0.69008 0.0
C2219 C 0.08159 0.08575 0.70076 0.0
H2220 H 0.13067 0.86275 0.97331 0.0
H2221 H 0.19842 0.85234 0.99514 0.0
H2222 H 0.14207 0.89668 0.95323 0.0
H2223 H 0.20964 0.88632 0.97526 0.0
H2224 H 0.16541 0.96525 0.93345 0.0
H2225 H 0.15562 0.93472 0.95974 0.0
H2226 H 0.21355 0.89684 0.93491 0.0
H2227 H 0.22284 0.92705 0.90856 0.0
C2228 C 0.14795 0.8677 0.97383 0.0
C2229 C 0.16372 0.8548 0.98556 0.0
C2230 C 0.15438 0.88723 0.96259 0.0
C2231 C 0.17668 0.89407 0.96286 0.0
C2232 C 0.19237 0.88129 0.97477 0.0
C2233 C 0.18594 0.86184 0.98606 0.0
C2234 C 0.17633 0.9506 0.93422 0.0
C2235 C 0.19538 0.94866 0.9198 0.0
C2236 C 0.17068 0.93316 0.94903 0.0
C2237 C 0.18395 0.91357 0.94938 0.0
C2238 C 0.20336 0.91197 0.93532 0.0
C2239 C 0.20887 0.92931 0.92047 0.0
H2240 H 0.31247 0.42686 0.03561 0.0
H2241 H 0.27638 0.39444 0.09073 0.0
H2242 H 0.3292 0.39154 0.02509 0.0
H2243 H 0.29193 0.35891 0.0796 0.0
H2244 H 0.33964 0.30071 0.06456 0.0
H2245 H 0.32356 0.33548 0.07662 0.0
H2246 H 0.31957 0.35944 0.00895 0.0
H2247 H 0.33706 0.32504 0.99694 0.0
C2248 C 0.30829 0.41213 0.04555 0.0
C2249 C 0.29333 0.41335 0.06405 0.0
C2250 C 0.31757 0.39183 0.03936 0.0
C2251 C 0.31166 0.37223 0.05126 0.0
C2252 C 0.29713 0.37361 0.07017 0.0
C2253 C 0.28823 0.394 0.07661 0.0
C2254 C 0.33516 0.3133 0.0522 0.0
C2255 C 0.33986 0.31014 0.02973 0.0
C2256 C 0.32583 0.3333 0.05916 0.0
C2257 C 0.3205 0.35049 0.04382 0.0
C2258 C 0.32407 0.34685 0.0213 0.0
C2259 C 0.33381 0.32699 0.01435 0.0
H2260 H 0.80225 0.06642 0.86972 0.0
H2261 H 0.74559 0.11255 0.87623 0.0
H2262 H 0.826 0.09202 0.88637 0.0
H2263 H 0.76893 0.13769 0.89394 0.0
H2264 H 0.81756 0.18258 0.92131 0.0
H2265 H 0.79962 0.16186 0.89417 0.0
H2266 H 0.82758 0.10114 0.92315 0.0
H2267 H 0.84602 0.12173 0.94937 0.0
C2268 C 0.79498 0.08218 0.87447 0.0
C2269 C 0.77206 0.08743 0.87196 0.0
C2270 C 0.80851 0.09679 0.88414 0.0
C2271 C 0.79925 0.1167 0.89195 0.0
C2272 C 0.77668 0.12258 0.88801 0.0
C2273 C 0.76324 0.10813 0.87794 0.0
C2274 C 0.82005 0.16482 0.92161 0.0
C2275 C 0.83308 0.15376 0.93751 0.0
C2276 C 0.80974 0.15296 0.90613 0.0
C2277 C 0.81217 0.12983 0.90643 0.0
C2278 C 0.82571 0.11895 0.92205 0.0
C2279 C 0.83614 0.13077 0.93729 0.0
H2280 H 0.09426 0.63582 0.16518 0.0
H2281 H 0.06859 0.57436 0.19312 0.0
H2282 H 0.11891 0.61566 0.13935 0.0
H2283 H 0.09399 0.55414 0.16853 0.0
H2284 H 0.13802 0.51917 0.12187 0.0
H2285 H 0.10649 0.54272 0.13449 0.0
H2286 H 0.15251 0.59513 0.14201 0.0
H2287 H 0.18365 0.5719 0.12785 0.0
C2288 C 0.0938 0.61799 0.16562 0.0
C2289 C 0.07983 0.60658 0.18125 0.0
C2290 C 0.108 0.60642 0.15096 0.0
C2291 C 0.10883 0.58322 0.15204 0.0
C2292 C 0.09372 0.57197 0.16688 0.0
C2293 C 0.0792 0.58355 0.18116 0.0
C2294 C 0.14119 0.53594 0.12576 0.0
C2295 C 0.16315 0.54378 0.12416 0.0
C2296 C 0.12318 0.54939 0.13315 0.0
C2297 C 0.12692 0.57072 0.13976 0.0
C2298 C 0.14884 0.57893 0.13687 0.0
C2299 C 0.16677 0.56561 0.12889 0.0
H2300 H 0.63038 0.87241 0.46092 0.0
H2301 H 0.67654 0.82547 0.43003 0.0
H2302 H 0.64885 0.90241 0.44027 0.0
H2303 H 0.6946 0.8556 0.4085 0.0
H2304 H 0.73904 0.91632 0.39803 0.0
H2305 H 0.71875 0.88464 0.41326 0.0
H2306 H 0.65559 0.92118 0.4061 0.0
H2307 H 0.67613 0.95337 0.39176 0.0
C2308 C 0.64425 0.86844 0.44938 0.0
C2309 C 0.65202 0.84652 0.44718 0.0
C2310 C 0.65478 0.88572 0.43736 0.0
C2311 C 0.67326 0.88156 0.4226 0.0
C2312 C 0.68064 0.85952 0.41993 0.0
C2313 C 0.67021 0.8422 0.43217 0.0
C2314 C 0.72079 0.91757 0.39944 0.0
C2315 C 0.70921 0.9375 0.39386 0.0
C2316 C 0.7091 0.89926 0.40809 0.0
C2317 C 0.68547 0.90028 0.41114 0.0
C2318 C 0.67382 0.9199 0.40448 0.0
C2319 C 0.68556 0.93834 0.3961 0.0
H2320 H 0.91031 0.88996 0.21333 0.0
H2321 H 0.95676 0.93918 0.18746 0.0
H2322 H 0.88046 0.90791 0.19257 0.0
H2323 H 0.92646 0.95752 0.16689 0.0
H2324 H 0.85615 0.99725 0.17812 0.0
H2325 H 0.8909 0.97664 0.18588 0.0
H2326 H 0.86758 0.92102 0.1533 0.0
H2327 H 0.83264 0.94205 0.14502 0.0
C2328 C 0.9142 0.90449 0.20296 0.0
C2329 C 0.93572 0.91345 0.20225 0.0
C2330 C 0.89717 0.91457 0.19087 0.0
C2331 C 0.90121 0.93408 0.17824 0.0
C2332 C 0.92302 0.94245 0.17657 0.0
C2333 C 0.94027 0.93205 0.18834 0.0
C2334 C 0.85849 0.98067 0.17247 0.0
C2335 C 0.84163 0.97099 0.16138 0.0
C2336 C 0.87851 0.96903 0.17661 0.0
C2337 C 0.88189 0.94734 0.17007 0.0
C2338 C 0.86531 0.9378 0.15839 0.0
C2339 C 0.84539 0.94971 0.15378 0.0
H2340 H 0.19715 0.58436 0.53457 0.0
H2341 H 0.1957 0.6004 0.60267 0.0
H2342 H 0.1793 0.61976 0.52514 0.0
H2343 H 0.17885 0.63661 0.59313 0.0
H2344 H 0.12631 0.68923 0.57111 0.0
H2345 H 0.14614 0.6552 0.58238 0.0
H2346 H 0.18499 0.6571 0.52027 0.0
H2347 H 0.16371 0.69035 0.50853 0.0
C2348 C 0.19308 0.59556 0.54754 0.0
C2349 C 0.19771 0.58957 0.56937 0.0
C2350 C 0.18309 0.61605 0.54209 0.0
C2351 C 0.17784 0.63132 0.55828 0.0
C2352 C 0.18239 0.62524 0.58022 0.0
C2353 C 0.19207 0.6045 0.58573 0.0
C2354 C 0.13935 0.68249 0.56005 0.0
C2355 C 0.14361 0.6923 0.53897 0.0
C2356 C 0.15081 0.66299 0.56652 0.0
C2357 C 0.1671 0.65315 0.5522 0.0
C2358 C 0.17212 0.66378 0.53152 0.0
C2359 C 0.1602 0.68296 0.52484 0.0
H2360 H 0.04699 0.42762 0.29447 0.0
H2361 H 0.09784 0.3837 0.2657 0.0
H2362 H 0.07559 0.44349 0.31557 0.0
H2363 H 0.12638 0.39965 0.28675 0.0
H2364 H 0.16995 0.42607 0.33887 0.0
H2365 H 0.13851 0.40567 0.32612 0.0
H2366 H 0.10821 0.46684 0.30095 0.0
H2367 H 0.13933 0.48694 0.31333 0.0
C2368 C 0.0642 0.42117 0.29287 0.0
C2369 C 0.07024 0.40459 0.27829 0.0
C2370 C 0.08052 0.43023 0.30494 0.0
C2371 C 0.10315 0.42278 0.30274 0.0
C2372 C 0.10901 0.40551 0.28892 0.0
C2373 C 0.09272 0.39658 0.2767 0.0
C2374 C 0.15637 0.43505 0.33087 0.0
C2375 C 0.1571 0.45798 0.32686 0.0
C2376 C 0.1385 0.42345 0.32354 0.0
C2377 C 0.12096 0.43474 0.31262 0.0
C2378 C 0.12135 0.45775 0.30953 0.0
C2379 C 0.13929 0.46922 0.31643 0.0
H2380 H 0.43992 0.59764 0.79509 0.0
H2381 H 0.39481 0.65051 0.77299 0.0
H2382 H 0.40768 0.57799 0.81223 0.0
H2383 H 0.36273 0.63102 0.79036 0.0
H2384 H 0.31235 0.59345 0.83841 0.0
H2385 H 0.34598 0.61511 0.82878 0.0
H2386 H 0.37516 0.56149 0.79193 0.0
H2387 H 0.34184 0.54015 0.8011 0.0
C2388 C 0.42318 0.60521 0.79425 0.0
C2389 C 0.41975 0.6254 0.7825 0.0
C2390 C 0.4048 0.594 0.80402 0.0
C2391 C 0.3828 0.60304 0.80253 0.0
C2392 C 0.37955 0.62381 0.79186 0.0
C2393 C 0.39785 0.63482 0.78176 0.0
C2394 C 0.326 0.58636 0.82828 0.0
C2395 C 0.32438 0.56525 0.82029 0.0
C2396 C 0.34517 0.59869 0.82284 0.0
C2397 C 0.36314 0.58982 0.80979 0.0
C2398 C 0.36166 0.56856 0.80226 0.0
C2399 C 0.34245 0.55648 0.80732 0.0
H2400 H 0.93877 0.71684 0.59207 0.0
H2401 H 0.86681 0.70782 0.59405 0.0
H2402 H 0.94096 0.69649 0.62726 0.0
H2403 H 0.8693 0.68669 0.62942 0.0
H2404 H 0.91439 0.62365 0.66827 0.0
H2405 H 0.89875 0.64683 0.63841 0.0
H2406 H 0.91842 0.70501 0.66907 0.0
H2407 H 0.93374 0.68206 0.69906 0.0
C2408 C 0.92344 0.71033 0.59994 0.0
C2409 C 0.90262 0.71376 0.59034 0.0
C2410 C 0.92469 0.69893 0.62014 0.0
C2411 C 0.90523 0.69044 0.63093 0.0
C2412 C 0.88441 0.69339 0.62131 0.0
C2413 C 0.88305 0.70531 0.60117 0.0
C2414 C 0.91468 0.64142 0.66895 0.0
C2415 C 0.92565 0.65113 0.6856 0.0
C2416 C 0.90557 0.6546 0.65205 0.0
C2417 C 0.9076 0.67751 0.65162 0.0
C2418 C 0.91665 0.68731 0.6693 0.0
C2419 C 0.92544 0.67419 0.68635 0.0
H2420 H 0.07504 0.16217 0.42458 0.0
H2421 H 0.08232 0.22563 0.39004 0.0
H2422 H 0.06523 0.14628 0.39057 0.0
H2423 H 0.07187 0.21008 0.35646 0.0
H2424 H 0.06929 0.17688 0.29472 0.0
H2425 H 0.08529 0.18609 0.32883 0.0
H2426 H 0.03553 0.14693 0.36571 0.0
H2427 H 0.02028 0.13694 0.33166 0.0
C2428 C 0.07437 0.17274 0.40977 0.0
C2429 C 0.0795 0.19511 0.40994 0.0
C2430 C 0.06877 0.16365 0.3903 0.0
C2431 C 0.06807 0.17682 0.37069 0.0
C2432 C 0.07289 0.19928 0.37107 0.0
C2433 C 0.07865 0.20828 0.39041 0.0
C2434 C 0.06223 0.16973 0.3101 0.0
C2435 C 0.04345 0.15635 0.3105 0.0
C2436 C 0.0712 0.1752 0.32966 0.0
C2437 C 0.06133 0.1677 0.35004 0.0
C2438 C 0.04362 0.15295 0.35035 0.0
C2439 C 0.03487 0.1472 0.33076 0.0
H2440 H 0.52005 0.3018 0.16043 0.0
H2441 H 0.587 0.31063 0.18212 0.0
H2442 H 0.5359 0.29325 0.12432 0.0
H2443 H 0.60295 0.30254 0.14554 0.0
H2444 H 0.61994 0.26 0.08456 0.0
H2445 H 0.60846 0.27282 0.12066 0.0
H2446 H 0.55388 0.31164 0.09258 0.0
H2447 H 0.56487 0.29818 0.05656 0.0
C2448 C 0.5382 0.30192 0.15747 0.0
C2449 C 0.55229 0.30695 0.1741 0.0
C2450 C 0.54727 0.29726 0.13667 0.0
C2451 C 0.57066 0.29768 0.1319 0.0
C2452 C 0.58486 0.30211 0.1487 0.0
C2453 C 0.57574 0.30668 0.16965 0.0
C2454 C 0.60582 0.2717 0.08596 0.0
C2455 C 0.59307 0.27782 0.06775 0.0
C2456 C 0.59925 0.27905 0.10671 0.0
C2457 C 0.57994 0.29283 0.10957 0.0
C2458 C 0.56845 0.3005 0.091 0.0
C2459 C 0.57487 0.29298 0.07031 0.0
H2460 H 0.41045 0.8586 0.93486 0.0
H2461 H 0.41959 0.79206 0.91353 0.0
H2462 H 0.42211 0.8729 0.89792 0.0
H2463 H 0.43188 0.80615 0.87713 0.0
H2464 H 0.43373 0.83383 0.80903 0.0
H2465 H 0.41715 0.82431 0.84548 0.0
H2466 H 0.454 0.87587 0.87216 0.0
H2467 H 0.4698 0.88595 0.83551 0.0
C2468 C 0.41523 0.84707 0.92237 0.0
C2469 C 0.41402 0.82425 0.92702 0.0
C2470 C 0.42188 0.85523 0.90122 0.0
C2471 C 0.42757 0.84069 0.88443 0.0
C2472 C 0.42695 0.81786 0.88942 0.0
C2473 C 0.42012 0.80976 0.91038 0.0
C2474 C 0.43785 0.84345 0.82261 0.0
C2475 C 0.45314 0.86053 0.81944 0.0
C2476 C 0.42856 0.83786 0.84355 0.0
C2477 C 0.43466 0.84898 0.86186 0.0
C2478 C 0.44885 0.867 0.85845 0.0
C2479 C 0.45791 0.8728 0.83741 0.0
H2480 H 0.88213 0.23951 0.86644 0.0
H2481 H 0.8856 0.29488 0.90764 0.0
H2482 H 0.90214 0.26022 0.83649 0.0
H2483 H 0.90504 0.31563 0.87765 0.0
H2484 H 0.96566 0.33282 0.83341 0.0
H2485 H 0.94308 0.31177 0.86068 0.0
H2486 H 0.90003 0.29316 0.81048 0.0
H2487 H 0.92313 0.31401 0.78277 0.0
C2488 C 0.88678 0.25622 0.86897 0.0
C2489 C 0.88251 0.26552 0.88944 0.0
C2490 C 0.89817 0.26807 0.85181 0.0
C2491 C 0.9054 0.28939 0.85488 0.0
C2492 C 0.9001 0.29903 0.875 0.0
C2493 C 0.88886 0.2872 0.89212 0.0
C2494 C 0.95141 0.32425 0.82809 0.0
C2495 C 0.94594 0.32538 0.80598 0.0
C2496 C 0.93838 0.3123 0.84377 0.0
C2497 C 0.91954 0.30121 0.83776 0.0
C2498 C 0.91445 0.30163 0.81555 0.0
C2499 C 0.92761 0.3136 0.79974 0.0
H2500 H 0.45681 0.19342 0.65191 0.0
H2501 H 0.40412 0.1493 0.67501 0.0
H2502 H 0.43953 0.19901 0.61692 0.0
H2503 H 0.38653 0.15526 0.63961 0.0
H2504 H 0.35221 0.20726 0.58774 0.0
H2505 H 0.36832 0.19062 0.62083 0.0
H2506 H 0.43074 0.17668 0.58379 0.0
H2507 H 0.41451 0.19321 0.55052 0.0
C2508 C 0.44146 0.18495 0.64956 0.0
C2509 C 0.43165 0.1711 0.66631 0.0
C2510 C 0.43177 0.18792 0.62937 0.0
C2511 C 0.4119 0.17734 0.62554 0.0
C2512 C 0.40196 0.16348 0.64222 0.0
C2513 C 0.41192 0.16019 0.66242 0.0
C2514 C 0.36922 0.20022 0.58661 0.0
C2515 C 0.38234 0.20183 0.56678 0.0
C2516 C 0.37833 0.19053 0.60546 0.0
C2517 C 0.40079 0.18262 0.60482 0.0
C2518 C 0.4134 0.18284 0.58465 0.0
C2519 C 0.40414 0.19222 0.56567 0.0
H2520 H 0.6472 0.70002 0.39578 0.0
H2521 H 0.58116 0.70351 0.42912 0.0
H2522 H 0.63107 0.68175 0.36547 0.0
H2523 H 0.56527 0.686 0.39876 0.0
H2524 H 0.54492 0.67644 0.32772 0.0
H2525 H 0.56873 0.69859 0.34894 0.0
H2526 H 0.60209 0.63926 0.37445 0.0
H2527 H 0.57787 0.61703 0.35388 0.0
C2528 C 0.62932 0.69699 0.39656 0.0
C2529 C 0.61548 0.70282 0.41489 0.0
C2530 C 0.62016 0.68673 0.37925 0.0
C2531 C 0.59702 0.68284 0.37992 0.0
C2532 C 0.58315 0.68913 0.39794 0.0
C2533 C 0.59231 0.69888 0.41537 0.0
C2534 C 0.55787 0.66821 0.33725 0.0
C2535 C 0.55955 0.64511 0.33939 0.0
C2536 C 0.57143 0.68085 0.34932 0.0
C2537 C 0.58718 0.67047 0.36306 0.0
C2538 C 0.5902 0.64749 0.36367 0.0
C2539 C 0.57631 0.63485 0.35205 0.0
H2540 H 0.11084 0.80239 0.08982 0.0
H2541 H 0.05798 0.81438 0.04444 0.0
H2542 H 0.0881 0.82117 0.11793 0.0
H2543 H 0.03481 0.83281 0.07308 0.0
H2544 H 0.04568 0.86953 0.15904 0.0
H2545 H 0.06831 0.86021 0.12574 0.0
H2546 H 0.01873 0.81376 0.11087 0.0
H2547 H -0.00358 0.82266 0.14408 0.0
C2548 C 0.09439 0.80922 0.08582 0.0
C2549 C 0.08602 0.80684 0.06505 0.0
C2550 C 0.08153 0.82016 0.10183 0.0
C2551 C 0.05983 0.82843 0.09756 0.0
C2552 C 0.05159 0.82659 0.07662 0.0
C2553 C 0.06476 0.81608 0.06034 0.0
C2554 C 0.03961 0.85747 0.14853 0.0
C2555 C 0.01957 0.84653 0.15426 0.0
C2556 C 0.05245 0.85223 0.12953 0.0
C2557 C 0.04508 0.83641 0.11582 0.0
C2558 C 0.02457 0.82622 0.12108 0.0
C2559 C 0.01201 0.8311 0.14022 0.0
H2560 H 0.66406 0.97652 0.61284 0.0
H2561 H 0.7032 0.9485 0.66556 0.0
H2562 H 0.63028 0.95988 0.62996 0.0
H2563 H 0.6692 0.93188 0.6828 0.0
H2564 H 0.59849 0.93925 0.7195 0.0
H2565 H 0.63384 0.94951 0.70046 0.0
H2566 H 0.6125 0.92277 0.64118 0.0
H2567 H 0.57678 0.91216 0.66048 0.0
C2568 C 0.66548 0.96666 0.62803 0.0
C2569 C 0.68625 0.96401 0.63801 0.0
C2570 C 0.64615 0.95697 0.6377 0.0
C2571 C 0.64708 0.94465 0.65773 0.0
C2572 C 0.66798 0.94144 0.66741 0.0
C2573 C 0.68742 0.9509 0.65755 0.0
C2574 C 0.60125 0.9355 0.7024 0.0
C2575 C 0.58472 0.92509 0.69141 0.0
C2576 C 0.62166 0.94118 0.69157 0.0
C2577 C 0.62599 0.93688 0.66937 0.0
C2578 C 0.60956 0.92632 0.65832 0.0
C2579 C 0.58917 0.92025 0.66932 0.0
H2580 H 0.80393 0.83712 0.46799 0.0
H2581 H 0.86487 0.82123 0.42915 0.0
H2582 H 0.80203 0.87342 0.44941 0.0
H2583 H 0.8629 0.85783 0.41057 0.0
H2584 H 0.82098 0.91049 0.36559 0.0
H2585 H 0.8352 0.87712 0.38481 0.0
H2586 H 0.82472 0.90838 0.4466 0.0
H2587 H 0.81037 0.94173 0.42747 0.0
C2588 C 0.81682 0.84131 0.45538 0.0
C2589 C 0.83445 0.82629 0.44992 0.0
C2590 C 0.81595 0.86222 0.44503 0.0
C2591 C 0.8326 0.86847 0.42892 0.0
C2592 C 0.84999 0.85337 0.42308 0.0
C2593 C 0.85098 0.83244 0.43358 0.0
C2594 C 0.82233 0.91043 0.38321 0.0
C2595 C 0.81391 0.92832 0.39516 0.0
C2596 C 0.83059 0.89141 0.39416 0.0
C2597 C 0.8304 0.89012 0.41716 0.0
C2598 C 0.82453 0.90894 0.42885 0.0
C2599 C 0.81643 0.92801 0.41789 0.0
H2600 H 0.81338 0.07566 0.15145 0.0
H2601 H 0.87438 0.0382 0.13445 0.0
H2602 H 0.83568 0.10552 0.16257 0.0
H2603 H 0.89675 0.06725 0.14701 0.0
H2604 H 0.935 0.12527 0.16114 0.0
H2605 H 0.91048 0.10243 0.14187 0.0
H2606 H 0.85691 0.11374 0.19132 0.0
H2607 H 0.88091 0.13759 0.20952 0.0
C2608 C 0.83159 0.07381 0.15015 0.0
C2609 C 0.84216 0.05463 0.14208 0.0
C2610 C 0.84441 0.09088 0.15667 0.0
C2611 C 0.86811 0.08888 0.15586 0.0
C2612 C 0.87861 0.06971 0.14747 0.0
C2613 C 0.86578 0.05289 0.14046 0.0
C2614 C 0.91777 0.12328 0.16748 0.0
C2615 C 0.90987 0.13313 0.18683 0.0
C2616 C 0.90377 0.10998 0.15662 0.0
C2617 C 0.88177 0.10582 0.1652 0.0
C2618 C 0.87358 0.1167 0.18396 0.0
C2619 C 0.88741 0.13038 0.19451 0.0
H2620 H 0.68516 0.15283 0.94625 0.0
H2621 H 0.61477 0.13744 0.94782 0.0
H2622 H 0.69537 0.11709 0.93214 0.0
H2623 H 0.6249 0.10081 0.93504 0.0
H2624 H 0.65172 0.04812 0.88739 0.0
H2625 H 0.63784 0.0806 0.90581 0.0
H2626 H 0.69919 0.08008 0.94091 0.0
H2627 H 0.71381 0.04883 0.9205 0.0
C2628 C 0.67187 0.14166 0.94362 0.0
C2629 C 0.64921 0.14791 0.94796 0.0
C2630 C 0.6777 0.12095 0.93588 0.0
C2631 C 0.66104 0.10565 0.93283 0.0
C2632 C 0.63824 0.11209 0.93698 0.0
C2633 C 0.63239 0.13311 0.94427 0.0
C2634 C 0.66204 0.05467 0.8993 0.0
C2635 C 0.68393 0.04615 0.90232 0.0
C2636 C 0.65403 0.07337 0.91005 0.0
C2637 C 0.66762 0.08356 0.92445 0.0
C2638 C 0.68856 0.07334 0.92926 0.0
C2639 C 0.6968 0.05511 0.91797 0.0
H2640 H 0.6005 0.11109 0.7359 0.0
H2641 H 0.55903 0.11114 0.79604 0.0
H2642 H 0.63382 0.10213 0.75657 0.0
H2643 H 0.59167 0.10031 0.81682 0.0
H2644 H 0.64793 0.07566 0.85279 0.0
H2645 H 0.62598 0.10289 0.83148 0.0
H2646 H 0.64688 0.06966 0.77231 0.0
H2647 H 0.67015 0.04394 0.79354 0.0
C2648 C 0.59872 0.10943 0.75366 0.0
C2649 C 0.57746 0.1115 0.76457 0.0
C2650 C 0.6177 0.10412 0.76551 0.0
C2651 C 0.61551 0.09988 0.78838 0.0
C2652 C 0.59427 0.10363 0.79931 0.0
C2653 C 0.57543 0.10966 0.78746 0.0
C2654 C 0.64832 0.07483 0.8351 0.0
C2655 C 0.66032 0.05773 0.82468 0.0
C2656 C 0.63562 0.09025 0.8229 0.0
C2657 C 0.63397 0.08817 0.80021 0.0
C2658 C 0.64771 0.07207 0.78966 0.0
C2659 C 0.661 0.05714 0.80181 0.0
H2660 H 0.71946 0.92504 0.55293 0.0
H2661 H 0.67329 0.91302 0.60899 0.0
H2662 H 0.70077 0.89847 0.53282 0.0
H2663 H 0.65318 0.88729 0.58828 0.0
H2664 H 0.65243 0.81832 0.55898 0.0
H2665 H 0.66059 0.85134 0.57784 0.0
H2666 H 0.67066 0.88702 0.51495 0.0
H2667 H 0.66435 0.85346 0.4965 0.0
C2668 C 0.70477 0.91715 0.56064 0.0
C2669 C 0.69794 0.92062 0.5825 0.0
C2670 C 0.69386 0.90202 0.54906 0.0
C2671 C 0.67551 0.89052 0.55898 0.0
C2672 C 0.66762 0.89541 0.58037 0.0
C2673 C 0.67898 0.91015 0.59218 0.0
C2674 C 0.65626 0.83337 0.54942 0.0
C2675 C 0.65834 0.83355 0.52653 0.0
C2676 C 0.66065 0.85236 0.5601 0.0
C2677 C 0.66663 0.87182 0.5479 0.0
C2678 C 0.66681 0.8722 0.52487 0.0
C2679 C 0.6631 0.85309 0.51428 0.0
H2680 H 0.84287 0.00437 0.35226 0.0
H2681 H 0.79875 0.95822 0.32633 0.0
H2682 H 0.87538 0.98522 0.33508 0.0
H2683 H 0.8316 0.93861 0.30978 0.0
H2684 H 0.90198 0.89891 0.30565 0.0
H2685 H 0.86898 0.91663 0.3245 0.0
H2686 H 0.8873 0.97951 0.29375 0.0
H2687 H 0.91979 0.96203 0.2749 0.0
C2688 C 0.84009 0.99005 0.34306 0.0
C2689 C 0.81822 0.98259 0.34099 0.0
C2690 C 0.85872 0.9791 0.33327 0.0
C2691 C 0.85593 0.96032 0.32142 0.0
C2692 C 0.83414 0.95284 0.3192 0.0
C2693 C 0.8154 0.9641 0.32863 0.0
C2694 C 0.899 0.91653 0.30316 0.0
C2695 C 0.9134 0.92912 0.28888 0.0
C2696 C 0.88011 0.92658 0.31373 0.0
C2697 C 0.87572 0.94937 0.31048 0.0
C2698 C 0.89042 0.96194 0.29659 0.0
C2699 C 0.90896 0.9519 0.2858 0.0
H2700 H 0.78948 0.14007 0.00915 0.0
H2701 H 0.85523 0.14359 0.03557 0.0
H2702 H 0.7843 0.10441 0.02872 0.0
H2703 H 0.8499 0.10792 0.0551 0.0
H2704 H 0.80442 0.07177 0.11215 0.0
H2705 H 0.81996 0.1001 0.08688 0.0
H2706 H 0.80184 0.06348 0.0321 0.0
H2707 H 0.78715 0.03421 0.05786 0.0
C2708 C 0.80285 0.13321 0.01904 0.0
C2709 C 0.82261 0.14477 0.02112 0.0
C2710 C 0.80002 0.11266 0.02991 0.0
C2711 C 0.81684 0.10344 0.04313 0.0
C2712 C 0.83679 0.11473 0.04485 0.0
C2713 C 0.83971 0.13519 0.03386 0.0
C2714 C 0.80478 0.06924 0.09474 0.0
C2715 C 0.79505 0.05075 0.08686 0.0
C2716 C 0.81357 0.08548 0.08027 0.0
C2717 C 0.81206 0.08388 0.05762 0.0
C2718 C 0.80324 0.06491 0.04957 0.0
C2719 C 0.79502 0.0482 0.06419 0.0
H2720 H 0.60962 0.67283 0.95649 0.0
H2721 H 0.67228 0.70342 0.96695 0.0
H2722 H 0.63042 0.64009 0.94362 0.0
H2723 H 0.69319 0.67031 0.95462 0.0
H2724 H 0.71006 0.59513 0.97197 0.0
H2725 H 0.69117 0.63094 0.97602 0.0
H2726 H 0.6618 0.62628 0.91347 0.0
H2727 H 0.68118 0.59026 0.90903 0.0
C2728 C 0.62789 0.67266 0.95553 0.0
C2729 C 0.63947 0.69045 0.96267 0.0
C2730 C 0.63974 0.65403 0.94811 0.0
C2731 C 0.66332 0.65272 0.9483 0.0
C2732 C 0.67497 0.67101 0.95438 0.0
C2733 C 0.66309 0.68992 0.96128 0.0
C2734 C 0.69956 0.60161 0.95904 0.0
C2735 C 0.69703 0.58979 0.9402 0.0
C2736 C 0.68899 0.62226 0.96128 0.0
C2737 C 0.67539 0.63142 0.9449 0.0
C2738 C 0.6724 0.61953 0.92622 0.0
C2739 C 0.68334 0.59894 0.92377 0.0
H2740 H 0.22887 0.91199 0.0987 0.0
H2741 H 0.17194 0.94313 0.13335 0.0
H2742 H 0.20521 0.88281 0.08898 0.0
H2743 H 0.14796 0.91344 0.12358 0.0
H2744 H 0.11575 0.87891 0.06431 0.0
H2745 H 0.13442 0.90359 0.08711 0.0
H2746 H 0.18273 0.85143 0.10373 0.0
H2747 H 0.16435 0.82682 0.08061 0.0
C2748 C 0.21128 0.91247 0.10443 0.0
C2749 C 0.20213 0.92997 0.11651 0.0
C2750 C 0.19778 0.89556 0.09911 0.0
C2751 C 0.17477 0.8958 0.10564 0.0
C2752 C 0.16567 0.91293 0.11835 0.0
C2753 C 0.17934 0.92985 0.12391 0.0
C2754 C 0.13006 0.87256 0.07319 0.0
C2755 C 0.13903 0.85117 0.07016 0.0
C2756 C 0.14062 0.88665 0.08643 0.0
C2757 C 0.16025 0.8795 0.09684 0.0
C2758 C 0.16784 0.85743 0.09553 0.0
C2759 C 0.15733 0.84338 0.08229 0.0
H2760 H 0.83823 0.47587 0.85717 0.0
H2761 H 0.79896 0.42366 0.88906 0.0
H2762 H 0.86658 0.44895 0.84483 0.0
H2763 H 0.82772 0.39647 0.8767 0.0
H2764 H 0.86507 0.36244 0.81521 0.0
H2765 H 0.83962 0.3836 0.83938 0.0
H2766 H 0.89538 0.42144 0.85717 0.0
H2767 H 0.92081 0.40057 0.83275 0.0
C2768 C 0.83578 0.45862 0.86178 0.0
C2769 C 0.81627 0.45184 0.87389 0.0
C2770 C 0.85218 0.4432 0.85491 0.0
C2771 C 0.84941 0.4206 0.85991 0.0
C2772 C 0.83023 0.4138 0.8726 0.0
C2773 C 0.81383 0.42933 0.87968 0.0
C2774 C 0.87201 0.37489 0.8247 0.0
C2775 C 0.89481 0.38025 0.82165 0.0
C2776 C 0.85744 0.38692 0.83866 0.0
C2777 C 0.86548 0.40444 0.8498 0.0
C2778 C 0.88868 0.4083 0.84841 0.0
C2779 C 0.90323 0.39631 0.83446 0.0
H2780 H 0.34808 0.14694 0.56042 0.0
H2781 H 0.27931 0.17255 0.56503 0.0
H2782 H 0.33687 0.11377 0.58175 0.0
H2783 H 0.26799 0.13909 0.58602 0.0
H2784 H 0.25559 0.08162 0.63395 0.0
H2785 H 0.2712 0.11664 0.62036 0.0
H2786 H 0.31513 0.08235 0.57379 0.0
H2787 H 0.29982 0.04738 0.58754 0.0
C2788 C 0.33056 0.14551 0.56605 0.0
C2789 C 0.3145 0.16221 0.56079 0.0
C2790 C 0.32415 0.12649 0.57825 0.0
C2791 C 0.30153 0.12369 0.5854 0.0
C2792 C 0.28561 0.14082 0.58095 0.0
C2793 C 0.29206 0.15995 0.56881 0.0
C2794 C 0.269 0.08148 0.6212 0.0
C2795 C 0.27642 0.06169 0.61175 0.0
C2796 C 0.27776 0.1016 0.61326 0.0
C2797 C 0.29423 0.10231 0.59586 0.0
C2798 C 0.30259 0.08239 0.58734 0.0
C2799 C 0.29377 0.06231 0.59518 0.0
H2800 H 0.07206 0.09266 0.77936 0.0
H2801 H 0.0186 0.06556 0.82234 0.0
H2802 H 0.09977 0.07163 0.79993 0.0
H2803 H 0.04675 0.04464 0.84349 0.0
H2804 H 0.10338 0.98952 0.85154 0.0
H2805 H 0.07304 0.01346 0.83788 0.0
H2806 H 0.11704 0.06878 0.83469 0.0
H2807 H 0.14767 0.04464 0.84765 0.0
C2808 C 0.06621 0.08233 0.79336 0.0
C2809 C 0.0431 0.08071 0.79919 0.0
C2810 C 0.08217 0.07044 0.80533 0.0
C2811 C 0.07549 0.05664 0.82349 0.0
C2812 C 0.05238 0.05509 0.8295 0.0
C2813 C 0.03629 0.06704 0.81743 0.0
C2814 C 0.10651 0.00685 0.84818 0.0
C2815 C 0.12801 0.01516 0.85027 0.0
C2816 C 0.08904 0.0206 0.84051 0.0
C2817 C 0.09273 0.04294 0.83495 0.0
C2818 C 0.11385 0.05151 0.8384 0.0
C2819 C 0.13137 0.03772 0.84586 0.0
H2820 H 0.81214 0.43636 0.45508 0.0
H2821 H 0.76729 0.40044 0.41811 0.0
H2822 H 0.83166 0.40189 0.46635 0.0
H2823 H 0.78549 0.36573 0.43054 0.0
H2824 H 0.83533 0.30874 0.43951 0.0
H2825 H 0.81802 0.34343 0.42682 0.0
H2826 H 0.82747 0.37039 0.48968 0.0
H2827 H 0.84601 0.33598 0.50194 0.0
C2828 C 0.80649 0.42096 0.44949 0.0
C2829 C 0.78849 0.42084 0.43566 0.0
C2830 C 0.81744 0.40121 0.4561 0.0
C2831 C 0.81011 0.38092 0.4495 0.0
C2832 C 0.79194 0.38099 0.43561 0.0
C2833 C 0.78142 0.40081 0.42854 0.0
C2834 C 0.8338 0.32206 0.45065 0.0
C2835 C 0.84201 0.3195 0.47182 0.0
C2836 C 0.82367 0.34197 0.4434 0.0
C2837 C 0.82121 0.35979 0.4572 0.0
C2838 C 0.82935 0.35719 0.47843 0.0
C2839 C 0.83977 0.33732 0.48559 0.0
H2840 H 0.94305 0.56501 0.71525 0.0
H2841 H 0.89241 0.61459 0.73315 0.0
H2842 H 0.91605 0.54815 0.69285 0.0
H2843 H 0.86562 0.59783 0.7109 0.0
H2844 H 0.82489 0.5697 0.65946 0.0
H2845 H 0.8569 0.58886 0.67248 0.0
H2846 H 0.88093 0.52796 0.70416 0.0
H2847 H 0.84931 0.50899 0.69127 0.0
C2848 C 0.92626 0.57241 0.7142 0.0
C2849 C 0.91972 0.5909 0.72617 0.0
C2850 C 0.91085 0.5628 0.7014 0.0
C2851 C 0.88874 0.5717 0.70015 0.0
C2852 C 0.88259 0.59076 0.71135 0.0
C2853 C 0.89786 0.60017 0.72432 0.0
C2854 C 0.83724 0.56042 0.66891 0.0
C2855 C 0.83446 0.53797 0.67463 0.0
C2856 C 0.85548 0.57135 0.67639 0.0
C2857 C 0.87135 0.55988 0.68938 0.0
C2858 C 0.86914 0.53719 0.69401 0.0
C2859 C 0.85085 0.52639 0.68681 0.0
H2860 H 0.66062 0.43529 0.22255 0.0
H2861 H 0.65706 0.41418 0.15642 0.0
H2862 H 0.62708 0.41485 0.23385 0.0
H2863 H 0.62325 0.39365 0.16783 0.0
H2864 H 0.54767 0.38565 0.19457 0.0
H2865 H 0.58244 0.40383 0.18158 0.0
H2866 H 0.61593 0.37522 0.23776 0.0
H2867 H 0.58158 0.35706 0.25063 0.0
C2868 C 0.6528 0.42608 0.21048 0.0
C2869 C 0.66151 0.42625 0.18863 0.0
C2870 C 0.63361 0.41436 0.21696 0.0
C2871 C 0.62257 0.40273 0.20169 0.0
C2872 C 0.63139 0.40263 0.17987 0.0
C2873 C 0.65083 0.41416 0.17342 0.0
C2874 C 0.56249 0.38323 0.20408 0.0
C2875 C 0.56181 0.37005 0.2237 0.0
C2876 C 0.58239 0.39349 0.19658 0.0
C2877 C 0.60182 0.39093 0.20871 0.0
C2878 C 0.60115 0.37762 0.22818 0.0
C2879 C 0.58144 0.3672 0.23552 0.0
H2880 H 0.54202 0.7783 0.9188 0.0
H2881 H 0.60854 0.80481 0.91943 0.0
H2882 H 0.53496 0.80034 0.88548 0.0
H2883 H 0.60105 0.82746 0.88585 0.0
H2884 H 0.55375 0.8821 0.84561 0.0
H2885 H 0.56925 0.85985 0.87617 0.0
H2886 H 0.5539 0.8005 0.84499 0.0
H2887 H 0.53862 0.82258 0.81437 0.0
C2888 C 0.55511 0.78899 0.91194 0.0
C2889 C 0.57584 0.78987 0.92179 0.0
C2890 C 0.5511 0.80143 0.89272 0.0
C2891 C 0.56758 0.81531 0.88305 0.0
C2892 C 0.58817 0.81672 0.89304 0.0
C2893 C 0.5924 0.80386 0.9122 0.0
C2894 C 0.55408 0.8643 0.84511 0.0
C2895 C 0.54467 0.85404 0.82782 0.0
C2896 C 0.5631 0.85163 0.86248 0.0
C2897 C 0.56253 0.82857 0.8629 0.0
C2898 C 0.55437 0.81831 0.845 0.0
C2899 C 0.54567 0.83094 0.82751 0.0
H2900 H 0.39794 0.3369 0.07515 0.0
H2901 H 0.44288 0.27935 0.07482 0.0
H2902 H 0.41135 0.34601 0.1106 0.0
H2903 H 0.4562 0.28857 0.11005 0.0
H2904 H 0.44678 0.29036 0.18364 0.0
H2905 H 0.43416 0.28686 0.14689 0.0
H2906 H 0.44625 0.35569 0.13137 0.0
H2907 H 0.45912 0.35933 0.16841 0.0
C2908 C 0.41108 0.32653 0.08232 0.0
C2909 C 0.41908 0.30719 0.07236 0.0
C2910 C 0.41869 0.33175 0.10263 0.0
C2911 C 0.43436 0.31768 0.11324 0.0
C2912 C 0.44368 0.29938 0.10242 0.0
C2913 C 0.43617 0.29421 0.08217 0.0
C2914 C 0.44643 0.3049 0.17259 0.0
C2915 C 0.4542 0.32507 0.17889 0.0
C2916 C 0.43941 0.30281 0.15145 0.0
C2917 C 0.43982 0.32087 0.13616 0.0
C2918 C 0.44598 0.34148 0.14285 0.0
C2919 C 0.45321 0.34356 0.16406 0.0
H2920 H 0.87062 0.22892 0.40963 0.0
H2921 H 0.92863 0.19404 0.43587 0.0
H2922 H 0.88265 0.21804 0.373 0.0
H2923 H 0.9401 0.18224 0.39936 0.0
H2924 H 0.973 0.1934 0.33244 0.0
H2925 H 0.95662 0.20198 0.36837 0.0
H2926 H 0.89013 0.19067 0.34669 0.0
H2927 H 0.90663 0.18329 0.31014 0.0
C2928 C 0.88554 0.21829 0.40771 0.0
C2929 C 0.89895 0.21265 0.42556 0.0
C2930 C 0.89244 0.21206 0.38666 0.0
C2931 C 0.91269 0.19983 0.38317 0.0
C2932 C 0.92483 0.19235 0.40141 0.0
C2933 C 0.91812 0.19884 0.42238 0.0
C2934 C 0.95486 0.19304 0.3353 0.0
C2935 C 0.94108 0.18742 0.31869 0.0
C2936 C 0.94547 0.19763 0.35596 0.0
C2937 C 0.92213 0.19627 0.36063 0.0
C2938 C 0.90819 0.19173 0.34365 0.0
C2939 C 0.9176 0.18754 0.32274 0.0
H2940 H 0.03136 0.71449 0.58078 0.0
H2941 H 0.0776 0.6581 0.57798 0.0
H2942 H 0.01439 0.69945 0.61531 0.0
H2943 H 0.0606 0.64303 0.61269 0.0
H2944 H 0.01087 0.61906 0.67098 0.0
H2945 H 0.02532 0.62913 0.63356 0.0
H2946 H 0.03158 0.69631 0.65166 0.0
H2947 H 0.01718 0.68643 0.68868 0.0
C2948 C 0.03767 0.69872 0.58741 0.0
C2949 C 0.05609 0.68769 0.577 0.0
C2950 C 0.02801 0.69015 0.60717 0.0
C2951 C 0.03661 0.67037 0.61691 0.0
C2952 C 0.05373 0.65835 0.60556 0.0
C2953 C 0.06342 0.66696 0.5857 0.0
C2954 C 0.0157 0.63588 0.667 0.0
C2955 C 0.01278 0.652 0.68271 0.0
C2956 C 0.02384 0.64163 0.6456 0.0
C2957 C 0.02906 0.66358 0.63964 0.0
C2958 C 0.02709 0.67938 0.65565 0.0
C2959 C 0.01906 0.67367 0.67692 0.0
H2960 H 0.5113 0.14744 0.66003 0.0
H2961 H 0.53135 0.19435 0.70547 0.0
H2962 H 0.53517 0.16504 0.63097 0.0
H2963 H 0.55517 0.21209 0.67617 0.0
H2964 H 0.56051 0.25258 0.60788 0.0
H2965 H 0.54392 0.23338 0.64049 0.0
H2966 H 0.57752 0.17264 0.62132 0.0
H2967 H 0.59438 0.19197 0.5885 0.0
C2968 C 0.52084 0.16149 0.66379 0.0
C2969 C 0.51946 0.16964 0.68493 0.0
C2970 C 0.53469 0.17135 0.64725 0.0
C2971 C 0.54704 0.18975 0.65147 0.0
C2972 C 0.54579 0.19785 0.67262 0.0
C2973 C 0.53218 0.18778 0.68929 0.0
C2974 C 0.56454 0.23517 0.61071 0.0
C2975 C 0.57847 0.22364 0.59559 0.0
C2976 C 0.55522 0.22427 0.62946 0.0
C2977 C 0.55946 0.2016 0.63327 0.0
C2978 C 0.57399 0.19015 0.61857 0.0
C2979 C 0.58362 0.20117 0.5999 0.0
H2980 H 0.02241 0.29183 0.83219 0.0
H2981 H 0.05495 0.35451 0.82603 0.0
H2982 H 0.04414 0.28099 0.86376 0.0
H2983 H 0.07707 0.34343 0.85759 0.0
H2984 H 0.09275 0.32572 0.92929 0.0
H2985 H 0.07087 0.33649 0.89746 0.0
H2986 H 0.08288 0.27141 0.873 0.0
H2987 H 0.10497 0.26097 0.90464 0.0
C2988 C 0.03436 0.30325 0.83745 0.0
C2989 C 0.03694 0.32406 0.82662 0.0
C2990 C 0.04688 0.29697 0.85552 0.0
C2991 C 0.06225 0.31137 0.86321 0.0
C2992 C 0.06511 0.33209 0.8522 0.0
C2993 C 0.0526 0.33837 0.83403 0.0
C2994 C 0.09041 0.31371 0.91719 0.0
C2995 C 0.09975 0.29225 0.91974 0.0
C2996 C 0.0781 0.3199 0.89891 0.0
C2997 C 0.07509 0.30478 0.88276 0.0
C2998 C 0.08449 0.2833 0.88538 0.0
C2999 C 0.09684 0.27717 0.90363 0.0
H3000 H 0.94865 0.87501 0.1278 0.0
H3001 H 0.91206 0.85408 0.18789 0.0
H3002 H 0.92042 0.85954 0.10662 0.0
H3003 H 0.88277 0.8397 0.16669 0.0
H3004 H 0.8604 0.78565 0.12252 0.0
H3005 H 0.87912 0.80902 0.14636 0.0
H3006 H 0.88475 0.85932 0.09363 0.0
H3007 H 0.86746 0.83497 0.06938 0.0
C3008 C 0.93419 0.86757 0.13646 0.0
C3009 C 0.93268 0.8654 0.15942 0.0
C3010 C 0.9178 0.85887 0.12431 0.0
C3011 C 0.89924 0.8482 0.13488 0.0
C3012 C 0.89706 0.84733 0.15797 0.0
C3013 C 0.91377 0.85563 0.17013 0.0
C3014 C 0.86522 0.80191 0.11623 0.0
C3015 C 0.86286 0.80848 0.09412 0.0
C3016 C 0.87587 0.81543 0.12993 0.0
C3017 C 0.88389 0.83598 0.12185 0.0
C3018 C 0.87948 0.84332 0.10022 0.0
C3019 C 0.86941 0.82951 0.08636 0.0
H3020 H 0.4929 0.67217 0.37596 0.0
H3021 H 0.4476 0.62076 0.36339 0.0
H3022 H 0.46963 0.68126 0.40855 0.0
H3023 H 0.42409 0.63015 0.39602 0.0
H3024 H 0.3767 0.68993 0.42242 0.0
H3025 H 0.40176 0.66804 0.39878 0.0
H3026 H 0.45222 0.66601 0.44714 0.0
H3027 H 0.42653 0.68758 0.47142 0.0
C3028 C 0.47812 0.66262 0.38035 0.0
C3029 C 0.47177 0.64605 0.36698 0.0
C3030 C 0.46501 0.66763 0.39916 0.0
C3031 C 0.44517 0.65635 0.40473 0.0
C3032 C 0.43941 0.63899 0.39202 0.0
C3033 C 0.45276 0.63372 0.37337 0.0
C3034 C 0.39291 0.68435 0.42828 0.0
C3035 C 0.39981 0.69045 0.44865 0.0
C3036 C 0.40716 0.67166 0.41483 0.0
C3037 C 0.42882 0.66533 0.42123 0.0
C3038 C 0.43548 0.67065 0.44199 0.0
C3039 C 0.42088 0.68292 0.4558 0.0
H3040 H 0.81774 0.53129 0.89818 0.0
H3041 H 0.76944 0.56225 0.855 0.0
H3042 H 0.84793 0.55111 0.87826 0.0
H3043 H 0.79988 0.58226 0.83498 0.0
H3044 H 0.86486 0.57712 0.78756 0.0
H3045 H 0.83171 0.56747 0.81066 0.0
H3046 H 0.86392 0.58813 0.86748 0.0
H3047 H 0.89739 0.5979 0.84417 0.0
C3048 C 0.81353 0.54258 0.88459 0.0
C3049 C 0.79129 0.54496 0.87789 0.0
C3050 C 0.83081 0.55412 0.87333 0.0
C3051 C 0.82628 0.56813 0.855 0.0
C3052 C 0.80385 0.57139 0.84896 0.0
C3053 C 0.78646 0.55999 0.86041 0.0
C3054 C 0.86485 0.57979 0.80496 0.0
C3055 C 0.88385 0.58795 0.81414 0.0
C3056 C 0.84572 0.57451 0.81814 0.0
C3057 C 0.84523 0.57705 0.84086 0.0
C3058 C 0.86392 0.58593 0.85 0.0
C3059 C 0.88303 0.59152 0.8367 0.0
H3060 H 0.67302 0.59407 0.14364 0.0
H3061 H 0.67508 0.54987 0.09033 0.0
H3062 H 0.65609 0.62303 0.1201 0.0
H3063 H 0.65793 0.57876 0.06693 0.0
H3064 H 0.66473 0.64484 0.02625 0.0
H3065 H 0.67394 0.61329 0.05058 0.0
H3066 H 0.62302 0.63518 0.09855 0.0
H3067 H 0.61389 0.66712 0.07421 0.0
C3068 C 0.66942 0.59039 0.12706 0.0
C3069 C 0.67565 0.5698 0.11876 0.0
C3070 C 0.65963 0.60695 0.11361 0.0
C3071 C 0.65598 0.60322 0.09161 0.0
C3072 C 0.6609 0.58218 0.08374 0.0
C3073 C 0.67057 0.5656 0.0972 0.0
C3074 C 0.65538 0.64292 0.04192 0.0
C3075 C 0.63866 0.65855 0.04836 0.0
C3076 C 0.66053 0.62471 0.05578 0.0
C3077 C 0.6491 0.62172 0.07642 0.0
C3078 C 0.63215 0.63716 0.08277 0.0
C3079 C 0.62691 0.65539 0.06883 0.0
H3080 H 0.67907 0.42772 0.3124 0.0
H3081 H 0.66138 0.39394 0.37463 0.0
H3082 H 0.64804 0.41063 0.29602 0.0
H3083 H 0.62977 0.37758 0.35851 0.0
H3084 H 0.57698 0.34584 0.31864 0.0
H3085 H 0.61337 0.35437 0.33276 0.0
H3086 H 0.60866 0.41951 0.301 0.0
H3087 H 0.57307 0.41091 0.28672 0.0
C3088 C 0.66882 0.41631 0.32246 0.0
C3089 C 0.67239 0.4125 0.34487 0.0
C3090 C 0.65091 0.40666 0.31315 0.0
C3091 C 0.63599 0.39331 0.32615 0.0
C3092 C 0.64087 0.38783 0.34805 0.0
C3093 C 0.65901 0.39726 0.3573 0.0
C3094 C 0.58373 0.36201 0.3149 0.0
C3095 C 0.5722 0.3777 0.30158 0.0
C3096 C 0.60458 0.36686 0.32287 0.0
C3097 C 0.61417 0.38746 0.31762 0.0
C3098 C 0.6022 0.40323 0.30479 0.0
C3099 C 0.58158 0.39839 0.29683 0.0
H3100 H 0.8535 0.30574 0.58663 0.0
H3101 H 0.81462 0.34153 0.53777 0.0
H3102 H 0.84816 0.33682 0.61059 0.0
H3103 H 0.80941 0.37229 0.56153 0.0
H3104 H 0.81337 0.43032 0.59923 0.0
H3105 H 0.83178 0.40105 0.57837 0.0
H3106 H 0.81305 0.35331 0.63045 0.0
H3107 H 0.79478 0.38255 0.65149 0.0
C3108 C 0.84386 0.32021 0.58103 0.0
C3109 C 0.83418 0.32113 0.56052 0.0
C3110 C 0.84093 0.33796 0.59466 0.0
C3111 C 0.82861 0.35695 0.58777 0.0
C3112 C 0.81934 0.35797 0.56708 0.0
C3113 C 0.82201 0.34021 0.55363 0.0
C3114 C 0.81367 0.41367 0.60649 0.0
C3115 C 0.80203 0.40857 0.62666 0.0
C3116 C 0.8242 0.39696 0.59455 0.0
C3117 C 0.82332 0.37495 0.60264 0.0
C3118 C 0.8139 0.37017 0.62385 0.0
C3119 C 0.80332 0.3869 0.63582 0.0
H3120 H 0.89644 0.3854 0.71052 0.0
H3121 H 0.87396 0.42728 0.76299 0.0
H3122 H 0.86436 0.39899 0.68948 0.0
H3123 H 0.84203 0.4406 0.74214 0.0
H3124 H 0.77808 0.44911 0.70461 0.0
H3125 H 0.80596 0.42758 0.72574 0.0
H3126 H 0.85604 0.43798 0.67261 0.0
H3127 H 0.82851 0.45951 0.65173 0.0
C3128 C 0.88452 0.39726 0.71764 0.0
C3129 C 0.88781 0.4055 0.73822 0.0
C3130 C 0.86623 0.40501 0.70565 0.0
C3131 C 0.85076 0.42077 0.71427 0.0
C3132 C 0.85357 0.42827 0.73524 0.0
C3133 C 0.87198 0.42081 0.74704 0.0
C3134 C 0.79497 0.44649 0.69741 0.0
C3135 C 0.80124 0.4561 0.67669 0.0
C3136 C 0.81086 0.43425 0.70945 0.0
C3137 C 0.83308 0.43114 0.70073 0.0
C3138 C 0.83898 0.43993 0.6796 0.0
C3139 C 0.82327 0.45244 0.66778 0.0
H3140 H 0.76084 0.62258 0.9143 0.0
H3141 H 0.80551 0.57013 0.93796 0.0
H3142 H 0.78417 0.64963 0.92898 0.0
H3143 H 0.82984 0.59728 0.95163 0.0
H3144 H 0.8435 0.64789 0.00237 0.0
H3145 H 0.82855 0.62003 0.98104 0.0
H3146 H 0.81758 0.66875 0.92815 0.0
H3147 H 0.83145 0.69711 0.95029 0.0
C3148 C 0.77601 0.61691 0.92223 0.0
C3149 C 0.78128 0.59432 0.92529 0.0
C3150 C 0.78955 0.63243 0.93048 0.0
C3151 C 0.80894 0.62572 0.9416 0.0
C3152 C 0.8148 0.60306 0.9436 0.0
C3153 C 0.80094 0.58749 0.93574 0.0
C3154 C 0.83829 0.65266 0.98604 0.0
C3155 C 0.8383 0.67482 0.97817 0.0
C3156 C 0.82982 0.63655 0.97366 0.0
C3157 C 0.82152 0.64211 0.95292 0.0
C3158 C 0.82327 0.66397 0.9443 0.0
C3159 C 0.83142 0.68021 0.95689 0.0
H3160 H 0.59589 0.555 0.25841 0.0
H3161 H 0.56996 0.58484 0.19875 0.0
H3162 H 0.62948 0.5419 0.23789 0.0
H3163 H 0.60385 0.57138 0.17799 0.0
H3164 H 0.64793 0.50861 0.15407 0.0
H3165 H 0.61739 0.53097 0.17087 0.0
H3166 H 0.6638 0.55606 0.21469 0.0
H3167 H 0.69447 0.53375 0.19781 0.0
C3168 C 0.59746 0.55886 0.24088 0.0
C3169 C 0.58023 0.57065 0.23006 0.0
C3170 C 0.6168 0.55157 0.2292 0.0
C3171 C 0.61919 0.55568 0.20641 0.0
C3172 C 0.60229 0.56801 0.19559 0.0
C3173 C 0.58299 0.57568 0.20741 0.0
C3174 C 0.65164 0.51906 0.16715 0.0
C3175 C 0.67345 0.51927 0.17488 0.0
C3176 C 0.63425 0.53204 0.17655 0.0
C3177 C 0.63831 0.54517 0.19403 0.0
C3178 C 0.66029 0.54599 0.20124 0.0
C3179 C 0.67776 0.53324 0.19164 0.0
H3180 H 0.66983 0.45916 0.44054 0.0
H3181 H 0.73389 0.42737 0.42359 0.0
H3182 H 0.66058 0.42823 0.46628 0.0
H3183 H 0.72493 0.39648 0.44903 0.0
H3184 H 0.70359 0.3442 0.49992 0.0
H3185 H 0.71542 0.38035 0.48549 0.0
H3186 H 0.65112 0.39157 0.45629 0.0
H3187 H 0.63908 0.35574 0.47114 0.0
C3188 C 0.6823 0.44596 0.4431 0.0
C3189 C 0.70277 0.44568 0.43058 0.0
C3190 C 0.67696 0.4282 0.45758 0.0
C3191 C 0.69189 0.40981 0.45937 0.0
C3192 C 0.7132 0.41052 0.44824 0.0
C3193 C 0.71854 0.42834 0.43388 0.0
C3194 C 0.69198 0.35439 0.49041 0.0
C3195 C 0.67047 0.34708 0.48646 0.0
C3196 C 0.69874 0.37511 0.48226 0.0
C3197 C 0.68413 0.38885 0.46999 0.0
C3198 C 0.66258 0.38155 0.46615 0.0
C3199 C 0.65579 0.36089 0.47435 0.0
H3200 H 0.82576 0.82861 0.51226 0.0
H3201 H 0.85504 0.81271 0.5746 0.0
H3202 H 0.80851 0.86201 0.52665 0.0
H3203 H 0.83802 0.84663 0.5889 0.0
H3204 H 0.78364 0.90084 0.61035 0.0
H3205 H 0.80192 0.86603 0.59927 0.0
H3206 H 0.82194 0.89709 0.53632 0.0
H3207 H 0.80343 0.93141 0.54714 0.0
C3208 C 0.82848 0.83216 0.52908 0.0
C3209 C 0.84193 0.81796 0.5422 0.0
C3210 C 0.81871 0.85147 0.5373 0.0
C3211 C 0.82221 0.85722 0.55882 0.0
C3212 C 0.83498 0.84267 0.57226 0.0
C3213 C 0.84476 0.82325 0.56403 0.0
C3214 C 0.79234 0.90027 0.59433 0.0
C3215 C 0.79196 0.9188 0.57955 0.0
C3216 C 0.80275 0.88034 0.58795 0.0
C3217 C 0.81298 0.87866 0.56673 0.0
C3218 C 0.81367 0.89761 0.55254 0.0
C3219 C 0.80323 0.91737 0.55883 0.0
H3220 H 0.23983 0.59726 0.42414 0.0
H3221 H 0.28481 0.58851 0.36703 0.0
H3222 H 0.26163 0.62789 0.43422 0.0
H3223 H 0.30693 0.61938 0.37732 0.0
H3224 H 0.35444 0.64402 0.43155 0.0
H3225 H 0.33124 0.6218 0.4102 0.0
H3226 H 0.27422 0.66627 0.42269 0.0
H3227 H 0.29749 0.68858 0.44414 0.0
C3228 C 0.25428 0.60207 0.4136 0.0
C3229 C 0.26085 0.59034 0.39498 0.0
C3230 C 0.2666 0.6198 0.41924 0.0
C3231 C 0.28594 0.62604 0.40652 0.0
C3232 C 0.29208 0.61486 0.38739 0.0
C3233 C 0.27946 0.59726 0.38152 0.0
C3234 C 0.33708 0.64934 0.4293 0.0
C3235 C 0.32763 0.6678 0.43974 0.0
C3236 C 0.32387 0.63672 0.41692 0.0
C3237 C 0.3009 0.64223 0.41497 0.0
C3238 C 0.29186 0.66161 0.42409 0.0
C3239 C 0.30518 0.6744 0.43627 0.0
H3240 H 0.55822 0.08463 0.68897 0.0
H3241 H 0.58873 0.14598 0.66727 0.0
H3242 H 0.58765 0.06436 0.66916 0.0
H3243 H 0.61786 0.12566 0.64596 0.0
H3244 H 0.68257 0.08021 0.64303 0.0
H3245 H 0.65012 0.10413 0.65291 0.0
H3246 H 0.60544 0.05305 0.63744 0.0
H3247 H 0.63793 0.02882 0.62941 0.0
C3248 C 0.57089 0.09383 0.67932 0.0
C3249 C 0.5714 0.11684 0.67987 0.0
C3250 C 0.58781 0.08218 0.66775 0.0
C3251 C 0.6054 0.09329 0.65596 0.0
C3252 C 0.60494 0.1165 0.65527 0.0
C3253 C 0.5882 0.12817 0.66732 0.0
C3254 C 0.66575 0.07436 0.64154 0.0
C3255 C 0.66259 0.05269 0.63592 0.0
C3256 C 0.6471 0.08807 0.64702 0.0
C3257 C 0.62502 0.08044 0.64641 0.0
C3258 C 0.6221 0.05929 0.63889 0.0
C3259 C 0.64069 0.04543 0.63411 0.0
H3260 H 0.22963 0.33544 0.95227 0.0
H3261 H 0.18457 0.3133 0.90533 0.0
H3262 H 0.23469 0.36953 0.92989 0.0
H3263 H 0.18974 0.34753 0.88313 0.0
H3264 H 0.19382 0.43452 0.91301 0.0
H3265 H 0.19223 0.39567 0.925 0.0
H3266 H 0.22724 0.37739 0.86462 0.0
H3267 H 0.22909 0.41639 0.85242 0.0
C3268 C 0.22147 0.33745 0.93683 0.0
C3269 C 0.20621 0.32197 0.93093 0.0
C3270 C 0.22432 0.35696 0.9241 0.0
C3271 C 0.21215 0.36113 0.90521 0.0
C3272 C 0.19917 0.34457 0.89774 0.0
C3273 C 0.1963 0.325 0.91049 0.0
C3274 C 0.20067 0.42226 0.902 0.0
C3275 C 0.21181 0.42856 0.88193 0.0
C3276 C 0.1999 0.40009 0.90894 0.0
C3277 C 0.21011 0.38385 0.89587 0.0
C3278 C 0.21946 0.38979 0.87495 0.0
C3279 C 0.22031 0.41208 0.86798 0.0
H3280 H 0.35053 0.50705 0.67522 0.0
H3281 H 0.33469 0.45759 0.63062 0.0
H3282 H 0.38445 0.48571 0.68478 0.0
H3283 H 0.36861 0.43606 0.64054 0.0
H3284 H 0.40681 0.39581 0.69758 0.0
H3285 H 0.37724 0.41748 0.67966 0.0
H3286 H 0.4231 0.47046 0.66513 0.0
H3287 H 0.45321 0.44834 0.68269 0.0
C3288 C 0.35428 0.4916 0.66751 0.0
C3289 C 0.33986 0.48376 0.65243 0.0
C3290 C 0.37383 0.47959 0.67274 0.0
C3291 C 0.37907 0.45943 0.66324 0.0
C3292 C 0.36484 0.45167 0.64797 0.0
C3293 C 0.34546 0.46387 0.64243 0.0
C3294 C 0.4107 0.41196 0.69029 0.0
C3295 C 0.43219 0.42054 0.69156 0.0
C3296 C 0.39385 0.42423 0.6799 0.0
C3297 C 0.39802 0.44553 0.67109 0.0
C3298 C 0.41964 0.45399 0.67184 0.0
C3299 C 0.43676 0.44142 0.68179 0.0
H3300 H 0.6811 0.08333 0.10679 0.0
H3301 H 0.74042 0.10989 0.07234 0.0
H3302 H 0.6581 0.11373 0.09095 0.0
H3303 H 0.71751 0.13997 0.05654 0.0
H3304 H 0.67239 0.19949 0.04187 0.0
H3305 H 0.69323 0.17314 0.06536 0.0
H3306 H 0.64758 0.12235 0.05204 0.0
H3307 H 0.6267 0.1486 0.02871 0.0
C3308 C 0.68925 0.09581 0.09613 0.0
C3309 C 0.71247 0.09414 0.09061 0.0
C3310 C 0.67611 0.11311 0.08702 0.0
C3311 C 0.68604 0.1291 0.07246 0.0
C3312 C 0.70944 0.128 0.06786 0.0
C3313 C 0.72251 0.11066 0.07679 0.0
C3314 C 0.66667 0.18276 0.04417 0.0
C3315 C 0.64805 0.17603 0.03332 0.0
C3316 C 0.6786 0.16771 0.05757 0.0
C3317 C 0.67199 0.14574 0.06049 0.0
C3318 C 0.65288 0.13925 0.05028 0.0
C3319 C 0.64108 0.15422 0.03675 0.0
H3320 H 0.58788 0.89688 0.75613 0.0
H3321 H 0.53753 0.92768 0.79937 0.0
H3322 H 0.61751 0.91098 0.7768 0.0
H3323 H 0.56726 0.94099 0.82073 0.0
H3324 H 0.62735 0.98292 0.83543 0.0
H3325 H 0.59629 0.9675 0.81773 0.0
H3326 H 0.63467 0.9062 0.81139 0.0
H3327 H 0.66611 0.9219 0.82849 0.0
C3328 C 0.58311 0.90647 0.77021 0.0
C3329 C 0.56032 0.91095 0.77626 0.0
C3330 C 0.60013 0.91439 0.7822 0.0
C3331 C 0.59479 0.9269 0.8006 0.0
C3332 C 0.57197 0.9315 0.80657 0.0
C3333 C 0.55493 0.92374 0.79444 0.0
C3334 C 0.6291 0.96606 0.8305 0.0
C3335 C 0.64928 0.95368 0.83323 0.0
C3336 C 0.61121 0.95718 0.82042 0.0
C3337 C 0.61304 0.93567 0.81297 0.0
C3338 C 0.63289 0.92298 0.81655 0.0
C3339 C 0.65084 0.93191 0.82651 0.0
H3340 H 0.82287 0.05991 0.29248 0.0
H3341 H 0.83454 0.08188 0.35684 0.0
H3342 H 0.85677 0.07763 0.27764 0.0
H3343 H 0.86913 0.09919 0.34207 0.0
H3344 H 0.91833 0.14514 0.30161 0.0
H3345 H 0.88434 0.12851 0.31846 0.0
H3346 H 0.89652 0.07242 0.27817 0.0
H3347 H 0.93004 0.08973 0.2609 0.0
C3348 C 0.83267 0.06864 0.30347 0.0
C3349 C 0.82601 0.0695 0.32584 0.0
C3350 C 0.8523 0.0786 0.29499 0.0
C3351 C 0.86599 0.08953 0.30869 0.0
C3352 C 0.85896 0.09101 0.331 0.0
C3353 C 0.83911 0.08115 0.33948 0.0
C3354 C 0.91368 0.12925 0.29652 0.0
C3355 C 0.92655 0.11873 0.27997 0.0
C3356 C 0.89431 0.11961 0.30623 0.0
C3357 C 0.88746 0.0992 0.29954 0.0
C3358 C 0.90096 0.08837 0.28341 0.0
C3359 C 0.92025 0.09811 0.27365 0.0
H3360 H 0.37596 0.21774 0.09339 0.0
H3361 H 0.44541 0.20365 0.07247 0.0
H3362 H 0.384 0.20551 0.13084 0.0
H3363 H 0.45328 0.19086 0.10979 0.0
H3364 H 0.46792 0.19641 0.18043 0.0
H3365 H 0.45682 0.20869 0.1439 0.0
H3366 H 0.39429 0.17469 0.15528 0.0
H3367 H 0.4051 0.1629 0.19203 0.0
C3368 C 0.39281 0.21151 0.09666 0.0
C3369 C 0.41012 0.21189 0.07999 0.0
C3370 C 0.39742 0.20455 0.11816 0.0
C3371 C 0.4194 0.19771 0.12339 0.0
C3372 C 0.43632 0.19668 0.10642 0.0
C3373 C 0.43174 0.20374 0.08497 0.0
C3374 C 0.45159 0.19196 0.17533 0.0
C3375 C 0.43747 0.17857 0.1891 0.0
C3376 C 0.44536 0.19873 0.15427 0.0
C3377 C 0.42492 0.1922 0.14649 0.0
C3378 C 0.41016 0.17998 0.16076 0.0
C3379 C 0.41635 0.17329 0.18188 0.0
H3380 H 0.5508 0.70418 0.93034 0.0
H3381 H 0.61374 0.7041 0.89134 0.0
H3382 H 0.53206 0.68946 0.89984 0.0
H3383 H 0.59503 0.68939 0.86106 0.0
H3384 H 0.54421 0.7026 0.80575 0.0
H3385 H 0.56612 0.70851 0.83734 0.0
H3386 H 0.53081 0.65684 0.87464 0.0
H3387 H 0.50888 0.65074 0.84275 0.0
C3388 C 0.56072 0.70062 0.91546 0.0
C3389 C 0.58367 0.70561 0.91312 0.0
C3390 C 0.55001 0.69211 0.89805 0.0
C3391 C 0.56208 0.68851 0.87803 0.0
C3392 C 0.58528 0.6923 0.87621 0.0
C3393 C 0.59597 0.70071 0.89357 0.0
C3394 C 0.54143 0.69221 0.82055 0.0
C3395 C 0.52495 0.67616 0.82179 0.0
C3396 C 0.55401 0.69553 0.83861 0.0
C3397 C 0.55017 0.68311 0.85842 0.0
C3398 C 0.53406 0.66665 0.85955 0.0
C3399 C 0.52169 0.66305 0.84128 0.0
H3400 H 0.08544 0.80809 0.58143 0.0
H3401 H 0.0441 0.75099 0.58844 0.0
H3402 H 0.07684 0.8153 0.62008 0.0
H3403 H 0.03686 0.75691 0.62722 0.0
H3404 H -0.00028 0.79877 0.67997 0.0
H3405 H 0.01439 0.78163 0.64705 0.0
H3406 H 0.08085 0.80471 0.65761 0.0
H3407 H 0.06554 0.8226 0.69036 0.0
C3408 C 0.07458 0.79712 0.59136 0.0
C3409 C 0.06471 0.77955 0.58204 0.0
C3410 C 0.07001 0.80089 0.61353 0.0
C3411 C 0.05607 0.78668 0.62676 0.0
C3412 C 0.04718 0.76847 0.61744 0.0
C3413 C 0.0512 0.76514 0.59523 0.0
C3414 C 0.01761 0.79939 0.67566 0.0
C3415 C 0.03149 0.81216 0.68725 0.0
C3416 C 0.02612 0.78957 0.65678 0.0
C3417 C 0.04874 0.79228 0.64937 0.0
C3418 C 0.0632 0.80295 0.66254 0.0
C3419 C 0.05454 0.81301 0.68135 0.0
H3420 H 0.94033 0.2798 0.41722 0.0
H3421 H 0.91023 0.34411 0.42943 0.0
H3422 H 0.95771 0.29442 0.38279 0.0
H3423 H 0.92744 0.35868 0.39462 0.0
H3424 H 0.97973 0.37725 0.33658 0.0
H3425 H 0.96338 0.3665 0.37303 0.0
H3426 H 0.94106 0.30625 0.34799 0.0
H3427 H 0.95766 0.31673 0.31183 0.0
C3428 C 0.93763 0.29713 0.41266 0.0
C3429 C 0.9236 0.31073 0.42583 0.0
C3430 C 0.94744 0.30546 0.39286 0.0
C3431 C 0.94338 0.32753 0.38576 0.0
C3432 C 0.93072 0.34156 0.39965 0.0
C3433 C 0.92091 0.33322 0.41957 0.0
C3434 C 0.9709 0.36194 0.33879 0.0
C3435 C 0.9701 0.34772 0.32143 0.0
C3436 C 0.96165 0.35576 0.35966 0.0
C3437 C 0.95143 0.33532 0.36343 0.0
C3438 C 0.94942 0.32182 0.3457 0.0
C3439 C 0.9587 0.32793 0.32495 0.0
H3440 H 0.47914 0.84577 0.34242 0.0
H3441 H 0.44534 0.80655 0.29801 0.0
H3442 H 0.46156 0.82505 0.37366 0.0
H3443 H 0.42804 0.78547 0.32957 0.0
H3444 H 0.42717 0.74226 0.3982 0.0
H3445 H 0.44535 0.76048 0.36556 0.0
H3446 H 0.4151 0.82285 0.38413 0.0
H3447 H 0.39642 0.80462 0.41661 0.0
C3448 C 0.4683 0.83244 0.33934 0.0
C3449 C 0.46349 0.8277 0.31785 0.0
C3450 C 0.45817 0.82077 0.35718 0.0
C3451 C 0.44339 0.80401 0.35378 0.0
C3452 C 0.4394 0.79846 0.33238 0.0
C3453 C 0.44925 0.81042 0.31446 0.0
C3454 C 0.42433 0.75985 0.39524 0.0
C3455 C 0.41054 0.77216 0.40986 0.0
C3456 C 0.43462 0.77015 0.3766 0.0
C3457 C 0.43158 0.79291 0.37265 0.0
C3458 C 0.41765 0.80523 0.3871 0.0
C3459 C 0.40696 0.79485 0.40552 0.0
H3460 H 0.97662 0.69886 0.16288 0.0
H3461 H 0.91917 0.6624 0.189 0.0
H3462 H 0.95534 0.71252 0.13166 0.0
H3463 H 0.8976 0.6768 0.15776 0.0
H3464 H 0.86659 0.73478 0.10877 0.0
H3465 H 0.88717 0.7225 0.14123 0.0
H3466 H 0.93533 0.68649 0.1002 0.0
H3467 H 0.91446 0.69809 0.06784 0.0
C3468 C 0.95934 0.69396 0.1621 0.0
C3469 C 0.9495 0.67956 0.1784 0.0
C3470 C 0.94725 0.70176 0.1442 0.0
C3471 C 0.92492 0.69575 0.1425 0.0
C3472 C 0.91482 0.68172 0.15892 0.0
C3473 C 0.92713 0.67344 0.17665 0.0
C3474 C 0.88168 0.7244 0.10669 0.0
C3475 C 0.88897 0.71732 0.08584 0.0
C3476 C 0.89327 0.71726 0.12523 0.0
C3477 C 0.91262 0.70346 0.12307 0.0
C3478 C 0.92037 0.69706 0.10217 0.0
C3479 C 0.90849 0.70372 0.08374 0.0
H3480 H 0.11652 0.18791 0.91062 0.0
H3481 H 0.05957 0.23235 0.89862 0.0
H3482 H 0.10853 0.16786 0.8785 0.0
H3483 H 0.05134 0.2121 0.86696 0.0
H3484 H 0.04125 0.17724 0.80808 0.0
H3485 H 0.06301 0.20024 0.83014 0.0
H3486 H 0.07737 0.14373 0.87371 0.0
H3487 H 0.05612 0.12077 0.85153 0.0
C3488 C 0.10241 0.19348 0.90104 0.0
C3489 C 0.08833 0.21135 0.90738 0.0
C3490 C 0.09791 0.18207 0.88264 0.0
C3491 C 0.07928 0.18835 0.87031 0.0
C3492 C 0.066 0.20701 0.87597 0.0
C3493 C 0.0705 0.21841 0.89432 0.0
C3494 C 0.04965 0.16964 0.82199 0.0
C3495 C 0.04659 0.14739 0.82848 0.0
C3496 C 0.062 0.18281 0.83464 0.0
C3497 C 0.07152 0.17384 0.85382 0.0
C3498 C 0.0703 0.15111 0.85898 0.0
C3499 C 0.05792 0.13799 0.8464 0.0
H3500 H 0.48965 0.33135 0.62386 0.0
H3501 H 0.54015 0.37409 0.64455 0.0
H3502 H 0.51393 0.32214 0.59203 0.0
H3503 H 0.5647 0.36457 0.61258 0.0
H3504 H 0.56027 0.31478 0.53175 0.0
H3505 H 0.53577 0.33719 0.55625 0.0
H3506 H 0.58246 0.32521 0.6076 0.0
H3507 H 0.60636 0.30257 0.58364 0.0
C3508 C 0.50586 0.33898 0.62144 0.0
C3509 C 0.5133 0.35302 0.63689 0.0
C3510 C 0.51959 0.33395 0.60305 0.0
C3511 C 0.54114 0.34263 0.59994 0.0
C3512 C 0.54811 0.35769 0.61471 0.0
C3513 C 0.53416 0.36304 0.63298 0.0
C3514 C 0.56537 0.31731 0.54816 0.0
C3515 C 0.58499 0.3068 0.55593 0.0
C3516 C 0.55147 0.33012 0.56209 0.0
C3517 C 0.55737 0.33297 0.58371 0.0
C3518 C 0.57768 0.32352 0.59092 0.0
C3519 C 0.5912 0.31034 0.57728 0.0
H3520 H 0.11365 0.43013 0.21545 0.0
H3521 H 0.08576 0.40275 0.15939 0.0
H3522 H 0.14725 0.43998 0.19319 0.0
H3523 H 0.11974 0.41279 0.13688 0.0
H3524 H 0.16746 0.46721 0.10347 0.0
H3525 H 0.13596 0.44941 0.12355 0.0
H3526 H 0.18078 0.4233 0.17253 0.0
H3527 H 0.21246 0.44128 0.15241 0.0
C3528 C 0.11472 0.42615 0.19834 0.0
C3529 C 0.09694 0.41588 0.1891 0.0
C3530 C 0.13413 0.43157 0.18565 0.0
C3531 C 0.13617 0.42708 0.16333 0.0
C3532 C 0.11856 0.41648 0.15407 0.0
C3533 C 0.09916 0.41074 0.16691 0.0
C3534 C 0.17066 0.4575 0.11842 0.0
C3535 C 0.19236 0.45591 0.12658 0.0
C3536 C 0.15264 0.44712 0.12979 0.0
C3537 C 0.15589 0.43508 0.14965 0.0
C3538 C 0.17778 0.43268 0.15734 0.0
C3539 C 0.19589 0.44291 0.14584 0.0
H3540 H 0.29497 0.41336 0.86542 0.0
H3541 H 0.31839 0.44268 0.92265 0.0
H3542 H 0.30983 0.37749 0.8785 0.0
H3543 H 0.33345 0.40657 0.93559 0.0
H3544 H 0.36963 0.33749 0.94296 0.0
H3545 H 0.36225 0.37374 0.92463 0.0
H3546 H 0.29456 0.35505 0.91355 0.0
H3547 H 0.30172 0.31916 0.93224 0.0
C3548 C 0.30359 0.41223 0.88063 0.0
C3549 C 0.30514 0.43079 0.89322 0.0
C3550 C 0.31209 0.3917 0.88806 0.0
C3551 C 0.32252 0.38932 0.90811 0.0
C3552 C 0.32553 0.40807 0.92 0.0
C3553 C 0.31686 0.42868 0.91263 0.0
C3554 C 0.35334 0.34105 0.93622 0.0
C3555 C 0.33623 0.32559 0.93886 0.0
C3556 C 0.3491 0.36178 0.92592 0.0
C3557 C 0.3279 0.36705 0.91766 0.0
C3558 C 0.31113 0.35125 0.9196 0.0
C3559 C 0.31518 0.33079 0.93032 0.0
H3560 H 0.42995 0.63244 0.66279 0.0
H3561 H 0.37171 0.64176 0.70724 0.0
H3562 H 0.40738 0.61208 0.63915 0.0
H3563 H 0.34944 0.62052 0.68432 0.0
H3564 H 0.3103 0.58777 0.63542 0.0
H3565 H 0.33149 0.61602 0.65148 0.0
H3566 H 0.39288 0.57669 0.64111 0.0
H3567 H 0.37196 0.5492 0.62432 0.0
C3568 C 0.41227 0.63032 0.66739 0.0
C3569 C 0.40266 0.63856 0.68694 0.0
C3570 C 0.39935 0.61849 0.65395 0.0
C3571 C 0.37663 0.61429 0.65996 0.0
C3572 C 0.36677 0.62358 0.67896 0.0
C3573 C 0.3796 0.63571 0.69221 0.0
C3574 C 0.32839 0.5854 0.63629 0.0
C3575 C 0.33944 0.56624 0.62866 0.0
C3576 C 0.34053 0.60151 0.64561 0.0
C3577 C 0.36394 0.59867 0.64771 0.0
C3578 C 0.37499 0.57976 0.63943 0.0
C3579 C 0.36293 0.56384 0.6299 0.0
H3580 H 0.13949 0.68125 0.4285 0.0
H3581 H 0.11149 0.63697 0.4798 0.0
H3582 H 0.15189 0.64992 0.40731 0.0
H3583 H 0.12384 0.60543 0.45835 0.0
H3584 H 0.18362 0.56198 0.42516 0.0
H3585 H 0.16125 0.58836 0.44684 0.0
H3586 H 0.13698 0.61997 0.38724 0.0
H3587 H 0.15974 0.59395 0.36561 0.0
C3588 C 0.13578 0.66482 0.43514 0.0
C3589 C 0.12452 0.66155 0.45576 0.0
C3590 C 0.14269 0.64687 0.42291 0.0
C3591 C 0.13858 0.62525 0.4311 0.0
C3592 C 0.12715 0.62193 0.45166 0.0
C3593 C 0.12004 0.63996 0.46386 0.0
C3594 C 0.17295 0.57415 0.41679 0.0
C3595 C 0.17366 0.57631 0.39378 0.0
C3596 C 0.16014 0.58923 0.42918 0.0
C3597 C 0.1478 0.60647 0.41865 0.0
C3598 C 0.1468 0.60715 0.39571 0.0
C3599 C 0.15973 0.59225 0.38336 0.0
H3600 H 0.07027 0.60044 0.31838 0.0
H3601 H 0.10809 0.61183 0.25656 0.0
H3602 H 0.10352 0.58254 0.33391 0.0
H3603 H 0.14117 0.59343 0.272 0.0
H3604 H 0.20102 0.56954 0.31423 0.0
H3605 H 0.17049 0.59332 0.29967 0.0
H3606 H 0.12175 0.54682 0.32666 0.0
H3607 H 0.1517 0.52355 0.34131 0.0
C3608 C 0.08573 0.59939 0.30819 0.0
C3609 C 0.08642 0.60731 0.28618 0.0
C3610 C 0.10475 0.58902 0.31704 0.0
C3611 C 0.12484 0.58624 0.30404 0.0
C3612 C 0.12598 0.59538 0.28244 0.0
C3613 C 0.10695 0.60584 0.27359 0.0
C3614 C 0.18377 0.56445 0.31696 0.0
C3615 C 0.17881 0.5448 0.32918 0.0
C3616 C 0.16632 0.57804 0.30866 0.0
C3617 C 0.14369 0.57216 0.31245 0.0
C3618 C 0.13893 0.55218 0.32403 0.0
C3619 C 0.15621 0.53871 0.33226 0.0
H3620 H 0.13938 0.35281 0.99686 0.0
H3621 H 0.16093 0.30699 0.04858 0.0
H3622 H 0.14878 0.38359 0.01817 0.0
H3623 H 0.17143 0.33769 0.06953 0.0
H3624 H 0.20681 0.4236 0.04124 0.0
H3625 H 0.18422 0.39716 0.02473 0.0
H3626 H 0.16346 0.36995 0.08927 0.0
H3627 H 0.18704 0.39601 0.10575 0.0
C3628 C 0.14586 0.34938 0.01296 0.0
C3629 C 0.14982 0.32759 0.02099 0.0
C3630 C 0.15135 0.36698 0.02511 0.0
C3631 C 0.16135 0.36312 0.04532 0.0
C3632 C 0.16364 0.3413 0.05409 0.0
C3633 C 0.15775 0.32367 0.04206 0.0
C3634 C 0.19714 0.41219 0.0519 0.0
C3635 C 0.19896 0.4115 0.0747 0.0
C3636 C 0.184 0.39712 0.04247 0.0
C3637 C 0.17211 0.38128 0.05568 0.0
C3638 C 0.17278 0.38162 0.07863 0.0
C3639 C 0.18623 0.39653 0.08805 0.0
H3640 H 0.28697 0.45795 0.80712 0.0
H3641 H 0.33324 0.48572 0.84949 0.0
H3642 H 0.31777 0.43517 0.79133 0.0
H3643 H 0.36397 0.46284 0.83369 0.0
H3644 H 0.41221 0.40865 0.80678 0.0
H3645 H 0.37842 0.42233 0.82763 0.0
H3646 H 0.35141 0.4493 0.76735 0.0
H3647 H 0.38485 0.436 0.74678 0.0
C3648 C 0.30363 0.45893 0.8133 0.0
C3649 C 0.30781 0.47385 0.82927 0.0
C3650 C 0.3212 0.44588 0.80429 0.0
C3651 C 0.34318 0.44735 0.81128 0.0
C3652 C 0.34712 0.46129 0.82817 0.0
C3653 C 0.32959 0.47454 0.83701 0.0
C3654 C 0.39885 0.41724 0.79807 0.0
C3655 C 0.40116 0.4215 0.77527 0.0
C3656 C 0.37964 0.42507 0.80994 0.0
C3657 C 0.36237 0.43677 0.79903 0.0
C3658 C 0.36435 0.4401 0.77613 0.0
C3659 C 0.38359 0.43267 0.7644 0.0
H3660 H 0.30342 0.64476 0.48762 0.0
H3661 H 0.33818 0.65146 0.54695 0.0
H3662 H 0.29791 0.60594 0.49752 0.0
H3663 H 0.33132 0.61303 0.55788 0.0
H3664 H 0.32085 0.54446 0.57542 0.0
H3665 H 0.33742 0.57511 0.55351 0.0
H3666 H 0.27423 0.58679 0.5221 0.0
H3667 H 0.25881 0.55539 0.54295 0.0
C3668 C 0.30955 0.63789 0.503 0.0
C3669 C 0.32064 0.65103 0.51692 0.0
C3670 C 0.30651 0.61566 0.50863 0.0
C3671 C 0.31394 0.60632 0.52861 0.0
C3672 C 0.3257 0.61947 0.54218 0.0
C3673 C 0.32929 0.64158 0.5362 0.0
C3674 C 0.31089 0.55324 0.56333 0.0
C3675 C 0.28814 0.54861 0.56168 0.0
C3676 C 0.32025 0.5709 0.5509 0.0
C3677 C 0.30686 0.58409 0.53675 0.0
C3678 C 0.28506 0.57733 0.53303 0.0
C3679 C 0.27592 0.55959 0.5453 0.0
H3680 H 0.2084 0.09937 0.39902 0.0
H3681 H 0.16075 0.06062 0.43913 0.0
H3682 H 0.18921 0.13294 0.41066 0.0
H3683 H 0.14073 0.09438 0.45003 0.0
H3684 H 0.13333 0.15652 0.48958 0.0
H3685 H 0.14745 0.1225 0.47376 0.0
H3686 H 0.15767 0.15726 0.41055 0.0
H3687 H 0.14445 0.19152 0.42676 0.0
C3688 C 0.1934 0.09799 0.40984 0.0
C3689 C 0.18624 0.0773 0.41835 0.0
C3690 C 0.18229 0.11732 0.41648 0.0
C3691 C 0.16355 0.11645 0.43155 0.0
C3692 C 0.15546 0.09569 0.43885 0.0
C3693 C 0.16679 0.07632 0.43244 0.0
C3694 C 0.13856 0.15685 0.47229 0.0
C3695 C 0.13802 0.17667 0.45944 0.0
C3696 C 0.14645 0.13729 0.46313 0.0
C3697 C 0.15367 0.13703 0.44081 0.0
C3698 C 0.15261 0.15686 0.42786 0.0
C3699 C 0.14503 0.17651 0.43712 0.0
H3700 H 0.67535 0.31449 0.57224 0.0
H3701 H 0.62429 0.36664 0.56658 0.0
H3702 H 0.69648 0.33719 0.5951 0.0
H3703 H 0.64558 0.38935 0.58923 0.0
H3704 H 0.68816 0.42453 0.63512 0.0
H3705 H 0.66357 0.39523 0.62534 0.0
H3706 H 0.71648 0.3709 0.58067 0.0
H3707 H 0.74065 0.39985 0.59021 0.0
C3708 C 0.66836 0.33057 0.5763 0.0
C3709 C 0.64845 0.33902 0.5672 0.0
C3710 C 0.68047 0.34355 0.58936 0.0
C3711 C 0.67281 0.36512 0.59365 0.0
C3712 C 0.65185 0.37276 0.58625 0.0
C3713 C 0.63978 0.35983 0.5731 0.0
C3714 C 0.69451 0.41267 0.62346 0.0
C3715 C 0.71609 0.41461 0.61313 0.0
C3716 C 0.68051 0.39598 0.61789 0.0
C3717 C 0.68817 0.38078 0.60232 0.0
C3718 C 0.7102 0.38216 0.59294 0.0
C3719 C 0.72394 0.39894 0.59819 0.0
H3720 H 0.42122 0.93772 0.29893 0.0
H3721 H 0.41709 0.88438 0.3484 0.0
H3722 H 0.38587 0.95372 0.3139 0.0
H3723 H 0.38117 0.89971 0.36276 0.0
H3724 H 0.32141 0.94204 0.39059 0.0
H3725 H 0.35951 0.92809 0.38056 0.0
H3726 H 0.34798 0.94377 0.31212 0.0
H3727 H 0.31055 0.9584 0.32227 0.0
C3728 C 0.41283 0.92957 0.31316 0.0
C3729 C 0.42168 0.90971 0.32234 0.0
C3730 C 0.39248 0.93857 0.32161 0.0
C3731 C 0.38032 0.92763 0.33912 0.0
C3732 C 0.39004 0.90857 0.34927 0.0
C3733 C 0.41064 0.89977 0.34104 0.0
C3734 C 0.32699 0.94213 0.3734 0.0
C3735 C 0.31312 0.95129 0.35718 0.0
C3736 C 0.34882 0.93426 0.36765 0.0
C3737 C 0.357 0.93525 0.34557 0.0
C3738 C 0.34256 0.94343 0.32935 0.0
C3739 C 0.32097 0.95152 0.33511 0.0
H3740 H 0.72341 0.58876 0.1032 0.0
H3741 H 0.78578 0.56763 0.1319 0.0
H3742 H 0.73554 0.62663 0.10026 0.0
H3743 H 0.7989 0.60539 0.12753 0.0
H3744 H 0.81861 0.67463 0.12077 0.0
H3745 H 0.79709 0.64324 0.13569 0.0
H3746 H 0.76108 0.64437 0.07595 0.0
H3747 H 0.78165 0.676 0.06173 0.0
C3748 C 0.73985 0.59232 0.10873 0.0
C3749 C 0.75401 0.57541 0.11722 0.0
C3750 C 0.7468 0.61398 0.10708 0.0
C3751 C 0.76839 0.61905 0.11322 0.0
C3752 C 0.78208 0.60217 0.12281 0.0
C3753 C 0.77479 0.58051 0.12505 0.0
C3754 C 0.80555 0.66855 0.11121 0.0
C3755 C 0.80213 0.67739 0.0899 0.0
C3756 C 0.7934 0.65044 0.11964 0.0
C3757 C 0.7777 0.64094 0.10687 0.0
C3758 C 0.77291 0.65121 0.0864 0.0
C3759 C 0.78489 0.6693 0.07809 0.0
H3760 H 0.57957 0.59797 0.30182 0.0
H3761 H 0.53044 0.55553 0.33544 0.0
H3762 H 0.60932 0.57928 0.32203 0.0
H3763 H 0.56081 0.53666 0.35583 0.0
H3764 H 0.64979 0.51127 0.3302 0.0
H3765 H 0.617 0.53198 0.31721 0.0
H3766 H 0.5996 0.55217 0.3828 0.0
H3767 H 0.63273 0.53127 0.3962 0.0
C3768 C 0.57508 0.58472 0.31364 0.0
C3769 C 0.55274 0.57788 0.31679 0.0
C3770 C 0.5921 0.57423 0.3253 0.0
C3771 C 0.58716 0.55669 0.34031 0.0
C3772 C 0.56477 0.55038 0.3444 0.0
C3773 C 0.54755 0.56102 0.33269 0.0
C3774 C 0.63917 0.5202 0.34193 0.0
C3775 C 0.64396 0.5198 0.36421 0.0
C3776 C 0.62034 0.53188 0.33448 0.0
C3777 C 0.60595 0.54339 0.34912 0.0
C3778 C 0.61049 0.5431 0.37139 0.0
C3779 C 0.62946 0.53135 0.37893 0.0
H3780 H 0.31356 0.81211 0.96213 0.0
H3781 H 0.36625 0.85759 0.97069 0.0
H3782 H 0.29171 0.84174 0.94339 0.0
H3783 H 0.34469 0.88689 0.95158 0.0
H3784 H 0.30632 0.92844 0.89953 0.0
H3785 H 0.32809 0.89561 0.91212 0.0
H3786 H 0.27421 0.87909 0.95976 0.0
H3787 H 0.25269 0.91203 0.94765 0.0
C3788 C 0.32061 0.82831 0.95966 0.0
C3789 C 0.3415 0.83265 0.96791 0.0
C3790 C 0.30812 0.8452 0.94903 0.0
C3791 C 0.31663 0.86647 0.94605 0.0
C3792 C 0.33791 0.87055 0.95352 0.0
C3793 C 0.35014 0.85384 0.96456 0.0
C3794 C 0.29906 0.91766 0.91253 0.0
C3795 C 0.27791 0.92283 0.92273 0.0
C3796 C 0.31149 0.89896 0.9197 0.0
C3797 C 0.30272 0.88491 0.93682 0.0
C3798 C 0.2812 0.88959 0.94639 0.0
C3799 C 0.269 0.9085 0.93955 0.0
H3800 H 0.35349 0.03518 0.15129 0.0
H3801 H 0.32586 0.03181 0.21821 0.0
H3802 H 0.38595 0.05435 0.16289 0.0
H3803 H 0.35764 0.05158 0.22969 0.0
H3804 H 0.42788 0.06588 0.24836 0.0
H3805 H 0.39665 0.04601 0.23539 0.0
H3806 H 0.3976 0.08807 0.17605 0.0
H3807 H 0.42907 0.10742 0.1887 0.0
C3808 C 0.35417 0.0389 0.16838 0.0
C3809 C 0.33722 0.03195 0.18385 0.0
C3810 C 0.37275 0.04987 0.17507 0.0
C3811 C 0.37458 0.05429 0.19731 0.0
C3812 C 0.35715 0.04794 0.21256 0.0
C3813 C 0.33879 0.0368 0.20593 0.0
C3814 C 0.42147 0.07077 0.23251 0.0
C3815 C 0.43091 0.08825 0.21962 0.0
C3816 C 0.40348 0.05949 0.2251 0.0
C3817 C 0.39446 0.06553 0.2047 0.0
C3818 C 0.40425 0.08275 0.19168 0.0
C3819 C 0.42229 0.09392 0.19901 0.0
H3820 H 0.15731 0.90726 0.67103 0.0
H3821 H 0.12333 0.97061 0.67762 0.0
H3822 H 0.12277 0.88907 0.68388 0.0
H3823 H 0.08833 0.95282 0.68862 0.0
H3824 H 0.03583 0.91583 0.73243 0.0
H3825 H 0.06845 0.93517 0.71627 0.0
H3826 H 0.08769 0.87827 0.67879 0.0
H3827 H 0.05652 0.85869 0.69688 0.0
C3828 C 0.14226 0.91724 0.67476 0.0
C3829 C 0.14302 0.94027 0.6735 0.0
C3830 C 0.12227 0.90688 0.68201 0.0
C3831 C 0.10238 0.91934 0.6875 0.0
C3832 C 0.10318 0.94248 0.68526 0.0
C3833 C 0.12327 0.95275 0.6787 0.0
C3834 C 0.0469 0.90776 0.7204 0.0
C3835 C 0.0436 0.88583 0.71571 0.0
C3836 C 0.06569 0.91881 0.71102 0.0
C3837 C 0.08123 0.90835 0.69621 0.0
C3838 C 0.07681 0.88682 0.69057 0.0
C3839 C 0.05857 0.87562 0.70057 0.0
loop_
_geom_bond_atom_site_label_1
_geom_bond_atom_site_label_2
_geom_bond_distance
_geom_bond_site_symmetry_2
_ccdc_geom_bond_type
Zn0 O6 1.969 . S
Zn0 O7 1.965 . S
Zn0 O11 2.024 . S
Zn0 O16 1.969 . S
Zn1 O8 1.969 . S
Zn1 O14 1.969 . S
Zn1 O15 1.965 . S
Zn1 O17 2.024 . S
C2 O3 1.229 . S
C2 O11 1.058 . S
O3 C2 1.229 . S
C4 O5 1.229 . S
C4 O17 1.058 . S
O5 C4 1.229 . S
O6 Zn0 1.969 . S
O6 C9 1.267 . S
O7 Zn0 1.965 . S
O7 C18 1.260 . S
O8 Zn1 1.969 . S
O8 C18 1.258 . S
C9 O6 1.267 . S
C9 O10 1.228 . S
O10 C9 1.228 . S
O11 Zn0 2.024 . S
O11 C2 1.058 . S
C12 O13 1.228 . S
C12 O14 1.267 1_655 S
O13 C12 1.228 . S
O14 Zn1 1.969 . S
O14 C12 1.267 1_455 S
O15 Zn1 1.965 . S
O15 C19 1.260 . S
O16 Zn0 1.969 . S
O16 C19 1.258 . S
O17 Zn1 2.024 . S
O17 C4 1.058 . S
C18 O7 1.260 . S
C18 O8 1.258 . S
C19 O15 1.260 . S
C19 O16 1.258 . S
Zn20 O26 1.969 . S
Zn20 O27 1.965 . S
Zn20 O31 2.024 . S
Zn20 O36 1.969 . S
Zn21 O28 1.969 . S
Zn21 O34 1.969 . S
Zn21 O35 1.965 . S
Zn21 O37 2.024 . S
C22 O23 1.229 . S
C22 O31 1.058 . S
O23 C22 1.229 . S
C24 O25 1.229 . S
C24 O37 1.058 . S
O25 C24 1.229 . S
O26 Zn20 1.969 . S
O26 C29 1.267 . S
O27 Zn20 1.965 . S
O27 C38 1.260 . S
O28 Zn21 1.969 . S
O28 C38 1.258 . S
C29 O26 1.267 . S
C29 O30 1.228 . S
O30 C29 1.228 . S
O31 Zn20 2.024 . S
O31 C22 1.058 . S
C32 O33 1.228 . S
C32 O34 1.267 . S
O33 C32 1.228 . S
O34 Zn21 1.969 . S
O34 C32 1.267 . S
O35 Zn21 1.965 . S
O35 C39 1.260 . S
O36 Zn20 1.969 . S
O36 C39 1.258 . S
O37 Zn21 2.024 . S
O37 C24 1.058 . S
C38 O27 1.260 . S
C38 O28 1.258 . S
C39 O35 1.260 . S
C39 O36 1.258 . S
Zn40 O46 1.969 . S
Zn40 O47 1.965 . S
Zn40 O51 2.024 . S
Zn40 O56 1.969 . S
Zn41 O48 1.969 . S
Zn41 O54 1.969 . S
Zn41 O55 1.965 . S
Zn41 O57 2.024 . S
C42 O43 1.229 . S
C42 O51 1.058 . S
O43 C42 1.229 . S
C44 O45 1.229 . S
C44 O57 1.058 . S
O45 C44 1.229 . S
O46 Zn40 1.969 . S
O46 C49 1.267 . S
O47 Zn40 1.965 . S
O47 C58 1.260 . S
O48 Zn41 1.969 . S
O48 C58 1.258 . S
C49 O46 1.267 . S
C49 O50 1.228 . S
O50 C49 1.228 . S
O51 Zn40 2.024 . S
O51 C42 1.058 . S
C52 O53 1.228 . S
C52 O54 1.267 . S
O53 C52 1.228 . S
O54 Zn41 1.969 . S
O54 C52 1.267 . S
O55 Zn41 1.965 . S
O55 C59 1.260 . S
O56 Zn40 1.969 . S
O56 C59 1.258 . S
O57 Zn41 2.024 . S
O57 C44 1.058 . S
C58 O47 1.260 . S
C58 O48 1.258 . S
C59 O55 1.260 . S
C59 O56 1.258 . S
Zn60 O66 1.969 . S
Zn60 O67 1.965 1_556 S
Zn60 O71 2.024 . S
Zn60 O76 1.969 . S
Zn61 O68 1.969 . S
Zn61 O74 1.969 . S
Zn61 O75 1.965 . S
Zn61 O77 2.024 . S
C62 O63 1.229 . S
C62 O71 1.058 . S
O63 C62 1.229 . S
C64 O65 1.229 . S
C64 O77 1.058 . S
O65 C64 1.229 . S
O66 Zn60 1.969 . S
O66 C69 1.267 . S
O67 Zn60 1.965 1_554 S
O67 C78 1.260 . S
O68 Zn61 1.969 . S
O68 C78 1.258 . S
C69 O66 1.267 . S
C69 O70 1.228 . S
O70 C69 1.228 . S
O71 Zn60 2.024 . S
O71 C62 1.058 . S
C72 O73 1.228 . S
C72 O74 1.267 . S
O73 C72 1.228 . S
O74 Zn61 1.969 . S
O74 C72 1.267 . S
O75 Zn61 1.965 . S
O75 C79 1.260 1_554 S
O76 Zn60 1.969 . S
O76 C79 1.258 . S
O77 Zn61 2.024 . S
O77 C64 1.058 . S
C78 O67 1.260 . S
C78 O68 1.258 . S
C79 O75 1.260 1_556 S
C79 O76 1.258 . S
Zn80 O86 1.973 . S
Zn80 O87 1.959 1_655 S
Zn80 O91 2.023 . S
Zn80 O96 1.970 . S
Zn81 O88 1.969 . S
Zn81 O94 1.969 . S
Zn81 O95 1.965 . S
Zn81 O97 2.024 . S
C82 O83 1.229 . S
C82 O91 1.058 . S
O83 C82 1.229 . S
C84 O85 1.229 . S
C84 O97 1.058 . S
O85 C84 1.229 . S
O86 Zn80 1.973 . S
O86 C89 1.267 . S
O87 Zn80 1.959 1_455 S
O87 C98 1.260 . S
O88 Zn81 1.969 . S
O88 C98 1.258 . S
C89 O86 1.267 . S
C89 O90 1.228 . S
O90 C89 1.228 . S
O91 Zn80 2.023 . S
O91 C82 1.058 . S
C92 O93 1.228 . S
C92 O94 1.267 . S
O93 C92 1.228 . S
O94 Zn81 1.969 . S
O94 C92 1.267 . S
O95 Zn81 1.965 . S
O95 C99 1.260 . S
O96 Zn80 1.970 . S
O96 C99 1.258 1_655 S
O97 Zn81 2.024 . S
O97 C84 1.058 . S
C98 O87 1.260 . S
C98 O88 1.258 . S
C99 O95 1.260 . S
C99 O96 1.258 1_455 S
Zn100 O106 1.969 . S
Zn100 O107 1.965 . S
Zn100 O111 2.024 . S
Zn100 O116 1.969 . S
Zn101 O108 1.969 . S
Zn101 O114 1.969 . S
Zn101 O115 1.965 . S
Zn101 O117 2.024 . S
C102 O103 1.229 . S
C102 O111 1.058 . S
O103 C102 1.229 . S
C104 O105 1.229 . S
C104 O117 1.058 . S
O105 C104 1.229 . S
O106 Zn100 1.969 . S
O106 C109 1.267 . S
O107 Zn100 1.965 . S
O107 C118 1.260 . S
O108 Zn101 1.969 . S
O108 C118 1.258 . S
C109 O106 1.267 . S
C109 O110 1.228 . S
O110 C109 1.228 . S
O111 Zn100 2.024 . S
O111 C102 1.058 . S
C112 O113 1.228 . S
C112 O114 1.267 . S
O113 C112 1.228 . S
O114 Zn101 1.969 . S
O114 C112 1.267 . S
O115 Zn101 1.965 . S
O115 C119 1.260 . S
O116 Zn100 1.969 . S
O116 C119 1.258 . S
O117 Zn101 2.024 . S
O117 C104 1.058 . S
C118 O107 1.260 . S
C118 O108 1.258 . S
C119 O115 1.260 . S
C119 O116 1.258 . S
Zn120 O126 1.969 . S
Zn120 O127 1.965 . S
Zn120 O131 2.024 . S
Zn120 O136 1.969 . S
Zn121 O128 1.969 . S
Zn121 O134 1.969 . S
Zn121 O135 1.965 . S
Zn121 O137 2.024 . S
C122 O123 1.229 . S
C122 O131 1.058 . S
O123 C122 1.229 . S
C124 O125 1.229 . S
C124 O137 1.058 . S
O125 C124 1.229 . S
O126 Zn120 1.969 . S
O126 C129 1.267 . S
O127 Zn120 1.965 . S
O127 C138 1.260 . S
O128 Zn121 1.969 . S
O128 C138 1.258 . S
C129 O126 1.267 . S
C129 O130 1.228 . S
O130 C129 1.228 . S
O131 Zn120 2.024 . S
O131 C122 1.058 . S
C132 O133 1.228 . S
C132 O134 1.267 . S
O133 C132 1.228 . S
O134 Zn121 1.969 . S
O134 C132 1.267 . S
O135 Zn121 1.965 . S
O135 C139 1.260 . S
O136 Zn120 1.969 . S
O136 C139 1.258 . S
O137 Zn121 2.024 . S
O137 C124 1.058 . S
C138 O127 1.260 . S
C138 O128 1.258 . S
C139 O135 1.260 . S
C139 O136 1.258 . S
Zn140 O146 1.969 . S
Zn140 O147 1.965 . S
Zn140 O151 2.024 . S
Zn140 O156 1.969 . S
Zn141 O148 1.969 . S
Zn141 O154 1.969 . S
Zn141 O155 1.965 . S
Zn141 O157 2.024 . S
C142 O143 1.229 . S
C142 O151 1.058 . S
O143 C142 1.229 . S
C144 O145 1.229 . S
C144 O157 1.058 . S
O145 C144 1.229 . S
O146 Zn140 1.969 . S
O146 C149 1.267 . S
O147 Zn140 1.965 . S
O147 C158 1.260 . S
O148 Zn141 1.969 . S
O148 C158 1.258 . S
C149 O146 1.267 . S
C149 O150 1.228 . S
O150 C149 1.228 . S
O151 Zn140 2.024 . S
O151 C142 1.058 . S
C152 O153 1.228 . S
C152 O154 1.267 . S
O153 C152 1.228 . S
O154 Zn141 1.969 . S
O154 C152 1.267 . S
O155 Zn141 1.965 . S
O155 C159 1.260 . S
O156 Zn140 1.969 . S
O156 C159 1.258 . S
O157 Zn141 2.024 . S
O157 C144 1.058 . S
C158 O147 1.260 . S
C158 O148 1.258 . S
C159 O155 1.260 . S
C159 O156 1.258 . S
Zn160 O166 1.969 . S
Zn160 O167 1.965 1_565 S
Zn160 O171 2.024 . S
Zn160 O176 1.969 . S
Zn161 O168 1.969 . S
Zn161 O174 1.969 . S
Zn161 O175 1.965 . S
Zn161 O177 2.024 . S
C162 O163 1.229 . S
C162 O171 1.058 . S
O163 C162 1.229 . S
C164 O165 1.229 . S
C164 O177 1.058 . S
O165 C164 1.229 . S
O166 Zn160 1.969 . S
O166 C169 1.267 . S
O167 Zn160 1.965 1_545 S
O167 C178 1.260 . S
O168 Zn161 1.969 . S
O168 C178 1.258 . S
C169 O166 1.267 . S
C169 O170 1.228 . S
O170 C169 1.228 . S
O171 Zn160 2.024 . S
O171 C162 1.058 . S
C172 O173 1.228 . S
C172 O174 1.267 . S
O173 C172 1.228 . S
O174 Zn161 1.969 . S
O174 C172 1.267 . S
O175 Zn161 1.965 . S
O175 C179 1.260 . S
O176 Zn160 1.969 . S
O176 C179 1.258 1_565 S
O177 Zn161 2.024 . S
O177 C164 1.058 . S
C178 O167 1.260 . S
C178 O168 1.258 . S
C179 O175 1.260 . S
C179 O176 1.258 1_545 S
Zn180 O186 1.969 . S
Zn180 O187 1.965 1_565 S
Zn180 O191 2.024 . S
Zn180 O196 1.969 . S
Zn181 O188 1.969 . S
Zn181 O194 1.969 . S
Zn181 O195 1.965 . S
Zn181 O197 2.024 . S
C182 O183 1.229 . S
C182 O191 1.058 . S
O183 C182 1.229 . S
C184 O185 1.229 . S
C184 O197 1.058 . S
O185 C184 1.229 . S
O186 Zn180 1.969 . S
O186 C189 1.267 . S
O187 Zn180 1.965 1_545 S
O187 C198 1.260 . S
O188 Zn181 1.969 . S
O188 C198 1.258 . S
C189 O186 1.267 . S
C189 O190 1.228 . S
O190 C189 1.228 . S
O191 Zn180 2.024 . S
O191 C182 1.058 . S
C192 O193 1.228 . S
C192 O194 1.267 . S
O193 C192 1.228 . S
O194 Zn181 1.969 . S
O194 C192 1.267 . S
O195 Zn181 1.965 . S
O195 C199 1.260 1_545 S
O196 Zn180 1.969 . S
O196 C199 1.258 . S
O197 Zn181 2.024 . S
O197 C184 1.058 . S
C198 O187 1.260 . S
C198 O188 1.258 . S
C199 O195 1.260 1_565 S
C199 O196 1.258 . S
Zn200 O206 1.969 . S
Zn200 O207 1.965 . S
Zn200 O211 2.024 . S
Zn200 O216 1.969 . S
Zn201 O208 1.969 . S
Zn201 O214 1.969 . S
Zn201 O215 1.965 . S
Zn201 O217 2.024 . S
C202 O203 1.229 . S
C202 O211 1.058 . S
O203 C202 1.229 . S
C204 O205 1.229 . S
C204 O217 1.058 . S
O205 C204 1.229 . S
O206 Zn200 1.969 . S
O206 C209 1.267 . S
O207 Zn200 1.965 . S
O207 C218 1.260 . S
O208 Zn201 1.969 . S
O208 C218 1.258 . S
C209 O206 1.267 . S
C209 O210 1.228 . S
O210 C209 1.228 . S
O211 Zn200 2.024 . S
O211 C202 1.058 . S
C212 O213 1.231 . S
C212 O214 1.273 . S
O213 C212 1.231 . S
O214 Zn201 1.969 . S
O214 C212 1.273 . S
O215 Zn201 1.965 . S
O215 C219 1.260 . S
O216 Zn200 1.969 . S
O216 C219 1.258 . S
O217 Zn201 2.024 . S
O217 C204 1.058 . S
C218 O207 1.260 . S
C218 O208 1.258 . S
C219 O215 1.260 . S
C219 O216 1.258 . S
Zn220 O226 1.969 . S
Zn220 O227 1.965 . S
Zn220 O231 2.024 . S
Zn220 O236 1.969 . S
Zn221 O228 1.969 . S
Zn221 O234 1.969 1_565 S
Zn221 O235 1.965 . S
Zn221 O237 2.024 . S
C222 O223 1.229 . S
C222 O231 1.058 . S
O223 C222 1.229 . S
C224 O225 1.229 . S
C224 O237 1.058 . S
O225 C224 1.229 . S
O226 Zn220 1.969 . S
O226 C229 1.267 . S
O227 Zn220 1.965 . S
O227 C238 1.260 . S
O228 Zn221 1.969 . S
O228 C238 1.258 . S
C229 O226 1.267 . S
C229 O230 1.228 . S
O230 C229 1.228 . S
O231 Zn220 2.024 . S
O231 C222 1.058 . S
C232 O233 1.228 . S
C232 O234 1.267 . S
O233 C232 1.228 . S
O234 Zn221 1.969 1_545 S
O234 C232 1.267 . S
O235 Zn221 1.965 . S
O235 C239 1.260 . S
O236 Zn220 1.969 . S
O236 C239 1.258 . S
O237 Zn221 2.024 . S
O237 C224 1.058 . S
C238 O227 1.260 . S
C238 O228 1.258 . S
C239 O235 1.260 . S
C239 O236 1.258 . S
Zn240 O246 1.969 . S
Zn240 O247 1.965 1_556 S
Zn240 O251 2.024 . S
Zn240 O256 1.969 . S
Zn241 O248 1.969 . S
Zn241 O254 1.969 . S
Zn241 O255 1.965 . S
Zn241 O257 2.024 . S
C242 O243 1.229 . S
C242 O251 1.058 . S
O243 C242 1.229 . S
C244 O245 1.229 . S
C244 O257 1.058 . S
O245 C244 1.229 . S
O246 Zn240 1.969 . S
O246 C249 1.267 . S
O247 Zn240 1.965 1_554 S
O247 C258 1.260 . S
O248 Zn241 1.969 . S
O248 C258 1.258 . S
C249 O246 1.267 . S
C249 O250 1.228 . S
O250 C249 1.228 . S
O251 Zn240 2.024 . S
O251 C242 1.058 . S
C252 O253 1.228 . S
C252 O254 1.267 . S
O253 C252 1.228 . S
O254 Zn241 1.969 . S
O254 C252 1.267 . S
O255 Zn241 1.965 . S
O255 C259 1.244 1_554 S
O256 Zn240 1.969 . S
O256 C259 1.272 . S
O257 Zn241 2.024 . S
O257 C244 1.058 . S
C258 O247 1.260 . S
C258 O248 1.258 . S
C259 O255 1.244 1_556 S
C259 O256 1.272 . S
Zn260 O266 1.969 . S
Zn260 O267 1.965 . S
Zn260 O271 2.024 . S
Zn260 O276 1.969 . S
Zn261 O268 1.969 . S
Zn261 O274 1.969 . S
Zn261 O275 1.965 . S
Zn261 O277 2.024 . S
C262 O263 1.229 . S
C262 O271 1.058 . S
O263 C262 1.229 . S
C264 O265 1.229 . S
C264 O277 1.058 . S
O265 C264 1.229 . S
O266 Zn260 1.969 . S
O266 C269 1.267 . S
O267 Zn260 1.965 . S
O267 C278 1.260 . S
O268 Zn261 1.969 . S
O268 C278 1.258 . S
C269 O266 1.267 . S
C269 O270 1.228 . S
O270 C269 1.228 . S
O271 Zn260 2.024 . S
O271 C262 1.058 . S
C272 O273 1.228 . S
C272 O274 1.267 1_455 S
O273 C272 1.228 . S
O274 Zn261 1.969 . S
O274 C272 1.267 1_655 S
O275 Zn261 1.965 . S
O275 C279 1.260 . S
O276 Zn260 1.969 . S
O276 C279 1.258 . S
O277 Zn261 2.024 . S
O277 C264 1.058 . S
C278 O267 1.260 . S
C278 O268 1.258 . S
C279 O275 1.260 . S
C279 O276 1.258 . S
Zn280 O286 1.969 . S
Zn280 O287 1.965 . S
Zn280 O291 2.024 . S
Zn280 O296 1.969 . S
Zn281 O288 1.969 . S
Zn281 O294 1.969 . S
Zn281 O295 1.965 . S
Zn281 O297 2.024 . S
C282 O283 1.229 . S
C282 O291 1.058 . S
O283 C282 1.229 . S
C284 O285 1.229 . S
C284 O297 1.058 . S
O285 C284 1.229 . S
O286 Zn280 1.969 . S
O286 C289 1.267 . S
O287 Zn280 1.965 . S
O287 C298 1.260 . S
O288 Zn281 1.969 . S
O288 C298 1.258 . S
C289 O286 1.267 . S
C289 O290 1.228 . S
O290 C289 1.228 . S
O291 Zn280 2.024 . S
O291 C282 1.058 . S
C292 O293 1.228 . S
C292 O294 1.267 . S
O293 C292 1.228 . S
O294 Zn281 1.969 . S
O294 C292 1.267 . S
O295 Zn281 1.965 . S
O295 C299 1.260 . S
O296 Zn280 1.969 . S
O296 C299 1.258 . S
O297 Zn281 2.024 . S
O297 C284 1.058 . S
C298 O287 1.260 . S
C298 O288 1.258 . S
C299 O295 1.260 . S
C299 O296 1.258 . S
Zn300 O306 1.969 . S
Zn300 O307 1.965 . S
Zn300 O311 2.024 . S
Zn300 O316 1.969 . S
Zn301 O308 1.969 . S
Zn301 O314 1.969 . S
Zn301 O315 1.965 . S
Zn301 O317 2.024 . S
C302 O303 1.229 . S
C302 O311 1.058 . S
O303 C302 1.229 . S
C304 O305 1.229 . S
C304 O317 1.058 . S
O305 C304 1.229 . S
O306 Zn300 1.969 . S
O306 C309 1.267 1_655 S
O307 Zn300 1.965 . S
O307 C318 1.260 . S
O308 Zn301 1.969 . S
O308 C318 1.258 . S
C309 O306 1.267 1_455 S
C309 O310 1.228 . S
O310 C309 1.228 . S
O311 Zn300 2.024 . S
O311 C302 1.058 . S
C312 O313 1.228 . S
C312 O314 1.267 . S
O313 C312 1.228 . S
O314 Zn301 1.969 . S
O314 C312 1.267 . S
O315 Zn301 1.965 . S
O315 C319 1.260 . S
O316 Zn300 1.969 . S
O316 C319 1.258 . S
O317 Zn301 2.024 . S
O317 C304 1.058 . S
C318 O307 1.260 . S
C318 O308 1.258 . S
C319 O315 1.260 . S
C319 O316 1.258 . S
Zn320 O326 1.969 . S
Zn320 O327 1.965 . S
Zn320 O331 2.024 . S
Zn320 O336 1.969 . S
Zn321 O328 1.969 . S
Zn321 O334 1.969 . S
Zn321 O335 1.965 . S
Zn321 O337 2.024 . S
C322 O323 1.229 . S
C322 O331 1.058 . S
O323 C322 1.229 . S
C324 O325 1.229 . S
C324 O337 1.058 . S
O325 C324 1.229 . S
O326 Zn320 1.969 . S
O326 C329 1.267 . S
O327 Zn320 1.965 . S
O327 C338 1.260 . S
O328 Zn321 1.969 . S
O328 C338 1.258 . S
C329 O326 1.267 . S
C329 O330 1.228 . S
O330 C329 1.228 . S
O331 Zn320 2.024 . S
O331 C322 1.058 . S
C332 O333 1.228 . S
C332 O334 1.267 . S
O333 C332 1.228 . S
O334 Zn321 1.969 . S
O334 C332 1.267 . S
O335 Zn321 1.965 . S
O335 C339 1.260 . S
O336 Zn320 1.969 . S
O336 C339 1.258 . S
O337 Zn321 2.024 . S
O337 C324 1.058 . S
C338 O327 1.260 . S
C338 O328 1.258 . S
C339 O335 1.260 . S
C339 O336 1.258 . S
Zn340 O346 1.969 . S
Zn340 O347 1.965 . S
Zn340 O351 2.024 . S
Zn340 O356 1.969 . S
Zn341 O348 1.969 . S
Zn341 O354 1.969 . S
Zn341 O355 1.965 . S
Zn341 O357 2.024 . S
C342 O343 1.229 . S
C342 O351 1.058 . S
O343 C342 1.229 . S
C344 O345 1.229 . S
C344 O357 1.058 . S
O345 C344 1.229 . S
O346 Zn340 1.969 . S
O346 C349 1.267 . S
O347 Zn340 1.965 . S
O347 C358 1.260 . S
O348 Zn341 1.969 . S
O348 C358 1.258 . S
C349 O346 1.267 . S
C349 O350 1.228 . S
O350 C349 1.228 . S
O351 Zn340 2.024 . S
O351 C342 1.058 . S
C352 O353 1.228 . S
C352 O354 1.267 . S
O353 C352 1.228 . S
O354 Zn341 1.969 . S
O354 C352 1.267 . S
O355 Zn341 1.965 . S
O355 C359 1.260 . S
O356 Zn340 1.969 . S
O356 C359 1.258 . S
O357 Zn341 2.024 . S
O357 C344 1.058 . S
C358 O347 1.260 . S
C358 O348 1.258 . S
C359 O355 1.260 . S
C359 O356 1.258 . S
Zn360 O366 1.969 . S
Zn360 O367 1.965 . S
Zn360 O371 2.024 . S
Zn360 O376 1.969 . S
Zn361 O368 1.969 . S
Zn361 O374 1.969 . S
Zn361 O375 1.965 1_554 S
Zn361 O377 2.024 . S
C362 O363 1.229 . S
C362 O371 1.058 . S
O363 C362 1.229 . S
C364 O365 1.229 . S
C364 O377 1.058 . S
O365 C364 1.229 . S
O366 Zn360 1.969 . S
O366 C369 1.267 . S
O367 Zn360 1.965 . S
O367 C378 1.260 1_556 S
O368 Zn361 1.969 . S
O368 C378 1.258 . S
C369 O366 1.267 . S
C369 O370 1.228 . S
O370 C369 1.228 . S
O371 Zn360 2.024 . S
O371 C362 1.058 . S
C372 O373 1.228 . S
C372 O374 1.267 . S
O373 C372 1.228 . S
O374 Zn361 1.969 . S
O374 C372 1.267 . S
O375 Zn361 1.965 1_556 S
O375 C379 1.260 . S
O376 Zn360 1.969 . S
O376 C379 1.258 . S
O377 Zn361 2.024 . S
O377 C364 1.058 . S
C378 O367 1.260 1_554 S
C378 O368 1.258 . S
C379 O375 1.260 . S
C379 O376 1.258 . S
Zn380 O386 1.969 . S
Zn380 O387 1.965 . S
Zn380 O391 2.024 . S
Zn380 O396 1.969 . S
Zn381 O388 1.970 . S
Zn381 O394 1.973 . S
Zn381 O395 1.959 1_455 S
Zn381 O397 2.023 . S
C382 O383 1.229 . S
C382 O391 1.058 . S
O383 C382 1.229 . S
C384 O385 1.229 . S
C384 O397 1.058 . S
O385 C384 1.229 . S
O386 Zn380 1.969 . S
O386 C389 1.267 . S
O387 Zn380 1.965 . S
O387 C398 1.260 . S
O388 Zn381 1.970 . S
O388 C398 1.258 1_455 S
C389 O386 1.267 . S
C389 O390 1.228 . S
O390 C389 1.228 . S
O391 Zn380 2.024 . S
O391 C382 1.058 . S
C392 O393 1.228 . S
C392 O394 1.267 . S
O393 C392 1.228 . S
O394 Zn381 1.973 . S
O394 C392 1.267 . S
O395 Zn381 1.959 1_655 S
O395 C399 1.260 . S
O396 Zn380 1.969 . S
O396 C399 1.258 . S
O397 Zn381 2.023 . S
O397 C384 1.058 . S
C398 O387 1.260 . S
C398 O388 1.258 1_655 S
C399 O395 1.260 . S
C399 O396 1.258 . S
Zn400 O406 1.969 . S
Zn400 O407 1.965 . S
Zn400 O411 2.024 . S
Zn400 O416 1.969 . S
Zn401 O408 1.969 . S
Zn401 O414 1.969 . S
Zn401 O415 1.965 . S
Zn401 O417 2.024 . S
C402 O403 1.229 . S
C402 O411 1.058 . S
O403 C402 1.229 . S
C404 O405 1.229 . S
C404 O417 1.058 . S
O405 C404 1.229 . S
O406 Zn400 1.969 . S
O406 C409 1.267 . S
O407 Zn400 1.965 . S
O407 C418 1.260 . S
O408 Zn401 1.969 . S
O408 C418 1.258 . S
C409 O406 1.267 . S
C409 O410 1.228 . S
O410 C409 1.228 . S
O411 Zn400 2.024 . S
O411 C402 1.058 . S
C412 O413 1.228 . S
C412 O414 1.267 . S
O413 C412 1.228 . S
O414 Zn401 1.969 . S
O414 C412 1.267 . S
O415 Zn401 1.965 . S
O415 C419 1.260 . S
O416 Zn400 1.969 . S
O416 C419 1.258 . S
O417 Zn401 2.024 . S
O417 C404 1.058 . S
C418 O407 1.260 . S
C418 O408 1.258 . S
C419 O415 1.260 . S
C419 O416 1.258 . S
Zn420 O426 1.969 . S
Zn420 O427 1.965 . S
Zn420 O431 2.024 . S
Zn420 O436 1.969 . S
Zn421 O428 1.969 . S
Zn421 O434 1.969 . S
Zn421 O435 1.965 . S
Zn421 O437 2.024 . S
C422 O423 1.229 . S
C422 O431 1.058 . S
O423 C422 1.229 . S
C424 O425 1.229 . S
C424 O437 1.058 . S
O425 C424 1.229 . S
O426 Zn420 1.969 . S
O426 C429 1.267 . S
O427 Zn420 1.965 . S
O427 C438 1.260 . S
O428 Zn421 1.969 . S
O428 C438 1.258 . S
C429 O426 1.267 . S
C429 O430 1.228 . S
O430 C429 1.228 . S
O431 Zn420 2.024 . S
O431 C422 1.058 . S
C432 O433 1.228 . S
C432 O434 1.267 . S
O433 C432 1.228 . S
O434 Zn421 1.969 . S
O434 C432 1.267 . S
O435 Zn421 1.965 . S
O435 C439 1.260 . S
O436 Zn420 1.969 . S
O436 C439 1.258 . S
O437 Zn421 2.024 . S
O437 C424 1.058 . S
C438 O427 1.260 . S
C438 O428 1.258 . S
C439 O435 1.260 . S
C439 O436 1.258 . S
Zn440 O446 1.969 . S
Zn440 O447 1.965 . S
Zn440 O451 2.024 . S
Zn440 O456 1.969 . S
Zn441 O448 1.969 . S
Zn441 O454 1.969 . S
Zn441 O455 1.965 . S
Zn441 O457 2.024 . S
C442 O443 1.229 . S
C442 O451 1.058 . S
O443 C442 1.229 . S
C444 O445 1.229 . S
C444 O457 1.058 . S
O445 C444 1.229 . S
O446 Zn440 1.969 . S
O446 C449 1.267 . S
O447 Zn440 1.965 . S
O447 C458 1.260 . S
O448 Zn441 1.969 . S
O448 C458 1.258 . S
C449 O446 1.267 . S
C449 O450 1.228 . S
O450 C449 1.228 . S
O451 Zn440 2.024 . S
O451 C442 1.058 . S
C452 O453 1.228 . S
C452 O454 1.267 . S
O453 C452 1.228 . S
O454 Zn441 1.969 . S
O454 C452 1.267 . S
O455 Zn441 1.965 . S
O455 C459 1.260 . S
O456 Zn440 1.969 . S
O456 C459 1.258 . S
O457 Zn441 2.024 . S
O457 C444 1.058 . S
C458 O447 1.260 . S
C458 O448 1.258 . S
C459 O455 1.260 . S
C459 O456 1.258 . S
Zn460 O466 1.969 . S
Zn460 O467 1.965 . S
Zn460 O471 2.024 . S
Zn460 O476 1.969 . S
Zn461 O468 1.969 . S
Zn461 O474 1.969 . S
Zn461 O475 1.965 1_545 S
Zn461 O477 2.024 . S
C462 O463 1.229 . S
C462 O471 1.058 . S
O463 C462 1.229 . S
C464 O465 1.229 . S
C464 O477 1.058 . S
O465 C464 1.229 . S
O466 Zn460 1.969 . S
O466 C469 1.267 . S
O467 Zn460 1.965 . S
O467 C478 1.260 . S
O468 Zn461 1.969 . S
O468 C478 1.258 1_545 S
C469 O466 1.267 . S
C469 O470 1.228 . S
O470 C469 1.228 . S
O471 Zn460 2.024 . S
O471 C462 1.058 . S
C472 O473 1.228 . S
C472 O474 1.267 . S
O473 C472 1.228 . S
O474 Zn461 1.969 . S
O474 C472 1.267 . S
O475 Zn461 1.965 1_565 S
O475 C479 1.260 . S
O476 Zn460 1.969 . S
O476 C479 1.258 . S
O477 Zn461 2.024 . S
O477 C464 1.058 . S
C478 O467 1.260 . S
C478 O468 1.258 1_565 S
C479 O475 1.260 . S
C479 O476 1.258 . S
Zn480 O486 1.969 . S
Zn480 O487 1.965 . S
Zn480 O491 2.024 . S
Zn480 O496 1.969 . S
Zn481 O488 1.969 . S
Zn481 O494 1.969 . S
Zn481 O495 1.965 1_545 S
Zn481 O497 2.024 . S
C482 O483 1.229 . S
C482 O491 1.058 . S
O483 C482 1.229 . S
C484 O485 1.229 . S
C484 O497 1.058 . S
O485 C484 1.229 . S
O486 Zn480 1.969 . S
O486 C489 1.267 . S
O487 Zn480 1.965 . S
O487 C498 1.260 1_565 S
O488 Zn481 1.969 . S
O488 C498 1.258 . S
C489 O486 1.267 . S
C489 O490 1.228 . S
O490 C489 1.228 . S
O491 Zn480 2.024 . S
O491 C482 1.058 . S
C492 O493 1.228 . S
C492 O494 1.267 . S
O493 C492 1.228 . S
O494 Zn481 1.969 . S
O494 C492 1.267 . S
O495 Zn481 1.965 1_565 S
O495 C499 1.260 . S
O496 Zn480 1.969 . S
O496 C499 1.258 . S
O497 Zn481 2.024 . S
O497 C484 1.058 . S
C498 O487 1.260 1_545 S
C498 O488 1.258 . S
C499 O495 1.260 . S
C499 O496 1.258 . S
Zn500 O506 1.969 . S
Zn500 O507 1.965 . S
Zn500 O511 2.024 . S
Zn500 O516 1.969 . S
Zn501 O508 1.969 . S
Zn501 O514 1.969 . S
Zn501 O515 1.965 . S
Zn501 O517 2.024 . S
C502 O503 1.229 . S
C502 O511 1.058 . S
O503 C502 1.229 . S
C504 O505 1.229 . S
C504 O517 1.058 . S
O505 C504 1.229 . S
O506 Zn500 1.969 . S
O506 C509 1.273 . S
O507 Zn500 1.965 . S
O507 C518 1.260 . S
O508 Zn501 1.969 . S
O508 C518 1.258 . S
C509 O506 1.273 . S
C509 O510 1.231 . S
O510 C509 1.231 . S
O511 Zn500 2.024 . S
O511 C502 1.058 . S
C512 O513 1.228 . S
C512 O514 1.267 . S
O513 C512 1.228 . S
O514 Zn501 1.969 . S
O514 C512 1.267 . S
O515 Zn501 1.965 . S
O515 C519 1.260 . S
O516 Zn500 1.969 . S
O516 C519 1.258 . S
O517 Zn501 2.024 . S
O517 C504 1.058 . S
C518 O507 1.260 . S
C518 O508 1.258 . S
C519 O515 1.260 . S
C519 O516 1.258 . S
Zn520 O526 1.969 1_545 S
Zn520 O527 1.965 . S
Zn520 O531 2.024 . S
Zn520 O536 1.969 . S
Zn521 O528 1.969 . S
Zn521 O534 1.969 . S
Zn521 O535 1.965 . S
Zn521 O537 2.024 . S
C522 O523 1.229 . S
C522 O531 1.058 . S
O523 C522 1.229 . S
C524 O525 1.229 . S
C524 O537 1.058 . S
O525 C524 1.229 . S
O526 Zn520 1.969 1_565 S
O526 C529 1.267 . S
O527 Zn520 1.965 . S
O527 C538 1.260 . S
O528 Zn521 1.969 . S
O528 C538 1.258 . S
C529 O526 1.267 . S
C529 O530 1.228 . S
O530 C529 1.228 . S
O531 Zn520 2.024 . S
O531 C522 1.058 . S
C532 O533 1.228 . S
C532 O534 1.267 . S
O533 C532 1.228 . S
O534 Zn521 1.969 . S
O534 C532 1.267 . S
O535 Zn521 1.965 . S
O535 C539 1.260 . S
O536 Zn520 1.969 . S
O536 C539 1.258 . S
O537 Zn521 2.024 . S
O537 C524 1.058 . S
C538 O527 1.260 . S
C538 O528 1.258 . S
C539 O535 1.260 . S
C539 O536 1.258 . S
Zn540 O546 1.969 . S
Zn540 O547 1.965 . S
Zn540 O551 2.024 . S
Zn540 O556 1.969 . S
Zn541 O548 1.969 . S
Zn541 O554 1.969 . S
Zn541 O555 1.965 1_554 S
Zn541 O557 2.024 . S
C542 O543 1.229 . S
C542 O551 1.058 . S
O543 C542 1.229 . S
C544 O545 1.229 . S
C544 O557 1.058 . S
O545 C544 1.229 . S
O546 Zn540 1.969 . S
O546 C549 1.267 . S
O547 Zn540 1.965 . S
O547 C558 1.244 1_556 S
O548 Zn541 1.969 . S
O548 C558 1.272 . S
C549 O546 1.267 . S
C549 O550 1.228 . S
O550 C549 1.228 . S
O551 Zn540 2.024 . S
O551 C542 1.058 . S
C552 O553 1.228 . S
C552 O554 1.267 . S
O553 C552 1.228 . S
O554 Zn541 1.969 . S
O554 C552 1.267 . S
O555 Zn541 1.965 1_556 S
O555 C559 1.260 . S
O556 Zn540 1.969 . S
O556 C559 1.258 . S
O557 Zn541 2.024 . S
O557 C544 1.058 . S
C558 O547 1.244 1_554 S
C558 O548 1.272 . S
C559 O555 1.260 . S
C559 O556 1.258 . S
Zn560 O566 1.969 . S
Zn560 O567 1.965 . S
Zn560 O571 2.024 . S
Zn560 O576 1.969 . S
Zn561 O568 1.969 . S
Zn561 O574 1.969 . S
Zn561 O575 1.965 . S
Zn561 O577 2.024 . S
C562 O563 1.229 . S
C562 O571 1.058 . S
O563 C562 1.229 . S
C564 O565 1.229 . S
C564 O577 1.058 . S
O565 C564 1.229 . S
O566 Zn560 1.969 . S
O566 C569 1.267 1_455 S
O567 Zn560 1.965 . S
O567 C578 1.260 . S
O568 Zn561 1.969 . S
O568 C578 1.258 . S
C569 O566 1.267 1_655 S
C569 O570 1.228 . S
O570 C569 1.228 . S
O571 Zn560 2.024 . S
O571 C562 1.058 . S
C572 O573 1.228 . S
C572 O574 1.267 . S
O573 C572 1.228 . S
O574 Zn561 1.969 . S
O574 C572 1.267 . S
O575 Zn561 1.965 . S
O575 C579 1.260 . S
O576 Zn560 1.969 . S
O576 C579 1.258 . S
O577 Zn561 2.024 . S
O577 C564 1.058 . S
C578 O567 1.260 . S
C578 O568 1.258 . S
C579 O575 1.260 . S
C579 O576 1.258 . S
Zn580 O586 1.969 . S
Zn580 O587 1.965 . S
Zn580 O591 2.024 . S
Zn580 O596 1.969 . S
Zn581 O588 1.969 . S
Zn581 O594 1.969 . S
Zn581 O595 1.965 . S
Zn581 O597 2.024 . S
C582 O583 1.229 . S
C582 O591 1.058 . S
O583 C582 1.229 . S
C584 O585 1.229 . S
C584 O597 1.058 . S
O585 C584 1.229 . S
O586 Zn580 1.969 . S
O586 C589 1.267 . S
O587 Zn580 1.965 . S
O587 C598 1.260 . S
O588 Zn581 1.969 . S
O588 C598 1.258 . S
C589 O586 1.267 . S
C589 O590 1.228 . S
O590 C589 1.228 . S
O591 Zn580 2.024 . S
O591 C582 1.058 . S
C592 O593 1.228 . S
C592 O594 1.267 . S
O593 C592 1.228 . S
O594 Zn581 1.969 . S
O594 C592 1.267 . S
O595 Zn581 1.965 . S
O595 C599 1.260 . S
O596 Zn580 1.969 . S
O596 C599 1.258 . S
O597 Zn581 2.024 . S
O597 C584 1.058 . S
C598 O587 1.260 . S
C598 O588 1.258 . S
C599 O595 1.260 . S
C599 O596 1.258 . S
Zn600 O606 1.969 . S
Zn600 O607 1.965 . S
Zn600 O611 2.024 . S
Zn600 O616 1.969 . S
Zn601 O608 1.969 . S
Zn601 O614 1.969 . S
Zn601 O615 1.965 . S
Zn601 O617 2.024 . S
C602 O603 1.229 . S
C602 O611 1.058 . S
O603 C602 1.229 . S
C604 O605 1.229 . S
C604 O617 1.058 . S
O605 C604 1.229 . S
O606 Zn600 1.969 . S
O606 C609 1.267 . S
O607 Zn600 1.965 . S
O607 C618 1.260 . S
O608 Zn601 1.969 . S
O608 C618 1.258 . S
C609 O606 1.267 . S
C609 O610 1.228 . S
O610 C609 1.228 . S
O611 Zn600 2.024 . S
O611 C602 1.058 . S
C612 O613 1.228 . S
C612 O614 1.267 . S
O613 C612 1.228 . S
O614 Zn601 1.969 . S
O614 C612 1.267 . S
O615 Zn601 1.965 . S
O615 C619 1.260 . S
O616 Zn600 1.969 . S
O616 C619 1.258 . S
O617 Zn601 2.024 . S
O617 C604 1.058 . S
C618 O607 1.260 . S
C618 O608 1.258 . S
C619 O615 1.260 . S
C619 O616 1.258 . S
Zn620 O626 1.969 . S
Zn620 O627 1.965 . S
Zn620 O631 2.024 . S
Zn620 O636 1.969 . S
Zn621 O628 1.969 . S
Zn621 O634 1.969 1_655 S
Zn621 O635 1.968 . S
Zn621 O637 2.024 . S
C622 O623 1.229 . S
C622 O631 1.058 . S
O623 C622 1.229 . S
C624 O625 1.229 . S
C624 O637 1.058 . S
O625 C624 1.229 . S
O626 Zn620 1.969 . S
O626 C629 1.267 . S
O627 Zn620 1.965 . S
O627 C638 1.260 . S
O628 Zn621 1.969 . S
O628 C638 1.258 . S
C629 O626 1.267 . S
C629 O630 1.228 . S
O630 C629 1.228 . S
O631 Zn620 2.024 . S
O631 C622 1.058 . S
C632 O633 1.228 . S
C632 O634 1.267 . S
O633 C632 1.228 . S
O634 Zn621 1.969 1_455 S
O634 C632 1.267 . S
O635 Zn621 1.968 . S
O635 C639 1.261 . S
O636 Zn620 1.969 . S
O636 C639 1.258 . S
O637 Zn621 2.024 . S
O637 C624 1.058 . S
C638 O627 1.260 . S
C638 O628 1.258 . S
C639 O635 1.261 . S
C639 O636 1.258 . S
Zn640 O646 1.969 . S
Zn640 O647 1.965 . S
Zn640 O651 2.024 . S
Zn640 O656 1.969 . S
Zn641 O648 1.969 . S
Zn641 O654 1.969 . S
Zn641 O655 1.965 . S
Zn641 O657 2.024 . S
C642 O643 1.229 . S
C642 O651 1.058 . S
O643 C642 1.229 . S
C644 O645 1.229 . S
C644 O657 1.058 . S
O645 C644 1.229 . S
O646 Zn640 1.969 . S
O646 C649 1.267 . S
O647 Zn640 1.965 . S
O647 C658 1.260 . S
O648 Zn641 1.969 . S
O648 C658 1.258 . S
C649 O646 1.267 . S
C649 O650 1.228 . S
O650 C649 1.228 . S
O651 Zn640 2.024 . S
O651 C642 1.058 . S
C652 O653 1.228 . S
C652 O654 1.267 . S
O653 C652 1.228 . S
O654 Zn641 1.969 . S
O654 C652 1.267 . S
O655 Zn641 1.965 . S
O655 C659 1.260 . S
O656 Zn640 1.969 . S
O656 C659 1.258 . S
O657 Zn641 2.024 . S
O657 C644 1.058 . S
C658 O647 1.260 . S
C658 O648 1.258 . S
C659 O655 1.260 . S
C659 O656 1.258 . S
Zn660 O666 1.969 . S
Zn660 O667 1.965 . S
Zn660 O671 2.024 . S
Zn660 O676 1.969 . S
Zn661 O668 1.969 . S
Zn661 O674 1.969 . S
Zn661 O675 1.965 . S
Zn661 O677 2.024 . S
C662 O663 1.229 . S
C662 O671 1.058 . S
O663 C662 1.229 . S
C664 O665 1.229 . S
C664 O677 1.058 . S
O665 C664 1.229 . S
O666 Zn660 1.969 . S
O666 C669 1.267 . S
O667 Zn660 1.965 . S
O667 C678 1.260 . S
O668 Zn661 1.969 . S
O668 C678 1.258 . S
C669 O666 1.267 . S
C669 O670 1.228 . S
O670 C669 1.228 . S
O671 Zn660 2.024 . S
O671 C662 1.058 . S
C672 O673 1.228 . S
C672 O674 1.267 . S
O673 C672 1.228 . S
O674 Zn661 1.969 . S
O674 C672 1.267 . S
O675 Zn661 1.965 . S
O675 C679 1.260 . S
O676 Zn660 1.969 . S
O676 C679 1.258 . S
O677 Zn661 2.024 . S
O677 C664 1.058 . S
C678 O667 1.260 . S
C678 O668 1.258 . S
C679 O675 1.260 . S
C679 O676 1.258 . S
Zn680 O686 1.969 . S
Zn680 O687 1.965 . S
Zn680 O691 2.024 . S
Zn680 O696 1.969 . S
Zn681 O688 1.969 . S
Zn681 O694 1.969 . S
Zn681 O695 1.965 . S
Zn681 O697 2.024 . S
C682 O683 1.229 . S
C682 O691 1.058 . S
O683 C682 1.229 . S
C684 O685 1.229 . S
C684 O697 1.058 . S
O685 C684 1.229 . S
O686 Zn680 1.969 . S
O686 C689 1.267 . S
O687 Zn680 1.965 . S
O687 C698 1.260 . S
O688 Zn681 1.969 . S
O688 C698 1.258 . S
C689 O686 1.267 . S
C689 O690 1.228 . S
O690 C689 1.228 . S
O691 Zn680 2.024 . S
O691 C682 1.058 . S
C692 O693 1.228 . S
C692 O694 1.267 . S
O693 C692 1.228 . S
O694 Zn681 1.969 . S
O694 C692 1.267 . S
O695 Zn681 1.965 . S
O695 C699 1.260 . S
O696 Zn680 1.969 . S
O696 C699 1.258 . S
O697 Zn681 2.024 . S
O697 C684 1.058 . S
C698 O687 1.260 . S
C698 O688 1.258 . S
C699 O695 1.260 . S
C699 O696 1.258 . S
Zn700 O706 1.969 . S
Zn700 O707 1.965 . S
Zn700 O711 2.024 . S
Zn700 O716 1.969 . S
Zn701 O708 1.969 . S
Zn701 O714 1.969 . S
Zn701 O715 1.965 . S
Zn701 O717 2.024 . S
C702 O703 1.229 . S
C702 O711 1.058 . S
O703 C702 1.229 . S
C704 O705 1.229 . S
C704 O717 1.058 . S
O705 C704 1.229 . S
O706 Zn700 1.969 . S
O706 C709 1.267 . S
O707 Zn700 1.965 . S
O707 C718 1.260 . S
O708 Zn701 1.969 . S
O708 C718 1.258 . S
C709 O706 1.267 . S
C709 O710 1.228 . S
O710 C709 1.228 . S
O711 Zn700 2.024 . S
O711 C702 1.058 . S
C712 O713 1.228 . S
C712 O714 1.267 . S
O713 C712 1.228 . S
O714 Zn701 1.969 . S
O714 C712 1.267 . S
O715 Zn701 1.965 . S
O715 C719 1.260 . S
O716 Zn700 1.969 . S
O716 C719 1.258 . S
O717 Zn701 2.024 . S
O717 C704 1.058 . S
C718 O707 1.260 . S
C718 O708 1.258 . S
C719 O715 1.260 . S
C719 O716 1.258 . S
Zn720 O726 1.969 . S
Zn720 O727 1.965 . S
Zn720 O731 2.024 . S
Zn720 O736 1.969 . S
Zn721 O728 1.969 . S
Zn721 O734 1.969 . S
Zn721 O735 1.965 . S
Zn721 O737 2.024 . S
C722 O723 1.229 . S
C722 O731 1.058 . S
O723 C722 1.229 . S
C724 O725 1.229 . S
C724 O737 1.058 . S
O725 C724 1.229 . S
O726 Zn720 1.969 . S
O726 C729 1.267 . S
O727 Zn720 1.965 . S
O727 C738 1.260 . S
O728 Zn721 1.969 . S
O728 C738 1.258 . S
C729 O726 1.267 . S
C729 O730 1.228 . S
O730 C729 1.228 . S
O731 Zn720 2.024 . S
O731 C722 1.058 . S
C732 O733 1.228 . S
C732 O734 1.267 . S
O733 C732 1.228 . S
O734 Zn721 1.969 . S
O734 C732 1.267 . S
O735 Zn721 1.965 . S
O735 C739 1.260 . S
O736 Zn720 1.969 . S
O736 C739 1.258 . S
O737 Zn721 2.024 . S
O737 C724 1.058 . S
C738 O727 1.260 . S
C738 O728 1.258 . S
C739 O735 1.260 . S
C739 O736 1.258 . S
Zn740 O746 1.969 . S
Zn740 O747 1.965 . S
Zn740 O751 2.024 . S
Zn740 O756 1.969 . S
Zn741 O748 1.969 . S
Zn741 O754 1.969 . S
Zn741 O755 1.965 . S
Zn741 O757 2.024 . S
C742 O743 1.229 . S
C742 O751 1.058 . S
O743 C742 1.229 . S
C744 O745 1.229 . S
C744 O757 1.058 . S
O745 C744 1.229 . S
O746 Zn740 1.969 . S
O746 C749 1.267 . S
O747 Zn740 1.965 . S
O747 C758 1.260 . S
O748 Zn741 1.969 . S
O748 C758 1.258 . S
C749 O746 1.267 . S
C749 O750 1.228 . S
O750 C749 1.228 . S
O751 Zn740 2.024 . S
O751 C742 1.058 . S
C752 O753 1.228 . S
C752 O754 1.267 . S
O753 C752 1.228 . S
O754 Zn741 1.969 . S
O754 C752 1.267 . S
O755 Zn741 1.965 . S
O755 C759 1.260 . S
O756 Zn740 1.969 . S
O756 C759 1.258 . S
O757 Zn741 2.024 . S
O757 C744 1.058 . S
C758 O747 1.260 . S
C758 O748 1.258 . S
C759 O755 1.260 . S
C759 O756 1.258 . S
Zn760 O766 1.969 . S
Zn760 O767 1.965 . S
Zn760 O771 2.024 . S
Zn760 O776 1.969 . S
Zn761 O768 1.969 . S
Zn761 O774 1.969 . S
Zn761 O775 1.965 . S
Zn761 O777 2.024 . S
C762 O763 1.229 . S
C762 O771 1.058 . S
O763 C762 1.229 . S
C764 O765 1.229 . S
C764 O777 1.058 . S
O765 C764 1.229 . S
O766 Zn760 1.969 . S
O766 C769 1.267 . S
O767 Zn760 1.965 . S
O767 C778 1.260 . S
O768 Zn761 1.969 . S
O768 C778 1.258 . S
C769 O766 1.267 . S
C769 O770 1.228 . S
O770 C769 1.228 . S
O771 Zn760 2.024 . S
O771 C762 1.058 . S
C772 O773 1.228 . S
C772 O774 1.267 . S
O773 C772 1.228 . S
O774 Zn761 1.969 . S
O774 C772 1.267 . S
O775 Zn761 1.965 . S
O775 C779 1.260 . S
O776 Zn760 1.969 . S
O776 C779 1.258 . S
O777 Zn761 2.024 . S
O777 C764 1.058 . S
C778 O767 1.260 . S
C778 O768 1.258 . S
C779 O775 1.260 . S
C779 O776 1.258 . S
Zn780 O786 1.969 . S
Zn780 O787 1.965 . S
Zn780 O791 2.024 . S
Zn780 O796 1.969 . S
Zn781 O788 1.969 . S
Zn781 O794 1.969 . S
Zn781 O795 1.965 . S
Zn781 O797 2.024 . S
C782 O783 1.229 . S
C782 O791 1.058 . S
O783 C782 1.229 . S
C784 O785 1.229 . S
C784 O797 1.058 . S
O785 C784 1.229 . S
O786 Zn780 1.969 . S
O786 C789 1.267 . S
O787 Zn780 1.965 . S
O787 C798 1.260 . S
O788 Zn781 1.969 . S
O788 C798 1.258 . S
C789 O786 1.267 . S
C789 O790 1.228 . S
O790 C789 1.228 . S
O791 Zn780 2.024 . S
O791 C782 1.058 . S
C792 O793 1.228 . S
C792 O794 1.267 . S
O793 C792 1.228 . S
O794 Zn781 1.969 . S
O794 C792 1.267 . S
O795 Zn781 1.965 . S
O795 C799 1.260 . S
O796 Zn780 1.969 . S
O796 C799 1.258 . S
O797 Zn781 2.024 . S
O797 C784 1.058 . S
C798 O787 1.260 . S
C798 O788 1.258 . S
C799 O795 1.260 . S
C799 O796 1.258 . S
Zn800 O806 1.969 1_455 S
Zn800 O807 1.968 . S
Zn800 O811 2.024 . S
Zn800 O816 1.969 . S
Zn801 O808 1.969 . S
Zn801 O814 1.969 . S
Zn801 O815 1.965 . S
Zn801 O817 2.024 . S
C802 O803 1.229 . S
C802 O811 1.058 . S
O803 C802 1.229 . S
C804 O805 1.229 . S
C804 O817 1.058 . S
O805 C804 1.229 . S
O806 Zn800 1.969 1_655 S
O806 C809 1.267 . S
O807 Zn800 1.968 . S
O807 C818 1.261 . S
O808 Zn801 1.969 . S
O808 C818 1.258 . S
C809 O806 1.267 . S
C809 O810 1.228 . S
O810 C809 1.228 . S
O811 Zn800 2.024 . S
O811 C802 1.058 . S
C812 O813 1.228 . S
C812 O814 1.267 . S
O813 C812 1.228 . S
O814 Zn801 1.969 . S
O814 C812 1.267 . S
O815 Zn801 1.965 . S
O815 C819 1.260 . S
O816 Zn800 1.969 . S
O816 C819 1.258 . S
O817 Zn801 2.024 . S
O817 C804 1.058 . S
C818 O807 1.261 . S
C818 O808 1.258 . S
C819 O815 1.260 . S
C819 O816 1.258 . S
Zn820 O826 1.969 . S
Zn820 O827 1.965 . S
Zn820 O831 2.024 . S
Zn820 O836 1.969 . S
Zn821 O828 1.969 . S
Zn821 O834 1.969 . S
Zn821 O835 1.965 . S
Zn821 O837 2.024 . S
C822 O823 1.229 . S
C822 O831 1.058 . S
O823 C822 1.229 . S
C824 O825 1.229 . S
C824 O837 1.058 . S
O825 C824 1.229 . S
O826 Zn820 1.969 . S
O826 C829 1.267 . S
O827 Zn820 1.965 . S
O827 C838 1.260 . S
O828 Zn821 1.969 . S
O828 C838 1.258 . S
C829 O826 1.267 . S
C829 O830 1.228 . S
O830 C829 1.228 . S
O831 Zn820 2.024 . S
O831 C822 1.058 . S
C832 O833 1.228 . S
C832 O834 1.267 . S
O833 C832 1.228 . S
O834 Zn821 1.969 . S
O834 C832 1.267 . S
O835 Zn821 1.965 . S
O835 C839 1.260 . S
O836 Zn820 1.969 . S
O836 C839 1.258 . S
O837 Zn821 2.024 . S
O837 C824 1.058 . S
C838 O827 1.260 . S
C838 O828 1.258 . S
C839 O835 1.260 . S
C839 O836 1.258 . S
Zn840 O846 1.969 . S
Zn840 O847 1.965 . S
Zn840 O851 2.024 . S
Zn840 O856 1.969 . S
Zn841 O848 1.969 . S
Zn841 O854 1.969 . S
Zn841 O855 1.965 . S
Zn841 O857 2.024 . S
C842 O843 1.229 . S
C842 O851 1.058 . S
O843 C842 1.229 . S
C844 O845 1.229 . S
C844 O857 1.058 . S
O845 C844 1.229 . S
O846 Zn840 1.969 . S
O846 C849 1.267 . S
O847 Zn840 1.965 . S
O847 C858 1.260 . S
O848 Zn841 1.969 . S
O848 C858 1.258 . S
C849 O846 1.267 . S
C849 O850 1.228 . S
O850 C849 1.228 . S
O851 Zn840 2.024 . S
O851 C842 1.058 . S
C852 O853 1.228 . S
C852 O854 1.267 . S
O853 C852 1.228 . S
O854 Zn841 1.969 . S
O854 C852 1.267 . S
O855 Zn841 1.965 . S
O855 C859 1.260 . S
O856 Zn840 1.969 . S
O856 C859 1.258 . S
O857 Zn841 2.024 . S
O857 C844 1.058 . S
C858 O847 1.260 . S
C858 O848 1.258 . S
C859 O855 1.260 . S
C859 O856 1.258 . S
Zn860 O866 1.969 . S
Zn860 O867 1.965 . S
Zn860 O871 2.024 . S
Zn860 O876 1.969 . S
Zn861 O868 1.969 . S
Zn861 O874 1.969 . S
Zn861 O875 1.965 . S
Zn861 O877 2.024 . S
C862 O863 1.229 . S
C862 O871 1.058 . S
O863 C862 1.229 . S
C864 O865 1.229 . S
C864 O877 1.058 . S
O865 C864 1.229 . S
O866 Zn860 1.969 . S
O866 C869 1.267 . S
O867 Zn860 1.965 . S
O867 C878 1.260 . S
O868 Zn861 1.969 . S
O868 C878 1.258 . S
C869 O866 1.267 . S
C869 O870 1.228 . S
O870 C869 1.228 . S
O871 Zn860 2.024 . S
O871 C862 1.058 . S
C872 O873 1.228 . S
C872 O874 1.267 . S
O873 C872 1.228 . S
O874 Zn861 1.969 . S
O874 C872 1.267 . S
O875 Zn861 1.965 . S
O875 C879 1.260 . S
O876 Zn860 1.969 . S
O876 C879 1.258 . S
O877 Zn861 2.024 . S
O877 C864 1.058 . S
C878 O867 1.260 . S
C878 O868 1.258 . S
C879 O875 1.260 . S
C879 O876 1.258 . S
Zn880 O886 1.969 . S
Zn880 O887 1.965 . S
Zn880 O891 2.024 . S
Zn880 O896 1.969 . S
Zn881 O888 1.969 . S
Zn881 O894 1.969 . S
Zn881 O895 1.965 . S
Zn881 O897 2.024 . S
C882 O883 1.229 . S
C882 O891 1.058 . S
O883 C882 1.229 . S
C884 O885 1.229 . S
C884 O897 1.058 . S
O885 C884 1.229 . S
O886 Zn880 1.969 . S
O886 C889 1.267 . S
O887 Zn880 1.965 . S
O887 C898 1.260 . S
O888 Zn881 1.969 . S
O888 C898 1.258 . S
C889 O886 1.267 . S
C889 O890 1.228 . S
O890 C889 1.228 . S
O891 Zn880 2.024 . S
O891 C882 1.058 . S
C892 O893 1.228 . S
C892 O894 1.267 . S
O893 C892 1.228 . S
O894 Zn881 1.969 . S
O894 C892 1.267 . S
O895 Zn881 1.965 . S
O895 C899 1.260 . S
O896 Zn880 1.969 . S
O896 C899 1.258 . S
O897 Zn881 2.024 . S
O897 C884 1.058 . S
C898 O887 1.260 . S
C898 O888 1.258 . S
C899 O895 1.260 . S
C899 O896 1.258 . S
Zn900 O906 1.969 . S
Zn900 O907 1.965 . S
Zn900 O911 2.024 . S
Zn900 O916 1.969 . S
Zn901 O908 1.969 . S
Zn901 O914 1.969 . S
Zn901 O915 1.965 . S
Zn901 O917 2.024 . S
C902 O903 1.229 . S
C902 O911 1.058 . S
O903 C902 1.229 . S
C904 O905 1.229 . S
C904 O917 1.058 . S
O905 C904 1.229 . S
O906 Zn900 1.969 . S
O906 C909 1.267 . S
O907 Zn900 1.965 . S
O907 C918 1.260 . S
O908 Zn901 1.969 . S
O908 C918 1.258 . S
C909 O906 1.267 . S
C909 O910 1.228 . S
O910 C909 1.228 . S
O911 Zn900 2.024 . S
O911 C902 1.058 . S
C912 O913 1.228 . S
C912 O914 1.267 . S
O913 C912 1.228 . S
O914 Zn901 1.969 . S
O914 C912 1.267 . S
O915 Zn901 1.965 . S
O915 C919 1.260 . S
O916 Zn900 1.969 . S
O916 C919 1.258 . S
O917 Zn901 2.024 . S
O917 C904 1.058 . S
C918 O907 1.260 . S
C918 O908 1.258 . S
C919 O915 1.260 . S
C919 O916 1.258 . S
Zn920 O926 1.969 . S
Zn920 O927 1.965 . S
Zn920 O931 2.024 . S
Zn920 O936 1.969 . S
Zn921 O928 1.969 . S
Zn921 O934 1.969 . S
Zn921 O935 1.965 . S
Zn921 O937 2.024 . S
C922 O923 1.229 . S
C922 O931 1.058 . S
O923 C922 1.229 . S
C924 O925 1.229 . S
C924 O937 1.058 . S
O925 C924 1.229 . S
O926 Zn920 1.969 . S
O926 C929 1.267 . S
O927 Zn920 1.965 . S
O927 C938 1.260 . S
O928 Zn921 1.969 . S
O928 C938 1.258 . S
C929 O926 1.267 . S
C929 O930 1.228 . S
O930 C929 1.228 . S
O931 Zn920 2.024 . S
O931 C922 1.058 . S
C932 O933 1.228 . S
C932 O934 1.267 . S
O933 C932 1.228 . S
O934 Zn921 1.969 . S
O934 C932 1.267 . S
O935 Zn921 1.965 . S
O935 C939 1.260 . S
O936 Zn920 1.969 . S
O936 C939 1.258 . S
O937 Zn921 2.024 . S
O937 C924 1.058 . S
C938 O927 1.260 . S
C938 O928 1.258 . S
C939 O935 1.260 . S
C939 O936 1.258 . S
Zn940 O946 1.969 . S
Zn940 O947 1.965 . S
Zn940 O951 2.024 . S
Zn940 O956 1.969 . S
Zn941 O948 1.969 . S
Zn941 O954 1.969 . S
Zn941 O955 1.965 . S
Zn941 O957 2.024 . S
C942 O943 1.229 . S
C942 O951 1.058 . S
O943 C942 1.229 . S
C944 O945 1.229 . S
C944 O957 1.058 . S
O945 C944 1.229 . S
O946 Zn940 1.969 . S
O946 C949 1.267 . S
O947 Zn940 1.965 . S
O947 C958 1.260 . S
O948 Zn941 1.969 . S
O948 C958 1.258 . S
C949 O946 1.267 . S
C949 O950 1.228 . S
O950 C949 1.228 . S
O951 Zn940 2.024 . S
O951 C942 1.058 . S
C952 O953 1.228 . S
C952 O954 1.267 . S
O953 C952 1.228 . S
O954 Zn941 1.969 . S
O954 C952 1.267 . S
O955 Zn941 1.965 . S
O955 C959 1.260 . S
O956 Zn940 1.969 . S
O956 C959 1.258 . S
O957 Zn941 2.024 . S
O957 C944 1.058 . S
C958 O947 1.260 . S
C958 O948 1.258 . S
C959 O955 1.260 . S
C959 O956 1.258 . S
H960 C968 0.950 . S
H961 C973 0.950 . S
H962 C970 0.950 . S
H963 C972 0.950 . S
H964 C974 0.950 . S
H965 C976 0.950 . S
H966 C978 0.950 . S
H967 C979 0.950 . S
C968 H960 0.950 . S
C968 C969 1.386 . S
C968 C970 1.391 . S
C969 C968 1.386 . S
C969 C973 1.393 1_455 S
C970 H962 0.950 . S
C970 C968 1.391 . S
C970 C971 1.400 . S
C971 C970 1.400 . S
C971 C972 1.398 1_455 S
C971 C977 1.491 . S
C972 H963 0.950 . S
C972 C971 1.398 1_655 S
C972 C973 1.391 . S
C973 H961 0.950 . S
C973 C969 1.393 1_655 S
C973 C972 1.391 . S
C974 H964 0.950 . S
C974 C975 1.386 1_655 S
C974 C976 1.391 . S
C975 C974 1.386 1_455 S
C975 C979 1.393 . S
C976 H965 0.950 . S
C976 C974 1.391 . S
C976 C977 1.400 1_655 S
C977 C971 1.491 . S
C977 C976 1.400 1_455 S
C977 C978 1.398 . S
C978 H966 0.950 . S
C978 C977 1.398 . S
C978 C979 1.391 . S
C979 H967 0.950 . S
C979 C975 1.393 . S
C979 C978 1.391 . S
H980 C988 0.950 . S
H981 C993 0.950 . S
H982 C990 0.950 . S
H983 C992 0.950 . S
H984 C994 0.950 . S
H985 C996 0.950 . S
H986 C998 0.950 . S
H987 C999 0.950 . S
C988 H980 0.950 . S
C988 C989 1.386 . S
C988 C990 1.391 . S
C989 C988 1.386 . S
C989 C993 1.393 . S
C990 H982 0.950 . S
C990 C988 1.391 . S
C990 C991 1.400 . S
C991 C990 1.400 . S
C991 C992 1.398 . S
C991 C997 1.491 . S
C992 H983 0.950 . S
C992 C991 1.398 . S
C992 C993 1.391 . S
C993 H981 0.950 . S
C993 C989 1.393 . S
C993 C992 1.391 . S
C994 H984 0.950 . S
C994 C995 1.386 . S
C994 C996 1.391 . S
C995 C994 1.386 . S
C995 C999 1.393 . S
C996 H985 0.950 . S
C996 C994 1.391 . S
C996 C997 1.400 . S
C997 C991 1.491 . S
C997 C996 1.400 . S
C997 C998 1.398 . S
C998 H986 0.950 . S
C998 C997 1.398 . S
C998 C999 1.391 . S
C999 H987 0.950 . S
C999 C995 1.393 . S
C999 C998 1.391 . S
H1000 C1008 0.950 . S
H1001 C1013 0.950 . S
H1002 C1010 0.950 . S
H1003 C1012 0.950 . S
H1004 C1014 0.950 . S
H1005 C1016 0.950 . S
H1006 C1018 0.950 . S
H1007 C1019 0.950 . S
C1008 H1000 0.950 . S
C1008 C1009 1.386 . S
C1008 C1010 1.391 . S
C1009 C1008 1.386 . S
C1009 C1013 1.393 . S
C1010 H1002 0.950 . S
C1010 C1008 1.391 . S
C1010 C1011 1.400 . S
C1011 C1010 1.400 . S
C1011 C1012 1.398 . S
C1011 C1017 1.491 . S
C1012 H1003 0.950 . S
C1012 C1011 1.398 . S
C1012 C1013 1.391 . S
C1013 H1001 0.950 . S
C1013 C1009 1.393 . S
C1013 C1012 1.391 . S
C1014 H1004 0.950 . S
C1014 C1015 1.386 . S
C1014 C1016 1.391 . S
C1015 C1014 1.386 . S
C1015 C1019 1.393 . S
C1016 H1005 0.950 . S
C1016 C1014 1.391 . S
C1016 C1017 1.400 . S
C1017 C1011 1.491 . S
C1017 C1016 1.400 . S
C1017 C1018 1.398 . S
C1018 H1006 0.950 . S
C1018 C1017 1.398 . S
C1018 C1019 1.391 . S
C1019 H1007 0.950 . S
C1019 C1015 1.393 . S
C1019 C1018 1.391 . S
H1020 C1028 0.950 . S
H1021 C1033 0.950 1_554 S
H1022 C1030 0.950 . S
H1023 C1032 0.961 . S
H1024 C1034 0.950 . S
H1025 C1036 0.950 . S
H1026 C1038 0.950 . S
H1027 C1039 0.950 . S
C1028 H1020 0.950 . S
C1028 C1029 1.386 . S
C1028 C1030 1.391 . S
C1029 C1028 1.386 . S
C1029 C1033 1.393 . S
C1030 H1022 0.950 . S
C1030 C1028 1.391 . S
C1030 C1031 1.400 . S
C1031 C1030 1.400 . S
C1031 C1032 1.398 . S
C1031 C1037 1.491 . S
C1032 H1023 0.961 . S
C1032 C1031 1.398 . S
C1032 C1033 1.391 . S
C1033 H1021 0.950 1_556 S
C1033 C1029 1.393 . S
C1033 C1032 1.391 . S
C1034 H1024 0.950 . S
C1034 C1035 1.386 . S
C1034 C1036 1.391 . S
C1035 C1034 1.386 . S
C1035 C1039 1.393 . S
C1036 H1025 0.950 . S
C1036 C1034 1.391 . S
C1036 C1037 1.400 . S
C1037 C1031 1.491 . S
C1037 C1036 1.400 . S
C1037 C1038 1.398 . S
C1038 H1026 0.950 . S
C1038 C1037 1.398 . S
C1038 C1039 1.391 . S
C1039 H1027 0.950 . S
C1039 C1035 1.393 . S
C1039 C1038 1.391 . S
H1040 C1048 0.950 . S
H1041 C1053 0.950 . S
H1042 C1050 0.950 . S
H1043 C1052 0.950 . S
H1044 C1054 0.950 . S
H1045 C1056 0.950 . S
H1046 C1058 0.950 . S
H1047 C1059 0.950 . S
C1048 H1040 0.950 . S
C1048 C1049 1.386 1_545 S
C1048 C1050 1.391 . S
C1049 C1048 1.386 1_565 S
C1049 C1053 1.393 . S
C1050 H1042 0.950 . S
C1050 C1048 1.391 . S
C1050 C1051 1.400 1_545 S
C1051 C1050 1.400 1_565 S
C1051 C1052 1.398 . S
C1051 C1057 1.491 . S
C1052 H1043 0.950 . S
C1052 C1051 1.398 . S
C1052 C1053 1.391 . S
C1053 H1041 0.950 . S
C1053 C1049 1.393 . S
C1053 C1052 1.391 . S
C1054 H1044 0.950 . S
C1054 C1055 1.386 . S
C1054 C1056 1.391 . S
C1055 C1054 1.386 . S
C1055 C1059 1.393 1_565 S
C1056 H1045 0.950 . S
C1056 C1054 1.391 . S
C1056 C1057 1.400 . S
C1057 C1051 1.491 . S
C1057 C1056 1.400 . S
C1057 C1058 1.398 1_565 S
C1058 H1046 0.950 . S
C1058 C1057 1.398 1_545 S
C1058 C1059 1.391 . S
C1059 H1047 0.950 . S
C1059 C1055 1.393 1_545 S
C1059 C1058 1.391 . S
H1060 C1068 0.950 . S
H1061 C1073 0.950 . S
H1062 C1070 0.950 . S
H1063 C1072 0.950 . S
H1064 C1074 0.950 . S
H1065 C1076 0.950 . S
H1066 C1078 0.950 . S
H1067 C1079 0.950 . S
C1068 H1060 0.950 . S
C1068 C1069 1.386 . S
C1068 C1070 1.391 . S
C1069 C1068 1.386 . S
C1069 C1073 1.393 . S
C1070 H1062 0.950 . S
C1070 C1068 1.391 . S
C1070 C1071 1.400 . S
C1071 C1070 1.400 . S
C1071 C1072 1.398 . S
C1071 C1077 1.491 . S
C1072 H1063 0.950 . S
C1072 C1071 1.398 . S
C1072 C1073 1.391 . S
C1073 H1061 0.950 . S
C1073 C1069 1.393 . S
C1073 C1072 1.391 . S
C1074 H1064 0.950 . S
C1074 C1075 1.386 . S
C1074 C1076 1.391 . S
C1075 C1074 1.386 . S
C1075 C1079 1.393 . S
C1076 H1065 0.950 . S
C1076 C1074 1.391 . S
C1076 C1077 1.400 . S
C1077 C1071 1.491 . S
C1077 C1076 1.400 . S
C1077 C1078 1.398 . S
C1078 H1066 0.950 . S
C1078 C1077 1.398 . S
C1078 C1079 1.391 . S
C1079 H1067 0.950 . S
C1079 C1075 1.393 . S
C1079 C1078 1.391 . S
H1080 C1088 0.950 . S
H1081 C1093 0.950 . S
H1082 C1090 0.950 . S
H1083 C1092 0.950 . S
H1084 C1094 0.950 . S
H1085 C1096 0.926 1_554 S
H1086 C1098 0.950 . S
H1087 C1099 0.944 1_545 S
C1088 H1080 0.950 . S
C1088 C1089 1.375 1_545 S
C1088 C1090 1.391 . S
C1089 C1088 1.375 1_565 S
C1089 C1093 1.410 . S
C1090 H1082 0.950 . S
C1090 C1088 1.391 . S
C1090 C1091 1.400 1_545 S
C1091 C1090 1.400 1_565 S
C1091 C1092 1.398 . S
C1091 C1097 1.491 . S
C1092 H1083 0.950 . S
C1092 C1091 1.398 . S
C1092 C1093 1.391 . S
C1093 H1081 0.950 . S
C1093 C1089 1.410 . S
C1093 C1092 1.391 . S
C1094 H1084 0.950 . S
C1094 C1095 1.386 . S
C1094 C1096 1.391 . S
C1095 C1094 1.386 . S
C1095 C1099 1.401 . S
C1096 H1085 0.926 1_556 S
C1096 C1094 1.391 . S
C1096 C1097 1.400 1_556 S
C1097 C1091 1.491 . S
C1097 C1096 1.400 1_554 S
C1097 C1098 1.398 1_564 S
C1098 H1086 0.950 . S
C1098 C1097 1.398 1_546 S
C1098 C1099 1.388 1_545 S
C1099 H1087 0.944 1_565 S
C1099 C1095 1.401 . S
C1099 C1098 1.388 1_565 S
H1100 C1108 0.950 . S
H1101 C1113 0.950 . S
H1102 C1110 0.950 . S
H1103 C1112 0.950 . S
H1104 C1114 0.950 . S
H1105 C1116 0.950 . S
H1106 C1118 0.950 1_545 S
H1107 C1119 0.950 1_545 S
C1108 H1100 0.950 . S
C1108 C1109 1.386 1_545 S
C1108 C1110 1.391 . S
C1109 C1108 1.386 1_565 S
C1109 C1113 1.393 . S
C1110 H1102 0.950 . S
C1110 C1108 1.391 . S
C1110 C1111 1.400 1_545 S
C1111 C1110 1.400 1_565 S
C1111 C1112 1.398 . S
C1111 C1117 1.491 . S
C1112 H1103 0.950 . S
C1112 C1111 1.398 . S
C1112 C1113 1.391 . S
C1113 H1101 0.950 . S
C1113 C1109 1.393 . S
C1113 C1112 1.391 . S
C1114 H1104 0.950 . S
C1114 C1115 1.386 . S
C1114 C1116 1.391 . S
C1115 C1114 1.386 . S
C1115 C1119 1.393 . S
C1116 H1105 0.950 . S
C1116 C1114 1.391 . S
C1116 C1117 1.400 . S
C1117 C1111 1.491 . S
C1117 C1116 1.400 . S
C1117 C1118 1.398 . S
C1118 H1106 0.950 1_565 S
C1118 C1117 1.398 . S
C1118 C1119 1.391 . S
C1119 H1107 0.950 1_565 S
C1119 C1115 1.393 . S
C1119 C1118 1.391 . S
H1120 C1128 0.950 . S
H1121 C1133 0.950 . S
H1122 C1130 0.950 . S
H1123 C1132 0.950 . S
H1124 C1134 0.950 . S
H1125 C1136 0.950 . S
H1126 C1138 0.950 . S
H1127 C1139 0.950 . S
C1128 H1120 0.950 . S
C1128 C1129 1.386 1_554 S
C1128 C1130 1.391 . S
C1129 C1128 1.386 1_556 S
C1129 C1133 1.393 . S
C1130 H1122 0.950 . S
C1130 C1128 1.391 . S
C1130 C1131 1.400 1_554 S
C1131 C1130 1.400 1_556 S
C1131 C1132 1.398 . S
C1131 C1137 1.491 . S
C1132 H1123 0.950 . S
C1132 C1131 1.398 . S
C1132 C1133 1.391 . S
C1133 H1121 0.950 . S
C1133 C1129 1.393 . S
C1133 C1132 1.391 . S
C1134 H1124 0.950 . S
C1134 C1135 1.386 . S
C1134 C1136 1.391 . S
C1135 C1134 1.386 . S
C1135 C1139 1.393 1_556 S
C1136 H1125 0.950 . S
C1136 C1134 1.391 . S
C1136 C1137 1.400 . S
C1137 C1131 1.491 . S
C1137 C1136 1.400 . S
C1137 C1138 1.398 1_556 S
C1138 H1126 0.950 . S
C1138 C1137 1.398 1_554 S
C1138 C1139 1.391 . S
C1139 H1127 0.950 . S
C1139 C1135 1.393 1_554 S
C1139 C1138 1.391 . S
H1140 C1148 0.950 . S
H1141 C1153 0.950 . S
H1142 C1150 0.950 . S
H1143 C1152 0.950 . S
H1144 C1154 0.950 . S
H1145 C1156 0.950 . S
H1146 C1158 0.950 . S
H1147 C1159 0.950 . S
C1148 H1140 0.950 . S
C1148 C1149 1.386 . S
C1148 C1150 1.391 . S
C1149 C1148 1.386 . S
C1149 C1153 1.393 . S
C1150 H1142 0.950 . S
C1150 C1148 1.391 . S
C1150 C1151 1.400 . S
C1151 C1150 1.400 . S
C1151 C1152 1.398 . S
C1151 C1157 1.491 1_655 S
C1152 H1143 0.950 . S
C1152 C1151 1.398 . S
C1152 C1153 1.391 . S
C1153 H1141 0.950 . S
C1153 C1149 1.393 . S
C1153 C1152 1.391 . S
C1154 H1144 0.950 . S
C1154 C1155 1.386 . S
C1154 C1156 1.391 . S
C1155 C1154 1.386 . S
C1155 C1159 1.393 . S
C1156 H1145 0.950 . S
C1156 C1154 1.391 . S
C1156 C1157 1.400 . S
C1157 C1151 1.491 1_455 S
C1157 C1156 1.400 . S
C1157 C1158 1.398 . S
C1158 H1146 0.950 . S
C1158 C1157 1.398 . S
C1158 C1159 1.391 . S
C1159 H1147 0.950 . S
C1159 C1155 1.393 . S
C1159 C1158 1.391 . S
H1160 C1168 0.950 . S
H1161 C1173 0.950 1_455 S
H1162 C1170 0.950 . S
H1163 C1172 0.953 . S
H1164 C1174 0.950 . S
H1165 C1176 0.950 . S
H1166 C1178 0.950 . S
H1167 C1179 0.950 . S
C1168 H1160 0.950 . S
C1168 C1169 1.386 . S
C1168 C1170 1.391 . S
C1169 C1168 1.386 . S
C1169 C1173 1.393 . S
C1170 H1162 0.950 . S
C1170 C1168 1.391 . S
C1170 C1171 1.400 . S
C1171 C1170 1.400 . S
C1171 C1172 1.396 1_655 S
C1171 C1177 1.491 . S
C1172 H1163 0.953 . S
C1172 C1171 1.396 1_455 S
C1172 C1173 1.390 1_455 S
C1173 H1161 0.950 1_655 S
C1173 C1169 1.393 . S
C1173 C1172 1.390 1_655 S
C1174 H1164 0.950 . S
C1174 C1175 1.386 1_455 S
C1174 C1176 1.391 . S
C1175 C1174 1.386 1_655 S
C1175 C1179 1.393 . S
C1176 H1165 0.950 . S
C1176 C1174 1.391 . S
C1176 C1177 1.400 1_455 S
C1177 C1171 1.491 . S
C1177 C1176 1.400 1_655 S
C1177 C1178 1.398 . S
C1178 H1166 0.950 . S
C1178 C1177 1.398 . S
C1178 C1179 1.391 . S
C1179 H1167 0.950 . S
C1179 C1175 1.393 . S
C1179 C1178 1.391 . S
H1180 C1188 0.950 . S
H1181 C1193 0.950 . S
H1182 C1190 0.950 . S
H1183 C1192 0.950 . S
H1184 C1194 0.950 . S
H1185 C1196 0.950 . S
H1186 C1198 0.950 . S
H1187 C1199 0.950 . S
C1188 H1180 0.950 . S
C1188 C1189 1.386 . S
C1188 C1190 1.391 . S
C1189 C1188 1.386 . S
C1189 C1193 1.393 . S
C1190 H1182 0.950 . S
C1190 C1188 1.391 . S
C1190 C1191 1.400 . S
C1191 C1190 1.400 . S
C1191 C1192 1.398 . S
C1191 C1197 1.491 . S
C1192 H1183 0.950 . S
C1192 C1191 1.398 . S
C1192 C1193 1.391 . S
C1193 H1181 0.950 . S
C1193 C1189 1.393 . S
C1193 C1192 1.391 . S
C1194 H1184 0.950 . S
C1194 C1195 1.386 . S
C1194 C1196 1.391 . S
C1195 C1194 1.386 . S
C1195 C1199 1.393 . S
C1196 H1185 0.950 . S
C1196 C1194 1.391 . S
C1196 C1197 1.400 . S
C1197 C1191 1.491 . S
C1197 C1196 1.400 . S
C1197 C1198 1.398 . S
C1198 H1186 0.950 . S
C1198 C1197 1.398 . S
C1198 C1199 1.391 . S
C1199 H1187 0.950 . S
C1199 C1195 1.393 . S
C1199 C1198 1.391 . S
H1200 C1208 0.950 . S
H1201 C1213 0.950 . S
H1202 C1210 0.950 . S
H1203 C1212 0.950 . S
H1204 C1214 0.950 . S
H1205 C1216 0.950 . S
H1206 C1218 0.950 . S
H1207 C1219 0.950 . S
C1208 H1200 0.950 . S
C1208 C1209 1.386 . S
C1208 C1210 1.391 . S
C1209 C1208 1.386 . S
C1209 C1213 1.393 . S
C1210 H1202 0.950 . S
C1210 C1208 1.391 . S
C1210 C1211 1.400 . S
C1211 C1210 1.400 . S
C1211 C1212 1.398 . S
C1211 C1217 1.491 1_655 S
C1212 H1203 0.950 . S
C1212 C1211 1.398 . S
C1212 C1213 1.391 . S
C1213 H1201 0.950 . S
C1213 C1209 1.393 . S
C1213 C1212 1.391 . S
C1214 H1204 0.950 . S
C1214 C1215 1.386 . S
C1214 C1216 1.391 . S
C1215 C1214 1.386 . S
C1215 C1219 1.393 . S
C1216 H1205 0.950 . S
C1216 C1214 1.391 . S
C1216 C1217 1.400 . S
C1217 C1211 1.491 1_455 S
C1217 C1216 1.400 . S
C1217 C1218 1.398 . S
C1218 H1206 0.950 . S
C1218 C1217 1.398 . S
C1218 C1219 1.391 . S
C1219 H1207 0.950 . S
C1219 C1215 1.393 . S
C1219 C1218 1.391 . S
H1220 C1228 0.950 . S
H1221 C1233 0.950 . S
H1222 C1230 0.950 . S
H1223 C1232 0.950 . S
H1224 C1234 0.950 . S
H1225 C1236 0.950 . S
H1226 C1238 0.950 . S
H1227 C1239 0.950 . S
C1228 H1220 0.950 . S
C1228 C1229 1.386 . S
C1228 C1230 1.391 . S
C1229 C1228 1.386 . S
C1229 C1233 1.393 1_455 S
C1230 H1222 0.950 . S
C1230 C1228 1.391 . S
C1230 C1231 1.400 . S
C1231 C1230 1.400 . S
C1231 C1232 1.398 1_455 S
C1231 C1237 1.491 . S
C1232 H1223 0.950 . S
C1232 C1231 1.398 1_655 S
C1232 C1233 1.391 . S
C1233 H1221 0.950 . S
C1233 C1229 1.393 1_655 S
C1233 C1232 1.391 . S
C1234 H1224 0.950 . S
C1234 C1235 1.386 1_655 S
C1234 C1236 1.391 . S
C1235 C1234 1.386 1_455 S
C1235 C1239 1.393 . S
C1236 H1225 0.950 . S
C1236 C1234 1.391 . S
C1236 C1237 1.400 1_655 S
C1237 C1231 1.491 . S
C1237 C1236 1.400 1_455 S
C1237 C1238 1.398 . S
C1238 H1226 0.950 . S
C1238 C1237 1.398 . S
C1238 C1239 1.391 . S
C1239 H1227 0.950 . S
C1239 C1235 1.393 . S
C1239 C1238 1.391 . S
H1240 C1248 0.950 . S
H1241 C1253 0.950 . S
H1242 C1250 0.950 . S
H1243 C1252 0.950 . S
H1244 C1254 0.950 . S
H1245 C1256 0.950 . S
H1246 C1258 0.950 . S
H1247 C1259 0.950 . S
C1248 H1240 0.950 . S
C1248 C1249 1.386 . S
C1248 C1250 1.391 . S
C1249 C1248 1.386 . S
C1249 C1253 1.393 . S
C1250 H1242 0.950 . S
C1250 C1248 1.391 . S
C1250 C1251 1.400 . S
C1251 C1250 1.400 . S
C1251 C1252 1.398 . S
C1251 C1257 1.491 . S
C1252 H1243 0.950 . S
C1252 C1251 1.398 . S
C1252 C1253 1.391 . S
C1253 H1241 0.950 . S
C1253 C1249 1.393 . S
C1253 C1252 1.391 . S
C1254 H1244 0.950 . S
C1254 C1255 1.386 . S
C1254 C1256 1.391 . S
C1255 C1254 1.386 . S
C1255 C1259 1.393 . S
C1256 H1245 0.950 . S
C1256 C1254 1.391 . S
C1256 C1257 1.400 . S
C1257 C1251 1.491 . S
C1257 C1256 1.400 . S
C1257 C1258 1.398 . S
C1258 H1246 0.950 . S
C1258 C1257 1.398 . S
C1258 C1259 1.391 . S
C1259 H1247 0.950 . S
C1259 C1255 1.393 . S
C1259 C1258 1.391 . S
H1260 C1268 0.950 . S
H1261 C1273 0.950 . S
H1262 C1270 0.950 . S
H1263 C1272 0.950 . S
H1264 C1274 0.950 . S
H1265 C1276 0.950 . S
H1266 C1278 0.950 . S
H1267 C1279 0.950 . S
C1268 H1260 0.950 . S
C1268 C1269 1.386 . S
C1268 C1270 1.391 . S
C1269 C1268 1.386 . S
C1269 C1273 1.393 1_655 S
C1270 H1262 0.950 . S
C1270 C1268 1.391 . S
C1270 C1271 1.400 . S
C1271 C1270 1.400 . S
C1271 C1272 1.398 1_655 S
C1271 C1277 1.491 . S
C1272 H1263 0.950 . S
C1272 C1271 1.398 1_455 S
C1272 C1273 1.391 . S
C1273 H1261 0.950 . S
C1273 C1269 1.393 1_455 S
C1273 C1272 1.391 . S
C1274 H1264 0.950 . S
C1274 C1275 1.386 1_455 S
C1274 C1276 1.391 . S
C1275 C1274 1.386 1_655 S
C1275 C1279 1.393 . S
C1276 H1265 0.950 . S
C1276 C1274 1.391 . S
C1276 C1277 1.400 1_455 S
C1277 C1271 1.491 . S
C1277 C1276 1.400 1_655 S
C1277 C1278 1.398 . S
C1278 H1266 0.950 . S
C1278 C1277 1.398 . S
C1278 C1279 1.391 . S
C1279 H1267 0.950 . S
C1279 C1275 1.393 . S
C1279 C1278 1.391 . S
H1280 C1288 0.950 . S
H1281 C1293 0.950 . S
H1282 C1290 0.950 . S
H1283 C1292 0.950 . S
H1284 C1294 0.950 . S
H1285 C1296 0.950 . S
H1286 C1298 0.950 . S
H1287 C1299 0.950 . S
C1288 H1280 0.950 . S
C1288 C1289 1.386 . S
C1288 C1290 1.391 . S
C1289 C1288 1.386 . S
C1289 C1293 1.393 . S
C1290 H1282 0.950 . S
C1290 C1288 1.391 . S
C1290 C1291 1.400 . S
C1291 C1290 1.400 . S
C1291 C1292 1.398 . S
C1291 C1297 1.491 . S
C1292 H1283 0.950 . S
C1292 C1291 1.398 . S
C1292 C1293 1.391 . S
C1293 H1281 0.950 . S
C1293 C1289 1.393 . S
C1293 C1292 1.391 . S
C1294 H1284 0.950 . S
C1294 C1295 1.386 . S
C1294 C1296 1.391 . S
C1295 C1294 1.386 . S
C1295 C1299 1.393 . S
C1296 H1285 0.950 . S
C1296 C1294 1.391 . S
C1296 C1297 1.400 . S
C1297 C1291 1.491 . S
C1297 C1296 1.400 . S
C1297 C1298 1.398 . S
C1298 H1286 0.950 . S
C1298 C1297 1.398 . S
C1298 C1299 1.391 . S
C1299 H1287 0.950 . S
C1299 C1295 1.393 . S
C1299 C1298 1.391 . S
H1300 C1308 0.950 . S
H1301 C1313 0.950 . S
H1302 C1310 0.950 . S
H1303 C1312 0.950 . S
H1304 C1314 0.950 . S
H1305 C1316 0.950 . S
H1306 C1318 0.950 . S
H1307 C1319 0.950 . S
C1308 H1300 0.950 . S
C1308 C1309 1.386 . S
C1308 C1310 1.391 . S
C1309 C1308 1.386 . S
C1309 C1313 1.393 . S
C1310 H1302 0.950 . S
C1310 C1308 1.391 . S
C1310 C1311 1.400 . S
C1311 C1310 1.400 . S
C1311 C1312 1.398 . S
C1311 C1317 1.491 . S
C1312 H1303 0.950 . S
C1312 C1311 1.398 . S
C1312 C1313 1.391 . S
C1313 H1301 0.950 . S
C1313 C1309 1.393 . S
C1313 C1312 1.391 . S
C1314 H1304 0.950 . S
C1314 C1315 1.386 . S
C1314 C1316 1.391 . S
C1315 C1314 1.386 . S
C1315 C1319 1.393 . S
C1316 H1305 0.950 . S
C1316 C1314 1.391 . S
C1316 C1317 1.400 . S
C1317 C1311 1.491 . S
C1317 C1316 1.400 . S
C1317 C1318 1.398 . S
C1318 H1306 0.950 . S
C1318 C1317 1.398 . S
C1318 C1319 1.391 . S
C1319 H1307 0.950 . S
C1319 C1315 1.393 . S
C1319 C1318 1.391 . S
H1320 C1328 0.950 . S
H1321 C1333 0.950 . S
H1322 C1330 0.950 . S
H1323 C1332 0.950 . S
H1324 C1334 0.950 . S
H1325 C1336 0.950 . S
H1326 C1338 0.950 . S
H1327 C1339 0.950 . S
C1328 H1320 0.950 . S
C1328 C1329 1.386 . S
C1328 C1330 1.391 . S
C1329 C1328 1.386 . S
C1329 C1333 1.393 . S
C1330 H1322 0.950 . S
C1330 C1328 1.391 . S
C1330 C1331 1.400 . S
C1331 C1330 1.400 . S
C1331 C1332 1.398 . S
C1331 C1337 1.491 . S
C1332 H1323 0.950 . S
C1332 C1331 1.398 . S
C1332 C1333 1.391 . S
C1333 H1321 0.950 . S
C1333 C1329 1.393 . S
C1333 C1332 1.391 . S
C1334 H1324 0.950 . S
C1334 C1335 1.386 . S
C1334 C1336 1.391 . S
C1335 C1334 1.386 . S
C1335 C1339 1.393 . S
C1336 H1325 0.950 . S
C1336 C1334 1.391 . S
C1336 C1337 1.400 . S
C1337 C1331 1.491 . S
C1337 C1336 1.400 . S
C1337 C1338 1.398 . S
C1338 H1326 0.950 . S
C1338 C1337 1.398 . S
C1338 C1339 1.391 . S
C1339 H1327 0.950 . S
C1339 C1335 1.393 . S
C1339 C1338 1.391 . S
H1340 C1348 0.950 . S
H1341 C1353 0.950 . S
H1342 C1350 0.950 . S
H1343 C1352 0.950 . S
H1344 C1354 0.950 . S
H1345 C1356 0.950 . S
H1346 C1358 0.950 . S
H1347 C1359 0.950 . S
C1348 H1340 0.950 . S
C1348 C1349 1.386 1_565 S
C1348 C1350 1.391 . S
C1349 C1348 1.386 1_545 S
C1349 C1353 1.393 . S
C1350 H1342 0.950 . S
C1350 C1348 1.391 . S
C1350 C1351 1.400 1_565 S
C1351 C1350 1.400 1_545 S
C1351 C1352 1.398 . S
C1351 C1357 1.491 . S
C1352 H1343 0.950 . S
C1352 C1351 1.398 . S
C1352 C1353 1.391 . S
C1353 H1341 0.950 . S
C1353 C1349 1.393 . S
C1353 C1352 1.391 . S
C1354 H1344 0.950 . S
C1354 C1355 1.386 . S
C1354 C1356 1.391 . S
C1355 C1354 1.386 . S
C1355 C1359 1.393 1_545 S
C1356 H1345 0.950 . S
C1356 C1354 1.391 . S
C1356 C1357 1.400 . S
C1357 C1351 1.491 . S
C1357 C1356 1.400 . S
C1357 C1358 1.398 1_545 S
C1358 H1346 0.950 . S
C1358 C1357 1.398 1_565 S
C1358 C1359 1.391 . S
C1359 H1347 0.950 . S
C1359 C1355 1.393 1_565 S
C1359 C1358 1.391 . S
H1360 C1368 0.950 . S
H1361 C1373 0.950 . S
H1362 C1370 0.950 . S
H1363 C1372 0.950 . S
H1364 C1374 0.950 . S
H1365 C1376 0.950 . S
H1366 C1378 0.950 . S
H1367 C1379 0.950 . S
C1368 H1360 0.950 . S
C1368 C1369 1.386 . S
C1368 C1370 1.391 . S
C1369 C1368 1.386 . S
C1369 C1373 1.393 . S
C1370 H1362 0.950 . S
C1370 C1368 1.391 . S
C1370 C1371 1.400 . S
C1371 C1370 1.400 . S
C1371 C1372 1.398 . S
C1371 C1377 1.491 . S
C1372 H1363 0.950 . S
C1372 C1371 1.398 . S
C1372 C1373 1.391 . S
C1373 H1361 0.950 . S
C1373 C1369 1.393 . S
C1373 C1372 1.391 . S
C1374 H1364 0.950 . S
C1374 C1375 1.386 . S
C1374 C1376 1.391 . S
C1375 C1374 1.386 . S
C1375 C1379 1.393 . S
C1376 H1365 0.950 . S
C1376 C1374 1.391 . S
C1376 C1377 1.400 . S
C1377 C1371 1.491 . S
C1377 C1376 1.400 . S
C1377 C1378 1.398 . S
C1378 H1366 0.950 . S
C1378 C1377 1.398 . S
C1378 C1379 1.391 . S
C1379 H1367 0.950 . S
C1379 C1375 1.393 . S
C1379 C1378 1.391 . S
H1380 C1388 0.950 . S
H1381 C1393 0.950 . S
H1382 C1390 0.950 . S
H1383 C1392 0.950 . S
H1384 C1394 0.950 . S
H1385 C1396 0.950 . S
H1386 C1398 0.953 . S
H1387 C1399 0.950 . S
C1388 H1380 0.950 . S
C1388 C1389 1.378 1_545 S
C1388 C1390 1.391 . S
C1389 C1388 1.378 1_565 S
C1389 C1393 1.396 . S
C1390 H1382 0.950 . S
C1390 C1388 1.391 . S
C1390 C1391 1.400 . S
C1391 C1390 1.400 . S
C1391 C1392 1.398 1_545 S
C1391 C1397 1.491 . S
C1392 H1383 0.950 . S
C1392 C1391 1.398 1_565 S
C1392 C1393 1.391 . S
C1393 H1381 0.950 . S
C1393 C1389 1.396 . S
C1393 C1392 1.391 . S
C1394 H1384 0.950 . S
C1394 C1395 1.386 . S
C1394 C1396 1.391 . S
C1395 C1394 1.386 . S
C1395 C1399 1.393 . S
C1396 H1385 0.950 . S
C1396 C1394 1.391 . S
C1396 C1397 1.400 1_554 S
C1397 C1391 1.491 . S
C1397 C1396 1.400 1_556 S
C1397 C1398 1.398 1_556 S
C1398 H1386 0.953 . S
C1398 C1397 1.398 1_554 S
C1398 C1399 1.391 . S
C1399 H1387 0.950 . S
C1399 C1395 1.393 . S
C1399 C1398 1.391 . S
H1400 C1408 0.950 . S
H1401 C1413 0.930 1_565 S
H1402 C1410 0.950 . S
H1403 C1412 0.950 . S
H1404 C1414 0.950 . S
H1405 C1416 0.950 . S
H1406 C1418 0.950 . S
H1407 C1419 0.950 . S
C1408 H1400 0.950 . S
C1408 C1409 1.386 . S
C1408 C1410 1.391 . S
C1409 C1408 1.386 . S
C1409 C1413 1.415 . S
C1410 H1402 0.950 . S
C1410 C1408 1.391 . S
C1410 C1411 1.400 . S
C1411 C1410 1.400 . S
C1411 C1412 1.398 1_545 S
C1411 C1417 1.491 . S
C1412 H1403 0.950 . S
C1412 C1411 1.398 1_565 S
C1412 C1413 1.389 1_565 S
C1413 H1401 0.930 1_545 S
C1413 C1409 1.415 . S
C1413 C1412 1.389 1_545 S
C1414 H1404 0.950 . S
C1414 C1415 1.386 1_565 S
C1414 C1416 1.391 . S
C1415 C1414 1.386 1_545 S
C1415 C1419 1.393 . S
C1416 H1405 0.950 . S
C1416 C1414 1.391 . S
C1416 C1417 1.400 1_565 S
C1417 C1411 1.491 . S
C1417 C1416 1.400 1_545 S
C1417 C1418 1.398 . S
C1418 H1406 0.950 . S
C1418 C1417 1.398 . S
C1418 C1419 1.391 . S
C1419 H1407 0.950 . S
C1419 C1415 1.393 . S
C1419 C1418 1.391 . S
H1420 C1428 0.950 . S
H1421 C1433 0.950 . S
H1422 C1430 0.950 . S
H1423 C1432 0.950 . S
H1424 C1434 0.950 . S
H1425 C1436 0.950 . S
H1426 C1438 0.950 . S
H1427 C1439 0.950 . S
C1428 H1420 0.950 . S
C1428 C1429 1.386 . S
C1428 C1430 1.391 . S
C1429 C1428 1.386 . S
C1429 C1433 1.393 1_554 S
C1430 H1422 0.950 . S
C1430 C1428 1.391 . S
C1430 C1431 1.400 . S
C1431 C1430 1.400 . S
C1431 C1432 1.398 1_554 S
C1431 C1437 1.491 . S
C1432 H1423 0.950 . S
C1432 C1431 1.398 1_556 S
C1432 C1433 1.391 . S
C1433 H1421 0.950 . S
C1433 C1429 1.393 1_556 S
C1433 C1432 1.391 . S
C1434 H1424 0.950 . S
C1434 C1435 1.386 1_556 S
C1434 C1436 1.391 . S
C1435 C1434 1.386 1_554 S
C1435 C1439 1.393 . S
C1436 H1425 0.950 . S
C1436 C1434 1.391 . S
C1436 C1437 1.400 1_556 S
C1437 C1431 1.491 . S
C1437 C1436 1.400 1_554 S
C1437 C1438 1.398 . S
C1438 H1426 0.950 . S
C1438 C1437 1.398 . S
C1438 C1439 1.391 . S
C1439 H1427 0.950 . S
C1439 C1435 1.393 . S
C1439 C1438 1.391 . S
H1440 C1448 0.950 1_556 S
H1441 C1453 0.950 . S
H1442 C1450 0.950 1_556 S
H1443 C1452 0.950 . S
H1444 C1454 0.950 . S
H1445 C1456 0.950 . S
H1446 C1458 0.950 1_556 S
H1447 C1459 0.950 1_556 S
C1448 H1440 0.950 1_554 S
C1448 C1449 1.386 . S
C1448 C1450 1.391 . S
C1449 C1448 1.386 . S
C1449 C1453 1.393 . S
C1450 H1442 0.950 1_554 S
C1450 C1448 1.391 . S
C1450 C1451 1.400 . S
C1451 C1450 1.400 . S
C1451 C1452 1.398 . S
C1451 C1457 1.491 1_655 S
C1452 H1443 0.950 . S
C1452 C1451 1.398 . S
C1452 C1453 1.391 . S
C1453 H1441 0.950 . S
C1453 C1449 1.393 . S
C1453 C1452 1.391 . S
C1454 H1444 0.950 . S
C1454 C1455 1.386 . S
C1454 C1456 1.391 . S
C1455 C1454 1.386 . S
C1455 C1459 1.393 . S
C1456 H1445 0.950 . S
C1456 C1454 1.391 . S
C1456 C1457 1.400 . S
C1457 C1451 1.491 1_455 S
C1457 C1456 1.400 . S
C1457 C1458 1.398 . S
C1458 H1446 0.950 1_554 S
C1458 C1457 1.398 . S
C1458 C1459 1.391 . S
C1459 H1447 0.950 1_554 S
C1459 C1455 1.393 . S
C1459 C1458 1.391 . S
H1460 C1468 0.950 . S
H1461 C1473 0.950 . S
H1462 C1470 0.950 . S
H1463 C1472 0.950 . S
H1464 C1474 0.950 . S
H1465 C1476 0.950 . S
H1466 C1478 0.950 . S
H1467 C1479 0.950 . S
C1468 H1460 0.950 . S
C1468 C1469 1.386 . S
C1468 C1470 1.391 . S
C1469 C1468 1.386 . S
C1469 C1473 1.393 . S
C1470 H1462 0.950 . S
C1470 C1468 1.391 . S
C1470 C1471 1.400 . S
C1471 C1470 1.400 . S
C1471 C1472 1.398 . S
C1471 C1477 1.491 . S
C1472 H1463 0.950 . S
C1472 C1471 1.398 . S
C1472 C1473 1.391 . S
C1473 H1461 0.950 . S
C1473 C1469 1.393 . S
C1473 C1472 1.391 . S
C1474 H1464 0.950 . S
C1474 C1475 1.386 . S
C1474 C1476 1.391 . S
C1475 C1474 1.386 . S
C1475 C1479 1.393 . S
C1476 H1465 0.950 . S
C1476 C1474 1.391 . S
C1476 C1477 1.400 . S
C1477 C1471 1.491 . S
C1477 C1476 1.400 . S
C1477 C1478 1.398 . S
C1478 H1466 0.950 . S
C1478 C1477 1.398 . S
C1478 C1479 1.391 . S
C1479 H1467 0.950 . S
C1479 C1475 1.393 . S
C1479 C1478 1.391 . S
H1480 C1488 0.950 . S
H1481 C1493 0.950 . S
H1482 C1490 0.950 . S
H1483 C1492 0.950 . S
H1484 C1494 0.950 . S
H1485 C1496 0.950 . S
H1486 C1498 0.950 . S
H1487 C1499 0.950 . S
C1488 H1480 0.950 . S
C1488 C1489 1.386 . S
C1488 C1490 1.391 . S
C1489 C1488 1.386 . S
C1489 C1493 1.393 . S
C1490 H1482 0.950 . S
C1490 C1488 1.391 . S
C1490 C1491 1.400 . S
C1491 C1490 1.400 . S
C1491 C1492 1.398 . S
C1491 C1497 1.491 . S
C1492 H1483 0.950 . S
C1492 C1491 1.398 . S
C1492 C1493 1.391 . S
C1493 H1481 0.950 . S
C1493 C1489 1.393 . S
C1493 C1492 1.391 . S
C1494 H1484 0.950 . S
C1494 C1495 1.386 . S
C1494 C1496 1.391 . S
C1495 C1494 1.386 . S
C1495 C1499 1.393 . S
C1496 H1485 0.950 . S
C1496 C1494 1.391 . S
C1496 C1497 1.400 . S
C1497 C1491 1.491 . S
C1497 C1496 1.400 . S
C1497 C1498 1.398 . S
C1498 H1486 0.950 . S
C1498 C1497 1.398 . S
C1498 C1499 1.391 . S
C1499 H1487 0.950 . S
C1499 C1495 1.393 . S
C1499 C1498 1.391 . S
H1500 C1508 0.950 . S
H1501 C1513 0.950 . S
H1502 C1510 0.950 . S
H1503 C1512 0.950 . S
H1504 C1514 0.950 . S
H1505 C1516 0.950 . S
H1506 C1518 0.950 . S
H1507 C1519 0.950 . S
C1508 H1500 0.950 . S
C1508 C1509 1.386 . S
C1508 C1510 1.391 . S
C1509 C1508 1.386 . S
C1509 C1513 1.393 . S
C1510 H1502 0.950 . S
C1510 C1508 1.391 . S
C1510 C1511 1.400 . S
C1511 C1510 1.400 . S
C1511 C1512 1.398 . S
C1511 C1517 1.491 1_655 S
C1512 H1503 0.950 . S
C1512 C1511 1.398 . S
C1512 C1513 1.391 . S
C1513 H1501 0.950 . S
C1513 C1509 1.393 . S
C1513 C1512 1.391 . S
C1514 H1504 0.950 . S
C1514 C1515 1.386 . S
C1514 C1516 1.391 . S
C1515 C1514 1.386 . S
C1515 C1519 1.393 . S
C1516 H1505 0.950 . S
C1516 C1514 1.391 . S
C1516 C1517 1.400 . S
C1517 C1511 1.491 1_455 S
C1517 C1516 1.400 . S
C1517 C1518 1.398 . S
C1518 H1506 0.950 . S
C1518 C1517 1.398 . S
C1518 C1519 1.391 . S
C1519 H1507 0.950 . S
C1519 C1515 1.393 . S
C1519 C1518 1.391 . S
H1520 C1528 0.950 . S
H1521 C1533 0.950 . S
H1522 C1530 0.950 . S
H1523 C1532 0.950 . S
H1524 C1534 0.950 . S
H1525 C1536 0.950 . S
H1526 C1538 0.950 . S
H1527 C1539 0.950 . S
C1528 H1520 0.950 . S
C1528 C1529 1.386 . S
C1528 C1530 1.391 . S
C1529 C1528 1.386 . S
C1529 C1533 1.393 1_655 S
C1530 H1522 0.950 . S
C1530 C1528 1.391 . S
C1530 C1531 1.400 . S
C1531 C1530 1.400 . S
C1531 C1532 1.398 1_655 S
C1531 C1537 1.491 . S
C1532 H1523 0.950 . S
C1532 C1531 1.398 1_455 S
C1532 C1533 1.391 . S
C1533 H1521 0.950 . S
C1533 C1529 1.393 1_455 S
C1533 C1532 1.391 . S
C1534 H1524 0.950 . S
C1534 C1535 1.386 1_455 S
C1534 C1536 1.391 . S
C1535 C1534 1.386 1_655 S
C1535 C1539 1.393 . S
C1536 H1525 0.950 . S
C1536 C1534 1.391 . S
C1536 C1537 1.400 1_455 S
C1537 C1531 1.491 . S
C1537 C1536 1.400 1_655 S
C1537 C1538 1.398 . S
C1538 H1526 0.950 . S
C1538 C1537 1.398 . S
C1538 C1539 1.391 . S
C1539 H1527 0.950 . S
C1539 C1535 1.393 . S
C1539 C1538 1.391 . S
H1540 C1548 0.950 . S
H1541 C1553 0.950 . S
H1542 C1550 0.950 . S
H1543 C1552 0.950 . S
H1544 C1554 0.950 . S
H1545 C1556 0.950 . S
H1546 C1558 0.950 . S
H1547 C1559 0.950 . S
C1548 H1540 0.950 . S
C1548 C1549 1.386 . S
C1548 C1550 1.391 . S
C1549 C1548 1.386 . S
C1549 C1553 1.393 . S
C1550 H1542 0.950 . S
C1550 C1548 1.391 . S
C1550 C1551 1.400 . S
C1551 C1550 1.400 . S
C1551 C1552 1.398 . S
C1551 C1557 1.491 . S
C1552 H1543 0.950 . S
C1552 C1551 1.398 . S
C1552 C1553 1.391 . S
C1553 H1541 0.950 . S
C1553 C1549 1.393 . S
C1553 C1552 1.391 . S
C1554 H1544 0.950 . S
C1554 C1555 1.386 . S
C1554 C1556 1.391 . S
C1555 C1554 1.386 . S
C1555 C1559 1.393 . S
C1556 H1545 0.950 . S
C1556 C1554 1.391 . S
C1556 C1557 1.400 . S
C1557 C1551 1.491 . S
C1557 C1556 1.400 . S
C1557 C1558 1.398 . S
C1558 H1546 0.950 . S
C1558 C1557 1.398 . S
C1558 C1559 1.391 . S
C1559 H1547 0.950 . S
C1559 C1555 1.393 . S
C1559 C1558 1.391 . S
H1560 C1568 0.950 . S
H1561 C1573 0.950 . S
H1562 C1570 0.950 . S
H1563 C1572 0.950 . S
H1564 C1574 0.950 . S
H1565 C1576 0.936 1_545 S
H1566 C1578 0.924 1_545 S
H1567 C1579 0.950 . S
C1568 H1560 0.950 . S
C1568 C1569 1.386 . S
C1568 C1570 1.391 . S
C1569 C1568 1.386 . S
C1569 C1573 1.393 . S
C1570 H1562 0.950 . S
C1570 C1568 1.391 . S
C1570 C1571 1.400 . S
C1571 C1570 1.400 . S
C1571 C1572 1.398 . S
C1571 C1577 1.491 . S
C1572 H1563 0.950 . S
C1572 C1571 1.398 . S
C1572 C1573 1.391 . S
C1573 H1561 0.950 . S
C1573 C1569 1.393 . S
C1573 C1572 1.391 . S
C1574 H1564 0.950 . S
C1574 C1575 1.386 . S
C1574 C1576 1.391 . S
C1575 C1574 1.386 . S
C1575 C1579 1.393 . S
C1576 H1565 0.936 1_565 S
C1576 C1574 1.391 . S
C1576 C1577 1.400 1_565 S
C1577 C1571 1.491 . S
C1577 C1576 1.400 1_545 S
C1577 C1578 1.378 1_545 S
C1578 H1566 0.924 1_565 S
C1578 C1577 1.378 1_565 S
C1578 C1579 1.438 . S
C1579 H1567 0.950 . S
C1579 C1575 1.393 . S
C1579 C1578 1.438 . S
H1580 C1588 0.950 . S
H1581 C1593 0.950 . S
H1582 C1590 0.950 . S
H1583 C1592 0.950 . S
H1584 C1594 0.950 . S
H1585 C1596 0.950 . S
H1586 C1598 0.950 . S
H1587 C1599 0.950 . S
C1588 H1580 0.950 . S
C1588 C1589 1.386 . S
C1588 C1590 1.391 . S
C1589 C1588 1.386 . S
C1589 C1593 1.393 . S
C1590 H1582 0.950 . S
C1590 C1588 1.391 . S
C1590 C1591 1.400 . S
C1591 C1590 1.400 . S
C1591 C1592 1.398 . S
C1591 C1597 1.491 . S
C1592 H1583 0.950 . S
C1592 C1591 1.398 . S
C1592 C1593 1.391 . S
C1593 H1581 0.950 . S
C1593 C1589 1.393 . S
C1593 C1592 1.391 . S
C1594 H1584 0.950 . S
C1594 C1595 1.386 . S
C1594 C1596 1.391 . S
C1595 C1594 1.386 . S
C1595 C1599 1.393 . S
C1596 H1585 0.950 . S
C1596 C1594 1.391 . S
C1596 C1597 1.400 . S
C1597 C1591 1.491 . S
C1597 C1596 1.400 . S
C1597 C1598 1.398 . S
C1598 H1586 0.950 . S
C1598 C1597 1.398 . S
C1598 C1599 1.391 . S
C1599 H1587 0.950 . S
C1599 C1595 1.393 . S
C1599 C1598 1.391 . S
H1600 C1608 0.950 . S
H1601 C1613 0.950 . S
H1602 C1610 0.950 . S
H1603 C1612 0.950 . S
H1604 C1614 0.950 . S
H1605 C1616 0.950 1_545 S
H1606 C1618 0.950 . S
H1607 C1619 0.950 . S
C1608 H1600 0.950 . S
C1608 C1609 1.386 1_655 S
C1608 C1610 1.391 . S
C1609 C1608 1.386 1_455 S
C1609 C1613 1.393 . S
C1610 H1602 0.950 . S
C1610 C1608 1.391 . S
C1610 C1611 1.403 1_655 S
C1611 C1610 1.403 1_455 S
C1611 C1612 1.395 . S
C1611 C1617 1.491 1_455 S
C1612 H1603 0.950 . S
C1612 C1611 1.395 . S
C1612 C1613 1.391 . S
C1613 H1601 0.950 . S
C1613 C1609 1.393 . S
C1613 C1612 1.391 . S
C1614 H1604 0.950 . S
C1614 C1615 1.386 1_455 S
C1614 C1616 1.391 . S
C1615 C1614 1.386 1_655 S
C1615 C1619 1.393 . S
C1616 H1605 0.950 1_565 S
C1616 C1614 1.391 . S
C1616 C1617 1.400 1_465 S
C1617 C1611 1.491 1_655 S
C1617 C1616 1.400 1_645 S
C1617 C1618 1.398 . S
C1618 H1606 0.950 . S
C1618 C1617 1.398 . S
C1618 C1619 1.391 1_545 S
C1619 H1607 0.950 . S
C1619 C1615 1.393 . S
C1619 C1618 1.391 1_565 S
H1620 C1628 0.950 . S
H1621 C1633 0.950 . S
H1622 C1630 0.950 . S
H1623 C1632 0.950 . S
H1624 C1634 0.950 . S
H1625 C1636 0.950 . S
H1626 C1638 0.950 . S
H1627 C1639 0.950 . S
C1628 H1620 0.950 . S
C1628 C1629 1.386 . S
C1628 C1630 1.391 . S
C1629 C1628 1.386 . S
C1629 C1633 1.393 . S
C1630 H1622 0.950 . S
C1630 C1628 1.391 . S
C1630 C1631 1.400 . S
C1631 C1630 1.400 . S
C1631 C1632 1.398 . S
C1631 C1637 1.491 . S
C1632 H1623 0.950 . S
C1632 C1631 1.398 . S
C1632 C1633 1.391 . S
C1633 H1621 0.950 . S
C1633 C1629 1.393 . S
C1633 C1632 1.391 . S
C1634 H1624 0.950 . S
C1634 C1635 1.386 . S
C1634 C1636 1.391 . S
C1635 C1634 1.386 . S
C1635 C1639 1.393 . S
C1636 H1625 0.950 . S
C1636 C1634 1.391 . S
C1636 C1637 1.400 . S
C1637 C1631 1.491 . S
C1637 C1636 1.400 . S
C1637 C1638 1.398 . S
C1638 H1626 0.950 . S
C1638 C1637 1.398 . S
C1638 C1639 1.391 . S
C1639 H1627 0.950 . S
C1639 C1635 1.393 . S
C1639 C1638 1.391 . S
H1640 C1648 0.950 . S
H1641 C1653 0.950 . S
H1642 C1650 0.931 1_554 S
H1643 C1652 0.965 . S
H1644 C1654 0.950 . S
H1645 C1656 0.950 . S
H1646 C1658 0.950 . S
H1647 C1659 0.950 . S
C1648 H1640 0.950 . S
C1648 C1649 1.386 . S
C1648 C1650 1.428 . S
C1649 C1648 1.386 . S
C1649 C1653 1.393 . S
C1650 H1642 0.931 1_556 S
C1650 C1648 1.428 . S
C1650 C1651 1.383 1_556 S
C1651 C1650 1.383 1_554 S
C1651 C1652 1.415 . S
C1651 C1657 1.491 . S
C1652 H1643 0.965 . S
C1652 C1651 1.415 . S
C1652 C1653 1.360 1_554 S
C1653 H1641 0.950 . S
C1653 C1649 1.393 . S
C1653 C1652 1.360 1_556 S
C1654 H1644 0.950 . S
C1654 C1655 1.386 . S
C1654 C1656 1.391 . S
C1655 C1654 1.386 . S
C1655 C1659 1.393 . S
C1656 H1645 0.950 . S
C1656 C1654 1.391 . S
C1656 C1657 1.400 . S
C1657 C1651 1.491 . S
C1657 C1656 1.400 . S
C1657 C1658 1.398 . S
C1658 H1646 0.950 . S
C1658 C1657 1.398 . S
C1658 C1659 1.391 . S
C1659 H1647 0.950 . S
C1659 C1655 1.393 . S
C1659 C1658 1.391 . S
H1660 C1668 0.950 . S
H1661 C1673 0.950 . S
H1662 C1670 0.950 . S
H1663 C1672 0.950 . S
H1664 C1674 0.950 . S
H1665 C1676 0.950 . S
H1666 C1678 0.950 . S
H1667 C1679 0.950 . S
C1668 H1660 0.950 . S
C1668 C1669 1.386 . S
C1668 C1670 1.391 . S
C1669 C1668 1.386 . S
C1669 C1673 1.393 . S
C1670 H1662 0.950 . S
C1670 C1668 1.391 . S
C1670 C1671 1.400 . S
C1671 C1670 1.400 . S
C1671 C1672 1.398 . S
C1671 C1677 1.491 . S
C1672 H1663 0.950 . S
C1672 C1671 1.398 . S
C1672 C1673 1.391 . S
C1673 H1661 0.950 . S
C1673 C1669 1.393 . S
C1673 C1672 1.391 . S
C1674 H1664 0.950 . S
C1674 C1675 1.386 . S
C1674 C1676 1.391 . S
C1675 C1674 1.386 . S
C1675 C1679 1.393 . S
C1676 H1665 0.950 . S
C1676 C1674 1.391 . S
C1676 C1677 1.400 . S
C1677 C1671 1.491 . S
C1677 C1676 1.400 . S
C1677 C1678 1.398 . S
C1678 H1666 0.950 . S
C1678 C1677 1.398 . S
C1678 C1679 1.391 . S
C1679 H1667 0.950 . S
C1679 C1675 1.393 . S
C1679 C1678 1.391 . S
H1680 C1688 0.950 . S
H1681 C1693 0.950 . S
H1682 C1690 0.950 . S
H1683 C1692 0.950 . S
H1684 C1694 0.950 . S
H1685 C1696 0.950 . S
H1686 C1698 0.950 . S
H1687 C1699 0.950 . S
C1688 H1680 0.950 . S
C1688 C1689 1.386 . S
C1688 C1690 1.391 . S
C1689 C1688 1.386 . S
C1689 C1693 1.393 . S
C1690 H1682 0.950 . S
C1690 C1688 1.391 . S
C1690 C1691 1.400 . S
C1691 C1690 1.400 . S
C1691 C1692 1.398 . S
C1691 C1697 1.491 . S
C1692 H1683 0.950 . S
C1692 C1691 1.398 . S
C1692 C1693 1.391 . S
C1693 H1681 0.950 . S
C1693 C1689 1.393 . S
C1693 C1692 1.391 . S
C1694 H1684 0.950 . S
C1694 C1695 1.386 . S
C1694 C1696 1.391 . S
C1695 C1694 1.386 . S
C1695 C1699 1.393 . S
C1696 H1685 0.950 . S
C1696 C1694 1.391 . S
C1696 C1697 1.400 . S
C1697 C1691 1.491 . S
C1697 C1696 1.400 . S
C1697 C1698 1.398 . S
C1698 H1686 0.950 . S
C1698 C1697 1.398 . S
C1698 C1699 1.391 . S
C1699 H1687 0.950 . S
C1699 C1695 1.393 . S
C1699 C1698 1.391 . S
H1700 C1708 0.950 . S
H1701 C1713 0.950 . S
H1702 C1710 0.950 . S
H1703 C1712 0.950 . S
H1704 C1714 0.950 . S
H1705 C1716 0.950 . S
H1706 C1718 0.950 . S
H1707 C1719 0.950 . S
C1708 H1700 0.950 . S
C1708 C1709 1.386 . S
C1708 C1710 1.391 . S
C1709 C1708 1.386 . S
C1709 C1713 1.393 . S
C1710 H1702 0.950 . S
C1710 C1708 1.391 . S
C1710 C1711 1.400 . S
C1711 C1710 1.400 . S
C1711 C1712 1.398 . S
C1711 C1717 1.491 . S
C1712 H1703 0.950 . S
C1712 C1711 1.398 . S
C1712 C1713 1.391 . S
C1713 H1701 0.950 . S
C1713 C1709 1.393 . S
C1713 C1712 1.391 . S
C1714 H1704 0.950 . S
C1714 C1715 1.386 . S
C1714 C1716 1.391 . S
C1715 C1714 1.386 . S
C1715 C1719 1.393 . S
C1716 H1705 0.950 . S
C1716 C1714 1.391 . S
C1716 C1717 1.400 . S
C1717 C1711 1.491 . S
C1717 C1716 1.400 . S
C1717 C1718 1.398 . S
C1718 H1706 0.950 . S
C1718 C1717 1.398 . S
C1718 C1719 1.391 . S
C1719 H1707 0.950 . S
C1719 C1715 1.393 . S
C1719 C1718 1.391 . S
H1720 C1728 0.950 . S
H1721 C1733 0.950 . S
H1722 C1730 0.950 . S
H1723 C1732 0.950 . S
H1724 C1734 0.950 . S
H1725 C1736 0.950 . S
H1726 C1738 0.950 . S
H1727 C1739 0.950 . S
C1728 H1720 0.950 . S
C1728 C1729 1.386 . S
C1728 C1730 1.391 . S
C1729 C1728 1.386 . S
C1729 C1733 1.393 . S
C1730 H1722 0.950 . S
C1730 C1728 1.391 . S
C1730 C1731 1.400 . S
C1731 C1730 1.400 . S
C1731 C1732 1.398 . S
C1731 C1737 1.491 . S
C1732 H1723 0.950 . S
C1732 C1731 1.398 . S
C1732 C1733 1.391 . S
C1733 H1721 0.950 . S
C1733 C1729 1.393 . S
C1733 C1732 1.391 . S
C1734 H1724 0.950 . S
C1734 C1735 1.386 . S
C1734 C1736 1.391 . S
C1735 C1734 1.386 . S
C1735 C1739 1.393 . S
C1736 H1725 0.950 . S
C1736 C1734 1.391 . S
C1736 C1737 1.400 . S
C1737 C1731 1.491 . S
C1737 C1736 1.400 . S
C1737 C1738 1.398 . S
C1738 H1726 0.950 . S
C1738 C1737 1.398 . S
C1738 C1739 1.391 . S
C1739 H1727 0.950 . S
C1739 C1735 1.393 . S
C1739 C1738 1.391 . S
H1740 C1748 0.950 . S
H1741 C1753 0.950 . S
H1742 C1750 0.950 . S
H1743 C1752 0.950 . S
H1744 C1754 0.950 . S
H1745 C1756 0.950 1_565 S
H1746 C1758 0.950 1_565 S
H1747 C1759 0.950 . S
C1748 H1740 0.950 . S
C1748 C1749 1.386 . S
C1748 C1750 1.391 . S
C1749 C1748 1.386 . S
C1749 C1753 1.393 . S
C1750 H1742 0.950 . S
C1750 C1748 1.391 . S
C1750 C1751 1.400 . S
C1751 C1750 1.400 . S
C1751 C1752 1.398 . S
C1751 C1757 1.491 . S
C1752 H1743 0.950 . S
C1752 C1751 1.398 . S
C1752 C1753 1.391 . S
C1753 H1741 0.950 . S
C1753 C1749 1.393 . S
C1753 C1752 1.391 . S
C1754 H1744 0.950 . S
C1754 C1755 1.386 . S
C1754 C1756 1.391 . S
C1755 C1754 1.386 . S
C1755 C1759 1.393 . S
C1756 H1745 0.950 1_545 S
C1756 C1754 1.391 . S
C1756 C1757 1.400 1_545 S
C1757 C1751 1.491 . S
C1757 C1756 1.400 1_565 S
C1757 C1758 1.398 1_565 S
C1758 H1746 0.950 1_545 S
C1758 C1757 1.398 1_545 S
C1758 C1759 1.391 . S
C1759 H1747 0.950 . S
C1759 C1755 1.393 . S
C1759 C1758 1.391 . S
H1760 C1768 0.950 . S
H1761 C1773 0.950 . S
H1762 C1770 0.950 . S
H1763 C1772 0.950 . S
H1764 C1774 0.950 . S
H1765 C1776 0.950 . S
H1766 C1778 0.950 . S
H1767 C1779 0.950 . S
C1768 H1760 0.950 . S
C1768 C1769 1.386 . S
C1768 C1770 1.391 . S
C1769 C1768 1.386 . S
C1769 C1773 1.393 . S
C1770 H1762 0.950 . S
C1770 C1768 1.391 . S
C1770 C1771 1.400 . S
C1771 C1770 1.400 . S
C1771 C1772 1.398 . S
C1771 C1777 1.491 . S
C1772 H1763 0.950 . S
C1772 C1771 1.398 . S
C1772 C1773 1.391 . S
C1773 H1761 0.950 . S
C1773 C1769 1.393 . S
C1773 C1772 1.391 . S
C1774 H1764 0.950 . S
C1774 C1775 1.386 . S
C1774 C1776 1.391 . S
C1775 C1774 1.386 . S
C1775 C1779 1.393 . S
C1776 H1765 0.950 . S
C1776 C1774 1.391 . S
C1776 C1777 1.400 . S
C1777 C1771 1.491 . S
C1777 C1776 1.400 . S
C1777 C1778 1.398 . S
C1778 H1766 0.950 . S
C1778 C1777 1.398 . S
C1778 C1779 1.391 . S
C1779 H1767 0.950 . S
C1779 C1775 1.393 . S
C1779 C1778 1.391 . S
H1780 C1788 0.950 . S
H1781 C1793 0.950 . S
H1782 C1790 0.950 . S
H1783 C1792 0.950 1_565 S
H1784 C1794 0.950 . S
H1785 C1796 0.950 . S
H1786 C1798 0.950 . S
H1787 C1799 0.950 . S
C1788 H1780 0.950 . S
C1788 C1789 1.386 . S
C1788 C1790 1.391 1_545 S
C1789 C1788 1.386 . S
C1789 C1793 1.393 1_455 S
C1790 H1782 0.950 . S
C1790 C1788 1.391 1_565 S
C1790 C1791 1.400 . S
C1791 C1790 1.400 . S
C1791 C1792 1.398 1_465 S
C1791 C1797 1.490 1_455 S
C1792 H1783 0.950 1_545 S
C1792 C1791 1.398 1_645 S
C1792 C1793 1.391 . S
C1793 H1781 0.950 . S
C1793 C1789 1.393 1_655 S
C1793 C1792 1.391 . S
C1794 H1784 0.950 . S
C1794 C1795 1.386 . S
C1794 C1796 1.391 . S
C1795 C1794 1.386 . S
C1795 C1799 1.393 1_655 S
C1796 H1785 0.950 . S
C1796 C1794 1.391 . S
C1796 C1797 1.403 . S
C1797 C1791 1.490 1_655 S
C1797 C1796 1.403 . S
C1797 C1798 1.396 1_655 S
C1798 H1786 0.950 . S
C1798 C1797 1.396 1_455 S
C1798 C1799 1.391 . S
C1799 H1787 0.950 . S
C1799 C1795 1.393 1_455 S
C1799 C1798 1.391 . S
H1800 C1808 0.950 . S
H1801 C1813 0.950 . S
H1802 C1810 0.950 . S
H1803 C1812 0.950 . S
H1804 C1814 0.950 . S
H1805 C1816 0.950 . S
H1806 C1818 0.950 . S
H1807 C1819 0.950 . S
C1808 H1800 0.950 . S
C1808 C1809 1.386 . S
C1808 C1810 1.391 . S
C1809 C1808 1.386 . S
C1809 C1813 1.393 . S
C1810 H1802 0.950 . S
C1810 C1808 1.391 . S
C1810 C1811 1.400 . S
C1811 C1810 1.400 . S
C1811 C1812 1.398 . S
C1811 C1817 1.491 . S
C1812 H1803 0.950 . S
C1812 C1811 1.398 . S
C1812 C1813 1.391 . S
C1813 H1801 0.950 . S
C1813 C1809 1.393 . S
C1813 C1812 1.391 . S
C1814 H1804 0.950 . S
C1814 C1815 1.386 . S
C1814 C1816 1.391 . S
C1815 C1814 1.386 . S
C1815 C1819 1.393 . S
C1816 H1805 0.950 . S
C1816 C1814 1.391 . S
C1816 C1817 1.400 . S
C1817 C1811 1.491 . S
C1817 C1816 1.400 . S
C1817 C1818 1.398 . S
C1818 H1806 0.950 . S
C1818 C1817 1.398 . S
C1818 C1819 1.391 . S
C1819 H1807 0.950 . S
C1819 C1815 1.393 . S
C1819 C1818 1.391 . S
H1820 C1828 0.950 . S
H1821 C1833 0.950 . S
H1822 C1830 0.950 . S
H1823 C1832 0.950 1_556 S
H1824 C1834 0.950 . S
H1825 C1836 0.950 . S
H1826 C1838 0.950 . S
H1827 C1839 0.950 . S
C1828 H1820 0.950 . S
C1828 C1829 1.386 . S
C1828 C1830 1.391 1_554 S
C1829 C1828 1.386 . S
C1829 C1833 1.393 . S
C1830 H1822 0.950 . S
C1830 C1828 1.391 1_556 S
C1830 C1831 1.400 . S
C1831 C1830 1.400 . S
C1831 C1832 1.398 1_556 S
C1831 C1837 1.491 . S
C1832 H1823 0.950 1_554 S
C1832 C1831 1.398 1_554 S
C1832 C1833 1.391 . S
C1833 H1821 0.950 . S
C1833 C1829 1.393 . S
C1833 C1832 1.391 . S
C1834 H1824 0.950 . S
C1834 C1835 1.386 . S
C1834 C1836 1.391 . S
C1835 C1834 1.386 . S
C1835 C1839 1.393 . S
C1836 H1825 0.950 . S
C1836 C1834 1.391 . S
C1836 C1837 1.400 . S
C1837 C1831 1.491 . S
C1837 C1836 1.400 . S
C1837 C1838 1.398 . S
C1838 H1826 0.950 . S
C1838 C1837 1.398 . S
C1838 C1839 1.391 . S
C1839 H1827 0.950 . S
C1839 C1835 1.393 . S
C1839 C1838 1.391 . S
H1840 C1848 0.950 . S
H1841 C1853 0.950 . S
H1842 C1850 0.950 . S
H1843 C1852 0.950 . S
H1844 C1854 0.950 . S
H1845 C1856 0.950 . S
H1846 C1858 0.950 . S
H1847 C1859 0.950 . S
C1848 H1840 0.950 . S
C1848 C1849 1.386 . S
C1848 C1850 1.391 . S
C1849 C1848 1.386 . S
C1849 C1853 1.393 . S
C1850 H1842 0.950 . S
C1850 C1848 1.391 . S
C1850 C1851 1.400 . S
C1851 C1850 1.400 . S
C1851 C1852 1.398 . S
C1851 C1857 1.491 . S
C1852 H1843 0.950 . S
C1852 C1851 1.398 . S
C1852 C1853 1.391 . S
C1853 H1841 0.950 . S
C1853 C1849 1.393 . S
C1853 C1852 1.391 . S
C1854 H1844 0.950 . S
C1854 C1855 1.386 . S
C1854 C1856 1.391 . S
C1855 C1854 1.386 . S
C1855 C1859 1.393 . S
C1856 H1845 0.950 . S
C1856 C1854 1.391 . S
C1856 C1857 1.400 . S
C1857 C1851 1.491 . S
C1857 C1856 1.400 . S
C1857 C1858 1.398 . S
C1858 H1846 0.950 . S
C1858 C1857 1.398 . S
C1858 C1859 1.391 . S
C1859 H1847 0.950 . S
C1859 C1855 1.393 . S
C1859 C1858 1.391 . S
H1860 C1868 0.950 . S
H1861 C1873 0.950 . S
H1862 C1870 0.950 . S
H1863 C1872 0.950 . S
H1864 C1874 0.950 . S
H1865 C1876 0.950 . S
H1866 C1878 0.950 . S
H1867 C1879 0.950 . S
C1868 H1860 0.950 . S
C1868 C1869 1.386 . S
C1868 C1870 1.391 . S
C1869 C1868 1.386 . S
C1869 C1873 1.393 . S
C1870 H1862 0.950 . S
C1870 C1868 1.391 . S
C1870 C1871 1.400 . S
C1871 C1870 1.400 . S
C1871 C1872 1.398 . S
C1871 C1877 1.491 . S
C1872 H1863 0.950 . S
C1872 C1871 1.398 . S
C1872 C1873 1.391 . S
C1873 H1861 0.950 . S
C1873 C1869 1.393 . S
C1873 C1872 1.391 . S
C1874 H1864 0.950 . S
C1874 C1875 1.386 . S
C1874 C1876 1.391 . S
C1875 C1874 1.386 . S
C1875 C1879 1.393 . S
C1876 H1865 0.950 . S
C1876 C1874 1.391 . S
C1876 C1877 1.400 . S
C1877 C1871 1.491 . S
C1877 C1876 1.400 . S
C1877 C1878 1.398 . S
C1878 H1866 0.950 . S
C1878 C1877 1.398 . S
C1878 C1879 1.391 . S
C1879 H1867 0.950 . S
C1879 C1875 1.393 . S
C1879 C1878 1.391 . S
H1880 C1888 0.950 . S
H1881 C1893 0.950 . S
H1882 C1890 0.950 . S
H1883 C1892 0.950 . S
H1884 C1894 0.950 . S
H1885 C1896 0.950 . S
H1886 C1898 0.950 . S
H1887 C1899 0.950 . S
C1888 H1880 0.950 . S
C1888 C1889 1.386 . S
C1888 C1890 1.391 . S
C1889 C1888 1.386 . S
C1889 C1893 1.393 . S
C1890 H1882 0.950 . S
C1890 C1888 1.391 . S
C1890 C1891 1.400 . S
C1891 C1890 1.400 . S
C1891 C1892 1.398 . S
C1891 C1897 1.491 . S
C1892 H1883 0.950 . S
C1892 C1891 1.398 . S
C1892 C1893 1.391 . S
C1893 H1881 0.950 . S
C1893 C1889 1.393 . S
C1893 C1892 1.391 . S
C1894 H1884 0.950 . S
C1894 C1895 1.386 . S
C1894 C1896 1.391 . S
C1895 C1894 1.386 . S
C1895 C1899 1.393 . S
C1896 H1885 0.950 . S
C1896 C1894 1.391 . S
C1896 C1897 1.400 . S
C1897 C1891 1.491 . S
C1897 C1896 1.400 . S
C1897 C1898 1.398 . S
C1898 H1886 0.950 . S
C1898 C1897 1.398 . S
C1898 C1899 1.391 . S
C1899 H1887 0.950 . S
C1899 C1895 1.393 . S
C1899 C1898 1.391 . S
H1900 C1908 0.950 . S
H1901 C1913 0.950 . S
H1902 C1910 0.950 . S
H1903 C1912 0.950 . S
H1904 C1914 0.950 . S
H1905 C1916 0.950 . S
H1906 C1918 0.950 . S
H1907 C1919 0.950 . S
C1908 H1900 0.950 . S
C1908 C1909 1.386 . S
C1908 C1910 1.391 . S
C1909 C1908 1.386 . S
C1909 C1913 1.393 . S
C1910 H1902 0.950 . S
C1910 C1908 1.391 . S
C1910 C1911 1.400 . S
C1911 C1910 1.400 . S
C1911 C1912 1.398 . S
C1911 C1917 1.491 . S
C1912 H1903 0.950 . S
C1912 C1911 1.398 . S
C1912 C1913 1.391 . S
C1913 H1901 0.950 . S
C1913 C1909 1.393 . S
C1913 C1912 1.391 . S
C1914 H1904 0.950 . S
C1914 C1915 1.386 . S
C1914 C1916 1.391 . S
C1915 C1914 1.386 . S
C1915 C1919 1.393 . S
C1916 H1905 0.950 . S
C1916 C1914 1.391 . S
C1916 C1917 1.400 . S
C1917 C1911 1.491 . S
C1917 C1916 1.400 . S
C1917 C1918 1.398 . S
C1918 H1906 0.950 . S
C1918 C1917 1.398 . S
C1918 C1919 1.391 . S
C1919 H1907 0.950 . S
C1919 C1915 1.393 . S
C1919 C1918 1.391 . S
H1920 C1928 0.950 . S
H1921 C1933 0.950 . S
H1922 C1930 0.950 . S
H1923 C1932 0.950 . S
H1924 C1934 0.950 . S
H1925 C1936 0.950 . S
H1926 C1938 0.950 . S
H1927 C1939 0.950 . S
C1928 H1920 0.950 . S
C1928 C1929 1.386 . S
C1928 C1930 1.391 . S
C1929 C1928 1.386 . S
C1929 C1933 1.393 . S
C1930 H1922 0.950 . S
C1930 C1928 1.391 . S
C1930 C1931 1.400 . S
C1931 C1930 1.400 . S
C1931 C1932 1.398 . S
C1931 C1937 1.491 . S
C1932 H1923 0.950 . S
C1932 C1931 1.398 . S
C1932 C1933 1.391 . S
C1933 H1921 0.950 . S
C1933 C1929 1.393 . S
C1933 C1932 1.391 . S
C1934 H1924 0.950 . S
C1934 C1935 1.386 . S
C1934 C1936 1.391 . S
C1935 C1934 1.386 . S
C1935 C1939 1.393 . S
C1936 H1925 0.950 . S
C1936 C1934 1.391 . S
C1936 C1937 1.400 . S
C1937 C1931 1.491 . S
C1937 C1936 1.400 . S
C1937 C1938 1.398 . S
C1938 H1926 0.950 . S
C1938 C1937 1.398 . S
C1938 C1939 1.391 . S
C1939 H1927 0.950 . S
C1939 C1935 1.393 . S
C1939 C1938 1.391 . S
H1940 C1948 0.950 . S
H1941 C1953 0.950 . S
H1942 C1950 0.950 . S
H1943 C1952 0.950 . S
H1944 C1954 0.950 . S
H1945 C1956 0.950 . S
H1946 C1958 0.950 . S
H1947 C1959 0.950 . S
C1948 H1940 0.950 . S
C1948 C1949 1.386 . S
C1948 C1950 1.391 . S
C1949 C1948 1.386 . S
C1949 C1953 1.393 . S
C1950 H1942 0.950 . S
C1950 C1948 1.391 . S
C1950 C1951 1.400 . S
C1951 C1950 1.400 . S
C1951 C1952 1.398 . S
C1951 C1957 1.491 . S
C1952 H1943 0.950 . S
C1952 C1951 1.398 . S
C1952 C1953 1.391 . S
C1953 H1941 0.950 . S
C1953 C1949 1.393 . S
C1953 C1952 1.391 . S
C1954 H1944 0.950 . S
C1954 C1955 1.386 . S
C1954 C1956 1.391 . S
C1955 C1954 1.386 . S
C1955 C1959 1.393 . S
C1956 H1945 0.950 . S
C1956 C1954 1.391 . S
C1956 C1957 1.400 . S
C1957 C1951 1.491 . S
C1957 C1956 1.400 . S
C1957 C1958 1.398 . S
C1958 H1946 0.950 . S
C1958 C1957 1.398 . S
C1958 C1959 1.391 . S
C1959 H1947 0.950 . S
C1959 C1955 1.393 . S
C1959 C1958 1.391 . S
H1960 C1968 0.950 . S
H1961 C1973 0.950 . S
H1962 C1970 0.950 . S
H1963 C1972 0.950 . S
H1964 C1974 0.950 . S
H1965 C1976 0.950 . S
H1966 C1978 0.950 . S
H1967 C1979 0.950 . S
C1968 H1960 0.950 . S
C1968 C1969 1.386 . S
C1968 C1970 1.391 . S
C1969 C1968 1.386 . S
C1969 C1973 1.393 . S
C1970 H1962 0.950 . S
C1970 C1968 1.391 . S
C1970 C1971 1.400 . S
C1971 C1970 1.400 . S
C1971 C1972 1.398 . S
C1971 C1977 1.491 . S
C1972 H1963 0.950 . S
C1972 C1971 1.398 . S
C1972 C1973 1.391 . S
C1973 H1961 0.950 . S
C1973 C1969 1.393 . S
C1973 C1972 1.391 . S
C1974 H1964 0.950 . S
C1974 C1975 1.386 . S
C1974 C1976 1.391 . S
C1975 C1974 1.386 . S
C1975 C1979 1.393 . S
C1976 H1965 0.950 . S
C1976 C1974 1.391 . S
C1976 C1977 1.400 . S
C1977 C1971 1.491 . S
C1977 C1976 1.400 . S
C1977 C1978 1.398 . S
C1978 H1966 0.950 . S
C1978 C1977 1.398 . S
C1978 C1979 1.391 . S
C1979 H1967 0.950 . S
C1979 C1975 1.393 . S
C1979 C1978 1.391 . S
H1980 C1988 0.950 . S
H1981 C1993 0.950 . S
H1982 C1990 0.950 . S
H1983 C1992 0.950 . S
H1984 C1994 0.950 . S
H1985 C1996 0.950 . S
H1986 C1998 0.950 . S
H1987 C1999 0.950 . S
C1988 H1980 0.950 . S
C1988 C1989 1.386 . S
C1988 C1990 1.391 . S
C1989 C1988 1.386 . S
C1989 C1993 1.393 . S
C1990 H1982 0.950 . S
C1990 C1988 1.391 . S
C1990 C1991 1.400 . S
C1991 C1990 1.400 . S
C1991 C1992 1.398 . S
C1991 C1997 1.491 . S
C1992 H1983 0.950 . S
C1992 C1991 1.398 . S
C1992 C1993 1.391 . S
C1993 H1981 0.950 . S
C1993 C1989 1.393 . S
C1993 C1992 1.391 . S
C1994 H1984 0.950 . S
C1994 C1995 1.386 . S
C1994 C1996 1.391 . S
C1995 C1994 1.386 . S
C1995 C1999 1.393 . S
C1996 H1985 0.950 . S
C1996 C1994 1.391 . S
C1996 C1997 1.400 . S
C1997 C1991 1.491 . S
C1997 C1996 1.400 . S
C1997 C1998 1.398 . S
C1998 H1986 0.950 . S
C1998 C1997 1.398 . S
C1998 C1999 1.391 . S
C1999 H1987 0.950 . S
C1999 C1995 1.393 . S
C1999 C1998 1.391 . S
H2000 C2008 0.950 . S
H2001 C2013 0.950 . S
H2002 C2010 0.950 . S
H2003 C2012 0.950 . S
H2004 C2014 0.950 . S
H2005 C2016 0.950 . S
H2006 C2018 0.950 . S
H2007 C2019 0.950 . S
C2008 H2000 0.950 . S
C2008 C2009 1.386 . S
C2008 C2010 1.391 . S
C2009 C2008 1.386 . S
C2009 C2013 1.393 . S
C2010 H2002 0.950 . S
C2010 C2008 1.391 . S
C2010 C2011 1.400 . S
C2011 C2010 1.400 . S
C2011 C2012 1.398 . S
C2011 C2017 1.491 . S
C2012 H2003 0.950 . S
C2012 C2011 1.398 . S
C2012 C2013 1.391 . S
C2013 H2001 0.950 . S
C2013 C2009 1.393 . S
C2013 C2012 1.391 . S
C2014 H2004 0.950 . S
C2014 C2015 1.386 . S
C2014 C2016 1.391 . S
C2015 C2014 1.386 . S
C2015 C2019 1.393 . S
C2016 H2005 0.950 . S
C2016 C2014 1.391 . S
C2016 C2017 1.400 . S
C2017 C2011 1.491 . S
C2017 C2016 1.400 . S
C2017 C2018 1.398 . S
C2018 H2006 0.950 . S
C2018 C2017 1.398 . S
C2018 C2019 1.391 . S
C2019 H2007 0.950 . S
C2019 C2015 1.393 . S
C2019 C2018 1.391 . S
H2020 C2028 0.950 . S
H2021 C2033 0.950 . S
H2022 C2030 0.950 . S
H2023 C2032 0.950 . S
H2024 C2034 0.950 . S
H2025 C2036 0.950 . S
H2026 C2038 0.950 . S
H2027 C2039 0.950 . S
C2028 H2020 0.950 . S
C2028 C2029 1.386 . S
C2028 C2030 1.391 . S
C2029 C2028 1.386 . S
C2029 C2033 1.393 . S
C2030 H2022 0.950 . S
C2030 C2028 1.391 . S
C2030 C2031 1.400 . S
C2031 C2030 1.400 . S
C2031 C2032 1.398 . S
C2031 C2037 1.491 . S
C2032 H2023 0.950 . S
C2032 C2031 1.398 . S
C2032 C2033 1.391 . S
C2033 H2021 0.950 . S
C2033 C2029 1.393 . S
C2033 C2032 1.391 . S
C2034 H2024 0.950 . S
C2034 C2035 1.386 . S
C2034 C2036 1.391 . S
C2035 C2034 1.386 . S
C2035 C2039 1.393 . S
C2036 H2025 0.950 . S
C2036 C2034 1.391 . S
C2036 C2037 1.400 . S
C2037 C2031 1.491 . S
C2037 C2036 1.400 . S
C2037 C2038 1.398 . S
C2038 H2026 0.950 . S
C2038 C2037 1.398 . S
C2038 C2039 1.391 . S
C2039 H2027 0.950 . S
C2039 C2035 1.393 . S
C2039 C2038 1.391 . S
H2040 C2048 0.950 . S
H2041 C2053 0.950 . S
H2042 C2050 0.950 . S
H2043 C2052 0.950 . S
H2044 C2054 0.950 . S
H2045 C2056 0.950 . S
H2046 C2058 0.950 . S
H2047 C2059 0.950 . S
C2048 H2040 0.950 . S
C2048 C2049 1.386 . S
C2048 C2050 1.391 . S
C2049 C2048 1.386 . S
C2049 C2053 1.393 . S
C2050 H2042 0.950 . S
C2050 C2048 1.391 . S
C2050 C2051 1.400 . S
C2051 C2050 1.400 . S
C2051 C2052 1.398 . S
C2051 C2057 1.491 . S
C2052 H2043 0.950 . S
C2052 C2051 1.398 . S
C2052 C2053 1.391 . S
C2053 H2041 0.950 . S
C2053 C2049 1.393 . S
C2053 C2052 1.391 . S
C2054 H2044 0.950 . S
C2054 C2055 1.386 . S
C2054 C2056 1.391 . S
C2055 C2054 1.386 . S
C2055 C2059 1.393 . S
C2056 H2045 0.950 . S
C2056 C2054 1.391 . S
C2056 C2057 1.400 . S
C2057 C2051 1.491 . S
C2057 C2056 1.400 . S
C2057 C2058 1.398 . S
C2058 H2046 0.950 . S
C2058 C2057 1.398 . S
C2058 C2059 1.391 . S
C2059 H2047 0.950 . S
C2059 C2055 1.393 . S
C2059 C2058 1.391 . S
H2060 C2068 0.970 . S
H2061 C2073 0.950 . S
H2062 C2070 0.950 . S
H2063 C2072 0.950 . S
H2064 C2074 0.950 . S
H2065 C2076 0.950 . S
H2066 C2078 0.950 . S
H2067 C2079 0.950 . S
C2068 H2060 0.970 . S
C2068 C2069 1.386 . S
C2068 C2070 1.391 . S
C2069 C2068 1.386 . S
C2069 C2073 1.393 . S
C2070 H2062 0.950 . S
C2070 C2068 1.391 . S
C2070 C2071 1.400 . S
C2071 C2070 1.400 . S
C2071 C2072 1.398 . S
C2071 C2077 1.491 . S
C2072 H2063 0.950 . S
C2072 C2071 1.398 . S
C2072 C2073 1.391 . S
C2073 H2061 0.950 . S
C2073 C2069 1.393 . S
C2073 C2072 1.391 . S
C2074 H2064 0.950 . S
C2074 C2075 1.386 . S
C2074 C2076 1.391 . S
C2075 C2074 1.386 . S
C2075 C2079 1.393 . S
C2076 H2065 0.950 . S
C2076 C2074 1.391 . S
C2076 C2077 1.400 . S
C2077 C2071 1.491 . S
C2077 C2076 1.400 . S
C2077 C2078 1.398 . S
C2078 H2066 0.950 . S
C2078 C2077 1.398 . S
C2078 C2079 1.391 . S
C2079 H2067 0.950 . S
C2079 C2075 1.393 . S
C2079 C2078 1.391 . S
H2080 C2088 0.950 . S
H2081 C2093 0.950 . S
H2082 C2090 0.950 . S
H2083 C2092 0.950 . S
H2084 C2094 0.950 . S
H2085 C2096 0.950 . S
H2086 C2098 0.950 . S
H2087 C2099 0.950 . S
C2088 H2080 0.950 . S
C2088 C2089 1.386 . S
C2088 C2090 1.391 . S
C2089 C2088 1.386 . S
C2089 C2093 1.393 . S
C2090 H2082 0.950 . S
C2090 C2088 1.391 . S
C2090 C2091 1.400 . S
C2091 C2090 1.400 . S
C2091 C2092 1.398 . S
C2091 C2097 1.491 . S
C2092 H2083 0.950 . S
C2092 C2091 1.398 . S
C2092 C2093 1.391 . S
C2093 H2081 0.950 . S
C2093 C2089 1.393 . S
C2093 C2092 1.391 . S
C2094 H2084 0.950 . S
C2094 C2095 1.386 . S
C2094 C2096 1.391 . S
C2095 C2094 1.386 . S
C2095 C2099 1.393 . S
C2096 H2085 0.950 . S
C2096 C2094 1.391 . S
C2096 C2097 1.400 . S
C2097 C2091 1.491 . S
C2097 C2096 1.400 . S
C2097 C2098 1.398 . S
C2098 H2086 0.950 . S
C2098 C2097 1.398 . S
C2098 C2099 1.391 . S
C2099 H2087 0.950 . S
C2099 C2095 1.393 . S
C2099 C2098 1.391 . S
H2100 C2108 0.950 . S
H2101 C2113 0.950 . S
H2102 C2110 0.950 . S
H2103 C2112 0.950 . S
H2104 C2114 0.950 . S
H2105 C2116 0.950 . S
H2106 C2118 0.950 . S
H2107 C2119 0.950 . S
C2108 H2100 0.950 . S
C2108 C2109 1.386 . S
C2108 C2110 1.391 . S
C2109 C2108 1.386 . S
C2109 C2113 1.393 . S
C2110 H2102 0.950 . S
C2110 C2108 1.391 . S
C2110 C2111 1.400 . S
C2111 C2110 1.400 . S
C2111 C2112 1.398 . S
C2111 C2117 1.491 . S
C2112 H2103 0.950 . S
C2112 C2111 1.398 . S
C2112 C2113 1.391 . S
C2113 H2101 0.950 . S
C2113 C2109 1.393 . S
C2113 C2112 1.391 . S
C2114 H2104 0.950 . S
C2114 C2115 1.386 . S
C2114 C2116 1.391 . S
C2115 C2114 1.386 . S
C2115 C2119 1.393 . S
C2116 H2105 0.950 . S
C2116 C2114 1.391 . S
C2116 C2117 1.400 . S
C2117 C2111 1.491 . S
C2117 C2116 1.400 . S
C2117 C2118 1.398 . S
C2118 H2106 0.950 . S
C2118 C2117 1.398 . S
C2118 C2119 1.391 . S
C2119 H2107 0.950 . S
C2119 C2115 1.393 . S
C2119 C2118 1.391 . S
H2120 C2128 0.950 . S
H2121 C2133 0.950 . S
H2122 C2130 0.950 . S
H2123 C2132 0.950 . S
H2124 C2134 0.950 . S
H2125 C2136 0.950 . S
H2126 C2138 0.950 . S
H2127 C2139 0.950 . S
C2128 H2120 0.950 . S
C2128 C2129 1.386 . S
C2128 C2130 1.391 . S
C2129 C2128 1.386 . S
C2129 C2133 1.393 . S
C2130 H2122 0.950 . S
C2130 C2128 1.391 . S
C2130 C2131 1.400 . S
C2131 C2130 1.400 . S
C2131 C2132 1.398 . S
C2131 C2137 1.491 . S
C2132 H2123 0.950 . S
C2132 C2131 1.398 . S
C2132 C2133 1.391 . S
C2133 H2121 0.950 . S
C2133 C2129 1.393 . S
C2133 C2132 1.391 . S
C2134 H2124 0.950 . S
C2134 C2135 1.386 . S
C2134 C2136 1.391 . S
C2135 C2134 1.386 . S
C2135 C2139 1.393 . S
C2136 H2125 0.950 . S
C2136 C2134 1.391 . S
C2136 C2137 1.400 . S
C2137 C2131 1.491 . S
C2137 C2136 1.400 . S
C2137 C2138 1.398 . S
C2138 H2126 0.950 . S
C2138 C2137 1.398 . S
C2138 C2139 1.391 . S
C2139 H2127 0.950 . S
C2139 C2135 1.393 . S
C2139 C2138 1.391 . S
H2140 C2148 0.950 . S
H2141 C2153 0.950 . S
H2142 C2150 0.950 . S
H2143 C2152 0.950 . S
H2144 C2154 0.950 . S
H2145 C2156 0.950 . S
H2146 C2158 0.950 . S
H2147 C2159 0.950 . S
C2148 H2140 0.950 . S
C2148 C2149 1.386 . S
C2148 C2150 1.391 . S
C2149 C2148 1.386 . S
C2149 C2153 1.393 . S
C2150 H2142 0.950 . S
C2150 C2148 1.391 . S
C2150 C2151 1.400 . S
C2151 C2150 1.400 . S
C2151 C2152 1.398 . S
C2151 C2157 1.491 . S
C2152 H2143 0.950 . S
C2152 C2151 1.398 . S
C2152 C2153 1.391 . S
C2153 H2141 0.950 . S
C2153 C2149 1.393 . S
C2153 C2152 1.391 . S
C2154 H2144 0.950 . S
C2154 C2155 1.386 . S
C2154 C2156 1.391 . S
C2155 C2154 1.386 . S
C2155 C2159 1.393 . S
C2156 H2145 0.950 . S
C2156 C2154 1.391 . S
C2156 C2157 1.400 . S
C2157 C2151 1.491 . S
C2157 C2156 1.400 . S
C2157 C2158 1.398 . S
C2158 H2146 0.950 . S
C2158 C2157 1.398 . S
C2158 C2159 1.391 . S
C2159 H2147 0.950 . S
C2159 C2155 1.393 . S
C2159 C2158 1.391 . S
H2160 C2168 0.950 . S
H2161 C2173 0.950 . S
H2162 C2170 0.950 . S
H2163 C2172 0.950 . S
H2164 C2174 0.950 . S
H2165 C2176 0.950 . S
H2166 C2178 0.950 . S
H2167 C2179 0.950 . S
C2168 H2160 0.950 . S
C2168 C2169 1.386 . S
C2168 C2170 1.391 . S
C2169 C2168 1.386 . S
C2169 C2173 1.393 . S
C2170 H2162 0.950 . S
C2170 C2168 1.391 . S
C2170 C2171 1.400 . S
C2171 C2170 1.400 . S
C2171 C2172 1.398 . S
C2171 C2177 1.491 . S
C2172 H2163 0.950 . S
C2172 C2171 1.398 . S
C2172 C2173 1.391 . S
C2173 H2161 0.950 . S
C2173 C2169 1.393 . S
C2173 C2172 1.391 . S
C2174 H2164 0.950 . S
C2174 C2175 1.386 . S
C2174 C2176 1.391 . S
C2175 C2174 1.386 . S
C2175 C2179 1.393 . S
C2176 H2165 0.950 . S
C2176 C2174 1.391 . S
C2176 C2177 1.400 . S
C2177 C2171 1.491 . S
C2177 C2176 1.400 . S
C2177 C2178 1.398 . S
C2178 H2166 0.950 . S
C2178 C2177 1.398 . S
C2178 C2179 1.391 . S
C2179 H2167 0.950 . S
C2179 C2175 1.393 . S
C2179 C2178 1.391 . S
H2180 C2188 0.950 . S
H2181 C2193 0.950 . S
H2182 C2190 0.950 . S
H2183 C2192 0.950 . S
H2184 C2194 0.950 . S
H2185 C2196 0.950 . S
H2186 C2198 0.950 . S
H2187 C2199 0.950 . S
C2188 H2180 0.950 . S
C2188 C2189 1.386 . S
C2188 C2190 1.391 . S
C2189 C2188 1.386 . S
C2189 C2193 1.393 . S
C2190 H2182 0.950 . S
C2190 C2188 1.391 . S
C2190 C2191 1.400 . S
C2191 C2190 1.400 . S
C2191 C2192 1.398 . S
C2191 C2197 1.491 . S
C2192 H2183 0.950 . S
C2192 C2191 1.398 . S
C2192 C2193 1.391 . S
C2193 H2181 0.950 . S
C2193 C2189 1.393 . S
C2193 C2192 1.391 . S
C2194 H2184 0.950 . S
C2194 C2195 1.386 . S
C2194 C2196 1.391 . S
C2195 C2194 1.386 . S
C2195 C2199 1.393 . S
C2196 H2185 0.950 . S
C2196 C2194 1.391 . S
C2196 C2197 1.400 . S
C2197 C2191 1.491 . S
C2197 C2196 1.400 . S
C2197 C2198 1.398 . S
C2198 H2186 0.950 . S
C2198 C2197 1.398 . S
C2198 C2199 1.391 . S
C2199 H2187 0.950 . S
C2199 C2195 1.393 . S
C2199 C2198 1.391 . S
H2200 C2208 0.950 . S
H2201 C2213 0.950 1_565 S
H2202 C2210 0.950 . S
H2203 C2212 0.950 . S
H2204 C2214 0.950 . S
H2205 C2216 0.950 . S
H2206 C2218 0.950 . S
H2207 C2219 0.950 . S
C2208 H2200 0.950 . S
C2208 C2209 1.386 . S
C2208 C2210 1.391 . S
C2209 C2208 1.386 . S
C2209 C2213 1.393 . S
C2210 H2202 0.950 . S
C2210 C2208 1.391 . S
C2210 C2211 1.400 . S
C2211 C2210 1.400 . S
C2211 C2212 1.398 . S
C2211 C2217 1.491 . S
C2212 H2203 0.950 . S
C2212 C2211 1.398 . S
C2212 C2213 1.391 . S
C2213 H2201 0.950 1_545 S
C2213 C2209 1.393 . S
C2213 C2212 1.391 . S
C2214 H2204 0.950 . S
C2214 C2215 1.386 . S
C2214 C2216 1.391 . S
C2215 C2214 1.386 . S
C2215 C2219 1.393 . S
C2216 H2205 0.950 . S
C2216 C2214 1.391 . S
C2216 C2217 1.400 . S
C2217 C2211 1.491 . S
C2217 C2216 1.400 . S
C2217 C2218 1.398 . S
C2218 H2206 0.950 . S
C2218 C2217 1.398 . S
C2218 C2219 1.391 . S
C2219 H2207 0.950 . S
C2219 C2215 1.393 . S
C2219 C2218 1.391 . S
H2220 C2228 0.950 . S
H2221 C2233 0.950 1_554 S
H2222 C2230 0.950 . S
H2223 C2232 0.950 . S
H2224 C2234 0.950 . S
H2225 C2236 0.950 . S
H2226 C2238 0.950 . S
H2227 C2239 0.950 . S
C2228 H2220 0.950 . S
C2228 C2229 1.384 1_556 S
C2228 C2230 1.391 . S
C2229 C2228 1.384 1_554 S
C2229 C2233 1.393 1_554 S
C2230 H2222 0.950 . S
C2230 C2228 1.391 . S
C2230 C2231 1.400 . S
C2231 C2230 1.400 . S
C2231 C2232 1.398 . S
C2231 C2237 1.491 . S
C2232 H2223 0.950 . S
C2232 C2231 1.398 . S
C2232 C2233 1.391 . S
C2233 H2221 0.950 1_556 S
C2233 C2229 1.393 1_556 S
C2233 C2232 1.391 . S
C2234 H2224 0.950 . S
C2234 C2235 1.386 . S
C2234 C2236 1.391 . S
C2235 C2234 1.386 . S
C2235 C2239 1.393 . S
C2236 H2225 0.950 . S
C2236 C2234 1.391 . S
C2236 C2237 1.400 . S
C2237 C2231 1.491 . S
C2237 C2236 1.400 . S
C2237 C2238 1.398 . S
C2238 H2226 0.950 . S
C2238 C2237 1.398 . S
C2238 C2239 1.391 . S
C2239 H2227 0.950 . S
C2239 C2235 1.393 . S
C2239 C2238 1.391 . S
H2240 C2248 0.950 . S
H2241 C2253 0.950 . S
H2242 C2250 0.950 . S
H2243 C2252 0.950 . S
H2244 C2254 0.950 . S
H2245 C2256 0.950 . S
H2246 C2258 0.950 . S
H2247 C2259 0.950 . S
C2248 H2240 0.950 . S
C2248 C2249 1.386 . S
C2248 C2250 1.391 . S
C2249 C2248 1.386 . S
C2249 C2253 1.393 . S
C2250 H2242 0.950 . S
C2250 C2248 1.391 . S
C2250 C2251 1.400 . S
C2251 C2250 1.400 . S
C2251 C2252 1.398 . S
C2251 C2257 1.491 . S
C2252 H2243 0.950 . S
C2252 C2251 1.398 . S
C2252 C2253 1.391 . S
C2253 H2241 0.950 . S
C2253 C2249 1.393 . S
C2253 C2252 1.391 . S
C2254 H2244 0.950 . S
C2254 C2255 1.386 . S
C2254 C2256 1.391 . S
C2255 C2254 1.386 . S
C2255 C2259 1.393 . S
C2256 H2245 0.950 . S
C2256 C2254 1.391 . S
C2256 C2257 1.400 . S
C2257 C2251 1.491 . S
C2257 C2256 1.400 . S
C2257 C2258 1.398 . S
C2258 H2246 0.950 . S
C2258 C2257 1.398 . S
C2258 C2259 1.391 . S
C2259 H2247 0.950 . S
C2259 C2255 1.393 . S
C2259 C2258 1.391 . S
H2260 C2268 0.950 . S
H2261 C2273 0.950 . S
H2262 C2270 0.950 . S
H2263 C2272 0.950 . S
H2264 C2274 0.950 . S
H2265 C2276 0.950 . S
H2266 C2278 0.950 . S
H2267 C2279 0.950 . S
C2268 H2260 0.950 . S
C2268 C2269 1.386 . S
C2268 C2270 1.391 . S
C2269 C2268 1.386 . S
C2269 C2273 1.393 . S
C2270 H2262 0.950 . S
C2270 C2268 1.391 . S
C2270 C2271 1.400 . S
C2271 C2270 1.400 . S
C2271 C2272 1.398 . S
C2271 C2277 1.491 . S
C2272 H2263 0.950 . S
C2272 C2271 1.398 . S
C2272 C2273 1.391 . S
C2273 H2261 0.950 . S
C2273 C2269 1.393 . S
C2273 C2272 1.391 . S
C2274 H2264 0.950 . S
C2274 C2275 1.386 . S
C2274 C2276 1.391 . S
C2275 C2274 1.386 . S
C2275 C2279 1.393 . S
C2276 H2265 0.950 . S
C2276 C2274 1.391 . S
C2276 C2277 1.400 . S
C2277 C2271 1.491 . S
C2277 C2276 1.400 . S
C2277 C2278 1.398 . S
C2278 H2266 0.950 . S
C2278 C2277 1.398 . S
C2278 C2279 1.391 . S
C2279 H2267 0.950 . S
C2279 C2275 1.393 . S
C2279 C2278 1.391 . S
H2280 C2288 0.950 . S
H2281 C2293 0.950 . S
H2282 C2290 0.950 . S
H2283 C2292 0.950 . S
H2284 C2294 0.950 . S
H2285 C2296 0.950 . S
H2286 C2298 0.950 . S
H2287 C2299 0.950 . S
C2288 H2280 0.950 . S
C2288 C2289 1.386 . S
C2288 C2290 1.391 . S
C2289 C2288 1.386 . S
C2289 C2293 1.393 . S
C2290 H2282 0.950 . S
C2290 C2288 1.391 . S
C2290 C2291 1.400 . S
C2291 C2290 1.400 . S
C2291 C2292 1.398 . S
C2291 C2297 1.491 . S
C2292 H2283 0.950 . S
C2292 C2291 1.398 . S
C2292 C2293 1.391 . S
C2293 H2281 0.950 . S
C2293 C2289 1.393 . S
C2293 C2292 1.391 . S
C2294 H2284 0.950 . S
C2294 C2295 1.386 . S
C2294 C2296 1.391 . S
C2295 C2294 1.386 . S
C2295 C2299 1.393 . S
C2296 H2285 0.950 . S
C2296 C2294 1.391 . S
C2296 C2297 1.400 . S
C2297 C2291 1.491 . S
C2297 C2296 1.400 . S
C2297 C2298 1.398 . S
C2298 H2286 0.950 . S
C2298 C2297 1.398 . S
C2298 C2299 1.391 . S
C2299 H2287 0.950 . S
C2299 C2295 1.393 . S
C2299 C2298 1.391 . S
H2300 C2308 0.950 . S
H2301 C2313 0.950 . S
H2302 C2310 0.950 . S
H2303 C2312 0.950 . S
H2304 C2314 0.950 . S
H2305 C2316 0.950 . S
H2306 C2318 0.950 . S
H2307 C2319 0.950 . S
C2308 H2300 0.950 . S
C2308 C2309 1.386 . S
C2308 C2310 1.391 . S
C2309 C2308 1.386 . S
C2309 C2313 1.393 . S
C2310 H2302 0.950 . S
C2310 C2308 1.391 . S
C2310 C2311 1.400 . S
C2311 C2310 1.400 . S
C2311 C2312 1.398 . S
C2311 C2317 1.491 . S
C2312 H2303 0.950 . S
C2312 C2311 1.398 . S
C2312 C2313 1.391 . S
C2313 H2301 0.950 . S
C2313 C2309 1.393 . S
C2313 C2312 1.391 . S
C2314 H2304 0.950 . S
C2314 C2315 1.386 . S
C2314 C2316 1.391 . S
C2315 C2314 1.386 . S
C2315 C2319 1.393 . S
C2316 H2305 0.950 . S
C2316 C2314 1.391 . S
C2316 C2317 1.400 . S
C2317 C2311 1.491 . S
C2317 C2316 1.400 . S
C2317 C2318 1.398 . S
C2318 H2306 0.950 . S
C2318 C2317 1.398 . S
C2318 C2319 1.391 . S
C2319 H2307 0.950 . S
C2319 C2315 1.393 . S
C2319 C2318 1.391 . S
H2320 C2328 0.950 . S
H2321 C2333 0.950 . S
H2322 C2330 0.950 . S
H2323 C2332 0.950 . S
H2324 C2334 0.950 . S
H2325 C2336 0.950 . S
H2326 C2338 0.950 . S
H2327 C2339 0.950 . S
C2328 H2320 0.950 . S
C2328 C2329 1.386 . S
C2328 C2330 1.391 . S
C2329 C2328 1.386 . S
C2329 C2333 1.393 . S
C2330 H2322 0.950 . S
C2330 C2328 1.391 . S
C2330 C2331 1.400 . S
C2331 C2330 1.400 . S
C2331 C2332 1.398 . S
C2331 C2337 1.491 . S
C2332 H2323 0.950 . S
C2332 C2331 1.398 . S
C2332 C2333 1.391 . S
C2333 H2321 0.950 . S
C2333 C2329 1.393 . S
C2333 C2332 1.391 . S
C2334 H2324 0.950 . S
C2334 C2335 1.386 . S
C2334 C2336 1.391 . S
C2335 C2334 1.386 . S
C2335 C2339 1.393 . S
C2336 H2325 0.950 . S
C2336 C2334 1.391 . S
C2336 C2337 1.400 . S
C2337 C2331 1.491 . S
C2337 C2336 1.400 . S
C2337 C2338 1.398 . S
C2338 H2326 0.950 . S
C2338 C2337 1.398 . S
C2338 C2339 1.391 . S
C2339 H2327 0.950 . S
C2339 C2335 1.393 . S
C2339 C2338 1.391 . S
H2340 C2348 0.950 . S
H2341 C2353 0.950 . S
H2342 C2350 0.950 . S
H2343 C2352 0.950 . S
H2344 C2354 0.950 . S
H2345 C2356 0.950 . S
H2346 C2358 0.950 . S
H2347 C2359 0.950 . S
C2348 H2340 0.950 . S
C2348 C2349 1.386 . S
C2348 C2350 1.391 . S
C2349 C2348 1.386 . S
C2349 C2353 1.393 . S
C2350 H2342 0.950 . S
C2350 C2348 1.391 . S
C2350 C2351 1.400 . S
C2351 C2350 1.400 . S
C2351 C2352 1.398 . S
C2351 C2357 1.491 . S
C2352 H2343 0.950 . S
C2352 C2351 1.398 . S
C2352 C2353 1.391 . S
C2353 H2341 0.950 . S
C2353 C2349 1.393 . S
C2353 C2352 1.391 . S
C2354 H2344 0.950 . S
C2354 C2355 1.386 . S
C2354 C2356 1.391 . S
C2355 C2354 1.386 . S
C2355 C2359 1.393 . S
C2356 H2345 0.950 . S
C2356 C2354 1.391 . S
C2356 C2357 1.400 . S
C2357 C2351 1.491 . S
C2357 C2356 1.400 . S
C2357 C2358 1.398 . S
C2358 H2346 0.950 . S
C2358 C2357 1.398 . S
C2358 C2359 1.391 . S
C2359 H2347 0.950 . S
C2359 C2355 1.393 . S
C2359 C2358 1.391 . S
H2360 C2368 0.950 . S
H2361 C2373 0.950 . S
H2362 C2370 0.950 . S
H2363 C2372 0.950 . S
H2364 C2374 0.950 . S
H2365 C2376 0.950 . S
H2366 C2378 0.950 . S
H2367 C2379 0.950 . S
C2368 H2360 0.950 . S
C2368 C2369 1.386 . S
C2368 C2370 1.391 . S
C2369 C2368 1.386 . S
C2369 C2373 1.393 . S
C2370 H2362 0.950 . S
C2370 C2368 1.391 . S
C2370 C2371 1.400 . S
C2371 C2370 1.400 . S
C2371 C2372 1.398 . S
C2371 C2377 1.491 . S
C2372 H2363 0.950 . S
C2372 C2371 1.398 . S
C2372 C2373 1.391 . S
C2373 H2361 0.950 . S
C2373 C2369 1.393 . S
C2373 C2372 1.391 . S
C2374 H2364 0.950 . S
C2374 C2375 1.386 . S
C2374 C2376 1.391 . S
C2375 C2374 1.386 . S
C2375 C2379 1.393 . S
C2376 H2365 0.950 . S
C2376 C2374 1.391 . S
C2376 C2377 1.400 . S
C2377 C2371 1.491 . S
C2377 C2376 1.400 . S
C2377 C2378 1.398 . S
C2378 H2366 0.950 . S
C2378 C2377 1.398 . S
C2378 C2379 1.391 . S
C2379 H2367 0.950 . S
C2379 C2375 1.393 . S
C2379 C2378 1.391 . S
H2380 C2388 0.950 . S
H2381 C2393 0.950 . S
H2382 C2390 0.950 . S
H2383 C2392 0.950 . S
H2384 C2394 0.950 . S
H2385 C2396 0.950 . S
H2386 C2398 0.950 . S
H2387 C2399 0.950 . S
C2388 H2380 0.950 . S
C2388 C2389 1.386 . S
C2388 C2390 1.391 . S
C2389 C2388 1.386 . S
C2389 C2393 1.393 . S
C2390 H2382 0.950 . S
C2390 C2388 1.391 . S
C2390 C2391 1.400 . S
C2391 C2390 1.400 . S
C2391 C2392 1.398 . S
C2391 C2397 1.491 . S
C2392 H2383 0.950 . S
C2392 C2391 1.398 . S
C2392 C2393 1.391 . S
C2393 H2381 0.950 . S
C2393 C2389 1.393 . S
C2393 C2392 1.391 . S
C2394 H2384 0.950 . S
C2394 C2395 1.386 . S
C2394 C2396 1.391 . S
C2395 C2394 1.386 . S
C2395 C2399 1.393 . S
C2396 H2385 0.950 . S
C2396 C2394 1.391 . S
C2396 C2397 1.400 . S
C2397 C2391 1.491 . S
C2397 C2396 1.400 . S
C2397 C2398 1.398 . S
C2398 H2386 0.950 . S
C2398 C2397 1.398 . S
C2398 C2399 1.391 . S
C2399 H2387 0.950 . S
C2399 C2395 1.393 . S
C2399 C2398 1.391 . S
H2400 C2408 0.950 . S
H2401 C2413 0.950 . S
H2402 C2410 0.950 . S
H2403 C2412 0.950 . S
H2404 C2414 0.950 . S
H2405 C2416 0.950 . S
H2406 C2418 0.950 . S
H2407 C2419 0.950 . S
C2408 H2400 0.950 . S
C2408 C2409 1.386 . S
C2408 C2410 1.391 . S
C2409 C2408 1.386 . S
C2409 C2413 1.393 . S
C2410 H2402 0.950 . S
C2410 C2408 1.391 . S
C2410 C2411 1.400 . S
C2411 C2410 1.400 . S
C2411 C2412 1.398 . S
C2411 C2417 1.491 . S
C2412 H2403 0.950 . S
C2412 C2411 1.398 . S
C2412 C2413 1.391 . S
C2413 H2401 0.950 . S
C2413 C2409 1.393 . S
C2413 C2412 1.391 . S
C2414 H2404 0.950 . S
C2414 C2415 1.386 . S
C2414 C2416 1.391 . S
C2415 C2414 1.386 . S
C2415 C2419 1.393 . S
C2416 H2405 0.950 . S
C2416 C2414 1.391 . S
C2416 C2417 1.400 . S
C2417 C2411 1.491 . S
C2417 C2416 1.400 . S
C2417 C2418 1.398 . S
C2418 H2406 0.950 . S
C2418 C2417 1.398 . S
C2418 C2419 1.391 . S
C2419 H2407 0.950 . S
C2419 C2415 1.393 . S
C2419 C2418 1.391 . S
H2420 C2428 0.950 . S
H2421 C2433 0.950 . S
H2422 C2430 0.950 . S
H2423 C2432 0.950 . S
H2424 C2434 0.950 . S
H2425 C2436 0.950 . S
H2426 C2438 0.950 . S
H2427 C2439 0.950 . S
C2428 H2420 0.950 . S
C2428 C2429 1.386 . S
C2428 C2430 1.391 . S
C2429 C2428 1.386 . S
C2429 C2433 1.393 . S
C2430 H2422 0.950 . S
C2430 C2428 1.391 . S
C2430 C2431 1.400 . S
C2431 C2430 1.400 . S
C2431 C2432 1.398 . S
C2431 C2437 1.491 . S
C2432 H2423 0.950 . S
C2432 C2431 1.398 . S
C2432 C2433 1.391 . S
C2433 H2421 0.950 . S
C2433 C2429 1.393 . S
C2433 C2432 1.391 . S
C2434 H2424 0.950 . S
C2434 C2435 1.386 . S
C2434 C2436 1.391 . S
C2435 C2434 1.386 . S
C2435 C2439 1.393 . S
C2436 H2425 0.950 . S
C2436 C2434 1.391 . S
C2436 C2437 1.400 . S
C2437 C2431 1.491 . S
C2437 C2436 1.400 . S
C2437 C2438 1.398 . S
C2438 H2426 0.950 . S
C2438 C2437 1.398 . S
C2438 C2439 1.391 . S
C2439 H2427 0.950 . S
C2439 C2435 1.393 . S
C2439 C2438 1.391 . S
H2440 C2448 0.950 . S
H2441 C2453 0.950 . S
H2442 C2450 0.950 . S
H2443 C2452 0.950 . S
H2444 C2454 0.950 . S
H2445 C2456 0.950 . S
H2446 C2458 0.950 . S
H2447 C2459 0.950 . S
C2448 H2440 0.950 . S
C2448 C2449 1.386 . S
C2448 C2450 1.391 . S
C2449 C2448 1.386 . S
C2449 C2453 1.393 . S
C2450 H2442 0.950 . S
C2450 C2448 1.391 . S
C2450 C2451 1.400 . S
C2451 C2450 1.400 . S
C2451 C2452 1.398 . S
C2451 C2457 1.491 . S
C2452 H2443 0.950 . S
C2452 C2451 1.398 . S
C2452 C2453 1.391 . S
C2453 H2441 0.950 . S
C2453 C2449 1.393 . S
C2453 C2452 1.391 . S
C2454 H2444 0.950 . S
C2454 C2455 1.386 . S
C2454 C2456 1.391 . S
C2455 C2454 1.386 . S
C2455 C2459 1.393 . S
C2456 H2445 0.950 . S
C2456 C2454 1.391 . S
C2456 C2457 1.400 . S
C2457 C2451 1.491 . S
C2457 C2456 1.400 . S
C2457 C2458 1.398 . S
C2458 H2446 0.950 . S
C2458 C2457 1.398 . S
C2458 C2459 1.391 . S
C2459 H2447 0.950 . S
C2459 C2455 1.393 . S
C2459 C2458 1.391 . S
H2460 C2468 0.950 . S
H2461 C2473 0.950 . S
H2462 C2470 0.950 . S
H2463 C2472 0.950 . S
H2464 C2474 0.950 . S
H2465 C2476 0.950 . S
H2466 C2478 0.950 . S
H2467 C2479 0.950 . S
C2468 H2460 0.950 . S
C2468 C2469 1.386 . S
C2468 C2470 1.391 . S
C2469 C2468 1.386 . S
C2469 C2473 1.393 . S
C2470 H2462 0.950 . S
C2470 C2468 1.391 . S
C2470 C2471 1.400 . S
C2471 C2470 1.400 . S
C2471 C2472 1.398 . S
C2471 C2477 1.491 . S
C2472 H2463 0.950 . S
C2472 C2471 1.398 . S
C2472 C2473 1.391 . S
C2473 H2461 0.950 . S
C2473 C2469 1.393 . S
C2473 C2472 1.391 . S
C2474 H2464 0.950 . S
C2474 C2475 1.386 . S
C2474 C2476 1.391 . S
C2475 C2474 1.386 . S
C2475 C2479 1.393 . S
C2476 H2465 0.950 . S
C2476 C2474 1.391 . S
C2476 C2477 1.400 . S
C2477 C2471 1.491 . S
C2477 C2476 1.400 . S
C2477 C2478 1.398 . S
C2478 H2466 0.950 . S
C2478 C2477 1.398 . S
C2478 C2479 1.391 . S
C2479 H2467 0.950 . S
C2479 C2475 1.393 . S
C2479 C2478 1.391 . S
H2480 C2488 0.950 . S
H2481 C2493 0.950 . S
H2482 C2490 0.950 . S
H2483 C2492 0.950 . S
H2484 C2494 0.950 . S
H2485 C2496 0.950 . S
H2486 C2498 0.950 . S
H2487 C2499 0.950 . S
C2488 H2480 0.950 . S
C2488 C2489 1.386 . S
C2488 C2490 1.391 . S
C2489 C2488 1.386 . S
C2489 C2493 1.393 . S
C2490 H2482 0.950 . S
C2490 C2488 1.391 . S
C2490 C2491 1.400 . S
C2491 C2490 1.400 . S
C2491 C2492 1.398 . S
C2491 C2497 1.491 . S
C2492 H2483 0.950 . S
C2492 C2491 1.398 . S
C2492 C2493 1.391 . S
C2493 H2481 0.950 . S
C2493 C2489 1.393 . S
C2493 C2492 1.391 . S
C2494 H2484 0.950 . S
C2494 C2495 1.386 . S
C2494 C2496 1.391 . S
C2495 C2494 1.386 . S
C2495 C2499 1.393 . S
C2496 H2485 0.950 . S
C2496 C2494 1.391 . S
C2496 C2497 1.400 . S
C2497 C2491 1.491 . S
C2497 C2496 1.400 . S
C2497 C2498 1.398 . S
C2498 H2486 0.950 . S
C2498 C2497 1.398 . S
C2498 C2499 1.391 . S
C2499 H2487 0.950 . S
C2499 C2495 1.393 . S
C2499 C2498 1.391 . S
H2500 C2508 0.950 . S
H2501 C2513 0.950 . S
H2502 C2510 0.950 . S
H2503 C2512 0.950 . S
H2504 C2514 0.950 . S
H2505 C2516 0.950 . S
H2506 C2518 0.950 . S
H2507 C2519 0.950 . S
C2508 H2500 0.950 . S
C2508 C2509 1.386 . S
C2508 C2510 1.391 . S
C2509 C2508 1.386 . S
C2509 C2513 1.393 . S
C2510 H2502 0.950 . S
C2510 C2508 1.391 . S
C2510 C2511 1.400 . S
C2511 C2510 1.400 . S
C2511 C2512 1.398 . S
C2511 C2517 1.491 . S
C2512 H2503 0.950 . S
C2512 C2511 1.398 . S
C2512 C2513 1.391 . S
C2513 H2501 0.950 . S
C2513 C2509 1.393 . S
C2513 C2512 1.391 . S
C2514 H2504 0.950 . S
C2514 C2515 1.386 . S
C2514 C2516 1.391 . S
C2515 C2514 1.386 . S
C2515 C2519 1.393 . S
C2516 H2505 0.950 . S
C2516 C2514 1.391 . S
C2516 C2517 1.400 . S
C2517 C2511 1.491 . S
C2517 C2516 1.400 . S
C2517 C2518 1.398 . S
C2518 H2506 0.950 . S
C2518 C2517 1.398 . S
C2518 C2519 1.391 . S
C2519 H2507 0.950 . S
C2519 C2515 1.393 . S
C2519 C2518 1.391 . S
H2520 C2528 0.950 . S
H2521 C2533 0.950 . S
H2522 C2530 0.950 . S
H2523 C2532 0.950 . S
H2524 C2534 0.950 . S
H2525 C2536 0.950 . S
H2526 C2538 0.950 . S
H2527 C2539 0.950 . S
C2528 H2520 0.950 . S
C2528 C2529 1.386 . S
C2528 C2530 1.391 . S
C2529 C2528 1.386 . S
C2529 C2533 1.393 . S
C2530 H2522 0.950 . S
C2530 C2528 1.391 . S
C2530 C2531 1.400 . S
C2531 C2530 1.400 . S
C2531 C2532 1.398 . S
C2531 C2537 1.491 . S
C2532 H2523 0.950 . S
C2532 C2531 1.398 . S
C2532 C2533 1.391 . S
C2533 H2521 0.950 . S
C2533 C2529 1.393 . S
C2533 C2532 1.391 . S
C2534 H2524 0.950 . S
C2534 C2535 1.386 . S
C2534 C2536 1.391 . S
C2535 C2534 1.386 . S
C2535 C2539 1.393 . S
C2536 H2525 0.950 . S
C2536 C2534 1.391 . S
C2536 C2537 1.400 . S
C2537 C2531 1.491 . S
C2537 C2536 1.400 . S
C2537 C2538 1.398 . S
C2538 H2526 0.950 . S
C2538 C2537 1.398 . S
C2538 C2539 1.391 . S
C2539 H2527 0.950 . S
C2539 C2535 1.393 . S
C2539 C2538 1.391 . S
H2540 C2548 0.950 . S
H2541 C2553 0.950 . S
H2542 C2550 0.950 . S
H2543 C2552 0.950 . S
H2544 C2554 0.950 . S
H2545 C2556 0.950 . S
H2546 C2558 0.950 . S
H2547 C2559 0.950 1_655 S
C2548 H2540 0.950 . S
C2548 C2549 1.386 . S
C2548 C2550 1.391 . S
C2549 C2548 1.386 . S
C2549 C2553 1.393 . S
C2550 H2542 0.950 . S
C2550 C2548 1.391 . S
C2550 C2551 1.400 . S
C2551 C2550 1.400 . S
C2551 C2552 1.398 . S
C2551 C2557 1.491 . S
C2552 H2543 0.950 . S
C2552 C2551 1.398 . S
C2552 C2553 1.391 . S
C2553 H2541 0.950 . S
C2553 C2549 1.393 . S
C2553 C2552 1.391 . S
C2554 H2544 0.950 . S
C2554 C2555 1.386 . S
C2554 C2556 1.391 . S
C2555 C2554 1.386 . S
C2555 C2559 1.393 . S
C2556 H2545 0.950 . S
C2556 C2554 1.391 . S
C2556 C2557 1.400 . S
C2557 C2551 1.491 . S
C2557 C2556 1.400 . S
C2557 C2558 1.398 . S
C2558 H2546 0.950 . S
C2558 C2557 1.398 . S
C2558 C2559 1.391 . S
C2559 H2547 0.950 1_455 S
C2559 C2555 1.393 . S
C2559 C2558 1.391 . S
H2560 C2568 0.950 . S
H2561 C2573 0.950 . S
H2562 C2570 0.950 . S
H2563 C2572 0.950 . S
H2564 C2574 0.950 . S
H2565 C2576 0.950 . S
H2566 C2578 0.950 . S
H2567 C2579 0.950 . S
C2568 H2560 0.950 . S
C2568 C2569 1.386 . S
C2568 C2570 1.391 . S
C2569 C2568 1.386 . S
C2569 C2573 1.393 . S
C2570 H2562 0.950 . S
C2570 C2568 1.391 . S
C2570 C2571 1.400 . S
C2571 C2570 1.400 . S
C2571 C2572 1.398 . S
C2571 C2577 1.491 . S
C2572 H2563 0.950 . S
C2572 C2571 1.398 . S
C2572 C2573 1.391 . S
C2573 H2561 0.950 . S
C2573 C2569 1.393 . S
C2573 C2572 1.391 . S
C2574 H2564 0.950 . S
C2574 C2575 1.386 . S
C2574 C2576 1.391 . S
C2575 C2574 1.386 . S
C2575 C2579 1.393 . S
C2576 H2565 0.950 . S
C2576 C2574 1.391 . S
C2576 C2577 1.400 . S
C2577 C2571 1.491 . S
C2577 C2576 1.400 . S
C2577 C2578 1.398 . S
C2578 H2566 0.950 . S
C2578 C2577 1.398 . S
C2578 C2579 1.391 . S
C2579 H2567 0.950 . S
C2579 C2575 1.393 . S
C2579 C2578 1.391 . S
H2580 C2588 0.950 . S
H2581 C2593 0.950 . S
H2582 C2590 0.950 . S
H2583 C2592 0.950 . S
H2584 C2594 0.950 . S
H2585 C2596 0.950 . S
H2586 C2598 0.950 . S
H2587 C2599 0.950 . S
C2588 H2580 0.950 . S
C2588 C2589 1.386 . S
C2588 C2590 1.391 . S
C2589 C2588 1.386 . S
C2589 C2593 1.393 . S
C2590 H2582 0.950 . S
C2590 C2588 1.391 . S
C2590 C2591 1.400 . S
C2591 C2590 1.400 . S
C2591 C2592 1.398 . S
C2591 C2597 1.491 . S
C2592 H2583 0.950 . S
C2592 C2591 1.398 . S
C2592 C2593 1.391 . S
C2593 H2581 0.950 . S
C2593 C2589 1.393 . S
C2593 C2592 1.391 . S
C2594 H2584 0.950 . S
C2594 C2595 1.386 . S
C2594 C2596 1.391 . S
C2595 C2594 1.386 . S
C2595 C2599 1.393 . S
C2596 H2585 0.950 . S
C2596 C2594 1.391 . S
C2596 C2597 1.400 . S
C2597 C2591 1.491 . S
C2597 C2596 1.400 . S
C2597 C2598 1.398 . S
C2598 H2586 0.950 . S
C2598 C2597 1.398 . S
C2598 C2599 1.391 . S
C2599 H2587 0.950 . S
C2599 C2595 1.393 . S
C2599 C2598 1.391 . S
H2600 C2608 0.950 . S
H2601 C2613 0.950 . S
H2602 C2610 0.950 . S
H2603 C2612 0.950 . S
H2604 C2614 0.950 . S
H2605 C2616 0.950 . S
H2606 C2618 0.950 . S
H2607 C2619 0.950 . S
C2608 H2600 0.950 . S
C2608 C2609 1.386 . S
C2608 C2610 1.391 . S
C2609 C2608 1.386 . S
C2609 C2613 1.393 . S
C2610 H2602 0.950 . S
C2610 C2608 1.391 . S
C2610 C2611 1.400 . S
C2611 C2610 1.400 . S
C2611 C2612 1.398 . S
C2611 C2617 1.491 . S
C2612 H2603 0.950 . S
C2612 C2611 1.398 . S
C2612 C2613 1.391 . S
C2613 H2601 0.950 . S
C2613 C2609 1.393 . S
C2613 C2612 1.391 . S
C2614 H2604 0.950 . S
C2614 C2615 1.386 . S
C2614 C2616 1.391 . S
C2615 C2614 1.386 . S
C2615 C2619 1.393 . S
C2616 H2605 0.950 . S
C2616 C2614 1.391 . S
C2616 C2617 1.400 . S
C2617 C2611 1.491 . S
C2617 C2616 1.400 . S
C2617 C2618 1.398 . S
C2618 H2606 0.950 . S
C2618 C2617 1.398 . S
C2618 C2619 1.391 . S
C2619 H2607 0.950 . S
C2619 C2615 1.393 . S
C2619 C2618 1.391 . S
H2620 C2628 0.950 . S
H2621 C2633 0.950 . S
H2622 C2630 0.950 . S
H2623 C2632 0.950 . S
H2624 C2634 0.950 . S
H2625 C2636 0.950 . S
H2626 C2638 0.950 . S
H2627 C2639 0.950 . S
C2628 H2620 0.950 . S
C2628 C2629 1.386 . S
C2628 C2630 1.391 . S
C2629 C2628 1.386 . S
C2629 C2633 1.393 . S
C2630 H2622 0.950 . S
C2630 C2628 1.391 . S
C2630 C2631 1.400 . S
C2631 C2630 1.400 . S
C2631 C2632 1.398 . S
C2631 C2637 1.491 . S
C2632 H2623 0.950 . S
C2632 C2631 1.398 . S
C2632 C2633 1.391 . S
C2633 H2621 0.950 . S
C2633 C2629 1.393 . S
C2633 C2632 1.391 . S
C2634 H2624 0.950 . S
C2634 C2635 1.386 . S
C2634 C2636 1.391 . S
C2635 C2634 1.386 . S
C2635 C2639 1.393 . S
C2636 H2625 0.950 . S
C2636 C2634 1.391 . S
C2636 C2637 1.400 . S
C2637 C2631 1.491 . S
C2637 C2636 1.400 . S
C2637 C2638 1.398 . S
C2638 H2626 0.950 . S
C2638 C2637 1.398 . S
C2638 C2639 1.391 . S
C2639 H2627 0.950 . S
C2639 C2635 1.393 . S
C2639 C2638 1.391 . S
H2640 C2648 0.950 . S
H2641 C2653 0.950 . S
H2642 C2650 0.950 . S
H2643 C2652 0.950 . S
H2644 C2654 0.950 . S
H2645 C2656 0.950 . S
H2646 C2658 0.950 . S
H2647 C2659 0.950 . S
C2648 H2640 0.950 . S
C2648 C2649 1.386 . S
C2648 C2650 1.391 . S
C2649 C2648 1.386 . S
C2649 C2653 1.393 . S
C2650 H2642 0.950 . S
C2650 C2648 1.391 . S
C2650 C2651 1.400 . S
C2651 C2650 1.400 . S
C2651 C2652 1.398 . S
C2651 C2657 1.491 . S
C2652 H2643 0.950 . S
C2652 C2651 1.398 . S
C2652 C2653 1.391 . S
C2653 H2641 0.950 . S
C2653 C2649 1.393 . S
C2653 C2652 1.391 . S
C2654 H2644 0.950 . S
C2654 C2655 1.386 . S
C2654 C2656 1.391 . S
C2655 C2654 1.386 . S
C2655 C2659 1.393 . S
C2656 H2645 0.950 . S
C2656 C2654 1.391 . S
C2656 C2657 1.400 . S
C2657 C2651 1.491 . S
C2657 C2656 1.400 . S
C2657 C2658 1.398 . S
C2658 H2646 0.950 . S
C2658 C2657 1.398 . S
C2658 C2659 1.391 . S
C2659 H2647 0.950 . S
C2659 C2655 1.393 . S
C2659 C2658 1.391 . S
H2660 C2668 0.950 . S
H2661 C2673 0.950 . S
H2662 C2670 0.950 . S
H2663 C2672 0.950 . S
H2664 C2674 0.950 . S
H2665 C2676 0.950 . S
H2666 C2678 0.950 . S
H2667 C2679 0.950 . S
C2668 H2660 0.950 . S
C2668 C2669 1.386 . S
C2668 C2670 1.391 . S
C2669 C2668 1.386 . S
C2669 C2673 1.393 . S
C2670 H2662 0.950 . S
C2670 C2668 1.391 . S
C2670 C2671 1.400 . S
C2671 C2670 1.400 . S
C2671 C2672 1.398 . S
C2671 C2677 1.491 . S
C2672 H2663 0.950 . S
C2672 C2671 1.398 . S
C2672 C2673 1.391 . S
C2673 H2661 0.950 . S
C2673 C2669 1.393 . S
C2673 C2672 1.391 . S
C2674 H2664 0.950 . S
C2674 C2675 1.386 . S
C2674 C2676 1.391 . S
C2675 C2674 1.386 . S
C2675 C2679 1.393 . S
C2676 H2665 0.950 . S
C2676 C2674 1.391 . S
C2676 C2677 1.400 . S
C2677 C2671 1.491 . S
C2677 C2676 1.400 . S
C2677 C2678 1.398 . S
C2678 H2666 0.950 . S
C2678 C2677 1.398 . S
C2678 C2679 1.391 . S
C2679 H2667 0.950 . S
C2679 C2675 1.393 . S
C2679 C2678 1.391 . S
H2680 C2688 0.950 1_545 S
H2681 C2693 0.950 . S
H2682 C2690 0.950 . S
H2683 C2692 0.950 . S
H2684 C2694 0.950 . S
H2685 C2696 0.950 . S
H2686 C2698 0.950 . S
H2687 C2699 0.950 . S
C2688 H2680 0.950 1_565 S
C2688 C2689 1.386 . S
C2688 C2690 1.391 . S
C2689 C2688 1.386 . S
C2689 C2693 1.393 . S
C2690 H2682 0.950 . S
C2690 C2688 1.391 . S
C2690 C2691 1.400 . S
C2691 C2690 1.400 . S
C2691 C2692 1.398 . S
C2691 C2697 1.491 . S
C2692 H2683 0.950 . S
C2692 C2691 1.398 . S
C2692 C2693 1.391 . S
C2693 H2681 0.950 . S
C2693 C2689 1.393 . S
C2693 C2692 1.391 . S
C2694 H2684 0.950 . S
C2694 C2695 1.386 . S
C2694 C2696 1.391 . S
C2695 C2694 1.386 . S
C2695 C2699 1.393 . S
C2696 H2685 0.950 . S
C2696 C2694 1.391 . S
C2696 C2697 1.400 . S
C2697 C2691 1.491 . S
C2697 C2696 1.400 . S
C2697 C2698 1.398 . S
C2698 H2686 0.950 . S
C2698 C2697 1.398 . S
C2698 C2699 1.391 . S
C2699 H2687 0.950 . S
C2699 C2695 1.393 . S
C2699 C2698 1.391 . S
H2700 C2708 0.950 . S
H2701 C2713 0.950 . S
H2702 C2710 0.950 . S
H2703 C2712 0.950 . S
H2704 C2714 0.950 . S
H2705 C2716 0.950 . S
H2706 C2718 0.950 . S
H2707 C2719 0.950 . S
C2708 H2700 0.950 . S
C2708 C2709 1.386 . S
C2708 C2710 1.391 1_556 S
C2709 C2708 1.386 . S
C2709 C2713 1.393 1_556 S
C2710 H2702 0.950 . S
C2710 C2708 1.391 1_554 S
C2710 C2711 1.400 . S
C2711 C2710 1.400 . S
C2711 C2712 1.398 . S
C2711 C2717 1.491 . S
C2712 H2703 0.950 . S
C2712 C2711 1.398 . S
C2712 C2713 1.391 . S
C2713 H2701 0.950 . S
C2713 C2709 1.393 1_554 S
C2713 C2712 1.391 . S
C2714 H2704 0.950 . S
C2714 C2715 1.386 . S
C2714 C2716 1.391 . S
C2715 C2714 1.386 . S
C2715 C2719 1.393 . S
C2716 H2705 0.950 . S
C2716 C2714 1.391 . S
C2716 C2717 1.400 . S
C2717 C2711 1.491 . S
C2717 C2716 1.400 . S
C2717 C2718 1.398 . S
C2718 H2706 0.950 . S
C2718 C2717 1.398 . S
C2718 C2719 1.391 . S
C2719 H2707 0.950 . S
C2719 C2715 1.393 . S
C2719 C2718 1.391 . S
H2720 C2728 0.950 . S
H2721 C2733 0.950 . S
H2722 C2730 0.950 . S
H2723 C2732 0.950 . S
H2724 C2734 0.950 . S
H2725 C2736 0.950 . S
H2726 C2738 0.950 . S
H2727 C2739 0.950 . S
C2728 H2720 0.950 . S
C2728 C2729 1.386 . S
C2728 C2730 1.391 . S
C2729 C2728 1.386 . S
C2729 C2733 1.393 . S
C2730 H2722 0.950 . S
C2730 C2728 1.391 . S
C2730 C2731 1.400 . S
C2731 C2730 1.400 . S
C2731 C2732 1.398 . S
C2731 C2737 1.491 . S
C2732 H2723 0.950 . S
C2732 C2731 1.398 . S
C2732 C2733 1.391 . S
C2733 H2721 0.950 . S
C2733 C2729 1.393 . S
C2733 C2732 1.391 . S
C2734 H2724 0.950 . S
C2734 C2735 1.386 . S
C2734 C2736 1.391 . S
C2735 C2734 1.386 . S
C2735 C2739 1.393 . S
C2736 H2725 0.950 . S
C2736 C2734 1.391 . S
C2736 C2737 1.400 . S
C2737 C2731 1.491 . S
C2737 C2736 1.400 . S
C2737 C2738 1.398 . S
C2738 H2726 0.950 . S
C2738 C2737 1.398 . S
C2738 C2739 1.391 . S
C2739 H2727 0.950 . S
C2739 C2735 1.393 . S
C2739 C2738 1.391 . S
H2740 C2748 0.950 . S
H2741 C2753 0.950 . S
H2742 C2750 0.950 . S
H2743 C2752 0.950 . S
H2744 C2754 0.950 . S
H2745 C2756 0.950 . S
H2746 C2758 0.950 . S
H2747 C2759 0.950 . S
C2748 H2740 0.950 . S
C2748 C2749 1.386 . S
C2748 C2750 1.391 . S
C2749 C2748 1.386 . S
C2749 C2753 1.393 . S
C2750 H2742 0.950 . S
C2750 C2748 1.391 . S
C2750 C2751 1.400 . S
C2751 C2750 1.400 . S
C2751 C2752 1.398 . S
C2751 C2757 1.491 . S
C2752 H2743 0.950 . S
C2752 C2751 1.398 . S
C2752 C2753 1.391 . S
C2753 H2741 0.950 . S
C2753 C2749 1.393 . S
C2753 C2752 1.391 . S
C2754 H2744 0.950 . S
C2754 C2755 1.386 . S
C2754 C2756 1.391 . S
C2755 C2754 1.386 . S
C2755 C2759 1.393 . S
C2756 H2745 0.950 . S
C2756 C2754 1.391 . S
C2756 C2757 1.400 . S
C2757 C2751 1.491 . S
C2757 C2756 1.400 . S
C2757 C2758 1.398 . S
C2758 H2746 0.950 . S
C2758 C2757 1.398 . S
C2758 C2759 1.391 . S
C2759 H2747 0.950 . S
C2759 C2755 1.393 . S
C2759 C2758 1.391 . S
H2760 C2768 0.950 . S
H2761 C2773 0.950 . S
H2762 C2770 0.950 . S
H2763 C2772 0.950 . S
H2764 C2774 0.950 . S
H2765 C2776 0.950 . S
H2766 C2778 0.950 . S
H2767 C2779 0.950 . S
C2768 H2760 0.950 . S
C2768 C2769 1.386 . S
C2768 C2770 1.391 . S
C2769 C2768 1.386 . S
C2769 C2773 1.393 . S
C2770 H2762 0.950 . S
C2770 C2768 1.391 . S
C2770 C2771 1.400 . S
C2771 C2770 1.400 . S
C2771 C2772 1.398 . S
C2771 C2777 1.491 . S
C2772 H2763 0.950 . S
C2772 C2771 1.398 . S
C2772 C2773 1.391 . S
C2773 H2761 0.950 . S
C2773 C2769 1.393 . S
C2773 C2772 1.391 . S
C2774 H2764 0.950 . S
C2774 C2775 1.386 . S
C2774 C2776 1.391 . S
C2775 C2774 1.386 . S
C2775 C2779 1.393 . S
C2776 H2765 0.950 . S
C2776 C2774 1.391 . S
C2776 C2777 1.400 . S
C2777 C2771 1.491 . S
C2777 C2776 1.400 . S
C2777 C2778 1.398 . S
C2778 H2766 0.950 . S
C2778 C2777 1.398 . S
C2778 C2779 1.391 . S
C2779 H2767 0.950 . S
C2779 C2775 1.393 . S
C2779 C2778 1.391 . S
H2780 C2788 0.950 . S
H2781 C2793 0.950 . S
H2782 C2790 0.950 . S
H2783 C2792 0.950 . S
H2784 C2794 0.950 . S
H2785 C2796 0.950 . S
H2786 C2798 0.950 . S
H2787 C2799 0.950 . S
C2788 H2780 0.950 . S
C2788 C2789 1.386 . S
C2788 C2790 1.391 . S
C2789 C2788 1.386 . S
C2789 C2793 1.393 . S
C2790 H2782 0.950 . S
C2790 C2788 1.391 . S
C2790 C2791 1.400 . S
C2791 C2790 1.400 . S
C2791 C2792 1.398 . S
C2791 C2797 1.491 . S
C2792 H2783 0.950 . S
C2792 C2791 1.398 . S
C2792 C2793 1.391 . S
C2793 H2781 0.950 . S
C2793 C2789 1.393 . S
C2793 C2792 1.391 . S
C2794 H2784 0.950 . S
C2794 C2795 1.386 . S
C2794 C2796 1.391 . S
C2795 C2794 1.386 . S
C2795 C2799 1.393 . S
C2796 H2785 0.950 . S
C2796 C2794 1.391 . S
C2796 C2797 1.400 . S
C2797 C2791 1.491 . S
C2797 C2796 1.400 . S
C2797 C2798 1.398 . S
C2798 H2786 0.950 . S
C2798 C2797 1.398 . S
C2798 C2799 1.391 . S
C2799 H2787 0.950 . S
C2799 C2795 1.393 . S
C2799 C2798 1.391 . S
H2800 C2808 0.950 . S
H2801 C2813 0.950 . S
H2802 C2810 0.950 . S
H2803 C2812 0.950 . S
H2804 C2814 0.980 . S
H2805 C2816 0.950 . S
H2806 C2818 0.950 . S
H2807 C2819 0.950 . S
C2808 H2800 0.950 . S
C2808 C2809 1.386 . S
C2808 C2810 1.391 . S
C2809 C2808 1.386 . S
C2809 C2813 1.393 . S
C2810 H2802 0.950 . S
C2810 C2808 1.391 . S
C2810 C2811 1.400 . S
C2811 C2810 1.400 . S
C2811 C2812 1.398 . S
C2811 C2817 1.491 . S
C2812 H2803 0.950 . S
C2812 C2811 1.398 . S
C2812 C2813 1.391 . S
C2813 H2801 0.950 . S
C2813 C2809 1.393 . S
C2813 C2812 1.391 . S
C2814 H2804 0.980 . S
C2814 C2815 1.373 1_565 S
C2814 C2816 1.374 1_565 S
C2815 C2814 1.373 1_545 S
C2815 C2819 1.393 . S
C2816 H2805 0.950 . S
C2816 C2814 1.374 1_545 S
C2816 C2817 1.400 . S
C2817 C2811 1.491 . S
C2817 C2816 1.400 . S
C2817 C2818 1.398 . S
C2818 H2806 0.950 . S
C2818 C2817 1.398 . S
C2818 C2819 1.391 . S
C2819 H2807 0.950 . S
C2819 C2815 1.393 . S
C2819 C2818 1.391 . S
H2820 C2828 0.950 . S
H2821 C2833 0.950 . S
H2822 C2830 0.950 . S
H2823 C2832 0.950 . S
H2824 C2834 0.950 . S
H2825 C2836 0.950 . S
H2826 C2838 0.950 . S
H2827 C2839 0.950 . S
C2828 H2820 0.950 . S
C2828 C2829 1.386 . S
C2828 C2830 1.391 . S
C2829 C2828 1.386 . S
C2829 C2833 1.393 . S
C2830 H2822 0.950 . S
C2830 C2828 1.391 . S
C2830 C2831 1.400 . S
C2831 C2830 1.400 . S
C2831 C2832 1.398 . S
C2831 C2837 1.491 . S
C2832 H2823 0.950 . S
C2832 C2831 1.398 . S
C2832 C2833 1.391 . S
C2833 H2821 0.950 . S
C2833 C2829 1.393 . S
C2833 C2832 1.391 . S
C2834 H2824 0.950 . S
C2834 C2835 1.386 . S
C2834 C2836 1.391 . S
C2835 C2834 1.386 . S
C2835 C2839 1.393 . S
C2836 H2825 0.950 . S
C2836 C2834 1.391 . S
C2836 C2837 1.400 . S
C2837 C2831 1.491 . S
C2837 C2836 1.400 . S
C2837 C2838 1.398 . S
C2838 H2826 0.950 . S
C2838 C2837 1.398 . S
C2838 C2839 1.391 . S
C2839 H2827 0.950 . S
C2839 C2835 1.393 . S
C2839 C2838 1.391 . S
H2840 C2848 0.950 . S
H2841 C2853 0.950 . S
H2842 C2850 0.950 . S
H2843 C2852 0.950 . S
H2844 C2854 0.950 . S
H2845 C2856 0.950 . S
H2846 C2858 0.950 . S
H2847 C2859 0.950 . S
C2848 H2840 0.950 . S
C2848 C2849 1.386 . S
C2848 C2850 1.391 . S
C2849 C2848 1.386 . S
C2849 C2853 1.393 . S
C2850 H2842 0.950 . S
C2850 C2848 1.391 . S
C2850 C2851 1.400 . S
C2851 C2850 1.400 . S
C2851 C2852 1.398 . S
C2851 C2857 1.491 . S
C2852 H2843 0.950 . S
C2852 C2851 1.398 . S
C2852 C2853 1.391 . S
C2853 H2841 0.950 . S
C2853 C2849 1.393 . S
C2853 C2852 1.391 . S
C2854 H2844 0.950 . S
C2854 C2855 1.386 . S
C2854 C2856 1.391 . S
C2855 C2854 1.386 . S
C2855 C2859 1.393 . S
C2856 H2845 0.950 . S
C2856 C2854 1.391 . S
C2856 C2857 1.400 . S
C2857 C2851 1.491 . S
C2857 C2856 1.400 . S
C2857 C2858 1.398 . S
C2858 H2846 0.950 . S
C2858 C2857 1.398 . S
C2858 C2859 1.391 . S
C2859 H2847 0.950 . S
C2859 C2855 1.393 . S
C2859 C2858 1.391 . S
H2860 C2868 0.950 . S
H2861 C2873 0.950 . S
H2862 C2870 0.950 . S
H2863 C2872 0.950 . S
H2864 C2874 0.950 . S
H2865 C2876 0.950 . S
H2866 C2878 0.950 . S
H2867 C2879 0.950 . S
C2868 H2860 0.950 . S
C2868 C2869 1.386 . S
C2868 C2870 1.391 . S
C2869 C2868 1.386 . S
C2869 C2873 1.393 . S
C2870 H2862 0.950 . S
C2870 C2868 1.391 . S
C2870 C2871 1.400 . S
C2871 C2870 1.400 . S
C2871 C2872 1.398 . S
C2871 C2877 1.491 . S
C2872 H2863 0.950 . S
C2872 C2871 1.398 . S
C2872 C2873 1.391 . S
C2873 H2861 0.950 . S
C2873 C2869 1.393 . S
C2873 C2872 1.391 . S
C2874 H2864 0.950 . S
C2874 C2875 1.386 . S
C2874 C2876 1.391 . S
C2875 C2874 1.386 . S
C2875 C2879 1.393 . S
C2876 H2865 0.950 . S
C2876 C2874 1.391 . S
C2876 C2877 1.400 . S
C2877 C2871 1.491 . S
C2877 C2876 1.400 . S
C2877 C2878 1.398 . S
C2878 H2866 0.950 . S
C2878 C2877 1.398 . S
C2878 C2879 1.391 . S
C2879 H2867 0.950 . S
C2879 C2875 1.393 . S
C2879 C2878 1.391 . S
H2880 C2888 0.950 . S
H2881 C2893 0.950 . S
H2882 C2890 0.950 . S
H2883 C2892 0.950 . S
H2884 C2894 0.950 . S
H2885 C2896 0.950 . S
H2886 C2898 0.950 . S
H2887 C2899 0.950 . S
C2888 H2880 0.950 . S
C2888 C2889 1.386 . S
C2888 C2890 1.391 . S
C2889 C2888 1.386 . S
C2889 C2893 1.393 . S
C2890 H2882 0.950 . S
C2890 C2888 1.391 . S
C2890 C2891 1.400 . S
C2891 C2890 1.400 . S
C2891 C2892 1.398 . S
C2891 C2897 1.491 . S
C2892 H2883 0.950 . S
C2892 C2891 1.398 . S
C2892 C2893 1.391 . S
C2893 H2881 0.950 . S
C2893 C2889 1.393 . S
C2893 C2892 1.391 . S
C2894 H2884 0.950 . S
C2894 C2895 1.386 . S
C2894 C2896 1.391 . S
C2895 C2894 1.386 . S
C2895 C2899 1.393 . S
C2896 H2885 0.950 . S
C2896 C2894 1.391 . S
C2896 C2897 1.400 . S
C2897 C2891 1.491 . S
C2897 C2896 1.400 . S
C2897 C2898 1.398 . S
C2898 H2886 0.950 . S
C2898 C2897 1.398 . S
C2898 C2899 1.391 . S
C2899 H2887 0.950 . S
C2899 C2895 1.393 . S
C2899 C2898 1.391 . S
H2900 C2908 0.950 . S
H2901 C2913 0.950 . S
H2902 C2910 0.950 . S
H2903 C2912 0.950 . S
H2904 C2914 0.950 . S
H2905 C2916 0.950 . S
H2906 C2918 0.950 . S
H2907 C2919 0.950 . S
C2908 H2900 0.950 . S
C2908 C2909 1.386 . S
C2908 C2910 1.391 . S
C2909 C2908 1.386 . S
C2909 C2913 1.393 . S
C2910 H2902 0.950 . S
C2910 C2908 1.391 . S
C2910 C2911 1.400 . S
C2911 C2910 1.400 . S
C2911 C2912 1.398 . S
C2911 C2917 1.491 . S
C2912 H2903 0.950 . S
C2912 C2911 1.398 . S
C2912 C2913 1.391 . S
C2913 H2901 0.950 . S
C2913 C2909 1.393 . S
C2913 C2912 1.391 . S
C2914 H2904 0.950 . S
C2914 C2915 1.386 . S
C2914 C2916 1.391 . S
C2915 C2914 1.386 . S
C2915 C2919 1.393 . S
C2916 H2905 0.950 . S
C2916 C2914 1.391 . S
C2916 C2917 1.400 . S
C2917 C2911 1.491 . S
C2917 C2916 1.400 . S
C2917 C2918 1.398 . S
C2918 H2906 0.950 . S
C2918 C2917 1.398 . S
C2918 C2919 1.391 . S
C2919 H2907 0.950 . S
C2919 C2915 1.393 . S
C2919 C2918 1.391 . S
H2920 C2928 0.950 . S
H2921 C2933 0.950 . S
H2922 C2930 0.950 . S
H2923 C2932 0.950 . S
H2924 C2934 0.950 . S
H2925 C2936 0.950 . S
H2926 C2938 0.950 . S
H2927 C2939 0.950 . S
C2928 H2920 0.950 . S
C2928 C2929 1.386 . S
C2928 C2930 1.391 . S
C2929 C2928 1.386 . S
C2929 C2933 1.393 . S
C2930 H2922 0.950 . S
C2930 C2928 1.391 . S
C2930 C2931 1.400 . S
C2931 C2930 1.400 . S
C2931 C2932 1.398 . S
C2931 C2937 1.491 . S
C2932 H2923 0.950 . S
C2932 C2931 1.398 . S
C2932 C2933 1.391 . S
C2933 H2921 0.950 . S
C2933 C2929 1.393 . S
C2933 C2932 1.391 . S
C2934 H2924 0.950 . S
C2934 C2935 1.386 . S
C2934 C2936 1.391 . S
C2935 C2934 1.386 . S
C2935 C2939 1.393 . S
C2936 H2925 0.950 . S
C2936 C2934 1.391 . S
C2936 C2937 1.400 . S
C2937 C2931 1.491 . S
C2937 C2936 1.400 . S
C2937 C2938 1.398 . S
C2938 H2926 0.950 . S
C2938 C2937 1.398 . S
C2938 C2939 1.391 . S
C2939 H2927 0.950 . S
C2939 C2935 1.393 . S
C2939 C2938 1.391 . S
H2940 C2948 0.950 . S
H2941 C2953 0.950 . S
H2942 C2950 0.950 . S
H2943 C2952 0.950 . S
H2944 C2954 0.950 . S
H2945 C2956 0.950 . S
H2946 C2958 0.950 . S
H2947 C2959 0.950 . S
C2948 H2940 0.950 . S
C2948 C2949 1.386 . S
C2948 C2950 1.391 . S
C2949 C2948 1.386 . S
C2949 C2953 1.393 . S
C2950 H2942 0.950 . S
C2950 C2948 1.391 . S
C2950 C2951 1.400 . S
C2951 C2950 1.400 . S
C2951 C2952 1.398 . S
C2951 C2957 1.491 . S
C2952 H2943 0.950 . S
C2952 C2951 1.398 . S
C2952 C2953 1.391 . S
C2953 H2941 0.950 . S
C2953 C2949 1.393 . S
C2953 C2952 1.391 . S
C2954 H2944 0.950 . S
C2954 C2955 1.386 . S
C2954 C2956 1.391 . S
C2955 C2954 1.386 . S
C2955 C2959 1.393 . S
C2956 H2945 0.950 . S
C2956 C2954 1.391 . S
C2956 C2957 1.400 . S
C2957 C2951 1.491 . S
C2957 C2956 1.400 . S
C2957 C2958 1.398 . S
C2958 H2946 0.950 . S
C2958 C2957 1.398 . S
C2958 C2959 1.391 . S
C2959 H2947 0.950 . S
C2959 C2955 1.393 . S
C2959 C2958 1.391 . S
H2960 C2968 0.950 . S
H2961 C2973 0.950 . S
H2962 C2970 0.950 . S
H2963 C2972 0.950 . S
H2964 C2974 0.950 . S
H2965 C2976 0.950 . S
H2966 C2978 0.950 . S
H2967 C2979 0.950 . S
C2968 H2960 0.950 . S
C2968 C2969 1.386 . S
C2968 C2970 1.391 . S
C2969 C2968 1.386 . S
C2969 C2973 1.393 . S
C2970 H2962 0.950 . S
C2970 C2968 1.391 . S
C2970 C2971 1.400 . S
C2971 C2970 1.400 . S
C2971 C2972 1.398 . S
C2971 C2977 1.491 . S
C2972 H2963 0.950 . S
C2972 C2971 1.398 . S
C2972 C2973 1.391 . S
C2973 H2961 0.950 . S
C2973 C2969 1.393 . S
C2973 C2972 1.391 . S
C2974 H2964 0.950 . S
C2974 C2975 1.386 . S
C2974 C2976 1.391 . S
C2975 C2974 1.386 . S
C2975 C2979 1.393 . S
C2976 H2965 0.950 . S
C2976 C2974 1.391 . S
C2976 C2977 1.400 . S
C2977 C2971 1.491 . S
C2977 C2976 1.400 . S
C2977 C2978 1.398 . S
C2978 H2966 0.950 . S
C2978 C2977 1.398 . S
C2978 C2979 1.391 . S
C2979 H2967 0.950 . S
C2979 C2975 1.393 . S
C2979 C2978 1.391 . S
H2980 C2988 0.950 . S
H2981 C2993 0.950 . S
H2982 C2990 0.950 . S
H2983 C2992 0.950 . S
H2984 C2994 0.950 . S
H2985 C2996 0.950 . S
H2986 C2998 0.950 . S
H2987 C2999 0.950 . S
C2988 H2980 0.950 . S
C2988 C2989 1.386 . S
C2988 C2990 1.391 . S
C2989 C2988 1.386 . S
C2989 C2993 1.393 . S
C2990 H2982 0.950 . S
C2990 C2988 1.391 . S
C2990 C2991 1.400 . S
C2991 C2990 1.400 . S
C2991 C2992 1.398 . S
C2991 C2997 1.491 . S
C2992 H2983 0.950 . S
C2992 C2991 1.398 . S
C2992 C2993 1.391 . S
C2993 H2981 0.950 . S
C2993 C2989 1.393 . S
C2993 C2992 1.391 . S
C2994 H2984 0.950 . S
C2994 C2995 1.386 . S
C2994 C2996 1.391 . S
C2995 C2994 1.386 . S
C2995 C2999 1.393 . S
C2996 H2985 0.950 . S
C2996 C2994 1.391 . S
C2996 C2997 1.400 . S
C2997 C2991 1.491 . S
C2997 C2996 1.400 . S
C2997 C2998 1.398 . S
C2998 H2986 0.950 . S
C2998 C2997 1.398 . S
C2998 C2999 1.391 . S
C2999 H2987 0.950 . S
C2999 C2995 1.393 . S
C2999 C2998 1.391 . S
H3000 C3008 0.950 . S
H3001 C3013 0.950 . S
H3002 C3010 0.950 . S
H3003 C3012 0.950 . S
H3004 C3014 0.950 . S
H3005 C3016 0.950 . S
H3006 C3018 0.950 . S
H3007 C3019 0.950 . S
C3008 H3000 0.950 . S
C3008 C3009 1.386 . S
C3008 C3010 1.391 . S
C3009 C3008 1.386 . S
C3009 C3013 1.393 . S
C3010 H3002 0.950 . S
C3010 C3008 1.391 . S
C3010 C3011 1.400 . S
C3011 C3010 1.400 . S
C3011 C3012 1.398 . S
C3011 C3017 1.491 . S
C3012 H3003 0.950 . S
C3012 C3011 1.398 . S
C3012 C3013 1.391 . S
C3013 H3001 0.950 . S
C3013 C3009 1.393 . S
C3013 C3012 1.391 . S
C3014 H3004 0.950 . S
C3014 C3015 1.386 . S
C3014 C3016 1.391 . S
C3015 C3014 1.386 . S
C3015 C3019 1.393 . S
C3016 H3005 0.950 . S
C3016 C3014 1.391 . S
C3016 C3017 1.400 . S
C3017 C3011 1.491 . S
C3017 C3016 1.400 . S
C3017 C3018 1.398 . S
C3018 H3006 0.950 . S
C3018 C3017 1.398 . S
C3018 C3019 1.391 . S
C3019 H3007 0.950 . S
C3019 C3015 1.393 . S
C3019 C3018 1.391 . S
H3020 C3028 0.950 . S
H3021 C3033 0.950 . S
H3022 C3030 0.950 . S
H3023 C3032 0.950 . S
H3024 C3034 0.950 . S
H3025 C3036 0.950 . S
H3026 C3038 0.950 . S
H3027 C3039 0.950 . S
C3028 H3020 0.950 . S
C3028 C3029 1.386 . S
C3028 C3030 1.391 . S
C3029 C3028 1.386 . S
C3029 C3033 1.393 . S
C3030 H3022 0.950 . S
C3030 C3028 1.391 . S
C3030 C3031 1.400 . S
C3031 C3030 1.400 . S
C3031 C3032 1.398 . S
C3031 C3037 1.491 . S
C3032 H3023 0.950 . S
C3032 C3031 1.398 . S
C3032 C3033 1.391 . S
C3033 H3021 0.950 . S
C3033 C3029 1.393 . S
C3033 C3032 1.391 . S
C3034 H3024 0.950 . S
C3034 C3035 1.386 . S
C3034 C3036 1.391 . S
C3035 C3034 1.386 . S
C3035 C3039 1.393 . S
C3036 H3025 0.950 . S
C3036 C3034 1.391 . S
C3036 C3037 1.400 . S
C3037 C3031 1.491 . S
C3037 C3036 1.400 . S
C3037 C3038 1.398 . S
C3038 H3026 0.950 . S
C3038 C3037 1.398 . S
C3038 C3039 1.391 . S
C3039 H3027 0.950 . S
C3039 C3035 1.393 . S
C3039 C3038 1.391 . S
H3040 C3048 0.950 . S
H3041 C3053 0.950 . S
H3042 C3050 0.950 . S
H3043 C3052 0.950 . S
H3044 C3054 0.950 . S
H3045 C3056 0.950 . S
H3046 C3058 0.950 . S
H3047 C3059 0.950 . S
C3048 H3040 0.950 . S
C3048 C3049 1.386 . S
C3048 C3050 1.391 . S
C3049 C3048 1.386 . S
C3049 C3053 1.393 . S
C3050 H3042 0.950 . S
C3050 C3048 1.391 . S
C3050 C3051 1.400 . S
C3051 C3050 1.400 . S
C3051 C3052 1.398 . S
C3051 C3057 1.491 . S
C3052 H3043 0.950 . S
C3052 C3051 1.398 . S
C3052 C3053 1.391 . S
C3053 H3041 0.950 . S
C3053 C3049 1.393 . S
C3053 C3052 1.391 . S
C3054 H3044 0.950 . S
C3054 C3055 1.386 . S
C3054 C3056 1.391 . S
C3055 C3054 1.386 . S
C3055 C3059 1.393 . S
C3056 H3045 0.950 . S
C3056 C3054 1.391 . S
C3056 C3057 1.400 . S
C3057 C3051 1.491 . S
C3057 C3056 1.400 . S
C3057 C3058 1.398 . S
C3058 H3046 0.950 . S
C3058 C3057 1.398 . S
C3058 C3059 1.391 . S
C3059 H3047 0.950 . S
C3059 C3055 1.393 . S
C3059 C3058 1.391 . S
H3060 C3068 0.950 . S
H3061 C3073 0.950 . S
H3062 C3070 0.950 . S
H3063 C3072 0.950 . S
H3064 C3074 0.950 . S
H3065 C3076 0.950 . S
H3066 C3078 0.950 . S
H3067 C3079 0.950 . S
C3068 H3060 0.950 . S
C3068 C3069 1.386 . S
C3068 C3070 1.391 . S
C3069 C3068 1.386 . S
C3069 C3073 1.393 . S
C3070 H3062 0.950 . S
C3070 C3068 1.391 . S
C3070 C3071 1.400 . S
C3071 C3070 1.400 . S
C3071 C3072 1.398 . S
C3071 C3077 1.491 . S
C3072 H3063 0.950 . S
C3072 C3071 1.398 . S
C3072 C3073 1.391 . S
C3073 H3061 0.950 . S
C3073 C3069 1.393 . S
C3073 C3072 1.391 . S
C3074 H3064 0.950 . S
C3074 C3075 1.386 . S
C3074 C3076 1.391 . S
C3075 C3074 1.386 . S
C3075 C3079 1.393 . S
C3076 H3065 0.950 . S
C3076 C3074 1.391 . S
C3076 C3077 1.400 . S
C3077 C3071 1.491 . S
C3077 C3076 1.400 . S
C3077 C3078 1.398 . S
C3078 H3066 0.950 . S
C3078 C3077 1.398 . S
C3078 C3079 1.391 . S
C3079 H3067 0.950 . S
C3079 C3075 1.393 . S
C3079 C3078 1.391 . S
H3080 C3088 0.950 . S
H3081 C3093 0.950 . S
H3082 C3090 0.950 . S
H3083 C3092 0.950 . S
H3084 C3094 0.950 . S
H3085 C3096 0.950 . S
H3086 C3098 0.950 . S
H3087 C3099 0.950 . S
C3088 H3080 0.950 . S
C3088 C3089 1.386 . S
C3088 C3090 1.391 . S
C3089 C3088 1.386 . S
C3089 C3093 1.393 . S
C3090 H3082 0.950 . S
C3090 C3088 1.391 . S
C3090 C3091 1.400 . S
C3091 C3090 1.400 . S
C3091 C3092 1.398 . S
C3091 C3097 1.491 . S
C3092 H3083 0.950 . S
C3092 C3091 1.398 . S
C3092 C3093 1.391 . S
C3093 H3081 0.950 . S
C3093 C3089 1.393 . S
C3093 C3092 1.391 . S
C3094 H3084 0.950 . S
C3094 C3095 1.386 . S
C3094 C3096 1.391 . S
C3095 C3094 1.386 . S
C3095 C3099 1.393 . S
C3096 H3085 0.950 . S
C3096 C3094 1.391 . S
C3096 C3097 1.400 . S
C3097 C3091 1.491 . S
C3097 C3096 1.400 . S
C3097 C3098 1.398 . S
C3098 H3086 0.950 . S
C3098 C3097 1.398 . S
C3098 C3099 1.391 . S
C3099 H3087 0.950 . S
C3099 C3095 1.393 . S
C3099 C3098 1.391 . S
H3100 C3108 0.950 . S
H3101 C3113 0.950 . S
H3102 C3110 0.950 . S
H3103 C3112 0.950 . S
H3104 C3114 0.950 . S
H3105 C3116 0.950 . S
H3106 C3118 0.950 . S
H3107 C3119 0.950 . S
C3108 H3100 0.950 . S
C3108 C3109 1.386 . S
C3108 C3110 1.391 . S
C3109 C3108 1.386 . S
C3109 C3113 1.393 . S
C3110 H3102 0.950 . S
C3110 C3108 1.391 . S
C3110 C3111 1.400 . S
C3111 C3110 1.400 . S
C3111 C3112 1.398 . S
C3111 C3117 1.491 . S
C3112 H3103 0.950 . S
C3112 C3111 1.398 . S
C3112 C3113 1.391 . S
C3113 H3101 0.950 . S
C3113 C3109 1.393 . S
C3113 C3112 1.391 . S
C3114 H3104 0.950 . S
C3114 C3115 1.386 . S
C3114 C3116 1.391 . S
C3115 C3114 1.386 . S
C3115 C3119 1.393 . S
C3116 H3105 0.950 . S
C3116 C3114 1.391 . S
C3116 C3117 1.400 . S
C3117 C3111 1.491 . S
C3117 C3116 1.400 . S
C3117 C3118 1.398 . S
C3118 H3106 0.950 . S
C3118 C3117 1.398 . S
C3118 C3119 1.391 . S
C3119 H3107 0.950 . S
C3119 C3115 1.393 . S
C3119 C3118 1.391 . S
H3120 C3128 0.950 . S
H3121 C3133 0.950 . S
H3122 C3130 0.950 . S
H3123 C3132 0.950 . S
H3124 C3134 0.950 . S
H3125 C3136 0.950 . S
H3126 C3138 0.950 . S
H3127 C3139 0.950 . S
C3128 H3120 0.950 . S
C3128 C3129 1.386 . S
C3128 C3130 1.391 . S
C3129 C3128 1.386 . S
C3129 C3133 1.393 . S
C3130 H3122 0.950 . S
C3130 C3128 1.391 . S
C3130 C3131 1.400 . S
C3131 C3130 1.400 . S
C3131 C3132 1.398 . S
C3131 C3137 1.491 . S
C3132 H3123 0.950 . S
C3132 C3131 1.398 . S
C3132 C3133 1.391 . S
C3133 H3121 0.950 . S
C3133 C3129 1.393 . S
C3133 C3132 1.391 . S
C3134 H3124 0.950 . S
C3134 C3135 1.386 . S
C3134 C3136 1.391 . S
C3135 C3134 1.386 . S
C3135 C3139 1.393 . S
C3136 H3125 0.950 . S
C3136 C3134 1.391 . S
C3136 C3137 1.400 . S
C3137 C3131 1.491 . S
C3137 C3136 1.400 . S
C3137 C3138 1.398 . S
C3138 H3126 0.950 . S
C3138 C3137 1.398 . S
C3138 C3139 1.391 . S
C3139 H3127 0.950 . S
C3139 C3135 1.393 . S
C3139 C3138 1.391 . S
H3140 C3148 0.950 . S
H3141 C3153 0.950 . S
H3142 C3150 0.950 . S
H3143 C3152 0.950 . S
H3144 C3154 0.950 . S
H3145 C3156 0.948 1_554 S
H3146 C3158 0.950 . S
H3147 C3159 0.950 . S
C3148 H3140 0.950 . S
C3148 C3149 1.386 . S
C3148 C3150 1.391 . S
C3149 C3148 1.386 . S
C3149 C3153 1.393 . S
C3150 H3142 0.950 . S
C3150 C3148 1.391 . S
C3150 C3151 1.400 . S
C3151 C3150 1.400 . S
C3151 C3152 1.398 . S
C3151 C3157 1.491 . S
C3152 H3143 0.950 . S
C3152 C3151 1.398 . S
C3152 C3153 1.391 . S
C3153 H3141 0.950 . S
C3153 C3149 1.393 . S
C3153 C3152 1.391 . S
C3154 H3144 0.950 . S
C3154 C3155 1.386 . S
C3154 C3156 1.386 1_554 S
C3155 C3154 1.386 . S
C3155 C3159 1.393 1_554 S
C3156 H3145 0.948 1_556 S
C3156 C3154 1.386 1_556 S
C3156 C3157 1.407 . S
C3157 C3151 1.491 . S
C3157 C3156 1.407 . S
C3157 C3158 1.398 . S
C3158 H3146 0.950 . S
C3158 C3157 1.398 . S
C3158 C3159 1.391 . S
C3159 H3147 0.950 . S
C3159 C3155 1.393 1_556 S
C3159 C3158 1.391 . S
H3160 C3168 0.950 . S
H3161 C3173 0.950 . S
H3162 C3170 0.950 . S
H3163 C3172 0.950 . S
H3164 C3174 0.950 . S
H3165 C3176 0.950 . S
H3166 C3178 0.950 . S
H3167 C3179 0.950 . S
C3168 H3160 0.950 . S
C3168 C3169 1.386 . S
C3168 C3170 1.391 . S
C3169 C3168 1.386 . S
C3169 C3173 1.393 . S
C3170 H3162 0.950 . S
C3170 C3168 1.391 . S
C3170 C3171 1.400 . S
C3171 C3170 1.400 . S
C3171 C3172 1.398 . S
C3171 C3177 1.491 . S
C3172 H3163 0.950 . S
C3172 C3171 1.398 . S
C3172 C3173 1.391 . S
C3173 H3161 0.950 . S
C3173 C3169 1.393 . S
C3173 C3172 1.391 . S
C3174 H3164 0.950 . S
C3174 C3175 1.386 . S
C3174 C3176 1.391 . S
C3175 C3174 1.386 . S
C3175 C3179 1.393 . S
C3176 H3165 0.950 . S
C3176 C3174 1.391 . S
C3176 C3177 1.400 . S
C3177 C3171 1.491 . S
C3177 C3176 1.400 . S
C3177 C3178 1.398 . S
C3178 H3166 0.950 . S
C3178 C3177 1.398 . S
C3178 C3179 1.391 . S
C3179 H3167 0.950 . S
C3179 C3175 1.393 . S
C3179 C3178 1.391 . S
H3180 C3188 0.950 . S
H3181 C3193 0.950 . S
H3182 C3190 0.950 . S
H3183 C3192 0.950 . S
H3184 C3194 0.950 . S
H3185 C3196 0.950 . S
H3186 C3198 0.950 . S
H3187 C3199 0.950 . S
C3188 H3180 0.950 . S
C3188 C3189 1.386 . S
C3188 C3190 1.391 . S
C3189 C3188 1.386 . S
C3189 C3193 1.393 . S
C3190 H3182 0.950 . S
C3190 C3188 1.391 . S
C3190 C3191 1.400 . S
C3191 C3190 1.400 . S
C3191 C3192 1.398 . S
C3191 C3197 1.491 . S
C3192 H3183 0.950 . S
C3192 C3191 1.398 . S
C3192 C3193 1.391 . S
C3193 H3181 0.950 . S
C3193 C3189 1.393 . S
C3193 C3192 1.391 . S
C3194 H3184 0.950 . S
C3194 C3195 1.386 . S
C3194 C3196 1.391 . S
C3195 C3194 1.386 . S
C3195 C3199 1.393 . S
C3196 H3185 0.950 . S
C3196 C3194 1.391 . S
C3196 C3197 1.400 . S
C3197 C3191 1.491 . S
C3197 C3196 1.400 . S
C3197 C3198 1.398 . S
C3198 H3186 0.950 . S
C3198 C3197 1.398 . S
C3198 C3199 1.391 . S
C3199 H3187 0.950 . S
C3199 C3195 1.393 . S
C3199 C3198 1.391 . S
H3200 C3208 0.950 . S
H3201 C3213 0.950 . S
H3202 C3210 0.950 . S
H3203 C3212 0.950 . S
H3204 C3214 0.950 . S
H3205 C3216 0.950 . S
H3206 C3218 0.950 . S
H3207 C3219 0.950 . S
C3208 H3200 0.950 . S
C3208 C3209 1.386 . S
C3208 C3210 1.391 . S
C3209 C3208 1.386 . S
C3209 C3213 1.393 . S
C3210 H3202 0.950 . S
C3210 C3208 1.391 . S
C3210 C3211 1.400 . S
C3211 C3210 1.400 . S
C3211 C3212 1.398 . S
C3211 C3217 1.491 . S
C3212 H3203 0.950 . S
C3212 C3211 1.398 . S
C3212 C3213 1.391 . S
C3213 H3201 0.950 . S
C3213 C3209 1.393 . S
C3213 C3212 1.391 . S
C3214 H3204 0.950 . S
C3214 C3215 1.386 . S
C3214 C3216 1.391 . S
C3215 C3214 1.386 . S
C3215 C3219 1.393 . S
C3216 H3205 0.950 . S
C3216 C3214 1.391 . S
C3216 C3217 1.400 . S
C3217 C3211 1.491 . S
C3217 C3216 1.400 . S
C3217 C3218 1.398 . S
C3218 H3206 0.950 . S
C3218 C3217 1.398 . S
C3218 C3219 1.391 . S
C3219 H3207 0.950 . S
C3219 C3215 1.393 . S
C3219 C3218 1.391 . S
H3220 C3228 0.950 . S
H3221 C3233 0.950 . S
H3222 C3230 0.950 . S
H3223 C3232 0.950 . S
H3224 C3234 0.950 . S
H3225 C3236 0.950 . S
H3226 C3238 0.950 . S
H3227 C3239 0.950 . S
C3228 H3220 0.950 . S
C3228 C3229 1.386 . S
C3228 C3230 1.391 . S
C3229 C3228 1.386 . S
C3229 C3233 1.393 . S
C3230 H3222 0.950 . S
C3230 C3228 1.391 . S
C3230 C3231 1.400 . S
C3231 C3230 1.400 . S
C3231 C3232 1.398 . S
C3231 C3237 1.491 . S
C3232 H3223 0.950 . S
C3232 C3231 1.398 . S
C3232 C3233 1.391 . S
C3233 H3221 0.950 . S
C3233 C3229 1.393 . S
C3233 C3232 1.391 . S
C3234 H3224 0.950 . S
C3234 C3235 1.386 . S
C3234 C3236 1.391 . S
C3235 C3234 1.386 . S
C3235 C3239 1.393 . S
C3236 H3225 0.950 . S
C3236 C3234 1.391 . S
C3236 C3237 1.400 . S
C3237 C3231 1.491 . S
C3237 C3236 1.400 . S
C3237 C3238 1.398 . S
C3238 H3226 0.950 . S
C3238 C3237 1.398 . S
C3238 C3239 1.391 . S
C3239 H3227 0.950 . S
C3239 C3235 1.393 . S
C3239 C3238 1.391 . S
H3240 C3248 0.950 . S
H3241 C3253 0.950 . S
H3242 C3250 0.950 . S
H3243 C3252 0.950 . S
H3244 C3254 0.950 . S
H3245 C3256 0.950 . S
H3246 C3258 0.950 . S
H3247 C3259 0.950 . S
C3248 H3240 0.950 . S
C3248 C3249 1.386 . S
C3248 C3250 1.391 . S
C3249 C3248 1.386 . S
C3249 C3253 1.393 . S
C3250 H3242 0.950 . S
C3250 C3248 1.391 . S
C3250 C3251 1.400 . S
C3251 C3250 1.400 . S
C3251 C3252 1.398 . S
C3251 C3257 1.491 . S
C3252 H3243 0.950 . S
C3252 C3251 1.398 . S
C3252 C3253 1.391 . S
C3253 H3241 0.950 . S
C3253 C3249 1.393 . S
C3253 C3252 1.391 . S
C3254 H3244 0.950 . S
C3254 C3255 1.386 . S
C3254 C3256 1.391 . S
C3255 C3254 1.386 . S
C3255 C3259 1.393 . S
C3256 H3245 0.950 . S
C3256 C3254 1.391 . S
C3256 C3257 1.400 . S
C3257 C3251 1.491 . S
C3257 C3256 1.400 . S
C3257 C3258 1.398 . S
C3258 H3246 0.950 . S
C3258 C3257 1.398 . S
C3258 C3259 1.391 . S
C3259 H3247 0.950 . S
C3259 C3255 1.393 . S
C3259 C3258 1.391 . S
H3260 C3268 0.950 . S
H3261 C3273 0.950 . S
H3262 C3270 0.950 . S
H3263 C3272 0.950 . S
H3264 C3274 0.950 . S
H3265 C3276 0.950 . S
H3266 C3278 0.950 . S
H3267 C3279 0.950 . S
C3268 H3260 0.950 . S
C3268 C3269 1.386 . S
C3268 C3270 1.391 . S
C3269 C3268 1.386 . S
C3269 C3273 1.393 . S
C3270 H3262 0.950 . S
C3270 C3268 1.391 . S
C3270 C3271 1.400 . S
C3271 C3270 1.400 . S
C3271 C3272 1.398 . S
C3271 C3277 1.491 . S
C3272 H3263 0.950 . S
C3272 C3271 1.398 . S
C3272 C3273 1.391 . S
C3273 H3261 0.950 . S
C3273 C3269 1.393 . S
C3273 C3272 1.391 . S
C3274 H3264 0.950 . S
C3274 C3275 1.386 . S
C3274 C3276 1.391 . S
C3275 C3274 1.386 . S
C3275 C3279 1.393 . S
C3276 H3265 0.950 . S
C3276 C3274 1.391 . S
C3276 C3277 1.400 . S
C3277 C3271 1.491 . S
C3277 C3276 1.400 . S
C3277 C3278 1.398 . S
C3278 H3266 0.950 . S
C3278 C3277 1.398 . S
C3278 C3279 1.391 . S
C3279 H3267 0.950 . S
C3279 C3275 1.393 . S
C3279 C3278 1.391 . S
H3280 C3288 0.950 . S
H3281 C3293 0.950 . S
H3282 C3290 0.950 . S
H3283 C3292 0.950 . S
H3284 C3294 0.950 . S
H3285 C3296 0.950 . S
H3286 C3298 0.950 . S
H3287 C3299 0.950 . S
C3288 H3280 0.950 . S
C3288 C3289 1.386 . S
C3288 C3290 1.391 . S
C3289 C3288 1.386 . S
C3289 C3293 1.393 . S
C3290 H3282 0.950 . S
C3290 C3288 1.391 . S
C3290 C3291 1.400 . S
C3291 C3290 1.400 . S
C3291 C3292 1.398 . S
C3291 C3297 1.491 . S
C3292 H3283 0.950 . S
C3292 C3291 1.398 . S
C3292 C3293 1.391 . S
C3293 H3281 0.950 . S
C3293 C3289 1.393 . S
C3293 C3292 1.391 . S
C3294 H3284 0.950 . S
C3294 C3295 1.386 . S
C3294 C3296 1.391 . S
C3295 C3294 1.386 . S
C3295 C3299 1.393 . S
C3296 H3285 0.950 . S
C3296 C3294 1.391 . S
C3296 C3297 1.400 . S
C3297 C3291 1.491 . S
C3297 C3296 1.400 . S
C3297 C3298 1.398 . S
C3298 H3286 0.950 . S
C3298 C3297 1.398 . S
C3298 C3299 1.391 . S
C3299 H3287 0.950 . S
C3299 C3295 1.393 . S
C3299 C3298 1.391 . S
H3300 C3308 0.950 . S
H3301 C3313 0.950 . S
H3302 C3310 0.950 . S
H3303 C3312 0.950 . S
H3304 C3314 0.950 . S
H3305 C3316 0.950 . S
H3306 C3318 0.950 . S
H3307 C3319 0.950 . S
C3308 H3300 0.950 . S
C3308 C3309 1.386 . S
C3308 C3310 1.391 . S
C3309 C3308 1.386 . S
C3309 C3313 1.393 . S
C3310 H3302 0.950 . S
C3310 C3308 1.391 . S
C3310 C3311 1.400 . S
C3311 C3310 1.400 . S
C3311 C3312 1.398 . S
C3311 C3317 1.491 . S
C3312 H3303 0.950 . S
C3312 C3311 1.398 . S
C3312 C3313 1.391 . S
C3313 H3301 0.950 . S
C3313 C3309 1.393 . S
C3313 C3312 1.391 . S
C3314 H3304 0.950 . S
C3314 C3315 1.386 . S
C3314 C3316 1.391 . S
C3315 C3314 1.386 . S
C3315 C3319 1.393 . S
C3316 H3305 0.950 . S
C3316 C3314 1.391 . S
C3316 C3317 1.400 . S
C3317 C3311 1.491 . S
C3317 C3316 1.400 . S
C3317 C3318 1.398 . S
C3318 H3306 0.950 . S
C3318 C3317 1.398 . S
C3318 C3319 1.391 . S
C3319 H3307 0.950 . S
C3319 C3315 1.393 . S
C3319 C3318 1.391 . S
H3320 C3328 0.950 . S
H3321 C3333 0.950 . S
H3322 C3330 0.950 . S
H3323 C3332 0.950 . S
H3324 C3334 0.950 . S
H3325 C3336 0.950 . S
H3326 C3338 0.950 . S
H3327 C3339 0.950 . S
C3328 H3320 0.950 . S
C3328 C3329 1.386 . S
C3328 C3330 1.391 . S
C3329 C3328 1.386 . S
C3329 C3333 1.393 . S
C3330 H3322 0.950 . S
C3330 C3328 1.391 . S
C3330 C3331 1.400 . S
C3331 C3330 1.400 . S
C3331 C3332 1.398 . S
C3331 C3337 1.491 . S
C3332 H3323 0.950 . S
C3332 C3331 1.398 . S
C3332 C3333 1.391 . S
C3333 H3321 0.950 . S
C3333 C3329 1.393 . S
C3333 C3332 1.391 . S
C3334 H3324 0.950 . S
C3334 C3335 1.386 . S
C3334 C3336 1.391 . S
C3335 C3334 1.386 . S
C3335 C3339 1.393 . S
C3336 H3325 0.950 . S
C3336 C3334 1.391 . S
C3336 C3337 1.400 . S
C3337 C3331 1.491 . S
C3337 C3336 1.400 . S
C3337 C3338 1.398 . S
C3338 H3326 0.950 . S
C3338 C3337 1.398 . S
C3338 C3339 1.391 . S
C3339 H3327 0.950 . S
C3339 C3335 1.393 . S
C3339 C3338 1.391 . S
H3340 C3348 0.950 . S
H3341 C3353 0.950 . S
H3342 C3350 0.950 . S
H3343 C3352 0.950 . S
H3344 C3354 0.950 . S
H3345 C3356 0.950 . S
H3346 C3358 0.950 . S
H3347 C3359 0.950 . S
C3348 H3340 0.950 . S
C3348 C3349 1.386 . S
C3348 C3350 1.391 . S
C3349 C3348 1.386 . S
C3349 C3353 1.393 . S
C3350 H3342 0.950 . S
C3350 C3348 1.391 . S
C3350 C3351 1.400 . S
C3351 C3350 1.400 . S
C3351 C3352 1.398 . S
C3351 C3357 1.491 . S
C3352 H3343 0.950 . S
C3352 C3351 1.398 . S
C3352 C3353 1.391 . S
C3353 H3341 0.950 . S
C3353 C3349 1.393 . S
C3353 C3352 1.391 . S
C3354 H3344 0.950 . S
C3354 C3355 1.386 . S
C3354 C3356 1.391 . S
C3355 C3354 1.386 . S
C3355 C3359 1.393 . S
C3356 H3345 0.950 . S
C3356 C3354 1.391 . S
C3356 C3357 1.400 . S
C3357 C3351 1.491 . S
C3357 C3356 1.400 . S
C3357 C3358 1.398 . S
C3358 H3346 0.950 . S
C3358 C3357 1.398 . S
C3358 C3359 1.391 . S
C3359 H3347 0.950 . S
C3359 C3355 1.393 . S
C3359 C3358 1.391 . S
H3360 C3368 0.950 . S
H3361 C3373 0.950 . S
H3362 C3370 0.950 . S
H3363 C3372 0.950 . S
H3364 C3374 0.950 . S
H3365 C3376 0.950 . S
H3366 C3378 0.950 . S
H3367 C3379 0.950 . S
C3368 H3360 0.950 . S
C3368 C3369 1.386 . S
C3368 C3370 1.391 . S
C3369 C3368 1.386 . S
C3369 C3373 1.393 . S
C3370 H3362 0.950 . S
C3370 C3368 1.391 . S
C3370 C3371 1.400 . S
C3371 C3370 1.400 . S
C3371 C3372 1.398 . S
C3371 C3377 1.491 . S
C3372 H3363 0.950 . S
C3372 C3371 1.398 . S
C3372 C3373 1.391 . S
C3373 H3361 0.950 . S
C3373 C3369 1.393 . S
C3373 C3372 1.391 . S
C3374 H3364 0.950 . S
C3374 C3375 1.386 . S
C3374 C3376 1.391 . S
C3375 C3374 1.386 . S
C3375 C3379 1.393 . S
C3376 H3365 0.950 . S
C3376 C3374 1.391 . S
C3376 C3377 1.400 . S
C3377 C3371 1.491 . S
C3377 C3376 1.400 . S
C3377 C3378 1.398 . S
C3378 H3366 0.950 . S
C3378 C3377 1.398 . S
C3378 C3379 1.391 . S
C3379 H3367 0.950 . S
C3379 C3375 1.393 . S
C3379 C3378 1.391 . S
H3380 C3388 0.950 . S
H3381 C3393 0.950 . S
H3382 C3390 0.950 . S
H3383 C3392 0.950 . S
H3384 C3394 0.950 . S
H3385 C3396 0.950 . S
H3386 C3398 0.950 . S
H3387 C3399 0.950 . S
C3388 H3380 0.950 . S
C3388 C3389 1.386 . S
C3388 C3390 1.391 . S
C3389 C3388 1.386 . S
C3389 C3393 1.393 . S
C3390 H3382 0.950 . S
C3390 C3388 1.391 . S
C3390 C3391 1.400 . S
C3391 C3390 1.400 . S
C3391 C3392 1.398 . S
C3391 C3397 1.491 . S
C3392 H3383 0.950 . S
C3392 C3391 1.398 . S
C3392 C3393 1.391 . S
C3393 H3381 0.950 . S
C3393 C3389 1.393 . S
C3393 C3392 1.391 . S
C3394 H3384 0.950 . S
C3394 C3395 1.386 . S
C3394 C3396 1.391 . S
C3395 C3394 1.386 . S
C3395 C3399 1.393 . S
C3396 H3385 0.950 . S
C3396 C3394 1.391 . S
C3396 C3397 1.400 . S
C3397 C3391 1.491 . S
C3397 C3396 1.400 . S
C3397 C3398 1.398 . S
C3398 H3386 0.950 . S
C3398 C3397 1.398 . S
C3398 C3399 1.391 . S
C3399 H3387 0.950 . S
C3399 C3395 1.393 . S
C3399 C3398 1.391 . S
H3400 C3408 0.950 . S
H3401 C3413 0.950 . S
H3402 C3410 0.950 . S
H3403 C3412 0.950 . S
H3404 C3414 0.950 . S
H3405 C3416 0.950 . S
H3406 C3418 0.950 . S
H3407 C3419 0.950 . S
C3408 H3400 0.950 . S
C3408 C3409 1.386 . S
C3408 C3410 1.391 . S
C3409 C3408 1.386 . S
C3409 C3413 1.393 . S
C3410 H3402 0.950 . S
C3410 C3408 1.391 . S
C3410 C3411 1.400 . S
C3411 C3410 1.400 . S
C3411 C3412 1.398 . S
C3411 C3417 1.491 . S
C3412 H3403 0.950 . S
C3412 C3411 1.398 . S
C3412 C3413 1.391 . S
C3413 H3401 0.950 . S
C3413 C3409 1.393 . S
C3413 C3412 1.391 . S
C3414 H3404 0.950 . S
C3414 C3415 1.386 . S
C3414 C3416 1.391 . S
C3415 C3414 1.386 . S
C3415 C3419 1.393 . S
C3416 H3405 0.950 . S
C3416 C3414 1.391 . S
C3416 C3417 1.400 . S
C3417 C3411 1.491 . S
C3417 C3416 1.400 . S
C3417 C3418 1.398 . S
C3418 H3406 0.950 . S
C3418 C3417 1.398 . S
C3418 C3419 1.391 . S
C3419 H3407 0.950 . S
C3419 C3415 1.393 . S
C3419 C3418 1.391 . S
H3420 C3428 0.950 . S
H3421 C3433 0.950 . S
H3422 C3430 0.950 . S
H3423 C3432 0.950 . S
H3424 C3434 0.950 1_455 S
H3425 C3436 0.950 . S
H3426 C3438 0.950 . S
H3427 C3439 0.950 . S
C3428 H3420 0.950 . S
C3428 C3429 1.386 . S
C3428 C3430 1.391 . S
C3429 C3428 1.386 . S
C3429 C3433 1.393 . S
C3430 H3422 0.950 . S
C3430 C3428 1.391 . S
C3430 C3431 1.400 . S
C3431 C3430 1.400 . S
C3431 C3432 1.398 . S
C3431 C3437 1.491 . S
C3432 H3423 0.950 . S
C3432 C3431 1.398 . S
C3432 C3433 1.391 . S
C3433 H3421 0.950 . S
C3433 C3429 1.393 . S
C3433 C3432 1.391 . S
C3434 H3424 0.950 1_655 S
C3434 C3435 1.386 . S
C3434 C3436 1.391 . S
C3435 C3434 1.386 . S
C3435 C3439 1.393 . S
C3436 H3425 0.950 . S
C3436 C3434 1.391 . S
C3436 C3437 1.400 . S
C3437 C3431 1.491 . S
C3437 C3436 1.400 . S
C3437 C3438 1.398 . S
C3438 H3426 0.950 . S
C3438 C3437 1.398 . S
C3438 C3439 1.391 . S
C3439 H3427 0.950 . S
C3439 C3435 1.393 . S
C3439 C3438 1.391 . S
H3440 C3448 0.950 . S
H3441 C3453 0.950 . S
H3442 C3450 0.950 . S
H3443 C3452 0.950 . S
H3444 C3454 0.950 . S
H3445 C3456 0.950 . S
H3446 C3458 0.950 . S
H3447 C3459 0.950 . S
C3448 H3440 0.950 . S
C3448 C3449 1.386 . S
C3448 C3450 1.391 . S
C3449 C3448 1.386 . S
C3449 C3453 1.393 . S
C3450 H3442 0.950 . S
C3450 C3448 1.391 . S
C3450 C3451 1.400 . S
C3451 C3450 1.400 . S
C3451 C3452 1.398 . S
C3451 C3457 1.491 . S
C3452 H3443 0.950 . S
C3452 C3451 1.398 . S
C3452 C3453 1.391 . S
C3453 H3441 0.950 . S
C3453 C3449 1.393 . S
C3453 C3452 1.391 . S
C3454 H3444 0.950 . S
C3454 C3455 1.386 . S
C3454 C3456 1.391 . S
C3455 C3454 1.386 . S
C3455 C3459 1.393 . S
C3456 H3445 0.950 . S
C3456 C3454 1.391 . S
C3456 C3457 1.400 . S
C3457 C3451 1.491 . S
C3457 C3456 1.400 . S
C3457 C3458 1.398 . S
C3458 H3446 0.950 . S
C3458 C3457 1.398 . S
C3458 C3459 1.391 . S
C3459 H3447 0.950 . S
C3459 C3455 1.393 . S
C3459 C3458 1.391 . S
H3460 C3468 0.950 . S
H3461 C3473 0.950 . S
H3462 C3470 0.950 . S
H3463 C3472 0.950 . S
H3464 C3474 0.950 . S
H3465 C3476 0.950 . S
H3466 C3478 0.950 . S
H3467 C3479 0.950 . S
C3468 H3460 0.950 . S
C3468 C3469 1.386 . S
C3468 C3470 1.391 . S
C3469 C3468 1.386 . S
C3469 C3473 1.393 . S
C3470 H3462 0.950 . S
C3470 C3468 1.391 . S
C3470 C3471 1.400 . S
C3471 C3470 1.400 . S
C3471 C3472 1.398 . S
C3471 C3477 1.491 . S
C3472 H3463 0.950 . S
C3472 C3471 1.398 . S
C3472 C3473 1.391 . S
C3473 H3461 0.950 . S
C3473 C3469 1.393 . S
C3473 C3472 1.391 . S
C3474 H3464 0.950 . S
C3474 C3475 1.386 . S
C3474 C3476 1.391 . S
C3475 C3474 1.386 . S
C3475 C3479 1.393 . S
C3476 H3465 0.950 . S
C3476 C3474 1.391 . S
C3476 C3477 1.400 . S
C3477 C3471 1.491 . S
C3477 C3476 1.400 . S
C3477 C3478 1.398 . S
C3478 H3466 0.950 . S
C3478 C3477 1.398 . S
C3478 C3479 1.391 . S
C3479 H3467 0.950 . S
C3479 C3475 1.393 . S
C3479 C3478 1.391 . S
H3480 C3488 0.950 . S
H3481 C3493 0.950 . S
H3482 C3490 0.950 . S
H3483 C3492 0.950 . S
H3484 C3494 0.950 . S
H3485 C3496 0.950 . S
H3486 C3498 0.950 . S
H3487 C3499 0.950 . S
C3488 H3480 0.950 . S
C3488 C3489 1.386 . S
C3488 C3490 1.391 . S
C3489 C3488 1.386 . S
C3489 C3493 1.393 . S
C3490 H3482 0.950 . S
C3490 C3488 1.391 . S
C3490 C3491 1.400 . S
C3491 C3490 1.400 . S
C3491 C3492 1.398 . S
C3491 C3497 1.491 . S
C3492 H3483 0.950 . S
C3492 C3491 1.398 . S
C3492 C3493 1.391 . S
C3493 H3481 0.950 . S
C3493 C3489 1.393 . S
C3493 C3492 1.391 . S
C3494 H3484 0.950 . S
C3494 C3495 1.386 . S
C3494 C3496 1.391 . S
C3495 C3494 1.386 . S
C3495 C3499 1.393 . S
C3496 H3485 0.950 . S
C3496 C3494 1.391 . S
C3496 C3497 1.400 . S
C3497 C3491 1.491 . S
C3497 C3496 1.400 . S
C3497 C3498 1.398 . S
C3498 H3486 0.950 . S
C3498 C3497 1.398 . S
C3498 C3499 1.391 . S
C3499 H3487 0.950 . S
C3499 C3495 1.393 . S
C3499 C3498 1.391 . S
H3500 C3508 0.950 . S
H3501 C3513 0.950 . S
H3502 C3510 0.950 . S
H3503 C3512 0.950 . S
H3504 C3514 0.950 . S
H3505 C3516 0.950 . S
H3506 C3518 0.950 . S
H3507 C3519 0.950 . S
C3508 H3500 0.950 . S
C3508 C3509 1.386 . S
C3508 C3510 1.391 . S
C3509 C3508 1.386 . S
C3509 C3513 1.393 . S
C3510 H3502 0.950 . S
C3510 C3508 1.391 . S
C3510 C3511 1.400 . S
C3511 C3510 1.400 . S
C3511 C3512 1.398 . S
C3511 C3517 1.491 . S
C3512 H3503 0.950 . S
C3512 C3511 1.398 . S
C3512 C3513 1.391 . S
C3513 H3501 0.950 . S
C3513 C3509 1.393 . S
C3513 C3512 1.391 . S
C3514 H3504 0.950 . S
C3514 C3515 1.386 . S
C3514 C3516 1.391 . S
C3515 C3514 1.386 . S
C3515 C3519 1.393 . S
C3516 H3505 0.950 . S
C3516 C3514 1.391 . S
C3516 C3517 1.400 . S
C3517 C3511 1.491 . S
C3517 C3516 1.400 . S
C3517 C3518 1.398 . S
C3518 H3506 0.950 . S
C3518 C3517 1.398 . S
C3518 C3519 1.391 . S
C3519 H3507 0.950 . S
C3519 C3515 1.393 . S
C3519 C3518 1.391 . S
H3520 C3528 0.950 . S
H3521 C3533 0.950 . S
H3522 C3530 0.950 . S
H3523 C3532 0.950 . S
H3524 C3534 0.950 . S
H3525 C3536 0.950 . S
H3526 C3538 0.950 . S
H3527 C3539 0.950 . S
C3528 H3520 0.950 . S
C3528 C3529 1.386 . S
C3528 C3530 1.391 . S
C3529 C3528 1.386 . S
C3529 C3533 1.393 . S
C3530 H3522 0.950 . S
C3530 C3528 1.391 . S
C3530 C3531 1.400 . S
C3531 C3530 1.400 . S
C3531 C3532 1.398 . S
C3531 C3537 1.491 . S
C3532 H3523 0.950 . S
C3532 C3531 1.398 . S
C3532 C3533 1.391 . S
C3533 H3521 0.950 . S
C3533 C3529 1.393 . S
C3533 C3532 1.391 . S
C3534 H3524 0.950 . S
C3534 C3535 1.386 . S
C3534 C3536 1.391 . S
C3535 C3534 1.386 . S
C3535 C3539 1.393 . S
C3536 H3525 0.950 . S
C3536 C3534 1.391 . S
C3536 C3537 1.400 . S
C3537 C3531 1.491 . S
C3537 C3536 1.400 . S
C3537 C3538 1.398 . S
C3538 H3526 0.950 . S
C3538 C3537 1.398 . S
C3538 C3539 1.391 . S
C3539 H3527 0.950 . S
C3539 C3535 1.393 . S
C3539 C3538 1.391 . S
H3540 C3548 0.950 . S
H3541 C3553 0.950 . S
H3542 C3550 0.950 . S
H3543 C3552 0.950 . S
H3544 C3554 0.950 . S
H3545 C3556 0.950 . S
H3546 C3558 0.950 . S
H3547 C3559 0.950 . S
C3548 H3540 0.950 . S
C3548 C3549 1.386 . S
C3548 C3550 1.391 . S
C3549 C3548 1.386 . S
C3549 C3553 1.393 . S
C3550 H3542 0.950 . S
C3550 C3548 1.391 . S
C3550 C3551 1.400 . S
C3551 C3550 1.400 . S
C3551 C3552 1.398 . S
C3551 C3557 1.491 . S
C3552 H3543 0.950 . S
C3552 C3551 1.398 . S
C3552 C3553 1.391 . S
C3553 H3541 0.950 . S
C3553 C3549 1.393 . S
C3553 C3552 1.391 . S
C3554 H3544 0.950 . S
C3554 C3555 1.386 . S
C3554 C3556 1.391 . S
C3555 C3554 1.386 . S
C3555 C3559 1.393 . S
C3556 H3545 0.950 . S
C3556 C3554 1.391 . S
C3556 C3557 1.400 . S
C3557 C3551 1.491 . S
C3557 C3556 1.400 . S
C3557 C3558 1.398 . S
C3558 H3546 0.950 . S
C3558 C3557 1.398 . S
C3558 C3559 1.391 . S
C3559 H3547 0.950 . S
C3559 C3555 1.393 . S
C3559 C3558 1.391 . S
H3560 C3568 0.950 . S
H3561 C3573 0.950 . S
H3562 C3570 0.950 . S
H3563 C3572 0.950 . S
H3564 C3574 0.950 . S
H3565 C3576 0.950 . S
H3566 C3578 0.950 . S
H3567 C3579 0.950 . S
C3568 H3560 0.950 . S
C3568 C3569 1.386 . S
C3568 C3570 1.391 . S
C3569 C3568 1.386 . S
C3569 C3573 1.393 . S
C3570 H3562 0.950 . S
C3570 C3568 1.391 . S
C3570 C3571 1.400 . S
C3571 C3570 1.400 . S
C3571 C3572 1.398 . S
C3571 C3577 1.491 . S
C3572 H3563 0.950 . S
C3572 C3571 1.398 . S
C3572 C3573 1.391 . S
C3573 H3561 0.950 . S
C3573 C3569 1.393 . S
C3573 C3572 1.391 . S
C3574 H3564 0.950 . S
C3574 C3575 1.386 . S
C3574 C3576 1.391 . S
C3575 C3574 1.386 . S
C3575 C3579 1.393 . S
C3576 H3565 0.950 . S
C3576 C3574 1.391 . S
C3576 C3577 1.400 . S
C3577 C3571 1.491 . S
C3577 C3576 1.400 . S
C3577 C3578 1.398 . S
C3578 H3566 0.950 . S
C3578 C3577 1.398 . S
C3578 C3579 1.391 . S
C3579 H3567 0.950 . S
C3579 C3575 1.393 . S
C3579 C3578 1.391 . S
H3580 C3588 0.950 . S
H3581 C3593 0.950 . S
H3582 C3590 0.950 . S
H3583 C3592 0.950 . S
H3584 C3594 0.950 . S
H3585 C3596 0.950 . S
H3586 C3598 0.950 . S
H3587 C3599 0.950 . S
C3588 H3580 0.950 . S
C3588 C3589 1.386 . S
C3588 C3590 1.391 . S
C3589 C3588 1.386 . S
C3589 C3593 1.393 . S
C3590 H3582 0.950 . S
C3590 C3588 1.391 . S
C3590 C3591 1.400 . S
C3591 C3590 1.400 . S
C3591 C3592 1.398 . S
C3591 C3597 1.491 . S
C3592 H3583 0.950 . S
C3592 C3591 1.398 . S
C3592 C3593 1.391 . S
C3593 H3581 0.950 . S
C3593 C3589 1.393 . S
C3593 C3592 1.391 . S
C3594 H3584 0.950 . S
C3594 C3595 1.386 . S
C3594 C3596 1.391 . S
C3595 C3594 1.386 . S
C3595 C3599 1.393 . S
C3596 H3585 0.950 . S
C3596 C3594 1.391 . S
C3596 C3597 1.400 . S
C3597 C3591 1.491 . S
C3597 C3596 1.400 . S
C3597 C3598 1.398 . S
C3598 H3586 0.950 . S
C3598 C3597 1.398 . S
C3598 C3599 1.391 . S
C3599 H3587 0.950 . S
C3599 C3595 1.393 . S
C3599 C3598 1.391 . S
H3600 C3608 0.950 . S
H3601 C3613 0.950 . S
H3602 C3610 0.950 . S
H3603 C3612 0.950 . S
H3604 C3614 0.950 . S
H3605 C3616 0.950 . S
H3606 C3618 0.950 . S
H3607 C3619 0.950 . S
C3608 H3600 0.950 . S
C3608 C3609 1.386 . S
C3608 C3610 1.391 . S
C3609 C3608 1.386 . S
C3609 C3613 1.393 . S
C3610 H3602 0.950 . S
C3610 C3608 1.391 . S
C3610 C3611 1.400 . S
C3611 C3610 1.400 . S
C3611 C3612 1.398 . S
C3611 C3617 1.491 . S
C3612 H3603 0.950 . S
C3612 C3611 1.398 . S
C3612 C3613 1.391 . S
C3613 H3601 0.950 . S
C3613 C3609 1.393 . S
C3613 C3612 1.391 . S
C3614 H3604 0.950 . S
C3614 C3615 1.386 . S
C3614 C3616 1.391 . S
C3615 C3614 1.386 . S
C3615 C3619 1.393 . S
C3616 H3605 0.950 . S
C3616 C3614 1.391 . S
C3616 C3617 1.400 . S
C3617 C3611 1.491 . S
C3617 C3616 1.400 . S
C3617 C3618 1.398 . S
C3618 H3606 0.950 . S
C3618 C3617 1.398 . S
C3618 C3619 1.391 . S
C3619 H3607 0.950 . S
C3619 C3615 1.393 . S
C3619 C3618 1.391 . S
H3620 C3628 0.950 . S
H3621 C3633 0.950 . S
H3622 C3630 0.950 . S
H3623 C3632 0.950 . S
H3624 C3634 0.950 . S
H3625 C3636 0.950 . S
H3626 C3638 0.950 . S
H3627 C3639 0.950 . S
C3628 H3620 0.950 . S
C3628 C3629 1.386 1_554 S
C3628 C3630 1.391 . S
C3629 C3628 1.386 1_556 S
C3629 C3633 1.393 . S
C3630 H3622 0.950 . S
C3630 C3628 1.391 . S
C3630 C3631 1.400 . S
C3631 C3630 1.400 . S
C3631 C3632 1.398 . S
C3631 C3637 1.491 . S
C3632 H3623 0.950 . S
C3632 C3631 1.398 . S
C3632 C3633 1.391 1_554 S
C3633 H3621 0.950 . S
C3633 C3629 1.393 . S
C3633 C3632 1.391 1_556 S
C3634 H3624 0.950 . S
C3634 C3635 1.386 . S
C3634 C3636 1.391 . S
C3635 C3634 1.386 . S
C3635 C3639 1.393 . S
C3636 H3625 0.950 . S
C3636 C3634 1.391 . S
C3636 C3637 1.400 . S
C3637 C3631 1.491 . S
C3637 C3636 1.400 . S
C3637 C3638 1.398 . S
C3638 H3626 0.950 . S
C3638 C3637 1.398 . S
C3638 C3639 1.391 . S
C3639 H3627 0.950 . S
C3639 C3635 1.393 . S
C3639 C3638 1.391 . S
H3640 C3648 0.950 . S
H3641 C3653 0.950 . S
H3642 C3650 0.950 . S
H3643 C3652 0.950 . S
H3644 C3654 0.950 . S
H3645 C3656 0.950 . S
H3646 C3658 0.950 . S
H3647 C3659 0.950 . S
C3648 H3640 0.950 . S
C3648 C3649 1.386 . S
C3648 C3650 1.391 . S
C3649 C3648 1.386 . S
C3649 C3653 1.393 . S
C3650 H3642 0.950 . S
C3650 C3648 1.391 . S
C3650 C3651 1.400 . S
C3651 C3650 1.400 . S
C3651 C3652 1.398 . S
C3651 C3657 1.491 . S
C3652 H3643 0.950 . S
C3652 C3651 1.398 . S
C3652 C3653 1.391 . S
C3653 H3641 0.950 . S
C3653 C3649 1.393 . S
C3653 C3652 1.391 . S
C3654 H3644 0.950 . S
C3654 C3655 1.386 . S
C3654 C3656 1.391 . S
C3655 C3654 1.386 . S
C3655 C3659 1.393 . S
C3656 H3645 0.950 . S
C3656 C3654 1.391 . S
C3656 C3657 1.400 . S
C3657 C3651 1.491 . S
C3657 C3656 1.400 . S
C3657 C3658 1.398 . S
C3658 H3646 0.950 . S
C3658 C3657 1.398 . S
C3658 C3659 1.391 . S
C3659 H3647 0.950 . S
C3659 C3655 1.393 . S
C3659 C3658 1.391 . S
H3660 C3668 0.950 . S
H3661 C3673 0.950 . S
H3662 C3670 0.950 . S
H3663 C3672 0.950 . S
H3664 C3674 0.950 . S
H3665 C3676 0.950 . S
H3666 C3678 0.950 . S
H3667 C3679 0.950 . S
C3668 H3660 0.950 . S
C3668 C3669 1.386 . S
C3668 C3670 1.391 . S
C3669 C3668 1.386 . S
C3669 C3673 1.393 . S
C3670 H3662 0.950 . S
C3670 C3668 1.391 . S
C3670 C3671 1.400 . S
C3671 C3670 1.400 . S
C3671 C3672 1.398 . S
C3671 C3677 1.491 . S
C3672 H3663 0.950 . S
C3672 C3671 1.398 . S
C3672 C3673 1.391 . S
C3673 H3661 0.950 . S
C3673 C3669 1.393 . S
C3673 C3672 1.391 . S
C3674 H3664 0.950 . S
C3674 C3675 1.386 . S
C3674 C3676 1.391 . S
C3675 C3674 1.386 . S
C3675 C3679 1.393 . S
C3676 H3665 0.950 . S
C3676 C3674 1.391 . S
C3676 C3677 1.400 . S
C3677 C3671 1.491 . S
C3677 C3676 1.400 . S
C3677 C3678 1.398 . S
C3678 H3666 0.950 . S
C3678 C3677 1.398 . S
C3678 C3679 1.391 . S
C3679 H3667 0.950 . S
C3679 C3675 1.393 . S
C3679 C3678 1.391 . S
H3680 C3688 0.950 . S
H3681 C3693 0.950 . S
H3682 C3690 0.950 . S
H3683 C3692 0.950 . S
H3684 C3694 0.950 . S
H3685 C3696 0.950 . S
H3686 C3698 0.950 . S
H3687 C3699 0.950 . S
C3688 H3680 0.950 . S
C3688 C3689 1.386 . S
C3688 C3690 1.391 . S
C3689 C3688 1.386 . S
C3689 C3693 1.393 . S
C3690 H3682 0.950 . S
C3690 C3688 1.391 . S
C3690 C3691 1.400 . S
C3691 C3690 1.400 . S
C3691 C3692 1.398 . S
C3691 C3697 1.491 . S
C3692 H3683 0.950 . S
C3692 C3691 1.398 . S
C3692 C3693 1.391 . S
C3693 H3681 0.950 . S
C3693 C3689 1.393 . S
C3693 C3692 1.391 . S
C3694 H3684 0.950 . S
C3694 C3695 1.386 . S
C3694 C3696 1.391 . S
C3695 C3694 1.386 . S
C3695 C3699 1.393 . S
C3696 H3685 0.950 . S
C3696 C3694 1.391 . S
C3696 C3697 1.400 . S
C3697 C3691 1.491 . S
C3697 C3696 1.400 . S
C3697 C3698 1.398 . S
C3698 H3686 0.950 . S
C3698 C3697 1.398 . S
C3698 C3699 1.391 . S
C3699 H3687 0.950 . S
C3699 C3695 1.393 . S
C3699 C3698 1.391 . S
H3700 C3708 0.950 . S
H3701 C3713 0.950 . S
H3702 C3710 0.950 . S
H3703 C3712 0.950 . S
H3704 C3714 0.950 . S
H3705 C3716 0.950 . S
H3706 C3718 0.950 . S
H3707 C3719 0.950 . S
C3708 H3700 0.950 . S
C3708 C3709 1.386 . S
C3708 C3710 1.391 . S
C3709 C3708 1.386 . S
C3709 C3713 1.393 . S
C3710 H3702 0.950 . S
C3710 C3708 1.391 . S
C3710 C3711 1.400 . S
C3711 C3710 1.400 . S
C3711 C3712 1.398 . S
C3711 C3717 1.491 . S
C3712 H3703 0.950 . S
C3712 C3711 1.398 . S
C3712 C3713 1.391 . S
C3713 H3701 0.950 . S
C3713 C3709 1.393 . S
C3713 C3712 1.391 . S
C3714 H3704 0.950 . S
C3714 C3715 1.386 . S
C3714 C3716 1.391 . S
C3715 C3714 1.386 . S
C3715 C3719 1.393 . S
C3716 H3705 0.950 . S
C3716 C3714 1.391 . S
C3716 C3717 1.400 . S
C3717 C3711 1.491 . S
C3717 C3716 1.400 . S
C3717 C3718 1.398 . S
C3718 H3706 0.950 . S
C3718 C3717 1.398 . S
C3718 C3719 1.391 . S
C3719 H3707 0.950 . S
C3719 C3715 1.393 . S
C3719 C3718 1.391 . S
H3720 C3728 0.950 . S
H3721 C3733 0.950 . S
H3722 C3730 0.950 . S
H3723 C3732 0.950 . S
H3724 C3734 0.950 . S
H3725 C3736 0.950 . S
H3726 C3738 0.950 . S
H3727 C3739 0.950 . S
C3728 H3720 0.950 . S
C3728 C3729 1.386 . S
C3728 C3730 1.391 . S
C3729 C3728 1.386 . S
C3729 C3733 1.393 . S
C3730 H3722 0.950 . S
C3730 C3728 1.391 . S
C3730 C3731 1.400 . S
C3731 C3730 1.400 . S
C3731 C3732 1.398 . S
C3731 C3737 1.491 . S
C3732 H3723 0.950 . S
C3732 C3731 1.398 . S
C3732 C3733 1.391 . S
C3733 H3721 0.950 . S
C3733 C3729 1.393 . S
C3733 C3732 1.391 . S
C3734 H3724 0.950 . S
C3734 C3735 1.386 . S
C3734 C3736 1.391 . S
C3735 C3734 1.386 . S
C3735 C3739 1.393 . S
C3736 H3725 0.950 . S
C3736 C3734 1.391 . S
C3736 C3737 1.400 . S
C3737 C3731 1.491 . S
C3737 C3736 1.400 . S
C3737 C3738 1.398 . S
C3738 H3726 0.950 . S
C3738 C3737 1.398 . S
C3738 C3739 1.391 . S
C3739 H3727 0.950 . S
C3739 C3735 1.393 . S
C3739 C3738 1.391 . S
H3740 C3748 0.950 . S
H3741 C3753 0.950 . S
H3742 C3750 0.950 . S
H3743 C3752 0.950 . S
H3744 C3754 0.950 . S
H3745 C3756 0.950 . S
H3746 C3758 0.950 . S
H3747 C3759 0.950 . S
C3748 H3740 0.950 . S
C3748 C3749 1.386 . S
C3748 C3750 1.391 . S
C3749 C3748 1.386 . S
C3749 C3753 1.393 . S
C3750 H3742 0.950 . S
C3750 C3748 1.391 . S
C3750 C3751 1.400 . S
C3751 C3750 1.400 . S
C3751 C3752 1.398 . S
C3751 C3757 1.491 . S
C3752 H3743 0.950 . S
C3752 C3751 1.398 . S
C3752 C3753 1.391 . S
C3753 H3741 0.950 . S
C3753 C3749 1.393 . S
C3753 C3752 1.391 . S
C3754 H3744 0.950 . S
C3754 C3755 1.386 . S
C3754 C3756 1.391 . S
C3755 C3754 1.386 . S
C3755 C3759 1.393 . S
C3756 H3745 0.950 . S
C3756 C3754 1.391 . S
C3756 C3757 1.400 . S
C3757 C3751 1.491 . S
C3757 C3756 1.400 . S
C3757 C3758 1.398 . S
C3758 H3746 0.950 . S
C3758 C3757 1.398 . S
C3758 C3759 1.391 . S
C3759 H3747 0.950 . S
C3759 C3755 1.393 . S
C3759 C3758 1.391 . S
H3760 C3768 0.950 . S
H3761 C3773 0.950 . S
H3762 C3770 0.950 . S
H3763 C3772 0.950 . S
H3764 C3774 0.950 . S
H3765 C3776 0.950 . S
H3766 C3778 0.950 . S
H3767 C3779 0.950 . S
C3768 H3760 0.950 . S
C3768 C3769 1.386 . S
C3768 C3770 1.391 . S
C3769 C3768 1.386 . S
C3769 C3773 1.393 . S
C3770 H3762 0.950 . S
C3770 C3768 1.391 . S
C3770 C3771 1.400 . S
C3771 C3770 1.400 . S
C3771 C3772 1.398 . S
C3771 C3777 1.491 . S
C3772 H3763 0.950 . S
C3772 C3771 1.398 . S
C3772 C3773 1.391 . S
C3773 H3761 0.950 . S
C3773 C3769 1.393 . S
C3773 C3772 1.391 . S
C3774 H3764 0.950 . S
C3774 C3775 1.386 . S
C3774 C3776 1.391 . S
C3775 C3774 1.386 . S
C3775 C3779 1.393 . S
C3776 H3765 0.950 . S
C3776 C3774 1.391 . S
C3776 C3777 1.400 . S
C3777 C3771 1.491 . S
C3777 C3776 1.400 . S
C3777 C3778 1.398 . S
C3778 H3766 0.950 . S
C3778 C3777 1.398 . S
C3778 C3779 1.391 . S
C3779 H3767 0.950 . S
C3779 C3775 1.393 . S
C3779 C3778 1.391 . S
H3780 C3788 0.950 . S
H3781 C3793 0.950 . S
H3782 C3790 0.950 . S
H3783 C3792 0.950 . S
H3784 C3794 0.950 . S
H3785 C3796 0.950 . S
H3786 C3798 0.950 . S
H3787 C3799 0.950 . S
C3788 H3780 0.950 . S
C3788 C3789 1.386 . S
C3788 C3790 1.391 . S
C3789 C3788 1.386 . S
C3789 C3793 1.393 . S
C3790 H3782 0.950 . S
C3790 C3788 1.391 . S
C3790 C3791 1.400 . S
C3791 C3790 1.400 . S
C3791 C3792 1.398 . S
C3791 C3797 1.491 . S
C3792 H3783 0.950 . S
C3792 C3791 1.398 . S
C3792 C3793 1.391 . S
C3793 H3781 0.950 . S
C3793 C3789 1.393 . S
C3793 C3792 1.391 . S
C3794 H3784 0.950 . S
C3794 C3795 1.386 . S
C3794 C3796 1.391 . S
C3795 C3794 1.386 . S
C3795 C3799 1.393 . S
C3796 H3785 0.950 . S
C3796 C3794 1.391 . S
C3796 C3797 1.400 . S
C3797 C3791 1.491 . S
C3797 C3796 1.400 . S
C3797 C3798 1.398 . S
C3798 H3786 0.950 . S
C3798 C3797 1.398 . S
C3798 C3799 1.391 . S
C3799 H3787 0.950 . S
C3799 C3795 1.393 . S
C3799 C3798 1.391 . S
H3800 C3808 0.950 . S
H3801 C3813 0.950 . S
H3802 C3810 0.950 . S
H3803 C3812 0.950 . S
H3804 C3814 0.950 . S
H3805 C3816 0.950 . S
H3806 C3818 0.950 . S
H3807 C3819 0.950 . S
C3808 H3800 0.950 . S
C3808 C3809 1.386 . S
C3808 C3810 1.391 . S
C3809 C3808 1.386 . S
C3809 C3813 1.393 . S
C3810 H3802 0.950 . S
C3810 C3808 1.391 . S
C3810 C3811 1.400 . S
C3811 C3810 1.400 . S
C3811 C3812 1.398 . S
C3811 C3817 1.491 . S
C3812 H3803 0.950 . S
C3812 C3811 1.398 . S
C3812 C3813 1.391 . S
C3813 H3801 0.950 . S
C3813 C3809 1.393 . S
C3813 C3812 1.391 . S
C3814 H3804 0.950 . S
C3814 C3815 1.386 . S
C3814 C3816 1.391 . S
C3815 C3814 1.386 . S
C3815 C3819 1.393 . S
C3816 H3805 0.950 . S
C3816 C3814 1.391 . S
C3816 C3817 1.400 . S
C3817 C3811 1.491 . S
C3817 C3816 1.400 . S
C3817 C3818 1.398 . S
C3818 H3806 0.950 . S
C3818 C3817 1.398 . S
C3818 C3819 1.391 . S
C3819 H3807 0.950 . S
C3819 C3815 1.393 . S
C3819 C3818 1.391 . S
H3820 C3828 0.950 . S
H3821 C3833 0.950 . S
H3822 C3830 0.950 . S
H3823 C3832 0.950 . S
H3824 C3834 0.950 . S
H3825 C3836 0.950 . S
H3826 C3838 0.950 . S
H3827 C3839 0.950 . S
C3828 H3820 0.950 . S
C3828 C3829 1.386 . S
C3828 C3830 1.391 . S
C3829 C3828 1.386 . S
C3829 C3833 1.393 . S
C3830 H3822 0.950 . S
C3830 C3828 1.391 . S
C3830 C3831 1.400 . S
C3831 C3830 1.400 . S
C3831 C3832 1.398 . S
C3831 C3837 1.491 . S
C3832 H3823 0.950 . S
C3832 C3831 1.398 . S
C3832 C3833 1.391 . S
C3833 H3821 0.950 . S
C3833 C3829 1.393 . S
C3833 C3832 1.391 . S
C3834 H3824 0.950 . S
C3834 C3835 1.386 . S
C3834 C3836 1.391 . S
C3835 C3834 1.386 . S
C3835 C3839 1.393 . S
C3836 H3825 0.950 . S
C3836 C3834 1.391 . S
C3836 C3837 1.400 . S
C3837 C3831 1.491 . S
C3837 C3836 1.400 . S
C3837 C3838 1.398 . S
C3838 H3826 0.950 . S
C3838 C3837 1.398 . S
C3838 C3839 1.391 . S
C3839 H3827 0.950 . S
C3839 C3835 1.393 . S
C3839 C3838 1.391 . S
C969 C2 2.343 . S
C975 C99 2.431 . S
C989 C22 1.525 . S
C995 C119 1.623 . S
C1009 C122 1.948 . S
C1015 C42 1.902 . S
C1029 C159 2.240 . S
C1035 C62 2.127 . S
C1049 C179 2.539 1_565 S
C1055 C199 2.527 . S
C1069 C182 2.291 . S
C1075 C219 2.414 . S
C1089 C222 1.769 . S
C1095 C202 1.853 . S
C1109 C239 2.260 . S
C1115 C162 2.096 . S
C1129 C259 1.962 . S
C1135 C79 1.971 . S
C1149 C142 1.723 . S
C1155 C662 1.670 . S
C1169 C82 2.237 . S
C1175 C279 2.356 . S
C1189 C102 1.802 . S
C1195 C682 1.868 . S
C1209 C39 1.983 . S
C1215 C299 2.001 . S
C1229 C639 2.072 1_455 S
C1235 C19 2.063 . S
C1249 C619 2.127 . S
C1255 C59 2.136 . S
C1269 C398 2.426 . S
C1275 C304 2.323 . S
C1289 C324 1.537 . S
C1295 C418 1.622 . S
C1309 C344 1.891 . S
C1315 C424 1.957 . S
C1329 C364 2.111 . S
C1335 C458 2.249 . S
C1349 C498 2.525 . S
C1355 C478 2.526 1_545 S
C1369 C484 2.297 . S
C1375 C518 2.427 . S
C1389 C524 1.786 1_565 S
C1395 C504 1.827 . S
C1409 C464 2.093 . S
C1415 C538 2.269 . S
C1429 C378 1.971 . S
C1435 C558 1.962 . S
C1449 C844 1.681 . S
C1455 C444 1.717 . S
C1469 C578 2.371 . S
C1475 C384 2.232 . S
C1489 C404 1.795 . S
C1495 C864 1.870 . S
C1509 C598 1.999 . S
C1515 C338 1.982 . S
C1529 C318 2.072 . S
C1535 C818 2.068 1_655 S
C1549 C358 2.124 . S
C1555 C798 2.127 . S
C1569 C659 2.240 . S
C1575 C602 2.173 . S
C1589 C679 1.758 . S
C1595 C242 1.672 . S
C1609 C622 1.859 1_455 S
C1615 C262 1.909 . S
C1629 C699 2.173 . S
C1635 C282 2.044 . S
C1649 C719 2.330 . S
C1655 C739 2.325 . S
C1669 C722 2.436 . S
C1675 C759 2.512 . S
C1689 C779 2.235 . S
C1695 C742 2.160 . S
C1709 C702 1.831 . S
C1715 C762 1.929 . S
C1729 C139 2.401 . S
C1735 C642 2.298 . S
C1749 C838 2.245 . S
C1755 C784 2.167 . S
C1769 C858 1.759 . S
C1775 C544 1.649 . S
C1789 C564 1.900 . S
C1795 C804 1.858 1_655 S
C1809 C878 2.171 . S
C1815 C584 2.041 . S
C1829 C898 2.323 . S
C1835 C918 2.314 . S
C1849 C904 2.440 . S
C1855 C938 2.516 . S
C1869 C924 2.139 . S
C1875 C958 2.239 . S
C1889 C944 1.917 . S
C1895 C884 1.840 . S
C1909 C824 2.297 . S
C1915 C438 2.401 . S
C1929 C4 0.829 . S
C1935 C329 0.906 . S
C1949 C809 0.735 . S
C1955 C24 0.763 . S
C1969 C44 0.918 . S
C1975 C369 0.946 . S
C1989 C64 0.891 . S
C1995 C789 0.964 . S
C2009 C98 0.552 . S
C2015 C452 0.600 . S
C2029 C118 0.506 . S
C2035 C832 0.439 . S
C2049 C124 0.605 . S
C2055 C412 0.553 . S
C2069 C569 0.445 . S
C2075 C158 0.441 . S
C2089 C178 1.312 . S
C2095 C792 1.314 . S
C2109 C184 0.990 . S
C2115 C332 1.048 . S
C2129 C204 0.788 . S
C2135 C812 0.830 . S
C2149 C372 1.000 . S
C2155 C238 1.001 . S
C2169 C829 0.594 . S
C2175 C224 0.572 . S
C2189 C409 0.645 . S
C2195 C164 0.694 . S
C2209 C198 0.858 . S
C2215 C572 0.871 . S
C2229 C449 0.480 . S
C2235 C218 0.438 . S
C2249 C889 1.026 . S
C2255 C258 1.020 . S
C2269 C532 0.604 . S
C2275 C144 0.591 . S
C2289 C84 0.869 . S
C2295 C892 0.916 . S
C2309 C104 0.721 . S
C2315 C489 0.748 . S
C2329 C278 0.638 . S
C2335 C509 0.633 1_565 S
C2349 C932 0.846 . S
C2355 C298 0.862 . S
C2369 C18 1.028 . S
C2375 C952 1.021 . S
C2389 C58 1.019 . S
C2395 C912 0.998 . S
C2409 C32 0.880 . S
C2415 C302 0.821 . S
C2429 C322 0.752 . S
C2435 C632 0.797 . S
C2449 C342 0.883 . S
C2455 C72 0.903 . S
C2469 C362 0.896 . S
C2475 C612 0.966 . S
C2489 C149 0.601 . S
C2495 C399 0.604 . S
C2509 C649 0.491 . S
C2515 C419 0.466 . S
C2529 C109 0.584 . S
C2535 C422 0.595 . S
C2549 C459 0.370 . S
C2555 C272 0.438 . S
C2569 C479 1.282 . S
C2575 C609 1.288 . S
C2589 C29 1.026 . S
C2595 C482 0.944 . S
C2609 C502 0.812 . S
C2615 C629 0.839 . S
C2629 C69 0.989 . S
C2635 C539 0.959 . S
C2649 C652 0.595 . S
C2655 C522 0.514 . S
C2669 C462 0.651 . S
C2675 C112 0.667 . S
C2689 C499 0.862 . S
C2695 C269 0.879 . S
C2709 C152 0.452 . S
C2715 C519 0.376 . S
C2729 C559 1.026 . S
C2735 C712 1.018 . S
C2749 C229 0.618 . S
C2755 C442 0.569 . S
C2769 C709 0.907 . S
C2775 C382 0.898 . S
C2789 C402 0.758 . S
C2795 C192 0.697 . S
C2809 C579 0.609 . S
C2815 C212 0.588 1_545 S
C2829 C749 0.828 . S
C2835 C599 0.817 . S
C2849 C319 1.048 . S
C2855 C769 1.049 . S
C2869 C729 0.995 . S
C2875 C359 0.986 . S
C2889 C549 0.986 . S
C2895 C604 0.982 . S
C2909 C244 0.887 . S
C2915 C349 0.952 . S
C2929 C589 0.680 . S
C2935 C624 0.715 . S
C2949 C284 0.952 . S
C2955 C309 0.973 . S
C2969 C658 0.558 . S
C2975 C872 0.613 . S
C2989 C392 0.683 . S
C2995 C678 0.697 . S
C3009 C264 0.541 . S
C3015 C852 0.573 . S
C3029 C429 0.537 . S
C3035 C698 0.533 . S
C3049 C718 1.162 . S
C3055 C312 1.159 . S
C3069 C724 1.037 . S
C3075 C552 1.127 . S
C3089 C744 1.090 . S
C3095 C352 1.036 . S
C3109 C592 0.653 . S
C3115 C764 0.656 . S
C3129 C389 0.828 . S
C3135 C778 0.813 . S
C3149 C704 0.630 . S
C3155 C849 0.648 . S
C3169 C432 0.797 . S
C3175 C738 0.812 . S
C3189 C758 0.422 . S
C3195 C869 0.453 . S
C3209 C38 1.129 . S
C3215 C469 1.114 . S
C3229 C949 0.551 . S
C3235 C684 0.606 . S
C3249 C644 0.887 . S
C3255 C472 0.872 . S
C3269 C664 0.692 . S
C3275 C909 0.599 . S
C3289 C929 0.678 . S
C3295 C138 0.699 . S
C3309 C512 0.895 . S
C3315 C78 0.885 . S
C3329 C618 0.939 . S
C3335 C529 0.919 . S
C3349 C492 1.092 . S
C3355 C638 1.109 . S
C3369 C252 1.013 . S
C3375 C782 0.959 . S
C3389 C542 0.893 . S
C3395 C52 0.966 . S
C3409 C292 0.716 . S
C3415 C802 0.771 . S
C3429 C582 0.931 . S
C3435 C12 0.931 . S
C3449 C839 0.535 . S
C3455 C689 0.538 . S
C3469 C89 0.696 . S
C3475 C859 0.682 . S
C3489 C669 0.557 . S
C3495 C562 0.551 . S
C3509 C132 0.575 . S
C3515 C879 0.510 . S
C3529 C9 1.158 . S
C3535 C899 1.162 . S
C3549 C902 1.079 . S
C3555 C249 1.108 . S
C3569 C49 1.037 . S
C3575 C922 1.056 . S
C3589 C289 0.604 . S
C3595 C942 0.712 . S
C3609 C92 0.789 . S
C3615 C959 0.790 . S
C3629 C672 0.631 . S
C3635 C882 0.652 . S
C3649 C919 0.819 . S
C3655 C129 0.841 . S
C3669 C692 0.468 . S
C3675 C939 0.431 . S
C3689 C172 1.122 . S
C3695 C339 1.125 . S
C3709 C862 0.558 . S
C3715 C772 0.610 . S
C3729 C822 0.843 . S
C3735 C169 0.862 . S
C3749 C732 0.653 . S
C3755 C842 0.641 . S
C3769 C439 0.706 . S
C3775 C752 0.692 . S
C3789 C379 0.890 . S
C3795 C209 0.895 . S
C3809 C232 0.910 . S
C3815 C799 0.936 . S
C3829 C189 1.081 . S
C3835 C819 1.102 . S
