# Generated by pormake.
# Topology fst, (5)-cn, num edge types: 1
# Building blocks:
#     Node 0, Type 0, BuildingBlock: XOMCOT_clean_sbu_1, # of connection points: 5
#     Node 1, Type 0, BuildingBlock: XOMCOT_clean_sbu_1, # of connection points: 5
#     Node 2, Type 0, BuildingBlock: XOMCOT_clean_sbu_1, # of connection points: 5
#     Node 3, Type 0, BuildingBlock: XOMCOT_clean_sbu_1, # of connection points: 5
#     Node 4, Type 0, BuildingBlock: XOMCOT_clean_sbu_1, # of connection points: 5
#     Node 5, Type 0, BuildingBlock: XOMCOT_clean_sbu_1, # of connection points: 5
#     Node 6, Type 0, BuildingBlock: XOMCOT_clean_sbu_1, # of connection points: 5
#     Node 7, Type 0, BuildingBlock: XOMCOT_clean_sbu_1, # of connection points: 5
#     Node 8, Type 0, BuildingBlock: XOMCOT_clean_sbu_1, # of connection points: 5
#     Node 9, Type 0, BuildingBlock: XOMCOT_clean_sbu_1, # of connection points: 5
#     Node 10, Type 0, BuildingBlock: XOMCOT_clean_sbu_1, # of connection points: 5
#     Node 11, Type 0, BuildingBlock: XOMCOT_clean_sbu_1, # of connection points: 5
#     Edge 12, Type (0, 0), BuildingBlock: UVAHIK_clean_linker_0, # of connection points: 2
#     Edge 13, Type (0, 0), BuildingBlock: UVAHIK_clean_linker_0, # of connection points: 2
#     Edge 14, Type (0, 0), BuildingBlock: UVAHIK_clean_linker_0, # of connection points: 2
#     Edge 15, Type (0, 0), BuildingBlock: UVAHIK_clean_linker_0, # of connection points: 2
#     Edge 16, Type (0, 0), BuildingBlock: UVAHIK_clean_linker_0, # of connection points: 2
#     Edge 17, Type (0, 0), BuildingBlock: UVAHIK_clean_linker_0, # of connection points: 2
#     Edge 18, Type (0, 0), BuildingBlock: UVAHIK_clean_linker_0, # of connection points: 2
#     Edge 19, Type (0, 0), BuildingBlock: UVAHIK_clean_linker_0, # of connection points: 2
#     Edge 20, Type (0, 0), BuildingBlock: UVAHIK_clean_linker_0, # of connection points: 2
#     Edge 21, Type (0, 0), BuildingBlock: UVAHIK_clean_linker_0, # of connection points: 2
#     Edge 22, Type (0, 0), BuildingBlock: UVAHIK_clean_linker_0, # of connection points: 2
#     Edge 23, Type (0, 0), BuildingBlock: UVAHIK_clean_linker_0, # of connection points: 2
#     Edge 24, Type (0, 0), BuildingBlock: UVAHIK_clean_linker_0, # of connection points: 2
#     Edge 25, Type (0, 0), BuildingBlock: UVAHIK_clean_linker_0, # of connection points: 2
#     Edge 26, Type (0, 0), BuildingBlock: UVAHIK_clean_linker_0, # of connection points: 2
#     Edge 27, Type (0, 0), BuildingBlock: UVAHIK_clean_linker_0, # of connection points: 2
#     Edge 28, Type (0, 0), BuildingBlock: UVAHIK_clean_linker_0, # of connection points: 2
#     Edge 29, Type (0, 0), BuildingBlock: UVAHIK_clean_linker_0, # of connection points: 2
#     Edge 30, Type (0, 0), BuildingBlock: UVAHIK_clean_linker_0, # of connection points: 2
#     Edge 31, Type (0, 0), BuildingBlock: UVAHIK_clean_linker_0, # of connection points: 2
#     Edge 32, Type (0, 0), BuildingBlock: UVAHIK_clean_linker_0, # of connection points: 2
#     Edge 33, Type (0, 0), BuildingBlock: UVAHIK_clean_linker_0, # of connection points: 2
#     Edge 34, Type (0, 0), BuildingBlock: UVAHIK_clean_linker_0, # of connection points: 2
#     Edge 35, Type (0, 0), BuildingBlock: UVAHIK_clean_linker_0, # of connection points: 2
#     Edge 36, Type (0, 0), BuildingBlock: UVAHIK_clean_linker_0, # of connection points: 2
#     Edge 37, Type (0, 0), BuildingBlock: UVAHIK_clean_linker_0, # of connection points: 2
#     Edge 38, Type (0, 0), BuildingBlock: UVAHIK_clean_linker_0, # of connection points: 2
#     Edge 39, Type (0, 0), BuildingBlock: UVAHIK_clean_linker_0, # of connection points: 2
#     Edge 40, Type (0, 0), BuildingBlock: UVAHIK_clean_linker_0, # of connection points: 2
#     Edge 41, Type (0, 0), BuildingBlock: UVAHIK_clean_linker_0, # of connection points: 2
# Relax obj value: 0.142
# Max RMSD: 0.125
# Mean RMSD: 0.125
data_MOF--net-fst--node1-XOMCOT_clean_sbu_1--edge1-UVAHIK_clean_linker_0
_symmetry_space_group_name_H-M    P1
_symmetry_Int_Tables_number       1
_symmetry_cell_setting            triclinic
loop_
_symmetry_equiv_pos_as_xyz
'x, y, z'
_cell_length_a     94.112178
_cell_length_b     94.105376
_cell_length_c     21.986683
_cell_angle_alpha  89.901667
_cell_angle_beta   89.956884
_cell_angle_gamma 120.00505
loop_
_atom_site_label
_atom_site_type_symbol
_atom_site_fract_x
_atom_site_fract_y
_atom_site_fract_z
_atom_type_partial_charge
C0 C 0.13593 0.45884 0.94019 0.0
C1 C 0.13945 0.46033 0.87919 0.0
N2 N 0.13342 0.4452 0.85579 0.0
N3 N 0.12726 0.4428 0.9554 0.0
C4 C 0.1266 0.43479 0.90334 0.0
H5 H 0.13903 0.46888 0.97113 0.0
Co6 Co 0.11865 0.43559 0.03386 0.0
C7 C 0.08796 0.41118 0.95827 0.0
O8 O 0.0923 0.41779 0.90394 0.0
N9 N 0.11045 0.42886 0.11324 0.0
C10 C 0.09341 0.42228 0.19192 0.0
C11 C 0.0949 0.42414 0.13001 0.0
C12 C 0.11824 0.42984 0.1663 0.0
N13 N 0.1081 0.42593 0.21488 0.0
O14 O 0.1274 0.4211 0.03307 0.0
H15 H 0.0854 0.42304 0.09952 0.0
H16 H 0.13125 0.43429 0.16988 0.0
O17 O 0.09752 0.4178 1.00369 0.0
C18 C 0.1421 0.42762 0.05238 0.0
O19 O 0.14925 0.44275 0.07279 0.0
N20 N 0.11106 0.45073 0.03557 0.0
C21 C 0.10525 0.47711 0.03657 0.0
C22 C 0.09662 0.46383 0.99692 0.0
C23 C 0.09979 0.45082 0.9968 0.0
C24 C 0.11924 0.46328 0.07562 0.0
C25 C 0.11651 0.47657 0.07699 0.0
H26 H 0.09363 0.4413 0.96375 0.0
H27 H 0.12844 0.46328 0.10507 0.0
H28 H 0.12053 0.42157 0.8996 0.0
H29 H 0.14544 0.47167 0.85345 0.0
H30 H 0.08248 0.41903 0.21831 0.0
H31 H 0.0877 0.46361 0.96526 0.0
H32 H 0.12371 0.48663 0.10769 0.0
C33 C 0.69372 0.14454 0.9588 0.0
C34 C 0.69682 0.14749 0.89757 0.0
N35 N 0.69682 0.13444 0.87227 0.0
N36 N 0.69166 0.12967 0.9722 0.0
C37 C 0.69388 0.1239 0.91887 0.0
H38 H 0.6925 0.15248 0.9913 0.0
Co39 Co 0.68619 0.12019 0.0493 0.0
C40 C 0.66928 0.0851 0.99892 0.0
O41 O 0.65456 0.08326 0.99614 0.0
N42 N 0.68113 0.11082 0.12804 0.0
C43 C 0.66858 0.09365 0.20505 0.0
C44 C 0.66851 0.09592 0.14342 0.0
C45 C 0.68862 0.11742 0.18162 0.0
N46 N 0.68125 0.10719 0.22923 0.0
O47 O 0.70867 0.12597 0.05919 0.0
H48 H 0.65936 0.08738 0.11245 0.0
H49 H 0.69919 0.12954 0.18591 0.0
O50 O 0.68147 0.09851 0.01806 0.0
C51 C 0.71776 0.14048 0.07922 0.0
O52 O 0.71095 0.14915 0.09526 0.0
N53 N 0.66431 0.11624 0.03928 0.0
C54 C 0.63399 0.11487 0.02728 0.0
C55 C 0.64099 0.11113 0.97809 0.0
C56 C 0.65632 0.11233 0.98454 0.0
C57 C 0.65797 0.12073 0.08662 0.0
C58 C 0.64276 0.11989 0.08193 0.0
H59 H 0.66161 0.10988 0.94522 0.0
H60 H 0.66486 0.12541 0.1282 0.0
H61 H 0.69297 0.11204 0.91408 0.0
H62 H 0.69822 0.15813 0.8733 0.0
H63 H 0.65959 0.08306 0.23027 0.0
H64 H 0.6349 0.10775 0.93438 0.0
H65 H 0.63797 0.12325 0.12072 0.0
C66 C 0.55216 0.69428 0.96577 0.0
C67 C 0.55238 0.69772 0.90476 0.0
N68 N 0.56417 0.6958 0.87798 0.0
N69 N 0.56379 0.69028 0.97727 0.0
C70 C 0.57104 0.69149 0.92291 0.0
H71 H 0.54387 0.69442 0.99955 0.0
Co72 Co 0.56795 0.6848 0.0541 0.0
C73 C 0.58615 0.66792 1.00449 0.0
O74 O 0.57345 0.65308 1.00818 0.0
N75 N 0.5724 0.67995 0.13297 0.0
C76 C 0.58002 0.67031 0.21159 0.0
C77 C 0.57774 0.66957 0.14975 0.0
C78 C 0.57111 0.68649 0.18611 0.0
N79 N 0.5758 0.68092 0.23425 0.0
O80 O 0.58447 0.7074 0.06391 0.0
H81 H 0.57965 0.66166 0.11985 0.0
H82 H 0.56687 0.69519 0.18986 0.0
O83 O 0.58507 0.68038 0.02137 0.0
C84 C 0.57903 0.71649 0.08393 0.0
O85 O 0.56358 0.70959 0.10057 0.0
N86 N 0.55027 0.6628 0.04411 0.0
C87 C 0.52131 0.63245 0.03029 0.0
C88 C 0.5323 0.63968 0.98174 0.0
C89 C 0.54641 0.65495 0.98912 0.0
C90 C 0.53942 0.65614 0.09132 0.0
C91 C 0.52505 0.64093 0.0857 0.0
H92 H 0.55439 0.66022 0.95037 0.0
H93 H 0.54148 0.66283 0.13328 0.0
H94 H 0.5809 0.68891 0.91585 0.0
H95 H 0.5441 0.70074 0.88146 0.0
H96 H 0.5841 0.66331 0.23811 0.0
H97 H 0.53007 0.63365 0.93805 0.0
H98 H 0.51667 0.63619 0.1239 0.0
C99 C 0.86945 0.54445 0.9479 0.0
C100 C 0.86512 0.54344 0.88777 0.0
N101 N 0.8711 0.55877 0.866 0.0
N102 N 0.87842 0.56035 0.9643 0.0
C103 C 0.87872 0.56878 0.91377 0.0
H104 H 0.86633 0.53414 0.97766 0.0
Co105 Co 0.88649 0.5673 0.04353 0.0
C106 C 0.91741 0.59058 0.96798 0.0
O107 O 0.91244 0.58335 0.91503 0.0
N108 N 0.89402 0.57381 0.12368 0.0
C109 C 0.91029 0.58133 0.20479 0.0
C110 C 0.90938 0.57867 0.14318 0.0
C111 C 0.88571 0.57327 0.17485 0.0
N112 N 0.89539 0.5779 0.22488 0.0
O113 O 0.87823 0.58222 0.04059 0.0
H114 H 0.91915 0.57946 0.11491 0.0
H115 H 0.87276 0.56924 0.17582 0.0
O116 O 0.90815 0.58479 0.01482 0.0
C117 C 0.86331 0.57565 0.05765 0.0
O118 O 0.85587 0.56039 0.07714 0.0
N119 N 0.89341 0.55168 0.04752 0.0
C120 C 0.89739 0.52419 0.05077 0.0
C121 C 0.9071 0.53748 1.01225 0.0
C122 C 0.90485 0.55109 1.01102 0.0
C123 C 0.8843 0.53914 0.08682 0.0
C124 C 0.8861 0.52531 0.0893 0.0
H125 H 0.91178 0.56064 0.97862 0.0
H126 H 0.87506 0.5396 0.11472 0.0
H127 H 0.88456 0.58202 0.91183 0.0
H128 H 0.85857 0.53228 0.86153 0.0
H129 H 0.92092 0.58474 0.23308 0.0
H130 H 0.91579 0.53704 0.98109 0.0
H131 H 0.87846 0.51541 0.12019 0.0
C132 C 0.32775 0.8684 0.94982 0.0
C133 C 0.32431 0.86414 0.88973 0.0
N134 N 0.31538 0.87061 0.86822 0.0
N135 N 0.32132 0.87781 0.96645 0.0
C136 C 0.31339 0.87849 0.91606 0.0
H137 H 0.33464 0.8649 0.97949 0.0
Co138 Co 0.32274 0.88574 0.04601 0.0
C139 C 0.33029 0.91712 0.9731 0.0
O140 O 0.33224 0.91257 0.9188 0.0
N141 N 0.32407 0.89313 0.12643 0.0
C142 C 0.33308 0.90926 0.20779 0.0
C143 C 0.33486 0.90836 0.14619 0.0
C144 C 0.31607 0.88487 0.17739 0.0
N145 N 0.32126 0.89447 0.22758 0.0
O146 O 0.2996 0.87772 0.04447 0.0
H147 H 0.34397 0.91808 0.11797 0.0
H148 H 0.3068 0.87202 0.17801 0.0
O149 O 0.327 0.90747 0.01864 0.0
C150 C 0.291 0.86274 0.06029 0.0
O151 O 0.29843 0.85475 0.07757 0.0
N152 N 0.34527 0.89249 0.04838 0.0
C153 C 0.37675 0.89646 0.04851 0.0
C154 C 0.37293 0.90608 1.01053 0.0
C155 C 0.35707 0.90382 1.0108 0.0
C156 C 0.34891 0.88344 0.0871 0.0
C157 C 0.36456 0.88523 0.088 0.0
H158 H 0.35424 0.91064 0.97865 0.0
H159 H 0.33938 0.87427 0.1158 0.0
H160 H 0.30627 0.88463 0.91441 0.0
H161 H 0.32851 0.85724 0.86338 0.0
H162 H 0.34045 0.91981 0.23623 0.0
H163 H 0.38188 0.91469 0.9786 0.0
H164 H 0.36699 0.87763 0.11842 0.0
C165 C 0.46149 0.32129 0.96129 0.0
C166 C 0.46295 0.31969 0.8998 0.0
N167 N 0.44879 0.31643 0.87315 0.0
N168 N 0.44659 0.31945 0.97367 0.0
C169 C 0.43896 0.31587 0.91898 0.0
H170 H 0.47072 0.32325 0.99446 0.0
Co171 Co 0.43757 0.31913 0.05078 0.0
C172 C 0.42359 0.33604 0.9751 0.0
O173 O 0.43742 0.34462 0.94504 0.0
N174 N 0.42846 0.31821 0.12708 0.0
C175 C 0.41014 0.31221 0.20065 0.0
C176 C 0.41255 0.31308 0.13883 0.0
C177 C 0.43552 0.32041 0.18241 0.0
N178 N 0.42458 0.31674 0.22808 0.0
O179 O 0.42179 0.29638 0.03736 0.0
H180 H 0.40311 0.30949 0.1047 0.0
H181 H 0.44821 0.32376 0.18896 0.0
O182 O 0.42247 0.32577 0.01574 0.0
C183 C 0.42364 0.28623 0.07013 0.0
O184 O 0.43507 0.29188 0.11216 0.0
N185 N 0.454 0.34112 0.06616 0.0
C186 C 0.48181 0.37226 0.07595 0.0
C187 C 0.46612 0.37045 0.06996 0.0
C188 C 0.45229 0.35472 0.06708 0.0
C189 C 0.46875 0.34263 0.08068 0.0
C190 C 0.48285 0.35802 0.08481 0.0
H191 H 0.44036 0.35364 0.06474 0.0
H192 H 0.46964 0.33174 0.08787 0.0
H193 H 0.42629 0.31263 0.91278 0.0
H194 H 0.47368 0.32101 0.8765 0.0
H195 H 0.39857 0.3082 0.22362 0.0
H196 H 0.46451 0.38101 0.06554 0.0
H197 H 0.49448 0.35872 0.09388 0.0
C198 C 0.54925 0.86697 0.08799 0.0
C199 C 0.5483 0.86271 0.14823 0.0
N200 N 0.56364 0.86901 0.16995 0.0
N201 N 0.56514 0.87622 0.0715 0.0
C202 C 0.57363 0.87679 0.1221 0.0
H203 H 0.53893 0.8636 0.05816 0.0
Co204 Co 0.57191 0.88418 0.99203 0.0
C205 C 0.59563 0.91543 0.06524 0.0
O206 O 0.58896 0.91086 0.11937 0.0
N207 N 0.57827 0.89164 0.91164 0.0
C208 C 0.58565 0.90785 0.83015 0.0
C209 C 0.58298 0.90695 0.89177 0.0
C210 C 0.57782 0.88334 0.86069 0.0
N211 N 0.58237 0.89298 0.81043 0.0
O212 O 0.58698 0.87611 0.99473 0.0
H213 H 0.58373 0.91672 0.91987 0.0
H214 H 0.57394 0.87042 0.86008 0.0
O215 O 0.58936 0.90584 0.01968 0.0
C216 C 0.58078 0.86121 0.97832 0.0
O217 O 0.56551 0.85326 0.95944 0.0
N218 N 0.55623 0.89104 0.98856 0.0
C219 C 0.52891 0.89531 0.98595 0.0
C220 C 0.54216 0.90477 0.02476 0.0
C221 C 0.55567 0.90236 0.0257 0.0
C222 C 0.5437 0.88211 0.94922 0.0
C223 C 0.52995 0.88407 0.94704 0.0
H224 H 0.56519 0.90907 0.05834 0.0
H225 H 0.54412 0.87293 0.92089 0.0
H226 H 0.58688 0.88282 0.12392 0.0
H227 H 0.53714 0.85594 0.17452 0.0
H228 H 0.58898 0.91845 0.80162 0.0
H229 H 0.54176 0.9134 0.05628 0.0
H230 H 0.52009 0.8766 0.91597 0.0
C231 C 0.68246 0.5457 0.07793 0.0
C232 C 0.6846 0.54425 0.13884 0.0
N233 N 0.69319 0.5594 0.16257 0.0
N234 N 0.68919 0.56171 0.06314 0.0
C235 C 0.69636 0.5698 0.11525 0.0
H236 H 0.67577 0.53564 0.04678 0.0
Co237 Co 0.68717 0.5686 0.98485 0.0
C238 C 0.68075 0.59304 0.06037 0.0
O239 O 0.67903 0.58687 0.11525 0.0
N240 N 0.68515 0.57503 0.90547 0.0
C241 C 0.67397 0.58084 0.82715 0.0
C242 C 0.67374 0.579 0.88906 0.0
C243 C 0.69217 0.57451 0.8522 0.0
N244 N 0.6855 0.57795 0.80383 0.0
O245 O 0.71037 0.5834 0.98388 0.0
H246 H 0.66508 0.57957 0.91985 0.0
H247 H 0.70124 0.57071 0.84831 0.0
O248 O 0.68354 0.58625 0.01509 0.0
C249 C 0.71867 0.5771 0.9638 0.0
O250 O 0.7109 0.56194 0.94368 0.0
N251 N 0.66446 0.55314 0.98531 0.0
C252 C 0.63266 0.52604 0.9899 0.0
C253 C 0.63783 0.53885 0.03217 0.0
C254 C 0.65377 0.55228 0.02913 0.0
C255 C 0.65954 0.54106 0.94282 0.0
C256 C 0.64367 0.52752 0.94383 0.0
H257 H 0.65772 0.56135 0.0644 0.0
H258 H 0.6682 0.54161 0.90919 0.0
H259 H 0.70312 0.58302 0.11922 0.0
H260 H 0.67966 0.53289 0.16434 0.0
H261 H 0.66587 0.58357 0.80103 0.0
H262 H 0.62997 0.53816 0.06939 0.0
H263 H 0.64024 0.5181 0.90962 0.0
C264 C 0.13816 0.67999 0.08574 0.0
C265 C 0.14248 0.68324 0.14588 0.0
N266 N 0.13666 0.69271 0.16751 0.0
N267 N 0.12936 0.6871 0.06921 0.0
C268 C 0.12913 0.69524 0.11968 0.0
H269 H 0.14119 0.67274 0.05601 0.0
Co270 Co 0.12146 0.68612 0.98984 0.0
C271 C 0.0905 0.67937 0.06377 0.0
O272 O 0.0951 0.67729 0.11782 0.0
N273 N 0.11405 0.68521 0.90955 0.0
C274 C 0.09778 0.67681 0.82844 0.0
C275 C 0.09862 0.67501 0.89007 0.0
C276 C 0.12247 0.69286 0.85836 0.0
N277 N 0.11279 0.68803 0.80832 0.0
O278 O 0.13027 0.70941 0.99199 0.0
H279 H 0.08871 0.66623 0.91844 0.0
H280 H 0.13548 0.70156 0.8574 0.0
O281 O 0.09999 0.68249 0.01788 0.0
C282 C 0.14523 0.71735 0.97514 0.0
O283 O 0.15231 0.70912 0.95667 0.0
N284 N 0.11396 0.66346 0.98671 0.0
C285 C 0.10874 0.63151 0.98473 0.0
C286 C 0.09954 0.63568 0.0234 0.0
C287 C 0.10242 0.65177 0.02405 0.0
C288 C 0.12265 0.65949 0.94743 0.0
C289 C 0.12022 0.6436 0.9456 0.0
H290 H 0.0959 0.65483 0.05671 0.0
H291 H 0.13199 0.66892 0.91895 0.0
H292 H 0.12349 0.70283 0.12144 0.0
H293 H 0.14893 0.67851 0.17219 0.0
H294 H 0.08708 0.66982 0.80019 0.0
H295 H 0.09075 0.62681 0.0551 0.0
H296 H 0.12752 0.6409 0.9147 0.0
C297 C 0.45817 0.14052 0.0702 0.0
C298 C 0.45873 0.14453 0.13048 0.0
N299 N 0.44335 0.13664 0.15282 0.0
N300 N 0.44253 0.12985 0.05416 0.0
C301 C 0.43372 0.12818 0.10522 0.0
H302 H 0.46865 0.14521 0.04024 0.0
Co303 Co 0.43569 0.12129 0.97521 0.0
C304 C 0.41554 0.09058 0.05363 0.0
O305 O 0.4257 0.09558 0.09993 0.0
N306 N 0.4292 0.11325 0.89584 0.0
C307 C 0.42134 0.09656 0.81599 0.0
C308 C 0.42397 0.09772 0.87764 0.0
C309 C 0.42993 0.12138 0.84394 0.0
N310 N 0.4251 0.11145 0.7946 0.0
O311 O 0.42013 0.12875 0.97748 0.0
H312 H 0.42281 0.08794 0.90681 0.0
H313 H 0.43417 0.13437 0.84206 0.0
O314 O 0.41884 0.09968 1.00642 0.0
C315 C 0.42642 0.14358 0.95962 0.0
O316 O 0.44172 0.15124 0.9406 0.0
N317 N 0.45204 0.11534 0.97098 0.0
C318 C 0.48048 0.11306 0.96574 0.0
C319 C 0.46586 0.1001 0.98931 0.0
C320 C 0.4517 0.10144 0.99127 0.0
C321 C 0.46579 0.12744 0.9436 0.0
C322 C 0.4802 0.12667 0.9412 0.0
H323 H 0.44073 0.09127 1.00933 0.0
H324 H 0.46574 0.13815 0.92591 0.0
H325 H 0.42049 0.12075 0.10765 0.0
H326 H 0.46971 0.15228 0.15632 0.0
H327 H 0.41765 0.08571 0.78868 0.0
H328 H 0.46547 0.08925 1.00791 0.0
H329 H 0.49111 0.13677 0.92114 0.0
C330 C 0.32251 0.4572 0.06864 0.0
C331 C 0.32041 0.45863 0.12961 0.0
N332 N 0.31164 0.44347 0.15338 0.0
N333 N 0.31554 0.44118 0.05375 0.0
C334 C 0.30831 0.4331 0.10604 0.0
H335 H 0.32922 0.46733 0.03766 0.0
Co336 Co 0.31686 0.43358 0.97574 0.0
C337 C 0.32694 0.41297 0.05593 0.0
O338 O 0.32985 0.42142 0.10639 0.0
N339 N 0.31817 0.42641 0.897 0.0
C340 C 0.32823 0.41931 0.81858 0.0
C341 C 0.32861 0.42117 0.8805 0.0
C342 C 0.31159 0.42768 0.84379 0.0
N343 N 0.31758 0.42347 0.79538 0.0
O344 O 0.29395 0.41781 0.98041 0.0
H345 H 0.33682 0.41974 0.91095 0.0
H346 H 0.30344 0.43262 0.83996 0.0
O347 O 0.32222 0.41728 1.00831 0.0
C348 C 0.28501 0.42338 0.9603 0.0
O349 O 0.29208 0.4383 0.93775 0.0
N350 N 0.33912 0.45002 0.96944 0.0
C351 C 0.36982 0.47848 0.96243 0.0
C352 C 0.36749 0.46518 0.99845 0.0
C353 C 0.35203 0.45108 1.00157 0.0
C354 C 0.34138 0.46251 0.93179 0.0
C355 C 0.35659 0.4769 0.92781 0.0
H356 H 0.35057 0.44147 0.03161 0.0
H357 H 0.33105 0.46159 0.90682 0.0
H358 H 0.30169 0.41987 0.11028 0.0
H359 H 0.32549 0.46996 0.15511 0.0
H360 H 0.33568 0.41576 0.79231 0.0
H361 H 0.37734 0.46594 0.02629 0.0
H362 H 0.3579 0.48681 0.8989 0.0
C363 C 0.86763 0.32241 0.08995 0.0
C364 C 0.8633 0.31905 0.15012 0.0
N365 N 0.86926 0.30968 0.17166 0.0
N366 N 0.8766 0.31548 0.07331 0.0
C367 C 0.87689 0.30732 0.12375 0.0
H368 H 0.86451 0.32961 0.0603 0.0
Co369 Co 0.88459 0.31665 0.99384 0.0
C370 C 0.91559 0.32397 0.06803 0.0
O371 O 0.91071 0.32592 0.12173 0.0
N372 N 0.89205 0.31772 0.91346 0.0
C373 C 0.90826 0.32654 0.83197 0.0
C374 C 0.90737 0.32831 0.89358 0.0
C375 C 0.88374 0.30988 0.86251 0.0
N376 N 0.89338 0.31496 0.81225 0.0
O377 O 0.87634 0.29347 0.99665 0.0
H378 H 0.91712 0.33734 0.92163 0.0
H379 H 0.87082 0.30086 0.86186 0.0
O380 O 0.90624 0.32075 0.02172 0.0
C381 C 0.86142 0.28497 0.98015 0.0
O382 O 0.85379 0.29259 0.96076 0.0
N383 N 0.89161 0.33922 0.99024 0.0
C384 C 0.89606 0.37088 0.9881 0.0
C385 C 0.90554 0.367 0.02646 0.0
C386 C 0.90305 0.35106 0.02717 0.0
C387 C 0.88268 0.34292 0.95113 0.0
C388 C 0.88472 0.35867 0.94924 0.0
H389 H 0.90978 0.34821 0.0596 0.0
H390 H 0.87343 0.33337 0.92291 0.0
H391 H 0.88267 0.29986 0.12547 0.0
H392 H 0.85674 0.32364 0.17652 0.0
H393 H 0.91886 0.33381 0.80343 0.0
H394 H 0.91423 0.37597 0.05795 0.0
H395 H 0.87721 0.36114 0.91857 0.0
C396 C 0.09172 0.60074 0.99343 0.0
C397 C 0.10718 0.615 0.98823 0.0
C398 C 0.09042 0.58532 0.99929 0.0
C399 C 0.114 0.56575 0.04851 0.0
H400 H 0.08205 0.52837 0.95567 0.0
C401 C 0.10146 0.49779 0.97669 0.0
C402 C 0.10329 0.49187 0.03327 0.0
C403 C 0.10061 0.51218 0.973 0.0
C404 C 0.09105 0.5387 0.98185 0.0
H405 H 0.13341 0.62423 0.9856 0.0
H406 H 0.13114 0.59737 0.99533 0.0
H407 H 0.08342 0.55489 0.94458 0.0
H408 H 0.10509 0.49626 0.13055 0.0
H409 H 0.10382 0.52149 0.12392 0.0
H410 H 0.12182 0.54969 0.0851 0.0
C411 C 0.12001 0.59811 0.99506 0.0
C412 C 0.09174 0.55385 0.97587 0.0
C413 C 0.1213 0.61348 0.98874 0.0
C414 C 0.10395 0.50058 0.08615 0.0
C415 C 0.1032 0.51503 0.08239 0.0
C416 C 0.11323 0.5506 0.05484 0.0
C417 C 0.10458 0.58386 1.00074 0.0
C418 C 0.10335 0.56758 1.00867 0.0
C419 C 0.10167 0.52108 0.02571 0.0
C420 C 0.10184 0.53693 0.0212 0.0
H421 H 0.08061 0.60151 0.99289 0.0
H422 H 0.07836 0.57457 1.00389 0.0
H423 H 0.12296 0.57606 0.07493 0.0
H424 H 0.10122 0.49162 0.93487 0.0
H425 H 0.09966 0.51663 0.92857 0.0
C426 C 0.60471 0.10068 0.99203 0.0
C427 C 0.61793 0.11413 0.02071 0.0
C428 C 0.58966 0.10012 0.98502 0.0
C429 C 0.57153 0.12667 0.97604 0.0
H430 H 0.53069 0.08732 0.01672 0.0
C431 C 0.51051 0.12677 0.9886 0.0
C432 C 0.4961 0.11278 0.9691 0.0
C433 C 0.52521 0.12659 0.9933 0.0
C434 C 0.54194 0.09833 1.00421 0.0
H435 H 0.62581 0.13758 0.06403 0.0
H436 H 0.59955 0.13662 0.0516 0.0
H437 H 0.55663 0.08759 0.02785 0.0
H438 H 0.48583 0.08766 0.93864 0.0
H439 H 0.51162 0.0874 0.94555 0.0
H440 H 0.55699 0.1374 0.95149 0.0
C441 C 0.60082 0.12651 0.03461 0.0
C442 C 0.55681 0.09849 1.01082 0.0
C443 C 0.6158 0.12699 0.04223 0.0
C444 C 0.49672 0.09859 0.95424 0.0
C445 C 0.51149 0.09844 0.95843 0.0
C446 C 0.55669 0.12648 0.96886 0.0
C447 C 0.5876 0.11308 1.00587 0.0
C448 C 0.57177 0.11271 0.99733 0.0
C449 C 0.52594 0.11245 0.97812 0.0
C450 C 0.54169 0.11236 0.98342 0.0
H451 H 0.60597 0.09055 0.97534 0.0
H452 H 0.57972 0.08966 0.96238 0.0
H453 H 0.58285 0.13772 0.96432 0.0
H454 H 0.51036 0.1378 1.0015 0.0
H455 H 0.53595 0.13749 1.00995 0.0
C456 C 0.40066 0.49454 0.96295 0.0
C457 C 0.3856 0.49426 0.9643 0.0
C458 C 0.41546 0.50938 0.96807 0.0
C459 C 0.43325 0.55463 0.9566 0.0
H460 H 0.46867 0.55567 0.05008 0.0
C461 C 0.49721 0.61266 0.96706 0.0
C462 C 0.50584 0.61647 0.0224 0.0
C463 C 0.48275 0.59767 0.9593 0.0
C464 C 0.45886 0.55566 0.02432 0.0
H465 H 0.37423 0.5093 0.97279 0.0
H466 H 0.39993 0.5351 0.98267 0.0
H467 H 0.44307 0.52988 0.03804 0.0
H468 H 0.50589 0.60731 0.113 0.0
H469 H 0.48034 0.58146 0.10028 0.0
H470 H 0.44877 0.58049 0.94484 0.0
C471 C 0.40041 0.52395 0.9761 0.0
C472 C 0.44424 0.54078 0.01661 0.0
C473 C 0.38565 0.50914 0.97046 0.0
C474 C 0.49952 0.6049 0.06994 0.0
C475 C 0.48496 0.58994 0.06234 0.0
C476 C 0.44782 0.56951 0.96469 0.0
C477 C 0.41552 0.52428 0.97523 0.0
C478 C 0.43123 0.54007 0.98264 0.0
C479 C 0.47639 0.58613 1.00687 0.0
C480 C 0.46084 0.57024 0.99859 0.0
H481 H 0.40101 0.48327 0.95773 0.0
H482 H 0.42685 0.50917 0.96611 0.0
H483 H 0.42361 0.55456 0.92952 0.0
H484 H 0.50151 0.62133 0.92967 0.0
H485 H 0.47664 0.59511 0.91567 0.0
C486 C 0.91237 0.40168 0.99736 0.0
C487 C 0.89712 0.38717 0.99193 0.0
C488 C 0.91318 0.41686 1.00414 0.0
C489 C 0.88849 0.43492 0.05641 0.0
H490 H 0.91956 0.47335 0.9653 0.0
C491 C 0.8837 0.49349 0.04802 0.0
C492 C 0.89821 0.50882 0.04779 0.0
C493 C 0.88427 0.47899 0.04296 0.0
C494 C 0.91097 0.4628 0.99181 0.0
H495 H 0.87079 0.37727 0.98958 0.0
H496 H 0.87221 0.4037 1.00085 0.0
H497 H 0.91933 0.44746 0.95227 0.0
H498 H 0.92474 0.5209 0.0428 0.0
H499 H 0.92576 0.49552 0.03473 0.0
H500 H 0.88016 0.45016 0.09631 0.0
C501 C 0.88354 0.40335 1.0001 0.0
C502 C 0.91082 0.44796 0.98419 0.0
C503 C 0.88274 0.38822 0.99288 0.0
C504 C 0.91333 0.50929 0.04264 0.0
C505 C 0.91391 0.49474 0.03784 0.0
C506 C 0.8887 0.44975 0.0643 0.0
C507 C 0.89875 0.41783 1.00628 0.0
C508 C 0.89944 0.4338 0.01588 0.0
C509 C 0.89936 0.4794 0.03779 0.0
C510 C 0.8998 0.46385 0.03159 0.0
H511 H 0.92368 0.40129 0.99646 0.0
H512 H 0.92508 0.4278 1.00907 0.0
H513 H 0.87979 0.42431 0.0824 0.0
H514 H 0.87183 0.49269 0.05059 0.0
H515 H 0.8728 0.46745 0.04178 0.0
C516 C 0.39373 0.88276 0.04268 0.0
C517 C 0.39292 0.89728 0.04381 0.0
C518 C 0.40875 0.88334 0.03515 0.0
C519 C 0.4534 0.91009 0.05123 0.0
H520 H 0.45528 0.87924 0.93942 0.0
C521 C 0.51437 0.91162 0.99424 0.0
C522 C 0.51367 0.89639 0.98883 0.0
C523 C 0.49995 0.91244 0.99876 0.0
C524 C 0.45496 0.88783 0.97135 0.0
H525 H 0.40734 0.92382 0.03906 0.0
H526 H 0.43366 0.92482 0.02598 0.0
H527 H 0.42963 0.8793 0.9529 0.0
H528 H 0.49724 0.87007 0.98528 0.0
H529 H 0.47221 0.87146 0.99371 0.0
H530 H 0.47867 0.91842 0.07054 0.0
C531 C 0.42262 0.913 0.03101 0.0
C532 C 0.44024 0.88787 0.97898 0.0
C533 C 0.40755 0.91242 0.03806 0.0
C534 C 0.49822 0.88202 0.9881 0.0
C535 C 0.48384 0.88283 0.99291 0.0
C536 C 0.46813 0.90998 0.04389 0.0
C537 C 0.42336 0.89844 0.02886 0.0
C538 C 0.43924 0.89889 0.01939 0.0
C539 C 0.48449 0.89804 0.99831 0.0
C540 C 0.46906 0.89874 1.00423 0.0
H541 H 0.38268 0.87089 0.04621 0.0
H542 H 0.40892 0.87191 0.03437 0.0
H543 H 0.45299 0.91864 0.08308 0.0
H544 H 0.52608 0.92292 0.99445 0.0
H545 H 0.50093 0.92437 1.00204 0.0
C546 C 0.61486 0.49533 0.98444 0.0
C547 C 0.61642 0.51072 0.99669 0.0
C548 C 0.59998 0.48086 0.99406 0.0
C549 C 0.55527 0.46431 0.01778 0.0
H550 H 0.55729 0.42686 0.08094 0.0
C551 C 0.49765 0.40303 0.09232 0.0
C552 C 0.49703 0.38864 0.07077 0.0
C553 C 0.51193 0.41834 0.08541 0.0
C554 C 0.55652 0.43719 0.06301 0.0
H555 H 0.60322 0.52281 0.02739 0.0
H556 H 0.5774 0.49753 0.04602 0.0
H557 H 0.58256 0.45273 0.06442 0.0
H558 H 0.51097 0.37934 0.02335 0.0
H559 H 0.53579 0.40581 1.01297 0.0
H560 H 0.5291 0.44863 0.01721 0.0
C561 C 0.58767 0.49668 0.02812 0.0
C562 C 0.57102 0.45202 0.05322 0.0
C563 C 0.60257 0.51121 0.01808 0.0
C564 C 0.51105 0.39001 0.04213 0.0
C565 C 0.52531 0.40523 0.03582 0.0
C566 C 0.54072 0.44946 0.0281 0.0
C567 C 0.58624 0.4813 0.01685 0.0
C568 C 0.57063 0.46573 0.02961 0.0
C569 C 0.52593 0.41957 0.05735 0.0
C570 C 0.54122 0.43568 0.05004 0.0
H571 H 0.62526 0.49437 0.96882 0.0
H572 H 0.5993 0.46929 0.98371 0.0
H573 H 0.55448 0.47454 0.99905 0.0
H574 H 0.48719 0.40248 0.11514 0.0
H575 H 0.5121 0.42918 0.10285 0.0
C576 C 0.26053 0.41267 0.02747 0.0
C577 C 0.26712 0.41458 0.9689 0.0
C578 C 0.24411 0.40847 0.03532 0.0
C579 C 0.21134 0.41091 0.94848 0.0
H580 H 0.18704 0.39337 0.09846 0.0
C581 C 0.15039 0.40981 0.99567 0.0
C582 C 0.15182 0.4193 0.04701 0.0
C583 C 0.16179 0.4046 0.98558 0.0
C584 C 0.19363 0.39813 0.05607 0.0
H585 H 0.26177 0.41259 0.87276 0.0
H586 H 0.23284 0.40399 0.88594 0.0
H587 H 0.21182 0.39182 0.07986 0.0
H588 H 0.16547 0.42986 0.12987 0.0
H589 H 0.18497 0.42028 0.11337 0.0
H590 H 0.19304 0.41715 0.92497 0.0
C591 C 0.24033 0.40643 0.92615 0.0
C592 C 0.20794 0.39741 0.04552 0.0
C593 C 0.25685 0.41108 0.9184 0.0
C594 C 0.16411 0.42255 0.08995 0.0
C595 C 0.17522 0.41701 0.08065 0.0
C596 C 0.19687 0.41129 0.9585 0.0
C597 C 0.23388 0.40583 0.98462 0.0
C598 C 0.21731 0.40425 0.99232 0.0
C599 C 0.1745 0.40844 0.02748 0.0
C600 C 0.18812 0.40533 1.01306 0.0
H601 H 0.26837 0.41566 0.06703 0.0
H602 H 0.23984 0.40838 0.08109 0.0
H603 H 0.21822 0.41666 0.90751 0.0
H604 H 0.14112 0.40729 0.9616 0.0
H605 H 0.16101 0.39803 0.94418 0.0
C606 C 0.83977 0.25741 0.94552 0.0
C607 C 0.85197 0.26699 0.98798 0.0
C608 C 0.8287 0.24087 0.95729 0.0
C609 C 0.80646 0.21534 0.08207 0.0
H610 H 0.79226 0.17904 0.96972 0.0
C611 C 0.74545 0.15641 0.12521 0.0
C612 C 0.73573 0.14891 0.074 0.0
C613 C 0.76214 0.1679 0.11868 0.0
C614 C 0.79592 0.18903 1.00152 0.0
H615 H 0.86253 0.26678 0.07519 0.0
H616 H 0.84265 0.23783 0.09699 0.0
H617 H 0.81728 0.20499 0.94866 0.0
H618 H 0.73565 0.14708 0.97606 0.0
H619 H 0.76445 0.16767 0.96376 0.0
H620 H 0.78465 0.20028 0.13235 0.0
C621 C 0.84196 0.24309 0.054 0.0
C622 C 0.81038 0.20385 0.98962 0.0
C623 C 0.85335 0.25958 0.04143 0.0
C624 C 0.74305 0.15247 0.01631 0.0
C625 C 0.75964 0.16433 1.00948 0.0
C626 C 0.79183 0.20071 0.09327 0.0
C627 C 0.82933 0.23369 1.0125 0.0
C628 C 0.81562 0.21722 0.02929 0.0
C629 C 0.76933 0.17267 0.06047 0.0
C630 C 0.7861 0.1874 0.05253 0.0
H631 H 0.83844 0.26289 0.90409 0.0
H632 H 0.819 0.23396 0.92484 0.0
H633 H 0.8101 0.22554 0.11293 0.0
H634 H 0.73997 0.1539 0.17015 0.0
H635 H 0.76919 0.17353 0.15934 0.0
C636 C 0.59716 0.74194 0.02458 0.0
C637 C 0.5885 0.73452 0.07827 0.0
C638 C 0.60238 0.75847 1.01249 0.0
C639 C 0.60938 0.79764 0.07722 0.0
H640 H 0.58748 0.80051 0.93257 0.0
C641 C 0.59272 0.84848 0.04491 0.0
C642 C 0.58955 0.85207 0.98632 0.0
C643 C 0.59731 0.83657 0.0535 0.0
C644 C 0.59415 0.80028 0.97224 0.0
H645 H 0.57955 0.73869 0.16323 0.0
H646 H 0.58922 0.76768 0.14328 0.0
H647 H 0.58822 0.77561 0.95322 0.0
H648 H 0.58963 0.84704 0.89055 0.0
H649 H 0.59889 0.82725 0.90458 0.0
H650 H 0.61538 0.8223 0.09649 0.0
C651 C 0.59186 0.76076 0.11031 0.0
C652 C 0.59449 0.78586 0.98413 0.0
C653 C 0.58631 0.74418 0.12171 0.0
C654 C 0.59209 0.84446 0.93617 0.0
C655 C 0.59714 0.83291 0.94451 0.0
C656 C 0.60938 0.81225 0.06469 0.0
C657 C 0.59934 0.7679 0.05455 0.0
C658 C 0.60171 0.78422 0.0375 0.0
C659 C 0.5991 0.82821 1.00346 0.0
C660 C 0.60132 0.81364 1.01285 0.0
H661 H 0.59877 0.73467 0.98996 0.0
H662 H 0.60811 0.76368 0.96913 0.0
H663 H 0.61509 0.7967 0.11865 0.0
H664 H 0.5905 0.85402 0.0843 0.0
H665 H 0.59844 0.83327 0.09968 0.0
C666 C 0.74396 0.58919 0.02699 0.0
C667 C 0.73664 0.58551 0.96939 0.0
C668 C 0.76043 0.59344 0.0337 0.0
C669 C 0.79235 0.58863 0.9497 0.0
H670 H 0.81833 0.61051 0.09213 0.0
C671 C 0.85457 0.59247 0.9968 0.0
C672 C 0.85367 0.58398 0.05057 0.0
C673 C 0.8429 0.59724 0.98508 0.0
C674 C 0.81127 0.60454 0.05179 0.0
H675 H 0.74077 0.58439 0.8733 0.0
H676 H 0.76977 0.5931 0.88385 0.0
H677 H 0.79311 0.61113 0.07243 0.0
H678 H 0.84071 0.57478 0.13583 0.0
H679 H 0.82079 0.58371 0.11654 0.0
H680 H 0.81068 0.5822 0.92919 0.0
C681 C 0.76281 0.59196 0.92457 0.0
C682 C 0.79669 0.60471 0.04069 0.0
C683 C 0.74624 0.58723 0.91819 0.0
C684 C 0.84168 0.58137 0.09415 0.0
C685 C 0.83033 0.58652 0.0832 0.0
C686 C 0.80709 0.58881 0.96007 0.0
C687 C 0.77 0.59441 0.98267 0.0
C688 C 0.78672 0.59633 0.99037 0.0
C689 C 0.83047 0.59399 0.02772 0.0
C690 C 0.81647 0.59638 1.012 0.0
H691 H 0.73666 0.58763 0.06723 0.0
H692 H 0.76525 0.59496 0.07934 0.0
H693 H 0.78504 0.58169 0.91119 0.0
H694 H 0.86357 0.59442 0.96218 0.0
H695 H 0.84322 0.60295 0.94188 0.0
C696 C 0.16748 0.7442 0.93693 0.0
C697 C 0.15524 0.73536 0.98044 0.0
C698 C 0.179 0.76073 0.94621 0.0
C699 C 0.20174 0.78763 0.06789 0.0
H700 H 0.21725 0.8222 0.9467 0.0
C701 C 0.26302 0.84698 0.10455 0.0
C702 C 0.27308 0.85357 0.05325 0.0
C703 C 0.24639 0.83529 0.09803 0.0
C704 C 0.21322 0.81268 0.98096 0.0
H705 H 0.14509 0.73688 0.06695 0.0
H706 H 0.16572 0.76583 0.08435 0.0
H707 H 0.19184 0.79636 0.92931 0.0
H708 H 0.27388 0.8535 0.95507 0.0
H709 H 0.24513 0.8326 0.94312 0.0
H710 H 0.22352 0.80308 0.11755 0.0
C711 C 0.16613 0.75999 0.04249 0.0
C712 C 0.19854 0.79794 0.97113 0.0
C713 C 0.1543 0.74351 0.03241 0.0
C714 C 0.2662 0.84879 0.99521 0.0
C715 C 0.24966 0.83679 0.98858 0.0
C716 C 0.21656 0.8022 0.07719 0.0
C717 C 0.17878 0.76865 0.99996 0.0
C718 C 0.19282 0.78516 0.01404 0.0
C719 C 0.23959 0.82948 0.04001 0.0
C720 C 0.22274 0.81486 0.03332 0.0
H721 H 0.16848 0.73816 0.89659 0.0
H722 H 0.18869 0.76704 0.91298 0.0
H723 H 0.19774 0.77789 0.10132 0.0
H724 H 0.26817 0.85044 0.14979 0.0
H725 H 0.23905 0.8304 0.13878 0.0
C726 C 0.42101 0.16538 0.92262 0.0
C727 C 0.41773 0.15292 0.96501 0.0
C728 C 0.41545 0.17644 0.93261 0.0
C729 C 0.40929 0.19717 0.0577 0.0
H730 H 0.39249 0.21476 0.93577 0.0
C731 C 0.41009 0.25726 0.10527 0.0
C732 C 0.41494 0.2685 0.05701 0.0
C733 C 0.40516 0.2408 0.0945 0.0
C734 C 0.39731 0.21011 0.97032 0.0
H735 H 0.40553 0.14179 0.0499 0.0
H736 H 0.39613 0.16153 0.06843 0.0
H737 H 0.39332 0.18969 0.91474 0.0
H738 H 0.41781 0.27136 0.9594 0.0
H739 H 0.41002 0.24285 0.94033 0.0
H740 H 0.41454 0.21799 0.11163 0.0
C741 C 0.4028 0.16253 0.02698 0.0
C742 C 0.39763 0.19565 0.95836 0.0
C743 C 0.40807 0.1512 0.01625 0.0
C744 C 0.41392 0.26285 0.99731 0.0
C745 C 0.40941 0.24644 0.98655 0.0
C746 C 0.40926 0.21175 0.06926 0.0
C747 C 0.40679 0.1755 0.9859 0.0
C748 C 0.4039 0.1892 1.00155 0.0
C749 C 0.40552 0.23529 0.03528 0.0
C750 C 0.40356 0.21866 0.02532 0.0
H751 H 0.42846 0.16697 0.88279 0.0
H752 H 0.41886 0.18637 0.90046 0.0
H753 H 0.41446 0.19266 0.09146 0.0
H754 H 0.41071 0.26135 0.15175 0.0
H755 H 0.40171 0.23258 0.13311 0.0
C756 C 0.12281 0.42212 0.30144 0.0
C757 C 0.11215 0.42724 0.27864 0.0
C758 C 0.12555 0.42227 0.36437 0.0
C759 C 0.10688 0.42414 0.51237 0.0
H760 H 0.14941 0.43615 0.58057 0.0
C761 C 0.12703 0.45006 0.75204 0.0
C762 C 0.13146 0.44125 0.79193 0.0
C763 C 0.12481 0.44634 0.6902 0.0
C764 C 0.13742 0.43255 0.56196 0.0
H765 H 0.09688 0.43752 0.30315 0.0
H766 H 0.10199 0.43836 0.41151 0.0
H767 H 0.14563 0.43404 0.46985 0.0
H768 H 0.13716 0.4217 0.79839 0.0
H769 H 0.13374 0.41544 0.6884 0.0
H770 H 0.09898 0.42357 0.60423 0.0
C771 C 0.10772 0.43349 0.38186 0.0
C772 C 0.13522 0.43131 0.4986 0.0
C773 C 0.10484 0.43312 0.31953 0.0
C774 C 0.13375 0.42865 0.76845 0.0
C775 C 0.13187 0.42514 0.70584 0.0
C776 C 0.10916 0.42562 0.57526 0.0
C777 C 0.11781 0.42773 0.40554 0.0
C778 C 0.11999 0.42749 0.47288 0.0
C779 C 0.12724 0.4339 0.66641 0.0
C780 C 0.1245 0.43012 0.6006 0.0
H781 H 0.12858 0.4175 0.27081 0.0
H782 H 0.13339 0.41772 0.38076 0.0
H783 H 0.09483 0.42064 0.49469 0.0
H784 H 0.12496 0.45967 0.769 0.0
H785 H 0.12124 0.45325 0.66071 0.0
C786 C 0.69341 0.12624 0.3165 0.0
C787 C 0.68529 0.11019 0.29306 0.0
C788 C 0.69623 0.12895 0.37911 0.0
C789 C 0.67999 0.10811 0.52603 0.0
H790 H 0.72038 0.14347 0.59243 0.0
C791 C 0.69071 0.11566 0.78472 0.0
C792 C 0.69783 0.13168 0.80811 0.0
C793 C 0.69051 0.113 0.72207 0.0
C794 C 0.70896 0.13363 0.57461 0.0
H795 H 0.67462 0.08448 0.31707 0.0
H796 H 0.67945 0.08918 0.42573 0.0
H797 H 0.7176 0.13912 0.48252 0.0
H798 H 0.71101 0.15747 0.78348 0.0
H799 H 0.71027 0.15284 0.67442 0.0
H800 H 0.67118 0.10274 0.61755 0.0
C801 C 0.68333 0.09967 0.39595 0.0
C802 C 0.70738 0.13114 0.51161 0.0
C803 C 0.68055 0.09698 0.33355 0.0
C804 C 0.7052 0.14497 0.76721 0.0
C805 C 0.70495 0.14231 0.70454 0.0
C806 C 0.68153 0.11062 0.58885 0.0
C807 C 0.69097 0.11566 0.41966 0.0
C808 C 0.69287 0.11833 0.48659 0.0
C809 C 0.69737 0.12628 0.68105 0.0
C810 C 0.69603 0.12341 0.61406 0.0
H811 H 0.69711 0.1367 0.28683 0.0
H812 H 0.70204 0.14142 0.39594 0.0
H813 H 0.66853 0.09832 0.50824 0.0
H814 H 0.68482 0.1051 0.81449 0.0
H815 H 0.68481 0.10049 0.70574 0.0
C816 C 0.58955 0.68837 0.33362 0.0
C817 C 0.57603 0.68506 0.29721 0.0
C818 C 0.58948 0.69144 0.39571 0.0
C819 C 0.56612 0.69958 0.51618 0.0
H820 H 0.58906 0.68477 0.6218 0.0
C821 C 0.56722 0.70834 0.77672 0.0
C822 C 0.56729 0.69623 0.81381 0.0
C823 C 0.56948 0.70827 0.71383 0.0
C824 C 0.58237 0.68879 0.59331 0.0
H825 H 0.55186 0.68238 0.29628 0.0
H826 H 0.55118 0.68681 0.40538 0.0
H827 H 0.58997 0.68176 0.51308 0.0
H828 H 0.56945 0.67442 0.81471 0.0
H829 H 0.57256 0.6737 0.70512 0.0
H830 H 0.5575 0.70547 0.59682 0.0
C831 C 0.56219 0.68771 0.38615 0.0
C832 C 0.58318 0.68738 0.53034 0.0
C833 C 0.56248 0.68507 0.32363 0.0
C834 C 0.56964 0.68405 0.78706 0.0
C835 C 0.57151 0.68373 0.72412 0.0
C836 C 0.56499 0.70065 0.5793 0.0
C837 C 0.57565 0.69079 0.42333 0.0
C838 C 0.57506 0.69274 0.49067 0.0
C839 C 0.57144 0.69583 0.6864 0.0
C840 C 0.57306 0.69522 0.6189 0.0
H841 H 0.6002 0.6886 0.3138 0.0
H842 H 0.6003 0.69426 0.42193 0.0
H843 H 0.55992 0.70414 0.48754 0.0
H844 H 0.56553 0.71791 0.79659 0.0
H845 H 0.56971 0.71803 0.68692 0.0
C846 C 0.87503 0.5665 0.30891 0.0
C847 C 0.8908 0.57789 0.28767 0.0
C848 C 0.87122 0.56555 0.37102 0.0
C849 C 0.88513 0.58819 0.51751 0.0
H850 H 0.86305 0.54472 0.58921 0.0
C851 C 0.88472 0.57694 0.77751 0.0
C852 C 0.8711 0.56313 0.80297 0.0
C853 C 0.88572 0.57974 0.71456 0.0
C854 C 0.86896 0.55697 0.57006 0.0
H855 H 0.91464 0.59777 0.31471 0.0
H856 H 0.90807 0.5961 0.42263 0.0
H857 H 0.86702 0.54775 0.47965 0.0
H858 H 0.84735 0.54211 0.78286 0.0
H859 H 0.84884 0.54716 0.67366 0.0
H860 H 0.88718 0.59743 0.60804 0.0
C861 C 0.89861 0.58787 0.39151 0.0
C862 C 0.87125 0.55869 0.507 0.0
C863 C 0.90244 0.58872 0.32965 0.0
C864 C 0.85812 0.5527 0.76449 0.0
C865 C 0.85904 0.55556 0.70176 0.0
C866 C 0.88275 0.58647 0.58065 0.0
C867 C 0.88304 0.57609 0.41323 0.0
C868 C 0.87953 0.57432 0.47991 0.0
C869 C 0.87305 0.56887 0.67559 0.0
C870 C 0.87478 0.57083 0.60794 0.0
H871 H 0.86581 0.55792 0.27791 0.0
H872 H 0.85905 0.55644 0.38611 0.0
H873 H 0.89138 0.60042 0.4981 0.0
H874 H 0.89499 0.58511 0.8058 0.0
H875 H 0.89677 0.59003 0.69627 0.0
C876 C 0.31127 0.88448 0.77967 0.0
C877 C 0.31093 0.87063 0.80537 0.0
C878 C 0.3094 0.88543 0.71675 0.0
C879 C 0.31442 0.86782 0.57265 0.0
H880 H 0.29462 0.89135 0.5004 0.0
C881 C 0.31149 0.87403 0.31148 0.0
C882 C 0.31642 0.88993 0.29023 0.0
C883 C 0.30842 0.87024 0.37355 0.0
C884 C 0.30024 0.88478 0.51989 0.0
H885 H 0.30719 0.84646 0.78585 0.0
H886 H 0.30354 0.84787 0.67673 0.0
H887 H 0.29334 0.88728 0.61044 0.0
H888 H 0.3211 0.91403 0.31712 0.0
H889 H 0.31583 0.9075 0.42495 0.0
H890 H 0.32146 0.86546 0.48227 0.0
C891 C 0.30579 0.85827 0.70459 0.0
C892 C 0.29955 0.88248 0.58307 0.0
C893 C 0.30779 0.8574 0.76725 0.0
C894 C 0.31753 0.90173 0.33209 0.0
C895 C 0.31434 0.89792 0.3939 0.0
C896 C 0.31504 0.87004 0.50955 0.0
C897 C 0.30702 0.87248 0.67812 0.0
C898 C 0.30679 0.87411 0.61046 0.0
C899 C 0.31003 0.88222 0.41568 0.0
C900 C 0.30814 0.87872 0.48237 0.0
H901 H 0.31382 0.89493 0.80771 0.0
H902 H 0.31058 0.89663 0.6982 0.0
H903 H 0.32043 0.86159 0.59188 0.0
H904 H 0.3106 0.86468 0.28054 0.0
H905 H 0.30495 0.85796 0.38869 0.0
C906 C 0.44238 0.32746 0.31892 0.0
C907 C 0.42727 0.31631 0.29245 0.0
C908 C 0.44473 0.32723 0.38177 0.0
C909 C 0.42127 0.31195 0.52669 0.0
H910 H 0.46337 0.32136 0.59151 0.0
C911 C 0.43521 0.32058 0.78423 0.0
C912 C 0.44539 0.31508 0.80882 0.0
C913 C 0.43287 0.32042 0.72136 0.0
C914 C 0.45146 0.31851 0.57425 0.0
H915 H 0.40303 0.29573 0.31077 0.0
H916 H 0.40716 0.29506 0.41956 0.0
H917 H 0.45973 0.32144 0.48196 0.0
H918 H 0.46063 0.30456 0.78692 0.0
H919 H 0.45624 0.30385 0.67741 0.0
H920 H 0.41282 0.30846 0.61871 0.0
C921 C 0.41707 0.30437 0.39247 0.0
C922 C 0.44945 0.31881 0.51128 0.0
C923 C 0.41469 0.30472 0.32993 0.0
C924 C 0.45288 0.30907 0.76924 0.0
C925 C 0.45042 0.30875 0.70641 0.0
C926 C 0.42324 0.31153 0.58955 0.0
C927 C 0.43206 0.31571 0.41946 0.0
C928 C 0.43432 0.31553 0.4866 0.0
C929 C 0.44052 0.3146 0.68149 0.0
C930 C 0.43837 0.31483 0.61429 0.0
H931 H 0.45225 0.33659 0.29119 0.0
H932 H 0.45637 0.33629 0.4009 0.0
H933 H 0.40951 0.3096 0.50961 0.0
H934 H 0.42948 0.32553 0.81346 0.0
H935 H 0.42539 0.32527 0.704 0.0
C936 C 0.55773 0.85592 0.27143 0.0
C937 C 0.56802 0.86902 0.23292 0.0
C938 C 0.56059 0.8568 0.3341 0.0
C939 C 0.59132 0.88064 0.45485 0.0
H940 H 0.55253 0.86441 0.55634 0.0
C941 C 0.59326 0.90011 0.70562 0.0
C942 C 0.58248 0.88841 0.74777 0.0
C943 C 0.59249 0.89629 0.64383 0.0
C944 C 0.56349 0.86878 0.52886 0.0
H945 H 0.58975 0.89311 0.22994 0.0
H946 H 0.59467 0.89481 0.3394 0.0
H947 H 0.54955 0.86053 0.44682 0.0
H948 H 0.56268 0.86333 0.75796 0.0
H949 H 0.56133 0.85659 0.64985 0.0
H950 H 0.60523 0.88931 0.53721 0.0
C951 C 0.58449 0.8837 0.32117 0.0
C952 C 0.5618 0.86654 0.46582 0.0
C953 C 0.58169 0.88274 0.25827 0.0
C954 C 0.57122 0.87259 0.7268 0.0
C955 C 0.57035 0.86879 0.66475 0.0
C956 C 0.59301 0.88296 0.51796 0.0
C957 C 0.57375 0.87089 0.36016 0.0
C958 C 0.57568 0.87255 0.42777 0.0
C959 C 0.58083 0.88068 0.62236 0.0
C960 C 0.57911 0.87718 0.55573 0.0
H961 H 0.54725 0.84507 0.25314 0.0
H962 H 0.55229 0.8465 0.36226 0.0
H963 H 0.60229 0.88522 0.4273 0.0
H964 H 0.60221 0.91234 0.72036 0.0
H965 H 0.60067 0.90579 0.61256 0.0
C966 C 0.70429 0.58259 0.71711 0.0
C967 C 0.68839 0.57689 0.73997 0.0
C968 C 0.70695 0.58253 0.65419 0.0
C969 C 0.68605 0.57953 0.50589 0.0
H970 H 0.71804 0.56941 0.43843 0.0
C971 C 0.68182 0.55395 0.26628 0.0
C972 C 0.69497 0.56327 0.22652 0.0
C973 C 0.68308 0.55762 0.32815 0.0
C974 C 0.70923 0.57248 0.45683 0.0
H975 H 0.66275 0.56572 0.71544 0.0
H976 H 0.66718 0.56505 0.60711 0.0
H977 H 0.71611 0.57146 0.54906 0.0
H978 H 0.71982 0.58366 0.22039 0.0
H979 H 0.72225 0.58984 0.33042 0.0
H980 H 0.67858 0.5796 0.41389 0.0
C981 C 0.67778 0.57029 0.63672 0.0
C982 C 0.70811 0.57368 0.52015 0.0
C983 C 0.67519 0.57057 0.69907 0.0
C984 C 0.70953 0.57632 0.2502 0.0
C985 C 0.71093 0.57978 0.31284 0.0
C986 C 0.687 0.57806 0.44303 0.0
C987 C 0.69372 0.57658 0.613 0.0
C988 C 0.69621 0.57684 0.54564 0.0
C989 C 0.69762 0.57052 0.35213 0.0
C990 C 0.69838 0.57425 0.41795 0.0
H991 H 0.71468 0.58755 0.74773 0.0
H992 H 0.7194 0.58751 0.63781 0.0
H993 H 0.67709 0.5825 0.52333 0.0
H994 H 0.67038 0.54399 0.24918 0.0
H995 H 0.67265 0.55032 0.3575 0.0
C996 C 0.14973 0.69955 0.26883 0.0
C997 C 0.13679 0.69717 0.23044 0.0
C998 C 0.14891 0.70157 0.33151 0.0
C999 C 0.12568 0.70934 0.45252 0.0
H1000 H 0.14078 0.68574 0.55374 0.0
C1001 C 0.10591 0.6921 0.70359 0.0
C1002 C 0.11743 0.6926 0.74555 0.0
C1003 C 0.10976 0.69507 0.64173 0.0
C1004 C 0.13673 0.69263 0.52633 0.0
H1005 H 0.11307 0.69564 0.22767 0.0
H1006 H 0.11146 0.69892 0.33715 0.0
H1007 H 0.14467 0.68661 0.44418 0.0
H1008 H 0.14224 0.69708 0.75532 0.0
H1009 H 0.14904 0.70235 0.64712 0.0
H1010 H 0.11732 0.71492 0.53502 0.0
C1011 C 0.12241 0.69949 0.31881 0.0
C1012 C 0.13898 0.69315 0.46327 0.0
C1013 C 0.12331 0.6976 0.2559 0.0
C1014 C 0.13312 0.69668 0.72432 0.0
C1015 C 0.13695 0.69953 0.66221 0.0
C1016 C 0.12336 0.70874 0.51567 0.0
C1017 C 0.13504 0.70111 0.3577 0.0
C1018 C 0.13338 0.7014 0.42532 0.0
C1019 C 0.12523 0.69855 0.62002 0.0
C1020 C 0.12873 0.70025 0.55334 0.0
H1021 H 0.1604 0.69954 0.25044 0.0
H1022 H 0.15908 0.70322 0.35957 0.0
H1023 H 0.12143 0.71603 0.42505 0.0
H1024 H 0.09379 0.68919 0.71853 0.0
H1025 H 0.10039 0.69408 0.61062 0.0
C1026 C 0.4259 0.12158 0.24132 0.0
C1027 C 0.43883 0.136 0.21602 0.0
C1028 C 0.42307 0.12024 0.30427 0.0
C1029 C 0.44513 0.13805 0.44862 0.0
H1030 H 0.40185 0.1133 0.52074 0.0
C1031 C 0.43603 0.13161 0.70973 0.0
C1032 C 0.42502 0.11577 0.73148 0.0
C1033 C 0.43678 0.13526 0.64753 0.0
C1034 C 0.41404 0.12018 0.50132 0.0
H1035 H 0.45817 0.16069 0.23654 0.0
H1036 H 0.45313 0.1585 0.34578 0.0
H1037 H 0.4046 0.11747 0.41075 0.0
H1038 H 0.4056 0.0916 0.705 0.0
H1039 H 0.40704 0.09785 0.597 0.0
H1040 H 0.45459 0.14058 0.53888 0.0
C1041 C 0.44545 0.14802 0.31744 0.0
C1042 C 0.41561 0.12256 0.43817 0.0
C1043 C 0.44831 0.14931 0.25471 0.0
C1044 C 0.41439 0.10386 0.68979 0.0
C1045 C 0.41509 0.10751 0.62781 0.0
C1046 C 0.44356 0.1357 0.51166 0.0
C1047 C 0.43306 0.13333 0.34335 0.0
C1048 C 0.4312 0.13142 0.41088 0.0
C1049 C 0.42645 0.12319 0.60564 0.0
C1050 C 0.428 0.1266 0.53886 0.0
H1051 H 0.41848 0.11104 0.2129 0.0
H1052 H 0.4135 0.10869 0.32251 0.0
H1053 H 0.45735 0.14468 0.42933 0.0
H1054 H 0.44444 0.14106 0.7404 0.0
H1055 H 0.44555 0.14753 0.63219 0.0
C1056 C 0.32833 0.43088 0.69102 0.0
C1057 C 0.31504 0.42498 0.73155 0.0
C1058 C 0.32601 0.43147 0.62861 0.0
C1059 C 0.29645 0.42952 0.51116 0.0
H1060 H 0.32541 0.4225 0.40557 0.0
C1061 C 0.29508 0.42681 0.24143 0.0
C1062 C 0.30983 0.43954 0.21736 0.0
C1063 C 0.29361 0.42336 0.30416 0.0
C1064 C 0.31716 0.42436 0.43452 0.0
H1065 H 0.28889 0.41541 0.73869 0.0
H1066 H 0.2846 0.41594 0.62867 0.0
H1067 H 0.32659 0.41944 0.51506 0.0
H1068 H 0.33468 0.45826 0.23935 0.0
H1069 H 0.33228 0.45194 0.34785 0.0
H1070 H 0.28696 0.43421 0.42917 0.0
C1071 C 0.29694 0.42039 0.64533 0.0
C1072 C 0.31794 0.42281 0.49745 0.0
C1073 C 0.29934 0.42004 0.70832 0.0
C1074 C 0.32311 0.44853 0.25678 0.0
C1075 C 0.32177 0.44487 0.31875 0.0
C1076 C 0.29549 0.43079 0.44779 0.0
C1077 C 0.31024 0.4259 0.60445 0.0
C1078 C 0.30797 0.42587 0.53698 0.0
C1079 C 0.30703 0.43231 0.34315 0.0
C1080 C 0.30613 0.42862 0.40913 0.0
H1081 H 0.34062 0.43512 0.70777 0.0
H1082 H 0.33669 0.43638 0.59931 0.0
H1083 H 0.28862 0.43204 0.53984 0.0
H1084 H 0.2847 0.41972 0.21187 0.0
H1085 H 0.28213 0.41356 0.32204 0.0
C1086 C 0.87299 0.3058 0.72859 0.0
C1087 C 0.88879 0.3103 0.7496 0.0
C1088 C 0.86918 0.30288 0.66655 0.0
C1089 C 0.88317 0.2942 0.51997 0.0
H1090 H 0.86098 0.31546 0.44839 0.0
C1091 C 0.88284 0.30509 0.25997 0.0
C1092 C 0.86922 0.30524 0.23463 0.0
C1093 C 0.88381 0.30326 0.32291 0.0
C1094 C 0.86691 0.30915 0.4675 0.0
H1095 H 0.91268 0.31439 0.72227 0.0
H1096 H 0.9061 0.30937 0.61447 0.0
H1097 H 0.86491 0.31641 0.5579 0.0
H1098 H 0.84543 0.30243 0.2549 0.0
H1099 H 0.84685 0.2988 0.36406 0.0
H1100 H 0.88529 0.28705 0.42944 0.0
C1101 C 0.89662 0.30811 0.64571 0.0
C1102 C 0.86919 0.30973 0.53054 0.0
C1103 C 0.90046 0.31115 0.70749 0.0
C1104 C 0.8562 0.30263 0.27319 0.0
C1105 C 0.85709 0.30065 0.33589 0.0
C1106 C 0.88081 0.29354 0.45685 0.0
C1107 C 0.88103 0.30421 0.6242 0.0
C1108 C 0.87751 0.30243 0.55758 0.0
C1109 C 0.8711 0.30139 0.36196 0.0
C1110 C 0.8728 0.30116 0.42959 0.0
H1111 H 0.86375 0.30512 0.75971 0.0
H1112 H 0.85699 0.29974 0.65162 0.0
H1113 H 0.88946 0.28828 0.53935 0.0
H1114 H 0.89314 0.30724 0.23161 0.0
H1115 H 0.89487 0.30405 0.34111 0.0
C1116 C 0.06557 0.39124 0.02766 0.0
C1117 C 0.07078 0.39792 0.96912 0.0
C1118 C 0.04896 0.38052 0.03985 0.0
C1119 C 0.00874 0.3527 0.97157 0.0
H1120 H 0.99145 0.36665 0.10428 0.0
C1121 C 0.93926 0.32863 1.00111 0.0
C1122 C 0.93298 0.32835 0.05943 0.0
C1123 C 0.95608 0.33489 0.99215 0.0
C1124 C 0.99602 0.36226 0.06793 0.0
H1125 H 0.06265 0.39746 0.8764 0.0
H1126 H 0.0337 0.37845 0.89759 0.0
H1127 H 0.0208 0.38108 0.08476 0.0
H1128 H 0.93939 0.3331 0.15492 0.0
H1129 H 0.96849 0.34322 0.13985 0.0
H1130 H 0.98403 0.33376 0.95496 0.0
C1131 C 0.0425 0.38175 0.93417 0.0
C1132 C 0.01289 0.37064 0.0566 0.0
C1133 C 0.0591 0.39268 0.92213 0.0
C1134 C 0.9438 0.3334 0.10914 0.0
C1135 C 0.96058 0.33938 0.10036 0.0
C1136 C 0.99185 0.34412 0.98349 0.0
C1137 C 0.0372 0.37593 0.99352 0.0
C1138 C 0.01942 0.3661 1.00785 0.0
C1139 C 0.96706 0.3407 0.04151 0.0
C1140 C 0.98519 0.34892 0.03136 0.0
H1141 H 0.07425 0.39461 0.06458 0.0
H1142 H 0.04525 0.376 0.08582 0.0
H1143 H 0.01347 0.34887 0.93396 0.0
H1144 H 0.93128 0.32447 0.96191 0.0
H1145 H 0.96048 0.33572 0.94606 0.0
C1146 C 0.61497 0.93839 0.99634 0.0
C1147 C 0.60876 0.93272 0.0551 0.0
C1148 C 0.62557 0.9551 0.98537 0.0
C1149 C 0.65408 0.99487 0.0536 0.0
H1150 H 0.63617 0.01269 0.93733 0.0
C1151 C 0.67342 0.06361 0.0473 0.0
C1152 C 0.6704 0.0701 0.99469 0.0
C1153 C 0.66956 0.04718 0.049 0.0
C1154 C 0.64175 0.00806 0.96868 0.0
H1155 H 0.61002 0.94011 0.14934 0.0
H1156 H 0.62888 0.96924 0.13019 0.0
H1157 H 0.62303 0.98327 0.95148 0.0
H1158 H 0.66229 0.0652 0.90129 0.0
H1159 H 0.65687 0.03701 0.90209 0.0
H1160 H 0.67296 0.0196 0.07047 0.0
C1161 C 0.62526 0.96072 0.09255 0.0
C1162 C 0.63406 0.99109 0.97707 0.0
C1163 C 0.61441 0.94403 0.10338 0.0
C1164 C 0.66479 0.06042 0.94227 0.0
C1165 C 0.6614 0.04416 0.9433 0.0
C1166 C 0.66204 0.01189 0.04426 0.0
C1167 C 0.63055 0.96647 0.03316 0.0
C1168 C 0.63993 0.98435 0.0204 0.0
C1169 C 0.66286 0.037 0.99764 0.0
C1170 C 0.65579 0.01879 1.00254 0.0
H1171 H 0.61131 0.93001 0.95835 0.0
H1172 H 0.62964 0.9592 0.93925 0.0
H1173 H 0.65891 0.98994 0.08705 0.0
H1174 H 0.67744 0.07079 0.08867 0.0
H1175 H 0.67077 0.04227 0.09197 0.0
C1176 C 0.67696 0.61206 0.9903 0.0
C1177 C 0.67685 0.60633 0.04955 0.0
C1178 C 0.67103 0.6228 0.9791 0.0
C1179 C 0.66137 0.65263 0.04548 0.0
H1180 H 0.6239 0.63375 0.93735 0.0
C1181 C 0.61278 0.67302 0.0462 0.0
C1182 C 0.60224 0.66918 0.99626 0.0
C1183 C 0.62527 0.66904 0.04565 0.0
C1184 C 0.6346 0.63961 0.96629 0.0
H1185 H 0.67175 0.60864 0.14422 0.0
H1186 H 0.66185 0.62777 0.12462 0.0
H1187 H 0.63995 0.62033 0.95015 0.0
H1188 H 0.59721 0.65958 0.90479 0.0
H1189 H 0.61985 0.65401 0.90119 0.0
H1190 H 0.65626 0.67207 0.06119 0.0
C1191 C 0.66624 0.62364 0.08681 0.0
C1192 C 0.64374 0.63175 0.97395 0.0
C1193 C 0.67185 0.61262 0.09791 0.0
C1194 C 0.60528 0.66272 0.94372 0.0
C1195 C 0.61808 0.65923 0.94233 0.0
C1196 C 0.65245 0.66076 0.03676 0.0
C1197 C 0.66532 0.62844 0.0271 0.0
C1198 C 0.65698 0.63798 0.01452 0.0
C1199 C 0.62767 0.66143 0.99453 0.0
C1200 C 0.63866 0.65416 0.99805 0.0
H1201 H 0.68117 0.60791 0.95217 0.0
H1202 H 0.67062 0.62648 0.9327 0.0
H1203 H 0.67162 0.65773 0.07677 0.0
H1204 H 0.61047 0.67774 0.08767 0.0
H1205 H 0.63217 0.67088 0.08706 0.0
C1206 C 0.0617 0.66858 0.10193 0.0
C1207 C 0.07314 0.67497 0.05395 0.0
C1208 C 0.04498 0.66245 0.09114 0.0
C1209 C 0.01481 0.64273 0.97144 0.0
H1210 H 0.98592 0.65037 0.07484 0.0
C1211 C 0.94538 0.60944 0.92465 0.0
C1212 C 0.9348 0.60375 0.9752 0.0
C1213 C 0.96215 0.62047 0.93202 0.0
C1214 C 0.99375 0.64792 0.04584 0.0
H1215 H 0.07598 0.68115 0.95791 0.0
H1216 H 0.04676 0.66996 0.93886 0.0
H1217 H 0.01548 0.66539 0.09316 0.0
H1218 H 0.93351 0.60625 0.07276 0.0
H1219 H 0.96273 0.62464 0.08617 0.0
H1220 H 0.99329 0.62473 0.92594 0.0
C1221 C 0.05077 0.66955 0.98467 0.0
C1222 C 0.01071 0.65663 0.05622 0.0
C1223 C 0.06752 0.6759 0.99561 0.0
C1224 C 0.9413 0.61002 0.03294 0.0
C1225 C 0.95813 0.62083 0.04049 0.0
C1226 C 0.99787 0.63384 0.96164 0.0
C1227 C 0.03929 0.66245 0.03208 0.0
C1228 C 0.0214 0.65406 0.01928 0.0
C1229 C 0.96888 0.62595 0.99027 0.0
C1230 C 0.98705 0.63622 0.99888 0.0
H1231 H 0.06557 0.66777 0.14756 0.0
H1232 H 0.03641 0.65703 0.12856 0.0
H1233 H 0.02272 0.6403 0.9428 0.0
H1234 H 0.94079 0.60512 0.87929 0.0
H1235 H 0.96987 0.62448 0.8919 0.0
C1236 C 0.33991 0.9457 0.93473 0.0
C1237 C 0.33455 0.93442 0.9833 0.0
C1238 C 0.34563 0.96237 0.94526 0.0
C1239 C 0.36657 0.99332 0.06053 0.0
H1240 H 0.35433 0.02029 0.96574 0.0
C1241 C 0.39861 0.0629 0.10221 0.0
C1242 C 0.40232 0.07311 0.05094 0.0
C1243 C 0.38783 0.04599 0.09775 0.0
C1244 C 0.35808 0.01302 0.99223 0.0
H1245 H 0.32989 0.93179 0.08051 0.0
H1246 H 0.34047 0.96093 0.09899 0.0
H1247 H 0.34029 0.99069 0.94898 0.0
H1248 H 0.39659 0.07358 0.9557 0.0
H1249 H 0.37866 0.04417 0.94691 0.0
H1250 H 0.38495 0.01546 0.10145 0.0
C1251 C 0.34032 0.95682 0.05287 0.0
C1252 C 0.34992 0.99603 0.98278 0.0
C1253 C 0.33433 0.94013 0.04222 0.0
C1254 C 0.39428 0.06609 0.99592 0.0
C1255 C 0.38377 0.04913 0.9911 0.0
C1256 C 0.37494 0.0103 0.06919 0.0
C1257 C 0.34628 0.96815 1.00464 0.0
C1258 C 0.35415 0.98603 0.01666 0.0
C1259 C 0.38068 0.03875 0.04161 0.0
C1260 C 0.37092 0.02047 0.03492 0.0
H1261 H 0.34015 0.94176 0.88867 0.0
H1262 H 0.35019 0.97085 0.90725 0.0
H1263 H 0.37024 0.98592 0.08671 0.0
H1264 H 0.40435 0.06791 0.14564 0.0
H1265 H 0.38539 0.03857 0.13828 0.0
C1266 C 0.32972 0.39149 0.99751 0.0
C1267 C 0.33311 0.40128 0.04979 0.0
C1268 C 0.33753 0.38231 0.98801 0.0
C1269 C 0.35161 0.35867 0.99659 0.0
H1270 H 0.39879 0.38407 0.01868 0.0
C1271 C 0.39575 0.33182 1.00237 0.0
C1272 C 0.41085 0.34092 0.97185 0.0
C1273 C 0.3848 0.33778 1.00654 0.0
C1274 C 0.38564 0.37683 1.01197 0.0
H1275 H 0.34669 0.40832 0.13465 0.0
H1276 H 0.36032 0.39245 0.11775 0.0
H1277 H 0.38205 0.3966 0.03966 0.0
H1278 H 0.4258 0.36298 0.91894 0.0
H1279 H 0.40678 0.37336 0.92674 0.0
H1280 H 0.35532 0.33882 0.9695 0.0
C1281 C 0.35173 0.39199 0.08393 0.0
C1282 C 0.37604 0.38396 0.02457 0.0
C1283 C 0.34381 0.401 0.09373 0.0
C1284 C 0.41434 0.35567 0.94302 0.0
C1285 C 0.40348 0.36168 0.94775 0.0
C1286 C 0.36123 0.35143 0.98483 0.0
C1287 C 0.34898 0.38287 0.03034 0.0
C1288 C 0.35893 0.37498 0.0171 0.0
C1289 C 0.38879 0.35301 0.98079 0.0
C1290 C 0.37837 0.36049 0.99215 0.0
H1291 H 0.32142 0.3913 0.96304 0.0
H1292 H 0.33518 0.37539 0.94629 0.0
H1293 H 0.33845 0.35147 0.99053 0.0
H1294 H 0.39262 0.32035 0.02464 0.0
H1295 H 0.37356 0.33084 0.03235 0.0
loop_
_geom_bond_atom_site_label_1
_geom_bond_atom_site_label_2
_geom_bond_distance
_geom_bond_site_symmetry_2
_ccdc_geom_bond_type
C0 C1 1.351 . S
C0 N3 1.368 . S
C0 H5 0.931 . S
C1 C0 1.351 . S
C1 N2 1.373 . S
C1 H29 0.930 . S
N2 C1 1.373 . S
N2 C4 1.340 . S
N3 C0 1.368 . S
N3 C4 1.321 . S
N3 Co6 2.135 1_556 S
C4 N2 1.340 . S
C4 N3 1.321 . S
C4 H28 0.930 . S
H5 C0 0.931 . S
Co6 N3 2.135 1_554 S
Co6 N9 2.121 . S
Co6 O14 2.055 . S
Co6 O17 2.039 1_554 S
Co6 N20 2.140 1_554 S
C7 O8 1.227 . S
C7 O17 1.265 . S
O8 C7 1.227 . S
N9 Co6 2.121 . S
N9 C11 1.375 . S
N9 C12 1.313 . S
C10 C11 1.338 . S
C10 N13 1.377 . S
C10 H30 0.930 . S
C11 N9 1.375 . S
C11 C10 1.338 . S
C11 H15 0.931 . S
C12 N9 1.313 . S
C12 N13 1.344 . S
C12 H16 0.930 . S
N13 C10 1.377 . S
N13 C12 1.344 . S
O14 Co6 2.055 . S
O14 C18 1.253 . S
H15 C11 0.931 . S
H16 C12 0.930 . S
O17 Co6 2.039 1_556 S
O17 C7 1.265 . S
C18 O14 1.253 . S
C18 O19 1.227 . S
O19 C18 1.227 . S
N20 Co6 2.140 1_556 S
N20 C23 1.349 . S
N20 C24 1.342 1_556 S
C21 C22 1.387 . S
C21 C25 1.391 1_556 S
C22 C21 1.387 . S
C22 C23 1.369 . S
C22 H31 0.929 . S
C23 N20 1.349 . S
C23 C22 1.369 . S
C23 H26 0.928 . S
C24 N20 1.342 1_554 S
C24 C25 1.371 . S
C24 H27 0.931 . S
C25 C21 1.391 1_554 S
C25 C24 1.371 . S
C25 H32 0.930 . S
H26 C23 0.928 . S
H27 C24 0.931 . S
H28 C4 0.930 . S
H29 C1 0.930 . S
H30 C10 0.930 . S
H31 C22 0.929 . S
H32 C25 0.930 . S
C33 C34 1.351 . S
C33 N36 1.368 . S
C33 H38 0.931 . S
C34 C33 1.351 . S
C34 N35 1.373 . S
C34 H62 0.930 . S
N35 C34 1.373 . S
N35 C37 1.340 . S
N36 C33 1.368 . S
N36 C37 1.321 . S
N36 Co39 2.135 1_556 S
C37 N35 1.340 . S
C37 N36 1.321 . S
C37 H61 0.930 . S
H38 C33 0.931 . S
Co39 N36 2.135 1_554 S
Co39 N42 2.121 . S
Co39 O47 2.055 . S
Co39 O50 2.039 1_554 S
Co39 N53 2.140 1_554 S
C40 O41 1.227 . S
C40 O50 1.265 . S
O41 C40 1.227 . S
N42 Co39 2.121 . S
N42 C44 1.375 . S
N42 C45 1.313 . S
C43 C44 1.338 . S
C43 N46 1.377 . S
C43 H63 0.930 . S
C44 N42 1.375 . S
C44 C43 1.338 . S
C44 H48 0.931 . S
C45 N42 1.313 . S
C45 N46 1.344 . S
C45 H49 0.930 . S
N46 C43 1.377 . S
N46 C45 1.344 . S
O47 Co39 2.055 . S
O47 C51 1.253 . S
H48 C44 0.931 . S
H49 C45 0.930 . S
O50 Co39 2.039 1_556 S
O50 C40 1.265 . S
C51 O47 1.253 . S
C51 O52 1.227 . S
O52 C51 1.227 . S
N53 Co39 2.140 1_556 S
N53 C56 1.348 . S
N53 C57 1.343 1_556 S
C54 C55 1.387 . S
C54 C58 1.391 1_556 S
C55 C54 1.387 . S
C55 C56 1.369 . S
C55 H64 0.929 . S
C56 N53 1.348 . S
C56 C55 1.369 . S
C56 H59 0.928 . S
C57 N53 1.343 1_554 S
C57 C58 1.371 . S
C57 H60 0.931 . S
C58 C54 1.391 1_554 S
C58 C57 1.371 . S
C58 H65 0.930 . S
H59 C56 0.928 . S
H60 C57 0.931 . S
H61 C37 0.930 . S
H62 C34 0.930 . S
H63 C43 0.930 . S
H64 C55 0.929 . S
H65 C58 0.930 . S
C66 C67 1.351 . S
C66 N69 1.368 . S
C66 H71 0.931 . S
C67 C66 1.351 . S
C67 N68 1.373 . S
C67 H95 0.930 . S
N68 C67 1.373 . S
N68 C70 1.340 . S
N69 C66 1.368 . S
N69 C70 1.321 . S
N69 Co72 2.135 1_556 S
C70 N68 1.340 . S
C70 N69 1.321 . S
C70 H94 0.930 . S
H71 C66 0.931 . S
Co72 N69 2.135 1_554 S
Co72 N75 2.121 . S
Co72 O80 2.055 . S
Co72 O83 2.039 1_554 S
Co72 N86 2.140 1_554 S
C73 O74 1.227 . S
C73 O83 1.265 . S
O74 C73 1.227 . S
N75 Co72 2.121 . S
N75 C77 1.375 . S
N75 C78 1.313 . S
C76 C77 1.338 . S
C76 N79 1.377 . S
C76 H96 0.930 . S
C77 N75 1.375 . S
C77 C76 1.338 . S
C77 H81 0.931 . S
C78 N75 1.313 . S
C78 N79 1.344 . S
C78 H82 0.930 . S
N79 C76 1.377 . S
N79 C78 1.344 . S
O80 Co72 2.055 . S
O80 C84 1.253 . S
H81 C77 0.931 . S
H82 C78 0.930 . S
O83 Co72 2.039 1_556 S
O83 C73 1.265 . S
C84 O80 1.253 . S
C84 O85 1.227 . S
O85 C84 1.227 . S
N86 Co72 2.140 1_556 S
N86 C89 1.348 . S
N86 C90 1.343 1_556 S
C87 C88 1.387 . S
C87 C91 1.391 1_556 S
C88 C87 1.387 . S
C88 C89 1.369 . S
C88 H97 0.929 . S
C89 N86 1.348 . S
C89 C88 1.369 . S
C89 H92 0.928 . S
C90 N86 1.343 1_554 S
C90 C91 1.371 . S
C90 H93 0.931 . S
C91 C87 1.391 1_554 S
C91 C90 1.371 . S
C91 H98 0.930 . S
H92 C89 0.928 . S
H93 C90 0.931 . S
H94 C70 0.930 . S
H95 C67 0.930 . S
H96 C76 0.930 . S
H97 C88 0.929 . S
H98 C91 0.930 . S
C99 C100 1.351 . S
C99 N102 1.368 . S
C99 H104 0.931 . S
C100 C99 1.351 . S
C100 N101 1.373 . S
C100 H128 0.930 . S
N101 C100 1.373 . S
N101 C103 1.340 . S
N102 C99 1.368 . S
N102 C103 1.321 . S
N102 Co105 2.135 1_556 S
C103 N101 1.340 . S
C103 N102 1.321 . S
C103 H127 0.930 . S
H104 C99 0.931 . S
Co105 N102 2.135 1_554 S
Co105 N108 2.121 . S
Co105 O113 2.055 . S
Co105 O116 2.039 1_554 S
Co105 N119 2.140 1_554 S
C106 O107 1.227 . S
C106 O116 1.265 . S
O107 C106 1.227 . S
N108 Co105 2.121 . S
N108 C110 1.375 . S
N108 C111 1.313 . S
C109 C110 1.338 . S
C109 N112 1.377 . S
C109 H129 0.930 . S
C110 N108 1.375 . S
C110 C109 1.338 . S
C110 H114 0.931 . S
C111 N108 1.313 . S
C111 N112 1.344 . S
C111 H115 0.930 . S
N112 C109 1.377 . S
N112 C111 1.344 . S
O113 Co105 2.055 . S
O113 C117 1.253 . S
H114 C110 0.931 . S
H115 C111 0.930 . S
O116 Co105 2.039 1_556 S
O116 C106 1.265 . S
C117 O113 1.253 . S
C117 O118 1.227 . S
O118 C117 1.227 . S
N119 Co105 2.140 1_556 S
N119 C122 1.349 . S
N119 C123 1.342 1_556 S
C120 C121 1.387 . S
C120 C124 1.391 1_556 S
C121 C120 1.387 . S
C121 C122 1.369 . S
C121 H130 0.929 . S
C122 N119 1.349 . S
C122 C121 1.369 . S
C122 H125 0.928 . S
C123 N119 1.342 1_554 S
C123 C124 1.371 . S
C123 H126 0.931 . S
C124 C120 1.391 1_554 S
C124 C123 1.371 . S
C124 H131 0.930 . S
H125 C122 0.928 . S
H126 C123 0.931 . S
H127 C103 0.930 . S
H128 C100 0.930 . S
H129 C109 0.930 . S
H130 C121 0.929 . S
H131 C124 0.930 . S
C132 C133 1.351 . S
C132 N135 1.368 . S
C132 H137 0.931 . S
C133 C132 1.351 . S
C133 N134 1.373 . S
C133 H161 0.930 . S
N134 C133 1.373 . S
N134 C136 1.340 . S
N135 C132 1.368 . S
N135 C136 1.321 . S
N135 Co138 2.135 1_556 S
C136 N134 1.340 . S
C136 N135 1.321 . S
C136 H160 0.930 . S
H137 C132 0.931 . S
Co138 N135 2.135 1_554 S
Co138 N141 2.121 . S
Co138 O146 2.055 . S
Co138 O149 2.039 1_554 S
Co138 N152 2.140 1_554 S
C139 O140 1.227 . S
C139 O149 1.265 . S
O140 C139 1.227 . S
N141 Co138 2.121 . S
N141 C143 1.375 . S
N141 C144 1.313 . S
C142 C143 1.338 . S
C142 N145 1.377 . S
C142 H162 0.930 . S
C143 N141 1.375 . S
C143 C142 1.338 . S
C143 H147 0.931 . S
C144 N141 1.313 . S
C144 N145 1.344 . S
C144 H148 0.930 . S
N145 C142 1.377 . S
N145 C144 1.344 . S
O146 Co138 2.055 . S
O146 C150 1.253 . S
H147 C143 0.931 . S
H148 C144 0.930 . S
O149 Co138 2.039 1_556 S
O149 C139 1.265 . S
C150 O146 1.253 . S
C150 O151 1.227 . S
O151 C150 1.227 . S
N152 Co138 2.140 1_556 S
N152 C155 1.348 . S
N152 C156 1.343 1_556 S
C153 C154 1.387 . S
C153 C157 1.391 1_556 S
C154 C153 1.387 . S
C154 C155 1.369 . S
C154 H163 0.929 . S
C155 N152 1.348 . S
C155 C154 1.369 . S
C155 H158 0.928 . S
C156 N152 1.343 1_554 S
C156 C157 1.371 . S
C156 H159 0.931 . S
C157 C153 1.391 1_554 S
C157 C156 1.371 . S
C157 H164 0.930 . S
H158 C155 0.928 . S
H159 C156 0.931 . S
H160 C136 0.930 . S
H161 C133 0.930 . S
H162 C142 0.930 . S
H163 C154 0.929 . S
H164 C157 0.930 . S
C165 C166 1.351 . S
C165 N168 1.368 . S
C165 H170 0.931 . S
C166 C165 1.351 . S
C166 N167 1.373 . S
C166 H194 0.930 . S
N167 C166 1.373 . S
N167 C169 1.340 . S
N168 C165 1.368 . S
N168 C169 1.321 . S
N168 Co171 2.135 1_556 S
C169 N167 1.340 . S
C169 N168 1.321 . S
C169 H193 0.930 . S
H170 C165 0.931 . S
Co171 N168 2.135 1_554 S
Co171 N174 2.121 . S
Co171 O179 2.055 . S
Co171 O182 2.039 1_554 S
Co171 N185 2.140 1_554 S
C172 O173 1.227 . S
C172 O182 1.265 . S
O173 C172 1.227 . S
N174 Co171 2.121 . S
N174 C176 1.375 . S
N174 C177 1.313 . S
C175 C176 1.338 . S
C175 N178 1.377 . S
C175 H195 0.930 . S
C176 N174 1.375 . S
C176 C175 1.338 . S
C176 H180 0.931 . S
C177 N174 1.313 . S
C177 N178 1.344 . S
C177 H181 0.930 . S
N178 C175 1.377 . S
N178 C177 1.344 . S
O179 Co171 2.055 . S
O179 C183 1.253 . S
H180 C176 0.931 . S
H181 C177 0.930 . S
O182 Co171 2.039 1_556 S
O182 C172 1.265 . S
C183 O179 1.253 . S
C183 O184 1.227 . S
O184 C183 1.227 . S
N185 Co171 2.140 1_556 S
N185 C188 1.348 . S
N185 C189 1.343 1_556 S
C186 C187 1.387 . S
C186 C190 1.391 1_556 S
C187 C186 1.387 . S
C187 C188 1.369 . S
C187 H196 0.929 . S
C188 N185 1.348 . S
C188 C187 1.369 . S
C188 H191 0.928 . S
C189 N185 1.343 1_554 S
C189 C190 1.371 . S
C189 H192 0.931 . S
C190 C186 1.391 1_554 S
C190 C189 1.371 . S
C190 H197 0.930 . S
H191 C188 0.928 . S
H192 C189 0.931 . S
H193 C169 0.930 . S
H194 C166 0.930 . S
H195 C175 0.930 . S
H196 C187 0.929 . S
H197 C190 0.930 . S
C198 C199 1.351 . S
C198 N201 1.368 . S
C198 H203 0.931 . S
C199 C198 1.351 . S
C199 N200 1.373 . S
C199 H227 0.930 . S
N200 C199 1.373 . S
N200 C202 1.340 . S
N201 C198 1.368 . S
N201 C202 1.321 . S
N201 Co204 2.135 . S
C202 N200 1.340 . S
C202 N201 1.321 . S
C202 H226 0.930 . S
H203 C198 0.931 . S
Co204 N201 2.135 . S
Co204 N207 2.121 1_554 S
Co204 O212 2.055 1_554 S
Co204 O215 2.039 . S
Co204 N218 2.140 . S
C205 O206 1.227 . S
C205 O215 1.265 . S
O206 C205 1.227 . S
N207 Co204 2.121 1_556 S
N207 C209 1.375 . S
N207 C210 1.313 . S
C208 C209 1.338 . S
C208 N211 1.377 . S
C208 H228 0.930 . S
C209 N207 1.375 . S
C209 C208 1.338 . S
C209 H213 0.931 . S
C210 N207 1.313 . S
C210 N211 1.344 . S
C210 H214 0.930 . S
N211 C208 1.377 . S
N211 C210 1.344 . S
O212 Co204 2.055 1_556 S
O212 C216 1.253 . S
H213 C209 0.931 . S
H214 C210 0.930 . S
O215 Co204 2.039 . S
O215 C205 1.265 . S
C216 O212 1.253 . S
C216 O217 1.227 . S
O217 C216 1.227 . S
N218 Co204 2.140 . S
N218 C221 1.346 . S
N218 C222 1.345 1_554 S
C219 C220 1.387 . S
C219 C223 1.391 1_554 S
C220 C219 1.387 . S
C220 C221 1.369 . S
C220 H229 0.929 . S
C221 N218 1.346 . S
C221 C220 1.369 . S
C221 H224 0.928 . S
C222 N218 1.345 1_556 S
C222 C223 1.371 . S
C222 H225 0.931 . S
C223 C219 1.391 1_556 S
C223 C222 1.371 . S
C223 H230 0.930 . S
H224 C221 0.928 . S
H225 C222 0.931 . S
H226 C202 0.930 . S
H227 C199 0.930 . S
H228 C208 0.930 . S
H229 C220 0.929 . S
H230 C223 0.930 . S
C231 C232 1.351 . S
C231 N234 1.368 . S
C231 H236 0.931 . S
C232 C231 1.351 . S
C232 N233 1.373 . S
C232 H260 0.930 . S
N233 C232 1.373 . S
N233 C235 1.340 . S
N234 C231 1.368 . S
N234 C235 1.321 . S
N234 Co237 2.135 . S
C235 N233 1.340 . S
C235 N234 1.321 . S
C235 H259 0.930 . S
H236 C231 0.931 . S
Co237 N234 2.135 . S
Co237 N240 2.121 1_554 S
Co237 O245 2.055 1_554 S
Co237 O248 2.039 . S
Co237 N251 2.140 . S
C238 O239 1.227 . S
C238 O248 1.265 . S
O239 C238 1.227 . S
N240 Co237 2.121 1_556 S
N240 C242 1.375 . S
N240 C243 1.313 . S
C241 C242 1.338 . S
C241 N244 1.377 . S
C241 H261 0.930 . S
C242 N240 1.375 . S
C242 C241 1.338 . S
C242 H246 0.931 . S
C243 N240 1.313 . S
C243 N244 1.344 . S
C243 H247 0.930 . S
N244 C241 1.377 . S
N244 C243 1.344 . S
O245 Co237 2.055 1_556 S
O245 C249 1.253 . S
H246 C242 0.931 . S
H247 C243 0.930 . S
O248 Co237 2.039 . S
O248 C238 1.265 . S
C249 O245 1.253 . S
C249 O250 1.227 . S
O250 C249 1.227 . S
N251 Co237 2.140 . S
N251 C254 1.346 . S
N251 C255 1.345 1_554 S
C252 C253 1.387 . S
C252 C256 1.391 1_554 S
C253 C252 1.387 . S
C253 C254 1.369 . S
C253 H262 0.929 . S
C254 N251 1.346 . S
C254 C253 1.369 . S
C254 H257 0.928 . S
C255 N251 1.345 1_556 S
C255 C256 1.371 . S
C255 H258 0.931 . S
C256 C252 1.391 1_556 S
C256 C255 1.371 . S
C256 H263 0.930 . S
H257 C254 0.928 . S
H258 C255 0.931 . S
H259 C235 0.930 . S
H260 C232 0.930 . S
H261 C241 0.930 . S
H262 C253 0.929 . S
H263 C256 0.930 . S
C264 C265 1.351 . S
C264 N267 1.368 . S
C264 H269 0.931 . S
C265 C264 1.351 . S
C265 N266 1.373 . S
C265 H293 0.930 . S
N266 C265 1.373 . S
N266 C268 1.340 . S
N267 C264 1.368 . S
N267 C268 1.321 . S
N267 Co270 2.135 . S
C268 N266 1.340 . S
C268 N267 1.321 . S
C268 H292 0.930 . S
H269 C264 0.931 . S
Co270 N267 2.135 . S
Co270 N273 2.121 1_554 S
Co270 O278 2.055 1_554 S
Co270 O281 2.039 . S
Co270 N284 2.140 . S
C271 O272 1.227 . S
C271 O281 1.265 . S
O272 C271 1.227 . S
N273 Co270 2.121 1_556 S
N273 C275 1.375 . S
N273 C276 1.313 . S
C274 C275 1.338 . S
C274 N277 1.377 . S
C274 H294 0.930 . S
C275 N273 1.375 . S
C275 C274 1.338 . S
C275 H279 0.931 . S
C276 N273 1.313 . S
C276 N277 1.344 . S
C276 H280 0.930 . S
N277 C274 1.377 . S
N277 C276 1.344 . S
O278 Co270 2.055 1_556 S
O278 C282 1.253 . S
H279 C275 0.931 . S
H280 C276 0.930 . S
O281 Co270 2.039 . S
O281 C271 1.265 . S
C282 O278 1.253 . S
C282 O283 1.227 . S
O283 C282 1.227 . S
N284 Co270 2.140 . S
N284 C287 1.346 . S
N284 C288 1.345 1_554 S
C285 C286 1.387 . S
C285 C289 1.391 1_554 S
C286 C285 1.387 . S
C286 C287 1.369 . S
C286 H295 0.929 . S
C287 N284 1.346 . S
C287 C286 1.369 . S
C287 H290 0.928 . S
C288 N284 1.345 1_556 S
C288 C289 1.371 . S
C288 H291 0.931 . S
C289 C285 1.391 1_556 S
C289 C288 1.371 . S
C289 H296 0.930 . S
H290 C287 0.928 . S
H291 C288 0.931 . S
H292 C268 0.930 . S
H293 C265 0.930 . S
H294 C274 0.930 . S
H295 C286 0.929 . S
H296 C289 0.930 . S
C297 C298 1.351 . S
C297 N300 1.368 . S
C297 H302 0.931 . S
C298 C297 1.351 . S
C298 N299 1.373 . S
C298 H326 0.930 . S
N299 C298 1.373 . S
N299 C301 1.340 . S
N300 C297 1.368 . S
N300 C301 1.321 . S
N300 Co303 2.135 . S
C301 N299 1.340 . S
C301 N300 1.321 . S
C301 H325 0.930 . S
H302 C297 0.931 . S
Co303 N300 2.135 . S
Co303 N306 2.121 1_554 S
Co303 O311 2.055 1_554 S
Co303 O314 2.039 . S
Co303 N317 2.140 . S
C304 O305 1.227 . S
C304 O314 1.265 . S
O305 C304 1.227 . S
N306 Co303 2.121 1_556 S
N306 C308 1.375 . S
N306 C309 1.313 . S
C307 C308 1.338 . S
C307 N310 1.377 . S
C307 H327 0.930 . S
C308 N306 1.375 . S
C308 C307 1.338 . S
C308 H312 0.931 . S
C309 N306 1.313 . S
C309 N310 1.344 . S
C309 H313 0.930 . S
N310 C307 1.377 . S
N310 C309 1.344 . S
O311 Co303 2.055 1_556 S
O311 C315 1.253 . S
H312 C308 0.931 . S
H313 C309 0.930 . S
O314 Co303 2.039 . S
O314 C304 1.265 . S
C315 O311 1.253 . S
C315 O316 1.227 . S
O316 C315 1.227 . S
N317 Co303 2.140 . S
N317 C320 1.346 . S
N317 C321 1.345 1_554 S
C318 C319 1.387 . S
C318 C322 1.391 1_554 S
C319 C318 1.387 . S
C319 C320 1.369 . S
C319 H328 0.929 . S
C320 N317 1.346 . S
C320 C319 1.369 . S
C320 H323 0.928 . S
C321 N317 1.345 1_556 S
C321 C322 1.371 . S
C321 H324 0.931 . S
C322 C318 1.391 1_556 S
C322 C321 1.371 . S
C322 H329 0.930 . S
H323 C320 0.928 . S
H324 C321 0.931 . S
H325 C301 0.930 . S
H326 C298 0.930 . S
H327 C307 0.930 . S
H328 C319 0.929 . S
H329 C322 0.930 . S
C330 C331 1.351 . S
C330 N333 1.368 . S
C330 H335 0.931 . S
C331 C330 1.351 . S
C331 N332 1.373 . S
C331 H359 0.930 . S
N332 C331 1.373 . S
N332 C334 1.340 . S
N333 C330 1.368 . S
N333 C334 1.321 . S
N333 Co336 2.135 . S
C334 N332 1.340 . S
C334 N333 1.321 . S
C334 H358 0.930 . S
H335 C330 0.931 . S
Co336 N333 2.135 . S
Co336 N339 2.121 1_554 S
Co336 O344 2.055 1_554 S
Co336 O347 2.039 . S
Co336 N350 2.140 . S
C337 O338 1.227 . S
C337 O347 1.265 . S
O338 C337 1.227 . S
N339 Co336 2.121 1_556 S
N339 C341 1.375 . S
N339 C342 1.313 . S
C340 C341 1.338 . S
C340 N343 1.377 . S
C340 H360 0.930 . S
C341 N339 1.375 . S
C341 C340 1.338 . S
C341 H345 0.931 . S
C342 N339 1.313 . S
C342 N343 1.344 . S
C342 H346 0.930 . S
N343 C340 1.377 . S
N343 C342 1.344 . S
O344 Co336 2.055 1_556 S
O344 C348 1.253 . S
H345 C341 0.931 . S
H346 C342 0.930 . S
O347 Co336 2.039 . S
O347 C337 1.265 . S
C348 O344 1.253 . S
C348 O349 1.227 . S
O349 C348 1.227 . S
N350 Co336 2.140 . S
N350 C353 1.346 . S
N350 C354 1.345 1_554 S
C351 C352 1.387 . S
C351 C355 1.391 1_554 S
C352 C351 1.387 . S
C352 C353 1.369 . S
C352 H361 0.929 . S
C353 N350 1.346 . S
C353 C352 1.369 . S
C353 H356 0.928 . S
C354 N350 1.345 1_556 S
C354 C355 1.371 . S
C354 H357 0.931 . S
C355 C351 1.391 1_556 S
C355 C354 1.371 . S
C355 H362 0.930 . S
H356 C353 0.928 . S
H357 C354 0.931 . S
H358 C334 0.930 . S
H359 C331 0.930 . S
H360 C340 0.930 . S
H361 C352 0.929 . S
H362 C355 0.930 . S
C363 C364 1.351 . S
C363 N366 1.368 . S
C363 H368 0.931 . S
C364 C363 1.351 . S
C364 N365 1.373 . S
C364 H392 0.930 . S
N365 C364 1.373 . S
N365 C367 1.340 . S
N366 C363 1.368 . S
N366 C367 1.321 . S
N366 Co369 2.135 . S
C367 N365 1.340 . S
C367 N366 1.321 . S
C367 H391 0.930 . S
H368 C363 0.931 . S
Co369 N366 2.135 . S
Co369 N372 2.121 1_554 S
Co369 O377 2.055 1_554 S
Co369 O380 2.039 . S
Co369 N383 2.140 . S
C370 O371 1.227 . S
C370 O380 1.265 . S
O371 C370 1.227 . S
N372 Co369 2.121 1_556 S
N372 C374 1.375 . S
N372 C375 1.313 . S
C373 C374 1.338 . S
C373 N376 1.377 . S
C373 H393 0.930 . S
C374 N372 1.375 . S
C374 C373 1.338 . S
C374 H378 0.931 . S
C375 N372 1.313 . S
C375 N376 1.344 . S
C375 H379 0.930 . S
N376 C373 1.377 . S
N376 C375 1.344 . S
O377 Co369 2.055 1_556 S
O377 C381 1.253 . S
H378 C374 0.931 . S
H379 C375 0.930 . S
O380 Co369 2.039 . S
O380 C370 1.265 . S
C381 O377 1.253 . S
C381 O382 1.227 . S
O382 C381 1.227 . S
N383 Co369 2.140 . S
N383 C386 1.346 . S
N383 C387 1.345 1_554 S
C384 C385 1.387 . S
C384 C388 1.391 1_554 S
C385 C384 1.387 . S
C385 C386 1.369 . S
C385 H394 0.929 . S
C386 N383 1.346 . S
C386 C385 1.369 . S
C386 H389 0.928 . S
C387 N383 1.345 1_556 S
C387 C388 1.371 . S
C387 H390 0.931 . S
C388 C384 1.391 1_556 S
C388 C387 1.371 . S
C388 H395 0.930 . S
H389 C386 0.928 . S
H390 C387 0.931 . S
H391 C367 0.930 . S
H392 C364 0.930 . S
H393 C373 0.930 . S
H394 C385 0.929 . S
H395 C388 0.930 . S
C396 C397 1.349 . S
C396 C398 1.327 . S
C396 H421 0.950 . S
C397 C396 1.349 . S
C397 C413 1.349 1_554 S
C398 C396 1.327 . S
C398 C417 1.429 . S
C398 H422 0.950 . S
C399 C416 1.574 . S
C399 C418 1.368 1_556 S
C399 H423 0.949 . S
H400 C404 0.949 . S
C401 C402 1.349 . S
C401 C403 1.327 . S
C401 H424 0.950 . S
C402 C401 1.349 . S
C402 C414 1.349 1_556 S
C403 C401 1.327 . S
C403 C419 1.427 . S
C403 H425 0.950 . S
C404 H400 0.949 . S
C404 C412 1.574 . S
C404 C420 1.379 . S
H405 C413 0.950 . S
H406 C411 0.950 . S
H407 C412 0.949 . S
H408 C414 0.950 . S
H409 C415 0.950 . S
H410 C416 0.949 . S
C411 H406 0.950 . S
C411 C413 1.327 . S
C411 C417 1.429 1_556 S
C412 C404 1.574 . S
C412 H407 0.949 . S
C412 C418 1.368 . S
C413 C397 1.349 1_556 S
C413 H405 0.950 . S
C413 C411 1.327 . S
C414 C402 1.349 1_554 S
C414 H408 0.950 . S
C414 C415 1.327 . S
C415 H409 0.950 . S
C415 C414 1.327 . S
C415 C419 1.430 1_554 S
C416 C399 1.574 . S
C416 H410 0.949 . S
C416 C420 1.358 1_556 S
C417 C398 1.429 . S
C417 C411 1.429 1_554 S
C417 C418 1.523 . S
C418 C399 1.368 1_554 S
C418 C412 1.368 . S
C418 C417 1.523 . S
C419 C403 1.427 . S
C419 C415 1.430 1_556 S
C419 C420 1.523 1_556 S
C420 C404 1.379 . S
C420 C416 1.358 1_554 S
C420 C419 1.523 1_554 S
H421 C396 0.950 . S
H422 C398 0.950 . S
H423 C399 0.949 . S
H424 C401 0.950 . S
H425 C403 0.950 . S
C426 C427 1.349 1_554 S
C426 C428 1.327 . S
C426 H451 0.950 . S
C427 C426 1.349 1_556 S
C427 C443 1.349 . S
C428 C426 1.327 . S
C428 C447 1.428 . S
C428 H452 0.950 . S
C429 C446 1.574 . S
C429 C448 1.361 1_556 S
C429 H453 0.949 . S
H430 C434 0.949 . S
C431 C432 1.349 1_556 S
C431 C433 1.327 . S
C431 H454 0.950 . S
C432 C431 1.349 1_554 S
C432 C444 1.349 . S
C433 C431 1.327 . S
C433 C449 1.429 1_556 S
C433 H455 0.950 . S
C434 H430 0.949 . S
C434 C442 1.574 . S
C434 C450 1.368 . S
H435 C443 0.950 . S
H436 C441 0.950 . S
H437 C442 0.949 . S
H438 C444 0.950 . S
H439 C445 0.950 . S
H440 C446 0.949 . S
C441 H436 0.950 . S
C441 C443 1.327 . S
C441 C447 1.429 1_556 S
C442 C434 1.574 . S
C442 H437 0.949 . S
C442 C448 1.376 . S
C443 C427 1.349 . S
C443 H435 0.950 . S
C443 C441 1.327 . S
C444 C432 1.349 . S
C444 H438 0.950 . S
C444 C445 1.327 . S
C445 H439 0.950 . S
C445 C444 1.327 . S
C445 C449 1.429 . S
C446 C429 1.574 . S
C446 H440 0.949 . S
C446 C450 1.368 1_556 S
C447 C428 1.428 . S
C447 C441 1.429 1_554 S
C447 C448 1.523 . S
C448 C429 1.361 1_554 S
C448 C442 1.376 . S
C448 C447 1.523 . S
C449 C433 1.429 1_554 S
C449 C445 1.429 . S
C449 C450 1.523 . S
C450 C434 1.368 . S
C450 C446 1.368 1_554 S
C450 C449 1.523 . S
H451 C426 0.950 . S
H452 C428 0.950 . S
H453 C429 0.949 . S
H454 C431 0.950 . S
H455 C433 0.950 . S
C456 C457 1.349 . S
C456 C458 1.327 . S
C456 H481 0.950 . S
C457 C456 1.349 . S
C457 C473 1.349 1_554 S
C458 C456 1.327 . S
C458 C477 1.429 . S
C458 H482 0.950 . S
C459 C476 1.574 . S
C459 C478 1.368 1_556 S
C459 H483 0.949 . S
H460 C464 0.949 . S
C461 C462 1.349 . S
C461 C463 1.327 . S
C461 H484 0.950 . S
C462 C461 1.349 . S
C462 C474 1.349 1_556 S
C463 C461 1.327 . S
C463 C479 1.430 1_556 S
C463 H485 0.950 . S
C464 H460 0.949 . S
C464 C472 1.574 . S
C464 C480 1.379 . S
H465 C473 0.950 . S
H466 C471 0.950 . S
H467 C472 0.949 . S
H468 C474 0.950 . S
H469 C475 0.950 . S
H470 C476 0.949 . S
C471 H466 0.950 . S
C471 C473 1.327 . S
C471 C477 1.429 1_556 S
C472 C464 1.574 . S
C472 H467 0.949 . S
C472 C478 1.368 . S
C473 C457 1.349 1_556 S
C473 H465 0.950 . S
C473 C471 1.327 . S
C474 C462 1.349 1_554 S
C474 H468 0.950 . S
C474 C475 1.327 . S
C475 H469 0.950 . S
C475 C474 1.327 . S
C475 C479 1.428 . S
C476 C459 1.574 . S
C476 H470 0.949 . S
C476 C480 1.357 1_556 S
C477 C458 1.429 . S
C477 C471 1.429 1_554 S
C477 C478 1.523 . S
C478 C459 1.368 1_554 S
C478 C472 1.368 . S
C478 C477 1.523 . S
C479 C463 1.430 1_554 S
C479 C475 1.428 . S
C479 C480 1.523 . S
C480 C464 1.379 . S
C480 C476 1.357 1_554 S
C480 C479 1.523 . S
H481 C456 0.950 . S
H482 C458 0.950 . S
H483 C459 0.949 . S
H484 C461 0.950 . S
H485 C463 0.950 . S
C486 C487 1.349 . S
C486 C488 1.327 . S
C486 H511 0.950 . S
C487 C486 1.349 . S
C487 C503 1.349 1_554 S
C488 C486 1.327 . S
C488 C507 1.429 . S
C488 H512 0.950 . S
C489 C506 1.574 . S
C489 C508 1.368 1_556 S
C489 H513 0.949 . S
H490 C494 0.949 . S
C491 C492 1.349 . S
C491 C493 1.327 . S
C491 H514 0.950 . S
C492 C491 1.349 . S
C492 C504 1.349 1_556 S
C493 C491 1.327 . S
C493 C509 1.427 . S
C493 H515 0.950 . S
C494 H490 0.949 . S
C494 C502 1.574 . S
C494 C510 1.379 . S
H495 C503 0.950 . S
H496 C501 0.950 . S
H497 C502 0.949 . S
H498 C504 0.950 . S
H499 C505 0.950 . S
H500 C506 0.949 . S
C501 H496 0.950 . S
C501 C503 1.327 . S
C501 C507 1.429 1_556 S
C502 C494 1.574 . S
C502 H497 0.949 . S
C502 C508 1.368 . S
C503 C487 1.349 1_556 S
C503 H495 0.950 . S
C503 C501 1.327 . S
C504 C492 1.349 1_554 S
C504 H498 0.950 . S
C504 C505 1.327 . S
C505 H499 0.950 . S
C505 C504 1.327 . S
C505 C509 1.430 1_554 S
C506 C489 1.574 . S
C506 H500 0.949 . S
C506 C510 1.358 1_556 S
C507 C488 1.429 . S
C507 C501 1.429 1_554 S
C507 C508 1.523 . S
C508 C489 1.368 1_554 S
C508 C502 1.368 . S
C508 C507 1.523 . S
C509 C493 1.427 . S
C509 C505 1.430 1_556 S
C509 C510 1.523 1_556 S
C510 C494 1.379 . S
C510 C506 1.358 1_554 S
C510 C509 1.523 1_554 S
H511 C486 0.950 . S
H512 C488 0.950 . S
H513 C489 0.949 . S
H514 C491 0.950 . S
H515 C493 0.950 . S
C516 C517 1.349 . S
C516 C518 1.327 . S
C516 H541 0.950 . S
C517 C516 1.349 . S
C517 C533 1.349 1_556 S
C518 C516 1.327 . S
C518 C537 1.429 1_556 S
C518 H542 0.950 . S
C519 C536 1.574 . S
C519 C538 1.376 . S
C519 H543 0.949 . S
H520 C524 0.949 . S
C521 C522 1.349 . S
C521 C523 1.327 . S
C521 H544 0.950 . S
C522 C521 1.349 . S
C522 C534 1.349 1_554 S
C523 C521 1.327 . S
C523 C539 1.429 . S
C523 H545 0.950 . S
C524 H520 0.949 . S
C524 C532 1.574 . S
C524 C540 1.368 1_556 S
H525 C533 0.950 . S
H526 C531 0.950 . S
H527 C532 0.949 . S
H528 C534 0.950 . S
H529 C535 0.950 . S
H530 C536 0.949 . S
C531 H526 0.950 . S
C531 C533 1.327 . S
C531 C537 1.428 . S
C532 C524 1.574 . S
C532 H527 0.949 . S
C532 C538 1.361 1_556 S
C533 C517 1.349 1_554 S
C533 H525 0.950 . S
C533 C531 1.327 . S
C534 C522 1.349 1_556 S
C534 H528 0.950 . S
C534 C535 1.327 . S
C535 H529 0.950 . S
C535 C534 1.327 . S
C535 C539 1.429 1_556 S
C536 C519 1.574 . S
C536 H530 0.949 . S
C536 C540 1.368 . S
C537 C518 1.429 1_554 S
C537 C531 1.428 . S
C537 C538 1.523 . S
C538 C519 1.376 . S
C538 C532 1.361 1_554 S
C538 C537 1.523 . S
C539 C523 1.429 . S
C539 C535 1.429 1_554 S
C539 C540 1.523 . S
C540 C524 1.368 1_554 S
C540 C536 1.368 . S
C540 C539 1.523 . S
H541 C516 0.950 . S
H542 C518 0.950 . S
H543 C519 0.949 . S
H544 C521 0.950 . S
H545 C523 0.950 . S
C546 C547 1.349 1_556 S
C546 C548 1.327 . S
C546 H571 0.950 . S
C547 C546 1.349 1_554 S
C547 C563 1.349 . S
C548 C546 1.327 . S
C548 C567 1.429 1_556 S
C548 H572 0.950 . S
C549 C566 1.574 . S
C549 C568 1.368 . S
C549 H573 0.949 . S
H550 C554 0.949 . S
C551 C552 1.349 1_554 S
C551 C553 1.327 . S
C551 H574 0.950 . S
C552 C551 1.349 1_556 S
C552 C564 1.349 . S
C553 C551 1.327 . S
C553 C569 1.428 . S
C553 H575 0.950 . S
C554 H550 0.949 . S
C554 C562 1.574 . S
C554 C570 1.357 1_556 S
H555 C563 0.950 . S
H556 C561 0.950 . S
H557 C562 0.949 . S
H558 C564 0.950 . S
H559 C565 0.950 . S
H560 C566 0.949 . S
C561 H556 0.950 . S
C561 C563 1.327 . S
C561 C567 1.429 . S
C562 C554 1.574 . S
C562 H557 0.949 . S
C562 C568 1.368 1_556 S
C563 C547 1.349 . S
C563 H555 0.950 . S
C563 C561 1.327 . S
C564 C552 1.349 . S
C564 H558 0.950 . S
C564 C565 1.327 . S
C565 H559 0.950 . S
C565 C564 1.327 . S
C565 C569 1.430 1_556 S
C566 C549 1.574 . S
C566 H560 0.949 . S
C566 C570 1.379 . S
C567 C548 1.429 1_554 S
C567 C561 1.429 . S
C567 C568 1.523 . S
C568 C549 1.368 . S
C568 C562 1.368 1_554 S
C568 C567 1.523 . S
C569 C553 1.428 . S
C569 C565 1.430 1_554 S
C569 C570 1.523 . S
C570 C554 1.357 1_554 S
C570 C566 1.379 . S
C570 C569 1.523 . S
H571 C546 0.950 . S
H572 C548 0.950 . S
H573 C549 0.949 . S
H574 C551 0.950 . S
H575 C553 0.950 . S
C576 C577 1.349 1_554 S
C576 C578 1.327 . S
C576 H601 0.950 . S
C577 C576 1.349 1_556 S
C577 C593 1.349 . S
C578 C576 1.327 . S
C578 C597 1.429 1_554 S
C578 H602 0.950 . S
C579 C596 1.574 . S
C579 C598 1.368 . S
C579 H603 0.949 . S
H580 C584 0.949 . S
C581 C582 1.349 1_556 S
C581 C583 1.327 . S
C581 H604 0.950 . S
C582 C581 1.349 1_554 S
C582 C594 1.349 . S
C583 C581 1.327 . S
C583 C599 1.429 1_556 S
C583 H605 0.950 . S
C584 H580 0.949 . S
C584 C592 1.574 . S
C584 C600 1.368 . S
H585 C593 0.950 . S
H586 C591 0.950 . S
H587 C592 0.949 . S
H588 C594 0.950 . S
H589 C595 0.950 . S
H590 C596 0.949 . S
C591 H586 0.950 . S
C591 C593 1.327 . S
C591 C597 1.429 . S
C592 C584 1.574 . S
C592 H587 0.949 . S
C592 C598 1.368 1_554 S
C593 C577 1.349 . S
C593 H585 0.950 . S
C593 C591 1.327 . S
C594 C582 1.349 . S
C594 H588 0.950 . S
C594 C595 1.327 . S
C595 H589 0.950 . S
C595 C594 1.327 . S
C595 C599 1.429 . S
C596 C579 1.574 . S
C596 H590 0.949 . S
C596 C600 1.368 1_556 S
C597 C578 1.429 1_556 S
C597 C591 1.429 . S
C597 C598 1.523 . S
C598 C579 1.368 . S
C598 C592 1.368 1_556 S
C598 C597 1.523 . S
C599 C583 1.429 1_554 S
C599 C595 1.429 . S
C599 C600 1.523 . S
C600 C584 1.368 . S
C600 C596 1.368 1_554 S
C600 C599 1.523 . S
H601 C576 0.950 . S
H602 C578 0.950 . S
H603 C579 0.949 . S
H604 C581 0.950 . S
H605 C583 0.950 . S
C606 C607 1.349 . S
C606 C608 1.327 . S
C606 H631 0.950 . S
C607 C606 1.349 . S
C607 C623 1.349 1_556 S
C608 C606 1.327 . S
C608 C627 1.429 . S
C608 H632 0.950 . S
C609 C626 1.574 . S
C609 C628 1.368 1_554 S
C609 H633 0.949 . S
H610 C614 0.949 . S
C611 C612 1.349 . S
C611 C613 1.327 . S
C611 H634 0.950 . S
C612 C611 1.349 . S
C612 C624 1.349 1_554 S
C613 C611 1.327 . S
C613 C629 1.429 . S
C613 H635 0.950 . S
C614 H610 0.949 . S
C614 C622 1.574 . S
C614 C630 1.368 1_556 S
H615 C623 0.950 . S
H616 C621 0.950 . S
H617 C622 0.949 . S
H618 C624 0.950 . S
H619 C625 0.950 . S
H620 C626 0.949 . S
C621 H616 0.950 . S
C621 C623 1.327 . S
C621 C627 1.429 1_554 S
C622 C614 1.574 . S
C622 H617 0.949 . S
C622 C628 1.368 . S
C623 C607 1.349 1_554 S
C623 H615 0.950 . S
C623 C621 1.327 . S
C624 C612 1.349 1_556 S
C624 H618 0.950 . S
C624 C625 1.327 . S
C625 H619 0.950 . S
C625 C624 1.327 . S
C625 C629 1.429 1_556 S
C626 C609 1.574 . S
C626 H620 0.949 . S
C626 C630 1.368 . S
C627 C608 1.429 . S
C627 C621 1.429 1_556 S
C627 C628 1.523 . S
C628 C609 1.368 1_556 S
C628 C622 1.368 . S
C628 C627 1.523 . S
C629 C613 1.429 . S
C629 C625 1.429 1_554 S
C629 C630 1.523 . S
C630 C614 1.368 1_554 S
C630 C626 1.368 . S
C630 C629 1.523 . S
H631 C606 0.950 . S
H632 C608 0.950 . S
H633 C609 0.949 . S
H634 C611 0.950 . S
H635 C613 0.950 . S
C636 C637 1.349 1_556 S
C636 C638 1.327 . S
C636 H661 0.950 . S
C637 C636 1.349 1_554 S
C637 C653 1.349 . S
C638 C636 1.327 . S
C638 C657 1.429 1_556 S
C638 H662 0.950 . S
C639 C656 1.574 . S
C639 C658 1.368 . S
C639 H663 0.949 . S
H640 C644 0.949 . S
C641 C642 1.349 1_554 S
C641 C643 1.327 . S
C641 H664 0.950 . S
C642 C641 1.349 1_556 S
C642 C654 1.349 . S
C643 C641 1.327 . S
C643 C659 1.429 1_554 S
C643 H665 0.950 . S
C644 H640 0.949 . S
C644 C652 1.574 . S
C644 C660 1.368 . S
H645 C653 0.950 . S
H646 C651 0.950 . S
H647 C652 0.949 . S
H648 C654 0.950 . S
H649 C655 0.950 . S
H650 C656 0.949 . S
C651 H646 0.950 . S
C651 C653 1.327 . S
C651 C657 1.429 . S
C652 C644 1.574 . S
C652 H647 0.949 . S
C652 C658 1.368 1_556 S
C653 C637 1.349 . S
C653 H645 0.950 . S
C653 C651 1.327 . S
C654 C642 1.349 . S
C654 H648 0.950 . S
C654 C655 1.327 . S
C655 H649 0.950 . S
C655 C654 1.327 . S
C655 C659 1.429 . S
C656 C639 1.574 . S
C656 H650 0.949 . S
C656 C660 1.368 1_554 S
C657 C638 1.429 1_554 S
C657 C651 1.429 . S
C657 C658 1.523 . S
C658 C639 1.368 . S
C658 C652 1.368 1_554 S
C658 C657 1.523 . S
C659 C643 1.429 1_556 S
C659 C655 1.429 . S
C659 C660 1.523 . S
C660 C644 1.368 . S
C660 C656 1.368 1_556 S
C660 C659 1.523 . S
H661 C636 0.950 . S
H662 C638 0.950 . S
H663 C639 0.949 . S
H664 C641 0.950 . S
H665 C643 0.950 . S
C666 C667 1.349 1_554 S
C666 C668 1.327 . S
C666 H691 0.950 . S
C667 C666 1.349 1_556 S
C667 C683 1.349 . S
C668 C666 1.327 . S
C668 C687 1.429 1_554 S
C668 H692 0.950 . S
C669 C686 1.574 . S
C669 C688 1.368 . S
C669 H693 0.949 . S
H670 C674 0.949 . S
C671 C672 1.349 1_556 S
C671 C673 1.327 . S
C671 H694 0.950 . S
C672 C671 1.349 1_554 S
C672 C684 1.349 . S
C673 C671 1.327 . S
C673 C689 1.429 1_556 S
C673 H695 0.950 . S
C674 H670 0.949 . S
C674 C682 1.574 . S
C674 C690 1.368 . S
H675 C683 0.950 . S
H676 C681 0.950 . S
H677 C682 0.949 . S
H678 C684 0.950 . S
H679 C685 0.950 . S
H680 C686 0.949 . S
C681 H676 0.950 . S
C681 C683 1.327 . S
C681 C687 1.429 . S
C682 C674 1.574 . S
C682 H677 0.949 . S
C682 C688 1.368 1_554 S
C683 C667 1.349 . S
C683 H675 0.950 . S
C683 C681 1.327 . S
C684 C672 1.349 . S
C684 H678 0.950 . S
C684 C685 1.327 . S
C685 H679 0.950 . S
C685 C684 1.327 . S
C685 C689 1.429 . S
C686 C669 1.574 . S
C686 H680 0.949 . S
C686 C690 1.368 1_556 S
C687 C668 1.429 1_556 S
C687 C681 1.429 . S
C687 C688 1.523 . S
C688 C669 1.368 . S
C688 C682 1.368 1_556 S
C688 C687 1.523 . S
C689 C673 1.429 1_554 S
C689 C685 1.429 . S
C689 C690 1.523 . S
C690 C674 1.368 . S
C690 C686 1.368 1_554 S
C690 C689 1.523 . S
H691 C666 0.950 . S
H692 C668 0.950 . S
H693 C669 0.949 . S
H694 C671 0.950 . S
H695 C673 0.950 . S
C696 C697 1.349 . S
C696 C698 1.327 . S
C696 H721 0.950 . S
C697 C696 1.349 . S
C697 C713 1.349 1_556 S
C698 C696 1.327 . S
C698 C717 1.429 . S
C698 H722 0.950 . S
C699 C716 1.574 . S
C699 C718 1.368 1_554 S
C699 H723 0.949 . S
H700 C704 0.949 . S
C701 C702 1.349 . S
C701 C703 1.327 . S
C701 H724 0.950 . S
C702 C701 1.349 . S
C702 C714 1.349 1_554 S
C703 C701 1.327 . S
C703 C719 1.429 . S
C703 H725 0.950 . S
C704 H700 0.949 . S
C704 C712 1.574 . S
C704 C720 1.368 1_556 S
H705 C713 0.950 . S
H706 C711 0.950 . S
H707 C712 0.949 . S
H708 C714 0.950 . S
H709 C715 0.950 . S
H710 C716 0.949 . S
C711 H706 0.950 . S
C711 C713 1.327 . S
C711 C717 1.429 1_554 S
C712 C704 1.574 . S
C712 H707 0.949 . S
C712 C718 1.368 . S
C713 C697 1.349 1_554 S
C713 H705 0.950 . S
C713 C711 1.327 . S
C714 C702 1.349 1_556 S
C714 H708 0.950 . S
C714 C715 1.327 . S
C715 H709 0.950 . S
C715 C714 1.327 . S
C715 C719 1.429 1_556 S
C716 C699 1.574 . S
C716 H710 0.949 . S
C716 C720 1.368 . S
C717 C698 1.429 . S
C717 C711 1.429 1_556 S
C717 C718 1.523 . S
C718 C699 1.368 1_556 S
C718 C712 1.368 . S
C718 C717 1.523 . S
C719 C703 1.429 . S
C719 C715 1.429 1_554 S
C719 C720 1.523 . S
C720 C704 1.368 1_554 S
C720 C716 1.368 . S
C720 C719 1.523 . S
H721 C696 0.950 . S
H722 C698 0.950 . S
H723 C699 0.949 . S
H724 C701 0.950 . S
H725 C703 0.950 . S
C726 C727 1.349 . S
C726 C728 1.327 . S
C726 H751 0.950 . S
C727 C726 1.349 . S
C727 C743 1.349 1_556 S
C728 C726 1.327 . S
C728 C747 1.429 . S
C728 H752 0.950 . S
C729 C746 1.574 . S
C729 C748 1.368 1_554 S
C729 H753 0.949 . S
H730 C734 0.949 . S
C731 C732 1.349 . S
C731 C733 1.327 . S
C731 H754 0.950 . S
C732 C731 1.349 . S
C732 C744 1.349 1_554 S
C733 C731 1.327 . S
C733 C749 1.429 . S
C733 H755 0.950 . S
C734 H730 0.949 . S
C734 C742 1.574 . S
C734 C750 1.368 1_556 S
H735 C743 0.950 . S
H736 C741 0.950 . S
H737 C742 0.949 . S
H738 C744 0.950 . S
H739 C745 0.950 . S
H740 C746 0.949 . S
C741 H736 0.950 . S
C741 C743 1.327 . S
C741 C747 1.429 1_554 S
C742 C734 1.574 . S
C742 H737 0.949 . S
C742 C748 1.368 . S
C743 C727 1.349 1_554 S
C743 H735 0.950 . S
C743 C741 1.327 . S
C744 C732 1.349 1_556 S
C744 H738 0.950 . S
C744 C745 1.327 . S
C745 H739 0.950 . S
C745 C744 1.327 . S
C745 C749 1.429 1_556 S
C746 C729 1.574 . S
C746 H740 0.949 . S
C746 C750 1.368 . S
C747 C728 1.429 . S
C747 C741 1.429 1_556 S
C747 C748 1.523 . S
C748 C729 1.368 1_556 S
C748 C742 1.368 . S
C748 C747 1.523 . S
C749 C733 1.429 . S
C749 C745 1.429 1_554 S
C749 C750 1.523 . S
C750 C734 1.368 1_554 S
C750 C746 1.368 . S
C750 C749 1.523 . S
H751 C726 0.950 . S
H752 C728 0.950 . S
H753 C729 0.949 . S
H754 C731 0.950 . S
H755 C733 0.950 . S
C756 C757 1.349 . S
C756 C758 1.327 . S
C756 H781 0.950 . S
C757 C756 1.349 . S
C757 C773 1.349 . S
C758 C756 1.327 . S
C758 C777 1.429 . S
C758 H782 0.950 . S
C759 C776 1.574 . S
C759 C778 1.368 . S
C759 H783 0.949 . S
H760 C764 0.949 . S
C761 C762 1.349 . S
C761 C763 1.327 . S
C761 H784 0.950 . S
C762 C761 1.349 . S
C762 C774 1.349 . S
C763 C761 1.327 . S
C763 C779 1.429 . S
C763 H785 0.950 . S
C764 H760 0.949 . S
C764 C772 1.574 . S
C764 C780 1.368 . S
H765 C773 0.950 . S
H766 C771 0.950 . S
H767 C772 0.949 . S
H768 C774 0.950 . S
H769 C775 0.950 . S
H770 C776 0.949 . S
C771 H766 0.950 . S
C771 C773 1.327 . S
C771 C777 1.429 . S
C772 C764 1.574 . S
C772 H767 0.949 . S
C772 C778 1.368 . S
C773 C757 1.349 . S
C773 H765 0.950 . S
C773 C771 1.327 . S
C774 C762 1.349 . S
C774 H768 0.950 . S
C774 C775 1.327 . S
C775 H769 0.950 . S
C775 C774 1.327 . S
C775 C779 1.429 . S
C776 C759 1.574 . S
C776 H770 0.949 . S
C776 C780 1.368 . S
C777 C758 1.429 . S
C777 C771 1.429 . S
C777 C778 1.523 . S
C778 C759 1.368 . S
C778 C772 1.368 . S
C778 C777 1.523 . S
C779 C763 1.429 . S
C779 C775 1.429 . S
C779 C780 1.523 . S
C780 C764 1.368 . S
C780 C776 1.368 . S
C780 C779 1.523 . S
H781 C756 0.950 . S
H782 C758 0.950 . S
H783 C759 0.949 . S
H784 C761 0.950 . S
H785 C763 0.950 . S
C786 C787 1.349 . S
C786 C788 1.327 . S
C786 H811 0.950 . S
C787 C786 1.349 . S
C787 C803 1.349 . S
C788 C786 1.327 . S
C788 C807 1.429 . S
C788 H812 0.950 . S
C789 C806 1.574 . S
C789 C808 1.368 . S
C789 H813 0.949 . S
H790 C794 0.949 . S
C791 C792 1.349 . S
C791 C793 1.327 . S
C791 H814 0.950 . S
C792 C791 1.349 . S
C792 C804 1.349 . S
C793 C791 1.327 . S
C793 C809 1.429 . S
C793 H815 0.950 . S
C794 H790 0.949 . S
C794 C802 1.574 . S
C794 C810 1.368 . S
H795 C803 0.950 . S
H796 C801 0.950 . S
H797 C802 0.949 . S
H798 C804 0.950 . S
H799 C805 0.950 . S
H800 C806 0.949 . S
C801 H796 0.950 . S
C801 C803 1.327 . S
C801 C807 1.429 . S
C802 C794 1.574 . S
C802 H797 0.949 . S
C802 C808 1.368 . S
C803 C787 1.349 . S
C803 H795 0.950 . S
C803 C801 1.327 . S
C804 C792 1.349 . S
C804 H798 0.950 . S
C804 C805 1.327 . S
C805 H799 0.950 . S
C805 C804 1.327 . S
C805 C809 1.429 . S
C806 C789 1.574 . S
C806 H800 0.949 . S
C806 C810 1.368 . S
C807 C788 1.429 . S
C807 C801 1.429 . S
C807 C808 1.523 . S
C808 C789 1.368 . S
C808 C802 1.368 . S
C808 C807 1.523 . S
C809 C793 1.429 . S
C809 C805 1.429 . S
C809 C810 1.523 . S
C810 C794 1.368 . S
C810 C806 1.368 . S
C810 C809 1.523 . S
H811 C786 0.950 . S
H812 C788 0.950 . S
H813 C789 0.949 . S
H814 C791 0.950 . S
H815 C793 0.950 . S
C816 C817 1.349 . S
C816 C818 1.327 . S
C816 H841 0.950 . S
C817 C816 1.349 . S
C817 C833 1.349 . S
C818 C816 1.327 . S
C818 C837 1.429 . S
C818 H842 0.950 . S
C819 C836 1.574 . S
C819 C838 1.368 . S
C819 H843 0.949 . S
H820 C824 0.949 . S
C821 C822 1.349 . S
C821 C823 1.327 . S
C821 H844 0.950 . S
C822 C821 1.349 . S
C822 C834 1.349 . S
C823 C821 1.327 . S
C823 C839 1.429 . S
C823 H845 0.950 . S
C824 H820 0.949 . S
C824 C832 1.574 . S
C824 C840 1.368 . S
H825 C833 0.950 . S
H826 C831 0.950 . S
H827 C832 0.949 . S
H828 C834 0.950 . S
H829 C835 0.950 . S
H830 C836 0.949 . S
C831 H826 0.950 . S
C831 C833 1.327 . S
C831 C837 1.429 . S
C832 C824 1.574 . S
C832 H827 0.949 . S
C832 C838 1.368 . S
C833 C817 1.349 . S
C833 H825 0.950 . S
C833 C831 1.327 . S
C834 C822 1.349 . S
C834 H828 0.950 . S
C834 C835 1.327 . S
C835 H829 0.950 . S
C835 C834 1.327 . S
C835 C839 1.429 . S
C836 C819 1.574 . S
C836 H830 0.949 . S
C836 C840 1.368 . S
C837 C818 1.429 . S
C837 C831 1.429 . S
C837 C838 1.523 . S
C838 C819 1.368 . S
C838 C832 1.368 . S
C838 C837 1.523 . S
C839 C823 1.429 . S
C839 C835 1.429 . S
C839 C840 1.523 . S
C840 C824 1.368 . S
C840 C836 1.368 . S
C840 C839 1.523 . S
H841 C816 0.950 . S
H842 C818 0.950 . S
H843 C819 0.949 . S
H844 C821 0.950 . S
H845 C823 0.950 . S
C846 C847 1.349 . S
C846 C848 1.327 . S
C846 H871 0.950 . S
C847 C846 1.349 . S
C847 C863 1.349 . S
C848 C846 1.327 . S
C848 C867 1.429 . S
C848 H872 0.950 . S
C849 C866 1.574 . S
C849 C868 1.368 . S
C849 H873 0.949 . S
H850 C854 0.949 . S
C851 C852 1.349 . S
C851 C853 1.327 . S
C851 H874 0.950 . S
C852 C851 1.349 . S
C852 C864 1.349 . S
C853 C851 1.327 . S
C853 C869 1.429 . S
C853 H875 0.950 . S
C854 H850 0.949 . S
C854 C862 1.574 . S
C854 C870 1.368 . S
H855 C863 0.950 . S
H856 C861 0.950 . S
H857 C862 0.949 . S
H858 C864 0.950 . S
H859 C865 0.950 . S
H860 C866 0.949 . S
C861 H856 0.950 . S
C861 C863 1.327 . S
C861 C867 1.429 . S
C862 C854 1.574 . S
C862 H857 0.949 . S
C862 C868 1.368 . S
C863 C847 1.349 . S
C863 H855 0.950 . S
C863 C861 1.327 . S
C864 C852 1.349 . S
C864 H858 0.950 . S
C864 C865 1.327 . S
C865 H859 0.950 . S
C865 C864 1.327 . S
C865 C869 1.429 . S
C866 C849 1.574 . S
C866 H860 0.949 . S
C866 C870 1.368 . S
C867 C848 1.429 . S
C867 C861 1.429 . S
C867 C868 1.523 . S
C868 C849 1.368 . S
C868 C862 1.368 . S
C868 C867 1.523 . S
C869 C853 1.429 . S
C869 C865 1.429 . S
C869 C870 1.523 . S
C870 C854 1.368 . S
C870 C866 1.368 . S
C870 C869 1.523 . S
H871 C846 0.950 . S
H872 C848 0.950 . S
H873 C849 0.949 . S
H874 C851 0.950 . S
H875 C853 0.950 . S
C876 C877 1.349 . S
C876 C878 1.327 . S
C876 H901 0.950 . S
C877 C876 1.349 . S
C877 C893 1.349 . S
C878 C876 1.327 . S
C878 C897 1.429 . S
C878 H902 0.950 . S
C879 C896 1.574 . S
C879 C898 1.368 . S
C879 H903 0.949 . S
H880 C884 0.949 . S
C881 C882 1.349 . S
C881 C883 1.327 . S
C881 H904 0.950 . S
C882 C881 1.349 . S
C882 C894 1.349 . S
C883 C881 1.327 . S
C883 C899 1.429 . S
C883 H905 0.950 . S
C884 H880 0.949 . S
C884 C892 1.574 . S
C884 C900 1.368 . S
H885 C893 0.950 . S
H886 C891 0.950 . S
H887 C892 0.949 . S
H888 C894 0.950 . S
H889 C895 0.950 . S
H890 C896 0.949 . S
C891 H886 0.950 . S
C891 C893 1.327 . S
C891 C897 1.429 . S
C892 C884 1.574 . S
C892 H887 0.949 . S
C892 C898 1.368 . S
C893 C877 1.349 . S
C893 H885 0.950 . S
C893 C891 1.327 . S
C894 C882 1.349 . S
C894 H888 0.950 . S
C894 C895 1.327 . S
C895 H889 0.950 . S
C895 C894 1.327 . S
C895 C899 1.429 . S
C896 C879 1.574 . S
C896 H890 0.949 . S
C896 C900 1.368 . S
C897 C878 1.429 . S
C897 C891 1.429 . S
C897 C898 1.523 . S
C898 C879 1.368 . S
C898 C892 1.368 . S
C898 C897 1.523 . S
C899 C883 1.429 . S
C899 C895 1.429 . S
C899 C900 1.523 . S
C900 C884 1.368 . S
C900 C896 1.368 . S
C900 C899 1.523 . S
H901 C876 0.950 . S
H902 C878 0.950 . S
H903 C879 0.949 . S
H904 C881 0.950 . S
H905 C883 0.950 . S
C906 C907 1.349 . S
C906 C908 1.327 . S
C906 H931 0.950 . S
C907 C906 1.349 . S
C907 C923 1.349 . S
C908 C906 1.327 . S
C908 C927 1.429 . S
C908 H932 0.950 . S
C909 C926 1.574 . S
C909 C928 1.368 . S
C909 H933 0.949 . S
H910 C914 0.949 . S
C911 C912 1.349 . S
C911 C913 1.327 . S
C911 H934 0.950 . S
C912 C911 1.349 . S
C912 C924 1.349 . S
C913 C911 1.327 . S
C913 C929 1.429 . S
C913 H935 0.950 . S
C914 H910 0.949 . S
C914 C922 1.574 . S
C914 C930 1.368 . S
H915 C923 0.950 . S
H916 C921 0.950 . S
H917 C922 0.949 . S
H918 C924 0.950 . S
H919 C925 0.950 . S
H920 C926 0.949 . S
C921 H916 0.950 . S
C921 C923 1.327 . S
C921 C927 1.429 . S
C922 C914 1.574 . S
C922 H917 0.949 . S
C922 C928 1.368 . S
C923 C907 1.349 . S
C923 H915 0.950 . S
C923 C921 1.327 . S
C924 C912 1.349 . S
C924 H918 0.950 . S
C924 C925 1.327 . S
C925 H919 0.950 . S
C925 C924 1.327 . S
C925 C929 1.429 . S
C926 C909 1.574 . S
C926 H920 0.949 . S
C926 C930 1.368 . S
C927 C908 1.429 . S
C927 C921 1.429 . S
C927 C928 1.523 . S
C928 C909 1.368 . S
C928 C922 1.368 . S
C928 C927 1.523 . S
C929 C913 1.429 . S
C929 C925 1.429 . S
C929 C930 1.523 . S
C930 C914 1.368 . S
C930 C926 1.368 . S
C930 C929 1.523 . S
H931 C906 0.950 . S
H932 C908 0.950 . S
H933 C909 0.949 . S
H934 C911 0.950 . S
H935 C913 0.950 . S
C936 C937 1.349 . S
C936 C938 1.327 . S
C936 H961 0.950 . S
C937 C936 1.349 . S
C937 C953 1.349 . S
C938 C936 1.327 . S
C938 C957 1.429 . S
C938 H962 0.950 . S
C939 C956 1.574 . S
C939 C958 1.368 . S
C939 H963 0.949 . S
H940 C944 0.949 . S
C941 C942 1.349 . S
C941 C943 1.327 . S
C941 H964 0.950 . S
C942 C941 1.349 . S
C942 C954 1.349 . S
C943 C941 1.327 . S
C943 C959 1.429 . S
C943 H965 0.950 . S
C944 H940 0.949 . S
C944 C952 1.574 . S
C944 C960 1.368 . S
H945 C953 0.950 . S
H946 C951 0.950 . S
H947 C952 0.949 . S
H948 C954 0.950 . S
H949 C955 0.950 . S
H950 C956 0.949 . S
C951 H946 0.950 . S
C951 C953 1.327 . S
C951 C957 1.429 . S
C952 C944 1.574 . S
C952 H947 0.949 . S
C952 C958 1.368 . S
C953 C937 1.349 . S
C953 H945 0.950 . S
C953 C951 1.327 . S
C954 C942 1.349 . S
C954 H948 0.950 . S
C954 C955 1.327 . S
C955 H949 0.950 . S
C955 C954 1.327 . S
C955 C959 1.429 . S
C956 C939 1.574 . S
C956 H950 0.949 . S
C956 C960 1.368 . S
C957 C938 1.429 . S
C957 C951 1.429 . S
C957 C958 1.523 . S
C958 C939 1.368 . S
C958 C952 1.368 . S
C958 C957 1.523 . S
C959 C943 1.429 . S
C959 C955 1.429 . S
C959 C960 1.523 . S
C960 C944 1.368 . S
C960 C956 1.368 . S
C960 C959 1.523 . S
H961 C936 0.950 . S
H962 C938 0.950 . S
H963 C939 0.949 . S
H964 C941 0.950 . S
H965 C943 0.950 . S
C966 C967 1.349 . S
C966 C968 1.327 . S
C966 H991 0.950 . S
C967 C966 1.349 . S
C967 C983 1.349 . S
C968 C966 1.327 . S
C968 C987 1.429 . S
C968 H992 0.950 . S
C969 C986 1.574 . S
C969 C988 1.368 . S
C969 H993 0.949 . S
H970 C974 0.949 . S
C971 C972 1.349 . S
C971 C973 1.327 . S
C971 H994 0.950 . S
C972 C971 1.349 . S
C972 C984 1.349 . S
C973 C971 1.327 . S
C973 C989 1.429 . S
C973 H995 0.950 . S
C974 H970 0.949 . S
C974 C982 1.574 . S
C974 C990 1.368 . S
H975 C983 0.950 . S
H976 C981 0.950 . S
H977 C982 0.949 . S
H978 C984 0.950 . S
H979 C985 0.950 . S
H980 C986 0.949 . S
C981 H976 0.950 . S
C981 C983 1.327 . S
C981 C987 1.429 . S
C982 C974 1.574 . S
C982 H977 0.949 . S
C982 C988 1.368 . S
C983 C967 1.349 . S
C983 H975 0.950 . S
C983 C981 1.327 . S
C984 C972 1.349 . S
C984 H978 0.950 . S
C984 C985 1.327 . S
C985 H979 0.950 . S
C985 C984 1.327 . S
C985 C989 1.429 . S
C986 C969 1.574 . S
C986 H980 0.949 . S
C986 C990 1.368 . S
C987 C968 1.429 . S
C987 C981 1.429 . S
C987 C988 1.523 . S
C988 C969 1.368 . S
C988 C982 1.368 . S
C988 C987 1.523 . S
C989 C973 1.429 . S
C989 C985 1.429 . S
C989 C990 1.523 . S
C990 C974 1.368 . S
C990 C986 1.368 . S
C990 C989 1.523 . S
H991 C966 0.950 . S
H992 C968 0.950 . S
H993 C969 0.949 . S
H994 C971 0.950 . S
H995 C973 0.950 . S
C996 C997 1.349 . S
C996 C998 1.327 . S
C996 H1021 0.950 . S
C997 C996 1.349 . S
C997 C1013 1.349 . S
C998 C996 1.327 . S
C998 C1017 1.429 . S
C998 H1022 0.950 . S
C999 C1016 1.574 . S
C999 C1018 1.368 . S
C999 H1023 0.949 . S
H1000 C1004 0.949 . S
C1001 C1002 1.349 . S
C1001 C1003 1.327 . S
C1001 H1024 0.950 . S
C1002 C1001 1.349 . S
C1002 C1014 1.349 . S
C1003 C1001 1.327 . S
C1003 C1019 1.429 . S
C1003 H1025 0.950 . S
C1004 H1000 0.949 . S
C1004 C1012 1.574 . S
C1004 C1020 1.368 . S
H1005 C1013 0.950 . S
H1006 C1011 0.950 . S
H1007 C1012 0.949 . S
H1008 C1014 0.950 . S
H1009 C1015 0.950 . S
H1010 C1016 0.949 . S
C1011 H1006 0.950 . S
C1011 C1013 1.327 . S
C1011 C1017 1.429 . S
C1012 C1004 1.574 . S
C1012 H1007 0.949 . S
C1012 C1018 1.368 . S
C1013 C997 1.349 . S
C1013 H1005 0.950 . S
C1013 C1011 1.327 . S
C1014 C1002 1.349 . S
C1014 H1008 0.950 . S
C1014 C1015 1.327 . S
C1015 H1009 0.950 . S
C1015 C1014 1.327 . S
C1015 C1019 1.429 . S
C1016 C999 1.574 . S
C1016 H1010 0.949 . S
C1016 C1020 1.368 . S
C1017 C998 1.429 . S
C1017 C1011 1.429 . S
C1017 C1018 1.523 . S
C1018 C999 1.368 . S
C1018 C1012 1.368 . S
C1018 C1017 1.523 . S
C1019 C1003 1.429 . S
C1019 C1015 1.429 . S
C1019 C1020 1.523 . S
C1020 C1004 1.368 . S
C1020 C1016 1.368 . S
C1020 C1019 1.523 . S
H1021 C996 0.950 . S
H1022 C998 0.950 . S
H1023 C999 0.949 . S
H1024 C1001 0.950 . S
H1025 C1003 0.950 . S
C1026 C1027 1.349 . S
C1026 C1028 1.327 . S
C1026 H1051 0.950 . S
C1027 C1026 1.349 . S
C1027 C1043 1.349 . S
C1028 C1026 1.327 . S
C1028 C1047 1.429 . S
C1028 H1052 0.950 . S
C1029 C1046 1.574 . S
C1029 C1048 1.368 . S
C1029 H1053 0.949 . S
H1030 C1034 0.949 . S
C1031 C1032 1.349 . S
C1031 C1033 1.327 . S
C1031 H1054 0.950 . S
C1032 C1031 1.349 . S
C1032 C1044 1.349 . S
C1033 C1031 1.327 . S
C1033 C1049 1.429 . S
C1033 H1055 0.950 . S
C1034 H1030 0.949 . S
C1034 C1042 1.574 . S
C1034 C1050 1.368 . S
H1035 C1043 0.950 . S
H1036 C1041 0.950 . S
H1037 C1042 0.949 . S
H1038 C1044 0.950 . S
H1039 C1045 0.950 . S
H1040 C1046 0.949 . S
C1041 H1036 0.950 . S
C1041 C1043 1.327 . S
C1041 C1047 1.429 . S
C1042 C1034 1.574 . S
C1042 H1037 0.949 . S
C1042 C1048 1.368 . S
C1043 C1027 1.349 . S
C1043 H1035 0.950 . S
C1043 C1041 1.327 . S
C1044 C1032 1.349 . S
C1044 H1038 0.950 . S
C1044 C1045 1.327 . S
C1045 H1039 0.950 . S
C1045 C1044 1.327 . S
C1045 C1049 1.429 . S
C1046 C1029 1.574 . S
C1046 H1040 0.949 . S
C1046 C1050 1.368 . S
C1047 C1028 1.429 . S
C1047 C1041 1.429 . S
C1047 C1048 1.523 . S
C1048 C1029 1.368 . S
C1048 C1042 1.368 . S
C1048 C1047 1.523 . S
C1049 C1033 1.429 . S
C1049 C1045 1.429 . S
C1049 C1050 1.523 . S
C1050 C1034 1.368 . S
C1050 C1046 1.368 . S
C1050 C1049 1.523 . S
H1051 C1026 0.950 . S
H1052 C1028 0.950 . S
H1053 C1029 0.949 . S
H1054 C1031 0.950 . S
H1055 C1033 0.950 . S
C1056 C1057 1.349 . S
C1056 C1058 1.327 . S
C1056 H1081 0.950 . S
C1057 C1056 1.349 . S
C1057 C1073 1.349 . S
C1058 C1056 1.327 . S
C1058 C1077 1.429 . S
C1058 H1082 0.950 . S
C1059 C1076 1.574 . S
C1059 C1078 1.368 . S
C1059 H1083 0.949 . S
H1060 C1064 0.949 . S
C1061 C1062 1.349 . S
C1061 C1063 1.327 . S
C1061 H1084 0.950 . S
C1062 C1061 1.349 . S
C1062 C1074 1.349 . S
C1063 C1061 1.327 . S
C1063 C1079 1.429 . S
C1063 H1085 0.950 . S
C1064 H1060 0.949 . S
C1064 C1072 1.574 . S
C1064 C1080 1.368 . S
H1065 C1073 0.950 . S
H1066 C1071 0.950 . S
H1067 C1072 0.949 . S
H1068 C1074 0.950 . S
H1069 C1075 0.950 . S
H1070 C1076 0.949 . S
C1071 H1066 0.950 . S
C1071 C1073 1.327 . S
C1071 C1077 1.429 . S
C1072 C1064 1.574 . S
C1072 H1067 0.949 . S
C1072 C1078 1.368 . S
C1073 C1057 1.349 . S
C1073 H1065 0.950 . S
C1073 C1071 1.327 . S
C1074 C1062 1.349 . S
C1074 H1068 0.950 . S
C1074 C1075 1.327 . S
C1075 H1069 0.950 . S
C1075 C1074 1.327 . S
C1075 C1079 1.429 . S
C1076 C1059 1.574 . S
C1076 H1070 0.949 . S
C1076 C1080 1.368 . S
C1077 C1058 1.429 . S
C1077 C1071 1.429 . S
C1077 C1078 1.523 . S
C1078 C1059 1.368 . S
C1078 C1072 1.368 . S
C1078 C1077 1.523 . S
C1079 C1063 1.429 . S
C1079 C1075 1.429 . S
C1079 C1080 1.523 . S
C1080 C1064 1.368 . S
C1080 C1076 1.368 . S
C1080 C1079 1.523 . S
H1081 C1056 0.950 . S
H1082 C1058 0.950 . S
H1083 C1059 0.949 . S
H1084 C1061 0.950 . S
H1085 C1063 0.950 . S
C1086 C1087 1.349 . S
C1086 C1088 1.327 . S
C1086 H1111 0.950 . S
C1087 C1086 1.349 . S
C1087 C1103 1.349 . S
C1088 C1086 1.327 . S
C1088 C1107 1.429 . S
C1088 H1112 0.950 . S
C1089 C1106 1.574 . S
C1089 C1108 1.368 . S
C1089 H1113 0.949 . S
H1090 C1094 0.949 . S
C1091 C1092 1.349 . S
C1091 C1093 1.327 . S
C1091 H1114 0.950 . S
C1092 C1091 1.349 . S
C1092 C1104 1.349 . S
C1093 C1091 1.327 . S
C1093 C1109 1.429 . S
C1093 H1115 0.950 . S
C1094 H1090 0.949 . S
C1094 C1102 1.574 . S
C1094 C1110 1.368 . S
H1095 C1103 0.950 . S
H1096 C1101 0.950 . S
H1097 C1102 0.949 . S
H1098 C1104 0.950 . S
H1099 C1105 0.950 . S
H1100 C1106 0.949 . S
C1101 H1096 0.950 . S
C1101 C1103 1.327 . S
C1101 C1107 1.429 . S
C1102 C1094 1.574 . S
C1102 H1097 0.949 . S
C1102 C1108 1.368 . S
C1103 C1087 1.349 . S
C1103 H1095 0.950 . S
C1103 C1101 1.327 . S
C1104 C1092 1.349 . S
C1104 H1098 0.950 . S
C1104 C1105 1.327 . S
C1105 H1099 0.950 . S
C1105 C1104 1.327 . S
C1105 C1109 1.429 . S
C1106 C1089 1.574 . S
C1106 H1100 0.949 . S
C1106 C1110 1.368 . S
C1107 C1088 1.429 . S
C1107 C1101 1.429 . S
C1107 C1108 1.523 . S
C1108 C1089 1.368 . S
C1108 C1102 1.368 . S
C1108 C1107 1.523 . S
C1109 C1093 1.429 . S
C1109 C1105 1.429 . S
C1109 C1110 1.523 . S
C1110 C1094 1.368 . S
C1110 C1106 1.368 . S
C1110 C1109 1.523 . S
H1111 C1086 0.950 . S
H1112 C1088 0.950 . S
H1113 C1089 0.949 . S
H1114 C1091 0.950 . S
H1115 C1093 0.950 . S
C1116 C1117 1.349 1_554 S
C1116 C1118 1.327 . S
C1116 H1141 0.950 . S
C1117 C1116 1.349 1_556 S
C1117 C1133 1.349 . S
C1118 C1116 1.327 . S
C1118 C1137 1.429 1_554 S
C1118 H1142 0.950 . S
C1119 C1136 1.574 1_455 S
C1119 C1138 1.368 . S
C1119 H1143 0.949 . S
H1120 C1124 0.949 . S
C1121 C1122 1.349 1_556 S
C1121 C1123 1.327 . S
C1121 H1144 0.950 . S
C1122 C1121 1.349 1_554 S
C1122 C1134 1.349 . S
C1123 C1121 1.327 . S
C1123 C1139 1.429 1_556 S
C1123 H1145 0.950 . S
C1124 H1120 0.949 . S
C1124 C1132 1.574 1_655 S
C1124 C1140 1.368 . S
H1125 C1133 0.950 . S
H1126 C1131 0.950 . S
H1127 C1132 0.949 . S
H1128 C1134 0.950 . S
H1129 C1135 0.950 . S
H1130 C1136 0.949 . S
C1131 H1126 0.950 . S
C1131 C1133 1.327 . S
C1131 C1137 1.429 . S
C1132 C1124 1.574 1_455 S
C1132 H1127 0.949 . S
C1132 C1138 1.368 1_554 S
C1133 C1117 1.349 . S
C1133 H1125 0.950 . S
C1133 C1131 1.327 . S
C1134 C1122 1.349 . S
C1134 H1128 0.950 . S
C1134 C1135 1.327 . S
C1135 H1129 0.950 . S
C1135 C1134 1.327 . S
C1135 C1139 1.429 . S
C1136 C1119 1.574 1_655 S
C1136 H1130 0.949 . S
C1136 C1140 1.368 1_556 S
C1137 C1118 1.429 1_556 S
C1137 C1131 1.429 . S
C1137 C1138 1.523 . S
C1138 C1119 1.368 . S
C1138 C1132 1.368 1_556 S
C1138 C1137 1.523 . S
C1139 C1123 1.429 1_554 S
C1139 C1135 1.429 . S
C1139 C1140 1.523 . S
C1140 C1124 1.368 . S
C1140 C1136 1.368 1_554 S
C1140 C1139 1.523 . S
H1141 C1116 0.950 . S
H1142 C1118 0.950 . S
H1143 C1119 0.949 . S
H1144 C1121 0.950 . S
H1145 C1123 0.950 . S
C1146 C1147 1.349 1_556 S
C1146 C1148 1.327 . S
C1146 H1171 0.950 . S
C1147 C1146 1.349 1_554 S
C1147 C1163 1.349 . S
C1148 C1146 1.327 . S
C1148 C1167 1.429 1_556 S
C1148 H1172 0.950 . S
C1149 C1166 1.574 1_565 S
C1149 C1168 1.368 . S
C1149 H1173 0.949 . S
H1150 C1154 0.949 . S
C1151 C1152 1.349 1_554 S
C1151 C1153 1.327 . S
C1151 H1174 0.950 . S
C1152 C1151 1.349 1_556 S
C1152 C1164 1.349 . S
C1153 C1151 1.327 . S
C1153 C1169 1.429 1_554 S
C1153 H1175 0.950 . S
C1154 H1150 0.949 . S
C1154 C1162 1.574 1_545 S
C1154 C1170 1.368 . S
H1155 C1163 0.950 . S
H1156 C1161 0.950 . S
H1157 C1162 0.949 . S
H1158 C1164 0.950 . S
H1159 C1165 0.950 . S
H1160 C1166 0.949 . S
C1161 H1156 0.950 . S
C1161 C1163 1.327 . S
C1161 C1167 1.429 . S
C1162 C1154 1.574 1_565 S
C1162 H1157 0.949 . S
C1162 C1168 1.368 1_556 S
C1163 C1147 1.349 . S
C1163 H1155 0.950 . S
C1163 C1161 1.327 . S
C1164 C1152 1.349 . S
C1164 H1158 0.950 . S
C1164 C1165 1.327 . S
C1165 H1159 0.950 . S
C1165 C1164 1.327 . S
C1165 C1169 1.429 . S
C1166 C1149 1.574 1_545 S
C1166 H1160 0.949 . S
C1166 C1170 1.368 1_554 S
C1167 C1148 1.429 1_554 S
C1167 C1161 1.429 . S
C1167 C1168 1.523 . S
C1168 C1149 1.368 . S
C1168 C1162 1.368 1_554 S
C1168 C1167 1.523 . S
C1169 C1153 1.429 1_556 S
C1169 C1165 1.429 . S
C1169 C1170 1.523 . S
C1170 C1154 1.368 . S
C1170 C1166 1.368 1_556 S
C1170 C1169 1.523 . S
H1171 C1146 0.950 . S
H1172 C1148 0.950 . S
H1173 C1149 0.949 . S
H1174 C1151 0.950 . S
H1175 C1153 0.950 . S
C1176 C1177 1.349 1_556 S
C1176 C1178 1.327 . S
C1176 H1201 0.950 . S
C1177 C1176 1.349 1_554 S
C1177 C1193 1.349 . S
C1178 C1176 1.327 . S
C1178 C1197 1.429 1_556 S
C1178 H1202 0.950 . S
C1179 C1196 1.574 . S
C1179 C1198 1.368 . S
C1179 H1203 0.949 . S
H1180 C1184 0.949 . S
C1181 C1182 1.349 1_554 S
C1181 C1183 1.327 . S
C1181 H1204 0.950 . S
C1182 C1181 1.349 1_556 S
C1182 C1194 1.349 . S
C1183 C1181 1.327 . S
C1183 C1199 1.429 1_554 S
C1183 H1205 0.950 . S
C1184 H1180 0.949 . S
C1184 C1192 1.574 . S
C1184 C1200 1.368 . S
H1185 C1193 0.950 . S
H1186 C1191 0.950 . S
H1187 C1192 0.949 . S
H1188 C1194 0.950 . S
H1189 C1195 0.950 . S
H1190 C1196 0.949 . S
C1191 H1186 0.950 . S
C1191 C1193 1.327 . S
C1191 C1197 1.429 . S
C1192 C1184 1.574 . S
C1192 H1187 0.949 . S
C1192 C1198 1.368 1_556 S
C1193 C1177 1.349 . S
C1193 H1185 0.950 . S
C1193 C1191 1.327 . S
C1194 C1182 1.349 . S
C1194 H1188 0.950 . S
C1194 C1195 1.327 . S
C1195 H1189 0.950 . S
C1195 C1194 1.327 . S
C1195 C1199 1.429 . S
C1196 C1179 1.574 . S
C1196 H1190 0.949 . S
C1196 C1200 1.368 1_554 S
C1197 C1178 1.429 1_554 S
C1197 C1191 1.429 . S
C1197 C1198 1.523 . S
C1198 C1179 1.368 . S
C1198 C1192 1.368 1_554 S
C1198 C1197 1.523 . S
C1199 C1183 1.429 1_556 S
C1199 C1195 1.429 . S
C1199 C1200 1.523 . S
C1200 C1184 1.368 . S
C1200 C1196 1.368 1_556 S
C1200 C1199 1.523 . S
H1201 C1176 0.950 . S
H1202 C1178 0.950 . S
H1203 C1179 0.949 . S
H1204 C1181 0.950 . S
H1205 C1183 0.950 . S
C1206 C1207 1.349 . S
C1206 C1208 1.327 . S
C1206 H1231 0.950 . S
C1207 C1206 1.349 . S
C1207 C1223 1.349 1_554 S
C1208 C1206 1.327 . S
C1208 C1227 1.429 . S
C1208 H1232 0.950 . S
C1209 C1226 1.574 1_455 S
C1209 C1228 1.368 1_556 S
C1209 H1233 0.949 . S
H1210 C1214 0.949 . S
C1211 C1212 1.349 . S
C1211 C1213 1.327 . S
C1211 H1234 0.950 . S
C1212 C1211 1.349 . S
C1212 C1224 1.349 1_556 S
C1213 C1211 1.327 . S
C1213 C1229 1.429 . S
C1213 H1235 0.950 . S
C1214 H1210 0.949 . S
C1214 C1222 1.574 1_655 S
C1214 C1230 1.368 1_554 S
H1215 C1223 0.950 . S
H1216 C1221 0.950 . S
H1217 C1222 0.949 . S
H1218 C1224 0.950 . S
H1219 C1225 0.950 . S
H1220 C1226 0.949 . S
C1221 H1216 0.950 . S
C1221 C1223 1.327 . S
C1221 C1227 1.429 1_556 S
C1222 C1214 1.574 1_455 S
C1222 H1217 0.949 . S
C1222 C1228 1.368 . S
C1223 C1207 1.349 1_556 S
C1223 H1215 0.950 . S
C1223 C1221 1.327 . S
C1224 C1212 1.349 1_554 S
C1224 H1218 0.950 . S
C1224 C1225 1.327 . S
C1225 H1219 0.950 . S
C1225 C1224 1.327 . S
C1225 C1229 1.429 1_554 S
C1226 C1209 1.574 1_655 S
C1226 H1220 0.949 . S
C1226 C1230 1.368 . S
C1227 C1208 1.429 . S
C1227 C1221 1.429 1_554 S
C1227 C1228 1.523 . S
C1228 C1209 1.368 1_554 S
C1228 C1222 1.368 . S
C1228 C1227 1.523 . S
C1229 C1213 1.429 . S
C1229 C1225 1.429 1_556 S
C1229 C1230 1.523 . S
C1230 C1214 1.368 1_556 S
C1230 C1226 1.368 . S
C1230 C1229 1.523 . S
H1231 C1206 0.950 . S
H1232 C1208 0.950 . S
H1233 C1209 0.949 . S
H1234 C1211 0.950 . S
H1235 C1213 0.950 . S
C1236 C1237 1.349 . S
C1236 C1238 1.327 . S
C1236 H1261 0.950 . S
C1237 C1236 1.349 . S
C1237 C1253 1.349 1_556 S
C1238 C1236 1.327 . S
C1238 C1257 1.429 . S
C1238 H1262 0.950 . S
C1239 C1256 1.574 1_565 S
C1239 C1258 1.368 1_554 S
C1239 H1263 0.949 . S
H1240 C1244 0.949 . S
C1241 C1242 1.349 . S
C1241 C1243 1.327 . S
C1241 H1264 0.950 . S
C1242 C1241 1.349 . S
C1242 C1254 1.349 1_554 S
C1243 C1241 1.327 . S
C1243 C1259 1.429 . S
C1243 H1265 0.950 . S
C1244 H1240 0.949 . S
C1244 C1252 1.574 1_545 S
C1244 C1260 1.368 1_556 S
H1245 C1253 0.950 . S
H1246 C1251 0.950 . S
H1247 C1252 0.949 . S
H1248 C1254 0.950 . S
H1249 C1255 0.950 . S
H1250 C1256 0.949 . S
C1251 H1246 0.950 . S
C1251 C1253 1.327 . S
C1251 C1257 1.429 1_554 S
C1252 C1244 1.574 1_565 S
C1252 H1247 0.949 . S
C1252 C1258 1.368 . S
C1253 C1237 1.349 1_554 S
C1253 H1245 0.950 . S
C1253 C1251 1.327 . S
C1254 C1242 1.349 1_556 S
C1254 H1248 0.950 . S
C1254 C1255 1.327 . S
C1255 H1249 0.950 . S
C1255 C1254 1.327 . S
C1255 C1259 1.429 1_556 S
C1256 C1239 1.574 1_545 S
C1256 H1250 0.949 . S
C1256 C1260 1.368 . S
C1257 C1238 1.429 . S
C1257 C1251 1.429 1_556 S
C1257 C1258 1.523 . S
C1258 C1239 1.368 1_556 S
C1258 C1252 1.368 . S
C1258 C1257 1.523 . S
C1259 C1243 1.429 . S
C1259 C1255 1.429 1_554 S
C1259 C1260 1.523 . S
C1260 C1244 1.368 1_554 S
C1260 C1256 1.368 . S
C1260 C1259 1.523 . S
H1261 C1236 0.950 . S
H1262 C1238 0.950 . S
H1263 C1239 0.949 . S
H1264 C1241 0.950 . S
H1265 C1243 0.950 . S
C1266 C1267 1.349 1_556 S
C1266 C1268 1.327 . S
C1266 H1291 0.950 . S
C1267 C1266 1.349 1_554 S
C1267 C1283 1.349 . S
C1268 C1266 1.327 . S
C1268 C1287 1.429 1_556 S
C1268 H1292 0.950 . S
C1269 C1286 1.574 . S
C1269 C1288 1.368 . S
C1269 H1293 0.949 . S
H1270 C1274 0.949 . S
C1271 C1272 1.349 1_554 S
C1271 C1273 1.327 . S
C1271 H1294 0.950 . S
C1272 C1271 1.349 1_556 S
C1272 C1284 1.349 . S
C1273 C1271 1.327 . S
C1273 C1289 1.429 1_554 S
C1273 H1295 0.950 . S
C1274 H1270 0.949 . S
C1274 C1282 1.574 . S
C1274 C1290 1.368 . S
H1275 C1283 0.950 . S
H1276 C1281 0.950 . S
H1277 C1282 0.949 . S
H1278 C1284 0.950 . S
H1279 C1285 0.950 . S
H1280 C1286 0.949 . S
C1281 H1276 0.950 . S
C1281 C1283 1.327 . S
C1281 C1287 1.429 . S
C1282 C1274 1.574 . S
C1282 H1277 0.949 . S
C1282 C1288 1.368 1_556 S
C1283 C1267 1.349 . S
C1283 H1275 0.950 . S
C1283 C1281 1.327 . S
C1284 C1272 1.349 . S
C1284 H1278 0.950 . S
C1284 C1285 1.327 . S
C1285 H1279 0.950 . S
C1285 C1284 1.327 . S
C1285 C1289 1.429 . S
C1286 C1269 1.574 . S
C1286 H1280 0.949 . S
C1286 C1290 1.368 1_554 S
C1287 C1268 1.429 1_554 S
C1287 C1281 1.429 . S
C1287 C1288 1.523 . S
C1288 C1269 1.368 . S
C1288 C1282 1.368 1_554 S
C1288 C1287 1.523 . S
C1289 C1273 1.429 1_556 S
C1289 C1285 1.429 . S
C1289 C1290 1.523 . S
C1290 C1274 1.368 . S
C1290 C1286 1.368 1_556 S
C1290 C1289 1.523 . S
H1291 C1266 0.950 . S
H1292 C1268 0.950 . S
H1293 C1269 0.949 . S
H1294 C1271 0.950 . S
H1295 C1273 0.950 . S
C397 C285 1.590 . S
C402 C21 1.590 . S
C427 C54 1.590 . S
C432 C318 1.590 . S
C457 C351 1.590 . S
C462 C87 1.590 . S
C487 C384 1.590 . S
C492 C120 1.590 . S
C517 C153 1.590 . S
C522 C219 1.590 . S
C547 C252 1.590 . S
C552 C186 1.590 . S
C577 C348 1.121 . S
C582 C18 1.121 . S
C607 C381 1.121 . S
C612 C51 1.121 . S
C637 C84 1.121 . S
C642 C216 1.121 . S
C667 C249 1.121 . S
C672 C117 1.121 . S
C697 C282 1.121 . S
C702 C150 1.121 . S
C727 C315 1.121 . S
C732 C183 1.121 . S
C757 N13 1.447 . S
C762 N2 1.444 . S
C787 N46 1.447 . S
C792 N35 1.444 . S
C817 N79 1.447 . S
C822 N68 1.444 . S
C847 N112 1.447 . S
C852 N101 1.444 . S
C877 N134 1.444 . S
C882 N145 1.447 . S
C907 N178 1.447 . S
C912 N167 1.444 . S
C937 N200 1.444 . S
C942 N211 1.447 . S
C967 N244 1.447 . S
C972 N233 1.444 . S
C997 N266 1.444 . S
C1002 N277 1.447 . S
C1027 N299 1.444 . S
C1032 N310 1.447 . S
C1057 N343 1.447 . S
C1062 N332 1.444 . S
C1087 N376 1.447 . S
C1092 N365 1.444 . S
C1117 C7 1.121 . S
C1122 C370 1.121 . S
C1147 C205 1.121 . S
C1152 C40 1.121 . S
C1177 C238 1.121 . S
C1182 C73 1.121 . S
C1207 C271 1.120 . S
C1212 C106 1.120 . S
C1237 C139 1.120 . S
C1242 C304 1.120 . S
C1267 C337 1.120 . S
C1272 C172 1.120 . S
