# Generated by pormake.
# Topology mer, (4)-cn, num edge types: 1
# Building blocks:
#     Node 0, Type 0, BuildingBlock: GALJAG_clean_sbu_0, # of connection points: 4
#     Node 1, Type 0, BuildingBlock: GALJAG_clean_sbu_0, # of connection points: 4
#     Node 2, Type 0, BuildingBlock: GALJAG_clean_sbu_0, # of connection points: 4
#     Node 3, Type 0, BuildingBlock: GALJAG_clean_sbu_0, # of connection points: 4
#     Node 4, Type 0, BuildingBlock: GALJAG_clean_sbu_0, # of connection points: 4
#     Node 5, Type 0, BuildingBlock: GALJAG_clean_sbu_0, # of connection points: 4
#     Node 6, Type 0, BuildingBlock: GALJAG_clean_sbu_0, # of connection points: 4
#     Node 7, Type 0, BuildingBlock: GALJAG_clean_sbu_0, # of connection points: 4
#     Node 8, Type 0, BuildingBlock: GALJAG_clean_sbu_0, # of connection points: 4
#     Node 9, Type 0, BuildingBlock: GALJAG_clean_sbu_0, # of connection points: 4
#     Node 10, Type 0, BuildingBlock: GALJAG_clean_sbu_0, # of connection points: 4
#     Node 11, Type 0, BuildingBlock: GALJAG_clean_sbu_0, # of connection points: 4
#     Node 12, Type 0, BuildingBlock: GALJAG_clean_sbu_0, # of connection points: 4
#     Node 13, Type 0, BuildingBlock: GALJAG_clean_sbu_0, # of connection points: 4
#     Node 14, Type 0, BuildingBlock: GALJAG_clean_sbu_0, # of connection points: 4
#     Node 15, Type 0, BuildingBlock: GALJAG_clean_sbu_0, # of connection points: 4
#     Node 16, Type 0, BuildingBlock: GALJAG_clean_sbu_0, # of connection points: 4
#     Node 17, Type 0, BuildingBlock: GALJAG_clean_sbu_0, # of connection points: 4
#     Node 18, Type 0, BuildingBlock: GALJAG_clean_sbu_0, # of connection points: 4
#     Node 19, Type 0, BuildingBlock: GALJAG_clean_sbu_0, # of connection points: 4
#     Node 20, Type 0, BuildingBlock: GALJAG_clean_sbu_0, # of connection points: 4
#     Node 21, Type 0, BuildingBlock: GALJAG_clean_sbu_0, # of connection points: 4
#     Node 22, Type 0, BuildingBlock: GALJAG_clean_sbu_0, # of connection points: 4
#     Node 23, Type 0, BuildingBlock: GALJAG_clean_sbu_0, # of connection points: 4
#     Node 24, Type 0, BuildingBlock: GALJAG_clean_sbu_0, # of connection points: 4
#     Node 25, Type 0, BuildingBlock: GALJAG_clean_sbu_0, # of connection points: 4
#     Node 26, Type 0, BuildingBlock: GALJAG_clean_sbu_0, # of connection points: 4
#     Node 27, Type 0, BuildingBlock: GALJAG_clean_sbu_0, # of connection points: 4
#     Node 28, Type 0, BuildingBlock: GALJAG_clean_sbu_0, # of connection points: 4
#     Node 29, Type 0, BuildingBlock: GALJAG_clean_sbu_0, # of connection points: 4
#     Node 30, Type 0, BuildingBlock: GALJAG_clean_sbu_0, # of connection points: 4
#     Node 31, Type 0, BuildingBlock: GALJAG_clean_sbu_0, # of connection points: 4
#     Edge 32, Type (0, 0), BuildingBlock: MIFKUJ_clean_linker_0, # of connection points: 2
#     Edge 33, Type (0, 0), BuildingBlock: MIFKUJ_clean_linker_0, # of connection points: 2
#     Edge 34, Type (0, 0), BuildingBlock: MIFKUJ_clean_linker_0, # of connection points: 2
#     Edge 35, Type (0, 0), BuildingBlock: MIFKUJ_clean_linker_0, # of connection points: 2
#     Edge 36, Type (0, 0), BuildingBlock: MIFKUJ_clean_linker_0, # of connection points: 2
#     Edge 37, Type (0, 0), BuildingBlock: MIFKUJ_clean_linker_0, # of connection points: 2
#     Edge 38, Type (0, 0), BuildingBlock: MIFKUJ_clean_linker_0, # of connection points: 2
#     Edge 39, Type (0, 0), BuildingBlock: MIFKUJ_clean_linker_0, # of connection points: 2
#     Edge 40, Type (0, 0), BuildingBlock: MIFKUJ_clean_linker_0, # of connection points: 2
#     Edge 41, Type (0, 0), BuildingBlock: MIFKUJ_clean_linker_0, # of connection points: 2
#     Edge 42, Type (0, 0), BuildingBlock: MIFKUJ_clean_linker_0, # of connection points: 2
#     Edge 43, Type (0, 0), BuildingBlock: MIFKUJ_clean_linker_0, # of connection points: 2
#     Edge 44, Type (0, 0), BuildingBlock: MIFKUJ_clean_linker_0, # of connection points: 2
#     Edge 45, Type (0, 0), BuildingBlock: MIFKUJ_clean_linker_0, # of connection points: 2
#     Edge 46, Type (0, 0), BuildingBlock: MIFKUJ_clean_linker_0, # of connection points: 2
#     Edge 47, Type (0, 0), BuildingBlock: MIFKUJ_clean_linker_0, # of connection points: 2
#     Edge 48, Type (0, 0), BuildingBlock: MIFKUJ_clean_linker_0, # of connection points: 2
#     Edge 49, Type (0, 0), BuildingBlock: MIFKUJ_clean_linker_0, # of connection points: 2
#     Edge 50, Type (0, 0), BuildingBlock: MIFKUJ_clean_linker_0, # of connection points: 2
#     Edge 51, Type (0, 0), BuildingBlock: MIFKUJ_clean_linker_0, # of connection points: 2
#     Edge 52, Type (0, 0), BuildingBlock: MIFKUJ_clean_linker_0, # of connection points: 2
#     Edge 53, Type (0, 0), BuildingBlock: MIFKUJ_clean_linker_0, # of connection points: 2
#     Edge 54, Type (0, 0), BuildingBlock: MIFKUJ_clean_linker_0, # of connection points: 2
#     Edge 55, Type (0, 0), BuildingBlock: MIFKUJ_clean_linker_0, # of connection points: 2
#     Edge 56, Type (0, 0), BuildingBlock: MIFKUJ_clean_linker_0, # of connection points: 2
#     Edge 57, Type (0, 0), BuildingBlock: MIFKUJ_clean_linker_0, # of connection points: 2
#     Edge 58, Type (0, 0), BuildingBlock: MIFKUJ_clean_linker_0, # of connection points: 2
#     Edge 59, Type (0, 0), BuildingBlock: MIFKUJ_clean_linker_0, # of connection points: 2
#     Edge 60, Type (0, 0), BuildingBlock: MIFKUJ_clean_linker_0, # of connection points: 2
#     Edge 61, Type (0, 0), BuildingBlock: MIFKUJ_clean_linker_0, # of connection points: 2
#     Edge 62, Type (0, 0), BuildingBlock: MIFKUJ_clean_linker_0, # of connection points: 2
#     Edge 63, Type (0, 0), BuildingBlock: MIFKUJ_clean_linker_0, # of connection points: 2
#     Edge 64, Type (0, 0), BuildingBlock: MIFKUJ_clean_linker_0, # of connection points: 2
#     Edge 65, Type (0, 0), BuildingBlock: MIFKUJ_clean_linker_0, # of connection points: 2
#     Edge 66, Type (0, 0), BuildingBlock: MIFKUJ_clean_linker_0, # of connection points: 2
#     Edge 67, Type (0, 0), BuildingBlock: MIFKUJ_clean_linker_0, # of connection points: 2
#     Edge 68, Type (0, 0), BuildingBlock: MIFKUJ_clean_linker_0, # of connection points: 2
#     Edge 69, Type (0, 0), BuildingBlock: MIFKUJ_clean_linker_0, # of connection points: 2
#     Edge 70, Type (0, 0), BuildingBlock: MIFKUJ_clean_linker_0, # of connection points: 2
#     Edge 71, Type (0, 0), BuildingBlock: MIFKUJ_clean_linker_0, # of connection points: 2
#     Edge 72, Type (0, 0), BuildingBlock: MIFKUJ_clean_linker_0, # of connection points: 2
#     Edge 73, Type (0, 0), BuildingBlock: MIFKUJ_clean_linker_0, # of connection points: 2
#     Edge 74, Type (0, 0), BuildingBlock: MIFKUJ_clean_linker_0, # of connection points: 2
#     Edge 75, Type (0, 0), BuildingBlock: MIFKUJ_clean_linker_0, # of connection points: 2
#     Edge 76, Type (0, 0), BuildingBlock: MIFKUJ_clean_linker_0, # of connection points: 2
#     Edge 77, Type (0, 0), BuildingBlock: MIFKUJ_clean_linker_0, # of connection points: 2
#     Edge 78, Type (0, 0), BuildingBlock: MIFKUJ_clean_linker_0, # of connection points: 2
#     Edge 79, Type (0, 0), BuildingBlock: MIFKUJ_clean_linker_0, # of connection points: 2
#     Edge 80, Type (0, 0), BuildingBlock: MIFKUJ_clean_linker_0, # of connection points: 2
#     Edge 81, Type (0, 0), BuildingBlock: MIFKUJ_clean_linker_0, # of connection points: 2
#     Edge 82, Type (0, 0), BuildingBlock: MIFKUJ_clean_linker_0, # of connection points: 2
#     Edge 83, Type (0, 0), BuildingBlock: MIFKUJ_clean_linker_0, # of connection points: 2
#     Edge 84, Type (0, 0), BuildingBlock: MIFKUJ_clean_linker_0, # of connection points: 2
#     Edge 85, Type (0, 0), BuildingBlock: MIFKUJ_clean_linker_0, # of connection points: 2
#     Edge 86, Type (0, 0), BuildingBlock: MIFKUJ_clean_linker_0, # of connection points: 2
#     Edge 87, Type (0, 0), BuildingBlock: MIFKUJ_clean_linker_0, # of connection points: 2
#     Edge 88, Type (0, 0), BuildingBlock: MIFKUJ_clean_linker_0, # of connection points: 2
#     Edge 89, Type (0, 0), BuildingBlock: MIFKUJ_clean_linker_0, # of connection points: 2
#     Edge 90, Type (0, 0), BuildingBlock: MIFKUJ_clean_linker_0, # of connection points: 2
#     Edge 91, Type (0, 0), BuildingBlock: MIFKUJ_clean_linker_0, # of connection points: 2
#     Edge 92, Type (0, 0), BuildingBlock: MIFKUJ_clean_linker_0, # of connection points: 2
#     Edge 93, Type (0, 0), BuildingBlock: MIFKUJ_clean_linker_0, # of connection points: 2
#     Edge 94, Type (0, 0), BuildingBlock: MIFKUJ_clean_linker_0, # of connection points: 2
#     Edge 95, Type (0, 0), BuildingBlock: MIFKUJ_clean_linker_0, # of connection points: 2
# Relax obj value: 0.054
# Max RMSD: 0.080
# Mean RMSD: 0.080
data_MOF--net-mer--node1-GALJAG_clean_sbu_0--edge1-MIFKUJ_clean_linker_0
_symmetry_space_group_name_H-M    P1
_symmetry_Int_Tables_number       1
_symmetry_cell_setting            triclinic
loop_
_symmetry_equiv_pos_as_xyz
'x, y, z'
_cell_length_a     82.484243
_cell_length_b     82.499971
_cell_length_c     70.665398
_cell_angle_alpha  89.991821
_cell_angle_beta   90.036821
_cell_angle_gamma 89.997595
loop_
_atom_site_label
_atom_site_type_symbol
_atom_site_fract_x
_atom_site_fract_y
_atom_site_fract_z
_atom_type_partial_charge
In0 In 0.11817 0.28533 0.36407 0.0
O1 O 0.11634 0.30821 0.34594 0.0
O2 O 0.13877 0.29552 0.34643 0.0
C3 C 0.11943 0.29904 0.39891 0.0
C4 C 0.13447 0.25716 0.36007 0.0
C5 C 0.0875 0.27725 0.35482 0.0
O6 O 0.13165 0.29823 0.38827 0.0
O7 O 0.10666 0.29334 0.39182 0.0
O8 O 0.09537 0.27001 0.36758 0.0
O9 O 0.0952 0.28835 0.34649 0.0
C10 C 0.13068 0.30718 0.3398 0.0
O11 O 0.12887 0.26497 0.34621 0.0
O12 O 0.13163 0.26339 0.37602 0.0
In13 In 0.71303 0.11615 0.36326 0.0
O14 O 0.73947 0.12214 0.35663 0.0
O15 O 0.72273 0.14162 0.35886 0.0
C16 C 0.71518 0.08366 0.36212 0.0
C17 C 0.69253 0.12304 0.3347 0.0
C18 C 0.70853 0.12076 0.40062 0.0
O19 O 0.72605 0.09277 0.3554 0.0
O20 O 0.70319 0.09096 0.36924 0.0
O21 O 0.69703 0.12194 0.38887 0.0
O22 O 0.72209 0.11729 0.39346 0.0
C23 C 0.73715 0.13725 0.35593 0.0
O24 O 0.69071 0.12879 0.35111 0.0
O25 O 0.70439 0.11355 0.33288 0.0
In26 In 0.87966 0.71651 0.36274 0.0
O27 O 0.8599 0.69994 0.35074 0.0
O28 O 0.88221 0.70181 0.33583 0.0
C29 C 0.87843 0.70532 0.39856 0.0
C30 C 0.86211 0.74414 0.35962 0.0
C31 C 0.91171 0.71972 0.35672 0.0
O32 O 0.87031 0.69883 0.38543 0.0
O33 O 0.88691 0.71727 0.39353 0.0
O34 O 0.90201 0.73144 0.35465 0.0
O35 O 0.90518 0.70654 0.36159 0.0
C36 C 0.8682 0.69575 0.33653 0.0
O37 O 0.86684 0.73622 0.34542 0.0
O38 O 0.86638 0.73827 0.37527 0.0
In39 In 0.28635 0.87893 0.36387 0.0
O40 O 0.31021 0.86989 0.35117 0.0
O41 O 0.29186 0.87845 0.33251 0.0
C42 C 0.29103 0.8754 0.40138 0.0
C43 C 0.26277 0.8568 0.35863 0.0
C44 C 0.2845 0.91139 0.36165 0.0
O45 O 0.30174 0.87138 0.38947 0.0
O46 O 0.27821 0.88111 0.3943 0.0
O47 O 0.27269 0.90231 0.35755 0.0
O48 O 0.29721 0.90407 0.36673 0.0
C49 C 0.30588 0.87256 0.3343 0.0
O50 O 0.2602 0.87184 0.35728 0.0
O51 O 0.27721 0.85299 0.3625 0.0
In52 In 0.11759 0.71224 0.63232 0.0
O53 O 0.12219 0.73887 0.63923 0.0
O54 O 0.14258 0.72335 0.63571 0.0
C55 C 0.08502 0.71464 0.6323 0.0
C56 C 0.12557 0.69461 0.66297 0.0
C57 C 0.12315 0.7034 0.59609 0.0
O58 O 0.0941 0.72688 0.63092 0.0
O59 O 0.09236 0.7013 0.6337 0.0
O60 O 0.12028 0.69316 0.60891 0.0
O61 O 0.12326 0.71791 0.60159 0.0
C62 C 0.13744 0.73744 0.6392 0.0
O63 O 0.13086 0.69135 0.64664 0.0
O64 O 0.11614 0.70662 0.66376 0.0
In65 In 0.29019 0.12111 0.63315 0.0
O66 O 0.31211 0.13276 0.64761 0.0
O67 O 0.2966 0.11787 0.66415 0.0
C68 C 0.29724 0.12704 0.59654 0.0
C69 C 0.26581 0.14221 0.63931 0.0
C70 C 0.28723 0.08859 0.63314 0.0
O71 O 0.30813 0.12614 0.60906 0.0
O72 O 0.28301 0.12488 0.60251 0.0
O73 O 0.27588 0.09788 0.63822 0.0
O74 O 0.30001 0.09573 0.62796 0.0
C75 C 0.30903 0.12673 0.66363 0.0
O76 O 0.26349 0.12714 0.63785 0.0
O77 O 0.28042 0.14658 0.63785 0.0
In78 In 0.88119 0.28766 0.63386 0.0
O79 O 0.87496 0.26143 0.64126 0.0
O80 O 0.85557 0.27809 0.63729 0.0
C81 C 0.9137 0.28545 0.63502 0.0
C82 C 0.87467 0.3073 0.66335 0.0
C83 C 0.87659 0.29276 0.59654 0.0
O84 O 0.90459 0.27363 0.63898 0.0
O85 O 0.90639 0.29829 0.63038 0.0
O86 O 0.87639 0.30423 0.60837 0.0
O87 O 0.87912 0.27895 0.60357 0.0
C88 C 0.85983 0.26375 0.641 0.0
O89 O 0.86895 0.30986 0.64703 0.0
O90 O 0.8837 0.29503 0.66462 0.0
In91 In 0.70913 0.87996 0.63202 0.0
O92 O 0.68702 0.86897 0.64677 0.0
O93 O 0.70409 0.88195 0.66344 0.0
C94 C 0.70175 0.87444 0.59545 0.0
C95 C 0.73294 0.8582 0.63742 0.0
C96 C 0.71262 0.91241 0.63235 0.0
O97 O 0.69089 0.87619 0.60788 0.0
O98 O 0.71607 0.87563 0.60148 0.0
O99 O 0.72422 0.9029 0.63584 0.0
O100 O 0.69936 0.90554 0.62851 0.0
C101 C 0.69111 0.87391 0.663 0.0
O102 O 0.73555 0.87329 0.6373 0.0
O103 O 0.71831 0.85417 0.63501 0.0
In104 In 0.87888 0.71228 0.63245 0.0
O105 O 0.87149 0.7385 0.63823 0.0
O106 O 0.8532 0.72199 0.62949 0.0
C107 C 0.91124 0.71488 0.63565 0.0
C108 C 0.87139 0.69516 0.66362 0.0
C109 C 0.87749 0.70281 0.596 0.0
O110 O 0.90213 0.72711 0.634 0.0
O111 O 0.90397 0.70142 0.63592 0.0
O112 O 0.8719 0.69415 0.60921 0.0
O113 O 0.88351 0.71611 0.60122 0.0
C114 C 0.85673 0.73626 0.63435 0.0
O115 O 0.86912 0.68969 0.64714 0.0
O116 O 0.87744 0.70919 0.6643 0.0
In117 In 0.28251 0.88217 0.63973 0.0
O118 O 0.25581 0.87652 0.64539 0.0
O119 O 0.27227 0.85679 0.64321 0.0
C120 C 0.28225 0.91477 0.6404 0.0
C121 C 0.30147 0.87582 0.66984 0.0
C122 C 0.28781 0.87708 0.60258 0.0
O123 O 0.27005 0.90643 0.64506 0.0
O124 O 0.29452 0.90665 0.63553 0.0
O125 O 0.29836 0.87373 0.61495 0.0
O126 O 0.27479 0.88287 0.60902 0.0
C127 C 0.25785 0.86135 0.64578 0.0
O128 O 0.30534 0.87155 0.65328 0.0
O129 O 0.28819 0.88332 0.67107 0.0
In130 In 0.11971 0.28779 0.63403 0.0
O131 O 0.12629 0.26096 0.63688 0.0
O132 O 0.14546 0.27794 0.634 0.0
C133 C 0.08736 0.28594 0.6379 0.0
C134 C 0.12649 0.30539 0.66515 0.0
C135 C 0.12191 0.29662 0.59738 0.0
O136 O 0.09644 0.27369 0.63955 0.0
O137 O 0.09464 0.29907 0.63443 0.0
O138 O 0.12899 0.30439 0.61037 0.0
O139 O 0.11397 0.28446 0.60289 0.0
C140 C 0.14138 0.26333 0.636 0.0
O141 O 0.12849 0.31089 0.64864 0.0
O142 O 0.1211 0.29111 0.66588 0.0
In143 In 0.71406 0.11835 0.63935 0.0
O144 O 0.69046 0.12806 0.65188 0.0
O145 O 0.70826 0.11865 0.67071 0.0
C146 C 0.70909 0.12207 0.60193 0.0
C147 C 0.73773 0.14036 0.64468 0.0
C148 C 0.71555 0.08583 0.64127 0.0
O149 O 0.69825 0.12535 0.61396 0.0
O150 O 0.72223 0.11696 0.60884 0.0
O151 O 0.72761 0.09471 0.64496 0.0
O152 O 0.70282 0.09338 0.63675 0.0
C153 C 0.69447 0.12503 0.66877 0.0
O154 O 0.74021 0.12532 0.64629 0.0
O155 O 0.72335 0.14421 0.64059 0.0
In156 In 0.88283 0.28187 0.3589 0.0
O157 O 0.87562 0.25546 0.35442 0.0
O158 O 0.85706 0.27327 0.353 0.0
C159 C 0.91507 0.27688 0.35761 0.0
C160 C 0.87808 0.30271 0.32999 0.0
C161 C 0.87782 0.28837 0.39583 0.0
O162 O 0.90508 0.26766 0.34942 0.0
O163 O 0.90879 0.28851 0.36659 0.0
O164 O 0.87901 0.29945 0.38357 0.0
O165 O 0.87917 0.27416 0.38942 0.0
C166 C 0.86077 0.25847 0.35199 0.0
O167 O 0.87174 0.30485 0.34605 0.0
O168 O 0.88685 0.29027 0.32871 0.0
In169 In 0.70808 0.87804 0.36199 0.0
O170 O 0.68933 0.86184 0.34751 0.0
O171 O 0.69587 0.88381 0.33391 0.0
C172 C 0.69689 0.86797 0.39592 0.0
C173 C 0.73662 0.86283 0.35663 0.0
C174 C 0.71321 0.91031 0.36373 0.0
O175 O 0.68919 0.87789 0.38574 0.0
O176 O 0.7099 0.86286 0.38874 0.0
O177 O 0.7215 0.90109 0.35331 0.0
O178 O 0.70243 0.90326 0.37328 0.0
C179 C 0.68745 0.87108 0.33347 0.0
O180 O 0.72448 0.86041 0.34611 0.0
O181 O 0.7344 0.87307 0.36964 0.0
In182 In 0.11662 0.71151 0.36076 0.0
O183 O 0.12424 0.73768 0.35547 0.0
O184 O 0.14277 0.71991 0.35846 0.0
C185 C 0.08435 0.71622 0.35891 0.0
C186 C 0.12298 0.69246 0.33071 0.0
C187 C 0.12059 0.70368 0.39753 0.0
O188 O 0.09439 0.72746 0.35586 0.0
O189 O 0.09061 0.70273 0.36303 0.0
O190 O 0.11901 0.69306 0.38482 0.0
O191 O 0.12005 0.71811 0.3917 0.0
C192 C 0.13924 0.73462 0.35577 0.0
O193 O 0.12743 0.68883 0.34726 0.0
O194 O 0.1153 0.70562 0.32938 0.0
In195 In 0.28402 0.11781 0.36319 0.0
O196 O 0.30457 0.13194 0.34933 0.0
O197 O 0.2919 0.11459 0.33263 0.0
C198 C 0.29298 0.12697 0.39841 0.0
C199 C 0.25706 0.1355 0.35702 0.0
C200 C 0.28215 0.08514 0.36357 0.0
O201 O 0.30324 0.12349 0.38581 0.0
O202 O 0.27844 0.12596 0.39314 0.0
O203 O 0.2712 0.09393 0.35652 0.0
O204 O 0.29396 0.09282 0.37044 0.0
C205 C 0.30298 0.12512 0.33343 0.0
O206 O 0.25707 0.12292 0.36718 0.0
O207 O 0.27058 0.13908 0.34983 0.0
In208 In 0.621 0.78719 0.86267 0.0
O209 O 0.6328 0.80912 0.84866 0.0
O210 O 0.6182 0.79368 0.83161 0.0
C211 C 0.62707 0.79368 0.89934 0.0
C212 C 0.64175 0.76268 0.85597 0.0
C213 C 0.58844 0.78547 0.86318 0.0
O214 O 0.62661 0.80469 0.88694 0.0
O215 O 0.62451 0.77957 0.8932 0.0
O216 O 0.59719 0.77363 0.85831 0.0
O217 O 0.59613 0.79808 0.86777 0.0
C218 C 0.62705 0.80612 0.83247 0.0
O219 O 0.62662 0.76053 0.85708 0.0
O220 O 0.64631 0.77717 0.85809 0.0
In221 In 0.21513 0.61926 0.85964 0.0
O222 O 0.19298 0.63121 0.84612 0.0
O223 O 0.20932 0.61836 0.82832 0.0
C224 C 0.20931 0.624 0.89673 0.0
C225 C 0.24009 0.63976 0.85411 0.0
C226 C 0.2155 0.58665 0.85828 0.0
O227 O 0.19838 0.62582 0.88438 0.0
O228 O 0.22297 0.61997 0.89028 0.0
O229 O 0.22757 0.59512 0.85348 0.0
O230 O 0.20331 0.59465 0.86363 0.0
C231 C 0.19656 0.62671 0.82956 0.0
O232 O 0.24203 0.6246 0.8552 0.0
O233 O 0.22561 0.64449 0.85575 0.0
In234 In 0.37947 0.21349 0.86247 0.0
O235 O 0.36857 0.19082 0.84896 0.0
O236 O 0.38217 0.20673 0.83145 0.0
C237 C 0.37337 0.20663 0.8991 0.0
C238 C 0.35822 0.2377 0.85615 0.0
C239 C 0.41198 0.21673 0.86265 0.0
O240 O 0.37428 0.1957 0.88663 0.0
O241 O 0.37549 0.22084 0.89304 0.0
O242 O 0.4027 0.22743 0.85588 0.0
O243 O 0.40486 0.20444 0.86923 0.0
C244 C 0.37393 0.1939 0.83262 0.0
O245 O 0.37316 0.24021 0.85868 0.0
O246 O 0.35405 0.22299 0.85668 0.0
In247 In 0.7861 0.38072 0.86034 0.0
O248 O 0.80921 0.37066 0.84698 0.0
O249 O 0.79123 0.38075 0.82884 0.0
C250 C 0.79138 0.37646 0.89766 0.0
C251 C 0.76228 0.35895 0.85478 0.0
C252 C 0.78512 0.41327 0.85863 0.0
O253 O 0.80218 0.37347 0.88547 0.0
O254 O 0.77818 0.38158 0.89096 0.0
O255 O 0.77271 0.40462 0.85587 0.0
O256 O 0.79793 0.40549 0.86216 0.0
C257 C 0.80489 0.37398 0.83026 0.0
O258 O 0.75975 0.37404 0.85409 0.0
O259 O 0.77676 0.35495 0.85811 0.0
In260 In 0.61835 0.21452 0.1386 0.0
O261 O 0.62888 0.19186 0.15263 0.0
O262 O 0.6192 0.2104 0.17024 0.0
C263 C 0.62165 0.20817 0.10141 0.0
C264 C 0.63988 0.23874 0.14289 0.0
C265 C 0.58581 0.21556 0.14097 0.0
O266 O 0.62466 0.19762 0.11389 0.0
O267 O 0.61716 0.22172 0.10778 0.0
O268 O 0.59453 0.22796 0.14343 0.0
O269 O 0.59352 0.20271 0.13747 0.0
C270 C 0.62602 0.19675 0.16924 0.0
O271 O 0.62477 0.24099 0.14415 0.0
O272 O 0.64405 0.22432 0.13943 0.0
In273 In 0.78653 0.61861 0.1363 0.0
O274 O 0.7596 0.62466 0.13805 0.0
O275 O 0.77645 0.64419 0.13714 0.0
C276 C 0.78606 0.5861 0.13888 0.0
C277 C 0.80191 0.62596 0.16871 0.0
C278 C 0.79503 0.62215 0.09977 0.0
O279 O 0.77347 0.59461 0.14111 0.0
O280 O 0.79882 0.59402 0.13554 0.0
O281 O 0.80421 0.62675 0.11306 0.0
O282 O 0.78177 0.61605 0.10503 0.0
C283 C 0.76182 0.63981 0.13815 0.0
O284 O 0.80848 0.62807 0.15274 0.0
O285 O 0.78782 0.62004 0.16818 0.0
In286 In 0.37794 0.78414 0.13848 0.0
O287 O 0.36695 0.8068 0.15198 0.0
O288 O 0.38185 0.79162 0.16901 0.0
C289 C 0.37227 0.78892 0.10133 0.0
C290 C 0.35647 0.76054 0.14653 0.0
C291 C 0.41042 0.78192 0.13772 0.0
O292 O 0.37129 0.80031 0.11323 0.0
O293 O 0.37599 0.77534 0.10824 0.0
O294 O 0.40153 0.77035 0.14316 0.0
O295 O 0.4029 0.79455 0.13277 0.0
C296 C 0.37319 0.80419 0.16802 0.0
O297 O 0.37152 0.7579 0.14563 0.0
O298 O 0.35236 0.77505 0.14357 0.0
In299 In 0.21216 0.3783 0.13811 0.0
O300 O 0.18965 0.36819 0.15296 0.0
O301 O 0.20699 0.38108 0.16939 0.0
C302 C 0.20643 0.372 0.10129 0.0
C303 C 0.23639 0.3573 0.14513 0.0
C304 C 0.21363 0.41083 0.13714 0.0
O305 O 0.19548 0.37057 0.11369 0.0
O306 O 0.22001 0.37652 0.10755 0.0
O307 O 0.22567 0.40217 0.14154 0.0
O308 O 0.20088 0.40306 0.13323 0.0
C309 C 0.1938 0.37338 0.16907 0.0
O310 O 0.23863 0.37242 0.14435 0.0
O311 O 0.22194 0.35282 0.14246 0.0
In312 In 0.37948 0.21067 0.13582 0.0
O313 O 0.36766 0.18862 0.14979 0.0
O314 O 0.38157 0.20455 0.16699 0.0
C315 C 0.37391 0.20452 0.09889 0.0
C316 C 0.35864 0.23505 0.14276 0.0
C317 C 0.41204 0.21282 0.13637 0.0
O318 O 0.37422 0.19337 0.11113 0.0
O319 O 0.37642 0.21854 0.10531 0.0
O320 O 0.40297 0.22478 0.13982 0.0
O321 O 0.40468 0.19983 0.13256 0.0
C322 C 0.37291 0.19199 0.16612 0.0
O323 O 0.37379 0.23718 0.14205 0.0
O324 O 0.35406 0.22065 0.14 0.0
In325 In 0.789 0.37972 0.1365 0.0
O326 O 0.81213 0.36849 0.14858 0.0
O327 O 0.79615 0.38059 0.16748 0.0
C328 C 0.79317 0.37536 0.09901 0.0
C329 C 0.76465 0.35881 0.14348 0.0
C330 C 0.78783 0.41227 0.13813 0.0
O331 O 0.80446 0.37288 0.11074 0.0
O332 O 0.77999 0.37998 0.10623 0.0
O333 O 0.77591 0.40346 0.14253 0.0
O334 O 0.80033 0.40465 0.13295 0.0
C335 C 0.80916 0.37278 0.16538 0.0
O336 O 0.76272 0.37398 0.14398 0.0
O337 O 0.77885 0.35424 0.1396 0.0
In338 In 0.61663 0.78557 0.13465 0.0
O339 O 0.62546 0.80866 0.14917 0.0
O340 O 0.61535 0.79004 0.1663 0.0
C341 C 0.62343 0.79281 0.09834 0.0
C342 C 0.63823 0.76162 0.14029 0.0
C343 C 0.58408 0.7828 0.134 0.0
O344 O 0.62322 0.8035 0.11112 0.0
O345 O 0.6202 0.77866 0.10393 0.0
O346 O 0.59321 0.77136 0.13917 0.0
O347 O 0.59138 0.79557 0.1292 0.0
C348 C 0.6217 0.80392 0.16558 0.0
O349 O 0.62325 0.75896 0.13826 0.0
O350 O 0.64227 0.77637 0.13962 0.0
In351 In 0.20991 0.6171 0.13533 0.0
O352 O 0.18731 0.62869 0.14821 0.0
O353 O 0.20212 0.61391 0.16582 0.0
C354 C 0.20522 0.62217 0.09805 0.0
C355 C 0.23366 0.63836 0.14353 0.0
C356 C 0.21209 0.5846 0.1357 0.0
O357 O 0.19371 0.62285 0.10979 0.0
O358 O 0.21889 0.61909 0.10518 0.0
O359 O 0.2237 0.59362 0.1407 0.0
O360 O 0.19944 0.592 0.13055 0.0
C361 C 0.1897 0.62274 0.16444 0.0
O362 O 0.23619 0.62329 0.14249 0.0
O363 O 0.2192 0.64261 0.14051 0.0
In364 In 0.38194 0.7876 0.86288 0.0
O365 O 0.37677 0.76095 0.85665 0.0
O366 O 0.35681 0.77722 0.85765 0.0
C367 C 0.41455 0.78671 0.86202 0.0
C368 C 0.37471 0.80788 0.83422 0.0
C369 C 0.37658 0.79172 0.90021 0.0
O370 O 0.40589 0.77506 0.85636 0.0
O371 O 0.40674 0.79885 0.86793 0.0
O372 O 0.37504 0.8032 0.88851 0.0
O373 O 0.38078 0.77839 0.89303 0.0
C374 C 0.36163 0.76286 0.85533 0.0
O375 O 0.36973 0.8102 0.8509 0.0
O376 O 0.38349 0.7955 0.83213 0.0
In377 In 0.21025 0.38018 0.86395 0.0
O378 O 0.18798 0.36843 0.85034 0.0
O379 O 0.20331 0.38293 0.83307 0.0
C380 C 0.20473 0.37481 0.90103 0.0
C381 C 0.23462 0.35921 0.85718 0.0
C382 C 0.21215 0.41273 0.86299 0.0
O383 O 0.1936 0.37362 0.88882 0.0
O384 O 0.21839 0.37872 0.89447 0.0
O385 O 0.22366 0.40369 0.85775 0.0
O386 O 0.1997 0.40532 0.86875 0.0
C387 C 0.19086 0.37412 0.83408 0.0
O388 O 0.23693 0.37427 0.85888 0.0
O389 O 0.22005 0.3548 0.85877 0.0
In390 In 0.61786 0.21213 0.86327 0.0
O391 O 0.62915 0.18957 0.84983 0.0
O392 O 0.61453 0.20479 0.83257 0.0
C393 C 0.62222 0.20627 0.90043 0.0
C394 C 0.63975 0.23577 0.85696 0.0
C395 C 0.58542 0.21536 0.86288 0.0
O396 O 0.62305 0.19511 0.88822 0.0
O397 O 0.61938 0.22017 0.8938 0.0
O398 O 0.59479 0.2263 0.8568 0.0
O399 O 0.59244 0.20282 0.869 0.0
C400 C 0.62321 0.19226 0.83366 0.0
O401 O 0.6247 0.23848 0.85737 0.0
O402 O 0.64369 0.22117 0.85956 0.0
In403 In 0.78926 0.61967 0.86372 0.0
O404 O 0.81083 0.63213 0.84961 0.0
O405 O 0.79508 0.61796 0.83245 0.0
C406 C 0.79676 0.62249 0.90073 0.0
C407 C 0.76461 0.64075 0.85871 0.0
C408 C 0.78764 0.5872 0.86134 0.0
O409 O 0.8068 0.62592 0.88786 0.0
O410 O 0.78308 0.61789 0.89486 0.0
O411 O 0.7753 0.59614 0.85965 0.0
O412 O 0.80079 0.59467 0.86416 0.0
C413 C 0.80747 0.62687 0.83329 0.0
O414 O 0.76268 0.6256 0.85777 0.0
O415 O 0.7789 0.64521 0.86225 0.0
H416 H 0.25099 0.15717 0.32885 0.0
H417 H 0.22803 0.17581 0.3264 0.0
H418 H 0.20826 0.15642 0.37826 0.0
H419 H 0.23073 0.13714 0.3801 0.0
H420 H 0.18462 0.16288 0.35613 0.0
H421 H 0.23155 0.19266 0.37614 0.0
H422 H 0.25973 0.20254 0.37431 0.0
H423 H 0.24943 0.22543 0.32107 0.0
H424 H 0.22122 0.2155 0.32247 0.0
H425 H 0.14273 0.23496 0.38701 0.0
H426 H 0.16147 0.21207 0.38357 0.0
H427 H 0.16826 0.22403 0.3247 0.0
H428 H 0.14927 0.2467 0.32791 0.0
H429 H 0.1976 0.22124 0.34844 0.0
H430 H 0.1489 0.19242 0.33152 0.0
H431 H 0.12077 0.18318 0.33627 0.0
H432 H 0.1347 0.15943 0.38785 0.0
H433 H 0.16288 0.16874 0.38355 0.0
C434 C 0.24163 0.15679 0.33958 0.0
C435 C 0.24265 0.14584 0.35474 0.0
C436 C 0.22857 0.16749 0.33825 0.0
C437 C 0.21661 0.16782 0.35241 0.0
C438 C 0.21734 0.15645 0.36718 0.0
C439 C 0.2302 0.14547 0.36826 0.0
C440 C 0.20374 0.18042 0.3523 0.0
C441 C 0.1875 0.17564 0.35461 0.0
C442 C 0.20742 0.1971 0.35012 0.0
C443 C 0.22433 0.20319 0.34931 0.0
C444 C 0.23533 0.19972 0.36399 0.0
C445 C 0.25129 0.20533 0.36303 0.0
C446 C 0.25638 0.21457 0.34756 0.0
C447 C 0.24548 0.21825 0.33303 0.0
C448 C 0.2295 0.21264 0.3339 0.0
C449 C 0.14805 0.23256 0.37329 0.0
C450 C 0.14459 0.24258 0.35773 0.0
C451 C 0.15869 0.21949 0.37133 0.0
C452 C 0.16617 0.21642 0.35388 0.0
C453 C 0.16254 0.22624 0.33826 0.0
C454 C 0.15168 0.23912 0.34011 0.0
C455 C 0.17864 0.20365 0.35231 0.0
C456 C 0.19478 0.20844 0.34978 0.0
C457 C 0.1749 0.18708 0.35473 0.0
C458 C 0.15797 0.18141 0.3573 0.0
C459 C 0.14594 0.18536 0.34397 0.0
C460 C 0.12999 0.18007 0.34656 0.0
C461 C 0.12594 0.17076 0.36237 0.0
C462 C 0.13785 0.16666 0.37561 0.0
C463 C 0.15382 0.17192 0.3731 0.0
H464 H 0.11359 0.16668 0.36435 0.0
H465 H 0.26875 0.2189 0.34684 0.0
H466 H 0.73454 0.17006 0.35355 0.0
H467 H 0.75639 0.18972 0.34955 0.0
H468 H 0.79123 0.15079 0.34666 0.0
H469 H 0.76939 0.13099 0.35092 0.0
H470 H 0.80058 0.17458 0.37089 0.0
H471 H 0.78077 0.17156 0.30708 0.0
H472 H 0.75942 0.17195 0.28265 0.0
H473 H 0.74759 0.22104 0.29733 0.0
H474 H 0.76872 0.22087 0.32206 0.0
H475 H 0.86604 0.22598 0.34824 0.0
H476 H 0.84566 0.20459 0.34534 0.0
H477 H 0.80767 0.24054 0.34644 0.0
H478 H 0.828 0.26201 0.34896 0.0
H479 H 0.8008 0.21713 0.32123 0.0
H480 H 0.81773 0.21992 0.38615 0.0
H481 H 0.83733 0.22001 0.41252 0.0
H482 H 0.85295 0.17209 0.39736 0.0
H483 H 0.83358 0.17181 0.37072 0.0
C484 C 0.74684 0.16567 0.35194 0.0
C485 C 0.75029 0.149 0.35256 0.0
C486 C 0.7593 0.17692 0.34956 0.0
C487 C 0.7754 0.1717 0.3476 0.0
C488 C 0.77887 0.15505 0.34808 0.0
C489 C 0.7664 0.14377 0.35048 0.0
C490 C 0.78866 0.1837 0.34594 0.0
C491 C 0.80083 0.18368 0.3598 0.0
C492 C 0.78865 0.19585 0.3318 0.0
C493 C 0.77627 0.19616 0.31652 0.0
C494 C 0.77358 0.18242 0.30516 0.0
C495 C 0.76151 0.1826 0.29125 0.0
C496 C 0.75213 0.1965 0.28846 0.0
C497 C 0.75486 0.21028 0.29951 0.0
C498 C 0.7669 0.21016 0.31345 0.0
C499 C 0.85335 0.22933 0.3477 0.0
C500 C 0.84858 0.24564 0.349 0.0
C501 C 0.84172 0.2171 0.34608 0.0
C502 C 0.82514 0.22097 0.34595 0.0
C503 C 0.82039 0.23729 0.34653 0.0
C504 C 0.83202 0.24953 0.34806 0.0
C505 C 0.81273 0.20799 0.34618 0.0
C506 C 0.80068 0.20788 0.33214 0.0
C507 C 0.81272 0.19579 0.36029 0.0
C508 C 0.82435 0.19592 0.37631 0.0
C509 C 0.82544 0.20945 0.38835 0.0
C510 C 0.83649 0.20953 0.40336 0.0
C511 C 0.84641 0.19609 0.40658 0.0
C512 C 0.84527 0.18251 0.39482 0.0
C513 C 0.83426 0.18238 0.37977 0.0
H514 H 0.85495 0.19617 0.41821 0.0
H515 H 0.74276 0.1966 0.27773 0.0
H516 H 0.84653 0.75563 0.32828 0.0
H517 H 0.82735 0.77818 0.32667 0.0
H518 H 0.83526 0.78802 0.38596 0.0
H519 H 0.85402 0.76515 0.38776 0.0
H520 H 0.80456 0.78757 0.37927 0.0
H521 H 0.84978 0.81339 0.34991 0.0
H522 H 0.8723 0.81658 0.3273 0.0
H523 H 0.83863 0.81561 0.28094 0.0
H524 H 0.81591 0.81218 0.30328 0.0
H525 H 0.7616 0.86152 0.38177 0.0
H526 H 0.78519 0.84356 0.38074 0.0
H527 H 0.76947 0.82498 0.32673 0.0
H528 H 0.74568 0.8428 0.32774 0.0
H529 H 0.80464 0.83103 0.3307 0.0
H530 H 0.75975 0.80376 0.36137 0.0
H531 H 0.73772 0.80169 0.38483 0.0
H532 H 0.77222 0.80668 0.42999 0.0
H533 H 0.79443 0.80905 0.40676 0.0
C534 C 0.8443 0.76273 0.3409 0.0
C535 C 0.85171 0.75863 0.35816 0.0
C536 C 0.8334 0.77567 0.33995 0.0
C537 C 0.82995 0.78491 0.35616 0.0
C538 C 0.8377 0.78106 0.37328 0.0
C539 C 0.84844 0.76801 0.37429 0.0
C540 C 0.81748 0.79788 0.35561 0.0
C541 C 0.80479 0.79721 0.36883 0.0
C542 C 0.81753 0.8103 0.34176 0.0
C543 C 0.83116 0.81237 0.32827 0.0
C544 C 0.84719 0.81372 0.33489 0.0
C545 C 0.85999 0.8156 0.32212 0.0
C546 C 0.8569 0.81626 0.30269 0.0
C547 C 0.841 0.81508 0.296 0.0
C548 C 0.82816 0.81318 0.30871 0.0
C549 C 0.76329 0.85379 0.36953 0.0
C550 C 0.75176 0.85344 0.3549 0.0
C551 C 0.77675 0.84356 0.36898 0.0
C552 C 0.77896 0.83293 0.35371 0.0
C553 C 0.76794 0.83315 0.3386 0.0
C554 C 0.75435 0.84326 0.33924 0.0
C555 C 0.79196 0.82063 0.35436 0.0
C556 C 0.80462 0.8214 0.34116 0.0
C557 C 0.79203 0.80839 0.36835 0.0
C558 C 0.77872 0.80676 0.38233 0.0
C559 C 0.76262 0.80455 0.3763 0.0
C560 C 0.7501 0.8033 0.38955 0.0
C561 C 0.75356 0.8041 0.40889 0.0
C562 C 0.76955 0.80609 0.41501 0.0
C563 C 0.78211 0.80738 0.40181 0.0
H564 H 0.74386 0.80313 0.41913 0.0
H565 H 0.86683 0.81771 0.29283 0.0
H566 H 0.13469 0.76695 0.34929 0.0
H567 H 0.15547 0.78811 0.34791 0.0
H568 H 0.19266 0.75211 0.35674 0.0
H569 H 0.17197 0.73093 0.35824 0.0
H570 H 0.19607 0.77789 0.38025 0.0
H571 H 0.18751 0.76889 0.31382 0.0
H572 H 0.17138 0.76661 0.28455 0.0
H573 H 0.15592 0.81604 0.29051 0.0
H574 H 0.17179 0.81855 0.31998 0.0
H575 H 0.26581 0.824 0.36094 0.0
H576 H 0.2443 0.80374 0.35885 0.0
H577 H 0.20907 0.84158 0.3496 0.0
H578 H 0.23062 0.86198 0.35145 0.0
H579 H 0.20393 0.81565 0.32636 0.0
H580 H 0.21285 0.82484 0.39243 0.0
H581 H 0.22876 0.82712 0.42183 0.0
H582 H 0.24312 0.77727 0.41692 0.0
H583 H 0.22755 0.77478 0.38725 0.0
C584 C 0.1473 0.76355 0.3508 0.0
C585 C 0.15173 0.74731 0.3539 0.0
C586 C 0.15915 0.77563 0.34994 0.0
C587 C 0.17559 0.77165 0.35213 0.0
C588 C 0.18003 0.75542 0.35502 0.0
C589 C 0.16821 0.74334 0.35583 0.0
C590 C 0.18817 0.78445 0.35223 0.0
C591 C 0.19794 0.78601 0.36837 0.0
C592 C 0.19023 0.79533 0.33694 0.0
C593 C 0.1807 0.79385 0.31922 0.0
C594 C 0.18055 0.77923 0.30898 0.0
C595 C 0.17148 0.7779 0.29234 0.0
C596 C 0.16259 0.79116 0.2857 0.0
C597 C 0.16279 0.80578 0.29568 0.0
C598 C 0.17183 0.80716 0.31235 0.0
C599 C 0.25349 0.82802 0.35837 0.0
C600 C 0.24986 0.84457 0.35648 0.0
C601 C 0.24122 0.81643 0.35723 0.0
C602 C 0.22507 0.82119 0.35433 0.0
C603 C 0.22146 0.83768 0.35189 0.0
C604 C 0.23376 0.8493 0.35301 0.0
C605 C 0.21196 0.80893 0.3543 0.0
C606 C 0.20204 0.80753 0.33824 0.0
C607 C 0.20972 0.79819 0.36969 0.0
C608 C 0.21914 0.79967 0.38751 0.0
C609 C 0.21952 0.81441 0.39752 0.0
C610 C 0.22847 0.81573 0.41425 0.0
C611 C 0.23696 0.80234 0.42123 0.0
C612 C 0.23654 0.78762 0.41148 0.0
C613 C 0.22766 0.78625 0.3947 0.0
H614 H 0.24383 0.80335 0.43422 0.0
H615 H 0.15558 0.79011 0.27281 0.0
H616 H 0.17029 0.73644 0.64243 0.0
H617 H 0.18881 0.75917 0.64706 0.0
H618 H 0.14828 0.79221 0.64828 0.0
H619 H 0.1296 0.76944 0.64354 0.0
H620 H 0.1728 0.80262 0.62496 0.0
H621 H 0.1676 0.78379 0.68856 0.0
H622 H 0.16725 0.76325 0.7139 0.0
H623 H 0.21714 0.75189 0.70279 0.0
H624 H 0.21774 0.77221 0.67719 0.0
H625 H 0.22546 0.86797 0.64872 0.0
H626 H 0.20319 0.8484 0.65107 0.0
H627 H 0.23768 0.80908 0.65075 0.0
H628 H 0.25994 0.82852 0.64858 0.0
H629 H 0.21378 0.80389 0.6764 0.0
H630 H 0.21815 0.81963 0.61086 0.0
H631 H 0.21881 0.83892 0.58421 0.0
H632 H 0.17079 0.85509 0.59812 0.0
H633 H 0.16995 0.83604 0.62504 0.0
C634 C 0.1653 0.74853 0.64378 0.0
C635 C 0.1485 0.75118 0.64263 0.0
C636 C 0.17589 0.76149 0.64652 0.0
C637 C 0.16989 0.77734 0.64822 0.0
C638 C 0.15312 0.78005 0.64708 0.0
C639 C 0.14249 0.76705 0.64441 0.0
C640 C 0.18129 0.79107 0.65044 0.0
C641 C 0.18153 0.80312 0.63644 0.0
C642 C 0.19288 0.79148 0.66521 0.0
C643 C 0.19268 0.77946 0.68086 0.0
C644 C 0.17848 0.77685 0.69145 0.0
C645 C 0.17823 0.76525 0.70587 0.0
C646 C 0.19215 0.75624 0.70993 0.0
C647 C 0.20637 0.75887 0.69963 0.0
C648 C 0.20667 0.77045 0.68518 0.0
C649 C 0.22828 0.85516 0.6493 0.0
C650 C 0.24441 0.84975 0.64834 0.0
C651 C 0.21556 0.84401 0.65061 0.0
C652 C 0.21879 0.82729 0.65091 0.0
C653 C 0.23493 0.82193 0.65056 0.0
C654 C 0.24762 0.83305 0.64922 0.0
C655 C 0.20543 0.81529 0.65075 0.0
C656 C 0.20485 0.80356 0.66512 0.0
C657 C 0.19358 0.8151 0.63626 0.0
C658 C 0.19407 0.82657 0.6201 0.0
C659 C 0.20779 0.82741 0.60834 0.0
C660 C 0.20819 0.83827 0.59316 0.0
C661 C 0.19487 0.84827 0.58951 0.0
C662 C 0.18111 0.84738 0.60099 0.0
C663 C 0.18067 0.83654 0.61621 0.0
H664 H 0.19519 0.85667 0.57775 0.0
H665 H 0.19193 0.74724 0.72107 0.0
H666 H 0.23343 0.13578 0.64227 0.0
H667 H 0.21122 0.15541 0.64402 0.0
H668 H 0.24578 0.19466 0.64283 0.0
H669 H 0.26802 0.17512 0.64139 0.0
H670 H 0.22208 0.20059 0.66793 0.0
H671 H 0.22564 0.18326 0.603 0.0
H672 H 0.22619 0.16331 0.57702 0.0
H673 H 0.17851 0.14701 0.59228 0.0
H674 H 0.17778 0.16672 0.61853 0.0
H675 H 0.17426 0.2661 0.63614 0.0
H676 H 0.19425 0.24438 0.63888 0.0
H677 H 0.15577 0.20907 0.64204 0.0
H678 H 0.13563 0.23079 0.63915 0.0
H679 H 0.17996 0.19986 0.61774 0.0
H680 H 0.17588 0.21926 0.68141 0.0
H681 H 0.17564 0.23996 0.70657 0.0
H682 H 0.22464 0.25308 0.693 0.0
H683 H 0.22511 0.23261 0.66756 0.0
C684 C 0.23628 0.14859 0.64253 0.0
C685 C 0.25244 0.15393 0.64157 0.0
C686 C 0.22359 0.15978 0.64346 0.0
C687 C 0.22684 0.17649 0.6433 0.0
C688 C 0.243 0.18182 0.64295 0.0
C689 C 0.25568 0.17065 0.64207 0.0
C690 C 0.21346 0.18847 0.64286 0.0
C691 C 0.21294 0.20051 0.65688 0.0
C692 C 0.20134 0.18815 0.62867 0.0
C693 C 0.20173 0.17633 0.61286 0.0
C694 C 0.21533 0.17533 0.60091 0.0
C695 C 0.21566 0.16408 0.58612 0.0
C696 C 0.20241 0.15386 0.58304 0.0
C697 C 0.18878 0.15491 0.5947 0.0
C698 C 0.18839 0.16612 0.60953 0.0
C699 C 0.17004 0.25371 0.63742 0.0
C700 C 0.15339 0.25013 0.63748 0.0
C701 C 0.18148 0.24133 0.63908 0.0
C702 C 0.17648 0.22515 0.6409 0.0
C703 C 0.15986 0.2215 0.64072 0.0
C704 C 0.14839 0.2339 0.6391 0.0
C705 C 0.18868 0.21207 0.64268 0.0
C706 C 0.18899 0.19983 0.62891 0.0
C707 C 0.20066 0.21228 0.65703 0.0
C708 C 0.20048 0.22448 0.67247 0.0
C709 C 0.18657 0.22663 0.6837 0.0
C710 C 0.1864 0.23831 0.69803 0.0
C711 C 0.2001 0.24785 0.70136 0.0
C712 C 0.21403 0.24569 0.6904 0.0
C713 C 0.21426 0.23404 0.67604 0.0
H714 H 0.19994 0.2569 0.71245 0.0
H715 H 0.20269 0.14516 0.57158 0.0
H716 H 0.76984 0.13519 0.65229 0.0
H717 H 0.79148 0.15551 0.65358 0.0
H718 H 0.75651 0.19328 0.64269 0.0
H719 H 0.73491 0.17308 0.64119 0.0
H720 H 0.78249 0.19589 0.61993 0.0
H721 H 0.77267 0.18814 0.68646 0.0
H722 H 0.76999 0.17231 0.71589 0.0
H723 H 0.81933 0.15634 0.71073 0.0
H724 H 0.82224 0.1719 0.68111 0.0
H725 H 0.82695 0.26614 0.63997 0.0
H726 H 0.80719 0.24422 0.64244 0.0
H727 H 0.8459 0.20977 0.65072 0.0
H728 H 0.86584 0.23175 0.64838 0.0
H729 H 0.81951 0.20421 0.67446 0.0
H730 H 0.82959 0.21257 0.6085 0.0
H731 H 0.83236 0.22852 0.57918 0.0
H732 H 0.78253 0.24315 0.58317 0.0
H733 H 0.77952 0.22748 0.61271 0.0
C734 C 0.76678 0.14784 0.65032 0.0
C735 C 0.75071 0.15256 0.64661 0.0
C736 C 0.77913 0.15943 0.65112 0.0
C737 C 0.77558 0.1759 0.64831 0.0
C738 C 0.75951 0.18062 0.64486 0.0
C739 C 0.74718 0.16907 0.64406 0.0
C740 C 0.78863 0.18823 0.64819 0.0
C741 C 0.79046 0.19783 0.63195 0.0
C742 C 0.79934 0.19039 0.66364 0.0
C743 C 0.79762 0.18104 0.68146 0.0
C744 C 0.7829 0.18114 0.69151 0.0
C745 C 0.78135 0.17224 0.70825 0.0
C746 C 0.79446 0.16328 0.71515 0.0
C747 C 0.80917 0.16325 0.70535 0.0
C748 C 0.81079 0.17212 0.68859 0.0
C749 C 0.83127 0.25392 0.64246 0.0
C750 C 0.84794 0.25062 0.64384 0.0
C751 C 0.81997 0.24141 0.64382 0.0
C752 C 0.82512 0.22537 0.6465 0.0
C753 C 0.84171 0.22209 0.64859 0.0
C754 C 0.85306 0.23463 0.6472 0.0
C755 C 0.81313 0.21203 0.64635 0.0
C756 C 0.81156 0.2022 0.66245 0.0
C757 C 0.80264 0.20961 0.63076 0.0
C758 C 0.80437 0.21896 0.61292 0.0
C759 C 0.81925 0.21929 0.60321 0.0
C760 C 0.82086 0.22826 0.58654 0.0
C761 C 0.80764 0.23687 0.57934 0.0
C762 C 0.79276 0.23649 0.58878 0.0
C763 C 0.7911 0.22755 0.60548 0.0
H764 H 0.80891 0.24381 0.56643 0.0
H765 H 0.79324 0.1564 0.72811 0.0
H766 H 0.86151 0.76814 0.64326 0.0
H767 H 0.84106 0.78961 0.64477 0.0
H768 H 0.80392 0.7551 0.62965 0.0
H769 H 0.82431 0.73369 0.6278 0.0
H770 H 0.80072 0.78227 0.60976 0.0
H771 H 0.80843 0.76848 0.67522 0.0
H772 H 0.8241 0.76398 0.70448 0.0
H773 H 0.83994 0.81356 0.70369 0.0
H774 H 0.82453 0.81829 0.67426 0.0
H775 H 0.73032 0.82542 0.63454 0.0
H776 H 0.75223 0.80549 0.63512 0.0
H777 H 0.78702 0.84367 0.64465 0.0
H778 H 0.7651 0.86375 0.64409 0.0
H779 H 0.79233 0.81592 0.66714 0.0
H780 H 0.78363 0.82966 0.60194 0.0
H781 H 0.76727 0.83393 0.57316 0.0
H782 H 0.75279 0.78394 0.57388 0.0
H783 H 0.76886 0.77943 0.60287 0.0
C784 C 0.84898 0.76515 0.64028 0.0
C785 C 0.84448 0.74925 0.63543 0.0
C786 C 0.83731 0.7774 0.64123 0.0
C787 C 0.82095 0.77391 0.6375 0.0
C788 C 0.81648 0.75806 0.63258 0.0
C789 C 0.82813 0.74583 0.63157 0.0
C790 C 0.80847 0.7868 0.63841 0.0
C791 C 0.79877 0.78949 0.62239 0.0
C792 C 0.80621 0.7965 0.65472 0.0
C793 C 0.81547 0.79369 0.67242 0.0
C794 C 0.81536 0.77838 0.6812 0.0
C795 C 0.82418 0.7758 0.69783 0.0
C796 C 0.83305 0.78846 0.70591 0.0
C797 C 0.83308 0.80375 0.69739 0.0
C798 C 0.8243 0.80639 0.68075 0.0
C799 C 0.74261 0.82957 0.63691 0.0
C800 C 0.74604 0.84614 0.63915 0.0
C801 C 0.75511 0.81818 0.63719 0.0
C802 C 0.77122 0.82316 0.63971 0.0
C803 C 0.77464 0.83963 0.64264 0.0
C804 C 0.76214 0.85106 0.64226 0.0
C805 C 0.78451 0.81118 0.6386 0.0
C806 C 0.79435 0.80871 0.65453 0.0
C807 C 0.78688 0.80162 0.62223 0.0
C808 C 0.77733 0.80425 0.60468 0.0
C809 C 0.77685 0.81961 0.59605 0.0
C810 C 0.76765 0.82207 0.57969 0.0
C811 C 0.75896 0.80923 0.57172 0.0
C812 C 0.75951 0.79388 0.58008 0.0
C813 C 0.76867 0.79136 0.59647 0.0
H814 H 0.75184 0.81115 0.55905 0.0
H815 H 0.83986 0.78644 0.71879 0.0
H816 H 0.6746 0.76477 0.8535 0.0
H817 H 0.69399 0.74258 0.85071 0.0
H818 H 0.65464 0.70813 0.84929 0.0
H819 H 0.6351 0.73036 0.8524 0.0
H820 H 0.67787 0.69891 0.87363 0.0
H821 H 0.67611 0.71647 0.80937 0.0
H822 H 0.67682 0.73633 0.78331 0.0
H823 H 0.7257 0.74909 0.79799 0.0
H824 H 0.72521 0.72947 0.82433 0.0
H825 H 0.73245 0.63406 0.85366 0.0
H826 H 0.71023 0.65354 0.85009 0.0
H827 H 0.74433 0.69304 0.85413 0.0
H828 H 0.76657 0.67368 0.85761 0.0
H829 H 0.72192 0.6978 0.82585 0.0
H830 H 0.72252 0.68258 0.89182 0.0
H831 H 0.72177 0.66337 0.91855 0.0
H832 H 0.67493 0.64657 0.90068 0.0
H833 H 0.6755 0.66554 0.87367 0.0
C834 C 0.67005 0.75249 0.85245 0.0
C835 C 0.65334 0.74928 0.85316 0.0
C836 C 0.68115 0.73982 0.85075 0.0
C837 C 0.67575 0.72372 0.84956 0.0
C838 C 0.65905 0.72048 0.85012 0.0
C839 C 0.64791 0.73318 0.85185 0.0
C840 C 0.68765 0.71029 0.84868 0.0
C841 C 0.68729 0.69846 0.86294 0.0
C842 C 0.70013 0.70992 0.83494 0.0
C843 C 0.70057 0.72156 0.81892 0.0
C844 C 0.68698 0.72358 0.80712 0.0
C845 C 0.68735 0.73479 0.79228 0.0
C846 C 0.70129 0.74399 0.78902 0.0
C847 C 0.71491 0.74195 0.80054 0.0
C848 C 0.7146 0.73077 0.81541 0.0
C849 C 0.7352 0.6469 0.85371 0.0
C850 C 0.75121 0.65237 0.85603 0.0
C851 C 0.72251 0.65799 0.8517 0.0
C852 C 0.72565 0.67472 0.85198 0.0
C853 C 0.74167 0.68018 0.85385 0.0
C854 C 0.75434 0.66911 0.85594 0.0
C855 C 0.71223 0.6866 0.85094 0.0
C856 C 0.71233 0.69813 0.83634 0.0
C857 C 0.69951 0.68671 0.86436 0.0
C858 C 0.69914 0.67533 0.8806 0.0
C859 C 0.71212 0.67469 0.89349 0.0
C860 C 0.71172 0.66387 0.90871 0.0
C861 C 0.69834 0.65372 0.91128 0.0
C862 C 0.6853 0.65441 0.89866 0.0
C863 C 0.68566 0.6652 0.8834 0.0
H864 H 0.69804 0.64536 0.92307 0.0
H865 H 0.70154 0.75268 0.77755 0.0
H866 H 0.23826 0.67226 0.84796 0.0
H867 H 0.26066 0.69146 0.84513 0.0
H868 H 0.29498 0.65244 0.852 0.0
H869 H 0.27255 0.63308 0.85486 0.0
H870 H 0.30156 0.67875 0.87499 0.0
H871 H 0.29061 0.66895 0.80958 0.0
H872 H 0.27363 0.6664 0.78101 0.0
H873 H 0.25974 0.71639 0.78576 0.0
H874 H 0.27646 0.71919 0.81453 0.0
H875 H 0.36851 0.73047 0.85518 0.0
H876 H 0.34925 0.708 0.85221 0.0
H877 H 0.31003 0.74214 0.84563 0.0
H878 H 0.32918 0.76463 0.8486 0.0
H879 H 0.30785 0.71637 0.82068 0.0
H880 H 0.31581 0.72555 0.88729 0.0
H881 H 0.33183 0.72865 0.91654 0.0
H882 H 0.35045 0.68037 0.91001 0.0
H883 H 0.33468 0.67706 0.88056 0.0
C884 C 0.25057 0.66774 0.84875 0.0
C885 C 0.25368 0.65118 0.85162 0.0
C886 C 0.26335 0.67871 0.84705 0.0
C887 C 0.27946 0.67334 0.84819 0.0
C888 C 0.28262 0.6568 0.85102 0.0
C889 C 0.26981 0.64577 0.8526 0.0
C890 C 0.29291 0.68517 0.84721 0.0
C891 C 0.30317 0.68674 0.86295 0.0
C892 C 0.29471 0.69584 0.83168 0.0
C893 C 0.2847 0.69424 0.81431 0.0
C894 C 0.28384 0.67937 0.80462 0.0
C895 C 0.27428 0.67789 0.78837 0.0
C896 C 0.26559 0.69122 0.78159 0.0
C897 C 0.26647 0.70607 0.79103 0.0
C898 C 0.27601 0.70762 0.8073 0.0
C899 C 0.3558 0.73317 0.85293 0.0
C900 C 0.35031 0.74928 0.85222 0.0
C901 C 0.34483 0.72034 0.85129 0.0
C902 C 0.32823 0.72345 0.84885 0.0
C903 C 0.32281 0.73952 0.84749 0.0
C904 C 0.33374 0.75234 0.84927 0.0
C905 C 0.31636 0.71001 0.84851 0.0
C906 C 0.30639 0.70818 0.83257 0.0
C907 C 0.31473 0.69917 0.86391 0.0
C908 C 0.32423 0.70113 0.8816 0.0
C909 C 0.32344 0.71565 0.892 0.0
C910 C 0.33244 0.71744 0.90863 0.0
C911 C 0.3422 0.70474 0.91509 0.0
C912 C 0.34292 0.69021 0.90496 0.0
C913 C 0.33394 0.68836 0.8883 0.0
H914 H 0.34916 0.70614 0.92798 0.0
H915 H 0.25819 0.69004 0.76901 0.0
H916 H 0.32577 0.23498 0.84967 0.0
H917 H 0.30594 0.25687 0.847 0.0
H918 H 0.34406 0.29217 0.85407 0.0
H919 H 0.36398 0.27029 0.85692 0.0
H920 H 0.31834 0.29835 0.87686 0.0
H921 H 0.32678 0.28679 0.81125 0.0
H922 H 0.32877 0.26955 0.78285 0.0
H923 H 0.27903 0.25532 0.78943 0.0
H924 H 0.27679 0.2723 0.81804 0.0
H925 H 0.26714 0.36541 0.8569 0.0
H926 H 0.28921 0.3457 0.85408 0.0
H927 H 0.25429 0.30708 0.8484 0.0
H928 H 0.23218 0.3267 0.85113 0.0
H929 H 0.27966 0.30392 0.82342 0.0
H930 H 0.27173 0.31319 0.88997 0.0
H931 H 0.2693 0.32975 0.91888 0.0
H932 H 0.31771 0.34762 0.91085 0.0
H933 H 0.32035 0.3313 0.88174 0.0
C934 C 0.32995 0.24741 0.85051 0.0
C935 C 0.34641 0.25094 0.85351 0.0
C936 C 0.31862 0.2599 0.8489 0.0
C937 C 0.32356 0.27614 0.85017 0.0
C938 C 0.34002 0.27971 0.85301 0.0
C939 C 0.35137 0.26721 0.85458 0.0
C940 C 0.3114 0.28934 0.8494 0.0
C941 C 0.31009 0.29977 0.86501 0.0
C942 C 0.30039 0.2909 0.83414 0.0
C943 C 0.30166 0.28072 0.81689 0.0
C944 C 0.3163 0.27989 0.80673 0.0
C945 C 0.31747 0.27018 0.79057 0.0
C946 C 0.30405 0.26132 0.78436 0.0
C947 C 0.28942 0.26218 0.79427 0.0
C948 C 0.28819 0.27186 0.81044 0.0
C949 C 0.26418 0.35273 0.85491 0.0
C950 C 0.24796 0.34756 0.85434 0.0
C951 C 0.27678 0.3415 0.85335 0.0
C952 C 0.27335 0.32494 0.85121 0.0
C953 C 0.25717 0.31982 0.85004 0.0
C954 C 0.24457 0.33102 0.85168 0.0
C955 C 0.2866 0.31284 0.8509 0.0
C956 C 0.28806 0.3026 0.83515 0.0
C957 C 0.29771 0.31137 0.86606 0.0
C958 C 0.29617 0.32117 0.88357 0.0
C959 C 0.28181 0.32076 0.89428 0.0
C960 C 0.2804 0.33008 0.91072 0.0
C961 C 0.29332 0.33978 0.91666 0.0
C962 C 0.3077 0.34013 0.90621 0.0
C963 C 0.30916 0.33084 0.88975 0.0
H964 H 0.29222 0.34698 0.92939 0.0
H965 H 0.30497 0.25381 0.77185 0.0
H966 H 0.63436 0.26827 0.85278 0.0
H967 H 0.65472 0.28979 0.85055 0.0
H968 H 0.69282 0.25401 0.85322 0.0
H969 H 0.67257 0.23251 0.85571 0.0
H970 H 0.69832 0.27837 0.87735 0.0
H971 H 0.68357 0.27315 0.81186 0.0
H972 H 0.66484 0.27235 0.78466 0.0
H973 H 0.6497 0.3211 0.79649 0.0
H974 H 0.66818 0.32211 0.82393 0.0
H975 H 0.76555 0.32617 0.85346 0.0
H976 H 0.74404 0.3059 0.85197 0.0
H977 H 0.70811 0.34388 0.85021 0.0
H978 H 0.72968 0.36432 0.85134 0.0
H979 H 0.70075 0.31928 0.82594 0.0
H980 H 0.71614 0.3245 0.89122 0.0
H981 H 0.73533 0.32518 0.91799 0.0
H982 H 0.74941 0.27608 0.90636 0.0
H983 H 0.7305 0.27519 0.87932 0.0
C984 C 0.64708 0.265 0.85274 0.0
C985 C 0.6519 0.24873 0.85445 0.0
C986 C 0.65869 0.27729 0.8514 0.0
C987 C 0.67528 0.27348 0.85161 0.0
C988 C 0.68008 0.25721 0.85306 0.0
C989 C 0.6685 0.24494 0.85443 0.0
C990 C 0.6877 0.28645 0.85113 0.0
C991 C 0.69897 0.28719 0.86598 0.0
C992 C 0.68825 0.29822 0.83657 0.0
C993 C 0.67713 0.29764 0.82007 0.0
C994 C 0.67614 0.28365 0.80876 0.0
C995 C 0.66559 0.28317 0.79328 0.0
C996 C 0.65605 0.29665 0.78888 0.0
C997 C 0.65708 0.31066 0.79993 0.0
C998 C 0.6676 0.3112 0.81544 0.0
C999 C 0.75308 0.33022 0.85263 0.0
C1000 C 0.74927 0.34682 0.85267 0.0
C1001 C 0.74081 0.31862 0.85184 0.0
C1002 C 0.72448 0.32339 0.85131 0.0
C1003 C 0.72064 0.33996 0.85069 0.0
C1004 C 0.73295 0.3516 0.85138 0.0
C1005 C 0.71147 0.31104 0.85202 0.0
C1006 C 0.70006 0.31046 0.8373 0.0
C1007 C 0.71078 0.29938 0.8667 0.0
C1008 C 0.722 0.29983 0.88314 0.0
C1009 C 0.72341 0.31388 0.89429 0.0
C1010 C 0.73423 0.3143 0.90953 0.0
C1011 C 0.74361 0.30069 0.91384 0.0
C1012 C 0.74215 0.28662 0.90298 0.0
C1013 C 0.73137 0.28614 0.88771 0.0
H1014 H 0.752 0.30102 0.92561 0.0
H1015 H 0.6479 0.29625 0.77689 0.0
H1016 H 0.67277 0.23619 0.14234 0.0
H1017 H 0.69263 0.25793 0.14567 0.0
H1018 H 0.65397 0.29273 0.15209 0.0
H1019 H 0.63395 0.27097 0.14861 0.0
H1020 H 0.67694 0.30296 0.12716 0.0
H1021 H 0.67587 0.28187 0.19 0.0
H1022 H 0.67676 0.26077 0.21468 0.0
H1023 H 0.72519 0.24811 0.19804 0.0
H1024 H 0.7245 0.26898 0.17306 0.0
H1025 H 0.73276 0.36575 0.15003 0.0
H1026 H 0.71033 0.34648 0.15308 0.0
H1027 H 0.74379 0.30669 0.14641 0.0
H1028 H 0.76625 0.32584 0.14355 0.0
H1029 H 0.72166 0.30072 0.17411 0.0
H1030 H 0.7216 0.31965 0.10946 0.0
H1031 H 0.7208 0.34037 0.08432 0.0
H1032 H 0.67446 0.35677 0.10427 0.0
H1033 H 0.67509 0.33628 0.12971 0.0
C1034 C 0.66848 0.24846 0.14453 0.0
C1035 C 0.65182 0.2519 0.14523 0.0
C1036 C 0.67985 0.26085 0.14653 0.0
C1037 C 0.67477 0.2769 0.14936 0.0
C1038 C 0.65813 0.2804 0.14999 0.0
C1039 C 0.64672 0.26797 0.14803 0.0
C1040 C 0.68691 0.29004 0.15098 0.0
C1041 C 0.68653 0.30266 0.13767 0.0
C1042 C 0.69958 0.28945 0.16447 0.0
C1043 C 0.70008 0.27692 0.17955 0.0
C1044 C 0.68667 0.27451 0.1915 0.0
C1045 C 0.68714 0.2626 0.20557 0.0
C1046 C 0.70101 0.25308 0.20791 0.0
C1047 C 0.71445 0.25548 0.19621 0.0
C1048 C 0.71403 0.26736 0.18211 0.0
C1049 C 0.73533 0.35289 0.14936 0.0
C1050 C 0.75122 0.34728 0.14644 0.0
C1051 C 0.72252 0.34191 0.15106 0.0
C1052 C 0.72539 0.32518 0.14977 0.0
C1053 C 0.74132 0.31956 0.14744 0.0
C1054 C 0.75412 0.33051 0.14573 0.0
C1055 C 0.7118 0.31347 0.15013 0.0
C1056 C 0.71192 0.30113 0.16379 0.0
C1057 C 0.6989 0.31429 0.13694 0.0
C1058 C 0.69848 0.32657 0.12162 0.0
C1059 C 0.7113 0.32777 0.10858 0.0
C1060 C 0.71087 0.33945 0.09426 0.0
C1061 C 0.69761 0.34991 0.09273 0.0
C1062 C 0.68473 0.34868 0.10549 0.0
C1063 C 0.68512 0.33703 0.11986 0.0
H1064 H 0.6973 0.35895 0.08163 0.0
H1065 H 0.70136 0.24387 0.2188 0.0
H1066 H 0.76409 0.67243 0.14317 0.0
H1067 H 0.74193 0.69197 0.14563 0.0
H1068 H 0.70713 0.65337 0.13879 0.0
H1069 H 0.72931 0.63368 0.13635 0.0
H1070 H 0.70067 0.67998 0.11608 0.0
H1071 H 0.71184 0.66906 0.18111 0.0
H1072 H 0.7287 0.66593 0.2097 0.0
H1073 H 0.74298 0.71587 0.20609 0.0
H1074 H 0.72636 0.71926 0.1773 0.0
H1075 H 0.63277 0.72902 0.13893 0.0
H1076 H 0.65296 0.70731 0.14051 0.0
H1077 H 0.69085 0.7428 0.14784 0.0
H1078 H 0.67074 0.76456 0.14636 0.0
H1079 H 0.69459 0.71646 0.17148 0.0
H1080 H 0.68478 0.72684 0.10543 0.0
H1081 H 0.66793 0.73003 0.07683 0.0
H1082 H 0.65127 0.68094 0.08237 0.0
H1083 H 0.66786 0.67754 0.11118 0.0
C1084 C 0.75172 0.6681 0.14221 0.0
C1085 C 0.7484 0.65155 0.13958 0.0
C1086 C 0.73909 0.67926 0.14371 0.0
C1087 C 0.72292 0.67407 0.14256 0.0
C1088 C 0.71955 0.65758 0.13976 0.0
C1089 C 0.7322 0.64637 0.13841 0.0
C1090 C 0.70958 0.686 0.14386 0.0
C1091 C 0.69914 0.68777 0.12833 0.0
C1092 C 0.70787 0.69636 0.15969 0.0
C1093 C 0.71795 0.69438 0.17695 0.0
C1094 C 0.71869 0.67934 0.18631 0.0
C1095 C 0.72817 0.67753 0.20257 0.0
C1096 C 0.7369 0.69069 0.2097 0.0
C1097 C 0.73619 0.70569 0.20055 0.0
C1098 C 0.72673 0.70757 0.18427 0.0
C1099 C 0.64539 0.73218 0.14102 0.0
C1100 C 0.65021 0.74847 0.14241 0.0
C1101 C 0.65689 0.71978 0.14187 0.0
C1102 C 0.67339 0.72349 0.1441 0.0
C1103 C 0.67817 0.73971 0.1461 0.0
C1104 C 0.66668 0.75212 0.14519 0.0
C1105 C 0.68576 0.7105 0.14365 0.0
C1106 C 0.69604 0.70857 0.15932 0.0
C1107 C 0.68735 0.7 0.12793 0.0
C1108 C 0.67742 0.70199 0.11058 0.0
C1109 C 0.67742 0.71677 0.10064 0.0
C1110 C 0.66793 0.71861 0.08438 0.0
C1111 C 0.6585 0.70571 0.07782 0.0
C1112 C 0.65856 0.69093 0.08749 0.0
C1113 C 0.66801 0.68904 0.10378 0.0
H1114 H 0.65116 0.70716 0.06523 0.0
H1115 H 0.74418 0.68927 0.22234 0.0
H1116 H 0.2305 0.67093 0.14823 0.0
H1117 H 0.25213 0.69092 0.15165 0.0
H1118 H 0.28785 0.65274 0.14997 0.0
H1119 H 0.26618 0.63257 0.14685 0.0
H1120 H 0.29558 0.67612 0.17611 0.0
H1121 H 0.28014 0.67386 0.11078 0.0
H1122 H 0.26111 0.67428 0.08386 0.0
H1123 H 0.24665 0.7227 0.09841 0.0
H1124 H 0.26543 0.72248 0.1256 0.0
H1125 H 0.36194 0.72798 0.15003 0.0
H1126 H 0.34157 0.70648 0.15248 0.0
H1127 H 0.30358 0.74244 0.15268 0.0
H1128 H 0.32381 0.76391 0.14996 0.0
H1129 H 0.29778 0.71924 0.12722 0.0
H1130 H 0.31361 0.72139 0.19273 0.0
H1131 H 0.33285 0.7207 0.21944 0.0
H1132 H 0.34711 0.67239 0.20418 0.0
H1133 H 0.3281 0.67287 0.17721 0.0
C1134 C 0.24295 0.66676 0.14875 0.0
C1135 C 0.24668 0.65022 0.14708 0.0
C1136 C 0.25529 0.6782 0.15067 0.0
C1137 C 0.27159 0.67332 0.15075 0.0
C1138 C 0.27534 0.65674 0.14988 0.0
C1139 C 0.26297 0.64526 0.14803 0.0
C1140 C 0.28465 0.68562 0.15074 0.0
C1141 C 0.29621 0.68544 0.16532 0.0
C1142 C 0.28531 0.69787 0.13676 0.0
C1143 C 0.27409 0.69809 0.12033 0.0
C1144 C 0.27282 0.68455 0.10832 0.0
C1145 C 0.26209 0.68476 0.093 0.0
C1146 C 0.25265 0.6985 0.08945 0.0
C1147 C 0.25395 0.71207 0.10119 0.0
C1148 C 0.26465 0.71191 0.11655 0.0
C1149 C 0.34925 0.73129 0.15082 0.0
C1150 C 0.34444 0.7476 0.14972 0.0
C1151 C 0.33764 0.719 0.15229 0.0
C1152 C 0.32107 0.72288 0.15283 0.0
C1153 C 0.3163 0.7392 0.15224 0.0
C1154 C 0.32788 0.75144 0.15072 0.0
C1155 C 0.30859 0.70997 0.15279 0.0
C1156 C 0.29716 0.70996 0.13808 0.0
C1157 C 0.30814 0.69755 0.1666 0.0
C1158 C 0.31955 0.69723 0.18283 0.0
C1159 C 0.32094 0.71067 0.19497 0.0
C1160 C 0.33179 0.71031 0.21018 0.0
C1161 C 0.34123 0.69653 0.21347 0.0
C1162 C 0.33981 0.68306 0.20159 0.0
C1163 C 0.32899 0.68337 0.18636 0.0
H1164 H 0.34961 0.69627 0.22525 0.0
H1165 H 0.24434 0.69864 0.07759 0.0
H1166 H 0.26859 0.36389 0.14987 0.0
H1167 H 0.29076 0.34434 0.1531 0.0
H1168 H 0.25641 0.30497 0.15032 0.0
H1169 H 0.2342 0.32442 0.14733 0.0
H1170 H 0.2794 0.29956 0.17706 0.0
H1171 H 0.27752 0.31621 0.11155 0.0
H1172 H 0.27782 0.33602 0.08541 0.0
H1173 H 0.3251 0.3522 0.1025 0.0
H1174 H 0.32497 0.33262 0.12892 0.0
H1175 H 0.32578 0.233 0.14547 0.0
H1176 H 0.30651 0.25518 0.1496 0.0
H1177 H 0.34603 0.2894 0.15173 0.0
H1178 H 0.36543 0.26722 0.14739 0.0
H1179 H 0.32239 0.29926 0.12798 0.0
H1180 H 0.32536 0.28017 0.19159 0.0
H1181 H 0.32493 0.25992 0.21724 0.0
H1182 H 0.27563 0.24792 0.2036 0.0
H1183 H 0.27584 0.26793 0.17767 0.0
C1184 C 0.26577 0.35107 0.15009 0.0
C1185 C 0.2497 0.34565 0.14821 0.0
C1186 C 0.27844 0.33993 0.15189 0.0
C1187 C 0.27523 0.32321 0.15173 0.0
C1188 C 0.25913 0.31782 0.15047 0.0
C1189 C 0.24648 0.32894 0.14869 0.0
C1190 C 0.28862 0.31127 0.15206 0.0
C1191 C 0.28875 0.29941 0.16628 0.0
C1192 C 0.30104 0.31137 0.13825 0.0
C1193 C 0.30115 0.32309 0.12234 0.0
C1194 C 0.28792 0.32409 0.10983 0.0
C1195 C 0.28807 0.33525 0.09495 0.0
C1196 C 0.30145 0.34539 0.09233 0.0
C1197 C 0.31473 0.34436 0.10457 0.0
C1198 C 0.31463 0.33323 0.11949 0.0
C1199 C 0.33038 0.24523 0.14695 0.0
C1200 C 0.3471 0.2484 0.1461 0.0
C1201 C 0.31936 0.25789 0.14941 0.0
C1202 C 0.32486 0.27391 0.15119 0.0
C1203 C 0.34156 0.27711 0.15046 0.0
C1204 C 0.35261 0.26443 0.14801 0.0
C1205 C 0.31305 0.28736 0.15283 0.0
C1206 C 0.3132 0.29951 0.13895 0.0
C1207 C 0.30087 0.28749 0.16693 0.0
C1208 C 0.30066 0.27548 0.18258 0.0
C1209 C 0.31447 0.27313 0.19396 0.0
C1210 C 0.31425 0.26171 0.20857 0.0
C1211 C 0.30027 0.25262 0.21203 0.0
C1212 C 0.28646 0.25496 0.2009 0.0
C1213 C 0.28661 0.26636 0.18626 0.0
H1214 H 0.30013 0.24378 0.22335 0.0
H1215 H 0.30154 0.35403 0.0808 0.0
H1216 H 0.93845 0.29134 0.3789 0.0
H1217 H 0.9678 0.28899 0.37523 0.0
H1218 H 0.96095 0.25576 0.32872 0.0
H1219 H 0.93153 0.2576 0.33284 0.0
H1220 H 0.98535 0.24602 0.34907 0.0
H1221 H 0.97016 0.2962 0.32104 0.0
H1222 H 0.95691 0.32294 0.31913 0.0
H1223 H 0.98592 0.34001 0.36551 0.0
H1224 H 0.99919 0.31329 0.36786 0.0
H1225 H 0.06888 0.2893 0.3262 0.0
H1226 H 0.03958 0.28635 0.32219 0.0
H1227 H 0.03773 0.25574 0.37169 0.0
H1228 H 0.06704 0.25821 0.37536 0.0
H1229 H 0.01735 0.29677 0.34423 0.0
H1230 H 0.00571 0.2307 0.37067 0.0
H1231 H 0.0187 0.20383 0.36862 0.0
H1232 H 0.04326 0.21825 0.31778 0.0
H1233 H 0.03025 0.24512 0.31936 0.0
C1234 C 0.94322 0.28345 0.36798 0.0
C1235 C 0.93275 0.27474 0.35606 0.0
C1236 C 0.95998 0.28218 0.36582 0.0
C1237 C 0.96657 0.27247 0.35142 0.0
C1238 C 0.95613 0.26337 0.33987 0.0
C1239 C 0.93935 0.26445 0.34221 0.0
C1240 C 0.98434 0.27211 0.34826 0.0
C1241 C 0.99236 0.2571 0.34795 0.0
C1242 C 0.99344 0.28655 0.34616 0.0
C1243 C 0.98559 0.3027 0.3447 0.0
C1244 C 0.97365 0.30563 0.3309 0.0
C1245 C 0.96614 0.32079 0.32973 0.0
C1246 C 0.97055 0.33316 0.34221 0.0
C1247 C 0.98251 0.33041 0.35586 0.0
C1248 C 0.99004 0.31527 0.3571 0.0
C1249 C 0.06225 0.28169 0.336 0.0
C1250 C 0.07021 0.27401 0.35111 0.0
C1251 C 0.04551 0.28005 0.33373 0.0
C1252 C 0.03643 0.27077 0.34658 0.0
C1253 C 0.04447 0.26271 0.36137 0.0
C1254 C 0.06123 0.2642 0.36352 0.0
C1255 C 0.01846 0.27069 0.34559 0.0
C1256 C 0.01037 0.28565 0.34515 0.0
C1257 C 0.00931 0.25619 0.34638 0.0
C1258 C 0.01709 0.23999 0.34524 0.0
C1259 C 0.01382 0.22812 0.35901 0.0
C1260 C 0.0212 0.21289 0.35793 0.0
C1261 C 0.03183 0.20935 0.34311 0.0
C1262 C 0.03507 0.22103 0.32929 0.0
C1263 C 0.02771 0.23627 0.33029 0.0
H1264 H 0.03754 0.19756 0.34231 0.0
H1265 H 0.96472 0.34489 0.34129 0.0
H1266 H 0.69576 0.06206 0.38035 0.0
H1267 H 0.69814 0.03253 0.38064 0.0
H1268 H 0.73978 0.03546 0.3439 0.0
H1269 H 0.73753 0.0651 0.34362 0.0
H1270 H 0.71679 0.01205 0.33278 0.0
H1271 H 0.74647 0.0275 0.38805 0.0
H1272 H 0.75102 0.04183 0.4182 0.0
H1273 H 0.71071 0.01675 0.44309 0.0
H1274 H 0.70576 0.00244 0.41298 0.0
H1275 H 0.73516 0.92831 0.34384 0.0
H1276 H 0.73801 0.95785 0.34373 0.0
H1277 H 0.6992 0.96175 0.38439 0.0
H1278 H 0.69646 0.93227 0.38479 0.0
H1279 H 0.72367 0.98191 0.39305 0.0
H1280 H 0.69243 0.96836 0.33764 0.0
H1281 H 0.68696 0.95435 0.30748 0.0
H1282 H 0.7293 0.97609 0.28292 0.0
H1283 H 0.73515 0.99006 0.31304 0.0
C1284 C 0.70542 0.05642 0.37232 0.0
C1285 C 0.71649 0.06585 0.36199 0.0
C1286 C 0.7068 0.03958 0.37256 0.0
C1287 C 0.71923 0.03188 0.36243 0.0
C1288 C 0.73015 0.04123 0.35185 0.0
C1289 C 0.72887 0.05812 0.35174 0.0
C1290 C 0.72063 0.01403 0.36284 0.0
C1291 C 0.7186 0.00543 0.34589 0.0
C1292 C 0.72267 0.00548 0.38002 0.0
C1293 C 0.72566 0.014 0.3982 0.0
C1294 C 0.73849 0.02513 0.3999 0.0
C1295 C 0.74116 0.03324 0.417 0.0
C1296 C 0.73114 0.03023 0.43254 0.0
C1297 C 0.71845 0.01908 0.43103 0.0
C1298 C 0.71572 0.01095 0.41396 0.0
C1299 C 0.72731 0.93548 0.35283 0.0
C1300 C 0.71552 0.92802 0.36424 0.0
C1301 C 0.72892 0.95233 0.35271 0.0
C1302 C 0.71868 0.96198 0.36389 0.0
C1303 C 0.7072 0.95452 0.37566 0.0
C1304 C 0.70562 0.93769 0.37581 0.0
C1305 C 0.71958 0.97989 0.36303 0.0
C1306 C 0.72205 0.98851 0.3799 0.0
C1307 C 0.71785 0.98845 0.34578 0.0
C1308 C 0.71433 0.9801 0.32765 0.0
C1309 C 0.70065 0.97004 0.32585 0.0
C1310 C 0.69746 0.96213 0.30876 0.0
C1311 C 0.70781 0.96429 0.29331 0.0
C1312 C 0.72132 0.9744 0.29491 0.0
C1313 C 0.72457 0.98233 0.31198 0.0
H1314 H 0.70532 0.95815 0.28008 0.0
H1315 H 0.73322 0.03652 0.44576 0.0
H1316 H 0.06792 0.7439 0.34963 0.0
H1317 H 0.03852 0.74718 0.34624 0.0
H1318 H 0.03166 0.69695 0.36125 0.0
H1319 H 0.06092 0.69356 0.36446 0.0
H1320 H 0.01398 0.70534 0.33044 0.0
H1321 H 0.0247 0.72702 0.393 0.0
H1322 H 0.03785 0.74545 0.41579 0.0
H1323 H 0.01811 0.78655 0.38644 0.0
H1324 H 0.00501 0.76834 0.36332 0.0
H1325 H 0.93419 0.696 0.36098 0.0
H1326 H 0.9635 0.69828 0.35792 0.0
H1327 H 0.95866 0.74889 0.34355 0.0
H1328 H 0.92911 0.74673 0.3469 0.0
H1329 H 0.98232 0.74395 0.36957 0.0
H1330 H 0.96848 0.72187 0.30951 0.0
H1331 H 0.95502 0.70326 0.28718 0.0
H1332 H 0.98048 0.66295 0.31159 0.0
H1333 H 0.99392 0.68128 0.33426 0.0
C1334 C 0.06011 0.73359 0.35225 0.0
C1335 C 0.06668 0.71848 0.35733 0.0
C1336 C 0.04335 0.73549 0.35034 0.0
C1337 C 0.03294 0.72232 0.35357 0.0
C1338 C 0.0395 0.70724 0.35864 0.0
C1339 C 0.05621 0.70534 0.36054 0.0
C1340 C 0.01516 0.72405 0.35164 0.0
C1341 C 0.00703 0.71372 0.33906 0.0
C1342 C 0.0062 0.7354 0.3624 0.0
C1343 C 0.01405 0.74633 0.37631 0.0
C1344 C 0.02328 0.73999 0.39132 0.0
C1345 C 0.0307 0.75039 0.40431 0.0
C1346 C 0.02886 0.76716 0.40253 0.0
C1347 C 0.01955 0.77356 0.38778 0.0
C1348 C 0.01212 0.7632 0.37473 0.0
C1349 C 0.93933 0.7076 0.35706 0.0
C1350 C 0.92937 0.72118 0.35412 0.0
C1351 C 0.95608 0.70887 0.35522 0.0
C1352 C 0.96323 0.72369 0.35022 0.0
C1353 C 0.95335 0.73732 0.34731 0.0
C1354 C 0.93651 0.73607 0.34918 0.0
C1355 C 0.98109 0.72487 0.34879 0.0
C1356 C 0.98926 0.73577 0.36069 0.0
C1357 C 0.99011 0.71404 0.33739 0.0
C1358 C 0.98215 0.70296 0.32366 0.0
C1359 C 0.97113 0.70902 0.3102 0.0
C1360 C 0.96352 0.69852 0.29747 0.0
C1361 C 0.96687 0.68193 0.29798 0.0
C1362 C 0.97789 0.67581 0.3112 0.0
C1363 C 0.98553 0.68625 0.32398 0.0
H1364 H 0.96096 0.67382 0.28812 0.0
H1365 H 0.03461 0.7752 0.41261 0.0
H1366 H 0.30777 0.93306 0.37195 0.0
H1367 H 0.30582 0.9626 0.37204 0.0
H1368 H 0.25704 0.95961 0.35027 0.0
H1369 H 0.25892 0.92995 0.35005 0.0
H1370 H 0.27555 0.983 0.33221 0.0
H1371 H 0.26224 0.96745 0.39566 0.0
H1372 H 0.26626 0.95324 0.42599 0.0
H1373 H 0.31088 0.97897 0.43478 0.0
H1374 H 0.30725 0.99317 0.40434 0.0
H1375 H 0.25754 0.06598 0.35061 0.0
H1376 H 0.25658 0.03632 0.35018 0.0
H1377 H 0.30414 0.03447 0.3756 0.0
H1378 H 0.30503 0.06406 0.3764 0.0
H1379 H 0.28427 0.0133 0.39202 0.0
H1380 H 0.29857 0.02773 0.32819 0.0
H1381 H 0.29521 0.0417 0.29758 0.0
H1382 H 0.2494 0.01802 0.28931 0.0
H1383 H 0.25239 0.00406 0.32001 0.0
C1384 C 0.29664 0.93868 0.36712 0.0
C1385 C 0.28346 0.92922 0.36107 0.0
C1386 C 0.29553 0.95554 0.36725 0.0
C1387 C 0.28122 0.96324 0.36138 0.0
C1388 C 0.26816 0.95386 0.35491 0.0
C1389 C 0.26924 0.93695 0.35484 0.0
C1390 C 0.27992 0.9811 0.36217 0.0
C1391 C 0.27718 0.98965 0.34532 0.0
C1392 C 0.28238 0.9897 0.37924 0.0
C1393 C 0.28454 0.98128 0.39763 0.0
C1394 C 0.27297 0.96999 0.40399 0.0
C1395 C 0.27517 0.96195 0.42121 0.0
C1396 C 0.28883 0.96517 0.43229 0.0
C1397 C 0.30031 0.97648 0.42618 0.0
C1398 C 0.29818 0.98454 0.40895 0.0
C1399 C 0.26777 0.05923 0.35613 0.0
C1400 C 0.28138 0.0673 0.36349 0.0
C1401 C 0.26724 0.04231 0.3558 0.0
C1402 C 0.28037 0.03321 0.36266 0.0
C1403 C 0.29388 0.04126 0.37023 0.0
C1404 C 0.29439 0.05816 0.37063 0.0
C1405 C 0.28011 0.01527 0.36201 0.0
C1406 C 0.28253 0.00668 0.37891 0.0
C1407 C 0.27742 0.00665 0.34496 0.0
C1408 C 0.27562 0.015 0.32649 0.0
C1409 C 0.28772 0.02561 0.31991 0.0
C1410 C 0.28589 0.0335 0.30254 0.0
C1411 C 0.27208 0.03079 0.29153 0.0
C1412 C 0.26008 0.02013 0.29786 0.0
C1413 C 0.26184 0.01222 0.31524 0.0
H1414 H 0.27069 0.03691 0.27808 0.0
H1415 H 0.29051 0.95893 0.44562 0.0
H1416 H 0.06629 0.74148 0.62621 0.0
H1417 H 0.03663 0.743 0.62612 0.0
H1418 H 0.03397 0.69188 0.63873 0.0
H1419 H 0.06352 0.69021 0.63838 0.0
H1420 H 0.013 0.6996 0.61187 0.0
H1421 H 0.02784 0.72132 0.67298 0.0
H1422 H 0.04202 0.73999 0.69464 0.0
H1423 H 0.01837 0.78061 0.6685 0.0
H1424 H 0.0042 0.76218 0.64651 0.0
H1425 H 0.93278 0.69068 0.64279 0.0
H1426 H 0.96233 0.69224 0.64199 0.0
H1427 H 0.9595 0.74321 0.62861 0.0
H1428 H 0.92985 0.7418 0.62988 0.0
H1429 H 0.98309 0.73736 0.6539 0.0
H1430 H 0.9669 0.7152 0.59399 0.0
H1431 H 0.95232 0.69621 0.57304 0.0
H1432 H 0.97844 0.65622 0.5972 0.0
H1433 H 0.99301 0.67493 0.61847 0.0
C1434 C 0.05935 0.73058 0.62897 0.0
C1435 C 0.06718 0.71573 0.63234 0.0
C1436 C 0.04243 0.73148 0.62898 0.0
C1437 C 0.0331 0.71758 0.63262 0.0
C1438 C 0.04093 0.70275 0.63588 0.0
C1439 C 0.05781 0.70182 0.63573 0.0
C1440 C 0.01516 0.71835 0.63294 0.0
C1441 C 0.00646 0.70775 0.62119 0.0
C1442 C 0.00664 0.72932 0.64471 0.0
C1443 C 0.0151 0.74039 0.65798 0.0
C1444 C 0.02576 0.73424 0.67176 0.0
C1445 C 0.03378 0.74478 0.68411 0.0
C1446 C 0.03114 0.76148 0.68291 0.0
C1447 C 0.02043 0.76767 0.66939 0.0
C1448 C 0.01239 0.75719 0.65699 0.0
C1449 C 0.93845 0.70224 0.63979 0.0
C1450 C 0.92905 0.7161 0.63627 0.0
C1451 C 0.95533 0.7031 0.63924 0.0
C1452 C 0.96309 0.71777 0.63486 0.0
C1453 C 0.95373 0.73175 0.63192 0.0
C1454 C 0.93682 0.73093 0.63262 0.0
C1455 C 0.98096 0.71839 0.6331 0.0
C1456 C 0.98963 0.72929 0.64449 0.0
C1457 C 0.98948 0.70769 0.62101 0.0
C1458 C 0.98096 0.69646 0.60793 0.0
C1459 C 0.96948 0.70234 0.5949 0.0
C1460 C 0.96122 0.69163 0.58296 0.0
C1461 C 0.96442 0.67502 0.58384 0.0
C1462 C 0.97596 0.66909 0.59656 0.0
C1463 C 0.98424 0.67974 0.60854 0.0
H1464 H 0.95798 0.66673 0.57466 0.0
H1465 H 0.03736 0.76962 0.69248 0.0
H1466 H 0.25783 0.935 0.6516 0.0
H1467 H 0.25783 0.96468 0.65119 0.0
H1468 H 0.30639 0.96449 0.62848 0.0
H1469 H 0.30657 0.93489 0.62919 0.0
H1470 H 0.30355 0.98635 0.65607 0.0
H1471 H 0.27328 0.9717 0.60027 0.0
H1472 H 0.25145 0.95803 0.58255 0.0
H1473 H 0.21569 0.98365 0.61501 0.0
H1474 H 0.23732 0.99732 0.6331 0.0
H1475 H 0.30987 0.06645 0.62224 0.0
H1476 H 0.30803 0.03693 0.62421 0.0
H1477 H 0.25989 0.04095 0.6476 0.0
H1478 H 0.26155 0.07054 0.64539 0.0
H1479 H 0.26149 0.01732 0.62119 0.0
H1480 H 0.29183 0.03282 0.67612 0.0
H1481 H 0.3137 0.04659 0.69366 0.0
H1482 H 0.34936 0.01939 0.66285 0.0
H1483 H 0.3277 0.00561 0.64492 0.0
C1484 C 0.2685 0.9413 0.64655 0.0
C1485 C 0.28219 0.93265 0.64039 0.0
C1486 C 0.26846 0.95824 0.64625 0.0
C1487 C 0.28205 0.96678 0.6396 0.0
C1488 C 0.29578 0.95814 0.63365 0.0
C1489 C 0.29585 0.94123 0.63402 0.0
C1490 C 0.28205 0.98473 0.63885 0.0
C1491 C 0.29446 0.99312 0.64827 0.0
C1492 C 0.26993 0.99356 0.6291 0.0
C1493 C 0.25692 0.9854 0.61817 0.0
C1494 C 0.26076 0.97433 0.60373 0.0
C1495 C 0.24842 0.96659 0.5936 0.0
C1496 C 0.23219 0.96993 0.59769 0.0
C1497 C 0.22826 0.98105 0.61188 0.0
C1498 C 0.24056 0.9888 0.62207 0.0
C1499 C 0.29887 0.06105 0.62775 0.0
C1500 C 0.28588 0.07078 0.63375 0.0
C1501 C 0.29787 0.04419 0.62894 0.0
C1502 C 0.28392 0.03678 0.63632 0.0
C1503 C 0.27078 0.04645 0.64193 0.0
C1504 C 0.27176 0.06333 0.6407 0.0
C1505 C 0.28311 0.01891 0.63821 0.0
C1506 C 0.27054 0.01055 0.62906 0.0
C1507 C 0.29509 0.0101 0.64821 0.0
C1508 C 0.30814 0.01828 0.65906 0.0
C1509 C 0.30434 0.02986 0.67298 0.0
C1510 C 0.3167 0.03765 0.68301 0.0
C1511 C 0.33291 0.03389 0.67934 0.0
C1512 C 0.3368 0.0223 0.66567 0.0
C1513 C 0.32449 0.01448 0.65558 0.0
H1514 H 0.34246 0.03994 0.68712 0.0
H1515 H 0.22266 0.96393 0.58983 0.0
H1516 H 0.06564 0.31033 0.63254 0.0
H1517 H 0.03613 0.30875 0.63407 0.0
H1518 H 0.03927 0.25798 0.64836 0.0
H1519 H 0.0689 0.25942 0.64646 0.0
H1520 H 0.01673 0.26302 0.62188 0.0
H1521 H 0.02949 0.2861 0.68197 0.0
H1522 H 0.04242 0.3052 0.70416 0.0
H1523 H 0.01719 0.3449 0.67811 0.0
H1524 H 0.00428 0.32606 0.65557 0.0
H1525 H 0.93223 0.25922 0.64453 0.0
H1526 H 0.96184 0.25796 0.64676 0.0
H1527 H 0.96493 0.30818 0.63011 0.0
H1528 H 0.93539 0.30958 0.62803 0.0
H1529 H 0.98427 0.3015 0.66028 0.0
H1530 H 0.97316 0.27835 0.59883 0.0
H1531 H 0.96031 0.25912 0.57671 0.0
H1532 H 0.98248 0.21924 0.60597 0.0
H1533 H 0.99529 0.23824 0.62842 0.0
C1534 C 0.06006 0.29885 0.6361 0.0
C1535 C 0.06955 0.28501 0.63944 0.0
C1536 C 0.04319 0.29797 0.63706 0.0
C1537 C 0.03551 0.2833 0.64159 0.0
C1538 C 0.04497 0.26944 0.6449 0.0
C1539 C 0.06187 0.27029 0.64386 0.0
C1540 C 0.01758 0.28241 0.64229 0.0
C1541 C 0.00963 0.27123 0.63054 0.0
C1542 C 0.00833 0.2933 0.65337 0.0
C1543 C 0.01601 0.30467 0.66698 0.0
C1544 C 0.02678 0.29892 0.68088 0.0
C1545 C 0.0341 0.3097 0.69354 0.0
C1546 C 0.03065 0.32626 0.69252 0.0
C1547 C 0.01985 0.33207 0.67887 0.0
C1548 C 0.01252 0.32134 0.66617 0.0
C1549 C 0.93924 0.26997 0.64131 0.0
C1550 C 0.93153 0.28449 0.63607 0.0
C1551 C 0.95613 0.26922 0.64255 0.0
C1552 C 0.96556 0.28296 0.63848 0.0
C1553 C 0.95786 0.29747 0.63333 0.0
C1554 C 0.941 0.29822 0.63208 0.0
C1555 C 0.98346 0.28232 0.63963 0.0
C1556 C 0.99139 0.29319 0.65176 0.0
C1557 C 0.99268 0.27112 0.62896 0.0
C1558 C 0.98503 0.2597 0.61543 0.0
C1559 C 0.97518 0.26547 0.60064 0.0
C1560 C 0.96793 0.25462 0.58802 0.0
C1561 C 0.97054 0.23797 0.58997 0.0
C1562 C 0.98045 0.23214 0.6045 0.0
C1563 C 0.98772 0.24294 0.61716 0.0
H1564 H 0.96491 0.22958 0.58018 0.0
H1565 H 0.03633 0.33458 0.70234 0.0
H1566 H 0.74151 0.06666 0.65015 0.0
H1567 H 0.74256 0.03697 0.6502 0.0
H1568 H 0.69229 0.03516 0.63336 0.0
H1569 H 0.69111 0.06473 0.63353 0.0
H1570 H 0.69864 0.01369 0.66103 0.0
H1571 H 0.72257 0.02935 0.60137 0.0
H1572 H 0.74213 0.04371 0.58099 0.0
H1573 H 0.78156 0.0191 0.6084 0.0
H1574 H 0.76223 0.00475 0.62912 0.0
H1575 H 0.6893 0.93493 0.6252 0.0
H1576 H 0.69149 0.96433 0.62818 0.0
H1577 H 0.74155 0.9595 0.64503 0.0
H1578 H 0.7395 0.92999 0.64182 0.0
H1579 H 0.73732 0.98407 0.61985 0.0
H1580 H 0.71316 0.96685 0.67793 0.0
H1581 H 0.69352 0.95233 0.69802 0.0
H1582 H 0.65452 0.97982 0.67371 0.0
H1583 H 0.67391 0.99435 0.65326 0.0
C1584 C 0.73069 0.05991 0.64652 0.0
C1585 C 0.71624 0.06798 0.64178 0.0
C1586 C 0.73132 0.04298 0.64649 0.0
C1587 C 0.71754 0.03389 0.64161 0.0
C1588 C 0.70306 0.04195 0.63718 0.0
C1589 C 0.70241 0.05884 0.63723 0.0
C1590 C 0.71812 0.01597 0.64092 0.0
C1591 C 0.707 0.00721 0.65191 0.0
C1592 C 0.72935 0.00754 0.62943 0.0
C1593 C 0.74097 0.01612 0.61694 0.0
C1594 C 0.73542 0.0271 0.60315 0.0
C1595 C 0.74646 0.03522 0.59152 0.0
C1596 C 0.76308 0.03235 0.59344 0.0
C1597 C 0.76869 0.02133 0.60695 0.0
C1598 C 0.75769 0.01319 0.61864 0.0
C1599 C 0.70079 0.94012 0.62947 0.0
C1600 C 0.71421 0.93018 0.63337 0.0
C1601 C 0.70201 0.95691 0.63125 0.0
C1602 C 0.71661 0.96405 0.63711 0.0
C1603 C 0.73016 0.95419 0.64056 0.0
C1604 C 0.72896 0.93737 0.63876 0.0
C1605 C 0.71763 0.98182 0.63968 0.0
C1606 C 0.72906 0.99055 0.6291 0.0
C1607 C 0.70668 0.99023 0.65156 0.0
C1608 C 0.69499 0.9816 0.66395 0.0
C1609 C 0.70039 0.96972 0.67677 0.0
C1610 C 0.6893 0.9615 0.68824 0.0
C1611 C 0.67278 0.96513 0.68712 0.0
C1612 C 0.66732 0.97702 0.67456 0.0
C1613 C 0.67835 0.98526 0.66303 0.0
H1614 H 0.66422 0.95875 0.69601 0.0
H1615 H 0.77161 0.03865 0.58442 0.0
H1616 H 0.56755 0.80935 0.8737 0.0
H1617 H 0.53797 0.80839 0.8738 0.0
H1618 H 0.53937 0.75913 0.85335 0.0
H1619 H 0.56906 0.76006 0.85301 0.0
H1620 H 0.51735 0.77768 0.8342 0.0
H1621 H 0.53073 0.76645 0.89896 0.0
H1622 H 0.54451 0.77144 0.92939 0.0
H1623 H 0.52011 0.8172 0.93456 0.0
H1624 H 0.50636 0.81259 0.90401 0.0
H1625 H 0.4339 0.76166 0.85084 0.0
H1626 H 0.46353 0.76058 0.85135 0.0
H1627 H 0.46512 0.80927 0.87358 0.0
H1628 H 0.43549 0.81034 0.87337 0.0
H1629 H 0.48571 0.78973 0.89223 0.0
H1630 H 0.47338 0.8019 0.82736 0.0
H1631 H 0.46019 0.7979 0.79639 0.0
H1632 H 0.48293 0.7513 0.79108 0.0
H1633 H 0.49608 0.75493 0.82216 0.0
C1634 C 0.56157 0.79829 0.86926 0.0
C1635 C 0.57059 0.78476 0.86339 0.0
C1636 C 0.54467 0.79775 0.86939 0.0
C1637 C 0.53651 0.78362 0.86379 0.0
C1638 C 0.54547 0.77012 0.85777 0.0
C1639 C 0.5624 0.77066 0.85763 0.0
C1640 C 0.51858 0.78309 0.86398 0.0
C1641 C 0.51041 0.78004 0.84694 0.0
C1642 C 0.5096 0.78657 0.88054 0.0
C1643 C 0.51761 0.78923 0.89911 0.0
C1644 C 0.52837 0.77762 0.90653 0.0
C1645 C 0.53617 0.78037 0.9238 0.0
C1646 C 0.53322 0.79464 0.93387 0.0
C1647 C 0.5224 0.80615 0.92673 0.0
C1648 C 0.51458 0.80347 0.90945 0.0
C1649 C 0.44057 0.77214 0.8558 0.0
C1650 C 0.43241 0.78611 0.86201 0.0
C1651 C 0.45749 0.77152 0.85603 0.0
C1652 C 0.46651 0.7849 0.86234 0.0
C1653 C 0.45837 0.79882 0.86866 0.0
C1654 C 0.44146 0.79943 0.86847 0.0
C1655 C 0.48446 0.7844 0.86241 0.0
C1656 C 0.49264 0.78727 0.87951 0.0
C1657 C 0.49345 0.78083 0.84588 0.0
C1658 C 0.48557 0.77862 0.82718 0.0
C1659 C 0.47546 0.79074 0.81966 0.0
C1660 C 0.46801 0.78855 0.80207 0.0
C1661 C 0.47068 0.77434 0.7918 0.0
C1662 C 0.48084 0.7623 0.79907 0.0
C1663 C 0.48831 0.76442 0.81667 0.0
H1664 H 0.46491 0.77267 0.77817 0.0
H1665 H 0.5393 0.79677 0.94722 0.0
H1666 H 0.18925 0.43446 0.87433 0.0
H1667 H 0.19062 0.46402 0.87256 0.0
H1668 H 0.23834 0.46084 0.84785 0.0
H1669 H 0.23716 0.43124 0.84987 0.0
H1670 H 0.23708 0.48395 0.87474 0.0
H1671 H 0.2056 0.46913 0.82041 0.0
H1672 H 0.18341 0.4555 0.80326 0.0
H1673 H 0.14833 0.48202 0.83575 0.0
H1674 H 0.17032 0.49564 0.85329 0.0
H1675 H 0.23975 0.56669 0.84597 0.0
H1676 H 0.23985 0.53701 0.84576 0.0
H1677 H 0.19179 0.53668 0.86985 0.0
H1678 H 0.19149 0.56628 0.86975 0.0
H1679 H 0.19411 0.51521 0.84179 0.0
H1680 H 0.22548 0.52917 0.89697 0.0
H1681 H 0.2476 0.54266 0.91439 0.0
H1682 H 0.28281 0.51775 0.88041 0.0
H1683 H 0.26088 0.50426 0.86261 0.0
C1684 C 0.20004 0.44006 0.86854 0.0
C1685 C 0.21307 0.43056 0.86217 0.0
C1686 C 0.20078 0.45694 0.86746 0.0
C1687 C 0.21449 0.4646 0.85983 0.0
C1688 C 0.22763 0.45515 0.85374 0.0
C1689 C 0.22692 0.43826 0.85486 0.0
C1690 C 0.21512 0.4825 0.85831 0.0
C1691 C 0.22783 0.49079 0.86729 0.0
C1692 C 0.20287 0.4914 0.84889 0.0
C1693 C 0.18961 0.4833 0.83827 0.0
C1694 C 0.19315 0.47197 0.82399 0.0
C1695 C 0.18061 0.46426 0.81419 0.0
C1696 C 0.16447 0.46787 0.81844 0.0
C1697 C 0.16084 0.47922 0.83248 0.0
C1698 C 0.17334 0.48696 0.84234 0.0
C1699 C 0.22921 0.56027 0.85119 0.0
C1700 C 0.21563 0.56878 0.85792 0.0
C1701 C 0.22931 0.54333 0.85114 0.0
C1702 C 0.21589 0.53465 0.85799 0.0
C1703 C 0.20226 0.54314 0.8645 0.0
C1704 C 0.20213 0.56005 0.86449 0.0
C1705 C 0.21598 0.51669 0.85838 0.0
C1706 C 0.20341 0.50838 0.84917 0.0
C1707 C 0.22835 0.50778 0.8676 0.0
C1708 C 0.24154 0.51584 0.87833 0.0
C1709 C 0.23794 0.52666 0.89311 0.0
C1710 C 0.25044 0.53429 0.90308 0.0
C1711 C 0.2666 0.5311 0.89848 0.0
C1712 C 0.27029 0.52023 0.88394 0.0
C1713 C 0.25783 0.51258 0.87392 0.0
H1714 H 0.27626 0.53701 0.90621 0.0
H1715 H 0.15477 0.46188 0.81083 0.0
H1716 H 0.43383 0.19639 0.87902 0.0
H1717 H 0.46333 0.19892 0.87932 0.0
H1718 H 0.4599 0.24322 0.84712 0.0
H1719 H 0.43028 0.24074 0.84672 0.0
H1720 H 0.48306 0.22247 0.83314 0.0
H1721 H 0.46888 0.24552 0.89266 0.0
H1722 H 0.45531 0.24705 0.92368 0.0
H1723 H 0.48061 0.20435 0.94201 0.0
H1724 H 0.49416 0.20242 0.91098 0.0
H1725 H 0.56733 0.23968 0.84727 0.0
H1726 H 0.53773 0.24225 0.84734 0.0
H1727 H 0.53388 0.19757 0.87876 0.0
H1728 H 0.5634 0.19493 0.87876 0.0
H1729 H 0.51438 0.22176 0.89313 0.0
H1730 H 0.52661 0.19756 0.83261 0.0
H1731 H 0.54006 0.19596 0.80152 0.0
H1732 H 0.51833 0.24115 0.78517 0.0
H1733 H 0.50492 0.24313 0.81631 0.0
C1734 C 0.43934 0.20669 0.87204 0.0
C1735 C 0.42978 0.21839 0.86288 0.0
C1736 C 0.45618 0.20816 0.87229 0.0
C1737 C 0.46376 0.22135 0.86341 0.0
C1738 C 0.45426 0.23299 0.8541 0.0
C1739 C 0.43737 0.23157 0.85392 0.0
C1740 C 0.48164 0.22269 0.86358 0.0
C1741 C 0.48992 0.22264 0.84625 0.0
C1742 C 0.49054 0.22264 0.8807 0.0
C1743 C 0.48244 0.22375 0.89942 0.0
C1744 C 0.47145 0.23638 0.90324 0.0
C1745 C 0.46378 0.23733 0.92084 0.0
C1746 C 0.46707 0.22578 0.93479 0.0
C1747 C 0.47807 0.21328 0.93118 0.0
C1748 C 0.48576 0.21226 0.91359 0.0
C1749 C 0.56016 0.23043 0.8542 0.0
C1750 C 0.56763 0.21708 0.86295 0.0
C1751 C 0.54328 0.23189 0.85419 0.0
C1752 C 0.53366 0.22005 0.86297 0.0
C1753 C 0.54112 0.20684 0.87193 0.0
C1754 C 0.55796 0.20532 0.87185 0.0
C1755 C 0.51577 0.22125 0.86271 0.0
C1756 C 0.5075 0.22179 0.88003 0.0
C1757 C 0.50689 0.22177 0.84559 0.0
C1758 C 0.51492 0.22059 0.82687 0.0
C1759 C 0.52482 0.20723 0.82245 0.0
C1760 C 0.53241 0.20624 0.80481 0.0
C1761 C 0.53009 0.21847 0.7914 0.0
C1762 C 0.52014 0.2317 0.79559 0.0
C1763 C 0.51253 0.23276 0.81323 0.0
H1764 H 0.53597 0.21768 0.77775 0.0
H1765 H 0.46112 0.22654 0.94841 0.0
H1766 H 0.75865 0.43294 0.85481 0.0
H1767 H 0.75817 0.46261 0.85485 0.0
H1768 H 0.81023 0.46348 0.86093 0.0
H1769 H 0.81074 0.43389 0.86133 0.0
H1770 H 0.7965 0.48412 0.88471 0.0
H1771 H 0.7914 0.47181 0.81831 0.0
H1772 H 0.7791 0.45891 0.79029 0.0
H1773 H 0.73406 0.48313 0.80159 0.0
H1774 H 0.74604 0.49602 0.82984 0.0
H1775 H 0.81275 0.56579 0.86272 0.0
H1776 H 0.81131 0.53623 0.86175 0.0
H1777 H 0.75921 0.53875 0.85701 0.0
H1778 H 0.7606 0.5684 0.85761 0.0
H1779 H 0.77161 0.51651 0.83315 0.0
H1780 H 0.77696 0.52943 0.899 0.0
H1781 H 0.78931 0.54245 0.92692 0.0
H1782 H 0.83387 0.51702 0.91667 0.0
H1783 H 0.82186 0.50402 0.88852 0.0
C1784 C 0.76998 0.43948 0.85608 0.0
C1785 C 0.78473 0.43113 0.85806 0.0
C1786 C 0.7697 0.45642 0.85603 0.0
C1787 C 0.78418 0.46526 0.85771 0.0
C1788 C 0.79891 0.45691 0.85963 0.0
C1789 C 0.79919 0.44 0.85981 0.0
C1790 C 0.78405 0.48321 0.85792 0.0
C1791 C 0.79123 0.4912 0.87332 0.0
C1792 C 0.77676 0.49243 0.84332 0.0
C1793 C 0.76957 0.48475 0.82629 0.0
C1794 C 0.77884 0.47429 0.8149 0.0
C1795 C 0.77193 0.467 0.79896 0.0
C1796 C 0.7558 0.47017 0.79419 0.0
C1797 C 0.74655 0.48067 0.80532 0.0
C1798 C 0.75339 0.48798 0.82129 0.0
C1799 C 0.80099 0.56005 0.86144 0.0
C1800 C 0.78678 0.56937 0.86035 0.0
C1801 C 0.80018 0.54316 0.86095 0.0
C1802 C 0.78514 0.5353 0.85959 0.0
C1803 C 0.77094 0.54459 0.85812 0.0
C1804 C 0.77175 0.5615 0.85852 0.0
C1805 C 0.78425 0.51738 0.85981 0.0
C1806 C 0.77684 0.50941 0.84455 0.0
C1807 C 0.79133 0.50815 0.87454 0.0
C1808 C 0.79855 0.51586 0.89155 0.0
C1809 C 0.78943 0.5267 0.90262 0.0
C1810 C 0.79636 0.53407 0.9185 0.0
C1811 C 0.81237 0.5306 0.92354 0.0
C1812 C 0.82147 0.51971 0.91273 0.0
C1813 C 0.8146 0.51233 0.89683 0.0
H1814 H 0.81772 0.53631 0.93583 0.0
H1815 H 0.75047 0.46451 0.78184 0.0
H1816 H 0.43054 0.23942 0.14427 0.0
H1817 H 0.46014 0.24089 0.14603 0.0
H1818 H 0.46334 0.19013 0.13181 0.0
H1819 H 0.43377 0.18853 0.13022 0.0
H1820 H 0.48286 0.19787 0.16133 0.0
H1821 H 0.4715 0.21885 0.09908 0.0
H1822 H 0.45847 0.23705 0.07595 0.0
H1823 H 0.4801 0.27828 0.10311 0.0
H1824 H 0.4931 0.26033 0.12658 0.0
H1825 H 0.56493 0.19052 0.13519 0.0
H1826 H 0.53536 0.19127 0.13573 0.0
H1827 H 0.5367 0.24228 0.14912 0.0
H1828 H 0.5664 0.24167 0.1483 0.0
H1829 H 0.51484 0.23586 0.12171 0.0
H1830 H 0.52737 0.2148 0.18301 0.0
H1831 H 0.54052 0.1966 0.20605 0.0
H1832 H 0.51673 0.15563 0.1809 0.0
H1833 H 0.5036 0.17356 0.15753 0.0
C1834 C 0.43756 0.22859 0.14147 0.0
C1835 C 0.42988 0.21386 0.13708 0.0
C1836 C 0.45446 0.22946 0.14243 0.0
C1837 C 0.46391 0.21564 0.13892 0.0
C1838 C 0.45625 0.20092 0.13459 0.0
C1839 C 0.43937 0.20004 0.13362 0.0
C1840 C 0.48182 0.21644 0.13992 0.0
C1841 C 0.48987 0.20605 0.15253 0.0
C1842 C 0.4909 0.22745 0.12883 0.0
C1843 C 0.48313 0.23826 0.11471 0.0
C1844 C 0.47337 0.23181 0.10022 0.0
C1845 C 0.46601 0.24207 0.08703 0.0
C1846 C 0.46841 0.25882 0.08809 0.0
C1847 C 0.47822 0.26532 0.10232 0.0
C1848 C 0.4856 0.2551 0.11556 0.0
C1849 C 0.55894 0.20189 0.13832 0.0
C1850 C 0.56795 0.21603 0.14176 0.0
C1851 C 0.54204 0.20228 0.1387 0.0
C1852 C 0.53385 0.21679 0.1427 0.0
C1853 C 0.54281 0.23096 0.14606 0.0
C1854 C 0.55975 0.23058 0.14564 0.0
C1855 C 0.5159 0.21715 0.14295 0.0
C1856 C 0.50783 0.22776 0.13061 0.0
C1857 C 0.5068 0.20634 0.15431 0.0
C1858 C 0.5146 0.19552 0.16842 0.0
C1859 C 0.52503 0.2019 0.1823 0.0
C1860 C 0.53247 0.19163 0.19543 0.0
C1861 C 0.52949 0.17496 0.19491 0.0
C1862 C 0.51903 0.16854 0.18128 0.0
C1863 C 0.51157 0.17875 0.1681 0.0
H1864 H 0.53527 0.16703 0.20508 0.0
H1865 H 0.4627 0.26675 0.07787 0.0
H1866 H 0.76065 0.56637 0.14804 0.0
H1867 H 0.76037 0.53668 0.14848 0.0
H1868 H 0.81066 0.53595 0.13174 0.0
H1869 H 0.81103 0.56557 0.13123 0.0
H1870 H 0.79198 0.51504 0.11085 0.0
H1871 H 0.80084 0.52803 0.1764 0.0
H1872 H 0.79485 0.54133 0.20685 0.0
H1873 H 0.7487 0.51732 0.2091 0.0
H1874 H 0.75432 0.50405 0.17851 0.0
H1875 H 0.81201 0.43347 0.1294 0.0
H1876 H 0.81085 0.46306 0.12999 0.0
H1877 H 0.7611 0.46097 0.14869 0.0
H1878 H 0.76225 0.43131 0.14839 0.0
H1879 H 0.77831 0.48331 0.16834 0.0
H1880 H 0.76962 0.46973 0.10328 0.0
H1881 H 0.77554 0.4563 0.0729 0.0
H1882 H 0.82103 0.48145 0.0695 0.0
H1883 H 0.81548 0.49485 0.10003 0.0
C1884 C 0.77165 0.55987 0.14452 0.0
C1885 C 0.78587 0.56825 0.13963 0.0
C1886 C 0.77148 0.54293 0.14483 0.0
C1887 C 0.78552 0.53416 0.14025 0.0
C1888 C 0.79971 0.54252 0.13531 0.0
C1889 C 0.79991 0.55943 0.1351 0.0
C1890 C 0.78541 0.51624 0.14031 0.0
C1891 C 0.78917 0.50809 0.12346 0.0
C1892 C 0.78132 0.50724 0.15666 0.0
C1893 C 0.77793 0.51518 0.17507 0.0
C1894 C 0.78935 0.5257 0.18331 0.0
C1895 C 0.78603 0.53321 0.20061 0.0
C1896 C 0.77138 0.53021 0.20988 0.0
C1897 C 0.76003 0.51966 0.20189 0.0
C1898 C 0.76328 0.51213 0.18458 0.0
C1899 C 0.80083 0.43932 0.13366 0.0
C1900 C 0.78719 0.43011 0.13877 0.0
C1901 C 0.80017 0.45621 0.13392 0.0
C1902 C 0.78582 0.46419 0.13915 0.0
C1903 C 0.77227 0.45503 0.14457 0.0
C1904 C 0.77293 0.43811 0.14434 0.0
C1905 C 0.78501 0.4821 0.13891 0.0
C1906 C 0.78105 0.49026 0.1557 0.0
C1907 C 0.78888 0.49112 0.12249 0.0
C1908 C 0.7922 0.48318 0.10404 0.0
C1909 C 0.78094 0.47231 0.09613 0.0
C1910 C 0.78422 0.46471 0.07887 0.0
C1911 C 0.79867 0.46799 0.0693 0.0
C1912 C 0.80985 0.47891 0.07694 0.0
C1913 C 0.80663 0.48652 0.09422 0.0
H1914 H 0.8012 0.46209 0.05594 0.0
H1915 H 0.76884 0.53604 0.22328 0.0
H1916 H 0.43163 0.80519 0.12626 0.0
H1917 H 0.46116 0.80343 0.12506 0.0
H1918 H 0.45906 0.75446 0.14636 0.0
H1919 H 0.42942 0.7562 0.14783 0.0
H1920 H 0.48225 0.77236 0.16413 0.0
H1921 H 0.46659 0.76101 0.10025 0.0
H1922 H 0.45211 0.76583 0.07024 0.0
H1923 H 0.4772 0.81103 0.06326 0.0
H1924 H 0.49167 0.8066 0.09338 0.0
H1925 H 0.56558 0.75687 0.14453 0.0
H1926 H 0.53594 0.75503 0.14451 0.0
H1927 H 0.53284 0.8039 0.12303 0.0
H1928 H 0.5624 0.80576 0.12282 0.0
H1929 H 0.51221 0.78378 0.10473 0.0
H1930 H 0.52631 0.79623 0.16924 0.0
H1931 H 0.54046 0.79212 0.19962 0.0
H1932 H 0.5181 0.74539 0.20554 0.0
H1933 H 0.50398 0.74913 0.17504 0.0
C1934 C 0.43745 0.79404 0.13068 0.0
C1935 C 0.42825 0.78081 0.13709 0.0
C1936 C 0.45431 0.79303 0.12991 0.0
C1937 C 0.46226 0.77874 0.13539 0.0
C1938 C 0.45312 0.76557 0.14201 0.0
C1939 C 0.43622 0.76657 0.1428 0.0
C1940 C 0.48015 0.77771 0.13439 0.0
C1941 C 0.48881 0.77456 0.15108 0.0
C1942 C 0.48866 0.78092 0.11742 0.0
C1943 C 0.48013 0.78353 0.09916 0.0
C1944 C 0.46895 0.77203 0.09238 0.0
C1945 C 0.46075 0.77469 0.07534 0.0
C1946 C 0.4637 0.78875 0.06487 0.0
C1947 C 0.47491 0.80015 0.07139 0.0
C1948 C 0.48313 0.79756 0.08844 0.0
C1949 C 0.55856 0.7672 0.13977 0.0
C1950 C 0.56627 0.78148 0.13374 0.0
C1951 C 0.54166 0.76615 0.13981 0.0
C1952 C 0.53222 0.77938 0.13392 0.0
C1953 C 0.53991 0.79355 0.12762 0.0
C1954 C 0.55679 0.79461 0.12758 0.0
C1955 C 0.51431 0.77861 0.13451 0.0
C1956 C 0.50564 0.78142 0.11774 0.0
C1957 C 0.5058 0.77514 0.15141 0.0
C1958 C 0.51424 0.77288 0.16976 0.0
C1959 C 0.52452 0.78502 0.17694 0.0
C1960 C 0.53251 0.78276 0.19419 0.0
C1961 C 0.53022 0.76848 0.20447 0.0
C1962 C 0.51989 0.75643 0.19754 0.0
C1963 C 0.51188 0.75862 0.18028 0.0
H1964 H 0.53641 0.76676 0.21783 0.0
H1965 H 0.45732 0.79079 0.05169 0.0
H1966 H 0.23929 0.43024 0.14622 0.0
H1967 H 0.2402 0.4599 0.14578 0.0
H1968 H 0.19048 0.4613 0.12684 0.0
H1969 H 0.18952 0.43168 0.12708 0.0
H1970 H 0.20963 0.48198 0.1069 0.0
H1971 H 0.19965 0.469 0.17236 0.0
H1972 H 0.20517 0.45561 0.20289 0.0
H1973 H 0.25149 0.47924 0.20599 0.0
H1974 H 0.24633 0.49259 0.17532 0.0
H1975 H 0.18856 0.56308 0.12581 0.0
H1976 H 0.19024 0.53353 0.1259 0.0
H1977 H 0.23964 0.53624 0.14579 0.0
H1978 H 0.23796 0.56589 0.14599 0.0
H1979 H 0.22242 0.51352 0.16483 0.0
H1980 H 0.23214 0.5274 0.10024 0.0
H1981 H 0.22682 0.54096 0.06983 0.0
H1982 H 0.18148 0.51572 0.06487 0.0
H1983 H 0.18643 0.50217 0.09547 0.0
C1984 C 0.22856 0.43688 0.14195 0.0
C1985 C 0.21431 0.42868 0.13673 0.0
C1986 C 0.22909 0.4538 0.14177 0.0
C1987 C 0.21536 0.46276 0.13644 0.0
C1988 C 0.20119 0.45458 0.131 0.0
C1989 C 0.20065 0.43768 0.1312 0.0
C1990 C 0.2157 0.48068 0.13651 0.0
C1991 C 0.21226 0.48889 0.1196 0.0
C1992 C 0.21958 0.48964 0.15298 0.0
C1993 C 0.22268 0.48165 0.17145 0.0
C1994 C 0.21107 0.47123 0.17947 0.0
C1995 C 0.21412 0.46367 0.19682 0.0
C1996 C 0.22869 0.46654 0.20635 0.0
C1997 C 0.24022 0.47701 0.19857 0.0
C1998 C 0.23723 0.48458 0.18122 0.0
C1999 C 0.19978 0.55739 0.1302 0.0
C2000 C 0.21316 0.56677 0.13582 0.0
C2001 C 0.20075 0.54052 0.13018 0.0
C2002 C 0.21513 0.53272 0.13562 0.0
C2003 C 0.22845 0.54205 0.14149 0.0
C2004 C 0.22748 0.55895 0.14154 0.0
C2005 C 0.21618 0.51482 0.13526 0.0
C2006 C 0.21989 0.50661 0.15209 0.0
C2007 C 0.21259 0.50586 0.11871 0.0
C2008 C 0.2096 0.51388 0.10023 0.0
C2009 C 0.22098 0.52483 0.09274 0.0
C2010 C 0.21803 0.5325 0.07545 0.0
C2011 C 0.2038 0.52924 0.06542 0.0
C2012 C 0.19249 0.51825 0.07266 0.0
C2013 C 0.19537 0.51056 0.08997 0.0
H2014 H 0.20154 0.53517 0.05202 0.0
H2015 H 0.23103 0.46067 0.21978 0.0
H2016 H 0.09612 0.29619 0.42576 0.0
H2017 H 0.09832 0.30237 0.45929 0.0
H2018 H 0.14657 0.32119 0.4505 0.0
H2019 H 0.14465 0.31429 0.41681 0.0
H2020 H 0.14719 0.30233 0.47906 0.0
H2021 H 0.11334 0.34638 0.46327 0.0
H2022 H 0.09054 0.36098 0.44848 0.0
H2023 H 0.0567 0.33272 0.48075 0.0
H2024 H 0.07928 0.31777 0.49554 0.0
H2025 H 0.14343 0.31716 0.58014 0.0
H2026 H 0.14478 0.32395 0.54628 0.0
H2027 H 0.10304 0.29378 0.53577 0.0
H2028 H 0.1018 0.28674 0.5693 0.0
H2029 H 0.1025 0.32538 0.51754 0.0
H2030 H 0.13786 0.27829 0.52754 0.0
H2031 H 0.16124 0.26461 0.54236 0.0
H2032 H 0.19312 0.30139 0.52082 0.0
H2033 H 0.16987 0.3154 0.50609 0.0
C2034 C 0.10711 0.30188 0.43089 0.0
C2035 C 0.12022 0.30474 0.41868 0.0
C2036 C 0.10832 0.30555 0.45009 0.0
C2037 C 0.12251 0.31253 0.45746 0.0
C2038 C 0.13547 0.31587 0.44515 0.0
C2039 C 0.13435 0.31197 0.42592 0.0
C2040 C 0.1242 0.31481 0.47824 0.0
C2041 C 0.13761 0.3078 0.4874 0.0
C2042 C 0.11172 0.3219 0.48926 0.0
C2043 C 0.09804 0.3309 0.48047 0.0
C2044 C 0.10104 0.3432 0.46714 0.0
C2045 C 0.08815 0.35155 0.45876 0.0
C2046 C 0.07219 0.34777 0.46366 0.0
C2047 C 0.06908 0.33564 0.47698 0.0
C2048 C 0.08192 0.32725 0.48539 0.0
C2049 C 0.13452 0.31207 0.57058 0.0
C2050 C 0.12257 0.30136 0.57727 0.0
C2051 C 0.1353 0.31596 0.55131 0.0
C2052 C 0.12399 0.30937 0.53861 0.0
C2053 C 0.11182 0.29904 0.54539 0.0
C2054 C 0.1112 0.29495 0.56452 0.0
C2055 C 0.12511 0.31242 0.51805 0.0
C2056 C 0.11225 0.3204 0.50903 0.0
C2057 C 0.13819 0.30648 0.50717 0.0
C2058 C 0.15212 0.298 0.51594 0.0
C2059 C 0.14984 0.28353 0.52612 0.0
C2060 C 0.16306 0.2757 0.53447 0.0
C2061 C 0.17865 0.28216 0.53259 0.0
C2062 C 0.18104 0.29642 0.5223 0.0
C2063 C 0.16785 0.30431 0.51395 0.0
H2064 H 0.18887 0.27607 0.53906 0.0
H2065 H 0.06222 0.35424 0.45715 0.0
H2066 H 0.7312 0.11618 0.57435 0.0
H2067 H 0.72782 0.11933 0.5403 0.0
H2068 H 0.67861 0.13552 0.54867 0.0
H2069 H 0.68187 0.13224 0.58303 0.0
H2070 H 0.68139 0.11307 0.51977 0.0
H2071 H 0.70655 0.16286 0.5372 0.0
H2072 H 0.72661 0.18033 0.55314 0.0
H2073 H 0.76496 0.15807 0.52135 0.0
H2074 H 0.74517 0.1403 0.50542 0.0
H2075 H 0.68107 0.12984 0.41974 0.0
H2076 H 0.67803 0.1334 0.45404 0.0
H2077 H 0.72818 0.12006 0.46196 0.0
H2078 H 0.73135 0.11684 0.4279 0.0
H2079 H 0.72082 0.1457 0.48291 0.0
H2080 H 0.69656 0.09319 0.46978 0.0
H2081 H 0.67702 0.07481 0.45434 0.0
H2082 H 0.63744 0.1017 0.47825 0.0
H2083 H 0.65676 0.12036 0.49364 0.0
C2084 C 0.71965 0.12045 0.56899 0.0
C2085 C 0.70681 0.12403 0.58135 0.0
C2086 C 0.71777 0.12231 0.54953 0.0
C2087 C 0.70305 0.12789 0.542 0.0
C2088 C 0.69009 0.13128 0.55424 0.0
C2089 C 0.69198 0.12943 0.57382 0.0
C2090 C 0.70136 0.12984 0.52126 0.0
C2091 C 0.68975 0.12049 0.51169 0.0
C2092 C 0.71241 0.13938 0.51077 0.0
C2093 C 0.72436 0.15019 0.52017 0.0
C2094 C 0.71927 0.16162 0.53369 0.0
C2095 C 0.7306 0.17159 0.54271 0.0
C2096 C 0.74705 0.1703 0.53827 0.0
C2097 C 0.75221 0.15906 0.52477 0.0
C2098 C 0.74094 0.14906 0.51571 0.0
C2099 C 0.69143 0.12771 0.42884 0.0
C2100 C 0.70644 0.12304 0.42118 0.0
C2101 C 0.68967 0.1297 0.44841 0.0
C2102 C 0.70286 0.1269 0.46056 0.0
C2103 C 0.71785 0.12236 0.45285 0.0
C2104 C 0.71964 0.12046 0.43338 0.0
C2105 C 0.70126 0.12845 0.48138 0.0
C2106 C 0.71223 0.13853 0.49097 0.0
C2107 C 0.68968 0.11952 0.49186 0.0
C2108 C 0.67809 0.10828 0.48266 0.0
C2109 C 0.68368 0.09525 0.47162 0.0
C2110 C 0.67265 0.08477 0.4629 0.0
C2111 C 0.656 0.08712 0.46526 0.0
C2112 C 0.65034 0.09992 0.47639 0.0
C2113 C 0.66132 0.11045 0.48512 0.0
H2114 H 0.64748 0.07899 0.4585 0.0
H2115 H 0.7558 0.17802 0.54529 0.0
H2116 H 0.86046 0.68058 0.41407 0.0
H2117 H 0.85969 0.67237 0.44752 0.0
H2118 H 0.89472 0.70951 0.46092 0.0
H2119 H 0.89571 0.71752 0.42785 0.0
H2120 H 0.90181 0.68201 0.47898 0.0
H2121 H 0.85355 0.71503 0.46729 0.0
H2122 H 0.82745 0.72098 0.4517 0.0
H2123 H 0.80812 0.67577 0.47163 0.0
H2124 H 0.8342 0.66948 0.48716 0.0
H2125 H 0.89298 0.7175 0.5669 0.0
H2126 H 0.89258 0.71001 0.53358 0.0
H2127 H 0.86113 0.66964 0.54612 0.0
H2128 H 0.86152 0.6771 0.57984 0.0
H2129 H 0.85079 0.68899 0.51523 0.0
H2130 H 0.89829 0.66082 0.53448 0.0
H2131 H 0.92446 0.65707 0.55078 0.0
H2132 H 0.9456 0.69487 0.51711 0.0
H2133 H 0.91951 0.69905 0.50081 0.0
C2134 C 0.86805 0.68688 0.42419 0.0
C2135 C 0.87808 0.69973 0.4184 0.0
C2136 C 0.86759 0.6822 0.44325 0.0
C2137 C 0.87712 0.69037 0.45671 0.0
C2138 C 0.88734 0.70296 0.45078 0.0
C2139 C 0.88782 0.7076 0.43187 0.0
C2140 C 0.87616 0.6866 0.47718 0.0
C2141 C 0.89065 0.68343 0.48692 0.0
C2142 C 0.86149 0.6879 0.48747 0.0
C2143 C 0.84586 0.69169 0.47814 0.0
C2144 C 0.84377 0.70631 0.46821 0.0
C2145 C 0.82898 0.70975 0.45941 0.0
C2146 C 0.81615 0.69873 0.46061 0.0
C2147 C 0.81808 0.68427 0.47067 0.0
C2148 C 0.83286 0.68076 0.47946 0.0
C2149 C 0.88602 0.70698 0.56263 0.0
C2150 C 0.87727 0.69787 0.57595 0.0
C2151 C 0.88588 0.70266 0.5436 0.0
C2152 C 0.877 0.68915 0.53745 0.0
C2153 C 0.86815 0.68003 0.55065 0.0
C2154 C 0.86839 0.68429 0.56985 0.0
C2155 C 0.8766 0.68529 0.51702 0.0
C2156 C 0.86187 0.68697 0.50729 0.0
C2157 C 0.89109 0.68281 0.50674 0.0
C2158 C 0.90689 0.68026 0.51642 0.0
C2159 C 0.90848 0.6684 0.53061 0.0
C2160 C 0.92332 0.66619 0.53985 0.0
C2161 C 0.93668 0.67572 0.53497 0.0
C2162 C 0.93524 0.68748 0.52085 0.0
C2163 C 0.92044 0.68975 0.51158 0.0
H2164 H 0.94816 0.67397 0.54208 0.0
H2165 H 0.80471 0.70142 0.4538 0.0
H2166 H 0.31419 0.86381 0.58466 0.0
H2167 H 0.31786 0.85995 0.55046 0.0
H2168 H 0.27086 0.88126 0.54036 0.0
H2169 H 0.26704 0.88486 0.57425 0.0
H2170 H 0.27467 0.8544 0.51999 0.0
H2171 H 0.30671 0.90253 0.53408 0.0
H2172 H 0.32868 0.91743 0.55016 0.0
H2173 H 0.36379 0.88444 0.52715 0.0
H2174 H 0.34198 0.86923 0.51111 0.0
H2175 H 0.2699 0.88466 0.42869 0.0
H2176 H 0.27257 0.88137 0.46278 0.0
H2177 H 0.3192 0.85861 0.45513 0.0
H2178 H 0.31669 0.8621 0.4207 0.0
H2179 H 0.31934 0.88063 0.48434 0.0
H2180 H 0.28718 0.83548 0.46577 0.0
H2181 H 0.26502 0.82115 0.44944 0.0
H2182 H 0.2299 0.8485 0.48091 0.0
H2183 H 0.25186 0.86323 0.49719 0.0
C2184 C 0.30466 0.86764 0.5751 0.0
C2185 C 0.29033 0.87464 0.5821 0.0
C2186 C 0.30679 0.86547 0.55559 0.0
C2187 C 0.29466 0.87039 0.54286 0.0
C2188 C 0.28035 0.87731 0.54991 0.0
C2189 C 0.2782 0.87941 0.5693 0.0
C2190 C 0.29658 0.86847 0.52212 0.0
C2191 C 0.28441 0.86017 0.51219 0.0
C2192 C 0.30963 0.87546 0.512 0.0
C2193 C 0.32271 0.88463 0.5216 0.0
C2194 C 0.3191 0.89838 0.53258 0.0
C2195 C 0.33153 0.9069 0.54166 0.0
C2196 C 0.34761 0.90185 0.53973 0.0
C2197 C 0.35132 0.88831 0.52866 0.0
C2198 C 0.33893 0.87975 0.51957 0.0
C2199 C 0.28074 0.87894 0.43421 0.0
C2200 C 0.29305 0.87354 0.42202 0.0
C2201 C 0.28222 0.87701 0.45371 0.0
C2202 C 0.29595 0.86948 0.46146 0.0
C2203 C 0.30846 0.86435 0.4494 0.0
C2204 C 0.307 0.86633 0.42977 0.0
C2205 C 0.29702 0.86718 0.48222 0.0
C2206 C 0.30977 0.87458 0.49215 0.0
C2207 C 0.28447 0.85939 0.49239 0.0
C2208 C 0.27119 0.85051 0.48266 0.0
C2209 C 0.27473 0.83853 0.46912 0.0
C2210 C 0.2622 0.83032 0.45987 0.0
C2211 C 0.24605 0.8339 0.46414 0.0
C2212 C 0.24241 0.84572 0.47764 0.0
C2213 C 0.2549 0.85399 0.48689 0.0
H2214 H 0.23635 0.8275 0.45704 0.0
H2215 H 0.35722 0.90846 0.54677 0.0
H2216 H 0.11618 0.67439 0.41499 0.0
H2217 H 0.11917 0.66839 0.44888 0.0
H2218 H 0.13339 0.71793 0.4591 0.0
H2219 H 0.13028 0.72403 0.42549 0.0
H2220 H 0.15297 0.6948 0.47792 0.0
H2221 H 0.09595 0.7076 0.46716 0.0
H2222 H 0.06927 0.70334 0.45219 0.0
H2223 H 0.06788 0.6547 0.47379 0.0
H2224 H 0.09468 0.65863 0.48868 0.0
H2225 H 0.13438 0.72282 0.56806 0.0
H2226 H 0.13693 0.71643 0.53453 0.0
H2227 H 0.12 0.66779 0.54515 0.0
H2228 H 0.11746 0.67414 0.579 0.0
H2229 H 0.10376 0.68275 0.51577 0.0
H2230 H 0.15815 0.67224 0.53244 0.0
H2231 H 0.18463 0.67667 0.54777 0.0
H2232 H 0.19138 0.72022 0.51545 0.0
H2233 H 0.16482 0.7162 0.50013 0.0
C2234 C 0.12003 0.68394 0.42449 0.0
C2235 C 0.12291 0.69969 0.41768 0.0
C2236 C 0.12172 0.6805 0.44379 0.0
C2237 C 0.1265 0.69273 0.45643 0.0
C2238 C 0.12977 0.70833 0.44953 0.0
C2239 C 0.12789 0.71181 0.43036 0.0
C2240 C 0.12739 0.68973 0.47702 0.0
C2241 C 0.14225 0.69213 0.48625 0.0
C2242 C 0.11349 0.68567 0.48772 0.0
C2243 C 0.0974 0.68332 0.47879 0.0
C2244 C 0.09002 0.69595 0.46856 0.0
C2245 C 0.07487 0.69361 0.46012 0.0
C2246 C 0.06691 0.67874 0.46197 0.0
C2247 C 0.07408 0.6662 0.47232 0.0
C2248 C 0.08924 0.66847 0.48076 0.0
C2249 C 0.13136 0.71071 0.56332 0.0
C2250 C 0.12569 0.69898 0.5761 0.0
C2251 C 0.13291 0.70703 0.54417 0.0
C2252 C 0.12881 0.69158 0.5374 0.0
C2253 C 0.12332 0.67975 0.55015 0.0
C2254 C 0.1219 0.68338 0.56943 0.0
C2255 C 0.12925 0.68845 0.51678 0.0
C2256 C 0.11463 0.68492 0.5075 0.0
C2257 C 0.1434 0.69142 0.50603 0.0
C2258 C 0.15943 0.69394 0.51519 0.0
C2259 C 0.16522 0.68283 0.5287 0.0
C2260 C 0.18026 0.68525 0.53737 0.0
C2261 C 0.18967 0.69872 0.53261 0.0
C2262 C 0.18407 0.70978 0.51913 0.0
C2263 C 0.16903 0.70742 0.51041 0.0
H2264 H 0.20131 0.70058 0.53934 0.0
H2265 H 0.05517 0.67695 0.45544 0.0
H2266 H 0.32323 0.12722 0.4146 0.0
H2267 H 0.32975 0.13162 0.44812 0.0
H2268 H 0.27909 0.13982 0.45996 0.0
H2269 H 0.27258 0.13571 0.4267 0.0
H2270 H 0.29765 0.16058 0.47947 0.0
H2271 H 0.29695 0.10251 0.46634 0.0
H2272 H 0.30638 0.07775 0.45015 0.0
H2273 H 0.35469 0.086 0.4707 0.0
H2274 H 0.34555 0.11093 0.48682 0.0
H2275 H 0.27537 0.1334 0.56884 0.0
H2276 H 0.28055 0.13775 0.53529 0.0
H2277 H 0.33191 0.13217 0.54486 0.0
H2278 H 0.32678 0.12778 0.57875 0.0
H2279 H 0.32044 0.1138 0.51472 0.0
H2280 H 0.31847 0.16878 0.53426 0.0
H2281 H 0.30779 0.19266 0.55111 0.0
H2282 H 0.26364 0.18987 0.51906 0.0
H2283 H 0.27394 0.16582 0.5022 0.0
C2284 C 0.31355 0.13017 0.42435 0.0
C2285 C 0.29739 0.131 0.41809 0.0
C2286 C 0.31728 0.13264 0.44347 0.0
C2287 C 0.30488 0.1359 0.45656 0.0
C2288 C 0.28885 0.13737 0.45012 0.0
C2289 C 0.28514 0.13492 0.4311 0.0
C2290 C 0.30813 0.13675 0.47717 0.0
C2291 C 0.30268 0.15038 0.4872 0.0
C2292 C 0.31516 0.12365 0.48719 0.0
C2293 C 0.32062 0.10867 0.47755 0.0
C2294 C 0.3096 0.0991 0.46727 0.0
C2295 C 0.31489 0.08503 0.45814 0.0
C2296 C 0.33114 0.08034 0.45934 0.0
C2297 C 0.34212 0.08968 0.46974 0.0
C2298 C 0.3369 0.10377 0.47888 0.0
C2299 C 0.28779 0.1332 0.56387 0.0
C2300 C 0.30068 0.13024 0.5764 0.0
C2301 C 0.29074 0.13579 0.5447 0.0
C2302 C 0.30663 0.13549 0.53764 0.0
C2303 C 0.31957 0.13256 0.55009 0.0
C2304 C 0.31663 0.13008 0.56939 0.0
C2305 C 0.30933 0.13734 0.51704 0.0
C2306 C 0.31589 0.12422 0.50701 0.0
C2307 C 0.30321 0.15087 0.50703 0.0
C2308 C 0.29698 0.16544 0.517 0.0
C2309 C 0.30644 0.1732 0.53087 0.0
C2310 C 0.30046 0.18678 0.54042 0.0
C2311 C 0.28504 0.19277 0.53617 0.0
C2312 C 0.27558 0.18522 0.52233 0.0
C2313 C 0.28151 0.17163 0.51275 0.0
H2314 H 0.28042 0.20328 0.54358 0.0
H2315 H 0.33521 0.06944 0.45226 0.0
H2316 H 0.87344 0.2662 0.42379 0.0
H2317 H 0.87006 0.2712 0.45755 0.0
H2318 H 0.87311 0.32273 0.44782 0.0
H2319 H 0.87666 0.31778 0.41381 0.0
H2320 H 0.89203 0.31319 0.47739 0.0
H2321 H 0.8371 0.3064 0.459 0.0
H2322 H 0.81382 0.29355 0.44308 0.0
H2323 H 0.82048 0.25055 0.47643 0.0
H2324 H 0.84396 0.26305 0.49237 0.0
H2325 H 0.87469 0.32136 0.57686 0.0
H2326 H 0.87186 0.32472 0.54246 0.0
H2327 H 0.87042 0.27276 0.53576 0.0
H2328 H 0.8732 0.26934 0.56987 0.0
H2329 H 0.84743 0.288 0.51418 0.0
H2330 H 0.90493 0.29333 0.52809 0.0
H2331 H 0.92859 0.30583 0.54369 0.0
H2332 H 0.91682 0.35172 0.51847 0.0
H2333 H 0.89295 0.3395 0.50292 0.0
C2334 C 0.87331 0.27861 0.42879 0.0
C2335 C 0.87529 0.29161 0.41616 0.0
C2336 C 0.87128 0.28145 0.44809 0.0
C2337 C 0.8711 0.29735 0.45517 0.0
C2338 C 0.87312 0.31038 0.44262 0.0
C2339 C 0.87512 0.30754 0.42322 0.0
C2340 C 0.86947 0.30008 0.47581 0.0
C2341 C 0.88208 0.30803 0.48541 0.0
C2342 C 0.85656 0.29321 0.48627 0.0
C2343 C 0.84237 0.28565 0.47681 0.0
C2344 C 0.83367 0.29417 0.46286 0.0
C2345 C 0.82043 0.28695 0.45384 0.0
C2346 C 0.81568 0.27124 0.45872 0.0
C2347 C 0.82416 0.26272 0.47266 0.0
C2348 C 0.83743 0.26988 0.48172 0.0
C2349 C 0.87368 0.31069 0.56801 0.0
C2350 C 0.87425 0.29509 0.57601 0.0
C2351 C 0.87209 0.31262 0.54841 0.0
C2352 C 0.87101 0.29898 0.53658 0.0
C2353 C 0.87119 0.28344 0.54463 0.0
C2354 C 0.87287 0.28151 0.56413 0.0
C2355 C 0.87024 0.30061 0.51572 0.0
C2356 C 0.85718 0.29349 0.50611 0.0
C2357 C 0.88271 0.30824 0.50526 0.0
C2358 C 0.89706 0.31556 0.51456 0.0
C2359 C 0.90731 0.30611 0.52601 0.0
C2360 C 0.92077 0.31314 0.53482 0.0
C2361 C 0.92417 0.32957 0.53213 0.0
C2362 C 0.91415 0.339 0.52058 0.0
C2363 C 0.90066 0.33203 0.51177 0.0
H2364 H 0.9346 0.33499 0.53895 0.0
H2365 H 0.80543 0.26567 0.45172 0.0
H2366 H 0.67316 0.87922 0.57646 0.0
H2367 H 0.6684 0.87599 0.54238 0.0
H2368 H 0.71754 0.85897 0.53538 0.0
H2369 H 0.72247 0.86276 0.56908 0.0
H2370 H 0.71163 0.88094 0.51058 0.0
H2371 H 0.68315 0.83358 0.5326 0.0
H2372 H 0.66287 0.81858 0.55133 0.0
H2373 H 0.62455 0.8455 0.52477 0.0
H2374 H 0.64462 0.86082 0.50606 0.0
H2375 H 0.71294 0.84845 0.42061 0.0
H2376 H 0.70907 0.84702 0.45479 0.0
H2377 H 0.66712 0.87796 0.45034 0.0
H2378 H 0.67097 0.87959 0.41595 0.0
H2379 H 0.66678 0.85034 0.48026 0.0
H2380 H 0.69651 0.89767 0.4584 0.0
H2381 H 0.71744 0.91094 0.43889 0.0
H2382 H 0.7543 0.8821 0.46552 0.0
H2383 H 0.73353 0.86844 0.48495 0.0
C2384 C 0.68286 0.87467 0.56761 0.0
C2385 C 0.69821 0.87137 0.57532 0.0
C2386 C 0.68012 0.87275 0.54819 0.0
C2387 C 0.6926 0.86717 0.53631 0.0
C2388 C 0.70775 0.86339 0.54421 0.0
C2389 C 0.71056 0.86555 0.56348 0.0
C2390 C 0.69043 0.8662 0.51549 0.0
C2391 C 0.70187 0.87411 0.50406 0.0
C2392 C 0.67747 0.85767 0.50686 0.0
C2393 C 0.66539 0.84848 0.51809 0.0
C2394 C 0.6704 0.8364 0.53088 0.0
C2395 C 0.65895 0.82782 0.54146 0.0
C2396 C 0.64244 0.83112 0.53928 0.0
C2397 C 0.63734 0.84298 0.52647 0.0
C2398 C 0.64875 0.85161 0.51586 0.0
C2399 C 0.70263 0.85462 0.4268 0.0
C2400 C 0.69239 0.86434 0.41567 0.0
C2401 C 0.70041 0.85373 0.44632 0.0
C2402 C 0.6879 0.86249 0.455 0.0
C2403 C 0.6768 0.87108 0.4438 0.0
C2404 C 0.67907 0.87206 0.42421 0.0
C2405 C 0.68818 0.86472 0.47572 0.0
C2406 C 0.67641 0.8572 0.48699 0.0
C2407 C 0.70091 0.87348 0.48433 0.0
C2408 C 0.71346 0.88194 0.47299 0.0
C2409 C 0.70906 0.89408 0.45999 0.0
C2410 C 0.7209 0.90168 0.44896 0.0
C2411 C 0.73719 0.89734 0.45093 0.0
C2412 C 0.74168 0.88543 0.46399 0.0
C2413 C 0.72988 0.87777 0.47502 0.0
H2414 H 0.74633 0.90323 0.44238 0.0
H2415 H 0.63359 0.82446 0.54749 0.0
H2416 H 0.62947 0.7711 0.07043 0.0
H2417 H 0.63404 0.77656 0.03696 0.0
H2418 H 0.62965 0.82791 0.04727 0.0
H2419 H 0.62511 0.8225 0.08107 0.0
H2420 H 0.61072 0.81663 0.01686 0.0
H2421 H 0.66572 0.81436 0.03677 0.0
H2422 H 0.68945 0.80336 0.05367 0.0
H2423 H 0.68656 0.75956 0.02103 0.0
H2424 H 0.66266 0.77019 0.00411 0.0
H2425 H 0.62773 0.82306 0.91737 0.0
H2426 H 0.63078 0.8279 0.95148 0.0
H2427 H 0.63584 0.77646 0.96081 0.0
H2428 H 0.63278 0.77156 0.92695 0.0
H2429 H 0.65775 0.79435 0.98164 0.0
H2430 H 0.60013 0.79386 0.96747 0.0
H2431 H 0.57541 0.80335 0.95121 0.0
H2432 H 0.58276 0.85122 0.97349 0.0
H2433 H 0.60765 0.84203 0.9897 0.0
C2434 C 0.62959 0.78357 0.06563 0.0
C2435 C 0.62692 0.79638 0.07832 0.0
C2436 C 0.63229 0.78667 0.04653 0.0
C2437 C 0.63235 0.80264 0.03971 0.0
C2438 C 0.62974 0.81552 0.05233 0.0
C2439 C 0.62719 0.81241 0.07157 0.0
C2440 C 0.63428 0.80553 0.01919 0.0
C2441 C 0.6212 0.8122 0.00916 0.0
C2442 C 0.64785 0.79948 0.0092 0.0
C2443 C 0.66234 0.79306 0.01921 0.0
C2444 C 0.67008 0.80234 0.03327 0.0
C2445 C 0.68357 0.79618 0.04284 0.0
C2446 C 0.6895 0.78077 0.03844 0.0
C2447 C 0.68196 0.7715 0.02442 0.0
C2448 C 0.66845 0.7776 0.0148 0.0
C2449 C 0.62964 0.81283 0.92672 0.0
C2450 C 0.62992 0.79693 0.91958 0.0
C2451 C 0.63136 0.8156 0.94615 0.0
C2452 C 0.63347 0.80252 0.95862 0.0
C2453 C 0.63428 0.78672 0.9514 0.0
C2454 C 0.63244 0.78393 0.93207 0.0
C2455 C 0.63399 0.80498 0.97934 0.0
C2456 C 0.64751 0.79927 0.98937 0.0
C2457 C 0.62078 0.81179 0.98932 0.0
C2458 C 0.60586 0.81732 0.97957 0.0
C2459 C 0.59655 0.80644 0.96875 0.0
C2460 C 0.5825 0.81175 0.95958 0.0
C2461 C 0.57755 0.82789 0.96126 0.0
C2462 C 0.58663 0.83873 0.97216 0.0
C2463 C 0.60071 0.83348 0.98135 0.0
H2464 H 0.56666 0.83198 0.95416 0.0
H2465 H 0.69994 0.77602 0.04588 0.0
H2466 H 0.18057 0.63012 0.91496 0.0
H2467 H 0.17598 0.63091 0.94931 0.0
H2468 H 0.22698 0.62255 0.9588 0.0
H2469 H 0.23159 0.6216 0.92479 0.0
H2470 H 0.20832 0.60195 0.97889 0.0
H2471 H 0.2101 0.65963 0.96562 0.0
H2472 H 0.201 0.6848 0.95007 0.0
H2473 H 0.15344 0.67862 0.97367 0.0
H2474 H 0.16221 0.65328 0.98916 0.0
H2475 H 0.22862 0.62148 0.07111 0.0
H2476 H 0.22517 0.62265 0.03691 0.0
H2477 H 0.17352 0.62816 0.04391 0.0
H2478 H 0.1769 0.62709 0.07847 0.0
H2479 H 0.18687 0.64853 0.01557 0.0
H2480 H 0.18666 0.59243 0.03224 0.0
H2481 H 0.19633 0.56748 0.04782 0.0
H2482 H 0.24132 0.5707 0.01751 0.0
H2483 H 0.23204 0.59582 0.00201 0.0
C2484 C 0.19079 0.62859 0.92442 0.0
C2485 C 0.20642 0.62571 0.91723 0.0
C2486 C 0.18816 0.62908 0.944 0.0
C2487 C 0.20115 0.62676 0.95657 0.0
C2488 C 0.21678 0.62427 0.94934 0.0
C2489 C 0.2194 0.62377 0.92989 0.0
C2490 C 0.19864 0.62615 0.9773 0.0
C2491 C 0.20369 0.61217 0.98691 0.0
C2492 C 0.19202 0.63925 0.98766 0.0
C2493 C 0.18675 0.65446 0.97834 0.0
C2494 C 0.19766 0.66355 0.96734 0.0
C2495 C 0.19257 0.67787 0.95857 0.0
C2496 C 0.17663 0.68327 0.96082 0.0
C2497 C 0.16577 0.6744 0.9719 0.0
C2498 C 0.17079 0.66007 0.98069 0.0
C2499 C 0.21651 0.62304 0.06543 0.0
C2500 C 0.203 0.62405 0.07745 0.0
C2501 C 0.21457 0.62367 0.04588 0.0
C2502 C 0.19907 0.62524 0.03791 0.0
C2503 C 0.18557 0.62688 0.04983 0.0
C2504 C 0.18751 0.62623 0.06951 0.0
C2505 C 0.19721 0.62459 0.01711 0.0
C2506 C 0.19124 0.63823 0.0075 0.0
C2507 C 0.20303 0.61118 0.00666 0.0
C2508 C 0.20867 0.59607 0.01603 0.0
C2509 C 0.19866 0.58789 0.02901 0.0
C2510 C 0.20407 0.57371 0.03781 0.0
C2511 C 0.21943 0.56752 0.03365 0.0
C2512 C 0.22942 0.57551 0.02071 0.0
C2513 C 0.22409 0.58971 0.0119 0.0
H2514 H 0.22359 0.55651 0.04039 0.0
H2515 H 0.17272 0.69436 0.95403 0.0
H2516 H 0.3722 0.17537 0.08034 0.0
H2517 H 0.36862 0.17103 0.04619 0.0
H2518 H 0.36569 0.22274 0.03769 0.0
H2519 H 0.36922 0.22713 0.07156 0.0
H2520 H 0.34261 0.20624 0.01732 0.0
H2521 H 0.40055 0.20307 0.02995 0.0
H2522 H 0.42486 0.19163 0.04531 0.0
H2523 H 0.41404 0.14486 0.02181 0.0
H2524 H 0.38953 0.156 0.00651 0.0
H2525 H 0.36821 0.22853 0.92711 0.0
H2526 H 0.36458 0.22328 0.96078 0.0
H2527 H 0.3684 0.17185 0.95068 0.0
H2528 H 0.37212 0.17706 0.91672 0.0
H2529 H 0.38753 0.18197 0.98022 0.0
H2530 H 0.33234 0.18695 0.96237 0.0
H2531 H 0.30853 0.19893 0.94658 0.0
H2532 H 0.314 0.24232 0.97952 0.0
H2533 H 0.338 0.2307 0.99532 0.0
C2534 C 0.37068 0.18577 0.07116 0.0
C2535 C 0.37107 0.20158 0.07856 0.0
C2536 C 0.36866 0.18328 0.0517 0.0
C2537 C 0.36695 0.19658 0.03944 0.0
C2538 C 0.36693 0.21232 0.04692 0.0
C2539 C 0.36904 0.21481 0.06626 0.0
C2540 C 0.36584 0.1944 0.01868 0.0
C2541 C 0.3524 0.20092 0.00918 0.0
C2542 C 0.37839 0.18698 0.00815 0.0
C2543 C 0.39311 0.18031 0.01731 0.0
C2544 C 0.40328 0.19032 0.02821 0.0
C2545 C 0.41711 0.1839 0.03687 0.0
C2546 C 0.42096 0.16752 0.03459 0.0
C2547 C 0.41102 0.15754 0.0236 0.0
C2548 C 0.39716 0.1639 0.01493 0.0
C2549 C 0.36816 0.21609 0.932 0.0
C2550 C 0.37044 0.2032 0.9193 0.0
C2551 C 0.36599 0.2131 0.95124 0.0
C2552 C 0.36602 0.19716 0.95819 0.0
C2553 C 0.36825 0.18422 0.94556 0.0
C2554 C 0.37034 0.18721 0.92621 0.0
C2555 C 0.36455 0.19434 0.97881 0.0
C2556 C 0.37749 0.18688 0.98832 0.0
C2557 C 0.35154 0.20092 0.98936 0.0
C2558 C 0.33704 0.20796 0.97998 0.0
C2559 C 0.32854 0.19909 0.96616 0.0
C2560 C 0.31499 0.20581 0.95722 0.0
C2561 C 0.30977 0.22138 0.96203 0.0
C2562 C 0.31806 0.23025 0.97582 0.0
C2563 C 0.33162 0.22359 0.9848 0.0
H2564 H 0.29928 0.22657 0.95508 0.0
H2565 H 0.43167 0.16257 0.0413 0.0
H2566 H 0.82035 0.36604 0.07946 0.0
H2567 H 0.82309 0.36288 0.04506 0.0
H2568 H 0.77303 0.37681 0.03788 0.0
H2569 H 0.77018 0.37977 0.07201 0.0
H2570 H 0.78028 0.35107 0.01642 0.0
H2571 H 0.80395 0.40356 0.03013 0.0
H2572 H 0.82325 0.42211 0.0457 0.0
H2573 H 0.86316 0.39611 0.02123 0.0
H2574 H 0.84409 0.37728 0.00569 0.0
H2575 H 0.76929 0.38159 0.92544 0.0
H2576 H 0.77278 0.37793 0.95939 0.0
H2577 H 0.82215 0.36244 0.95053 0.0
H2578 H 0.81877 0.36625 0.91625 0.0
H2579 H 0.81926 0.38442 0.97978 0.0
H2580 H 0.79413 0.33472 0.96153 0.0
H2581 H 0.77397 0.31736 0.94561 0.0
H2582 H 0.73591 0.33892 0.9785 0.0
H2583 H 0.75579 0.3566 0.9944 0.0
C2584 C 0.80994 0.36838 0.0705 0.0
C2585 C 0.79506 0.37319 0.07839 0.0
C2586 C 0.81154 0.36661 0.05088 0.0
C2587 C 0.79828 0.3697 0.03891 0.0
C2588 C 0.7834 0.37431 0.04685 0.0
C2589 C 0.7818 0.37606 0.06637 0.0
C2590 C 0.79973 0.36841 0.01806 0.0
C2591 C 0.78878 0.35838 0.00839 0.0
C2592 C 0.81116 0.37758 0.00764 0.0
C2593 C 0.82261 0.3889 0.01695 0.0
C2594 C 0.81685 0.40172 0.0282 0.0
C2595 C 0.82774 0.4123 0.037 0.0
C2596 C 0.84442 0.41025 0.03452 0.0
C2597 C 0.85024 0.39765 0.02318 0.0
C2598 C 0.8394 0.38703 0.01437 0.0
C2599 C 0.7809 0.37737 0.93066 0.0
C2600 C 0.79375 0.37415 0.91819 0.0
C2601 C 0.78284 0.3752 0.95008 0.0
C2602 C 0.79764 0.36967 0.95745 0.0
C2603 C 0.8106 0.36662 0.94508 0.0
C2604 C 0.80865 0.36878 0.92555 0.0
C2605 C 0.79942 0.36749 0.97815 0.0
C2606 C 0.811 0.37683 0.98779 0.0
C2607 C 0.78847 0.35776 0.98857 0.0
C2608 C 0.77647 0.34705 0.97911 0.0
C2609 C 0.78145 0.33584 0.96528 0.0
C2610 C 0.77007 0.32593 0.95627 0.0
C2611 C 0.75367 0.32704 0.96104 0.0
C2612 C 0.74862 0.33806 0.97483 0.0
C2613 C 0.75994 0.34802 0.98387 0.0
H2614 H 0.74487 0.31935 0.95409 0.0
H2615 H 0.85284 0.41846 0.04133 0.0
H2616 H 0.62926 0.17965 0.08344 0.0
H2617 H 0.62981 0.1747 0.04915 0.0
H2618 H 0.61715 0.22471 0.03909 0.0
H2619 H 0.61641 0.22966 0.07304 0.0
H2620 H 0.59855 0.20453 0.01861 0.0
H2621 H 0.65588 0.21071 0.03321 0.0
H2622 H 0.68134 0.20341 0.04943 0.0
H2623 H 0.67884 0.15546 0.02597 0.0
H2624 H 0.65323 0.16243 0.0098 0.0
H2625 H 0.61976 0.22863 0.92838 0.0
H2626 H 0.62013 0.22406 0.96243 0.0
H2627 H 0.62812 0.17299 0.9533 0.0
H2628 H 0.62777 0.17749 0.91888 0.0
H2629 H 0.64747 0.18714 0.98315 0.0
H2630 H 0.5921 0.18276 0.96457 0.0
H2631 H 0.56716 0.19079 0.94776 0.0
H2632 H 0.566 0.23559 0.97866 0.0
H2633 H 0.59109 0.22794 0.99544 0.0
C2634 C 0.62668 0.18957 0.07386 0.0
C2635 C 0.62276 0.20503 0.08089 0.0
C2636 C 0.62702 0.18674 0.05432 0.0
C2637 C 0.62352 0.19935 0.04159 0.0
C2638 C 0.61979 0.21479 0.04866 0.0
C2639 C 0.61943 0.21761 0.06808 0.0
C2640 C 0.62339 0.19671 0.02086 0.0
C2641 C 0.60925 0.20074 0.01087 0.0
C2642 C 0.63717 0.19119 0.01081 0.0
C2643 C 0.65255 0.18702 0.02051 0.0
C2644 C 0.66069 0.19857 0.03165 0.0
C2645 C 0.67516 0.1945 0.0408 0.0
C2646 C 0.68168 0.17896 0.03878 0.0
C2647 C 0.67376 0.16747 0.02756 0.0
C2648 C 0.65927 0.17148 0.0184 0.0
C2649 C 0.6217 0.21643 0.93356 0.0
C2650 C 0.62361 0.20339 0.92098 0.0
C2651 C 0.62189 0.21384 0.95302 0.0
C2652 C 0.62394 0.19817 0.96032 0.0
C2653 C 0.62646 0.18516 0.94788 0.0
C2654 C 0.62622 0.18774 0.92828 0.0
C2655 C 0.62285 0.19563 0.981 0.0
C2656 C 0.63667 0.19057 0.99095 0.0
C2657 C 0.60877 0.20022 0.99107 0.0
C2658 C 0.59354 0.2048 0.9812 0.0
C2659 C 0.58659 0.19437 0.9677 0.0
C2660 C 0.57241 0.19885 0.95818 0.0
C2661 C 0.56501 0.2137 0.96213 0.0
C2662 C 0.57175 0.22408 0.97562 0.0
C2663 C 0.58593 0.21967 0.98516 0.0
H2664 H 0.55404 0.21715 0.95474 0.0
H2665 H 0.69288 0.17583 0.04587 0.0
H2666 H 0.77762 0.61088 0.07007 0.0
H2667 H 0.78466 0.61168 0.03668 0.0
H2668 H 0.82925 0.63652 0.04993 0.0
H2669 H 0.82222 0.63578 0.0838 0.0
H2670 H 0.81202 0.64992 0.0187 0.0
H2671 H 0.83284 0.59902 0.03774 0.0
H2672 H 0.83304 0.57264 0.05411 0.0
H2673 H 0.79248 0.55684 0.02077 0.0
H2674 H 0.79185 0.58323 0.00439 0.0
H2675 H 0.82381 0.63535 0.9177 0.0
H2676 H 0.82987 0.63615 0.95179 0.0
H2677 H 0.7846 0.61195 0.96342 0.0
H2678 H 0.77845 0.61123 0.9297 0.0
H2679 H 0.81119 0.59842 0.98242 0.0
H2680 H 0.78731 0.65154 0.96922 0.0
H2681 H 0.78663 0.67814 0.95331 0.0
H2682 H 0.83364 0.68951 0.97584 0.0
H2683 H 0.83468 0.66285 0.99169 0.0
C2684 C 0.78894 0.61654 0.06596 0.0
C2685 C 0.79941 0.62321 0.07956 0.0
C2686 C 0.79297 0.61692 0.04686 0.0
C2687 C 0.80758 0.62394 0.04089 0.0
C2688 C 0.81797 0.63096 0.05432 0.0
C2689 C 0.81396 0.63051 0.0736 0.0
C2690 C 0.81156 0.62385 0.02048 0.0
C2691 C 0.81232 0.63866 0.01077 0.0
C2692 C 0.8119 0.60915 0.01018 0.0
C2693 C 0.81228 0.59316 0.01987 0.0
C2694 C 0.8239 0.58997 0.03397 0.0
C2695 C 0.82409 0.575 0.04324 0.0
C2696 C 0.81278 0.56308 0.03849 0.0
C2697 C 0.80125 0.56609 0.02442 0.0
C2698 C 0.80099 0.58104 0.01511 0.0
C2699 C 0.81518 0.63023 0.92758 0.0
C2700 C 0.80064 0.62325 0.92109 0.0
C2701 C 0.81865 0.6307 0.94698 0.0
C2702 C 0.80768 0.62408 0.96005 0.0
C2703 C 0.79325 0.61705 0.95353 0.0
C2704 C 0.78972 0.61672 0.93427 0.0
C2705 C 0.81085 0.62446 0.98065 0.0
C2706 C 0.81145 0.60966 0.99038 0.0
C2707 C 0.81183 0.63915 0.99091 0.0
C2708 C 0.81117 0.65514 0.98141 0.0
C2709 C 0.79756 0.65965 0.97063 0.0
C2710 C 0.7971 0.67475 0.96166 0.0
C2711 C 0.81011 0.68548 0.9635 0.0
C2712 C 0.82359 0.68116 0.97438 0.0
C2713 C 0.82412 0.66607 0.98336 0.0
H2714 H 0.80972 0.69717 0.95655 0.0
H2715 H 0.81295 0.5515 0.04569 0.0
H2716 H 0.37925 0.76841 0.92712 0.0
H2717 H 0.37502 0.77111 0.96108 0.0
H2718 H 0.36336 0.82172 0.95387 0.0
H2719 H 0.36781 0.81914 0.91962 0.0
H2720 H 0.38437 0.81639 0.9835 0.0
H2721 H 0.33334 0.79528 0.96292 0.0
H2722 H 0.31549 0.77667 0.94526 0.0
H2723 H 0.33408 0.73635 0.97699 0.0
H2724 H 0.3522 0.75469 0.99467 0.0
H2725 H 0.36478 0.81696 0.08235 0.0
H2726 H 0.36186 0.82044 0.04802 0.0
H2727 H 0.3716 0.76952 0.03989 0.0
H2728 H 0.37424 0.76593 0.07397 0.0
H2729 H 0.34739 0.77906 0.01765 0.0
H2730 H 0.40114 0.79834 0.03368 0.0
H2731 H 0.42082 0.81569 0.05044 0.0
H2732 H 0.39846 0.85815 0.02686 0.0
H2733 H 0.37853 0.84104 0.01012 0.0
C2734 C 0.37574 0.78012 0.93271 0.0
C2735 C 0.37381 0.79356 0.92072 0.0
C2736 C 0.37325 0.78162 0.95212 0.0
C2737 C 0.36862 0.79655 0.95994 0.0
C2738 C 0.36683 0.81007 0.94806 0.0
C2739 C 0.36934 0.80857 0.92855 0.0
C2740 C 0.3661 0.7979 0.98063 0.0
C2741 C 0.376 0.80852 0.99097 0.0
C2742 C 0.35538 0.78741 0.99034 0.0
C2743 C 0.34418 0.77637 0.98007 0.0
C2744 C 0.33366 0.78244 0.96609 0.0
C2745 C 0.3235 0.77193 0.95607 0.0
C2746 C 0.32366 0.75533 0.95998 0.0
C2747 C 0.33395 0.74921 0.97398 0.0
C2748 C 0.34415 0.75967 0.98403 0.0
C2749 C 0.36618 0.80651 0.07321 0.0
C2750 C 0.3698 0.79119 0.08081 0.0
C2751 C 0.36456 0.80852 0.05363 0.0
C2752 C 0.36664 0.79526 0.04139 0.0
C2753 C 0.36989 0.77991 0.04905 0.0
C2754 C 0.37147 0.7779 0.06854 0.0
C2755 C 0.36599 0.79722 0.02055 0.0
C2756 C 0.35548 0.78721 0.01018 0.0
C2757 C 0.37626 0.80815 0.01082 0.0
C2758 C 0.38823 0.81844 0.02086 0.0
C2759 C 0.40034 0.81139 0.0322 0.0
C2760 C 0.41156 0.82117 0.04167 0.0
C2761 C 0.41085 0.83802 0.03977 0.0
C2762 C 0.39897 0.84511 0.02835 0.0
C2763 C 0.38771 0.83537 0.01887 0.0
H2764 H 0.41955 0.84558 0.04711 0.0
H2765 H 0.31582 0.74721 0.95218 0.0
H2766 H 0.22729 0.37677 0.92887 0.0
H2767 H 0.22361 0.37216 0.96261 0.0
H2768 H 0.173 0.36155 0.95336 0.0
H2769 H 0.17658 0.3664 0.91928 0.0
H2770 H 0.17776 0.38187 0.98359 0.0
H2771 H 0.19841 0.33088 0.96335 0.0
H2772 H 0.21679 0.31252 0.94611 0.0
H2773 H 0.25713 0.33002 0.97864 0.0
H2774 H 0.23904 0.34865 0.99591 0.0
H2775 H 0.17806 0.36376 0.08333 0.0
H2776 H 0.17392 0.35997 0.04918 0.0
H2777 H 0.22457 0.37 0.0394 0.0
H2778 H 0.2288 0.37356 0.07324 0.0
H2779 H 0.21461 0.34482 0.01843 0.0
H2780 H 0.19526 0.3991 0.03347 0.0
H2781 H 0.17766 0.41871 0.04995 0.0
H2782 H 0.13546 0.39552 0.02681 0.0
H2783 H 0.15284 0.37563 0.01037 0.0
C2784 C 0.21537 0.37341 0.93395 0.0
C2785 C 0.20223 0.37189 0.92143 0.0
C2786 C 0.2133 0.37069 0.95325 0.0
C2787 C 0.1981 0.36623 0.96045 0.0
C2788 C 0.18486 0.36487 0.94804 0.0
C2789 C 0.18693 0.36762 0.92863 0.0
C2790 C 0.19621 0.36351 0.98106 0.0
C2791 C 0.18551 0.37347 0.9912 0.0
C2792 C 0.20644 0.35266 0.99096 0.0
C2793 C 0.21735 0.34122 0.98089 0.0
C2794 C 0.21121 0.33087 0.96678 0.0
C2795 C 0.22158 0.32041 0.957 0.0
C2796 C 0.23812 0.32012 0.96126 0.0
C2797 C 0.24431 0.33025 0.97536 0.0
C2798 C 0.234 0.34074 0.98518 0.0
C2799 C 0.1883 0.36504 0.07386 0.0
C2800 C 0.20373 0.36903 0.08092 0.0
C2801 C 0.18592 0.36291 0.05439 0.0
C2802 C 0.19893 0.3648 0.04175 0.0
C2803 C 0.21437 0.36842 0.04889 0.0
C2804 C 0.21675 0.37053 0.06825 0.0
C2805 C 0.19664 0.36363 0.02098 0.0
C2806 C 0.20654 0.3529 0.0108 0.0
C2807 C 0.18573 0.37381 0.01106 0.0
C2808 C 0.17532 0.38577 0.02091 0.0
C2809 C 0.18222 0.39811 0.03203 0.0
C2810 C 0.17229 0.40928 0.04133 0.0
C2811 C 0.15545 0.40833 0.03948 0.0
C2812 C 0.14851 0.39622 0.02827 0.0
C2813 C 0.15839 0.385 0.01895 0.0
H2814 H 0.14778 0.41699 0.04669 0.0
H2815 H 0.24614 0.31204 0.95365 0.0
H2816 H 0.20087 0.38351 0.20475 0.0
H2817 H 0.18793 0.37506 0.23418 0.0
H2818 H 0.15313 0.34699 0.20248 0.0
H2819 H 0.16622 0.35522 0.17287 0.0
H2820 H 0.15824 0.37694 0.25018 0.0
H2821 H 0.14777 0.31121 0.22576 0.0
H2822 H 0.15839 0.29184 0.20221 0.0
H2823 H 0.20454 0.31593 0.20315 0.0
H2824 H 0.19425 0.33528 0.22689 0.0
H2825 H 0.11438 0.33044 0.31979 0.0
H2826 H 0.12385 0.34464 0.29141 0.0
H2827 H 0.17046 0.32132 0.29672 0.0
H2828 H 0.16104 0.30699 0.32487 0.0
H2829 H 0.15848 0.31765 0.26199 0.0
H2830 H 0.16603 0.36144 0.30581 0.0
H2831 H 0.1579 0.38098 0.33045 0.0
H2832 H 0.12199 0.40097 0.29312 0.0
H2833 H 0.12977 0.38139 0.26834 0.0
C2834 C 0.19033 0.3757 0.20401 0.0
C2835 C 0.18467 0.36984 0.18653 0.0
C2836 C 0.1829 0.37096 0.22085 0.0
C2837 C 0.1697 0.36026 0.22052 0.0
C2838 C 0.16343 0.35511 0.20303 0.0
C2839 C 0.1709 0.35983 0.18614 0.0
C2840 C 0.16355 0.35341 0.2385 0.0
C2841 C 0.15815 0.36397 0.25275 0.0
C2842 C 0.16376 0.33652 0.24195 0.0
C2843 C 0.17017 0.32479 0.22792 0.0
C2844 C 0.16019 0.31233 0.22098 0.0
C2845 C 0.16616 0.30136 0.2076 0.0
C2846 C 0.18211 0.30269 0.20114 0.0
C2847 C 0.19216 0.31495 0.20811 0.0
C2848 C 0.18627 0.32592 0.22152 0.0
C2849 C 0.12674 0.32858 0.31508 0.0
C2850 C 0.13696 0.31756 0.32447 0.0
C2851 C 0.13213 0.3367 0.29889 0.0
C2852 C 0.14784 0.33398 0.29194 0.0
C2853 C 0.15825 0.3235 0.30178 0.0
C2854 C 0.15288 0.31538 0.31791 0.0
C2855 C 0.15315 0.34116 0.27376 0.0
C2856 C 0.15837 0.33061 0.25942 0.0
C2857 C 0.15307 0.35806 0.27042 0.0
C2858 C 0.14836 0.36983 0.2853 0.0
C2859 C 0.1563 0.36991 0.30292 0.0
C2860 C 0.15178 0.38101 0.31689 0.0
C2861 C 0.1394 0.39218 0.31337 0.0
C2862 C 0.13156 0.39229 0.29584 0.0
C2863 C 0.13603 0.38121 0.28182 0.0
H2864 H 0.13592 0.40077 0.32421 0.0
H2865 H 0.1867 0.29421 0.19076 0.0
H2866 H 0.64007 0.16673 0.17117 0.0
H2867 H 0.6493 0.15253 0.1997 0.0
H2868 H 0.63218 0.19213 0.23419 0.0
H2869 H 0.62298 0.20636 0.20586 0.0
H2870 H 0.66326 0.18334 0.2428 0.0
H2871 H 0.61174 0.15728 0.23354 0.0
H2872 H 0.59092 0.14228 0.21563 0.0
H2873 H 0.62379 0.10239 0.20852 0.0
H2874 H 0.6449 0.11725 0.22616 0.0
H2875 H 0.67124 0.14828 0.33313 0.0
H2876 H 0.65791 0.15918 0.3049 0.0
H2877 H 0.67837 0.12065 0.27127 0.0
H2878 H 0.69186 0.10975 0.29941 0.0
H2879 H 0.64554 0.12826 0.26208 0.0
H2880 H 0.69717 0.15413 0.27007 0.0
H2881 H 0.71855 0.16891 0.28733 0.0
H2882 H 0.68608 0.20888 0.29608 0.0
H2883 H 0.66442 0.19425 0.27907 0.0
C2884 C 0.63817 0.17233 0.18486 0.0
C2885 C 0.63084 0.18765 0.18631 0.0
C2886 C 0.6434 0.1642 0.20112 0.0
C2887 C 0.64135 0.17127 0.21903 0.0
C2888 C 0.63387 0.18648 0.22049 0.0
C2889 C 0.62859 0.19456 0.20429 0.0
C2890 C 0.6476 0.16319 0.23625 0.0
C2891 C 0.65921 0.17139 0.24716 0.0
C2892 C 0.64264 0.14743 0.24159 0.0
C2893 C 0.62996 0.13845 0.231 0.0
C2894 C 0.61458 0.14537 0.22801 0.0
C2895 C 0.60271 0.13688 0.21794 0.0
C2896 C 0.60604 0.12141 0.2109 0.0
C2897 C 0.62123 0.11438 0.21396 0.0
C2898 C 0.63315 0.12283 0.22401 0.0
C2899 C 0.67267 0.14197 0.31979 0.0
C2900 C 0.68266 0.12825 0.3184 0.0
C2901 C 0.6651 0.14823 0.3037 0.0
C2902 C 0.66733 0.14079 0.28604 0.0
C2903 C 0.67654 0.12655 0.2848 0.0
C2904 C 0.68426 0.12039 0.30086 0.0
C2905 C 0.66101 0.14851 0.26868 0.0
C2906 C 0.6495 0.14023 0.25772 0.0
C2907 C 0.66612 0.16418 0.26319 0.0
C2908 C 0.67911 0.17301 0.27349 0.0
C2909 C 0.69453 0.16601 0.27584 0.0
C2910 C 0.70672 0.17437 0.28554 0.0
C2911 C 0.70366 0.1898 0.29285 0.0
C2912 C 0.68842 0.19691 0.29043 0.0
C2913 C 0.67619 0.1886 0.28075 0.0
H2914 H 0.71312 0.19626 0.30034 0.0
H2915 H 0.59684 0.11486 0.20311 0.0
H2916 H 0.78803 0.62634 0.20354 0.0
H2917 H 0.79992 0.63588 0.23315 0.0
H2918 H 0.84493 0.64585 0.2044 0.0
H2919 H 0.83303 0.6364 0.1745 0.0
H2920 H 0.84826 0.63025 0.24087 0.0
H2921 H 0.82246 0.67616 0.21189 0.0
H2922 H 0.79996 0.69085 0.19661 0.0
H2923 H 0.77055 0.6841 0.2461 0.0
H2924 H 0.79283 0.66914 0.26159 0.0
H2925 H 0.88418 0.68559 0.30507 0.0
H2926 H 0.87305 0.67092 0.27808 0.0
H2927 H 0.82665 0.66805 0.30607 0.0
H2928 H 0.83771 0.68302 0.33312 0.0
H2929 H 0.82357 0.67886 0.27057 0.0
H2930 H 0.85027 0.63431 0.30048 0.0
H2931 H 0.87294 0.61968 0.31551 0.0
H2932 H 0.9008 0.62378 0.26443 0.0
H2933 H 0.87838 0.63864 0.24915 0.0
C2934 C 0.80051 0.63044 0.20352 0.0
C2935 C 0.8096 0.63073 0.18671 0.0
C2936 C 0.80726 0.63589 0.22044 0.0
C2937 C 0.82323 0.64164 0.22087 0.0
C2938 C 0.83257 0.64143 0.20428 0.0
C2939 C 0.82575 0.63611 0.18725 0.0
C2940 C 0.82984 0.64861 0.23851 0.0
C2941 C 0.84302 0.64098 0.24731 0.0
C2942 C 0.82267 0.66235 0.24704 0.0
C2943 C 0.80925 0.67138 0.23782 0.0
C2944 C 0.81114 0.67767 0.21945 0.0
C2945 C 0.79844 0.68607 0.21076 0.0
C2946 C 0.78382 0.68838 0.22036 0.0
C2947 C 0.78188 0.68229 0.23868 0.0
C2948 C 0.79454 0.67386 0.24742 0.0
C2949 C 0.87166 0.68167 0.3056 0.0
C2950 C 0.86179 0.68548 0.32117 0.0
C2951 C 0.86534 0.6732 0.29019 0.0
C2952 C 0.84906 0.66827 0.29013 0.0
C2953 C 0.83926 0.67173 0.30587 0.0
C2954 C 0.84559 0.68023 0.32131 0.0
C2955 C 0.84206 0.66052 0.27307 0.0
C2956 C 0.82878 0.66804 0.2643 0.0
C2957 C 0.84917 0.64668 0.2646 0.0
C2958 C 0.86268 0.63771 0.27372 0.0
C2959 C 0.86128 0.63221 0.29249 0.0
C2960 C 0.87408 0.62385 0.30105 0.0
C2961 C 0.88832 0.62084 0.29094 0.0
C2962 C 0.88977 0.62614 0.27224 0.0
C2963 C 0.87701 0.63451 0.26362 0.0
H2964 H 0.89821 0.61437 0.29759 0.0
H2965 H 0.77404 0.69493 0.21361 0.0
H2966 H 0.35032 0.8279 0.17169 0.0
H2967 H 0.34292 0.84246 0.20056 0.0
H2968 H 0.38135 0.81813 0.23082 0.0
H2969 H 0.38845 0.80319 0.20214 0.0
H2970 H 0.35453 0.81582 0.24971 0.0
H2971 H 0.38276 0.85959 0.22035 0.0
H2972 H 0.38984 0.87868 0.19481 0.0
H2973 H 0.34132 0.89752 0.19517 0.0
H2974 H 0.33387 0.87839 0.22053 0.0
H2975 H 0.33598 0.85858 0.33405 0.0
H2976 H 0.35157 0.84994 0.30629 0.0
H2977 H 0.31401 0.86844 0.26965 0.0
H2978 H 0.29856 0.8773 0.2972 0.0
H2979 H 0.34387 0.87479 0.25545 0.0
H2980 H 0.31514 0.82866 0.28157 0.0
H2981 H 0.30776 0.80938 0.30682 0.0
H2982 H 0.35759 0.79499 0.31215 0.0
H2983 H 0.36529 0.81436 0.28708 0.0
C2984 C 0.35733 0.82585 0.18444 0.0
C2985 C 0.36989 0.81437 0.18473 0.0
C2986 C 0.35316 0.83424 0.20091 0.0
C2987 C 0.36167 0.83149 0.21785 0.0
C2988 C 0.37461 0.82044 0.21793 0.0
C2989 C 0.37866 0.81193 0.20154 0.0
C2990 C 0.35618 0.83903 0.2358 0.0
C2991 C 0.35256 0.82877 0.25108 0.0
C2992 C 0.35327 0.85588 0.23748 0.0
C2993 C 0.35773 0.86746 0.22226 0.0
C2994 C 0.37356 0.86772 0.21489 0.0
C2995 C 0.37765 0.87856 0.20046 0.0
C2996 C 0.36603 0.88928 0.19335 0.0
C2997 C 0.35031 0.88921 0.20069 0.0
C2998 C 0.34615 0.87838 0.21511 0.0
C2999 C 0.33116 0.86096 0.32006 0.0
C3000 C 0.316 0.86846 0.31777 0.0
C3001 C 0.34005 0.85601 0.30424 0.0
C3002 C 0.33384 0.85839 0.28593 0.0
C3003 C 0.31903 0.86649 0.28364 0.0
C3004 C 0.31017 0.87146 0.29941 0.0
C3005 C 0.34213 0.85154 0.26915 0.0
C3006 C 0.34618 0.86189 0.25412 0.0
C3007 C 0.34545 0.83477 0.26764 0.0
C3008 C 0.34081 0.82308 0.28263 0.0
C3009 C 0.32453 0.82147 0.28823 0.0
C3010 C 0.32029 0.81051 0.30249 0.0
C3011 C 0.33221 0.801 0.31113 0.0
C3012 C 0.34838 0.80239 0.30548 0.0
C3013 C 0.35269 0.81335 0.29124 0.0
H3014 H 0.3289 0.79253 0.32216 0.0
H3015 H 0.36922 0.89767 0.18217 0.0
H3016 H 0.16964 0.64602 0.8281 0.0
H3017 H 0.1556 0.65572 0.79972 0.0
H3018 H 0.18831 0.62803 0.76473 0.0
H3019 H 0.20246 0.61845 0.79296 0.0
H3020 H 0.18599 0.65904 0.75308 0.0
H3021 H 0.1492 0.61632 0.77035 0.0
H3022 H 0.131 0.60121 0.79168 0.0
H3023 H 0.10072 0.64325 0.79755 0.0
H3024 H 0.11887 0.65868 0.77645 0.0
H3025 H 0.14753 0.66997 0.66511 0.0
H3026 H 0.15772 0.65673 0.69372 0.0
H3027 H 0.12565 0.68591 0.72784 0.0
H3028 H 0.11533 0.69915 0.69927 0.0
H3029 H 0.12707 0.65408 0.74007 0.0
H3030 H 0.16376 0.69708 0.72435 0.0
H3031 H 0.18184 0.71295 0.70364 0.0
H3032 H 0.21218 0.6712 0.69568 0.0
H3033 H 0.19416 0.65503 0.71618 0.0
C3034 C 0.1737 0.64188 0.81436 0.0
C3035 C 0.18716 0.63153 0.81272 0.0
C3036 C 0.16565 0.64737 0.79818 0.0
C3037 C 0.17089 0.64253 0.78014 0.0
C3038 C 0.1841 0.63192 0.77852 0.0
C3039 C 0.19214 0.62644 0.79466 0.0
C3040 C 0.16327 0.64925 0.76287 0.0
C3041 C 0.17315 0.65772 0.75009 0.0
C3042 C 0.14643 0.64797 0.75931 0.0
C3043 C 0.13548 0.6387 0.77197 0.0
C3044 C 0.13873 0.62238 0.77631 0.0
C3045 C 0.12841 0.61375 0.78834 0.0
C3046 C 0.11474 0.62128 0.796 0.0
C3047 C 0.11133 0.63744 0.79162 0.0
C3048 C 0.12162 0.64613 0.77962 0.0
C3049 C 0.14254 0.67344 0.67869 0.0
C3050 C 0.13074 0.68566 0.68 0.0
C3051 C 0.14838 0.6659 0.695 0.0
C3052 C 0.14256 0.6705 0.71287 0.0
C3053 C 0.1303 0.68222 0.71417 0.0
C3054 C 0.12448 0.6898 0.69785 0.0
C3055 C 0.14985 0.66365 0.73024 0.0
C3056 C 0.13992 0.65528 0.74305 0.0
C3057 C 0.16664 0.6651 0.73395 0.0
C3058 C 0.17752 0.6748 0.72164 0.0
C3059 C 0.17422 0.69125 0.71806 0.0
C3060 C 0.18447 0.7003 0.70638 0.0
C3061 C 0.19812 0.69307 0.6983 0.0
C3062 C 0.20159 0.67678 0.70193 0.0
C3063 C 0.19137 0.66767 0.71359 0.0
H3064 H 0.20605 0.7001 0.68927 0.0
H3065 H 0.10676 0.61457 0.80531 0.0
H3066 H 0.30558 0.11351 0.69867 0.0
H3067 H 0.31933 0.1216 0.7278 0.0
H3068 H 0.34741 0.15671 0.69662 0.0
H3069 H 0.33387 0.14845 0.66728 0.0
H3070 H 0.36552 0.14165 0.72409 0.0
H3071 H 0.31377 0.16843 0.71929 0.0
H3072 H 0.28411 0.1697 0.7152 0.0
H3073 H 0.27759 0.14039 0.76484 0.0
H3074 H 0.30725 0.13876 0.76907 0.0
H3075 H 0.3836 0.19884 0.79623 0.0
H3076 H 0.37513 0.18384 0.76813 0.0
H3077 H 0.34711 0.15138 0.80308 0.0
H3078 H 0.35537 0.16652 0.83129 0.0
H3079 H 0.3295 0.16298 0.7745 0.0
H3080 H 0.38166 0.13843 0.78089 0.0
H3081 H 0.41136 0.13768 0.78481 0.0
H3082 H 0.41733 0.1633 0.73238 0.0
H3083 H 0.38765 0.1644 0.72827 0.0
C3084 C 0.31482 0.12282 0.69797 0.0
C3085 C 0.31854 0.1305 0.68076 0.0
C3086 C 0.32265 0.12743 0.71462 0.0
C3087 C 0.33418 0.13993 0.71439 0.0
C3088 C 0.33851 0.14706 0.69708 0.0
C3089 C 0.33073 0.14238 0.68037 0.0
C3090 C 0.34085 0.14633 0.73236 0.0
C3091 C 0.3577 0.14644 0.73508 0.0
C3092 C 0.33057 0.15226 0.74681 0.0
C3093 C 0.31273 0.15333 0.74438 0.0
C3094 C 0.30602 0.16216 0.72925 0.0
C3095 C 0.2892 0.16295 0.72692 0.0
C3096 C 0.27897 0.15509 0.73972 0.0
C3097 C 0.28554 0.14645 0.75492 0.0
C3098 C 0.30234 0.14559 0.7573 0.0
C3099 C 0.3758 0.18838 0.79796 0.0
C3100 C 0.37007 0.18388 0.81593 0.0
C3101 C 0.37105 0.17976 0.78189 0.0
C3102 C 0.3606 0.16641 0.78352 0.0
C3103 C 0.35522 0.16163 0.80152 0.0
C3104 C 0.35995 0.17026 0.81761 0.0
C3105 C 0.35424 0.15834 0.76633 0.0
C3106 C 0.33739 0.15801 0.76367 0.0
C3107 C 0.36454 0.15228 0.75196 0.0
C3108 C 0.38241 0.15161 0.75436 0.0
C3109 C 0.3893 0.14402 0.77027 0.0
C3110 C 0.40613 0.14351 0.77251 0.0
C3111 C 0.41622 0.15047 0.75888 0.0
C3112 C 0.4095 0.15792 0.74294 0.0
C3113 C 0.39267 0.15847 0.74064 0.0
H3114 H 0.42925 0.15006 0.76064 0.0
H3115 H 0.26596 0.15572 0.7379 0.0
H3116 H 0.88835 0.30606 0.69833 0.0
H3117 H 0.87946 0.32014 0.72689 0.0
H3118 H 0.84213 0.34444 0.69485 0.0
H3119 H 0.85125 0.33064 0.66605 0.0
H3120 H 0.85537 0.3645 0.72099 0.0
H3121 H 0.83353 0.31041 0.71979 0.0
H3122 H 0.83488 0.28061 0.71745 0.0
H3123 H 0.86525 0.27887 0.76679 0.0
H3124 H 0.86427 0.3087 0.76926 0.0
H3125 H 0.79795 0.38045 0.79337 0.0
H3126 H 0.81297 0.3717 0.76543 0.0
H3127 H 0.84886 0.34911 0.8012 0.0
H3128 H 0.83374 0.3577 0.82931 0.0
H3129 H 0.83833 0.32889 0.77399 0.0
H3130 H 0.85786 0.38342 0.77658 0.0
H3131 H 0.85562 0.41316 0.77873 0.0
H3132 H 0.82859 0.41417 0.72679 0.0
H3133 H 0.83047 0.3844 0.72446 0.0
C3134 C 0.87838 0.31456 0.69732 0.0
C3135 C 0.87036 0.31714 0.68003 0.0
C3136 C 0.87329 0.32256 0.71365 0.0
C3137 C 0.85994 0.33309 0.71305 0.0
C3138 C 0.85242 0.33631 0.69562 0.0
C3139 C 0.85761 0.3284 0.6792 0.0
C3140 C 0.85318 0.33988 0.73078 0.0
C3141 C 0.85151 0.35673 0.73254 0.0
C3142 C 0.84846 0.32973 0.74597 0.0
C3143 C 0.84897 0.31179 0.74459 0.0
C3144 C 0.84059 0.30368 0.73006 0.0
C3145 C 0.84128 0.28679 0.72872 0.0
C3146 C 0.85019 0.27786 0.74193 0.0
C3147 C 0.85838 0.28581 0.75655 0.0
C3148 C 0.85776 0.3027 0.75793 0.0
C3149 C 0.80913 0.37377 0.7953 0.0
C3150 C 0.81466 0.36971 0.81351 0.0
C3151 C 0.81775 0.36886 0.77932 0.0
C3152 C 0.83211 0.35989 0.78124 0.0
C3153 C 0.83782 0.35607 0.79943 0.0
C3154 C 0.8292 0.36099 0.81545 0.0
C3155 C 0.84047 0.35354 0.76424 0.0
C3156 C 0.84236 0.33671 0.76257 0.0
C3157 C 0.84528 0.36372 0.74913 0.0
C3158 C 0.8442 0.38165 0.75043 0.0
C3159 C 0.85133 0.38997 0.76569 0.0
C3160 C 0.85014 0.40684 0.76693 0.0
C3161 C 0.84194 0.41555 0.75293 0.0
C3162 C 0.83493 0.40741 0.73763 0.0
C3163 C 0.83607 0.39053 0.73634 0.0
H3164 H 0.84103 0.42861 0.75391 0.0
H3165 H 0.8507 0.26478 0.74087 0.0
H3166 H 0.66384 0.85525 0.66628 0.0
H3167 H 0.65065 0.84651 0.69561 0.0
H3168 H 0.68492 0.87457 0.72811 0.0
H3169 H 0.69821 0.88323 0.69895 0.0
H3170 H 0.68298 0.84367 0.74037 0.0
H3171 H 0.64586 0.88644 0.72481 0.0
H3172 H 0.62688 0.90164 0.70451 0.0
H3173 H 0.59589 0.85993 0.70086 0.0
H3174 H 0.61481 0.8444 0.72094 0.0
H3175 H 0.64817 0.83148 0.83009 0.0
H3176 H 0.65684 0.84566 0.80141 0.0
H3177 H 0.624 0.81662 0.76812 0.0
H3178 H 0.6152 0.80243 0.79674 0.0
H3179 H 0.62467 0.84881 0.75657 0.0
H3180 H 0.66203 0.80564 0.76992 0.0
H3181 H 0.68088 0.78971 0.78964 0.0
H3182 H 0.71131 0.83152 0.79658 0.0
H3183 H 0.69252 0.84776 0.77708 0.0
C3184 C 0.66841 0.85971 0.67967 0.0
C3185 C 0.68209 0.86984 0.68036 0.0
C3186 C 0.66083 0.85476 0.69639 0.0
C3187 C 0.66679 0.85994 0.71401 0.0
C3188 C 0.68016 0.87043 0.71465 0.0
C3189 C 0.68771 0.87537 0.69798 0.0
C3190 C 0.6599 0.85351 0.73181 0.0
C3191 C 0.67029 0.84506 0.74406 0.0
C3192 C 0.64325 0.85489 0.7363 0.0
C3193 C 0.63184 0.86421 0.72424 0.0
C3194 C 0.63507 0.88046 0.71955 0.0
C3195 C 0.62431 0.88915 0.70811 0.0
C3196 C 0.61021 0.88174 0.70136 0.0
C3197 C 0.60683 0.86565 0.70608 0.0
C3198 C 0.61756 0.8569 0.71751 0.0
C3199 C 0.64266 0.82826 0.8167 0.0
C3200 C 0.63114 0.81576 0.81559 0.0
C3201 C 0.64763 0.83634 0.80035 0.0
C3202 C 0.64117 0.83203 0.78267 0.0
C3203 C 0.62911 0.82009 0.78165 0.0
C3204 C 0.62417 0.81197 0.79798 0.0
C3205 C 0.64781 0.83916 0.76512 0.0
C3206 C 0.63739 0.84761 0.7529 0.0
C3207 C 0.66442 0.8377 0.76054 0.0
C3208 C 0.67578 0.82796 0.77222 0.0
C3209 C 0.67267 0.81147 0.77578 0.0
C3210 C 0.68336 0.80238 0.78689 0.0
C3211 C 0.69726 0.80961 0.79441 0.0
C3212 C 0.70053 0.82594 0.79077 0.0
C3213 C 0.68987 0.83509 0.77968 0.0
H3214 H 0.70552 0.80256 0.803 0.0
H3215 H 0.60189 0.88849 0.6925 0.0
H3216 H 0.87696 0.70389 0.70021 0.0
H3217 H 0.86838 0.68963 0.7288 0.0
H3218 H 0.84721 0.65182 0.69461 0.0
H3219 H 0.85572 0.66608 0.66587 0.0
H3220 H 0.82645 0.6633 0.72165 0.0
H3221 H 0.88136 0.64443 0.71882 0.0
H3222 H 0.91104 0.64724 0.71629 0.0
H3223 H 0.9119 0.67525 0.76748 0.0
H3224 H 0.88218 0.67281 0.77018 0.0
H3225 H 0.80515 0.61358 0.7982 0.0
H3226 H 0.81844 0.62273 0.76923 0.0
H3227 H 0.84337 0.65998 0.80074 0.0
H3228 H 0.83045 0.65053 0.82993 0.0
H3229 H 0.86287 0.64731 0.77438 0.0
H3230 H 0.80862 0.66839 0.77626 0.0
H3231 H 0.77886 0.66687 0.77909 0.0
H3232 H 0.77669 0.63634 0.72995 0.0
H3233 H 0.80648 0.63749 0.72698 0.0
C3234 C 0.87059 0.69247 0.69878 0.0
C3235 C 0.86696 0.68609 0.68083 0.0
C3236 C 0.86578 0.6843 0.71512 0.0
C3237 C 0.85729 0.66961 0.7138 0.0
C3238 C 0.8538 0.66312 0.6959 0.0
C3239 C 0.85868 0.67126 0.67952 0.0
C3240 C 0.85121 0.66157 0.7311 0.0
C3241 C 0.83443 0.65951 0.73304 0.0
C3242 C 0.86163 0.65712 0.74615 0.0
C3243 C 0.87952 0.65854 0.74461 0.0
C3244 C 0.88786 0.6513 0.72946 0.0
C3245 C 0.90469 0.6528 0.72801 0.0
C3246 C 0.91334 0.66145 0.74169 0.0
C3247 C 0.90518 0.66857 0.75688 0.0
C3248 C 0.88834 0.66711 0.75839 0.0
C3249 C 0.8136 0.62361 0.79898 0.0
C3250 C 0.81666 0.63147 0.81625 0.0
C3251 C 0.82115 0.62885 0.78243 0.0
C3252 C 0.83163 0.64224 0.78278 0.0
C3253 C 0.83527 0.64966 0.80016 0.0
C3254 C 0.82786 0.64429 0.81679 0.0
C3255 C 0.8381 0.64904 0.76491 0.0
C3256 C 0.85491 0.65094 0.76291 0.0
C3257 C 0.82771 0.65352 0.74983 0.0
C3258 C 0.80979 0.65289 0.75152 0.0
C3259 C 0.8018 0.66125 0.76614 0.0
C3260 C 0.78493 0.66047 0.76776 0.0
C3261 C 0.77589 0.65148 0.75474 0.0
C3262 C 0.78371 0.64328 0.74004 0.0
C3263 C 0.80058 0.644 0.73838 0.0
H3264 H 0.76283 0.65089 0.75602 0.0
H3265 H 0.92638 0.6626 0.74055 0.0
H3266 H 0.38509 0.80589 0.7977 0.0
H3267 H 0.3747 0.82082 0.77039 0.0
H3268 H 0.34252 0.84766 0.8069 0.0
H3269 H 0.35283 0.8327 0.83432 0.0
H3270 H 0.32678 0.83398 0.77711 0.0
H3271 H 0.37416 0.86644 0.78649 0.0
H3272 H 0.40331 0.87173 0.79107 0.0
H3273 H 0.41369 0.85035 0.73703 0.0
H3274 H 0.38461 0.84471 0.73223 0.0
H3275 H 0.29577 0.88488 0.70624 0.0
H3276 H 0.31036 0.87624 0.73457 0.0
H3277 H 0.34348 0.84861 0.70007 0.0
H3278 H 0.32903 0.85743 0.67153 0.0
H3279 H 0.35907 0.86406 0.72939 0.0
H3280 H 0.31256 0.82986 0.72088 0.0
H3281 H 0.28357 0.82385 0.71596 0.0
H3282 H 0.2719 0.84758 0.76829 0.0
H3283 H 0.30081 0.85395 0.77337 0.0
C3284 C 0.37596 0.81514 0.79995 0.0
C3285 C 0.36971 0.8181 0.81811 0.0
C3286 C 0.3701 0.82371 0.78434 0.0
C3287 C 0.3579 0.83539 0.78665 0.0
C3288 C 0.35196 0.8387 0.80485 0.0
C3289 C 0.35787 0.83018 0.82049 0.0
C3290 C 0.35043 0.84316 0.76989 0.0
C3291 C 0.33379 0.84083 0.76687 0.0
C3292 C 0.3597 0.85164 0.75625 0.0
C3293 C 0.3772 0.85502 0.75908 0.0
C3294 C 0.38267 0.86274 0.77565 0.0
C3295 C 0.39918 0.86583 0.77827 0.0
C3296 C 0.41035 0.86135 0.76437 0.0
C3297 C 0.40503 0.8538 0.74779 0.0
C3298 C 0.38852 0.85067 0.7451 0.0
C3299 C 0.30626 0.87709 0.70465 0.0
C3300 C 0.31118 0.87168 0.6867 0.0
C3301 C 0.31456 0.87215 0.72085 0.0
C3302 C 0.32784 0.8616 0.71942 0.0
C3303 C 0.33323 0.85674 0.70146 0.0
C3304 C 0.32495 0.86173 0.6852 0.0
C3305 C 0.33544 0.85491 0.73672 0.0
C3306 C 0.35208 0.85734 0.73976 0.0
C3307 C 0.32621 0.84641 0.75037 0.0
C3308 C 0.30882 0.84253 0.7474 0.0
C3309 C 0.30379 0.83391 0.73126 0.0
C3310 C 0.28738 0.83042 0.72845 0.0
C3311 C 0.27589 0.83537 0.74178 0.0
C3312 C 0.2808 0.84378 0.75796 0.0
C3313 C 0.2972 0.84732 0.76082 0.0
H3314 H 0.26319 0.83266 0.73958 0.0
H3315 H 0.42313 0.86375 0.76643 0.0
H3316 H 0.14133 0.33493 0.66736 0.0
H3317 H 0.14973 0.3493 0.69608 0.0
H3318 H 0.12939 0.31111 0.73035 0.0
H3319 H 0.12093 0.29671 0.70175 0.0
H3320 H 0.12301 0.34188 0.74479 0.0
H3321 H 0.16853 0.31074 0.72208 0.0
H3322 H 0.18848 0.30183 0.69828 0.0
H3323 H 0.20599 0.35064 0.69295 0.0
H3324 H 0.18597 0.35987 0.71656 0.0
H3325 H 0.16706 0.35122 0.83098 0.0
H3326 H 0.15347 0.34232 0.80199 0.0
H3327 H 0.17923 0.37881 0.7702 0.0
H3328 H 0.19312 0.38746 0.799 0.0
H3329 H 0.18205 0.35056 0.7537 0.0
H3330 H 0.13787 0.38143 0.77861 0.0
H3331 H 0.11794 0.39014 0.80252 0.0
H3332 H 0.09783 0.34215 0.80398 0.0
H3333 H 0.1178 0.33309 0.78026 0.0
C3334 C 0.13852 0.32968 0.68102 0.0
C3335 C 0.13061 0.31465 0.68234 0.0
C3336 C 0.14333 0.33788 0.69738 0.0
C3337 C 0.14028 0.33117 0.71529 0.0
C3338 C 0.13183 0.31648 0.71665 0.0
C3339 C 0.12709 0.30824 0.70031 0.0
C3340 C 0.14674 0.33894 0.73259 0.0
C3341 C 0.13592 0.34371 0.74685 0.0
C3342 C 0.16355 0.34156 0.73504 0.0
C3343 C 0.17564 0.33602 0.72092 0.0
C3344 C 0.17655 0.31959 0.71571 0.0
C3345 C 0.18788 0.31448 0.70228 0.0
C3346 C 0.19846 0.32567 0.69406 0.0
C3347 C 0.19776 0.34199 0.6993 0.0
C3348 C 0.18643 0.34717 0.71272 0.0
C3349 C 0.16963 0.35749 0.81785 0.0
C3350 C 0.1812 0.36996 0.8172 0.0
C3351 C 0.1618 0.35245 0.80131 0.0
C3352 C 0.16527 0.35996 0.78392 0.0
C3353 C 0.1764 0.37282 0.78343 0.0
C3354 C 0.1843 0.37776 0.79991 0.0
C3355 C 0.15833 0.3536 0.76604 0.0
C3356 C 0.1691 0.34898 0.75164 0.0
C3357 C 0.14148 0.35113 0.76352 0.0
C3358 C 0.12943 0.35655 0.77777 0.0
C3359 C 0.12929 0.3727 0.78414 0.0
C3360 C 0.11796 0.37771 0.79764 0.0
C3361 C 0.10665 0.3667 0.8048 0.0
C3362 C 0.10661 0.35067 0.79843 0.0
C3363 C 0.11792 0.34559 0.78495 0.0
H3364 H 0.09789 0.3706 0.81524 0.0
H3365 H 0.20724 0.3217 0.68367 0.0
H3366 H 0.6649 0.14001 0.6685 0.0
H3367 H 0.64894 0.14861 0.69595 0.0
H3368 H 0.68499 0.12824 0.73329 0.0
H3369 H 0.70086 0.11944 0.70599 0.0
H3370 H 0.65425 0.12248 0.74607 0.0
H3371 H 0.68558 0.168 0.72298 0.0
H3372 H 0.69467 0.18755 0.6988 0.0
H3373 H 0.6457 0.20408 0.69145 0.0
H3374 H 0.63629 0.18446 0.71543 0.0
H3375 H 0.64562 0.16801 0.83074 0.0
H3376 H 0.65385 0.15374 0.80199 0.0
H3377 H 0.61736 0.17953 0.77017 0.0
H3378 H 0.60938 0.19413 0.79877 0.0
H3379 H 0.64531 0.18163 0.75314 0.0
H3380 H 0.61434 0.13822 0.77918 0.0
H3381 H 0.6054 0.11878 0.80353 0.0
H3382 H 0.6532 0.09825 0.80562 0.0
H3383 H 0.6625 0.11772 0.78147 0.0
C3384 C 0.66932 0.13723 0.68256 0.0
C3385 C 0.68418 0.1292 0.68513 0.0
C3386 C 0.66022 0.14215 0.69821 0.0
C3387 C 0.66589 0.1392 0.71663 0.0
C3388 C 0.6804 0.13061 0.71919 0.0
C3389 C 0.68949 0.12568 0.70358 0.0
C3390 C 0.65735 0.14596 0.73327 0.0
C3391 C 0.65234 0.13541 0.74771 0.0
C3392 C 0.65455 0.16279 0.73515 0.0
C3393 C 0.66021 0.17465 0.72082 0.0
C3394 C 0.67674 0.17572 0.7161 0.0
C3395 C 0.68195 0.18682 0.70245 0.0
C3396 C 0.67076 0.19702 0.69355 0.0
C3397 C 0.65435 0.19616 0.69833 0.0
C3398 C 0.64907 0.18506 0.71195 0.0
C3399 C 0.6392 0.17045 0.81767 0.0
C3400 C 0.62693 0.18223 0.81694 0.0
C3401 C 0.64385 0.16222 0.80126 0.0
C3402 C 0.63614 0.16548 0.78393 0.0
C3403 C 0.62348 0.17683 0.78337 0.0
C3404 C 0.61893 0.18515 0.79972 0.0
C3405 C 0.64225 0.15818 0.76614 0.0
C3406 C 0.64692 0.16866 0.75146 0.0
C3407 C 0.6447 0.14129 0.76409 0.0
C3408 C 0.63915 0.12953 0.77861 0.0
C3409 C 0.62298 0.12965 0.78494 0.0
C3410 C 0.61784 0.1186 0.79869 0.0
C3411 C 0.62873 0.10731 0.80615 0.0
C3412 C 0.64478 0.10701 0.79984 0.0
C3413 C 0.64999 0.11803 0.7861 0.0
H3414 H 0.62473 0.09877 0.81679 0.0
H3415 H 0.67482 0.20561 0.68299 0.0
H3416 H 0.80534 0.38162 0.2022 0.0
H3417 H 0.82103 0.37241 0.22946 0.0
H3418 H 0.85211 0.34472 0.19251 0.0
H3419 H 0.83631 0.3538 0.1651 0.0
H3420 H 0.84078 0.32671 0.22123 0.0
H3421 H 0.86645 0.37822 0.21492 0.0
H3422 H 0.86794 0.40792 0.21146 0.0
H3423 H 0.84392 0.41398 0.26488 0.0
H3424 H 0.84207 0.3843 0.26855 0.0
H3425 H 0.89136 0.30058 0.29488 0.0
H3426 H 0.88326 0.31536 0.26647 0.0
H3427 H 0.84868 0.3428 0.29916 0.0
H3428 H 0.85687 0.32814 0.3278 0.0
H3429 H 0.86415 0.36149 0.27164 0.0
H3430 H 0.83603 0.31045 0.27625 0.0
H3431 H 0.83408 0.28079 0.27992 0.0
H3432 H 0.86227 0.27409 0.22946 0.0
H3433 H 0.8646 0.30374 0.22566 0.0
C3434 C 0.81564 0.37373 0.19985 0.0
C3435 C 0.81957 0.36836 0.18155 0.0
C3436 C 0.82466 0.36856 0.21543 0.0
C3437 C 0.83782 0.35799 0.21299 0.0
C3438 C 0.84202 0.35292 0.19467 0.0
C3439 C 0.83301 0.35812 0.17905 0.0
C3440 C 0.84624 0.35119 0.22971 0.0
C3441 C 0.8462 0.33431 0.23204 0.0
C3442 C 0.8529 0.36115 0.24407 0.0
C3443 C 0.854 0.37902 0.24193 0.0
C3444 C 0.86136 0.38588 0.22586 0.0
C3445 C 0.8623 0.40271 0.22387 0.0
C3446 C 0.856 0.41283 0.23792 0.0
C3447 C 0.84878 0.40613 0.254 0.0
C3448 C 0.84781 0.3893 0.25605 0.0
C3449 C 0.8822 0.30993 0.29609 0.0
C3450 C 0.87459 0.31309 0.31349 0.0
C3451 C 0.87759 0.31835 0.27985 0.0
C3452 C 0.86521 0.32998 0.2807 0.0
C3453 C 0.85824 0.33384 0.29824 0.0
C3454 C 0.86288 0.32542 0.31455 0.0
C3455 C 0.85863 0.33707 0.26307 0.0
C3456 C 0.85892 0.35394 0.26065 0.0
C3457 C 0.85213 0.32713 0.24861 0.0
C3458 C 0.85064 0.30931 0.25079 0.0
C3459 C 0.84192 0.30265 0.26602 0.0
C3460 C 0.84073 0.28584 0.26812 0.0
C3461 C 0.84808 0.27556 0.25496 0.0
C3462 C 0.8566 0.28207 0.23966 0.0
C3463 C 0.85786 0.29887 0.23752 0.0
H3464 H 0.84714 0.26255 0.25661 0.0
H3465 H 0.85674 0.42586 0.23635 0.0
H3466 H 0.61837 0.79427 0.20217 0.0
H3467 H 0.6261 0.80914 0.23059 0.0
H3468 H 0.64029 0.85007 0.19633 0.0
H3469 H 0.63302 0.83499 0.1677 0.0
H3470 H 0.66304 0.84328 0.2206 0.0
H3471 H 0.60597 0.85102 0.2253 0.0
H3472 H 0.57715 0.84312 0.22554 0.0
H3473 H 0.58546 0.8129 0.27406 0.0
H3474 H 0.6144 0.82043 0.27396 0.0
H3475 H 0.68187 0.88919 0.30189 0.0
H3476 H 0.66703 0.88106 0.27347 0.0
H3477 H 0.65508 0.83536 0.29966 0.0
H3478 H 0.66975 0.84349 0.32825 0.0
H3479 H 0.6296 0.84788 0.2787 0.0
H3480 H 0.6871 0.83776 0.27103 0.0
H3481 H 0.71596 0.84558 0.2707 0.0
H3482 H 0.70632 0.8807 0.22726 0.0
H3483 H 0.67734 0.87322 0.22753 0.0
C3484 C 0.62297 0.80651 0.20069 0.0
C3485 C 0.62515 0.81347 0.18274 0.0
C3486 C 0.62727 0.81505 0.21697 0.0
C3487 C 0.63357 0.83081 0.21562 0.0
C3488 C 0.63541 0.83793 0.1977 0.0
C3489 C 0.63125 0.82932 0.18137 0.0
C3490 C 0.63944 0.83927 0.23282 0.0
C3491 C 0.65558 0.84462 0.23314 0.0
C3492 C 0.62983 0.84071 0.24935 0.0
C3493 C 0.6124 0.83622 0.24954 0.0
C3494 C 0.60169 0.8426 0.23595 0.0
C3495 C 0.58532 0.8382 0.23607 0.0
C3496 C 0.57948 0.82749 0.24978 0.0
C3497 C 0.59 0.82119 0.26344 0.0
C3498 C 0.60638 0.82554 0.26337 0.0
C3499 C 0.6759 0.87749 0.30169 0.0
C3500 C 0.6771 0.86688 0.31718 0.0
C3501 C 0.66744 0.87288 0.28545 0.0
C3502 C 0.66016 0.85754 0.28441 0.0
C3503 C 0.66064 0.84725 0.30021 0.0
C3504 C 0.66908 0.85187 0.31648 0.0
C3505 C 0.65316 0.85168 0.26639 0.0
C3506 C 0.63688 0.84678 0.26599 0.0
C3507 C 0.6626 0.85067 0.24973 0.0
C3508 C 0.68004 0.85506 0.24945 0.0
C3509 C 0.69112 0.84723 0.26151 0.0
C3510 C 0.7075 0.85158 0.26132 0.0
C3511 C 0.71296 0.86366 0.24901 0.0
C3512 C 0.70206 0.87137 0.23682 0.0
C3513 C 0.68567 0.86707 0.23697 0.0
H3514 H 0.72565 0.86702 0.24888 0.0
H3515 H 0.56681 0.82409 0.24985 0.0
H3516 H 0.11477 0.69821 0.29398 0.0
H3517 H 0.12332 0.68299 0.26608 0.0
H3518 H 0.14886 0.64909 0.3018 0.0
H3519 H 0.1405 0.66441 0.32982 0.0
H3520 H 0.16768 0.6602 0.27376 0.0
H3521 H 0.11438 0.63781 0.27874 0.0
H3522 H 0.08462 0.63844 0.2818 0.0
H3523 H 0.08088 0.66415 0.22914 0.0
H3524 H 0.11065 0.66389 0.22589 0.0
H3525 H 0.19132 0.60932 0.19952 0.0
H3526 H 0.17697 0.61803 0.22797 0.0
H3527 H 0.15121 0.65402 0.1954 0.0
H3528 H 0.16536 0.64514 0.16672 0.0
H3529 H 0.13182 0.64002 0.2225 0.0
H3530 H 0.18464 0.66461 0.21888 0.0
H3531 H 0.2144 0.6647 0.21558 0.0
H3532 H 0.21887 0.63566 0.26575 0.0
H3533 H 0.18909 0.6352 0.26919 0.0
C3534 C 0.12206 0.68741 0.29591 0.0
C3535 C 0.12704 0.68252 0.31405 0.0
C3536 C 0.12684 0.67867 0.27996 0.0
C3537 C 0.1366 0.66483 0.28189 0.0
C3538 C 0.14129 0.65972 0.30003 0.0
C3539 C 0.13651 0.66846 0.316 0.0
C3540 C 0.14296 0.6565 0.2649 0.0
C3541 C 0.15982 0.65548 0.26274 0.0
C3542 C 0.13269 0.65081 0.25028 0.0
C3543 C 0.11477 0.65094 0.25216 0.0
C3544 C 0.10723 0.64372 0.26789 0.0
C3545 C 0.09035 0.64398 0.26964 0.0
C3546 C 0.08086 0.65136 0.2557 0.0
C3547 C 0.08824 0.65845 0.23994 0.0
C3548 C 0.10512 0.65823 0.23813 0.0
C3549 C 0.18243 0.61893 0.19836 0.0
C3550 C 0.17958 0.6267 0.18098 0.0
C3551 C 0.17426 0.6239 0.21462 0.0
C3552 C 0.16326 0.63685 0.21382 0.0
C3553 C 0.1597 0.64403 0.19629 0.0
C3554 C 0.16782 0.63899 0.17996 0.0
C3555 C 0.1565 0.64372 0.23146 0.0
C3556 C 0.13962 0.64455 0.23367 0.0
C3557 C 0.16673 0.64936 0.24613 0.0
C3558 C 0.18464 0.64972 0.24417 0.0
C3559 C 0.19197 0.65814 0.22913 0.0
C3560 C 0.20884 0.65827 0.22724 0.0
C3561 C 0.21852 0.65015 0.24042 0.0
C3562 C 0.21135 0.64192 0.25554 0.0
C3563 C 0.19448 0.64173 0.25747 0.0
H3564 H 0.23158 0.65027 0.23894 0.0
H3565 H 0.0678 0.65156 0.25708 0.0
H3566 H 0.32832 0.14635 0.33194 0.0
H3567 H 0.34281 0.15561 0.30375 0.0
H3568 H 0.31359 0.12401 0.26901 0.0
H3569 H 0.29933 0.11443 0.29719 0.0
H3570 H 0.34439 0.12417 0.25697 0.0
H3571 H 0.30429 0.16399 0.27342 0.0
H3572 H 0.29016 0.18319 0.29447 0.0
H3573 H 0.33418 0.21031 0.30155 0.0
H3574 H 0.34863 0.19113 0.28074 0.0
H3575 H 0.35251 0.16593 0.16858 0.0
H3576 H 0.3432 0.15242 0.19746 0.0
H3577 H 0.37389 0.18362 0.23092 0.0
H3578 H 0.38309 0.19726 0.2022 0.0
H3579 H 0.34332 0.18326 0.24392 0.0
H3580 H 0.38295 0.14369 0.22537 0.0
H3581 H 0.39626 0.12446 0.20366 0.0
H3582 H 0.35221 0.09695 0.19951 0.0
H3583 H 0.33856 0.11615 0.221 0.0
C3584 C 0.32511 0.14126 0.31832 0.0
C3585 C 0.31261 0.12978 0.31672 0.0
C3586 C 0.33336 0.14659 0.30222 0.0
C3587 C 0.32908 0.14069 0.28426 0.0
C3588 C 0.31705 0.12874 0.28273 0.0
C3589 C 0.30888 0.12333 0.29883 0.0
C3590 C 0.33654 0.14756 0.26696 0.0
C3591 C 0.34405 0.13707 0.25401 0.0
C3592 C 0.33627 0.16442 0.26326 0.0
C3593 C 0.32758 0.17603 0.27568 0.0
C3594 C 0.31098 0.17398 0.27958 0.0
C3595 C 0.30291 0.18487 0.29145 0.0
C3596 C 0.31128 0.19794 0.29938 0.0
C3597 C 0.32772 0.20017 0.29542 0.0
C3598 C 0.33586 0.1893 0.28358 0.0
C3599 C 0.35742 0.16975 0.18208 0.0
C3600 C 0.36846 0.18269 0.18316 0.0
C3601 C 0.35215 0.16199 0.19855 0.0
C3602 C 0.35792 0.16699 0.21632 0.0
C3603 C 0.36928 0.1796 0.21735 0.0
C3604 C 0.37454 0.18735 0.20093 0.0
C3605 C 0.35128 0.1599 0.23394 0.0
C3606 C 0.34381 0.17037 0.24693 0.0
C3607 C 0.35149 0.14303 0.23755 0.0
C3608 C 0.35969 0.13145 0.22467 0.0
C3609 C 0.37606 0.13361 0.21971 0.0
C3610 C 0.38368 0.1227 0.20746 0.0
C3611 C 0.37508 0.10951 0.20017 0.0
C3612 C 0.35885 0.10718 0.20515 0.0
C3613 C 0.35118 0.11806 0.21738 0.0
H3614 H 0.381 0.10108 0.19069 0.0
H3615 H 0.305 0.20635 0.30857 0.0
loop_
_geom_bond_atom_site_label_1
_geom_bond_atom_site_label_2
_geom_bond_distance
_geom_bond_site_symmetry_2
_ccdc_geom_bond_type
In0 O1 2.294 . S
In0 O2 2.326 . S
In0 O6 2.266 . S
In0 O7 2.326 . S
In0 O8 2.266 . S
In0 O9 2.326 . S
In0 O11 2.294 . S
In0 O12 2.326 . S
O1 In0 2.294 . S
O1 C10 1.240 . S
O2 In0 2.326 . S
O2 C10 1.252 . S
C3 O6 1.252 . S
C3 O7 1.260 . S
C4 O11 1.240 . S
C4 O12 1.252 . S
C5 O8 1.252 . S
C5 O9 1.260 . S
O6 In0 2.266 . S
O6 C3 1.252 . S
O7 In0 2.326 . S
O7 C3 1.260 . S
O8 In0 2.266 . S
O8 C5 1.252 . S
O9 In0 2.326 . S
O9 C5 1.260 . S
C10 O1 1.240 . S
C10 O2 1.252 . S
O11 In0 2.294 . S
O11 C4 1.240 . S
O12 In0 2.326 . S
O12 C4 1.252 . S
In13 O14 2.294 . S
In13 O15 2.326 . S
In13 O19 2.266 . S
In13 O20 2.326 . S
In13 O21 2.266 . S
In13 O22 2.326 . S
In13 O24 2.294 . S
In13 O25 2.326 . S
O14 In13 2.294 . S
O14 C23 1.240 . S
O15 In13 2.326 . S
O15 C23 1.252 . S
C16 O19 1.252 . S
C16 O20 1.260 . S
C17 O24 1.240 . S
C17 O25 1.252 . S
C18 O21 1.252 . S
C18 O22 1.260 . S
O19 In13 2.266 . S
O19 C16 1.252 . S
O20 In13 2.326 . S
O20 C16 1.260 . S
O21 In13 2.266 . S
O21 C18 1.252 . S
O22 In13 2.326 . S
O22 C18 1.260 . S
C23 O14 1.240 . S
C23 O15 1.252 . S
O24 In13 2.294 . S
O24 C17 1.240 . S
O25 In13 2.326 . S
O25 C17 1.252 . S
In26 O27 2.294 . S
In26 O28 2.326 . S
In26 O32 2.266 . S
In26 O33 2.326 . S
In26 O34 2.266 . S
In26 O35 2.326 . S
In26 O37 2.294 . S
In26 O38 2.326 . S
O27 In26 2.294 . S
O27 C36 1.240 . S
O28 In26 2.326 . S
O28 C36 1.252 . S
C29 O32 1.252 . S
C29 O33 1.260 . S
C30 O37 1.240 . S
C30 O38 1.252 . S
C31 O34 1.252 . S
C31 O35 1.260 . S
O32 In26 2.266 . S
O32 C29 1.252 . S
O33 In26 2.326 . S
O33 C29 1.260 . S
O34 In26 2.266 . S
O34 C31 1.252 . S
O35 In26 2.326 . S
O35 C31 1.260 . S
C36 O27 1.240 . S
C36 O28 1.252 . S
O37 In26 2.294 . S
O37 C30 1.240 . S
O38 In26 2.326 . S
O38 C30 1.252 . S
In39 O40 2.294 . S
In39 O41 2.326 . S
In39 O45 2.266 . S
In39 O46 2.326 . S
In39 O47 2.266 . S
In39 O48 2.326 . S
In39 O50 2.294 . S
In39 O51 2.326 . S
O40 In39 2.294 . S
O40 C49 1.240 . S
O41 In39 2.326 . S
O41 C49 1.252 . S
C42 O45 1.252 . S
C42 O46 1.260 . S
C43 O50 1.240 . S
C43 O51 1.252 . S
C44 O47 1.252 . S
C44 O48 1.260 . S
O45 In39 2.266 . S
O45 C42 1.252 . S
O46 In39 2.326 . S
O46 C42 1.260 . S
O47 In39 2.266 . S
O47 C44 1.252 . S
O48 In39 2.326 . S
O48 C44 1.260 . S
C49 O40 1.240 . S
C49 O41 1.252 . S
O50 In39 2.294 . S
O50 C43 1.240 . S
O51 In39 2.326 . S
O51 C43 1.252 . S
In52 O53 2.294 . S
In52 O54 2.326 . S
In52 O58 2.266 . S
In52 O59 2.326 . S
In52 O60 2.266 . S
In52 O61 2.326 . S
In52 O63 2.294 . S
In52 O64 2.326 . S
O53 In52 2.294 . S
O53 C62 1.240 . S
O54 In52 2.326 . S
O54 C62 1.252 . S
C55 O58 1.252 . S
C55 O59 1.260 . S
C56 O63 1.240 . S
C56 O64 1.252 . S
C57 O60 1.252 . S
C57 O61 1.260 . S
O58 In52 2.266 . S
O58 C55 1.252 . S
O59 In52 2.326 . S
O59 C55 1.260 . S
O60 In52 2.266 . S
O60 C57 1.252 . S
O61 In52 2.326 . S
O61 C57 1.260 . S
C62 O53 1.240 . S
C62 O54 1.252 . S
O63 In52 2.294 . S
O63 C56 1.240 . S
O64 In52 2.326 . S
O64 C56 1.252 . S
In65 O66 2.294 . S
In65 O67 2.326 . S
In65 O71 2.266 . S
In65 O72 2.326 . S
In65 O73 2.266 . S
In65 O74 2.326 . S
In65 O76 2.294 . S
In65 O77 2.326 . S
O66 In65 2.294 . S
O66 C75 1.240 . S
O67 In65 2.326 . S
O67 C75 1.252 . S
C68 O71 1.252 . S
C68 O72 1.260 . S
C69 O76 1.240 . S
C69 O77 1.252 . S
C70 O73 1.252 . S
C70 O74 1.260 . S
O71 In65 2.266 . S
O71 C68 1.252 . S
O72 In65 2.326 . S
O72 C68 1.260 . S
O73 In65 2.266 . S
O73 C70 1.252 . S
O74 In65 2.326 . S
O74 C70 1.260 . S
C75 O66 1.240 . S
C75 O67 1.252 . S
O76 In65 2.294 . S
O76 C69 1.240 . S
O77 In65 2.326 . S
O77 C69 1.252 . S
In78 O79 2.294 . S
In78 O80 2.326 . S
In78 O84 2.266 . S
In78 O85 2.326 . S
In78 O86 2.266 . S
In78 O87 2.326 . S
In78 O89 2.294 . S
In78 O90 2.326 . S
O79 In78 2.294 . S
O79 C88 1.240 . S
O80 In78 2.326 . S
O80 C88 1.252 . S
C81 O84 1.252 . S
C81 O85 1.260 . S
C82 O89 1.240 . S
C82 O90 1.252 . S
C83 O86 1.252 . S
C83 O87 1.260 . S
O84 In78 2.266 . S
O84 C81 1.252 . S
O85 In78 2.326 . S
O85 C81 1.260 . S
O86 In78 2.266 . S
O86 C83 1.252 . S
O87 In78 2.326 . S
O87 C83 1.260 . S
C88 O79 1.240 . S
C88 O80 1.252 . S
O89 In78 2.294 . S
O89 C82 1.240 . S
O90 In78 2.326 . S
O90 C82 1.252 . S
In91 O92 2.294 . S
In91 O93 2.326 . S
In91 O97 2.266 . S
In91 O98 2.326 . S
In91 O99 2.266 . S
In91 O100 2.326 . S
In91 O102 2.294 . S
In91 O103 2.326 . S
O92 In91 2.294 . S
O92 C101 1.240 . S
O93 In91 2.326 . S
O93 C101 1.252 . S
C94 O97 1.252 . S
C94 O98 1.260 . S
C95 O102 1.240 . S
C95 O103 1.252 . S
C96 O99 1.252 . S
C96 O100 1.260 . S
O97 In91 2.266 . S
O97 C94 1.252 . S
O98 In91 2.326 . S
O98 C94 1.260 . S
O99 In91 2.266 . S
O99 C96 1.252 . S
O100 In91 2.326 . S
O100 C96 1.260 . S
C101 O92 1.240 . S
C101 O93 1.252 . S
O102 In91 2.294 . S
O102 C95 1.240 . S
O103 In91 2.326 . S
O103 C95 1.252 . S
In104 O105 2.294 . S
In104 O106 2.326 . S
In104 O110 2.266 . S
In104 O111 2.326 . S
In104 O112 2.266 . S
In104 O113 2.326 . S
In104 O115 2.294 . S
In104 O116 2.326 . S
O105 In104 2.294 . S
O105 C114 1.240 . S
O106 In104 2.326 . S
O106 C114 1.252 . S
C107 O110 1.252 . S
C107 O111 1.260 . S
C108 O115 1.240 . S
C108 O116 1.252 . S
C109 O112 1.252 . S
C109 O113 1.260 . S
O110 In104 2.266 . S
O110 C107 1.252 . S
O111 In104 2.326 . S
O111 C107 1.260 . S
O112 In104 2.266 . S
O112 C109 1.252 . S
O113 In104 2.326 . S
O113 C109 1.260 . S
C114 O105 1.240 . S
C114 O106 1.252 . S
O115 In104 2.294 . S
O115 C108 1.240 . S
O116 In104 2.326 . S
O116 C108 1.252 . S
In117 O118 2.294 . S
In117 O119 2.326 . S
In117 O123 2.266 . S
In117 O124 2.326 . S
In117 O125 2.266 . S
In117 O126 2.326 . S
In117 O128 2.294 . S
In117 O129 2.326 . S
O118 In117 2.294 . S
O118 C127 1.240 . S
O119 In117 2.326 . S
O119 C127 1.252 . S
C120 O123 1.252 . S
C120 O124 1.260 . S
C121 O128 1.240 . S
C121 O129 1.252 . S
C122 O125 1.252 . S
C122 O126 1.260 . S
O123 In117 2.266 . S
O123 C120 1.252 . S
O124 In117 2.326 . S
O124 C120 1.260 . S
O125 In117 2.266 . S
O125 C122 1.252 . S
O126 In117 2.326 . S
O126 C122 1.260 . S
C127 O118 1.240 . S
C127 O119 1.252 . S
O128 In117 2.294 . S
O128 C121 1.240 . S
O129 In117 2.326 . S
O129 C121 1.252 . S
In130 O131 2.294 . S
In130 O132 2.326 . S
In130 O136 2.266 . S
In130 O137 2.326 . S
In130 O138 2.266 . S
In130 O139 2.326 . S
In130 O141 2.294 . S
In130 O142 2.326 . S
O131 In130 2.294 . S
O131 C140 1.240 . S
O132 In130 2.326 . S
O132 C140 1.252 . S
C133 O136 1.252 . S
C133 O137 1.260 . S
C134 O141 1.240 . S
C134 O142 1.252 . S
C135 O138 1.252 . S
C135 O139 1.260 . S
O136 In130 2.266 . S
O136 C133 1.252 . S
O137 In130 2.326 . S
O137 C133 1.260 . S
O138 In130 2.266 . S
O138 C135 1.252 . S
O139 In130 2.326 . S
O139 C135 1.260 . S
C140 O131 1.240 . S
C140 O132 1.252 . S
O141 In130 2.294 . S
O141 C134 1.240 . S
O142 In130 2.326 . S
O142 C134 1.252 . S
In143 O144 2.294 . S
In143 O145 2.326 . S
In143 O149 2.266 . S
In143 O150 2.326 . S
In143 O151 2.266 . S
In143 O152 2.326 . S
In143 O154 2.294 . S
In143 O155 2.326 . S
O144 In143 2.294 . S
O144 C153 1.240 . S
O145 In143 2.326 . S
O145 C153 1.252 . S
C146 O149 1.252 . S
C146 O150 1.260 . S
C147 O154 1.240 . S
C147 O155 1.252 . S
C148 O151 1.252 . S
C148 O152 1.260 . S
O149 In143 2.266 . S
O149 C146 1.252 . S
O150 In143 2.326 . S
O150 C146 1.260 . S
O151 In143 2.266 . S
O151 C148 1.252 . S
O152 In143 2.326 . S
O152 C148 1.260 . S
C153 O144 1.240 . S
C153 O145 1.252 . S
O154 In143 2.294 . S
O154 C147 1.240 . S
O155 In143 2.326 . S
O155 C147 1.252 . S
In156 O157 2.294 . S
In156 O158 2.326 . S
In156 O162 2.266 . S
In156 O163 2.326 . S
In156 O164 2.266 . S
In156 O165 2.326 . S
In156 O167 2.294 . S
In156 O168 2.326 . S
O157 In156 2.294 . S
O157 C166 1.240 . S
O158 In156 2.326 . S
O158 C166 1.252 . S
C159 O162 1.252 . S
C159 O163 1.260 . S
C160 O167 1.240 . S
C160 O168 1.252 . S
C161 O164 1.252 . S
C161 O165 1.260 . S
O162 In156 2.266 . S
O162 C159 1.252 . S
O163 In156 2.326 . S
O163 C159 1.260 . S
O164 In156 2.266 . S
O164 C161 1.252 . S
O165 In156 2.326 . S
O165 C161 1.260 . S
C166 O157 1.240 . S
C166 O158 1.252 . S
O167 In156 2.294 . S
O167 C160 1.240 . S
O168 In156 2.326 . S
O168 C160 1.252 . S
In169 O170 2.294 . S
In169 O171 2.326 . S
In169 O175 2.266 . S
In169 O176 2.326 . S
In169 O177 2.266 . S
In169 O178 2.326 . S
In169 O180 2.294 . S
In169 O181 2.326 . S
O170 In169 2.294 . S
O170 C179 1.240 . S
O171 In169 2.326 . S
O171 C179 1.252 . S
C172 O175 1.252 . S
C172 O176 1.260 . S
C173 O180 1.240 . S
C173 O181 1.252 . S
C174 O177 1.252 . S
C174 O178 1.260 . S
O175 In169 2.266 . S
O175 C172 1.252 . S
O176 In169 2.326 . S
O176 C172 1.260 . S
O177 In169 2.266 . S
O177 C174 1.252 . S
O178 In169 2.326 . S
O178 C174 1.260 . S
C179 O170 1.240 . S
C179 O171 1.252 . S
O180 In169 2.294 . S
O180 C173 1.240 . S
O181 In169 2.326 . S
O181 C173 1.252 . S
In182 O183 2.294 . S
In182 O184 2.326 . S
In182 O188 2.266 . S
In182 O189 2.326 . S
In182 O190 2.266 . S
In182 O191 2.326 . S
In182 O193 2.294 . S
In182 O194 2.326 . S
O183 In182 2.294 . S
O183 C192 1.240 . S
O184 In182 2.326 . S
O184 C192 1.252 . S
C185 O188 1.252 . S
C185 O189 1.260 . S
C186 O193 1.240 . S
C186 O194 1.252 . S
C187 O190 1.252 . S
C187 O191 1.260 . S
O188 In182 2.266 . S
O188 C185 1.252 . S
O189 In182 2.326 . S
O189 C185 1.260 . S
O190 In182 2.266 . S
O190 C187 1.252 . S
O191 In182 2.326 . S
O191 C187 1.260 . S
C192 O183 1.240 . S
C192 O184 1.252 . S
O193 In182 2.294 . S
O193 C186 1.240 . S
O194 In182 2.326 . S
O194 C186 1.252 . S
In195 O196 2.294 . S
In195 O197 2.326 . S
In195 O201 2.266 . S
In195 O202 2.326 . S
In195 O203 2.266 . S
In195 O204 2.326 . S
In195 O206 2.294 . S
In195 O207 2.326 . S
O196 In195 2.294 . S
O196 C205 1.240 . S
O197 In195 2.326 . S
O197 C205 1.252 . S
C198 O201 1.252 . S
C198 O202 1.260 . S
C199 O206 1.240 . S
C199 O207 1.252 . S
C200 O203 1.252 . S
C200 O204 1.260 . S
O201 In195 2.266 . S
O201 C198 1.252 . S
O202 In195 2.326 . S
O202 C198 1.260 . S
O203 In195 2.266 . S
O203 C200 1.252 . S
O204 In195 2.326 . S
O204 C200 1.260 . S
C205 O196 1.240 . S
C205 O197 1.252 . S
O206 In195 2.294 . S
O206 C199 1.240 . S
O207 In195 2.326 . S
O207 C199 1.252 . S
In208 O209 2.294 . S
In208 O210 2.326 . S
In208 O214 2.266 . S
In208 O215 2.326 . S
In208 O216 2.266 . S
In208 O217 2.326 . S
In208 O219 2.294 . S
In208 O220 2.326 . S
O209 In208 2.294 . S
O209 C218 1.240 . S
O210 In208 2.326 . S
O210 C218 1.252 . S
C211 O214 1.252 . S
C211 O215 1.260 . S
C212 O219 1.240 . S
C212 O220 1.252 . S
C213 O216 1.252 . S
C213 O217 1.260 . S
O214 In208 2.266 . S
O214 C211 1.252 . S
O215 In208 2.326 . S
O215 C211 1.260 . S
O216 In208 2.266 . S
O216 C213 1.252 . S
O217 In208 2.326 . S
O217 C213 1.260 . S
C218 O209 1.240 . S
C218 O210 1.252 . S
O219 In208 2.294 . S
O219 C212 1.240 . S
O220 In208 2.326 . S
O220 C212 1.252 . S
In221 O222 2.294 . S
In221 O223 2.326 . S
In221 O227 2.266 . S
In221 O228 2.326 . S
In221 O229 2.266 . S
In221 O230 2.326 . S
In221 O232 2.294 . S
In221 O233 2.326 . S
O222 In221 2.294 . S
O222 C231 1.240 . S
O223 In221 2.326 . S
O223 C231 1.252 . S
C224 O227 1.252 . S
C224 O228 1.260 . S
C225 O232 1.240 . S
C225 O233 1.252 . S
C226 O229 1.252 . S
C226 O230 1.260 . S
O227 In221 2.266 . S
O227 C224 1.252 . S
O228 In221 2.326 . S
O228 C224 1.260 . S
O229 In221 2.266 . S
O229 C226 1.252 . S
O230 In221 2.326 . S
O230 C226 1.260 . S
C231 O222 1.240 . S
C231 O223 1.252 . S
O232 In221 2.294 . S
O232 C225 1.240 . S
O233 In221 2.326 . S
O233 C225 1.252 . S
In234 O235 2.294 . S
In234 O236 2.326 . S
In234 O240 2.266 . S
In234 O241 2.326 . S
In234 O242 2.266 . S
In234 O243 2.326 . S
In234 O245 2.294 . S
In234 O246 2.326 . S
O235 In234 2.294 . S
O235 C244 1.240 . S
O236 In234 2.326 . S
O236 C244 1.252 . S
C237 O240 1.252 . S
C237 O241 1.260 . S
C238 O245 1.240 . S
C238 O246 1.252 . S
C239 O242 1.252 . S
C239 O243 1.260 . S
O240 In234 2.266 . S
O240 C237 1.252 . S
O241 In234 2.326 . S
O241 C237 1.260 . S
O242 In234 2.266 . S
O242 C239 1.252 . S
O243 In234 2.326 . S
O243 C239 1.260 . S
C244 O235 1.240 . S
C244 O236 1.252 . S
O245 In234 2.294 . S
O245 C238 1.240 . S
O246 In234 2.326 . S
O246 C238 1.252 . S
In247 O248 2.294 . S
In247 O249 2.326 . S
In247 O253 2.266 . S
In247 O254 2.326 . S
In247 O255 2.266 . S
In247 O256 2.326 . S
In247 O258 2.294 . S
In247 O259 2.326 . S
O248 In247 2.294 . S
O248 C257 1.240 . S
O249 In247 2.326 . S
O249 C257 1.252 . S
C250 O253 1.252 . S
C250 O254 1.260 . S
C251 O258 1.240 . S
C251 O259 1.252 . S
C252 O255 1.252 . S
C252 O256 1.260 . S
O253 In247 2.266 . S
O253 C250 1.252 . S
O254 In247 2.326 . S
O254 C250 1.260 . S
O255 In247 2.266 . S
O255 C252 1.252 . S
O256 In247 2.326 . S
O256 C252 1.260 . S
C257 O248 1.240 . S
C257 O249 1.252 . S
O258 In247 2.294 . S
O258 C251 1.240 . S
O259 In247 2.326 . S
O259 C251 1.252 . S
In260 O261 2.294 . S
In260 O262 2.326 . S
In260 O266 2.266 . S
In260 O267 2.326 . S
In260 O268 2.266 . S
In260 O269 2.326 . S
In260 O271 2.294 . S
In260 O272 2.326 . S
O261 In260 2.294 . S
O261 C270 1.240 . S
O262 In260 2.326 . S
O262 C270 1.252 . S
C263 O266 1.252 . S
C263 O267 1.260 . S
C264 O271 1.240 . S
C264 O272 1.252 . S
C265 O268 1.252 . S
C265 O269 1.260 . S
O266 In260 2.266 . S
O266 C263 1.252 . S
O267 In260 2.326 . S
O267 C263 1.260 . S
O268 In260 2.266 . S
O268 C265 1.252 . S
O269 In260 2.326 . S
O269 C265 1.260 . S
C270 O261 1.240 . S
C270 O262 1.252 . S
O271 In260 2.294 . S
O271 C264 1.240 . S
O272 In260 2.326 . S
O272 C264 1.252 . S
In273 O274 2.294 . S
In273 O275 2.326 . S
In273 O279 2.266 . S
In273 O280 2.326 . S
In273 O281 2.266 . S
In273 O282 2.326 . S
In273 O284 2.294 . S
In273 O285 2.326 . S
O274 In273 2.294 . S
O274 C283 1.240 . S
O275 In273 2.326 . S
O275 C283 1.252 . S
C276 O279 1.252 . S
C276 O280 1.260 . S
C277 O284 1.240 . S
C277 O285 1.252 . S
C278 O281 1.252 . S
C278 O282 1.260 . S
O279 In273 2.266 . S
O279 C276 1.252 . S
O280 In273 2.326 . S
O280 C276 1.260 . S
O281 In273 2.266 . S
O281 C278 1.252 . S
O282 In273 2.326 . S
O282 C278 1.260 . S
C283 O274 1.240 . S
C283 O275 1.252 . S
O284 In273 2.294 . S
O284 C277 1.240 . S
O285 In273 2.326 . S
O285 C277 1.252 . S
In286 O287 2.294 . S
In286 O288 2.326 . S
In286 O292 2.266 . S
In286 O293 2.326 . S
In286 O294 2.266 . S
In286 O295 2.326 . S
In286 O297 2.294 . S
In286 O298 2.326 . S
O287 In286 2.294 . S
O287 C296 1.240 . S
O288 In286 2.326 . S
O288 C296 1.252 . S
C289 O292 1.252 . S
C289 O293 1.260 . S
C290 O297 1.240 . S
C290 O298 1.252 . S
C291 O294 1.252 . S
C291 O295 1.260 . S
O292 In286 2.266 . S
O292 C289 1.252 . S
O293 In286 2.326 . S
O293 C289 1.260 . S
O294 In286 2.266 . S
O294 C291 1.252 . S
O295 In286 2.326 . S
O295 C291 1.260 . S
C296 O287 1.240 . S
C296 O288 1.252 . S
O297 In286 2.294 . S
O297 C290 1.240 . S
O298 In286 2.326 . S
O298 C290 1.252 . S
In299 O300 2.294 . S
In299 O301 2.326 . S
In299 O305 2.266 . S
In299 O306 2.326 . S
In299 O307 2.266 . S
In299 O308 2.326 . S
In299 O310 2.294 . S
In299 O311 2.326 . S
O300 In299 2.294 . S
O300 C309 1.240 . S
O301 In299 2.326 . S
O301 C309 1.252 . S
C302 O305 1.252 . S
C302 O306 1.260 . S
C303 O310 1.240 . S
C303 O311 1.252 . S
C304 O307 1.252 . S
C304 O308 1.260 . S
O305 In299 2.266 . S
O305 C302 1.252 . S
O306 In299 2.326 . S
O306 C302 1.260 . S
O307 In299 2.266 . S
O307 C304 1.252 . S
O308 In299 2.326 . S
O308 C304 1.260 . S
C309 O300 1.240 . S
C309 O301 1.252 . S
O310 In299 2.294 . S
O310 C303 1.240 . S
O311 In299 2.326 . S
O311 C303 1.252 . S
In312 O313 2.294 . S
In312 O314 2.326 . S
In312 O318 2.266 . S
In312 O319 2.326 . S
In312 O320 2.266 . S
In312 O321 2.326 . S
In312 O323 2.294 . S
In312 O324 2.326 . S
O313 In312 2.294 . S
O313 C322 1.240 . S
O314 In312 2.326 . S
O314 C322 1.252 . S
C315 O318 1.252 . S
C315 O319 1.260 . S
C316 O323 1.240 . S
C316 O324 1.252 . S
C317 O320 1.252 . S
C317 O321 1.260 . S
O318 In312 2.266 . S
O318 C315 1.252 . S
O319 In312 2.326 . S
O319 C315 1.260 . S
O320 In312 2.266 . S
O320 C317 1.252 . S
O321 In312 2.326 . S
O321 C317 1.260 . S
C322 O313 1.240 . S
C322 O314 1.252 . S
O323 In312 2.294 . S
O323 C316 1.240 . S
O324 In312 2.326 . S
O324 C316 1.252 . S
In325 O326 2.294 . S
In325 O327 2.326 . S
In325 O331 2.266 . S
In325 O332 2.326 . S
In325 O333 2.266 . S
In325 O334 2.326 . S
In325 O336 2.294 . S
In325 O337 2.326 . S
O326 In325 2.294 . S
O326 C335 1.240 . S
O327 In325 2.326 . S
O327 C335 1.252 . S
C328 O331 1.252 . S
C328 O332 1.260 . S
C329 O336 1.240 . S
C329 O337 1.252 . S
C330 O333 1.252 . S
C330 O334 1.260 . S
O331 In325 2.266 . S
O331 C328 1.252 . S
O332 In325 2.326 . S
O332 C328 1.260 . S
O333 In325 2.266 . S
O333 C330 1.252 . S
O334 In325 2.326 . S
O334 C330 1.260 . S
C335 O326 1.240 . S
C335 O327 1.252 . S
O336 In325 2.294 . S
O336 C329 1.240 . S
O337 In325 2.326 . S
O337 C329 1.252 . S
In338 O339 2.294 . S
In338 O340 2.326 . S
In338 O344 2.266 . S
In338 O345 2.326 . S
In338 O346 2.266 . S
In338 O347 2.326 . S
In338 O349 2.294 . S
In338 O350 2.326 . S
O339 In338 2.294 . S
O339 C348 1.240 . S
O340 In338 2.326 . S
O340 C348 1.252 . S
C341 O344 1.252 . S
C341 O345 1.260 . S
C342 O349 1.240 . S
C342 O350 1.252 . S
C343 O346 1.252 . S
C343 O347 1.260 . S
O344 In338 2.266 . S
O344 C341 1.252 . S
O345 In338 2.326 . S
O345 C341 1.260 . S
O346 In338 2.266 . S
O346 C343 1.252 . S
O347 In338 2.326 . S
O347 C343 1.260 . S
C348 O339 1.240 . S
C348 O340 1.252 . S
O349 In338 2.294 . S
O349 C342 1.240 . S
O350 In338 2.326 . S
O350 C342 1.252 . S
In351 O352 2.294 . S
In351 O353 2.326 . S
In351 O357 2.266 . S
In351 O358 2.326 . S
In351 O359 2.266 . S
In351 O360 2.326 . S
In351 O362 2.294 . S
In351 O363 2.326 . S
O352 In351 2.294 . S
O352 C361 1.240 . S
O353 In351 2.326 . S
O353 C361 1.252 . S
C354 O357 1.252 . S
C354 O358 1.260 . S
C355 O362 1.240 . S
C355 O363 1.252 . S
C356 O359 1.252 . S
C356 O360 1.260 . S
O357 In351 2.266 . S
O357 C354 1.252 . S
O358 In351 2.326 . S
O358 C354 1.260 . S
O359 In351 2.266 . S
O359 C356 1.252 . S
O360 In351 2.326 . S
O360 C356 1.260 . S
C361 O352 1.240 . S
C361 O353 1.252 . S
O362 In351 2.294 . S
O362 C355 1.240 . S
O363 In351 2.326 . S
O363 C355 1.252 . S
In364 O365 2.294 . S
In364 O366 2.326 . S
In364 O370 2.266 . S
In364 O371 2.326 . S
In364 O372 2.266 . S
In364 O373 2.326 . S
In364 O375 2.294 . S
In364 O376 2.326 . S
O365 In364 2.294 . S
O365 C374 1.240 . S
O366 In364 2.326 . S
O366 C374 1.252 . S
C367 O370 1.252 . S
C367 O371 1.260 . S
C368 O375 1.240 . S
C368 O376 1.252 . S
C369 O372 1.252 . S
C369 O373 1.260 . S
O370 In364 2.266 . S
O370 C367 1.252 . S
O371 In364 2.326 . S
O371 C367 1.260 . S
O372 In364 2.266 . S
O372 C369 1.252 . S
O373 In364 2.326 . S
O373 C369 1.260 . S
C374 O365 1.240 . S
C374 O366 1.252 . S
O375 In364 2.294 . S
O375 C368 1.240 . S
O376 In364 2.326 . S
O376 C368 1.252 . S
In377 O378 2.294 . S
In377 O379 2.326 . S
In377 O383 2.266 . S
In377 O384 2.326 . S
In377 O385 2.266 . S
In377 O386 2.326 . S
In377 O388 2.294 . S
In377 O389 2.326 . S
O378 In377 2.294 . S
O378 C387 1.240 . S
O379 In377 2.326 . S
O379 C387 1.252 . S
C380 O383 1.252 . S
C380 O384 1.260 . S
C381 O388 1.240 . S
C381 O389 1.252 . S
C382 O385 1.252 . S
C382 O386 1.260 . S
O383 In377 2.266 . S
O383 C380 1.252 . S
O384 In377 2.326 . S
O384 C380 1.260 . S
O385 In377 2.266 . S
O385 C382 1.252 . S
O386 In377 2.326 . S
O386 C382 1.260 . S
C387 O378 1.240 . S
C387 O379 1.252 . S
O388 In377 2.294 . S
O388 C381 1.240 . S
O389 In377 2.326 . S
O389 C381 1.252 . S
In390 O391 2.294 . S
In390 O392 2.326 . S
In390 O396 2.266 . S
In390 O397 2.326 . S
In390 O398 2.266 . S
In390 O399 2.326 . S
In390 O401 2.294 . S
In390 O402 2.326 . S
O391 In390 2.294 . S
O391 C400 1.240 . S
O392 In390 2.326 . S
O392 C400 1.252 . S
C393 O396 1.252 . S
C393 O397 1.260 . S
C394 O401 1.240 . S
C394 O402 1.252 . S
C395 O398 1.252 . S
C395 O399 1.260 . S
O396 In390 2.266 . S
O396 C393 1.252 . S
O397 In390 2.326 . S
O397 C393 1.260 . S
O398 In390 2.266 . S
O398 C395 1.252 . S
O399 In390 2.326 . S
O399 C395 1.260 . S
C400 O391 1.240 . S
C400 O392 1.252 . S
O401 In390 2.294 . S
O401 C394 1.240 . S
O402 In390 2.326 . S
O402 C394 1.252 . S
In403 O404 2.294 . S
In403 O405 2.326 . S
In403 O409 2.266 . S
In403 O410 2.326 . S
In403 O411 2.266 . S
In403 O412 2.326 . S
In403 O414 2.294 . S
In403 O415 2.326 . S
O404 In403 2.294 . S
O404 C413 1.240 . S
O405 In403 2.326 . S
O405 C413 1.252 . S
C406 O409 1.252 . S
C406 O410 1.260 . S
C407 O414 1.240 . S
C407 O415 1.252 . S
C408 O411 1.252 . S
C408 O412 1.260 . S
O409 In403 2.266 . S
O409 C406 1.252 . S
O410 In403 2.326 . S
O410 C406 1.260 . S
O411 In403 2.266 . S
O411 C408 1.252 . S
O412 In403 2.326 . S
O412 C408 1.260 . S
C413 O404 1.240 . S
C413 O405 1.252 . S
O414 In403 2.294 . S
O414 C407 1.240 . S
O415 In403 2.326 . S
O415 C407 1.252 . S
H416 C434 0.951 . S
H417 C436 0.951 . S
H418 C438 0.950 . S
H419 C439 0.950 . S
H420 C441 0.950 . S
H421 C444 0.950 . S
H422 C445 0.950 . S
H423 C447 0.950 . S
H424 C448 0.950 . S
H425 C449 0.951 . S
H426 C451 0.951 . S
H427 C453 0.950 . S
H428 C454 0.950 . S
H429 C456 0.950 . S
H430 C459 0.950 . S
H431 C460 0.950 . S
H432 C462 0.950 . S
H433 C463 0.950 . S
C434 H416 0.951 . S
C434 C435 1.366 . S
C434 C436 1.388 . S
C435 C434 1.366 . S
C435 C439 1.385 . S
C436 H417 0.951 . S
C436 C434 1.388 . S
C436 C437 1.366 . S
C437 C436 1.366 . S
C437 C438 1.414 . S
C437 C440 1.499 . S
C438 H418 0.950 . S
C438 C437 1.414 . S
C438 C439 1.374 . S
C439 H419 0.950 . S
C439 C435 1.385 . S
C439 C438 1.374 . S
C440 C437 1.499 . S
C440 C441 1.373 . S
C440 C442 1.389 . S
C441 H420 0.950 . S
C441 C440 1.373 . S
C441 C457 1.377 . S
C442 C440 1.389 . S
C442 C443 1.524 . S
C442 C456 1.377 . S
C443 C442 1.524 . S
C443 C444 1.397 . S
C443 C448 1.363 . S
C444 H421 0.950 . S
C444 C443 1.397 . S
C444 C445 1.334 . S
C445 H422 0.950 . S
C445 C444 1.334 . S
C445 C446 1.287 . S
C446 C445 1.287 . S
C446 C447 1.524 . S
C446 H465 0.913 . S
C447 H423 0.950 . S
C447 C446 1.524 . S
C447 C448 1.415 . S
C448 H424 0.950 . S
C448 C443 1.363 . S
C448 C447 1.415 . S
C449 H425 0.951 . S
C449 C450 1.366 . S
C449 C451 1.388 . S
C450 C449 1.366 . S
C450 C454 1.385 . S
C451 H426 0.951 . S
C451 C449 1.388 . S
C451 C452 1.366 . S
C452 C451 1.366 . S
C452 C453 1.414 . S
C452 C455 1.499 . S
C453 H427 0.950 . S
C453 C452 1.414 . S
C453 C454 1.374 . S
C454 H428 0.950 . S
C454 C450 1.385 . S
C454 C453 1.374 . S
C455 C452 1.499 . S
C455 C456 1.373 . S
C455 C457 1.389 . S
C456 H429 0.950 . S
C456 C442 1.377 . S
C456 C455 1.373 . S
C457 C441 1.377 . S
C457 C455 1.389 . S
C457 C458 1.524 . S
C458 C457 1.524 . S
C458 C459 1.397 . S
C458 C463 1.363 . S
C459 H430 0.950 . S
C459 C458 1.397 . S
C459 C460 1.334 . S
C460 H431 0.950 . S
C460 C459 1.334 . S
C460 C461 1.287 . S
C461 C460 1.287 . S
C461 C462 1.524 . S
C461 H464 0.999 . S
C462 H432 0.950 . S
C462 C461 1.524 . S
C462 C463 1.415 . S
C463 H433 0.950 . S
C463 C458 1.363 . S
C463 C462 1.415 . S
H464 C461 0.999 . S
H465 C446 0.913 . S
H466 C484 0.951 . S
H467 C486 0.951 . S
H468 C488 0.950 . S
H469 C489 0.950 . S
H470 C491 0.950 . S
H471 C494 0.950 . S
H472 C495 0.950 . S
H473 C497 0.950 . S
H474 C498 0.950 . S
H475 C499 0.951 . S
H476 C501 0.951 . S
H477 C503 0.950 . S
H478 C504 0.950 . S
H479 C506 0.950 . S
H480 C509 0.950 . S
H481 C510 0.950 . S
H482 C512 0.950 . S
H483 C513 0.950 . S
C484 H466 0.951 . S
C484 C485 1.366 . S
C484 C486 1.388 . S
C485 C484 1.366 . S
C485 C489 1.385 . S
C486 H467 0.951 . S
C486 C484 1.388 . S
C486 C487 1.366 . S
C487 C486 1.366 . S
C487 C488 1.414 . S
C487 C490 1.499 . S
C488 H468 0.950 . S
C488 C487 1.414 . S
C488 C489 1.374 . S
C489 H469 0.950 . S
C489 C485 1.385 . S
C489 C488 1.374 . S
C490 C487 1.499 . S
C490 C491 1.373 . S
C490 C492 1.389 . S
C491 H470 0.950 . S
C491 C490 1.373 . S
C491 C507 1.377 . S
C492 C490 1.389 . S
C492 C493 1.524 . S
C492 C506 1.377 . S
C493 C492 1.524 . S
C493 C494 1.397 . S
C493 C498 1.363 . S
C494 H471 0.950 . S
C494 C493 1.397 . S
C494 C495 1.334 . S
C495 H472 0.950 . S
C495 C494 1.334 . S
C495 C496 1.287 . S
C496 C495 1.287 . S
C496 C497 1.524 . S
C496 H515 0.913 . S
C497 H473 0.950 . S
C497 C496 1.524 . S
C497 C498 1.415 . S
C498 H474 0.950 . S
C498 C493 1.363 . S
C498 C497 1.415 . S
C499 H475 0.951 . S
C499 C500 1.366 . S
C499 C501 1.388 . S
C500 C499 1.366 . S
C500 C504 1.385 . S
C501 H476 0.951 . S
C501 C499 1.388 . S
C501 C502 1.366 . S
C502 C501 1.366 . S
C502 C503 1.414 . S
C502 C505 1.499 . S
C503 H477 0.950 . S
C503 C502 1.414 . S
C503 C504 1.374 . S
C504 H478 0.950 . S
C504 C500 1.385 . S
C504 C503 1.374 . S
C505 C502 1.499 . S
C505 C506 1.373 . S
C505 C507 1.389 . S
C506 H479 0.950 . S
C506 C492 1.377 . S
C506 C505 1.373 . S
C507 C491 1.377 . S
C507 C505 1.389 . S
C507 C508 1.524 . S
C508 C507 1.524 . S
C508 C509 1.397 . S
C508 C513 1.363 . S
C509 H480 0.950 . S
C509 C508 1.397 . S
C509 C510 1.334 . S
C510 H481 0.950 . S
C510 C509 1.334 . S
C510 C511 1.287 . S
C511 C510 1.287 . S
C511 C512 1.524 . S
C511 H514 0.999 . S
C512 H482 0.950 . S
C512 C511 1.524 . S
C512 C513 1.415 . S
C513 H483 0.950 . S
C513 C508 1.363 . S
C513 C512 1.415 . S
H514 C511 0.999 . S
H515 C496 0.913 . S
H516 C534 0.951 . S
H517 C536 0.951 . S
H518 C538 0.950 . S
H519 C539 0.950 . S
H520 C541 0.950 . S
H521 C544 0.950 . S
H522 C545 0.950 . S
H523 C547 0.950 . S
H524 C548 0.950 . S
H525 C549 0.951 . S
H526 C551 0.951 . S
H527 C553 0.950 . S
H528 C554 0.950 . S
H529 C556 0.950 . S
H530 C559 0.950 . S
H531 C560 0.950 . S
H532 C562 0.950 . S
H533 C563 0.950 . S
C534 H516 0.951 . S
C534 C535 1.366 . S
C534 C536 1.388 . S
C535 C534 1.366 . S
C535 C539 1.385 . S
C536 H517 0.951 . S
C536 C534 1.388 . S
C536 C537 1.366 . S
C537 C536 1.366 . S
C537 C538 1.414 . S
C537 C540 1.499 . S
C538 H518 0.950 . S
C538 C537 1.414 . S
C538 C539 1.374 . S
C539 H519 0.950 . S
C539 C535 1.385 . S
C539 C538 1.374 . S
C540 C537 1.499 . S
C540 C541 1.373 . S
C540 C542 1.389 . S
C541 H520 0.950 . S
C541 C540 1.373 . S
C541 C557 1.377 . S
C542 C540 1.389 . S
C542 C543 1.524 . S
C542 C556 1.377 . S
C543 C542 1.524 . S
C543 C544 1.397 . S
C543 C548 1.363 . S
C544 H521 0.950 . S
C544 C543 1.397 . S
C544 C545 1.334 . S
C545 H522 0.950 . S
C545 C544 1.334 . S
C545 C546 1.287 . S
C546 C545 1.287 . S
C546 C547 1.524 . S
C546 H565 0.913 . S
C547 H523 0.950 . S
C547 C546 1.524 . S
C547 C548 1.415 . S
C548 H524 0.950 . S
C548 C543 1.363 . S
C548 C547 1.415 . S
C549 H525 0.951 . S
C549 C550 1.366 . S
C549 C551 1.388 . S
C550 C549 1.366 . S
C550 C554 1.385 . S
C551 H526 0.951 . S
C551 C549 1.388 . S
C551 C552 1.366 . S
C552 C551 1.366 . S
C552 C553 1.414 . S
C552 C555 1.499 . S
C553 H527 0.950 . S
C553 C552 1.414 . S
C553 C554 1.374 . S
C554 H528 0.950 . S
C554 C550 1.385 . S
C554 C553 1.374 . S
C555 C552 1.499 . S
C555 C556 1.373 . S
C555 C557 1.389 . S
C556 H529 0.950 . S
C556 C542 1.377 . S
C556 C555 1.373 . S
C557 C541 1.377 . S
C557 C555 1.389 . S
C557 C558 1.524 . S
C558 C557 1.524 . S
C558 C559 1.397 . S
C558 C563 1.363 . S
C559 H530 0.950 . S
C559 C558 1.397 . S
C559 C560 1.334 . S
C560 H531 0.950 . S
C560 C559 1.334 . S
C560 C561 1.287 . S
C561 C560 1.287 . S
C561 C562 1.524 . S
C561 H564 0.999 . S
C562 H532 0.950 . S
C562 C561 1.524 . S
C562 C563 1.415 . S
C563 H533 0.950 . S
C563 C558 1.363 . S
C563 C562 1.415 . S
H564 C561 0.999 . S
H565 C546 0.913 . S
H566 C584 0.951 . S
H567 C586 0.951 . S
H568 C588 0.950 . S
H569 C589 0.950 . S
H570 C591 0.950 . S
H571 C594 0.950 . S
H572 C595 0.950 . S
H573 C597 0.950 . S
H574 C598 0.950 . S
H575 C599 0.951 . S
H576 C601 0.951 . S
H577 C603 0.950 . S
H578 C604 0.950 . S
H579 C606 0.950 . S
H580 C609 0.950 . S
H581 C610 0.950 . S
H582 C612 0.950 . S
H583 C613 0.950 . S
C584 H566 0.951 . S
C584 C585 1.366 . S
C584 C586 1.388 . S
C585 C584 1.366 . S
C585 C589 1.385 . S
C586 H567 0.951 . S
C586 C584 1.388 . S
C586 C587 1.366 . S
C587 C586 1.366 . S
C587 C588 1.414 . S
C587 C590 1.499 . S
C588 H568 0.950 . S
C588 C587 1.414 . S
C588 C589 1.374 . S
C589 H569 0.950 . S
C589 C585 1.385 . S
C589 C588 1.374 . S
C590 C587 1.499 . S
C590 C591 1.373 . S
C590 C592 1.389 . S
C591 H570 0.950 . S
C591 C590 1.373 . S
C591 C607 1.377 . S
C592 C590 1.389 . S
C592 C593 1.524 . S
C592 C606 1.377 . S
C593 C592 1.524 . S
C593 C594 1.397 . S
C593 C598 1.363 . S
C594 H571 0.950 . S
C594 C593 1.397 . S
C594 C595 1.334 . S
C595 H572 0.950 . S
C595 C594 1.334 . S
C595 C596 1.287 . S
C596 C595 1.287 . S
C596 C597 1.524 . S
C596 H615 0.913 . S
C597 H573 0.950 . S
C597 C596 1.524 . S
C597 C598 1.415 . S
C598 H574 0.950 . S
C598 C593 1.363 . S
C598 C597 1.415 . S
C599 H575 0.951 . S
C599 C600 1.366 . S
C599 C601 1.388 . S
C600 C599 1.366 . S
C600 C604 1.385 . S
C601 H576 0.951 . S
C601 C599 1.388 . S
C601 C602 1.366 . S
C602 C601 1.366 . S
C602 C603 1.414 . S
C602 C605 1.499 . S
C603 H577 0.950 . S
C603 C602 1.414 . S
C603 C604 1.374 . S
C604 H578 0.950 . S
C604 C600 1.385 . S
C604 C603 1.374 . S
C605 C602 1.499 . S
C605 C606 1.373 . S
C605 C607 1.389 . S
C606 H579 0.950 . S
C606 C592 1.377 . S
C606 C605 1.373 . S
C607 C591 1.377 . S
C607 C605 1.389 . S
C607 C608 1.524 . S
C608 C607 1.524 . S
C608 C609 1.397 . S
C608 C613 1.363 . S
C609 H580 0.950 . S
C609 C608 1.397 . S
C609 C610 1.334 . S
C610 H581 0.950 . S
C610 C609 1.334 . S
C610 C611 1.287 . S
C611 C610 1.287 . S
C611 C612 1.524 . S
C611 H614 0.999 . S
C612 H582 0.950 . S
C612 C611 1.524 . S
C612 C613 1.415 . S
C613 H583 0.950 . S
C613 C608 1.363 . S
C613 C612 1.415 . S
H614 C611 0.999 . S
H615 C596 0.913 . S
H616 C634 0.951 . S
H617 C636 0.951 . S
H618 C638 0.950 . S
H619 C639 0.950 . S
H620 C641 0.950 . S
H621 C644 0.950 . S
H622 C645 0.950 . S
H623 C647 0.950 . S
H624 C648 0.950 . S
H625 C649 0.951 . S
H626 C651 0.951 . S
H627 C653 0.950 . S
H628 C654 0.950 . S
H629 C656 0.950 . S
H630 C659 0.950 . S
H631 C660 0.950 . S
H632 C662 0.950 . S
H633 C663 0.950 . S
C634 H616 0.951 . S
C634 C635 1.366 . S
C634 C636 1.388 . S
C635 C634 1.366 . S
C635 C639 1.385 . S
C636 H617 0.951 . S
C636 C634 1.388 . S
C636 C637 1.366 . S
C637 C636 1.366 . S
C637 C638 1.414 . S
C637 C640 1.499 . S
C638 H618 0.950 . S
C638 C637 1.414 . S
C638 C639 1.374 . S
C639 H619 0.950 . S
C639 C635 1.385 . S
C639 C638 1.374 . S
C640 C637 1.499 . S
C640 C641 1.373 . S
C640 C642 1.389 . S
C641 H620 0.950 . S
C641 C640 1.373 . S
C641 C657 1.377 . S
C642 C640 1.389 . S
C642 C643 1.524 . S
C642 C656 1.377 . S
C643 C642 1.524 . S
C643 C644 1.397 . S
C643 C648 1.363 . S
C644 H621 0.950 . S
C644 C643 1.397 . S
C644 C645 1.334 . S
C645 H622 0.950 . S
C645 C644 1.334 . S
C645 C646 1.287 . S
C646 C645 1.287 . S
C646 C647 1.524 . S
C646 H665 0.913 . S
C647 H623 0.950 . S
C647 C646 1.524 . S
C647 C648 1.415 . S
C648 H624 0.950 . S
C648 C643 1.363 . S
C648 C647 1.415 . S
C649 H625 0.951 . S
C649 C650 1.366 . S
C649 C651 1.388 . S
C650 C649 1.366 . S
C650 C654 1.385 . S
C651 H626 0.951 . S
C651 C649 1.388 . S
C651 C652 1.366 . S
C652 C651 1.366 . S
C652 C653 1.414 . S
C652 C655 1.499 . S
C653 H627 0.950 . S
C653 C652 1.414 . S
C653 C654 1.374 . S
C654 H628 0.950 . S
C654 C650 1.385 . S
C654 C653 1.374 . S
C655 C652 1.499 . S
C655 C656 1.373 . S
C655 C657 1.389 . S
C656 H629 0.950 . S
C656 C642 1.377 . S
C656 C655 1.373 . S
C657 C641 1.377 . S
C657 C655 1.389 . S
C657 C658 1.524 . S
C658 C657 1.524 . S
C658 C659 1.397 . S
C658 C663 1.363 . S
C659 H630 0.950 . S
C659 C658 1.397 . S
C659 C660 1.334 . S
C660 H631 0.950 . S
C660 C659 1.334 . S
C660 C661 1.287 . S
C661 C660 1.287 . S
C661 C662 1.524 . S
C661 H664 0.999 . S
C662 H632 0.950 . S
C662 C661 1.524 . S
C662 C663 1.415 . S
C663 H633 0.950 . S
C663 C658 1.363 . S
C663 C662 1.415 . S
H664 C661 0.999 . S
H665 C646 0.913 . S
H666 C684 0.951 . S
H667 C686 0.951 . S
H668 C688 0.950 . S
H669 C689 0.950 . S
H670 C691 0.950 . S
H671 C694 0.950 . S
H672 C695 0.950 . S
H673 C697 0.950 . S
H674 C698 0.950 . S
H675 C699 0.951 . S
H676 C701 0.951 . S
H677 C703 0.950 . S
H678 C704 0.950 . S
H679 C706 0.950 . S
H680 C709 0.950 . S
H681 C710 0.950 . S
H682 C712 0.950 . S
H683 C713 0.950 . S
C684 H666 0.951 . S
C684 C685 1.366 . S
C684 C686 1.388 . S
C685 C684 1.366 . S
C685 C689 1.385 . S
C686 H667 0.951 . S
C686 C684 1.388 . S
C686 C687 1.366 . S
C687 C686 1.366 . S
C687 C688 1.414 . S
C687 C690 1.499 . S
C688 H668 0.950 . S
C688 C687 1.414 . S
C688 C689 1.374 . S
C689 H669 0.950 . S
C689 C685 1.385 . S
C689 C688 1.374 . S
C690 C687 1.499 . S
C690 C691 1.373 . S
C690 C692 1.389 . S
C691 H670 0.950 . S
C691 C690 1.373 . S
C691 C707 1.377 . S
C692 C690 1.389 . S
C692 C693 1.524 . S
C692 C706 1.377 . S
C693 C692 1.524 . S
C693 C694 1.397 . S
C693 C698 1.363 . S
C694 H671 0.950 . S
C694 C693 1.397 . S
C694 C695 1.334 . S
C695 H672 0.950 . S
C695 C694 1.334 . S
C695 C696 1.287 . S
C696 C695 1.287 . S
C696 C697 1.524 . S
C696 H715 0.913 . S
C697 H673 0.950 . S
C697 C696 1.524 . S
C697 C698 1.415 . S
C698 H674 0.950 . S
C698 C693 1.363 . S
C698 C697 1.415 . S
C699 H675 0.951 . S
C699 C700 1.366 . S
C699 C701 1.388 . S
C700 C699 1.366 . S
C700 C704 1.385 . S
C701 H676 0.951 . S
C701 C699 1.388 . S
C701 C702 1.366 . S
C702 C701 1.366 . S
C702 C703 1.414 . S
C702 C705 1.499 . S
C703 H677 0.950 . S
C703 C702 1.414 . S
C703 C704 1.374 . S
C704 H678 0.950 . S
C704 C700 1.385 . S
C704 C703 1.374 . S
C705 C702 1.499 . S
C705 C706 1.373 . S
C705 C707 1.389 . S
C706 H679 0.950 . S
C706 C692 1.377 . S
C706 C705 1.373 . S
C707 C691 1.377 . S
C707 C705 1.389 . S
C707 C708 1.524 . S
C708 C707 1.524 . S
C708 C709 1.397 . S
C708 C713 1.363 . S
C709 H680 0.950 . S
C709 C708 1.397 . S
C709 C710 1.334 . S
C710 H681 0.950 . S
C710 C709 1.334 . S
C710 C711 1.287 . S
C711 C710 1.287 . S
C711 C712 1.524 . S
C711 H714 0.999 . S
C712 H682 0.950 . S
C712 C711 1.524 . S
C712 C713 1.415 . S
C713 H683 0.950 . S
C713 C708 1.363 . S
C713 C712 1.415 . S
H714 C711 0.999 . S
H715 C696 0.913 . S
H716 C734 0.951 . S
H717 C736 0.951 . S
H718 C738 0.950 . S
H719 C739 0.950 . S
H720 C741 0.950 . S
H721 C744 0.950 . S
H722 C745 0.950 . S
H723 C747 0.950 . S
H724 C748 0.950 . S
H725 C749 0.951 . S
H726 C751 0.951 . S
H727 C753 0.950 . S
H728 C754 0.950 . S
H729 C756 0.950 . S
H730 C759 0.950 . S
H731 C760 0.950 . S
H732 C762 0.950 . S
H733 C763 0.950 . S
C734 H716 0.951 . S
C734 C735 1.366 . S
C734 C736 1.388 . S
C735 C734 1.366 . S
C735 C739 1.385 . S
C736 H717 0.951 . S
C736 C734 1.388 . S
C736 C737 1.366 . S
C737 C736 1.366 . S
C737 C738 1.414 . S
C737 C740 1.499 . S
C738 H718 0.950 . S
C738 C737 1.414 . S
C738 C739 1.374 . S
C739 H719 0.950 . S
C739 C735 1.385 . S
C739 C738 1.374 . S
C740 C737 1.499 . S
C740 C741 1.373 . S
C740 C742 1.389 . S
C741 H720 0.950 . S
C741 C740 1.373 . S
C741 C757 1.377 . S
C742 C740 1.389 . S
C742 C743 1.524 . S
C742 C756 1.377 . S
C743 C742 1.524 . S
C743 C744 1.397 . S
C743 C748 1.363 . S
C744 H721 0.950 . S
C744 C743 1.397 . S
C744 C745 1.334 . S
C745 H722 0.950 . S
C745 C744 1.334 . S
C745 C746 1.287 . S
C746 C745 1.287 . S
C746 C747 1.524 . S
C746 H765 0.913 . S
C747 H723 0.950 . S
C747 C746 1.524 . S
C747 C748 1.415 . S
C748 H724 0.950 . S
C748 C743 1.363 . S
C748 C747 1.415 . S
C749 H725 0.951 . S
C749 C750 1.366 . S
C749 C751 1.388 . S
C750 C749 1.366 . S
C750 C754 1.385 . S
C751 H726 0.951 . S
C751 C749 1.388 . S
C751 C752 1.366 . S
C752 C751 1.366 . S
C752 C753 1.414 . S
C752 C755 1.499 . S
C753 H727 0.950 . S
C753 C752 1.414 . S
C753 C754 1.374 . S
C754 H728 0.950 . S
C754 C750 1.385 . S
C754 C753 1.374 . S
C755 C752 1.499 . S
C755 C756 1.373 . S
C755 C757 1.389 . S
C756 H729 0.950 . S
C756 C742 1.377 . S
C756 C755 1.373 . S
C757 C741 1.377 . S
C757 C755 1.389 . S
C757 C758 1.524 . S
C758 C757 1.524 . S
C758 C759 1.397 . S
C758 C763 1.363 . S
C759 H730 0.950 . S
C759 C758 1.397 . S
C759 C760 1.334 . S
C760 H731 0.950 . S
C760 C759 1.334 . S
C760 C761 1.287 . S
C761 C760 1.287 . S
C761 C762 1.524 . S
C761 H764 0.999 . S
C762 H732 0.950 . S
C762 C761 1.524 . S
C762 C763 1.415 . S
C763 H733 0.950 . S
C763 C758 1.363 . S
C763 C762 1.415 . S
H764 C761 0.999 . S
H765 C746 0.913 . S
H766 C784 0.951 . S
H767 C786 0.951 . S
H768 C788 0.950 . S
H769 C789 0.950 . S
H770 C791 0.950 . S
H771 C794 0.950 . S
H772 C795 0.950 . S
H773 C797 0.950 . S
H774 C798 0.950 . S
H775 C799 0.951 . S
H776 C801 0.951 . S
H777 C803 0.950 . S
H778 C804 0.950 . S
H779 C806 0.950 . S
H780 C809 0.950 . S
H781 C810 0.950 . S
H782 C812 0.950 . S
H783 C813 0.950 . S
C784 H766 0.951 . S
C784 C785 1.366 . S
C784 C786 1.388 . S
C785 C784 1.366 . S
C785 C789 1.385 . S
C786 H767 0.951 . S
C786 C784 1.388 . S
C786 C787 1.366 . S
C787 C786 1.366 . S
C787 C788 1.414 . S
C787 C790 1.499 . S
C788 H768 0.950 . S
C788 C787 1.414 . S
C788 C789 1.374 . S
C789 H769 0.950 . S
C789 C785 1.385 . S
C789 C788 1.374 . S
C790 C787 1.499 . S
C790 C791 1.373 . S
C790 C792 1.389 . S
C791 H770 0.950 . S
C791 C790 1.373 . S
C791 C807 1.377 . S
C792 C790 1.389 . S
C792 C793 1.524 . S
C792 C806 1.377 . S
C793 C792 1.524 . S
C793 C794 1.397 . S
C793 C798 1.363 . S
C794 H771 0.950 . S
C794 C793 1.397 . S
C794 C795 1.334 . S
C795 H772 0.950 . S
C795 C794 1.334 . S
C795 C796 1.287 . S
C796 C795 1.287 . S
C796 C797 1.524 . S
C796 H815 0.913 . S
C797 H773 0.950 . S
C797 C796 1.524 . S
C797 C798 1.415 . S
C798 H774 0.950 . S
C798 C793 1.363 . S
C798 C797 1.415 . S
C799 H775 0.951 . S
C799 C800 1.366 . S
C799 C801 1.388 . S
C800 C799 1.366 . S
C800 C804 1.385 . S
C801 H776 0.951 . S
C801 C799 1.388 . S
C801 C802 1.366 . S
C802 C801 1.366 . S
C802 C803 1.414 . S
C802 C805 1.499 . S
C803 H777 0.950 . S
C803 C802 1.414 . S
C803 C804 1.374 . S
C804 H778 0.950 . S
C804 C800 1.385 . S
C804 C803 1.374 . S
C805 C802 1.499 . S
C805 C806 1.373 . S
C805 C807 1.389 . S
C806 H779 0.950 . S
C806 C792 1.377 . S
C806 C805 1.373 . S
C807 C791 1.377 . S
C807 C805 1.389 . S
C807 C808 1.524 . S
C808 C807 1.524 . S
C808 C809 1.397 . S
C808 C813 1.363 . S
C809 H780 0.950 . S
C809 C808 1.397 . S
C809 C810 1.334 . S
C810 H781 0.950 . S
C810 C809 1.334 . S
C810 C811 1.287 . S
C811 C810 1.287 . S
C811 C812 1.524 . S
C811 H814 0.999 . S
C812 H782 0.950 . S
C812 C811 1.524 . S
C812 C813 1.415 . S
C813 H783 0.950 . S
C813 C808 1.363 . S
C813 C812 1.415 . S
H814 C811 0.999 . S
H815 C796 0.913 . S
H816 C834 0.951 . S
H817 C836 0.951 . S
H818 C838 0.950 . S
H819 C839 0.950 . S
H820 C841 0.950 . S
H821 C844 0.950 . S
H822 C845 0.950 . S
H823 C847 0.950 . S
H824 C848 0.950 . S
H825 C849 0.951 . S
H826 C851 0.951 . S
H827 C853 0.950 . S
H828 C854 0.950 . S
H829 C856 0.950 . S
H830 C859 0.950 . S
H831 C860 0.950 . S
H832 C862 0.950 . S
H833 C863 0.950 . S
C834 H816 0.951 . S
C834 C835 1.366 . S
C834 C836 1.388 . S
C835 C834 1.366 . S
C835 C839 1.385 . S
C836 H817 0.951 . S
C836 C834 1.388 . S
C836 C837 1.366 . S
C837 C836 1.366 . S
C837 C838 1.414 . S
C837 C840 1.499 . S
C838 H818 0.950 . S
C838 C837 1.414 . S
C838 C839 1.374 . S
C839 H819 0.950 . S
C839 C835 1.385 . S
C839 C838 1.374 . S
C840 C837 1.499 . S
C840 C841 1.373 . S
C840 C842 1.389 . S
C841 H820 0.950 . S
C841 C840 1.373 . S
C841 C857 1.377 . S
C842 C840 1.389 . S
C842 C843 1.524 . S
C842 C856 1.377 . S
C843 C842 1.524 . S
C843 C844 1.397 . S
C843 C848 1.363 . S
C844 H821 0.950 . S
C844 C843 1.397 . S
C844 C845 1.334 . S
C845 H822 0.950 . S
C845 C844 1.334 . S
C845 C846 1.287 . S
C846 C845 1.287 . S
C846 C847 1.524 . S
C846 H865 0.913 . S
C847 H823 0.950 . S
C847 C846 1.524 . S
C847 C848 1.415 . S
C848 H824 0.950 . S
C848 C843 1.363 . S
C848 C847 1.415 . S
C849 H825 0.951 . S
C849 C850 1.366 . S
C849 C851 1.388 . S
C850 C849 1.366 . S
C850 C854 1.385 . S
C851 H826 0.951 . S
C851 C849 1.388 . S
C851 C852 1.366 . S
C852 C851 1.366 . S
C852 C853 1.414 . S
C852 C855 1.499 . S
C853 H827 0.950 . S
C853 C852 1.414 . S
C853 C854 1.374 . S
C854 H828 0.950 . S
C854 C850 1.385 . S
C854 C853 1.374 . S
C855 C852 1.499 . S
C855 C856 1.373 . S
C855 C857 1.389 . S
C856 H829 0.950 . S
C856 C842 1.377 . S
C856 C855 1.373 . S
C857 C841 1.377 . S
C857 C855 1.389 . S
C857 C858 1.524 . S
C858 C857 1.524 . S
C858 C859 1.397 . S
C858 C863 1.363 . S
C859 H830 0.950 . S
C859 C858 1.397 . S
C859 C860 1.334 . S
C860 H831 0.950 . S
C860 C859 1.334 . S
C860 C861 1.287 . S
C861 C860 1.287 . S
C861 C862 1.524 . S
C861 H864 0.999 . S
C862 H832 0.950 . S
C862 C861 1.524 . S
C862 C863 1.415 . S
C863 H833 0.950 . S
C863 C858 1.363 . S
C863 C862 1.415 . S
H864 C861 0.999 . S
H865 C846 0.913 . S
H866 C884 0.951 . S
H867 C886 0.951 . S
H868 C888 0.950 . S
H869 C889 0.950 . S
H870 C891 0.950 . S
H871 C894 0.950 . S
H872 C895 0.950 . S
H873 C897 0.950 . S
H874 C898 0.950 . S
H875 C899 0.951 . S
H876 C901 0.951 . S
H877 C903 0.950 . S
H878 C904 0.950 . S
H879 C906 0.950 . S
H880 C909 0.950 . S
H881 C910 0.950 . S
H882 C912 0.950 . S
H883 C913 0.950 . S
C884 H866 0.951 . S
C884 C885 1.366 . S
C884 C886 1.388 . S
C885 C884 1.366 . S
C885 C889 1.385 . S
C886 H867 0.951 . S
C886 C884 1.388 . S
C886 C887 1.366 . S
C887 C886 1.366 . S
C887 C888 1.414 . S
C887 C890 1.499 . S
C888 H868 0.950 . S
C888 C887 1.414 . S
C888 C889 1.374 . S
C889 H869 0.950 . S
C889 C885 1.385 . S
C889 C888 1.374 . S
C890 C887 1.499 . S
C890 C891 1.373 . S
C890 C892 1.389 . S
C891 H870 0.950 . S
C891 C890 1.373 . S
C891 C907 1.377 . S
C892 C890 1.389 . S
C892 C893 1.524 . S
C892 C906 1.377 . S
C893 C892 1.524 . S
C893 C894 1.397 . S
C893 C898 1.363 . S
C894 H871 0.950 . S
C894 C893 1.397 . S
C894 C895 1.334 . S
C895 H872 0.950 . S
C895 C894 1.334 . S
C895 C896 1.287 . S
C896 C895 1.287 . S
C896 C897 1.524 . S
C896 H915 0.913 . S
C897 H873 0.950 . S
C897 C896 1.524 . S
C897 C898 1.415 . S
C898 H874 0.950 . S
C898 C893 1.363 . S
C898 C897 1.415 . S
C899 H875 0.951 . S
C899 C900 1.366 . S
C899 C901 1.388 . S
C900 C899 1.366 . S
C900 C904 1.385 . S
C901 H876 0.951 . S
C901 C899 1.388 . S
C901 C902 1.366 . S
C902 C901 1.366 . S
C902 C903 1.414 . S
C902 C905 1.499 . S
C903 H877 0.950 . S
C903 C902 1.414 . S
C903 C904 1.374 . S
C904 H878 0.950 . S
C904 C900 1.385 . S
C904 C903 1.374 . S
C905 C902 1.499 . S
C905 C906 1.373 . S
C905 C907 1.389 . S
C906 H879 0.950 . S
C906 C892 1.377 . S
C906 C905 1.373 . S
C907 C891 1.377 . S
C907 C905 1.389 . S
C907 C908 1.524 . S
C908 C907 1.524 . S
C908 C909 1.397 . S
C908 C913 1.363 . S
C909 H880 0.950 . S
C909 C908 1.397 . S
C909 C910 1.334 . S
C910 H881 0.950 . S
C910 C909 1.334 . S
C910 C911 1.287 . S
C911 C910 1.287 . S
C911 C912 1.524 . S
C911 H914 0.999 . S
C912 H882 0.950 . S
C912 C911 1.524 . S
C912 C913 1.415 . S
C913 H883 0.950 . S
C913 C908 1.363 . S
C913 C912 1.415 . S
H914 C911 0.999 . S
H915 C896 0.913 . S
H916 C934 0.951 . S
H917 C936 0.951 . S
H918 C938 0.950 . S
H919 C939 0.950 . S
H920 C941 0.950 . S
H921 C944 0.950 . S
H922 C945 0.950 . S
H923 C947 0.950 . S
H924 C948 0.950 . S
H925 C949 0.951 . S
H926 C951 0.951 . S
H927 C953 0.950 . S
H928 C954 0.950 . S
H929 C956 0.950 . S
H930 C959 0.950 . S
H931 C960 0.950 . S
H932 C962 0.950 . S
H933 C963 0.950 . S
C934 H916 0.951 . S
C934 C935 1.366 . S
C934 C936 1.388 . S
C935 C934 1.366 . S
C935 C939 1.385 . S
C936 H917 0.951 . S
C936 C934 1.388 . S
C936 C937 1.366 . S
C937 C936 1.366 . S
C937 C938 1.414 . S
C937 C940 1.499 . S
C938 H918 0.950 . S
C938 C937 1.414 . S
C938 C939 1.374 . S
C939 H919 0.950 . S
C939 C935 1.385 . S
C939 C938 1.374 . S
C940 C937 1.499 . S
C940 C941 1.373 . S
C940 C942 1.389 . S
C941 H920 0.950 . S
C941 C940 1.373 . S
C941 C957 1.377 . S
C942 C940 1.389 . S
C942 C943 1.524 . S
C942 C956 1.377 . S
C943 C942 1.524 . S
C943 C944 1.397 . S
C943 C948 1.363 . S
C944 H921 0.950 . S
C944 C943 1.397 . S
C944 C945 1.334 . S
C945 H922 0.950 . S
C945 C944 1.334 . S
C945 C946 1.287 . S
C946 C945 1.287 . S
C946 C947 1.524 . S
C946 H965 0.913 . S
C947 H923 0.950 . S
C947 C946 1.524 . S
C947 C948 1.415 . S
C948 H924 0.950 . S
C948 C943 1.363 . S
C948 C947 1.415 . S
C949 H925 0.951 . S
C949 C950 1.366 . S
C949 C951 1.388 . S
C950 C949 1.366 . S
C950 C954 1.385 . S
C951 H926 0.951 . S
C951 C949 1.388 . S
C951 C952 1.366 . S
C952 C951 1.366 . S
C952 C953 1.414 . S
C952 C955 1.499 . S
C953 H927 0.950 . S
C953 C952 1.414 . S
C953 C954 1.374 . S
C954 H928 0.950 . S
C954 C950 1.385 . S
C954 C953 1.374 . S
C955 C952 1.499 . S
C955 C956 1.373 . S
C955 C957 1.389 . S
C956 H929 0.950 . S
C956 C942 1.377 . S
C956 C955 1.373 . S
C957 C941 1.377 . S
C957 C955 1.389 . S
C957 C958 1.524 . S
C958 C957 1.524 . S
C958 C959 1.397 . S
C958 C963 1.363 . S
C959 H930 0.950 . S
C959 C958 1.397 . S
C959 C960 1.334 . S
C960 H931 0.950 . S
C960 C959 1.334 . S
C960 C961 1.287 . S
C961 C960 1.287 . S
C961 C962 1.524 . S
C961 H964 0.999 . S
C962 H932 0.950 . S
C962 C961 1.524 . S
C962 C963 1.415 . S
C963 H933 0.950 . S
C963 C958 1.363 . S
C963 C962 1.415 . S
H964 C961 0.999 . S
H965 C946 0.913 . S
H966 C984 0.951 . S
H967 C986 0.951 . S
H968 C988 0.950 . S
H969 C989 0.950 . S
H970 C991 0.950 . S
H971 C994 0.950 . S
H972 C995 0.950 . S
H973 C997 0.950 . S
H974 C998 0.950 . S
H975 C999 0.951 . S
H976 C1001 0.951 . S
H977 C1003 0.950 . S
H978 C1004 0.950 . S
H979 C1006 0.950 . S
H980 C1009 0.950 . S
H981 C1010 0.950 . S
H982 C1012 0.950 . S
H983 C1013 0.950 . S
C984 H966 0.951 . S
C984 C985 1.366 . S
C984 C986 1.388 . S
C985 C984 1.366 . S
C985 C989 1.385 . S
C986 H967 0.951 . S
C986 C984 1.388 . S
C986 C987 1.366 . S
C987 C986 1.366 . S
C987 C988 1.414 . S
C987 C990 1.499 . S
C988 H968 0.950 . S
C988 C987 1.414 . S
C988 C989 1.374 . S
C989 H969 0.950 . S
C989 C985 1.385 . S
C989 C988 1.374 . S
C990 C987 1.499 . S
C990 C991 1.373 . S
C990 C992 1.389 . S
C991 H970 0.950 . S
C991 C990 1.373 . S
C991 C1007 1.377 . S
C992 C990 1.389 . S
C992 C993 1.524 . S
C992 C1006 1.377 . S
C993 C992 1.524 . S
C993 C994 1.397 . S
C993 C998 1.363 . S
C994 H971 0.950 . S
C994 C993 1.397 . S
C994 C995 1.334 . S
C995 H972 0.950 . S
C995 C994 1.334 . S
C995 C996 1.287 . S
C996 C995 1.287 . S
C996 C997 1.524 . S
C996 H1015 0.913 . S
C997 H973 0.950 . S
C997 C996 1.524 . S
C997 C998 1.415 . S
C998 H974 0.950 . S
C998 C993 1.363 . S
C998 C997 1.415 . S
C999 H975 0.951 . S
C999 C1000 1.366 . S
C999 C1001 1.388 . S
C1000 C999 1.366 . S
C1000 C1004 1.385 . S
C1001 H976 0.951 . S
C1001 C999 1.388 . S
C1001 C1002 1.366 . S
C1002 C1001 1.366 . S
C1002 C1003 1.414 . S
C1002 C1005 1.499 . S
C1003 H977 0.950 . S
C1003 C1002 1.414 . S
C1003 C1004 1.374 . S
C1004 H978 0.950 . S
C1004 C1000 1.385 . S
C1004 C1003 1.374 . S
C1005 C1002 1.499 . S
C1005 C1006 1.373 . S
C1005 C1007 1.389 . S
C1006 H979 0.950 . S
C1006 C992 1.377 . S
C1006 C1005 1.373 . S
C1007 C991 1.377 . S
C1007 C1005 1.389 . S
C1007 C1008 1.524 . S
C1008 C1007 1.524 . S
C1008 C1009 1.397 . S
C1008 C1013 1.363 . S
C1009 H980 0.950 . S
C1009 C1008 1.397 . S
C1009 C1010 1.334 . S
C1010 H981 0.950 . S
C1010 C1009 1.334 . S
C1010 C1011 1.287 . S
C1011 C1010 1.287 . S
C1011 C1012 1.524 . S
C1011 H1014 0.999 . S
C1012 H982 0.950 . S
C1012 C1011 1.524 . S
C1012 C1013 1.415 . S
C1013 H983 0.950 . S
C1013 C1008 1.363 . S
C1013 C1012 1.415 . S
H1014 C1011 0.999 . S
H1015 C996 0.913 . S
H1016 C1034 0.951 . S
H1017 C1036 0.951 . S
H1018 C1038 0.950 . S
H1019 C1039 0.950 . S
H1020 C1041 0.950 . S
H1021 C1044 0.950 . S
H1022 C1045 0.950 . S
H1023 C1047 0.950 . S
H1024 C1048 0.950 . S
H1025 C1049 0.951 . S
H1026 C1051 0.951 . S
H1027 C1053 0.950 . S
H1028 C1054 0.950 . S
H1029 C1056 0.950 . S
H1030 C1059 0.950 . S
H1031 C1060 0.950 . S
H1032 C1062 0.950 . S
H1033 C1063 0.950 . S
C1034 H1016 0.951 . S
C1034 C1035 1.366 . S
C1034 C1036 1.388 . S
C1035 C1034 1.366 . S
C1035 C1039 1.385 . S
C1036 H1017 0.951 . S
C1036 C1034 1.388 . S
C1036 C1037 1.366 . S
C1037 C1036 1.366 . S
C1037 C1038 1.414 . S
C1037 C1040 1.499 . S
C1038 H1018 0.950 . S
C1038 C1037 1.414 . S
C1038 C1039 1.374 . S
C1039 H1019 0.950 . S
C1039 C1035 1.385 . S
C1039 C1038 1.374 . S
C1040 C1037 1.499 . S
C1040 C1041 1.373 . S
C1040 C1042 1.389 . S
C1041 H1020 0.950 . S
C1041 C1040 1.373 . S
C1041 C1057 1.377 . S
C1042 C1040 1.389 . S
C1042 C1043 1.524 . S
C1042 C1056 1.377 . S
C1043 C1042 1.524 . S
C1043 C1044 1.397 . S
C1043 C1048 1.363 . S
C1044 H1021 0.950 . S
C1044 C1043 1.397 . S
C1044 C1045 1.334 . S
C1045 H1022 0.950 . S
C1045 C1044 1.334 . S
C1045 C1046 1.287 . S
C1046 C1045 1.287 . S
C1046 C1047 1.524 . S
C1046 H1065 0.913 . S
C1047 H1023 0.950 . S
C1047 C1046 1.524 . S
C1047 C1048 1.415 . S
C1048 H1024 0.950 . S
C1048 C1043 1.363 . S
C1048 C1047 1.415 . S
C1049 H1025 0.951 . S
C1049 C1050 1.366 . S
C1049 C1051 1.388 . S
C1050 C1049 1.366 . S
C1050 C1054 1.385 . S
C1051 H1026 0.951 . S
C1051 C1049 1.388 . S
C1051 C1052 1.366 . S
C1052 C1051 1.366 . S
C1052 C1053 1.414 . S
C1052 C1055 1.499 . S
C1053 H1027 0.950 . S
C1053 C1052 1.414 . S
C1053 C1054 1.374 . S
C1054 H1028 0.950 . S
C1054 C1050 1.385 . S
C1054 C1053 1.374 . S
C1055 C1052 1.499 . S
C1055 C1056 1.373 . S
C1055 C1057 1.389 . S
C1056 H1029 0.950 . S
C1056 C1042 1.377 . S
C1056 C1055 1.373 . S
C1057 C1041 1.377 . S
C1057 C1055 1.389 . S
C1057 C1058 1.524 . S
C1058 C1057 1.524 . S
C1058 C1059 1.397 . S
C1058 C1063 1.363 . S
C1059 H1030 0.950 . S
C1059 C1058 1.397 . S
C1059 C1060 1.334 . S
C1060 H1031 0.950 . S
C1060 C1059 1.334 . S
C1060 C1061 1.287 . S
C1061 C1060 1.287 . S
C1061 C1062 1.524 . S
C1061 H1064 0.999 . S
C1062 H1032 0.950 . S
C1062 C1061 1.524 . S
C1062 C1063 1.415 . S
C1063 H1033 0.950 . S
C1063 C1058 1.363 . S
C1063 C1062 1.415 . S
H1064 C1061 0.999 . S
H1065 C1046 0.913 . S
H1066 C1084 0.951 . S
H1067 C1086 0.951 . S
H1068 C1088 0.950 . S
H1069 C1089 0.950 . S
H1070 C1091 0.950 . S
H1071 C1094 0.950 . S
H1072 C1095 0.950 . S
H1073 C1097 0.950 . S
H1074 C1098 0.950 . S
H1075 C1099 0.951 . S
H1076 C1101 0.951 . S
H1077 C1103 0.950 . S
H1078 C1104 0.950 . S
H1079 C1106 0.950 . S
H1080 C1109 0.950 . S
H1081 C1110 0.950 . S
H1082 C1112 0.950 . S
H1083 C1113 0.950 . S
C1084 H1066 0.951 . S
C1084 C1085 1.366 . S
C1084 C1086 1.388 . S
C1085 C1084 1.366 . S
C1085 C1089 1.385 . S
C1086 H1067 0.951 . S
C1086 C1084 1.388 . S
C1086 C1087 1.366 . S
C1087 C1086 1.366 . S
C1087 C1088 1.414 . S
C1087 C1090 1.499 . S
C1088 H1068 0.950 . S
C1088 C1087 1.414 . S
C1088 C1089 1.374 . S
C1089 H1069 0.950 . S
C1089 C1085 1.385 . S
C1089 C1088 1.374 . S
C1090 C1087 1.499 . S
C1090 C1091 1.373 . S
C1090 C1092 1.389 . S
C1091 H1070 0.950 . S
C1091 C1090 1.373 . S
C1091 C1107 1.377 . S
C1092 C1090 1.389 . S
C1092 C1093 1.524 . S
C1092 C1106 1.377 . S
C1093 C1092 1.524 . S
C1093 C1094 1.397 . S
C1093 C1098 1.363 . S
C1094 H1071 0.950 . S
C1094 C1093 1.397 . S
C1094 C1095 1.334 . S
C1095 H1072 0.950 . S
C1095 C1094 1.334 . S
C1095 C1096 1.287 . S
C1096 C1095 1.287 . S
C1096 C1097 1.524 . S
C1096 H1115 0.913 . S
C1097 H1073 0.950 . S
C1097 C1096 1.524 . S
C1097 C1098 1.415 . S
C1098 H1074 0.950 . S
C1098 C1093 1.363 . S
C1098 C1097 1.415 . S
C1099 H1075 0.951 . S
C1099 C1100 1.366 . S
C1099 C1101 1.388 . S
C1100 C1099 1.366 . S
C1100 C1104 1.385 . S
C1101 H1076 0.951 . S
C1101 C1099 1.388 . S
C1101 C1102 1.366 . S
C1102 C1101 1.366 . S
C1102 C1103 1.414 . S
C1102 C1105 1.499 . S
C1103 H1077 0.950 . S
C1103 C1102 1.414 . S
C1103 C1104 1.374 . S
C1104 H1078 0.950 . S
C1104 C1100 1.385 . S
C1104 C1103 1.374 . S
C1105 C1102 1.499 . S
C1105 C1106 1.373 . S
C1105 C1107 1.389 . S
C1106 H1079 0.950 . S
C1106 C1092 1.377 . S
C1106 C1105 1.373 . S
C1107 C1091 1.377 . S
C1107 C1105 1.389 . S
C1107 C1108 1.524 . S
C1108 C1107 1.524 . S
C1108 C1109 1.397 . S
C1108 C1113 1.363 . S
C1109 H1080 0.950 . S
C1109 C1108 1.397 . S
C1109 C1110 1.334 . S
C1110 H1081 0.950 . S
C1110 C1109 1.334 . S
C1110 C1111 1.287 . S
C1111 C1110 1.287 . S
C1111 C1112 1.524 . S
C1111 H1114 0.999 . S
C1112 H1082 0.950 . S
C1112 C1111 1.524 . S
C1112 C1113 1.415 . S
C1113 H1083 0.950 . S
C1113 C1108 1.363 . S
C1113 C1112 1.415 . S
H1114 C1111 0.999 . S
H1115 C1096 0.913 . S
H1116 C1134 0.951 . S
H1117 C1136 0.951 . S
H1118 C1138 0.950 . S
H1119 C1139 0.950 . S
H1120 C1141 0.950 . S
H1121 C1144 0.950 . S
H1122 C1145 0.950 . S
H1123 C1147 0.950 . S
H1124 C1148 0.950 . S
H1125 C1149 0.951 . S
H1126 C1151 0.951 . S
H1127 C1153 0.950 . S
H1128 C1154 0.950 . S
H1129 C1156 0.950 . S
H1130 C1159 0.950 . S
H1131 C1160 0.950 . S
H1132 C1162 0.950 . S
H1133 C1163 0.950 . S
C1134 H1116 0.951 . S
C1134 C1135 1.366 . S
C1134 C1136 1.388 . S
C1135 C1134 1.366 . S
C1135 C1139 1.385 . S
C1136 H1117 0.951 . S
C1136 C1134 1.388 . S
C1136 C1137 1.366 . S
C1137 C1136 1.366 . S
C1137 C1138 1.414 . S
C1137 C1140 1.499 . S
C1138 H1118 0.950 . S
C1138 C1137 1.414 . S
C1138 C1139 1.374 . S
C1139 H1119 0.950 . S
C1139 C1135 1.385 . S
C1139 C1138 1.374 . S
C1140 C1137 1.499 . S
C1140 C1141 1.373 . S
C1140 C1142 1.389 . S
C1141 H1120 0.950 . S
C1141 C1140 1.373 . S
C1141 C1157 1.377 . S
C1142 C1140 1.389 . S
C1142 C1143 1.524 . S
C1142 C1156 1.377 . S
C1143 C1142 1.524 . S
C1143 C1144 1.397 . S
C1143 C1148 1.363 . S
C1144 H1121 0.950 . S
C1144 C1143 1.397 . S
C1144 C1145 1.334 . S
C1145 H1122 0.950 . S
C1145 C1144 1.334 . S
C1145 C1146 1.287 . S
C1146 C1145 1.287 . S
C1146 C1147 1.524 . S
C1146 H1165 0.913 . S
C1147 H1123 0.950 . S
C1147 C1146 1.524 . S
C1147 C1148 1.415 . S
C1148 H1124 0.950 . S
C1148 C1143 1.363 . S
C1148 C1147 1.415 . S
C1149 H1125 0.951 . S
C1149 C1150 1.366 . S
C1149 C1151 1.388 . S
C1150 C1149 1.366 . S
C1150 C1154 1.385 . S
C1151 H1126 0.951 . S
C1151 C1149 1.388 . S
C1151 C1152 1.366 . S
C1152 C1151 1.366 . S
C1152 C1153 1.414 . S
C1152 C1155 1.499 . S
C1153 H1127 0.950 . S
C1153 C1152 1.414 . S
C1153 C1154 1.374 . S
C1154 H1128 0.950 . S
C1154 C1150 1.385 . S
C1154 C1153 1.374 . S
C1155 C1152 1.499 . S
C1155 C1156 1.373 . S
C1155 C1157 1.389 . S
C1156 H1129 0.950 . S
C1156 C1142 1.377 . S
C1156 C1155 1.373 . S
C1157 C1141 1.377 . S
C1157 C1155 1.389 . S
C1157 C1158 1.524 . S
C1158 C1157 1.524 . S
C1158 C1159 1.397 . S
C1158 C1163 1.363 . S
C1159 H1130 0.950 . S
C1159 C1158 1.397 . S
C1159 C1160 1.334 . S
C1160 H1131 0.950 . S
C1160 C1159 1.334 . S
C1160 C1161 1.287 . S
C1161 C1160 1.287 . S
C1161 C1162 1.524 . S
C1161 H1164 0.999 . S
C1162 H1132 0.950 . S
C1162 C1161 1.524 . S
C1162 C1163 1.415 . S
C1163 H1133 0.950 . S
C1163 C1158 1.363 . S
C1163 C1162 1.415 . S
H1164 C1161 0.999 . S
H1165 C1146 0.913 . S
H1166 C1184 0.951 . S
H1167 C1186 0.951 . S
H1168 C1188 0.950 . S
H1169 C1189 0.950 . S
H1170 C1191 0.950 . S
H1171 C1194 0.950 . S
H1172 C1195 0.950 . S
H1173 C1197 0.950 . S
H1174 C1198 0.950 . S
H1175 C1199 0.951 . S
H1176 C1201 0.951 . S
H1177 C1203 0.950 . S
H1178 C1204 0.950 . S
H1179 C1206 0.950 . S
H1180 C1209 0.950 . S
H1181 C1210 0.950 . S
H1182 C1212 0.950 . S
H1183 C1213 0.950 . S
C1184 H1166 0.951 . S
C1184 C1185 1.366 . S
C1184 C1186 1.388 . S
C1185 C1184 1.366 . S
C1185 C1189 1.385 . S
C1186 H1167 0.951 . S
C1186 C1184 1.388 . S
C1186 C1187 1.366 . S
C1187 C1186 1.366 . S
C1187 C1188 1.414 . S
C1187 C1190 1.499 . S
C1188 H1168 0.950 . S
C1188 C1187 1.414 . S
C1188 C1189 1.374 . S
C1189 H1169 0.950 . S
C1189 C1185 1.385 . S
C1189 C1188 1.374 . S
C1190 C1187 1.499 . S
C1190 C1191 1.373 . S
C1190 C1192 1.389 . S
C1191 H1170 0.950 . S
C1191 C1190 1.373 . S
C1191 C1207 1.377 . S
C1192 C1190 1.389 . S
C1192 C1193 1.524 . S
C1192 C1206 1.377 . S
C1193 C1192 1.524 . S
C1193 C1194 1.397 . S
C1193 C1198 1.363 . S
C1194 H1171 0.950 . S
C1194 C1193 1.397 . S
C1194 C1195 1.334 . S
C1195 H1172 0.950 . S
C1195 C1194 1.334 . S
C1195 C1196 1.287 . S
C1196 C1195 1.287 . S
C1196 C1197 1.524 . S
C1196 H1215 0.913 . S
C1197 H1173 0.950 . S
C1197 C1196 1.524 . S
C1197 C1198 1.415 . S
C1198 H1174 0.950 . S
C1198 C1193 1.363 . S
C1198 C1197 1.415 . S
C1199 H1175 0.951 . S
C1199 C1200 1.366 . S
C1199 C1201 1.388 . S
C1200 C1199 1.366 . S
C1200 C1204 1.385 . S
C1201 H1176 0.951 . S
C1201 C1199 1.388 . S
C1201 C1202 1.366 . S
C1202 C1201 1.366 . S
C1202 C1203 1.414 . S
C1202 C1205 1.499 . S
C1203 H1177 0.950 . S
C1203 C1202 1.414 . S
C1203 C1204 1.374 . S
C1204 H1178 0.950 . S
C1204 C1200 1.385 . S
C1204 C1203 1.374 . S
C1205 C1202 1.499 . S
C1205 C1206 1.373 . S
C1205 C1207 1.389 . S
C1206 H1179 0.950 . S
C1206 C1192 1.377 . S
C1206 C1205 1.373 . S
C1207 C1191 1.377 . S
C1207 C1205 1.389 . S
C1207 C1208 1.524 . S
C1208 C1207 1.524 . S
C1208 C1209 1.397 . S
C1208 C1213 1.363 . S
C1209 H1180 0.950 . S
C1209 C1208 1.397 . S
C1209 C1210 1.334 . S
C1210 H1181 0.950 . S
C1210 C1209 1.334 . S
C1210 C1211 1.287 . S
C1211 C1210 1.287 . S
C1211 C1212 1.524 . S
C1211 H1214 0.999 . S
C1212 H1182 0.950 . S
C1212 C1211 1.524 . S
C1212 C1213 1.415 . S
C1213 H1183 0.950 . S
C1213 C1208 1.363 . S
C1213 C1212 1.415 . S
H1214 C1211 0.999 . S
H1215 C1196 0.913 . S
H1216 C1234 0.951 . S
H1217 C1236 0.951 . S
H1218 C1238 0.950 . S
H1219 C1239 0.950 . S
H1220 C1241 0.950 . S
H1221 C1244 0.950 . S
H1222 C1245 0.950 . S
H1223 C1247 0.950 . S
H1224 C1248 0.950 . S
H1225 C1249 0.951 . S
H1226 C1251 0.951 . S
H1227 C1253 0.950 . S
H1228 C1254 0.950 . S
H1229 C1256 0.950 . S
H1230 C1259 0.950 . S
H1231 C1260 0.950 . S
H1232 C1262 0.950 . S
H1233 C1263 0.950 . S
C1234 H1216 0.951 . S
C1234 C1235 1.366 . S
C1234 C1236 1.388 . S
C1235 C1234 1.366 . S
C1235 C1239 1.385 . S
C1236 H1217 0.951 . S
C1236 C1234 1.388 . S
C1236 C1237 1.366 . S
C1237 C1236 1.366 . S
C1237 C1238 1.414 . S
C1237 C1240 1.499 . S
C1238 H1218 0.950 . S
C1238 C1237 1.414 . S
C1238 C1239 1.374 . S
C1239 H1219 0.950 . S
C1239 C1235 1.385 . S
C1239 C1238 1.374 . S
C1240 C1237 1.499 . S
C1240 C1241 1.373 . S
C1240 C1242 1.389 . S
C1241 H1220 0.950 . S
C1241 C1240 1.373 . S
C1241 C1257 1.377 1_655 S
C1242 C1240 1.389 . S
C1242 C1243 1.524 . S
C1242 C1256 1.377 1_655 S
C1243 C1242 1.524 . S
C1243 C1244 1.397 . S
C1243 C1248 1.363 . S
C1244 H1221 0.950 . S
C1244 C1243 1.397 . S
C1244 C1245 1.334 . S
C1245 H1222 0.950 . S
C1245 C1244 1.334 . S
C1245 C1246 1.287 . S
C1246 C1245 1.287 . S
C1246 C1247 1.524 . S
C1246 H1265 0.913 . S
C1247 H1223 0.950 . S
C1247 C1246 1.524 . S
C1247 C1248 1.415 . S
C1248 H1224 0.950 . S
C1248 C1243 1.363 . S
C1248 C1247 1.415 . S
C1249 H1225 0.951 . S
C1249 C1250 1.366 . S
C1249 C1251 1.388 . S
C1250 C1249 1.366 . S
C1250 C1254 1.385 . S
C1251 H1226 0.951 . S
C1251 C1249 1.388 . S
C1251 C1252 1.366 . S
C1252 C1251 1.366 . S
C1252 C1253 1.414 . S
C1252 C1255 1.499 . S
C1253 H1227 0.950 . S
C1253 C1252 1.414 . S
C1253 C1254 1.374 . S
C1254 H1228 0.950 . S
C1254 C1250 1.385 . S
C1254 C1253 1.374 . S
C1255 C1252 1.499 . S
C1255 C1256 1.373 . S
C1255 C1257 1.389 . S
C1256 H1229 0.950 . S
C1256 C1242 1.377 1_455 S
C1256 C1255 1.373 . S
C1257 C1241 1.377 1_455 S
C1257 C1255 1.389 . S
C1257 C1258 1.524 . S
C1258 C1257 1.524 . S
C1258 C1259 1.397 . S
C1258 C1263 1.363 . S
C1259 H1230 0.950 . S
C1259 C1258 1.397 . S
C1259 C1260 1.334 . S
C1260 H1231 0.950 . S
C1260 C1259 1.334 . S
C1260 C1261 1.287 . S
C1261 C1260 1.287 . S
C1261 C1262 1.524 . S
C1261 H1264 0.999 . S
C1262 H1232 0.950 . S
C1262 C1261 1.524 . S
C1262 C1263 1.415 . S
C1263 H1233 0.950 . S
C1263 C1258 1.363 . S
C1263 C1262 1.415 . S
H1264 C1261 0.999 . S
H1265 C1246 0.913 . S
H1266 C1284 0.951 . S
H1267 C1286 0.951 . S
H1268 C1288 0.950 . S
H1269 C1289 0.950 . S
H1270 C1291 0.950 . S
H1271 C1294 0.950 . S
H1272 C1295 0.950 . S
H1273 C1297 0.950 . S
H1274 C1298 0.950 . S
H1275 C1299 0.951 . S
H1276 C1301 0.951 . S
H1277 C1303 0.950 . S
H1278 C1304 0.950 . S
H1279 C1306 0.950 . S
H1280 C1309 0.950 . S
H1281 C1310 0.950 . S
H1282 C1312 0.950 . S
H1283 C1313 0.950 . S
C1284 H1266 0.951 . S
C1284 C1285 1.366 . S
C1284 C1286 1.388 . S
C1285 C1284 1.366 . S
C1285 C1289 1.385 . S
C1286 H1267 0.951 . S
C1286 C1284 1.388 . S
C1286 C1287 1.366 . S
C1287 C1286 1.366 . S
C1287 C1288 1.414 . S
C1287 C1290 1.499 . S
C1288 H1268 0.950 . S
C1288 C1287 1.414 . S
C1288 C1289 1.374 . S
C1289 H1269 0.950 . S
C1289 C1285 1.385 . S
C1289 C1288 1.374 . S
C1290 C1287 1.499 . S
C1290 C1291 1.373 . S
C1290 C1292 1.389 . S
C1291 H1270 0.950 . S
C1291 C1290 1.373 . S
C1291 C1307 1.377 1_545 S
C1292 C1290 1.389 . S
C1292 C1293 1.524 . S
C1292 C1306 1.377 1_545 S
C1293 C1292 1.524 . S
C1293 C1294 1.397 . S
C1293 C1298 1.363 . S
C1294 H1271 0.950 . S
C1294 C1293 1.397 . S
C1294 C1295 1.334 . S
C1295 H1272 0.950 . S
C1295 C1294 1.334 . S
C1295 C1296 1.287 . S
C1296 C1295 1.287 . S
C1296 C1297 1.524 . S
C1296 H1315 0.913 . S
C1297 H1273 0.950 . S
C1297 C1296 1.524 . S
C1297 C1298 1.415 . S
C1298 H1274 0.950 . S
C1298 C1293 1.363 . S
C1298 C1297 1.415 . S
C1299 H1275 0.951 . S
C1299 C1300 1.366 . S
C1299 C1301 1.388 . S
C1300 C1299 1.366 . S
C1300 C1304 1.385 . S
C1301 H1276 0.951 . S
C1301 C1299 1.388 . S
C1301 C1302 1.366 . S
C1302 C1301 1.366 . S
C1302 C1303 1.414 . S
C1302 C1305 1.499 . S
C1303 H1277 0.950 . S
C1303 C1302 1.414 . S
C1303 C1304 1.374 . S
C1304 H1278 0.950 . S
C1304 C1300 1.385 . S
C1304 C1303 1.374 . S
C1305 C1302 1.499 . S
C1305 C1306 1.373 . S
C1305 C1307 1.389 . S
C1306 H1279 0.950 . S
C1306 C1292 1.377 1_565 S
C1306 C1305 1.373 . S
C1307 C1291 1.377 1_565 S
C1307 C1305 1.389 . S
C1307 C1308 1.524 . S
C1308 C1307 1.524 . S
C1308 C1309 1.397 . S
C1308 C1313 1.363 . S
C1309 H1280 0.950 . S
C1309 C1308 1.397 . S
C1309 C1310 1.334 . S
C1310 H1281 0.950 . S
C1310 C1309 1.334 . S
C1310 C1311 1.287 . S
C1311 C1310 1.287 . S
C1311 C1312 1.524 . S
C1311 H1314 0.999 . S
C1312 H1282 0.950 . S
C1312 C1311 1.524 . S
C1312 C1313 1.415 . S
C1313 H1283 0.950 . S
C1313 C1308 1.363 . S
C1313 C1312 1.415 . S
H1314 C1311 0.999 . S
H1315 C1296 0.913 . S
H1316 C1334 0.951 . S
H1317 C1336 0.951 . S
H1318 C1338 0.950 . S
H1319 C1339 0.950 . S
H1320 C1341 0.950 . S
H1321 C1344 0.950 . S
H1322 C1345 0.950 . S
H1323 C1347 0.950 . S
H1324 C1348 0.950 . S
H1325 C1349 0.951 . S
H1326 C1351 0.951 . S
H1327 C1353 0.950 . S
H1328 C1354 0.950 . S
H1329 C1356 0.950 . S
H1330 C1359 0.950 . S
H1331 C1360 0.950 . S
H1332 C1362 0.950 . S
H1333 C1363 0.950 . S
C1334 H1316 0.951 . S
C1334 C1335 1.366 . S
C1334 C1336 1.388 . S
C1335 C1334 1.366 . S
C1335 C1339 1.385 . S
C1336 H1317 0.951 . S
C1336 C1334 1.388 . S
C1336 C1337 1.366 . S
C1337 C1336 1.366 . S
C1337 C1338 1.414 . S
C1337 C1340 1.499 . S
C1338 H1318 0.950 . S
C1338 C1337 1.414 . S
C1338 C1339 1.374 . S
C1339 H1319 0.950 . S
C1339 C1335 1.385 . S
C1339 C1338 1.374 . S
C1340 C1337 1.499 . S
C1340 C1341 1.373 . S
C1340 C1342 1.389 . S
C1341 H1320 0.950 . S
C1341 C1340 1.373 . S
C1341 C1357 1.377 1_455 S
C1342 C1340 1.389 . S
C1342 C1343 1.524 . S
C1342 C1356 1.377 1_455 S
C1343 C1342 1.524 . S
C1343 C1344 1.397 . S
C1343 C1348 1.363 . S
C1344 H1321 0.950 . S
C1344 C1343 1.397 . S
C1344 C1345 1.334 . S
C1345 H1322 0.950 . S
C1345 C1344 1.334 . S
C1345 C1346 1.287 . S
C1346 C1345 1.287 . S
C1346 C1347 1.524 . S
C1346 H1365 0.913 . S
C1347 H1323 0.950 . S
C1347 C1346 1.524 . S
C1347 C1348 1.415 . S
C1348 H1324 0.950 . S
C1348 C1343 1.363 . S
C1348 C1347 1.415 . S
C1349 H1325 0.951 . S
C1349 C1350 1.366 . S
C1349 C1351 1.388 . S
C1350 C1349 1.366 . S
C1350 C1354 1.385 . S
C1351 H1326 0.951 . S
C1351 C1349 1.388 . S
C1351 C1352 1.366 . S
C1352 C1351 1.366 . S
C1352 C1353 1.414 . S
C1352 C1355 1.499 . S
C1353 H1327 0.950 . S
C1353 C1352 1.414 . S
C1353 C1354 1.374 . S
C1354 H1328 0.950 . S
C1354 C1350 1.385 . S
C1354 C1353 1.374 . S
C1355 C1352 1.499 . S
C1355 C1356 1.373 . S
C1355 C1357 1.389 . S
C1356 H1329 0.950 . S
C1356 C1342 1.377 1_655 S
C1356 C1355 1.373 . S
C1357 C1341 1.377 1_655 S
C1357 C1355 1.389 . S
C1357 C1358 1.524 . S
C1358 C1357 1.524 . S
C1358 C1359 1.397 . S
C1358 C1363 1.363 . S
C1359 H1330 0.950 . S
C1359 C1358 1.397 . S
C1359 C1360 1.334 . S
C1360 H1331 0.950 . S
C1360 C1359 1.334 . S
C1360 C1361 1.287 . S
C1361 C1360 1.287 . S
C1361 C1362 1.524 . S
C1361 H1364 0.999 . S
C1362 H1332 0.950 . S
C1362 C1361 1.524 . S
C1362 C1363 1.415 . S
C1363 H1333 0.950 . S
C1363 C1358 1.363 . S
C1363 C1362 1.415 . S
H1364 C1361 0.999 . S
H1365 C1346 0.913 . S
H1366 C1384 0.951 . S
H1367 C1386 0.951 . S
H1368 C1388 0.950 . S
H1369 C1389 0.950 . S
H1370 C1391 0.950 . S
H1371 C1394 0.950 . S
H1372 C1395 0.950 . S
H1373 C1397 0.950 . S
H1374 C1398 0.950 . S
H1375 C1399 0.951 . S
H1376 C1401 0.951 . S
H1377 C1403 0.950 . S
H1378 C1404 0.950 . S
H1379 C1406 0.950 . S
H1380 C1409 0.950 . S
H1381 C1410 0.950 . S
H1382 C1412 0.950 . S
H1383 C1413 0.950 . S
C1384 H1366 0.951 . S
C1384 C1385 1.366 . S
C1384 C1386 1.388 . S
C1385 C1384 1.366 . S
C1385 C1389 1.385 . S
C1386 H1367 0.951 . S
C1386 C1384 1.388 . S
C1386 C1387 1.366 . S
C1387 C1386 1.366 . S
C1387 C1388 1.414 . S
C1387 C1390 1.499 . S
C1388 H1368 0.950 . S
C1388 C1387 1.414 . S
C1388 C1389 1.374 . S
C1389 H1369 0.950 . S
C1389 C1385 1.385 . S
C1389 C1388 1.374 . S
C1390 C1387 1.499 . S
C1390 C1391 1.373 . S
C1390 C1392 1.389 . S
C1391 H1370 0.950 . S
C1391 C1390 1.373 . S
C1391 C1407 1.377 1_565 S
C1392 C1390 1.389 . S
C1392 C1393 1.524 . S
C1392 C1406 1.377 1_565 S
C1393 C1392 1.524 . S
C1393 C1394 1.397 . S
C1393 C1398 1.363 . S
C1394 H1371 0.950 . S
C1394 C1393 1.397 . S
C1394 C1395 1.334 . S
C1395 H1372 0.950 . S
C1395 C1394 1.334 . S
C1395 C1396 1.287 . S
C1396 C1395 1.287 . S
C1396 C1397 1.524 . S
C1396 H1415 0.913 . S
C1397 H1373 0.950 . S
C1397 C1396 1.524 . S
C1397 C1398 1.415 . S
C1398 H1374 0.950 . S
C1398 C1393 1.363 . S
C1398 C1397 1.415 . S
C1399 H1375 0.951 . S
C1399 C1400 1.366 . S
C1399 C1401 1.388 . S
C1400 C1399 1.366 . S
C1400 C1404 1.385 . S
C1401 H1376 0.951 . S
C1401 C1399 1.388 . S
C1401 C1402 1.366 . S
C1402 C1401 1.366 . S
C1402 C1403 1.414 . S
C1402 C1405 1.499 . S
C1403 H1377 0.950 . S
C1403 C1402 1.414 . S
C1403 C1404 1.374 . S
C1404 H1378 0.950 . S
C1404 C1400 1.385 . S
C1404 C1403 1.374 . S
C1405 C1402 1.499 . S
C1405 C1406 1.373 . S
C1405 C1407 1.389 . S
C1406 H1379 0.950 . S
C1406 C1392 1.377 1_545 S
C1406 C1405 1.373 . S
C1407 C1391 1.377 1_545 S
C1407 C1405 1.389 . S
C1407 C1408 1.524 . S
C1408 C1407 1.524 . S
C1408 C1409 1.397 . S
C1408 C1413 1.363 . S
C1409 H1380 0.950 . S
C1409 C1408 1.397 . S
C1409 C1410 1.334 . S
C1410 H1381 0.950 . S
C1410 C1409 1.334 . S
C1410 C1411 1.287 . S
C1411 C1410 1.287 . S
C1411 C1412 1.524 . S
C1411 H1414 0.999 . S
C1412 H1382 0.950 . S
C1412 C1411 1.524 . S
C1412 C1413 1.415 . S
C1413 H1383 0.950 . S
C1413 C1408 1.363 . S
C1413 C1412 1.415 . S
H1414 C1411 0.999 . S
H1415 C1396 0.913 . S
H1416 C1434 0.951 . S
H1417 C1436 0.951 . S
H1418 C1438 0.950 . S
H1419 C1439 0.950 . S
H1420 C1441 0.950 . S
H1421 C1444 0.950 . S
H1422 C1445 0.950 . S
H1423 C1447 0.950 . S
H1424 C1448 0.950 . S
H1425 C1449 0.951 . S
H1426 C1451 0.951 . S
H1427 C1453 0.950 . S
H1428 C1454 0.950 . S
H1429 C1456 0.950 . S
H1430 C1459 0.950 . S
H1431 C1460 0.950 . S
H1432 C1462 0.950 . S
H1433 C1463 0.950 . S
C1434 H1416 0.951 . S
C1434 C1435 1.366 . S
C1434 C1436 1.388 . S
C1435 C1434 1.366 . S
C1435 C1439 1.385 . S
C1436 H1417 0.951 . S
C1436 C1434 1.388 . S
C1436 C1437 1.366 . S
C1437 C1436 1.366 . S
C1437 C1438 1.414 . S
C1437 C1440 1.499 . S
C1438 H1418 0.950 . S
C1438 C1437 1.414 . S
C1438 C1439 1.374 . S
C1439 H1419 0.950 . S
C1439 C1435 1.385 . S
C1439 C1438 1.374 . S
C1440 C1437 1.499 . S
C1440 C1441 1.373 . S
C1440 C1442 1.389 . S
C1441 H1420 0.950 . S
C1441 C1440 1.373 . S
C1441 C1457 1.377 1_455 S
C1442 C1440 1.389 . S
C1442 C1443 1.524 . S
C1442 C1456 1.377 1_455 S
C1443 C1442 1.524 . S
C1443 C1444 1.397 . S
C1443 C1448 1.363 . S
C1444 H1421 0.950 . S
C1444 C1443 1.397 . S
C1444 C1445 1.334 . S
C1445 H1422 0.950 . S
C1445 C1444 1.334 . S
C1445 C1446 1.287 . S
C1446 C1445 1.287 . S
C1446 C1447 1.524 . S
C1446 H1465 0.913 . S
C1447 H1423 0.950 . S
C1447 C1446 1.524 . S
C1447 C1448 1.415 . S
C1448 H1424 0.950 . S
C1448 C1443 1.363 . S
C1448 C1447 1.415 . S
C1449 H1425 0.951 . S
C1449 C1450 1.366 . S
C1449 C1451 1.388 . S
C1450 C1449 1.366 . S
C1450 C1454 1.385 . S
C1451 H1426 0.951 . S
C1451 C1449 1.388 . S
C1451 C1452 1.366 . S
C1452 C1451 1.366 . S
C1452 C1453 1.414 . S
C1452 C1455 1.499 . S
C1453 H1427 0.950 . S
C1453 C1452 1.414 . S
C1453 C1454 1.374 . S
C1454 H1428 0.950 . S
C1454 C1450 1.385 . S
C1454 C1453 1.374 . S
C1455 C1452 1.499 . S
C1455 C1456 1.373 . S
C1455 C1457 1.389 . S
C1456 H1429 0.950 . S
C1456 C1442 1.377 1_655 S
C1456 C1455 1.373 . S
C1457 C1441 1.377 1_655 S
C1457 C1455 1.389 . S
C1457 C1458 1.524 . S
C1458 C1457 1.524 . S
C1458 C1459 1.397 . S
C1458 C1463 1.363 . S
C1459 H1430 0.950 . S
C1459 C1458 1.397 . S
C1459 C1460 1.334 . S
C1460 H1431 0.950 . S
C1460 C1459 1.334 . S
C1460 C1461 1.287 . S
C1461 C1460 1.287 . S
C1461 C1462 1.524 . S
C1461 H1464 0.999 . S
C1462 H1432 0.950 . S
C1462 C1461 1.524 . S
C1462 C1463 1.415 . S
C1463 H1433 0.950 . S
C1463 C1458 1.363 . S
C1463 C1462 1.415 . S
H1464 C1461 0.999 . S
H1465 C1446 0.913 . S
H1466 C1484 0.951 . S
H1467 C1486 0.951 . S
H1468 C1488 0.950 . S
H1469 C1489 0.950 . S
H1470 C1491 0.950 . S
H1471 C1494 0.950 . S
H1472 C1495 0.950 . S
H1473 C1497 0.950 . S
H1474 C1498 0.950 . S
H1475 C1499 0.951 . S
H1476 C1501 0.951 . S
H1477 C1503 0.950 . S
H1478 C1504 0.950 . S
H1479 C1506 0.950 . S
H1480 C1509 0.950 . S
H1481 C1510 0.950 . S
H1482 C1512 0.950 . S
H1483 C1513 0.950 . S
C1484 H1466 0.951 . S
C1484 C1485 1.366 . S
C1484 C1486 1.388 . S
C1485 C1484 1.366 . S
C1485 C1489 1.385 . S
C1486 H1467 0.951 . S
C1486 C1484 1.388 . S
C1486 C1487 1.366 . S
C1487 C1486 1.366 . S
C1487 C1488 1.414 . S
C1487 C1490 1.499 . S
C1488 H1468 0.950 . S
C1488 C1487 1.414 . S
C1488 C1489 1.374 . S
C1489 H1469 0.950 . S
C1489 C1485 1.385 . S
C1489 C1488 1.374 . S
C1490 C1487 1.499 . S
C1490 C1491 1.373 . S
C1490 C1492 1.389 . S
C1491 H1470 0.950 . S
C1491 C1490 1.373 . S
C1491 C1507 1.377 1_565 S
C1492 C1490 1.389 . S
C1492 C1493 1.524 . S
C1492 C1506 1.377 1_565 S
C1493 C1492 1.524 . S
C1493 C1494 1.397 . S
C1493 C1498 1.363 . S
C1494 H1471 0.950 . S
C1494 C1493 1.397 . S
C1494 C1495 1.334 . S
C1495 H1472 0.950 . S
C1495 C1494 1.334 . S
C1495 C1496 1.287 . S
C1496 C1495 1.287 . S
C1496 C1497 1.524 . S
C1496 H1515 0.913 . S
C1497 H1473 0.950 . S
C1497 C1496 1.524 . S
C1497 C1498 1.415 . S
C1498 H1474 0.950 . S
C1498 C1493 1.363 . S
C1498 C1497 1.415 . S
C1499 H1475 0.951 . S
C1499 C1500 1.366 . S
C1499 C1501 1.388 . S
C1500 C1499 1.366 . S
C1500 C1504 1.385 . S
C1501 H1476 0.951 . S
C1501 C1499 1.388 . S
C1501 C1502 1.366 . S
C1502 C1501 1.366 . S
C1502 C1503 1.414 . S
C1502 C1505 1.499 . S
C1503 H1477 0.950 . S
C1503 C1502 1.414 . S
C1503 C1504 1.374 . S
C1504 H1478 0.950 . S
C1504 C1500 1.385 . S
C1504 C1503 1.374 . S
C1505 C1502 1.499 . S
C1505 C1506 1.373 . S
C1505 C1507 1.389 . S
C1506 H1479 0.950 . S
C1506 C1492 1.377 1_545 S
C1506 C1505 1.373 . S
C1507 C1491 1.377 1_545 S
C1507 C1505 1.389 . S
C1507 C1508 1.524 . S
C1508 C1507 1.524 . S
C1508 C1509 1.397 . S
C1508 C1513 1.363 . S
C1509 H1480 0.950 . S
C1509 C1508 1.397 . S
C1509 C1510 1.334 . S
C1510 H1481 0.950 . S
C1510 C1509 1.334 . S
C1510 C1511 1.287 . S
C1511 C1510 1.287 . S
C1511 C1512 1.524 . S
C1511 H1514 0.999 . S
C1512 H1482 0.950 . S
C1512 C1511 1.524 . S
C1512 C1513 1.415 . S
C1513 H1483 0.950 . S
C1513 C1508 1.363 . S
C1513 C1512 1.415 . S
H1514 C1511 0.999 . S
H1515 C1496 0.913 . S
H1516 C1534 0.951 . S
H1517 C1536 0.951 . S
H1518 C1538 0.950 . S
H1519 C1539 0.950 . S
H1520 C1541 0.950 . S
H1521 C1544 0.950 . S
H1522 C1545 0.950 . S
H1523 C1547 0.950 . S
H1524 C1548 0.950 . S
H1525 C1549 0.951 . S
H1526 C1551 0.951 . S
H1527 C1553 0.950 . S
H1528 C1554 0.950 . S
H1529 C1556 0.950 . S
H1530 C1559 0.950 . S
H1531 C1560 0.950 . S
H1532 C1562 0.950 . S
H1533 C1563 0.950 . S
C1534 H1516 0.951 . S
C1534 C1535 1.366 . S
C1534 C1536 1.388 . S
C1535 C1534 1.366 . S
C1535 C1539 1.385 . S
C1536 H1517 0.951 . S
C1536 C1534 1.388 . S
C1536 C1537 1.366 . S
C1537 C1536 1.366 . S
C1537 C1538 1.414 . S
C1537 C1540 1.499 . S
C1538 H1518 0.950 . S
C1538 C1537 1.414 . S
C1538 C1539 1.374 . S
C1539 H1519 0.950 . S
C1539 C1535 1.385 . S
C1539 C1538 1.374 . S
C1540 C1537 1.499 . S
C1540 C1541 1.373 . S
C1540 C1542 1.389 . S
C1541 H1520 0.950 . S
C1541 C1540 1.373 . S
C1541 C1557 1.377 1_455 S
C1542 C1540 1.389 . S
C1542 C1543 1.524 . S
C1542 C1556 1.377 1_455 S
C1543 C1542 1.524 . S
C1543 C1544 1.397 . S
C1543 C1548 1.363 . S
C1544 H1521 0.950 . S
C1544 C1543 1.397 . S
C1544 C1545 1.334 . S
C1545 H1522 0.950 . S
C1545 C1544 1.334 . S
C1545 C1546 1.287 . S
C1546 C1545 1.287 . S
C1546 C1547 1.524 . S
C1546 H1565 0.913 . S
C1547 H1523 0.950 . S
C1547 C1546 1.524 . S
C1547 C1548 1.415 . S
C1548 H1524 0.950 . S
C1548 C1543 1.363 . S
C1548 C1547 1.415 . S
C1549 H1525 0.951 . S
C1549 C1550 1.366 . S
C1549 C1551 1.388 . S
C1550 C1549 1.366 . S
C1550 C1554 1.385 . S
C1551 H1526 0.951 . S
C1551 C1549 1.388 . S
C1551 C1552 1.366 . S
C1552 C1551 1.366 . S
C1552 C1553 1.414 . S
C1552 C1555 1.499 . S
C1553 H1527 0.950 . S
C1553 C1552 1.414 . S
C1553 C1554 1.374 . S
C1554 H1528 0.950 . S
C1554 C1550 1.385 . S
C1554 C1553 1.374 . S
C1555 C1552 1.499 . S
C1555 C1556 1.373 . S
C1555 C1557 1.389 . S
C1556 H1529 0.950 . S
C1556 C1542 1.377 1_655 S
C1556 C1555 1.373 . S
C1557 C1541 1.377 1_655 S
C1557 C1555 1.389 . S
C1557 C1558 1.524 . S
C1558 C1557 1.524 . S
C1558 C1559 1.397 . S
C1558 C1563 1.363 . S
C1559 H1530 0.950 . S
C1559 C1558 1.397 . S
C1559 C1560 1.334 . S
C1560 H1531 0.950 . S
C1560 C1559 1.334 . S
C1560 C1561 1.287 . S
C1561 C1560 1.287 . S
C1561 C1562 1.524 . S
C1561 H1564 0.999 . S
C1562 H1532 0.950 . S
C1562 C1561 1.524 . S
C1562 C1563 1.415 . S
C1563 H1533 0.950 . S
C1563 C1558 1.363 . S
C1563 C1562 1.415 . S
H1564 C1561 0.999 . S
H1565 C1546 0.913 . S
H1566 C1584 0.951 . S
H1567 C1586 0.951 . S
H1568 C1588 0.950 . S
H1569 C1589 0.950 . S
H1570 C1591 0.950 . S
H1571 C1594 0.950 . S
H1572 C1595 0.950 . S
H1573 C1597 0.950 . S
H1574 C1598 0.950 . S
H1575 C1599 0.951 . S
H1576 C1601 0.951 . S
H1577 C1603 0.950 . S
H1578 C1604 0.950 . S
H1579 C1606 0.950 . S
H1580 C1609 0.950 . S
H1581 C1610 0.950 . S
H1582 C1612 0.950 . S
H1583 C1613 0.950 . S
C1584 H1566 0.951 . S
C1584 C1585 1.366 . S
C1584 C1586 1.388 . S
C1585 C1584 1.366 . S
C1585 C1589 1.385 . S
C1586 H1567 0.951 . S
C1586 C1584 1.388 . S
C1586 C1587 1.366 . S
C1587 C1586 1.366 . S
C1587 C1588 1.414 . S
C1587 C1590 1.499 . S
C1588 H1568 0.950 . S
C1588 C1587 1.414 . S
C1588 C1589 1.374 . S
C1589 H1569 0.950 . S
C1589 C1585 1.385 . S
C1589 C1588 1.374 . S
C1590 C1587 1.499 . S
C1590 C1591 1.373 . S
C1590 C1592 1.389 . S
C1591 H1570 0.950 . S
C1591 C1590 1.373 . S
C1591 C1607 1.377 1_545 S
C1592 C1590 1.389 . S
C1592 C1593 1.524 . S
C1592 C1606 1.377 1_545 S
C1593 C1592 1.524 . S
C1593 C1594 1.397 . S
C1593 C1598 1.363 . S
C1594 H1571 0.950 . S
C1594 C1593 1.397 . S
C1594 C1595 1.334 . S
C1595 H1572 0.950 . S
C1595 C1594 1.334 . S
C1595 C1596 1.287 . S
C1596 C1595 1.287 . S
C1596 C1597 1.524 . S
C1596 H1615 0.913 . S
C1597 H1573 0.950 . S
C1597 C1596 1.524 . S
C1597 C1598 1.415 . S
C1598 H1574 0.950 . S
C1598 C1593 1.363 . S
C1598 C1597 1.415 . S
C1599 H1575 0.951 . S
C1599 C1600 1.366 . S
C1599 C1601 1.388 . S
C1600 C1599 1.366 . S
C1600 C1604 1.385 . S
C1601 H1576 0.951 . S
C1601 C1599 1.388 . S
C1601 C1602 1.366 . S
C1602 C1601 1.366 . S
C1602 C1603 1.414 . S
C1602 C1605 1.499 . S
C1603 H1577 0.950 . S
C1603 C1602 1.414 . S
C1603 C1604 1.374 . S
C1604 H1578 0.950 . S
C1604 C1600 1.385 . S
C1604 C1603 1.374 . S
C1605 C1602 1.499 . S
C1605 C1606 1.373 . S
C1605 C1607 1.389 . S
C1606 H1579 0.950 . S
C1606 C1592 1.377 1_565 S
C1606 C1605 1.373 . S
C1607 C1591 1.377 1_565 S
C1607 C1605 1.389 . S
C1607 C1608 1.524 . S
C1608 C1607 1.524 . S
C1608 C1609 1.397 . S
C1608 C1613 1.363 . S
C1609 H1580 0.950 . S
C1609 C1608 1.397 . S
C1609 C1610 1.334 . S
C1610 H1581 0.950 . S
C1610 C1609 1.334 . S
C1610 C1611 1.287 . S
C1611 C1610 1.287 . S
C1611 C1612 1.524 . S
C1611 H1614 0.999 . S
C1612 H1582 0.950 . S
C1612 C1611 1.524 . S
C1612 C1613 1.415 . S
C1613 H1583 0.950 . S
C1613 C1608 1.363 . S
C1613 C1612 1.415 . S
H1614 C1611 0.999 . S
H1615 C1596 0.913 . S
H1616 C1634 0.951 . S
H1617 C1636 0.951 . S
H1618 C1638 0.950 . S
H1619 C1639 0.950 . S
H1620 C1641 0.950 . S
H1621 C1644 0.950 . S
H1622 C1645 0.950 . S
H1623 C1647 0.950 . S
H1624 C1648 0.950 . S
H1625 C1649 0.951 . S
H1626 C1651 0.951 . S
H1627 C1653 0.950 . S
H1628 C1654 0.950 . S
H1629 C1656 0.950 . S
H1630 C1659 0.950 . S
H1631 C1660 0.950 . S
H1632 C1662 0.950 . S
H1633 C1663 0.950 . S
C1634 H1616 0.951 . S
C1634 C1635 1.366 . S
C1634 C1636 1.388 . S
C1635 C1634 1.366 . S
C1635 C1639 1.385 . S
C1636 H1617 0.951 . S
C1636 C1634 1.388 . S
C1636 C1637 1.366 . S
C1637 C1636 1.366 . S
C1637 C1638 1.414 . S
C1637 C1640 1.499 . S
C1638 H1618 0.950 . S
C1638 C1637 1.414 . S
C1638 C1639 1.374 . S
C1639 H1619 0.950 . S
C1639 C1635 1.385 . S
C1639 C1638 1.374 . S
C1640 C1637 1.499 . S
C1640 C1641 1.373 . S
C1640 C1642 1.389 . S
C1641 H1620 0.950 . S
C1641 C1640 1.373 . S
C1641 C1657 1.377 . S
C1642 C1640 1.389 . S
C1642 C1643 1.524 . S
C1642 C1656 1.377 . S
C1643 C1642 1.524 . S
C1643 C1644 1.397 . S
C1643 C1648 1.363 . S
C1644 H1621 0.950 . S
C1644 C1643 1.397 . S
C1644 C1645 1.334 . S
C1645 H1622 0.950 . S
C1645 C1644 1.334 . S
C1645 C1646 1.287 . S
C1646 C1645 1.287 . S
C1646 C1647 1.524 . S
C1646 H1665 0.913 . S
C1647 H1623 0.950 . S
C1647 C1646 1.524 . S
C1647 C1648 1.415 . S
C1648 H1624 0.950 . S
C1648 C1643 1.363 . S
C1648 C1647 1.415 . S
C1649 H1625 0.951 . S
C1649 C1650 1.366 . S
C1649 C1651 1.388 . S
C1650 C1649 1.366 . S
C1650 C1654 1.385 . S
C1651 H1626 0.951 . S
C1651 C1649 1.388 . S
C1651 C1652 1.366 . S
C1652 C1651 1.366 . S
C1652 C1653 1.414 . S
C1652 C1655 1.499 . S
C1653 H1627 0.950 . S
C1653 C1652 1.414 . S
C1653 C1654 1.374 . S
C1654 H1628 0.950 . S
C1654 C1650 1.385 . S
C1654 C1653 1.374 . S
C1655 C1652 1.499 . S
C1655 C1656 1.373 . S
C1655 C1657 1.389 . S
C1656 H1629 0.950 . S
C1656 C1642 1.377 . S
C1656 C1655 1.373 . S
C1657 C1641 1.377 . S
C1657 C1655 1.389 . S
C1657 C1658 1.524 . S
C1658 C1657 1.524 . S
C1658 C1659 1.397 . S
C1658 C1663 1.363 . S
C1659 H1630 0.950 . S
C1659 C1658 1.397 . S
C1659 C1660 1.334 . S
C1660 H1631 0.950 . S
C1660 C1659 1.334 . S
C1660 C1661 1.287 . S
C1661 C1660 1.287 . S
C1661 C1662 1.524 . S
C1661 H1664 0.999 . S
C1662 H1632 0.950 . S
C1662 C1661 1.524 . S
C1662 C1663 1.415 . S
C1663 H1633 0.950 . S
C1663 C1658 1.363 . S
C1663 C1662 1.415 . S
H1664 C1661 0.999 . S
H1665 C1646 0.913 . S
H1666 C1684 0.951 . S
H1667 C1686 0.951 . S
H1668 C1688 0.950 . S
H1669 C1689 0.950 . S
H1670 C1691 0.950 . S
H1671 C1694 0.950 . S
H1672 C1695 0.950 . S
H1673 C1697 0.950 . S
H1674 C1698 0.950 . S
H1675 C1699 0.951 . S
H1676 C1701 0.951 . S
H1677 C1703 0.950 . S
H1678 C1704 0.950 . S
H1679 C1706 0.950 . S
H1680 C1709 0.950 . S
H1681 C1710 0.950 . S
H1682 C1712 0.950 . S
H1683 C1713 0.950 . S
C1684 H1666 0.951 . S
C1684 C1685 1.366 . S
C1684 C1686 1.388 . S
C1685 C1684 1.366 . S
C1685 C1689 1.385 . S
C1686 H1667 0.951 . S
C1686 C1684 1.388 . S
C1686 C1687 1.366 . S
C1687 C1686 1.366 . S
C1687 C1688 1.414 . S
C1687 C1690 1.499 . S
C1688 H1668 0.950 . S
C1688 C1687 1.414 . S
C1688 C1689 1.374 . S
C1689 H1669 0.950 . S
C1689 C1685 1.385 . S
C1689 C1688 1.374 . S
C1690 C1687 1.499 . S
C1690 C1691 1.373 . S
C1690 C1692 1.389 . S
C1691 H1670 0.950 . S
C1691 C1690 1.373 . S
C1691 C1707 1.377 . S
C1692 C1690 1.389 . S
C1692 C1693 1.524 . S
C1692 C1706 1.377 . S
C1693 C1692 1.524 . S
C1693 C1694 1.397 . S
C1693 C1698 1.363 . S
C1694 H1671 0.950 . S
C1694 C1693 1.397 . S
C1694 C1695 1.334 . S
C1695 H1672 0.950 . S
C1695 C1694 1.334 . S
C1695 C1696 1.287 . S
C1696 C1695 1.287 . S
C1696 C1697 1.524 . S
C1696 H1715 0.913 . S
C1697 H1673 0.950 . S
C1697 C1696 1.524 . S
C1697 C1698 1.415 . S
C1698 H1674 0.950 . S
C1698 C1693 1.363 . S
C1698 C1697 1.415 . S
C1699 H1675 0.951 . S
C1699 C1700 1.366 . S
C1699 C1701 1.388 . S
C1700 C1699 1.366 . S
C1700 C1704 1.385 . S
C1701 H1676 0.951 . S
C1701 C1699 1.388 . S
C1701 C1702 1.366 . S
C1702 C1701 1.366 . S
C1702 C1703 1.414 . S
C1702 C1705 1.499 . S
C1703 H1677 0.950 . S
C1703 C1702 1.414 . S
C1703 C1704 1.374 . S
C1704 H1678 0.950 . S
C1704 C1700 1.385 . S
C1704 C1703 1.374 . S
C1705 C1702 1.499 . S
C1705 C1706 1.373 . S
C1705 C1707 1.389 . S
C1706 H1679 0.950 . S
C1706 C1692 1.377 . S
C1706 C1705 1.373 . S
C1707 C1691 1.377 . S
C1707 C1705 1.389 . S
C1707 C1708 1.524 . S
C1708 C1707 1.524 . S
C1708 C1709 1.397 . S
C1708 C1713 1.363 . S
C1709 H1680 0.950 . S
C1709 C1708 1.397 . S
C1709 C1710 1.334 . S
C1710 H1681 0.950 . S
C1710 C1709 1.334 . S
C1710 C1711 1.287 . S
C1711 C1710 1.287 . S
C1711 C1712 1.524 . S
C1711 H1714 0.999 . S
C1712 H1682 0.950 . S
C1712 C1711 1.524 . S
C1712 C1713 1.415 . S
C1713 H1683 0.950 . S
C1713 C1708 1.363 . S
C1713 C1712 1.415 . S
H1714 C1711 0.999 . S
H1715 C1696 0.913 . S
H1716 C1734 0.951 . S
H1717 C1736 0.951 . S
H1718 C1738 0.950 . S
H1719 C1739 0.950 . S
H1720 C1741 0.950 . S
H1721 C1744 0.950 . S
H1722 C1745 0.950 . S
H1723 C1747 0.950 . S
H1724 C1748 0.950 . S
H1725 C1749 0.951 . S
H1726 C1751 0.951 . S
H1727 C1753 0.950 . S
H1728 C1754 0.950 . S
H1729 C1756 0.950 . S
H1730 C1759 0.950 . S
H1731 C1760 0.950 . S
H1732 C1762 0.950 . S
H1733 C1763 0.950 . S
C1734 H1716 0.951 . S
C1734 C1735 1.366 . S
C1734 C1736 1.388 . S
C1735 C1734 1.366 . S
C1735 C1739 1.385 . S
C1736 H1717 0.951 . S
C1736 C1734 1.388 . S
C1736 C1737 1.366 . S
C1737 C1736 1.366 . S
C1737 C1738 1.414 . S
C1737 C1740 1.499 . S
C1738 H1718 0.950 . S
C1738 C1737 1.414 . S
C1738 C1739 1.374 . S
C1739 H1719 0.950 . S
C1739 C1735 1.385 . S
C1739 C1738 1.374 . S
C1740 C1737 1.499 . S
C1740 C1741 1.373 . S
C1740 C1742 1.389 . S
C1741 H1720 0.950 . S
C1741 C1740 1.373 . S
C1741 C1757 1.377 . S
C1742 C1740 1.389 . S
C1742 C1743 1.524 . S
C1742 C1756 1.377 . S
C1743 C1742 1.524 . S
C1743 C1744 1.397 . S
C1743 C1748 1.363 . S
C1744 H1721 0.950 . S
C1744 C1743 1.397 . S
C1744 C1745 1.334 . S
C1745 H1722 0.950 . S
C1745 C1744 1.334 . S
C1745 C1746 1.287 . S
C1746 C1745 1.287 . S
C1746 C1747 1.524 . S
C1746 H1765 0.913 . S
C1747 H1723 0.950 . S
C1747 C1746 1.524 . S
C1747 C1748 1.415 . S
C1748 H1724 0.950 . S
C1748 C1743 1.363 . S
C1748 C1747 1.415 . S
C1749 H1725 0.951 . S
C1749 C1750 1.366 . S
C1749 C1751 1.388 . S
C1750 C1749 1.366 . S
C1750 C1754 1.385 . S
C1751 H1726 0.951 . S
C1751 C1749 1.388 . S
C1751 C1752 1.366 . S
C1752 C1751 1.366 . S
C1752 C1753 1.414 . S
C1752 C1755 1.499 . S
C1753 H1727 0.950 . S
C1753 C1752 1.414 . S
C1753 C1754 1.374 . S
C1754 H1728 0.950 . S
C1754 C1750 1.385 . S
C1754 C1753 1.374 . S
C1755 C1752 1.499 . S
C1755 C1756 1.373 . S
C1755 C1757 1.389 . S
C1756 H1729 0.950 . S
C1756 C1742 1.377 . S
C1756 C1755 1.373 . S
C1757 C1741 1.377 . S
C1757 C1755 1.389 . S
C1757 C1758 1.524 . S
C1758 C1757 1.524 . S
C1758 C1759 1.397 . S
C1758 C1763 1.363 . S
C1759 H1730 0.950 . S
C1759 C1758 1.397 . S
C1759 C1760 1.334 . S
C1760 H1731 0.950 . S
C1760 C1759 1.334 . S
C1760 C1761 1.287 . S
C1761 C1760 1.287 . S
C1761 C1762 1.524 . S
C1761 H1764 0.999 . S
C1762 H1732 0.950 . S
C1762 C1761 1.524 . S
C1762 C1763 1.415 . S
C1763 H1733 0.950 . S
C1763 C1758 1.363 . S
C1763 C1762 1.415 . S
H1764 C1761 0.999 . S
H1765 C1746 0.913 . S
H1766 C1784 0.951 . S
H1767 C1786 0.951 . S
H1768 C1788 0.950 . S
H1769 C1789 0.950 . S
H1770 C1791 0.950 . S
H1771 C1794 0.950 . S
H1772 C1795 0.950 . S
H1773 C1797 0.950 . S
H1774 C1798 0.950 . S
H1775 C1799 0.951 . S
H1776 C1801 0.951 . S
H1777 C1803 0.950 . S
H1778 C1804 0.950 . S
H1779 C1806 0.950 . S
H1780 C1809 0.950 . S
H1781 C1810 0.950 . S
H1782 C1812 0.950 . S
H1783 C1813 0.950 . S
C1784 H1766 0.951 . S
C1784 C1785 1.366 . S
C1784 C1786 1.388 . S
C1785 C1784 1.366 . S
C1785 C1789 1.385 . S
C1786 H1767 0.951 . S
C1786 C1784 1.388 . S
C1786 C1787 1.366 . S
C1787 C1786 1.366 . S
C1787 C1788 1.414 . S
C1787 C1790 1.499 . S
C1788 H1768 0.950 . S
C1788 C1787 1.414 . S
C1788 C1789 1.374 . S
C1789 H1769 0.950 . S
C1789 C1785 1.385 . S
C1789 C1788 1.374 . S
C1790 C1787 1.499 . S
C1790 C1791 1.373 . S
C1790 C1792 1.389 . S
C1791 H1770 0.950 . S
C1791 C1790 1.373 . S
C1791 C1807 1.377 . S
C1792 C1790 1.389 . S
C1792 C1793 1.524 . S
C1792 C1806 1.377 . S
C1793 C1792 1.524 . S
C1793 C1794 1.397 . S
C1793 C1798 1.363 . S
C1794 H1771 0.950 . S
C1794 C1793 1.397 . S
C1794 C1795 1.334 . S
C1795 H1772 0.950 . S
C1795 C1794 1.334 . S
C1795 C1796 1.287 . S
C1796 C1795 1.287 . S
C1796 C1797 1.524 . S
C1796 H1815 0.913 . S
C1797 H1773 0.950 . S
C1797 C1796 1.524 . S
C1797 C1798 1.415 . S
C1798 H1774 0.950 . S
C1798 C1793 1.363 . S
C1798 C1797 1.415 . S
C1799 H1775 0.951 . S
C1799 C1800 1.366 . S
C1799 C1801 1.388 . S
C1800 C1799 1.366 . S
C1800 C1804 1.385 . S
C1801 H1776 0.951 . S
C1801 C1799 1.388 . S
C1801 C1802 1.366 . S
C1802 C1801 1.366 . S
C1802 C1803 1.414 . S
C1802 C1805 1.499 . S
C1803 H1777 0.950 . S
C1803 C1802 1.414 . S
C1803 C1804 1.374 . S
C1804 H1778 0.950 . S
C1804 C1800 1.385 . S
C1804 C1803 1.374 . S
C1805 C1802 1.499 . S
C1805 C1806 1.373 . S
C1805 C1807 1.389 . S
C1806 H1779 0.950 . S
C1806 C1792 1.377 . S
C1806 C1805 1.373 . S
C1807 C1791 1.377 . S
C1807 C1805 1.389 . S
C1807 C1808 1.524 . S
C1808 C1807 1.524 . S
C1808 C1809 1.397 . S
C1808 C1813 1.363 . S
C1809 H1780 0.950 . S
C1809 C1808 1.397 . S
C1809 C1810 1.334 . S
C1810 H1781 0.950 . S
C1810 C1809 1.334 . S
C1810 C1811 1.287 . S
C1811 C1810 1.287 . S
C1811 C1812 1.524 . S
C1811 H1814 0.999 . S
C1812 H1782 0.950 . S
C1812 C1811 1.524 . S
C1812 C1813 1.415 . S
C1813 H1783 0.950 . S
C1813 C1808 1.363 . S
C1813 C1812 1.415 . S
H1814 C1811 0.999 . S
H1815 C1796 0.913 . S
H1816 C1834 0.951 . S
H1817 C1836 0.951 . S
H1818 C1838 0.950 . S
H1819 C1839 0.950 . S
H1820 C1841 0.950 . S
H1821 C1844 0.950 . S
H1822 C1845 0.950 . S
H1823 C1847 0.950 . S
H1824 C1848 0.950 . S
H1825 C1849 0.951 . S
H1826 C1851 0.951 . S
H1827 C1853 0.950 . S
H1828 C1854 0.950 . S
H1829 C1856 0.950 . S
H1830 C1859 0.950 . S
H1831 C1860 0.950 . S
H1832 C1862 0.950 . S
H1833 C1863 0.950 . S
C1834 H1816 0.951 . S
C1834 C1835 1.366 . S
C1834 C1836 1.388 . S
C1835 C1834 1.366 . S
C1835 C1839 1.385 . S
C1836 H1817 0.951 . S
C1836 C1834 1.388 . S
C1836 C1837 1.366 . S
C1837 C1836 1.366 . S
C1837 C1838 1.414 . S
C1837 C1840 1.499 . S
C1838 H1818 0.950 . S
C1838 C1837 1.414 . S
C1838 C1839 1.374 . S
C1839 H1819 0.950 . S
C1839 C1835 1.385 . S
C1839 C1838 1.374 . S
C1840 C1837 1.499 . S
C1840 C1841 1.373 . S
C1840 C1842 1.389 . S
C1841 H1820 0.950 . S
C1841 C1840 1.373 . S
C1841 C1857 1.377 . S
C1842 C1840 1.389 . S
C1842 C1843 1.524 . S
C1842 C1856 1.377 . S
C1843 C1842 1.524 . S
C1843 C1844 1.397 . S
C1843 C1848 1.363 . S
C1844 H1821 0.950 . S
C1844 C1843 1.397 . S
C1844 C1845 1.334 . S
C1845 H1822 0.950 . S
C1845 C1844 1.334 . S
C1845 C1846 1.287 . S
C1846 C1845 1.287 . S
C1846 C1847 1.524 . S
C1846 H1865 0.913 . S
C1847 H1823 0.950 . S
C1847 C1846 1.524 . S
C1847 C1848 1.415 . S
C1848 H1824 0.950 . S
C1848 C1843 1.363 . S
C1848 C1847 1.415 . S
C1849 H1825 0.951 . S
C1849 C1850 1.366 . S
C1849 C1851 1.388 . S
C1850 C1849 1.366 . S
C1850 C1854 1.385 . S
C1851 H1826 0.951 . S
C1851 C1849 1.388 . S
C1851 C1852 1.366 . S
C1852 C1851 1.366 . S
C1852 C1853 1.414 . S
C1852 C1855 1.499 . S
C1853 H1827 0.950 . S
C1853 C1852 1.414 . S
C1853 C1854 1.374 . S
C1854 H1828 0.950 . S
C1854 C1850 1.385 . S
C1854 C1853 1.374 . S
C1855 C1852 1.499 . S
C1855 C1856 1.373 . S
C1855 C1857 1.389 . S
C1856 H1829 0.950 . S
C1856 C1842 1.377 . S
C1856 C1855 1.373 . S
C1857 C1841 1.377 . S
C1857 C1855 1.389 . S
C1857 C1858 1.524 . S
C1858 C1857 1.524 . S
C1858 C1859 1.397 . S
C1858 C1863 1.363 . S
C1859 H1830 0.950 . S
C1859 C1858 1.397 . S
C1859 C1860 1.334 . S
C1860 H1831 0.950 . S
C1860 C1859 1.334 . S
C1860 C1861 1.287 . S
C1861 C1860 1.287 . S
C1861 C1862 1.524 . S
C1861 H1864 0.999 . S
C1862 H1832 0.950 . S
C1862 C1861 1.524 . S
C1862 C1863 1.415 . S
C1863 H1833 0.950 . S
C1863 C1858 1.363 . S
C1863 C1862 1.415 . S
H1864 C1861 0.999 . S
H1865 C1846 0.913 . S
H1866 C1884 0.951 . S
H1867 C1886 0.951 . S
H1868 C1888 0.950 . S
H1869 C1889 0.950 . S
H1870 C1891 0.950 . S
H1871 C1894 0.950 . S
H1872 C1895 0.950 . S
H1873 C1897 0.950 . S
H1874 C1898 0.950 . S
H1875 C1899 0.951 . S
H1876 C1901 0.951 . S
H1877 C1903 0.950 . S
H1878 C1904 0.950 . S
H1879 C1906 0.950 . S
H1880 C1909 0.950 . S
H1881 C1910 0.950 . S
H1882 C1912 0.950 . S
H1883 C1913 0.950 . S
C1884 H1866 0.951 . S
C1884 C1885 1.366 . S
C1884 C1886 1.388 . S
C1885 C1884 1.366 . S
C1885 C1889 1.385 . S
C1886 H1867 0.951 . S
C1886 C1884 1.388 . S
C1886 C1887 1.366 . S
C1887 C1886 1.366 . S
C1887 C1888 1.414 . S
C1887 C1890 1.499 . S
C1888 H1868 0.950 . S
C1888 C1887 1.414 . S
C1888 C1889 1.374 . S
C1889 H1869 0.950 . S
C1889 C1885 1.385 . S
C1889 C1888 1.374 . S
C1890 C1887 1.499 . S
C1890 C1891 1.373 . S
C1890 C1892 1.389 . S
C1891 H1870 0.950 . S
C1891 C1890 1.373 . S
C1891 C1907 1.377 . S
C1892 C1890 1.389 . S
C1892 C1893 1.524 . S
C1892 C1906 1.377 . S
C1893 C1892 1.524 . S
C1893 C1894 1.397 . S
C1893 C1898 1.363 . S
C1894 H1871 0.950 . S
C1894 C1893 1.397 . S
C1894 C1895 1.334 . S
C1895 H1872 0.950 . S
C1895 C1894 1.334 . S
C1895 C1896 1.287 . S
C1896 C1895 1.287 . S
C1896 C1897 1.524 . S
C1896 H1915 0.913 . S
C1897 H1873 0.950 . S
C1897 C1896 1.524 . S
C1897 C1898 1.415 . S
C1898 H1874 0.950 . S
C1898 C1893 1.363 . S
C1898 C1897 1.415 . S
C1899 H1875 0.951 . S
C1899 C1900 1.366 . S
C1899 C1901 1.388 . S
C1900 C1899 1.366 . S
C1900 C1904 1.385 . S
C1901 H1876 0.951 . S
C1901 C1899 1.388 . S
C1901 C1902 1.366 . S
C1902 C1901 1.366 . S
C1902 C1903 1.414 . S
C1902 C1905 1.499 . S
C1903 H1877 0.950 . S
C1903 C1902 1.414 . S
C1903 C1904 1.374 . S
C1904 H1878 0.950 . S
C1904 C1900 1.385 . S
C1904 C1903 1.374 . S
C1905 C1902 1.499 . S
C1905 C1906 1.373 . S
C1905 C1907 1.389 . S
C1906 H1879 0.950 . S
C1906 C1892 1.377 . S
C1906 C1905 1.373 . S
C1907 C1891 1.377 . S
C1907 C1905 1.389 . S
C1907 C1908 1.524 . S
C1908 C1907 1.524 . S
C1908 C1909 1.397 . S
C1908 C1913 1.363 . S
C1909 H1880 0.950 . S
C1909 C1908 1.397 . S
C1909 C1910 1.334 . S
C1910 H1881 0.950 . S
C1910 C1909 1.334 . S
C1910 C1911 1.287 . S
C1911 C1910 1.287 . S
C1911 C1912 1.524 . S
C1911 H1914 0.999 . S
C1912 H1882 0.950 . S
C1912 C1911 1.524 . S
C1912 C1913 1.415 . S
C1913 H1883 0.950 . S
C1913 C1908 1.363 . S
C1913 C1912 1.415 . S
H1914 C1911 0.999 . S
H1915 C1896 0.913 . S
H1916 C1934 0.951 . S
H1917 C1936 0.951 . S
H1918 C1938 0.950 . S
H1919 C1939 0.950 . S
H1920 C1941 0.950 . S
H1921 C1944 0.950 . S
H1922 C1945 0.950 . S
H1923 C1947 0.950 . S
H1924 C1948 0.950 . S
H1925 C1949 0.951 . S
H1926 C1951 0.951 . S
H1927 C1953 0.950 . S
H1928 C1954 0.950 . S
H1929 C1956 0.950 . S
H1930 C1959 0.950 . S
H1931 C1960 0.950 . S
H1932 C1962 0.950 . S
H1933 C1963 0.950 . S
C1934 H1916 0.951 . S
C1934 C1935 1.366 . S
C1934 C1936 1.388 . S
C1935 C1934 1.366 . S
C1935 C1939 1.385 . S
C1936 H1917 0.951 . S
C1936 C1934 1.388 . S
C1936 C1937 1.366 . S
C1937 C1936 1.366 . S
C1937 C1938 1.414 . S
C1937 C1940 1.499 . S
C1938 H1918 0.950 . S
C1938 C1937 1.414 . S
C1938 C1939 1.374 . S
C1939 H1919 0.950 . S
C1939 C1935 1.385 . S
C1939 C1938 1.374 . S
C1940 C1937 1.499 . S
C1940 C1941 1.373 . S
C1940 C1942 1.389 . S
C1941 H1920 0.950 . S
C1941 C1940 1.373 . S
C1941 C1957 1.377 . S
C1942 C1940 1.389 . S
C1942 C1943 1.524 . S
C1942 C1956 1.377 . S
C1943 C1942 1.524 . S
C1943 C1944 1.397 . S
C1943 C1948 1.363 . S
C1944 H1921 0.950 . S
C1944 C1943 1.397 . S
C1944 C1945 1.334 . S
C1945 H1922 0.950 . S
C1945 C1944 1.334 . S
C1945 C1946 1.287 . S
C1946 C1945 1.287 . S
C1946 C1947 1.524 . S
C1946 H1965 0.913 . S
C1947 H1923 0.950 . S
C1947 C1946 1.524 . S
C1947 C1948 1.415 . S
C1948 H1924 0.950 . S
C1948 C1943 1.363 . S
C1948 C1947 1.415 . S
C1949 H1925 0.951 . S
C1949 C1950 1.366 . S
C1949 C1951 1.388 . S
C1950 C1949 1.366 . S
C1950 C1954 1.385 . S
C1951 H1926 0.951 . S
C1951 C1949 1.388 . S
C1951 C1952 1.366 . S
C1952 C1951 1.366 . S
C1952 C1953 1.414 . S
C1952 C1955 1.499 . S
C1953 H1927 0.950 . S
C1953 C1952 1.414 . S
C1953 C1954 1.374 . S
C1954 H1928 0.950 . S
C1954 C1950 1.385 . S
C1954 C1953 1.374 . S
C1955 C1952 1.499 . S
C1955 C1956 1.373 . S
C1955 C1957 1.389 . S
C1956 H1929 0.950 . S
C1956 C1942 1.377 . S
C1956 C1955 1.373 . S
C1957 C1941 1.377 . S
C1957 C1955 1.389 . S
C1957 C1958 1.524 . S
C1958 C1957 1.524 . S
C1958 C1959 1.397 . S
C1958 C1963 1.363 . S
C1959 H1930 0.950 . S
C1959 C1958 1.397 . S
C1959 C1960 1.334 . S
C1960 H1931 0.950 . S
C1960 C1959 1.334 . S
C1960 C1961 1.287 . S
C1961 C1960 1.287 . S
C1961 C1962 1.524 . S
C1961 H1964 0.999 . S
C1962 H1932 0.950 . S
C1962 C1961 1.524 . S
C1962 C1963 1.415 . S
C1963 H1933 0.950 . S
C1963 C1958 1.363 . S
C1963 C1962 1.415 . S
H1964 C1961 0.999 . S
H1965 C1946 0.913 . S
H1966 C1984 0.951 . S
H1967 C1986 0.951 . S
H1968 C1988 0.950 . S
H1969 C1989 0.950 . S
H1970 C1991 0.950 . S
H1971 C1994 0.950 . S
H1972 C1995 0.950 . S
H1973 C1997 0.950 . S
H1974 C1998 0.950 . S
H1975 C1999 0.951 . S
H1976 C2001 0.951 . S
H1977 C2003 0.950 . S
H1978 C2004 0.950 . S
H1979 C2006 0.950 . S
H1980 C2009 0.950 . S
H1981 C2010 0.950 . S
H1982 C2012 0.950 . S
H1983 C2013 0.950 . S
C1984 H1966 0.951 . S
C1984 C1985 1.366 . S
C1984 C1986 1.388 . S
C1985 C1984 1.366 . S
C1985 C1989 1.385 . S
C1986 H1967 0.951 . S
C1986 C1984 1.388 . S
C1986 C1987 1.366 . S
C1987 C1986 1.366 . S
C1987 C1988 1.414 . S
C1987 C1990 1.499 . S
C1988 H1968 0.950 . S
C1988 C1987 1.414 . S
C1988 C1989 1.374 . S
C1989 H1969 0.950 . S
C1989 C1985 1.385 . S
C1989 C1988 1.374 . S
C1990 C1987 1.499 . S
C1990 C1991 1.373 . S
C1990 C1992 1.389 . S
C1991 H1970 0.950 . S
C1991 C1990 1.373 . S
C1991 C2007 1.377 . S
C1992 C1990 1.389 . S
C1992 C1993 1.524 . S
C1992 C2006 1.377 . S
C1993 C1992 1.524 . S
C1993 C1994 1.397 . S
C1993 C1998 1.363 . S
C1994 H1971 0.950 . S
C1994 C1993 1.397 . S
C1994 C1995 1.334 . S
C1995 H1972 0.950 . S
C1995 C1994 1.334 . S
C1995 C1996 1.287 . S
C1996 C1995 1.287 . S
C1996 C1997 1.524 . S
C1996 H2015 0.913 . S
C1997 H1973 0.950 . S
C1997 C1996 1.524 . S
C1997 C1998 1.415 . S
C1998 H1974 0.950 . S
C1998 C1993 1.363 . S
C1998 C1997 1.415 . S
C1999 H1975 0.951 . S
C1999 C2000 1.366 . S
C1999 C2001 1.388 . S
C2000 C1999 1.366 . S
C2000 C2004 1.385 . S
C2001 H1976 0.951 . S
C2001 C1999 1.388 . S
C2001 C2002 1.366 . S
C2002 C2001 1.366 . S
C2002 C2003 1.414 . S
C2002 C2005 1.499 . S
C2003 H1977 0.950 . S
C2003 C2002 1.414 . S
C2003 C2004 1.374 . S
C2004 H1978 0.950 . S
C2004 C2000 1.385 . S
C2004 C2003 1.374 . S
C2005 C2002 1.499 . S
C2005 C2006 1.373 . S
C2005 C2007 1.389 . S
C2006 H1979 0.950 . S
C2006 C1992 1.377 . S
C2006 C2005 1.373 . S
C2007 C1991 1.377 . S
C2007 C2005 1.389 . S
C2007 C2008 1.524 . S
C2008 C2007 1.524 . S
C2008 C2009 1.397 . S
C2008 C2013 1.363 . S
C2009 H1980 0.950 . S
C2009 C2008 1.397 . S
C2009 C2010 1.334 . S
C2010 H1981 0.950 . S
C2010 C2009 1.334 . S
C2010 C2011 1.287 . S
C2011 C2010 1.287 . S
C2011 C2012 1.524 . S
C2011 H2014 0.999 . S
C2012 H1982 0.950 . S
C2012 C2011 1.524 . S
C2012 C2013 1.415 . S
C2013 H1983 0.950 . S
C2013 C2008 1.363 . S
C2013 C2012 1.415 . S
H2014 C2011 0.999 . S
H2015 C1996 0.913 . S
H2016 C2034 0.951 . S
H2017 C2036 0.951 . S
H2018 C2038 0.950 . S
H2019 C2039 0.950 . S
H2020 C2041 0.950 . S
H2021 C2044 0.950 . S
H2022 C2045 0.950 . S
H2023 C2047 0.950 . S
H2024 C2048 0.950 . S
H2025 C2049 0.951 . S
H2026 C2051 0.951 . S
H2027 C2053 0.950 . S
H2028 C2054 0.950 . S
H2029 C2056 0.950 . S
H2030 C2059 0.950 . S
H2031 C2060 0.950 . S
H2032 C2062 0.950 . S
H2033 C2063 0.950 . S
C2034 H2016 0.951 . S
C2034 C2035 1.366 . S
C2034 C2036 1.388 . S
C2035 C2034 1.366 . S
C2035 C2039 1.385 . S
C2036 H2017 0.951 . S
C2036 C2034 1.388 . S
C2036 C2037 1.366 . S
C2037 C2036 1.366 . S
C2037 C2038 1.414 . S
C2037 C2040 1.499 . S
C2038 H2018 0.950 . S
C2038 C2037 1.414 . S
C2038 C2039 1.374 . S
C2039 H2019 0.950 . S
C2039 C2035 1.385 . S
C2039 C2038 1.374 . S
C2040 C2037 1.499 . S
C2040 C2041 1.373 . S
C2040 C2042 1.389 . S
C2041 H2020 0.950 . S
C2041 C2040 1.373 . S
C2041 C2057 1.377 . S
C2042 C2040 1.389 . S
C2042 C2043 1.524 . S
C2042 C2056 1.377 . S
C2043 C2042 1.524 . S
C2043 C2044 1.397 . S
C2043 C2048 1.363 . S
C2044 H2021 0.950 . S
C2044 C2043 1.397 . S
C2044 C2045 1.334 . S
C2045 H2022 0.950 . S
C2045 C2044 1.334 . S
C2045 C2046 1.287 . S
C2046 C2045 1.287 . S
C2046 C2047 1.524 . S
C2046 H2065 0.913 . S
C2047 H2023 0.950 . S
C2047 C2046 1.524 . S
C2047 C2048 1.415 . S
C2048 H2024 0.950 . S
C2048 C2043 1.363 . S
C2048 C2047 1.415 . S
C2049 H2025 0.951 . S
C2049 C2050 1.366 . S
C2049 C2051 1.388 . S
C2050 C2049 1.366 . S
C2050 C2054 1.385 . S
C2051 H2026 0.951 . S
C2051 C2049 1.388 . S
C2051 C2052 1.366 . S
C2052 C2051 1.366 . S
C2052 C2053 1.414 . S
C2052 C2055 1.499 . S
C2053 H2027 0.950 . S
C2053 C2052 1.414 . S
C2053 C2054 1.374 . S
C2054 H2028 0.950 . S
C2054 C2050 1.385 . S
C2054 C2053 1.374 . S
C2055 C2052 1.499 . S
C2055 C2056 1.373 . S
C2055 C2057 1.389 . S
C2056 H2029 0.950 . S
C2056 C2042 1.377 . S
C2056 C2055 1.373 . S
C2057 C2041 1.377 . S
C2057 C2055 1.389 . S
C2057 C2058 1.524 . S
C2058 C2057 1.524 . S
C2058 C2059 1.397 . S
C2058 C2063 1.363 . S
C2059 H2030 0.950 . S
C2059 C2058 1.397 . S
C2059 C2060 1.334 . S
C2060 H2031 0.950 . S
C2060 C2059 1.334 . S
C2060 C2061 1.287 . S
C2061 C2060 1.287 . S
C2061 C2062 1.524 . S
C2061 H2064 0.999 . S
C2062 H2032 0.950 . S
C2062 C2061 1.524 . S
C2062 C2063 1.415 . S
C2063 H2033 0.950 . S
C2063 C2058 1.363 . S
C2063 C2062 1.415 . S
H2064 C2061 0.999 . S
H2065 C2046 0.913 . S
H2066 C2084 0.951 . S
H2067 C2086 0.951 . S
H2068 C2088 0.950 . S
H2069 C2089 0.950 . S
H2070 C2091 0.950 . S
H2071 C2094 0.950 . S
H2072 C2095 0.950 . S
H2073 C2097 0.950 . S
H2074 C2098 0.950 . S
H2075 C2099 0.951 . S
H2076 C2101 0.951 . S
H2077 C2103 0.950 . S
H2078 C2104 0.950 . S
H2079 C2106 0.950 . S
H2080 C2109 0.950 . S
H2081 C2110 0.950 . S
H2082 C2112 0.950 . S
H2083 C2113 0.950 . S
C2084 H2066 0.951 . S
C2084 C2085 1.366 . S
C2084 C2086 1.388 . S
C2085 C2084 1.366 . S
C2085 C2089 1.385 . S
C2086 H2067 0.951 . S
C2086 C2084 1.388 . S
C2086 C2087 1.366 . S
C2087 C2086 1.366 . S
C2087 C2088 1.414 . S
C2087 C2090 1.499 . S
C2088 H2068 0.950 . S
C2088 C2087 1.414 . S
C2088 C2089 1.374 . S
C2089 H2069 0.950 . S
C2089 C2085 1.385 . S
C2089 C2088 1.374 . S
C2090 C2087 1.499 . S
C2090 C2091 1.373 . S
C2090 C2092 1.389 . S
C2091 H2070 0.950 . S
C2091 C2090 1.373 . S
C2091 C2107 1.377 . S
C2092 C2090 1.389 . S
C2092 C2093 1.524 . S
C2092 C2106 1.377 . S
C2093 C2092 1.524 . S
C2093 C2094 1.397 . S
C2093 C2098 1.363 . S
C2094 H2071 0.950 . S
C2094 C2093 1.397 . S
C2094 C2095 1.334 . S
C2095 H2072 0.950 . S
C2095 C2094 1.334 . S
C2095 C2096 1.287 . S
C2096 C2095 1.287 . S
C2096 C2097 1.524 . S
C2096 H2115 0.913 . S
C2097 H2073 0.950 . S
C2097 C2096 1.524 . S
C2097 C2098 1.415 . S
C2098 H2074 0.950 . S
C2098 C2093 1.363 . S
C2098 C2097 1.415 . S
C2099 H2075 0.951 . S
C2099 C2100 1.366 . S
C2099 C2101 1.388 . S
C2100 C2099 1.366 . S
C2100 C2104 1.385 . S
C2101 H2076 0.951 . S
C2101 C2099 1.388 . S
C2101 C2102 1.366 . S
C2102 C2101 1.366 . S
C2102 C2103 1.414 . S
C2102 C2105 1.499 . S
C2103 H2077 0.950 . S
C2103 C2102 1.414 . S
C2103 C2104 1.374 . S
C2104 H2078 0.950 . S
C2104 C2100 1.385 . S
C2104 C2103 1.374 . S
C2105 C2102 1.499 . S
C2105 C2106 1.373 . S
C2105 C2107 1.389 . S
C2106 H2079 0.950 . S
C2106 C2092 1.377 . S
C2106 C2105 1.373 . S
C2107 C2091 1.377 . S
C2107 C2105 1.389 . S
C2107 C2108 1.524 . S
C2108 C2107 1.524 . S
C2108 C2109 1.397 . S
C2108 C2113 1.363 . S
C2109 H2080 0.950 . S
C2109 C2108 1.397 . S
C2109 C2110 1.334 . S
C2110 H2081 0.950 . S
C2110 C2109 1.334 . S
C2110 C2111 1.287 . S
C2111 C2110 1.287 . S
C2111 C2112 1.524 . S
C2111 H2114 0.999 . S
C2112 H2082 0.950 . S
C2112 C2111 1.524 . S
C2112 C2113 1.415 . S
C2113 H2083 0.950 . S
C2113 C2108 1.363 . S
C2113 C2112 1.415 . S
H2114 C2111 0.999 . S
H2115 C2096 0.913 . S
H2116 C2134 0.951 . S
H2117 C2136 0.951 . S
H2118 C2138 0.950 . S
H2119 C2139 0.950 . S
H2120 C2141 0.950 . S
H2121 C2144 0.950 . S
H2122 C2145 0.950 . S
H2123 C2147 0.950 . S
H2124 C2148 0.950 . S
H2125 C2149 0.951 . S
H2126 C2151 0.951 . S
H2127 C2153 0.950 . S
H2128 C2154 0.950 . S
H2129 C2156 0.950 . S
H2130 C2159 0.950 . S
H2131 C2160 0.950 . S
H2132 C2162 0.950 . S
H2133 C2163 0.950 . S
C2134 H2116 0.951 . S
C2134 C2135 1.366 . S
C2134 C2136 1.388 . S
C2135 C2134 1.366 . S
C2135 C2139 1.385 . S
C2136 H2117 0.951 . S
C2136 C2134 1.388 . S
C2136 C2137 1.366 . S
C2137 C2136 1.366 . S
C2137 C2138 1.414 . S
C2137 C2140 1.499 . S
C2138 H2118 0.950 . S
C2138 C2137 1.414 . S
C2138 C2139 1.374 . S
C2139 H2119 0.950 . S
C2139 C2135 1.385 . S
C2139 C2138 1.374 . S
C2140 C2137 1.499 . S
C2140 C2141 1.373 . S
C2140 C2142 1.389 . S
C2141 H2120 0.950 . S
C2141 C2140 1.373 . S
C2141 C2157 1.377 . S
C2142 C2140 1.389 . S
C2142 C2143 1.524 . S
C2142 C2156 1.377 . S
C2143 C2142 1.524 . S
C2143 C2144 1.397 . S
C2143 C2148 1.363 . S
C2144 H2121 0.950 . S
C2144 C2143 1.397 . S
C2144 C2145 1.334 . S
C2145 H2122 0.950 . S
C2145 C2144 1.334 . S
C2145 C2146 1.287 . S
C2146 C2145 1.287 . S
C2146 C2147 1.524 . S
C2146 H2165 0.913 . S
C2147 H2123 0.950 . S
C2147 C2146 1.524 . S
C2147 C2148 1.415 . S
C2148 H2124 0.950 . S
C2148 C2143 1.363 . S
C2148 C2147 1.415 . S
C2149 H2125 0.951 . S
C2149 C2150 1.366 . S
C2149 C2151 1.388 . S
C2150 C2149 1.366 . S
C2150 C2154 1.385 . S
C2151 H2126 0.951 . S
C2151 C2149 1.388 . S
C2151 C2152 1.366 . S
C2152 C2151 1.366 . S
C2152 C2153 1.414 . S
C2152 C2155 1.499 . S
C2153 H2127 0.950 . S
C2153 C2152 1.414 . S
C2153 C2154 1.374 . S
C2154 H2128 0.950 . S
C2154 C2150 1.385 . S
C2154 C2153 1.374 . S
C2155 C2152 1.499 . S
C2155 C2156 1.373 . S
C2155 C2157 1.389 . S
C2156 H2129 0.950 . S
C2156 C2142 1.377 . S
C2156 C2155 1.373 . S
C2157 C2141 1.377 . S
C2157 C2155 1.389 . S
C2157 C2158 1.524 . S
C2158 C2157 1.524 . S
C2158 C2159 1.397 . S
C2158 C2163 1.363 . S
C2159 H2130 0.950 . S
C2159 C2158 1.397 . S
C2159 C2160 1.334 . S
C2160 H2131 0.950 . S
C2160 C2159 1.334 . S
C2160 C2161 1.287 . S
C2161 C2160 1.287 . S
C2161 C2162 1.524 . S
C2161 H2164 0.999 . S
C2162 H2132 0.950 . S
C2162 C2161 1.524 . S
C2162 C2163 1.415 . S
C2163 H2133 0.950 . S
C2163 C2158 1.363 . S
C2163 C2162 1.415 . S
H2164 C2161 0.999 . S
H2165 C2146 0.913 . S
H2166 C2184 0.951 . S
H2167 C2186 0.951 . S
H2168 C2188 0.950 . S
H2169 C2189 0.950 . S
H2170 C2191 0.950 . S
H2171 C2194 0.950 . S
H2172 C2195 0.950 . S
H2173 C2197 0.950 . S
H2174 C2198 0.950 . S
H2175 C2199 0.951 . S
H2176 C2201 0.951 . S
H2177 C2203 0.950 . S
H2178 C2204 0.950 . S
H2179 C2206 0.950 . S
H2180 C2209 0.950 . S
H2181 C2210 0.950 . S
H2182 C2212 0.950 . S
H2183 C2213 0.950 . S
C2184 H2166 0.951 . S
C2184 C2185 1.366 . S
C2184 C2186 1.388 . S
C2185 C2184 1.366 . S
C2185 C2189 1.385 . S
C2186 H2167 0.951 . S
C2186 C2184 1.388 . S
C2186 C2187 1.366 . S
C2187 C2186 1.366 . S
C2187 C2188 1.414 . S
C2187 C2190 1.499 . S
C2188 H2168 0.950 . S
C2188 C2187 1.414 . S
C2188 C2189 1.374 . S
C2189 H2169 0.950 . S
C2189 C2185 1.385 . S
C2189 C2188 1.374 . S
C2190 C2187 1.499 . S
C2190 C2191 1.373 . S
C2190 C2192 1.389 . S
C2191 H2170 0.950 . S
C2191 C2190 1.373 . S
C2191 C2207 1.377 . S
C2192 C2190 1.389 . S
C2192 C2193 1.524 . S
C2192 C2206 1.377 . S
C2193 C2192 1.524 . S
C2193 C2194 1.397 . S
C2193 C2198 1.363 . S
C2194 H2171 0.950 . S
C2194 C2193 1.397 . S
C2194 C2195 1.334 . S
C2195 H2172 0.950 . S
C2195 C2194 1.334 . S
C2195 C2196 1.287 . S
C2196 C2195 1.287 . S
C2196 C2197 1.524 . S
C2196 H2215 0.913 . S
C2197 H2173 0.950 . S
C2197 C2196 1.524 . S
C2197 C2198 1.415 . S
C2198 H2174 0.950 . S
C2198 C2193 1.363 . S
C2198 C2197 1.415 . S
C2199 H2175 0.951 . S
C2199 C2200 1.366 . S
C2199 C2201 1.388 . S
C2200 C2199 1.366 . S
C2200 C2204 1.385 . S
C2201 H2176 0.951 . S
C2201 C2199 1.388 . S
C2201 C2202 1.366 . S
C2202 C2201 1.366 . S
C2202 C2203 1.414 . S
C2202 C2205 1.499 . S
C2203 H2177 0.950 . S
C2203 C2202 1.414 . S
C2203 C2204 1.374 . S
C2204 H2178 0.950 . S
C2204 C2200 1.385 . S
C2204 C2203 1.374 . S
C2205 C2202 1.499 . S
C2205 C2206 1.373 . S
C2205 C2207 1.389 . S
C2206 H2179 0.950 . S
C2206 C2192 1.377 . S
C2206 C2205 1.373 . S
C2207 C2191 1.377 . S
C2207 C2205 1.389 . S
C2207 C2208 1.524 . S
C2208 C2207 1.524 . S
C2208 C2209 1.397 . S
C2208 C2213 1.363 . S
C2209 H2180 0.950 . S
C2209 C2208 1.397 . S
C2209 C2210 1.334 . S
C2210 H2181 0.950 . S
C2210 C2209 1.334 . S
C2210 C2211 1.287 . S
C2211 C2210 1.287 . S
C2211 C2212 1.524 . S
C2211 H2214 0.999 . S
C2212 H2182 0.950 . S
C2212 C2211 1.524 . S
C2212 C2213 1.415 . S
C2213 H2183 0.950 . S
C2213 C2208 1.363 . S
C2213 C2212 1.415 . S
H2214 C2211 0.999 . S
H2215 C2196 0.913 . S
H2216 C2234 0.951 . S
H2217 C2236 0.951 . S
H2218 C2238 0.950 . S
H2219 C2239 0.950 . S
H2220 C2241 0.950 . S
H2221 C2244 0.950 . S
H2222 C2245 0.950 . S
H2223 C2247 0.950 . S
H2224 C2248 0.950 . S
H2225 C2249 0.951 . S
H2226 C2251 0.951 . S
H2227 C2253 0.950 . S
H2228 C2254 0.950 . S
H2229 C2256 0.950 . S
H2230 C2259 0.950 . S
H2231 C2260 0.950 . S
H2232 C2262 0.950 . S
H2233 C2263 0.950 . S
C2234 H2216 0.951 . S
C2234 C2235 1.366 . S
C2234 C2236 1.388 . S
C2235 C2234 1.366 . S
C2235 C2239 1.385 . S
C2236 H2217 0.951 . S
C2236 C2234 1.388 . S
C2236 C2237 1.366 . S
C2237 C2236 1.366 . S
C2237 C2238 1.414 . S
C2237 C2240 1.499 . S
C2238 H2218 0.950 . S
C2238 C2237 1.414 . S
C2238 C2239 1.374 . S
C2239 H2219 0.950 . S
C2239 C2235 1.385 . S
C2239 C2238 1.374 . S
C2240 C2237 1.499 . S
C2240 C2241 1.373 . S
C2240 C2242 1.389 . S
C2241 H2220 0.950 . S
C2241 C2240 1.373 . S
C2241 C2257 1.377 . S
C2242 C2240 1.389 . S
C2242 C2243 1.524 . S
C2242 C2256 1.377 . S
C2243 C2242 1.524 . S
C2243 C2244 1.397 . S
C2243 C2248 1.363 . S
C2244 H2221 0.950 . S
C2244 C2243 1.397 . S
C2244 C2245 1.334 . S
C2245 H2222 0.950 . S
C2245 C2244 1.334 . S
C2245 C2246 1.287 . S
C2246 C2245 1.287 . S
C2246 C2247 1.524 . S
C2246 H2265 0.913 . S
C2247 H2223 0.950 . S
C2247 C2246 1.524 . S
C2247 C2248 1.415 . S
C2248 H2224 0.950 . S
C2248 C2243 1.363 . S
C2248 C2247 1.415 . S
C2249 H2225 0.951 . S
C2249 C2250 1.366 . S
C2249 C2251 1.388 . S
C2250 C2249 1.366 . S
C2250 C2254 1.385 . S
C2251 H2226 0.951 . S
C2251 C2249 1.388 . S
C2251 C2252 1.366 . S
C2252 C2251 1.366 . S
C2252 C2253 1.414 . S
C2252 C2255 1.499 . S
C2253 H2227 0.950 . S
C2253 C2252 1.414 . S
C2253 C2254 1.374 . S
C2254 H2228 0.950 . S
C2254 C2250 1.385 . S
C2254 C2253 1.374 . S
C2255 C2252 1.499 . S
C2255 C2256 1.373 . S
C2255 C2257 1.389 . S
C2256 H2229 0.950 . S
C2256 C2242 1.377 . S
C2256 C2255 1.373 . S
C2257 C2241 1.377 . S
C2257 C2255 1.389 . S
C2257 C2258 1.524 . S
C2258 C2257 1.524 . S
C2258 C2259 1.397 . S
C2258 C2263 1.363 . S
C2259 H2230 0.950 . S
C2259 C2258 1.397 . S
C2259 C2260 1.334 . S
C2260 H2231 0.950 . S
C2260 C2259 1.334 . S
C2260 C2261 1.287 . S
C2261 C2260 1.287 . S
C2261 C2262 1.524 . S
C2261 H2264 0.999 . S
C2262 H2232 0.950 . S
C2262 C2261 1.524 . S
C2262 C2263 1.415 . S
C2263 H2233 0.950 . S
C2263 C2258 1.363 . S
C2263 C2262 1.415 . S
H2264 C2261 0.999 . S
H2265 C2246 0.913 . S
H2266 C2284 0.951 . S
H2267 C2286 0.951 . S
H2268 C2288 0.950 . S
H2269 C2289 0.950 . S
H2270 C2291 0.950 . S
H2271 C2294 0.950 . S
H2272 C2295 0.950 . S
H2273 C2297 0.950 . S
H2274 C2298 0.950 . S
H2275 C2299 0.951 . S
H2276 C2301 0.951 . S
H2277 C2303 0.950 . S
H2278 C2304 0.950 . S
H2279 C2306 0.950 . S
H2280 C2309 0.950 . S
H2281 C2310 0.950 . S
H2282 C2312 0.950 . S
H2283 C2313 0.950 . S
C2284 H2266 0.951 . S
C2284 C2285 1.366 . S
C2284 C2286 1.388 . S
C2285 C2284 1.366 . S
C2285 C2289 1.385 . S
C2286 H2267 0.951 . S
C2286 C2284 1.388 . S
C2286 C2287 1.366 . S
C2287 C2286 1.366 . S
C2287 C2288 1.414 . S
C2287 C2290 1.499 . S
C2288 H2268 0.950 . S
C2288 C2287 1.414 . S
C2288 C2289 1.374 . S
C2289 H2269 0.950 . S
C2289 C2285 1.385 . S
C2289 C2288 1.374 . S
C2290 C2287 1.499 . S
C2290 C2291 1.373 . S
C2290 C2292 1.389 . S
C2291 H2270 0.950 . S
C2291 C2290 1.373 . S
C2291 C2307 1.377 . S
C2292 C2290 1.389 . S
C2292 C2293 1.524 . S
C2292 C2306 1.377 . S
C2293 C2292 1.524 . S
C2293 C2294 1.397 . S
C2293 C2298 1.363 . S
C2294 H2271 0.950 . S
C2294 C2293 1.397 . S
C2294 C2295 1.334 . S
C2295 H2272 0.950 . S
C2295 C2294 1.334 . S
C2295 C2296 1.287 . S
C2296 C2295 1.287 . S
C2296 C2297 1.524 . S
C2296 H2315 0.913 . S
C2297 H2273 0.950 . S
C2297 C2296 1.524 . S
C2297 C2298 1.415 . S
C2298 H2274 0.950 . S
C2298 C2293 1.363 . S
C2298 C2297 1.415 . S
C2299 H2275 0.951 . S
C2299 C2300 1.366 . S
C2299 C2301 1.388 . S
C2300 C2299 1.366 . S
C2300 C2304 1.385 . S
C2301 H2276 0.951 . S
C2301 C2299 1.388 . S
C2301 C2302 1.366 . S
C2302 C2301 1.366 . S
C2302 C2303 1.414 . S
C2302 C2305 1.499 . S
C2303 H2277 0.950 . S
C2303 C2302 1.414 . S
C2303 C2304 1.374 . S
C2304 H2278 0.950 . S
C2304 C2300 1.385 . S
C2304 C2303 1.374 . S
C2305 C2302 1.499 . S
C2305 C2306 1.373 . S
C2305 C2307 1.389 . S
C2306 H2279 0.950 . S
C2306 C2292 1.377 . S
C2306 C2305 1.373 . S
C2307 C2291 1.377 . S
C2307 C2305 1.389 . S
C2307 C2308 1.524 . S
C2308 C2307 1.524 . S
C2308 C2309 1.397 . S
C2308 C2313 1.363 . S
C2309 H2280 0.950 . S
C2309 C2308 1.397 . S
C2309 C2310 1.334 . S
C2310 H2281 0.950 . S
C2310 C2309 1.334 . S
C2310 C2311 1.287 . S
C2311 C2310 1.287 . S
C2311 C2312 1.524 . S
C2311 H2314 0.999 . S
C2312 H2282 0.950 . S
C2312 C2311 1.524 . S
C2312 C2313 1.415 . S
C2313 H2283 0.950 . S
C2313 C2308 1.363 . S
C2313 C2312 1.415 . S
H2314 C2311 0.999 . S
H2315 C2296 0.913 . S
H2316 C2334 0.951 . S
H2317 C2336 0.951 . S
H2318 C2338 0.950 . S
H2319 C2339 0.950 . S
H2320 C2341 0.950 . S
H2321 C2344 0.950 . S
H2322 C2345 0.950 . S
H2323 C2347 0.950 . S
H2324 C2348 0.950 . S
H2325 C2349 0.951 . S
H2326 C2351 0.951 . S
H2327 C2353 0.950 . S
H2328 C2354 0.950 . S
H2329 C2356 0.950 . S
H2330 C2359 0.950 . S
H2331 C2360 0.950 . S
H2332 C2362 0.950 . S
H2333 C2363 0.950 . S
C2334 H2316 0.951 . S
C2334 C2335 1.366 . S
C2334 C2336 1.388 . S
C2335 C2334 1.366 . S
C2335 C2339 1.385 . S
C2336 H2317 0.951 . S
C2336 C2334 1.388 . S
C2336 C2337 1.366 . S
C2337 C2336 1.366 . S
C2337 C2338 1.414 . S
C2337 C2340 1.499 . S
C2338 H2318 0.950 . S
C2338 C2337 1.414 . S
C2338 C2339 1.374 . S
C2339 H2319 0.950 . S
C2339 C2335 1.385 . S
C2339 C2338 1.374 . S
C2340 C2337 1.499 . S
C2340 C2341 1.373 . S
C2340 C2342 1.389 . S
C2341 H2320 0.950 . S
C2341 C2340 1.373 . S
C2341 C2357 1.377 . S
C2342 C2340 1.389 . S
C2342 C2343 1.524 . S
C2342 C2356 1.377 . S
C2343 C2342 1.524 . S
C2343 C2344 1.397 . S
C2343 C2348 1.363 . S
C2344 H2321 0.950 . S
C2344 C2343 1.397 . S
C2344 C2345 1.334 . S
C2345 H2322 0.950 . S
C2345 C2344 1.334 . S
C2345 C2346 1.287 . S
C2346 C2345 1.287 . S
C2346 C2347 1.524 . S
C2346 H2365 0.913 . S
C2347 H2323 0.950 . S
C2347 C2346 1.524 . S
C2347 C2348 1.415 . S
C2348 H2324 0.950 . S
C2348 C2343 1.363 . S
C2348 C2347 1.415 . S
C2349 H2325 0.951 . S
C2349 C2350 1.366 . S
C2349 C2351 1.388 . S
C2350 C2349 1.366 . S
C2350 C2354 1.385 . S
C2351 H2326 0.951 . S
C2351 C2349 1.388 . S
C2351 C2352 1.366 . S
C2352 C2351 1.366 . S
C2352 C2353 1.414 . S
C2352 C2355 1.499 . S
C2353 H2327 0.950 . S
C2353 C2352 1.414 . S
C2353 C2354 1.374 . S
C2354 H2328 0.950 . S
C2354 C2350 1.385 . S
C2354 C2353 1.374 . S
C2355 C2352 1.499 . S
C2355 C2356 1.373 . S
C2355 C2357 1.389 . S
C2356 H2329 0.950 . S
C2356 C2342 1.377 . S
C2356 C2355 1.373 . S
C2357 C2341 1.377 . S
C2357 C2355 1.389 . S
C2357 C2358 1.524 . S
C2358 C2357 1.524 . S
C2358 C2359 1.397 . S
C2358 C2363 1.363 . S
C2359 H2330 0.950 . S
C2359 C2358 1.397 . S
C2359 C2360 1.334 . S
C2360 H2331 0.950 . S
C2360 C2359 1.334 . S
C2360 C2361 1.287 . S
C2361 C2360 1.287 . S
C2361 C2362 1.524 . S
C2361 H2364 0.999 . S
C2362 H2332 0.950 . S
C2362 C2361 1.524 . S
C2362 C2363 1.415 . S
C2363 H2333 0.950 . S
C2363 C2358 1.363 . S
C2363 C2362 1.415 . S
H2364 C2361 0.999 . S
H2365 C2346 0.913 . S
H2366 C2384 0.951 . S
H2367 C2386 0.951 . S
H2368 C2388 0.950 . S
H2369 C2389 0.950 . S
H2370 C2391 0.950 . S
H2371 C2394 0.950 . S
H2372 C2395 0.950 . S
H2373 C2397 0.950 . S
H2374 C2398 0.950 . S
H2375 C2399 0.951 . S
H2376 C2401 0.951 . S
H2377 C2403 0.950 . S
H2378 C2404 0.950 . S
H2379 C2406 0.950 . S
H2380 C2409 0.950 . S
H2381 C2410 0.950 . S
H2382 C2412 0.950 . S
H2383 C2413 0.950 . S
C2384 H2366 0.951 . S
C2384 C2385 1.366 . S
C2384 C2386 1.388 . S
C2385 C2384 1.366 . S
C2385 C2389 1.385 . S
C2386 H2367 0.951 . S
C2386 C2384 1.388 . S
C2386 C2387 1.366 . S
C2387 C2386 1.366 . S
C2387 C2388 1.414 . S
C2387 C2390 1.499 . S
C2388 H2368 0.950 . S
C2388 C2387 1.414 . S
C2388 C2389 1.374 . S
C2389 H2369 0.950 . S
C2389 C2385 1.385 . S
C2389 C2388 1.374 . S
C2390 C2387 1.499 . S
C2390 C2391 1.373 . S
C2390 C2392 1.389 . S
C2391 H2370 0.950 . S
C2391 C2390 1.373 . S
C2391 C2407 1.377 . S
C2392 C2390 1.389 . S
C2392 C2393 1.524 . S
C2392 C2406 1.377 . S
C2393 C2392 1.524 . S
C2393 C2394 1.397 . S
C2393 C2398 1.363 . S
C2394 H2371 0.950 . S
C2394 C2393 1.397 . S
C2394 C2395 1.334 . S
C2395 H2372 0.950 . S
C2395 C2394 1.334 . S
C2395 C2396 1.287 . S
C2396 C2395 1.287 . S
C2396 C2397 1.524 . S
C2396 H2415 0.913 . S
C2397 H2373 0.950 . S
C2397 C2396 1.524 . S
C2397 C2398 1.415 . S
C2398 H2374 0.950 . S
C2398 C2393 1.363 . S
C2398 C2397 1.415 . S
C2399 H2375 0.951 . S
C2399 C2400 1.366 . S
C2399 C2401 1.388 . S
C2400 C2399 1.366 . S
C2400 C2404 1.385 . S
C2401 H2376 0.951 . S
C2401 C2399 1.388 . S
C2401 C2402 1.366 . S
C2402 C2401 1.366 . S
C2402 C2403 1.414 . S
C2402 C2405 1.499 . S
C2403 H2377 0.950 . S
C2403 C2402 1.414 . S
C2403 C2404 1.374 . S
C2404 H2378 0.950 . S
C2404 C2400 1.385 . S
C2404 C2403 1.374 . S
C2405 C2402 1.499 . S
C2405 C2406 1.373 . S
C2405 C2407 1.389 . S
C2406 H2379 0.950 . S
C2406 C2392 1.377 . S
C2406 C2405 1.373 . S
C2407 C2391 1.377 . S
C2407 C2405 1.389 . S
C2407 C2408 1.524 . S
C2408 C2407 1.524 . S
C2408 C2409 1.397 . S
C2408 C2413 1.363 . S
C2409 H2380 0.950 . S
C2409 C2408 1.397 . S
C2409 C2410 1.334 . S
C2410 H2381 0.950 . S
C2410 C2409 1.334 . S
C2410 C2411 1.287 . S
C2411 C2410 1.287 . S
C2411 C2412 1.524 . S
C2411 H2414 0.999 . S
C2412 H2382 0.950 . S
C2412 C2411 1.524 . S
C2412 C2413 1.415 . S
C2413 H2383 0.950 . S
C2413 C2408 1.363 . S
C2413 C2412 1.415 . S
H2414 C2411 0.999 . S
H2415 C2396 0.913 . S
H2416 C2434 0.951 . S
H2417 C2436 0.951 . S
H2418 C2438 0.950 . S
H2419 C2439 0.950 . S
H2420 C2441 0.950 . S
H2421 C2444 0.950 . S
H2422 C2445 0.950 . S
H2423 C2447 0.950 . S
H2424 C2448 0.950 . S
H2425 C2449 0.951 . S
H2426 C2451 0.951 . S
H2427 C2453 0.950 . S
H2428 C2454 0.950 . S
H2429 C2456 0.950 . S
H2430 C2459 0.950 . S
H2431 C2460 0.950 . S
H2432 C2462 0.950 . S
H2433 C2463 0.950 . S
C2434 H2416 0.951 . S
C2434 C2435 1.366 . S
C2434 C2436 1.388 . S
C2435 C2434 1.366 . S
C2435 C2439 1.385 . S
C2436 H2417 0.951 . S
C2436 C2434 1.388 . S
C2436 C2437 1.366 . S
C2437 C2436 1.366 . S
C2437 C2438 1.414 . S
C2437 C2440 1.499 . S
C2438 H2418 0.950 . S
C2438 C2437 1.414 . S
C2438 C2439 1.374 . S
C2439 H2419 0.950 . S
C2439 C2435 1.385 . S
C2439 C2438 1.374 . S
C2440 C2437 1.499 . S
C2440 C2441 1.373 . S
C2440 C2442 1.389 . S
C2441 H2420 0.950 . S
C2441 C2440 1.373 . S
C2441 C2457 1.377 1_554 S
C2442 C2440 1.389 . S
C2442 C2443 1.524 . S
C2442 C2456 1.377 1_554 S
C2443 C2442 1.524 . S
C2443 C2444 1.397 . S
C2443 C2448 1.363 . S
C2444 H2421 0.950 . S
C2444 C2443 1.397 . S
C2444 C2445 1.334 . S
C2445 H2422 0.950 . S
C2445 C2444 1.334 . S
C2445 C2446 1.287 . S
C2446 C2445 1.287 . S
C2446 C2447 1.524 . S
C2446 H2465 0.913 . S
C2447 H2423 0.950 . S
C2447 C2446 1.524 . S
C2447 C2448 1.415 . S
C2448 H2424 0.950 . S
C2448 C2443 1.363 . S
C2448 C2447 1.415 . S
C2449 H2425 0.951 . S
C2449 C2450 1.366 . S
C2449 C2451 1.388 . S
C2450 C2449 1.366 . S
C2450 C2454 1.385 . S
C2451 H2426 0.951 . S
C2451 C2449 1.388 . S
C2451 C2452 1.366 . S
C2452 C2451 1.366 . S
C2452 C2453 1.414 . S
C2452 C2455 1.499 . S
C2453 H2427 0.950 . S
C2453 C2452 1.414 . S
C2453 C2454 1.374 . S
C2454 H2428 0.950 . S
C2454 C2450 1.385 . S
C2454 C2453 1.374 . S
C2455 C2452 1.499 . S
C2455 C2456 1.373 . S
C2455 C2457 1.389 . S
C2456 H2429 0.950 . S
C2456 C2442 1.377 1_556 S
C2456 C2455 1.373 . S
C2457 C2441 1.377 1_556 S
C2457 C2455 1.389 . S
C2457 C2458 1.524 . S
C2458 C2457 1.524 . S
C2458 C2459 1.397 . S
C2458 C2463 1.363 . S
C2459 H2430 0.950 . S
C2459 C2458 1.397 . S
C2459 C2460 1.334 . S
C2460 H2431 0.950 . S
C2460 C2459 1.334 . S
C2460 C2461 1.287 . S
C2461 C2460 1.287 . S
C2461 C2462 1.524 . S
C2461 H2464 0.999 . S
C2462 H2432 0.950 . S
C2462 C2461 1.524 . S
C2462 C2463 1.415 . S
C2463 H2433 0.950 . S
C2463 C2458 1.363 . S
C2463 C2462 1.415 . S
H2464 C2461 0.999 . S
H2465 C2446 0.913 . S
H2466 C2484 0.951 . S
H2467 C2486 0.951 . S
H2468 C2488 0.950 . S
H2469 C2489 0.950 . S
H2470 C2491 0.950 . S
H2471 C2494 0.950 . S
H2472 C2495 0.950 . S
H2473 C2497 0.950 . S
H2474 C2498 0.950 . S
H2475 C2499 0.951 . S
H2476 C2501 0.951 . S
H2477 C2503 0.950 . S
H2478 C2504 0.950 . S
H2479 C2506 0.950 . S
H2480 C2509 0.950 . S
H2481 C2510 0.950 . S
H2482 C2512 0.950 . S
H2483 C2513 0.950 . S
C2484 H2466 0.951 . S
C2484 C2485 1.366 . S
C2484 C2486 1.388 . S
C2485 C2484 1.366 . S
C2485 C2489 1.385 . S
C2486 H2467 0.951 . S
C2486 C2484 1.388 . S
C2486 C2487 1.366 . S
C2487 C2486 1.366 . S
C2487 C2488 1.414 . S
C2487 C2490 1.499 . S
C2488 H2468 0.950 . S
C2488 C2487 1.414 . S
C2488 C2489 1.374 . S
C2489 H2469 0.950 . S
C2489 C2485 1.385 . S
C2489 C2488 1.374 . S
C2490 C2487 1.499 . S
C2490 C2491 1.373 . S
C2490 C2492 1.389 . S
C2491 H2470 0.950 . S
C2491 C2490 1.373 . S
C2491 C2507 1.377 1_556 S
C2492 C2490 1.389 . S
C2492 C2493 1.524 . S
C2492 C2506 1.377 1_556 S
C2493 C2492 1.524 . S
C2493 C2494 1.397 . S
C2493 C2498 1.363 . S
C2494 H2471 0.950 . S
C2494 C2493 1.397 . S
C2494 C2495 1.334 . S
C2495 H2472 0.950 . S
C2495 C2494 1.334 . S
C2495 C2496 1.287 . S
C2496 C2495 1.287 . S
C2496 C2497 1.524 . S
C2496 H2515 0.913 . S
C2497 H2473 0.950 . S
C2497 C2496 1.524 . S
C2497 C2498 1.415 . S
C2498 H2474 0.950 . S
C2498 C2493 1.363 . S
C2498 C2497 1.415 . S
C2499 H2475 0.951 . S
C2499 C2500 1.366 . S
C2499 C2501 1.388 . S
C2500 C2499 1.366 . S
C2500 C2504 1.385 . S
C2501 H2476 0.951 . S
C2501 C2499 1.388 . S
C2501 C2502 1.366 . S
C2502 C2501 1.366 . S
C2502 C2503 1.414 . S
C2502 C2505 1.499 . S
C2503 H2477 0.950 . S
C2503 C2502 1.414 . S
C2503 C2504 1.374 . S
C2504 H2478 0.950 . S
C2504 C2500 1.385 . S
C2504 C2503 1.374 . S
C2505 C2502 1.499 . S
C2505 C2506 1.373 . S
C2505 C2507 1.389 . S
C2506 H2479 0.950 . S
C2506 C2492 1.377 1_554 S
C2506 C2505 1.373 . S
C2507 C2491 1.377 1_554 S
C2507 C2505 1.389 . S
C2507 C2508 1.524 . S
C2508 C2507 1.524 . S
C2508 C2509 1.397 . S
C2508 C2513 1.363 . S
C2509 H2480 0.950 . S
C2509 C2508 1.397 . S
C2509 C2510 1.334 . S
C2510 H2481 0.950 . S
C2510 C2509 1.334 . S
C2510 C2511 1.287 . S
C2511 C2510 1.287 . S
C2511 C2512 1.524 . S
C2511 H2514 0.999 . S
C2512 H2482 0.950 . S
C2512 C2511 1.524 . S
C2512 C2513 1.415 . S
C2513 H2483 0.950 . S
C2513 C2508 1.363 . S
C2513 C2512 1.415 . S
H2514 C2511 0.999 . S
H2515 C2496 0.913 . S
H2516 C2534 0.951 . S
H2517 C2536 0.951 . S
H2518 C2538 0.950 . S
H2519 C2539 0.950 . S
H2520 C2541 0.950 . S
H2521 C2544 0.950 . S
H2522 C2545 0.950 . S
H2523 C2547 0.950 . S
H2524 C2548 0.950 . S
H2525 C2549 0.951 . S
H2526 C2551 0.951 . S
H2527 C2553 0.950 . S
H2528 C2554 0.950 . S
H2529 C2556 0.950 . S
H2530 C2559 0.950 . S
H2531 C2560 0.950 . S
H2532 C2562 0.950 . S
H2533 C2563 0.950 . S
C2534 H2516 0.951 . S
C2534 C2535 1.366 . S
C2534 C2536 1.388 . S
C2535 C2534 1.366 . S
C2535 C2539 1.385 . S
C2536 H2517 0.951 . S
C2536 C2534 1.388 . S
C2536 C2537 1.366 . S
C2537 C2536 1.366 . S
C2537 C2538 1.414 . S
C2537 C2540 1.499 . S
C2538 H2518 0.950 . S
C2538 C2537 1.414 . S
C2538 C2539 1.374 . S
C2539 H2519 0.950 . S
C2539 C2535 1.385 . S
C2539 C2538 1.374 . S
C2540 C2537 1.499 . S
C2540 C2541 1.373 . S
C2540 C2542 1.389 . S
C2541 H2520 0.950 . S
C2541 C2540 1.373 . S
C2541 C2557 1.377 1_554 S
C2542 C2540 1.389 . S
C2542 C2543 1.524 . S
C2542 C2556 1.377 1_554 S
C2543 C2542 1.524 . S
C2543 C2544 1.397 . S
C2543 C2548 1.363 . S
C2544 H2521 0.950 . S
C2544 C2543 1.397 . S
C2544 C2545 1.334 . S
C2545 H2522 0.950 . S
C2545 C2544 1.334 . S
C2545 C2546 1.287 . S
C2546 C2545 1.287 . S
C2546 C2547 1.524 . S
C2546 H2565 0.913 . S
C2547 H2523 0.950 . S
C2547 C2546 1.524 . S
C2547 C2548 1.415 . S
C2548 H2524 0.950 . S
C2548 C2543 1.363 . S
C2548 C2547 1.415 . S
C2549 H2525 0.951 . S
C2549 C2550 1.366 . S
C2549 C2551 1.388 . S
C2550 C2549 1.366 . S
C2550 C2554 1.385 . S
C2551 H2526 0.951 . S
C2551 C2549 1.388 . S
C2551 C2552 1.366 . S
C2552 C2551 1.366 . S
C2552 C2553 1.414 . S
C2552 C2555 1.499 . S
C2553 H2527 0.950 . S
C2553 C2552 1.414 . S
C2553 C2554 1.374 . S
C2554 H2528 0.950 . S
C2554 C2550 1.385 . S
C2554 C2553 1.374 . S
C2555 C2552 1.499 . S
C2555 C2556 1.373 . S
C2555 C2557 1.389 . S
C2556 H2529 0.950 . S
C2556 C2542 1.377 1_556 S
C2556 C2555 1.373 . S
C2557 C2541 1.377 1_556 S
C2557 C2555 1.389 . S
C2557 C2558 1.524 . S
C2558 C2557 1.524 . S
C2558 C2559 1.397 . S
C2558 C2563 1.363 . S
C2559 H2530 0.950 . S
C2559 C2558 1.397 . S
C2559 C2560 1.334 . S
C2560 H2531 0.950 . S
C2560 C2559 1.334 . S
C2560 C2561 1.287 . S
C2561 C2560 1.287 . S
C2561 C2562 1.524 . S
C2561 H2564 0.999 . S
C2562 H2532 0.950 . S
C2562 C2561 1.524 . S
C2562 C2563 1.415 . S
C2563 H2533 0.950 . S
C2563 C2558 1.363 . S
C2563 C2562 1.415 . S
H2564 C2561 0.999 . S
H2565 C2546 0.913 . S
H2566 C2584 0.951 . S
H2567 C2586 0.951 . S
H2568 C2588 0.950 . S
H2569 C2589 0.950 . S
H2570 C2591 0.950 . S
H2571 C2594 0.950 . S
H2572 C2595 0.950 . S
H2573 C2597 0.950 . S
H2574 C2598 0.950 . S
H2575 C2599 0.951 . S
H2576 C2601 0.951 . S
H2577 C2603 0.950 . S
H2578 C2604 0.950 . S
H2579 C2606 0.950 . S
H2580 C2609 0.950 . S
H2581 C2610 0.950 . S
H2582 C2612 0.950 . S
H2583 C2613 0.950 . S
C2584 H2566 0.951 . S
C2584 C2585 1.366 . S
C2584 C2586 1.388 . S
C2585 C2584 1.366 . S
C2585 C2589 1.385 . S
C2586 H2567 0.951 . S
C2586 C2584 1.388 . S
C2586 C2587 1.366 . S
C2587 C2586 1.366 . S
C2587 C2588 1.414 . S
C2587 C2590 1.499 . S
C2588 H2568 0.950 . S
C2588 C2587 1.414 . S
C2588 C2589 1.374 . S
C2589 H2569 0.950 . S
C2589 C2585 1.385 . S
C2589 C2588 1.374 . S
C2590 C2587 1.499 . S
C2590 C2591 1.373 . S
C2590 C2592 1.389 . S
C2591 H2570 0.950 . S
C2591 C2590 1.373 . S
C2591 C2607 1.377 1_554 S
C2592 C2590 1.389 . S
C2592 C2593 1.524 . S
C2592 C2606 1.377 1_554 S
C2593 C2592 1.524 . S
C2593 C2594 1.397 . S
C2593 C2598 1.363 . S
C2594 H2571 0.950 . S
C2594 C2593 1.397 . S
C2594 C2595 1.334 . S
C2595 H2572 0.950 . S
C2595 C2594 1.334 . S
C2595 C2596 1.287 . S
C2596 C2595 1.287 . S
C2596 C2597 1.524 . S
C2596 H2615 0.913 . S
C2597 H2573 0.950 . S
C2597 C2596 1.524 . S
C2597 C2598 1.415 . S
C2598 H2574 0.950 . S
C2598 C2593 1.363 . S
C2598 C2597 1.415 . S
C2599 H2575 0.951 . S
C2599 C2600 1.366 . S
C2599 C2601 1.388 . S
C2600 C2599 1.366 . S
C2600 C2604 1.385 . S
C2601 H2576 0.951 . S
C2601 C2599 1.388 . S
C2601 C2602 1.366 . S
C2602 C2601 1.366 . S
C2602 C2603 1.414 . S
C2602 C2605 1.499 . S
C2603 H2577 0.950 . S
C2603 C2602 1.414 . S
C2603 C2604 1.374 . S
C2604 H2578 0.950 . S
C2604 C2600 1.385 . S
C2604 C2603 1.374 . S
C2605 C2602 1.499 . S
C2605 C2606 1.373 . S
C2605 C2607 1.389 . S
C2606 H2579 0.950 . S
C2606 C2592 1.377 1_556 S
C2606 C2605 1.373 . S
C2607 C2591 1.377 1_556 S
C2607 C2605 1.389 . S
C2607 C2608 1.524 . S
C2608 C2607 1.524 . S
C2608 C2609 1.397 . S
C2608 C2613 1.363 . S
C2609 H2580 0.950 . S
C2609 C2608 1.397 . S
C2609 C2610 1.334 . S
C2610 H2581 0.950 . S
C2610 C2609 1.334 . S
C2610 C2611 1.287 . S
C2611 C2610 1.287 . S
C2611 C2612 1.524 . S
C2611 H2614 0.999 . S
C2612 H2582 0.950 . S
C2612 C2611 1.524 . S
C2612 C2613 1.415 . S
C2613 H2583 0.950 . S
C2613 C2608 1.363 . S
C2613 C2612 1.415 . S
H2614 C2611 0.999 . S
H2615 C2596 0.913 . S
H2616 C2634 0.951 . S
H2617 C2636 0.951 . S
H2618 C2638 0.950 . S
H2619 C2639 0.950 . S
H2620 C2641 0.950 . S
H2621 C2644 0.950 . S
H2622 C2645 0.950 . S
H2623 C2647 0.950 . S
H2624 C2648 0.950 . S
H2625 C2649 0.951 . S
H2626 C2651 0.951 . S
H2627 C2653 0.950 . S
H2628 C2654 0.950 . S
H2629 C2656 0.950 . S
H2630 C2659 0.950 . S
H2631 C2660 0.950 . S
H2632 C2662 0.950 . S
H2633 C2663 0.950 . S
C2634 H2616 0.951 . S
C2634 C2635 1.366 . S
C2634 C2636 1.388 . S
C2635 C2634 1.366 . S
C2635 C2639 1.385 . S
C2636 H2617 0.951 . S
C2636 C2634 1.388 . S
C2636 C2637 1.366 . S
C2637 C2636 1.366 . S
C2637 C2638 1.414 . S
C2637 C2640 1.499 . S
C2638 H2618 0.950 . S
C2638 C2637 1.414 . S
C2638 C2639 1.374 . S
C2639 H2619 0.950 . S
C2639 C2635 1.385 . S
C2639 C2638 1.374 . S
C2640 C2637 1.499 . S
C2640 C2641 1.373 . S
C2640 C2642 1.389 . S
C2641 H2620 0.950 . S
C2641 C2640 1.373 . S
C2641 C2657 1.377 1_554 S
C2642 C2640 1.389 . S
C2642 C2643 1.524 . S
C2642 C2656 1.377 1_554 S
C2643 C2642 1.524 . S
C2643 C2644 1.397 . S
C2643 C2648 1.363 . S
C2644 H2621 0.950 . S
C2644 C2643 1.397 . S
C2644 C2645 1.334 . S
C2645 H2622 0.950 . S
C2645 C2644 1.334 . S
C2645 C2646 1.287 . S
C2646 C2645 1.287 . S
C2646 C2647 1.524 . S
C2646 H2665 0.913 . S
C2647 H2623 0.950 . S
C2647 C2646 1.524 . S
C2647 C2648 1.415 . S
C2648 H2624 0.950 . S
C2648 C2643 1.363 . S
C2648 C2647 1.415 . S
C2649 H2625 0.951 . S
C2649 C2650 1.366 . S
C2649 C2651 1.388 . S
C2650 C2649 1.366 . S
C2650 C2654 1.385 . S
C2651 H2626 0.951 . S
C2651 C2649 1.388 . S
C2651 C2652 1.366 . S
C2652 C2651 1.366 . S
C2652 C2653 1.414 . S
C2652 C2655 1.499 . S
C2653 H2627 0.950 . S
C2653 C2652 1.414 . S
C2653 C2654 1.374 . S
C2654 H2628 0.950 . S
C2654 C2650 1.385 . S
C2654 C2653 1.374 . S
C2655 C2652 1.499 . S
C2655 C2656 1.373 . S
C2655 C2657 1.389 . S
C2656 H2629 0.950 . S
C2656 C2642 1.377 1_556 S
C2656 C2655 1.373 . S
C2657 C2641 1.377 1_556 S
C2657 C2655 1.389 . S
C2657 C2658 1.524 . S
C2658 C2657 1.524 . S
C2658 C2659 1.397 . S
C2658 C2663 1.363 . S
C2659 H2630 0.950 . S
C2659 C2658 1.397 . S
C2659 C2660 1.334 . S
C2660 H2631 0.950 . S
C2660 C2659 1.334 . S
C2660 C2661 1.287 . S
C2661 C2660 1.287 . S
C2661 C2662 1.524 . S
C2661 H2664 0.999 . S
C2662 H2632 0.950 . S
C2662 C2661 1.524 . S
C2662 C2663 1.415 . S
C2663 H2633 0.950 . S
C2663 C2658 1.363 . S
C2663 C2662 1.415 . S
H2664 C2661 0.999 . S
H2665 C2646 0.913 . S
H2666 C2684 0.951 . S
H2667 C2686 0.951 . S
H2668 C2688 0.950 . S
H2669 C2689 0.950 . S
H2670 C2691 0.950 . S
H2671 C2694 0.950 . S
H2672 C2695 0.950 . S
H2673 C2697 0.950 . S
H2674 C2698 0.950 . S
H2675 C2699 0.951 . S
H2676 C2701 0.951 . S
H2677 C2703 0.950 . S
H2678 C2704 0.950 . S
H2679 C2706 0.950 . S
H2680 C2709 0.950 . S
H2681 C2710 0.950 . S
H2682 C2712 0.950 . S
H2683 C2713 0.950 . S
C2684 H2666 0.951 . S
C2684 C2685 1.366 . S
C2684 C2686 1.388 . S
C2685 C2684 1.366 . S
C2685 C2689 1.385 . S
C2686 H2667 0.951 . S
C2686 C2684 1.388 . S
C2686 C2687 1.366 . S
C2687 C2686 1.366 . S
C2687 C2688 1.414 . S
C2687 C2690 1.499 . S
C2688 H2668 0.950 . S
C2688 C2687 1.414 . S
C2688 C2689 1.374 . S
C2689 H2669 0.950 . S
C2689 C2685 1.385 . S
C2689 C2688 1.374 . S
C2690 C2687 1.499 . S
C2690 C2691 1.373 . S
C2690 C2692 1.389 . S
C2691 H2670 0.950 . S
C2691 C2690 1.373 . S
C2691 C2707 1.377 1_554 S
C2692 C2690 1.389 . S
C2692 C2693 1.524 . S
C2692 C2706 1.377 1_554 S
C2693 C2692 1.524 . S
C2693 C2694 1.397 . S
C2693 C2698 1.363 . S
C2694 H2671 0.950 . S
C2694 C2693 1.397 . S
C2694 C2695 1.334 . S
C2695 H2672 0.950 . S
C2695 C2694 1.334 . S
C2695 C2696 1.287 . S
C2696 C2695 1.287 . S
C2696 C2697 1.524 . S
C2696 H2715 0.913 . S
C2697 H2673 0.950 . S
C2697 C2696 1.524 . S
C2697 C2698 1.415 . S
C2698 H2674 0.950 . S
C2698 C2693 1.363 . S
C2698 C2697 1.415 . S
C2699 H2675 0.951 . S
C2699 C2700 1.366 . S
C2699 C2701 1.388 . S
C2700 C2699 1.366 . S
C2700 C2704 1.385 . S
C2701 H2676 0.951 . S
C2701 C2699 1.388 . S
C2701 C2702 1.366 . S
C2702 C2701 1.366 . S
C2702 C2703 1.414 . S
C2702 C2705 1.499 . S
C2703 H2677 0.950 . S
C2703 C2702 1.414 . S
C2703 C2704 1.374 . S
C2704 H2678 0.950 . S
C2704 C2700 1.385 . S
C2704 C2703 1.374 . S
C2705 C2702 1.499 . S
C2705 C2706 1.373 . S
C2705 C2707 1.389 . S
C2706 H2679 0.950 . S
C2706 C2692 1.377 1_556 S
C2706 C2705 1.373 . S
C2707 C2691 1.377 1_556 S
C2707 C2705 1.389 . S
C2707 C2708 1.524 . S
C2708 C2707 1.524 . S
C2708 C2709 1.397 . S
C2708 C2713 1.363 . S
C2709 H2680 0.950 . S
C2709 C2708 1.397 . S
C2709 C2710 1.334 . S
C2710 H2681 0.950 . S
C2710 C2709 1.334 . S
C2710 C2711 1.287 . S
C2711 C2710 1.287 . S
C2711 C2712 1.524 . S
C2711 H2714 0.999 . S
C2712 H2682 0.950 . S
C2712 C2711 1.524 . S
C2712 C2713 1.415 . S
C2713 H2683 0.950 . S
C2713 C2708 1.363 . S
C2713 C2712 1.415 . S
H2714 C2711 0.999 . S
H2715 C2696 0.913 . S
H2716 C2734 0.951 . S
H2717 C2736 0.951 . S
H2718 C2738 0.950 . S
H2719 C2739 0.950 . S
H2720 C2741 0.950 . S
H2721 C2744 0.950 . S
H2722 C2745 0.950 . S
H2723 C2747 0.950 . S
H2724 C2748 0.950 . S
H2725 C2749 0.951 . S
H2726 C2751 0.951 . S
H2727 C2753 0.950 . S
H2728 C2754 0.950 . S
H2729 C2756 0.950 . S
H2730 C2759 0.950 . S
H2731 C2760 0.950 . S
H2732 C2762 0.950 . S
H2733 C2763 0.950 . S
C2734 H2716 0.951 . S
C2734 C2735 1.366 . S
C2734 C2736 1.388 . S
C2735 C2734 1.366 . S
C2735 C2739 1.385 . S
C2736 H2717 0.951 . S
C2736 C2734 1.388 . S
C2736 C2737 1.366 . S
C2737 C2736 1.366 . S
C2737 C2738 1.414 . S
C2737 C2740 1.499 . S
C2738 H2718 0.950 . S
C2738 C2737 1.414 . S
C2738 C2739 1.374 . S
C2739 H2719 0.950 . S
C2739 C2735 1.385 . S
C2739 C2738 1.374 . S
C2740 C2737 1.499 . S
C2740 C2741 1.373 . S
C2740 C2742 1.389 . S
C2741 H2720 0.950 . S
C2741 C2740 1.373 . S
C2741 C2757 1.377 1_556 S
C2742 C2740 1.389 . S
C2742 C2743 1.524 . S
C2742 C2756 1.377 1_556 S
C2743 C2742 1.524 . S
C2743 C2744 1.397 . S
C2743 C2748 1.363 . S
C2744 H2721 0.950 . S
C2744 C2743 1.397 . S
C2744 C2745 1.334 . S
C2745 H2722 0.950 . S
C2745 C2744 1.334 . S
C2745 C2746 1.287 . S
C2746 C2745 1.287 . S
C2746 C2747 1.524 . S
C2746 H2765 0.913 . S
C2747 H2723 0.950 . S
C2747 C2746 1.524 . S
C2747 C2748 1.415 . S
C2748 H2724 0.950 . S
C2748 C2743 1.363 . S
C2748 C2747 1.415 . S
C2749 H2725 0.951 . S
C2749 C2750 1.366 . S
C2749 C2751 1.388 . S
C2750 C2749 1.366 . S
C2750 C2754 1.385 . S
C2751 H2726 0.951 . S
C2751 C2749 1.388 . S
C2751 C2752 1.366 . S
C2752 C2751 1.366 . S
C2752 C2753 1.414 . S
C2752 C2755 1.499 . S
C2753 H2727 0.950 . S
C2753 C2752 1.414 . S
C2753 C2754 1.374 . S
C2754 H2728 0.950 . S
C2754 C2750 1.385 . S
C2754 C2753 1.374 . S
C2755 C2752 1.499 . S
C2755 C2756 1.373 . S
C2755 C2757 1.389 . S
C2756 H2729 0.950 . S
C2756 C2742 1.377 1_554 S
C2756 C2755 1.373 . S
C2757 C2741 1.377 1_554 S
C2757 C2755 1.389 . S
C2757 C2758 1.524 . S
C2758 C2757 1.524 . S
C2758 C2759 1.397 . S
C2758 C2763 1.363 . S
C2759 H2730 0.950 . S
C2759 C2758 1.397 . S
C2759 C2760 1.334 . S
C2760 H2731 0.950 . S
C2760 C2759 1.334 . S
C2760 C2761 1.287 . S
C2761 C2760 1.287 . S
C2761 C2762 1.524 . S
C2761 H2764 0.999 . S
C2762 H2732 0.950 . S
C2762 C2761 1.524 . S
C2762 C2763 1.415 . S
C2763 H2733 0.950 . S
C2763 C2758 1.363 . S
C2763 C2762 1.415 . S
H2764 C2761 0.999 . S
H2765 C2746 0.913 . S
H2766 C2784 0.951 . S
H2767 C2786 0.951 . S
H2768 C2788 0.950 . S
H2769 C2789 0.950 . S
H2770 C2791 0.950 . S
H2771 C2794 0.950 . S
H2772 C2795 0.950 . S
H2773 C2797 0.950 . S
H2774 C2798 0.950 . S
H2775 C2799 0.951 . S
H2776 C2801 0.951 . S
H2777 C2803 0.950 . S
H2778 C2804 0.950 . S
H2779 C2806 0.950 . S
H2780 C2809 0.950 . S
H2781 C2810 0.950 . S
H2782 C2812 0.950 . S
H2783 C2813 0.950 . S
C2784 H2766 0.951 . S
C2784 C2785 1.366 . S
C2784 C2786 1.388 . S
C2785 C2784 1.366 . S
C2785 C2789 1.385 . S
C2786 H2767 0.951 . S
C2786 C2784 1.388 . S
C2786 C2787 1.366 . S
C2787 C2786 1.366 . S
C2787 C2788 1.414 . S
C2787 C2790 1.499 . S
C2788 H2768 0.950 . S
C2788 C2787 1.414 . S
C2788 C2789 1.374 . S
C2789 H2769 0.950 . S
C2789 C2785 1.385 . S
C2789 C2788 1.374 . S
C2790 C2787 1.499 . S
C2790 C2791 1.373 . S
C2790 C2792 1.389 . S
C2791 H2770 0.950 . S
C2791 C2790 1.373 . S
C2791 C2807 1.377 1_556 S
C2792 C2790 1.389 . S
C2792 C2793 1.524 . S
C2792 C2806 1.377 1_556 S
C2793 C2792 1.524 . S
C2793 C2794 1.397 . S
C2793 C2798 1.363 . S
C2794 H2771 0.950 . S
C2794 C2793 1.397 . S
C2794 C2795 1.334 . S
C2795 H2772 0.950 . S
C2795 C2794 1.334 . S
C2795 C2796 1.287 . S
C2796 C2795 1.287 . S
C2796 C2797 1.524 . S
C2796 H2815 0.913 . S
C2797 H2773 0.950 . S
C2797 C2796 1.524 . S
C2797 C2798 1.415 . S
C2798 H2774 0.950 . S
C2798 C2793 1.363 . S
C2798 C2797 1.415 . S
C2799 H2775 0.951 . S
C2799 C2800 1.366 . S
C2799 C2801 1.388 . S
C2800 C2799 1.366 . S
C2800 C2804 1.385 . S
C2801 H2776 0.951 . S
C2801 C2799 1.388 . S
C2801 C2802 1.366 . S
C2802 C2801 1.366 . S
C2802 C2803 1.414 . S
C2802 C2805 1.499 . S
C2803 H2777 0.950 . S
C2803 C2802 1.414 . S
C2803 C2804 1.374 . S
C2804 H2778 0.950 . S
C2804 C2800 1.385 . S
C2804 C2803 1.374 . S
C2805 C2802 1.499 . S
C2805 C2806 1.373 . S
C2805 C2807 1.389 . S
C2806 H2779 0.950 . S
C2806 C2792 1.377 1_554 S
C2806 C2805 1.373 . S
C2807 C2791 1.377 1_554 S
C2807 C2805 1.389 . S
C2807 C2808 1.524 . S
C2808 C2807 1.524 . S
C2808 C2809 1.397 . S
C2808 C2813 1.363 . S
C2809 H2780 0.950 . S
C2809 C2808 1.397 . S
C2809 C2810 1.334 . S
C2810 H2781 0.950 . S
C2810 C2809 1.334 . S
C2810 C2811 1.287 . S
C2811 C2810 1.287 . S
C2811 C2812 1.524 . S
C2811 H2814 0.999 . S
C2812 H2782 0.950 . S
C2812 C2811 1.524 . S
C2812 C2813 1.415 . S
C2813 H2783 0.950 . S
C2813 C2808 1.363 . S
C2813 C2812 1.415 . S
H2814 C2811 0.999 . S
H2815 C2796 0.913 . S
H2816 C2834 0.951 . S
H2817 C2836 0.951 . S
H2818 C2838 0.950 . S
H2819 C2839 0.950 . S
H2820 C2841 0.950 . S
H2821 C2844 0.950 . S
H2822 C2845 0.950 . S
H2823 C2847 0.950 . S
H2824 C2848 0.950 . S
H2825 C2849 0.951 . S
H2826 C2851 0.951 . S
H2827 C2853 0.950 . S
H2828 C2854 0.950 . S
H2829 C2856 0.950 . S
H2830 C2859 0.950 . S
H2831 C2860 0.950 . S
H2832 C2862 0.950 . S
H2833 C2863 0.950 . S
C2834 H2816 0.951 . S
C2834 C2835 1.366 . S
C2834 C2836 1.388 . S
C2835 C2834 1.366 . S
C2835 C2839 1.385 . S
C2836 H2817 0.951 . S
C2836 C2834 1.388 . S
C2836 C2837 1.366 . S
C2837 C2836 1.366 . S
C2837 C2838 1.414 . S
C2837 C2840 1.499 . S
C2838 H2818 0.950 . S
C2838 C2837 1.414 . S
C2838 C2839 1.374 . S
C2839 H2819 0.950 . S
C2839 C2835 1.385 . S
C2839 C2838 1.374 . S
C2840 C2837 1.499 . S
C2840 C2841 1.373 . S
C2840 C2842 1.389 . S
C2841 H2820 0.950 . S
C2841 C2840 1.373 . S
C2841 C2857 1.377 . S
C2842 C2840 1.389 . S
C2842 C2843 1.524 . S
C2842 C2856 1.377 . S
C2843 C2842 1.524 . S
C2843 C2844 1.397 . S
C2843 C2848 1.363 . S
C2844 H2821 0.950 . S
C2844 C2843 1.397 . S
C2844 C2845 1.334 . S
C2845 H2822 0.950 . S
C2845 C2844 1.334 . S
C2845 C2846 1.287 . S
C2846 C2845 1.287 . S
C2846 C2847 1.524 . S
C2846 H2865 0.913 . S
C2847 H2823 0.950 . S
C2847 C2846 1.524 . S
C2847 C2848 1.415 . S
C2848 H2824 0.950 . S
C2848 C2843 1.363 . S
C2848 C2847 1.415 . S
C2849 H2825 0.951 . S
C2849 C2850 1.366 . S
C2849 C2851 1.388 . S
C2850 C2849 1.366 . S
C2850 C2854 1.385 . S
C2851 H2826 0.951 . S
C2851 C2849 1.388 . S
C2851 C2852 1.366 . S
C2852 C2851 1.366 . S
C2852 C2853 1.414 . S
C2852 C2855 1.499 . S
C2853 H2827 0.950 . S
C2853 C2852 1.414 . S
C2853 C2854 1.374 . S
C2854 H2828 0.950 . S
C2854 C2850 1.385 . S
C2854 C2853 1.374 . S
C2855 C2852 1.499 . S
C2855 C2856 1.373 . S
C2855 C2857 1.389 . S
C2856 H2829 0.950 . S
C2856 C2842 1.377 . S
C2856 C2855 1.373 . S
C2857 C2841 1.377 . S
C2857 C2855 1.389 . S
C2857 C2858 1.524 . S
C2858 C2857 1.524 . S
C2858 C2859 1.397 . S
C2858 C2863 1.363 . S
C2859 H2830 0.950 . S
C2859 C2858 1.397 . S
C2859 C2860 1.334 . S
C2860 H2831 0.950 . S
C2860 C2859 1.334 . S
C2860 C2861 1.287 . S
C2861 C2860 1.287 . S
C2861 C2862 1.524 . S
C2861 H2864 0.999 . S
C2862 H2832 0.950 . S
C2862 C2861 1.524 . S
C2862 C2863 1.415 . S
C2863 H2833 0.950 . S
C2863 C2858 1.363 . S
C2863 C2862 1.415 . S
H2864 C2861 0.999 . S
H2865 C2846 0.913 . S
H2866 C2884 0.951 . S
H2867 C2886 0.951 . S
H2868 C2888 0.950 . S
H2869 C2889 0.950 . S
H2870 C2891 0.950 . S
H2871 C2894 0.950 . S
H2872 C2895 0.950 . S
H2873 C2897 0.950 . S
H2874 C2898 0.950 . S
H2875 C2899 0.951 . S
H2876 C2901 0.951 . S
H2877 C2903 0.950 . S
H2878 C2904 0.950 . S
H2879 C2906 0.950 . S
H2880 C2909 0.950 . S
H2881 C2910 0.950 . S
H2882 C2912 0.950 . S
H2883 C2913 0.950 . S
C2884 H2866 0.951 . S
C2884 C2885 1.366 . S
C2884 C2886 1.388 . S
C2885 C2884 1.366 . S
C2885 C2889 1.385 . S
C2886 H2867 0.951 . S
C2886 C2884 1.388 . S
C2886 C2887 1.366 . S
C2887 C2886 1.366 . S
C2887 C2888 1.414 . S
C2887 C2890 1.499 . S
C2888 H2868 0.950 . S
C2888 C2887 1.414 . S
C2888 C2889 1.374 . S
C2889 H2869 0.950 . S
C2889 C2885 1.385 . S
C2889 C2888 1.374 . S
C2890 C2887 1.499 . S
C2890 C2891 1.373 . S
C2890 C2892 1.389 . S
C2891 H2870 0.950 . S
C2891 C2890 1.373 . S
C2891 C2907 1.377 . S
C2892 C2890 1.389 . S
C2892 C2893 1.524 . S
C2892 C2906 1.377 . S
C2893 C2892 1.524 . S
C2893 C2894 1.397 . S
C2893 C2898 1.363 . S
C2894 H2871 0.950 . S
C2894 C2893 1.397 . S
C2894 C2895 1.334 . S
C2895 H2872 0.950 . S
C2895 C2894 1.334 . S
C2895 C2896 1.287 . S
C2896 C2895 1.287 . S
C2896 C2897 1.524 . S
C2896 H2915 0.913 . S
C2897 H2873 0.950 . S
C2897 C2896 1.524 . S
C2897 C2898 1.415 . S
C2898 H2874 0.950 . S
C2898 C2893 1.363 . S
C2898 C2897 1.415 . S
C2899 H2875 0.951 . S
C2899 C2900 1.366 . S
C2899 C2901 1.388 . S
C2900 C2899 1.366 . S
C2900 C2904 1.385 . S
C2901 H2876 0.951 . S
C2901 C2899 1.388 . S
C2901 C2902 1.366 . S
C2902 C2901 1.366 . S
C2902 C2903 1.414 . S
C2902 C2905 1.499 . S
C2903 H2877 0.950 . S
C2903 C2902 1.414 . S
C2903 C2904 1.374 . S
C2904 H2878 0.950 . S
C2904 C2900 1.385 . S
C2904 C2903 1.374 . S
C2905 C2902 1.499 . S
C2905 C2906 1.373 . S
C2905 C2907 1.389 . S
C2906 H2879 0.950 . S
C2906 C2892 1.377 . S
C2906 C2905 1.373 . S
C2907 C2891 1.377 . S
C2907 C2905 1.389 . S
C2907 C2908 1.524 . S
C2908 C2907 1.524 . S
C2908 C2909 1.397 . S
C2908 C2913 1.363 . S
C2909 H2880 0.950 . S
C2909 C2908 1.397 . S
C2909 C2910 1.334 . S
C2910 H2881 0.950 . S
C2910 C2909 1.334 . S
C2910 C2911 1.287 . S
C2911 C2910 1.287 . S
C2911 C2912 1.524 . S
C2911 H2914 0.999 . S
C2912 H2882 0.950 . S
C2912 C2911 1.524 . S
C2912 C2913 1.415 . S
C2913 H2883 0.950 . S
C2913 C2908 1.363 . S
C2913 C2912 1.415 . S
H2914 C2911 0.999 . S
H2915 C2896 0.913 . S
H2916 C2934 0.951 . S
H2917 C2936 0.951 . S
H2918 C2938 0.950 . S
H2919 C2939 0.950 . S
H2920 C2941 0.950 . S
H2921 C2944 0.950 . S
H2922 C2945 0.950 . S
H2923 C2947 0.950 . S
H2924 C2948 0.950 . S
H2925 C2949 0.951 . S
H2926 C2951 0.951 . S
H2927 C2953 0.950 . S
H2928 C2954 0.950 . S
H2929 C2956 0.950 . S
H2930 C2959 0.950 . S
H2931 C2960 0.950 . S
H2932 C2962 0.950 . S
H2933 C2963 0.950 . S
C2934 H2916 0.951 . S
C2934 C2935 1.366 . S
C2934 C2936 1.388 . S
C2935 C2934 1.366 . S
C2935 C2939 1.385 . S
C2936 H2917 0.951 . S
C2936 C2934 1.388 . S
C2936 C2937 1.366 . S
C2937 C2936 1.366 . S
C2937 C2938 1.414 . S
C2937 C2940 1.499 . S
C2938 H2918 0.950 . S
C2938 C2937 1.414 . S
C2938 C2939 1.374 . S
C2939 H2919 0.950 . S
C2939 C2935 1.385 . S
C2939 C2938 1.374 . S
C2940 C2937 1.499 . S
C2940 C2941 1.373 . S
C2940 C2942 1.389 . S
C2941 H2920 0.950 . S
C2941 C2940 1.373 . S
C2941 C2957 1.377 . S
C2942 C2940 1.389 . S
C2942 C2943 1.524 . S
C2942 C2956 1.377 . S
C2943 C2942 1.524 . S
C2943 C2944 1.397 . S
C2943 C2948 1.363 . S
C2944 H2921 0.950 . S
C2944 C2943 1.397 . S
C2944 C2945 1.334 . S
C2945 H2922 0.950 . S
C2945 C2944 1.334 . S
C2945 C2946 1.287 . S
C2946 C2945 1.287 . S
C2946 C2947 1.524 . S
C2946 H2965 0.913 . S
C2947 H2923 0.950 . S
C2947 C2946 1.524 . S
C2947 C2948 1.415 . S
C2948 H2924 0.950 . S
C2948 C2943 1.363 . S
C2948 C2947 1.415 . S
C2949 H2925 0.951 . S
C2949 C2950 1.366 . S
C2949 C2951 1.388 . S
C2950 C2949 1.366 . S
C2950 C2954 1.385 . S
C2951 H2926 0.951 . S
C2951 C2949 1.388 . S
C2951 C2952 1.366 . S
C2952 C2951 1.366 . S
C2952 C2953 1.414 . S
C2952 C2955 1.499 . S
C2953 H2927 0.950 . S
C2953 C2952 1.414 . S
C2953 C2954 1.374 . S
C2954 H2928 0.950 . S
C2954 C2950 1.385 . S
C2954 C2953 1.374 . S
C2955 C2952 1.499 . S
C2955 C2956 1.373 . S
C2955 C2957 1.389 . S
C2956 H2929 0.950 . S
C2956 C2942 1.377 . S
C2956 C2955 1.373 . S
C2957 C2941 1.377 . S
C2957 C2955 1.389 . S
C2957 C2958 1.524 . S
C2958 C2957 1.524 . S
C2958 C2959 1.397 . S
C2958 C2963 1.363 . S
C2959 H2930 0.950 . S
C2959 C2958 1.397 . S
C2959 C2960 1.334 . S
C2960 H2931 0.950 . S
C2960 C2959 1.334 . S
C2960 C2961 1.287 . S
C2961 C2960 1.287 . S
C2961 C2962 1.524 . S
C2961 H2964 0.999 . S
C2962 H2932 0.950 . S
C2962 C2961 1.524 . S
C2962 C2963 1.415 . S
C2963 H2933 0.950 . S
C2963 C2958 1.363 . S
C2963 C2962 1.415 . S
H2964 C2961 0.999 . S
H2965 C2946 0.913 . S
H2966 C2984 0.951 . S
H2967 C2986 0.951 . S
H2968 C2988 0.950 . S
H2969 C2989 0.950 . S
H2970 C2991 0.950 . S
H2971 C2994 0.950 . S
H2972 C2995 0.950 . S
H2973 C2997 0.950 . S
H2974 C2998 0.950 . S
H2975 C2999 0.951 . S
H2976 C3001 0.951 . S
H2977 C3003 0.950 . S
H2978 C3004 0.950 . S
H2979 C3006 0.950 . S
H2980 C3009 0.950 . S
H2981 C3010 0.950 . S
H2982 C3012 0.950 . S
H2983 C3013 0.950 . S
C2984 H2966 0.951 . S
C2984 C2985 1.366 . S
C2984 C2986 1.388 . S
C2985 C2984 1.366 . S
C2985 C2989 1.385 . S
C2986 H2967 0.951 . S
C2986 C2984 1.388 . S
C2986 C2987 1.366 . S
C2987 C2986 1.366 . S
C2987 C2988 1.414 . S
C2987 C2990 1.499 . S
C2988 H2968 0.950 . S
C2988 C2987 1.414 . S
C2988 C2989 1.374 . S
C2989 H2969 0.950 . S
C2989 C2985 1.385 . S
C2989 C2988 1.374 . S
C2990 C2987 1.499 . S
C2990 C2991 1.373 . S
C2990 C2992 1.389 . S
C2991 H2970 0.950 . S
C2991 C2990 1.373 . S
C2991 C3007 1.377 . S
C2992 C2990 1.389 . S
C2992 C2993 1.524 . S
C2992 C3006 1.377 . S
C2993 C2992 1.524 . S
C2993 C2994 1.397 . S
C2993 C2998 1.363 . S
C2994 H2971 0.950 . S
C2994 C2993 1.397 . S
C2994 C2995 1.334 . S
C2995 H2972 0.950 . S
C2995 C2994 1.334 . S
C2995 C2996 1.287 . S
C2996 C2995 1.287 . S
C2996 C2997 1.524 . S
C2996 H3015 0.913 . S
C2997 H2973 0.950 . S
C2997 C2996 1.524 . S
C2997 C2998 1.415 . S
C2998 H2974 0.950 . S
C2998 C2993 1.363 . S
C2998 C2997 1.415 . S
C2999 H2975 0.951 . S
C2999 C3000 1.366 . S
C2999 C3001 1.388 . S
C3000 C2999 1.366 . S
C3000 C3004 1.385 . S
C3001 H2976 0.951 . S
C3001 C2999 1.388 . S
C3001 C3002 1.366 . S
C3002 C3001 1.366 . S
C3002 C3003 1.414 . S
C3002 C3005 1.499 . S
C3003 H2977 0.950 . S
C3003 C3002 1.414 . S
C3003 C3004 1.374 . S
C3004 H2978 0.950 . S
C3004 C3000 1.385 . S
C3004 C3003 1.374 . S
C3005 C3002 1.499 . S
C3005 C3006 1.373 . S
C3005 C3007 1.389 . S
C3006 H2979 0.950 . S
C3006 C2992 1.377 . S
C3006 C3005 1.373 . S
C3007 C2991 1.377 . S
C3007 C3005 1.389 . S
C3007 C3008 1.524 . S
C3008 C3007 1.524 . S
C3008 C3009 1.397 . S
C3008 C3013 1.363 . S
C3009 H2980 0.950 . S
C3009 C3008 1.397 . S
C3009 C3010 1.334 . S
C3010 H2981 0.950 . S
C3010 C3009 1.334 . S
C3010 C3011 1.287 . S
C3011 C3010 1.287 . S
C3011 C3012 1.524 . S
C3011 H3014 0.999 . S
C3012 H2982 0.950 . S
C3012 C3011 1.524 . S
C3012 C3013 1.415 . S
C3013 H2983 0.950 . S
C3013 C3008 1.363 . S
C3013 C3012 1.415 . S
H3014 C3011 0.999 . S
H3015 C2996 0.913 . S
H3016 C3034 0.951 . S
H3017 C3036 0.951 . S
H3018 C3038 0.950 . S
H3019 C3039 0.950 . S
H3020 C3041 0.950 . S
H3021 C3044 0.950 . S
H3022 C3045 0.950 . S
H3023 C3047 0.950 . S
H3024 C3048 0.950 . S
H3025 C3049 0.951 . S
H3026 C3051 0.951 . S
H3027 C3053 0.950 . S
H3028 C3054 0.950 . S
H3029 C3056 0.950 . S
H3030 C3059 0.950 . S
H3031 C3060 0.950 . S
H3032 C3062 0.950 . S
H3033 C3063 0.950 . S
C3034 H3016 0.951 . S
C3034 C3035 1.366 . S
C3034 C3036 1.388 . S
C3035 C3034 1.366 . S
C3035 C3039 1.385 . S
C3036 H3017 0.951 . S
C3036 C3034 1.388 . S
C3036 C3037 1.366 . S
C3037 C3036 1.366 . S
C3037 C3038 1.414 . S
C3037 C3040 1.499 . S
C3038 H3018 0.950 . S
C3038 C3037 1.414 . S
C3038 C3039 1.374 . S
C3039 H3019 0.950 . S
C3039 C3035 1.385 . S
C3039 C3038 1.374 . S
C3040 C3037 1.499 . S
C3040 C3041 1.373 . S
C3040 C3042 1.389 . S
C3041 H3020 0.950 . S
C3041 C3040 1.373 . S
C3041 C3057 1.377 . S
C3042 C3040 1.389 . S
C3042 C3043 1.524 . S
C3042 C3056 1.377 . S
C3043 C3042 1.524 . S
C3043 C3044 1.397 . S
C3043 C3048 1.363 . S
C3044 H3021 0.950 . S
C3044 C3043 1.397 . S
C3044 C3045 1.334 . S
C3045 H3022 0.950 . S
C3045 C3044 1.334 . S
C3045 C3046 1.287 . S
C3046 C3045 1.287 . S
C3046 C3047 1.524 . S
C3046 H3065 0.913 . S
C3047 H3023 0.950 . S
C3047 C3046 1.524 . S
C3047 C3048 1.415 . S
C3048 H3024 0.950 . S
C3048 C3043 1.363 . S
C3048 C3047 1.415 . S
C3049 H3025 0.951 . S
C3049 C3050 1.366 . S
C3049 C3051 1.388 . S
C3050 C3049 1.366 . S
C3050 C3054 1.385 . S
C3051 H3026 0.951 . S
C3051 C3049 1.388 . S
C3051 C3052 1.366 . S
C3052 C3051 1.366 . S
C3052 C3053 1.414 . S
C3052 C3055 1.499 . S
C3053 H3027 0.950 . S
C3053 C3052 1.414 . S
C3053 C3054 1.374 . S
C3054 H3028 0.950 . S
C3054 C3050 1.385 . S
C3054 C3053 1.374 . S
C3055 C3052 1.499 . S
C3055 C3056 1.373 . S
C3055 C3057 1.389 . S
C3056 H3029 0.950 . S
C3056 C3042 1.377 . S
C3056 C3055 1.373 . S
C3057 C3041 1.377 . S
C3057 C3055 1.389 . S
C3057 C3058 1.524 . S
C3058 C3057 1.524 . S
C3058 C3059 1.397 . S
C3058 C3063 1.363 . S
C3059 H3030 0.950 . S
C3059 C3058 1.397 . S
C3059 C3060 1.334 . S
C3060 H3031 0.950 . S
C3060 C3059 1.334 . S
C3060 C3061 1.287 . S
C3061 C3060 1.287 . S
C3061 C3062 1.524 . S
C3061 H3064 0.999 . S
C3062 H3032 0.950 . S
C3062 C3061 1.524 . S
C3062 C3063 1.415 . S
C3063 H3033 0.950 . S
C3063 C3058 1.363 . S
C3063 C3062 1.415 . S
H3064 C3061 0.999 . S
H3065 C3046 0.913 . S
H3066 C3084 0.951 . S
H3067 C3086 0.951 . S
H3068 C3088 0.950 . S
H3069 C3089 0.950 . S
H3070 C3091 0.950 . S
H3071 C3094 0.950 . S
H3072 C3095 0.950 . S
H3073 C3097 0.950 . S
H3074 C3098 0.950 . S
H3075 C3099 0.951 . S
H3076 C3101 0.951 . S
H3077 C3103 0.950 . S
H3078 C3104 0.950 . S
H3079 C3106 0.950 . S
H3080 C3109 0.950 . S
H3081 C3110 0.950 . S
H3082 C3112 0.950 . S
H3083 C3113 0.950 . S
C3084 H3066 0.951 . S
C3084 C3085 1.366 . S
C3084 C3086 1.388 . S
C3085 C3084 1.366 . S
C3085 C3089 1.385 . S
C3086 H3067 0.951 . S
C3086 C3084 1.388 . S
C3086 C3087 1.366 . S
C3087 C3086 1.366 . S
C3087 C3088 1.414 . S
C3087 C3090 1.499 . S
C3088 H3068 0.950 . S
C3088 C3087 1.414 . S
C3088 C3089 1.374 . S
C3089 H3069 0.950 . S
C3089 C3085 1.385 . S
C3089 C3088 1.374 . S
C3090 C3087 1.499 . S
C3090 C3091 1.373 . S
C3090 C3092 1.389 . S
C3091 H3070 0.950 . S
C3091 C3090 1.373 . S
C3091 C3107 1.377 . S
C3092 C3090 1.389 . S
C3092 C3093 1.524 . S
C3092 C3106 1.377 . S
C3093 C3092 1.524 . S
C3093 C3094 1.397 . S
C3093 C3098 1.363 . S
C3094 H3071 0.950 . S
C3094 C3093 1.397 . S
C3094 C3095 1.334 . S
C3095 H3072 0.950 . S
C3095 C3094 1.334 . S
C3095 C3096 1.287 . S
C3096 C3095 1.287 . S
C3096 C3097 1.524 . S
C3096 H3115 0.913 . S
C3097 H3073 0.950 . S
C3097 C3096 1.524 . S
C3097 C3098 1.415 . S
C3098 H3074 0.950 . S
C3098 C3093 1.363 . S
C3098 C3097 1.415 . S
C3099 H3075 0.951 . S
C3099 C3100 1.366 . S
C3099 C3101 1.388 . S
C3100 C3099 1.366 . S
C3100 C3104 1.385 . S
C3101 H3076 0.951 . S
C3101 C3099 1.388 . S
C3101 C3102 1.366 . S
C3102 C3101 1.366 . S
C3102 C3103 1.414 . S
C3102 C3105 1.499 . S
C3103 H3077 0.950 . S
C3103 C3102 1.414 . S
C3103 C3104 1.374 . S
C3104 H3078 0.950 . S
C3104 C3100 1.385 . S
C3104 C3103 1.374 . S
C3105 C3102 1.499 . S
C3105 C3106 1.373 . S
C3105 C3107 1.389 . S
C3106 H3079 0.950 . S
C3106 C3092 1.377 . S
C3106 C3105 1.373 . S
C3107 C3091 1.377 . S
C3107 C3105 1.389 . S
C3107 C3108 1.524 . S
C3108 C3107 1.524 . S
C3108 C3109 1.397 . S
C3108 C3113 1.363 . S
C3109 H3080 0.950 . S
C3109 C3108 1.397 . S
C3109 C3110 1.334 . S
C3110 H3081 0.950 . S
C3110 C3109 1.334 . S
C3110 C3111 1.287 . S
C3111 C3110 1.287 . S
C3111 C3112 1.524 . S
C3111 H3114 0.999 . S
C3112 H3082 0.950 . S
C3112 C3111 1.524 . S
C3112 C3113 1.415 . S
C3113 H3083 0.950 . S
C3113 C3108 1.363 . S
C3113 C3112 1.415 . S
H3114 C3111 0.999 . S
H3115 C3096 0.913 . S
H3116 C3134 0.951 . S
H3117 C3136 0.951 . S
H3118 C3138 0.950 . S
H3119 C3139 0.950 . S
H3120 C3141 0.950 . S
H3121 C3144 0.950 . S
H3122 C3145 0.950 . S
H3123 C3147 0.950 . S
H3124 C3148 0.950 . S
H3125 C3149 0.951 . S
H3126 C3151 0.951 . S
H3127 C3153 0.950 . S
H3128 C3154 0.950 . S
H3129 C3156 0.950 . S
H3130 C3159 0.950 . S
H3131 C3160 0.950 . S
H3132 C3162 0.950 . S
H3133 C3163 0.950 . S
C3134 H3116 0.951 . S
C3134 C3135 1.366 . S
C3134 C3136 1.388 . S
C3135 C3134 1.366 . S
C3135 C3139 1.385 . S
C3136 H3117 0.951 . S
C3136 C3134 1.388 . S
C3136 C3137 1.366 . S
C3137 C3136 1.366 . S
C3137 C3138 1.414 . S
C3137 C3140 1.499 . S
C3138 H3118 0.950 . S
C3138 C3137 1.414 . S
C3138 C3139 1.374 . S
C3139 H3119 0.950 . S
C3139 C3135 1.385 . S
C3139 C3138 1.374 . S
C3140 C3137 1.499 . S
C3140 C3141 1.373 . S
C3140 C3142 1.389 . S
C3141 H3120 0.950 . S
C3141 C3140 1.373 . S
C3141 C3157 1.377 . S
C3142 C3140 1.389 . S
C3142 C3143 1.524 . S
C3142 C3156 1.377 . S
C3143 C3142 1.524 . S
C3143 C3144 1.397 . S
C3143 C3148 1.363 . S
C3144 H3121 0.950 . S
C3144 C3143 1.397 . S
C3144 C3145 1.334 . S
C3145 H3122 0.950 . S
C3145 C3144 1.334 . S
C3145 C3146 1.287 . S
C3146 C3145 1.287 . S
C3146 C3147 1.524 . S
C3146 H3165 0.913 . S
C3147 H3123 0.950 . S
C3147 C3146 1.524 . S
C3147 C3148 1.415 . S
C3148 H3124 0.950 . S
C3148 C3143 1.363 . S
C3148 C3147 1.415 . S
C3149 H3125 0.951 . S
C3149 C3150 1.366 . S
C3149 C3151 1.388 . S
C3150 C3149 1.366 . S
C3150 C3154 1.385 . S
C3151 H3126 0.951 . S
C3151 C3149 1.388 . S
C3151 C3152 1.366 . S
C3152 C3151 1.366 . S
C3152 C3153 1.414 . S
C3152 C3155 1.499 . S
C3153 H3127 0.950 . S
C3153 C3152 1.414 . S
C3153 C3154 1.374 . S
C3154 H3128 0.950 . S
C3154 C3150 1.385 . S
C3154 C3153 1.374 . S
C3155 C3152 1.499 . S
C3155 C3156 1.373 . S
C3155 C3157 1.389 . S
C3156 H3129 0.950 . S
C3156 C3142 1.377 . S
C3156 C3155 1.373 . S
C3157 C3141 1.377 . S
C3157 C3155 1.389 . S
C3157 C3158 1.524 . S
C3158 C3157 1.524 . S
C3158 C3159 1.397 . S
C3158 C3163 1.363 . S
C3159 H3130 0.950 . S
C3159 C3158 1.397 . S
C3159 C3160 1.334 . S
C3160 H3131 0.950 . S
C3160 C3159 1.334 . S
C3160 C3161 1.287 . S
C3161 C3160 1.287 . S
C3161 C3162 1.524 . S
C3161 H3164 0.999 . S
C3162 H3132 0.950 . S
C3162 C3161 1.524 . S
C3162 C3163 1.415 . S
C3163 H3133 0.950 . S
C3163 C3158 1.363 . S
C3163 C3162 1.415 . S
H3164 C3161 0.999 . S
H3165 C3146 0.913 . S
H3166 C3184 0.951 . S
H3167 C3186 0.951 . S
H3168 C3188 0.950 . S
H3169 C3189 0.950 . S
H3170 C3191 0.950 . S
H3171 C3194 0.950 . S
H3172 C3195 0.950 . S
H3173 C3197 0.950 . S
H3174 C3198 0.950 . S
H3175 C3199 0.951 . S
H3176 C3201 0.951 . S
H3177 C3203 0.950 . S
H3178 C3204 0.950 . S
H3179 C3206 0.950 . S
H3180 C3209 0.950 . S
H3181 C3210 0.950 . S
H3182 C3212 0.950 . S
H3183 C3213 0.950 . S
C3184 H3166 0.951 . S
C3184 C3185 1.366 . S
C3184 C3186 1.388 . S
C3185 C3184 1.366 . S
C3185 C3189 1.385 . S
C3186 H3167 0.951 . S
C3186 C3184 1.388 . S
C3186 C3187 1.366 . S
C3187 C3186 1.366 . S
C3187 C3188 1.414 . S
C3187 C3190 1.499 . S
C3188 H3168 0.950 . S
C3188 C3187 1.414 . S
C3188 C3189 1.374 . S
C3189 H3169 0.950 . S
C3189 C3185 1.385 . S
C3189 C3188 1.374 . S
C3190 C3187 1.499 . S
C3190 C3191 1.373 . S
C3190 C3192 1.389 . S
C3191 H3170 0.950 . S
C3191 C3190 1.373 . S
C3191 C3207 1.377 . S
C3192 C3190 1.389 . S
C3192 C3193 1.524 . S
C3192 C3206 1.377 . S
C3193 C3192 1.524 . S
C3193 C3194 1.397 . S
C3193 C3198 1.363 . S
C3194 H3171 0.950 . S
C3194 C3193 1.397 . S
C3194 C3195 1.334 . S
C3195 H3172 0.950 . S
C3195 C3194 1.334 . S
C3195 C3196 1.287 . S
C3196 C3195 1.287 . S
C3196 C3197 1.524 . S
C3196 H3215 0.913 . S
C3197 H3173 0.950 . S
C3197 C3196 1.524 . S
C3197 C3198 1.415 . S
C3198 H3174 0.950 . S
C3198 C3193 1.363 . S
C3198 C3197 1.415 . S
C3199 H3175 0.951 . S
C3199 C3200 1.366 . S
C3199 C3201 1.388 . S
C3200 C3199 1.366 . S
C3200 C3204 1.385 . S
C3201 H3176 0.951 . S
C3201 C3199 1.388 . S
C3201 C3202 1.366 . S
C3202 C3201 1.366 . S
C3202 C3203 1.414 . S
C3202 C3205 1.499 . S
C3203 H3177 0.950 . S
C3203 C3202 1.414 . S
C3203 C3204 1.374 . S
C3204 H3178 0.950 . S
C3204 C3200 1.385 . S
C3204 C3203 1.374 . S
C3205 C3202 1.499 . S
C3205 C3206 1.373 . S
C3205 C3207 1.389 . S
C3206 H3179 0.950 . S
C3206 C3192 1.377 . S
C3206 C3205 1.373 . S
C3207 C3191 1.377 . S
C3207 C3205 1.389 . S
C3207 C3208 1.524 . S
C3208 C3207 1.524 . S
C3208 C3209 1.397 . S
C3208 C3213 1.363 . S
C3209 H3180 0.950 . S
C3209 C3208 1.397 . S
C3209 C3210 1.334 . S
C3210 H3181 0.950 . S
C3210 C3209 1.334 . S
C3210 C3211 1.287 . S
C3211 C3210 1.287 . S
C3211 C3212 1.524 . S
C3211 H3214 0.999 . S
C3212 H3182 0.950 . S
C3212 C3211 1.524 . S
C3212 C3213 1.415 . S
C3213 H3183 0.950 . S
C3213 C3208 1.363 . S
C3213 C3212 1.415 . S
H3214 C3211 0.999 . S
H3215 C3196 0.913 . S
H3216 C3234 0.951 . S
H3217 C3236 0.951 . S
H3218 C3238 0.950 . S
H3219 C3239 0.950 . S
H3220 C3241 0.950 . S
H3221 C3244 0.950 . S
H3222 C3245 0.950 . S
H3223 C3247 0.950 . S
H3224 C3248 0.950 . S
H3225 C3249 0.951 . S
H3226 C3251 0.951 . S
H3227 C3253 0.950 . S
H3228 C3254 0.950 . S
H3229 C3256 0.950 . S
H3230 C3259 0.950 . S
H3231 C3260 0.950 . S
H3232 C3262 0.950 . S
H3233 C3263 0.950 . S
C3234 H3216 0.951 . S
C3234 C3235 1.366 . S
C3234 C3236 1.388 . S
C3235 C3234 1.366 . S
C3235 C3239 1.385 . S
C3236 H3217 0.951 . S
C3236 C3234 1.388 . S
C3236 C3237 1.366 . S
C3237 C3236 1.366 . S
C3237 C3238 1.414 . S
C3237 C3240 1.499 . S
C3238 H3218 0.950 . S
C3238 C3237 1.414 . S
C3238 C3239 1.374 . S
C3239 H3219 0.950 . S
C3239 C3235 1.385 . S
C3239 C3238 1.374 . S
C3240 C3237 1.499 . S
C3240 C3241 1.373 . S
C3240 C3242 1.389 . S
C3241 H3220 0.950 . S
C3241 C3240 1.373 . S
C3241 C3257 1.377 . S
C3242 C3240 1.389 . S
C3242 C3243 1.524 . S
C3242 C3256 1.377 . S
C3243 C3242 1.524 . S
C3243 C3244 1.397 . S
C3243 C3248 1.363 . S
C3244 H3221 0.950 . S
C3244 C3243 1.397 . S
C3244 C3245 1.334 . S
C3245 H3222 0.950 . S
C3245 C3244 1.334 . S
C3245 C3246 1.287 . S
C3246 C3245 1.287 . S
C3246 C3247 1.524 . S
C3246 H3265 0.913 . S
C3247 H3223 0.950 . S
C3247 C3246 1.524 . S
C3247 C3248 1.415 . S
C3248 H3224 0.950 . S
C3248 C3243 1.363 . S
C3248 C3247 1.415 . S
C3249 H3225 0.951 . S
C3249 C3250 1.366 . S
C3249 C3251 1.388 . S
C3250 C3249 1.366 . S
C3250 C3254 1.385 . S
C3251 H3226 0.951 . S
C3251 C3249 1.388 . S
C3251 C3252 1.366 . S
C3252 C3251 1.366 . S
C3252 C3253 1.414 . S
C3252 C3255 1.499 . S
C3253 H3227 0.950 . S
C3253 C3252 1.414 . S
C3253 C3254 1.374 . S
C3254 H3228 0.950 . S
C3254 C3250 1.385 . S
C3254 C3253 1.374 . S
C3255 C3252 1.499 . S
C3255 C3256 1.373 . S
C3255 C3257 1.389 . S
C3256 H3229 0.950 . S
C3256 C3242 1.377 . S
C3256 C3255 1.373 . S
C3257 C3241 1.377 . S
C3257 C3255 1.389 . S
C3257 C3258 1.524 . S
C3258 C3257 1.524 . S
C3258 C3259 1.397 . S
C3258 C3263 1.363 . S
C3259 H3230 0.950 . S
C3259 C3258 1.397 . S
C3259 C3260 1.334 . S
C3260 H3231 0.950 . S
C3260 C3259 1.334 . S
C3260 C3261 1.287 . S
C3261 C3260 1.287 . S
C3261 C3262 1.524 . S
C3261 H3264 0.999 . S
C3262 H3232 0.950 . S
C3262 C3261 1.524 . S
C3262 C3263 1.415 . S
C3263 H3233 0.950 . S
C3263 C3258 1.363 . S
C3263 C3262 1.415 . S
H3264 C3261 0.999 . S
H3265 C3246 0.913 . S
H3266 C3284 0.951 . S
H3267 C3286 0.951 . S
H3268 C3288 0.950 . S
H3269 C3289 0.950 . S
H3270 C3291 0.950 . S
H3271 C3294 0.950 . S
H3272 C3295 0.950 . S
H3273 C3297 0.950 . S
H3274 C3298 0.950 . S
H3275 C3299 0.951 . S
H3276 C3301 0.951 . S
H3277 C3303 0.950 . S
H3278 C3304 0.950 . S
H3279 C3306 0.950 . S
H3280 C3309 0.950 . S
H3281 C3310 0.950 . S
H3282 C3312 0.950 . S
H3283 C3313 0.950 . S
C3284 H3266 0.951 . S
C3284 C3285 1.366 . S
C3284 C3286 1.388 . S
C3285 C3284 1.366 . S
C3285 C3289 1.385 . S
C3286 H3267 0.951 . S
C3286 C3284 1.388 . S
C3286 C3287 1.366 . S
C3287 C3286 1.366 . S
C3287 C3288 1.414 . S
C3287 C3290 1.499 . S
C3288 H3268 0.950 . S
C3288 C3287 1.414 . S
C3288 C3289 1.374 . S
C3289 H3269 0.950 . S
C3289 C3285 1.385 . S
C3289 C3288 1.374 . S
C3290 C3287 1.499 . S
C3290 C3291 1.373 . S
C3290 C3292 1.389 . S
C3291 H3270 0.950 . S
C3291 C3290 1.373 . S
C3291 C3307 1.377 . S
C3292 C3290 1.389 . S
C3292 C3293 1.524 . S
C3292 C3306 1.377 . S
C3293 C3292 1.524 . S
C3293 C3294 1.397 . S
C3293 C3298 1.363 . S
C3294 H3271 0.950 . S
C3294 C3293 1.397 . S
C3294 C3295 1.334 . S
C3295 H3272 0.950 . S
C3295 C3294 1.334 . S
C3295 C3296 1.287 . S
C3296 C3295 1.287 . S
C3296 C3297 1.524 . S
C3296 H3315 0.913 . S
C3297 H3273 0.950 . S
C3297 C3296 1.524 . S
C3297 C3298 1.415 . S
C3298 H3274 0.950 . S
C3298 C3293 1.363 . S
C3298 C3297 1.415 . S
C3299 H3275 0.951 . S
C3299 C3300 1.366 . S
C3299 C3301 1.388 . S
C3300 C3299 1.366 . S
C3300 C3304 1.385 . S
C3301 H3276 0.951 . S
C3301 C3299 1.388 . S
C3301 C3302 1.366 . S
C3302 C3301 1.366 . S
C3302 C3303 1.414 . S
C3302 C3305 1.499 . S
C3303 H3277 0.950 . S
C3303 C3302 1.414 . S
C3303 C3304 1.374 . S
C3304 H3278 0.950 . S
C3304 C3300 1.385 . S
C3304 C3303 1.374 . S
C3305 C3302 1.499 . S
C3305 C3306 1.373 . S
C3305 C3307 1.389 . S
C3306 H3279 0.950 . S
C3306 C3292 1.377 . S
C3306 C3305 1.373 . S
C3307 C3291 1.377 . S
C3307 C3305 1.389 . S
C3307 C3308 1.524 . S
C3308 C3307 1.524 . S
C3308 C3309 1.397 . S
C3308 C3313 1.363 . S
C3309 H3280 0.950 . S
C3309 C3308 1.397 . S
C3309 C3310 1.334 . S
C3310 H3281 0.950 . S
C3310 C3309 1.334 . S
C3310 C3311 1.287 . S
C3311 C3310 1.287 . S
C3311 C3312 1.524 . S
C3311 H3314 0.999 . S
C3312 H3282 0.950 . S
C3312 C3311 1.524 . S
C3312 C3313 1.415 . S
C3313 H3283 0.950 . S
C3313 C3308 1.363 . S
C3313 C3312 1.415 . S
H3314 C3311 0.999 . S
H3315 C3296 0.913 . S
H3316 C3334 0.951 . S
H3317 C3336 0.951 . S
H3318 C3338 0.950 . S
H3319 C3339 0.950 . S
H3320 C3341 0.950 . S
H3321 C3344 0.950 . S
H3322 C3345 0.950 . S
H3323 C3347 0.950 . S
H3324 C3348 0.950 . S
H3325 C3349 0.951 . S
H3326 C3351 0.951 . S
H3327 C3353 0.950 . S
H3328 C3354 0.950 . S
H3329 C3356 0.950 . S
H3330 C3359 0.950 . S
H3331 C3360 0.950 . S
H3332 C3362 0.950 . S
H3333 C3363 0.950 . S
C3334 H3316 0.951 . S
C3334 C3335 1.366 . S
C3334 C3336 1.388 . S
C3335 C3334 1.366 . S
C3335 C3339 1.385 . S
C3336 H3317 0.951 . S
C3336 C3334 1.388 . S
C3336 C3337 1.366 . S
C3337 C3336 1.366 . S
C3337 C3338 1.414 . S
C3337 C3340 1.499 . S
C3338 H3318 0.950 . S
C3338 C3337 1.414 . S
C3338 C3339 1.374 . S
C3339 H3319 0.950 . S
C3339 C3335 1.385 . S
C3339 C3338 1.374 . S
C3340 C3337 1.499 . S
C3340 C3341 1.373 . S
C3340 C3342 1.389 . S
C3341 H3320 0.950 . S
C3341 C3340 1.373 . S
C3341 C3357 1.377 . S
C3342 C3340 1.389 . S
C3342 C3343 1.524 . S
C3342 C3356 1.377 . S
C3343 C3342 1.524 . S
C3343 C3344 1.397 . S
C3343 C3348 1.363 . S
C3344 H3321 0.950 . S
C3344 C3343 1.397 . S
C3344 C3345 1.334 . S
C3345 H3322 0.950 . S
C3345 C3344 1.334 . S
C3345 C3346 1.287 . S
C3346 C3345 1.287 . S
C3346 C3347 1.524 . S
C3346 H3365 0.913 . S
C3347 H3323 0.950 . S
C3347 C3346 1.524 . S
C3347 C3348 1.415 . S
C3348 H3324 0.950 . S
C3348 C3343 1.363 . S
C3348 C3347 1.415 . S
C3349 H3325 0.951 . S
C3349 C3350 1.366 . S
C3349 C3351 1.388 . S
C3350 C3349 1.366 . S
C3350 C3354 1.385 . S
C3351 H3326 0.951 . S
C3351 C3349 1.388 . S
C3351 C3352 1.366 . S
C3352 C3351 1.366 . S
C3352 C3353 1.414 . S
C3352 C3355 1.499 . S
C3353 H3327 0.950 . S
C3353 C3352 1.414 . S
C3353 C3354 1.374 . S
C3354 H3328 0.950 . S
C3354 C3350 1.385 . S
C3354 C3353 1.374 . S
C3355 C3352 1.499 . S
C3355 C3356 1.373 . S
C3355 C3357 1.389 . S
C3356 H3329 0.950 . S
C3356 C3342 1.377 . S
C3356 C3355 1.373 . S
C3357 C3341 1.377 . S
C3357 C3355 1.389 . S
C3357 C3358 1.524 . S
C3358 C3357 1.524 . S
C3358 C3359 1.397 . S
C3358 C3363 1.363 . S
C3359 H3330 0.950 . S
C3359 C3358 1.397 . S
C3359 C3360 1.334 . S
C3360 H3331 0.950 . S
C3360 C3359 1.334 . S
C3360 C3361 1.287 . S
C3361 C3360 1.287 . S
C3361 C3362 1.524 . S
C3361 H3364 0.999 . S
C3362 H3332 0.950 . S
C3362 C3361 1.524 . S
C3362 C3363 1.415 . S
C3363 H3333 0.950 . S
C3363 C3358 1.363 . S
C3363 C3362 1.415 . S
H3364 C3361 0.999 . S
H3365 C3346 0.913 . S
H3366 C3384 0.951 . S
H3367 C3386 0.951 . S
H3368 C3388 0.950 . S
H3369 C3389 0.950 . S
H3370 C3391 0.950 . S
H3371 C3394 0.950 . S
H3372 C3395 0.950 . S
H3373 C3397 0.950 . S
H3374 C3398 0.950 . S
H3375 C3399 0.951 . S
H3376 C3401 0.951 . S
H3377 C3403 0.950 . S
H3378 C3404 0.950 . S
H3379 C3406 0.950 . S
H3380 C3409 0.950 . S
H3381 C3410 0.950 . S
H3382 C3412 0.950 . S
H3383 C3413 0.950 . S
C3384 H3366 0.951 . S
C3384 C3385 1.366 . S
C3384 C3386 1.388 . S
C3385 C3384 1.366 . S
C3385 C3389 1.385 . S
C3386 H3367 0.951 . S
C3386 C3384 1.388 . S
C3386 C3387 1.366 . S
C3387 C3386 1.366 . S
C3387 C3388 1.414 . S
C3387 C3390 1.499 . S
C3388 H3368 0.950 . S
C3388 C3387 1.414 . S
C3388 C3389 1.374 . S
C3389 H3369 0.950 . S
C3389 C3385 1.385 . S
C3389 C3388 1.374 . S
C3390 C3387 1.499 . S
C3390 C3391 1.373 . S
C3390 C3392 1.389 . S
C3391 H3370 0.950 . S
C3391 C3390 1.373 . S
C3391 C3407 1.377 . S
C3392 C3390 1.389 . S
C3392 C3393 1.524 . S
C3392 C3406 1.377 . S
C3393 C3392 1.524 . S
C3393 C3394 1.397 . S
C3393 C3398 1.363 . S
C3394 H3371 0.950 . S
C3394 C3393 1.397 . S
C3394 C3395 1.334 . S
C3395 H3372 0.950 . S
C3395 C3394 1.334 . S
C3395 C3396 1.287 . S
C3396 C3395 1.287 . S
C3396 C3397 1.524 . S
C3396 H3415 0.913 . S
C3397 H3373 0.950 . S
C3397 C3396 1.524 . S
C3397 C3398 1.415 . S
C3398 H3374 0.950 . S
C3398 C3393 1.363 . S
C3398 C3397 1.415 . S
C3399 H3375 0.951 . S
C3399 C3400 1.366 . S
C3399 C3401 1.388 . S
C3400 C3399 1.366 . S
C3400 C3404 1.385 . S
C3401 H3376 0.951 . S
C3401 C3399 1.388 . S
C3401 C3402 1.366 . S
C3402 C3401 1.366 . S
C3402 C3403 1.414 . S
C3402 C3405 1.499 . S
C3403 H3377 0.950 . S
C3403 C3402 1.414 . S
C3403 C3404 1.374 . S
C3404 H3378 0.950 . S
C3404 C3400 1.385 . S
C3404 C3403 1.374 . S
C3405 C3402 1.499 . S
C3405 C3406 1.373 . S
C3405 C3407 1.389 . S
C3406 H3379 0.950 . S
C3406 C3392 1.377 . S
C3406 C3405 1.373 . S
C3407 C3391 1.377 . S
C3407 C3405 1.389 . S
C3407 C3408 1.524 . S
C3408 C3407 1.524 . S
C3408 C3409 1.397 . S
C3408 C3413 1.363 . S
C3409 H3380 0.950 . S
C3409 C3408 1.397 . S
C3409 C3410 1.334 . S
C3410 H3381 0.950 . S
C3410 C3409 1.334 . S
C3410 C3411 1.287 . S
C3411 C3410 1.287 . S
C3411 C3412 1.524 . S
C3411 H3414 0.999 . S
C3412 H3382 0.950 . S
C3412 C3411 1.524 . S
C3412 C3413 1.415 . S
C3413 H3383 0.950 . S
C3413 C3408 1.363 . S
C3413 C3412 1.415 . S
H3414 C3411 0.999 . S
H3415 C3396 0.913 . S
H3416 C3434 0.951 . S
H3417 C3436 0.951 . S
H3418 C3438 0.950 . S
H3419 C3439 0.950 . S
H3420 C3441 0.950 . S
H3421 C3444 0.950 . S
H3422 C3445 0.950 . S
H3423 C3447 0.950 . S
H3424 C3448 0.950 . S
H3425 C3449 0.951 . S
H3426 C3451 0.951 . S
H3427 C3453 0.950 . S
H3428 C3454 0.950 . S
H3429 C3456 0.950 . S
H3430 C3459 0.950 . S
H3431 C3460 0.950 . S
H3432 C3462 0.950 . S
H3433 C3463 0.950 . S
C3434 H3416 0.951 . S
C3434 C3435 1.366 . S
C3434 C3436 1.388 . S
C3435 C3434 1.366 . S
C3435 C3439 1.385 . S
C3436 H3417 0.951 . S
C3436 C3434 1.388 . S
C3436 C3437 1.366 . S
C3437 C3436 1.366 . S
C3437 C3438 1.414 . S
C3437 C3440 1.499 . S
C3438 H3418 0.950 . S
C3438 C3437 1.414 . S
C3438 C3439 1.374 . S
C3439 H3419 0.950 . S
C3439 C3435 1.385 . S
C3439 C3438 1.374 . S
C3440 C3437 1.499 . S
C3440 C3441 1.373 . S
C3440 C3442 1.389 . S
C3441 H3420 0.950 . S
C3441 C3440 1.373 . S
C3441 C3457 1.377 . S
C3442 C3440 1.389 . S
C3442 C3443 1.524 . S
C3442 C3456 1.377 . S
C3443 C3442 1.524 . S
C3443 C3444 1.397 . S
C3443 C3448 1.363 . S
C3444 H3421 0.950 . S
C3444 C3443 1.397 . S
C3444 C3445 1.334 . S
C3445 H3422 0.950 . S
C3445 C3444 1.334 . S
C3445 C3446 1.287 . S
C3446 C3445 1.287 . S
C3446 C3447 1.524 . S
C3446 H3465 0.913 . S
C3447 H3423 0.950 . S
C3447 C3446 1.524 . S
C3447 C3448 1.415 . S
C3448 H3424 0.950 . S
C3448 C3443 1.363 . S
C3448 C3447 1.415 . S
C3449 H3425 0.951 . S
C3449 C3450 1.366 . S
C3449 C3451 1.388 . S
C3450 C3449 1.366 . S
C3450 C3454 1.385 . S
C3451 H3426 0.951 . S
C3451 C3449 1.388 . S
C3451 C3452 1.366 . S
C3452 C3451 1.366 . S
C3452 C3453 1.414 . S
C3452 C3455 1.499 . S
C3453 H3427 0.950 . S
C3453 C3452 1.414 . S
C3453 C3454 1.374 . S
C3454 H3428 0.950 . S
C3454 C3450 1.385 . S
C3454 C3453 1.374 . S
C3455 C3452 1.499 . S
C3455 C3456 1.373 . S
C3455 C3457 1.389 . S
C3456 H3429 0.950 . S
C3456 C3442 1.377 . S
C3456 C3455 1.373 . S
C3457 C3441 1.377 . S
C3457 C3455 1.389 . S
C3457 C3458 1.524 . S
C3458 C3457 1.524 . S
C3458 C3459 1.397 . S
C3458 C3463 1.363 . S
C3459 H3430 0.950 . S
C3459 C3458 1.397 . S
C3459 C3460 1.334 . S
C3460 H3431 0.950 . S
C3460 C3459 1.334 . S
C3460 C3461 1.287 . S
C3461 C3460 1.287 . S
C3461 C3462 1.524 . S
C3461 H3464 0.999 . S
C3462 H3432 0.950 . S
C3462 C3461 1.524 . S
C3462 C3463 1.415 . S
C3463 H3433 0.950 . S
C3463 C3458 1.363 . S
C3463 C3462 1.415 . S
H3464 C3461 0.999 . S
H3465 C3446 0.913 . S
H3466 C3484 0.951 . S
H3467 C3486 0.951 . S
H3468 C3488 0.950 . S
H3469 C3489 0.950 . S
H3470 C3491 0.950 . S
H3471 C3494 0.950 . S
H3472 C3495 0.950 . S
H3473 C3497 0.950 . S
H3474 C3498 0.950 . S
H3475 C3499 0.951 . S
H3476 C3501 0.951 . S
H3477 C3503 0.950 . S
H3478 C3504 0.950 . S
H3479 C3506 0.950 . S
H3480 C3509 0.950 . S
H3481 C3510 0.950 . S
H3482 C3512 0.950 . S
H3483 C3513 0.950 . S
C3484 H3466 0.951 . S
C3484 C3485 1.366 . S
C3484 C3486 1.388 . S
C3485 C3484 1.366 . S
C3485 C3489 1.385 . S
C3486 H3467 0.951 . S
C3486 C3484 1.388 . S
C3486 C3487 1.366 . S
C3487 C3486 1.366 . S
C3487 C3488 1.414 . S
C3487 C3490 1.499 . S
C3488 H3468 0.950 . S
C3488 C3487 1.414 . S
C3488 C3489 1.374 . S
C3489 H3469 0.950 . S
C3489 C3485 1.385 . S
C3489 C3488 1.374 . S
C3490 C3487 1.499 . S
C3490 C3491 1.373 . S
C3490 C3492 1.389 . S
C3491 H3470 0.950 . S
C3491 C3490 1.373 . S
C3491 C3507 1.377 . S
C3492 C3490 1.389 . S
C3492 C3493 1.524 . S
C3492 C3506 1.377 . S
C3493 C3492 1.524 . S
C3493 C3494 1.397 . S
C3493 C3498 1.363 . S
C3494 H3471 0.950 . S
C3494 C3493 1.397 . S
C3494 C3495 1.334 . S
C3495 H3472 0.950 . S
C3495 C3494 1.334 . S
C3495 C3496 1.287 . S
C3496 C3495 1.287 . S
C3496 C3497 1.524 . S
C3496 H3515 0.913 . S
C3497 H3473 0.950 . S
C3497 C3496 1.524 . S
C3497 C3498 1.415 . S
C3498 H3474 0.950 . S
C3498 C3493 1.363 . S
C3498 C3497 1.415 . S
C3499 H3475 0.951 . S
C3499 C3500 1.366 . S
C3499 C3501 1.388 . S
C3500 C3499 1.366 . S
C3500 C3504 1.385 . S
C3501 H3476 0.951 . S
C3501 C3499 1.388 . S
C3501 C3502 1.366 . S
C3502 C3501 1.366 . S
C3502 C3503 1.414 . S
C3502 C3505 1.499 . S
C3503 H3477 0.950 . S
C3503 C3502 1.414 . S
C3503 C3504 1.374 . S
C3504 H3478 0.950 . S
C3504 C3500 1.385 . S
C3504 C3503 1.374 . S
C3505 C3502 1.499 . S
C3505 C3506 1.373 . S
C3505 C3507 1.389 . S
C3506 H3479 0.950 . S
C3506 C3492 1.377 . S
C3506 C3505 1.373 . S
C3507 C3491 1.377 . S
C3507 C3505 1.389 . S
C3507 C3508 1.524 . S
C3508 C3507 1.524 . S
C3508 C3509 1.397 . S
C3508 C3513 1.363 . S
C3509 H3480 0.950 . S
C3509 C3508 1.397 . S
C3509 C3510 1.334 . S
C3510 H3481 0.950 . S
C3510 C3509 1.334 . S
C3510 C3511 1.287 . S
C3511 C3510 1.287 . S
C3511 C3512 1.524 . S
C3511 H3514 0.999 . S
C3512 H3482 0.950 . S
C3512 C3511 1.524 . S
C3512 C3513 1.415 . S
C3513 H3483 0.950 . S
C3513 C3508 1.363 . S
C3513 C3512 1.415 . S
H3514 C3511 0.999 . S
H3515 C3496 0.913 . S
H3516 C3534 0.951 . S
H3517 C3536 0.951 . S
H3518 C3538 0.950 . S
H3519 C3539 0.950 . S
H3520 C3541 0.950 . S
H3521 C3544 0.950 . S
H3522 C3545 0.950 . S
H3523 C3547 0.950 . S
H3524 C3548 0.950 . S
H3525 C3549 0.951 . S
H3526 C3551 0.951 . S
H3527 C3553 0.950 . S
H3528 C3554 0.950 . S
H3529 C3556 0.950 . S
H3530 C3559 0.950 . S
H3531 C3560 0.950 . S
H3532 C3562 0.950 . S
H3533 C3563 0.950 . S
C3534 H3516 0.951 . S
C3534 C3535 1.366 . S
C3534 C3536 1.388 . S
C3535 C3534 1.366 . S
C3535 C3539 1.385 . S
C3536 H3517 0.951 . S
C3536 C3534 1.388 . S
C3536 C3537 1.366 . S
C3537 C3536 1.366 . S
C3537 C3538 1.414 . S
C3537 C3540 1.499 . S
C3538 H3518 0.950 . S
C3538 C3537 1.414 . S
C3538 C3539 1.374 . S
C3539 H3519 0.950 . S
C3539 C3535 1.385 . S
C3539 C3538 1.374 . S
C3540 C3537 1.499 . S
C3540 C3541 1.373 . S
C3540 C3542 1.389 . S
C3541 H3520 0.950 . S
C3541 C3540 1.373 . S
C3541 C3557 1.377 . S
C3542 C3540 1.389 . S
C3542 C3543 1.524 . S
C3542 C3556 1.377 . S
C3543 C3542 1.524 . S
C3543 C3544 1.397 . S
C3543 C3548 1.363 . S
C3544 H3521 0.950 . S
C3544 C3543 1.397 . S
C3544 C3545 1.334 . S
C3545 H3522 0.950 . S
C3545 C3544 1.334 . S
C3545 C3546 1.287 . S
C3546 C3545 1.287 . S
C3546 C3547 1.524 . S
C3546 H3565 0.913 . S
C3547 H3523 0.950 . S
C3547 C3546 1.524 . S
C3547 C3548 1.415 . S
C3548 H3524 0.950 . S
C3548 C3543 1.363 . S
C3548 C3547 1.415 . S
C3549 H3525 0.951 . S
C3549 C3550 1.366 . S
C3549 C3551 1.388 . S
C3550 C3549 1.366 . S
C3550 C3554 1.385 . S
C3551 H3526 0.951 . S
C3551 C3549 1.388 . S
C3551 C3552 1.366 . S
C3552 C3551 1.366 . S
C3552 C3553 1.414 . S
C3552 C3555 1.499 . S
C3553 H3527 0.950 . S
C3553 C3552 1.414 . S
C3553 C3554 1.374 . S
C3554 H3528 0.950 . S
C3554 C3550 1.385 . S
C3554 C3553 1.374 . S
C3555 C3552 1.499 . S
C3555 C3556 1.373 . S
C3555 C3557 1.389 . S
C3556 H3529 0.950 . S
C3556 C3542 1.377 . S
C3556 C3555 1.373 . S
C3557 C3541 1.377 . S
C3557 C3555 1.389 . S
C3557 C3558 1.524 . S
C3558 C3557 1.524 . S
C3558 C3559 1.397 . S
C3558 C3563 1.363 . S
C3559 H3530 0.950 . S
C3559 C3558 1.397 . S
C3559 C3560 1.334 . S
C3560 H3531 0.950 . S
C3560 C3559 1.334 . S
C3560 C3561 1.287 . S
C3561 C3560 1.287 . S
C3561 C3562 1.524 . S
C3561 H3564 0.999 . S
C3562 H3532 0.950 . S
C3562 C3561 1.524 . S
C3562 C3563 1.415 . S
C3563 H3533 0.950 . S
C3563 C3558 1.363 . S
C3563 C3562 1.415 . S
H3564 C3561 0.999 . S
H3565 C3546 0.913 . S
H3566 C3584 0.951 . S
H3567 C3586 0.951 . S
H3568 C3588 0.950 . S
H3569 C3589 0.950 . S
H3570 C3591 0.950 . S
H3571 C3594 0.950 . S
H3572 C3595 0.950 . S
H3573 C3597 0.950 . S
H3574 C3598 0.950 . S
H3575 C3599 0.951 . S
H3576 C3601 0.951 . S
H3577 C3603 0.950 . S
H3578 C3604 0.950 . S
H3579 C3606 0.950 . S
H3580 C3609 0.950 . S
H3581 C3610 0.950 . S
H3582 C3612 0.950 . S
H3583 C3613 0.950 . S
C3584 H3566 0.951 . S
C3584 C3585 1.366 . S
C3584 C3586 1.388 . S
C3585 C3584 1.366 . S
C3585 C3589 1.385 . S
C3586 H3567 0.951 . S
C3586 C3584 1.388 . S
C3586 C3587 1.366 . S
C3587 C3586 1.366 . S
C3587 C3588 1.414 . S
C3587 C3590 1.499 . S
C3588 H3568 0.950 . S
C3588 C3587 1.414 . S
C3588 C3589 1.374 . S
C3589 H3569 0.950 . S
C3589 C3585 1.385 . S
C3589 C3588 1.374 . S
C3590 C3587 1.499 . S
C3590 C3591 1.373 . S
C3590 C3592 1.389 . S
C3591 H3570 0.950 . S
C3591 C3590 1.373 . S
C3591 C3607 1.377 . S
C3592 C3590 1.389 . S
C3592 C3593 1.524 . S
C3592 C3606 1.377 . S
C3593 C3592 1.524 . S
C3593 C3594 1.397 . S
C3593 C3598 1.363 . S
C3594 H3571 0.950 . S
C3594 C3593 1.397 . S
C3594 C3595 1.334 . S
C3595 H3572 0.950 . S
C3595 C3594 1.334 . S
C3595 C3596 1.287 . S
C3596 C3595 1.287 . S
C3596 C3597 1.524 . S
C3596 H3615 0.913 . S
C3597 H3573 0.950 . S
C3597 C3596 1.524 . S
C3597 C3598 1.415 . S
C3598 H3574 0.950 . S
C3598 C3593 1.363 . S
C3598 C3597 1.415 . S
C3599 H3575 0.951 . S
C3599 C3600 1.366 . S
C3599 C3601 1.388 . S
C3600 C3599 1.366 . S
C3600 C3604 1.385 . S
C3601 H3576 0.951 . S
C3601 C3599 1.388 . S
C3601 C3602 1.366 . S
C3602 C3601 1.366 . S
C3602 C3603 1.414 . S
C3602 C3605 1.499 . S
C3603 H3577 0.950 . S
C3603 C3602 1.414 . S
C3603 C3604 1.374 . S
C3604 H3578 0.950 . S
C3604 C3600 1.385 . S
C3604 C3603 1.374 . S
C3605 C3602 1.499 . S
C3605 C3606 1.373 . S
C3605 C3607 1.389 . S
C3606 H3579 0.950 . S
C3606 C3592 1.377 . S
C3606 C3605 1.373 . S
C3607 C3591 1.377 . S
C3607 C3605 1.389 . S
C3607 C3608 1.524 . S
C3608 C3607 1.524 . S
C3608 C3609 1.397 . S
C3608 C3613 1.363 . S
C3609 H3580 0.950 . S
C3609 C3608 1.397 . S
C3609 C3610 1.334 . S
C3610 H3581 0.950 . S
C3610 C3609 1.334 . S
C3610 C3611 1.287 . S
C3611 C3610 1.287 . S
C3611 C3612 1.524 . S
C3611 H3614 0.999 . S
C3612 H3582 0.950 . S
C3612 C3611 1.524 . S
C3612 C3613 1.415 . S
C3613 H3583 0.950 . S
C3613 C3608 1.363 . S
C3613 C3612 1.415 . S
H3614 C3611 0.999 . S
H3615 C3596 0.913 . S
C435 C199 1.557 . S
C450 C4 1.557 . S
C485 C23 1.557 . S
C500 C166 1.557 . S
C535 C30 1.557 . S
C550 C173 1.557 . S
C585 C192 1.557 . S
C600 C43 1.557 . S
C635 C62 1.557 . S
C650 C127 1.557 . S
C685 C69 1.557 . S
C700 C140 1.557 . S
C735 C147 1.557 . S
C750 C88 1.557 . S
C785 C114 1.557 . S
C800 C95 1.557 . S
C835 C212 1.557 . S
C850 C407 1.557 . S
C885 C225 1.557 . S
C900 C374 1.557 . S
C935 C238 1.557 . S
C950 C381 1.557 . S
C985 C394 1.557 . S
C1000 C251 1.557 . S
C1035 C264 1.557 . S
C1050 C329 1.557 . S
C1085 C283 1.557 . S
C1100 C342 1.557 . S
C1135 C355 1.557 . S
C1150 C290 1.557 . S
C1185 C303 1.557 . S
C1200 C316 1.557 . S
C1235 C159 1.462 . S
C1250 C5 1.462 . S
C1285 C16 1.462 . S
C1300 C174 1.462 . S
C1335 C185 1.462 . S
C1350 C31 1.462 . S
C1385 C44 1.462 . S
C1400 C200 1.462 . S
C1435 C55 1.462 . S
C1450 C107 1.462 . S
C1485 C120 1.462 . S
C1500 C70 1.462 . S
C1535 C133 1.462 . S
C1550 C81 1.462 . S
C1585 C148 1.462 . S
C1600 C96 1.462 . S
C1635 C213 1.462 . S
C1650 C367 1.462 . S
C1685 C382 1.462 . S
C1700 C226 1.462 . S
C1735 C239 1.462 . S
C1750 C395 1.462 . S
C1785 C252 1.462 . S
C1800 C408 1.462 . S
C1835 C317 1.462 . S
C1850 C265 1.462 . S
C1885 C276 1.462 . S
C1900 C330 1.462 . S
C1935 C291 1.462 . S
C1950 C343 1.462 . S
C1985 C304 1.462 . S
C2000 C356 1.462 . S
C2035 C3 1.405 . S
C2050 C135 1.405 . S
C2085 C146 1.405 . S
C2100 C18 1.405 . S
C2135 C29 1.405 . S
C2150 C109 1.405 . S
C2185 C122 1.405 . S
C2200 C42 1.405 . S
C2235 C187 1.405 . S
C2250 C57 1.405 . S
C2285 C198 1.405 . S
C2300 C68 1.405 . S
C2335 C161 1.405 . S
C2350 C83 1.405 . S
C2385 C94 1.405 . S
C2400 C172 1.405 . S
C2435 C341 1.405 . S
C2450 C211 1.405 . S
C2485 C224 1.405 . S
C2500 C354 1.405 . S
C2535 C315 1.405 . S
C2550 C237 1.405 . S
C2585 C328 1.405 . S
C2600 C250 1.405 . S
C2635 C263 1.405 . S
C2650 C393 1.405 . S
C2685 C278 1.405 . S
C2700 C406 1.405 . S
C2735 C369 1.405 . S
C2750 C289 1.405 . S
C2785 C380 1.405 . S
C2800 C302 1.405 . S
C2835 C309 1.288 . S
C2850 C10 1.288 . S
C2885 C270 1.288 . S
C2900 C17 1.288 . S
C2935 C277 1.288 . S
C2950 C36 1.287 . S
C2985 C296 1.288 . S
C3000 C49 1.288 . S
C3035 C231 1.288 . S
C3050 C56 1.288 . S
C3085 C75 1.288 . S
C3100 C244 1.288 . S
C3135 C82 1.288 . S
C3150 C257 1.288 . S
C3185 C101 1.288 . S
C3200 C218 1.288 . S
C3235 C108 1.288 . S
C3250 C413 1.288 . S
C3285 C368 1.288 . S
C3300 C121 1.288 . S
C3335 C134 1.288 . S
C3350 C387 1.287 . S
C3385 C153 1.288 . S
C3400 C400 1.287 . S
C3435 C335 1.288 . S
C3450 C160 1.288 . S
C3485 C348 1.288 . S
C3500 C179 1.288 . S
C3535 C186 1.288 . S
C3550 C361 1.288 . S
C3585 C205 1.288 . S
C3600 C322 1.287 . S
