# Generated by pormake.
# Topology wme, (6)-cn, num edge types: 1
# Building blocks:
#     Node 0, Type 0, BuildingBlock: BETFAJ_clean_sbu_0, # of connection points: 6
#     Node 1, Type 0, BuildingBlock: BETFAJ_clean_sbu_0, # of connection points: 6
#     Node 2, Type 0, BuildingBlock: BETFAJ_clean_sbu_0, # of connection points: 6
#     Node 3, Type 0, BuildingBlock: BETFAJ_clean_sbu_0, # of connection points: 6
#     Node 4, Type 0, BuildingBlock: BETFAJ_clean_sbu_0, # of connection points: 6
#     Node 5, Type 0, BuildingBlock: BETFAJ_clean_sbu_0, # of connection points: 6
#     Node 6, Type 0, BuildingBlock: BETFAJ_clean_sbu_0, # of connection points: 6
#     Node 7, Type 0, BuildingBlock: BETFAJ_clean_sbu_0, # of connection points: 6
#     Node 8, Type 0, BuildingBlock: BETFAJ_clean_sbu_0, # of connection points: 6
#     Node 9, Type 0, BuildingBlock: BETFAJ_clean_sbu_0, # of connection points: 6
#     Node 10, Type 0, BuildingBlock: BETFAJ_clean_sbu_0, # of connection points: 6
#     Node 11, Type 0, BuildingBlock: BETFAJ_clean_sbu_0, # of connection points: 6
#     Edge 12, Type (0, 0), BuildingBlock: AJUNOK_clean_linker_0, # of connection points: 2
#     Edge 13, Type (0, 0), BuildingBlock: AJUNOK_clean_linker_0, # of connection points: 2
#     Edge 14, Type (0, 0), BuildingBlock: AJUNOK_clean_linker_0, # of connection points: 2
#     Edge 15, Type (0, 0), BuildingBlock: AJUNOK_clean_linker_0, # of connection points: 2
#     Edge 16, Type (0, 0), BuildingBlock: AJUNOK_clean_linker_0, # of connection points: 2
#     Edge 17, Type (0, 0), BuildingBlock: AJUNOK_clean_linker_0, # of connection points: 2
#     Edge 18, Type (0, 0), BuildingBlock: AJUNOK_clean_linker_0, # of connection points: 2
#     Edge 19, Type (0, 0), BuildingBlock: AJUNOK_clean_linker_0, # of connection points: 2
#     Edge 20, Type (0, 0), BuildingBlock: AJUNOK_clean_linker_0, # of connection points: 2
#     Edge 21, Type (0, 0), BuildingBlock: AJUNOK_clean_linker_0, # of connection points: 2
#     Edge 22, Type (0, 0), BuildingBlock: AJUNOK_clean_linker_0, # of connection points: 2
#     Edge 23, Type (0, 0), BuildingBlock: AJUNOK_clean_linker_0, # of connection points: 2
#     Edge 24, Type (0, 0), BuildingBlock: AJUNOK_clean_linker_0, # of connection points: 2
#     Edge 25, Type (0, 0), BuildingBlock: AJUNOK_clean_linker_0, # of connection points: 2
#     Edge 26, Type (0, 0), BuildingBlock: AJUNOK_clean_linker_0, # of connection points: 2
#     Edge 27, Type (0, 0), BuildingBlock: AJUNOK_clean_linker_0, # of connection points: 2
#     Edge 28, Type (0, 0), BuildingBlock: AJUNOK_clean_linker_0, # of connection points: 2
#     Edge 29, Type (0, 0), BuildingBlock: AJUNOK_clean_linker_0, # of connection points: 2
#     Edge 30, Type (0, 0), BuildingBlock: AJUNOK_clean_linker_0, # of connection points: 2
#     Edge 31, Type (0, 0), BuildingBlock: AJUNOK_clean_linker_0, # of connection points: 2
#     Edge 32, Type (0, 0), BuildingBlock: AJUNOK_clean_linker_0, # of connection points: 2
#     Edge 33, Type (0, 0), BuildingBlock: AJUNOK_clean_linker_0, # of connection points: 2
#     Edge 34, Type (0, 0), BuildingBlock: AJUNOK_clean_linker_0, # of connection points: 2
#     Edge 35, Type (0, 0), BuildingBlock: AJUNOK_clean_linker_0, # of connection points: 2
#     Edge 36, Type (0, 0), BuildingBlock: AJUNOK_clean_linker_0, # of connection points: 2
#     Edge 37, Type (0, 0), BuildingBlock: AJUNOK_clean_linker_0, # of connection points: 2
#     Edge 38, Type (0, 0), BuildingBlock: AJUNOK_clean_linker_0, # of connection points: 2
#     Edge 39, Type (0, 0), BuildingBlock: AJUNOK_clean_linker_0, # of connection points: 2
#     Edge 40, Type (0, 0), BuildingBlock: AJUNOK_clean_linker_0, # of connection points: 2
#     Edge 41, Type (0, 0), BuildingBlock: AJUNOK_clean_linker_0, # of connection points: 2
#     Edge 42, Type (0, 0), BuildingBlock: AJUNOK_clean_linker_0, # of connection points: 2
#     Edge 43, Type (0, 0), BuildingBlock: AJUNOK_clean_linker_0, # of connection points: 2
#     Edge 44, Type (0, 0), BuildingBlock: AJUNOK_clean_linker_0, # of connection points: 2
#     Edge 45, Type (0, 0), BuildingBlock: AJUNOK_clean_linker_0, # of connection points: 2
#     Edge 46, Type (0, 0), BuildingBlock: AJUNOK_clean_linker_0, # of connection points: 2
#     Edge 47, Type (0, 0), BuildingBlock: AJUNOK_clean_linker_0, # of connection points: 2
# Relax obj value: 0.115
# Max RMSD: 0.230
# Mean RMSD: 0.230
data_MOF--net-wme--node1-BETFAJ_clean_sbu_0--edge1-AJUNOK_clean_linker_0
_symmetry_space_group_name_H-M    P1
_symmetry_Int_Tables_number       1
_symmetry_cell_setting            triclinic
loop_
_symmetry_equiv_pos_as_xyz
'x, y, z'
_cell_length_a     32.096229
_cell_length_b     32.094935
_cell_length_c     36.919502
_cell_angle_alpha  90.116628
_cell_angle_beta   90.061328
_cell_angle_gamma 120.06903
loop_
_atom_site_label
_atom_site_type_symbol
_atom_site_fract_x
_atom_site_fract_y
_atom_site_fract_z
_atom_type_partial_charge
Sm0 Sm 0.2459 0.38777 0.1133 0.0
Sm1 Sm 0.28907 0.33368 0.14799 0.0
C2 C 0.21629 0.44795 0.092 0.0
C3 C 0.20459 0.48465 0.10539 0.0
C4 C 0.15844 0.47118 0.1188 0.0
C5 C 0.14622 0.50616 0.12794 0.0
C6 C 0.17976 0.55538 0.12372 0.0
C7 C 0.22613 0.56877 0.11103 0.0
C8 C 0.23832 0.5339 0.10186 0.0
C9 C 0.27359 0.33876 0.06561 0.0
C10 C 0.3575 0.44805 0.14032 0.0
C11 C 0.3134 0.26776 0.16216 0.0
C12 C 0.28809 0.2147 0.16135 0.0
C13 C 0.24761 0.1881 0.13904 0.0
C14 C 0.22567 0.13785 0.13697 0.0
C15 C 0.24359 0.11336 0.15746 0.0
C16 C 0.28292 0.14011 0.18085 0.0
C17 C 0.30497 0.19026 0.1827 0.0
C18 C 0.26685 0.38206 0.19844 0.0
C19 C 0.17105 0.27993 0.13389 0.0
O20 O 0.18718 0.40304 0.10061 0.0
O21 O 0.26142 0.45897 0.09172 0.0
O22 O 0.29661 0.36324 0.09249 0.0
O23 O 0.23617 0.34323 0.06046 0.0
O24 O 0.31637 0.44778 0.13789 0.0
O25 O 0.35848 0.40727 0.13948 0.0
O26 O 0.3207 0.28922 0.13081 0.0
O27 O 0.29992 0.28731 0.18721 0.0
O28 O 0.24076 0.36022 0.17108 0.0
O29 O 0.30502 0.37775 0.19968 0.0
O30 O 0.20902 0.27437 0.13726 0.0
O31 O 0.17575 0.32262 0.12981 0.0
H32 H 0.13139 0.43356 0.12166 0.0
H33 H 0.11049 0.49468 0.13821 0.0
H34 H 0.25273 0.60638 0.10723 0.0
H35 H 0.27392 0.54559 0.09119 0.0
H36 H 0.23361 0.2062 0.1226 0.0
H37 H 0.19597 0.11846 0.11832 0.0
H38 H 0.29731 0.12223 0.1972 0.0
H39 H 0.33581 0.21004 0.20035 0.0
Sm40 Sm 0.89105 0.2382 0.61482 0.0
Sm41 Sm 0.98707 0.27395 0.64922 0.0
C42 C 0.80277 0.21501 0.59347 0.0
C43 C 0.75265 0.19428 0.60631 0.0
C44 C 0.74198 0.20322 0.64139 0.0
C45 C 0.69424 0.18771 0.65132 0.0
C46 C 0.6563 0.16284 0.62643 0.0
C47 C 0.66712 0.15248 0.59182 0.0
C48 C 0.71477 0.16797 0.58194 0.0
C49 C 0.96692 0.26405 0.56656 0.0
C50 C 0.95015 0.34991 0.64228 0.0
C51 C 0.07478 0.29055 0.66475 0.0
C52 C 0.10078 0.26369 0.66149 0.0
C53 C 0.08766 0.22715 0.63541 0.0
C54 C 0.11481 0.20422 0.63121 0.0
C55 C 0.15529 0.21735 0.6532 0.0
C56 C 0.1669 0.25243 0.68031 0.0
C57 C 0.13993 0.27537 0.68438 0.0
C58 C 0.91732 0.25508 0.69981 0.0
C59 C 0.91566 0.15794 0.63478 0.0
O60 O 0.82009 0.18604 0.59014 0.0
O61 O 0.83441 0.25745 0.6059 0.0
O62 O 0.96726 0.28652 0.59433 0.0
O63 O 0.92383 0.22866 0.56092 0.0
O64 O 0.90757 0.3111 0.63822 0.0
O65 O 0.98999 0.34719 0.64231 0.0
O66 O 0.06386 0.30399 0.63448 0.0
O67 O 1.04002 0.27445 0.68848 0.0
O68 O 0.91148 0.22895 0.6722 0.0
O69 O 0.9609 0.2916 0.70119 0.0
O70 O 0.96068 0.19385 0.63329 0.0
O71 O 0.88021 0.16717 0.63566 0.0
H72 H 0.77061 0.22342 0.66072 0.0
H73 H 0.68707 0.19626 0.67816 0.0
H74 H 0.63905 0.13449 0.5717 0.0
H75 H 0.72221 0.16094 0.55468 0.0
H76 H 0.05708 0.21704 0.61781 0.0
H77 H 0.10534 0.17775 0.60987 0.0
H78 H 0.19783 0.26312 0.69775 0.0
H79 H 0.15034 0.30306 0.7049 0.0
Sm80 Sm 0.68591 0.87479 0.11493 0.0
Sm81 Sm 0.74591 0.97048 0.14934 0.0
C82 C 0.62062 0.78659 0.09293 0.0
C83 C 0.59059 0.7362 0.10504 0.0
C84 C 0.5764 0.7247 0.14133 0.0
C85 C 0.54353 0.67704 0.15119 0.0
C86 C 0.52413 0.64011 0.12493 0.0
C87 C 0.54031 0.65159 0.08899 0.0
C88 C 0.5731 0.69913 0.07918 0.0
C89 C 0.73612 0.9505 0.06658 0.0
C90 C 0.63285 0.93356 0.14126 0.0
C91 C 0.8167 0.05843 0.16553 0.0
C92 C 0.86964 0.08449 0.16204 0.0
C93 C 0.89217 0.07181 0.13507 0.0
C94 C 0.94209 0.09866 0.1304 0.0
C95 C 0.97041 0.13785 0.15325 0.0
C96 C 0.94817 0.14923 0.18125 0.0
C97 C 0.89808 0.12288 0.18548 0.0
C98 C 0.69615 0.90054 0.20028 0.0
C99 C 0.79096 0.89929 0.13545 0.0
O100 O 0.66697 0.80382 0.09017 0.0
O101 O 0.6099 0.81806 0.10567 0.0
O102 O 0.71391 0.95093 0.09421 0.0
O103 O 0.72846 0.90743 0.06115 0.0
O104 O 0.62922 0.89099 0.13802 0.0
O105 O 0.67558 0.97332 0.14174 0.0
O106 O 0.79213 0.04763 0.1353 0.0
O107 O 0.79824 1.02334 0.18897 0.0
O108 O 0.71621 0.89513 0.17241 0.0
O109 O 0.70109 0.94329 0.20082 0.0
O110 O 0.80026 0.9444 0.13412 0.0
O111 O 0.74613 0.86395 0.13562 0.0
H112 H 0.58972 0.7527 0.16182 0.0
H113 H 0.53249 0.66925 0.17923 0.0
H114 H 0.52596 0.62413 0.0681 0.0
H115 H 0.58358 0.70721 0.05104 0.0
H116 H 0.87116 0.04155 0.1173 0.0
H117 H 0.95857 0.08923 0.1087 0.0
H118 H 0.96939 0.17956 0.19901 0.0
H119 H 0.88147 0.13301 0.20664 0.0
Sm120 Sm 0.8487 0.67209 0.61385 0.0
Sm121 Sm 0.81378 0.73197 0.64779 0.0
C122 C 0.87217 0.60788 0.59059 0.0
C123 C 0.89374 0.5791 0.60283 0.0
C124 C 0.89776 0.57119 0.63975 0.0
C125 C 0.91441 0.54012 0.65042 0.0
C126 C 0.92711 0.51629 0.62436 0.0
C127 C 0.92495 0.5261 0.58751 0.0
C128 C 0.90837 0.55711 0.5769 0.0
C129 C 0.8209 0.72103 0.56593 0.0
C130 C 0.73901 0.61834 0.64328 0.0
C131 C 0.79441 0.80175 0.66095 0.0
C132 C 0.81779 0.85444 0.65487 0.0
C133 C 0.806 0.87221 0.62409 0.0
C134 C 0.82606 0.92172 0.61894 0.0
C135 C 0.85825 0.9547 0.64448 0.0
C136 C 0.87069 0.9371 0.67498 0.0
C137 C 0.85064 0.88748 0.68016 0.0
C138 C 0.83548 0.68442 0.69959 0.0
C139 C 0.92961 0.77621 0.63214 0.0
O140 O 0.90063 0.65434 0.58783 0.0
O141 O 0.83 0.59639 0.60376 0.0
O142 O 0.79893 0.6981 0.59342 0.0
O143 O 0.8581 0.71627 0.56076 0.0
O144 O 0.77805 0.61521 0.63936 0.0
O145 O 0.74109 0.66055 0.64244 0.0
O146 O 0.7791 0.77419 0.63222 0.0
O147 O 0.81369 0.78657 0.68498 0.0
O148 O 0.86027 0.70343 0.67123 0.0
O149 O 0.79783 0.68962 0.70034 0.0
O150 O 0.89414 0.78609 0.63116 0.0
O151 O 0.91961 0.73148 0.63461 0.0
H152 H 0.88699 0.58814 0.66023 0.0
H153 H 0.91642 0.53396 0.67904 0.0
H154 H 0.93412 0.50816 0.56676 0.0
H155 H 0.90562 0.56282 0.54828 0.0
H156 H 0.78064 0.84783 0.60417 0.0
H157 H 0.81581 0.93426 0.59517 0.0
H158 H 0.89458 0.9616 0.69551 0.0
H159 H 0.8602 0.87506 0.70433 0.0
Sm160 Sm 0.20697 0.83167 0.1149 0.0
Sm161 Sm 0.11032 0.79208 0.14693 0.0
C162 C 0.29567 0.8581 0.09224 0.0
C163 C 0.34622 0.87985 0.10465 0.0
C164 C 0.3578 0.87453 0.1404 0.0
C165 C 0.40581 0.89106 0.15037 0.0
C166 C 0.44322 0.91312 0.12479 0.0
C167 C 0.43144 0.91968 0.08932 0.0
C168 C 0.38352 0.90336 0.07945 0.0
C169 C 0.13093 0.80324 0.06601 0.0
C170 C 0.15117 0.71933 0.13934 0.0
C171 C 1.02013 0.77088 0.15776 0.0
C172 C 0.99257 0.79637 0.15674 0.0
C173 C 1.00387 0.83392 0.13208 0.0
C174 C 0.97499 0.85522 0.12984 0.0
C175 C 0.93446 0.83936 0.15228 0.0
C176 C 0.92445 0.80298 0.17777 0.0
C177 C 0.95321 0.78174 0.17996 0.0
C178 C 0.17739 0.81009 0.19963 0.0
C179 C 0.18154 0.90971 0.1388 0.0
O180 O 0.27694 0.88596 0.0902 0.0
O181 O 0.26523 0.81512 0.10423 0.0
O182 O 0.13278 0.78064 0.09273 0.0
O183 O 0.17088 0.84367 0.06329 0.0
O184 O 0.19318 0.75927 0.1373 0.0
O185 O 0.11056 0.72058 0.13857 0.0
O186 O 1.03602 0.76483 0.12673 0.0
O187 O 0.05133 0.78225 0.18406 0.0
O188 O 0.18439 0.83731 0.17257 0.0
O189 O 0.13398 0.77314 0.19944 0.0
O190 O 0.13656 0.8738 0.13561 0.0
O191 O 0.21684 0.90032 0.13955 0.0
H192 H 0.32964 0.85629 0.1603 0.0
H193 H 0.41355 0.8854 0.1779 0.0
H194 H 0.45893 0.93527 0.06864 0.0
H195 H 0.37539 0.90753 0.05165 0.0
H196 H 1.03426 0.84597 0.11395 0.0
H197 H 0.98328 0.88269 0.10963 0.0
H198 H 0.89366 0.79025 0.19558 0.0
H199 H 0.94404 0.75307 0.19929 0.0
Sm200 Sm 0.40643 0.194 0.61218 0.0
Sm201 Sm 0.34871 0.09345 0.63916 0.0
C202 C 0.46202 0.28607 0.59435 0.0
C203 C 0.50069 0.33361 0.60754 0.0
C204 C 0.54908 0.3452 0.60877 0.0
C205 C 0.58522 0.39158 0.61876 0.0
C206 C 0.57382 0.42737 0.62785 0.0
C207 C 0.52542 0.41565 0.62671 0.0
C208 C 0.48933 0.36937 0.61665 0.0
C209 C 0.35948 0.12199 0.56003 0.0
C210 C 0.46606 0.14115 0.63821 0.0
C211 C 0.29024 0.99944 0.64116 0.0
C212 C 0.23687 0.96951 0.63998 0.0
C213 C 0.21357 0.95238 0.60642 0.0
C214 C 0.16348 0.92561 0.60426 0.0
C215 C 0.13522 0.91428 0.63565 0.0
C216 C 0.15814 0.93203 0.66921 0.0
C217 C 0.20856 0.95938 0.67139 0.0
C218 C 0.37145 0.1583 0.69473 0.0
C219 C 0.29881 0.15925 0.63114 0.0
O220 O 0.42001 0.26872 0.60985 0.0
O221 O 0.47253 0.2527 0.58601 0.0
O222 O 0.38389 0.12256 0.58633 0.0
O223 O 0.35725 0.16112 0.56002 0.0
O224 O 0.46817 0.18226 0.63005 0.0
O225 O 0.42436 0.10059 0.64234 0.0
O226 O 0.3102 1.02309 0.61143 0.0
O227 O 0.31048 1.02483 0.67046 0.0
O228 O 0.39995 0.16342 0.66914 0.0
O229 O 0.33102 0.11811 0.69176 0.0
O230 O 0.29171 0.11576 0.62377 0.0
O231 O 0.3426 0.19485 0.63646 0.0
H232 H 0.55921 0.3188 0.60139 0.0
H233 H 0.62231 0.39977 0.6184 0.0
H234 H 0.51548 0.44238 0.63344 0.0
H235 H 0.45244 0.36177 0.61545 0.0
H236 H 0.23405 0.95964 0.58162 0.0
H237 H 0.14678 0.91301 0.57796 0.0
H238 H 0.13715 0.92357 0.69384 0.0
H239 H 0.22529 0.97227 0.69763 0.0
Sm240 Sm 0.68692 0.83235 0.42316 0.0
Sm241 Sm 0.74734 0.79375 0.39189 0.0
C242 C 0.62946 0.8662 0.44209 0.0
C243 C 0.59011 0.87428 0.42935 0.0
C244 C 0.60111 0.91968 0.41581 0.0
C245 C 0.56449 0.92935 0.40652 0.0
C246 C 0.51593 0.8939 0.41053 0.0
C247 C 0.50486 0.84849 0.42407 0.0
C248 C 0.54149 0.83878 0.43338 0.0
C249 C 0.73163 0.8016 0.47298 0.0
C250 C 0.62992 0.72263 0.39063 0.0
C251 C 0.80664 0.76005 0.38325 0.0
C252 C 0.86009 0.78506 0.385 0.0
C253 C 0.88382 0.79958 0.4187 0.0
C254 C 0.93395 0.82422 0.42074 0.0
C255 C 0.9619 0.83504 0.38926 0.0
C256 C 0.93854 0.82112 0.35546 0.0
C257 C 0.88805 0.7963 0.35335 0.0
C258 C 0.72527 0.84214 0.34084 0.0
C259 C 0.79697 0.90719 0.41108 0.0
O260 O 0.67159 0.89215 0.42698 0.0
O261 O 0.61985 0.82234 0.44956 0.0
O262 O 0.70992 0.78157 0.44456 0.0
O263 O 0.73081 0.84127 0.47705 0.0
O264 O 0.62683 0.76036 0.4012 0.0
O265 O 0.67205 0.7249 0.3859 0.0
O266 O 0.78504 0.75764 0.41381 0.0
O267 O 0.78703 0.76954 0.35565 0.0
O268 O 0.69626 0.8147 0.36473 0.0
O269 O 0.76649 0.84416 0.34368 0.0
O270 O 0.80356 0.8698 0.41385 0.0
O271 O 0.75375 0.90065 0.40587 0.0
H272 H 0.63818 0.94819 0.41296 0.0
H273 H 0.57417 0.96466 0.39626 0.0
H274 H 0.46778 0.82075 0.42834 0.0
H275 H 0.53167 0.8038 0.44439 0.0
H276 H 0.86378 0.79188 0.44376 0.0
H277 H 0.95098 0.83441 0.44714 0.0
H278 H 0.95923 0.82816 0.33079 0.0
H279 H 0.8709 0.78567 0.32703 0.0
Sm280 Sm 0.88699 0.67514 0.92237 0.0
Sm281 Sm 0.98812 0.73261 0.8954 0.0
C282 C 0.7951 0.62045 0.94089 0.0
C283 C 0.74759 0.57999 0.93043 0.0
C284 C 0.73674 0.56365 0.89446 0.0
C285 C 0.6898 0.52816 0.88486 0.0
C286 C 0.65291 0.50893 0.91098 0.0
C287 C 0.66433 0.52498 0.94701 0.0
C288 C 0.71115 0.56019 0.95658 0.0
C289 C 0.95953 0.71847 0.97456 0.0
C290 C 0.93857 0.61492 0.89536 0.0
C291 C 0.0824 0.78846 0.8915 0.0
C292 C 0.11395 0.84099 0.88818 0.0
C293 C 0.15695 0.86356 0.90799 0.0
C294 C 0.18485 0.9137 0.90907 0.0
C295 C 0.17051 0.94258 0.89023 0.0
C296 C 0.12733 0.91988 0.87024 0.0
C297 C 0.09908 0.86946 0.86944 0.0
C298 C 0.92264 0.71319 0.84071 0.0
C299 C 0.92535 0.78518 0.90868 0.0
O300 O 0.81163 0.65948 0.9214 0.0
O301 O 0.8287 0.61127 0.95127 0.0
O302 O 0.95829 0.69509 0.94733 0.0
O303 O 0.92109 0.72197 0.97539 0.0
O304 O 0.89742 0.61326 0.90255 0.0
O305 O 0.97965 0.6564 0.89258 0.0
O306 O 0.05898 0.77489 0.92212 0.0
O307 O 0.05599 0.76474 0.86338 0.0
O308 O 0.91763 0.6835 0.86527 0.0
O309 O 0.96276 0.75348 0.84461 0.0
O310 O 0.96873 0.79074 0.91333 0.0
O311 O 0.88819 0.74237 0.90302 0.0
H312 H 0.76432 0.57878 0.8738 0.0
H313 H 0.68214 0.51619 0.85695 0.0
H314 H 0.63714 0.50993 0.96795 0.0
H315 H 0.71877 0.57248 0.98444 0.0
H316 H 0.16845 0.84236 0.92337 0.0
H317 H 0.2176 0.92998 0.92506 0.0
H318 H 0.11563 0.94098 0.855 0.0
H319 H 0.06537 0.85278 0.85462 0.0
Sm320 Sm 0.24224 0.87281 0.42081 0.0
Sm321 Sm 0.28407 0.96948 0.38767 0.0
C322 C 0.21447 0.78383 0.44345 0.0
C323 C 0.20021 0.7348 0.42966 0.0
C324 C 0.15229 0.70195 0.41961 0.0
C325 C 0.13863 0.65466 0.40926 0.0
C326 C 0.17247 0.63901 0.40894 0.0
C327 C 0.22041 0.67208 0.41858 0.0
C328 C 0.23404 0.7192 0.42889 0.0
C329 C 0.27228 0.95012 0.46889 0.0
C330 C 0.35301 0.92396 0.3937 0.0
C331 C 0.30662 0.06005 0.377 0.0
C332 C 0.28242 0.08877 0.38267 0.0
C333 C 0.27912 0.10491 0.41747 0.0
C334 C 0.2583 0.13377 0.42237 0.0
C335 C 0.24043 0.14738 0.39264 0.0
C336 C 0.24223 0.13004 0.35805 0.0
C337 C 0.26324 0.10126 0.35308 0.0
C338 C 0.26483 0.90146 0.33559 0.0
C339 C 0.1662 0.90143 0.39867 0.0
O340 O 0.18485 0.80006 0.43839 0.0
O341 O 0.25951 0.81745 0.43999 0.0
O342 O 0.29418 0.94701 0.44216 0.0
O343 O 0.23153 0.91056 0.47217 0.0
O344 O 0.31203 0.88299 0.39602 0.0
O345 O 0.35393 0.96569 0.39499 0.0
O346 O 0.3192 0.04556 0.40596 0.0
O347 O 0.28954 1.02741 0.35139 0.0
O348 O 0.23766 0.89515 0.36264 0.0
O349 O 0.30204 0.94472 0.33543 0.0
O350 O 0.20329 0.94596 0.39982 0.0
O351 O 0.1731 0.86457 0.39911 0.0
H352 H 0.12514 0.71255 0.42014 0.0
H353 H 0.1016 0.63038 0.40149 0.0
H354 H 0.24733 0.66115 0.41901 0.0
H355 H 0.27105 0.7432 0.43692 0.0
H356 H 0.29325 0.0959 0.44097 0.0
H357 H 0.25688 0.14617 0.44941 0.0
H358 H 0.22897 0.1402 0.33465 0.0
H359 H 0.26524 0.08947 0.32595 0.0
Sm360 Sm 0.40962 0.23139 0.92085 0.0
Sm361 Sm 0.34953 0.26594 0.88734 0.0
C362 C 0.47409 0.20822 0.94373 0.0
C363 C 0.50127 0.18503 0.93112 0.0
C364 C 0.51253 0.18491 0.89438 0.0
C365 C 0.54273 0.16725 0.88366 0.0
C366 C 0.56192 0.1491 0.90943 0.0
C367 C 0.54897 0.14768 0.94599 0.0
C368 C 0.51892 0.16542 0.95668 0.0
C369 C 0.36373 0.26248 0.96931 0.0
C370 C 0.46322 0.34159 0.89253 0.0
C371 C 0.27924 0.28486 0.87482 0.0
C372 C 0.22602 0.25964 0.87538 0.0
C373 C 0.19937 0.22859 0.90387 0.0
C374 C 0.14942 0.20952 0.9059 0.0
C375 C 0.12537 0.22125 0.87954 0.0
C376 C 0.15176 0.24986 0.84996 0.0
C377 C 0.20158 0.26904 0.84802 0.0
C378 C 0.39766 0.24555 0.83521 0.0
C379 C 0.30584 0.14934 0.89938 0.0
O380 O 0.42779 0.18068 0.94848 0.0
O381 O 0.48539 0.24968 0.92928 0.0
O382 O 0.38569 0.2827 0.94103 0.0
O383 O 0.36537 0.22337 0.9738 0.0
O384 O 0.4665 0.30252 0.8958 0.0
O385 O 0.4207 0.33898 0.89327 0.0
O386 O 0.301 0.29194 0.90606 0.0
O387 O 0.2996 0.27326 0.84913 0.0
O388 O 0.37869 0.2202 0.86335 0.0
O389 O 0.39168 0.28274 0.83469 0.0
O390 O 0.2954 0.18439 0.90092 0.0
O391 O 0.35097 0.16014 0.89953 0.0
H392 H 0.49915 0.19974 0.87415 0.0
H393 H 0.5521 0.16891 0.85531 0.0
H394 H 0.56398 0.13509 0.96665 0.0
H395 H 0.51083 0.16537 0.98517 0.0
H396 H 0.21729 0.22029 0.92517 0.0
H397 H 0.12998 0.18743 0.9289 0.0
H398 H 0.134 0.25865 0.82883 0.0
H399 H 0.22126 0.29245 0.82564 0.0
Sm400 Sm 0.20464 0.39709 0.41681 0.0
Sm401 Sm 0.10722 0.33376 0.38597 0.0
C402 C 0.29338 0.46393 0.43611 0.0
C403 C 0.34348 0.49152 0.42275 0.0
C404 C 0.35407 0.50961 0.38726 0.0
C405 C 0.40185 0.54089 0.37684 0.0
C406 C 0.43995 0.55439 0.4016 0.0
C407 C 0.42924 0.53444 0.43657 0.0
C408 C 0.38153 0.50334 0.44699 0.0
C409 C 0.13003 0.35341 0.46736 0.0
C410 C 0.1443 0.44748 0.38927 0.0
C411 C 1.01773 0.26193 0.37584 0.0
C412 C 0.9909 0.20907 0.37938 0.0
C413 C 1.01223 0.18408 0.3946 0.0
C414 C 0.98476 0.13429 0.40065 0.0
C415 C 0.9355 0.10905 0.39194 0.0
C416 C 0.91486 0.13398 0.37553 0.0
C417 C 0.94229 0.18351 0.36935 0.0
C418 C 0.17335 0.38083 0.33246 0.0
C419 C 0.18105 0.29162 0.40093 0.0
O420 O 0.27557 0.41812 0.44259 0.0
O421 O 0.26195 0.4736 0.42178 0.0
O422 O 0.13002 0.37314 0.43833 0.0
O423 O 0.17165 0.35688 0.47176 0.0
O424 O 0.1872 0.45166 0.39131 0.0
O425 O 0.10474 0.40468 0.39139 0.0
O426 O 1.03306 0.28614 0.40608 0.0
O427 O 0.04942 0.28012 0.34982 0.0
O428 O 0.18141 0.36303 0.3606 0.0
O429 O 0.12945 0.37288 0.33208 0.0
O430 O 0.13574 0.2817 0.4022 0.0
O431 O 0.21597 0.33638 0.39825 0.0
H432 H 0.32537 0.5009 0.36797 0.0
H433 H 0.40894 0.55567 0.34973 0.0
H434 H 0.4575 0.54488 0.45657 0.0
H435 H 0.3742 0.49002 0.47454 0.0
H436 H 0.04971 0.20318 0.40263 0.0
H437 H 1.00147 0.11591 0.41334 0.0
H438 H 0.87709 0.11521 0.36812 0.0
H439 H 0.9252 0.20207 0.35753 0.0
Sm440 Sm 0.8406 0.18913 0.91786 0.0
Sm441 Sm 0.80713 0.09291 0.88506 0.0
C442 C 0.86193 0.27694 0.93918 0.0
C443 C 0.8836 0.32736 0.92675 0.0
C444 C 0.876 0.33871 0.8915 0.0
C445 C 0.89177 0.38662 0.88194 0.0
C446 C 0.91571 0.4241 0.90733 0.0
C447 C 0.92493 0.41267 0.94209 0.0
C448 C 0.90907 0.36483 0.95164 0.0
C449 C 0.81114 0.11326 0.967 0.0
C450 C 0.72952 0.12841 0.89004 0.0
C451 C 0.79017 1.00398 0.87361 0.0
C452 C 0.81679 0.97777 0.8769 0.0
C453 C 0.86287 0.99939 0.89272 0.0
C454 C 0.88582 0.97254 0.89855 0.0
C455 C 0.86264 0.92358 0.88906 0.0
C456 C 0.81724 0.90259 0.87217 0.0
C457 C 0.79455 0.92947 0.86614 0.0
C458 C 0.82456 0.1604 0.83295 0.0
C459 C 0.92335 0.16792 0.89725 0.0
O460 O 0.89056 0.25955 0.94443 0.0
O461 O 0.82064 0.24553 0.92491 0.0
O462 O 0.79084 0.11373 0.93834 0.0
O463 O 0.84922 0.15496 0.97171 0.0
O464 O 0.76788 0.17149 0.89338 0.0
O465 O 0.73329 0.08914 0.89069 0.0
O466 O 0.78074 1.01834 0.90405 0.0
O467 O 0.80368 0.03628 0.84804 0.0
O468 O 0.85072 0.16791 0.86086 0.0
O469 O 0.78917 0.11616 0.83189 0.0
O470 O 0.88858 0.12238 0.89958 0.0
O471 O 0.91215 0.20197 0.89653 0.0
H472 H 0.85656 0.31045 0.87173 0.0
H473 H 0.88413 0.39427 0.85496 0.0
H474 H 0.94227 0.44041 0.96255 0.0
H475 H 0.91509 0.35689 0.97903 0.0
H476 H 0.88044 0.03654 0.90149 0.0
H477 H 0.9207 0.98942 0.91174 0.0
H478 H 0.79881 0.86495 0.86437 0.0
H479 H 0.75904 0.91214 0.85393 0.0
C480 C 0.24339 0.99667 0.14187 0.0
C481 C 0.19428 0.96096 0.14243 0.0
C482 C 0.25836 0.04533 0.14655 0.0
C483 C 0.22509 0.06095 0.15208 0.0
H484 H 0.27107 0.98723 0.13784 0.0
H485 H 0.2966 0.07107 0.14561 0.0
S486 S 0.09214 0.98279 0.15542 0.0
N487 N 0.11205 0.94492 0.14839 0.0
N488 N 0.14043 0.03701 0.15747 0.0
C489 C 0.1757 1.02602 0.15214 0.0
C490 C 0.16027 0.97595 0.14732 0.0
C491 C 0.27218 0.2196 0.63533 0.0
C492 C 0.25933 0.17066 0.6339 0.0
C493 C 0.23807 0.23365 0.64103 0.0
C494 C 0.1892 0.1996 0.64545 0.0
H495 H 0.30932 0.24793 0.63246 0.0
H496 H 0.25024 0.27181 0.64213 0.0
S497 S 0.13527 0.06681 0.64207 0.0
N498 N 0.19345 0.08777 0.63589 0.0
N499 N 0.12872 0.11449 0.64651 0.0
C500 C 0.17506 0.15043 0.6428 0.0
C501 C 0.21023 0.1359 0.63708 0.0
C502 C 0.05734 0.17422 0.17127 0.0
C503 C 1.02241 0.16957 0.14596 0.0
C504 C 0.10645 0.2078 0.16599 0.0
C505 C 0.12169 0.2384 0.13571 0.0
H506 H 1.04647 0.15253 0.1956 0.0
H507 H 0.13218 0.21165 0.18662 0.0
S508 S 1.04461 0.23888 0.06106 0.0
N509 N 1.00674 0.19652 0.08883 0.0
N510 N 0.09848 0.26054 0.07952 0.0
C511 C 0.08722 0.23304 0.10984 0.0
C512 C 1.03765 0.19835 0.1148 0.0
C513 C 0.84132 1.02154 0.63393 0.0
C514 C 0.87514 1.00691 0.64075 0.0
C515 C 0.85518 0.07028 0.63171 0.0
C516 C 0.90359 0.10676 0.63606 0.0
H517 H 0.80348 0.99504 0.631 0.0
H518 H 0.82732 0.07923 0.62672 0.0
S519 S 1.00668 0.08738 0.65297 0.0
N520 N 0.95949 0.03251 0.65071 0.0
N521 N 0.98573 0.12451 0.64675 0.0
C522 C 0.93806 0.09267 0.64233 0.0
C523 C 0.92379 0.04273 0.64473 0.0
C524 C 0.85057 0.82321 0.14397 0.0
C525 C 0.89984 0.85699 0.14721 0.0
C526 C 0.8164 0.83765 0.1397 0.0
C527 C 0.82968 0.8867 0.13854 0.0
H528 H 0.83817 0.78499 0.14455 0.0
H529 H 0.779 0.80966 0.13751 0.0
S530 S 0.95453 0.98987 0.14587 0.0
N531 N 0.9607 0.94188 0.1489 0.0
N532 N 0.89625 0.96931 0.14084 0.0
C533 C 0.87904 0.9211 0.14139 0.0
C534 C 0.91411 0.90621 0.14565 0.0
C535 C 0.99908 0.8591 0.64678 0.0
C536 C 0.98117 0.81377 0.63018 0.0
C537 C 0.04906 0.89183 0.6486 0.0
C538 C 0.08244 0.88043 0.63338 0.0
H539 H 0.97456 0.86863 0.65945 0.0
H540 H 0.06169 0.92615 0.66202 0.0
S541 S 0.05366 0.76715 0.58581 0.0
N542 N 1.00084 0.76017 0.5971 0.0
N543 N 0.09381 0.82088 0.60108 0.0
C544 C 0.0647 0.83566 0.61613 0.0
C545 C 1.01433 0.80259 0.61435 0.0
C546 C 0.08196 0.85095 0.41877 0.0
C547 C 0.11574 0.89062 0.39853 0.0
C548 C 1.03268 0.83426 0.41601 0.0
C549 C 1.01488 0.85613 0.39252 0.0
H550 H 0.09368 0.83186 0.43645 0.0
H551 H 1.00814 0.80291 0.43163 0.0
S552 S 0.08842 0.96265 0.33468 0.0
N553 N 0.12843 0.95275 0.35524 0.0
N554 N 1.03509 0.92098 0.34965 0.0
C555 C 0.04827 0.89665 0.37266 0.0
C556 C 0.09889 0.91415 0.3759 0.0
C557 C 0.25208 1.01506 0.88559 0.0
C558 C 0.20244 0.99595 0.89047 0.0
C559 C 0.2843 0.06438 0.88825 0.0
C560 C 0.26867 0.09754 0.89548 0.0
H561 H 0.26645 0.99154 0.87993 0.0
H562 H 0.32214 0.07631 0.88484 0.0
S563 S 0.14188 0.06656 0.90928 0.0
N564 N 0.13856 1.01408 0.90234 0.0
N565 N 0.19956 0.10765 0.90644 0.0
C566 C 0.21889 0.07931 0.89939 0.0
C567 C 0.18573 1.02844 0.89699 0.0
C568 C 0.16364 0.20753 0.38644 0.0
C569 C 0.19392 0.25315 0.40186 0.0
C570 C 0.17848 0.17306 0.38382 0.0
C571 C 0.22361 0.1827 0.39725 0.0
H572 H 0.12906 0.19903 0.3752 0.0
H573 H 0.15468 0.13878 0.37099 0.0
S574 S 0.31499 0.2956 0.44185 0.0
N575 N 0.27029 0.30516 0.43206 0.0
N576 N 0.29773 0.24067 0.42724 0.0
C577 C 0.25341 0.22758 0.41369 0.0
C578 C 0.23867 0.26269 0.41599 0.0
C579 C 1.03809 0.15955 0.89106 0.0
C580 C 0.07397 0.20754 0.88436 0.0
C581 C 0.98945 0.14674 0.89526 0.0
C582 C 0.975 0.18157 0.89335 0.0
H583 H 0.04761 0.13163 0.89257 0.0
H584 H 0.9631 0.10933 0.90001 0.0
S585 S 0.0563 0.31305 0.87883 0.0
N586 N 0.09229 0.29024 0.87791 0.0
N587 N 1.00184 0.26687 0.88549 0.0
C588 C 1.01104 0.22991 0.88733 0.0
C589 C 0.0602 0.24269 0.88293 0.0
C590 C 0.91364 1.02174 0.38832 0.0
C591 C 0.90442 0.05751 0.40173 0.0
C592 C 0.8804 0.97239 0.39362 0.0
C593 C 0.83717 0.95763 0.41252 0.0
H594 H 0.94542 1.03188 0.37214 0.0
H595 H 0.88718 0.94584 0.38104 0.0
S596 S 0.80067 0.0374 0.45833 0.0
N597 N 0.85223 0.07472 0.43859 0.0
N598 N 0.79016 0.98277 0.44849 0.0
C599 C 0.82958 0.99325 0.42823 0.0
C600 C 0.86308 0.043 0.42284 0.0
C601 C 0.94391 0.86836 0.89035 0.0
C602 C 0.91588 0.82577 0.91006 0.0
C603 C 0.92786 0.90159 0.88492 0.0
C604 C 0.88339 0.8929 0.89899 0.0
H605 H 0.97671 0.87455 0.87725 0.0
H606 H 0.94904 0.93285 0.86813 0.0
S607 S 0.80119 0.79098 0.95756 0.0
N608 N 0.84486 0.78003 0.94737 0.0
N609 N 0.81504 0.84201 0.93713 0.0
C610 C 0.85711 0.85228 0.92085 0.0
C611 C 0.87331 0.81884 0.92641 0.0
C612 C 0.19186 0.67337 0.15612 0.0
C613 C 0.15178 0.6734 0.14057 0.0
C614 C 0.19926 0.63416 0.15196 0.0
C615 C 0.16704 0.59324 0.13187 0.0
H616 H 0.21881 0.70474 0.17067 0.0
H617 H 0.23132 0.63653 0.1637 0.0
S618 S 0.05535 0.57431 0.08676 0.0
N619 N 0.07823 0.62811 0.10563 0.0
N620 N 0.09233 0.5544 0.09732 0.0
C621 C 0.12553 0.59174 0.11756 0.0
C622 C 0.11785 0.63179 0.12203 0.0
C623 C 0.60022 0.19035 0.64829 0.0
C624 C 0.60665 0.15294 0.63478 0.0
C625 C 0.55426 0.18502 0.6512 0.0
C626 C 0.5126 0.14189 0.64113 0.0
H627 H 0.63113 0.22501 0.65489 0.0
H628 H 0.55153 0.21571 0.66026 0.0
S629 S 0.5092 1.03121 0.60763 0.0
N630 N 0.56705 0.06982 0.61394 0.0
N631 N 0.48054 0.05987 0.61944 0.0
C632 C 0.51816 0.10318 0.62959 0.0
C633 C 0.56518 0.10875 0.62629 0.0
C634 C 0.48519 0.5495 0.12158 0.0
C635 C 0.48421 0.59066 0.1339 0.0
C636 C 0.44523 0.50289 0.12586 0.0
C637 C 0.40251 0.49576 0.14212 0.0
H638 H 0.51668 0.55349 0.10768 0.0
H639 H 0.44697 0.47258 0.11467 0.0
S640 S 0.38223 0.59108 0.18088 0.0
N641 N 0.43742 0.62063 0.16451 0.0
N642 N 0.36292 0.53365 0.17278 0.0
C643 C 0.40189 0.53643 0.15593 0.0
C644 C 0.44252 0.58366 0.15178 0.0
C645 C 0.9775 0.47626 0.6191 0.0
C646 C 0.93833 0.47801 0.63484 0.0
C647 C 0.98401 0.43636 0.62416 0.0
C648 C 0.95115 0.39656 0.64473 0.0
H649 H 1.00228 0.50516 0.60163 0.0
H650 H 1.01297 0.43533 0.60992 0.0
S651 S 0.84499 0.38459 0.69404 0.0
N652 N 0.86813 0.43734 0.67376 0.0
N653 N 0.88042 0.36295 0.68329 0.0
C654 C 0.91355 0.3991 0.66225 0.0
C655 C 0.90711 0.43965 0.65732 0.0
C656 C 0.54523 0.89358 0.15542 0.0
C657 C 0.58698 0.93453 0.14259 0.0
C658 C 0.49944 0.88835 0.15122 0.0
C659 C 0.4931 0.92369 0.13373 0.0
H660 H 0.54766 0.86423 0.16771 0.0
H661 H 0.46853 0.85506 0.1601 0.0
S662 S 0.59101 0.04017 0.09848 0.0
N663 N 0.61936 1.01285 0.1141 0.0
N664 N 0.53319 1.00328 0.10633 0.0
C665 C 0.53476 0.96609 0.12248 0.0
C666 C 0.58167 0.97154 0.127 0.0
C667 C 0.65336 0.56411 0.62423 0.0
C668 C 0.69281 0.57248 0.64594 0.0
C669 C 0.61392 0.51727 0.61967 0.0
C670 C 0.61261 0.47733 0.63677 0.0
H671 H 0.65437 0.59329 0.6088 0.0
H672 H 0.58549 0.51201 0.60113 0.0
S673 S 0.7034 0.48199 0.70145 0.0
N674 N 0.7257 0.53822 0.688 0.0
N675 N 0.65142 0.45072 0.6801 0.0
C676 C 0.65032 0.48604 0.66062 0.0
C677 C 0.69041 0.53348 0.66505 0.0
C678 C 0.43949 0.95459 0.41067 0.0
C679 C 0.3977 0.92108 0.39205 0.0
C680 C 0.4784 0.94648 0.41548 0.0
C681 C 0.47685 0.90462 0.40182 0.0
H682 H 0.44108 0.98584 0.42334 0.0
H683 H 0.50898 0.97209 0.43142 0.0
S684 S 0.37883 0.80988 0.34604 0.0
N685 N 0.35944 0.84731 0.35638 0.0
N686 N 0.43239 0.83248 0.36516 0.0
C687 C 0.43651 0.87254 0.38121 0.0
C688 C 0.39706 0.88071 0.37636 0.0
C689 C 0.59675 0.42895 0.88281 0.0
C690 C 0.60329 0.47006 0.90138 0.0
C691 C 0.55073 0.38881 0.87797 0.0
C692 C 0.5092 0.38821 0.89113 0.0
H693 H 0.62761 0.42671 0.87361 0.0
H694 H 0.54789 0.35714 0.86504 0.0
S695 S 0.50626 0.48925 0.93752 0.0
N696 N 0.56402 0.50968 0.9299 0.0
N697 N 0.47743 0.43408 0.92071 0.0
C698 C 0.51489 0.43028 0.90757 0.0
C699 C 0.56194 0.47114 0.91283 0.0
C700 C 0.18828 0.5798 0.37613 0.0
C701 C 0.15858 0.58837 0.39932 0.0
C702 C 0.18075 0.53326 0.3708 0.0
C703 C 0.14296 0.49306 0.38815 0.0
H704 H 0.21878 0.60961 0.36298 0.0
H705 H 0.20618 0.52902 0.35415 0.0
S706 S 0.05296 0.4951 0.44983 0.0
N707 N 0.08824 0.55206 0.43847 0.0
N708 N 0.07379 0.46447 0.42785 0.0
C709 C 0.11109 0.50051 0.40957 0.0
C710 C 0.11898 0.54816 0.41531 0.0
C711 C 0.68014 0.16569 0.87395 0.0
C712 C 0.68224 0.12627 0.88856 0.0
C713 C 0.6398 0.17105 0.87894 0.0
C714 C 0.59991 0.13746 0.8991 0.0
H715 H 0.71093 0.19396 0.85987 0.0
H716 H 0.64118 0.20334 0.86873 0.0
S717 S 0.58482 1.02489 0.93951 0.0
N718 N 0.63904 0.05076 0.92123 0.0
N719 N 0.56302 0.06079 0.93074 0.0
C720 C 0.60022 0.09628 0.91197 0.0
C721 C 0.64132 0.0906 0.90655 0.0
C722 C 0.49624 0.63746 0.37896 0.0
C723 C 0.48963 0.59372 0.39274 0.0
C724 C 0.54227 0.67807 0.37604 0.0
C725 C 0.58379 0.67662 0.38634 0.0
H726 H 0.46542 0.64125 0.37234 0.0
H727 H 0.54516 0.71155 0.36708 0.0
S728 S 0.58675 0.56939 0.42006 0.0
N729 N 0.52892 0.55017 0.41376 0.0
N730 N 0.61561 0.62667 0.40809 0.0
C731 C 0.57809 0.63233 0.39785 0.0
C732 C 0.53099 0.59093 0.40122 0.0
C733 C 0.89447 0.52666 0.88219 0.0
C734 C 0.93751 0.56816 0.89265 0.0
C735 C 0.88887 0.48059 0.88517 0.0
C736 C 0.92587 0.47388 0.89917 0.0
H737 H 0.86408 0.52961 0.87271 0.0
H738 H 0.8543 0.4498 0.87819 0.0
S739 S 1.04722 0.57077 0.92758 0.0
N740 N 1.01905 0.59972 0.91529 0.0
N741 N 1.0085 0.513 0.92099 0.0
C742 C 0.96996 0.51517 0.90813 0.0
C743 C 0.97584 0.5623 0.90473 0.0
C744 C 0.24435 0.38904 0.2984 0.0
C745 C 0.20113 0.39011 0.29842 0.0
C746 C 0.26705 0.38957 0.26584 0.0
C747 C 0.24706 0.39058 0.23205 0.0
H748 H 0.25975 0.38575 0.32362 0.0
H749 H 0.29918 0.38661 0.26727 0.0
S750 S 0.13894 0.40176 0.21726 0.0
N751 N 0.14268 0.39878 0.26171 0.0
N752 N 0.18499 0.39854 0.20065 0.0
C753 C 0.20581 0.39506 0.23171 0.0
C754 C 0.18296 0.39518 0.26487 0.0
C755 C 0.9104 0.25471 0.76723 0.0
C756 C 0.8888 0.23578 0.73334 0.0
C757 C 0.88802 0.23171 0.79962 0.0
C758 C 0.84298 0.18921 0.79937 0.0
H759 H 0.94611 0.28605 0.76881 0.0
H760 H 0.90724 0.24612 0.82486 0.0
S761 S 0.76732 0.13053 0.71808 0.0
N762 N 0.81731 0.17593 0.70171 0.0
N763 N 0.77447 0.13309 0.7625 0.0
C764 C 0.81911 0.1724 0.76583 0.0
C765 C 0.84225 0.19557 0.73282 0.0
C766 C 0.68024 0.89148 0.26703 0.0
C767 C 0.69303 0.87616 0.23516 0.0
C768 C 0.68799 0.87803 0.30151 0.0
C769 C 0.70914 0.84921 0.30514 0.0
H770 H 0.66656 0.91617 0.26544 0.0
H771 H 0.67999 0.89248 0.32535 0.0
S772 S 0.74133 0.79263 0.23079 0.0
N773 N 0.72155 0.82485 0.20995 0.0
N774 N 0.737 0.8006 0.27452 0.0
C775 C 0.71858 0.83061 0.27367 0.0
C776 C 0.71012 0.84368 0.23869 0.0
C777 C 0.82891 0.66683 0.76602 0.0
C778 C 0.85736 0.68192 0.73438 0.0
C779 C 0.84996 0.6745 0.8006 0.0
C780 C 0.90015 0.69812 0.8046 0.0
H781 H 0.79021 0.65113 0.76418 0.0
H782 H 0.82707 0.66436 0.8243 0.0
S783 S 0.99026 0.73724 0.73071 0.0
N784 N 0.93806 0.71547 0.70961 0.0
N785 N 0.9775 0.73094 0.77436 0.0
C786 C 0.92873 0.71013 0.77327 0.0
C787 C 0.90735 0.7016 0.73816 0.0
C788 C 0.18032 0.80962 0.2673 0.0
C789 C 0.20399 0.82853 0.23413 0.0
C790 C 0.20137 0.83184 0.30035 0.0
C791 C 0.24711 0.87339 0.3015 0.0
H792 H 0.14412 0.77894 0.26773 0.0
H793 H 0.18074 0.81756 0.32498 0.0
S794 S 0.32735 0.93194 0.2226 0.0
N795 N 0.27759 0.88768 0.20473 0.0
N796 N 0.31809 0.92875 0.26676 0.0
C797 C 0.27279 0.8902 0.26872 0.0
C798 C 0.25096 0.86798 0.23505 0.0
C799 C 0.41378 0.25273 0.76853 0.0
C800 C 0.40181 0.22472 0.80036 0.0
C801 C 0.40702 0.23162 0.73404 0.0
C802 C 0.3877 0.18181 0.73035 0.0
H803 H 0.42598 0.29085 0.77014 0.0
H804 H 0.41409 0.25385 0.71023 0.0
S805 S 0.35913 0.09389 0.80452 0.0
N806 N 0.37667 0.14558 0.82548 0.0
N807 N 0.3629 0.10596 0.76082 0.0
C808 C 0.37931 0.15408 0.76176 0.0
C809 C 0.38682 0.17556 0.79679 0.0
C810 C 0.30933 0.25381 0.02168 0.0
C811 C 0.33984 0.28173 0.99333 0.0
C812 C 0.28658 0.27188 0.0443 0.0
C813 C 0.29345 0.31838 0.03934 0.0
H814 H 0.30306 0.21784 0.02651 0.0
H815 H 0.26388 0.24955 0.06606 0.0
S816 S 0.36999 0.40643 0.96986 0.0
N817 N 0.37579 0.35888 0.96215 0.0
N818 N 0.3329 0.39204 1.00456 0.0
C819 C 0.3235 0.3465 1.01118 0.0
C820 C 0.3467 0.32837 0.98821 0.0
C821 C 0.08791 0.30287 0.52218 0.0
C822 C 0.08783 0.32995 0.49225 0.0
C823 C 0.04799 0.28041 0.54559 0.0
C824 C 1.00647 0.28383 0.53976 0.0
H825 H 0.11902 0.29909 0.52763 0.0
H826 H 0.04966 0.26036 0.56848 0.0
S827 S 0.98798 0.35126 0.46639 0.0
N828 N 1.04241 0.35973 0.45901 0.0
N829 N 0.96772 0.31666 0.50258 0.0
C830 C 1.00572 0.31044 0.51005 0.0
C831 C 1.04632 0.33372 0.48643 0.0
C832 C 0.80122 1.03131 0.04552 0.0
C833 C 0.75608 0.98995 0.03969 0.0
C834 C 0.81908 0.0711 0.02197 0.0
C835 C 0.7921 0.07105 0.99188 0.0
H836 H 0.82278 0.03297 0.06854 0.0
H837 H 0.85412 0.1021 0.02748 0.0
S838 S 0.6704 0.97163 0.96593 0.0
N839 N 0.68443 0.9514 1.00233 0.0
N840 N 0.71677 1.02585 0.95846 0.0
C841 C 0.74658 1.0297 0.98603 0.0
C842 C 0.72886 0.98922 1.00981 0.0
C843 C 0.81304 0.79091 0.54399 0.0
C844 C 0.80127 0.74248 0.54041 0.0
C845 C 0.79024 0.81014 0.52253 0.0
C846 C 0.75483 0.78145 0.49683 0.0
H847 H 0.83947 0.81385 0.56393 0.0
H848 H 0.80047 0.8476 0.52601 0.0
S849 S 0.70959 0.65159 0.47885 0.0
N850 N 0.75114 0.66611 0.51042 0.0
N851 N 0.70813 0.70133 0.47035 0.0
C852 C 0.74264 0.73277 0.49348 0.0
C853 C 0.76585 0.71351 0.5152 0.0
C854 C 1.02105 0.78716 1.0134 0.0
C855 C 1.0015 0.74002 0.99964 0.0
C856 C 0.06443 0.80881 0.03362 0.0
C857 C 0.08887 0.78356 0.0412 0.0
H858 H 1.00345 0.80775 1.00779 0.0
H859 H 0.07825 0.84495 0.04407 0.0
S860 S 0.05209 0.65926 1.01197 0.0
N861 N 1.01028 0.66926 0.99503 0.0
N862 N 0.08986 0.70895 0.03392 0.0
C863 C 0.06916 0.73636 0.02802 0.0
C864 C 1.02603 0.71489 1.00697 0.0
C865 C 0.26598 1.01379 0.50539 0.0
C866 C 0.29313 0.99309 0.49301 0.0
C867 C 0.28783 0.05735 0.52544 0.0
C868 C 0.33722 0.08085 0.53425 0.0
H869 H 0.22796 0.99673 0.49902 0.0
H870 H 0.26575 0.07181 0.53504 0.0
S871 S 0.42347 0.04077 0.50892 0.0
N872 N 0.37186 0.99978 0.49095 0.0
N873 N 0.41203 0.07967 0.52948 0.0
C874 C 0.36428 0.06011 0.5222 0.0
C875 C 0.3425 1.0168 0.50134 0.0
loop_
_geom_bond_atom_site_label_1
_geom_bond_atom_site_label_2
_geom_bond_distance
_geom_bond_site_symmetry_2
_ccdc_geom_bond_type
Sm0 C2 2.846 . S
Sm0 O20 2.543 . S
Sm0 O21 2.450 . S
Sm0 O22 2.681 . S
Sm0 O23 2.464 . S
Sm0 O24 2.396 . S
Sm0 O28 2.386 . S
Sm0 O31 2.408 . S
Sm1 C11 2.846 . S
Sm1 O22 2.386 . S
Sm1 O25 2.408 . S
Sm1 O26 2.543 . S
Sm1 O27 2.450 . S
Sm1 O28 2.681 . S
Sm1 O29 2.464 . S
Sm1 O30 2.396 . S
C2 Sm0 2.846 . S
C2 C3 1.506 . S
C2 O20 1.261 . S
C2 O21 1.242 . S
C3 C2 1.506 . S
C3 C4 1.358 . S
C3 C8 1.382 . S
C4 C3 1.358 . S
C4 C5 1.385 . S
C4 H32 0.930 . S
C5 C4 1.385 . S
C5 C6 1.395 . S
C5 H33 0.929 . S
C6 C5 1.395 . S
C6 C7 1.335 . S
C7 C6 1.335 . S
C7 C8 1.398 . S
C7 H34 0.930 . S
C8 C3 1.382 . S
C8 C7 1.398 . S
C8 H35 0.929 . S
C9 O22 1.271 . S
C9 O23 1.251 . S
C10 O24 1.252 . S
C10 O25 1.272 . S
C11 Sm1 2.846 . S
C11 C12 1.506 . S
C11 O26 1.261 . S
C11 O27 1.242 . S
C12 C11 1.506 . S
C12 C13 1.358 . S
C12 C17 1.382 . S
C13 C12 1.358 . S
C13 C14 1.385 . S
C13 H36 0.930 . S
C14 C13 1.385 . S
C14 C15 1.395 . S
C14 H37 0.929 . S
C15 C14 1.395 . S
C15 C16 1.335 . S
C16 C15 1.335 . S
C16 C17 1.398 . S
C16 H38 0.930 . S
C17 C12 1.382 . S
C17 C16 1.398 . S
C17 H39 0.929 . S
C18 O28 1.271 . S
C18 O29 1.251 . S
C19 O30 1.252 . S
C19 O31 1.272 . S
O20 Sm0 2.543 . S
O20 C2 1.261 . S
O21 Sm0 2.450 . S
O21 C2 1.242 . S
O22 Sm0 2.681 . S
O22 Sm1 2.386 . S
O22 C9 1.271 . S
O23 Sm0 2.464 . S
O23 C9 1.251 . S
O24 Sm0 2.396 . S
O24 C10 1.252 . S
O25 Sm1 2.408 . S
O25 C10 1.272 . S
O26 Sm1 2.543 . S
O26 C11 1.261 . S
O27 Sm1 2.450 . S
O27 C11 1.242 . S
O28 Sm0 2.386 . S
O28 Sm1 2.681 . S
O28 C18 1.271 . S
O29 Sm1 2.464 . S
O29 C18 1.251 . S
O30 Sm1 2.396 . S
O30 C19 1.252 . S
O31 Sm0 2.408 . S
O31 C19 1.272 . S
H32 C4 0.930 . S
H33 C5 0.929 . S
H34 C7 0.930 . S
H35 C8 0.929 . S
H36 C13 0.930 . S
H37 C14 0.929 . S
H38 C16 0.930 . S
H39 C17 0.929 . S
Sm40 C42 2.846 . S
Sm40 O60 2.543 . S
Sm40 O61 2.450 . S
Sm40 O62 2.681 . S
Sm40 O63 2.464 . S
Sm40 O64 2.396 . S
Sm40 O68 2.386 . S
Sm40 O71 2.408 . S
Sm41 C51 2.846 . S
Sm41 O62 2.386 . S
Sm41 O65 2.408 . S
Sm41 O66 2.543 . S
Sm41 O67 2.450 . S
Sm41 O68 2.681 . S
Sm41 O69 2.464 . S
Sm41 O70 2.396 . S
C42 Sm40 2.846 . S
C42 C43 1.506 . S
C42 O60 1.261 . S
C42 O61 1.242 . S
C43 C42 1.506 . S
C43 C44 1.358 . S
C43 C48 1.382 . S
C44 C43 1.358 . S
C44 C45 1.385 . S
C44 H72 0.930 . S
C45 C44 1.385 . S
C45 C46 1.395 . S
C45 H73 0.929 . S
C46 C45 1.395 . S
C46 C47 1.335 . S
C47 C46 1.335 . S
C47 C48 1.398 . S
C47 H74 0.930 . S
C48 C43 1.382 . S
C48 C47 1.398 . S
C48 H75 0.929 . S
C49 O62 1.271 . S
C49 O63 1.251 . S
C50 O64 1.252 . S
C50 O65 1.272 . S
C51 Sm41 2.846 . S
C51 C52 1.506 1_655 S
C51 O66 1.261 . S
C51 O67 1.242 . S
C52 C51 1.506 1_455 S
C52 C53 1.358 . S
C52 C57 1.382 . S
C53 C52 1.358 . S
C53 C54 1.385 . S
C53 H76 0.930 . S
C54 C53 1.385 . S
C54 C55 1.395 . S
C54 H77 0.929 . S
C55 C54 1.395 . S
C55 C56 1.335 . S
C56 C55 1.335 . S
C56 C57 1.398 . S
C56 H78 0.930 . S
C57 C52 1.382 . S
C57 C56 1.398 . S
C57 H79 0.929 . S
C58 O68 1.271 . S
C58 O69 1.251 . S
C59 O70 1.252 . S
C59 O71 1.272 . S
O60 Sm40 2.543 . S
O60 C42 1.261 . S
O61 Sm40 2.450 . S
O61 C42 1.242 . S
O62 Sm40 2.681 . S
O62 Sm41 2.386 . S
O62 C49 1.271 . S
O63 Sm40 2.464 . S
O63 C49 1.251 . S
O64 Sm40 2.396 . S
O64 C50 1.252 . S
O65 Sm41 2.408 . S
O65 C50 1.272 . S
O66 Sm41 2.543 . S
O66 C51 1.261 . S
O67 Sm41 2.450 . S
O67 C51 1.242 . S
O68 Sm40 2.386 . S
O68 Sm41 2.681 . S
O68 C58 1.271 . S
O69 Sm41 2.464 . S
O69 C58 1.251 . S
O70 Sm41 2.396 . S
O70 C59 1.252 . S
O71 Sm40 2.408 . S
O71 C59 1.272 . S
H72 C44 0.930 . S
H73 C45 0.929 . S
H74 C47 0.930 . S
H75 C48 0.929 . S
H76 C53 0.930 . S
H77 C54 0.929 . S
H78 C56 0.930 . S
H79 C57 0.929 . S
Sm80 C82 2.846 . S
Sm80 O100 2.543 . S
Sm80 O101 2.450 . S
Sm80 O102 2.681 . S
Sm80 O103 2.464 . S
Sm80 O104 2.396 . S
Sm80 O108 2.386 . S
Sm80 O111 2.408 . S
Sm81 C91 2.846 . S
Sm81 O102 2.386 . S
Sm81 O105 2.408 . S
Sm81 O106 2.543 . S
Sm81 O107 2.450 . S
Sm81 O108 2.681 . S
Sm81 O109 2.464 . S
Sm81 O110 2.396 . S
C82 Sm80 2.846 . S
C82 C83 1.506 . S
C82 O100 1.261 . S
C82 O101 1.242 . S
C83 C82 1.506 . S
C83 C84 1.358 . S
C83 C88 1.382 . S
C84 C83 1.358 . S
C84 C85 1.385 . S
C84 H112 0.930 . S
C85 C84 1.385 . S
C85 C86 1.395 . S
C85 H113 0.929 . S
C86 C85 1.395 . S
C86 C87 1.335 . S
C87 C86 1.335 . S
C87 C88 1.398 . S
C87 H114 0.930 . S
C88 C83 1.382 . S
C88 C87 1.398 . S
C88 H115 0.929 . S
C89 O102 1.271 . S
C89 O103 1.251 . S
C90 O104 1.252 . S
C90 O105 1.272 . S
C91 Sm81 2.846 . S
C91 C92 1.506 1_565 S
C91 O106 1.261 . S
C91 O107 1.242 . S
C92 C91 1.506 1_545 S
C92 C93 1.358 . S
C92 C97 1.382 . S
C93 C92 1.358 . S
C93 C94 1.385 . S
C93 H116 0.930 . S
C94 C93 1.385 . S
C94 C95 1.395 . S
C94 H117 0.929 . S
C95 C94 1.395 . S
C95 C96 1.335 . S
C96 C95 1.335 . S
C96 C97 1.398 . S
C96 H118 0.930 . S
C97 C92 1.382 . S
C97 C96 1.398 . S
C97 H119 0.929 . S
C98 O108 1.271 . S
C98 O109 1.251 . S
C99 O110 1.252 . S
C99 O111 1.272 . S
O100 Sm80 2.543 . S
O100 C82 1.261 . S
O101 Sm80 2.450 . S
O101 C82 1.242 . S
O102 Sm80 2.681 . S
O102 Sm81 2.386 . S
O102 C89 1.271 . S
O103 Sm80 2.464 . S
O103 C89 1.251 . S
O104 Sm80 2.396 . S
O104 C90 1.252 . S
O105 Sm81 2.408 . S
O105 C90 1.272 . S
O106 Sm81 2.543 . S
O106 C91 1.261 . S
O107 Sm81 2.450 . S
O107 C91 1.242 . S
O108 Sm80 2.386 . S
O108 Sm81 2.681 . S
O108 C98 1.271 . S
O109 Sm81 2.464 . S
O109 C98 1.251 . S
O110 Sm81 2.396 . S
O110 C99 1.252 . S
O111 Sm80 2.408 . S
O111 C99 1.272 . S
H112 C84 0.930 . S
H113 C85 0.929 . S
H114 C87 0.930 . S
H115 C88 0.929 . S
H116 C93 0.930 . S
H117 C94 0.929 . S
H118 C96 0.930 . S
H119 C97 0.929 . S
Sm120 C122 2.846 . S
Sm120 O140 2.543 . S
Sm120 O141 2.450 . S
Sm120 O142 2.681 . S
Sm120 O143 2.464 . S
Sm120 O144 2.396 . S
Sm120 O148 2.386 . S
Sm120 O151 2.408 . S
Sm121 C131 2.846 . S
Sm121 O142 2.386 . S
Sm121 O145 2.408 . S
Sm121 O146 2.543 . S
Sm121 O147 2.450 . S
Sm121 O148 2.681 . S
Sm121 O149 2.464 . S
Sm121 O150 2.396 . S
C122 Sm120 2.846 . S
C122 C123 1.506 . S
C122 O140 1.261 . S
C122 O141 1.242 . S
C123 C122 1.506 . S
C123 C124 1.358 . S
C123 C128 1.382 . S
C124 C123 1.358 . S
C124 C125 1.385 . S
C124 H152 0.930 . S
C125 C124 1.385 . S
C125 C126 1.395 . S
C125 H153 0.929 . S
C126 C125 1.395 . S
C126 C127 1.335 . S
C127 C126 1.335 . S
C127 C128 1.398 . S
C127 H154 0.930 . S
C128 C123 1.382 . S
C128 C127 1.398 . S
C128 H155 0.929 . S
C129 O142 1.271 . S
C129 O143 1.251 . S
C130 O144 1.252 . S
C130 O145 1.272 . S
C131 Sm121 2.846 . S
C131 C132 1.506 . S
C131 O146 1.261 . S
C131 O147 1.242 . S
C132 C131 1.506 . S
C132 C133 1.358 . S
C132 C137 1.382 . S
C133 C132 1.358 . S
C133 C134 1.385 . S
C133 H156 0.930 . S
C134 C133 1.385 . S
C134 C135 1.395 . S
C134 H157 0.929 . S
C135 C134 1.395 . S
C135 C136 1.335 . S
C136 C135 1.335 . S
C136 C137 1.398 . S
C136 H158 0.930 . S
C137 C132 1.382 . S
C137 C136 1.398 . S
C137 H159 0.929 . S
C138 O148 1.271 . S
C138 O149 1.251 . S
C139 O150 1.252 . S
C139 O151 1.272 . S
O140 Sm120 2.543 . S
O140 C122 1.261 . S
O141 Sm120 2.450 . S
O141 C122 1.242 . S
O142 Sm120 2.681 . S
O142 Sm121 2.386 . S
O142 C129 1.271 . S
O143 Sm120 2.464 . S
O143 C129 1.251 . S
O144 Sm120 2.396 . S
O144 C130 1.252 . S
O145 Sm121 2.408 . S
O145 C130 1.272 . S
O146 Sm121 2.543 . S
O146 C131 1.261 . S
O147 Sm121 2.450 . S
O147 C131 1.242 . S
O148 Sm120 2.386 . S
O148 Sm121 2.681 . S
O148 C138 1.271 . S
O149 Sm121 2.464 . S
O149 C138 1.251 . S
O150 Sm121 2.396 . S
O150 C139 1.252 . S
O151 Sm120 2.408 . S
O151 C139 1.272 . S
H152 C124 0.930 . S
H153 C125 0.929 . S
H154 C127 0.930 . S
H155 C128 0.929 . S
H156 C133 0.930 . S
H157 C134 0.929 . S
H158 C136 0.930 . S
H159 C137 0.929 . S
Sm160 C162 2.846 . S
Sm160 O180 2.543 . S
Sm160 O181 2.450 . S
Sm160 O182 2.681 . S
Sm160 O183 2.464 . S
Sm160 O184 2.396 . S
Sm160 O188 2.386 . S
Sm160 O191 2.408 . S
Sm161 C171 2.846 . S
Sm161 O182 2.386 . S
Sm161 O185 2.408 . S
Sm161 O186 2.543 . S
Sm161 O187 2.450 . S
Sm161 O188 2.681 . S
Sm161 O189 2.464 . S
Sm161 O190 2.396 . S
C162 Sm160 2.846 . S
C162 C163 1.506 . S
C162 O180 1.261 . S
C162 O181 1.242 . S
C163 C162 1.506 . S
C163 C164 1.358 . S
C163 C168 1.382 . S
C164 C163 1.358 . S
C164 C165 1.385 . S
C164 H192 0.930 . S
C165 C164 1.385 . S
C165 C166 1.395 . S
C165 H193 0.929 . S
C166 C165 1.395 . S
C166 C167 1.335 . S
C167 C166 1.335 . S
C167 C168 1.398 . S
C167 H194 0.930 . S
C168 C163 1.382 . S
C168 C167 1.398 . S
C168 H195 0.929 . S
C169 O182 1.271 . S
C169 O183 1.251 . S
C170 O184 1.252 . S
C170 O185 1.272 . S
C171 Sm161 2.846 . S
C171 C172 1.506 1_455 S
C171 O186 1.261 . S
C171 O187 1.242 . S
C172 C171 1.506 1_655 S
C172 C173 1.358 . S
C172 C177 1.382 . S
C173 C172 1.358 . S
C173 C174 1.385 . S
C173 H196 0.930 . S
C174 C173 1.385 . S
C174 C175 1.395 . S
C174 H197 0.929 . S
C175 C174 1.395 . S
C175 C176 1.335 . S
C176 C175 1.335 . S
C176 C177 1.398 . S
C176 H198 0.930 . S
C177 C172 1.382 . S
C177 C176 1.398 . S
C177 H199 0.929 . S
C178 O188 1.271 . S
C178 O189 1.251 . S
C179 O190 1.252 . S
C179 O191 1.272 . S
O180 Sm160 2.543 . S
O180 C162 1.261 . S
O181 Sm160 2.450 . S
O181 C162 1.242 . S
O182 Sm160 2.681 . S
O182 Sm161 2.386 . S
O182 C169 1.271 . S
O183 Sm160 2.464 . S
O183 C169 1.251 . S
O184 Sm160 2.396 . S
O184 C170 1.252 . S
O185 Sm161 2.408 . S
O185 C170 1.272 . S
O186 Sm161 2.543 . S
O186 C171 1.261 . S
O187 Sm161 2.450 . S
O187 C171 1.242 . S
O188 Sm160 2.386 . S
O188 Sm161 2.681 . S
O188 C178 1.271 . S
O189 Sm161 2.464 . S
O189 C178 1.251 . S
O190 Sm161 2.396 . S
O190 C179 1.252 . S
O191 Sm160 2.408 . S
O191 C179 1.272 . S
H192 C164 0.930 . S
H193 C165 0.929 . S
H194 C167 0.930 . S
H195 C168 0.929 . S
H196 C173 0.930 . S
H197 C174 0.929 . S
H198 C176 0.930 . S
H199 C177 0.929 . S
Sm200 C202 2.846 . S
Sm200 O220 2.543 . S
Sm200 O221 2.450 . S
Sm200 O222 2.681 . S
Sm200 O223 2.464 . S
Sm200 O224 2.396 . S
Sm200 O228 2.386 . S
Sm200 O231 2.408 . S
Sm201 C211 2.846 . S
Sm201 O222 2.386 . S
Sm201 O225 2.408 . S
Sm201 O226 2.543 . S
Sm201 O227 2.450 . S
Sm201 O228 2.681 . S
Sm201 O229 2.464 . S
Sm201 O230 2.396 . S
C202 Sm200 2.846 . S
C202 C203 1.506 . S
C202 O220 1.261 . S
C202 O221 1.242 . S
C203 C202 1.506 . S
C203 C204 1.358 . S
C203 C208 1.382 . S
C204 C203 1.358 . S
C204 C205 1.385 . S
C204 H232 0.930 . S
C205 C204 1.385 . S
C205 C206 1.395 . S
C205 H233 0.929 . S
C206 C205 1.395 . S
C206 C207 1.335 . S
C207 C206 1.335 . S
C207 C208 1.398 . S
C207 H234 0.930 . S
C208 C203 1.382 . S
C208 C207 1.398 . S
C208 H235 0.929 . S
C209 O222 1.271 . S
C209 O223 1.251 . S
C210 O224 1.252 . S
C210 O225 1.272 . S
C211 Sm201 2.846 . S
C211 C212 1.506 1_545 S
C211 O226 1.261 . S
C211 O227 1.242 . S
C212 C211 1.506 1_565 S
C212 C213 1.358 . S
C212 C217 1.382 . S
C213 C212 1.358 . S
C213 C214 1.385 . S
C213 H236 0.930 . S
C214 C213 1.385 . S
C214 C215 1.395 . S
C214 H237 0.929 . S
C215 C214 1.395 . S
C215 C216 1.335 . S
C216 C215 1.335 . S
C216 C217 1.398 . S
C216 H238 0.930 . S
C217 C212 1.382 . S
C217 C216 1.398 . S
C217 H239 0.929 . S
C218 O228 1.271 . S
C218 O229 1.251 . S
C219 O230 1.252 . S
C219 O231 1.272 . S
O220 Sm200 2.543 . S
O220 C202 1.261 . S
O221 Sm200 2.450 . S
O221 C202 1.242 . S
O222 Sm200 2.681 . S
O222 Sm201 2.386 . S
O222 C209 1.271 . S
O223 Sm200 2.464 . S
O223 C209 1.251 . S
O224 Sm200 2.396 . S
O224 C210 1.252 . S
O225 Sm201 2.408 . S
O225 C210 1.272 . S
O226 Sm201 2.543 . S
O226 C211 1.261 . S
O227 Sm201 2.450 . S
O227 C211 1.242 . S
O228 Sm200 2.386 . S
O228 Sm201 2.681 . S
O228 C218 1.271 . S
O229 Sm201 2.464 . S
O229 C218 1.251 . S
O230 Sm201 2.396 . S
O230 C219 1.252 . S
O231 Sm200 2.408 . S
O231 C219 1.272 . S
H232 C204 0.930 . S
H233 C205 0.929 . S
H234 C207 0.930 . S
H235 C208 0.929 . S
H236 C213 0.930 . S
H237 C214 0.929 . S
H238 C216 0.930 . S
H239 C217 0.929 . S
Sm240 C242 2.846 . S
Sm240 O260 2.543 . S
Sm240 O261 2.450 . S
Sm240 O262 2.681 . S
Sm240 O263 2.464 . S
Sm240 O264 2.396 . S
Sm240 O268 2.386 . S
Sm240 O271 2.408 . S
Sm241 C251 2.846 . S
Sm241 O262 2.386 . S
Sm241 O265 2.408 . S
Sm241 O266 2.543 . S
Sm241 O267 2.450 . S
Sm241 O268 2.681 . S
Sm241 O269 2.464 . S
Sm241 O270 2.396 . S
C242 Sm240 2.846 . S
C242 C243 1.506 . S
C242 O260 1.261 . S
C242 O261 1.242 . S
C243 C242 1.506 . S
C243 C244 1.358 . S
C243 C248 1.382 . S
C244 C243 1.358 . S
C244 C245 1.385 . S
C244 H272 0.930 . S
C245 C244 1.385 . S
C245 C246 1.395 . S
C245 H273 0.929 . S
C246 C245 1.395 . S
C246 C247 1.335 . S
C247 C246 1.335 . S
C247 C248 1.398 . S
C247 H274 0.930 . S
C248 C243 1.382 . S
C248 C247 1.398 . S
C248 H275 0.929 . S
C249 O262 1.271 . S
C249 O263 1.251 . S
C250 O264 1.252 . S
C250 O265 1.272 . S
C251 Sm241 2.846 . S
C251 C252 1.506 . S
C251 O266 1.261 . S
C251 O267 1.242 . S
C252 C251 1.506 . S
C252 C253 1.358 . S
C252 C257 1.382 . S
C253 C252 1.358 . S
C253 C254 1.385 . S
C253 H276 0.930 . S
C254 C253 1.385 . S
C254 C255 1.395 . S
C254 H277 0.929 . S
C255 C254 1.395 . S
C255 C256 1.335 . S
C256 C255 1.335 . S
C256 C257 1.398 . S
C256 H278 0.930 . S
C257 C252 1.382 . S
C257 C256 1.398 . S
C257 H279 0.929 . S
C258 O268 1.271 . S
C258 O269 1.251 . S
C259 O270 1.252 . S
C259 O271 1.272 . S
O260 Sm240 2.543 . S
O260 C242 1.261 . S
O261 Sm240 2.450 . S
O261 C242 1.242 . S
O262 Sm240 2.681 . S
O262 Sm241 2.386 . S
O262 C249 1.271 . S
O263 Sm240 2.464 . S
O263 C249 1.251 . S
O264 Sm240 2.396 . S
O264 C250 1.252 . S
O265 Sm241 2.408 . S
O265 C250 1.272 . S
O266 Sm241 2.543 . S
O266 C251 1.261 . S
O267 Sm241 2.450 . S
O267 C251 1.242 . S
O268 Sm240 2.386 . S
O268 Sm241 2.681 . S
O268 C258 1.271 . S
O269 Sm241 2.464 . S
O269 C258 1.251 . S
O270 Sm241 2.396 . S
O270 C259 1.252 . S
O271 Sm240 2.408 . S
O271 C259 1.272 . S
H272 C244 0.930 . S
H273 C245 0.929 . S
H274 C247 0.930 . S
H275 C248 0.929 . S
H276 C253 0.930 . S
H277 C254 0.929 . S
H278 C256 0.930 . S
H279 C257 0.929 . S
Sm280 C282 2.846 . S
Sm280 O300 2.543 . S
Sm280 O301 2.450 . S
Sm280 O302 2.681 . S
Sm280 O303 2.464 . S
Sm280 O304 2.396 . S
Sm280 O308 2.386 . S
Sm280 O311 2.408 . S
Sm281 C291 2.846 . S
Sm281 O302 2.386 . S
Sm281 O305 2.408 . S
Sm281 O306 2.543 . S
Sm281 O307 2.450 . S
Sm281 O308 2.681 . S
Sm281 O309 2.464 . S
Sm281 O310 2.396 . S
C282 Sm280 2.846 . S
C282 C283 1.506 . S
C282 O300 1.261 . S
C282 O301 1.242 . S
C283 C282 1.506 . S
C283 C284 1.358 . S
C283 C288 1.382 . S
C284 C283 1.358 . S
C284 C285 1.385 . S
C284 H312 0.930 . S
C285 C284 1.385 . S
C285 C286 1.395 . S
C285 H313 0.929 . S
C286 C285 1.395 . S
C286 C287 1.335 . S
C287 C286 1.335 . S
C287 C288 1.398 . S
C287 H314 0.930 . S
C288 C283 1.382 . S
C288 C287 1.398 . S
C288 H315 0.929 . S
C289 O302 1.271 . S
C289 O303 1.251 . S
C290 O304 1.252 . S
C290 O305 1.272 . S
C291 Sm281 2.846 . S
C291 C292 1.506 1_655 S
C291 O306 1.261 . S
C291 O307 1.242 . S
C292 C291 1.506 1_455 S
C292 C293 1.358 . S
C292 C297 1.382 . S
C293 C292 1.358 . S
C293 C294 1.385 . S
C293 H316 0.930 . S
C294 C293 1.385 . S
C294 C295 1.395 . S
C294 H317 0.929 . S
C295 C294 1.395 . S
C295 C296 1.335 . S
C296 C295 1.335 . S
C296 C297 1.398 . S
C296 H318 0.930 . S
C297 C292 1.382 . S
C297 C296 1.398 . S
C297 H319 0.929 . S
C298 O308 1.271 . S
C298 O309 1.251 . S
C299 O310 1.252 . S
C299 O311 1.272 . S
O300 Sm280 2.543 . S
O300 C282 1.261 . S
O301 Sm280 2.450 . S
O301 C282 1.242 . S
O302 Sm280 2.681 . S
O302 Sm281 2.386 . S
O302 C289 1.271 . S
O303 Sm280 2.464 . S
O303 C289 1.251 . S
O304 Sm280 2.396 . S
O304 C290 1.252 . S
O305 Sm281 2.408 . S
O305 C290 1.272 . S
O306 Sm281 2.543 . S
O306 C291 1.261 . S
O307 Sm281 2.450 . S
O307 C291 1.242 . S
O308 Sm280 2.386 . S
O308 Sm281 2.681 . S
O308 C298 1.271 . S
O309 Sm281 2.464 . S
O309 C298 1.251 . S
O310 Sm281 2.396 . S
O310 C299 1.252 . S
O311 Sm280 2.408 . S
O311 C299 1.272 . S
H312 C284 0.930 . S
H313 C285 0.929 . S
H314 C287 0.930 . S
H315 C288 0.929 . S
H316 C293 0.930 . S
H317 C294 0.929 . S
H318 C296 0.930 . S
H319 C297 0.929 . S
Sm320 C322 2.846 . S
Sm320 O340 2.543 . S
Sm320 O341 2.450 . S
Sm320 O342 2.681 . S
Sm320 O343 2.464 . S
Sm320 O344 2.396 . S
Sm320 O348 2.386 . S
Sm320 O351 2.408 . S
Sm321 C331 2.846 . S
Sm321 O342 2.386 . S
Sm321 O345 2.408 . S
Sm321 O346 2.543 . S
Sm321 O347 2.450 . S
Sm321 O348 2.681 . S
Sm321 O349 2.464 . S
Sm321 O350 2.396 . S
C322 Sm320 2.846 . S
C322 C323 1.506 . S
C322 O340 1.261 . S
C322 O341 1.242 . S
C323 C322 1.506 . S
C323 C324 1.358 . S
C323 C328 1.382 . S
C324 C323 1.358 . S
C324 C325 1.385 . S
C324 H352 0.930 . S
C325 C324 1.385 . S
C325 C326 1.395 . S
C325 H353 0.929 . S
C326 C325 1.395 . S
C326 C327 1.335 . S
C327 C326 1.335 . S
C327 C328 1.398 . S
C327 H354 0.930 . S
C328 C323 1.382 . S
C328 C327 1.398 . S
C328 H355 0.929 . S
C329 O342 1.271 . S
C329 O343 1.251 . S
C330 O344 1.252 . S
C330 O345 1.272 . S
C331 Sm321 2.846 . S
C331 C332 1.506 1_565 S
C331 O346 1.261 . S
C331 O347 1.242 . S
C332 C331 1.506 1_545 S
C332 C333 1.358 . S
C332 C337 1.382 . S
C333 C332 1.358 . S
C333 C334 1.385 . S
C333 H356 0.930 . S
C334 C333 1.385 . S
C334 C335 1.395 . S
C334 H357 0.929 . S
C335 C334 1.395 . S
C335 C336 1.335 . S
C336 C335 1.335 . S
C336 C337 1.398 . S
C336 H358 0.930 . S
C337 C332 1.382 . S
C337 C336 1.398 . S
C337 H359 0.929 . S
C338 O348 1.271 . S
C338 O349 1.251 . S
C339 O350 1.252 . S
C339 O351 1.272 . S
O340 Sm320 2.543 . S
O340 C322 1.261 . S
O341 Sm320 2.450 . S
O341 C322 1.242 . S
O342 Sm320 2.681 . S
O342 Sm321 2.386 . S
O342 C329 1.271 . S
O343 Sm320 2.464 . S
O343 C329 1.251 . S
O344 Sm320 2.396 . S
O344 C330 1.252 . S
O345 Sm321 2.408 . S
O345 C330 1.272 . S
O346 Sm321 2.543 . S
O346 C331 1.261 . S
O347 Sm321 2.450 . S
O347 C331 1.242 . S
O348 Sm320 2.386 . S
O348 Sm321 2.681 . S
O348 C338 1.271 . S
O349 Sm321 2.464 . S
O349 C338 1.251 . S
O350 Sm321 2.396 . S
O350 C339 1.252 . S
O351 Sm320 2.408 . S
O351 C339 1.272 . S
H352 C324 0.930 . S
H353 C325 0.929 . S
H354 C327 0.930 . S
H355 C328 0.929 . S
H356 C333 0.930 . S
H357 C334 0.929 . S
H358 C336 0.930 . S
H359 C337 0.929 . S
Sm360 C362 2.846 . S
Sm360 O380 2.543 . S
Sm360 O381 2.450 . S
Sm360 O382 2.681 . S
Sm360 O383 2.464 . S
Sm360 O384 2.396 . S
Sm360 O388 2.386 . S
Sm360 O391 2.408 . S
Sm361 C371 2.846 . S
Sm361 O382 2.386 . S
Sm361 O385 2.408 . S
Sm361 O386 2.543 . S
Sm361 O387 2.450 . S
Sm361 O388 2.681 . S
Sm361 O389 2.464 . S
Sm361 O390 2.396 . S
C362 Sm360 2.846 . S
C362 C363 1.506 . S
C362 O380 1.261 . S
C362 O381 1.242 . S
C363 C362 1.506 . S
C363 C364 1.358 . S
C363 C368 1.382 . S
C364 C363 1.358 . S
C364 C365 1.385 . S
C364 H392 0.930 . S
C365 C364 1.385 . S
C365 C366 1.395 . S
C365 H393 0.929 . S
C366 C365 1.395 . S
C366 C367 1.335 . S
C367 C366 1.335 . S
C367 C368 1.398 . S
C367 H394 0.930 . S
C368 C363 1.382 . S
C368 C367 1.398 . S
C368 H395 0.929 . S
C369 O382 1.271 . S
C369 O383 1.251 . S
C370 O384 1.252 . S
C370 O385 1.272 . S
C371 Sm361 2.846 . S
C371 C372 1.506 . S
C371 O386 1.261 . S
C371 O387 1.242 . S
C372 C371 1.506 . S
C372 C373 1.358 . S
C372 C377 1.382 . S
C373 C372 1.358 . S
C373 C374 1.385 . S
C373 H396 0.930 . S
C374 C373 1.385 . S
C374 C375 1.395 . S
C374 H397 0.929 . S
C375 C374 1.395 . S
C375 C376 1.335 . S
C376 C375 1.335 . S
C376 C377 1.398 . S
C376 H398 0.930 . S
C377 C372 1.382 . S
C377 C376 1.398 . S
C377 H399 0.929 . S
C378 O388 1.271 . S
C378 O389 1.251 . S
C379 O390 1.252 . S
C379 O391 1.272 . S
O380 Sm360 2.543 . S
O380 C362 1.261 . S
O381 Sm360 2.450 . S
O381 C362 1.242 . S
O382 Sm360 2.681 . S
O382 Sm361 2.386 . S
O382 C369 1.271 . S
O383 Sm360 2.464 . S
O383 C369 1.251 . S
O384 Sm360 2.396 . S
O384 C370 1.252 . S
O385 Sm361 2.408 . S
O385 C370 1.272 . S
O386 Sm361 2.543 . S
O386 C371 1.261 . S
O387 Sm361 2.450 . S
O387 C371 1.242 . S
O388 Sm360 2.386 . S
O388 Sm361 2.681 . S
O388 C378 1.271 . S
O389 Sm361 2.464 . S
O389 C378 1.251 . S
O390 Sm361 2.396 . S
O390 C379 1.252 . S
O391 Sm360 2.408 . S
O391 C379 1.272 . S
H392 C364 0.930 . S
H393 C365 0.929 . S
H394 C367 0.930 . S
H395 C368 0.929 . S
H396 C373 0.930 . S
H397 C374 0.929 . S
H398 C376 0.930 . S
H399 C377 0.929 . S
Sm400 C402 2.846 . S
Sm400 O420 2.543 . S
Sm400 O421 2.450 . S
Sm400 O422 2.681 . S
Sm400 O423 2.464 . S
Sm400 O424 2.396 . S
Sm400 O428 2.386 . S
Sm400 O431 2.408 . S
Sm401 C411 2.846 . S
Sm401 O422 2.386 . S
Sm401 O425 2.408 . S
Sm401 O426 2.543 . S
Sm401 O427 2.450 . S
Sm401 O428 2.681 . S
Sm401 O429 2.464 . S
Sm401 O430 2.396 . S
C402 Sm400 2.846 . S
C402 C403 1.506 . S
C402 O420 1.261 . S
C402 O421 1.242 . S
C403 C402 1.506 . S
C403 C404 1.358 . S
C403 C408 1.382 . S
C404 C403 1.358 . S
C404 C405 1.385 . S
C404 H432 0.930 . S
C405 C404 1.385 . S
C405 C406 1.395 . S
C405 H433 0.929 . S
C406 C405 1.395 . S
C406 C407 1.335 . S
C407 C406 1.335 . S
C407 C408 1.398 . S
C407 H434 0.930 . S
C408 C403 1.382 . S
C408 C407 1.398 . S
C408 H435 0.929 . S
C409 O422 1.271 . S
C409 O423 1.251 . S
C410 O424 1.252 . S
C410 O425 1.272 . S
C411 Sm401 2.846 . S
C411 C412 1.506 1_455 S
C411 O426 1.261 . S
C411 O427 1.242 . S
C412 C411 1.506 1_655 S
C412 C413 1.358 . S
C412 C417 1.382 . S
C413 C412 1.358 . S
C413 C414 1.385 . S
C413 H436 0.930 . S
C414 C413 1.385 . S
C414 C415 1.395 . S
C414 H437 0.929 . S
C415 C414 1.395 . S
C415 C416 1.335 . S
C416 C415 1.335 . S
C416 C417 1.398 . S
C416 H438 0.930 . S
C417 C412 1.382 . S
C417 C416 1.398 . S
C417 H439 0.929 . S
C418 O428 1.271 . S
C418 O429 1.251 . S
C419 O430 1.252 . S
C419 O431 1.272 . S
O420 Sm400 2.543 . S
O420 C402 1.261 . S
O421 Sm400 2.450 . S
O421 C402 1.242 . S
O422 Sm400 2.681 . S
O422 Sm401 2.386 . S
O422 C409 1.271 . S
O423 Sm400 2.464 . S
O423 C409 1.251 . S
O424 Sm400 2.396 . S
O424 C410 1.252 . S
O425 Sm401 2.408 . S
O425 C410 1.272 . S
O426 Sm401 2.543 . S
O426 C411 1.261 . S
O427 Sm401 2.450 . S
O427 C411 1.242 . S
O428 Sm400 2.386 . S
O428 Sm401 2.681 . S
O428 C418 1.271 . S
O429 Sm401 2.464 . S
O429 C418 1.251 . S
O430 Sm401 2.396 . S
O430 C419 1.252 . S
O431 Sm400 2.408 . S
O431 C419 1.272 . S
H432 C404 0.930 . S
H433 C405 0.929 . S
H434 C407 0.930 . S
H435 C408 0.929 . S
H436 C413 0.930 . S
H437 C414 0.929 . S
H438 C416 0.930 . S
H439 C417 0.929 . S
Sm440 C442 2.846 . S
Sm440 O460 2.543 . S
Sm440 O461 2.450 . S
Sm440 O462 2.681 . S
Sm440 O463 2.464 . S
Sm440 O464 2.396 . S
Sm440 O468 2.386 . S
Sm440 O471 2.408 . S
Sm441 C451 2.846 . S
Sm441 O462 2.386 . S
Sm441 O465 2.408 . S
Sm441 O466 2.543 . S
Sm441 O467 2.450 . S
Sm441 O468 2.681 . S
Sm441 O469 2.464 . S
Sm441 O470 2.396 . S
C442 Sm440 2.846 . S
C442 C443 1.506 . S
C442 O460 1.261 . S
C442 O461 1.242 . S
C443 C442 1.506 . S
C443 C444 1.358 . S
C443 C448 1.382 . S
C444 C443 1.358 . S
C444 C445 1.385 . S
C444 H472 0.930 . S
C445 C444 1.385 . S
C445 C446 1.395 . S
C445 H473 0.929 . S
C446 C445 1.395 . S
C446 C447 1.335 . S
C447 C446 1.335 . S
C447 C448 1.398 . S
C447 H474 0.930 . S
C448 C443 1.382 . S
C448 C447 1.398 . S
C448 H475 0.929 . S
C449 O462 1.271 . S
C449 O463 1.251 . S
C450 O464 1.252 . S
C450 O465 1.272 . S
C451 Sm441 2.846 . S
C451 C452 1.506 1_545 S
C451 O466 1.261 . S
C451 O467 1.242 . S
C452 C451 1.506 1_565 S
C452 C453 1.358 . S
C452 C457 1.382 . S
C453 C452 1.358 . S
C453 C454 1.385 . S
C453 H476 0.930 . S
C454 C453 1.385 . S
C454 C455 1.395 . S
C454 H477 0.929 . S
C455 C454 1.395 . S
C455 C456 1.335 . S
C456 C455 1.335 . S
C456 C457 1.398 . S
C456 H478 0.930 . S
C457 C452 1.382 . S
C457 C456 1.398 . S
C457 H479 0.929 . S
C458 O468 1.271 . S
C458 O469 1.251 . S
C459 O470 1.252 . S
C459 O471 1.272 . S
O460 Sm440 2.543 . S
O460 C442 1.261 . S
O461 Sm440 2.450 . S
O461 C442 1.242 . S
O462 Sm440 2.681 . S
O462 Sm441 2.386 . S
O462 C449 1.271 . S
O463 Sm440 2.464 . S
O463 C449 1.251 . S
O464 Sm440 2.396 . S
O464 C450 1.252 . S
O465 Sm441 2.408 . S
O465 C450 1.272 . S
O466 Sm441 2.543 . S
O466 C451 1.261 . S
O467 Sm441 2.450 . S
O467 C451 1.242 . S
O468 Sm440 2.386 . S
O468 Sm441 2.681 . S
O468 C458 1.271 . S
O469 Sm441 2.464 . S
O469 C458 1.251 . S
O470 Sm441 2.396 . S
O470 C459 1.252 . S
O471 Sm440 2.408 . S
O471 C459 1.272 . S
H472 C444 0.930 . S
H473 C445 0.929 . S
H474 C447 0.930 . S
H475 C448 0.929 . S
H476 C453 0.930 . S
H477 C454 0.929 . S
H478 C456 0.930 . S
H479 C457 0.929 . S
C480 C481 1.369 . S
C480 C482 1.419 1_565 S
C480 H484 0.930 . S
C481 C480 1.369 . S
C481 C490 1.429 . S
C482 C480 1.419 1_545 S
C482 C483 1.363 . S
C482 H485 0.929 . S
C483 C482 1.363 . S
C483 C489 1.428 1_545 S
H484 C480 0.930 . S
H485 C482 0.929 . S
S486 N487 1.613 . S
S486 N488 1.610 . S
N487 S486 1.613 . S
N487 C490 1.350 . S
N488 S486 1.610 . S
N488 C489 1.351 . S
C489 C483 1.428 1_565 S
C489 N488 1.351 . S
C489 C490 1.434 . S
C490 C481 1.429 . S
C490 N487 1.350 . S
C490 C489 1.434 . S
C491 C492 1.369 . S
C491 C493 1.419 . S
C491 H495 0.930 . S
C492 C491 1.369 . S
C492 C501 1.429 . S
C493 C491 1.419 . S
C493 C494 1.363 . S
C493 H496 0.929 . S
C494 C493 1.363 . S
C494 C500 1.428 . S
H495 C491 0.930 . S
H496 C493 0.929 . S
S497 N498 1.613 . S
S497 N499 1.610 . S
N498 S497 1.613 . S
N498 C501 1.350 . S
N499 S497 1.610 . S
N499 C500 1.351 . S
C500 C494 1.428 . S
C500 N499 1.351 . S
C500 C501 1.434 . S
C501 C492 1.429 . S
C501 N498 1.350 . S
C501 C500 1.434 . S
C502 C503 1.369 1_455 S
C502 C504 1.419 . S
C502 H506 0.930 . S
C503 C502 1.369 1_655 S
C503 C512 1.429 . S
C504 C502 1.419 . S
C504 C505 1.363 . S
C504 H507 0.929 . S
C505 C504 1.363 . S
C505 C511 1.428 . S
H506 C502 0.930 . S
H507 C504 0.929 . S
S508 N509 1.613 . S
S508 N510 1.610 1_655 S
N509 S508 1.613 . S
N509 C512 1.350 . S
N510 S508 1.610 1_455 S
N510 C511 1.351 . S
C511 C505 1.428 . S
C511 N510 1.351 . S
C511 C512 1.434 1_455 S
C512 C503 1.429 . S
C512 N509 1.350 . S
C512 C511 1.434 1_655 S
C513 C514 1.369 . S
C513 C515 1.419 1_565 S
C513 H517 0.930 . S
C514 C513 1.369 . S
C514 C523 1.429 1_565 S
C515 C513 1.419 1_545 S
C515 C516 1.363 . S
C515 H518 0.929 . S
C516 C515 1.363 . S
C516 C522 1.428 . S
H517 C513 0.930 . S
H518 C515 0.929 . S
S519 N520 1.613 . S
S519 N521 1.610 . S
N520 S519 1.613 . S
N520 C523 1.350 . S
N521 S519 1.610 . S
N521 C522 1.351 . S
C522 C516 1.428 . S
C522 N521 1.351 . S
C522 C523 1.434 . S
C523 C514 1.429 1_545 S
C523 N520 1.350 . S
C523 C522 1.434 . S
C524 C525 1.369 . S
C524 C526 1.419 . S
C524 H528 0.930 . S
C525 C524 1.369 . S
C525 C534 1.429 . S
C526 C524 1.419 . S
C526 C527 1.363 . S
C526 H529 0.929 . S
C527 C526 1.363 . S
C527 C533 1.428 . S
H528 C524 0.930 . S
H529 C526 0.929 . S
S530 N531 1.613 . S
S530 N532 1.610 . S
N531 S530 1.613 . S
N531 C534 1.350 . S
N532 S530 1.610 . S
N532 C533 1.351 . S
C533 C527 1.428 . S
C533 N532 1.351 . S
C533 C534 1.434 . S
C534 C525 1.429 . S
C534 N531 1.350 . S
C534 C533 1.434 . S
C535 C536 1.369 . S
C535 C537 1.419 . S
C535 H539 0.930 . S
C536 C535 1.369 . S
C536 C545 1.429 . S
C537 C535 1.419 . S
C537 C538 1.363 1_655 S
C537 H540 0.929 . S
C538 C537 1.363 1_455 S
C538 C544 1.428 . S
H539 C535 0.930 . S
H540 C537 0.929 . S
S541 N542 1.613 1_455 S
S541 N543 1.610 . S
N542 S541 1.613 1_655 S
N542 C545 1.350 . S
N543 S541 1.610 . S
N543 C544 1.351 . S
C544 C538 1.428 . S
C544 N543 1.351 . S
C544 C545 1.434 1_455 S
C545 C536 1.429 . S
C545 N542 1.350 . S
C545 C544 1.434 1_655 S
C546 C547 1.369 . S
C546 C548 1.419 1_455 S
C546 H550 0.930 . S
C547 C546 1.369 . S
C547 C556 1.429 . S
C548 C546 1.419 1_655 S
C548 C549 1.363 . S
C548 H551 0.929 . S
C549 C548 1.363 . S
C549 C555 1.428 1_655 S
H550 C546 0.930 . S
H551 C548 0.929 . S
S552 N553 1.613 . S
S552 N554 1.610 . S
N553 S552 1.613 . S
N553 C556 1.350 . S
N554 S552 1.610 . S
N554 C555 1.351 . S
C555 C549 1.428 1_455 S
C555 N554 1.351 . S
C555 C556 1.434 . S
C556 C547 1.429 . S
C556 N553 1.350 . S
C556 C555 1.434 . S
C557 C558 1.369 . S
C557 C559 1.419 1_565 S
C557 H561 0.930 . S
C558 C557 1.369 . S
C558 C567 1.429 1_565 S
C559 C557 1.419 1_545 S
C559 C560 1.363 . S
C559 H562 0.929 . S
C560 C559 1.363 . S
C560 C566 1.428 . S
H561 C557 0.930 . S
H562 C559 0.929 . S
S563 N564 1.613 . S
S563 N565 1.610 . S
N564 S563 1.613 . S
N564 C567 1.350 . S
N565 S563 1.610 . S
N565 C566 1.351 . S
C566 C560 1.428 . S
C566 N565 1.351 . S
C566 C567 1.434 . S
C567 C558 1.429 1_545 S
C567 N564 1.350 . S
C567 C566 1.434 . S
C568 C569 1.369 . S
C568 C570 1.419 . S
C568 H572 0.930 . S
C569 C568 1.369 . S
C569 C578 1.429 . S
C570 C568 1.419 . S
C570 C571 1.363 . S
C570 H573 0.929 . S
C571 C570 1.363 . S
C571 C577 1.428 . S
H572 C568 0.930 . S
H573 C570 0.929 . S
S574 N575 1.613 . S
S574 N576 1.610 . S
N575 S574 1.613 . S
N575 C578 1.350 . S
N576 S574 1.610 . S
N576 C577 1.351 . S
C577 C571 1.428 . S
C577 N576 1.351 . S
C577 C578 1.434 . S
C578 C569 1.429 . S
C578 N575 1.350 . S
C578 C577 1.434 . S
C579 C580 1.369 . S
C579 C581 1.419 1_455 S
C579 H583 0.930 . S
C580 C579 1.369 . S
C580 C589 1.429 1_455 S
C581 C579 1.419 1_655 S
C581 C582 1.363 . S
C581 H584 0.929 . S
C582 C581 1.363 . S
C582 C588 1.428 . S
H583 C579 0.930 . S
H584 C581 0.929 . S
S585 N586 1.613 1_655 S
S585 N587 1.610 . S
N586 S585 1.613 1_455 S
N586 C589 1.350 1_455 S
N587 S585 1.610 . S
N587 C588 1.351 . S
C588 C582 1.428 . S
C588 N587 1.351 . S
C588 C589 1.434 . S
C589 C580 1.429 1_655 S
C589 N586 1.350 1_655 S
C589 C588 1.434 . S
C590 C591 1.369 1_565 S
C590 C592 1.419 . S
C590 H594 0.930 . S
C591 C590 1.369 1_545 S
C591 C600 1.429 . S
C592 C590 1.419 . S
C592 C593 1.363 . S
C592 H595 0.929 . S
C593 C592 1.363 . S
C593 C599 1.428 . S
H594 C590 0.930 . S
H595 C592 0.929 . S
S596 N597 1.613 . S
S596 N598 1.610 1_545 S
N597 S596 1.613 . S
N597 C600 1.350 . S
N598 S596 1.610 1_565 S
N598 C599 1.351 . S
C599 C593 1.428 . S
C599 N598 1.351 . S
C599 C600 1.434 1_565 S
C600 C591 1.429 . S
C600 N597 1.350 . S
C600 C599 1.434 1_545 S
C601 C602 1.369 . S
C601 C603 1.419 . S
C601 H605 0.930 . S
C602 C601 1.369 . S
C602 C611 1.429 . S
C603 C601 1.419 . S
C603 C604 1.363 . S
C603 H606 0.929 . S
C604 C603 1.363 . S
C604 C610 1.428 . S
H605 C601 0.930 . S
H606 C603 0.929 . S
S607 N608 1.613 . S
S607 N609 1.610 . S
N608 S607 1.613 . S
N608 C611 1.350 . S
N609 S607 1.610 . S
N609 C610 1.351 . S
C610 C604 1.428 . S
C610 N609 1.351 . S
C610 C611 1.434 . S
C611 C602 1.429 . S
C611 N608 1.350 . S
C611 C610 1.434 . S
C612 C613 1.369 . S
C612 C614 1.419 . S
C612 H616 0.930 . S
C613 C612 1.369 . S
C613 C622 1.429 . S
C614 C612 1.419 . S
C614 C615 1.363 . S
C614 H617 0.929 . S
C615 C614 1.363 . S
C615 C621 1.428 . S
H616 C612 0.930 . S
H617 C614 0.929 . S
S618 N619 1.613 . S
S618 N620 1.610 . S
N619 S618 1.613 . S
N619 C622 1.350 . S
N620 S618 1.610 . S
N620 C621 1.351 . S
C621 C615 1.428 . S
C621 N620 1.351 . S
C621 C622 1.434 . S
C622 C613 1.429 . S
C622 N619 1.350 . S
C622 C621 1.434 . S
C623 C624 1.369 . S
C623 C625 1.419 . S
C623 H627 0.930 . S
C624 C623 1.369 . S
C624 C633 1.429 . S
C625 C623 1.419 . S
C625 C626 1.363 . S
C625 H628 0.929 . S
C626 C625 1.363 . S
C626 C632 1.428 . S
H627 C623 0.930 . S
H628 C625 0.929 . S
S629 N630 1.613 . S
S629 N631 1.610 . S
N630 S629 1.613 . S
N630 C633 1.350 . S
N631 S629 1.610 . S
N631 C632 1.351 . S
C632 C626 1.428 . S
C632 N631 1.351 . S
C632 C633 1.434 . S
C633 C624 1.429 . S
C633 N630 1.350 . S
C633 C632 1.434 . S
C634 C635 1.369 . S
C634 C636 1.419 . S
C634 H638 0.930 . S
C635 C634 1.369 . S
C635 C644 1.429 . S
C636 C634 1.419 . S
C636 C637 1.363 . S
C636 H639 0.929 . S
C637 C636 1.363 . S
C637 C643 1.428 . S
H638 C634 0.930 . S
H639 C636 0.929 . S
S640 N641 1.613 . S
S640 N642 1.610 . S
N641 S640 1.613 . S
N641 C644 1.350 . S
N642 S640 1.610 . S
N642 C643 1.351 . S
C643 C637 1.428 . S
C643 N642 1.351 . S
C643 C644 1.434 . S
C644 C635 1.429 . S
C644 N641 1.350 . S
C644 C643 1.434 . S
C645 C646 1.369 . S
C645 C647 1.419 . S
C645 H649 0.930 . S
C646 C645 1.369 . S
C646 C655 1.429 . S
C647 C645 1.419 . S
C647 C648 1.363 . S
C647 H650 0.929 . S
C648 C647 1.363 . S
C648 C654 1.428 . S
H649 C645 0.930 . S
H650 C647 0.929 . S
S651 N652 1.613 . S
S651 N653 1.610 . S
N652 S651 1.613 . S
N652 C655 1.350 . S
N653 S651 1.610 . S
N653 C654 1.351 . S
C654 C648 1.428 . S
C654 N653 1.351 . S
C654 C655 1.434 . S
C655 C646 1.429 . S
C655 N652 1.350 . S
C655 C654 1.434 . S
C656 C657 1.369 . S
C656 C658 1.419 . S
C656 H660 0.930 . S
C657 C656 1.369 . S
C657 C666 1.429 . S
C658 C656 1.419 . S
C658 C659 1.363 . S
C658 H661 0.929 . S
C659 C658 1.363 . S
C659 C665 1.428 . S
H660 C656 0.930 . S
H661 C658 0.929 . S
S662 N663 1.613 . S
S662 N664 1.610 . S
N663 S662 1.613 . S
N663 C666 1.350 . S
N664 S662 1.610 . S
N664 C665 1.351 . S
C665 C659 1.428 . S
C665 N664 1.351 . S
C665 C666 1.434 . S
C666 C657 1.429 . S
C666 N663 1.350 . S
C666 C665 1.434 . S
C667 C668 1.369 . S
C667 C669 1.419 . S
C667 H671 0.930 . S
C668 C667 1.369 . S
C668 C677 1.429 . S
C669 C667 1.419 . S
C669 C670 1.363 . S
C669 H672 0.929 . S
C670 C669 1.363 . S
C670 C676 1.428 . S
H671 C667 0.930 . S
H672 C669 0.929 . S
S673 N674 1.613 . S
S673 N675 1.610 . S
N674 S673 1.613 . S
N674 C677 1.350 . S
N675 S673 1.610 . S
N675 C676 1.351 . S
C676 C670 1.428 . S
C676 N675 1.351 . S
C676 C677 1.434 . S
C677 C668 1.429 . S
C677 N674 1.350 . S
C677 C676 1.434 . S
C678 C679 1.369 . S
C678 C680 1.419 . S
C678 H682 0.930 . S
C679 C678 1.369 . S
C679 C688 1.429 . S
C680 C678 1.419 . S
C680 C681 1.363 . S
C680 H683 0.929 . S
C681 C680 1.363 . S
C681 C687 1.428 . S
H682 C678 0.930 . S
H683 C680 0.929 . S
S684 N685 1.613 . S
S684 N686 1.610 . S
N685 S684 1.613 . S
N685 C688 1.350 . S
N686 S684 1.610 . S
N686 C687 1.351 . S
C687 C681 1.428 . S
C687 N686 1.351 . S
C687 C688 1.434 . S
C688 C679 1.429 . S
C688 N685 1.350 . S
C688 C687 1.434 . S
C689 C690 1.369 . S
C689 C691 1.419 . S
C689 H693 0.930 . S
C690 C689 1.369 . S
C690 C699 1.429 . S
C691 C689 1.419 . S
C691 C692 1.363 . S
C691 H694 0.929 . S
C692 C691 1.363 . S
C692 C698 1.428 . S
H693 C689 0.930 . S
H694 C691 0.929 . S
S695 N696 1.613 . S
S695 N697 1.610 . S
N696 S695 1.613 . S
N696 C699 1.350 . S
N697 S695 1.610 . S
N697 C698 1.351 . S
C698 C692 1.428 . S
C698 N697 1.351 . S
C698 C699 1.434 . S
C699 C690 1.429 . S
C699 N696 1.350 . S
C699 C698 1.434 . S
C700 C701 1.369 . S
C700 C702 1.419 . S
C700 H704 0.930 . S
C701 C700 1.369 . S
C701 C710 1.429 . S
C702 C700 1.419 . S
C702 C703 1.363 . S
C702 H705 0.929 . S
C703 C702 1.363 . S
C703 C709 1.428 . S
H704 C700 0.930 . S
H705 C702 0.929 . S
S706 N707 1.613 . S
S706 N708 1.610 . S
N707 S706 1.613 . S
N707 C710 1.350 . S
N708 S706 1.610 . S
N708 C709 1.351 . S
C709 C703 1.428 . S
C709 N708 1.351 . S
C709 C710 1.434 . S
C710 C701 1.429 . S
C710 N707 1.350 . S
C710 C709 1.434 . S
C711 C712 1.369 . S
C711 C713 1.419 . S
C711 H715 0.930 . S
C712 C711 1.369 . S
C712 C721 1.429 . S
C713 C711 1.419 . S
C713 C714 1.363 . S
C713 H716 0.929 . S
C714 C713 1.363 . S
C714 C720 1.428 . S
H715 C711 0.930 . S
H716 C713 0.929 . S
S717 N718 1.613 . S
S717 N719 1.610 . S
N718 S717 1.613 . S
N718 C721 1.350 . S
N719 S717 1.610 . S
N719 C720 1.351 . S
C720 C714 1.428 . S
C720 N719 1.351 . S
C720 C721 1.434 . S
C721 C712 1.429 . S
C721 N718 1.350 . S
C721 C720 1.434 . S
C722 C723 1.369 . S
C722 C724 1.419 . S
C722 H726 0.930 . S
C723 C722 1.369 . S
C723 C732 1.429 . S
C724 C722 1.419 . S
C724 C725 1.363 . S
C724 H727 0.929 . S
C725 C724 1.363 . S
C725 C731 1.428 . S
H726 C722 0.930 . S
H727 C724 0.929 . S
S728 N729 1.613 . S
S728 N730 1.610 . S
N729 S728 1.613 . S
N729 C732 1.350 . S
N730 S728 1.610 . S
N730 C731 1.351 . S
C731 C725 1.428 . S
C731 N730 1.351 . S
C731 C732 1.434 . S
C732 C723 1.429 . S
C732 N729 1.350 . S
C732 C731 1.434 . S
C733 C734 1.369 . S
C733 C735 1.419 . S
C733 H737 0.930 . S
C734 C733 1.369 . S
C734 C743 1.429 . S
C735 C733 1.419 . S
C735 C736 1.363 . S
C735 H738 0.929 . S
C736 C735 1.363 . S
C736 C742 1.428 . S
H737 C733 0.930 . S
H738 C735 0.929 . S
S739 N740 1.613 . S
S739 N741 1.610 . S
N740 S739 1.613 . S
N740 C743 1.350 . S
N741 S739 1.610 . S
N741 C742 1.351 . S
C742 C736 1.428 . S
C742 N741 1.351 . S
C742 C743 1.434 . S
C743 C734 1.429 . S
C743 N740 1.350 . S
C743 C742 1.434 . S
C744 C745 1.369 . S
C744 C746 1.419 . S
C744 H748 0.930 . S
C745 C744 1.369 . S
C745 C754 1.429 . S
C746 C744 1.419 . S
C746 C747 1.363 . S
C746 H749 0.929 . S
C747 C746 1.363 . S
C747 C753 1.428 . S
H748 C744 0.930 . S
H749 C746 0.929 . S
S750 N751 1.613 . S
S750 N752 1.610 . S
N751 S750 1.613 . S
N751 C754 1.350 . S
N752 S750 1.610 . S
N752 C753 1.351 . S
C753 C747 1.428 . S
C753 N752 1.351 . S
C753 C754 1.434 . S
C754 C745 1.429 . S
C754 N751 1.350 . S
C754 C753 1.434 . S
C755 C756 1.369 . S
C755 C757 1.419 . S
C755 H759 0.930 . S
C756 C755 1.369 . S
C756 C765 1.429 . S
C757 C755 1.419 . S
C757 C758 1.363 . S
C757 H760 0.929 . S
C758 C757 1.363 . S
C758 C764 1.428 . S
H759 C755 0.930 . S
H760 C757 0.929 . S
S761 N762 1.613 . S
S761 N763 1.610 . S
N762 S761 1.613 . S
N762 C765 1.350 . S
N763 S761 1.610 . S
N763 C764 1.351 . S
C764 C758 1.428 . S
C764 N763 1.351 . S
C764 C765 1.434 . S
C765 C756 1.429 . S
C765 N762 1.350 . S
C765 C764 1.434 . S
C766 C767 1.369 . S
C766 C768 1.419 . S
C766 H770 0.930 . S
C767 C766 1.369 . S
C767 C776 1.429 . S
C768 C766 1.419 . S
C768 C769 1.363 . S
C768 H771 0.929 . S
C769 C768 1.363 . S
C769 C775 1.428 . S
H770 C766 0.930 . S
H771 C768 0.929 . S
S772 N773 1.613 . S
S772 N774 1.610 . S
N773 S772 1.613 . S
N773 C776 1.350 . S
N774 S772 1.610 . S
N774 C775 1.351 . S
C775 C769 1.428 . S
C775 N774 1.351 . S
C775 C776 1.434 . S
C776 C767 1.429 . S
C776 N773 1.350 . S
C776 C775 1.434 . S
C777 C778 1.369 . S
C777 C779 1.419 . S
C777 H781 0.930 . S
C778 C777 1.369 . S
C778 C787 1.429 . S
C779 C777 1.419 . S
C779 C780 1.363 . S
C779 H782 0.929 . S
C780 C779 1.363 . S
C780 C786 1.428 . S
H781 C777 0.930 . S
H782 C779 0.929 . S
S783 N784 1.613 . S
S783 N785 1.610 . S
N784 S783 1.613 . S
N784 C787 1.350 . S
N785 S783 1.610 . S
N785 C786 1.351 . S
C786 C780 1.428 . S
C786 N785 1.351 . S
C786 C787 1.434 . S
C787 C778 1.429 . S
C787 N784 1.350 . S
C787 C786 1.434 . S
C788 C789 1.369 . S
C788 C790 1.419 . S
C788 H792 0.930 . S
C789 C788 1.369 . S
C789 C798 1.429 . S
C790 C788 1.419 . S
C790 C791 1.363 . S
C790 H793 0.929 . S
C791 C790 1.363 . S
C791 C797 1.428 . S
H792 C788 0.930 . S
H793 C790 0.929 . S
S794 N795 1.613 . S
S794 N796 1.610 . S
N795 S794 1.613 . S
N795 C798 1.350 . S
N796 S794 1.610 . S
N796 C797 1.351 . S
C797 C791 1.428 . S
C797 N796 1.351 . S
C797 C798 1.434 . S
C798 C789 1.429 . S
C798 N795 1.350 . S
C798 C797 1.434 . S
C799 C800 1.369 . S
C799 C801 1.419 . S
C799 H803 0.930 . S
C800 C799 1.369 . S
C800 C809 1.429 . S
C801 C799 1.419 . S
C801 C802 1.363 . S
C801 H804 0.929 . S
C802 C801 1.363 . S
C802 C808 1.428 . S
H803 C799 0.930 . S
H804 C801 0.929 . S
S805 N806 1.613 . S
S805 N807 1.610 . S
N806 S805 1.613 . S
N806 C809 1.350 . S
N807 S805 1.610 . S
N807 C808 1.351 . S
C808 C802 1.428 . S
C808 N807 1.351 . S
C808 C809 1.434 . S
C809 C800 1.429 . S
C809 N806 1.350 . S
C809 C808 1.434 . S
C810 C811 1.369 1_554 S
C810 C812 1.419 . S
C810 H814 0.930 . S
C811 C810 1.369 1_556 S
C811 C820 1.429 . S
C812 C810 1.419 . S
C812 C813 1.363 . S
C812 H815 0.929 . S
C813 C812 1.363 . S
C813 C819 1.428 1_554 S
H814 C810 0.930 . S
H815 C812 0.929 . S
S816 N817 1.613 . S
S816 N818 1.610 . S
N817 S816 1.613 . S
N817 C820 1.350 . S
N818 S816 1.610 . S
N818 C819 1.351 . S
C819 C813 1.428 1_556 S
C819 N818 1.351 . S
C819 C820 1.434 . S
C820 C811 1.429 . S
C820 N817 1.350 . S
C820 C819 1.434 . S
C821 C822 1.369 . S
C821 C823 1.419 1_455 S
C821 H825 0.930 . S
C822 C821 1.369 . S
C822 C831 1.429 . S
C823 C821 1.419 1_655 S
C823 C824 1.363 . S
C823 H826 0.929 . S
C824 C823 1.363 . S
C824 C830 1.428 . S
H825 C821 0.930 . S
H826 C823 0.929 . S
S827 N828 1.613 1_655 S
S827 N829 1.610 . S
N828 S827 1.613 1_455 S
N828 C831 1.350 . S
N829 S827 1.610 . S
N829 C830 1.351 . S
C830 C824 1.428 . S
C830 N829 1.351 . S
C830 C831 1.434 1_655 S
C831 C822 1.429 . S
C831 N828 1.350 . S
C831 C830 1.434 1_455 S
C832 C833 1.369 . S
C832 C834 1.419 1_565 S
C832 H836 0.930 . S
C833 C832 1.369 . S
C833 C842 1.429 1_554 S
C834 C832 1.419 1_545 S
C834 C835 1.363 1_554 S
C834 H837 0.929 . S
C835 C834 1.363 1_556 S
C835 C841 1.428 . S
H836 C832 0.930 . S
H837 C834 0.929 . S
S838 N839 1.613 . S
S838 N840 1.610 1_565 S
N839 S838 1.613 . S
N839 C842 1.350 . S
N840 S838 1.610 1_545 S
N840 C841 1.351 . S
C841 C835 1.428 . S
C841 N840 1.351 . S
C841 C842 1.434 1_545 S
C842 C833 1.429 1_556 S
C842 N839 1.350 . S
C842 C841 1.434 1_565 S
C843 C844 1.369 . S
C843 C845 1.419 . S
C843 H847 0.930 . S
C844 C843 1.369 . S
C844 C853 1.429 . S
C845 C843 1.419 . S
C845 C846 1.363 . S
C845 H848 0.929 . S
C846 C845 1.363 . S
C846 C852 1.428 . S
H847 C843 0.930 . S
H848 C845 0.929 . S
S849 N850 1.613 . S
S849 N851 1.610 . S
N850 S849 1.613 . S
N850 C853 1.350 . S
N851 S849 1.610 . S
N851 C852 1.351 . S
C852 C846 1.428 . S
C852 N851 1.351 . S
C852 C853 1.434 . S
C853 C844 1.429 . S
C853 N850 1.350 . S
C853 C852 1.434 . S
C854 C855 1.369 1_554 S
C854 C856 1.419 1_655 S
C854 H858 0.930 . S
C855 C854 1.369 1_556 S
C855 C864 1.429 . S
C856 C854 1.419 1_455 S
C856 C857 1.363 . S
C856 H859 0.929 . S
C857 C856 1.363 . S
C857 C863 1.428 1_554 S
H858 C854 0.930 . S
H859 C856 0.929 . S
S860 N861 1.613 1_455 S
S860 N862 1.610 . S
N861 S860 1.613 1_655 S
N861 C864 1.350 . S
N862 S860 1.610 . S
N862 C863 1.351 . S
C863 C857 1.428 1_556 S
C863 N862 1.351 . S
C863 C864 1.434 1_455 S
C864 C855 1.429 . S
C864 N861 1.350 . S
C864 C863 1.434 1_655 S
C865 C866 1.369 . S
C865 C867 1.419 1_565 S
C865 H869 0.930 . S
C866 C865 1.369 . S
C866 C875 1.429 . S
C867 C865 1.419 1_545 S
C867 C868 1.363 . S
C867 H870 0.929 . S
C868 C867 1.363 . S
C868 C874 1.428 . S
H869 C865 0.930 . S
H870 C867 0.929 . S
S871 N872 1.613 . S
S871 N873 1.610 1_565 S
N872 S871 1.613 . S
N872 C875 1.350 . S
N873 S871 1.610 1_545 S
N873 C874 1.351 . S
C874 C868 1.428 . S
C874 N873 1.351 . S
C874 C875 1.434 1_545 S
C875 C866 1.429 . S
C875 N872 1.350 . S
C875 C874 1.434 1_565 S
C481 C179 1.402 . S
C483 C15 1.474 . S
C492 C219 1.407 . S
C494 C55 1.469 . S
C503 C95 1.468 . S
C505 C19 1.406 . S
C514 C135 1.476 . S
C516 C59 1.399 . S
C525 C175 1.472 . S
C527 C99 1.404 . S
C536 C139 1.400 . S
C538 C215 1.472 . S
C547 C339 1.402 . S
C549 C255 1.474 . S
C558 C295 1.476 . S
C560 C379 1.400 . S
C569 C419 1.405 . S
C571 C335 1.470 . S
C580 C375 1.476 . S
C582 C459 1.397 . S
C591 C415 1.472 . S
C593 C259 1.400 . S
C602 C299 1.402 . S
C604 C455 1.471 . S
C613 C170 1.878 . S
C615 C6 1.854 . S
C624 C46 1.856 . S
C626 C210 1.873 . S
C635 C86 1.855 . S
C637 C10 1.877 . S
C646 C126 1.854 . S
C648 C50 1.877 . S
C657 C90 1.877 . S
C659 C166 1.854 . S
C668 C130 1.878 . S
C670 C206 1.856 . S
C679 C330 1.870 . S
C681 C246 1.861 . S
C690 C286 1.857 . S
C692 C370 1.873 . S
C701 C326 1.854 . S
C703 C410 1.875 . S
C712 C450 1.874 . S
C714 C366 1.855 . S
C723 C406 1.854 . S
C725 C250 1.875 . S
C734 C290 1.872 . S
C736 C446 1.857 . S
C745 C418 1.592 . S
C747 C18 1.599 . S
C756 C58 1.598 . S
C758 C458 1.590 . S
C767 C98 1.600 . S
C769 C258 1.590 . S
C778 C138 1.600 . S
C780 C298 1.591 . S
C789 C178 1.599 . S
C791 C338 1.590 . S
C800 C378 1.600 . S
C802 C218 1.591 . S
C811 C369 2.440 . S
C813 C9 2.444 . S
C822 C409 2.441 . S
C824 C49 2.444 . S
C833 C89 2.445 . S
C835 C449 2.440 . S
C844 C129 2.444 . S
C846 C249 2.440 . S
C855 C289 2.441 . S
C857 C169 2.444 . S
C866 C329 2.444 . S
C868 C209 2.441 . S
