# Generated by pormake.
# Topology smq, (6)-cn, num edge types: 1
# Building blocks:
#     Node 0, Type 0, BuildingBlock: IZENUY_clean_sbu_0, # of connection points: 6
#     Node 1, Type 0, BuildingBlock: IZENUY_clean_sbu_0, # of connection points: 6
#     Node 2, Type 0, BuildingBlock: IZENUY_clean_sbu_0, # of connection points: 6
#     Node 3, Type 0, BuildingBlock: IZENUY_clean_sbu_0, # of connection points: 6
#     Node 4, Type 0, BuildingBlock: IZENUY_clean_sbu_0, # of connection points: 6
#     Node 5, Type 0, BuildingBlock: IZENUY_clean_sbu_0, # of connection points: 6
#     Node 6, Type 0, BuildingBlock: IZENUY_clean_sbu_0, # of connection points: 6
#     Node 7, Type 0, BuildingBlock: IZENUY_clean_sbu_0, # of connection points: 6
#     Node 8, Type 0, BuildingBlock: IZENUY_clean_sbu_0, # of connection points: 6
#     Node 9, Type 0, BuildingBlock: IZENUY_clean_sbu_0, # of connection points: 6
#     Node 10, Type 0, BuildingBlock: IZENUY_clean_sbu_0, # of connection points: 6
#     Node 11, Type 0, BuildingBlock: IZENUY_clean_sbu_0, # of connection points: 6
#     Node 12, Type 0, BuildingBlock: IZENUY_clean_sbu_0, # of connection points: 6
#     Node 13, Type 0, BuildingBlock: IZENUY_clean_sbu_0, # of connection points: 6
#     Node 14, Type 0, BuildingBlock: IZENUY_clean_sbu_0, # of connection points: 6
#     Node 15, Type 0, BuildingBlock: IZENUY_clean_sbu_0, # of connection points: 6
#     Node 16, Type 0, BuildingBlock: IZENUY_clean_sbu_0, # of connection points: 6
#     Node 17, Type 0, BuildingBlock: IZENUY_clean_sbu_0, # of connection points: 6
#     Node 18, Type 0, BuildingBlock: IZENUY_clean_sbu_0, # of connection points: 6
#     Node 19, Type 0, BuildingBlock: IZENUY_clean_sbu_0, # of connection points: 6
#     Node 20, Type 0, BuildingBlock: IZENUY_clean_sbu_0, # of connection points: 6
#     Node 21, Type 0, BuildingBlock: IZENUY_clean_sbu_0, # of connection points: 6
#     Node 22, Type 0, BuildingBlock: IZENUY_clean_sbu_0, # of connection points: 6
#     Node 23, Type 0, BuildingBlock: IZENUY_clean_sbu_0, # of connection points: 6
#     Edge 24, Type (0, 0), BuildingBlock: EZIPEK_clean_linker_0, # of connection points: 2
#     Edge 25, Type (0, 0), BuildingBlock: EZIPEK_clean_linker_0, # of connection points: 2
#     Edge 26, Type (0, 0), BuildingBlock: EZIPEK_clean_linker_0, # of connection points: 2
#     Edge 27, Type (0, 0), BuildingBlock: EZIPEK_clean_linker_0, # of connection points: 2
#     Edge 28, Type (0, 0), BuildingBlock: EZIPEK_clean_linker_0, # of connection points: 2
#     Edge 29, Type (0, 0), BuildingBlock: EZIPEK_clean_linker_0, # of connection points: 2
#     Edge 30, Type (0, 0), BuildingBlock: EZIPEK_clean_linker_0, # of connection points: 2
#     Edge 31, Type (0, 0), BuildingBlock: EZIPEK_clean_linker_0, # of connection points: 2
#     Edge 32, Type (0, 0), BuildingBlock: EZIPEK_clean_linker_0, # of connection points: 2
#     Edge 33, Type (0, 0), BuildingBlock: EZIPEK_clean_linker_0, # of connection points: 2
#     Edge 34, Type (0, 0), BuildingBlock: EZIPEK_clean_linker_0, # of connection points: 2
#     Edge 35, Type (0, 0), BuildingBlock: EZIPEK_clean_linker_0, # of connection points: 2
#     Edge 36, Type (0, 0), BuildingBlock: EZIPEK_clean_linker_0, # of connection points: 2
#     Edge 37, Type (0, 0), BuildingBlock: EZIPEK_clean_linker_0, # of connection points: 2
#     Edge 38, Type (0, 0), BuildingBlock: EZIPEK_clean_linker_0, # of connection points: 2
#     Edge 39, Type (0, 0), BuildingBlock: EZIPEK_clean_linker_0, # of connection points: 2
#     Edge 40, Type (0, 0), BuildingBlock: EZIPEK_clean_linker_0, # of connection points: 2
#     Edge 41, Type (0, 0), BuildingBlock: EZIPEK_clean_linker_0, # of connection points: 2
#     Edge 42, Type (0, 0), BuildingBlock: EZIPEK_clean_linker_0, # of connection points: 2
#     Edge 43, Type (0, 0), BuildingBlock: EZIPEK_clean_linker_0, # of connection points: 2
#     Edge 44, Type (0, 0), BuildingBlock: EZIPEK_clean_linker_0, # of connection points: 2
#     Edge 45, Type (0, 0), BuildingBlock: EZIPEK_clean_linker_0, # of connection points: 2
#     Edge 46, Type (0, 0), BuildingBlock: EZIPEK_clean_linker_0, # of connection points: 2
#     Edge 47, Type (0, 0), BuildingBlock: EZIPEK_clean_linker_0, # of connection points: 2
#     Edge 48, Type (0, 0), BuildingBlock: EZIPEK_clean_linker_0, # of connection points: 2
#     Edge 49, Type (0, 0), BuildingBlock: EZIPEK_clean_linker_0, # of connection points: 2
#     Edge 50, Type (0, 0), BuildingBlock: EZIPEK_clean_linker_0, # of connection points: 2
#     Edge 51, Type (0, 0), BuildingBlock: EZIPEK_clean_linker_0, # of connection points: 2
#     Edge 52, Type (0, 0), BuildingBlock: EZIPEK_clean_linker_0, # of connection points: 2
#     Edge 53, Type (0, 0), BuildingBlock: EZIPEK_clean_linker_0, # of connection points: 2
#     Edge 54, Type (0, 0), BuildingBlock: EZIPEK_clean_linker_0, # of connection points: 2
#     Edge 55, Type (0, 0), BuildingBlock: EZIPEK_clean_linker_0, # of connection points: 2
#     Edge 56, Type (0, 0), BuildingBlock: EZIPEK_clean_linker_0, # of connection points: 2
#     Edge 57, Type (0, 0), BuildingBlock: EZIPEK_clean_linker_0, # of connection points: 2
#     Edge 58, Type (0, 0), BuildingBlock: EZIPEK_clean_linker_0, # of connection points: 2
#     Edge 59, Type (0, 0), BuildingBlock: EZIPEK_clean_linker_0, # of connection points: 2
#     Edge 60, Type (0, 0), BuildingBlock: EZIPEK_clean_linker_0, # of connection points: 2
#     Edge 61, Type (0, 0), BuildingBlock: EZIPEK_clean_linker_0, # of connection points: 2
#     Edge 62, Type (0, 0), BuildingBlock: EZIPEK_clean_linker_0, # of connection points: 2
#     Edge 63, Type (0, 0), BuildingBlock: EZIPEK_clean_linker_0, # of connection points: 2
#     Edge 64, Type (0, 0), BuildingBlock: EZIPEK_clean_linker_0, # of connection points: 2
#     Edge 65, Type (0, 0), BuildingBlock: EZIPEK_clean_linker_0, # of connection points: 2
#     Edge 66, Type (0, 0), BuildingBlock: EZIPEK_clean_linker_0, # of connection points: 2
#     Edge 67, Type (0, 0), BuildingBlock: EZIPEK_clean_linker_0, # of connection points: 2
#     Edge 68, Type (0, 0), BuildingBlock: EZIPEK_clean_linker_0, # of connection points: 2
#     Edge 69, Type (0, 0), BuildingBlock: EZIPEK_clean_linker_0, # of connection points: 2
#     Edge 70, Type (0, 0), BuildingBlock: EZIPEK_clean_linker_0, # of connection points: 2
#     Edge 71, Type (0, 0), BuildingBlock: EZIPEK_clean_linker_0, # of connection points: 2
#     Edge 72, Type (0, 0), BuildingBlock: EZIPEK_clean_linker_0, # of connection points: 2
#     Edge 73, Type (0, 0), BuildingBlock: EZIPEK_clean_linker_0, # of connection points: 2
#     Edge 74, Type (0, 0), BuildingBlock: EZIPEK_clean_linker_0, # of connection points: 2
#     Edge 75, Type (0, 0), BuildingBlock: EZIPEK_clean_linker_0, # of connection points: 2
#     Edge 76, Type (0, 0), BuildingBlock: EZIPEK_clean_linker_0, # of connection points: 2
#     Edge 77, Type (0, 0), BuildingBlock: EZIPEK_clean_linker_0, # of connection points: 2
#     Edge 78, Type (0, 0), BuildingBlock: EZIPEK_clean_linker_0, # of connection points: 2
#     Edge 79, Type (0, 0), BuildingBlock: EZIPEK_clean_linker_0, # of connection points: 2
#     Edge 80, Type (0, 0), BuildingBlock: EZIPEK_clean_linker_0, # of connection points: 2
#     Edge 81, Type (0, 0), BuildingBlock: EZIPEK_clean_linker_0, # of connection points: 2
#     Edge 82, Type (0, 0), BuildingBlock: EZIPEK_clean_linker_0, # of connection points: 2
#     Edge 83, Type (0, 0), BuildingBlock: EZIPEK_clean_linker_0, # of connection points: 2
#     Edge 84, Type (0, 0), BuildingBlock: EZIPEK_clean_linker_0, # of connection points: 2
#     Edge 85, Type (0, 0), BuildingBlock: EZIPEK_clean_linker_0, # of connection points: 2
#     Edge 86, Type (0, 0), BuildingBlock: EZIPEK_clean_linker_0, # of connection points: 2
#     Edge 87, Type (0, 0), BuildingBlock: EZIPEK_clean_linker_0, # of connection points: 2
#     Edge 88, Type (0, 0), BuildingBlock: EZIPEK_clean_linker_0, # of connection points: 2
#     Edge 89, Type (0, 0), BuildingBlock: EZIPEK_clean_linker_0, # of connection points: 2
#     Edge 90, Type (0, 0), BuildingBlock: EZIPEK_clean_linker_0, # of connection points: 2
#     Edge 91, Type (0, 0), BuildingBlock: EZIPEK_clean_linker_0, # of connection points: 2
#     Edge 92, Type (0, 0), BuildingBlock: EZIPEK_clean_linker_0, # of connection points: 2
#     Edge 93, Type (0, 0), BuildingBlock: EZIPEK_clean_linker_0, # of connection points: 2
#     Edge 94, Type (0, 0), BuildingBlock: EZIPEK_clean_linker_0, # of connection points: 2
#     Edge 95, Type (0, 0), BuildingBlock: EZIPEK_clean_linker_0, # of connection points: 2
# Relax obj value: 0.236
# Max RMSD: 0.214
# Mean RMSD: 0.213
data_MOF--net-smq--node1-IZENUY_clean_sbu_0--edge1-EZIPEK_clean_linker_0
_symmetry_space_group_name_H-M    P1
_symmetry_Int_Tables_number       1
_symmetry_cell_setting            triclinic
loop_
_symmetry_equiv_pos_as_xyz
'x, y, z'
_cell_length_a     33.678304
_cell_length_b     33.678941
_cell_length_c     33.647757
_cell_angle_alpha  90.213926
_cell_angle_beta   90.012232
_cell_angle_gamma 89.836698
loop_
_atom_site_label
_atom_site_type_symbol
_atom_site_fract_x
_atom_site_fract_y
_atom_site_fract_z
_atom_type_partial_charge
Fe0 Fe 0.00771 0.17042 0.31837 0.0
Fe1 Fe 0.01394 0.17 0.22801 0.0
O2 O 0.0088 0.19677 0.27277 0.0
Fe3 Fe 1.00444 0.24941 0.27177 0.0
O4 O 0.04948 0.25495 0.30206 0.0
O5 O 0.03364 0.20954 0.34614 0.0
O6 O 0.05666 0.14981 0.30986 0.0
C7 C 0.06765 0.13213 0.2789 0.0
C8 C 0.95197 0.22637 0.33507 0.0
O9 O 0.04516 0.13037 0.24888 0.0
C10 C 0.959 0.2309 0.20671 0.0
O11 O 0.9813 0.12624 0.29838 0.0
O12 O 0.96835 0.14428 0.23759 0.0
O13 O 0.97238 0.25246 0.31691 0.0
O14 O 0.95922 0.19005 0.33037 0.0
C15 C 0.05925 0.23208 0.20802 0.0
O16 O 0.98427 0.2044 0.19874 0.0
O17 O 0.95919 0.24762 0.24064 0.0
C18 C 0.95907 0.12483 0.26796 0.0
O19 O 0.05916 0.19551 0.21536 0.0
O20 O 0.03561 0.25541 0.22636 0.0
C21 C 0.05602 0.23752 0.33482 0.0
Fe22 Fe 0.33542 0.50775 0.81629 0.0
Fe23 Fe 0.33083 0.50445 0.72608 0.0
O24 O 0.3063 0.50635 0.77234 0.0
Fe25 Fe 0.25355 0.50795 0.77428 0.0
O26 O 0.25385 0.55482 0.80174 0.0
O27 O 0.30042 0.53896 0.84479 0.0
O28 O 0.35895 0.55381 0.80116 0.0
C29 C 0.37739 0.55856 0.76903 0.0
C30 C 0.27677 0.45618 0.83767 0.0
O31 O 0.37538 0.53191 0.74254 0.0
C32 C 0.2619 0.45691 0.71168 0.0
O33 O 0.37568 0.47567 0.79586 0.0
O34 O 0.35234 0.45703 0.73783 0.0
O35 O 0.25084 0.47797 0.82062 0.0
O36 O 0.3133 0.46276 0.83416 0.0
C37 C 0.27331 0.55574 0.70627 0.0
O38 O 0.29136 0.47692 0.70038 0.0
O39 O 0.24788 0.46156 0.74623 0.0
C40 C 0.37343 0.45022 0.76788 0.0
O41 O 0.30983 0.55158 0.71208 0.0
O42 O 0.24835 0.53727 0.72776 0.0
C43 C 0.27223 0.56136 0.83378 0.0
Fe44 Fe 1.00164 0.76746 0.27773 0.0
Fe45 Fe 1.00055 0.8484 0.32233 0.0
O46 O 1.00384 0.82019 0.27749 0.0
Fe47 Fe 0.00863 0.84616 0.23219 0.0
O48 O 0.96224 0.82653 0.21376 0.0
O49 O 0.97319 0.76411 0.23052 0.0
O50 O 0.95414 0.76781 0.30427 0.0
C51 C 0.94623 0.78588 0.33634 0.0
C52 C 0.05522 0.77714 0.21714 0.0
O53 O 0.968 0.81377 0.34863 0.0
C54 C 0.06118 0.88563 0.27937 0.0
O55 O 0.03091 0.76318 0.32449 0.0
O56 O 0.04419 0.82521 0.34201 0.0
O57 O 0.03672 0.80773 0.20651 0.0
O58 O 0.04838 0.76132 0.2504 0.0
C59 C 0.9525 0.89112 0.27281 0.0
O60 O 0.03371 0.8885 0.30501 0.0
O61 O 0.05569 0.86604 0.24797 0.0
C62 C 0.05113 0.78859 0.34415 0.0
O63 O 0.95563 0.87259 0.30503 0.0
O64 O 0.98123 0.89036 0.24892 0.0
C65 C 0.95626 0.78995 0.20868 0.0
Fe66 Fe 0.68002 0.50685 0.81497 0.0
Fe67 Fe 0.6893 0.50191 0.72443 0.0
O68 O 0.71115 0.50462 0.77218 0.0
Fe69 Fe 0.76381 0.50532 0.77714 0.0
O70 O 0.76315 0.45989 0.80687 0.0
O71 O 0.71406 0.47831 0.84622 0.0
O72 O 0.65649 0.45992 0.80318 0.0
C73 C 0.64135 0.45009 0.77056 0.0
C74 C 0.73741 0.55963 0.83725 0.0
O75 O 0.64687 0.47192 0.74043 0.0
C76 C 0.75404 0.55419 0.7126 0.0
O77 O 0.64019 0.5362 0.79143 0.0
O78 O 0.66352 0.54866 0.73212 0.0
O79 O 0.76403 0.5373 0.82229 0.0
O80 O 0.7013 0.55346 0.83046 0.0
C81 C 0.75146 0.45212 0.71124 0.0
O82 O 0.72776 0.53086 0.69957 0.0
O83 O 0.76798 0.55058 0.74737 0.0
C84 C 0.64247 0.55864 0.76145 0.0
O85 O 0.71423 0.45565 0.71278 0.0
O86 O 0.7734 0.47405 0.73269 0.0
C87 C 0.74221 0.45489 0.8377 0.0
Fe88 Fe 0.00832 0.83372 0.79292 0.0
Fe89 Fe 1.00443 0.75622 0.74407 0.0
O90 O 0.00742 0.80894 0.74639 0.0
Fe91 Fe 0.00985 0.83774 0.70224 0.0
O92 O 0.05784 0.85761 0.71644 0.0
O93 O 0.03995 0.87513 0.77631 0.0
O94 O 0.05287 0.80787 0.80792 0.0
C95 C 0.05543 0.77071 0.8112 0.0
C96 C 0.95646 0.87977 0.7503 0.0
O97 O 0.03425 0.74787 0.78977 0.0
C98 C 0.95427 0.78291 0.68037 0.0
O99 O 0.97743 0.79774 0.81859 0.0
O100 O 0.95804 0.75529 0.77283 0.0
O101 O 0.98185 0.88038 0.72257 0.0
O102 O 0.96296 0.85982 0.78116 0.0
C103 C 0.05822 0.77178 0.68398 0.0
O104 O 0.97352 0.75568 0.69825 0.0
O105 O 0.963 0.81892 0.68474 0.0
C106 C 0.95372 0.77136 0.80664 0.0
O107 O 0.0508 0.75278 0.71551 0.0
O108 O 0.03718 0.80086 0.67356 0.0
C109 C 0.06529 0.87524 0.74859 0.0
Fe110 Fe 0.68548 0.50389 0.28993 0.0
Fe111 Fe 0.76384 0.50864 0.24314 0.0
O112 O 0.71118 0.50782 0.24436 0.0
Fe113 Fe 0.68302 0.51139 0.19986 0.0
O114 O 0.66116 0.55788 0.21695 0.0
O115 O 0.64256 0.53351 0.27344 0.0
O116 O 0.7073 0.54909 0.30904 0.0
C117 C 0.74417 0.55436 0.31297 0.0
C118 C 0.64264 0.45328 0.24328 0.0
O119 O 0.76903 0.53634 0.29073 0.0
C120 C 0.74114 0.45885 0.17825 0.0
O121 O 0.72321 0.47402 0.31443 0.0
O122 O 0.76795 0.46084 0.26866 0.0
O123 O 0.64124 0.48069 0.21762 0.0
O124 O 0.66305 0.45773 0.27424 0.0
C125 C 0.74593 0.56422 0.18576 0.0
O126 O 0.76686 0.48037 0.1958 0.0
O127 O 0.70452 0.46613 0.18083 0.0
C128 C 0.75157 0.45311 0.3015 0.0
O129 O 0.7643 0.5567 0.21765 0.0
O130 O 0.71907 0.54147 0.17318 0.0
C131 C 0.64285 0.56211 0.24936 0.0
Fe132 Fe 0.0097 0.17089 0.78706 0.0
Fe133 Fe 0.01283 0.25195 0.74567 0.0
O134 O 0.00709 0.19954 0.74319 0.0
Fe135 Fe 1.00027 0.17543 0.69678 0.0
O136 O 0.96802 0.13618 0.71666 0.0
O137 O 0.96042 0.15142 0.7797 0.0
O138 O 0.98624 0.20943 0.8185 0.0
C139 C 0.96604 0.24026 0.81064 0.0
C140 C 0.05473 0.12622 0.73257 0.0
O141 O 0.96984 0.25775 0.77777 0.0
C142 C 0.0573 0.23428 0.67959 0.0
O143 O 0.05943 0.18835 0.7973 0.0
O144 O 0.04623 0.25131 0.78973 0.0
O145 O 0.0455 0.14686 0.70303 0.0
O146 O 0.03325 0.12758 0.76346 0.0
C147 C 0.95274 0.24068 0.68653 0.0
O148 O 0.05648 0.25017 0.71371 0.0
O149 O 0.03068 0.21018 0.66874 0.0
C150 C 0.06558 0.22375 0.80688 0.0
O151 O 0.97932 0.26178 0.70308 0.0
O152 O 0.95541 0.20329 0.68692 0.0
C153 C 0.9476 0.13559 0.74833 0.0
Fe154 Fe 0.34236 0.50893 0.19807 0.0
Fe155 Fe 0.33926 0.51315 0.28839 0.0
O156 O 0.31383 0.51048 0.24247 0.0
Fe157 Fe 0.26119 0.5082 0.24087 0.0
O158 O 0.26201 0.46132 0.21318 0.0
O159 O 0.30724 0.47882 0.16984 0.0
O160 O 0.3651 0.46248 0.21328 0.0
C161 C 0.38361 0.45755 0.24536 0.0
C162 C 0.28344 0.56009 0.17622 0.0
O163 O 0.38319 0.48501 0.27112 0.0
C164 C 0.26994 0.55971 0.30314 0.0
O165 O 0.38311 0.54006 0.21763 0.0
O166 O 0.36029 0.56055 0.27512 0.0
O167 O 0.25787 0.53875 0.1945 0.0
O168 O 0.3202 0.55417 0.1802 0.0
C169 C 0.28206 0.4611 0.30964 0.0
O170 O 0.30044 0.54107 0.31408 0.0
O171 O 0.25493 0.55414 0.2692 0.0
C172 C 0.38096 0.56635 0.24465 0.0
O173 O 0.31865 0.46648 0.30472 0.0
O174 O 0.25677 0.47851 0.28741 0.0
C175 C 0.2803 0.4555 0.18094 0.0
Fe176 Fe 0.27775 0.00689 0.25891 0.0
Fe177 Fe 0.32146 0.00653 0.17827 0.0
O178 O 0.27657 0.00593 0.20614 0.0
Fe179 Fe 0.23099 0.00474 0.18059 0.0
O180 O 0.20484 0.03585 0.21685 0.0
O181 O 0.24897 0.05271 0.26203 0.0
O182 O 0.32361 0.03766 0.26119 0.0
C183 C 0.34008 0.05995 0.23538 0.0
C184 C 0.20914 0.9584 0.24108 0.0
O185 O 0.33472 0.05421 0.19881 0.0
C186 C 0.27897 0.94843 0.14131 0.0
O187 O 0.30626 0.96082 0.26028 0.0
O188 O 0.35004 0.97937 0.2158 0.0
O189 O 0.2154 0.95995 0.20447 0.0
O190 O 0.23134 0.97742 0.26513 0.0
C191 C 0.27229 0.05795 0.13519 0.0
O192 O 0.31103 0.95851 0.15727 0.0
O193 O 0.24965 0.97227 0.14018 0.0
C194 C 0.33891 0.95539 0.2425 0.0
O195 O 0.30116 0.03383 0.13489 0.0
O196 O 0.24267 0.0504 0.15628 0.0
C197 C 0.21537 0.05699 0.24596 0.0
Fe198 Fe 0.50674 0.72933 0.67609 0.0
Fe199 Fe 0.50824 0.77007 0.7571 0.0
O200 O 0.50401 0.77273 0.70472 0.0
Fe201 Fe 0.49763 0.81885 0.68031 0.0
O202 O 0.46721 0.7988 0.63882 0.0
O203 O 0.4573 0.73792 0.65786 0.0
O204 O 0.4831 0.69759 0.71336 0.0
C205 C 0.46165 0.70522 0.74323 0.0
C206 C 0.55257 0.78367 0.63243 0.0
O207 O 0.46452 0.73806 0.76143 0.0
C208 C 0.55409 0.83542 0.73953 0.0
O209 O 0.55623 0.7186 0.69406 0.0
O210 O 0.54126 0.72534 0.75686 0.0
O211 O 0.5438 0.81291 0.65373 0.0
O212 O 0.5307 0.75308 0.6333 0.0
C213 C 0.4486 0.82945 0.74366 0.0
O214 O 0.55257 0.80163 0.75603 0.0
O215 O 0.52641 0.84684 0.7168 0.0
C216 C 0.5612 0.7082 0.72947 0.0
O217 O 0.47472 0.8133 0.76587 0.0
O218 O 0.45189 0.82792 0.7064 0.0
C219 C 0.44558 0.76806 0.63932 0.0
Fe220 Fe 0.73884 0.01012 0.25094 0.0
Fe221 Fe 0.69244 0.01211 0.17229 0.0
O222 O 0.73788 0.0074 0.19848 0.0
Fe223 Fe 0.78192 0.99933 0.17174 0.0
O224 O 0.79086 0.95243 0.19612 0.0
O225 O 0.78117 0.97515 0.25632 0.0
O226 O 0.70612 0.96709 0.25374 0.0
C227 C 0.67429 0.96205 0.23445 0.0
C228 C 0.80745 0.05026 0.23454 0.0
O229 O 0.66286 0.98955 0.21185 0.0
C230 C 0.74485 0.0578 0.12843 0.0
O231 O 0.69628 0.04577 0.25429 0.0
O232 O 0.68489 0.06147 0.19198 0.0
O233 O 0.81373 0.0251 0.20724 0.0
O234 O 0.77343 0.05259 0.25088 0.0
C235 C 0.72754 0.94985 0.13379 0.0
O236 O 0.71445 0.03589 0.1282 0.0
O237 O 0.77512 0.04659 0.14744 0.0
C238 C 0.68045 0.06854 0.22841 0.0
O239 O 0.69747 0.96252 0.15181 0.0
O240 O 0.75835 0.97105 0.13132 0.0
C241 C 0.79654 0.94943 0.23309 0.0
Fe242 Fe 0.50632 0.24104 0.74793 0.0
Fe243 Fe 0.50649 0.19338 0.66879 0.0
O244 O 0.50578 0.23901 0.69539 0.0
Fe245 Fe 0.50399 0.28343 0.66837 0.0
O246 O 0.52968 0.31355 0.70543 0.0
O247 O 0.55205 0.27124 0.74873 0.0
O248 O 0.53839 0.19715 0.75316 0.0
C249 C 0.55947 0.17728 0.72895 0.0
C250 C 0.45324 0.30458 0.72597 0.0
O251 O 0.55263 0.17801 0.69201 0.0
C252 C 0.45224 0.23616 0.62562 0.0
O253 O 0.4609 0.21081 0.75106 0.0
O254 O 0.47737 0.16675 0.70522 0.0
O255 O 0.45598 0.29598 0.68959 0.0
O256 O 0.47484 0.28644 0.75122 0.0
C257 C 0.56087 0.24168 0.62825 0.0
O258 O 0.45894 0.20515 0.64523 0.0
O259 O 0.47855 0.26244 0.62503 0.0
C260 C 0.45494 0.17804 0.73314 0.0
O261 O 0.53713 0.21247 0.62714 0.0
O262 O 0.55184 0.2723 0.64788 0.0
C263 C 0.55425 0.30486 0.73219 0.0
Fe264 Fe 0.3184 0.01076 0.8345 0.0
Fe265 Fe 0.22822 0.00861 0.83377 0.0
O266 O 0.27343 0.00877 0.8072 0.0
Fe267 Fe 0.27353 0.00805 0.75435 0.0
O268 O 0.31956 0.97697 0.75099 0.0
O269 O 0.33514 0.9647 0.8136 0.0
O270 O 0.29965 0.98095 0.87626 0.0
C271 C 0.27253 0.95488 0.875 0.0
C272 C 0.33354 0.06173 0.77019 0.0
O273 O 0.24078 0.96169 0.85659 0.0
C274 C 0.20595 0.05704 0.77437 0.0
O275 O 0.30449 0.05815 0.85661 0.0
O276 O 0.24648 0.038 0.87644 0.0
O277 O 0.30136 0.05476 0.75213 0.0
O278 O 0.3455 0.03927 0.79761 0.0
C279 C 0.21168 0.95766 0.76843 0.0
O280 O 0.21333 0.05488 0.81091 0.0
O281 O 0.22683 0.03745 0.7495 0.0
C282 C 0.27319 0.06429 0.87611 0.0
O283 O 0.20122 0.97951 0.79696 0.0
O284 O 0.24499 0.96198 0.75179 0.0
C285 C 0.33759 0.95627 0.77723 0.0
Fe286 Fe 0.50618 0.82081 0.341 0.0
Fe287 Fe 0.51345 0.73009 0.34138 0.0
O288 O 0.51146 0.77514 0.31451 0.0
Fe289 Fe 0.5152 0.77472 0.26204 0.0
O290 O 0.5588 0.8067 0.26359 0.0
O291 O 0.5349 0.8507 0.30561 0.0
O292 O 0.55216 0.81263 0.36654 0.0
C293 C 0.56185 0.78159 0.38438 0.0
C294 C 0.45625 0.83441 0.27932 0.0
O295 O 0.53893 0.75188 0.38467 0.0
C296 C 0.46948 0.70817 0.27251 0.0
O297 O 0.47609 0.79978 0.38165 0.0
O298 O 0.46414 0.73925 0.36119 0.0
O299 O 0.48062 0.8177 0.25543 0.0
O300 O 0.46046 0.83191 0.31628 0.0
C301 C 0.57125 0.71449 0.28633 0.0
O302 O 0.48977 0.69977 0.30293 0.0
O303 O 0.47233 0.74184 0.25616 0.0
C304 C 0.45348 0.76983 0.38018 0.0
O305 O 0.56217 0.71789 0.32254 0.0
O306 O 0.55 0.73173 0.26017 0.0
C307 C 0.56075 0.84023 0.28041 0.0
Fe308 Fe 0.73919 1.00293 0.7548 0.0
Fe309 Fe 0.69155 0.00719 0.83323 0.0
O310 O 0.73745 0.00495 0.80763 0.0
Fe311 Fe 0.78178 1.00399 0.83533 0.0
O312 O 0.81127 0.03035 0.79786 0.0
O313 O 0.76869 0.04822 0.75171 0.0
O314 O 0.69377 0.03423 0.74806 0.0
C315 C 0.67608 0.05767 0.77219 0.0
C316 C 0.8043 0.9526 0.77944 0.0
O317 O 0.67891 0.05297 0.80911 0.0
C318 C 0.73227 0.95281 0.87744 0.0
O319 O 0.71029 0.95721 0.75339 0.0
O320 O 0.66499 0.97701 0.79622 0.0
O321 O 0.79423 0.95574 0.81513 0.0
O322 O 0.78547 0.97226 0.7531 0.0
C323 C 0.74002 0.06155 0.87471 0.0
O324 O 0.70102 0.96094 0.85883 0.0
O325 O 0.76063 0.97739 0.87773 0.0
C326 C 0.6769 0.95269 0.76985 0.0
O327 O 0.71029 0.03838 0.8746 0.0
O328 O 0.77131 0.05231 0.85643 0.0
C329 C 0.80209 0.05168 0.76847 0.0
Fe330 Fe 0.51063 0.20044 0.34297 0.0
Fe331 Fe 0.50685 0.29164 0.34128 0.0
O332 O 0.50731 0.24552 0.31541 0.0
Fe333 Fe 0.50534 0.24483 0.26262 0.0
O334 O 0.4759 0.19783 0.26007 0.0
O335 O 0.46592 0.18103 0.32221 0.0
O336 O 0.4794 0.21895 0.38446 0.0
C337 C 0.45456 0.24745 0.3842 0.0
C338 C 0.56205 0.18628 0.27727 0.0
O339 O 0.46153 0.27889 0.36577 0.0
C340 C 0.55344 0.31367 0.28052 0.0
O341 O 0.55653 0.21555 0.36535 0.0
O342 O 0.53822 0.27529 0.38268 0.0
O343 O 0.55291 0.21818 0.25959 0.0
O344 O 0.54147 0.17395 0.3062 0.0
C345 C 0.4538 0.30605 0.27701 0.0
O346 O 0.55165 0.30789 0.31732 0.0
O347 O 0.53345 0.29215 0.25653 0.0
C348 C 0.56391 0.248 0.38178 0.0
O349 O 0.47587 0.31692 0.30511 0.0
O350 O 0.45814 0.27227 0.26091 0.0
C351 C 0.45758 0.17728 0.28618 0.0
Fe352 Fe 0.26486 0.27467 0.00994 0.0
Fe353 Fe 0.18263 0.31607 0.00771 0.0
O354 O 0.21211 0.27256 0.01016 0.0
Fe355 Fe 0.1884 0.22628 0.01321 0.0
O356 O 0.21037 0.21792 0.06097 0.0
O357 O 0.27118 0.2301 0.04253 0.0
O358 O 0.26571 0.30511 0.05476 0.0
C359 C 0.24585 0.33653 0.06042 0.0
C360 C 0.25322 0.20939 0.96326 0.0
O361 O 0.21761 0.346 0.03722 0.0
C362 C 0.1451 0.26239 0.95499 0.0
O363 O 0.26718 0.31952 0.97752 0.0
O364 O 0.20474 0.32992 0.96134 0.0
O365 O 0.22741 0.19841 0.98792 0.0
O366 O 0.26791 0.24388 0.96499 0.0
C367 C 0.14189 0.27368 0.06315 0.0
O368 O 0.14276 0.29291 0.97732 0.0
O369 O 0.16607 0.2331 0.96507 0.0
C370 C 0.24095 0.33596 0.95567 0.0
O371 O 0.15841 0.3058 0.05454 0.0
O372 O 0.14442 0.24457 0.03954 0.0
C373 C 0.24707 0.21307 0.06622 0.0
Fe374 Fe 0.18146 0.79134 0.01626 0.0
Fe375 Fe 0.25832 0.74185 0.00673 0.0
O376 O 0.20561 0.74464 0.0111 0.0
Fe377 Fe 0.17579 0.70103 0.01199 0.0
O378 O 0.13405 0.72413 0.98492 0.0
O379 O 0.15542 0.78367 0.96988 0.0
O380 O 0.21678 0.81909 0.98781 0.0
C381 C 0.24543 0.81163 0.96525 0.0
C382 C 0.13965 0.74609 0.07091 0.0
O383 O 0.26034 0.77678 0.96432 0.0
C384 C 0.24231 0.67838 0.05739 0.0
O385 O 0.20863 0.80185 0.06229 0.0
O386 O 0.26753 0.78286 0.04095 0.0
O387 O 0.15656 0.71386 0.0617 0.0
O388 O 0.13928 0.7734 0.04562 0.0
C389 C 0.22997 0.68073 0.9534 0.0
O390 O 0.2624 0.709 0.04979 0.0
O391 O 0.21167 0.66986 0.03781 0.0
C392 C 0.24626 0.80157 0.0656 0.0
O393 O 0.25747 0.69928 0.97161 0.0
O394 O 0.19399 0.68451 0.96371 0.0
C395 C 0.13543 0.75334 0.96121 0.0
Fe396 Fe 0.77131 0.76254 0.5126 0.0
Fe397 Fe 0.81535 0.6824 0.51123 0.0
O398 O 0.77021 0.70989 0.51301 0.0
Fe399 Fe 0.72465 0.68422 0.51603 0.0
O400 O 0.69695 0.72095 0.48618 0.0
O401 O 0.74062 0.76603 0.46815 0.0
O402 O 0.81564 0.76441 0.47897 0.0
C403 C 0.82852 0.73853 0.45408 0.0
C404 C 0.70463 0.74463 0.56355 0.0
O405 O 0.82694 0.70236 0.46316 0.0
C406 C 0.77465 0.64496 0.57106 0.0
O407 O 0.8015 0.76345 0.55787 0.0
O408 O 0.84541 0.72018 0.53645 0.0
O409 O 0.71171 0.70836 0.5615 0.0
O410 O 0.72609 0.76894 0.54419 0.0
C411 C 0.76449 0.63912 0.46132 0.0
O412 O 0.80619 0.66166 0.56007 0.0
O413 O 0.74469 0.64385 0.54789 0.0
C414 C 0.83469 0.74621 0.56134 0.0
O415 O 0.79409 0.63928 0.48463 0.0
O416 O 0.734 0.65882 0.46976 0.0
C417 C 0.70662 0.75055 0.4652 0.0
Fe418 Fe 0.8302 0.22517 1.00254 0.0
Fe419 Fe 0.7539 0.27466 0.01107 0.0
O420 O 0.80655 0.27189 0.00677 0.0
Fe421 Fe 0.83597 0.3156 0.00772 0.0
O422 O 0.85717 0.30483 0.95958 0.0
O423 O 0.87157 0.24262 0.97183 0.0
O424 O 0.80382 0.21319 0.95713 0.0
C425 C 0.76646 0.20983 0.95614 0.0
C426 C 0.87765 0.26323 0.05769 0.0
O427 O 0.74472 0.23026 0.9795 0.0
C428 C 0.78097 0.3361 0.06348 0.0
O429 O 0.79379 0.19873 0.03188 0.0
O430 O 0.75391 0.24422 0.05648 0.0
O431 O 0.87824 0.29326 0.0351 0.0
O432 O 0.85658 0.23375 0.0485 0.0
C433 C 0.76976 0.3359 0.95909 0.0
O434 O 0.7537 0.31968 0.04317 0.0
O435 O 0.81684 0.32993 0.05568 0.0
C436 C 0.7692 0.20983 0.05793 0.0
O437 O 0.75006 0.30477 0.96618 0.0
O438 O 0.79911 0.34543 0.98074 0.0
C439 C 0.87361 0.2728 0.94977 0.0
Fe440 Fe 0.23746 0.2584 0.50757 0.0
Fe441 Fe 0.28136 0.33867 0.51155 0.0
O442 O 0.23665 0.31133 0.5089 0.0
Fe443 Fe 0.19096 0.33797 0.5078 0.0
O444 O 0.17492 0.31503 0.55322 0.0
O445 O 0.19138 0.25332 0.53762 0.0
O446 O 0.26597 0.2543 0.55387 0.0
C447 C 0.29905 0.27113 0.55931 0.0
C448 C 0.17649 0.27399 0.45437 0.0
O449 O 0.30813 0.30177 0.54022 0.0
C450 C 0.23631 0.38069 0.45583 0.0
O451 O 0.28432 0.25539 0.47844 0.0
O452 O 0.29919 0.31774 0.46527 0.0
O453 O 0.16466 0.30144 0.47722 0.0
O454 O 0.20942 0.25685 0.46072 0.0
C455 C 0.23517 0.37844 0.56556 0.0
O456 O 0.26277 0.381 0.48258 0.0
O457 O 0.2044 0.36215 0.46147 0.0
C458 C 0.30567 0.2811 0.46085 0.0
O459 O 0.2669 0.35993 0.55884 0.0
O460 O 0.20823 0.37954 0.53928 0.0
C461 C 0.17264 0.27825 0.55929 0.0
Fe462 Fe 0.8364 0.69896 0.00935 0.0
Fe463 Fe 0.83069 0.7889 0.00839 0.0
O464 O 0.80672 0.74242 0.00911 0.0
Fe465 Fe 0.75422 0.73982 0.00756 0.0
O466 O 0.75206 0.69479 0.03989 0.0
O467 O 0.81482 0.68256 0.05524 0.0
O468 O 0.87597 0.72144 0.04031 0.0
C469 C 0.8724 0.74998 0.06496 0.0
C470 C 0.77476 0.67893 0.95642 0.0
O471 O 0.85173 0.77993 0.05663 0.0
C472 C 0.77345 0.80526 0.95599 0.0
O473 O 0.85873 0.71266 0.96208 0.0
O474 O 0.87558 0.77117 0.98229 0.0
O475 O 0.75521 0.71049 0.96186 0.0
O476 O 0.80203 0.66875 0.98002 0.0
C477 C 0.76198 0.80461 0.05563 0.0
O478 O 0.80995 0.79958 0.96022 0.0
O479 O 0.74866 0.78492 0.97602 0.0
C480 C 0.8762 0.74492 0.95546 0.0
O481 O 0.79064 0.81568 0.03427 0.0
O482 O 0.74842 0.76981 0.05259 0.0
C483 C 0.77827 0.67839 0.062 0.0
Fe484 Fe 0.7779 0.25775 0.51129 0.0
Fe485 Fe 0.8217 0.33812 0.50659 0.0
O486 O 0.77716 0.31019 0.50724 0.0
Fe487 Fe 0.73143 0.33586 0.5027 0.0
O488 O 0.70246 0.29981 0.52989 0.0
O489 O 0.74558 0.25849 0.55556 0.0
O490 O 0.82155 0.25663 0.545 0.0
C491 C 0.83947 0.28376 0.56439 0.0
C492 C 0.71579 0.27322 0.45503 0.0
O493 O 0.8368 0.31972 0.55454 0.0
C494 C 0.77832 0.37553 0.44851 0.0
O495 O 0.80887 0.25271 0.46701 0.0
O496 O 0.85113 0.30063 0.4805 0.0
O497 O 0.7204 0.31043 0.4566 0.0
O498 O 0.73471 0.25051 0.47841 0.0
C499 C 0.77114 0.37924 0.55851 0.0
O500 O 0.80971 0.35723 0.45726 0.0
O501 O 0.75141 0.37774 0.47429 0.0
C502 C 0.8405 0.27133 0.45966 0.0
O503 O 0.80002 0.38055 0.53419 0.0
O504 O 0.7401 0.36062 0.54943 0.0
C505 C 0.71125 0.27407 0.55548 0.0
Fe506 Fe 0.27995 0.67582 0.50452 0.0
Fe507 Fe 0.23621 0.75594 0.50753 0.0
O508 O 0.23494 0.70311 0.50628 0.0
Fe509 Fe 0.18892 0.67703 0.50623 0.0
O510 O 0.20751 0.63488 0.53587 0.0
O511 O 0.26857 0.65171 0.5504 0.0
O512 O 0.30742 0.71143 0.53457 0.0
C513 C 0.298 0.73957 0.5575 0.0
C514 C 0.23188 0.63669 0.44949 0.0
O515 O 0.26497 0.75702 0.55377 0.0
C516 C 0.17421 0.74199 0.4554 0.0
O517 O 0.29508 0.69896 0.45904 0.0
O518 O 0.28325 0.76016 0.47779 0.0
O519 O 0.20018 0.65397 0.45887 0.0
O520 O 0.26053 0.63516 0.47369 0.0
C521 C 0.17221 0.73561 0.56016 0.0
O522 O 0.20738 0.7589 0.46122 0.0
O523 O 0.16224 0.71454 0.47777 0.0
C524 C 0.30357 0.73509 0.45764 0.0
O525 O 0.19064 0.76077 0.53879 0.0
O526 O 0.17372 0.69904 0.55253 0.0
C527 C 0.23685 0.63481 0.55946 0.0
C528 C 0.10921 0.27501 0.17251 0.0
C529 C 0.07915 0.24564 0.17089 0.0
C530 C 0.08221 0.2478 0.09809 0.0
C531 C 0.11771 0.26986 0.10003 0.0
N532 N 0.16817 0.30073 0.14122 0.0
N533 N 0.04288 0.19799 0.12976 0.0
C534 C 0.13195 0.28297 0.13777 0.0
C535 C 0.06721 0.23022 0.13309 0.0
N536 N 0.11659 0.29498 0.20711 0.0
N537 N 0.06229 0.24416 0.06288 0.0
H538 H 0.03296 0.18132 0.15354 0.0
H539 H 0.03659 0.18449 0.10255 0.0
H540 H 0.0715 0.2585 0.03703 0.0
H541 H 0.03425 0.23127 0.06071 0.0
H542 H 0.13551 0.31936 0.20878 0.0
H543 H 0.10101 0.28966 0.23326 0.0
H544 H 0.18157 0.30653 0.16854 0.0
H545 H 0.18655 0.30649 0.1172 0.0
C546 C 0.27304 0.5586 0.63081 0.0
C547 C 0.26036 0.57445 0.66837 0.0
C548 C 0.22845 0.62944 0.6335 0.0
C549 C 0.23725 0.61112 0.59634 0.0
N550 N 0.2604 0.55426 0.55989 0.0
N551 N 0.21969 0.62152 0.70442 0.0
C552 C 0.25654 0.57402 0.59527 0.0
C553 C 0.23537 0.60832 0.66931 0.0
N554 N 0.30235 0.53054 0.62829 0.0
N555 N 0.21682 0.66824 0.63497 0.0
H556 H 0.22627 0.60867 0.73179 0.0
H557 H 0.19797 0.64359 0.70589 0.0
H558 H 0.21453 0.68562 0.6097 0.0
H559 H 0.21394 0.68427 0.66136 0.0
H560 H 0.31482 0.52133 0.60147 0.0
H561 H 0.31821 0.51976 0.65229 0.0
H562 H 0.27156 0.52547 0.55751 0.0
H563 H 0.24868 0.56518 0.53335 0.0
C564 C 0.9352 0.76695 0.09952 0.0
C565 C 0.89629 0.75189 0.10177 0.0
C566 C 0.89881 0.75619 0.17474 0.0
C567 C 0.93525 0.77699 0.17196 0.0
N568 N 0.98376 0.80963 0.12962 0.0
N569 N 0.8388 0.73518 0.141 0.0
C570 C 0.95243 0.7843 0.13385 0.0
C571 C 0.87753 0.74701 0.1393 0.0
N572 N 0.95547 0.76546 0.06435 0.0
N573 N 0.88412 0.74594 0.21115 0.0
H574 H 0.82257 0.72761 0.11577 0.0
H575 H 0.82196 0.73542 0.16694 0.0
H576 H 0.8975 0.7544 0.23781 0.0
H577 H 0.86005 0.72697 0.2149 0.0
H578 H 0.9856 0.77202 0.06199 0.0
H579 H 0.94331 0.75372 0.03835 0.0
H580 H 0.99465 0.81857 0.10211 0.0
H581 H 0.99583 0.82596 0.15274 0.0
C582 C 0.75411 0.38969 0.66968 0.0
C583 C 0.7683 0.42849 0.67734 0.0
C584 C 0.78877 0.4343 0.60755 0.0
C585 C 0.77444 0.39558 0.59976 0.0
N586 N 0.76068 0.33131 0.62831 0.0
N587 N 0.81711 0.47696 0.65758 0.0
C588 C 0.76234 0.37159 0.63236 0.0
C589 C 0.79132 0.44759 0.64762 0.0
N590 N 0.73275 0.37005 0.69787 0.0
N591 N 0.79841 0.4592 0.57714 0.0
H592 H 0.82365 0.48378 0.687 0.0
H593 H 0.83665 0.48932 0.63706 0.0
H594 H 0.79584 0.45123 0.5473 0.0
H595 H 0.80534 0.48902 0.58178 0.0
H596 H 0.71773 0.34364 0.69201 0.0
H597 H 0.72878 0.38122 0.72655 0.0
H598 H 0.75519 0.31224 0.65199 0.0
H599 H 0.76912 0.31695 0.6022 0.0
C600 C 0.05678 0.7413 0.87998 0.0
C601 C 0.0779 0.75532 0.84624 0.0
C602 C 0.13857 0.75715 0.88657 0.0
C603 C 0.11559 0.75138 0.92161 0.0
N604 N 0.05146 0.74145 0.9518 0.0
N605 N 0.13956 0.77607 0.81703 0.0
C606 C 0.07437 0.74392 0.91837 0.0
C607 C 0.1191 0.7629 0.84944 0.0
N608 N 0.02017 0.72485 0.87544 0.0
N609 N 0.17905 0.75557 0.88846 0.0
H610 H 0.1267 0.778 0.78888 0.0
H611 H 0.16854 0.78669 0.81844 0.0
H612 H 0.19444 0.75064 0.91486 0.0
H613 H 0.19714 0.75496 0.86337 0.0
H614 H 0.00502 0.71094 0.89847 0.0
H615 H 0.00753 0.72029 0.84769 0.0
H616 H 0.02054 0.74059 0.95104 0.0
H617 H 0.06301 0.74394 0.98045 0.0
C618 C 0.77382 0.55762 0.38201 0.0
C619 C 0.75771 0.57758 0.34836 0.0
C620 C 0.75651 0.63931 0.38703 0.0
C621 C 0.76563 0.61788 0.42229 0.0
N622 N 0.77895 0.55514 0.45389 0.0
N623 N 0.73141 0.63752 0.31956 0.0
C624 C 0.77369 0.57667 0.41992 0.0
C625 C 0.74848 0.6185 0.35109 0.0
N626 N 0.78941 0.52047 0.37789 0.0
N627 N 0.75739 0.67981 0.38731 0.0
H628 H 0.72732 0.62398 0.29191 0.0
H629 H 0.71937 0.666 0.32157 0.0
H630 H 0.76386 0.69634 0.41271 0.0
H631 H 0.75658 0.69656 0.36136 0.0
H632 H 0.80493 0.50593 0.40034 0.0
H633 H 0.79077 0.50614 0.35063 0.0
H634 H 0.78029 0.52424 0.45427 0.0
H635 H 0.77848 0.5678 0.4822 0.0
C636 C 0.96211 0.2651 0.88042 0.0
C637 C 0.94284 0.2589 0.84349 0.0
C638 C 0.87903 0.27394 0.87524 0.0
C639 C 0.89778 0.27119 0.91307 0.0
N640 N 0.9576 0.26455 0.95209 0.0
N641 N 0.88329 0.26286 0.80392 0.0
C642 C 0.93949 0.26688 0.9158 0.0
C643 C 0.9014 0.26563 0.84017 0.0
N644 N 1.00191 0.27226 0.88108 0.0
N645 N 0.83986 0.28424 0.87294 0.0
H646 H 0.89894 0.25946 0.77745 0.0
H647 H 0.85267 0.26243 0.79989 0.0
H648 H 0.82216 0.28842 0.89796 0.0
H649 H 0.82537 0.29107 0.84652 0.0
H650 H 0.01753 0.28013 0.90664 0.0
H651 H 0.01793 0.27584 0.85492 0.0
H652 H 0.9873 0.25649 0.95558 0.0
H653 H 0.94249 0.26854 0.97887 0.0
C654 C 0.27709 0.45758 0.38493 0.0
C655 C 0.26878 0.44065 0.34678 0.0
C656 C 0.239 0.38334 0.38026 0.0
C657 C 0.24326 0.4026 0.41783 0.0
N658 N 0.25604 0.46329 0.45351 0.0
N659 N 0.23591 0.38978 0.30848 0.0
C660 C 0.25895 0.44142 0.41933 0.0
C661 C 0.24735 0.40455 0.34458 0.0
N662 N 0.3036 0.48789 0.38921 0.0
N663 N 0.23008 0.34389 0.37849 0.0
H664 H 0.24356 0.40308 0.28162 0.0
H665 H 0.21651 0.36591 0.30545 0.0
H666 H 0.22582 0.32666 0.40369 0.0
H667 H 0.23119 0.32747 0.35222 0.0
H668 H 0.31276 0.49854 0.41684 0.0
H669 H 0.32067 0.49893 0.3662 0.0
H670 H 0.26379 0.49319 0.45518 0.0
H671 H 0.24158 0.45289 0.47882 0.0
C672 C 0.15535 0.06127 0.28858 0.0
C673 C 0.18391 0.08113 0.26494 0.0
C674 C 0.13973 0.13848 0.26126 0.0
C675 C 0.10829 0.11518 0.27693 0.0
N676 N 0.08561 0.05335 0.30449 0.0
N677 N 0.20336 0.13852 0.22746 0.0
C678 C 0.11594 0.07625 0.29055 0.0
C679 C 0.17627 0.11993 0.25114 0.0
N680 N 0.16635 0.02869 0.30987 0.0
N681 N 0.13507 0.17847 0.25732 0.0
H682 H 0.23117 0.12623 0.22117 0.0
H683 H 0.19739 0.16497 0.21262 0.0
H684 H 0.1097 0.19297 0.26747 0.0
H685 H 0.15782 0.19744 0.2486 0.0
H686 H 0.14749 0.01397 0.32939 0.0
H687 H 0.19594 0.01988 0.31182 0.0
H688 H 0.08877 0.02321 0.31062 0.0
H689 H 0.05657 0.06391 0.30721 0.0
C690 C 0.44718 0.64713 0.78813 0.0
C691 C 0.43523 0.67277 0.75693 0.0
C692 C 0.39347 0.62031 0.72947 0.0
C693 C 0.40135 0.59565 0.76285 0.0
N694 N 0.43535 0.58674 0.8255 0.0
N695 N 0.38815 0.6878 0.70569 0.0
C696 C 0.42774 0.60969 0.79297 0.0
C697 C 0.40518 0.66065 0.73047 0.0
N698 N 0.4784 0.65766 0.8118 0.0
N699 N 0.37748 0.60514 0.69543 0.0
H700 H 0.39597 0.71778 0.70633 0.0
H701 H 0.36326 0.68136 0.68845 0.0
H702 H 0.37422 0.57498 0.69013 0.0
H703 H 0.374 0.62189 0.66976 0.0
H704 H 0.49203 0.63838 0.83175 0.0
H705 H 0.49197 0.68539 0.81004 0.0
H706 H 0.45002 0.59724 0.85066 0.0
H707 H 0.42611 0.55731 0.82774 0.0
C708 C 0.88871 0.92528 0.29263 0.0
C709 C 0.91348 0.90979 0.26193 0.0
C710 C 0.85562 0.90596 0.21802 0.0
C711 C 0.83186 0.92553 0.24676 0.0
N712 N 0.82156 0.93624 0.31667 0.0
N713 N 0.92093 0.89933 0.19058 0.0
C714 C 0.84718 0.93027 0.28576 0.0
C715 C 0.89723 0.90405 0.22323 0.0
N716 N 0.90546 0.93783 0.32745 0.0
N717 N 0.83819 0.88704 0.18667 0.0
H718 H 0.95148 0.90326 0.19075 0.0
H719 H 0.90959 0.89777 0.16178 0.0
H720 H 0.80751 0.88446 0.18441 0.0
H721 H 0.8539 0.86913 0.16677 0.0
H722 H 0.8898 0.95282 0.34959 0.0
H723 H 0.93609 0.93753 0.33214 0.0
H724 H 0.83031 0.93674 0.34634 0.0
H725 H 0.79083 0.93492 0.31293 0.0
C726 C 0.61683 0.37993 0.79385 0.0
C727 C 0.61691 0.41254 0.76615 0.0
C728 C 0.58963 0.36772 0.71658 0.0
C729 C 0.58184 0.33773 0.74499 0.0
N730 N 0.58149 0.32113 0.81517 0.0
N731 N 0.58241 0.43767 0.70804 0.0
C732 C 0.5936 0.34525 0.78502 0.0
C733 C 0.59682 0.40662 0.72963 0.0
N734 N 0.63868 0.38061 0.82805 0.0
N735 N 0.59032 0.35946 0.67694 0.0
H736 H 0.5809 0.4664 0.71957 0.0
H737 H 0.56631 0.43341 0.68185 0.0
H738 H 0.59006 0.33041 0.66637 0.0
H739 H 0.59687 0.38106 0.65577 0.0
H740 H 0.64274 0.35533 0.84542 0.0
H741 H 0.65521 0.4044 0.8383 0.0
H742 H 0.58576 0.32838 0.84502 0.0
H743 H 0.56409 0.29603 0.81111 0.0
C744 C 0.17106 0.89867 0.77925 0.0
C745 C 0.18114 0.92985 0.75351 0.0
C746 C 0.11519 0.92496 0.72249 0.0
C747 C 0.10342 0.89763 0.75253 0.0
N748 N 0.11845 0.86934 0.81707 0.0
N749 N 0.16297 0.97457 0.70113 0.0
C750 C 0.13085 0.8873 0.78302 0.0
C751 C 0.15341 0.94315 0.72476 0.0
N752 N 0.20014 0.88097 0.80115 0.0
N753 N 0.08943 0.93461 0.69266 0.0
H754 H 0.19153 0.98645 0.70043 0.0
H755 H 0.14257 0.9896 0.68341 0.0
H756 H 0.05967 0.92615 0.6927 0.0
H757 H 0.09779 0.95027 0.66739 0.0
H758 H 0.1954 0.85608 0.81882 0.0
H759 H 0.22981 0.88883 0.79749 0.0
H760 H 0.13728 0.86343 0.84092 0.0
H761 H 0.08873 0.86647 0.82447 0.0
C762 C 0.61719 0.65803 0.30522 0.0
C763 C 0.59944 0.68122 0.27497 0.0
C764 C 0.61003 0.62635 0.22788 0.0
C765 C 0.62343 0.6013 0.25935 0.0
N766 N 0.62926 0.59315 0.33148 0.0
N767 N 0.59954 0.69372 0.20474 0.0
C768 C 0.62423 0.61695 0.29897 0.0
C769 C 0.60215 0.66735 0.23532 0.0
N770 N 0.63011 0.67592 0.33925 0.0
N771 N 0.60118 0.61029 0.1916 0.0
H772 H 0.5982 0.7243 0.20962 0.0
H773 H 0.60465 0.68594 0.17518 0.0
H774 H 0.60171 0.57979 0.18616 0.0
H775 H 0.58795 0.62638 0.16875 0.0
H776 H 0.64753 0.66167 0.36051 0.0
H777 H 0.62864 0.70643 0.34308 0.0
H778 H 0.62577 0.60356 0.36048 0.0
H779 H 0.63121 0.56249 0.33108 0.0
C780 C 0.86773 0.05615 0.73457 0.0
C781 C 0.83433 0.07584 0.75092 0.0
C782 C 0.87389 0.13522 0.76277 0.0
C783 C 0.90853 0.11483 0.74897 0.0
N784 N 0.93921 0.05358 0.72699 0.0
N785 N 0.80199 0.13729 0.76524 0.0
C786 C 0.90558 0.0748 0.73556 0.0
C787 C 0.83636 0.11637 0.76047 0.0
N788 N 0.86249 0.02018 0.71654 0.0
N789 N 0.87671 0.17191 0.77987 0.0
H790 H 0.77439 0.12402 0.76101 0.0
H791 H 0.80083 0.16807 0.76821 0.0
H792 H 0.90257 0.18861 0.78007 0.0
H793 H 0.85362 0.18497 0.79589 0.0
H794 H 0.88466 0.00482 0.70133 0.0
H795 H 0.83431 0.0081 0.71272 0.0
H796 H 0.93948 0.02315 0.72152 0.0
H797 H 0.96763 0.06548 0.72898 0.0
C798 C 0.43956 0.35945 0.22702 0.0
C799 C 0.42749 0.33769 0.26097 0.0
C800 C 0.39593 0.39723 0.2883 0.0
C801 C 0.40411 0.41861 0.25283 0.0
N802 N 0.43391 0.41936 0.18748 0.0
N803 N 0.38418 0.33276 0.31708 0.0
C804 C 0.42555 0.39924 0.22164 0.0
C805 C 0.40176 0.35564 0.28883 0.0
N806 N 0.46627 0.34295 0.20122 0.0
N807 N 0.38546 0.41631 0.32264 0.0
H808 H 0.38849 0.30218 0.31757 0.0
H809 H 0.36238 0.34337 0.33642 0.0
H810 H 0.38699 0.44687 0.32638 0.0
H811 H 0.38156 0.4016 0.34955 0.0
H812 H 0.48072 0.35882 0.17905 0.0
H813 H 0.47505 0.31331 0.20296 0.0
H814 H 0.44437 0.40565 0.16173 0.0
H815 H 0.42979 0.44993 0.1847 0.0
C816 C 0.29827 0.16153 0.09209 0.0
C817 C 0.25895 0.17747 0.09084 0.0
C818 C 0.23268 0.11227 0.10558 0.0
C819 C 0.27102 0.09617 0.11202 0.0
N820 N 0.34194 0.1092 0.11588 0.0
N821 N 0.19393 0.17 0.12073 0.0
C822 C 0.30455 0.12167 0.10627 0.0
C823 C 0.2278 0.15356 0.10554 0.0
N824 N 0.32972 0.18449 0.08125 0.0
N825 N 0.2006 0.08829 0.09969 0.0
H826 H 0.1913 0.20047 0.12604 0.0
H827 H 0.17138 0.15273 0.13301 0.0
H828 H 0.20345 0.0576 0.09612 0.0
H829 H 0.17241 0.09976 0.09363 0.0
H830 H 0.35782 0.17289 0.07527 0.0
H831 H 0.32774 0.21525 0.07876 0.0
H832 H 0.36615 0.1283 0.11763 0.0
H833 H 0.34899 0.08028 0.12377 0.0
C834 C 0.26961 0.84506 0.90142 0.0
C835 C 0.26194 0.84702 0.943 0.0
C836 C 0.27106 0.92038 0.94058 0.0
C837 C 0.27507 0.91809 0.8991 0.0
N838 N 0.29118 0.87863 0.84167 0.0
N839 N 0.25265 0.88927 1.00144 0.0
C840 C 0.2784 0.88051 0.88011 0.0
C841 C 0.26282 0.88537 0.96241 0.0
N842 N 0.26436 0.81027 0.8812 0.0
N843 N 0.27572 0.95614 0.95953 0.0
H844 H 0.25037 0.86569 0.02058 0.0
H845 H 0.24432 0.91599 0.01475 0.0
H846 H 0.27919 0.98299 0.94469 0.0
H847 H 0.27959 0.95909 0.9901 0.0
H848 H 0.26382 0.80813 0.85033 0.0
H849 H 0.25697 0.78388 0.89497 0.0
H850 H 0.29979 0.85242 0.82755 0.0
H851 H 0.29582 0.90388 0.82468 0.0
C852 C 0.60352 0.78661 0.44578 0.0
C853 C 0.60091 0.7803 0.40435 0.0
C854 C 0.67296 0.76901 0.40077 0.0
C855 C 0.67445 0.77084 0.44262 0.0
N856 N 0.64748 0.80303 0.50022 0.0
N857 N 0.63471 0.78062 0.34087 0.0
C858 C 0.64149 0.78606 0.46395 0.0
C859 C 0.63623 0.77658 0.38124 0.0
N860 N 0.56998 0.79378 0.46751 0.0
N861 N 0.70637 0.75945 0.37994 0.0
H862 H 0.60824 0.78435 0.32535 0.0
H863 H 0.65978 0.7825 0.3229 0.0
H864 H 0.7342 0.75828 0.39344 0.0
H865 H 0.70643 0.75238 0.34979 0.0
H866 H 0.56996 0.79658 0.4983 0.0
H867 H 0.54176 0.79546 0.45481 0.0
H868 H 0.62538 0.8174 0.51648 0.0
H869 H 0.67606 0.80774 0.51096 0.0
C870 C 0.75568 0.17159 0.89243 0.0
C871 C 0.74964 0.17506 0.93399 0.0
C872 C 0.73267 0.10396 0.93675 0.0
C873 C 0.73837 0.10086 0.89519 0.0
N874 N 0.74033 0.13501 0.83252 0.0
N875 N 0.71858 0.147 0.99247 0.0
C876 C 0.7453 0.13572 0.87272 0.0
C877 C 0.73361 0.14211 0.95515 0.0
N878 N 0.77216 0.20215 0.8717 0.0
N879 N 0.72807 0.0705 0.95906 0.0
H880 H 0.71598 0.17454 0.00603 0.0
H881 H 0.70377 0.12466 0.00777 0.0
H882 H 0.72636 0.04223 0.9466 0.0
H883 H 0.72899 0.07056 0.99002 0.0
H884 H 0.78151 0.19942 0.84228 0.0
H885 H 0.77856 0.22947 0.88472 0.0
H886 H 0.73972 0.16076 0.81543 0.0
H887 H 0.73236 0.10935 0.81709 0.0
C888 C 0.38096 0.27722 0.46115 0.0
C889 C 0.34391 0.26844 0.44229 0.0
C890 C 0.38039 0.24122 0.38571 0.0
C891 C 0.41681 0.24603 0.40656 0.0
N892 N 0.45019 0.25875 0.46835 0.0
N893 N 0.30937 0.23245 0.39071 0.0
C894 C 0.41638 0.26007 0.44601 0.0
C895 C 0.34393 0.24685 0.40612 0.0
N896 N 0.38332 0.30415 0.49146 0.0
N897 N 0.3804 0.23383 0.34583 0.0
H898 H 0.28216 0.23616 0.40489 0.0
H899 H 0.30851 0.21363 0.36606 0.0
H900 H 0.40644 0.23078 0.32936 0.0
H901 H 0.35467 0.23409 0.3286 0.0
H902 H 0.41011 0.31289 0.50425 0.0
H903 H 0.35999 0.32251 0.49964 0.0
H904 H 0.4506 0.2654 0.49864 0.0
H905 H 0.47668 0.24688 0.45744 0.0
C906 C 0.72228 0.86719 0.05677 0.0
C907 C 0.74056 0.83596 0.07836 0.0
C908 C 0.73481 0.87591 0.13892 0.0
C909 C 0.72678 0.9099 0.1153 0.0
N910 N 0.70958 0.938 0.05193 0.0
N911 N 0.76307 0.80958 0.14077 0.0
C912 C 0.71931 0.90557 0.07419 0.0
C913 C 0.7458 0.83971 0.1199 0.0
N914 N 0.70653 0.85948 0.02025 0.0
N915 N 0.73163 0.87815 0.17931 0.0
H916 H 0.77005 0.78233 0.1277 0.0
H917 H 0.77207 0.81239 0.17027 0.0
H918 H 0.72399 0.90431 0.1941 0.0
H919 H 0.73354 0.85344 0.19775 0.0
H920 H 0.69085 0.88022 1.00353 0.0
H921 H 0.70466 0.8306 0.00934 0.0
H922 H 0.7069 0.93728 0.02112 0.0
H923 H 0.70574 0.96623 0.06426 0.0
C924 C 0.62697 0.21273 0.60224 0.0
C925 C 0.59807 0.24384 0.60409 0.0
C926 C 0.64919 0.29191 0.58951 0.0
C927 C 0.6775 0.2617 0.58169 0.0
N928 N 0.69175 0.19125 0.57817 0.0
N929 N 0.58058 0.30944 0.58149 0.0
C930 C 0.66616 0.22132 0.58761 0.0
C931 C 0.6089 0.28216 0.59154 0.0
N932 N 0.61759 0.17539 0.61463 0.0
N933 N 0.66079 0.33028 0.59485 0.0
H934 H 0.55045 0.30224 0.58033 0.0
H935 H 0.58766 0.33726 0.56999 0.0
H936 H 0.69058 0.33789 0.59674 0.0
H937 H 0.64101 0.35298 0.60235 0.0
H938 H 0.63859 0.15297 0.61847 0.0
H939 H 0.58909 0.167 0.62278 0.0
H940 H 0.68326 0.16158 0.57665 0.0
H941 H 0.72111 0.19589 0.56996 0.0
C942 C 0.34391 0.79103 0.58994 0.0
C943 C 0.32925 0.75161 0.58656 0.0
C944 C 0.39344 0.72628 0.6072 0.0
C945 C 0.40701 0.76497 0.61702 0.0
N946 N 0.38896 0.83481 0.62472 0.0
N947 N 0.33608 0.68396 0.60805 0.0
C948 C 0.38054 0.79776 0.61055 0.0
C949 C 0.35264 0.72018 0.60135 0.0
N950 N 0.32433 0.82186 0.57241 0.0
N951 N 0.41942 0.69564 0.60109 0.0
H952 H 0.30537 0.68009 0.60757 0.0
H953 H 0.35232 0.6598 0.61844 0.0
H954 H 0.45007 0.69985 0.59951 0.0
H955 H 0.41015 0.66757 0.5918 0.0
H956 H 0.33654 0.85018 0.57014 0.0
H957 H 0.29723 0.81873 0.55791 0.0
H958 H 0.36836 0.85796 0.62408 0.0
H959 H 0.41449 0.84188 0.64045 0.0
C960 C 0.91404 0.71875 0.89559 0.0
C961 C 0.89577 0.7516 0.91562 0.0
C962 C 0.90099 0.79028 0.85373 0.0
C963 C 0.92263 0.75924 0.83575 0.0
N964 N 0.9369 0.68964 0.8332 0.0
N965 N 0.88109 0.82275 0.91422 0.0
C966 C 0.92485 0.72197 0.85464 0.0
C967 C 0.89137 0.78847 0.89483 0.0
N968 N 0.92487 0.68589 0.91681 0.0
N969 N 0.88945 0.82162 0.83074 0.0
H970 H 0.87797 0.82551 0.94471 0.0
H971 H 0.88096 0.85049 0.90067 0.0
H972 H 0.89561 0.82243 0.80032 0.0
H973 H 0.87004 0.8438 0.84033 0.0
H974 H 0.94118 0.66236 0.905 0.0
H975 H 0.92204 0.68417 0.94761 0.0
H976 H 0.93572 0.66066 0.84376 0.0
H977 H 0.94433 0.69156 0.8032 0.0
C978 C 0.73691 0.3882 0.38605 0.0
C979 C 0.77311 0.39364 0.40797 0.0
C980 C 0.80231 0.42555 0.34868 0.0
C981 C 0.76584 0.42131 0.32853 0.0
N982 N 0.7059 0.38468 0.32083 0.0
N983 N 0.83982 0.42212 0.40838 0.0
C984 C 0.73602 0.39732 0.34492 0.0
C985 C 0.80585 0.41254 0.38862 0.0
N986 N 0.70226 0.37767 0.40432 0.0
N987 N 0.8335 0.44361 0.33035 0.0
H988 H 0.84432 0.41807 0.43876 0.0
H989 H 0.84432 0.41807 0.43876 0.0
H990 H 0.83228 0.45262 0.30077 0.0
H991 H 0.86079 0.44809 0.34439 0.0
H992 H 0.67507 0.37639 0.38963 0.0
H993 H 0.6983 0.37585 0.43475 0.0
H994 H 0.6841 0.36468 0.32963 0.0
H995 H 0.70557 0.39119 0.2905 0.0
C996 C 0.11294 0.2653 0.84712 0.0
C997 C 0.08666 0.23248 0.84519 0.0
C998 C 0.09448 0.22311 0.91759 0.0
C999 C 0.11912 0.25707 0.91945 0.0
N1000 N 0.14257 0.31666 0.8879 0.0
N1001 N 0.04697 0.18397 0.88153 0.0
C1002 C 0.12546 0.28012 0.88481 0.0
C1003 C 0.07615 0.21216 0.8811 0.0
N1004 N 0.12728 0.28139 0.81277 0.0
N1005 N 0.08863 0.20092 0.95107 0.0
H1006 H 0.03417 0.17117 0.85665 0.0
H1007 H 0.03328 0.17434 0.9075 0.0
H1008 H 0.09677 0.21064 0.97939 0.0
H1009 H 0.07712 0.17224 0.95064 0.0
H1010 H 0.14969 0.30263 0.81214 0.0
H1011 H 0.11984 0.27047 0.78468 0.0
H1012 H 0.14523 0.33621 0.86416 0.0
H1013 H 0.14926 0.32953 0.91517 0.0
C1014 C 0.26267 0.6229 0.34133 0.0
C1015 C 0.2496 0.58378 0.33401 0.0
C1016 C 0.22211 0.57994 0.40152 0.0
C1017 C 0.2358 0.61897 0.40912 0.0
N1018 N 0.25784 0.68171 0.38227 0.0
N1019 N 0.20662 0.52991 0.35176 0.0
C1020 C 0.25269 0.64176 0.37779 0.0
C1021 C 0.22592 0.56386 0.36249 0.0
N1022 N 0.28545 0.64161 0.31362 0.0
N1023 N 0.2064 0.55801 0.43174 0.0
H1024 H 0.20682 0.51958 0.32254 0.0
H1025 H 0.18696 0.51484 0.37014 0.0
H1026 H 0.20254 0.56926 0.46042 0.0
H1027 H 0.19949 0.52801 0.42913 0.0
H1028 H 0.30077 0.66791 0.31901 0.0
H1029 H 0.29004 0.62956 0.28544 0.0
H1030 H 0.2671 0.7004 0.35953 0.0
H1031 H 0.24801 0.69706 0.40726 0.0
C1032 C 0.91678 0.22145 0.1045 0.0
C1033 C 0.90312 0.25985 0.09443 0.0
C1034 C 0.92661 0.28291 0.16048 0.0
C1035 C 0.93285 0.24278 0.17235 0.0
N1036 N 0.92093 0.17378 0.15727 0.0
N1037 N 0.89276 0.32805 0.11594 0.0
C1038 C 0.92356 0.21213 0.14478 0.0
C1039 C 0.90734 0.29097 0.12325 0.0
N1040 N 0.92393 0.19389 0.07547 0.0
N1041 N 0.94076 0.31345 0.18315 0.0
H1042 H 0.88223 0.33703 0.08843 0.0
H1043 H 0.88991 0.34965 0.13803 0.0
H1044 H 0.95485 0.3095 0.21034 0.0
H1045 H 0.94121 0.34277 0.17335 0.0
H1046 H 0.93674 0.1663 0.08133 0.0
H1047 H 0.92189 0.20071 0.04529 0.0
H1048 H 0.91486 0.15015 0.13822 0.0
H1049 H 0.92015 0.16671 0.18736 0.0
C1050 C 0.22235 0.45532 0.64884 0.0
C1051 C 0.24036 0.434 0.68042 0.0
C1052 C 0.2359 0.37384 0.64003 0.0
C1053 C 0.22978 0.3973 0.60548 0.0
N1054 N 0.21416 0.46141 0.57752 0.0
N1055 N 0.26267 0.37158 0.70677 0.0
C1056 C 0.22143 0.43835 0.61 0.0
C1057 C 0.24599 0.39264 0.67651 0.0
N1058 N 0.20535 0.49129 0.65648 0.0
N1059 N 0.23074 0.33374 0.63828 0.0
H1060 H 0.26905 0.3845 0.7342 0.0
H1061 H 0.27173 0.3421 0.70374 0.0
H1062 H 0.22366 0.31906 0.61194 0.0
H1063 H 0.23081 0.31573 0.66341 0.0
H1064 H 0.18962 0.50761 0.63545 0.0
H1065 H 0.20243 0.50182 0.68546 0.0
H1066 H 0.21061 0.49207 0.57908 0.0
H1067 H 0.21379 0.45029 0.54862 0.0
C1068 C 0.09438 0.7211 0.12683 0.0
C1069 C 0.1189 0.75169 0.11059 0.0
C1070 C 0.11303 0.78796 0.17427 0.0
C1071 C 0.08428 0.76095 0.18776 0.0
N1072 N 0.0449 0.70273 0.17625 0.0
N1073 N 0.14002 0.82089 0.11739 0.0
C1074 C 0.07476 0.72728 0.16422 0.0
C1075 C 0.12521 0.78698 0.13385 0.0
N1076 N 0.08796 0.68693 0.10582 0.0
N1077 N 0.12708 0.81606 0.20009 0.0
H1078 H 0.14547 0.82484 0.08744 0.0
H1079 H 0.14166 0.84777 0.1327 0.0
H1080 H 0.11902 0.81636 0.23008 0.0
H1081 H 0.14908 0.83648 0.19305 0.0
H1082 H 0.0755 0.6616 0.11829 0.0
H1083 H 0.09556 0.68346 0.07602 0.0
H1084 H 0.03239 0.68088 0.15826 0.0
H1085 H 0.03129 0.70552 0.20395 0.0
C1086 C 0.74001 0.61652 0.6755 0.0
C1087 C 0.76706 0.58599 0.68516 0.0
C1088 C 0.80156 0.59582 0.62189 0.0
C1089 C 0.77357 0.62567 0.6113 0.0
N1090 N 0.73116 0.67678 0.63876 0.0
N1091 N 0.83303 0.56083 0.67652 0.0
C1092 C 0.74664 0.63955 0.64098 0.0
C1093 C 0.80096 0.58007 0.66116 0.0
N1094 N 0.7087 0.62439 0.70006 0.0
N1095 N 0.82763 0.58129 0.59435 0.0
H1096 H 0.83337 0.55092 0.70588 0.0
H1097 H 0.8601 0.55863 0.66165 0.0
H1098 H 0.82827 0.59111 0.56501 0.0
H1099 H 0.84623 0.55716 0.59994 0.0
H1100 H 0.68511 0.64281 0.69204 0.0
H1101 H 0.70631 0.6116 0.72816 0.0
H1102 H 0.71271 0.68919 0.66036 0.0
H1103 H 0.74339 0.6975 0.61976 0.0
C1104 C 0.87879 0.94694 0.79386 0.0
C1105 C 0.84481 0.93641 0.77005 0.0
C1106 C 0.88906 0.89989 0.72445 0.0
C1107 C 0.92131 0.90663 0.75058 0.0
N1108 N 0.95071 0.94708 0.8009 0.0
N1109 N 0.81767 0.89792 0.7158 0.0
C1110 C 0.91714 0.93315 0.78268 0.0
C1111 C 0.85009 0.91194 0.73587 0.0
N1112 N 0.87503 0.96881 0.82802 0.0
N1113 N 0.89601 0.88373 0.68788 0.0
H1114 H 0.78856 0.9046 0.72398 0.0
H1115 H 0.81935 0.87644 0.69353 0.0
H1116 H 0.92467 0.87914 0.67733 0.0
H1117 H 0.87433 0.88047 0.66607 0.0
H1118 H 0.89704 0.97024 0.8497 0.0
H1119 H 0.85002 0.98443 0.83674 0.0
H1120 H 0.95103 0.9704 0.82128 0.0
H1121 H 0.97914 0.93822 0.79214 0.0
C1122 C 0.60345 0.34844 0.23708 0.0
C1123 C 0.57305 0.35071 0.26633 0.0
C1124 C 0.58062 0.42354 0.26892 0.0
C1125 C 0.61339 0.42046 0.24323 0.0
N1126 N 0.64757 0.38385 0.1925 0.0
N1127 N 0.53497 0.39138 0.31304 0.0
C1128 C 0.62229 0.38399 0.22413 0.0
C1129 C 0.56188 0.38854 0.28273 0.0
N1130 N 0.6164 0.31216 0.22396 0.0
N1131 N 0.56657 0.4604 0.27894 0.0
H1132 H 0.51886 0.36787 0.32421 0.0
H1133 H 0.53052 0.41706 0.32977 0.0
H1134 H 0.57944 0.48641 0.2683 0.0
H1135 H 0.53985 0.46538 0.2937 0.0
H1136 H 0.64141 0.30811 0.20623 0.0
H1137 H 0.60407 0.28543 0.23334 0.0
H1138 H 0.65323 0.35913 0.17472 0.0
H1139 H 0.65943 0.41001 0.18133 0.0
C1140 C 0.16548 0.10249 0.73057 0.0
C1141 C 0.16682 0.07378 0.76141 0.0
C1142 C 0.09388 0.06952 0.75964 0.0
C1143 C 0.09229 0.10194 0.73334 0.0
N1144 N 0.12647 0.13587 0.68012 0.0
N1145 N 0.12998 0.03462 0.81002 0.0
C1146 C 0.12802 0.11474 0.71467 0.0
C1147 C 0.13049 0.05835 0.77712 0.0
N1148 N 0.19994 0.11995 0.71824 0.0
N1149 N 0.06027 0.04784 0.76615 0.0
H1150 H 0.15477 0.02574 0.82587 0.0
H1151 H 0.1039 0.02705 0.82478 0.0
H1152 H 0.03366 0.0541 0.75156 0.0
H1153 H 0.06008 0.02094 0.78135 0.0
H1154 H 0.20086 0.14459 0.69967 0.0
H1155 H 0.22774 0.11226 0.72958 0.0
H1156 H 0.15141 0.14316 0.66345 0.0
H1157 H 0.10034 0.14123 0.66461 0.0
C1158 C 0.38375 0.64066 0.2422 0.0
C1159 C 0.40419 0.60366 0.24221 0.0
C1160 C 0.46711 0.63936 0.24453 0.0
C1161 C 0.44663 0.67512 0.25377 0.0
N1162 N 0.38464 0.71009 0.26117 0.0
N1163 N 0.4661 0.56752 0.24526 0.0
C1164 C 0.40466 0.67606 0.25187 0.0
C1165 C 0.44617 0.60287 0.24333 0.0
N1166 N 0.34455 0.64201 0.23206 0.0
N1167 N 0.50653 0.64065 0.23572 0.0
H1168 H 0.4519 0.54006 0.24442 0.0
H1169 H 0.49649 0.56553 0.25073 0.0
H1170 H 0.52135 0.66757 0.23333 0.0
H1171 H 0.52261 0.61613 0.22568 0.0
H1172 H 0.329 0.6684 0.22757 0.0
H1173 H 0.32851 0.61661 0.22478 0.0
H1174 H 0.354 0.7113 0.26533 0.0
H1175 H 0.39917 0.73674 0.26671 0.0
C1176 C 0.85551 0.07831 0.28761 0.0
C1177 C 0.84322 0.07381 0.24729 0.0
C1178 C 0.91138 0.08691 0.22648 0.0
C1179 C 0.92215 0.09975 0.26507 0.0
N1180 N 0.90102 0.11035 0.33337 0.0
N1181 N 0.85841 0.08807 0.17884 0.0
C1182 C 0.89332 0.09622 0.29614 0.0
C1183 C 0.87091 0.08279 0.21696 0.0
N1184 N 0.83259 0.06401 0.31774 0.0
N1185 N 0.93981 0.0785 0.19875 0.0
H1186 H 0.82835 0.09051 0.17204 0.0
H1187 H 0.87759 0.09503 0.15563 0.0
H1188 H 0.97004 0.07854 0.20567 0.0
H1189 H 0.93299 0.06686 0.1708 0.0
H1190 H 0.84243 0.06267 0.34708 0.0
H1191 H 0.80522 0.05049 0.31318 0.0
H1192 H 0.87911 0.11305 0.35511 0.0
H1193 H 0.92853 0.121 0.34224 0.0
C1194 C 0.40889 0.34391 0.77209 0.0
C1195 C 0.43418 0.343 0.73815 0.0
C1196 C 0.42875 0.41595 0.7332 0.0
C1197 C 0.40123 0.41603 0.76473 0.0
N1198 N 0.37553 0.38371 0.8225 0.0
N1199 N 0.46615 0.37954 0.68425 0.0
C1200 C 0.39443 0.38104 0.78674 0.0
C1201 C 0.4438 0.37937 0.71822 0.0
N1202 N 0.39647 0.30907 0.78868 0.0
N1203 N 0.44213 0.45155 0.7191 0.0
H1204 H 0.48132 0.35539 0.67267 0.0
H1205 H 0.46798 0.40386 0.66537 0.0
H1206 H 0.43246 0.47864 0.73078 0.0
H1207 H 0.4658 0.45456 0.69947 0.0
H1208 H 0.37465 0.3074 0.8105 0.0
H1209 H 0.40528 0.28127 0.77816 0.0
H1210 H 0.37255 0.36011 0.84215 0.0
H1211 H 0.36664 0.41087 0.83443 0.0
C1212 C 0.13385 0.95794 0.23814 0.0
C1213 C 0.17006 0.94244 0.25458 0.0
C1214 C 0.13087 0.901 0.29991 0.0
C1215 C 0.09583 0.9126 0.27977 0.0
N1216 N 0.06196 0.95504 0.234 0.0
N1217 N 0.20292 0.89787 0.29993 0.0
C1218 C 0.09682 0.94278 0.25097 0.0
C1219 C 0.1685 0.91403 0.28566 0.0
N1220 N 0.13427 0.98726 0.21021 0.0
N1221 N 0.12779 0.87804 0.33307 0.0
H1222 H 0.2309 0.90631 0.28989 0.0
H1223 H 0.20394 0.87406 0.31952 0.0
H1224 H 0.1003 0.87065 0.345 0.0
H1225 H 0.15163 0.87027 0.35114 0.0
H1226 H 0.1104 0.00631 0.20519 0.0
H1227 H 0.1576 0.9922 0.19086 0.0
H1228 H 0.06003 0.97212 0.20836 0.0
H1229 H 0.03434 0.94717 0.24553 0.0
C1230 C 0.57372 0.63466 0.7137 0.0
C1231 C 0.58129 0.66916 0.73783 0.0
C1232 C 0.62096 0.62781 0.78322 0.0
C1233 C 0.61656 0.59464 0.75735 0.0
N1234 N 0.58063 0.56329 0.70446 0.0
N1235 N 0.6193 0.69938 0.79055 0.0
C1236 C 0.59102 0.5974 0.7241 0.0
C1237 C 0.60668 0.66583 0.77136 0.0
N1238 N 0.55065 0.63703 0.68031 0.0
N1239 N 0.637 0.62281 0.8201 0.0
H1240 H 0.61102 0.72792 0.78189 0.0
H1241 H 0.64143 0.69929 0.81218 0.0
H1242 H 0.64377 0.59502 0.83144 0.0
H1243 H 0.63805 0.64515 0.84155 0.0
H1244 H 0.55115 0.61594 0.65764 0.0
H1245 H 0.53144 0.66014 0.67372 0.0
H1246 H 0.55844 0.56144 0.68304 0.0
H1247 H 0.5915 0.53544 0.71243 0.0
C1248 C 0.75701 0.91566 0.93645 0.0
C1249 C 0.73612 0.9149 0.90013 0.0
C1250 C 0.73288 0.84189 0.90487 0.0
C1251 C 0.76056 0.84286 0.93659 0.0
N1252 N 0.80558 0.88338 0.97698 0.0
N1253 N 0.70841 0.87528 0.84653 0.0
C1254 C 0.77469 0.8804 0.95077 0.0
C1255 C 0.72455 0.87752 0.88365 0.0
N1256 N 0.75929 0.95007 0.95794 0.0
N1257 N 0.71554 0.80685 0.89397 0.0
H1258 H 0.70326 0.8998 0.82873 0.0
H1259 H 0.70357 0.8485 0.83178 0.0
H1260 H 0.72321 0.77958 0.90639 0.0
H1261 H 0.69154 0.8053 0.87446 0.0
H1262 H 0.77149 0.95154 0.98639 0.0
H1263 H 0.7443 0.97581 0.94953 0.0
H1264 H 0.81873 0.91046 0.98417 0.0
H1265 H 0.82157 0.85971 0.98828 0.0
C1266 C 0.7898 0.1541 0.09888 0.0
C1267 C 0.75804 0.17864 0.08728 0.0
C1268 C 0.7127 0.12412 0.10502 0.0
C1269 C 0.74615 0.09759 0.10816 0.0
N1270 N 0.81528 0.0881 0.09075 0.0
N1271 N 0.68744 0.18684 0.07928 0.0
C1272 C 0.78435 0.11284 0.09978 0.0
C1273 C 0.71878 0.16385 0.09082 0.0
N1274 N 0.82578 0.17031 0.1073 0.0
N1275 N 0.67543 0.11243 0.11569 0.0
H1276 H 0.6906 0.21652 0.07133 0.0
H1277 H 0.65874 0.1759 0.07586 0.0
H1278 H 0.66743 0.08335 0.12155 0.0
H1279 H 0.6521 0.13241 0.11981 0.0
H1280 H 0.84966 0.15322 0.11698 0.0
H1281 H 0.82935 0.20103 0.10931 0.0
H1282 H 0.84308 0.09876 0.08232 0.0
H1283 H 0.81154 0.05757 0.08685 0.0
C1284 C 0.3926 0.28033 0.61316 0.0
C1285 C 0.4124 0.2434 0.60673 0.0
C1286 C 0.35167 0.21906 0.57323 0.0
C1287 C 0.33142 0.25444 0.58452 0.0
N1288 N 0.32987 0.31185 0.6268 0.0
N1289 N 0.40932 0.1763 0.58098 0.0
C1290 C 0.351 0.28213 0.60911 0.0
C1291 C 0.39121 0.21207 0.58744 0.0
N1292 N 0.41289 0.31482 0.61985 0.0
N1293 N 0.33433 0.19342 0.54698 0.0
H1294 H 0.43965 0.17174 0.58522 0.0
H1295 H 0.39399 0.15096 0.57209 0.0
H1296 H 0.30506 0.19652 0.53746 0.0
H1297 H 0.34946 0.17007 0.53331 0.0
H1298 H 0.39878 0.34232 0.62233 0.0
H1299 H 0.44332 0.31791 0.61639 0.0
H1300 H 0.34207 0.33117 0.64779 0.0
H1301 H 0.2993 0.31385 0.62334 0.0
C1302 C 0.29647 0.85623 0.07809 0.0
C1303 C 0.26561 0.83126 0.09247 0.0
C1304 C 0.25688 0.87733 0.14784 0.0
C1305 C 0.27598 0.90741 0.12523 0.0
N1306 N 0.31696 0.92451 0.06914 0.0
N1307 N 0.22574 0.81216 0.14802 0.0
C1308 C 0.29711 0.89651 0.09059 0.0
C1309 C 0.24838 0.84014 0.12963 0.0
N1310 N 0.32496 0.84191 0.05296 0.0
N1311 N 0.24994 0.88334 0.18725 0.0
H1312 H 0.22223 0.78363 0.13631 0.0
H1313 H 0.21082 0.81694 0.17461 0.0
H1314 H 0.26201 0.90768 0.20188 0.0
H1315 H 0.23761 0.86237 0.20619 0.0
H1316 H 0.3488 0.85899 0.04328 0.0
H1317 H 0.32844 0.81179 0.04688 0.0
H1318 H 0.32942 0.91862 0.04138 0.0
H1319 H 0.31812 0.95432 0.0776 0.0
C1320 C 0.62932 0.73827 0.56641 0.0
C1321 C 0.66515 0.75715 0.57989 0.0
C1322 C 0.62461 0.80437 0.6188 0.0
C1323 C 0.58975 0.78301 0.60782 0.0
N1324 N 0.55849 0.74496 0.55643 0.0
N1325 N 0.69667 0.80467 0.62318 0.0
C1326 C 0.5921 0.75461 0.57714 0.0
C1327 C 0.66266 0.78962 0.60687 0.0
N1328 N 0.62976 0.70386 0.54464 0.0
N1329 N 0.6215 0.84019 0.63778 0.0
H1330 H 0.72489 0.79405 0.61595 0.0
H1331 H 0.69696 0.82487 0.64667 0.0
H1332 H 0.59466 0.85495 0.64188 0.0
H1333 H 0.64563 0.85836 0.64413 0.0
H1334 H 0.60438 0.68686 0.53987 0.0
H1335 H 0.65467 0.68922 0.53415 0.0
H1336 H 0.55858 0.7275 0.5308 0.0
H1337 H 0.5314 0.7593 0.56142 0.0
C1338 C 0.29739 0.15234 0.94495 0.0
C1339 C 0.26657 0.179 0.93431 0.0
C1340 C 0.23647 0.12812 0.89236 0.0
C1341 C 0.269 0.10196 0.89975 0.0
N1342 N 0.33189 0.09017 0.93242 0.0
N1343 N 0.21399 0.19653 0.8897 0.0
C1344 C 0.30025 0.11466 0.92545 0.0
C1345 C 0.23893 0.16829 0.90478 0.0
N1346 N 0.32256 0.16231 0.97521 0.0
N1347 N 0.20189 0.11441 0.87632 0.0
H1348 H 0.21568 0.22625 0.89851 0.0
H1349 H 0.19507 0.19132 0.86573 0.0
H1350 H 0.19573 0.08442 0.87315 0.0
H1351 H 0.17675 0.13211 0.87256 0.0
H1352 H 0.3424 0.14252 0.98829 0.0
H1353 H 0.32232 0.19043 0.98836 0.0
H1354 H 0.35777 0.09947 0.94655 0.0
H1355 H 0.33267 0.06057 0.92326 0.0
C1356 C 0.37846 0.72525 0.45128 0.0
C1357 C 0.34297 0.74616 0.43997 0.0
C1358 C 0.38384 0.79125 0.39969 0.0
C1359 C 0.41769 0.76682 0.40627 0.0
N1360 N 0.44849 0.71235 0.44047 0.0
N1361 N 0.31192 0.79599 0.39907 0.0
C1362 C 0.41529 0.73467 0.43302 0.0
C1363 C 0.34577 0.7786 0.41328 0.0
N1364 N 0.37788 0.69702 0.48037 0.0
N1365 N 0.38808 0.82703 0.38133 0.0
H1366 H 0.28354 0.78701 0.40747 0.0
H1367 H 0.3118 0.81664 0.3761 0.0
H1368 H 0.41562 0.83821 0.37327 0.0
H1369 H 0.36517 0.84765 0.37855 0.0
H1370 H 0.40319 0.68778 0.49558 0.0
H1371 H 0.35269 0.68288 0.49055 0.0
H1372 H 0.44788 0.68444 0.45368 0.0
H1373 H 0.47695 0.7213 0.43224 0.0
C1374 C 0.60906 0.24397 0.44033 0.0
C1375 C 0.60348 0.25341 0.39991 0.0
C1376 C 0.67438 0.2692 0.39341 0.0
C1377 C 0.68012 0.25839 0.43366 0.0
N1378 N 0.65499 0.22102 0.48992 0.0
N1379 N 0.63216 0.26595 0.33525 0.0
C1380 C 0.64819 0.24138 0.45557 0.0
C1381 C 0.63657 0.26336 0.37554 0.0
N1382 N 0.57699 0.23757 0.46433 0.0
N1383 N 0.70531 0.28466 0.37228 0.0
H1384 H 0.60552 0.2598 0.3209 0.0
H1385 H 0.65561 0.2698 0.31552 0.0
H1386 H 0.73411 0.28612 0.38357 0.0
H1387 H 0.7024 0.29713 0.34419 0.0
H1388 H 0.57915 0.23535 0.49515 0.0
H1389 H 0.54786 0.23802 0.45385 0.0
H1390 H 0.63288 0.2056 0.50498 0.0
H1391 H 0.68313 0.21413 0.50036 0.0
C1392 C 0.10767 0.25428 0.43371 0.0
C1393 C 0.14792 0.25998 0.42277 0.0
C1394 C 0.12828 0.25486 0.35204 0.0
C1395 C 0.08764 0.25125 0.36346 0.0
N1396 N 0.03871 0.26037 0.41493 0.0
N1397 N 0.19775 0.25593 0.37157 0.0
C1398 C 0.07746 0.25455 0.40428 0.0
C1399 C 0.15861 0.25761 0.38189 0.0
N1400 N 0.09855 0.24569 0.47228 0.0
N1401 N 0.13794 0.25762 0.31275 0.0
H1402 H 0.22055 0.25843 0.39212 0.0
H1403 H 0.208 0.24892 0.34323 0.0
H1404 H 0.11713 0.25606 0.29014 0.0
H1405 H 0.166 0.26508 0.3023 0.0
H1406 H 0.07022 0.23754 0.48157 0.0
H1407 H 0.12038 0.24171 0.49391 0.0
H1408 H 0.02983 0.26665 0.44396 0.0
H1409 H 0.01608 0.26391 0.39405 0.0
C1410 C 0.22236 0.61268 0.92147 0.0
C1411 C 0.24036 0.65096 0.92137 0.0
C1412 C 0.27931 0.63059 0.86237 0.0
C1413 C 0.25872 0.5939 0.86104 0.0
N1414 N 0.20276 0.55528 0.88272 0.0
N1415 N 0.28114 0.69841 0.88655 0.0
C1416 C 0.22765 0.58673 0.88839 0.0
C1417 C 0.26764 0.66045 0.89041 0.0
N1418 N 0.20255 0.5996 0.95434 0.0
N1419 N 0.31012 0.63698 0.83678 0.0
H1420 H 0.27328 0.72103 0.90607 0.0
H1421 H 0.2973 0.70831 0.86216 0.0
H1422 H 0.31715 0.61741 0.81375 0.0
H1423 H 0.32979 0.66064 0.83953 0.0
H1424 H 0.19239 0.57056 0.95724 0.0
H1425 H 0.20061 0.61586 0.98065 0.0
H1426 H 0.17723 0.5509 0.89963 0.0
H1427 H 0.20552 0.53581 0.85869 0.0
C1428 C 0.91013 0.7333 0.37566 0.0
C1429 C 0.91225 0.77284 0.36189 0.0
C1430 C 0.85362 0.78976 0.40293 0.0
C1431 C 0.8522 0.74995 0.41726 0.0
N1432 N 0.86531 0.68196 0.39572 0.0
N1433 N 0.87773 0.83468 0.35207 0.0
C1434 C 0.87624 0.72095 0.39732 0.0
C1435 C 0.88171 0.8001 0.37276 0.0
N1436 N 0.94068 0.70735 0.36902 0.0
N1437 N 0.82697 0.81733 0.4163 0.0
H1438 H 0.89515 0.8409 0.32739 0.0
H1439 H 0.85442 0.85468 0.35598 0.0
H1440 H 0.80048 0.80972 0.43021 0.0
H1441 H 0.83079 0.84778 0.41258 0.0
H1442 H 0.9417 0.67928 0.38199 0.0
H1443 H 0.96656 0.71509 0.35398 0.0
H1444 H 0.8811 0.66076 0.37944 0.0
H1445 H 0.83728 0.67212 0.40399 0.0
C1446 C 0.74489 0.38253 0.85743 0.0
C1447 C 0.75167 0.42312 0.86692 0.0
C1448 C 0.75748 0.40577 0.93726 0.0
C1449 C 0.75695 0.36476 0.92762 0.0
N1450 N 0.7491 0.31355 0.87759 0.0
N1451 N 0.77227 0.47216 0.91491 0.0
C1452 C 0.7501 0.35289 0.88742 0.0
C1453 C 0.76029 0.43432 0.90659 0.0
N1454 N 0.73205 0.37251 0.82018 0.0
N1455 N 0.75293 0.41756 0.97586 0.0
H1456 H 0.77629 0.49347 0.89286 0.0
H1457 H 0.78225 0.48099 0.9429 0.0
H1458 H 0.7471 0.39737 0.99857 0.0
H1459 H 0.74978 0.44719 0.98438 0.0
H1460 H 0.72206 0.34433 0.81235 0.0
H1461 H 0.72845 0.39328 0.79757 0.0
H1462 H 0.74928 0.30302 0.84847 0.0
H1463 H 0.75002 0.29097 0.89848 0.0
C1464 C 0.10263 0.73985 0.58606 0.0
C1465 C 0.14355 0.74833 0.59163 0.0
C1466 C 0.1291 0.77049 0.66001 0.0
C1467 C 0.08903 0.75827 0.65532 0.0
N1468 N 0.03924 0.72481 0.61649 0.0
N1469 N 0.19685 0.7675 0.63547 0.0
C1470 C 0.07637 0.7409 0.61909 0.0
C1471 C 0.15713 0.76259 0.62906 0.0
N1472 N 0.08848 0.73243 0.54871 0.0
N1473 N 0.14002 0.79085 0.69347 0.0
H1474 H 0.21795 0.76317 0.61325 0.0
H1475 H 0.20906 0.77327 0.66332 0.0
H1476 H 0.12063 0.79591 0.71713 0.0
H1477 H 0.16741 0.80474 0.69678 0.0
H1478 H 0.05839 0.73004 0.54203 0.0
H1479 H 0.10653 0.7331 0.52362 0.0
H1480 H 0.02946 0.70833 0.59215 0.0
H1481 H 0.01951 0.72462 0.64037 0.0
C1482 C 0.73745 0.63326 0.15854 0.0
C1483 C 0.75865 0.59675 0.15895 0.0
C1484 C 0.78586 0.61138 0.09328 0.0
C1485 C 0.76741 0.64944 0.0938 0.0
N1486 N 0.73052 0.69913 0.1303 0.0
N1487 N 0.8109 0.55617 0.13186 0.0
C1488 C 0.74439 0.66111 0.12735 0.0
C1489 C 0.78545 0.58756 0.12797 0.0
N1490 N 0.71035 0.64109 0.18776 0.0
N1491 N 0.80207 0.59697 0.05888 0.0
H1492 H 0.81157 0.53848 0.15724 0.0
H1493 H 0.8337 0.55018 0.11177 0.0
H1494 H 0.80084 0.6124 0.03213 0.0
H1495 H 0.81247 0.56795 0.05581 0.0
H1496 H 0.69024 0.66461 0.18665 0.0
H1497 H 0.70698 0.62284 0.21251 0.0
H1498 H 0.71757 0.71076 0.15593 0.0
H1499 H 0.7344 0.72001 0.10795 0.0
C1500 C 0.90585 0.29041 0.59787 0.0
C1501 C 0.86721 0.27357 0.59746 0.0
C1502 C 0.88207 0.24087 0.66094 0.0
C1503 C 0.92039 0.25876 0.6615 0.0
N1504 N 0.95864 0.31536 0.63909 0.0
N1505 N 0.8153 0.24038 0.63386 0.0
C1506 C 0.92922 0.28826 0.63284 0.0
C1507 C 0.85432 0.25085 0.6305 0.0
N1508 N 0.92136 0.3069 0.56425 0.0
N1509 N 0.87195 0.21477 0.69011 0.0
H1510 H 0.79406 0.24749 0.61259 0.0
H1511 H 0.80316 0.22765 0.65923 0.0
H1512 H 0.88914 0.21139 0.71555 0.0
H1513 H 0.84729 0.19623 0.68875 0.0
H1514 H 0.95085 0.31605 0.56231 0.0
H1515 H 0.90648 0.30705 0.5371 0.0
H1516 H 0.96366 0.33905 0.61988 0.0
H1517 H 0.97439 0.31771 0.66555 0.0
C1518 C 0.25627 0.43488 0.11396 0.0
C1519 C 0.26793 0.42371 0.15274 0.0
C1520 C 0.26535 0.35349 0.13224 0.0
C1521 C 0.2577 0.36546 0.09225 0.0
N1522 N 0.26144 0.41851 0.04446 0.0
N1523 N 0.2903 0.37255 0.19744 0.0
C1524 C 0.25756 0.40648 0.08295 0.0
C1525 C 0.27433 0.38299 0.16161 0.0
N1526 N 0.2432 0.47257 0.10675 0.0
N1527 N 0.26298 0.31441 0.1427 0.0
H1528 H 0.29656 0.39319 0.21976 0.0
H1529 H 0.30007 0.34393 0.2039 0.0
H1530 H 0.25668 0.29168 0.12267 0.0
H1531 H 0.26392 0.30479 0.17207 0.0
H1532 H 0.23146 0.48123 0.07943 0.0
H1533 H 0.24007 0.49369 0.12929 0.0
H1534 H 0.26445 0.44823 0.03645 0.0
H1535 H 0.26723 0.39852 0.02142 0.0
C1536 C 0.36156 0.11687 0.27845 0.0
C1537 C 0.37048 0.0896 0.24781 0.0
C1538 C 0.43712 0.11923 0.24194 0.0
C1539 C 0.42871 0.14494 0.27465 0.0
N1540 N 0.38826 0.15038 0.33499 0.0
N1541 N 0.42075 0.05863 0.20656 0.0
C1542 C 0.39264 0.13875 0.29631 0.0
C1543 C 0.40927 0.08924 0.23087 0.0
N1544 N 0.32321 0.12272 0.29036 0.0
N1545 N 0.47287 0.12146 0.22304 0.0
H1546 H 0.40242 0.03495 0.19907 0.0
H1547 H 0.4498 0.05433 0.19688 0.0
H1548 H 0.49723 0.13571 0.23551 0.0
H1549 H 0.47831 0.10887 0.19524 0.0
H1550 H 0.31513 0.14518 0.31025 0.0
H1551 H 0.29925 0.10846 0.27697 0.0
H1552 H 0.36322 0.14321 0.3517 0.0
H1553 H 0.41074 0.16175 0.35265 0.0
C1554 C 0.35186 0.88829 0.74721 0.0
C1555 C 0.3655 0.9233 0.76659 0.0
C1556 C 0.42669 0.88813 0.78533 0.0
C1557 C 0.41677 0.85629 0.7596 0.0
N1558 N 0.36792 0.82397 0.7184 0.0
N1559 N 0.41983 0.95837 0.79771 0.0
C1560 C 0.37864 0.85584 0.74124 0.0
C1561 C 0.40408 0.92367 0.78374 0.0
N1562 N 0.31297 0.88517 0.73624 0.0
N1563 N 0.4564 0.88429 0.81264 0.0
H1564 H 0.40487 0.98545 0.79613 0.0
H1565 H 0.44933 0.9609 0.80676 0.0
H1566 H 0.47169 0.85788 0.81743 0.0
H1567 H 0.46231 0.90586 0.83413 0.0
H1568 H 0.29998 0.85889 0.72642 0.0
H1569 H 0.29275 0.90825 0.73967 0.0
H1570 H 0.34319 0.82375 0.69983 0.0
H1571 H 0.38467 0.79785 0.71729 0.0
C1572 C 0.65514 0.90167 0.275 0.0
C1573 C 0.64815 0.92627 0.24151 0.0
C1574 C 0.58823 0.88594 0.22798 0.0
C1575 C 0.59066 0.86972 0.26673 0.0
N1576 N 0.62385 0.87058 0.33058 0.0
N1577 N 0.6067 0.93785 0.18289 0.0
C1578 C 0.62313 0.88032 0.29138 0.0
C1579 C 0.61434 0.91732 0.21698 0.0
N1580 N 0.69251 0.89584 0.2897 0.0
N1581 N 0.5616 0.87103 0.20112 0.0
H1582 H 0.62756 0.95427 0.16748 0.0
H1583 H 0.57889 0.93792 0.16928 0.0
H1584 H 0.54094 0.84917 0.20797 0.0
H1585 H 0.56202 0.87816 0.17102 0.0
H1586 H 0.69829 0.87634 0.31303 0.0
H1587 H 0.71803 0.90412 0.27439 0.0
H1588 H 0.64607 0.88036 0.34986 0.0
H1589 H 0.60017 0.857 0.34451 0.0
C1590 C 0.60801 0.08731 0.77599 0.0
C1591 C 0.64647 0.08778 0.75856 0.0
C1592 C 0.62971 0.15097 0.72572 0.0
C1593 C 0.59148 0.15024 0.74386 0.0
N1594 N 0.55181 0.12517 0.7986 0.0
N1595 N 0.69606 0.12226 0.72049 0.0
C1596 C 0.58286 0.12085 0.77273 0.0
C1597 C 0.65792 0.12021 0.7342 0.0
N1598 N 0.59454 0.05404 0.7948 0.0
N1599 N 0.6394 0.18213 0.70168 0.0
H1600 H 0.71684 0.09987 0.72521 0.0
H1601 H 0.708 0.14649 0.7057 0.0
H1602 H 0.62127 0.20712 0.69864 0.0
H1603 H 0.66505 0.18363 0.6846 0.0
H1604 H 0.56497 0.05024 0.80309 0.0
H1605 H 0.61153 0.02854 0.79851 0.0
H1606 H 0.54781 0.10675 0.82309 0.0
H1607 H 0.53228 0.14903 0.79894 0.0
C1608 C 0.85854 0.74509 0.6325 0.0
C1609 C 0.86342 0.75835 0.59276 0.0
C1610 C 0.9297 0.7833 0.60963 0.0
C1611 C 0.92352 0.77286 0.65013 0.0
N1612 N 0.87874 0.75096 0.7014 0.0
N1613 N 0.90042 0.79635 0.54506 0.0
C1614 C 0.88699 0.75572 0.66195 0.0
C1615 C 0.89808 0.77936 0.58183 0.0
N1616 N 0.8275 0.72095 0.64181 0.0
N1617 N 0.96633 0.79546 0.59726 0.0
H1618 H 0.87776 0.79411 0.52403 0.0
H1619 H 0.92299 0.81567 0.53672 0.0
H1620 H 0.9904 0.79838 0.61638 0.0
H1621 H 0.97394 0.79905 0.5675 0.0
H1622 H 0.82473 0.70638 0.66892 0.0
H1623 H 0.80622 0.71299 0.62097 0.0
H1624 H 0.85094 0.74266 0.71202 0.0
H1625 H 0.89864 0.75871 0.72382 0.0
C1626 C 0.75358 0.35702 0.13022 0.0
C1627 C 0.77138 0.36736 0.09342 0.0
C1628 C 0.7684 0.43785 0.11212 0.0
C1629 C 0.75375 0.42736 0.15002 0.0
N1630 N 0.73878 0.37686 0.19816 0.0
N1631 N 0.80474 0.41738 0.0539 0.0
C1632 C 0.74814 0.38684 0.15996 0.0
C1633 C 0.78173 0.40763 0.08583 0.0
N1634 N 0.74195 0.31878 0.13683 0.0
N1635 N 0.76765 0.47659 0.1002 0.0
H1636 H 0.81448 0.39699 0.03279 0.0
H1637 H 0.81685 0.44554 0.05003 0.0
H1638 H 0.75692 0.49946 0.11815 0.0
H1639 H 0.77378 0.48546 0.07121 0.0
H1640 H 0.72476 0.31029 0.16106 0.0
H1641 H 0.74737 0.29579 0.11672 0.0
H1642 H 0.73813 0.34776 0.20846 0.0
H1643 H 0.73451 0.39802 0.2205 0.0
C1644 C 0.12827 0.23938 0.65623 0.0
C1645 C 0.08722 0.24677 0.64964 0.0
C1646 C 0.10249 0.2752 0.58428 0.0
C1647 C 0.14317 0.26489 0.58934 0.0
N1648 N 0.19454 0.23377 0.62839 0.0
N1649 N 0.03454 0.26703 0.60511 0.0
C1650 C 0.15596 0.24589 0.62481 0.0
C1651 C 0.0742 0.26321 0.613 0.0
N1652 N 0.14087 0.22628 0.69256 0.0
N1653 N 0.09067 0.29752 0.55246 0.0
H1654 H 0.01254 0.2623 0.62613 0.0
H1655 H 0.02315 0.27262 0.57689 0.0
H1656 H 0.10908 0.30477 0.52882 0.0
H1657 H 0.06294 0.31114 0.5505 0.0
H1658 H 0.17057 0.22504 0.70104 0.0
H1659 H 0.12158 0.21845 0.71542 0.0
H1660 H 0.20487 0.21563 0.65115 0.0
H1661 H 0.21602 0.23967 0.60706 0.0
C1662 C 0.25141 0.62562 0.15752 0.0
C1663 C 0.27109 0.59004 0.14579 0.0
C1664 C 0.27773 0.61618 0.07763 0.0
C1665 C 0.25535 0.65008 0.08867 0.0
N1666 N 0.21781 0.6864 0.13776 0.0
N1667 N 0.29922 0.54944 0.09344 0.0
C1668 C 0.24134 0.65461 0.12827 0.0
C1669 C 0.28334 0.58488 0.1055 0.0
N1670 N 0.24408 0.63261 0.19687 0.0
N1671 N 0.2944 0.61433 0.04058 0.0
H1672 H 0.30472 0.52603 0.11271 0.0
H1673 H 0.30405 0.54181 0.06383 0.0
H1674 H 0.29041 0.63645 0.01931 0.0
H1675 H 0.3148 0.59274 0.03184 0.0
H1676 H 0.23423 0.65976 0.20806 0.0
H1677 H 0.25065 0.61209 0.219 0.0
H1678 H 0.20228 0.68902 0.1644 0.0
H1679 H 0.21217 0.70951 0.118 0.0
C1680 C 0.85981 0.26896 0.38749 0.0
C1681 C 0.86744 0.25766 0.42743 0.0
C1682 C 0.92921 0.22475 0.40681 0.0
C1683 C 0.92309 0.23802 0.36693 0.0
N1684 N 0.88367 0.27435 0.31944 0.0
N1685 N 0.91118 0.22964 0.47649 0.0
C1686 C 0.8887 0.26072 0.35736 0.0
C1687 C 0.90257 0.23682 0.43739 0.0
N1688 N 0.82466 0.28731 0.37846 0.0
N1689 N 0.96025 0.20007 0.41573 0.0
H1690 H 0.89141 0.23564 0.4996 0.0
H1691 H 0.93886 0.22012 0.48649 0.0
H1692 H 0.98297 0.19306 0.3961 0.0
H1693 H 0.96262 0.1846 0.44236 0.0
H1694 H 0.81498 0.29319 0.34973 0.0
H1695 H 0.80365 0.29489 0.39995 0.0
H1696 H 0.86192 0.29464 0.3111 0.0
H1697 H 0.90252 0.26668 0.29609 0.0
C1698 C 0.2378 0.40671 0.9314 0.0
C1699 C 0.25136 0.36688 0.92586 0.0
C1700 C 0.27468 0.38476 0.85904 0.0
C1701 C 0.26515 0.42519 0.86674 0.0
N1702 N 0.24719 0.47564 0.91447 0.0
N1703 N 0.28565 0.31855 0.88533 0.0
C1704 C 0.24922 0.43645 0.90401 0.0
C1705 C 0.27089 0.35611 0.88998 0.0
N1706 N 0.21346 0.41651 0.96244 0.0
N1707 N 0.28627 0.37363 0.82171 0.0
H1708 H 0.28178 0.29632 0.90642 0.0
H1709 H 0.30397 0.31008 0.86184 0.0
H1710 H 0.29013 0.39403 0.79882 0.0
H1711 H 0.28955 0.34421 0.81266 0.0
H1712 H 0.19898 0.44383 0.96458 0.0
H1713 H 0.20514 0.39682 0.98457 0.0
H1714 H 0.24004 0.48536 0.94303 0.0
H1715 H 0.25682 0.4983 0.89592 0.0
C1716 C 0.11636 0.78501 0.43669 0.0
C1717 C 0.14558 0.75685 0.42521 0.0
C1718 C 0.11489 0.75222 0.35931 0.0
C1719 C 0.08266 0.77595 0.37244 0.0
N1720 N 0.04899 0.80837 0.42714 0.0
N1721 N 0.16488 0.7053 0.37894 0.0
C1722 C 0.08239 0.79071 0.41215 0.0
C1723 C 0.14267 0.73805 0.38747 0.0
N1724 N 0.12087 0.80612 0.47113 0.0
N1725 N 0.12023 0.74447 0.31985 0.0
H1726 H 0.18332 0.69244 0.39985 0.0
H1727 H 0.1612 0.68843 0.35316 0.0
H1728 H 0.10198 0.75639 0.29804 0.0
H1729 H 0.14545 0.73026 0.30872 0.0
H1730 H 0.10239 0.82968 0.47915 0.0
H1731 H 0.14529 0.8025 0.48983 0.0
H1732 H 0.04584 0.81623 0.45694 0.0
H1733 H 0.02277 0.81118 0.41089 0.0
C1734 C 0.76963 0.62467 0.85661 0.0
C1735 C 0.74762 0.59045 0.86755 0.0
C1736 C 0.73771 0.61849 0.93454 0.0
C1737 C 0.76288 0.65057 0.92476 0.0
N1738 N 0.8057 0.6834 0.87798 0.0
N1739 N 0.7149 0.55234 0.91874 0.0
C1740 C 0.77967 0.65345 0.88617 0.0
C1741 C 0.73266 0.5868 0.90698 0.0
N1742 N 0.77927 0.63064 0.81764 0.0
N1743 N 0.71785 0.61875 0.97 0.0
H1744 H 0.70991 0.52852 0.89971 0.0
H1745 H 0.70814 0.54584 0.94818 0.0
H1746 H 0.72109 0.64128 0.99106 0.0
H1747 H 0.69552 0.5987 0.97715 0.0
H1748 H 0.79146 0.65688 0.80696 0.0
H1749 H 0.77208 0.61052 0.79522 0.0
H1750 H 0.82296 0.68442 0.85233 0.0
H1751 H 0.81165 0.70636 0.89797 0.0
C1752 C 0.57771 0.9046 0.75415 0.0
C1753 C 0.58714 0.86395 0.74771 0.0
C1754 C 0.65838 0.88103 0.75058 0.0
C1755 C 0.64811 0.92188 0.75547 0.0
N1756 N 0.59863 0.97194 0.74288 0.0
N1757 N 0.63695 0.81552 0.72897 0.0
C1758 C 0.60793 0.93344 0.75144 0.0
C1759 C 0.62769 0.85261 0.74286 0.0
N1760 N 0.54004 0.91591 0.76409 0.0
N1761 N 0.697 0.86902 0.75386 0.0
H1762 H 0.61561 0.79429 0.72192 0.0
H1763 H 0.66551 0.80707 0.72059 0.0
H1764 H 0.7205 0.88849 0.75837 0.0
H1765 H 0.70552 0.8393 0.75502 0.0
H1766 H 0.53276 0.94489 0.77242 0.0
H1767 H 0.51722 0.89564 0.76833 0.0
H1768 H 0.5698 0.98135 0.73656 0.0
H1769 H 0.62044 0.99307 0.73697 0.0
C1770 C 0.59124 0.1396 0.22587 0.0
C1771 C 0.59542 0.16044 0.2623 0.0
C1772 C 0.65968 0.12629 0.27243 0.0
C1773 C 0.65145 0.10037 0.24023 0.0
N1774 N 0.60233 0.07701 0.19279 0.0
N1775 N 0.63306 0.16977 0.32281 0.0
C1776 C 0.61543 0.10568 0.21845 0.0
C1777 C 0.62943 0.15253 0.28638 0.0
N1778 N 0.56409 0.15161 0.19826 0.0
N1779 N 0.69684 0.12734 0.28872 0.0
H1780 H 0.61298 0.19059 0.33311 0.0
H1781 H 0.65453 0.16147 0.34352 0.0
H1782 H 0.72034 0.11006 0.27822 0.0
H1783 H 0.70549 0.14852 0.30964 0.0
H1784 H 0.56278 0.13939 0.16976 0.0
H1785 H 0.54559 0.17612 0.20227 0.0
H1786 H 0.57456 0.07823 0.17914 0.0
H1787 H 0.61636 0.04966 0.18916 0.0
C1788 C 0.35279 0.1338 0.75959 0.0
C1789 C 0.36164 0.09267 0.7561 0.0
C1790 C 0.43166 0.10842 0.74585 0.0
C1791 C 0.42276 0.14981 0.74513 0.0
N1792 N 0.37212 0.20088 0.74226 0.0
N1793 N 0.4073 0.04203 0.73422 0.0
C1794 C 0.38252 0.16237 0.74961 0.0
C1795 C 0.40042 0.08044 0.74557 0.0
N1796 N 0.31652 0.14566 0.77344 0.0
N1797 N 0.47008 0.09552 0.74817 0.0
H1798 H 0.38465 0.02109 0.73199 0.0
H1799 H 0.43439 0.0323 0.72273 0.0
H1800 H 0.49412 0.11472 0.74968 0.0
H1801 H 0.47775 0.06591 0.75295 0.0
H1802 H 0.30996 0.17504 0.78078 0.0
H1803 H 0.29393 0.12568 0.78026 0.0
H1804 H 0.34273 0.21057 0.7413 0.0
H1805 H 0.3924 0.22233 0.73327 0.0
C1806 C 0.38482 0.85465 0.27173 0.0
C1807 C 0.42564 0.86314 0.26557 0.0
C1808 C 0.40865 0.9333 0.25639 0.0
C1809 C 0.36757 0.92385 0.25551 0.0
N1810 N 0.31658 0.87334 0.26036 0.0
N1811 N 0.47605 0.91053 0.24737 0.0
C1812 C 0.35558 0.88393 0.26271 0.0
C1813 C 0.43734 0.90237 0.25597 0.0
N1814 N 0.37391 0.8191 0.28779 0.0
N1815 N 0.42033 0.97193 0.2607 0.0
H1816 H 0.49821 0.88906 0.24805 0.0
H1817 H 0.48538 0.93776 0.23615 0.0
H1818 H 0.40019 0.99504 0.26545 0.0
H1819 H 0.44978 0.98035 0.26494 0.0
H1820 H 0.3452 0.81299 0.29748 0.0
H1821 H 0.39433 0.79697 0.29489 0.0
H1822 H 0.30716 0.84391 0.25932 0.0
H1823 H 0.29357 0.89361 0.25769 0.0
loop_
_geom_bond_atom_site_label_1
_geom_bond_atom_site_label_2
_geom_bond_distance
_geom_bond_site_symmetry_2
_ccdc_geom_bond_type
Fe0 O2 1.918 . S
Fe0 O5 1.997 . S
Fe0 O6 2.002 . S
Fe0 O11 1.976 1_455 S
Fe0 O14 1.996 1_455 S
Fe1 O2 1.918 . S
Fe1 O9 1.997 . S
Fe1 O12 1.996 1_455 S
Fe1 O16 1.976 1_455 S
Fe1 O19 2.002 . S
O2 Fe0 1.918 . S
O2 Fe1 1.918 . S
O2 Fe3 1.918 . S
Fe3 O2 1.918 . S
Fe3 O4 2.002 . S
Fe3 O13 1.976 1_455 S
Fe3 O17 1.996 1_455 S
Fe3 O20 1.997 . S
O4 Fe3 2.002 . S
O4 C21 1.295 . S
O5 Fe0 1.997 . S
O5 C21 1.235 . S
O6 Fe0 2.002 . S
O6 C7 1.295 . S
C7 O6 1.295 . S
C7 O9 1.235 . S
C8 O13 1.287 . S
C8 O14 1.255 . S
O9 Fe1 1.997 . S
O9 C7 1.235 . S
C10 O16 1.287 . S
C10 O17 1.255 . S
O11 Fe0 1.976 1_655 S
O11 C18 1.287 . S
O12 Fe1 1.996 1_655 S
O12 C18 1.255 . S
O13 Fe3 1.976 1_655 S
O13 C8 1.287 . S
O14 Fe0 1.996 1_655 S
O14 C8 1.255 . S
C15 O19 1.295 . S
C15 O20 1.235 . S
O16 Fe1 1.976 1_655 S
O16 C10 1.287 . S
O17 Fe3 1.996 1_655 S
O17 C10 1.255 . S
C18 O11 1.287 . S
C18 O12 1.255 . S
O19 Fe1 2.002 . S
O19 C15 1.295 . S
O20 Fe3 1.997 . S
O20 C15 1.235 . S
C21 O4 1.295 . S
C21 O5 1.235 . S
Fe22 O24 1.918 . S
Fe22 O27 1.997 . S
Fe22 O28 2.002 . S
Fe22 O33 1.976 . S
Fe22 O36 1.996 . S
Fe23 O24 1.918 . S
Fe23 O31 1.997 . S
Fe23 O34 1.996 . S
Fe23 O38 1.976 . S
Fe23 O41 2.002 . S
O24 Fe22 1.918 . S
O24 Fe23 1.918 . S
O24 Fe25 1.918 . S
Fe25 O24 1.918 . S
Fe25 O26 2.002 . S
Fe25 O35 1.976 . S
Fe25 O39 1.996 . S
Fe25 O42 1.997 . S
O26 Fe25 2.002 . S
O26 C43 1.295 . S
O27 Fe22 1.997 . S
O27 C43 1.235 . S
O28 Fe22 2.002 . S
O28 C29 1.295 . S
C29 O28 1.295 . S
C29 O31 1.235 . S
C30 O35 1.287 . S
C30 O36 1.255 . S
O31 Fe23 1.997 . S
O31 C29 1.235 . S
C32 O38 1.287 . S
C32 O39 1.255 . S
O33 Fe22 1.976 . S
O33 C40 1.287 . S
O34 Fe23 1.996 . S
O34 C40 1.255 . S
O35 Fe25 1.976 . S
O35 C30 1.287 . S
O36 Fe22 1.996 . S
O36 C30 1.255 . S
C37 O41 1.295 . S
C37 O42 1.235 . S
O38 Fe23 1.976 . S
O38 C32 1.287 . S
O39 Fe25 1.996 . S
O39 C32 1.255 . S
C40 O33 1.287 . S
C40 O34 1.255 . S
O41 Fe23 2.002 . S
O41 C37 1.295 . S
O42 Fe25 1.997 . S
O42 C37 1.235 . S
C43 O26 1.295 . S
C43 O27 1.235 . S
Fe44 O46 1.918 . S
Fe44 O49 1.997 1_455 S
Fe44 O50 2.002 1_455 S
Fe44 O55 1.976 . S
Fe44 O58 1.996 . S
Fe45 O46 1.918 . S
Fe45 O53 1.997 1_455 S
Fe45 O56 1.996 . S
Fe45 O60 1.976 . S
Fe45 O63 2.002 1_455 S
O46 Fe44 1.918 . S
O46 Fe45 1.918 . S
O46 Fe47 1.918 . S
Fe47 O46 1.918 . S
Fe47 O48 2.002 1_455 S
Fe47 O57 1.976 . S
Fe47 O61 1.996 . S
Fe47 O64 1.997 1_455 S
O48 Fe47 2.002 1_655 S
O48 C65 1.295 . S
O49 Fe44 1.997 1_655 S
O49 C65 1.235 . S
O50 Fe44 2.002 1_655 S
O50 C51 1.295 . S
C51 O50 1.295 . S
C51 O53 1.235 . S
C52 O57 1.287 . S
C52 O58 1.255 . S
O53 Fe45 1.997 1_655 S
O53 C51 1.235 . S
C54 O60 1.287 . S
C54 O61 1.255 . S
O55 Fe44 1.976 . S
O55 C62 1.287 . S
O56 Fe45 1.996 . S
O56 C62 1.255 . S
O57 Fe47 1.976 . S
O57 C52 1.287 . S
O58 Fe44 1.996 . S
O58 C52 1.255 . S
C59 O63 1.295 . S
C59 O64 1.235 . S
O60 Fe45 1.976 . S
O60 C54 1.287 . S
O61 Fe47 1.996 . S
O61 C54 1.255 . S
C62 O55 1.287 . S
C62 O56 1.255 . S
O63 Fe45 2.002 1_655 S
O63 C59 1.295 . S
O64 Fe47 1.997 1_655 S
O64 C59 1.235 . S
C65 O48 1.295 . S
C65 O49 1.235 . S
Fe66 O68 1.918 . S
Fe66 O71 1.997 . S
Fe66 O72 2.002 . S
Fe66 O77 1.976 . S
Fe66 O80 1.996 . S
Fe67 O68 1.918 . S
Fe67 O75 1.997 . S
Fe67 O78 1.996 . S
Fe67 O82 1.976 . S
Fe67 O85 2.002 . S
O68 Fe66 1.918 . S
O68 Fe67 1.918 . S
O68 Fe69 1.918 . S
Fe69 O68 1.918 . S
Fe69 O70 2.002 . S
Fe69 O79 1.976 . S
Fe69 O83 1.996 . S
Fe69 O86 1.997 . S
O70 Fe69 2.002 . S
O70 C87 1.295 . S
O71 Fe66 1.997 . S
O71 C87 1.235 . S
O72 Fe66 2.002 . S
O72 C73 1.295 . S
C73 O72 1.295 . S
C73 O75 1.235 . S
C74 O79 1.287 . S
C74 O80 1.255 . S
O75 Fe67 1.997 . S
O75 C73 1.235 . S
C76 O82 1.287 . S
C76 O83 1.255 . S
O77 Fe66 1.976 . S
O77 C84 1.287 . S
O78 Fe67 1.996 . S
O78 C84 1.255 . S
O79 Fe69 1.976 . S
O79 C74 1.287 . S
O80 Fe66 1.996 . S
O80 C74 1.255 . S
C81 O85 1.295 . S
C81 O86 1.235 . S
O82 Fe67 1.976 . S
O82 C76 1.287 . S
O83 Fe69 1.996 . S
O83 C76 1.255 . S
C84 O77 1.287 . S
C84 O78 1.255 . S
O85 Fe67 2.002 . S
O85 C81 1.295 . S
O86 Fe69 1.997 . S
O86 C81 1.235 . S
C87 O70 1.295 . S
C87 O71 1.235 . S
Fe88 O90 1.918 . S
Fe88 O93 1.997 . S
Fe88 O94 2.002 . S
Fe88 O99 1.976 1_455 S
Fe88 O102 1.996 1_455 S
Fe89 O90 1.918 . S
Fe89 O97 1.997 . S
Fe89 O100 1.996 1_455 S
Fe89 O104 1.976 1_455 S
Fe89 O107 2.002 . S
O90 Fe88 1.918 . S
O90 Fe89 1.918 . S
O90 Fe91 1.918 . S
Fe91 O90 1.918 . S
Fe91 O92 2.002 . S
Fe91 O101 1.976 1_455 S
Fe91 O105 1.996 1_455 S
Fe91 O108 1.997 . S
O92 Fe91 2.002 . S
O92 C109 1.295 . S
O93 Fe88 1.997 . S
O93 C109 1.235 . S
O94 Fe88 2.002 . S
O94 C95 1.295 . S
C95 O94 1.295 . S
C95 O97 1.235 . S
C96 O101 1.287 . S
C96 O102 1.255 . S
O97 Fe89 1.997 . S
O97 C95 1.235 . S
C98 O104 1.287 . S
C98 O105 1.255 . S
O99 Fe88 1.976 1_655 S
O99 C106 1.287 . S
O100 Fe89 1.996 1_655 S
O100 C106 1.255 . S
O101 Fe91 1.976 1_655 S
O101 C96 1.287 . S
O102 Fe88 1.996 1_655 S
O102 C96 1.255 . S
C103 O107 1.295 . S
C103 O108 1.235 . S
O104 Fe89 1.976 1_655 S
O104 C98 1.287 . S
O105 Fe91 1.996 1_655 S
O105 C98 1.255 . S
C106 O99 1.287 . S
C106 O100 1.255 . S
O107 Fe89 2.002 . S
O107 C103 1.295 . S
O108 Fe91 1.997 . S
O108 C103 1.235 . S
C109 O92 1.295 . S
C109 O93 1.235 . S
Fe110 O112 1.918 . S
Fe110 O115 1.997 . S
Fe110 O116 2.002 . S
Fe110 O121 1.976 . S
Fe110 O124 1.996 . S
Fe111 O112 1.918 . S
Fe111 O119 1.997 . S
Fe111 O122 1.996 . S
Fe111 O126 1.976 . S
Fe111 O129 2.002 . S
O112 Fe110 1.918 . S
O112 Fe111 1.918 . S
O112 Fe113 1.918 . S
Fe113 O112 1.918 . S
Fe113 O114 2.002 . S
Fe113 O123 1.976 . S
Fe113 O127 1.996 . S
Fe113 O130 1.997 . S
O114 Fe113 2.002 . S
O114 C131 1.295 . S
O115 Fe110 1.997 . S
O115 C131 1.235 . S
O116 Fe110 2.002 . S
O116 C117 1.295 . S
C117 O116 1.295 . S
C117 O119 1.235 . S
C118 O123 1.287 . S
C118 O124 1.255 . S
O119 Fe111 1.997 . S
O119 C117 1.235 . S
C120 O126 1.287 . S
C120 O127 1.255 . S
O121 Fe110 1.976 . S
O121 C128 1.287 . S
O122 Fe111 1.996 . S
O122 C128 1.255 . S
O123 Fe113 1.976 . S
O123 C118 1.287 . S
O124 Fe110 1.996 . S
O124 C118 1.255 . S
C125 O129 1.295 . S
C125 O130 1.235 . S
O126 Fe111 1.976 . S
O126 C120 1.287 . S
O127 Fe113 1.996 . S
O127 C120 1.255 . S
C128 O121 1.287 . S
C128 O122 1.255 . S
O129 Fe111 2.002 . S
O129 C125 1.295 . S
O130 Fe113 1.997 . S
O130 C125 1.235 . S
C131 O114 1.295 . S
C131 O115 1.235 . S
Fe132 O134 1.918 . S
Fe132 O137 1.997 1_455 S
Fe132 O138 2.002 1_455 S
Fe132 O143 1.976 . S
Fe132 O146 1.996 . S
Fe133 O134 1.918 . S
Fe133 O141 1.997 1_455 S
Fe133 O144 1.996 . S
Fe133 O148 1.976 . S
Fe133 O151 2.002 1_455 S
O134 Fe132 1.918 . S
O134 Fe133 1.918 . S
O134 Fe135 1.918 . S
Fe135 O134 1.918 . S
Fe135 O136 2.002 1_455 S
Fe135 O145 1.976 . S
Fe135 O149 1.996 . S
Fe135 O152 1.997 1_455 S
O136 Fe135 2.002 1_655 S
O136 C153 1.295 . S
O137 Fe132 1.997 1_655 S
O137 C153 1.235 . S
O138 Fe132 2.002 1_655 S
O138 C139 1.295 . S
C139 O138 1.295 . S
C139 O141 1.235 . S
C140 O145 1.287 . S
C140 O146 1.255 . S
O141 Fe133 1.997 1_655 S
O141 C139 1.235 . S
C142 O148 1.287 . S
C142 O149 1.255 . S
O143 Fe132 1.976 . S
O143 C150 1.287 . S
O144 Fe133 1.996 . S
O144 C150 1.255 . S
O145 Fe135 1.976 . S
O145 C140 1.287 . S
O146 Fe132 1.996 . S
O146 C140 1.255 . S
C147 O151 1.295 . S
C147 O152 1.235 . S
O148 Fe133 1.976 . S
O148 C142 1.287 . S
O149 Fe135 1.996 . S
O149 C142 1.255 . S
C150 O143 1.287 . S
C150 O144 1.255 . S
O151 Fe133 2.002 1_655 S
O151 C147 1.295 . S
O152 Fe135 1.997 1_655 S
O152 C147 1.235 . S
C153 O136 1.295 . S
C153 O137 1.235 . S
Fe154 O156 1.918 . S
Fe154 O159 1.997 . S
Fe154 O160 2.002 . S
Fe154 O165 1.976 . S
Fe154 O168 1.996 . S
Fe155 O156 1.918 . S
Fe155 O163 1.997 . S
Fe155 O166 1.996 . S
Fe155 O170 1.976 . S
Fe155 O173 2.002 . S
O156 Fe154 1.918 . S
O156 Fe155 1.918 . S
O156 Fe157 1.918 . S
Fe157 O156 1.918 . S
Fe157 O158 2.002 . S
Fe157 O167 1.976 . S
Fe157 O171 1.996 . S
Fe157 O174 1.997 . S
O158 Fe157 2.002 . S
O158 C175 1.295 . S
O159 Fe154 1.997 . S
O159 C175 1.235 . S
O160 Fe154 2.002 . S
O160 C161 1.295 . S
C161 O160 1.295 . S
C161 O163 1.235 . S
C162 O167 1.287 . S
C162 O168 1.255 . S
O163 Fe155 1.997 . S
O163 C161 1.235 . S
C164 O170 1.287 . S
C164 O171 1.255 . S
O165 Fe154 1.976 . S
O165 C172 1.287 . S
O166 Fe155 1.996 . S
O166 C172 1.255 . S
O167 Fe157 1.976 . S
O167 C162 1.287 . S
O168 Fe154 1.996 . S
O168 C162 1.255 . S
C169 O173 1.295 . S
C169 O174 1.235 . S
O170 Fe155 1.976 . S
O170 C164 1.287 . S
O171 Fe157 1.996 . S
O171 C164 1.255 . S
C172 O165 1.287 . S
C172 O166 1.255 . S
O173 Fe155 2.002 . S
O173 C169 1.295 . S
O174 Fe157 1.997 . S
O174 C169 1.235 . S
C175 O158 1.295 . S
C175 O159 1.235 . S
Fe176 O178 1.918 . S
Fe176 O181 1.997 . S
Fe176 O182 2.002 . S
Fe176 O187 1.976 1_545 S
Fe176 O190 1.996 1_545 S
Fe177 O178 1.918 . S
Fe177 O185 1.997 . S
Fe177 O188 1.996 1_545 S
Fe177 O192 1.976 1_545 S
Fe177 O195 2.002 . S
O178 Fe176 1.918 . S
O178 Fe177 1.918 . S
O178 Fe179 1.918 . S
Fe179 O178 1.918 . S
Fe179 O180 2.002 . S
Fe179 O189 1.976 1_545 S
Fe179 O193 1.996 1_545 S
Fe179 O196 1.997 . S
O180 Fe179 2.002 . S
O180 C197 1.295 . S
O181 Fe176 1.997 . S
O181 C197 1.235 . S
O182 Fe176 2.002 . S
O182 C183 1.295 . S
C183 O182 1.295 . S
C183 O185 1.235 . S
C184 O189 1.287 . S
C184 O190 1.255 . S
O185 Fe177 1.997 . S
O185 C183 1.235 . S
C186 O192 1.287 . S
C186 O193 1.255 . S
O187 Fe176 1.976 1_565 S
O187 C194 1.287 . S
O188 Fe177 1.996 1_565 S
O188 C194 1.255 . S
O189 Fe179 1.976 1_565 S
O189 C184 1.287 . S
O190 Fe176 1.996 1_565 S
O190 C184 1.255 . S
C191 O195 1.295 . S
C191 O196 1.235 . S
O192 Fe177 1.976 1_565 S
O192 C186 1.287 . S
O193 Fe179 1.996 1_565 S
O193 C186 1.255 . S
C194 O187 1.287 . S
C194 O188 1.255 . S
O195 Fe177 2.002 . S
O195 C191 1.295 . S
O196 Fe179 1.997 . S
O196 C191 1.235 . S
C197 O180 1.295 . S
C197 O181 1.235 . S
Fe198 O200 1.918 . S
Fe198 O203 1.997 . S
Fe198 O204 2.002 . S
Fe198 O209 1.976 . S
Fe198 O212 1.996 . S
Fe199 O200 1.918 . S
Fe199 O207 1.997 . S
Fe199 O210 1.996 . S
Fe199 O214 1.976 . S
Fe199 O217 2.002 . S
O200 Fe198 1.918 . S
O200 Fe199 1.918 . S
O200 Fe201 1.918 . S
Fe201 O200 1.918 . S
Fe201 O202 2.002 . S
Fe201 O211 1.976 . S
Fe201 O215 1.996 . S
Fe201 O218 1.997 . S
O202 Fe201 2.002 . S
O202 C219 1.295 . S
O203 Fe198 1.997 . S
O203 C219 1.235 . S
O204 Fe198 2.002 . S
O204 C205 1.295 . S
C205 O204 1.295 . S
C205 O207 1.235 . S
C206 O211 1.287 . S
C206 O212 1.255 . S
O207 Fe199 1.997 . S
O207 C205 1.235 . S
C208 O214 1.287 . S
C208 O215 1.255 . S
O209 Fe198 1.976 . S
O209 C216 1.287 . S
O210 Fe199 1.996 . S
O210 C216 1.255 . S
O211 Fe201 1.976 . S
O211 C206 1.287 . S
O212 Fe198 1.996 . S
O212 C206 1.255 . S
C213 O217 1.295 . S
C213 O218 1.235 . S
O214 Fe199 1.976 . S
O214 C208 1.287 . S
O215 Fe201 1.996 . S
O215 C208 1.255 . S
C216 O209 1.287 . S
C216 O210 1.255 . S
O217 Fe199 2.002 . S
O217 C213 1.295 . S
O218 Fe201 1.997 . S
O218 C213 1.235 . S
C219 O202 1.295 . S
C219 O203 1.235 . S
Fe220 O222 1.918 . S
Fe220 O225 1.997 1_545 S
Fe220 O226 2.002 1_545 S
Fe220 O231 1.976 . S
Fe220 O234 1.996 . S
Fe221 O222 1.918 . S
Fe221 O229 1.997 1_545 S
Fe221 O232 1.996 . S
Fe221 O236 1.976 . S
Fe221 O239 2.002 1_545 S
O222 Fe220 1.918 . S
O222 Fe221 1.918 . S
O222 Fe223 1.918 . S
Fe223 O222 1.918 . S
Fe223 O224 2.002 1_545 S
Fe223 O233 1.976 . S
Fe223 O237 1.996 . S
Fe223 O240 1.997 1_545 S
O224 Fe223 2.002 1_565 S
O224 C241 1.295 . S
O225 Fe220 1.997 1_565 S
O225 C241 1.235 . S
O226 Fe220 2.002 1_565 S
O226 C227 1.295 . S
C227 O226 1.295 . S
C227 O229 1.235 . S
C228 O233 1.287 . S
C228 O234 1.255 . S
O229 Fe221 1.997 1_565 S
O229 C227 1.235 . S
C230 O236 1.287 . S
C230 O237 1.255 . S
O231 Fe220 1.976 . S
O231 C238 1.287 . S
O232 Fe221 1.996 . S
O232 C238 1.255 . S
O233 Fe223 1.976 . S
O233 C228 1.287 . S
O234 Fe220 1.996 . S
O234 C228 1.255 . S
C235 O239 1.295 . S
C235 O240 1.235 . S
O236 Fe221 1.976 . S
O236 C230 1.287 . S
O237 Fe223 1.996 . S
O237 C230 1.255 . S
C238 O231 1.287 . S
C238 O232 1.255 . S
O239 Fe221 2.002 1_565 S
O239 C235 1.295 . S
O240 Fe223 1.997 1_565 S
O240 C235 1.235 . S
C241 O224 1.295 . S
C241 O225 1.235 . S
Fe242 O244 1.918 . S
Fe242 O247 1.997 . S
Fe242 O248 2.002 . S
Fe242 O253 1.976 . S
Fe242 O256 1.996 . S
Fe243 O244 1.918 . S
Fe243 O251 1.997 . S
Fe243 O254 1.996 . S
Fe243 O258 1.976 . S
Fe243 O261 2.002 . S
O244 Fe242 1.918 . S
O244 Fe243 1.918 . S
O244 Fe245 1.918 . S
Fe245 O244 1.918 . S
Fe245 O246 2.002 . S
Fe245 O255 1.976 . S
Fe245 O259 1.996 . S
Fe245 O262 1.997 . S
O246 Fe245 2.002 . S
O246 C263 1.295 . S
O247 Fe242 1.997 . S
O247 C263 1.235 . S
O248 Fe242 2.002 . S
O248 C249 1.295 . S
C249 O248 1.295 . S
C249 O251 1.235 . S
C250 O255 1.287 . S
C250 O256 1.255 . S
O251 Fe243 1.997 . S
O251 C249 1.235 . S
C252 O258 1.287 . S
C252 O259 1.255 . S
O253 Fe242 1.976 . S
O253 C260 1.287 . S
O254 Fe243 1.996 . S
O254 C260 1.255 . S
O255 Fe245 1.976 . S
O255 C250 1.287 . S
O256 Fe242 1.996 . S
O256 C250 1.255 . S
C257 O261 1.295 . S
C257 O262 1.235 . S
O258 Fe243 1.976 . S
O258 C252 1.287 . S
O259 Fe245 1.996 . S
O259 C252 1.255 . S
C260 O253 1.287 . S
C260 O254 1.255 . S
O261 Fe243 2.002 . S
O261 C257 1.295 . S
O262 Fe245 1.997 . S
O262 C257 1.235 . S
C263 O246 1.295 . S
C263 O247 1.235 . S
Fe264 O266 1.918 . S
Fe264 O269 1.997 1_545 S
Fe264 O270 2.002 1_545 S
Fe264 O275 1.976 . S
Fe264 O278 1.996 . S
Fe265 O266 1.918 . S
Fe265 O273 1.997 1_545 S
Fe265 O276 1.996 . S
Fe265 O280 1.976 . S
Fe265 O283 2.002 1_545 S
O266 Fe264 1.918 . S
O266 Fe265 1.918 . S
O266 Fe267 1.918 . S
Fe267 O266 1.918 . S
Fe267 O268 2.002 1_545 S
Fe267 O277 1.976 . S
Fe267 O281 1.996 . S
Fe267 O284 1.997 1_545 S
O268 Fe267 2.002 1_565 S
O268 C285 1.295 . S
O269 Fe264 1.997 1_565 S
O269 C285 1.235 . S
O270 Fe264 2.002 1_565 S
O270 C271 1.295 . S
C271 O270 1.295 . S
C271 O273 1.235 . S
C272 O277 1.287 . S
C272 O278 1.255 . S
O273 Fe265 1.997 1_565 S
O273 C271 1.235 . S
C274 O280 1.287 . S
C274 O281 1.255 . S
O275 Fe264 1.976 . S
O275 C282 1.287 . S
O276 Fe265 1.996 . S
O276 C282 1.255 . S
O277 Fe267 1.976 . S
O277 C272 1.287 . S
O278 Fe264 1.996 . S
O278 C272 1.255 . S
C279 O283 1.295 . S
C279 O284 1.235 . S
O280 Fe265 1.976 . S
O280 C274 1.287 . S
O281 Fe267 1.996 . S
O281 C274 1.255 . S
C282 O275 1.287 . S
C282 O276 1.255 . S
O283 Fe265 2.002 1_565 S
O283 C279 1.295 . S
O284 Fe267 1.997 1_565 S
O284 C279 1.235 . S
C285 O268 1.295 . S
C285 O269 1.235 . S
Fe286 O288 1.918 . S
Fe286 O291 1.997 . S
Fe286 O292 2.002 . S
Fe286 O297 1.976 . S
Fe286 O300 1.996 . S
Fe287 O288 1.918 . S
Fe287 O295 1.997 . S
Fe287 O298 1.996 . S
Fe287 O302 1.976 . S
Fe287 O305 2.002 . S
O288 Fe286 1.918 . S
O288 Fe287 1.918 . S
O288 Fe289 1.918 . S
Fe289 O288 1.918 . S
Fe289 O290 2.002 . S
Fe289 O299 1.976 . S
Fe289 O303 1.996 . S
Fe289 O306 1.997 . S
O290 Fe289 2.002 . S
O290 C307 1.295 . S
O291 Fe286 1.997 . S
O291 C307 1.235 . S
O292 Fe286 2.002 . S
O292 C293 1.295 . S
C293 O292 1.295 . S
C293 O295 1.235 . S
C294 O299 1.287 . S
C294 O300 1.255 . S
O295 Fe287 1.997 . S
O295 C293 1.235 . S
C296 O302 1.287 . S
C296 O303 1.255 . S
O297 Fe286 1.976 . S
O297 C304 1.287 . S
O298 Fe287 1.996 . S
O298 C304 1.255 . S
O299 Fe289 1.976 . S
O299 C294 1.287 . S
O300 Fe286 1.996 . S
O300 C294 1.255 . S
C301 O305 1.295 . S
C301 O306 1.235 . S
O302 Fe287 1.976 . S
O302 C296 1.287 . S
O303 Fe289 1.996 . S
O303 C296 1.255 . S
C304 O297 1.287 . S
C304 O298 1.255 . S
O305 Fe287 2.002 . S
O305 C301 1.295 . S
O306 Fe289 1.997 . S
O306 C301 1.235 . S
C307 O290 1.295 . S
C307 O291 1.235 . S
Fe308 O310 1.918 . S
Fe308 O313 1.997 . S
Fe308 O314 2.002 . S
Fe308 O319 1.976 1_545 S
Fe308 O322 1.996 1_545 S
Fe309 O310 1.918 . S
Fe309 O317 1.997 . S
Fe309 O320 1.996 1_545 S
Fe309 O324 1.976 1_545 S
Fe309 O327 2.002 . S
O310 Fe308 1.918 . S
O310 Fe309 1.918 . S
O310 Fe311 1.918 . S
Fe311 O310 1.918 . S
Fe311 O312 2.002 . S
Fe311 O321 1.976 1_545 S
Fe311 O325 1.996 1_545 S
Fe311 O328 1.997 . S
O312 Fe311 2.002 . S
O312 C329 1.295 . S
O313 Fe308 1.997 . S
O313 C329 1.235 . S
O314 Fe308 2.002 . S
O314 C315 1.295 . S
C315 O314 1.295 . S
C315 O317 1.235 . S
C316 O321 1.287 . S
C316 O322 1.255 . S
O317 Fe309 1.997 . S
O317 C315 1.235 . S
C318 O324 1.287 . S
C318 O325 1.255 . S
O319 Fe308 1.976 1_565 S
O319 C326 1.287 . S
O320 Fe309 1.996 1_565 S
O320 C326 1.255 . S
O321 Fe311 1.976 1_565 S
O321 C316 1.287 . S
O322 Fe308 1.996 1_565 S
O322 C316 1.255 . S
C323 O327 1.295 . S
C323 O328 1.235 . S
O324 Fe309 1.976 1_565 S
O324 C318 1.287 . S
O325 Fe311 1.996 1_565 S
O325 C318 1.255 . S
C326 O319 1.287 . S
C326 O320 1.255 . S
O327 Fe309 2.002 . S
O327 C323 1.295 . S
O328 Fe311 1.997 . S
O328 C323 1.235 . S
C329 O312 1.295 . S
C329 O313 1.235 . S
Fe330 O332 1.918 . S
Fe330 O335 1.997 . S
Fe330 O336 2.002 . S
Fe330 O341 1.976 . S
Fe330 O344 1.996 . S
Fe331 O332 1.918 . S
Fe331 O339 1.997 . S
Fe331 O342 1.996 . S
Fe331 O346 1.976 . S
Fe331 O349 2.002 . S
O332 Fe330 1.918 . S
O332 Fe331 1.918 . S
O332 Fe333 1.918 . S
Fe333 O332 1.918 . S
Fe333 O334 2.002 . S
Fe333 O343 1.976 . S
Fe333 O347 1.996 . S
Fe333 O350 1.997 . S
O334 Fe333 2.002 . S
O334 C351 1.295 . S
O335 Fe330 1.997 . S
O335 C351 1.235 . S
O336 Fe330 2.002 . S
O336 C337 1.295 . S
C337 O336 1.295 . S
C337 O339 1.235 . S
C338 O343 1.287 . S
C338 O344 1.255 . S
O339 Fe331 1.997 . S
O339 C337 1.235 . S
C340 O346 1.287 . S
C340 O347 1.255 . S
O341 Fe330 1.976 . S
O341 C348 1.287 . S
O342 Fe331 1.996 . S
O342 C348 1.255 . S
O343 Fe333 1.976 . S
O343 C338 1.287 . S
O344 Fe330 1.996 . S
O344 C338 1.255 . S
C345 O349 1.295 . S
C345 O350 1.235 . S
O346 Fe331 1.976 . S
O346 C340 1.287 . S
O347 Fe333 1.996 . S
O347 C340 1.255 . S
C348 O341 1.287 . S
C348 O342 1.255 . S
O349 Fe331 2.002 . S
O349 C345 1.295 . S
O350 Fe333 1.997 . S
O350 C345 1.235 . S
C351 O334 1.295 . S
C351 O335 1.235 . S
Fe352 O354 1.918 . S
Fe352 O357 1.997 . S
Fe352 O358 2.002 . S
Fe352 O363 1.976 1_554 S
Fe352 O366 1.996 1_554 S
Fe353 O354 1.918 . S
Fe353 O361 1.997 . S
Fe353 O364 1.996 1_554 S
Fe353 O368 1.976 1_554 S
Fe353 O371 2.002 . S
O354 Fe352 1.918 . S
O354 Fe353 1.918 . S
O354 Fe355 1.918 . S
Fe355 O354 1.918 . S
Fe355 O356 2.002 . S
Fe355 O365 1.976 1_554 S
Fe355 O369 1.996 1_554 S
Fe355 O372 1.997 . S
O356 Fe355 2.002 . S
O356 C373 1.295 . S
O357 Fe352 1.997 . S
O357 C373 1.235 . S
O358 Fe352 2.002 . S
O358 C359 1.295 . S
C359 O358 1.295 . S
C359 O361 1.235 . S
C360 O365 1.287 . S
C360 O366 1.255 . S
O361 Fe353 1.997 . S
O361 C359 1.235 . S
C362 O368 1.287 . S
C362 O369 1.255 . S
O363 Fe352 1.976 1_556 S
O363 C370 1.287 . S
O364 Fe353 1.996 1_556 S
O364 C370 1.255 . S
O365 Fe355 1.976 1_556 S
O365 C360 1.287 . S
O366 Fe352 1.996 1_556 S
O366 C360 1.255 . S
C367 O371 1.295 . S
C367 O372 1.235 . S
O368 Fe353 1.976 1_556 S
O368 C362 1.287 . S
O369 Fe355 1.996 1_556 S
O369 C362 1.255 . S
C370 O363 1.287 . S
C370 O364 1.255 . S
O371 Fe353 2.002 . S
O371 C367 1.295 . S
O372 Fe355 1.997 . S
O372 C367 1.235 . S
C373 O356 1.295 . S
C373 O357 1.235 . S
Fe374 O376 1.918 . S
Fe374 O379 1.997 1_554 S
Fe374 O380 2.002 1_554 S
Fe374 O385 1.976 . S
Fe374 O388 1.996 . S
Fe375 O376 1.918 . S
Fe375 O383 1.997 1_554 S
Fe375 O386 1.996 . S
Fe375 O390 1.976 . S
Fe375 O393 2.002 1_554 S
O376 Fe374 1.918 . S
O376 Fe375 1.918 . S
O376 Fe377 1.918 . S
Fe377 O376 1.918 . S
Fe377 O378 2.002 1_554 S
Fe377 O387 1.976 . S
Fe377 O391 1.996 . S
Fe377 O394 1.997 1_554 S
O378 Fe377 2.002 1_556 S
O378 C395 1.295 . S
O379 Fe374 1.997 1_556 S
O379 C395 1.235 . S
O380 Fe374 2.002 1_556 S
O380 C381 1.295 . S
C381 O380 1.295 . S
C381 O383 1.235 . S
C382 O387 1.287 . S
C382 O388 1.255 . S
O383 Fe375 1.997 1_556 S
O383 C381 1.235 . S
C384 O390 1.287 . S
C384 O391 1.255 . S
O385 Fe374 1.976 . S
O385 C392 1.287 . S
O386 Fe375 1.996 . S
O386 C392 1.255 . S
O387 Fe377 1.976 . S
O387 C382 1.287 . S
O388 Fe374 1.996 . S
O388 C382 1.255 . S
C389 O393 1.295 . S
C389 O394 1.235 . S
O390 Fe375 1.976 . S
O390 C384 1.287 . S
O391 Fe377 1.996 . S
O391 C384 1.255 . S
C392 O385 1.287 . S
C392 O386 1.255 . S
O393 Fe375 2.002 1_556 S
O393 C389 1.295 . S
O394 Fe377 1.997 1_556 S
O394 C389 1.235 . S
C395 O378 1.295 . S
C395 O379 1.235 . S
Fe396 O398 1.918 . S
Fe396 O401 1.997 . S
Fe396 O402 2.002 . S
Fe396 O407 1.976 . S
Fe396 O410 1.996 . S
Fe397 O398 1.918 . S
Fe397 O405 1.997 . S
Fe397 O408 1.996 . S
Fe397 O412 1.976 . S
Fe397 O415 2.002 . S
O398 Fe396 1.918 . S
O398 Fe397 1.918 . S
O398 Fe399 1.918 . S
Fe399 O398 1.918 . S
Fe399 O400 2.002 . S
Fe399 O409 1.976 . S
Fe399 O413 1.996 . S
Fe399 O416 1.997 . S
O400 Fe399 2.002 . S
O400 C417 1.295 . S
O401 Fe396 1.997 . S
O401 C417 1.235 . S
O402 Fe396 2.002 . S
O402 C403 1.295 . S
C403 O402 1.295 . S
C403 O405 1.235 . S
C404 O409 1.287 . S
C404 O410 1.255 . S
O405 Fe397 1.997 . S
O405 C403 1.235 . S
C406 O412 1.287 . S
C406 O413 1.255 . S
O407 Fe396 1.976 . S
O407 C414 1.287 . S
O408 Fe397 1.996 . S
O408 C414 1.255 . S
O409 Fe399 1.976 . S
O409 C404 1.287 . S
O410 Fe396 1.996 . S
O410 C404 1.255 . S
C411 O415 1.295 . S
C411 O416 1.235 . S
O412 Fe397 1.976 . S
O412 C406 1.287 . S
O413 Fe399 1.996 . S
O413 C406 1.255 . S
C414 O407 1.287 . S
C414 O408 1.255 . S
O415 Fe397 2.002 . S
O415 C411 1.295 . S
O416 Fe399 1.997 . S
O416 C411 1.235 . S
C417 O400 1.295 . S
C417 O401 1.235 . S
Fe418 O420 1.918 . S
Fe418 O423 1.997 1_554 S
Fe418 O424 2.002 1_554 S
Fe418 O429 1.976 . S
Fe418 O432 1.996 . S
Fe419 O420 1.918 . S
Fe419 O427 1.997 1_554 S
Fe419 O430 1.996 . S
Fe419 O434 1.976 . S
Fe419 O437 2.002 1_554 S
O420 Fe418 1.918 . S
O420 Fe419 1.918 . S
O420 Fe421 1.918 . S
Fe421 O420 1.918 . S
Fe421 O422 2.002 1_554 S
Fe421 O431 1.976 . S
Fe421 O435 1.996 . S
Fe421 O438 1.997 1_554 S
O422 Fe421 2.002 1_556 S
O422 C439 1.295 . S
O423 Fe418 1.997 1_556 S
O423 C439 1.235 . S
O424 Fe418 2.002 1_556 S
O424 C425 1.295 . S
C425 O424 1.295 . S
C425 O427 1.235 . S
C426 O431 1.287 . S
C426 O432 1.255 . S
O427 Fe419 1.997 1_556 S
O427 C425 1.235 . S
C428 O434 1.287 . S
C428 O435 1.255 . S
O429 Fe418 1.976 . S
O429 C436 1.287 . S
O430 Fe419 1.996 . S
O430 C436 1.255 . S
O431 Fe421 1.976 . S
O431 C426 1.287 . S
O432 Fe418 1.996 . S
O432 C426 1.255 . S
C433 O437 1.295 . S
C433 O438 1.235 . S
O434 Fe419 1.976 . S
O434 C428 1.287 . S
O435 Fe421 1.996 . S
O435 C428 1.255 . S
C436 O429 1.287 . S
C436 O430 1.255 . S
O437 Fe419 2.002 1_556 S
O437 C433 1.295 . S
O438 Fe421 1.997 1_556 S
O438 C433 1.235 . S
C439 O422 1.295 . S
C439 O423 1.235 . S
Fe440 O442 1.918 . S
Fe440 O445 1.997 . S
Fe440 O446 2.002 . S
Fe440 O451 1.976 . S
Fe440 O454 1.996 . S
Fe441 O442 1.918 . S
Fe441 O449 1.997 . S
Fe441 O452 1.996 . S
Fe441 O456 1.976 . S
Fe441 O459 2.002 . S
O442 Fe440 1.918 . S
O442 Fe441 1.918 . S
O442 Fe443 1.918 . S
Fe443 O442 1.918 . S
Fe443 O444 2.002 . S
Fe443 O453 1.976 . S
Fe443 O457 1.996 . S
Fe443 O460 1.997 . S
O444 Fe443 2.002 . S
O444 C461 1.295 . S
O445 Fe440 1.997 . S
O445 C461 1.235 . S
O446 Fe440 2.002 . S
O446 C447 1.295 . S
C447 O446 1.295 . S
C447 O449 1.235 . S
C448 O453 1.287 . S
C448 O454 1.255 . S
O449 Fe441 1.997 . S
O449 C447 1.235 . S
C450 O456 1.287 . S
C450 O457 1.255 . S
O451 Fe440 1.976 . S
O451 C458 1.287 . S
O452 Fe441 1.996 . S
O452 C458 1.255 . S
O453 Fe443 1.976 . S
O453 C448 1.287 . S
O454 Fe440 1.996 . S
O454 C448 1.255 . S
C455 O459 1.295 . S
C455 O460 1.235 . S
O456 Fe441 1.976 . S
O456 C450 1.287 . S
O457 Fe443 1.996 . S
O457 C450 1.255 . S
C458 O451 1.287 . S
C458 O452 1.255 . S
O459 Fe441 2.002 . S
O459 C455 1.295 . S
O460 Fe443 1.997 . S
O460 C455 1.235 . S
C461 O444 1.295 . S
C461 O445 1.235 . S
Fe462 O464 1.918 . S
Fe462 O467 1.997 . S
Fe462 O468 2.002 . S
Fe462 O473 1.976 1_554 S
Fe462 O476 1.996 1_554 S
Fe463 O464 1.918 . S
Fe463 O471 1.997 . S
Fe463 O474 1.996 1_554 S
Fe463 O478 1.976 1_554 S
Fe463 O481 2.002 . S
O464 Fe462 1.918 . S
O464 Fe463 1.918 . S
O464 Fe465 1.918 . S
Fe465 O464 1.918 . S
Fe465 O466 2.002 . S
Fe465 O475 1.976 1_554 S
Fe465 O479 1.996 1_554 S
Fe465 O482 1.997 . S
O466 Fe465 2.002 . S
O466 C483 1.295 . S
O467 Fe462 1.997 . S
O467 C483 1.235 . S
O468 Fe462 2.002 . S
O468 C469 1.295 . S
C469 O468 1.295 . S
C469 O471 1.235 . S
C470 O475 1.287 . S
C470 O476 1.255 . S
O471 Fe463 1.997 . S
O471 C469 1.235 . S
C472 O478 1.287 . S
C472 O479 1.255 . S
O473 Fe462 1.976 1_556 S
O473 C480 1.287 . S
O474 Fe463 1.996 1_556 S
O474 C480 1.255 . S
O475 Fe465 1.976 1_556 S
O475 C470 1.287 . S
O476 Fe462 1.996 1_556 S
O476 C470 1.255 . S
C477 O481 1.295 . S
C477 O482 1.235 . S
O478 Fe463 1.976 1_556 S
O478 C472 1.287 . S
O479 Fe465 1.996 1_556 S
O479 C472 1.255 . S
C480 O473 1.287 . S
C480 O474 1.255 . S
O481 Fe463 2.002 . S
O481 C477 1.295 . S
O482 Fe465 1.997 . S
O482 C477 1.235 . S
C483 O466 1.295 . S
C483 O467 1.235 . S
Fe484 O486 1.918 . S
Fe484 O489 1.997 . S
Fe484 O490 2.002 . S
Fe484 O495 1.976 . S
Fe484 O498 1.996 . S
Fe485 O486 1.918 . S
Fe485 O493 1.997 . S
Fe485 O496 1.996 . S
Fe485 O500 1.976 . S
Fe485 O503 2.002 . S
O486 Fe484 1.918 . S
O486 Fe485 1.918 . S
O486 Fe487 1.918 . S
Fe487 O486 1.918 . S
Fe487 O488 2.002 . S
Fe487 O497 1.976 . S
Fe487 O501 1.996 . S
Fe487 O504 1.997 . S
O488 Fe487 2.002 . S
O488 C505 1.295 . S
O489 Fe484 1.997 . S
O489 C505 1.235 . S
O490 Fe484 2.002 . S
O490 C491 1.295 . S
C491 O490 1.295 . S
C491 O493 1.235 . S
C492 O497 1.287 . S
C492 O498 1.255 . S
O493 Fe485 1.997 . S
O493 C491 1.235 . S
C494 O500 1.287 . S
C494 O501 1.255 . S
O495 Fe484 1.976 . S
O495 C502 1.287 . S
O496 Fe485 1.996 . S
O496 C502 1.255 . S
O497 Fe487 1.976 . S
O497 C492 1.287 . S
O498 Fe484 1.996 . S
O498 C492 1.255 . S
C499 O503 1.295 . S
C499 O504 1.235 . S
O500 Fe485 1.976 . S
O500 C494 1.287 . S
O501 Fe487 1.996 . S
O501 C494 1.255 . S
C502 O495 1.287 . S
C502 O496 1.255 . S
O503 Fe485 2.002 . S
O503 C499 1.295 . S
O504 Fe487 1.997 . S
O504 C499 1.235 . S
C505 O488 1.295 . S
C505 O489 1.235 . S
Fe506 O508 1.918 . S
Fe506 O511 1.997 . S
Fe506 O512 2.002 . S
Fe506 O517 1.976 . S
Fe506 O520 1.996 . S
Fe507 O508 1.918 . S
Fe507 O515 1.997 . S
Fe507 O518 1.996 . S
Fe507 O522 1.976 . S
Fe507 O525 2.002 . S
O508 Fe506 1.918 . S
O508 Fe507 1.918 . S
O508 Fe509 1.918 . S
Fe509 O508 1.918 . S
Fe509 O510 2.002 . S
Fe509 O519 1.976 . S
Fe509 O523 1.996 . S
Fe509 O526 1.997 . S
O510 Fe509 2.002 . S
O510 C527 1.295 . S
O511 Fe506 1.997 . S
O511 C527 1.235 . S
O512 Fe506 2.002 . S
O512 C513 1.295 . S
C513 O512 1.295 . S
C513 O515 1.235 . S
C514 O519 1.287 . S
C514 O520 1.255 . S
O515 Fe507 1.997 . S
O515 C513 1.235 . S
C516 O522 1.287 . S
C516 O523 1.255 . S
O517 Fe506 1.976 . S
O517 C524 1.287 . S
O518 Fe507 1.996 . S
O518 C524 1.255 . S
O519 Fe509 1.976 . S
O519 C514 1.287 . S
O520 Fe506 1.996 . S
O520 C514 1.255 . S
C521 O525 1.295 . S
C521 O526 1.235 . S
O522 Fe507 1.976 . S
O522 C516 1.287 . S
O523 Fe509 1.996 . S
O523 C516 1.255 . S
C524 O517 1.287 . S
C524 O518 1.255 . S
O525 Fe507 2.002 . S
O525 C521 1.295 . S
O526 Fe509 1.997 . S
O526 C521 1.235 . S
C527 O510 1.295 . S
C527 O511 1.235 . S
C528 C529 1.363 . S
C528 C534 1.379 . S
C528 N536 1.356 . S
C529 C528 1.363 . S
C529 C535 1.363 . S
C530 C531 1.363 . S
C530 C535 1.379 . S
C530 N537 1.356 . S
C531 C530 1.363 . S
C531 C534 1.363 . S
N532 C534 1.356 . S
N532 H544 0.984 . S
N532 H545 0.985 . S
N533 C535 1.356 . S
N533 H538 0.984 . S
N533 H539 0.985 . S
C534 C528 1.379 . S
C534 C531 1.363 . S
C534 N532 1.356 . S
C535 C529 1.363 . S
C535 C530 1.379 . S
C535 N533 1.356 . S
N536 C528 1.356 . S
N536 H542 0.984 . S
N536 H543 0.984 . S
N537 C530 1.356 . S
N537 H540 0.984 . S
N537 H541 0.985 . S
H538 N533 0.984 . S
H539 N533 0.985 . S
H540 N537 0.984 . S
H541 N537 0.985 . S
H542 N536 0.984 . S
H543 N536 0.984 . S
H544 N532 0.984 . S
H545 N532 0.985 . S
C546 C547 1.363 . S
C546 C552 1.379 . S
C546 N554 1.356 . S
C547 C546 1.363 . S
C547 C553 1.363 . S
C548 C549 1.363 . S
C548 C553 1.379 . S
C548 N555 1.356 . S
C549 C548 1.363 . S
C549 C552 1.363 . S
N550 C552 1.356 . S
N550 H562 0.984 . S
N550 H563 0.985 . S
N551 C553 1.356 . S
N551 H556 0.984 . S
N551 H557 0.985 . S
C552 C546 1.379 . S
C552 C549 1.363 . S
C552 N550 1.356 . S
C553 C547 1.363 . S
C553 C548 1.379 . S
C553 N551 1.356 . S
N554 C546 1.356 . S
N554 H560 0.984 . S
N554 H561 0.984 . S
N555 C548 1.356 . S
N555 H558 0.984 . S
N555 H559 0.985 . S
H556 N551 0.984 . S
H557 N551 0.985 . S
H558 N555 0.984 . S
H559 N555 0.985 . S
H560 N554 0.984 . S
H561 N554 0.984 . S
H562 N550 0.984 . S
H563 N550 0.985 . S
C564 C565 1.363 . S
C564 C570 1.379 . S
C564 N572 1.356 . S
C565 C564 1.363 . S
C565 C571 1.363 . S
C566 C567 1.363 . S
C566 C571 1.379 . S
C566 N573 1.356 . S
C567 C566 1.363 . S
C567 C570 1.363 . S
N568 C570 1.356 . S
N568 H580 0.984 . S
N568 H581 0.985 . S
N569 C571 1.356 . S
N569 H574 0.984 . S
N569 H575 0.985 . S
C570 C564 1.379 . S
C570 C567 1.363 . S
C570 N568 1.356 . S
C571 C565 1.363 . S
C571 C566 1.379 . S
C571 N569 1.356 . S
N572 C564 1.356 . S
N572 H578 0.984 . S
N572 H579 0.984 . S
N573 C566 1.356 . S
N573 H576 0.984 . S
N573 H577 0.985 . S
H574 N569 0.984 . S
H575 N569 0.985 . S
H576 N573 0.984 . S
H577 N573 0.985 . S
H578 N572 0.984 . S
H579 N572 0.984 . S
H580 N568 0.984 . S
H581 N568 0.985 . S
C582 C583 1.363 . S
C582 C588 1.379 . S
C582 N590 1.356 . S
C583 C582 1.363 . S
C583 C589 1.363 . S
C584 C585 1.363 . S
C584 C589 1.379 . S
C584 N591 1.356 . S
C585 C584 1.363 . S
C585 C588 1.363 . S
N586 C588 1.356 . S
N586 H598 0.984 . S
N586 H599 0.985 . S
N587 C589 1.356 . S
N587 H592 0.984 . S
N587 H593 0.985 . S
C588 C582 1.379 . S
C588 C585 1.363 . S
C588 N586 1.356 . S
C589 C583 1.363 . S
C589 C584 1.379 . S
C589 N587 1.356 . S
N590 C582 1.356 . S
N590 H596 0.984 . S
N590 H597 0.984 . S
N591 C584 1.356 . S
N591 H594 0.984 . S
N591 H595 0.985 . S
H592 N587 0.984 . S
H593 N587 0.985 . S
H594 N591 0.984 . S
H595 N591 0.985 . S
H596 N590 0.984 . S
H597 N590 0.984 . S
H598 N586 0.984 . S
H599 N586 0.985 . S
C600 C601 1.363 . S
C600 C606 1.379 . S
C600 N608 1.356 . S
C601 C600 1.363 . S
C601 C607 1.363 . S
C602 C603 1.363 . S
C602 C607 1.379 . S
C602 N609 1.356 . S
C603 C602 1.363 . S
C603 C606 1.363 . S
N604 C606 1.356 . S
N604 H616 0.984 . S
N604 H617 0.985 . S
N605 C607 1.356 . S
N605 H610 0.984 . S
N605 H611 0.985 . S
C606 C600 1.379 . S
C606 C603 1.363 . S
C606 N604 1.356 . S
C607 C601 1.363 . S
C607 C602 1.379 . S
C607 N605 1.356 . S
N608 C600 1.356 . S
N608 H614 0.984 . S
N608 H615 0.984 . S
N609 C602 1.356 . S
N609 H612 0.984 . S
N609 H613 0.985 . S
H610 N605 0.984 . S
H611 N605 0.985 . S
H612 N609 0.984 . S
H613 N609 0.985 . S
H614 N608 0.984 . S
H615 N608 0.984 . S
H616 N604 0.984 . S
H617 N604 0.985 . S
C618 C619 1.363 . S
C618 C624 1.379 . S
C618 N626 1.356 . S
C619 C618 1.363 . S
C619 C625 1.363 . S
C620 C621 1.363 . S
C620 C625 1.379 . S
C620 N627 1.356 . S
C621 C620 1.363 . S
C621 C624 1.363 . S
N622 C624 1.356 . S
N622 H634 0.984 . S
N622 H635 0.985 . S
N623 C625 1.356 . S
N623 H628 0.984 . S
N623 H629 0.985 . S
C624 C618 1.379 . S
C624 C621 1.363 . S
C624 N622 1.356 . S
C625 C619 1.363 . S
C625 C620 1.379 . S
C625 N623 1.356 . S
N626 C618 1.356 . S
N626 H632 0.984 . S
N626 H633 0.984 . S
N627 C620 1.356 . S
N627 H630 0.984 . S
N627 H631 0.985 . S
H628 N623 0.984 . S
H629 N623 0.985 . S
H630 N627 0.984 . S
H631 N627 0.985 . S
H632 N626 0.984 . S
H633 N626 0.984 . S
H634 N622 0.984 . S
H635 N622 0.985 . S
C636 C637 1.363 . S
C636 C642 1.379 . S
C636 N644 1.356 . S
C637 C636 1.363 . S
C637 C643 1.363 . S
C638 C639 1.363 . S
C638 C643 1.379 . S
C638 N645 1.356 . S
C639 C638 1.363 . S
C639 C642 1.363 . S
N640 C642 1.356 . S
N640 H652 0.984 . S
N640 H653 0.985 . S
N641 C643 1.356 . S
N641 H646 0.984 . S
N641 H647 0.985 . S
C642 C636 1.379 . S
C642 C639 1.363 . S
C642 N640 1.356 . S
C643 C637 1.363 . S
C643 C638 1.379 . S
C643 N641 1.356 . S
N644 C636 1.356 . S
N644 H650 0.984 . S
N644 H651 0.984 . S
N645 C638 1.356 . S
N645 H648 0.984 . S
N645 H649 0.985 . S
H646 N641 0.984 . S
H647 N641 0.985 . S
H648 N645 0.984 . S
H649 N645 0.985 . S
H650 N644 0.984 . S
H651 N644 0.984 . S
H652 N640 0.984 . S
H653 N640 0.985 . S
C654 C655 1.363 . S
C654 C660 1.379 . S
C654 N662 1.356 . S
C655 C654 1.363 . S
C655 C661 1.363 . S
C656 C657 1.363 . S
C656 C661 1.379 . S
C656 N663 1.356 . S
C657 C656 1.363 . S
C657 C660 1.363 . S
N658 C660 1.356 . S
N658 H670 0.984 . S
N658 H671 0.985 . S
N659 C661 1.356 . S
N659 H664 0.984 . S
N659 H665 0.985 . S
C660 C654 1.379 . S
C660 C657 1.363 . S
C660 N658 1.356 . S
C661 C655 1.363 . S
C661 C656 1.379 . S
C661 N659 1.356 . S
N662 C654 1.356 . S
N662 H668 0.984 . S
N662 H669 0.984 . S
N663 C656 1.356 . S
N663 H666 0.984 . S
N663 H667 0.985 . S
H664 N659 0.984 . S
H665 N659 0.985 . S
H666 N663 0.984 . S
H667 N663 0.985 . S
H668 N662 0.984 . S
H669 N662 0.984 . S
H670 N658 0.984 . S
H671 N658 0.985 . S
C672 C673 1.363 . S
C672 C678 1.379 . S
C672 N680 1.356 . S
C673 C672 1.363 . S
C673 C679 1.363 . S
C674 C675 1.363 . S
C674 C679 1.379 . S
C674 N681 1.356 . S
C675 C674 1.363 . S
C675 C678 1.363 . S
N676 C678 1.356 . S
N676 H688 0.984 . S
N676 H689 0.985 . S
N677 C679 1.356 . S
N677 H682 0.984 . S
N677 H683 0.985 . S
C678 C672 1.379 . S
C678 C675 1.363 . S
C678 N676 1.356 . S
C679 C673 1.363 . S
C679 C674 1.379 . S
C679 N677 1.356 . S
N680 C672 1.356 . S
N680 H686 0.984 . S
N680 H687 0.984 . S
N681 C674 1.356 . S
N681 H684 0.984 . S
N681 H685 0.985 . S
H682 N677 0.984 . S
H683 N677 0.985 . S
H684 N681 0.984 . S
H685 N681 0.985 . S
H686 N680 0.984 . S
H687 N680 0.984 . S
H688 N676 0.984 . S
H689 N676 0.985 . S
C690 C691 1.363 . S
C690 C696 1.379 . S
C690 N698 1.356 . S
C691 C690 1.363 . S
C691 C697 1.363 . S
C692 C693 1.363 . S
C692 C697 1.379 . S
C692 N699 1.356 . S
C693 C692 1.363 . S
C693 C696 1.363 . S
N694 C696 1.356 . S
N694 H706 0.984 . S
N694 H707 0.985 . S
N695 C697 1.356 . S
N695 H700 0.984 . S
N695 H701 0.985 . S
C696 C690 1.379 . S
C696 C693 1.363 . S
C696 N694 1.356 . S
C697 C691 1.363 . S
C697 C692 1.379 . S
C697 N695 1.356 . S
N698 C690 1.356 . S
N698 H704 0.984 . S
N698 H705 0.984 . S
N699 C692 1.356 . S
N699 H702 0.984 . S
N699 H703 0.985 . S
H700 N695 0.984 . S
H701 N695 0.985 . S
H702 N699 0.984 . S
H703 N699 0.985 . S
H704 N698 0.984 . S
H705 N698 0.984 . S
H706 N694 0.984 . S
H707 N694 0.985 . S
C708 C709 1.363 . S
C708 C714 1.379 . S
C708 N716 1.356 . S
C709 C708 1.363 . S
C709 C715 1.363 . S
C710 C711 1.363 . S
C710 C715 1.379 . S
C710 N717 1.356 . S
C711 C710 1.363 . S
C711 C714 1.363 . S
N712 C714 1.356 . S
N712 H724 0.984 . S
N712 H725 0.985 . S
N713 C715 1.356 . S
N713 H718 0.984 . S
N713 H719 0.985 . S
C714 C708 1.379 . S
C714 C711 1.363 . S
C714 N712 1.356 . S
C715 C709 1.363 . S
C715 C710 1.379 . S
C715 N713 1.356 . S
N716 C708 1.356 . S
N716 H722 0.984 . S
N716 H723 0.984 . S
N717 C710 1.356 . S
N717 H720 0.984 . S
N717 H721 0.985 . S
H718 N713 0.984 . S
H719 N713 0.985 . S
H720 N717 0.984 . S
H721 N717 0.985 . S
H722 N716 0.984 . S
H723 N716 0.984 . S
H724 N712 0.984 . S
H725 N712 0.985 . S
C726 C727 1.363 . S
C726 C732 1.379 . S
C726 N734 1.356 . S
C727 C726 1.363 . S
C727 C733 1.363 . S
C728 C729 1.363 . S
C728 C733 1.379 . S
C728 N735 1.356 . S
C729 C728 1.363 . S
C729 C732 1.363 . S
N730 C732 1.356 . S
N730 H742 0.984 . S
N730 H743 0.985 . S
N731 C733 1.356 . S
N731 H736 0.984 . S
N731 H737 0.985 . S
C732 C726 1.379 . S
C732 C729 1.363 . S
C732 N730 1.356 . S
C733 C727 1.363 . S
C733 C728 1.379 . S
C733 N731 1.356 . S
N734 C726 1.356 . S
N734 H740 0.984 . S
N734 H741 0.984 . S
N735 C728 1.356 . S
N735 H738 0.984 . S
N735 H739 0.985 . S
H736 N731 0.984 . S
H737 N731 0.985 . S
H738 N735 0.984 . S
H739 N735 0.985 . S
H740 N734 0.984 . S
H741 N734 0.984 . S
H742 N730 0.984 . S
H743 N730 0.985 . S
C744 C745 1.363 . S
C744 C750 1.379 . S
C744 N752 1.356 . S
C745 C744 1.363 . S
C745 C751 1.363 . S
C746 C747 1.363 . S
C746 C751 1.379 . S
C746 N753 1.356 . S
C747 C746 1.363 . S
C747 C750 1.363 . S
N748 C750 1.356 . S
N748 H760 0.984 . S
N748 H761 0.985 . S
N749 C751 1.356 . S
N749 H754 0.984 . S
N749 H755 0.985 . S
C750 C744 1.379 . S
C750 C747 1.363 . S
C750 N748 1.356 . S
C751 C745 1.363 . S
C751 C746 1.379 . S
C751 N749 1.356 . S
N752 C744 1.356 . S
N752 H758 0.984 . S
N752 H759 0.984 . S
N753 C746 1.356 . S
N753 H756 0.984 . S
N753 H757 0.985 . S
H754 N749 0.984 . S
H755 N749 0.985 . S
H756 N753 0.984 . S
H757 N753 0.985 . S
H758 N752 0.984 . S
H759 N752 0.984 . S
H760 N748 0.984 . S
H761 N748 0.985 . S
C762 C763 1.363 . S
C762 C768 1.379 . S
C762 N770 1.356 . S
C763 C762 1.363 . S
C763 C769 1.363 . S
C764 C765 1.363 . S
C764 C769 1.379 . S
C764 N771 1.356 . S
C765 C764 1.363 . S
C765 C768 1.363 . S
N766 C768 1.356 . S
N766 H778 0.984 . S
N766 H779 0.985 . S
N767 C769 1.356 . S
N767 H772 0.984 . S
N767 H773 0.985 . S
C768 C762 1.379 . S
C768 C765 1.363 . S
C768 N766 1.356 . S
C769 C763 1.363 . S
C769 C764 1.379 . S
C769 N767 1.356 . S
N770 C762 1.356 . S
N770 H776 0.984 . S
N770 H777 0.984 . S
N771 C764 1.356 . S
N771 H774 0.984 . S
N771 H775 0.985 . S
H772 N767 0.984 . S
H773 N767 0.985 . S
H774 N771 0.984 . S
H775 N771 0.985 . S
H776 N770 0.984 . S
H777 N770 0.984 . S
H778 N766 0.984 . S
H779 N766 0.985 . S
C780 C781 1.363 . S
C780 C786 1.379 . S
C780 N788 1.356 . S
C781 C780 1.363 . S
C781 C787 1.363 . S
C782 C783 1.363 . S
C782 C787 1.379 . S
C782 N789 1.356 . S
C783 C782 1.363 . S
C783 C786 1.363 . S
N784 C786 1.356 . S
N784 H796 0.984 . S
N784 H797 0.985 . S
N785 C787 1.356 . S
N785 H790 0.984 . S
N785 H791 0.985 . S
C786 C780 1.379 . S
C786 C783 1.363 . S
C786 N784 1.356 . S
C787 C781 1.363 . S
C787 C782 1.379 . S
C787 N785 1.356 . S
N788 C780 1.356 . S
N788 H794 0.984 . S
N788 H795 0.984 . S
N789 C782 1.356 . S
N789 H792 0.984 . S
N789 H793 0.985 . S
H790 N785 0.984 . S
H791 N785 0.985 . S
H792 N789 0.984 . S
H793 N789 0.985 . S
H794 N788 0.984 . S
H795 N788 0.984 . S
H796 N784 0.984 . S
H797 N784 0.985 . S
C798 C799 1.363 . S
C798 C804 1.379 . S
C798 N806 1.356 . S
C799 C798 1.363 . S
C799 C805 1.363 . S
C800 C801 1.363 . S
C800 C805 1.379 . S
C800 N807 1.356 . S
C801 C800 1.363 . S
C801 C804 1.363 . S
N802 C804 1.356 . S
N802 H814 0.984 . S
N802 H815 0.985 . S
N803 C805 1.356 . S
N803 H808 0.984 . S
N803 H809 0.985 . S
C804 C798 1.379 . S
C804 C801 1.363 . S
C804 N802 1.356 . S
C805 C799 1.363 . S
C805 C800 1.379 . S
C805 N803 1.356 . S
N806 C798 1.356 . S
N806 H812 0.984 . S
N806 H813 0.984 . S
N807 C800 1.356 . S
N807 H810 0.984 . S
N807 H811 0.985 . S
H808 N803 0.984 . S
H809 N803 0.985 . S
H810 N807 0.984 . S
H811 N807 0.985 . S
H812 N806 0.984 . S
H813 N806 0.984 . S
H814 N802 0.984 . S
H815 N802 0.985 . S
C816 C817 1.363 . S
C816 C822 1.379 . S
C816 N824 1.356 . S
C817 C816 1.363 . S
C817 C823 1.363 . S
C818 C819 1.363 . S
C818 C823 1.379 . S
C818 N825 1.356 . S
C819 C818 1.363 . S
C819 C822 1.363 . S
N820 C822 1.356 . S
N820 H832 0.984 . S
N820 H833 0.985 . S
N821 C823 1.356 . S
N821 H826 0.984 . S
N821 H827 0.985 . S
C822 C816 1.379 . S
C822 C819 1.363 . S
C822 N820 1.356 . S
C823 C817 1.363 . S
C823 C818 1.379 . S
C823 N821 1.356 . S
N824 C816 1.356 . S
N824 H830 0.984 . S
N824 H831 0.984 . S
N825 C818 1.356 . S
N825 H828 0.984 . S
N825 H829 0.985 . S
H826 N821 0.984 . S
H827 N821 0.985 . S
H828 N825 0.984 . S
H829 N825 0.985 . S
H830 N824 0.984 . S
H831 N824 0.984 . S
H832 N820 0.984 . S
H833 N820 0.985 . S
C834 C835 1.363 . S
C834 C840 1.379 . S
C834 N842 1.356 . S
C835 C834 1.363 . S
C835 C841 1.363 . S
C836 C837 1.363 . S
C836 C841 1.379 . S
C836 N843 1.356 . S
C837 C836 1.363 . S
C837 C840 1.363 . S
N838 C840 1.356 . S
N838 H850 0.984 . S
N838 H851 0.985 . S
N839 C841 1.356 . S
N839 H844 0.984 . S
N839 H845 0.985 . S
C840 C834 1.379 . S
C840 C837 1.363 . S
C840 N838 1.356 . S
C841 C835 1.363 . S
C841 C836 1.379 . S
C841 N839 1.356 . S
N842 C834 1.356 . S
N842 H848 0.984 . S
N842 H849 0.984 . S
N843 C836 1.356 . S
N843 H846 0.984 . S
N843 H847 0.985 . S
H844 N839 0.984 . S
H845 N839 0.985 . S
H846 N843 0.984 . S
H847 N843 0.985 . S
H848 N842 0.984 . S
H849 N842 0.984 . S
H850 N838 0.984 . S
H851 N838 0.985 . S
C852 C853 1.363 . S
C852 C858 1.379 . S
C852 N860 1.356 . S
C853 C852 1.363 . S
C853 C859 1.363 . S
C854 C855 1.363 . S
C854 C859 1.379 . S
C854 N861 1.356 . S
C855 C854 1.363 . S
C855 C858 1.363 . S
N856 C858 1.356 . S
N856 H868 0.984 . S
N856 H869 0.985 . S
N857 C859 1.356 . S
N857 H862 0.984 . S
N857 H863 0.985 . S
C858 C852 1.379 . S
C858 C855 1.363 . S
C858 N856 1.356 . S
C859 C853 1.363 . S
C859 C854 1.379 . S
C859 N857 1.356 . S
N860 C852 1.356 . S
N860 H866 0.984 . S
N860 H867 0.984 . S
N861 C854 1.356 . S
N861 H864 0.984 . S
N861 H865 0.985 . S
H862 N857 0.984 . S
H863 N857 0.985 . S
H864 N861 0.984 . S
H865 N861 0.985 . S
H866 N860 0.984 . S
H867 N860 0.984 . S
H868 N856 0.984 . S
H869 N856 0.985 . S
C870 C871 1.363 . S
C870 C876 1.379 . S
C870 N878 1.356 . S
C871 C870 1.363 . S
C871 C877 1.363 . S
C872 C873 1.363 . S
C872 C877 1.379 . S
C872 N879 1.356 . S
C873 C872 1.363 . S
C873 C876 1.363 . S
N874 C876 1.356 . S
N874 H886 0.984 . S
N874 H887 0.985 . S
N875 C877 1.356 . S
N875 H880 0.984 . S
N875 H881 0.985 . S
C876 C870 1.379 . S
C876 C873 1.363 . S
C876 N874 1.356 . S
C877 C871 1.363 . S
C877 C872 1.379 . S
C877 N875 1.356 . S
N878 C870 1.356 . S
N878 H884 0.984 . S
N878 H885 0.984 . S
N879 C872 1.356 . S
N879 H882 0.984 . S
N879 H883 0.985 . S
H880 N875 0.984 . S
H881 N875 0.985 . S
H882 N879 0.984 . S
H883 N879 0.985 . S
H884 N878 0.984 . S
H885 N878 0.984 . S
H886 N874 0.984 . S
H887 N874 0.985 . S
C888 C889 1.363 . S
C888 C894 1.379 . S
C888 N896 1.356 . S
C889 C888 1.363 . S
C889 C895 1.363 . S
C890 C891 1.363 . S
C890 C895 1.379 . S
C890 N897 1.356 . S
C891 C890 1.363 . S
C891 C894 1.363 . S
N892 C894 1.356 . S
N892 H904 0.984 . S
N892 H905 0.985 . S
N893 C895 1.356 . S
N893 H898 0.984 . S
N893 H899 0.985 . S
C894 C888 1.379 . S
C894 C891 1.363 . S
C894 N892 1.356 . S
C895 C889 1.363 . S
C895 C890 1.379 . S
C895 N893 1.356 . S
N896 C888 1.356 . S
N896 H902 0.984 . S
N896 H903 0.984 . S
N897 C890 1.356 . S
N897 H900 0.984 . S
N897 H901 0.985 . S
H898 N893 0.984 . S
H899 N893 0.985 . S
H900 N897 0.984 . S
H901 N897 0.985 . S
H902 N896 0.984 . S
H903 N896 0.984 . S
H904 N892 0.984 . S
H905 N892 0.985 . S
C906 C907 1.363 . S
C906 C912 1.379 . S
C906 N914 1.356 . S
C907 C906 1.363 . S
C907 C913 1.363 . S
C908 C909 1.363 . S
C908 C913 1.379 . S
C908 N915 1.356 . S
C909 C908 1.363 . S
C909 C912 1.363 . S
N910 C912 1.356 . S
N910 H922 0.984 . S
N910 H923 0.985 . S
N911 C913 1.356 . S
N911 H916 0.984 . S
N911 H917 0.985 . S
C912 C906 1.379 . S
C912 C909 1.363 . S
C912 N910 1.356 . S
C913 C907 1.363 . S
C913 C908 1.379 . S
C913 N911 1.356 . S
N914 C906 1.356 . S
N914 H920 0.984 . S
N914 H921 0.984 . S
N915 C908 1.356 . S
N915 H918 0.984 . S
N915 H919 0.985 . S
H916 N911 0.984 . S
H917 N911 0.985 . S
H918 N915 0.984 . S
H919 N915 0.985 . S
H920 N914 0.984 . S
H921 N914 0.984 . S
H922 N910 0.984 . S
H923 N910 0.985 . S
C924 C925 1.363 . S
C924 C930 1.379 . S
C924 N932 1.356 . S
C925 C924 1.363 . S
C925 C931 1.363 . S
C926 C927 1.363 . S
C926 C931 1.379 . S
C926 N933 1.356 . S
C927 C926 1.363 . S
C927 C930 1.363 . S
N928 C930 1.356 . S
N928 H940 0.984 . S
N928 H941 0.985 . S
N929 C931 1.356 . S
N929 H934 0.984 . S
N929 H935 0.985 . S
C930 C924 1.379 . S
C930 C927 1.363 . S
C930 N928 1.356 . S
C931 C925 1.363 . S
C931 C926 1.379 . S
C931 N929 1.356 . S
N932 C924 1.356 . S
N932 H938 0.984 . S
N932 H939 0.984 . S
N933 C926 1.356 . S
N933 H936 0.984 . S
N933 H937 0.985 . S
H934 N929 0.984 . S
H935 N929 0.985 . S
H936 N933 0.984 . S
H937 N933 0.985 . S
H938 N932 0.984 . S
H939 N932 0.984 . S
H940 N928 0.984 . S
H941 N928 0.985 . S
C942 C943 1.363 . S
C942 C948 1.379 . S
C942 N950 1.356 . S
C943 C942 1.363 . S
C943 C949 1.363 . S
C944 C945 1.363 . S
C944 C949 1.379 . S
C944 N951 1.356 . S
C945 C944 1.363 . S
C945 C948 1.363 . S
N946 C948 1.356 . S
N946 H958 0.984 . S
N946 H959 0.985 . S
N947 C949 1.356 . S
N947 H952 0.984 . S
N947 H953 0.985 . S
C948 C942 1.379 . S
C948 C945 1.363 . S
C948 N946 1.356 . S
C949 C943 1.363 . S
C949 C944 1.379 . S
C949 N947 1.356 . S
N950 C942 1.356 . S
N950 H956 0.984 . S
N950 H957 0.984 . S
N951 C944 1.356 . S
N951 H954 0.984 . S
N951 H955 0.985 . S
H952 N947 0.984 . S
H953 N947 0.985 . S
H954 N951 0.984 . S
H955 N951 0.985 . S
H956 N950 0.984 . S
H957 N950 0.984 . S
H958 N946 0.984 . S
H959 N946 0.985 . S
C960 C961 1.363 . S
C960 C966 1.379 . S
C960 N968 1.356 . S
C961 C960 1.363 . S
C961 C967 1.363 . S
C962 C963 1.363 . S
C962 C967 1.379 . S
C962 N969 1.356 . S
C963 C962 1.363 . S
C963 C966 1.363 . S
N964 C966 1.356 . S
N964 H976 0.984 . S
N964 H977 0.985 . S
N965 C967 1.356 . S
N965 H970 0.984 . S
N965 H971 0.985 . S
C966 C960 1.379 . S
C966 C963 1.363 . S
C966 N964 1.356 . S
C967 C961 1.363 . S
C967 C962 1.379 . S
C967 N965 1.356 . S
N968 C960 1.356 . S
N968 H974 0.984 . S
N968 H975 0.984 . S
N969 C962 1.356 . S
N969 H972 0.984 . S
N969 H973 0.985 . S
H970 N965 0.984 . S
H971 N965 0.985 . S
H972 N969 0.984 . S
H973 N969 0.985 . S
H974 N968 0.984 . S
H975 N968 0.984 . S
H976 N964 0.984 . S
H977 N964 0.985 . S
C978 C979 1.363 . S
C978 C984 1.379 . S
C978 N986 1.356 . S
C979 C978 1.363 . S
C979 C985 1.363 . S
C980 C981 1.363 . S
C980 C985 1.379 . S
C980 N987 1.356 . S
C981 C980 1.363 . S
C981 C984 1.363 . S
N982 C984 1.356 . S
N982 H994 0.984 . S
N982 H995 0.985 . S
N983 C985 1.356 . S
N983 H988 0.984 . S
N983 H989 0.985 . S
C984 C978 1.379 . S
C984 C981 1.363 . S
C984 N982 1.356 . S
C985 C979 1.363 . S
C985 C980 1.379 . S
C985 N983 1.356 . S
N986 C978 1.356 . S
N986 H992 0.984 . S
N986 H993 0.984 . S
N987 C980 1.356 . S
N987 H990 0.984 . S
N987 H991 0.985 . S
H988 N983 0.984 . S
H989 N983 0.985 . S
H990 N987 0.984 . S
H991 N987 0.985 . S
H992 N986 0.984 . S
H993 N986 0.984 . S
H994 N982 0.984 . S
H995 N982 0.985 . S
C996 C997 1.363 . S
C996 C1002 1.379 . S
C996 N1004 1.356 . S
C997 C996 1.363 . S
C997 C1003 1.363 . S
C998 C999 1.363 . S
C998 C1003 1.379 . S
C998 N1005 1.356 . S
C999 C998 1.363 . S
C999 C1002 1.363 . S
N1000 C1002 1.356 . S
N1000 H1012 0.984 . S
N1000 H1013 0.985 . S
N1001 C1003 1.356 . S
N1001 H1006 0.984 . S
N1001 H1007 0.985 . S
C1002 C996 1.379 . S
C1002 C999 1.363 . S
C1002 N1000 1.356 . S
C1003 C997 1.363 . S
C1003 C998 1.379 . S
C1003 N1001 1.356 . S
N1004 C996 1.356 . S
N1004 H1010 0.984 . S
N1004 H1011 0.984 . S
N1005 C998 1.356 . S
N1005 H1008 0.984 . S
N1005 H1009 0.985 . S
H1006 N1001 0.984 . S
H1007 N1001 0.985 . S
H1008 N1005 0.984 . S
H1009 N1005 0.985 . S
H1010 N1004 0.984 . S
H1011 N1004 0.984 . S
H1012 N1000 0.984 . S
H1013 N1000 0.985 . S
C1014 C1015 1.363 . S
C1014 C1020 1.379 . S
C1014 N1022 1.356 . S
C1015 C1014 1.363 . S
C1015 C1021 1.363 . S
C1016 C1017 1.363 . S
C1016 C1021 1.379 . S
C1016 N1023 1.356 . S
C1017 C1016 1.363 . S
C1017 C1020 1.363 . S
N1018 C1020 1.356 . S
N1018 H1030 0.984 . S
N1018 H1031 0.985 . S
N1019 C1021 1.356 . S
N1019 H1024 0.984 . S
N1019 H1025 0.985 . S
C1020 C1014 1.379 . S
C1020 C1017 1.363 . S
C1020 N1018 1.356 . S
C1021 C1015 1.363 . S
C1021 C1016 1.379 . S
C1021 N1019 1.356 . S
N1022 C1014 1.356 . S
N1022 H1028 0.984 . S
N1022 H1029 0.984 . S
N1023 C1016 1.356 . S
N1023 H1026 0.984 . S
N1023 H1027 0.985 . S
H1024 N1019 0.984 . S
H1025 N1019 0.985 . S
H1026 N1023 0.984 . S
H1027 N1023 0.985 . S
H1028 N1022 0.984 . S
H1029 N1022 0.984 . S
H1030 N1018 0.984 . S
H1031 N1018 0.985 . S
C1032 C1033 1.363 . S
C1032 C1038 1.379 . S
C1032 N1040 1.356 . S
C1033 C1032 1.363 . S
C1033 C1039 1.363 . S
C1034 C1035 1.363 . S
C1034 C1039 1.379 . S
C1034 N1041 1.356 . S
C1035 C1034 1.363 . S
C1035 C1038 1.363 . S
N1036 C1038 1.356 . S
N1036 H1048 0.984 . S
N1036 H1049 0.985 . S
N1037 C1039 1.356 . S
N1037 H1042 0.984 . S
N1037 H1043 0.985 . S
C1038 C1032 1.379 . S
C1038 C1035 1.363 . S
C1038 N1036 1.356 . S
C1039 C1033 1.363 . S
C1039 C1034 1.379 . S
C1039 N1037 1.356 . S
N1040 C1032 1.356 . S
N1040 H1046 0.984 . S
N1040 H1047 0.984 . S
N1041 C1034 1.356 . S
N1041 H1044 0.984 . S
N1041 H1045 0.985 . S
H1042 N1037 0.984 . S
H1043 N1037 0.985 . S
H1044 N1041 0.984 . S
H1045 N1041 0.985 . S
H1046 N1040 0.984 . S
H1047 N1040 0.984 . S
H1048 N1036 0.984 . S
H1049 N1036 0.985 . S
C1050 C1051 1.363 . S
C1050 C1056 1.379 . S
C1050 N1058 1.356 . S
C1051 C1050 1.363 . S
C1051 C1057 1.363 . S
C1052 C1053 1.363 . S
C1052 C1057 1.379 . S
C1052 N1059 1.356 . S
C1053 C1052 1.363 . S
C1053 C1056 1.363 . S
N1054 C1056 1.356 . S
N1054 H1066 0.984 . S
N1054 H1067 0.985 . S
N1055 C1057 1.356 . S
N1055 H1060 0.984 . S
N1055 H1061 0.985 . S
C1056 C1050 1.379 . S
C1056 C1053 1.363 . S
C1056 N1054 1.356 . S
C1057 C1051 1.363 . S
C1057 C1052 1.379 . S
C1057 N1055 1.356 . S
N1058 C1050 1.356 . S
N1058 H1064 0.984 . S
N1058 H1065 0.984 . S
N1059 C1052 1.356 . S
N1059 H1062 0.984 . S
N1059 H1063 0.985 . S
H1060 N1055 0.984 . S
H1061 N1055 0.985 . S
H1062 N1059 0.984 . S
H1063 N1059 0.985 . S
H1064 N1058 0.984 . S
H1065 N1058 0.984 . S
H1066 N1054 0.984 . S
H1067 N1054 0.985 . S
C1068 C1069 1.363 . S
C1068 C1074 1.379 . S
C1068 N1076 1.356 . S
C1069 C1068 1.363 . S
C1069 C1075 1.363 . S
C1070 C1071 1.363 . S
C1070 C1075 1.379 . S
C1070 N1077 1.356 . S
C1071 C1070 1.363 . S
C1071 C1074 1.363 . S
N1072 C1074 1.356 . S
N1072 H1084 0.984 . S
N1072 H1085 0.985 . S
N1073 C1075 1.356 . S
N1073 H1078 0.984 . S
N1073 H1079 0.985 . S
C1074 C1068 1.379 . S
C1074 C1071 1.363 . S
C1074 N1072 1.356 . S
C1075 C1069 1.363 . S
C1075 C1070 1.379 . S
C1075 N1073 1.356 . S
N1076 C1068 1.356 . S
N1076 H1082 0.984 . S
N1076 H1083 0.984 . S
N1077 C1070 1.356 . S
N1077 H1080 0.984 . S
N1077 H1081 0.985 . S
H1078 N1073 0.984 . S
H1079 N1073 0.985 . S
H1080 N1077 0.984 . S
H1081 N1077 0.985 . S
H1082 N1076 0.984 . S
H1083 N1076 0.984 . S
H1084 N1072 0.984 . S
H1085 N1072 0.985 . S
C1086 C1087 1.363 . S
C1086 C1092 1.379 . S
C1086 N1094 1.356 . S
C1087 C1086 1.363 . S
C1087 C1093 1.363 . S
C1088 C1089 1.363 . S
C1088 C1093 1.379 . S
C1088 N1095 1.356 . S
C1089 C1088 1.363 . S
C1089 C1092 1.363 . S
N1090 C1092 1.356 . S
N1090 H1102 0.984 . S
N1090 H1103 0.985 . S
N1091 C1093 1.356 . S
N1091 H1096 0.984 . S
N1091 H1097 0.985 . S
C1092 C1086 1.379 . S
C1092 C1089 1.363 . S
C1092 N1090 1.356 . S
C1093 C1087 1.363 . S
C1093 C1088 1.379 . S
C1093 N1091 1.356 . S
N1094 C1086 1.356 . S
N1094 H1100 0.984 . S
N1094 H1101 0.984 . S
N1095 C1088 1.356 . S
N1095 H1098 0.984 . S
N1095 H1099 0.985 . S
H1096 N1091 0.984 . S
H1097 N1091 0.985 . S
H1098 N1095 0.984 . S
H1099 N1095 0.985 . S
H1100 N1094 0.984 . S
H1101 N1094 0.984 . S
H1102 N1090 0.984 . S
H1103 N1090 0.985 . S
C1104 C1105 1.363 . S
C1104 C1110 1.379 . S
C1104 N1112 1.356 . S
C1105 C1104 1.363 . S
C1105 C1111 1.363 . S
C1106 C1107 1.363 . S
C1106 C1111 1.379 . S
C1106 N1113 1.356 . S
C1107 C1106 1.363 . S
C1107 C1110 1.363 . S
N1108 C1110 1.356 . S
N1108 H1120 0.984 . S
N1108 H1121 0.985 . S
N1109 C1111 1.356 . S
N1109 H1114 0.984 . S
N1109 H1115 0.985 . S
C1110 C1104 1.379 . S
C1110 C1107 1.363 . S
C1110 N1108 1.356 . S
C1111 C1105 1.363 . S
C1111 C1106 1.379 . S
C1111 N1109 1.356 . S
N1112 C1104 1.356 . S
N1112 H1118 0.984 . S
N1112 H1119 0.984 . S
N1113 C1106 1.356 . S
N1113 H1116 0.984 . S
N1113 H1117 0.985 . S
H1114 N1109 0.984 . S
H1115 N1109 0.985 . S
H1116 N1113 0.984 . S
H1117 N1113 0.985 . S
H1118 N1112 0.984 . S
H1119 N1112 0.984 . S
H1120 N1108 0.984 . S
H1121 N1108 0.985 . S
C1122 C1123 1.363 . S
C1122 C1128 1.379 . S
C1122 N1130 1.356 . S
C1123 C1122 1.363 . S
C1123 C1129 1.363 . S
C1124 C1125 1.363 . S
C1124 C1129 1.379 . S
C1124 N1131 1.356 . S
C1125 C1124 1.363 . S
C1125 C1128 1.363 . S
N1126 C1128 1.356 . S
N1126 H1138 0.984 . S
N1126 H1139 0.985 . S
N1127 C1129 1.356 . S
N1127 H1132 0.984 . S
N1127 H1133 0.985 . S
C1128 C1122 1.379 . S
C1128 C1125 1.363 . S
C1128 N1126 1.356 . S
C1129 C1123 1.363 . S
C1129 C1124 1.379 . S
C1129 N1127 1.356 . S
N1130 C1122 1.356 . S
N1130 H1136 0.984 . S
N1130 H1137 0.984 . S
N1131 C1124 1.356 . S
N1131 H1134 0.984 . S
N1131 H1135 0.985 . S
H1132 N1127 0.984 . S
H1133 N1127 0.985 . S
H1134 N1131 0.984 . S
H1135 N1131 0.985 . S
H1136 N1130 0.984 . S
H1137 N1130 0.984 . S
H1138 N1126 0.984 . S
H1139 N1126 0.985 . S
C1140 C1141 1.363 . S
C1140 C1146 1.379 . S
C1140 N1148 1.356 . S
C1141 C1140 1.363 . S
C1141 C1147 1.363 . S
C1142 C1143 1.363 . S
C1142 C1147 1.379 . S
C1142 N1149 1.356 . S
C1143 C1142 1.363 . S
C1143 C1146 1.363 . S
N1144 C1146 1.356 . S
N1144 H1156 0.984 . S
N1144 H1157 0.985 . S
N1145 C1147 1.356 . S
N1145 H1150 0.984 . S
N1145 H1151 0.985 . S
C1146 C1140 1.379 . S
C1146 C1143 1.363 . S
C1146 N1144 1.356 . S
C1147 C1141 1.363 . S
C1147 C1142 1.379 . S
C1147 N1145 1.356 . S
N1148 C1140 1.356 . S
N1148 H1154 0.984 . S
N1148 H1155 0.984 . S
N1149 C1142 1.356 . S
N1149 H1152 0.984 . S
N1149 H1153 0.985 . S
H1150 N1145 0.984 . S
H1151 N1145 0.985 . S
H1152 N1149 0.984 . S
H1153 N1149 0.985 . S
H1154 N1148 0.984 . S
H1155 N1148 0.984 . S
H1156 N1144 0.984 . S
H1157 N1144 0.985 . S
C1158 C1159 1.363 . S
C1158 C1164 1.379 . S
C1158 N1166 1.356 . S
C1159 C1158 1.363 . S
C1159 C1165 1.363 . S
C1160 C1161 1.363 . S
C1160 C1165 1.379 . S
C1160 N1167 1.356 . S
C1161 C1160 1.363 . S
C1161 C1164 1.363 . S
N1162 C1164 1.356 . S
N1162 H1174 0.984 . S
N1162 H1175 0.985 . S
N1163 C1165 1.356 . S
N1163 H1168 0.984 . S
N1163 H1169 0.985 . S
C1164 C1158 1.379 . S
C1164 C1161 1.363 . S
C1164 N1162 1.356 . S
C1165 C1159 1.363 . S
C1165 C1160 1.379 . S
C1165 N1163 1.356 . S
N1166 C1158 1.356 . S
N1166 H1172 0.984 . S
N1166 H1173 0.984 . S
N1167 C1160 1.356 . S
N1167 H1170 0.984 . S
N1167 H1171 0.985 . S
H1168 N1163 0.984 . S
H1169 N1163 0.985 . S
H1170 N1167 0.984 . S
H1171 N1167 0.985 . S
H1172 N1166 0.984 . S
H1173 N1166 0.984 . S
H1174 N1162 0.984 . S
H1175 N1162 0.985 . S
C1176 C1177 1.363 . S
C1176 C1182 1.379 . S
C1176 N1184 1.356 . S
C1177 C1176 1.363 . S
C1177 C1183 1.363 . S
C1178 C1179 1.363 . S
C1178 C1183 1.379 . S
C1178 N1185 1.356 . S
C1179 C1178 1.363 . S
C1179 C1182 1.363 . S
N1180 C1182 1.356 . S
N1180 H1192 0.984 . S
N1180 H1193 0.985 . S
N1181 C1183 1.356 . S
N1181 H1186 0.984 . S
N1181 H1187 0.985 . S
C1182 C1176 1.379 . S
C1182 C1179 1.363 . S
C1182 N1180 1.356 . S
C1183 C1177 1.363 . S
C1183 C1178 1.379 . S
C1183 N1181 1.356 . S
N1184 C1176 1.356 . S
N1184 H1190 0.984 . S
N1184 H1191 0.984 . S
N1185 C1178 1.356 . S
N1185 H1188 0.984 . S
N1185 H1189 0.985 . S
H1186 N1181 0.984 . S
H1187 N1181 0.985 . S
H1188 N1185 0.984 . S
H1189 N1185 0.985 . S
H1190 N1184 0.984 . S
H1191 N1184 0.984 . S
H1192 N1180 0.984 . S
H1193 N1180 0.985 . S
C1194 C1195 1.363 . S
C1194 C1200 1.379 . S
C1194 N1202 1.356 . S
C1195 C1194 1.363 . S
C1195 C1201 1.363 . S
C1196 C1197 1.363 . S
C1196 C1201 1.379 . S
C1196 N1203 1.356 . S
C1197 C1196 1.363 . S
C1197 C1200 1.363 . S
N1198 C1200 1.356 . S
N1198 H1210 0.984 . S
N1198 H1211 0.985 . S
N1199 C1201 1.356 . S
N1199 H1204 0.984 . S
N1199 H1205 0.985 . S
C1200 C1194 1.379 . S
C1200 C1197 1.363 . S
C1200 N1198 1.356 . S
C1201 C1195 1.363 . S
C1201 C1196 1.379 . S
C1201 N1199 1.356 . S
N1202 C1194 1.356 . S
N1202 H1208 0.984 . S
N1202 H1209 0.984 . S
N1203 C1196 1.356 . S
N1203 H1206 0.984 . S
N1203 H1207 0.985 . S
H1204 N1199 0.984 . S
H1205 N1199 0.985 . S
H1206 N1203 0.984 . S
H1207 N1203 0.985 . S
H1208 N1202 0.984 . S
H1209 N1202 0.984 . S
H1210 N1198 0.984 . S
H1211 N1198 0.985 . S
C1212 C1213 1.363 . S
C1212 C1218 1.379 . S
C1212 N1220 1.356 . S
C1213 C1212 1.363 . S
C1213 C1219 1.363 . S
C1214 C1215 1.363 . S
C1214 C1219 1.379 . S
C1214 N1221 1.356 . S
C1215 C1214 1.363 . S
C1215 C1218 1.363 . S
N1216 C1218 1.356 . S
N1216 H1228 0.984 . S
N1216 H1229 0.985 . S
N1217 C1219 1.356 . S
N1217 H1222 0.984 . S
N1217 H1223 0.985 . S
C1218 C1212 1.379 . S
C1218 C1215 1.363 . S
C1218 N1216 1.356 . S
C1219 C1213 1.363 . S
C1219 C1214 1.379 . S
C1219 N1217 1.356 . S
N1220 C1212 1.356 . S
N1220 H1226 0.984 . S
N1220 H1227 0.984 . S
N1221 C1214 1.356 . S
N1221 H1224 0.984 . S
N1221 H1225 0.985 . S
H1222 N1217 0.984 . S
H1223 N1217 0.985 . S
H1224 N1221 0.984 . S
H1225 N1221 0.985 . S
H1226 N1220 0.984 . S
H1227 N1220 0.984 . S
H1228 N1216 0.984 . S
H1229 N1216 0.985 . S
C1230 C1231 1.363 . S
C1230 C1236 1.379 . S
C1230 N1238 1.356 . S
C1231 C1230 1.363 . S
C1231 C1237 1.363 . S
C1232 C1233 1.363 . S
C1232 C1237 1.379 . S
C1232 N1239 1.356 . S
C1233 C1232 1.363 . S
C1233 C1236 1.363 . S
N1234 C1236 1.356 . S
N1234 H1246 0.984 . S
N1234 H1247 0.985 . S
N1235 C1237 1.356 . S
N1235 H1240 0.984 . S
N1235 H1241 0.985 . S
C1236 C1230 1.379 . S
C1236 C1233 1.363 . S
C1236 N1234 1.356 . S
C1237 C1231 1.363 . S
C1237 C1232 1.379 . S
C1237 N1235 1.356 . S
N1238 C1230 1.356 . S
N1238 H1244 0.984 . S
N1238 H1245 0.984 . S
N1239 C1232 1.356 . S
N1239 H1242 0.984 . S
N1239 H1243 0.985 . S
H1240 N1235 0.984 . S
H1241 N1235 0.985 . S
H1242 N1239 0.984 . S
H1243 N1239 0.985 . S
H1244 N1238 0.984 . S
H1245 N1238 0.984 . S
H1246 N1234 0.984 . S
H1247 N1234 0.985 . S
C1248 C1249 1.363 . S
C1248 C1254 1.379 . S
C1248 N1256 1.356 . S
C1249 C1248 1.363 . S
C1249 C1255 1.363 . S
C1250 C1251 1.363 . S
C1250 C1255 1.379 . S
C1250 N1257 1.356 . S
C1251 C1250 1.363 . S
C1251 C1254 1.363 . S
N1252 C1254 1.356 . S
N1252 H1264 0.984 . S
N1252 H1265 0.985 . S
N1253 C1255 1.356 . S
N1253 H1258 0.984 . S
N1253 H1259 0.985 . S
C1254 C1248 1.379 . S
C1254 C1251 1.363 . S
C1254 N1252 1.356 . S
C1255 C1249 1.363 . S
C1255 C1250 1.379 . S
C1255 N1253 1.356 . S
N1256 C1248 1.356 . S
N1256 H1262 0.984 . S
N1256 H1263 0.984 . S
N1257 C1250 1.356 . S
N1257 H1260 0.984 . S
N1257 H1261 0.985 . S
H1258 N1253 0.984 . S
H1259 N1253 0.985 . S
H1260 N1257 0.984 . S
H1261 N1257 0.985 . S
H1262 N1256 0.984 . S
H1263 N1256 0.984 . S
H1264 N1252 0.984 . S
H1265 N1252 0.985 . S
C1266 C1267 1.363 . S
C1266 C1272 1.379 . S
C1266 N1274 1.356 . S
C1267 C1266 1.363 . S
C1267 C1273 1.363 . S
C1268 C1269 1.363 . S
C1268 C1273 1.379 . S
C1268 N1275 1.356 . S
C1269 C1268 1.363 . S
C1269 C1272 1.363 . S
N1270 C1272 1.356 . S
N1270 H1282 0.984 . S
N1270 H1283 0.985 . S
N1271 C1273 1.356 . S
N1271 H1276 0.984 . S
N1271 H1277 0.985 . S
C1272 C1266 1.379 . S
C1272 C1269 1.363 . S
C1272 N1270 1.356 . S
C1273 C1267 1.363 . S
C1273 C1268 1.379 . S
C1273 N1271 1.356 . S
N1274 C1266 1.356 . S
N1274 H1280 0.984 . S
N1274 H1281 0.984 . S
N1275 C1268 1.356 . S
N1275 H1278 0.984 . S
N1275 H1279 0.985 . S
H1276 N1271 0.984 . S
H1277 N1271 0.985 . S
H1278 N1275 0.984 . S
H1279 N1275 0.985 . S
H1280 N1274 0.984 . S
H1281 N1274 0.984 . S
H1282 N1270 0.984 . S
H1283 N1270 0.985 . S
C1284 C1285 1.363 . S
C1284 C1290 1.379 . S
C1284 N1292 1.356 . S
C1285 C1284 1.363 . S
C1285 C1291 1.363 . S
C1286 C1287 1.363 . S
C1286 C1291 1.379 . S
C1286 N1293 1.356 . S
C1287 C1286 1.363 . S
C1287 C1290 1.363 . S
N1288 C1290 1.356 . S
N1288 H1300 0.984 . S
N1288 H1301 0.985 . S
N1289 C1291 1.356 . S
N1289 H1294 0.984 . S
N1289 H1295 0.985 . S
C1290 C1284 1.379 . S
C1290 C1287 1.363 . S
C1290 N1288 1.356 . S
C1291 C1285 1.363 . S
C1291 C1286 1.379 . S
C1291 N1289 1.356 . S
N1292 C1284 1.356 . S
N1292 H1298 0.984 . S
N1292 H1299 0.984 . S
N1293 C1286 1.356 . S
N1293 H1296 0.984 . S
N1293 H1297 0.985 . S
H1294 N1289 0.984 . S
H1295 N1289 0.985 . S
H1296 N1293 0.984 . S
H1297 N1293 0.985 . S
H1298 N1292 0.984 . S
H1299 N1292 0.984 . S
H1300 N1288 0.984 . S
H1301 N1288 0.985 . S
C1302 C1303 1.363 . S
C1302 C1308 1.379 . S
C1302 N1310 1.356 . S
C1303 C1302 1.363 . S
C1303 C1309 1.363 . S
C1304 C1305 1.363 . S
C1304 C1309 1.379 . S
C1304 N1311 1.356 . S
C1305 C1304 1.363 . S
C1305 C1308 1.363 . S
N1306 C1308 1.356 . S
N1306 H1318 0.984 . S
N1306 H1319 0.985 . S
N1307 C1309 1.356 . S
N1307 H1312 0.984 . S
N1307 H1313 0.985 . S
C1308 C1302 1.379 . S
C1308 C1305 1.363 . S
C1308 N1306 1.356 . S
C1309 C1303 1.363 . S
C1309 C1304 1.379 . S
C1309 N1307 1.356 . S
N1310 C1302 1.356 . S
N1310 H1316 0.984 . S
N1310 H1317 0.984 . S
N1311 C1304 1.356 . S
N1311 H1314 0.984 . S
N1311 H1315 0.985 . S
H1312 N1307 0.984 . S
H1313 N1307 0.985 . S
H1314 N1311 0.984 . S
H1315 N1311 0.985 . S
H1316 N1310 0.984 . S
H1317 N1310 0.984 . S
H1318 N1306 0.984 . S
H1319 N1306 0.985 . S
C1320 C1321 1.363 . S
C1320 C1326 1.379 . S
C1320 N1328 1.356 . S
C1321 C1320 1.363 . S
C1321 C1327 1.363 . S
C1322 C1323 1.363 . S
C1322 C1327 1.379 . S
C1322 N1329 1.356 . S
C1323 C1322 1.363 . S
C1323 C1326 1.363 . S
N1324 C1326 1.356 . S
N1324 H1336 0.984 . S
N1324 H1337 0.985 . S
N1325 C1327 1.356 . S
N1325 H1330 0.984 . S
N1325 H1331 0.985 . S
C1326 C1320 1.379 . S
C1326 C1323 1.363 . S
C1326 N1324 1.356 . S
C1327 C1321 1.363 . S
C1327 C1322 1.379 . S
C1327 N1325 1.356 . S
N1328 C1320 1.356 . S
N1328 H1334 0.984 . S
N1328 H1335 0.984 . S
N1329 C1322 1.356 . S
N1329 H1332 0.984 . S
N1329 H1333 0.985 . S
H1330 N1325 0.984 . S
H1331 N1325 0.985 . S
H1332 N1329 0.984 . S
H1333 N1329 0.985 . S
H1334 N1328 0.984 . S
H1335 N1328 0.984 . S
H1336 N1324 0.984 . S
H1337 N1324 0.985 . S
C1338 C1339 1.363 . S
C1338 C1344 1.379 . S
C1338 N1346 1.356 . S
C1339 C1338 1.363 . S
C1339 C1345 1.363 . S
C1340 C1341 1.363 . S
C1340 C1345 1.379 . S
C1340 N1347 1.356 . S
C1341 C1340 1.363 . S
C1341 C1344 1.363 . S
N1342 C1344 1.356 . S
N1342 H1354 0.984 . S
N1342 H1355 0.985 . S
N1343 C1345 1.356 . S
N1343 H1348 0.984 . S
N1343 H1349 0.985 . S
C1344 C1338 1.379 . S
C1344 C1341 1.363 . S
C1344 N1342 1.356 . S
C1345 C1339 1.363 . S
C1345 C1340 1.379 . S
C1345 N1343 1.356 . S
N1346 C1338 1.356 . S
N1346 H1352 0.984 . S
N1346 H1353 0.984 . S
N1347 C1340 1.356 . S
N1347 H1350 0.984 . S
N1347 H1351 0.985 . S
H1348 N1343 0.984 . S
H1349 N1343 0.985 . S
H1350 N1347 0.984 . S
H1351 N1347 0.985 . S
H1352 N1346 0.984 . S
H1353 N1346 0.984 . S
H1354 N1342 0.984 . S
H1355 N1342 0.985 . S
C1356 C1357 1.363 . S
C1356 C1362 1.379 . S
C1356 N1364 1.356 . S
C1357 C1356 1.363 . S
C1357 C1363 1.363 . S
C1358 C1359 1.363 . S
C1358 C1363 1.379 . S
C1358 N1365 1.356 . S
C1359 C1358 1.363 . S
C1359 C1362 1.363 . S
N1360 C1362 1.356 . S
N1360 H1372 0.984 . S
N1360 H1373 0.985 . S
N1361 C1363 1.356 . S
N1361 H1366 0.984 . S
N1361 H1367 0.985 . S
C1362 C1356 1.379 . S
C1362 C1359 1.363 . S
C1362 N1360 1.356 . S
C1363 C1357 1.363 . S
C1363 C1358 1.379 . S
C1363 N1361 1.356 . S
N1364 C1356 1.356 . S
N1364 H1370 0.984 . S
N1364 H1371 0.984 . S
N1365 C1358 1.356 . S
N1365 H1368 0.984 . S
N1365 H1369 0.985 . S
H1366 N1361 0.984 . S
H1367 N1361 0.985 . S
H1368 N1365 0.984 . S
H1369 N1365 0.985 . S
H1370 N1364 0.984 . S
H1371 N1364 0.984 . S
H1372 N1360 0.984 . S
H1373 N1360 0.985 . S
C1374 C1375 1.363 . S
C1374 C1380 1.379 . S
C1374 N1382 1.356 . S
C1375 C1374 1.363 . S
C1375 C1381 1.363 . S
C1376 C1377 1.363 . S
C1376 C1381 1.379 . S
C1376 N1383 1.356 . S
C1377 C1376 1.363 . S
C1377 C1380 1.363 . S
N1378 C1380 1.356 . S
N1378 H1390 0.984 . S
N1378 H1391 0.985 . S
N1379 C1381 1.356 . S
N1379 H1384 0.984 . S
N1379 H1385 0.985 . S
C1380 C1374 1.379 . S
C1380 C1377 1.363 . S
C1380 N1378 1.356 . S
C1381 C1375 1.363 . S
C1381 C1376 1.379 . S
C1381 N1379 1.356 . S
N1382 C1374 1.356 . S
N1382 H1388 0.984 . S
N1382 H1389 0.984 . S
N1383 C1376 1.356 . S
N1383 H1386 0.984 . S
N1383 H1387 0.985 . S
H1384 N1379 0.984 . S
H1385 N1379 0.985 . S
H1386 N1383 0.984 . S
H1387 N1383 0.985 . S
H1388 N1382 0.984 . S
H1389 N1382 0.984 . S
H1390 N1378 0.984 . S
H1391 N1378 0.985 . S
C1392 C1393 1.363 . S
C1392 C1398 1.379 . S
C1392 N1400 1.356 . S
C1393 C1392 1.363 . S
C1393 C1399 1.363 . S
C1394 C1395 1.363 . S
C1394 C1399 1.379 . S
C1394 N1401 1.356 . S
C1395 C1394 1.363 . S
C1395 C1398 1.363 . S
N1396 C1398 1.356 . S
N1396 H1408 0.984 . S
N1396 H1409 0.985 . S
N1397 C1399 1.356 . S
N1397 H1402 0.984 . S
N1397 H1403 0.985 . S
C1398 C1392 1.379 . S
C1398 C1395 1.363 . S
C1398 N1396 1.356 . S
C1399 C1393 1.363 . S
C1399 C1394 1.379 . S
C1399 N1397 1.356 . S
N1400 C1392 1.356 . S
N1400 H1406 0.984 . S
N1400 H1407 0.984 . S
N1401 C1394 1.356 . S
N1401 H1404 0.984 . S
N1401 H1405 0.985 . S
H1402 N1397 0.984 . S
H1403 N1397 0.985 . S
H1404 N1401 0.984 . S
H1405 N1401 0.985 . S
H1406 N1400 0.984 . S
H1407 N1400 0.984 . S
H1408 N1396 0.984 . S
H1409 N1396 0.985 . S
C1410 C1411 1.363 . S
C1410 C1416 1.379 . S
C1410 N1418 1.356 . S
C1411 C1410 1.363 . S
C1411 C1417 1.363 . S
C1412 C1413 1.363 . S
C1412 C1417 1.379 . S
C1412 N1419 1.356 . S
C1413 C1412 1.363 . S
C1413 C1416 1.363 . S
N1414 C1416 1.356 . S
N1414 H1426 0.984 . S
N1414 H1427 0.985 . S
N1415 C1417 1.356 . S
N1415 H1420 0.984 . S
N1415 H1421 0.985 . S
C1416 C1410 1.379 . S
C1416 C1413 1.363 . S
C1416 N1414 1.356 . S
C1417 C1411 1.363 . S
C1417 C1412 1.379 . S
C1417 N1415 1.356 . S
N1418 C1410 1.356 . S
N1418 H1424 0.984 . S
N1418 H1425 0.984 . S
N1419 C1412 1.356 . S
N1419 H1422 0.984 . S
N1419 H1423 0.985 . S
H1420 N1415 0.984 . S
H1421 N1415 0.985 . S
H1422 N1419 0.984 . S
H1423 N1419 0.985 . S
H1424 N1418 0.984 . S
H1425 N1418 0.984 . S
H1426 N1414 0.984 . S
H1427 N1414 0.985 . S
C1428 C1429 1.363 . S
C1428 C1434 1.379 . S
C1428 N1436 1.356 . S
C1429 C1428 1.363 . S
C1429 C1435 1.363 . S
C1430 C1431 1.363 . S
C1430 C1435 1.379 . S
C1430 N1437 1.356 . S
C1431 C1430 1.363 . S
C1431 C1434 1.363 . S
N1432 C1434 1.356 . S
N1432 H1444 0.984 . S
N1432 H1445 0.985 . S
N1433 C1435 1.356 . S
N1433 H1438 0.984 . S
N1433 H1439 0.985 . S
C1434 C1428 1.379 . S
C1434 C1431 1.363 . S
C1434 N1432 1.356 . S
C1435 C1429 1.363 . S
C1435 C1430 1.379 . S
C1435 N1433 1.356 . S
N1436 C1428 1.356 . S
N1436 H1442 0.984 . S
N1436 H1443 0.984 . S
N1437 C1430 1.356 . S
N1437 H1440 0.984 . S
N1437 H1441 0.985 . S
H1438 N1433 0.984 . S
H1439 N1433 0.985 . S
H1440 N1437 0.984 . S
H1441 N1437 0.985 . S
H1442 N1436 0.984 . S
H1443 N1436 0.984 . S
H1444 N1432 0.984 . S
H1445 N1432 0.985 . S
C1446 C1447 1.363 . S
C1446 C1452 1.379 . S
C1446 N1454 1.356 . S
C1447 C1446 1.363 . S
C1447 C1453 1.363 . S
C1448 C1449 1.363 . S
C1448 C1453 1.379 . S
C1448 N1455 1.356 . S
C1449 C1448 1.363 . S
C1449 C1452 1.363 . S
N1450 C1452 1.356 . S
N1450 H1462 0.984 . S
N1450 H1463 0.985 . S
N1451 C1453 1.356 . S
N1451 H1456 0.984 . S
N1451 H1457 0.985 . S
C1452 C1446 1.379 . S
C1452 C1449 1.363 . S
C1452 N1450 1.356 . S
C1453 C1447 1.363 . S
C1453 C1448 1.379 . S
C1453 N1451 1.356 . S
N1454 C1446 1.356 . S
N1454 H1460 0.984 . S
N1454 H1461 0.984 . S
N1455 C1448 1.356 . S
N1455 H1458 0.984 . S
N1455 H1459 0.985 . S
H1456 N1451 0.984 . S
H1457 N1451 0.985 . S
H1458 N1455 0.984 . S
H1459 N1455 0.985 . S
H1460 N1454 0.984 . S
H1461 N1454 0.984 . S
H1462 N1450 0.984 . S
H1463 N1450 0.985 . S
C1464 C1465 1.363 . S
C1464 C1470 1.379 . S
C1464 N1472 1.356 . S
C1465 C1464 1.363 . S
C1465 C1471 1.363 . S
C1466 C1467 1.363 . S
C1466 C1471 1.379 . S
C1466 N1473 1.356 . S
C1467 C1466 1.363 . S
C1467 C1470 1.363 . S
N1468 C1470 1.356 . S
N1468 H1480 0.984 . S
N1468 H1481 0.985 . S
N1469 C1471 1.356 . S
N1469 H1474 0.984 . S
N1469 H1475 0.985 . S
C1470 C1464 1.379 . S
C1470 C1467 1.363 . S
C1470 N1468 1.356 . S
C1471 C1465 1.363 . S
C1471 C1466 1.379 . S
C1471 N1469 1.356 . S
N1472 C1464 1.356 . S
N1472 H1478 0.984 . S
N1472 H1479 0.984 . S
N1473 C1466 1.356 . S
N1473 H1476 0.984 . S
N1473 H1477 0.985 . S
H1474 N1469 0.984 . S
H1475 N1469 0.985 . S
H1476 N1473 0.984 . S
H1477 N1473 0.985 . S
H1478 N1472 0.984 . S
H1479 N1472 0.984 . S
H1480 N1468 0.984 . S
H1481 N1468 0.985 . S
C1482 C1483 1.363 . S
C1482 C1488 1.379 . S
C1482 N1490 1.356 . S
C1483 C1482 1.363 . S
C1483 C1489 1.363 . S
C1484 C1485 1.363 . S
C1484 C1489 1.379 . S
C1484 N1491 1.356 . S
C1485 C1484 1.363 . S
C1485 C1488 1.363 . S
N1486 C1488 1.356 . S
N1486 H1498 0.984 . S
N1486 H1499 0.985 . S
N1487 C1489 1.356 . S
N1487 H1492 0.984 . S
N1487 H1493 0.985 . S
C1488 C1482 1.379 . S
C1488 C1485 1.363 . S
C1488 N1486 1.356 . S
C1489 C1483 1.363 . S
C1489 C1484 1.379 . S
C1489 N1487 1.356 . S
N1490 C1482 1.356 . S
N1490 H1496 0.984 . S
N1490 H1497 0.984 . S
N1491 C1484 1.356 . S
N1491 H1494 0.984 . S
N1491 H1495 0.985 . S
H1492 N1487 0.984 . S
H1493 N1487 0.985 . S
H1494 N1491 0.984 . S
H1495 N1491 0.985 . S
H1496 N1490 0.984 . S
H1497 N1490 0.984 . S
H1498 N1486 0.984 . S
H1499 N1486 0.985 . S
C1500 C1501 1.363 . S
C1500 C1506 1.379 . S
C1500 N1508 1.356 . S
C1501 C1500 1.363 . S
C1501 C1507 1.363 . S
C1502 C1503 1.363 . S
C1502 C1507 1.379 . S
C1502 N1509 1.356 . S
C1503 C1502 1.363 . S
C1503 C1506 1.363 . S
N1504 C1506 1.356 . S
N1504 H1516 0.984 . S
N1504 H1517 0.985 . S
N1505 C1507 1.356 . S
N1505 H1510 0.984 . S
N1505 H1511 0.985 . S
C1506 C1500 1.379 . S
C1506 C1503 1.363 . S
C1506 N1504 1.356 . S
C1507 C1501 1.363 . S
C1507 C1502 1.379 . S
C1507 N1505 1.356 . S
N1508 C1500 1.356 . S
N1508 H1514 0.984 . S
N1508 H1515 0.984 . S
N1509 C1502 1.356 . S
N1509 H1512 0.984 . S
N1509 H1513 0.985 . S
H1510 N1505 0.984 . S
H1511 N1505 0.985 . S
H1512 N1509 0.984 . S
H1513 N1509 0.985 . S
H1514 N1508 0.984 . S
H1515 N1508 0.984 . S
H1516 N1504 0.984 . S
H1517 N1504 0.985 . S
C1518 C1519 1.363 . S
C1518 C1524 1.379 . S
C1518 N1526 1.356 . S
C1519 C1518 1.363 . S
C1519 C1525 1.363 . S
C1520 C1521 1.363 . S
C1520 C1525 1.379 . S
C1520 N1527 1.356 . S
C1521 C1520 1.363 . S
C1521 C1524 1.363 . S
N1522 C1524 1.356 . S
N1522 H1534 0.984 . S
N1522 H1535 0.985 . S
N1523 C1525 1.356 . S
N1523 H1528 0.984 . S
N1523 H1529 0.985 . S
C1524 C1518 1.379 . S
C1524 C1521 1.363 . S
C1524 N1522 1.356 . S
C1525 C1519 1.363 . S
C1525 C1520 1.379 . S
C1525 N1523 1.356 . S
N1526 C1518 1.356 . S
N1526 H1532 0.984 . S
N1526 H1533 0.984 . S
N1527 C1520 1.356 . S
N1527 H1530 0.984 . S
N1527 H1531 0.985 . S
H1528 N1523 0.984 . S
H1529 N1523 0.985 . S
H1530 N1527 0.984 . S
H1531 N1527 0.985 . S
H1532 N1526 0.984 . S
H1533 N1526 0.984 . S
H1534 N1522 0.984 . S
H1535 N1522 0.985 . S
C1536 C1537 1.363 . S
C1536 C1542 1.379 . S
C1536 N1544 1.356 . S
C1537 C1536 1.363 . S
C1537 C1543 1.363 . S
C1538 C1539 1.363 . S
C1538 C1543 1.379 . S
C1538 N1545 1.356 . S
C1539 C1538 1.363 . S
C1539 C1542 1.363 . S
N1540 C1542 1.356 . S
N1540 H1552 0.984 . S
N1540 H1553 0.985 . S
N1541 C1543 1.356 . S
N1541 H1546 0.984 . S
N1541 H1547 0.985 . S
C1542 C1536 1.379 . S
C1542 C1539 1.363 . S
C1542 N1540 1.356 . S
C1543 C1537 1.363 . S
C1543 C1538 1.379 . S
C1543 N1541 1.356 . S
N1544 C1536 1.356 . S
N1544 H1550 0.984 . S
N1544 H1551 0.984 . S
N1545 C1538 1.356 . S
N1545 H1548 0.984 . S
N1545 H1549 0.985 . S
H1546 N1541 0.984 . S
H1547 N1541 0.985 . S
H1548 N1545 0.984 . S
H1549 N1545 0.985 . S
H1550 N1544 0.984 . S
H1551 N1544 0.984 . S
H1552 N1540 0.984 . S
H1553 N1540 0.985 . S
C1554 C1555 1.363 . S
C1554 C1560 1.379 . S
C1554 N1562 1.356 . S
C1555 C1554 1.363 . S
C1555 C1561 1.363 . S
C1556 C1557 1.363 . S
C1556 C1561 1.379 . S
C1556 N1563 1.356 . S
C1557 C1556 1.363 . S
C1557 C1560 1.363 . S
N1558 C1560 1.356 . S
N1558 H1570 0.984 . S
N1558 H1571 0.985 . S
N1559 C1561 1.356 . S
N1559 H1564 0.984 . S
N1559 H1565 0.985 . S
C1560 C1554 1.379 . S
C1560 C1557 1.363 . S
C1560 N1558 1.356 . S
C1561 C1555 1.363 . S
C1561 C1556 1.379 . S
C1561 N1559 1.356 . S
N1562 C1554 1.356 . S
N1562 H1568 0.984 . S
N1562 H1569 0.984 . S
N1563 C1556 1.356 . S
N1563 H1566 0.984 . S
N1563 H1567 0.985 . S
H1564 N1559 0.984 . S
H1565 N1559 0.985 . S
H1566 N1563 0.984 . S
H1567 N1563 0.985 . S
H1568 N1562 0.984 . S
H1569 N1562 0.984 . S
H1570 N1558 0.984 . S
H1571 N1558 0.985 . S
C1572 C1573 1.363 . S
C1572 C1578 1.379 . S
C1572 N1580 1.356 . S
C1573 C1572 1.363 . S
C1573 C1579 1.363 . S
C1574 C1575 1.363 . S
C1574 C1579 1.379 . S
C1574 N1581 1.356 . S
C1575 C1574 1.363 . S
C1575 C1578 1.363 . S
N1576 C1578 1.356 . S
N1576 H1588 0.984 . S
N1576 H1589 0.985 . S
N1577 C1579 1.356 . S
N1577 H1582 0.984 . S
N1577 H1583 0.985 . S
C1578 C1572 1.379 . S
C1578 C1575 1.363 . S
C1578 N1576 1.356 . S
C1579 C1573 1.363 . S
C1579 C1574 1.379 . S
C1579 N1577 1.356 . S
N1580 C1572 1.356 . S
N1580 H1586 0.984 . S
N1580 H1587 0.984 . S
N1581 C1574 1.356 . S
N1581 H1584 0.984 . S
N1581 H1585 0.985 . S
H1582 N1577 0.984 . S
H1583 N1577 0.985 . S
H1584 N1581 0.984 . S
H1585 N1581 0.985 . S
H1586 N1580 0.984 . S
H1587 N1580 0.984 . S
H1588 N1576 0.984 . S
H1589 N1576 0.985 . S
C1590 C1591 1.363 . S
C1590 C1596 1.379 . S
C1590 N1598 1.356 . S
C1591 C1590 1.363 . S
C1591 C1597 1.363 . S
C1592 C1593 1.363 . S
C1592 C1597 1.379 . S
C1592 N1599 1.356 . S
C1593 C1592 1.363 . S
C1593 C1596 1.363 . S
N1594 C1596 1.356 . S
N1594 H1606 0.984 . S
N1594 H1607 0.985 . S
N1595 C1597 1.356 . S
N1595 H1600 0.984 . S
N1595 H1601 0.985 . S
C1596 C1590 1.379 . S
C1596 C1593 1.363 . S
C1596 N1594 1.356 . S
C1597 C1591 1.363 . S
C1597 C1592 1.379 . S
C1597 N1595 1.356 . S
N1598 C1590 1.356 . S
N1598 H1604 0.984 . S
N1598 H1605 0.984 . S
N1599 C1592 1.356 . S
N1599 H1602 0.984 . S
N1599 H1603 0.985 . S
H1600 N1595 0.984 . S
H1601 N1595 0.985 . S
H1602 N1599 0.984 . S
H1603 N1599 0.985 . S
H1604 N1598 0.984 . S
H1605 N1598 0.984 . S
H1606 N1594 0.984 . S
H1607 N1594 0.985 . S
C1608 C1609 1.363 . S
C1608 C1614 1.379 . S
C1608 N1616 1.356 . S
C1609 C1608 1.363 . S
C1609 C1615 1.363 . S
C1610 C1611 1.363 . S
C1610 C1615 1.379 . S
C1610 N1617 1.356 . S
C1611 C1610 1.363 . S
C1611 C1614 1.363 . S
N1612 C1614 1.356 . S
N1612 H1624 0.984 . S
N1612 H1625 0.985 . S
N1613 C1615 1.356 . S
N1613 H1618 0.984 . S
N1613 H1619 0.985 . S
C1614 C1608 1.379 . S
C1614 C1611 1.363 . S
C1614 N1612 1.356 . S
C1615 C1609 1.363 . S
C1615 C1610 1.379 . S
C1615 N1613 1.356 . S
N1616 C1608 1.356 . S
N1616 H1622 0.984 . S
N1616 H1623 0.984 . S
N1617 C1610 1.356 . S
N1617 H1620 0.984 . S
N1617 H1621 0.985 . S
H1618 N1613 0.984 . S
H1619 N1613 0.985 . S
H1620 N1617 0.984 . S
H1621 N1617 0.985 . S
H1622 N1616 0.984 . S
H1623 N1616 0.984 . S
H1624 N1612 0.984 . S
H1625 N1612 0.985 . S
C1626 C1627 1.363 . S
C1626 C1632 1.379 . S
C1626 N1634 1.356 . S
C1627 C1626 1.363 . S
C1627 C1633 1.363 . S
C1628 C1629 1.363 . S
C1628 C1633 1.379 . S
C1628 N1635 1.356 . S
C1629 C1628 1.363 . S
C1629 C1632 1.363 . S
N1630 C1632 1.356 . S
N1630 H1642 0.984 . S
N1630 H1643 0.985 . S
N1631 C1633 1.356 . S
N1631 H1636 0.984 . S
N1631 H1637 0.985 . S
C1632 C1626 1.379 . S
C1632 C1629 1.363 . S
C1632 N1630 1.356 . S
C1633 C1627 1.363 . S
C1633 C1628 1.379 . S
C1633 N1631 1.356 . S
N1634 C1626 1.356 . S
N1634 H1640 0.984 . S
N1634 H1641 0.984 . S
N1635 C1628 1.356 . S
N1635 H1638 0.984 . S
N1635 H1639 0.985 . S
H1636 N1631 0.984 . S
H1637 N1631 0.985 . S
H1638 N1635 0.984 . S
H1639 N1635 0.985 . S
H1640 N1634 0.984 . S
H1641 N1634 0.984 . S
H1642 N1630 0.984 . S
H1643 N1630 0.985 . S
C1644 C1645 1.363 . S
C1644 C1650 1.379 . S
C1644 N1652 1.356 . S
C1645 C1644 1.363 . S
C1645 C1651 1.363 . S
C1646 C1647 1.363 . S
C1646 C1651 1.379 . S
C1646 N1653 1.356 . S
C1647 C1646 1.363 . S
C1647 C1650 1.363 . S
N1648 C1650 1.356 . S
N1648 H1660 0.984 . S
N1648 H1661 0.985 . S
N1649 C1651 1.356 . S
N1649 H1654 0.984 . S
N1649 H1655 0.985 . S
C1650 C1644 1.379 . S
C1650 C1647 1.363 . S
C1650 N1648 1.356 . S
C1651 C1645 1.363 . S
C1651 C1646 1.379 . S
C1651 N1649 1.356 . S
N1652 C1644 1.356 . S
N1652 H1658 0.984 . S
N1652 H1659 0.984 . S
N1653 C1646 1.356 . S
N1653 H1656 0.984 . S
N1653 H1657 0.985 . S
H1654 N1649 0.984 . S
H1655 N1649 0.985 . S
H1656 N1653 0.984 . S
H1657 N1653 0.985 . S
H1658 N1652 0.984 . S
H1659 N1652 0.984 . S
H1660 N1648 0.984 . S
H1661 N1648 0.985 . S
C1662 C1663 1.363 . S
C1662 C1668 1.379 . S
C1662 N1670 1.356 . S
C1663 C1662 1.363 . S
C1663 C1669 1.363 . S
C1664 C1665 1.363 . S
C1664 C1669 1.379 . S
C1664 N1671 1.356 . S
C1665 C1664 1.363 . S
C1665 C1668 1.363 . S
N1666 C1668 1.356 . S
N1666 H1678 0.984 . S
N1666 H1679 0.985 . S
N1667 C1669 1.356 . S
N1667 H1672 0.984 . S
N1667 H1673 0.985 . S
C1668 C1662 1.379 . S
C1668 C1665 1.363 . S
C1668 N1666 1.356 . S
C1669 C1663 1.363 . S
C1669 C1664 1.379 . S
C1669 N1667 1.356 . S
N1670 C1662 1.356 . S
N1670 H1676 0.984 . S
N1670 H1677 0.984 . S
N1671 C1664 1.356 . S
N1671 H1674 0.984 . S
N1671 H1675 0.985 . S
H1672 N1667 0.984 . S
H1673 N1667 0.985 . S
H1674 N1671 0.984 . S
H1675 N1671 0.985 . S
H1676 N1670 0.984 . S
H1677 N1670 0.984 . S
H1678 N1666 0.984 . S
H1679 N1666 0.985 . S
C1680 C1681 1.363 . S
C1680 C1686 1.379 . S
C1680 N1688 1.356 . S
C1681 C1680 1.363 . S
C1681 C1687 1.363 . S
C1682 C1683 1.363 . S
C1682 C1687 1.379 . S
C1682 N1689 1.356 . S
C1683 C1682 1.363 . S
C1683 C1686 1.363 . S
N1684 C1686 1.356 . S
N1684 H1696 0.984 . S
N1684 H1697 0.985 . S
N1685 C1687 1.356 . S
N1685 H1690 0.984 . S
N1685 H1691 0.985 . S
C1686 C1680 1.379 . S
C1686 C1683 1.363 . S
C1686 N1684 1.356 . S
C1687 C1681 1.363 . S
C1687 C1682 1.379 . S
C1687 N1685 1.356 . S
N1688 C1680 1.356 . S
N1688 H1694 0.984 . S
N1688 H1695 0.984 . S
N1689 C1682 1.356 . S
N1689 H1692 0.984 . S
N1689 H1693 0.985 . S
H1690 N1685 0.984 . S
H1691 N1685 0.985 . S
H1692 N1689 0.984 . S
H1693 N1689 0.985 . S
H1694 N1688 0.984 . S
H1695 N1688 0.984 . S
H1696 N1684 0.984 . S
H1697 N1684 0.985 . S
C1698 C1699 1.363 . S
C1698 C1704 1.379 . S
C1698 N1706 1.356 . S
C1699 C1698 1.363 . S
C1699 C1705 1.363 . S
C1700 C1701 1.363 . S
C1700 C1705 1.379 . S
C1700 N1707 1.356 . S
C1701 C1700 1.363 . S
C1701 C1704 1.363 . S
N1702 C1704 1.356 . S
N1702 H1714 0.984 . S
N1702 H1715 0.985 . S
N1703 C1705 1.356 . S
N1703 H1708 0.984 . S
N1703 H1709 0.985 . S
C1704 C1698 1.379 . S
C1704 C1701 1.363 . S
C1704 N1702 1.356 . S
C1705 C1699 1.363 . S
C1705 C1700 1.379 . S
C1705 N1703 1.356 . S
N1706 C1698 1.356 . S
N1706 H1712 0.984 . S
N1706 H1713 0.984 . S
N1707 C1700 1.356 . S
N1707 H1710 0.984 . S
N1707 H1711 0.985 . S
H1708 N1703 0.984 . S
H1709 N1703 0.985 . S
H1710 N1707 0.984 . S
H1711 N1707 0.985 . S
H1712 N1706 0.984 . S
H1713 N1706 0.984 . S
H1714 N1702 0.984 . S
H1715 N1702 0.985 . S
C1716 C1717 1.363 . S
C1716 C1722 1.379 . S
C1716 N1724 1.356 . S
C1717 C1716 1.363 . S
C1717 C1723 1.363 . S
C1718 C1719 1.363 . S
C1718 C1723 1.379 . S
C1718 N1725 1.356 . S
C1719 C1718 1.363 . S
C1719 C1722 1.363 . S
N1720 C1722 1.356 . S
N1720 H1732 0.984 . S
N1720 H1733 0.985 . S
N1721 C1723 1.356 . S
N1721 H1726 0.984 . S
N1721 H1727 0.985 . S
C1722 C1716 1.379 . S
C1722 C1719 1.363 . S
C1722 N1720 1.356 . S
C1723 C1717 1.363 . S
C1723 C1718 1.379 . S
C1723 N1721 1.356 . S
N1724 C1716 1.356 . S
N1724 H1730 0.984 . S
N1724 H1731 0.984 . S
N1725 C1718 1.356 . S
N1725 H1728 0.984 . S
N1725 H1729 0.985 . S
H1726 N1721 0.984 . S
H1727 N1721 0.985 . S
H1728 N1725 0.984 . S
H1729 N1725 0.985 . S
H1730 N1724 0.984 . S
H1731 N1724 0.984 . S
H1732 N1720 0.984 . S
H1733 N1720 0.985 . S
C1734 C1735 1.363 . S
C1734 C1740 1.379 . S
C1734 N1742 1.356 . S
C1735 C1734 1.363 . S
C1735 C1741 1.363 . S
C1736 C1737 1.363 . S
C1736 C1741 1.379 . S
C1736 N1743 1.356 . S
C1737 C1736 1.363 . S
C1737 C1740 1.363 . S
N1738 C1740 1.356 . S
N1738 H1750 0.984 . S
N1738 H1751 0.985 . S
N1739 C1741 1.356 . S
N1739 H1744 0.984 . S
N1739 H1745 0.985 . S
C1740 C1734 1.379 . S
C1740 C1737 1.363 . S
C1740 N1738 1.356 . S
C1741 C1735 1.363 . S
C1741 C1736 1.379 . S
C1741 N1739 1.356 . S
N1742 C1734 1.356 . S
N1742 H1748 0.984 . S
N1742 H1749 0.984 . S
N1743 C1736 1.356 . S
N1743 H1746 0.984 . S
N1743 H1747 0.985 . S
H1744 N1739 0.984 . S
H1745 N1739 0.985 . S
H1746 N1743 0.984 . S
H1747 N1743 0.985 . S
H1748 N1742 0.984 . S
H1749 N1742 0.984 . S
H1750 N1738 0.984 . S
H1751 N1738 0.985 . S
C1752 C1753 1.363 . S
C1752 C1758 1.379 . S
C1752 N1760 1.356 . S
C1753 C1752 1.363 . S
C1753 C1759 1.363 . S
C1754 C1755 1.363 . S
C1754 C1759 1.379 . S
C1754 N1761 1.356 . S
C1755 C1754 1.363 . S
C1755 C1758 1.363 . S
N1756 C1758 1.356 . S
N1756 H1768 0.984 . S
N1756 H1769 0.985 . S
N1757 C1759 1.356 . S
N1757 H1762 0.984 . S
N1757 H1763 0.985 . S
C1758 C1752 1.379 . S
C1758 C1755 1.363 . S
C1758 N1756 1.356 . S
C1759 C1753 1.363 . S
C1759 C1754 1.379 . S
C1759 N1757 1.356 . S
N1760 C1752 1.356 . S
N1760 H1766 0.984 . S
N1760 H1767 0.984 . S
N1761 C1754 1.356 . S
N1761 H1764 0.984 . S
N1761 H1765 0.985 . S
H1762 N1757 0.984 . S
H1763 N1757 0.985 . S
H1764 N1761 0.984 . S
H1765 N1761 0.985 . S
H1766 N1760 0.984 . S
H1767 N1760 0.984 . S
H1768 N1756 0.984 . S
H1769 N1756 0.985 . S
C1770 C1771 1.363 . S
C1770 C1776 1.379 . S
C1770 N1778 1.356 . S
C1771 C1770 1.363 . S
C1771 C1777 1.363 . S
C1772 C1773 1.363 . S
C1772 C1777 1.379 . S
C1772 N1779 1.356 . S
C1773 C1772 1.363 . S
C1773 C1776 1.363 . S
N1774 C1776 1.356 . S
N1774 H1786 0.984 . S
N1774 H1787 0.985 . S
N1775 C1777 1.356 . S
N1775 H1780 0.984 . S
N1775 H1781 0.985 . S
C1776 C1770 1.379 . S
C1776 C1773 1.363 . S
C1776 N1774 1.356 . S
C1777 C1771 1.363 . S
C1777 C1772 1.379 . S
C1777 N1775 1.356 . S
N1778 C1770 1.356 . S
N1778 H1784 0.984 . S
N1778 H1785 0.984 . S
N1779 C1772 1.356 . S
N1779 H1782 0.984 . S
N1779 H1783 0.985 . S
H1780 N1775 0.984 . S
H1781 N1775 0.985 . S
H1782 N1779 0.984 . S
H1783 N1779 0.985 . S
H1784 N1778 0.984 . S
H1785 N1778 0.984 . S
H1786 N1774 0.984 . S
H1787 N1774 0.985 . S
C1788 C1789 1.363 . S
C1788 C1794 1.379 . S
C1788 N1796 1.356 . S
C1789 C1788 1.363 . S
C1789 C1795 1.363 . S
C1790 C1791 1.363 . S
C1790 C1795 1.379 . S
C1790 N1797 1.356 . S
C1791 C1790 1.363 . S
C1791 C1794 1.363 . S
N1792 C1794 1.356 . S
N1792 H1804 0.984 . S
N1792 H1805 0.985 . S
N1793 C1795 1.356 . S
N1793 H1798 0.984 . S
N1793 H1799 0.985 . S
C1794 C1788 1.379 . S
C1794 C1791 1.363 . S
C1794 N1792 1.356 . S
C1795 C1789 1.363 . S
C1795 C1790 1.379 . S
C1795 N1793 1.356 . S
N1796 C1788 1.356 . S
N1796 H1802 0.984 . S
N1796 H1803 0.984 . S
N1797 C1790 1.356 . S
N1797 H1800 0.984 . S
N1797 H1801 0.985 . S
H1798 N1793 0.984 . S
H1799 N1793 0.985 . S
H1800 N1797 0.984 . S
H1801 N1797 0.985 . S
H1802 N1796 0.984 . S
H1803 N1796 0.984 . S
H1804 N1792 0.984 . S
H1805 N1792 0.985 . S
C1806 C1807 1.363 . S
C1806 C1812 1.379 . S
C1806 N1814 1.356 . S
C1807 C1806 1.363 . S
C1807 C1813 1.363 . S
C1808 C1809 1.363 . S
C1808 C1813 1.379 . S
C1808 N1815 1.356 . S
C1809 C1808 1.363 . S
C1809 C1812 1.363 . S
N1810 C1812 1.356 . S
N1810 H1822 0.984 . S
N1810 H1823 0.985 . S
N1811 C1813 1.356 . S
N1811 H1816 0.984 . S
N1811 H1817 0.985 . S
C1812 C1806 1.379 . S
C1812 C1809 1.363 . S
C1812 N1810 1.356 . S
C1813 C1807 1.363 . S
C1813 C1808 1.379 . S
C1813 N1811 1.356 . S
N1814 C1806 1.356 . S
N1814 H1820 0.984 . S
N1814 H1821 0.984 . S
N1815 C1808 1.356 . S
N1815 H1818 0.984 . S
N1815 H1819 0.985 . S
H1816 N1811 0.984 . S
H1817 N1811 0.985 . S
H1818 N1815 0.984 . S
H1819 N1815 0.985 . S
H1820 N1814 0.984 . S
H1821 N1814 0.984 . S
H1822 N1810 0.984 . S
H1823 N1810 0.985 . S
C529 C15 1.286 . S
C531 C367 1.344 . S
C547 C37 1.284 . S
C549 C527 1.343 . S
C565 C469 1.341 . S
C567 C65 1.282 . S
C583 C81 1.278 . S
C585 C499 1.337 . S
C601 C95 1.282 . S
C603 C395 1.341 . S
C619 C117 1.280 . S
C621 C411 1.340 . S
C637 C139 1.281 . S
C639 C439 1.340 . S
C655 C169 1.262 . S
C657 C450 1.303 . S
C673 C197 1.287 . S
C675 C7 1.348 . S
C691 C205 1.290 . S
C693 C29 1.350 . S
C709 C59 1.341 . S
C711 C241 1.282 . S
C727 C73 1.341 . S
C729 C263 1.281 . S
C745 C279 1.281 . S
C747 C109 1.341 . S
C763 C301 1.284 . S
C765 C131 1.343 . S
C781 C329 1.294 . S
C783 C153 1.355 . S
C799 C345 1.293 . S
C801 C161 1.353 . S
C817 C373 1.278 . S
C819 C191 1.338 . S
C835 C381 1.279 . S
C837 C271 1.339 . S
C853 C293 1.339 . S
C855 C417 1.280 . S
C871 C425 1.280 . S
C873 C323 1.340 . S
C889 C458 1.256 . S
C891 C337 1.296 . S
C907 C477 1.277 . S
C909 C235 1.336 . S
C925 C257 1.351 . S
C927 C505 1.290 . S
C943 C513 1.279 . S
C945 C219 1.339 . S
C961 C480 1.317 . S
C963 C106 1.304 . S
C979 C494 1.322 . S
C981 C128 1.308 . S
C997 C150 1.301 . S
C999 C362 1.314 . S
C1015 C164 1.302 . S
C1017 C514 1.315 . S
C1033 C426 1.318 . S
C1035 C10 1.305 . S
C1051 C32 1.324 . S
C1053 C455 1.357 . S
C1069 C382 1.318 . S
C1071 C52 1.304 . S
C1087 C76 1.305 . S
C1089 C406 1.318 . S
C1105 C316 1.304 . S
C1107 C96 1.318 . S
C1123 C340 1.305 . S
C1125 C118 1.318 . S
C1141 C274 1.298 . S
C1143 C140 1.311 . S
C1159 C172 1.309 . S
C1161 C296 1.296 . S
C1177 C228 1.292 . S
C1179 C18 1.304 . S
C1195 C250 1.293 . S
C1197 C40 1.306 . S
C1213 C184 1.305 . S
C1215 C54 1.318 . S
C1231 C216 1.302 . S
C1233 C84 1.315 . S
C1249 C318 1.322 . S
C1251 C472 1.309 . S
C1267 C436 1.306 . S
C1269 C230 1.319 . S
C1285 C252 1.361 . S
C1287 C447 1.327 . S
C1303 C392 1.307 . S
C1305 C186 1.320 . S
C1321 C404 1.306 . S
C1323 C206 1.319 . S
C1339 C360 1.308 . S
C1341 C282 1.321 . S
C1357 C524 1.307 . S
C1359 C304 1.320 . S
C1375 C348 1.308 . S
C1377 C492 1.295 . S
C1393 C448 1.412 . S
C1395 C21 1.412 . S
C1411 C389 1.444 . S
C1413 C43 1.444 . S
C1429 C51 1.440 . S
C1431 C403 1.440 . S
C1447 C87 1.439 . S
C1449 C433 1.439 . S
C1465 C521 1.439 . S
C1467 C103 1.439 . S
C1483 C125 1.442 . S
C1485 C483 1.442 . S
C1501 C491 1.448 . S
C1503 C147 1.448 . S
C1519 C175 1.443 . S
C1521 C359 1.443 . S
C1537 C183 1.449 . S
C1539 C351 1.449 . S
C1555 C285 1.441 . S
C1557 C213 1.441 . S
C1573 C227 1.435 . S
C1575 C307 1.435 . S
C1591 C315 1.449 . S
C1593 C249 1.449 . S
C1609 C414 1.414 . S
C1611 C98 1.414 . S
C1627 C428 1.415 . S
C1629 C120 1.415 . S
C1645 C142 1.443 . S
C1647 C461 1.443 . S
C1663 C162 1.411 . S
C1665 C384 1.411 . S
C1681 C502 1.407 . S
C1683 C8 1.407 . S
C1699 C370 1.412 . S
C1701 C30 1.412 . S
C1717 C516 1.415 . S
C1719 C62 1.416 . S
C1735 C74 1.413 . S
C1737 C470 1.413 . S
C1753 C208 1.420 . S
C1755 C326 1.420 . S
C1771 C338 1.406 . S
C1773 C238 1.406 . S
C1789 C272 1.406 . S
C1791 C260 1.406 . S
C1807 C294 1.414 . S
C1809 C194 1.414 . S
