# Generated by pormake.
# Topology vmc, (5)-cn, num edge types: 1
# Building blocks:
#     Node 0, Type 0, BuildingBlock: BEQFEK_clean_sbu_0, # of connection points: 5
#     Node 1, Type 0, BuildingBlock: BEQFEK_clean_sbu_0, # of connection points: 5
#     Node 2, Type 0, BuildingBlock: BEQFEK_clean_sbu_0, # of connection points: 5
#     Node 3, Type 0, BuildingBlock: BEQFEK_clean_sbu_0, # of connection points: 5
#     Node 4, Type 0, BuildingBlock: BEQFEK_clean_sbu_0, # of connection points: 5
#     Node 5, Type 0, BuildingBlock: BEQFEK_clean_sbu_0, # of connection points: 5
#     Node 6, Type 0, BuildingBlock: BEQFEK_clean_sbu_0, # of connection points: 5
#     Node 7, Type 0, BuildingBlock: BEQFEK_clean_sbu_0, # of connection points: 5
#     Edge 8, Type (0, 0), BuildingBlock: AJUNOK_clean_linker_0, # of connection points: 2
#     Edge 9, Type (0, 0), BuildingBlock: AJUNOK_clean_linker_0, # of connection points: 2
#     Edge 10, Type (0, 0), BuildingBlock: AJUNOK_clean_linker_0, # of connection points: 2
#     Edge 11, Type (0, 0), BuildingBlock: AJUNOK_clean_linker_0, # of connection points: 2
#     Edge 12, Type (0, 0), BuildingBlock: AJUNOK_clean_linker_0, # of connection points: 2
#     Edge 13, Type (0, 0), BuildingBlock: AJUNOK_clean_linker_0, # of connection points: 2
#     Edge 14, Type (0, 0), BuildingBlock: AJUNOK_clean_linker_0, # of connection points: 2
#     Edge 15, Type (0, 0), BuildingBlock: AJUNOK_clean_linker_0, # of connection points: 2
#     Edge 16, Type (0, 0), BuildingBlock: AJUNOK_clean_linker_0, # of connection points: 2
#     Edge 17, Type (0, 0), BuildingBlock: AJUNOK_clean_linker_0, # of connection points: 2
#     Edge 18, Type (0, 0), BuildingBlock: AJUNOK_clean_linker_0, # of connection points: 2
#     Edge 19, Type (0, 0), BuildingBlock: AJUNOK_clean_linker_0, # of connection points: 2
#     Edge 20, Type (0, 0), BuildingBlock: AJUNOK_clean_linker_0, # of connection points: 2
#     Edge 21, Type (0, 0), BuildingBlock: AJUNOK_clean_linker_0, # of connection points: 2
#     Edge 22, Type (0, 0), BuildingBlock: AJUNOK_clean_linker_0, # of connection points: 2
#     Edge 23, Type (0, 0), BuildingBlock: AJUNOK_clean_linker_0, # of connection points: 2
#     Edge 24, Type (0, 0), BuildingBlock: AJUNOK_clean_linker_0, # of connection points: 2
#     Edge 25, Type (0, 0), BuildingBlock: AJUNOK_clean_linker_0, # of connection points: 2
#     Edge 26, Type (0, 0), BuildingBlock: AJUNOK_clean_linker_0, # of connection points: 2
#     Edge 27, Type (0, 0), BuildingBlock: AJUNOK_clean_linker_0, # of connection points: 2
# Relax obj value: 0.530
# Max RMSD: 0.278
# Mean RMSD: 0.278
data_MOF--net-vmc--node1-BEQFEK_clean_sbu_0--edge1-AJUNOK_clean_linker_0
_symmetry_space_group_name_H-M    P1
_symmetry_Int_Tables_number       1
_symmetry_cell_setting            triclinic
loop_
_symmetry_equiv_pos_as_xyz
'x, y, z'
_cell_length_a     39.05196
_cell_length_b     36.428576
_cell_length_c     20.855431
_cell_angle_alpha  89.922955
_cell_angle_beta   108.4714
_cell_angle_gamma 89.638873
loop_
_atom_site_label
_atom_site_type_symbol
_atom_site_fract_x
_atom_site_fract_y
_atom_site_fract_z
_atom_type_partial_charge
Co0 Co 0.41065 0.49083 0.13648 0.0
Co1 Co 0.35655 0.42731 0.1249 0.0
C2 C 0.43451 0.41286 0.18267 0.0
O3 O 0.43814 0.44694 0.17628 0.0
O4 O 0.40339 0.39837 0.16332 0.0
C5 C 0.45937 0.49729 0.07454 0.0
O6 O 0.44447 0.46493 0.0589 0.0
C7 C 0.31855 0.35886 0.0776 0.0
C8 C 0.26475 0.36861 0.08819 0.0
C9 C 0.2851 0.34269 0.06726 0.0
N10 N 0.31808 0.39244 0.10405 0.0
N11 N 0.28588 0.39808 0.11053 0.0
C12 C 0.34955 0.34433 0.05734 0.0
H13 H 0.36446 0.36729 0.04364 0.0
H14 H 0.34008 0.32505 0.01424 0.0
H15 H 0.36858 0.32963 0.1009 0.0
C16 C 0.36602 0.50428 0.99883 0.0
N17 N 0.374 0.48368 0.05499 0.0
N18 N 0.3541 0.45405 0.04378 0.0
C19 C 0.33426 0.45386 0.97729 0.0
C20 C 0.34116 0.48602 0.94703 0.0
C21 C 0.38322 0.54043 0.99394 0.0
H22 H 0.3945 0.55303 0.04455 0.0
H23 H 0.4049 0.53626 0.97078 0.0
H24 H 0.36322 0.55979 0.96119 0.0
O25 O 0.38833 0.51146 0.19866 0.0
O26 O 0.35004 0.46535 0.19383 0.0
H27 H 0.29023 0.4181 0.97219 0.0
H28 H 0.2933 0.43181 0.8906 0.0
C29 C 0.309 0.424 0.94325 0.0
H30 H 0.32469 0.39865 0.9424 0.0
H31 H 0.27813 0.42226 0.12912 0.0
O32 O 0.44838 0.51821 0.11317 0.0
C33 C 0.36309 0.4969 0.21647 0.0
Co34 Co 0.59366 0.48972 0.37484 0.0
Co35 Co 0.6535 0.42953 0.38523 0.0
C36 C 0.57514 0.41279 0.32265 0.0
O37 O 0.56835 0.44569 0.3337 0.0
O38 O 0.60751 0.40092 0.339 0.0
C39 C 0.52585 0.50822 0.39004 0.0
O40 O 0.51355 0.47983 0.35111 0.0
C41 C 0.69497 0.36259 0.44062 0.0
C42 C 0.74433 0.36906 0.41183 0.0
C43 C 0.72756 0.34554 0.44473 0.0
N44 N 0.69273 0.39466 0.40722 0.0
N45 N 0.72239 0.39836 0.39028 0.0
C46 C 0.6654 0.34763 0.46431 0.0
H47 H 0.64023 0.36388 0.44366 0.0
H48 H 0.67348 0.34883 0.52019 0.0
H49 H 0.66049 0.31843 0.4492 0.0
C50 C 0.63395 0.49827 0.5174 0.0
N51 N 0.62804 0.47989 0.45916 0.0
N52 N 0.65318 0.45457 0.46644 0.0
C53 C 0.67597 0.45622 0.53088 0.0
C54 C 0.6644 0.48417 0.5647 0.0
C55 C 0.61037 0.52866 0.52804 0.0
H56 H 0.58453 0.51656 0.5283 0.0
H57 H 0.62213 0.54301 0.57673 0.0
H58 H 0.60526 0.54901 0.48647 0.0
O59 O 0.61886 0.51136 0.31586 0.0
O60 O 0.66078 0.46857 0.3208 0.0
H61 H 0.7247 0.43307 0.52142 0.0
H62 H 0.7271 0.44491 0.60712 0.0
C63 C 0.70959 0.43371 0.55834 0.0
H64 H 0.70222 0.40522 0.56674 0.0
H65 H 0.72758 0.42078 0.36364 0.0
O66 O 0.55626 0.52168 0.39255 0.0
C67 C 0.6457 0.49959 0.29912 0.0
Co68 Co 0.60475 0.55841 0.87432 0.0
Co69 Co 0.659 0.62219 0.89006 0.0
C70 C 0.58136 0.63581 0.82395 0.0
O71 O 0.57751 0.60177 0.83058 0.0
O72 O 0.6123 0.65053 0.84658 0.0
C73 C 0.55284 0.55026 0.929 0.0
O74 O 0.56476 0.5839 0.94295 0.0
C75 C 0.69852 0.68964 0.94414 0.0
C76 C 0.74982 0.68196 0.92221 0.0
C77 C 0.73139 0.70624 0.95079 0.0
N78 N 0.69767 0.65702 0.9134 0.0
N79 N 0.72848 0.65258 0.90057 0.0
C80 C 0.66724 0.70563 0.96173 0.0
H81 H 0.6458 0.68491 0.95581 0.0
H82 H 0.67592 0.71567 0.01447 0.0
H83 H 0.65619 0.72945 0.92814 0.0
C84 C 0.64533 0.54652 0.01524 0.0
N85 N 0.63903 0.56646 0.95852 0.0
N86 N 0.65898 0.59608 0.97067 0.0
C87 C 0.67699 0.59695 0.03804 0.0
C88 C 0.66889 0.56528 0.06811 0.0
C89 C 0.62849 0.51009 0.01936 0.0
H90 H 0.61888 0.49692 0.96902 0.0
H91 H 0.60571 0.51397 0.03976 0.0
H92 H 0.64828 0.49134 0.05421 0.0
O93 O 0.62973 0.53744 0.81678 0.0
O94 O 0.66771 0.58398 0.82319 0.0
H95 H 0.71592 0.61969 0.12678 0.0
H96 H 0.68556 0.65239 0.07157 0.0
C97 C 0.70162 0.62701 0.07322 0.0
H98 H 0.72163 0.63249 0.04678 0.0
H99 H 0.73486 0.62959 0.87666 0.0
O100 O 0.56639 0.53011 0.8931 0.0
C101 C 0.65544 0.55215 0.80074 0.0
Co102 Co 0.41775 0.55724 0.64471 0.0
Co103 Co 0.36092 0.62077 0.62905 0.0
C104 C 0.43905 0.63524 0.69003 0.0
O105 O 0.44403 0.60142 0.68284 0.0
O106 O 0.40741 0.64909 0.6711 0.0
C107 C 0.48491 0.53691 0.62885 0.0
O108 O 0.49748 0.56641 0.66431 0.0
C109 C 0.3225 0.68943 0.57805 0.0
C110 C 0.26864 0.68027 0.5883 0.0
C111 C 0.28885 0.70587 0.56685 0.0
N112 N 0.3222 0.656 0.60537 0.0
N113 N 0.28996 0.65075 0.61164 0.0
C114 C 0.35364 0.70357 0.55823 0.0
H115 H 0.36879 0.68038 0.54529 0.0
H116 H 0.34428 0.72282 0.51476 0.0
H117 H 0.37243 0.71817 0.60178 0.0
C118 C 0.37696 0.5464 0.50296 0.0
N119 N 0.38352 0.56605 0.55992 0.0
N120 N 0.36086 0.59397 0.54958 0.0
C121 C 0.33987 0.59346 0.48382 0.0
C122 C 0.34934 0.56297 0.45268 0.0
C123 C 0.39776 0.51281 0.49607 0.0
H124 H 0.40372 0.49565 0.54225 0.0
H125 H 0.42326 0.52165 0.48854 0.0
H126 H 0.38307 0.49583 0.45214 0.0
O127 O 0.3921 0.53791 0.70382 0.0
O128 O 0.3524 0.58341 0.69568 0.0
H129 H 0.29162 0.62217 0.48189 0.0
H130 H 0.29536 0.61268 0.39912 0.0
C131 C 0.31049 0.62054 0.45188 0.0
H132 H 0.32238 0.64807 0.45178 0.0
H133 H 0.28235 0.62681 0.63096 0.0
O134 O 0.45464 0.52403 0.62872 0.0
C135 C 0.36568 0.55195 0.71903 0.0
Co136 Co 0.91166 0.99396 0.14384 0.0
Co137 Co 0.85796 0.93009 0.13347 0.0
C138 C 0.93603 0.91647 0.19263 0.0
O139 O 0.93963 0.95052 0.18567 0.0
O140 O 0.90502 0.90176 0.1724 0.0
C141 C 0.95804 0.99975 0.07675 0.0
O142 O 0.94368 0.96698 0.06498 0.0
C143 C 0.81935 0.86191 0.08525 0.0
C144 C 0.7657 0.87212 0.09631 0.0
C145 C 0.78553 0.84647 0.07364 0.0
N146 N 0.81935 0.89534 0.11257 0.0
N147 N 0.78723 0.90125 0.11928 0.0
C148 C 0.8521 0.84453 0.07511 0.0
H149 H 0.87165 0.83774 0.12531 0.0
H150 H 0.8654 0.86433 0.05031 0.0
H151 H 0.84564 0.81888 0.04535 0.0
C152 C 0.86583 1.00699 0.00674 0.0
N153 N 0.87451 0.98637 0.06297 0.0
N154 N 0.85517 0.9564 0.05217 0.0
C155 C 0.83503 0.95593 0.9859 0.0
C156 C 0.84118 0.98828 0.95515 0.0
C157 C 0.88212 0.04364 1.00179 0.0
H158 H 0.89458 0.0556 0.05261 0.0
H159 H 0.90262 0.04053 0.97549 0.0
H160 H 0.8612 0.06312 0.97203 0.0
O161 O 0.88936 1.01505 0.20582 0.0
O162 O 0.85141 0.96863 0.20139 0.0
H163 H 0.79022 0.92115 0.97975 0.0
H164 H 0.7956 0.93217 0.8988 0.0
C165 C 0.81011 0.92565 0.95263 0.0
H166 H 0.82584 0.8999 0.95571 0.0
H167 H 0.77986 0.92533 0.13876 0.0
O168 O 0.94874 1.02087 0.11731 0.0
C169 C 0.86417 1.00034 0.22366 0.0
Co170 Co 0.10264 0.99277 0.36992 0.0
Co171 Co 0.15738 0.92885 0.38119 0.0
C172 C 0.07968 0.91545 0.32018 0.0
O173 O 0.07572 0.94946 0.32729 0.0
O174 O 0.1108 0.9005 0.34107 0.0
C175 C 0.05415 0.99792 0.43344 0.0
O176 O 0.06853 0.96494 0.44575 0.0
C177 C 0.19806 0.86077 0.42891 0.0
C178 C 0.25177 0.87336 0.42089 0.0
C179 C 0.23264 0.84638 0.44165 0.0
N180 N 0.19689 0.89456 0.4021 0.0
N181 N 0.22904 0.90182 0.397 0.0
C182 C 0.16743 0.84418 0.44717 0.0
H183 H 0.14905 0.86595 0.45456 0.0
H184 H 0.17763 0.8273 0.4938 0.0
H185 H 0.15185 0.82621 0.40531 0.0
C186 C 0.14735 1.00491 0.50764 0.0
N187 N 0.13923 0.98459 0.45137 0.0
N188 N 0.15924 0.95476 0.46226 0.0
C189 C 0.17931 0.95414 0.52857 0.0
C190 C 0.17243 0.98624 0.55919 0.0
C191 C 0.13024 0.0413 0.51273 0.0
H192 H 0.11829 0.05386 0.46207 0.0
H193 H 0.10914 0.03753 0.53735 0.0
H194 H 0.15052 0.06053 0.54419 0.0
O195 O 0.1253 1.01436 0.30893 0.0
O196 O 0.16363 0.96774 0.31383 0.0
H197 H 0.22491 0.91983 0.53521 0.0
H198 H 0.21899 0.93029 0.61593 0.0
C199 C 0.20479 0.92393 0.56201 0.0
H200 H 0.18956 0.89805 0.55868 0.0
H201 H 0.23571 0.92654 0.37871 0.0
O202 O 0.06472 1.01944 0.39519 0.0
C203 C 0.15075 0.99958 0.29151 0.0
Co204 Co 0.10099 0.05871 0.86842 0.0
Co205 Co 0.1568 0.12071 0.87978 0.0
C206 C 0.07898 0.13651 0.82009 0.0
O207 O 0.07434 0.1027 0.82746 0.0
O208 O 0.11046 0.15022 0.8395 0.0
C209 C 0.05128 0.0517 0.92886 0.0
O210 O 0.06526 0.08446 0.94442 0.0
C211 C 0.19675 0.18824 0.92841 0.0
C212 C 0.25093 0.17564 0.92203 0.0
C213 C 0.23122 0.20255 0.94211 0.0
N214 N 0.19617 0.15457 0.90165 0.0
N215 N 0.2286 0.14729 0.89755 0.0
C216 C 0.16566 0.20476 0.94584 0.0
H217 H 0.14771 0.18292 0.95374 0.0
H218 H 0.17535 0.22188 0.99198 0.0
H219 H 0.14977 0.22245 0.90332 0.0
C220 C 0.14475 0.04587 0.00731 0.0
N221 N 0.13709 0.06605 0.95065 0.0
N222 N 0.15801 0.09494 0.96095 0.0
C223 C 0.17833 0.09511 0.02713 0.0
C224 C 0.17063 0.06368 0.05819 0.0
C225 C 0.12693 1.01024 0.01324 0.0
H226 H 0.11576 0.99712 0.9631 0.0
H227 H 0.10505 1.01533 0.03553 0.0
H228 H 0.14644 0.9909 0.04712 0.0
O229 O 0.12377 0.03701 0.80778 0.0
O230 O 0.16351 0.08165 0.81281 0.0
H231 H 0.22516 0.12663 0.03271 0.0
H232 H 0.21918 0.11742 0.11382 0.0
C233 C 0.20505 0.12407 0.05988 0.0
H234 H 0.1909 0.15083 0.05641 0.0
H235 H 0.23573 0.12263 0.87957 0.0
O236 O 0.06281 0.03145 0.89011 0.0
C237 C 0.14982 0.05023 0.79082 0.0
Co238 Co 0.91435 0.059 0.64785 0.0
Co239 Co 0.85838 0.12215 0.63469 0.0
C240 C 0.93626 0.1364 0.69639 0.0
O241 O 0.94101 0.10247 0.68981 0.0
O242 O 0.90481 0.1506 0.6756 0.0
C243 C 0.96521 0.05094 0.58958 0.0
O244 O 0.95291 0.08468 0.57631 0.0
C245 C 0.81885 0.19047 0.58453 0.0
C246 C 0.76467 0.17955 0.59194 0.0
C247 C 0.78454 0.2056 0.57086 0.0
N248 N 0.81909 0.15683 0.61145 0.0
N249 N 0.78663 0.15053 0.61599 0.0
C250 C 0.85173 0.20828 0.57655 0.0
H251 H 0.87097 0.21389 0.62745 0.0
H252 H 0.86533 0.1892 0.5508 0.0
H253 H 0.84532 0.23463 0.54857 0.0
C254 C 0.87122 0.04699 0.50852 0.0
N255 N 0.8788 0.0672 0.56492 0.0
N256 N 0.85773 0.0963 0.55416 0.0
C257 C 0.8374 0.09655 0.48799 0.0
C258 C 0.84521 0.06494 0.4574 0.0
C259 C 0.88899 1.011 0.50322 0.0
H260 H 0.89969 0.99767 0.55346 0.0
H261 H 0.9112 1.01568 0.48174 0.0
H262 H 0.86965 0.99198 0.469 0.0
O263 O 0.89057 0.03773 0.70741 0.0
O264 O 0.85102 0.08329 0.70131 0.0
H265 H 0.78993 0.12788 0.48123 0.0
H266 H 0.79693 0.11954 0.40072 0.0
C267 C 0.81049 0.12571 0.45494 0.0
H268 H 0.82432 0.15251 0.45947 0.0
H269 H 0.77934 0.12623 0.63469 0.0
O270 O 0.95252 0.03075 0.62659 0.0
C271 C 0.86435 0.05156 0.72354 0.0
C272 C 0.36601 0.49636 0.79037 0.0
C273 C 0.35142 0.5313 0.76689 0.0
C274 C 0.35804 0.47864 0.84357 0.0
C275 C 0.33508 0.49503 0.87521 0.0
H276 H 0.38555 0.48343 0.77048 0.0
H277 H 0.37271 0.45373 0.86435 0.0
S278 S 0.28446 0.58235 0.82585 0.0
N279 N 0.30855 0.57881 0.77374 0.0
N280 N 0.29385 0.54521 0.87397 0.0
C281 C 0.31731 0.52782 0.84787 0.0
C282 C 0.32548 0.5461 0.7938 0.0
C283 C 0.66426 0.47683 0.68199 0.0
C284 C 0.6774 0.49568 0.63618 0.0
C285 C 0.66027 0.49464 0.73873 0.0
C286 C 0.6691 0.53205 0.75151 0.0
H287 H 0.65344 0.44944 0.67018 0.0
H288 H 0.64762 0.47962 0.76994 0.0
S289 S 0.71116 0.59111 0.65265 0.0
N290 N 0.70443 0.55159 0.61195 0.0
N291 N 0.69702 0.58535 0.71871 0.0
C292 C 0.68634 0.54977 0.7103 0.0
C293 C 0.69055 0.53144 0.6526 0.0
C294 C 0.68384 0.50687 0.22256 0.0
C295 C 0.65817 0.5216 0.25029 0.0
C296 C 0.69127 0.52413 0.16819 0.0
C297 C 0.67348 0.55678 0.13972 0.0
H298 H 0.69662 0.48062 0.23993 0.0
H299 H 0.70864 0.51017 0.14442 0.0
S300 S 0.60866 0.61004 0.19968 0.0
N301 N 0.61876 0.5739 0.25022 0.0
N302 N 0.63253 0.60546 0.14748 0.0
C303 C 0.65053 0.57361 0.17076 0.0
C304 C 0.64284 0.55619 0.22605 0.0
C305 C 0.36267 0.55316 0.2851 0.0
C306 C 0.35029 0.5171 0.26679 0.0
C307 C 0.35747 0.57064 0.3411 0.0
C308 C 0.3395 0.5529 0.38062 0.0
H309 H 0.37861 0.56726 0.25878 0.0
H310 H 0.37064 0.59667 0.35733 0.0
S311 S 0.29577 0.4619 0.34798 0.0
N312 N 0.31443 0.46674 0.28761 0.0
N313 N 0.30474 0.49999 0.39293 0.0
C314 C 0.32337 0.51885 0.35868 0.0
C315 C 0.32884 0.50078 0.30183 0.0
C316 C 0.81974 0.0312 0.85745 0.0
C317 C 0.83491 0.99696 0.88302 0.0
C318 C 0.82748 0.0479 0.80291 0.0
C319 C 0.85051 0.03076 0.7718 0.0
H320 H 0.8046 0.04669 0.88384 0.0
H321 H 0.8173 0.07541 0.78823 0.0
S322 S 0.89007 0.93697 0.81086 0.0
N323 N 0.8691 0.94401 0.86716 0.0
N324 N 0.88283 0.9743 0.76335 0.0
C325 C 0.86223 0.99452 0.79211 0.0
C326 C 0.85446 0.97779 0.84784 0.0
C327 C 0.18692 0.04515 0.71195 0.0
C328 C 0.16311 0.02903 0.74215 0.0
C329 C 0.19449 0.0282 0.65742 0.0
C330 C 0.1785 0.99464 0.6312 0.0
H331 H 0.19793 0.07214 0.72737 0.0
H332 H 0.21019 0.04308 0.63155 0.0
S333 S 0.11987 0.9376 0.69921 0.0
N334 N 0.12827 0.97434 0.74782 0.0
N335 N 0.14196 0.94356 0.64442 0.0
C336 C 0.15787 0.97644 0.66515 0.0
C337 C 0.15015 0.99345 0.72068 0.0
C338 C 0.15663 0.07197 0.16431 0.0
C339 C 0.17806 0.05479 0.13035 0.0
C340 C 0.14987 0.05482 0.2192 0.0
C341 C 0.16415 1.01969 0.24198 0.0
H342 H 0.14218 0.09711 0.14431 0.0
H343 H 0.1314 0.06835 0.24098 0.0
S344 S 0.22754 0.96668 0.17674 0.0
N345 N 0.21773 1.0037 0.12837 0.0
N346 N 0.20527 0.97112 0.23173 0.0
C347 C 0.1887 1.00409 0.21256 0.0
C348 C 0.19566 1.0218 0.15679 0.0
C349 C 0.85825 0.07291 0.35029 0.0
C350 C 0.83747 0.05581 0.38533 0.0
C351 C 0.86477 0.05566 0.29528 0.0
C352 C 0.85091 1.02048 0.27346 0.0
H353 H 0.8724 0.09811 0.36945 0.0
H354 H 0.88274 0.06917 0.27258 0.0
S355 S 0.78906 0.96767 0.34164 0.0
N356 N 0.79865 1.00479 0.38925 0.0
N357 N 0.81077 0.97196 0.28576 0.0
C358 C 0.82694 1.00495 0.30396 0.0
C359 C 0.82018 1.02279 0.35983 0.0
C360 C 0.48952 0.54774 0.03303 0.0
C361 C 0.48453 0.51005 0.03989 0.0
C362 C 0.51089 0.56032 0.99525 0.0
C363 C 0.52813 0.53567 0.96319 0.0
H364 H 0.47629 0.5677 0.05584 0.0
H365 H 0.51391 0.5897 0.99132 0.0
S366 S 0.52519 0.43406 0.96898 0.0
N367 N 0.49957 0.44797 0.01388 0.0
N368 N 0.53966 0.47182 0.94247 0.0
C369 C 0.52357 0.49788 0.97001 0.0
C370 C 0.50187 0.48503 0.00868 0.0
C371 C 0.51864 0.55001 0.47942 0.0
C372 C 0.51225 0.5157 0.44732 0.0
C373 C 0.51156 0.55598 0.54029 0.0
C374 C 0.49757 0.52796 0.57115 0.0
H375 H 0.5299 0.5722 0.45801 0.0
H376 H 0.51626 0.58309 0.56233 0.0
S377 S 0.4765 0.43309 0.50867 0.0
N378 N 0.49138 0.4531 0.45158 0.0
N379 N 0.47814 0.46467 0.56612 0.0
C380 C 0.49122 0.49353 0.53992 0.0
C381 C 0.49822 0.48742 0.4777 0.0
C382 C 0.01952 0.05958 0.01412 0.0
C383 C 0.02633 0.03795 0.96342 0.0
C384 C 0.99758 0.04699 0.05078 0.0
C385 C 0.98154 1.01231 0.03809 0.0
H386 H 0.03155 0.08643 0.02646 0.0
H387 H 0.99332 0.06457 0.08946 0.0
S388 S 0.98952 0.94558 0.90841 0.0
N389 N 0.01451 0.98066 0.90101 0.0
N390 N 0.97296 0.95679 0.96939 0.0
C391 C 0.98766 0.99053 0.98673 0.0
C392 C 0.01011 1.00341 0.94949 0.0
C393 C 1.00451 0.06088 0.51806 0.0
C394 C 0.98911 0.03631 0.55324 0.0
C395 C 0.02471 0.04827 0.47789 0.0
C396 C 0.03039 1.0106 0.47158 0.0
H397 H 1.00086 0.09025 0.52118 0.0
H398 H 0.03639 0.06825 0.45252 0.0
S399 S 0.99517 0.93473 0.55187 0.0
N400 N 0.98052 0.97251 0.57848 0.0
N401 N 0.01842 0.94857 0.50273 0.0
C402 C 0.01511 0.98563 0.5064 0.0
C403 C 0.99458 0.99853 0.54748 0.0
C404 C 0.23802 0.30416 0.98664 0.0
C405 C 0.27204 0.3066 0.03646 0.0
C406 C 0.22498 0.2705 0.95616 0.0
C407 C 0.24533 0.23795 0.97485 0.0
H408 H 0.22157 0.32859 0.9703 0.0
H409 H 0.199 0.27011 0.91698 0.0
S410 S 0.3344 0.22888 0.10759 0.0
N411 N 0.32455 0.27306 0.10671 0.0
N412 N 0.30039 0.21 0.04868 0.0
C413 C 0.27915 0.23994 0.02525 0.0
C414 C 0.29237 0.27418 0.05643 0.0
C415 C 0.73954 0.29957 0.5396 0.0
C416 C 0.74196 0.30959 0.47594 0.0
C417 C 0.75331 0.26582 0.56986 0.0
C418 C 0.77056 0.24116 0.53815 0.0
H419 H 0.72768 0.31818 0.56711 0.0
H420 H 0.75095 0.25921 0.61895 0.0
S421 S 0.78204 0.25315 0.36962 0.0
N422 N 0.76187 0.29139 0.38133 0.0
N423 N 0.78749 0.22796 0.43809 0.0
C424 C 0.77288 0.25061 0.47435 0.0
C425 C 0.75884 0.2849 0.44348 0.0
C426 C 0.75678 0.78553 0.07526 0.0
C427 C 0.772 0.81093 0.04153 0.0
C428 C 0.74371 0.75165 0.04575 0.0
C429 C 0.74474 0.74235 0.98091 0.0
H430 H 0.75558 0.79162 0.12534 0.0
H431 H 0.73358 0.73232 0.07471 0.0
S432 S 0.7796 0.80056 0.86974 0.0
N433 N 0.78573 0.82539 0.93863 0.0
N434 N 0.76135 0.76171 0.8833 0.0
C435 C 0.75961 0.76771 0.94649 0.0
C436 C 0.77299 0.80211 0.97658 0.0
C437 C 0.22743 0.77837 0.45616 0.0
C438 C 0.24744 0.81086 0.47415 0.0
C439 C 0.24111 0.74462 0.48649 0.0
C440 C 0.27544 0.742 0.53548 0.0
H441 H 0.20121 0.77887 0.41768 0.0
H442 H 0.22485 0.72026 0.47079 0.0
S443 S 0.33719 0.81954 0.60455 0.0
N444 N 0.30258 0.83858 0.54635 0.0
N445 N 0.32792 0.77537 0.60419 0.0
C446 C 0.29547 0.77437 0.55468 0.0
C447 C 0.28161 0.8087 0.52362 0.0
C448 C 0.53166 0.39546 0.21356 0.0
C449 C 0.54372 0.39083 0.28408 0.0
C450 C 0.49462 0.39581 0.17717 0.0
C451 C 0.46843 0.39157 0.21006 0.0
H452 H 0.55043 0.40406 0.18782 0.0
H453 H 0.48641 0.40433 0.12466 0.0
S454 S 0.48671 0.36708 0.38994 0.0
N455 N 0.52718 0.37339 0.38258 0.0
N456 N 0.45746 0.37403 0.3139 0.0
C457 C 0.48038 0.38093 0.27821 0.0
C458 C 0.51815 0.38061 0.31536 0.0
C459 C 0.48497 0.65793 0.7929 0.0
C460 C 0.47194 0.65683 0.72193 0.0
C461 C 0.52228 0.658 0.82763 0.0
C462 C 0.54775 0.65692 0.79254 0.0
H463 H 0.46659 0.65367 0.8217 0.0
H464 H 0.53114 0.65393 0.88192 0.0
S465 S 0.52722 0.66187 0.60699 0.0
N466 N 0.48717 0.66114 0.61812 0.0
N467 N 0.55719 0.66109 0.68345 0.0
C468 C 0.53497 0.66105 0.72207 0.0
C469 C 0.49701 0.66106 0.68672 0.0
C470 C 0.02146 0.89259 0.32606 0.0
C471 C 0.04609 0.89475 0.28928 0.0
C472 C 0.98394 0.89298 0.29314 0.0
C473 C 0.96983 0.89537 0.22234 0.0
H474 H 0.03109 0.89554 0.38056 0.0
H475 H 0.96615 0.89628 0.32347 0.0
S476 S 0.02272 0.89499 0.10293 0.0
N477 N 0.05363 0.89407 0.17839 0.0
N478 N 0.98329 0.89422 0.11653 0.0
C479 C 0.99415 0.89252 0.18515 0.0
C480 C 0.03229 0.89233 0.21864 0.0
C481 C 0.03116 0.16057 0.72039 0.0
C482 C 0.04571 0.1585 0.79115 0.0
C483 C 0.99357 0.16043 0.68831 0.0
C484 C 0.96938 0.15801 0.72594 0.0
H485 H 0.04868 0.15715 0.68957 0.0
H486 H 0.98365 0.15709 0.6339 0.0
S487 S 0.99393 0.15927 0.9124 0.0
N488 N 0.03307 0.16043 0.8977 0.0
N489 N 0.96261 0.15936 0.8374 0.0
C490 C 0.98354 0.16112 0.79641 0.0
C491 C 0.02175 0.1616 0.82904 0.0
loop_
_geom_bond_atom_site_label_1
_geom_bond_atom_site_label_2
_geom_bond_distance
_geom_bond_site_symmetry_2
_ccdc_geom_bond_type
Co0 O3 1.970 . S
Co0 N17 1.989 1_554 S
Co0 O25 1.967 . S
Co0 O32 1.920 . S
Co1 O4 1.966 . S
Co1 N10 2.022 . S
Co1 N18 1.993 1_554 S
Co1 O26 1.941 . S
C2 O3 1.258 . S
C2 O4 1.263 . S
O3 Co0 1.970 . S
O3 C2 1.258 . S
O4 Co1 1.966 . S
O4 C2 1.263 . S
C5 O6 1.235 . S
C5 O32 1.289 . S
O6 C5 1.235 . S
C7 C9 1.400 . S
C7 N10 1.351 . S
C7 C12 1.501 . S
C8 C9 1.387 . S
C8 N11 1.341 . S
C9 C7 1.400 . S
C9 C8 1.387 . S
N10 Co1 2.022 . S
N10 C7 1.351 . S
N10 N11 1.365 . S
N11 C8 1.341 . S
N11 N10 1.365 . S
N11 H31 0.862 . S
C12 C7 1.501 . S
C12 H13 0.961 . S
C12 H14 0.961 . S
C12 H15 0.960 . S
H13 C12 0.961 . S
H14 C12 0.961 . S
H15 C12 0.960 . S
C16 N17 1.342 . S
C16 C20 1.401 . S
C16 C21 1.499 . S
N17 Co0 1.989 1_556 S
N17 C16 1.342 . S
N17 N18 1.388 . S
N18 Co1 1.993 1_556 S
N18 N17 1.388 . S
N18 C19 1.346 . S
C19 N18 1.346 . S
C19 C20 1.396 . S
C19 C29 1.510 . S
C20 C16 1.401 . S
C20 C19 1.396 . S
C21 C16 1.499 . S
C21 H22 0.959 . S
C21 H23 0.960 . S
C21 H24 0.961 . S
H22 C21 0.959 . S
H23 C21 0.960 . S
H24 C21 0.961 . S
O25 Co0 1.967 . S
O25 C33 1.258 . S
O26 Co1 1.941 . S
O26 C33 1.266 . S
H27 C29 0.959 . S
H28 C29 0.961 . S
C29 C19 1.510 . S
C29 H27 0.959 . S
C29 H28 0.961 . S
C29 H30 0.960 . S
H30 C29 0.960 . S
H31 N11 0.862 . S
O32 Co0 1.920 . S
O32 C5 1.289 . S
C33 O25 1.258 . S
C33 O26 1.266 . S
Co34 O37 1.970 . S
Co34 N51 1.989 . S
Co34 O59 1.967 . S
Co34 O66 1.920 . S
Co35 O38 1.966 . S
Co35 N44 2.022 . S
Co35 N52 1.993 . S
Co35 O60 1.941 . S
C36 O37 1.258 . S
C36 O38 1.263 . S
O37 Co34 1.970 . S
O37 C36 1.258 . S
O38 Co35 1.966 . S
O38 C36 1.263 . S
C39 O40 1.235 . S
C39 O66 1.289 . S
O40 C39 1.235 . S
C41 C43 1.400 . S
C41 N44 1.351 . S
C41 C46 1.501 . S
C42 C43 1.387 . S
C42 N45 1.341 . S
C43 C41 1.400 . S
C43 C42 1.387 . S
N44 Co35 2.022 . S
N44 C41 1.351 . S
N44 N45 1.365 . S
N45 C42 1.341 . S
N45 N44 1.365 . S
N45 H65 0.862 . S
C46 C41 1.501 . S
C46 H47 0.961 . S
C46 H48 0.961 . S
C46 H49 0.960 . S
H47 C46 0.961 . S
H48 C46 0.961 . S
H49 C46 0.960 . S
C50 N51 1.342 . S
C50 C54 1.401 . S
C50 C55 1.499 . S
N51 Co34 1.989 . S
N51 C50 1.342 . S
N51 N52 1.388 . S
N52 Co35 1.993 . S
N52 N51 1.388 . S
N52 C53 1.346 . S
C53 N52 1.346 . S
C53 C54 1.396 . S
C53 C63 1.510 . S
C54 C50 1.401 . S
C54 C53 1.396 . S
C55 C50 1.499 . S
C55 H56 0.959 . S
C55 H57 0.960 . S
C55 H58 0.961 . S
H56 C55 0.959 . S
H57 C55 0.960 . S
H58 C55 0.961 . S
O59 Co34 1.967 . S
O59 C67 1.258 . S
O60 Co35 1.941 . S
O60 C67 1.266 . S
H61 C63 0.959 . S
H62 C63 0.961 . S
C63 C53 1.510 . S
C63 H61 0.959 . S
C63 H62 0.961 . S
C63 H64 0.960 . S
H64 C63 0.960 . S
H65 N45 0.862 . S
O66 Co34 1.920 . S
O66 C39 1.289 . S
C67 O59 1.258 . S
C67 O60 1.266 . S
Co68 O71 1.970 . S
Co68 N85 1.989 1_556 S
Co68 O93 1.967 . S
Co68 O100 1.920 . S
Co69 O72 1.966 . S
Co69 N78 2.022 . S
Co69 N86 1.993 1_556 S
Co69 O94 1.941 . S
C70 O71 1.258 . S
C70 O72 1.263 . S
O71 Co68 1.970 . S
O71 C70 1.258 . S
O72 Co69 1.966 . S
O72 C70 1.263 . S
C73 O74 1.235 . S
C73 O100 1.289 . S
O74 C73 1.235 . S
C75 C77 1.400 . S
C75 N78 1.351 . S
C75 C80 1.501 . S
C76 C77 1.387 . S
C76 N79 1.341 . S
C77 C75 1.400 . S
C77 C76 1.387 . S
N78 Co69 2.022 . S
N78 C75 1.351 . S
N78 N79 1.365 . S
N79 C76 1.341 . S
N79 N78 1.365 . S
N79 H99 0.862 . S
C80 C75 1.501 . S
C80 H81 0.961 . S
C80 H82 0.961 . S
C80 H83 0.960 . S
H81 C80 0.961 . S
H82 C80 0.961 . S
H83 C80 0.960 . S
C84 N85 1.342 . S
C84 C88 1.401 . S
C84 C89 1.499 . S
N85 Co68 1.989 1_554 S
N85 C84 1.342 . S
N85 N86 1.388 . S
N86 Co69 1.993 1_554 S
N86 N85 1.388 . S
N86 C87 1.346 . S
C87 N86 1.346 . S
C87 C88 1.396 . S
C87 C97 1.510 . S
C88 C84 1.401 . S
C88 C87 1.396 . S
C89 C84 1.499 . S
C89 H90 0.959 . S
C89 H91 0.960 . S
C89 H92 0.961 . S
H90 C89 0.959 . S
H91 C89 0.960 . S
H92 C89 0.961 . S
O93 Co68 1.967 . S
O93 C101 1.258 . S
O94 Co69 1.941 . S
O94 C101 1.266 . S
H95 C97 0.959 . S
H96 C97 0.961 . S
C97 C87 1.510 . S
C97 H95 0.959 . S
C97 H96 0.961 . S
C97 H98 0.960 . S
H98 C97 0.960 . S
H99 N79 0.862 . S
O100 Co68 1.920 . S
O100 C73 1.289 . S
C101 O93 1.258 . S
C101 O94 1.266 . S
Co102 O105 1.970 . S
Co102 N119 1.989 . S
Co102 O127 1.967 . S
Co102 O134 1.920 . S
Co103 O106 1.966 . S
Co103 N112 2.022 . S
Co103 N120 1.993 . S
Co103 O128 1.941 . S
C104 O105 1.258 . S
C104 O106 1.263 . S
O105 Co102 1.970 . S
O105 C104 1.258 . S
O106 Co103 1.966 . S
O106 C104 1.263 . S
C107 O108 1.235 . S
C107 O134 1.289 . S
O108 C107 1.235 . S
C109 C111 1.400 . S
C109 N112 1.351 . S
C109 C114 1.501 . S
C110 C111 1.387 . S
C110 N113 1.341 . S
C111 C109 1.400 . S
C111 C110 1.387 . S
N112 Co103 2.022 . S
N112 C109 1.351 . S
N112 N113 1.365 . S
N113 C110 1.341 . S
N113 N112 1.365 . S
N113 H133 0.862 . S
C114 C109 1.501 . S
C114 H115 0.961 . S
C114 H116 0.961 . S
C114 H117 0.960 . S
H115 C114 0.961 . S
H116 C114 0.961 . S
H117 C114 0.960 . S
C118 N119 1.342 . S
C118 C122 1.401 . S
C118 C123 1.499 . S
N119 Co102 1.989 . S
N119 C118 1.342 . S
N119 N120 1.388 . S
N120 Co103 1.993 . S
N120 N119 1.388 . S
N120 C121 1.346 . S
C121 N120 1.346 . S
C121 C122 1.396 . S
C121 C131 1.510 . S
C122 C118 1.401 . S
C122 C121 1.396 . S
C123 C118 1.499 . S
C123 H124 0.959 . S
C123 H125 0.960 . S
C123 H126 0.961 . S
H124 C123 0.959 . S
H125 C123 0.960 . S
H126 C123 0.961 . S
O127 Co102 1.967 . S
O127 C135 1.258 . S
O128 Co103 1.941 . S
O128 C135 1.266 . S
H129 C131 0.959 . S
H130 C131 0.961 . S
C131 C121 1.510 . S
C131 H129 0.959 . S
C131 H130 0.961 . S
C131 H132 0.960 . S
H132 C131 0.960 . S
H133 N113 0.862 . S
O134 Co102 1.920 . S
O134 C107 1.289 . S
C135 O127 1.258 . S
C135 O128 1.266 . S
Co136 O139 1.970 . S
Co136 N153 1.989 1_554 S
Co136 O161 1.967 . S
Co136 O168 1.920 1_565 S
Co137 O140 1.966 . S
Co137 N146 2.022 . S
Co137 N154 1.993 1_554 S
Co137 O162 1.941 . S
C138 O139 1.258 . S
C138 O140 1.263 . S
O139 Co136 1.970 . S
O139 C138 1.258 . S
O140 Co137 1.966 . S
O140 C138 1.263 . S
C141 O142 1.258 . S
C141 O168 1.286 1_565 S
O142 C141 1.258 . S
C143 C145 1.400 . S
C143 N146 1.351 . S
C143 C148 1.501 . S
C144 C145 1.387 . S
C144 N147 1.341 . S
C145 C143 1.400 . S
C145 C144 1.387 . S
N146 Co137 2.022 . S
N146 C143 1.351 . S
N146 N147 1.365 . S
N147 C144 1.341 . S
N147 N146 1.365 . S
N147 H167 0.862 . S
C148 C143 1.501 . S
C148 H149 0.961 . S
C148 H150 0.961 . S
C148 H151 0.960 . S
H149 C148 0.961 . S
H150 C148 0.961 . S
H151 C148 0.960 . S
C152 N153 1.342 . S
C152 C156 1.401 . S
C152 C157 1.499 . S
N153 Co136 1.989 1_556 S
N153 C152 1.342 . S
N153 N154 1.388 . S
N154 Co137 1.993 1_556 S
N154 N153 1.388 . S
N154 C155 1.346 . S
C155 N154 1.346 . S
C155 C156 1.396 . S
C155 C165 1.510 . S
C156 C152 1.401 . S
C156 C155 1.396 . S
C157 C152 1.499 . S
C157 H158 0.955 1_565 S
C157 H159 0.960 . S
C157 H160 0.961 1_565 S
H158 C157 0.955 1_545 S
H159 C157 0.960 . S
H160 C157 0.961 1_545 S
O161 Co136 1.967 . S
O161 C169 1.258 . S
O162 Co137 1.941 . S
O162 C169 1.266 . S
H163 C165 0.959 . S
H164 C165 0.961 . S
C165 C155 1.510 . S
C165 H163 0.959 . S
C165 H164 0.961 . S
C165 H166 0.960 . S
H166 C165 0.960 . S
H167 N147 0.862 . S
O168 Co136 1.920 1_545 S
O168 C141 1.286 1_545 S
C169 O161 1.258 . S
C169 O162 1.266 . S
Co170 O173 1.970 . S
Co170 N187 1.989 . S
Co170 O195 1.967 . S
Co170 O202 1.920 1_565 S
Co171 O174 1.966 . S
Co171 N180 2.022 . S
Co171 N188 1.993 . S
Co171 O196 1.941 . S
C172 O173 1.258 . S
C172 O174 1.263 . S
O173 Co170 1.970 . S
O173 C172 1.258 . S
O174 Co171 1.966 . S
O174 C172 1.263 . S
C175 O176 1.258 . S
C175 O202 1.286 1_565 S
O176 C175 1.258 . S
C177 C179 1.400 . S
C177 N180 1.351 . S
C177 C182 1.501 . S
C178 C179 1.387 . S
C178 N181 1.341 . S
C179 C177 1.400 . S
C179 C178 1.387 . S
N180 Co171 2.022 . S
N180 C177 1.351 . S
N180 N181 1.365 . S
N181 C178 1.341 . S
N181 N180 1.365 . S
N181 H201 0.862 . S
C182 C177 1.501 . S
C182 H183 0.961 . S
C182 H184 0.961 . S
C182 H185 0.960 . S
H183 C182 0.961 . S
H184 C182 0.961 . S
H185 C182 0.960 . S
C186 N187 1.342 . S
C186 C190 1.401 . S
C186 C191 1.499 . S
N187 Co170 1.989 . S
N187 C186 1.342 . S
N187 N188 1.388 . S
N188 Co171 1.993 . S
N188 N187 1.388 . S
N188 C189 1.346 . S
C189 N188 1.346 . S
C189 C190 1.396 . S
C189 C199 1.510 . S
C190 C186 1.401 . S
C190 C189 1.396 . S
C191 C186 1.499 . S
C191 H192 0.955 1_565 S
C191 H193 0.960 . S
C191 H194 0.961 1_565 S
H192 C191 0.955 1_545 S
H193 C191 0.960 . S
H194 C191 0.961 1_545 S
O195 Co170 1.967 . S
O195 C203 1.258 . S
O196 Co171 1.941 . S
O196 C203 1.266 . S
H197 C199 0.959 . S
H198 C199 0.961 . S
C199 C189 1.510 . S
C199 H197 0.959 . S
C199 H198 0.961 . S
C199 H200 0.960 . S
H200 C199 0.960 . S
H201 N181 0.862 . S
O202 Co170 1.920 1_545 S
O202 C175 1.286 1_545 S
C203 O195 1.258 . S
C203 O196 1.266 . S
Co204 O207 1.970 . S
Co204 N221 1.989 1_556 S
Co204 O229 1.967 . S
Co204 O236 1.920 1_545 S
Co205 O208 1.966 . S
Co205 N214 2.022 . S
Co205 N222 1.993 1_556 S
Co205 O230 1.941 . S
C206 O207 1.258 . S
C206 O208 1.263 . S
O207 Co204 1.970 . S
O207 C206 1.258 . S
O208 Co205 1.966 . S
O208 C206 1.263 . S
C209 O210 1.258 . S
C209 O236 1.286 1_545 S
O210 C209 1.258 . S
C211 C213 1.400 . S
C211 N214 1.351 . S
C211 C216 1.501 . S
C212 C213 1.387 . S
C212 N215 1.341 . S
C213 C211 1.400 . S
C213 C212 1.387 . S
N214 Co205 2.022 . S
N214 C211 1.351 . S
N214 N215 1.365 . S
N215 C212 1.341 . S
N215 N214 1.365 . S
N215 H235 0.862 . S
C216 C211 1.501 . S
C216 H217 0.961 . S
C216 H218 0.961 . S
C216 H219 0.960 . S
H217 C216 0.961 . S
H218 C216 0.961 . S
H219 C216 0.960 . S
C220 N221 1.342 . S
C220 C224 1.401 . S
C220 C225 1.499 . S
N221 Co204 1.989 1_554 S
N221 C220 1.342 . S
N221 N222 1.388 . S
N222 Co205 1.993 1_554 S
N222 N221 1.388 . S
N222 C223 1.346 . S
C223 N222 1.346 . S
C223 C224 1.396 . S
C223 C233 1.510 . S
C224 C220 1.401 . S
C224 C223 1.396 . S
C225 C220 1.499 . S
C225 H226 0.955 1_545 S
C225 H227 0.960 . S
C225 H228 0.961 1_545 S
H226 C225 0.955 1_565 S
H227 C225 0.960 . S
H228 C225 0.961 1_565 S
O229 Co204 1.967 . S
O229 C237 1.258 . S
O230 Co205 1.941 . S
O230 C237 1.266 . S
H231 C233 0.959 . S
H232 C233 0.961 . S
C233 C223 1.510 . S
C233 H231 0.959 . S
C233 H232 0.961 . S
C233 H234 0.960 . S
H234 C233 0.960 . S
H235 N215 0.862 . S
O236 Co204 1.920 1_565 S
O236 C209 1.286 1_565 S
C237 O229 1.258 . S
C237 O230 1.266 . S
Co238 O241 1.970 . S
Co238 N255 1.989 . S
Co238 O263 1.967 . S
Co238 O270 1.920 1_545 S
Co239 O242 1.966 . S
Co239 N248 2.022 . S
Co239 N256 1.993 . S
Co239 O264 1.941 . S
C240 O241 1.258 . S
C240 O242 1.263 . S
O241 Co238 1.970 . S
O241 C240 1.258 . S
O242 Co239 1.966 . S
O242 C240 1.263 . S
C243 O244 1.258 . S
C243 O270 1.286 1_545 S
O244 C243 1.258 . S
C245 C247 1.400 . S
C245 N248 1.351 . S
C245 C250 1.501 . S
C246 C247 1.387 . S
C246 N249 1.341 . S
C247 C245 1.400 . S
C247 C246 1.387 . S
N248 Co239 2.022 . S
N248 C245 1.351 . S
N248 N249 1.365 . S
N249 C246 1.341 . S
N249 N248 1.365 . S
N249 H269 0.862 . S
C250 C245 1.501 . S
C250 H251 0.961 . S
C250 H252 0.961 . S
C250 H253 0.960 . S
H251 C250 0.961 . S
H252 C250 0.961 . S
H253 C250 0.960 . S
C254 N255 1.342 . S
C254 C258 1.401 . S
C254 C259 1.499 . S
N255 Co238 1.989 . S
N255 C254 1.342 . S
N255 N256 1.388 . S
N256 Co239 1.993 . S
N256 N255 1.388 . S
N256 C257 1.346 . S
C257 N256 1.346 . S
C257 C258 1.396 . S
C257 C267 1.510 . S
C258 C254 1.401 . S
C258 C257 1.396 . S
C259 C254 1.499 . S
C259 H260 0.955 1_545 S
C259 H261 0.960 . S
C259 H262 0.961 1_545 S
H260 C259 0.955 1_565 S
H261 C259 0.960 . S
H262 C259 0.961 1_565 S
O263 Co238 1.967 . S
O263 C271 1.258 . S
O264 Co239 1.941 . S
O264 C271 1.266 . S
H265 C267 0.959 . S
H266 C267 0.961 . S
C267 C257 1.510 . S
C267 H265 0.959 . S
C267 H266 0.961 . S
C267 H268 0.960 . S
H268 C267 0.960 . S
H269 N249 0.862 . S
O270 Co238 1.920 1_565 S
O270 C243 1.286 1_565 S
C271 O263 1.258 . S
C271 O264 1.266 . S
C272 C273 1.369 . S
C272 C274 1.419 . S
C272 H276 0.930 . S
C273 C272 1.369 . S
C273 C282 1.429 . S
C274 C272 1.419 . S
C274 C275 1.363 . S
C274 H277 0.929 . S
C275 C274 1.363 . S
C275 C281 1.428 . S
H276 C272 0.930 . S
H277 C274 0.929 . S
S278 N279 1.613 . S
S278 N280 1.610 . S
N279 S278 1.613 . S
N279 C282 1.350 . S
N280 S278 1.610 . S
N280 C281 1.351 . S
C281 C275 1.428 . S
C281 N280 1.351 . S
C281 C282 1.434 . S
C282 C273 1.429 . S
C282 N279 1.350 . S
C282 C281 1.434 . S
C283 C284 1.369 . S
C283 C285 1.419 . S
C283 H287 0.930 . S
C284 C283 1.369 . S
C284 C293 1.429 . S
C285 C283 1.419 . S
C285 C286 1.363 . S
C285 H288 0.929 . S
C286 C285 1.363 . S
C286 C292 1.428 . S
H287 C283 0.930 . S
H288 C285 0.929 . S
S289 N290 1.613 . S
S289 N291 1.610 . S
N290 S289 1.613 . S
N290 C293 1.350 . S
N291 S289 1.610 . S
N291 C292 1.351 . S
C292 C286 1.428 . S
C292 N291 1.351 . S
C292 C293 1.434 . S
C293 C284 1.429 . S
C293 N290 1.350 . S
C293 C292 1.434 . S
C294 C295 1.369 . S
C294 C296 1.419 . S
C294 H298 0.930 . S
C295 C294 1.369 . S
C295 C304 1.429 . S
C296 C294 1.419 . S
C296 C297 1.363 . S
C296 H299 0.929 . S
C297 C296 1.363 . S
C297 C303 1.428 . S
H298 C294 0.930 . S
H299 C296 0.929 . S
S300 N301 1.613 . S
S300 N302 1.610 . S
N301 S300 1.613 . S
N301 C304 1.350 . S
N302 S300 1.610 . S
N302 C303 1.351 . S
C303 C297 1.428 . S
C303 N302 1.351 . S
C303 C304 1.434 . S
C304 C295 1.429 . S
C304 N301 1.350 . S
C304 C303 1.434 . S
C305 C306 1.369 . S
C305 C307 1.419 . S
C305 H309 0.930 . S
C306 C305 1.369 . S
C306 C315 1.429 . S
C307 C305 1.419 . S
C307 C308 1.363 . S
C307 H310 0.929 . S
C308 C307 1.363 . S
C308 C314 1.428 . S
H309 C305 0.930 . S
H310 C307 0.929 . S
S311 N312 1.613 . S
S311 N313 1.610 . S
N312 S311 1.613 . S
N312 C315 1.350 . S
N313 S311 1.610 . S
N313 C314 1.351 . S
C314 C308 1.428 . S
C314 N313 1.351 . S
C314 C315 1.434 . S
C315 C306 1.429 . S
C315 N312 1.350 . S
C315 C314 1.434 . S
C316 C317 1.369 . S
C316 C318 1.419 . S
C316 H320 0.930 . S
C317 C316 1.369 . S
C317 C326 1.429 . S
C318 C316 1.419 . S
C318 C319 1.363 1_565 S
C318 H321 0.929 1_565 S
C319 C318 1.363 1_545 S
C319 C325 1.428 1_545 S
H320 C316 0.930 . S
H321 C318 0.929 1_545 S
S322 N323 1.613 . S
S322 N324 1.610 1_565 S
N323 S322 1.613 . S
N323 C326 1.350 . S
N324 S322 1.610 1_545 S
N324 C325 1.351 1_545 S
C325 C319 1.428 1_565 S
C325 N324 1.351 1_565 S
C325 C326 1.434 . S
C326 C317 1.429 . S
C326 N323 1.350 . S
C326 C325 1.434 . S
C327 C328 1.369 . S
C327 C329 1.419 1_545 S
C327 H331 0.930 . S
C328 C327 1.369 . S
C328 C337 1.429 1_545 S
C329 C327 1.419 1_565 S
C329 C330 1.363 . S
C329 H332 0.929 1_565 S
C330 C329 1.363 . S
C330 C336 1.428 . S
H331 C327 0.930 . S
H332 C329 0.929 1_545 S
S333 N334 1.613 . S
S333 N335 1.610 . S
N334 S333 1.613 . S
N334 C337 1.350 . S
N335 S333 1.610 . S
N335 C336 1.351 . S
C336 C330 1.428 . S
C336 N335 1.351 . S
C336 C337 1.434 . S
C337 C328 1.429 1_565 S
C337 N334 1.350 . S
C337 C336 1.434 . S
C338 C339 1.369 . S
C338 C340 1.419 . S
C338 H342 0.930 . S
C339 C338 1.369 . S
C339 C348 1.429 . S
C340 C338 1.419 . S
C340 C341 1.363 1_545 S
C340 H343 0.929 . S
C341 C340 1.363 1_565 S
C341 C347 1.428 . S
H342 C338 0.930 . S
H343 C340 0.929 . S
S344 N345 1.613 1_565 S
S344 N346 1.610 . S
N345 S344 1.613 1_545 S
N345 C348 1.350 . S
N346 S344 1.610 . S
N346 C347 1.351 . S
C347 C341 1.428 . S
C347 N346 1.351 . S
C347 C348 1.434 1_565 S
C348 C339 1.429 . S
C348 N345 1.350 . S
C348 C347 1.434 1_545 S
C349 C350 1.369 . S
C349 C351 1.419 . S
C349 H353 0.930 . S
C350 C349 1.369 . S
C350 C359 1.429 . S
C351 C349 1.419 . S
C351 C352 1.363 1_545 S
C351 H354 0.929 . S
C352 C351 1.363 1_565 S
C352 C358 1.428 . S
H353 C349 0.930 . S
H354 C351 0.929 . S
S355 N356 1.613 . S
S355 N357 1.610 . S
N356 S355 1.613 . S
N356 C359 1.350 1_565 S
N357 S355 1.610 . S
N357 C358 1.351 . S
C358 C352 1.428 . S
C358 N357 1.351 . S
C358 C359 1.434 1_565 S
C359 C350 1.429 . S
C359 N356 1.350 1_545 S
C359 C358 1.434 1_545 S
C360 C361 1.369 . S
C360 C362 1.419 1_554 S
C360 H364 0.930 . S
C361 C360 1.369 . S
C361 C370 1.429 . S
C362 C360 1.419 1_556 S
C362 C363 1.363 . S
C362 H365 0.929 . S
C363 C362 1.363 . S
C363 C369 1.428 . S
H364 C360 0.930 . S
H365 C362 0.929 . S
S366 N367 1.613 . S
S366 N368 1.610 . S
N367 S366 1.613 . S
N367 C370 1.350 . S
N368 S366 1.610 . S
N368 C369 1.351 1_554 S
C369 C363 1.428 . S
C369 N368 1.351 1_556 S
C369 C370 1.434 1_556 S
C370 C361 1.429 . S
C370 N367 1.350 . S
C370 C369 1.434 1_554 S
C371 C372 1.369 . S
C371 C373 1.419 . S
C371 H375 0.930 . S
C372 C371 1.369 . S
C372 C381 1.429 . S
C373 C371 1.419 . S
C373 C374 1.363 . S
C373 H376 0.929 . S
C374 C373 1.363 . S
C374 C380 1.428 . S
H375 C371 0.930 . S
H376 C373 0.929 . S
S377 N378 1.613 . S
S377 N379 1.610 . S
N378 S377 1.613 . S
N378 C381 1.350 . S
N379 S377 1.610 . S
N379 C380 1.351 . S
C380 C374 1.428 . S
C380 N379 1.351 . S
C380 C381 1.434 . S
C381 C372 1.429 . S
C381 N378 1.350 . S
C381 C380 1.434 . S
C382 C383 1.369 1_554 S
C382 C384 1.419 1_455 S
C382 H386 0.930 . S
C383 C382 1.369 1_556 S
C383 C392 1.429 1_565 S
C384 C382 1.419 1_655 S
C384 C385 1.363 1_565 S
C384 H387 0.929 . S
C385 C384 1.363 1_545 S
C385 C391 1.428 1_554 S
H386 C382 0.930 . S
H387 C384 0.929 . S
S388 N389 1.613 1_655 S
S388 N390 1.610 . S
N389 S388 1.613 1_455 S
N389 C392 1.350 . S
N390 S388 1.610 . S
N390 C391 1.351 . S
C391 C385 1.428 1_556 S
C391 N390 1.351 . S
C391 C392 1.434 1_655 S
C392 C383 1.429 1_545 S
C392 N389 1.350 . S
C392 C391 1.434 1_455 S
C393 C394 1.369 1_545 S
C393 C395 1.419 1_655 S
C393 H397 0.930 . S
C394 C393 1.369 1_565 S
C394 C403 1.429 . S
C395 C393 1.419 1_455 S
C395 C396 1.363 . S
C395 H398 0.929 . S
C396 C395 1.363 . S
C396 C402 1.428 1_545 S
H397 C393 0.930 . S
H398 C395 0.929 . S
S399 N400 1.613 1_455 S
S399 N401 1.610 . S
N400 S399 1.613 1_655 S
N400 C403 1.350 . S
N401 S399 1.610 . S
N401 C402 1.351 . S
C402 C396 1.428 1_565 S
C402 N401 1.351 . S
C402 C403 1.434 1_455 S
C403 C394 1.429 . S
C403 N400 1.350 . S
C403 C402 1.434 1_655 S
C404 C405 1.369 1_556 S
C404 C406 1.419 . S
C404 H408 0.930 . S
C405 C404 1.369 1_554 S
C405 C414 1.429 . S
C406 C404 1.419 . S
C406 C407 1.363 . S
C406 H409 0.929 . S
C407 C406 1.363 . S
C407 C413 1.428 1_556 S
H408 C404 0.930 . S
H409 C406 0.929 . S
S410 N411 1.613 . S
S410 N412 1.610 . S
N411 S410 1.613 . S
N411 C414 1.350 . S
N412 S410 1.610 . S
N412 C413 1.351 . S
C413 C407 1.428 1_554 S
C413 N412 1.351 . S
C413 C414 1.434 . S
C414 C405 1.429 . S
C414 N411 1.350 . S
C414 C413 1.434 . S
C415 C416 1.369 . S
C415 C417 1.419 . S
C415 H419 0.930 . S
C416 C415 1.369 . S
C416 C425 1.429 . S
C417 C415 1.419 . S
C417 C418 1.363 . S
C417 H420 0.929 . S
C418 C417 1.363 . S
C418 C424 1.428 . S
H419 C415 0.930 . S
H420 C417 0.929 . S
S421 N422 1.613 . S
S421 N423 1.610 . S
N422 S421 1.613 . S
N422 C425 1.350 . S
N423 S421 1.610 . S
N423 C424 1.351 . S
C424 C418 1.428 . S
C424 N423 1.351 . S
C424 C425 1.434 . S
C425 C416 1.429 . S
C425 N422 1.350 . S
C425 C424 1.434 . S
C426 C427 1.369 1_556 S
C426 C428 1.419 . S
C426 H430 0.930 . S
C427 C426 1.369 1_554 S
C427 C436 1.429 . S
C428 C426 1.419 . S
C428 C429 1.363 . S
C428 H431 0.929 . S
C429 C428 1.363 . S
C429 C435 1.428 1_556 S
H430 C426 0.930 . S
H431 C428 0.929 . S
S432 N433 1.613 . S
S432 N434 1.610 . S
N433 S432 1.613 . S
N433 C436 1.350 . S
N434 S432 1.610 . S
N434 C435 1.351 . S
C435 C429 1.428 1_554 S
C435 N434 1.351 . S
C435 C436 1.434 . S
C436 C427 1.429 . S
C436 N433 1.350 . S
C436 C435 1.434 . S
C437 C438 1.369 . S
C437 C439 1.419 . S
C437 H441 0.930 . S
C438 C437 1.369 . S
C438 C447 1.429 . S
C439 C437 1.419 . S
C439 C440 1.363 . S
C439 H442 0.929 . S
C440 C439 1.363 . S
C440 C446 1.428 . S
H441 C437 0.930 . S
H442 C439 0.929 . S
S443 N444 1.613 . S
S443 N445 1.610 . S
N444 S443 1.613 . S
N444 C447 1.350 . S
N445 S443 1.610 . S
N445 C446 1.351 . S
C446 C440 1.428 . S
C446 N445 1.351 . S
C446 C447 1.434 . S
C447 C438 1.429 . S
C447 N444 1.350 . S
C447 C446 1.434 . S
C448 C449 1.369 . S
C448 C450 1.419 . S
C448 H452 0.930 . S
C449 C448 1.369 . S
C449 C458 1.429 . S
C450 C448 1.419 . S
C450 C451 1.363 . S
C450 H453 0.929 . S
C451 C450 1.363 . S
C451 C457 1.428 . S
H452 C448 0.930 . S
H453 C450 0.929 . S
S454 N455 1.613 . S
S454 N456 1.610 . S
N455 S454 1.613 . S
N455 C458 1.350 . S
N456 S454 1.610 . S
N456 C457 1.351 . S
C457 C451 1.428 . S
C457 N456 1.351 . S
C457 C458 1.434 . S
C458 C449 1.429 . S
C458 N455 1.350 . S
C458 C457 1.434 . S
C459 C460 1.369 . S
C459 C461 1.419 . S
C459 H463 0.930 . S
C460 C459 1.369 . S
C460 C469 1.429 . S
C461 C459 1.419 . S
C461 C462 1.363 . S
C461 H464 0.929 . S
C462 C461 1.363 . S
C462 C468 1.428 . S
H463 C459 0.930 . S
H464 C461 0.929 . S
S465 N466 1.613 . S
S465 N467 1.610 . S
N466 S465 1.613 . S
N466 C469 1.350 . S
N467 S465 1.610 . S
N467 C468 1.351 . S
C468 C462 1.428 . S
C468 N467 1.351 . S
C468 C469 1.434 . S
C469 C460 1.429 . S
C469 N466 1.350 . S
C469 C468 1.434 . S
C470 C471 1.369 . S
C470 C472 1.419 1_455 S
C470 H474 0.930 . S
C471 C470 1.369 . S
C471 C480 1.429 . S
C472 C470 1.419 1_655 S
C472 C473 1.363 . S
C472 H475 0.929 . S
C473 C472 1.363 . S
C473 C479 1.428 . S
H474 C470 0.930 . S
H475 C472 0.929 . S
S476 N477 1.613 . S
S476 N478 1.610 1_455 S
N477 S476 1.613 . S
N477 C480 1.350 . S
N478 S476 1.610 1_655 S
N478 C479 1.351 . S
C479 C473 1.428 . S
C479 N478 1.351 . S
C479 C480 1.434 1_655 S
C480 C471 1.429 . S
C480 N477 1.350 . S
C480 C479 1.434 1_455 S
C481 C482 1.369 . S
C481 C483 1.419 1_455 S
C481 H485 0.930 . S
C482 C481 1.369 . S
C482 C491 1.429 . S
C483 C481 1.419 1_655 S
C483 C484 1.363 . S
C483 H486 0.929 . S
C484 C483 1.363 . S
C484 C490 1.428 . S
H485 C481 0.930 . S
H486 C483 0.929 . S
S487 N488 1.613 1_655 S
S487 N489 1.610 . S
N488 S487 1.613 1_455 S
N488 C491 1.350 . S
N489 S487 1.610 . S
N489 C490 1.351 . S
C490 C484 1.428 . S
C490 N489 1.351 . S
C490 C491 1.434 1_655 S
C491 C482 1.429 . S
C491 N488 1.350 . S
C491 C490 1.434 1_455 S
C273 C135 1.656 . S
C275 C20 1.522 . S
C284 C54 1.523 . S
C286 C101 1.656 . S
C295 C67 1.657 . S
C297 C88 1.529 . S
C306 C33 1.657 . S
C308 C122 1.529 . S
C317 C156 1.519 . S
C319 C271 1.656 . S
C328 C237 1.657 . S
C330 C190 1.528 . S
C339 C224 1.527 . S
C341 C203 1.657 . S
C350 C258 1.523 . S
C352 C169 1.656 . S
C361 C5 0.800 . S
C363 C73 0.821 . S
C372 C39 0.796 . S
C374 C107 0.823 . S
C383 C209 0.782 1_565 S
C385 C141 0.802 1_545 S
C394 C243 0.809 1_565 S
C396 C175 0.782 1_545 S
C405 C9 1.378 . S
C407 C213 1.377 . S
C416 C43 1.375 . S
C418 C247 1.379 . S
C427 C145 1.381 . S
C429 C77 1.374 . S
C438 C179 1.377 . S
C440 C111 1.377 . S
C449 C36 2.006 . S
C451 C2 2.006 . S
C460 C104 2.005 . S
C462 C70 2.006 . S
C471 C172 2.006 . S
C473 C138 2.005 . S
C482 C206 2.000 . S
C484 C240 2.002 . S
