# Generated by pormake.
# Topology qtz, (4)-cn, num edge types: 1
# Building blocks:
#     Node 0, Type 0, BuildingBlock: UXUYUI_clean_sbu_0, # of connection points: 4
#     Node 1, Type 0, BuildingBlock: UXUYUI_clean_sbu_0, # of connection points: 4
#     Node 2, Type 0, BuildingBlock: UXUYUI_clean_sbu_0, # of connection points: 4
#     Edge 3, Type (0, 0), BuildingBlock: CIFDUS_clean_linker_0, # of connection points: 2
#     Edge 4, Type (0, 0), BuildingBlock: CIFDUS_clean_linker_0, # of connection points: 2
#     Edge 5, Type (0, 0), BuildingBlock: CIFDUS_clean_linker_0, # of connection points: 2
#     Edge 6, Type (0, 0), BuildingBlock: CIFDUS_clean_linker_0, # of connection points: 2
#     Edge 7, Type (0, 0), BuildingBlock: CIFDUS_clean_linker_0, # of connection points: 2
#     Edge 8, Type (0, 0), BuildingBlock: CIFDUS_clean_linker_0, # of connection points: 2
# Relax obj value: 0.181
# Max RMSD: 0.212
# Mean RMSD: 0.212
data_MOF--net-qtz--node1-UXUYUI_clean_sbu_0--edge1-CIFDUS_clean_linker_0
_symmetry_space_group_name_H-M    P1
_symmetry_Int_Tables_number       1
_symmetry_cell_setting            triclinic
loop_
_symmetry_equiv_pos_as_xyz
'x, y, z'
_cell_length_a     31.44398
_cell_length_b     31.43829
_cell_length_c     37.43969
_cell_angle_alpha  90.014209
_cell_angle_beta   89.977631
_cell_angle_gamma 119.99829
loop_
_atom_site_label
_atom_site_type_symbol
_atom_site_fract_x
_atom_site_fract_y
_atom_site_fract_z
_atom_type_partial_charge
Li0 Li 0.02673 0.48216 0.14042 0.0
Li1 Li 0.03287 0.54325 0.18462 0.0
Li2 Li 0.96674 0.45821 0.18774 0.0
Li3 Li 0.96878 0.50968 0.14084 0.0
C4 C 0.08519 0.49652 0.20153 0.0
N5 N 0.18092 0.52426 0.21915 0.0
C6 C 0.12419 0.53319 0.18194 0.0
C7 C 0.09489 0.47408 0.23011 0.0
C8 C 0.17231 0.54666 0.19127 0.0
C9 C 0.14355 0.48857 0.23857 0.0
C10 C 0.04216 0.58739 0.11241 0.0
C11 C 0.03069 0.65753 0.10748 0.0
N12 N 0.04128 0.66053 0.07204 0.0
C13 C 0.05319 0.59134 0.07598 0.0
C14 C 0.03097 0.62084 0.12835 0.0
C15 C 0.05246 0.62852 0.05601 0.0
C16 C 0.05771 0.46764 0.07441 0.0
N17 N 0.06155 0.46162 0.10995 0.0
C18 C 0.11597 0.43068 0.09882 0.0
C19 C 0.08877 0.44215 0.12243 0.0
C20 C 0.11454 0.43874 0.06203 0.0
C21 C 0.08414 0.45658 0.04984 0.0
H22 H 0.03446 0.48161 0.06522 0.0
H23 H 0.08983 0.43586 0.15069 0.0
C24 C 0.07504 0.59001 0.24894 0.0
N25 N 0.07743 0.59711 0.21305 0.0
C26 C 0.10961 0.62633 0.27134 0.0
C27 C 0.14765 0.67707 0.21944 0.0
C28 C 0.11282 0.63944 0.198 0.0
C29 C 0.14681 0.67063 0.25667 0.0
H30 H 0.04704 0.55546 0.26001 0.0
H31 H 0.11474 0.64367 0.16932 0.0
C32 C 0.94271 0.39351 0.1311 0.0
N33 N 0.91841 0.29696 0.12049 0.0
C34 C 0.90775 0.36488 0.10546 0.0
C35 C 0.96537 0.37304 0.15136 0.0
C36 C 0.89594 0.31614 0.10049 0.0
C37 C 0.95257 0.32417 0.14559 0.0
C38 C 0.91517 0.50626 0.2016 0.0
C39 C 0.87541 0.46922 0.18287 0.0
C40 C 0.90661 0.53002 0.22988 0.0
C41 C 0.82769 0.4566 0.19277 0.0
C42 C 0.85833 0.51635 0.23896 0.0
N43 N 0.8202 0.48022 0.22038 0.0
C44 C 0.94369 0.41302 0.25484 0.0
C45 C 0.88145 0.37122 0.21148 0.0
C46 C 0.91467 0.37947 0.2811 0.0
N47 N 0.92658 0.40846 0.22092 0.0
C48 C 0.85121 0.33686 0.23688 0.0
C49 C 0.86754 0.34096 0.27232 0.0
H50 H 0.97965 0.44324 0.26156 0.0
H51 H 0.86845 0.36874 0.18442 0.0
C52 C 0.92407 0.50362 0.07574 0.0
N53 N 0.93044 0.52375 0.10878 0.0
C54 C 0.89702 0.51191 0.05001 0.0
C55 C 0.88364 0.56172 0.09278 0.0
C56 C 0.91122 0.55263 0.11769 0.0
C57 C 0.87619 0.54113 0.05844 0.0
H58 H 0.9401 0.48105 0.06945 0.0
H59 H 0.91751 0.56882 0.14402 0.0
O60 O 0.03769 0.4831 0.1934 0.0
O61 O 0.04137 0.5505 0.13233 0.0
O62 O 0.95448 0.44132 0.136 0.0
O63 O 0.96234 0.51921 0.1927 0.0
H64 H 0.11749 0.55106 0.15977 0.0
H65 H 0.0651 0.44577 0.2456 0.0
H66 H 0.20283 0.57495 0.17635 0.0
H67 H 0.1516 0.47148 0.26062 0.0
H68 H 0.02176 0.68343 0.11943 0.0
H69 H 0.06227 0.56609 0.0632 0.0
H70 H 0.02181 0.61798 0.15645 0.0
H71 H 0.06077 0.63191 0.02776 0.0
H72 H 0.13809 0.41597 0.10925 0.0
H73 H 0.08198 0.46343 0.02174 0.0
H74 H 0.10797 0.61904 0.29972 0.0
H75 H 0.17514 0.71066 0.20685 0.0
H76 H 0.88991 0.38022 0.08956 0.0
H77 H 0.99244 0.39442 0.17138 0.0
H78 H 0.86892 0.29356 0.08073 0.0
H79 H 0.96979 0.30786 0.16107 0.0
H80 H 0.88122 0.45039 0.1609 0.0
H81 H 0.93702 0.55871 0.24468 0.0
H82 H 0.79661 0.42801 0.17851 0.0
H83 H 0.85118 0.53444 0.2608 0.0
H84 H 0.92891 0.38374 0.308 0.0
H85 H 0.81487 0.30826 0.22904 0.0
H86 H 0.89167 0.49485 0.02402 0.0
H87 H 0.86864 0.58488 0.1002 0.0
Li88 Li 0.543 0.02917 0.47665 0.0
Li89 Li 0.48657 0.03227 0.52113 0.0
Li90 Li 0.51503 0.97328 0.52536 0.0
Li91 Li 0.45638 0.96389 0.47777 0.0
C92 C 0.58211 0.05028 0.55729 0.0
N93 N 0.63413 0.05371 0.61773 0.0
C94 C 0.56725 0.05755 0.59083 0.0
C95 C 0.62358 0.04502 0.55446 0.0
C96 C 0.59402 0.05914 0.62107 0.0
C97 C 0.64932 0.04677 0.58534 0.0
C98 C 0.47536 0.06991 0.45528 0.0
C99 C 0.42032 0.09757 0.43528 0.0
N100 N 0.45944 0.14308 0.42935 0.0
C101 C 0.51505 0.11684 0.44865 0.0
C102 C 0.42762 0.06004 0.44824 0.0
C103 C 0.50623 0.15338 0.43569 0.0
C104 C 0.58293 0.06491 0.40904 0.0
N105 N 0.59452 0.06826 0.44428 0.0
C106 C 0.67749 0.12964 0.43208 0.0
C107 C 0.64064 0.09973 0.45619 0.0
C108 C 0.66659 0.1271 0.39546 0.0
C109 C 0.61862 0.09394 0.38402 0.0
H110 H 0.54568 0.04009 0.40047 0.0
H111 H 0.64863 0.10207 0.48442 0.0
C112 C 0.44024 0.05611 0.57669 0.0
N113 N 0.47125 0.07427 0.54829 0.0
C114 C 0.43203 0.0874 0.59843 0.0
C115 C 0.48819 0.15563 0.56156 0.0
C116 C 0.49544 0.12305 0.54066 0.0
C117 C 0.4565 0.138 0.59116 0.0
H118 H 0.42316 0.01761 0.58334 0.0
H119 H 0.52158 0.13699 0.51903 0.0
C120 C 0.54204 0.95326 0.44692 0.0
N121 N 0.59661 0.95027 0.39011 0.0
C122 C 0.51989 0.93584 0.41368 0.0
C123 C 0.59182 0.96869 0.45138 0.0
C124 C 0.54813 0.9347 0.38527 0.0
C125 C 0.61882 0.96707 0.42229 0.0
C126 C 0.39806 0.93763 0.53832 0.0
C127 C 0.37672 0.8941 0.5581 0.0
C128 C 0.3688 0.95623 0.52567 0.0
C129 C 0.32628 0.86984 0.56488 0.0
C130 C 0.31851 0.93091 0.53301 0.0
N131 N 0.29846 0.88859 0.55229 0.0
C132 C 0.50667 0.92966 0.59164 0.0
C133 C 0.55871 0.91849 0.55156 0.0
C134 C 0.51268 0.90114 0.61745 0.0
N135 N 0.5291 0.93723 0.55937 0.0
C136 C 0.56616 0.89009 0.57677 0.0
C137 C 0.54229 0.8805 0.60997 0.0
H138 H 0.48354 0.94529 0.59711 0.0
H139 H 0.57586 0.92489 0.52561 0.0
C140 C 0.39641 0.93551 0.41688 0.0
N141 N 0.40221 0.91982 0.44938 0.0
C142 C 0.35825 0.90371 0.39441 0.0
C143 C 0.33218 0.84056 0.43961 0.0
C144 C 0.37136 0.87332 0.46095 0.0
C145 C 0.32561 0.8556 0.40577 0.0
H146 H 0.42202 0.97248 0.40818 0.0
H147 H 0.37757 0.86142 0.48651 0.0
O148 O 0.55555 0.0472 0.5275 0.0
O149 O 0.48326 0.03346 0.4676 0.0
O150 O 0.51521 0.95555 0.47488 0.0
O151 O 0.44721 0.96131 0.53084 0.0
H152 H 0.53513 0.06145 0.59355 0.0
H153 H 0.63534 0.03893 0.52876 0.0
H154 H 0.58281 0.06452 0.64721 0.0
H155 H 0.68127 0.04241 0.58357 0.0
H156 H 0.38355 0.09047 0.42981 0.0
H157 H 0.55226 0.12522 0.45394 0.0
H158 H 0.39649 0.02372 0.45251 0.0
H159 H 0.53659 0.18995 0.43071 0.0
H160 H 0.71407 0.15451 0.44199 0.0
H161 H 0.6084 0.0914 0.35616 0.0
H162 H 0.40825 0.07235 0.62147 0.0
H163 H 0.50779 0.19433 0.5549 0.0
H164 H 0.48139 0.92354 0.40978 0.0
H165 H 0.60966 0.98265 0.47682 0.0
H166 H 0.53152 0.92151 0.35935 0.0
H167 H 0.65748 0.97935 0.42527 0.0
H168 H 0.39884 0.87903 0.56787 0.0
H169 H 0.38485 0.98995 0.51049 0.0
H170 H 0.30923 0.83605 0.58008 0.0
H171 H 0.29543 0.94492 0.52339 0.0
H172 H 0.49406 0.89496 0.64288 0.0
H173 H 0.58895 0.87443 0.56995 0.0
H174 H 0.35427 0.91653 0.36845 0.0
H175 H 0.30813 0.80346 0.44899 0.0
Li176 Li 0.48913 0.4606 0.80932 0.0
Li177 Li 0.54321 0.5133 0.856 0.0
Li178 Li 0.45208 0.48225 0.8588 0.0
Li179 Li 0.50574 0.54504 0.81573 0.0
C180 C 0.48654 0.40129 0.86553 0.0
N181 N 0.48397 0.31273 0.87402 0.0
C182 C 0.52366 0.39452 0.851 0.0
C183 C 0.44795 0.36293 0.88424 0.0
C184 C 0.52175 0.3495 0.8556 0.0
C185 C 0.44737 0.31846 0.88831 0.0
C186 C 0.60152 0.54045 0.79825 0.0
C187 C 0.6852 0.60737 0.79994 0.0
N188 N 0.70085 0.57655 0.78823 0.0
C189 C 0.61841 0.50953 0.78593 0.0
C190 C 0.63513 0.58986 0.80502 0.0
C191 C 0.66877 0.52844 0.78114 0.0
C192 C 0.50338 0.43031 0.74323 0.0
N193 N 0.47922 0.41218 0.77456 0.0
C194 C 0.4501 0.32987 0.75471 0.0
C195 C 0.45159 0.36296 0.78032 0.0
C196 C 0.47704 0.34777 0.7229 0.0
C197 C 0.50298 0.39869 0.71699 0.0
H198 H 0.52414 0.46959 0.73904 0.0
H199 H 0.43173 0.34928 0.80509 0.0
C200 C 0.6025 0.55442 0.91649 0.0
N201 N 0.59782 0.52829 0.88635 0.0
C202 C 0.63861 0.56277 0.94168 0.0
C203 C 0.66494 0.51771 0.90418 0.0
C204 C 0.6284 0.51031 0.87973 0.0
C205 C 0.66999 0.54368 0.93592 0.0
H206 H 0.57731 0.56771 0.9215 0.0
H207 H 0.62375 0.48899 0.85605 0.0
C208 C 0.39635 0.44736 0.79614 0.0
N209 N 0.30613 0.37176 0.7742 0.0
C210 C 0.37237 0.45399 0.76711 0.0
C211 C 0.37448 0.40231 0.81403 0.0
C212 C 0.32675 0.41532 0.75642 0.0
C213 C 0.32886 0.36454 0.80252 0.0
C214 C 0.51571 0.5945 0.87684 0.0
C215 C 0.47665 0.6003 0.88844 0.0
C216 C 0.56264 0.63559 0.87391 0.0
C217 C 0.48503 0.64736 0.89616 0.0
C218 C 0.56953 0.68204 0.88187 0.0
N219 N 0.53089 0.68692 0.8927 0.0
C220 C 0.40199 0.44782 0.92364 0.0
C221 C 0.36065 0.46993 0.88104 0.0
C222 C 0.36636 0.4391 0.94933 0.0
N223 N 0.3987 0.46336 0.89045 0.0
C224 C 0.32427 0.46181 0.90592 0.0
C225 C 0.32731 0.447 0.94081 0.0
H226 H 0.43314 0.44365 0.93044 0.0
H227 H 0.35963 0.48339 0.85465 0.0
C228 C 0.54577 0.61988 0.76306 0.0
N229 N 0.51216 0.59975 0.78975 0.0
C230 C 0.54704 0.6568 0.74154 0.0
C231 C 0.47975 0.65215 0.7759 0.0
C232 C 0.47932 0.61488 0.79635 0.0
C233 C 0.51335 0.67312 0.74758 0.0
H234 H 0.57045 0.60609 0.75764 0.0
H235 H 0.45188 0.59708 0.81691 0.0
O236 O 0.48738 0.44487 0.861 0.0
O237 O 0.55232 0.52262 0.80319 0.0
O238 O 0.44113 0.48487 0.80674 0.0
O239 O 0.50815 0.54874 0.86891 0.0
H240 H 0.55286 0.42321 0.83553 0.0
H241 H 0.41865 0.36736 0.89538 0.0
H242 H 0.55011 0.34369 0.8443 0.0
H243 H 0.41774 0.28847 0.90273 0.0
H244 H 0.71161 0.64549 0.80522 0.0
H245 H 0.59306 0.47119 0.78054 0.0
H246 H 0.62269 0.61447 0.81397 0.0
H247 H 0.68235 0.50484 0.77187 0.0
H248 H 0.42961 0.29087 0.76034 0.0
H249 H 0.52335 0.41398 0.69251 0.0
H250 H 0.64142 0.58334 0.96563 0.0
H251 H 0.68768 0.50153 0.89888 0.0
H252 H 0.38889 0.48869 0.75299 0.0
H253 H 0.3925 0.39652 0.83653 0.0
H254 H 0.30775 0.41992 0.73399 0.0
H255 H 0.31153 0.32947 0.81611 0.0
H256 H 0.44018 0.56889 0.89115 0.0
H257 H 0.59344 0.63164 0.86574 0.0
H258 H 0.45506 0.65242 0.9049 0.0
H259 H 0.60563 0.71419 0.87955 0.0
H260 H 0.3699 0.42727 0.97577 0.0
H261 H 0.29537 0.46922 0.89834 0.0
H262 H 0.5729 0.67098 0.7196 0.0
H263 H 0.45343 0.66378 0.78192 0.0
H264 H 0.22832 0.4088 0.93436 0.0
H265 H 0.34739 0.47801 0.01004 0.0
H266 H 0.29126 0.47805 0.0549 0.0
H267 H 0.20992 0.46416 0.0713 0.0
H268 H 0.09091 0.39694 0.99552 0.0
H269 H 0.14568 0.39126 0.95184 0.0
C270 C 0.24197 0.42389 0.96067 0.0
C271 C 0.29204 0.44339 0.96873 0.0
C272 C 0.20963 0.42461 0.98623 0.0
C273 C 0.30895 0.46213 0.00318 0.0
C274 C 0.27695 0.46256 0.02881 0.0
C275 C 0.1957 0.44743 0.04547 0.0
C276 C 0.14645 0.43115 0.03665 0.0
C277 C 0.2274 0.44454 0.02047 0.0
C278 C 0.12885 0.41032 0.00282 0.0
C279 C 0.16009 0.40691 0.97788 0.0
H280 H 0.80745 0.24193 0.26664 0.0
H281 H 0.85392 0.3625 0.3406 0.0
H282 H 0.79781 0.30661 0.38572 0.0
H283 H 0.73258 0.22434 0.40317 0.0
H284 H 0.68502 0.10387 0.32904 0.0
H285 H 0.74383 0.15908 0.28475 0.0
C286 C 0.80515 0.25601 0.29258 0.0
C287 C 0.83485 0.30636 0.30017 0.0
C288 C 0.77236 0.22376 0.31829 0.0
C289 C 0.83198 0.32384 0.33416 0.0
C290 C 0.79963 0.29196 0.35992 0.0
C291 C 0.73558 0.21 0.37753 0.0
C292 C 0.70437 0.16008 0.36941 0.0
C293 C 0.76938 0.24194 0.35218 0.0
C294 C 0.7082 0.14227 0.33581 0.0
C295 C 0.74194 0.17377 0.31052 0.0
H296 H 0.46773 0.80485 0.64496 0.0
H297 H 0.62511 0.88078 0.63272 0.0
H298 H 0.63042 0.8242 0.67509 0.0
H299 H 0.58995 0.75305 0.71547 0.0
H300 H 0.43172 0.67483 0.72439 0.0
H301 H 0.42737 0.7333 0.68426 0.0
C302 C 0.50323 0.80928 0.65187 0.0
C303 C 0.54599 0.84701 0.63599 0.0
C304 C 0.50589 0.77643 0.67582 0.0
C305 C 0.59169 0.85181 0.64456 0.0
C306 C 0.59472 0.8196 0.66883 0.0
C307 C 0.55445 0.74848 0.70845 0.0
C308 C 0.51131 0.70963 0.72334 0.0
C309 C 0.55199 0.78163 0.68452 0.0
C310 C 0.46572 0.70488 0.71415 0.0
C311 C 0.46306 0.73807 0.69086 0.0
H312 H 0.76351 0.56179 0.92619 0.0
H313 H 0.6563 0.53452 0.00822 0.0
H314 H 0.71214 0.535 0.05361 0.0
H315 H 0.7888 0.53695 0.06951 0.0
H316 H 0.89506 0.56172 0.98739 0.0
H317 H 0.84181 0.56748 0.94247 0.0
C318 C 0.75234 0.55589 0.95399 0.0
C319 C 0.70569 0.54798 0.9637 0.0
C320 C 0.78424 0.55526 0.97992 0.0
C321 C 0.69218 0.5413 -3e-05 0.0
C322 C 0.72393 0.54115 0.02596 0.0
C323 C 0.80064 0.5444 0.04188 0.0
C324 C 0.84566 0.54861 0.03177 0.0
C325 C 0.76973 0.54735 0.01618 0.0
C326 C 0.86023 0.55764 0.99577 0.0
C327 C 0.82991 0.56112 0.9701 0.0
H328 H 0.33428 0.83508 0.33691 0.0
H329 H 0.22852 0.79752 0.42162 0.0
H330 H 0.1633 0.73827 0.38252 0.0
H331 H 0.13683 0.69698 0.32446 0.0
H332 H 0.24444 0.73052 0.24133 0.0
H333 H 0.3081 0.79244 0.27928 0.0
C334 C 0.29683 0.81416 0.34662 0.0
C335 C 0.286 0.82066 0.38191 0.0
C336 C 0.25986 0.7797 0.32425 0.0
C337 C 0.2376 0.79288 0.39451 0.0
C338 C 0.20038 0.75916 0.37218 0.0
C339 C 0.17425 0.71738 0.31468 0.0
C340 C 0.18546 0.709 0.27987 0.0
C341 C 0.21117 0.75206 0.33705 0.0
C342 C 0.23422 0.73667 0.26763 0.0
C343 C 0.27091 0.77187 0.28946 0.0
H344 H 0.40312 0.25949 0.69891 0.0
H345 H 0.5588 0.36014 0.68868 0.0
H346 H 0.56575 0.30486 0.64652 0.0
H347 H 0.52847 0.22716 0.614 0.0
H348 H 0.37283 0.126 0.62337 0.0
H349 H 0.36524 0.18178 0.66503 0.0
C350 C 0.43855 0.26917 0.68753 0.0
C351 C 0.48031 0.31398 0.69681 0.0
C352 C 0.44239 0.23704 0.66334 0.0
C353 C 0.52592 0.32625 0.68157 0.0
C354 C 0.53002 0.29452 0.65763 0.0
C355 C 0.4927 0.21757 0.62467 0.0
C356 C 0.45128 0.17251 0.61545 0.0
C357 C 0.48856 0.24983 0.64838 0.0
C358 C 0.40542 0.16025 0.63026 0.0
C359 C 0.401 0.19222 0.65397 0.0
loop_
_geom_bond_atom_site_label_1
_geom_bond_atom_site_label_2
_geom_bond_distance
_geom_bond_site_symmetry_2
_ccdc_geom_bond_type
Li0 N17 1.990 . S
Li0 O60 1.956 . S
Li0 O61 1.970 . S
Li0 O62 1.961 1_455 S
Li1 N25 1.990 . S
Li1 O60 1.970 . S
Li1 O61 1.956 . S
Li1 O63 1.961 1_455 S
Li2 N47 1.990 . S
Li2 O60 1.961 1_655 S
Li2 O62 1.956 . S
Li2 O63 1.970 . S
Li3 N53 1.990 . S
Li3 O61 1.961 1_655 S
Li3 O62 1.970 . S
Li3 O63 1.956 . S
C4 C6 1.348 . S
C4 C7 1.356 . S
C4 O60 1.325 . S
N5 C8 1.314 . S
N5 C9 1.279 . S
C6 C4 1.348 . S
C6 C8 1.353 . S
C6 H64 0.929 . S
C7 C4 1.356 . S
C7 C9 1.358 . S
C7 H65 0.930 . S
C8 N5 1.314 . S
C8 C6 1.353 . S
C8 H66 0.930 . S
C9 N5 1.279 . S
C9 C7 1.358 . S
C9 H67 0.930 . S
C10 C13 1.348 . S
C10 C14 1.356 . S
C10 O61 1.325 . S
C11 N12 1.279 . S
C11 C14 1.358 . S
C11 H68 0.930 . S
N12 C11 1.279 . S
N12 C15 1.314 . S
C13 C10 1.348 . S
C13 C15 1.353 . S
C13 H69 0.929 . S
C14 C10 1.356 . S
C14 C11 1.358 . S
C14 H70 0.930 . S
C15 N12 1.314 . S
C15 C13 1.353 . S
C15 H71 0.930 . S
C16 N17 1.314 . S
C16 C21 1.353 . S
C16 H22 0.930 . S
N17 Li0 1.990 . S
N17 C16 1.314 . S
N17 C19 1.279 . S
C18 C19 1.358 . S
C18 C20 1.356 . S
C18 H72 0.930 . S
C19 N17 1.279 . S
C19 C18 1.358 . S
C19 H23 0.930 . S
C20 C18 1.356 . S
C20 C21 1.348 . S
C21 C16 1.353 . S
C21 C20 1.348 . S
C21 H73 0.929 . S
H22 C16 0.930 . S
H23 C19 0.930 . S
C24 N25 1.314 . S
C24 C26 1.353 . S
C24 H30 0.930 . S
N25 Li1 1.990 . S
N25 C24 1.314 . S
N25 C28 1.279 . S
C26 C24 1.353 . S
C26 C29 1.348 . S
C26 H74 0.929 . S
C27 C28 1.358 . S
C27 C29 1.356 . S
C27 H75 0.930 . S
C28 N25 1.279 . S
C28 C27 1.358 . S
C28 H31 0.930 . S
C29 C26 1.348 . S
C29 C27 1.356 . S
H30 C24 0.930 . S
H31 C28 0.930 . S
C32 C34 1.348 . S
C32 C35 1.356 . S
C32 O62 1.325 . S
N33 C36 1.314 . S
N33 C37 1.279 . S
C34 C32 1.348 . S
C34 C36 1.353 . S
C34 H76 0.929 . S
C35 C32 1.356 . S
C35 C37 1.358 . S
C35 H77 0.930 . S
C36 N33 1.314 . S
C36 C34 1.353 . S
C36 H78 0.930 . S
C37 N33 1.279 . S
C37 C35 1.358 . S
C37 H79 0.930 . S
C38 C39 1.348 . S
C38 C40 1.356 . S
C38 O63 1.325 . S
C39 C38 1.348 . S
C39 C41 1.353 . S
C39 H80 0.929 . S
C40 C38 1.356 . S
C40 C42 1.358 . S
C40 H81 0.930 . S
C41 C39 1.353 . S
C41 N43 1.314 . S
C41 H82 0.930 . S
C42 C40 1.358 . S
C42 N43 1.279 . S
C42 H83 0.930 . S
N43 C41 1.314 . S
N43 C42 1.279 . S
C44 C46 1.353 . S
C44 N47 1.314 . S
C44 H50 0.930 . S
C45 N47 1.279 . S
C45 C48 1.358 . S
C45 H51 0.930 . S
C46 C44 1.353 . S
C46 C49 1.348 . S
C46 H84 0.929 . S
N47 Li2 1.990 . S
N47 C44 1.314 . S
N47 C45 1.279 . S
C48 C45 1.358 . S
C48 C49 1.356 . S
C48 H85 0.930 . S
C49 C46 1.348 . S
C49 C48 1.356 . S
H50 C44 0.930 . S
H51 C45 0.930 . S
C52 N53 1.314 . S
C52 C54 1.353 . S
C52 H58 0.930 . S
N53 Li3 1.990 . S
N53 C52 1.314 . S
N53 C56 1.279 . S
C54 C52 1.353 . S
C54 C57 1.348 . S
C54 H86 0.929 . S
C55 C56 1.358 . S
C55 C57 1.356 . S
C55 H87 0.930 . S
C56 N53 1.279 . S
C56 C55 1.358 . S
C56 H59 0.930 . S
C57 C54 1.348 . S
C57 C55 1.356 . S
H58 C52 0.930 . S
H59 C56 0.930 . S
O60 Li0 1.956 . S
O60 Li1 1.970 . S
O60 Li2 1.961 1_455 S
O60 C4 1.325 . S
O61 Li0 1.970 . S
O61 Li1 1.956 . S
O61 Li3 1.961 1_455 S
O61 C10 1.325 . S
O62 Li0 1.961 1_655 S
O62 Li2 1.956 . S
O62 Li3 1.970 . S
O62 C32 1.325 . S
O63 Li1 1.961 1_655 S
O63 Li2 1.970 . S
O63 Li3 1.956 . S
O63 C38 1.325 . S
H64 C6 0.929 . S
H65 C7 0.930 . S
H66 C8 0.930 . S
H67 C9 0.930 . S
H68 C11 0.930 . S
H69 C13 0.929 . S
H70 C14 0.930 . S
H71 C15 0.930 . S
H72 C18 0.930 . S
H73 C21 0.929 . S
H74 C26 0.929 . S
H75 C27 0.930 . S
H76 C34 0.929 . S
H77 C35 0.930 . S
H78 C36 0.930 . S
H79 C37 0.930 . S
H80 C39 0.929 . S
H81 C40 0.930 . S
H82 C41 0.930 . S
H83 C42 0.930 . S
H84 C46 0.929 . S
H85 C48 0.930 . S
H86 C54 0.929 . S
H87 C55 0.930 . S
Li88 N105 1.990 . S
Li88 O148 1.956 . S
Li88 O149 1.970 . S
Li88 O150 1.961 1_545 S
Li89 N113 1.990 . S
Li89 O148 1.970 . S
Li89 O149 1.956 . S
Li89 O151 1.961 1_545 S
Li90 N135 1.990 . S
Li90 O148 1.961 1_565 S
Li90 O150 1.956 . S
Li90 O151 1.970 . S
Li91 N141 1.990 . S
Li91 O149 1.961 1_565 S
Li91 O150 1.970 . S
Li91 O151 1.956 . S
C92 C94 1.348 . S
C92 C95 1.356 . S
C92 O148 1.325 . S
N93 C96 1.314 . S
N93 C97 1.279 . S
C94 C92 1.348 . S
C94 C96 1.353 . S
C94 H152 0.929 . S
C95 C92 1.356 . S
C95 C97 1.358 . S
C95 H153 0.930 . S
C96 N93 1.314 . S
C96 C94 1.353 . S
C96 H154 0.930 . S
C97 N93 1.279 . S
C97 C95 1.358 . S
C97 H155 0.930 . S
C98 C101 1.348 . S
C98 C102 1.356 . S
C98 O149 1.325 . S
C99 N100 1.279 . S
C99 C102 1.358 . S
C99 H156 0.930 . S
N100 C99 1.279 . S
N100 C103 1.314 . S
C101 C98 1.348 . S
C101 C103 1.353 . S
C101 H157 0.929 . S
C102 C98 1.356 . S
C102 C99 1.358 . S
C102 H158 0.930 . S
C103 N100 1.314 . S
C103 C101 1.353 . S
C103 H159 0.930 . S
C104 N105 1.314 . S
C104 C109 1.353 . S
C104 H110 0.930 . S
N105 Li88 1.990 . S
N105 C104 1.314 . S
N105 C107 1.279 . S
C106 C107 1.358 . S
C106 C108 1.356 . S
C106 H160 0.930 . S
C107 N105 1.279 . S
C107 C106 1.358 . S
C107 H111 0.930 . S
C108 C106 1.356 . S
C108 C109 1.348 . S
C109 C104 1.353 . S
C109 C108 1.348 . S
C109 H161 0.929 . S
H110 C104 0.930 . S
H111 C107 0.930 . S
C112 N113 1.314 . S
C112 C114 1.353 . S
C112 H118 0.930 . S
N113 Li89 1.990 . S
N113 C112 1.314 . S
N113 C116 1.279 . S
C114 C112 1.353 . S
C114 C117 1.348 . S
C114 H162 0.929 . S
C115 C116 1.358 . S
C115 C117 1.356 . S
C115 H163 0.930 . S
C116 N113 1.279 . S
C116 C115 1.358 . S
C116 H119 0.930 . S
C117 C114 1.348 . S
C117 C115 1.356 . S
H118 C112 0.930 . S
H119 C116 0.930 . S
C120 C122 1.348 . S
C120 C123 1.356 . S
C120 O150 1.325 . S
N121 C124 1.314 . S
N121 C125 1.279 . S
C122 C120 1.348 . S
C122 C124 1.353 . S
C122 H164 0.929 . S
C123 C120 1.356 . S
C123 C125 1.358 . S
C123 H165 0.930 . S
C124 N121 1.314 . S
C124 C122 1.353 . S
C124 H166 0.930 . S
C125 N121 1.279 . S
C125 C123 1.358 . S
C125 H167 0.930 . S
C126 C127 1.348 . S
C126 C128 1.356 . S
C126 O151 1.325 . S
C127 C126 1.348 . S
C127 C129 1.353 . S
C127 H168 0.929 . S
C128 C126 1.356 . S
C128 C130 1.358 . S
C128 H169 0.930 . S
C129 C127 1.353 . S
C129 N131 1.314 . S
C129 H170 0.930 . S
C130 C128 1.358 . S
C130 N131 1.279 . S
C130 H171 0.930 . S
N131 C129 1.314 . S
N131 C130 1.279 . S
C132 C134 1.353 . S
C132 N135 1.314 . S
C132 H138 0.930 . S
C133 N135 1.279 . S
C133 C136 1.358 . S
C133 H139 0.930 . S
C134 C132 1.353 . S
C134 C137 1.348 . S
C134 H172 0.929 . S
N135 Li90 1.990 . S
N135 C132 1.314 . S
N135 C133 1.279 . S
C136 C133 1.358 . S
C136 C137 1.356 . S
C136 H173 0.930 . S
C137 C134 1.348 . S
C137 C136 1.356 . S
H138 C132 0.930 . S
H139 C133 0.930 . S
C140 N141 1.314 . S
C140 C142 1.353 . S
C140 H146 0.930 . S
N141 Li91 1.990 . S
N141 C140 1.314 . S
N141 C144 1.279 . S
C142 C140 1.353 . S
C142 C145 1.348 . S
C142 H174 0.929 . S
C143 C144 1.358 . S
C143 C145 1.356 . S
C143 H175 0.930 . S
C144 N141 1.279 . S
C144 C143 1.358 . S
C144 H147 0.930 . S
C145 C142 1.348 . S
C145 C143 1.356 . S
H146 C140 0.930 . S
H147 C144 0.930 . S
O148 Li88 1.956 . S
O148 Li89 1.970 . S
O148 Li90 1.961 1_545 S
O148 C92 1.325 . S
O149 Li88 1.970 . S
O149 Li89 1.956 . S
O149 Li91 1.961 1_545 S
O149 C98 1.325 . S
O150 Li88 1.961 1_565 S
O150 Li90 1.956 . S
O150 Li91 1.970 . S
O150 C120 1.325 . S
O151 Li89 1.961 1_565 S
O151 Li90 1.970 . S
O151 Li91 1.956 . S
O151 C126 1.325 . S
H152 C94 0.929 . S
H153 C95 0.930 . S
H154 C96 0.930 . S
H155 C97 0.930 . S
H156 C99 0.930 . S
H157 C101 0.929 . S
H158 C102 0.930 . S
H159 C103 0.930 . S
H160 C106 0.930 . S
H161 C109 0.929 . S
H162 C114 0.929 . S
H163 C115 0.930 . S
H164 C122 0.929 . S
H165 C123 0.930 . S
H166 C124 0.930 . S
H167 C125 0.930 . S
H168 C127 0.929 . S
H169 C128 0.930 . S
H170 C129 0.930 . S
H171 C130 0.930 . S
H172 C134 0.929 . S
H173 C136 0.930 . S
H174 C142 0.929 . S
H175 C143 0.930 . S
Li176 N193 1.990 . S
Li176 O236 1.956 . S
Li176 O237 1.970 . S
Li176 O238 1.961 . S
Li177 N201 1.990 . S
Li177 O236 1.970 . S
Li177 O237 1.956 . S
Li177 O239 1.961 . S
Li178 N223 1.990 . S
Li178 O236 1.961 . S
Li178 O238 1.956 . S
Li178 O239 1.970 . S
Li179 N229 1.990 . S
Li179 O237 1.961 . S
Li179 O238 1.970 . S
Li179 O239 1.956 . S
C180 C182 1.348 . S
C180 C183 1.356 . S
C180 O236 1.325 . S
N181 C184 1.314 . S
N181 C185 1.279 . S
C182 C180 1.348 . S
C182 C184 1.353 . S
C182 H240 0.929 . S
C183 C180 1.356 . S
C183 C185 1.358 . S
C183 H241 0.930 . S
C184 N181 1.314 . S
C184 C182 1.353 . S
C184 H242 0.930 . S
C185 N181 1.279 . S
C185 C183 1.358 . S
C185 H243 0.930 . S
C186 C189 1.348 . S
C186 C190 1.356 . S
C186 O237 1.325 . S
C187 N188 1.279 . S
C187 C190 1.358 . S
C187 H244 0.930 . S
N188 C187 1.279 . S
N188 C191 1.314 . S
C189 C186 1.348 . S
C189 C191 1.353 . S
C189 H245 0.929 . S
C190 C186 1.356 . S
C190 C187 1.358 . S
C190 H246 0.930 . S
C191 N188 1.314 . S
C191 C189 1.353 . S
C191 H247 0.930 . S
C192 N193 1.314 . S
C192 C197 1.353 . S
C192 H198 0.930 . S
N193 Li176 1.990 . S
N193 C192 1.314 . S
N193 C195 1.279 . S
C194 C195 1.358 . S
C194 C196 1.356 . S
C194 H248 0.930 . S
C195 N193 1.279 . S
C195 C194 1.358 . S
C195 H199 0.930 . S
C196 C194 1.356 . S
C196 C197 1.348 . S
C197 C192 1.353 . S
C197 C196 1.348 . S
C197 H249 0.929 . S
H198 C192 0.930 . S
H199 C195 0.930 . S
C200 N201 1.314 . S
C200 C202 1.353 . S
C200 H206 0.930 . S
N201 Li177 1.990 . S
N201 C200 1.314 . S
N201 C204 1.279 . S
C202 C200 1.353 . S
C202 C205 1.348 . S
C202 H250 0.929 . S
C203 C204 1.358 . S
C203 C205 1.356 . S
C203 H251 0.930 . S
C204 N201 1.279 . S
C204 C203 1.358 . S
C204 H207 0.930 . S
C205 C202 1.348 . S
C205 C203 1.356 . S
H206 C200 0.930 . S
H207 C204 0.930 . S
C208 C210 1.348 . S
C208 C211 1.356 . S
C208 O238 1.325 . S
N209 C212 1.314 . S
N209 C213 1.279 . S
C210 C208 1.348 . S
C210 C212 1.353 . S
C210 H252 0.929 . S
C211 C208 1.356 . S
C211 C213 1.358 . S
C211 H253 0.930 . S
C212 N209 1.314 . S
C212 C210 1.353 . S
C212 H254 0.930 . S
C213 N209 1.279 . S
C213 C211 1.358 . S
C213 H255 0.930 . S
C214 C215 1.348 . S
C214 C216 1.356 . S
C214 O239 1.325 . S
C215 C214 1.348 . S
C215 C217 1.353 . S
C215 H256 0.929 . S
C216 C214 1.356 . S
C216 C218 1.358 . S
C216 H257 0.930 . S
C217 C215 1.353 . S
C217 N219 1.314 . S
C217 H258 0.930 . S
C218 C216 1.358 . S
C218 N219 1.279 . S
C218 H259 0.930 . S
N219 C217 1.314 . S
N219 C218 1.279 . S
C220 C222 1.353 . S
C220 N223 1.314 . S
C220 H226 0.930 . S
C221 N223 1.279 . S
C221 C224 1.358 . S
C221 H227 0.930 . S
C222 C220 1.353 . S
C222 C225 1.348 . S
C222 H260 0.929 . S
N223 Li178 1.990 . S
N223 C220 1.314 . S
N223 C221 1.279 . S
C224 C221 1.358 . S
C224 C225 1.356 . S
C224 H261 0.930 . S
C225 C222 1.348 . S
C225 C224 1.356 . S
H226 C220 0.930 . S
H227 C221 0.930 . S
C228 N229 1.314 . S
C228 C230 1.353 . S
C228 H234 0.930 . S
N229 Li179 1.990 . S
N229 C228 1.314 . S
N229 C232 1.279 . S
C230 C228 1.353 . S
C230 C233 1.348 . S
C230 H262 0.929 . S
C231 C232 1.358 . S
C231 C233 1.356 . S
C231 H263 0.930 . S
C232 N229 1.279 . S
C232 C231 1.358 . S
C232 H235 0.930 . S
C233 C230 1.348 . S
C233 C231 1.356 . S
H234 C228 0.930 . S
H235 C232 0.930 . S
O236 Li176 1.956 . S
O236 Li177 1.970 . S
O236 Li178 1.961 . S
O236 C180 1.325 . S
O237 Li176 1.970 . S
O237 Li177 1.956 . S
O237 Li179 1.961 . S
O237 C186 1.325 . S
O238 Li176 1.961 . S
O238 Li178 1.956 . S
O238 Li179 1.970 . S
O238 C208 1.325 . S
O239 Li177 1.961 . S
O239 Li178 1.970 . S
O239 Li179 1.956 . S
O239 C214 1.325 . S
H240 C182 0.929 . S
H241 C183 0.930 . S
H242 C184 0.930 . S
H243 C185 0.930 . S
H244 C187 0.930 . S
H245 C189 0.929 . S
H246 C190 0.930 . S
H247 C191 0.930 . S
H248 C194 0.930 . S
H249 C197 0.929 . S
H250 C202 0.929 . S
H251 C203 0.930 . S
H252 C210 0.929 . S
H253 C211 0.930 . S
H254 C212 0.930 . S
H255 C213 0.930 . S
H256 C215 0.929 . S
H257 C216 0.930 . S
H258 C217 0.930 . S
H259 C218 0.930 . S
H260 C222 0.929 . S
H261 C224 0.930 . S
H262 C230 0.929 . S
H263 C231 0.930 . S
H264 C270 0.930 . S
H265 C273 0.930 . S
H266 C274 0.930 . S
H267 C275 0.930 . S
H268 C278 0.930 . S
H269 C279 0.930 . S
C270 H264 0.930 . S
C270 C271 1.355 . S
C270 C272 1.415 . S
C271 C270 1.355 . S
C271 C273 1.419 . S
C272 C270 1.415 . S
C272 C277 1.425 1_556 S
C272 C279 1.409 . S
C273 H265 0.930 . S
C273 C271 1.419 . S
C273 C274 1.362 1_556 S
C274 H266 0.930 . S
C274 C273 1.362 1_554 S
C274 C277 1.409 . S
C275 H267 0.930 . S
C275 C276 1.355 . S
C275 C277 1.415 . S
C276 C275 1.355 . S
C276 C278 1.419 . S
C277 C272 1.425 1_554 S
C277 C274 1.409 . S
C277 C275 1.415 . S
C278 H268 0.930 . S
C278 C276 1.419 . S
C278 C279 1.362 1_554 S
C279 H269 0.930 . S
C279 C272 1.409 . S
C279 C278 1.362 1_556 S
H280 C286 0.930 . S
H281 C289 0.930 . S
H282 C290 0.930 . S
H283 C291 0.930 . S
H284 C294 0.930 . S
H285 C295 0.930 . S
C286 H280 0.930 . S
C286 C287 1.355 . S
C286 C288 1.415 . S
C287 C286 1.355 . S
C287 C289 1.419 . S
C288 C286 1.415 . S
C288 C293 1.425 . S
C288 C295 1.409 . S
C289 H281 0.930 . S
C289 C287 1.419 . S
C289 C290 1.362 . S
C290 H282 0.930 . S
C290 C289 1.362 . S
C290 C293 1.409 . S
C291 H283 0.930 . S
C291 C292 1.355 . S
C291 C293 1.415 . S
C292 C291 1.355 . S
C292 C294 1.419 . S
C293 C288 1.425 . S
C293 C290 1.409 . S
C293 C291 1.415 . S
C294 H284 0.930 . S
C294 C292 1.419 . S
C294 C295 1.362 . S
C295 H285 0.930 . S
C295 C288 1.409 . S
C295 C294 1.362 . S
H296 C302 0.930 . S
H297 C305 0.930 . S
H298 C306 0.930 . S
H299 C307 0.930 . S
H300 C310 0.930 . S
H301 C311 0.930 . S
C302 H296 0.930 . S
C302 C303 1.355 . S
C302 C304 1.415 . S
C303 C302 1.355 . S
C303 C305 1.419 . S
C304 C302 1.415 . S
C304 C309 1.425 . S
C304 C311 1.409 . S
C305 H297 0.930 . S
C305 C303 1.419 . S
C305 C306 1.362 . S
C306 H298 0.930 . S
C306 C305 1.362 . S
C306 C309 1.409 . S
C307 H299 0.930 . S
C307 C308 1.355 . S
C307 C309 1.415 . S
C308 C307 1.355 . S
C308 C310 1.419 . S
C309 C304 1.425 . S
C309 C306 1.409 . S
C309 C307 1.415 . S
C310 H300 0.930 . S
C310 C308 1.419 . S
C310 C311 1.362 . S
C311 H301 0.930 . S
C311 C304 1.409 . S
C311 C310 1.362 . S
H312 C318 0.930 . S
H313 C321 0.930 . S
H314 C322 0.930 . S
H315 C323 0.930 . S
H316 C326 0.930 . S
H317 C327 0.930 . S
C318 H312 0.930 . S
C318 C319 1.355 . S
C318 C320 1.415 . S
C319 C318 1.355 . S
C319 C321 1.419 . S
C320 C318 1.415 . S
C320 C325 1.425 1_556 S
C320 C327 1.409 . S
C321 H313 0.930 . S
C321 C319 1.419 . S
C321 C322 1.362 1_556 S
C322 H314 0.930 . S
C322 C321 1.362 1_554 S
C322 C325 1.409 . S
C323 H315 0.930 . S
C323 C324 1.355 . S
C323 C325 1.415 . S
C324 C323 1.355 . S
C324 C326 1.419 . S
C325 C320 1.425 1_554 S
C325 C322 1.409 . S
C325 C323 1.415 . S
C326 H316 0.930 . S
C326 C324 1.419 . S
C326 C327 1.362 1_554 S
C327 H317 0.930 . S
C327 C320 1.409 . S
C327 C326 1.362 1_556 S
H328 C334 0.930 . S
H329 C337 0.930 . S
H330 C338 0.930 . S
H331 C339 0.930 . S
H332 C342 0.930 . S
H333 C343 0.930 . S
C334 H328 0.930 . S
C334 C335 1.355 . S
C334 C336 1.415 . S
C335 C334 1.355 . S
C335 C337 1.419 . S
C336 C334 1.415 . S
C336 C341 1.425 . S
C336 C343 1.409 . S
C337 H329 0.930 . S
C337 C335 1.419 . S
C337 C338 1.362 . S
C338 H330 0.930 . S
C338 C337 1.362 . S
C338 C341 1.409 . S
C339 H331 0.930 . S
C339 C340 1.355 . S
C339 C341 1.415 . S
C340 C339 1.355 . S
C340 C342 1.419 . S
C341 C336 1.425 . S
C341 C338 1.409 . S
C341 C339 1.415 . S
C342 H332 0.930 . S
C342 C340 1.419 . S
C342 C343 1.362 . S
C343 H333 0.930 . S
C343 C336 1.409 . S
C343 C342 1.362 . S
H344 C350 0.930 . S
H345 C353 0.930 . S
H346 C354 0.930 . S
H347 C355 0.930 . S
H348 C358 0.930 . S
H349 C359 0.930 . S
C350 H344 0.930 . S
C350 C351 1.355 . S
C350 C352 1.415 . S
C351 C350 1.355 . S
C351 C353 1.419 . S
C352 C350 1.415 . S
C352 C357 1.425 . S
C352 C359 1.409 . S
C353 H345 0.930 . S
C353 C351 1.419 . S
C353 C354 1.362 . S
C354 H346 0.930 . S
C354 C353 1.362 . S
C354 C357 1.409 . S
C355 H347 0.930 . S
C355 C356 1.355 . S
C355 C357 1.415 . S
C356 C355 1.355 . S
C356 C358 1.419 . S
C357 C352 1.425 . S
C357 C354 1.409 . S
C357 C355 1.415 . S
C358 H348 0.930 . S
C358 C356 1.419 . S
C358 C359 1.362 . S
C359 H349 0.930 . S
C359 C352 1.409 . S
C359 C358 1.362 . S
C271 C225 1.224 . S
C276 C20 1.242 . S
C287 C49 1.226 . S
C292 C108 1.239 . S
C303 C137 1.254 . S
C308 C233 1.225 . S
C319 C205 1.224 . S
C324 C57 1.242 . S
C335 C145 1.256 . S
C340 C29 1.232 . S
C351 C196 1.224 . S
C356 C117 1.252 . S
