# Generated by pormake.
# Topology vba, (4)-cn, num edge types: 1
# Building blocks:
#     Node 0, Type 0, BuildingBlock: QUQFOY_clean_sbu_1, # of connection points: 4
#     Node 1, Type 0, BuildingBlock: QUQFOY_clean_sbu_1, # of connection points: 4
#     Node 2, Type 0, BuildingBlock: QUQFOY_clean_sbu_1, # of connection points: 4
#     Node 3, Type 0, BuildingBlock: QUQFOY_clean_sbu_1, # of connection points: 4
#     Node 4, Type 0, BuildingBlock: QUQFOY_clean_sbu_1, # of connection points: 4
#     Node 5, Type 0, BuildingBlock: QUQFOY_clean_sbu_1, # of connection points: 4
#     Node 6, Type 0, BuildingBlock: QUQFOY_clean_sbu_1, # of connection points: 4
#     Node 7, Type 0, BuildingBlock: QUQFOY_clean_sbu_1, # of connection points: 4
#     Node 8, Type 0, BuildingBlock: QUQFOY_clean_sbu_1, # of connection points: 4
#     Node 9, Type 0, BuildingBlock: QUQFOY_clean_sbu_1, # of connection points: 4
#     Node 10, Type 0, BuildingBlock: QUQFOY_clean_sbu_1, # of connection points: 4
#     Node 11, Type 0, BuildingBlock: QUQFOY_clean_sbu_1, # of connection points: 4
#     Node 12, Type 0, BuildingBlock: QUQFOY_clean_sbu_1, # of connection points: 4
#     Node 13, Type 0, BuildingBlock: QUQFOY_clean_sbu_1, # of connection points: 4
#     Node 14, Type 0, BuildingBlock: QUQFOY_clean_sbu_1, # of connection points: 4
#     Node 15, Type 0, BuildingBlock: QUQFOY_clean_sbu_1, # of connection points: 4
#     Node 16, Type 0, BuildingBlock: QUQFOY_clean_sbu_1, # of connection points: 4
#     Node 17, Type 0, BuildingBlock: QUQFOY_clean_sbu_1, # of connection points: 4
#     Node 18, Type 0, BuildingBlock: QUQFOY_clean_sbu_1, # of connection points: 4
#     Node 19, Type 0, BuildingBlock: QUQFOY_clean_sbu_1, # of connection points: 4
#     Node 20, Type 0, BuildingBlock: QUQFOY_clean_sbu_1, # of connection points: 4
#     Node 21, Type 0, BuildingBlock: QUQFOY_clean_sbu_1, # of connection points: 4
#     Node 22, Type 0, BuildingBlock: QUQFOY_clean_sbu_1, # of connection points: 4
#     Node 23, Type 0, BuildingBlock: QUQFOY_clean_sbu_1, # of connection points: 4
#     Node 24, Type 0, BuildingBlock: QUQFOY_clean_sbu_1, # of connection points: 4
#     Node 25, Type 0, BuildingBlock: QUQFOY_clean_sbu_1, # of connection points: 4
#     Node 26, Type 0, BuildingBlock: QUQFOY_clean_sbu_1, # of connection points: 4
#     Node 27, Type 0, BuildingBlock: QUQFOY_clean_sbu_1, # of connection points: 4
#     Node 28, Type 0, BuildingBlock: QUQFOY_clean_sbu_1, # of connection points: 4
#     Node 29, Type 0, BuildingBlock: QUQFOY_clean_sbu_1, # of connection points: 4
#     Node 30, Type 0, BuildingBlock: QUQFOY_clean_sbu_1, # of connection points: 4
#     Node 31, Type 0, BuildingBlock: QUQFOY_clean_sbu_1, # of connection points: 4
#     Edge 32, Type (0, 0), BuildingBlock: UVAHIK_clean_linker_0, # of connection points: 2
#     Edge 33, Type (0, 0), BuildingBlock: UVAHIK_clean_linker_0, # of connection points: 2
#     Edge 34, Type (0, 0), BuildingBlock: UVAHIK_clean_linker_0, # of connection points: 2
#     Edge 35, Type (0, 0), BuildingBlock: UVAHIK_clean_linker_0, # of connection points: 2
#     Edge 36, Type (0, 0), BuildingBlock: UVAHIK_clean_linker_0, # of connection points: 2
#     Edge 37, Type (0, 0), BuildingBlock: UVAHIK_clean_linker_0, # of connection points: 2
#     Edge 38, Type (0, 0), BuildingBlock: UVAHIK_clean_linker_0, # of connection points: 2
#     Edge 39, Type (0, 0), BuildingBlock: UVAHIK_clean_linker_0, # of connection points: 2
#     Edge 40, Type (0, 0), BuildingBlock: UVAHIK_clean_linker_0, # of connection points: 2
#     Edge 41, Type (0, 0), BuildingBlock: UVAHIK_clean_linker_0, # of connection points: 2
#     Edge 42, Type (0, 0), BuildingBlock: UVAHIK_clean_linker_0, # of connection points: 2
#     Edge 43, Type (0, 0), BuildingBlock: UVAHIK_clean_linker_0, # of connection points: 2
#     Edge 44, Type (0, 0), BuildingBlock: UVAHIK_clean_linker_0, # of connection points: 2
#     Edge 45, Type (0, 0), BuildingBlock: UVAHIK_clean_linker_0, # of connection points: 2
#     Edge 46, Type (0, 0), BuildingBlock: UVAHIK_clean_linker_0, # of connection points: 2
#     Edge 47, Type (0, 0), BuildingBlock: UVAHIK_clean_linker_0, # of connection points: 2
#     Edge 48, Type (0, 0), BuildingBlock: UVAHIK_clean_linker_0, # of connection points: 2
#     Edge 49, Type (0, 0), BuildingBlock: UVAHIK_clean_linker_0, # of connection points: 2
#     Edge 50, Type (0, 0), BuildingBlock: UVAHIK_clean_linker_0, # of connection points: 2
#     Edge 51, Type (0, 0), BuildingBlock: UVAHIK_clean_linker_0, # of connection points: 2
#     Edge 52, Type (0, 0), BuildingBlock: UVAHIK_clean_linker_0, # of connection points: 2
#     Edge 53, Type (0, 0), BuildingBlock: UVAHIK_clean_linker_0, # of connection points: 2
#     Edge 54, Type (0, 0), BuildingBlock: UVAHIK_clean_linker_0, # of connection points: 2
#     Edge 55, Type (0, 0), BuildingBlock: UVAHIK_clean_linker_0, # of connection points: 2
#     Edge 56, Type (0, 0), BuildingBlock: UVAHIK_clean_linker_0, # of connection points: 2
#     Edge 57, Type (0, 0), BuildingBlock: UVAHIK_clean_linker_0, # of connection points: 2
#     Edge 58, Type (0, 0), BuildingBlock: UVAHIK_clean_linker_0, # of connection points: 2
#     Edge 59, Type (0, 0), BuildingBlock: UVAHIK_clean_linker_0, # of connection points: 2
#     Edge 60, Type (0, 0), BuildingBlock: UVAHIK_clean_linker_0, # of connection points: 2
#     Edge 61, Type (0, 0), BuildingBlock: UVAHIK_clean_linker_0, # of connection points: 2
#     Edge 62, Type (0, 0), BuildingBlock: UVAHIK_clean_linker_0, # of connection points: 2
#     Edge 63, Type (0, 0), BuildingBlock: UVAHIK_clean_linker_0, # of connection points: 2
#     Edge 64, Type (0, 0), BuildingBlock: UVAHIK_clean_linker_0, # of connection points: 2
#     Edge 65, Type (0, 0), BuildingBlock: UVAHIK_clean_linker_0, # of connection points: 2
#     Edge 66, Type (0, 0), BuildingBlock: UVAHIK_clean_linker_0, # of connection points: 2
#     Edge 67, Type (0, 0), BuildingBlock: UVAHIK_clean_linker_0, # of connection points: 2
#     Edge 68, Type (0, 0), BuildingBlock: UVAHIK_clean_linker_0, # of connection points: 2
#     Edge 69, Type (0, 0), BuildingBlock: UVAHIK_clean_linker_0, # of connection points: 2
#     Edge 70, Type (0, 0), BuildingBlock: UVAHIK_clean_linker_0, # of connection points: 2
#     Edge 71, Type (0, 0), BuildingBlock: UVAHIK_clean_linker_0, # of connection points: 2
#     Edge 72, Type (0, 0), BuildingBlock: UVAHIK_clean_linker_0, # of connection points: 2
#     Edge 73, Type (0, 0), BuildingBlock: UVAHIK_clean_linker_0, # of connection points: 2
#     Edge 74, Type (0, 0), BuildingBlock: UVAHIK_clean_linker_0, # of connection points: 2
#     Edge 75, Type (0, 0), BuildingBlock: UVAHIK_clean_linker_0, # of connection points: 2
#     Edge 76, Type (0, 0), BuildingBlock: UVAHIK_clean_linker_0, # of connection points: 2
#     Edge 77, Type (0, 0), BuildingBlock: UVAHIK_clean_linker_0, # of connection points: 2
#     Edge 78, Type (0, 0), BuildingBlock: UVAHIK_clean_linker_0, # of connection points: 2
#     Edge 79, Type (0, 0), BuildingBlock: UVAHIK_clean_linker_0, # of connection points: 2
#     Edge 80, Type (0, 0), BuildingBlock: UVAHIK_clean_linker_0, # of connection points: 2
#     Edge 81, Type (0, 0), BuildingBlock: UVAHIK_clean_linker_0, # of connection points: 2
#     Edge 82, Type (0, 0), BuildingBlock: UVAHIK_clean_linker_0, # of connection points: 2
#     Edge 83, Type (0, 0), BuildingBlock: UVAHIK_clean_linker_0, # of connection points: 2
#     Edge 84, Type (0, 0), BuildingBlock: UVAHIK_clean_linker_0, # of connection points: 2
#     Edge 85, Type (0, 0), BuildingBlock: UVAHIK_clean_linker_0, # of connection points: 2
#     Edge 86, Type (0, 0), BuildingBlock: UVAHIK_clean_linker_0, # of connection points: 2
#     Edge 87, Type (0, 0), BuildingBlock: UVAHIK_clean_linker_0, # of connection points: 2
#     Edge 88, Type (0, 0), BuildingBlock: UVAHIK_clean_linker_0, # of connection points: 2
#     Edge 89, Type (0, 0), BuildingBlock: UVAHIK_clean_linker_0, # of connection points: 2
#     Edge 90, Type (0, 0), BuildingBlock: UVAHIK_clean_linker_0, # of connection points: 2
#     Edge 91, Type (0, 0), BuildingBlock: UVAHIK_clean_linker_0, # of connection points: 2
#     Edge 92, Type (0, 0), BuildingBlock: UVAHIK_clean_linker_0, # of connection points: 2
#     Edge 93, Type (0, 0), BuildingBlock: UVAHIK_clean_linker_0, # of connection points: 2
#     Edge 94, Type (0, 0), BuildingBlock: UVAHIK_clean_linker_0, # of connection points: 2
#     Edge 95, Type (0, 0), BuildingBlock: UVAHIK_clean_linker_0, # of connection points: 2
# Relax obj value: 0.113
# Max RMSD: 0.328
# Mean RMSD: 0.327
data_MOF--net-vba--node1-QUQFOY_clean_sbu_1--edge1-UVAHIK_clean_linker_0
_symmetry_space_group_name_H-M    P1
_symmetry_Int_Tables_number       1
_symmetry_cell_setting            triclinic
loop_
_symmetry_equiv_pos_as_xyz
'x, y, z'
_cell_length_a     19.852191
_cell_length_b     139.89105
_cell_length_c     73.066196
_cell_angle_alpha  89.992301
_cell_angle_beta   89.983407
_cell_angle_gamma 90.005323
loop_
_atom_site_label
_atom_site_type_symbol
_atom_site_fract_x
_atom_site_fract_y
_atom_site_fract_z
_atom_type_partial_charge
O0 O 0.31436 0.06483 0.97241 0.0
Cd1 Cd 0.34194 0.0648 0.99904 0.0
Cd2 Cd 0.21218 0.05892 1.00294 0.0
O3 O 0.23876 0.05348 0.9767 0.0
O4 O 0.43589 0.05906 1.00156 0.0
O5 O 0.34102 0.0516 0.00829 0.0
C6 C 0.40526 0.0513 0.00648 0.0
C7 C 0.17849 0.05055 0.02948 0.0
C8 C 0.27751 0.05822 0.96601 0.0
C9 C 0.24668 0.07919 0.01243 0.0
O10 O 0.2027 0.0735 0.0059 0.0
O11 O 0.30809 0.07657 0.01383 0.0
O12 O 0.13544 0.0523 0.01662 0.0
O13 O 0.23979 0.05309 0.02676 0.0
O14 O 0.92479 0.1906 0.97594 0.0
Cd15 Cd 0.91604 0.19106 1.00326 0.0
Cd16 Cd 0.04215 0.19606 1.00357 0.0
O17 O 0.00321 0.20169 0.97834 0.0
O18 O 0.82638 0.19674 0.01169 0.0
O19 O 0.92127 0.20492 0.00943 0.0
C20 C 0.85815 0.20479 0.01313 0.0
C21 C 0.05769 0.20325 0.03263 0.0
C22 C 0.9595 0.19721 0.96867 0.0
C23 C 0.0212 0.17634 0.01234 0.0
O24 O 0.06172 0.18181 1.00382 0.0
O25 O 0.96206 0.17931 0.0165 0.0
O26 O 0.10261 0.20433 0.01996 0.0
O27 O 0.00554 0.19823 0.02878 0.0
O28 O 0.32043 0.19908 0.27352 0.0
Cd29 Cd 0.33252 0.19535 0.24659 0.0
Cd30 Cd 0.19041 0.19893 0.24948 0.0
O31 O 0.2155 0.20439 0.27519 0.0
O32 O 0.42924 0.19923 0.2414 0.0
O33 O 0.3404 0.20629 0.22938 0.0
C34 C 0.40422 0.20628 0.23219 0.0
C35 C 0.15456 0.20739 0.22363 0.0
C36 C 0.27315 0.20304 0.28246 0.0
C37 C 0.23954 0.17869 0.24098 0.0
O38 O 0.19285 0.18431 0.24621 0.0
O39 O 0.29972 0.18174 0.23873 0.0
O40 O 0.11072 0.20454 0.23554 0.0
O41 O 0.21698 0.20595 0.22727 0.0
O42 O 0.99105 0.06431 0.28651 0.0
Cd43 Cd 0.94204 0.06593 0.26237 0.0
Cd44 Cd 0.06001 0.05924 0.24928 0.0
O45 O 0.0487 0.05227 0.27492 0.0
O46 O 0.84702 0.06062 0.26482 0.0
O47 O 0.9311 0.05335 0.25074 0.0
C48 C 0.87045 0.05305 0.25683 0.0
C49 C 0.07266 0.0519 0.22038 0.0
C50 C 0.02496 0.05673 0.28876 0.0
C51 C 0.03081 0.08026 0.2463 0.0
O52 O 0.07553 0.07386 0.24891 0.0
O53 O 0.96847 0.07817 0.24791 0.0
O54 O 0.12357 0.05273 0.2313 0.0
O55 O 0.01519 0.05486 0.22615 0.0
O56 O 0.68708 0.94767 0.02458 0.0
Cd57 Cd 0.6739 0.94379 0.99781 0.0
Cd58 Cd 0.81574 0.94771 0.9999 0.0
O59 O 0.79116 0.95335 0.02557 0.0
O60 O 0.57643 0.94744 0.99315 0.0
O61 O 0.66362 0.95469 0.98063 0.0
C62 C 0.60007 0.95456 0.98386 0.0
C63 C 0.84866 0.95605 0.97357 0.0
C64 C 0.73416 0.95188 0.03315 0.0
C65 C 0.7685 0.92733 0.99205 0.0
O66 O 0.81493 0.93306 0.99704 0.0
O67 O 0.70794 0.93025 0.98997 0.0
O68 O 0.89364 0.95346 0.98538 0.0
O69 O 0.78674 0.95441 0.97752 0.0
O70 O 0.05693 0.80815 0.0292 0.0
Cd71 Cd 0.06675 0.81216 1.00228 0.0
Cd72 Cd 0.92414 0.80814 0.00615 0.0
O73 O 0.95164 0.80307 0.0319 0.0
O74 O 0.16407 0.80877 0.9967 0.0
O75 O 0.07646 0.80144 0.98462 0.0
C76 C 0.14032 0.8017 0.9873 0.0
C77 C 0.89083 0.79913 0.9808 0.0
C78 C 0.01031 0.80431 0.0386 0.0
C79 C 0.96976 0.82845 0.99661 0.0
O80 O 0.92408 0.82269 1.00199 0.0
O81 O 0.03063 0.82564 0.99459 0.0
O82 O 0.84602 0.80195 0.99248 0.0
O83 O 0.95279 0.80091 0.98446 0.0
O84 O 0.70481 0.81369 0.72424 0.0
Cd85 Cd 0.6593 0.81598 0.74867 0.0
Cd86 Cd 0.78234 0.80918 0.76157 0.0
O87 O 0.77237 0.80257 0.73557 0.0
O88 O 0.56348 0.81073 0.74845 0.0
O89 O 0.65087 0.80381 0.76162 0.0
C90 C 0.5886 0.80345 0.75701 0.0
C91 C 0.79809 0.80136 0.78996 0.0
C92 C 0.74382 0.80661 0.72192 0.0
C93 C 0.75085 0.83031 0.76451 0.0
O94 O 0.79558 0.82384 0.76265 0.0
O95 O 0.68864 0.82834 0.76218 0.0
O96 O 0.84843 0.80266 0.77901 0.0
O97 O 0.73993 0.80418 0.78452 0.0
O98 O 0.07936 0.94191 0.72502 0.0
Cd99 Cd 0.08702 0.94221 0.75237 0.0
Cd100 Cd 0.9611 0.94716 0.75242 0.0
O101 O 0.00055 0.95294 0.72736 0.0
O102 O 0.17623 0.94786 0.76118 0.0
O103 O 0.08134 0.95604 0.75882 0.0
C104 C 0.14429 0.95589 0.76271 0.0
C105 C 0.94426 0.95402 0.78175 0.0
C106 C 0.04468 0.94851 0.71773 0.0
C107 C 0.98181 0.92741 0.76074 0.0
O108 O 0.94182 0.93292 0.75213 0.0
O109 O 0.04059 0.93038 0.76525 0.0
O110 O 0.89974 0.9552 0.76901 0.0
O111 O 0.99684 0.94911 0.77779 0.0
O112 O 0.34692 0.56612 0.48028 0.0
Cd113 Cd 0.35056 0.56653 0.50774 0.0
Cd114 Cd 0.22187 0.56172 0.5068 0.0
O115 O 0.26219 0.55592 0.4821 0.0
O116 O 0.4384 0.56089 0.51752 0.0
O117 O 0.34254 0.55295 0.51531 0.0
C118 C 0.40532 0.55297 0.5194 0.0
C119 C 0.1953 0.5545 0.53515 0.0
C120 C 0.31012 0.55978 0.47293 0.0
C121 C 0.24472 0.58155 0.51499 0.0
O122 O 0.20456 0.57598 0.50662 0.0
O123 O 0.30368 0.57866 0.51952 0.0
O124 O 0.15395 0.55383 0.52152 0.0
O125 O 0.25031 0.55912 0.53256 0.0
O126 O 0.96816 0.69445 0.47133 0.0
Cd127 Cd 0.92808 0.69336 0.49674 0.0
Cd128 Cd 0.05245 0.6996 0.50645 0.0
O129 O 0.03617 0.70601 0.48049 0.0
O130 O 0.83311 0.69888 0.49738 0.0
O131 O 0.92428 0.70617 0.5076 0.0
C132 C 0.86099 0.70648 0.50411 0.0
C133 C 0.07325 0.70733 0.53459 0.0
C134 C 0.0055 0.70156 0.46767 0.0
C135 C 0.01981 0.67894 0.51186 0.0
O136 O 0.0653 0.68498 0.50767 0.0
O137 O 0.95778 0.68134 0.51141 0.0
O138 O 0.12119 0.70625 0.52278 0.0
O139 O 0.01426 0.7044 0.53009 0.0
O140 O 0.29161 0.69415 0.78656 0.0
Cd141 Cd 0.32719 0.69277 0.76066 0.0
Cd142 Cd 0.19732 0.69893 0.75262 0.0
O143 O 0.21519 0.70495 0.77882 0.0
O144 O 0.4223 0.6982 0.75859 0.0
O145 O 0.32982 0.70531 0.7488 0.0
C146 C 0.39363 0.70562 0.75142 0.0
C147 C 0.17064 0.70723 0.72542 0.0
C148 C 0.25109 0.70078 0.79097 0.0
C149 C 0.23358 0.67821 0.7464 0.0
O150 O 0.188 0.68425 0.75054 0.0
O151 O 0.29564 0.6806 0.7468 0.0
O152 O 0.12405 0.70537 0.73726 0.0
O153 O 0.23098 0.70469 0.72935 0.0
O154 O 0.93761 0.56595 0.78201 0.0
Cd155 Cd 0.91147 0.56638 0.75531 0.0
Cd156 Cd 0.0415 0.56022 0.75137 0.0
O157 O 0.01327 0.55462 0.77738 0.0
O158 O 0.81685 0.56095 0.75158 0.0
O159 O 0.9115 0.55326 0.74575 0.0
C160 C 0.84704 0.55317 0.74662 0.0
C161 C 0.07147 0.55192 0.72441 0.0
C162 C 0.97433 0.55926 0.78818 0.0
C163 C 0.01048 0.58068 0.74294 0.0
O164 O 0.05353 0.57478 0.74925 0.0
O165 O 0.94882 0.57821 0.74119 0.0
O166 O 0.11574 0.55328 0.73713 0.0
O167 O 0.01147 0.55495 0.72733 0.0
O168 O 0.71084 0.4437 0.53964 0.0
Cd169 Cd 0.67111 0.4425 0.51416 0.0
Cd170 Cd 0.79611 0.44897 0.50485 0.0
O171 O 0.77992 0.45522 0.53089 0.0
O172 O 0.5766 0.44814 0.51366 0.0
O173 O 0.66774 0.45518 0.50276 0.0
C174 C 0.60477 0.45564 0.50665 0.0
C175 C 0.82295 0.45687 0.47727 0.0
C176 C 0.74848 0.45074 0.54353 0.0
C177 C 0.7629 0.42813 0.49933 0.0
O178 O 0.80772 0.43431 0.50332 0.0
O179 O 0.7006 0.43038 0.49983 0.0
O180 O 0.86895 0.4553 0.48942 0.0
O181 O 0.76235 0.45439 0.48118 0.0
O182 O 0.02139 0.31406 0.53587 0.0
Cd183 Cd 0.06602 0.31537 0.51103 0.0
Cd184 Cd 0.94385 0.3094 0.49982 0.0
O185 O 0.95563 0.30255 0.52549 0.0
O186 O 0.16001 0.30966 0.51222 0.0
O187 O 0.07194 0.30276 0.49926 0.0
C188 C 0.13355 0.30222 0.50451 0.0
C189 C 0.92247 0.30205 0.47134 0.0
C190 C 0.98399 0.30688 0.53882 0.0
C191 C 0.97922 0.3302 0.49607 0.0
O192 O 0.93308 0.3241 0.49934 0.0
O193 O 0.04105 0.32773 0.49688 0.0
O194 O 0.87429 0.30334 0.48299 0.0
O195 O 0.98219 0.30453 0.4762 0.0
O196 O 0.71197 0.31552 0.2182 0.0
Cd197 Cd 0.675 0.3162 0.24398 0.0
Cd198 Cd 0.80032 0.30976 0.25167 0.0
O199 O 0.77827 0.30352 0.22581 0.0
O200 O 0.57956 0.3108 0.24455 0.0
O201 O 0.67037 0.30321 0.25419 0.0
C202 C 0.60701 0.30306 0.25076 0.0
C203 C 0.82327 0.30191 0.27958 0.0
C204 C 0.74631 0.30826 0.21361 0.0
C205 C 0.76905 0.33045 0.25809 0.0
O206 O 0.81314 0.32439 0.25299 0.0
O207 O 0.70691 0.3281 0.25869 0.0
O208 O 0.87046 0.30305 0.26757 0.0
O209 O 0.76403 0.30488 0.27543 0.0
O210 O 0.02029 0.44522 0.22042 0.0
Cd211 Cd 0.06738 0.44362 0.24487 0.0
Cd212 Cd 0.94622 0.44945 0.25734 0.0
O213 O 0.95464 0.45648 0.2318 0.0
O214 O 0.16172 0.4491 0.24289 0.0
O215 O 0.07651 0.4561 0.25704 0.0
C216 C 0.13739 0.45654 0.25112 0.0
C217 C 0.92815 0.45679 0.28595 0.0
C218 C 0.98206 0.45237 0.21808 0.0
C219 C 0.98283 0.4286 0.26023 0.0
O220 O 0.93616 0.43472 0.25774 0.0
O221 O 0.04444 0.43109 0.25872 0.0
O222 O 0.8784 0.45534 0.27487 0.0
O223 O 0.98738 0.45443 0.28046 0.0
O224 O 0.81868 0.06628 0.47534 0.0
Cd225 Cd 0.81842 0.06587 0.50281 0.0
Cd226 Cd 0.69214 0.06101 0.4999 0.0
O227 O 0.73847 0.05539 0.47567 0.0
O228 O 0.90533 0.0603 0.51331 0.0
O229 O 0.81163 0.05204 0.50913 0.0
C230 C 0.87341 0.05224 0.51423 0.0
C231 C 0.66506 0.05374 0.52823 0.0
C232 C 0.78579 0.05978 0.46717 0.0
C233 C 0.71134 0.08065 0.50963 0.0
O234 O 0.67368 0.07529 0.49996 0.0
O235 O 0.76876 0.07759 0.51511 0.0
O236 O 0.62474 0.05288 0.51441 0.0
O237 O 0.71929 0.05856 0.52585 0.0
O238 O 0.39544 0.1966 0.48067 0.0
Cd239 Cd 0.38337 0.1934 0.50781 0.0
Cd240 Cd 0.52467 0.19811 0.50581 0.0
O241 O 0.49769 0.20292 0.47967 0.0
O242 O 0.28847 0.19774 0.51401 0.0
O243 O 0.38123 0.20459 0.52422 0.0
C244 C 0.31689 0.20476 0.52254 0.0
C245 C 0.56711 0.2073 0.53005 0.0
C246 C 0.44174 0.20091 0.47194 0.0
C247 C 0.4804 0.17766 0.51567 0.0
O248 O 0.52577 0.18356 0.51068 0.0
O249 O 0.41875 0.18021 0.51677 0.0
O250 O 0.60779 0.20398 0.51777 0.0
O251 O 0.50385 0.20593 0.52763 0.0
O252 O 0.78829 0.19423 0.78492 0.0
Cd253 Cd 0.83225 0.19223 0.76018 0.0
Cd254 Cd 0.71036 0.19896 0.74823 0.0
O255 O 0.72321 0.20573 0.77399 0.0
O256 O 0.92809 0.19748 0.76017 0.0
O257 O 0.83979 0.20468 0.74805 0.0
C258 C 0.90238 0.20495 0.75236 0.0
C259 C 0.69418 0.20638 0.71949 0.0
C260 C 0.75122 0.20149 0.78751 0.0
C261 C 0.73928 0.17794 0.74514 0.0
O262 O 0.69498 0.18438 0.74789 0.0
O263 O 0.80184 0.17997 0.74638 0.0
O264 O 0.64454 0.20552 0.73083 0.0
O265 O 0.75219 0.20339 0.72474 0.0
O266 O 0.46509 0.06425 0.78371 0.0
Cd267 Cd 0.42085 0.06588 0.7589 0.0
Cd268 Cd 0.54351 0.05946 0.74743 0.0
O269 O 0.53111 0.05275 0.77327 0.0
O270 O 0.32575 0.06044 0.7594 0.0
O271 O 0.41406 0.05336 0.74699 0.0
C272 C 0.35181 0.05298 0.75166 0.0
C273 C 0.56271 0.05192 0.71897 0.0
C274 C 0.50249 0.05705 0.78661 0.0
C275 C 0.51076 0.08041 0.74382 0.0
O276 O 0.55601 0.07414 0.74681 0.0
O277 O 0.44855 0.07816 0.74487 0.0
O278 O 0.61178 0.05323 0.73033 0.0
O279 O 0.5036 0.05454 0.72405 0.0
O280 O 0.20695 0.94459 0.5335 0.0
Cd281 Cd 0.15793 0.94274 0.50943 0.0
Cd282 Cd 0.27666 0.94965 0.49582 0.0
O283 O 0.26782 0.95633 0.5218 0.0
O284 O 0.0626 0.94801 0.51126 0.0
O285 O 0.14772 0.95521 0.4975 0.0
C286 C 0.08652 0.95551 0.50313 0.0
C287 C 0.2896 0.95728 0.46718 0.0
C288 C 0.24318 0.95197 0.53566 0.0
C289 C 0.24699 0.92857 0.49269 0.0
O290 O 0.29169 0.93502 0.49478 0.0
O291 O 0.18481 0.93054 0.49506 0.0
O292 O 0.34056 0.95625 0.47801 0.0
O293 O 0.23196 0.95438 0.47292 0.0
O294 O 0.5753 0.81713 0.5327 0.0
Cd295 Cd 0.58254 0.8168 0.50529 0.0
Cd296 Cd 0.45533 0.81193 0.50604 0.0
O297 O 0.4957 0.80618 0.5309 0.0
O298 O 0.67196 0.81119 0.49653 0.0
O299 O 0.57698 0.80303 0.49869 0.0
C300 C 0.64003 0.80316 0.49491 0.0
C301 C 0.43221 0.80471 0.47745 0.0
C302 C 0.54071 0.8106 0.54024 0.0
C303 C 0.47823 0.83163 0.49685 0.0
O304 O 0.43851 0.82625 0.50584 0.0
O305 O 0.53656 0.82857 0.49218 0.0
O306 O 0.38886 0.80411 0.49063 0.0
O307 O 0.48716 0.80924 0.48059 0.0
O308 O 0.17217 0.81672 0.23156 0.0
Cd309 Cd 0.16384 0.81699 0.25898 0.0
Cd310 Cd 0.29293 0.8123 0.25876 0.0
O311 O 0.25518 0.8063 0.23399 0.0
O312 O 0.07342 0.81134 0.26679 0.0
O313 O 0.16962 0.80341 0.26675 0.0
C314 C 0.10563 0.80338 0.26915 0.0
C315 C 0.32026 0.80502 0.28697 0.0
C316 C 0.20845 0.81022 0.22451 0.0
C317 C 0.26636 0.83216 0.26718 0.0
O318 O 0.30742 0.82668 0.2589 0.0
O319 O 0.20751 0.82913 0.27148 0.0
O320 O 0.36285 0.80484 0.27356 0.0
O321 O 0.26343 0.80914 0.28419 0.0
O322 O 0.58987 0.94777 0.23113 0.0
Cd323 Cd 0.59711 0.94492 0.25858 0.0
Cd324 Cd 0.45625 0.94966 0.25433 0.0
O325 O 0.48818 0.95412 0.22838 0.0
O326 O 0.6917 0.94913 0.26566 0.0
O327 O 0.59853 0.95635 0.27452 0.0
C328 C 0.66306 0.95632 0.27359 0.0
C329 C 0.41231 0.95912 0.27798 0.0
C330 C 0.5454 0.95197 0.22153 0.0
C331 C 0.49741 0.92935 0.26583 0.0
O332 O 0.4535 0.93519 0.25976 0.0
O333 O 0.55883 0.93189 0.2678 0.0
O334 O 0.37248 0.95581 0.2655 0.0
O335 O 0.47563 0.95762 0.27601 0.0
O336 O 0.78741 0.56474 0.97082 0.0
Cd337 Cd 0.8313 0.56613 0.99572 0.0
Cd338 Cd 0.70964 0.55943 0.00692 0.0
O339 O 0.72378 0.55291 0.98096 0.0
O340 O 0.92648 0.56066 0.99521 0.0
O341 O 0.83761 0.55342 0.00696 0.0
C342 C 0.90002 0.55308 1.00245 0.0
C343 C 0.69177 0.55174 0.0353 0.0
C344 C 0.75143 0.55743 0.96772 0.0
C345 C 0.73942 0.58033 0.01135 0.0
O346 O 0.6948 0.57403 0.00793 0.0
O347 O 0.80188 0.57821 0.01028 0.0
O348 O 0.64291 0.55269 0.02374 0.0
O349 O 0.75015 0.55478 0.03043 0.0
O350 O 0.45761 0.69254 0.9734 0.0
Cd351 Cd 0.42148 0.69221 0.99925 0.0
Cd352 Cd 0.54676 0.69836 0.00657 0.0
O353 O 0.52503 0.7045 0.98053 0.0
O354 O 0.32609 0.69763 0.99989 0.0
O355 O 0.4174 0.70537 0.00873 0.0
C356 C 0.35382 0.70546 0.00561 0.0
C357 C 0.56757 0.70618 0.03466 0.0
C358 C 0.49263 0.69969 0.96852 0.0
C359 C 0.51488 0.67784 0.01335 0.0
O360 O 0.55937 0.68375 0.00788 0.0
O361 O 0.45315 0.68038 0.01427 0.0
O362 O 0.61543 0.70519 0.02279 0.0
O363 O 0.50893 0.70306 0.03029 0.0
O364 O 0.79387 0.69284 0.28355 0.0
Cd365 Cd 0.81396 0.6935 0.25656 0.0
Cd366 Cd 0.68744 0.69858 0.25434 0.0
O367 O 0.71984 0.70441 0.27989 0.0
O368 O 0.90676 0.69936 0.25201 0.0
O369 O 0.81065 0.70721 0.24967 0.0
C370 C 0.87523 0.70734 0.24926 0.0
C371 C 0.66422 0.70604 0.22602 0.0
C372 C 0.7593 0.69961 0.29028 0.0
C373 C 0.71593 0.67872 0.24532 0.0
O374 O 0.67366 0.68411 0.25341 0.0
O375 O 0.77529 0.68182 0.24188 0.0
O376 O 0.61922 0.70594 0.23884 0.0
O377 O 0.72151 0.7022 0.22952 0.0
O378 O 0.43726 0.55942 0.2757 0.0
Cd379 Cd 0.42259 0.56358 0.24901 0.0
Cd380 Cd 0.56635 0.55992 0.25119 0.0
O381 O 0.54438 0.55505 0.27747 0.0
O382 O 0.32517 0.55992 0.24438 0.0
O383 O 0.41206 0.55305 0.23097 0.0
C384 C 0.34859 0.55308 0.23433 0.0
C385 C 0.5978 0.55061 0.22605 0.0
C386 C 0.48623 0.55593 0.2847 0.0
C387 C 0.51578 0.58012 0.24204 0.0
O388 O 0.56332 0.57443 0.24641 0.0
O389 O 0.45478 0.57721 0.24128 0.0
O390 O 0.64369 0.55393 0.23689 0.0
O391 O 0.53602 0.55209 0.2304 0.0
O392 O 0.16489 0.44215 0.03003 0.0
Cd393 Cd 0.16376 0.44237 1.00258 0.0
Cd394 Cd 0.28969 0.44742 0.0046 0.0
O395 O 0.24478 0.45308 0.02899 0.0
O396 O 0.07677 0.44803 0.99222 0.0
O397 O 0.17097 0.45619 0.99618 0.0
C398 C 0.10903 0.45606 0.99123 0.0
C399 C 0.31359 0.45463 0.97601 0.0
C400 C 0.19821 0.44872 0.03785 0.0
C401 C 0.27167 0.42766 0.99572 0.0
O402 O 0.30987 0.43321 0.00483 0.0
O403 O 0.21338 0.43054 0.99055 0.0
O404 O 0.35438 0.45575 0.98965 0.0
O405 O 0.26071 0.44955 0.97867 0.0
O406 O 0.53931 0.31408 0.03426 0.0
Cd407 Cd 0.58003 0.31513 0.0089 0.0
Cd408 Cd 0.45495 0.30934 0.99903 0.0
O409 O 0.46918 0.30282 0.02497 0.0
O410 O 0.67394 0.3093 0.00859 0.0
O411 O 0.58242 0.3024 0.99761 0.0
C412 C 0.64531 0.30184 1.00155 0.0
C413 C 0.43039 0.30168 0.97106 0.0
C414 C 0.50057 0.30711 0.03785 0.0
C415 C 0.49209 0.32999 0.99398 0.0
O416 O 0.44551 0.32404 0.99779 0.0
O417 O 0.55371 0.3274 0.9946 0.0
O418 O 0.38336 0.30318 0.98296 0.0
O419 O 0.49066 0.30412 0.9754 0.0
O420 O 0.18183 0.31657 0.7258 0.0
Cd421 Cd 0.1738 0.31574 0.75317 0.0
Cd422 Cd 0.30167 0.31116 0.75216 0.0
O423 O 0.26167 0.30565 0.72708 0.0
O424 O 0.08414 0.30992 0.76121 0.0
O425 O 0.17961 0.30188 0.75913 0.0
C426 C 0.11629 0.3019 0.76258 0.0
C427 C 0.32531 0.30349 0.78026 0.0
C428 C 0.21666 0.31017 0.71795 0.0
C429 C 0.27603 0.33067 0.76261 0.0
O430 O 0.3165 0.32554 0.75333 0.0
O431 O 0.21801 0.32739 0.76703 0.0
O432 O 0.369 0.30325 0.76712 0.0
O433 O 0.26982 0.30792 0.77733 0.0
O434 O 0.55927 0.4427 0.72858 0.0
Cd435 Cd 0.59076 0.44225 0.75489 0.0
Cd436 Cd 0.46002 0.44844 0.76049 0.0
O437 O 0.48275 0.45384 0.73398 0.0
O438 O 0.68505 0.44796 0.75717 0.0
O439 O 0.59068 0.45521 0.76505 0.0
C440 C 0.65474 0.45558 0.76293 0.0
C441 C 0.4288 0.45717 0.78684 0.0
C442 C 0.52048 0.44925 0.7228 0.0
C443 C 0.49596 0.42793 0.76905 0.0
O444 O 0.45114 0.43383 0.76372 0.0
O445 O 0.55795 0.43036 0.76941 0.0
O446 O 0.38417 0.45506 0.7746 0.0
O447 O 0.48989 0.45468 0.7837 0.0
C448 C 0.09156 0.04668 0.05349 0.0
C449 C 0.15894 0.04671 0.04763 0.0
C450 C 0.0758 0.04479 0.07187 0.0
C451 C 0.14989 0.03633 0.11635 0.0
H452 H 0.02198 0.05416 0.13731 0.0
C453 C 0.14291 0.04682 0.19334 0.0
C454 C 0.07944 0.04839 0.20131 0.0
C455 C 0.14839 0.04474 0.17461 0.0
C456 C 0.05713 0.04902 0.13168 0.0
H457 H 0.26208 0.04411 0.05613 0.0
H458 H 0.23503 0.041 0.08788 0.0
H459 H 0.03659 0.05355 0.10431 0.0
H460 H 0.97177 0.04845 0.19608 0.0
H461 H 0.98145 0.04483 0.16364 0.0
H462 H 0.17218 0.03212 0.14394 0.0
C463 C 0.19396 0.04234 0.07847 0.0
C464 C 0.06531 0.04863 0.11269 0.0
C465 C 0.20959 0.0442 0.0602 0.0
C466 C 0.02157 0.04738 0.19037 0.0
C467 C 0.02703 0.04534 0.17172 0.0
C468 C 0.14205 0.03678 0.13539 0.0
C469 C 0.12712 0.04289 0.08472 0.0
C470 C 0.11256 0.04239 0.10475 0.0
C471 C 0.0905 0.04423 0.16351 0.0
C472 C 0.09616 0.04322 0.14328 0.0
H473 H 0.05141 0.04858 0.04414 0.0
H474 H 0.02359 0.0451 0.07612 0.0
H475 H 0.18598 0.03132 0.11075 0.0
H476 H 0.18843 0.04755 0.20138 0.0
H477 H 0.19808 0.04397 0.16867 0.0
C478 C 0.06923 0.21031 0.19878 0.0
C479 C 0.13551 0.21107 0.20532 0.0
C480 C 0.05507 0.21192 0.18023 0.0
C481 C 0.12995 0.22066 0.136 0.0
H482 H 0.0136 0.20128 0.11516 0.0
C483 C 0.12745 0.20964 0.05883 0.0
C484 C 0.06455 0.20722 0.05134 0.0
C485 C 0.13298 0.21196 0.07748 0.0
C486 C 0.04552 0.20684 0.12074 0.0
H487 H 0.23794 0.21485 0.1978 0.0
H488 H 0.2137 0.21745 0.16571 0.0
H489 H 0.02568 0.20234 0.14812 0.0
H490 H 0.95759 0.20607 0.05714 0.0
H491 H 0.9672 0.21019 0.08929 0.0
H492 H 0.15144 0.22488 0.10833 0.0
C493 C 0.17225 0.21571 0.17474 0.0
C494 C 0.05219 0.20749 0.13972 0.0
C495 C 0.18627 0.21414 0.19322 0.0
C496 C 0.00704 0.20774 0.06254 0.0
C497 C 0.0125 0.21007 0.08101 0.0
C498 C 0.12358 0.21997 0.11693 0.0
C499 C 0.10695 0.21429 0.16783 0.0
C500 C 0.09492 0.21435 0.14765 0.0
C501 C 0.07567 0.21191 0.08888 0.0
C502 C 0.08153 0.21301 0.10909 0.0
H503 H 0.02897 0.20799 0.20775 0.0
H504 H 0.00383 0.21098 0.17549 0.0
H505 H 0.16275 0.22611 0.1416 0.0
H506 H 0.1726 0.20929 0.05053 0.0
H507 H 0.18244 0.21333 0.08316 0.0
C508 C 0.87303 0.95982 0.80817 0.0
C509 C 0.93643 0.95771 0.80064 0.0
C510 C 0.86676 0.96183 0.82695 0.0
C511 C 0.95472 0.95641 0.87008 0.0
H512 H 0.83347 0.97491 0.89179 0.0
C513 C 0.93219 0.95925 0.94835 0.0
C514 C 0.86603 0.95971 0.9551 0.0
C515 C 0.94526 0.96095 0.92976 0.0
C516 C 0.86739 0.96967 0.88595 0.0
H517 H 0.04339 0.95678 0.80654 0.0
H518 H 0.03256 0.96039 0.83888 0.0
H519 H 0.845 0.97413 0.85848 0.0
H520 H 0.76249 0.96299 0.94789 0.0
H521 H 0.78495 0.96577 0.91573 0.0
H522 H 0.97568 0.95169 0.89728 0.0
C523 C 0.98743 0.96026 0.83055 0.0
C524 C 0.87388 0.96923 0.86685 0.0
C525 C 0.99361 0.95823 0.81195 0.0
C526 C 0.81411 0.96253 0.94315 0.0
C527 C 0.82708 0.96419 0.92463 0.0
C528 C 0.94798 0.95681 0.88909 0.0
C529 C 0.92384 0.96177 0.83843 0.0
C530 C 0.91747 0.96256 0.8587 0.0
C531 C 0.89244 0.96312 0.91754 0.0
C532 C 0.90389 0.96339 0.89733 0.0
H533 H 0.82811 0.95946 0.79979 0.0
H534 H 0.81699 0.96296 0.83262 0.0
H535 H 0.98782 0.95106 0.86427 0.0
H536 H 0.97331 0.95712 0.95719 0.0
H537 H 0.99652 0.96026 0.92487 0.0
C538 C 0.74778 0.79584 0.81938 0.0
C539 C 0.80571 0.79751 0.80874 0.0
C540 C 0.75307 0.79362 0.83793 0.0
C541 C 0.86681 0.78553 0.87461 0.0
H542 H 0.75708 0.80199 0.9052 0.0
C543 C 0.925 0.79237 0.95063 0.0
C544 C 0.87312 0.79512 0.96265 0.0
C545 C 0.91157 0.79052 0.93223 0.0
C546 C 0.78695 0.79714 0.89698 0.0
H547 H 0.91485 0.79759 0.80906 0.0
H548 H 0.92417 0.79363 0.84168 0.0
H549 H 0.74544 0.80271 0.87216 0.0
H550 H 0.76547 0.79728 0.96508 0.0
H551 H 0.74136 0.79372 0.93297 0.0
H552 H 0.90847 0.77996 0.89944 0.0
C553 C 0.87463 0.79406 0.83553 0.0
C554 C 0.78054 0.79761 0.87797 0.0
C555 C 0.86933 0.79634 0.81688 0.0
C556 C 0.80658 0.79523 0.95615 0.0
C557 C 0.79298 0.7933 0.93768 0.0
C558 C 0.87269 0.78497 0.89369 0.0
C559 C 0.8164 0.79297 0.84635 0.0
C560 C 0.82104 0.79192 0.86655 0.0
C561 C 0.8457 0.79128 0.92532 0.0
C562 C 0.83368 0.7909 0.90515 0.0
H563 H 0.6979 0.79656 0.81352 0.0
H564 H 0.70737 0.79265 0.84582 0.0
H565 H 0.89813 0.78098 0.86616 0.0
H566 H 0.97693 0.79216 0.95517 0.0
H567 H 0.95372 0.78908 0.92324 0.0
C568 C 0.11582 0.54778 0.55885 0.0
C569 C 0.18094 0.55055 0.55357 0.0
C570 C 0.10253 0.54524 0.5771 0.0
C571 C 0.18644 0.53939 0.62175 0.0
H572 H 0.02715 0.55112 0.64257 0.0
C573 C 0.15327 0.54844 0.69894 0.0
C574 C 0.08797 0.54786 0.70625 0.0
C575 C 0.16448 0.54648 0.68034 0.0
C576 C 0.07134 0.54764 0.63697 0.0
H577 H 0.28395 0.55229 0.56299 0.0
H578 H 0.2608 0.54807 0.59448 0.0
H579 H 0.04477 0.55166 0.60969 0.0
H580 H 0.98449 0.54396 0.70029 0.0
H581 H 0.00423 0.54042 0.66816 0.0
H582 H 0.21406 0.53573 0.64927 0.0
C583 C 0.21982 0.54774 0.58472 0.0
C584 C 0.08134 0.54793 0.61805 0.0
C585 C 0.23298 0.55026 0.56662 0.0
C586 C 0.0353 0.54459 0.695 0.0
C587 C 0.04647 0.54262 0.67655 0.0
C588 C 0.17659 0.53916 0.64073 0.0
C589 C 0.15421 0.5454 0.59035 0.0
C590 C 0.13958 0.54396 0.61019 0.0
C591 C 0.11057 0.54389 0.6688 0.0
C592 C 0.11933 0.5434 0.64858 0.0
H593 H 0.07476 0.5479 0.5491 0.0
H594 H 0.05152 0.54335 0.5809 0.0
H595 H 0.2314 0.53612 0.61616 0.0
H596 H 0.19472 0.55099 0.70725 0.0
H597 H 0.21449 0.54755 0.67478 0.0
C598 C 0.15021 0.71295 0.5598 0.0
C599 C 0.08502 0.71104 0.55332 0.0
C600 C 0.16077 0.71514 0.57831 0.0
C601 C 0.07078 0.7211 0.62212 0.0
H602 H 0.22248 0.70798 0.64406 0.0
C603 C 0.09222 0.71087 0.69924 0.0
C604 C 0.15668 0.71132 0.70712 0.0
C605 C 0.08329 0.71301 0.68062 0.0
C606 C 0.18038 0.71182 0.63815 0.0
H607 H 0.9794 0.71044 0.56099 0.0
H608 H 0.99783 0.71396 0.59301 0.0
H609 H 0.20948 0.70791 0.61104 0.0
H610 H 0.26105 0.71516 0.70214 0.0
H611 H 0.24529 0.71892 0.66996 0.0
H612 H 0.04043 0.72461 0.64952 0.0
C613 C 0.04096 0.71394 0.58394 0.0
C614 C 0.17306 0.71182 0.61914 0.0
C615 C 0.03044 0.71183 0.56551 0.0
C616 C 0.21084 0.71461 0.69643 0.0
C617 C 0.20196 0.71673 0.67794 0.0
C618 C 0.0778 0.72102 0.6412 0.0
C619 C 0.10638 0.7154 0.59073 0.0
C620 C 0.11772 0.71635 0.61084 0.0
C621 C 0.13869 0.71562 0.66966 0.0
C622 C 0.13241 0.7163 0.64942 0.0
H623 H 0.19326 0.71245 0.55075 0.0
H624 H 0.21178 0.7164 0.58297 0.0
H625 H 0.02806 0.7248 0.61623 0.0
H626 H 0.04961 0.70834 0.70713 0.0
H627 H 0.03388 0.71208 0.6746 0.0
C628 C 0.97497 0.46219 0.31592 0.0
C629 C 0.91841 0.46028 0.30491 0.0
C630 C 0.96762 0.46412 0.33455 0.0
C631 C 0.84602 0.47062 0.37089 0.0
H632 H 0.96378 0.45543 0.40168 0.0
C633 C 0.78585 0.46213 0.44623 0.0
C634 C 0.8386 0.46054 0.45871 0.0
C635 C 0.79932 0.46409 0.42786 0.0
C636 C 0.93141 0.45991 0.39339 0.0
H637 H 0.80942 0.45945 0.30468 0.0
H638 H 0.79648 0.46282 0.33738 0.0
H639 H 0.97897 0.45524 0.3687 0.0
H640 H 0.94708 0.46039 0.4619 0.0
H641 H 0.97089 0.46405 0.4298 0.0
H642 H 0.79792 0.4752 0.39561 0.0
C643 C 0.84657 0.46284 0.3315 0.0
C644 C 0.93998 0.45977 0.37441 0.0
C645 C 0.85394 0.46089 0.31278 0.0
C646 C 0.90534 0.46154 0.45262 0.0
C647 C 0.9189 0.46354 0.43417 0.0
C648 C 0.83772 0.47082 0.38992 0.0
C649 C 0.90353 0.46421 0.34268 0.0
C650 C 0.89681 0.465 0.36291 0.0
C651 C 0.86599 0.46458 0.42145 0.0
C652 C 0.87959 0.46533 0.40141 0.0
H653 H 0.02539 0.46188 0.31027 0.0
H654 H 0.01239 0.46532 0.3427 0.0
H655 H 0.8125 0.47482 0.36241 0.0
H656 H 0.73375 0.46145 0.45045 0.0
H657 H 0.75719 0.46473 0.41853 0.0
C658 C 0.78068 0.2956 0.30928 0.0
C659 C 0.83583 0.29813 0.29821 0.0
C660 C 0.78939 0.29371 0.32787 0.0
C661 C 0.91394 0.28879 0.36438 0.0
H662 H 0.78735 0.30283 0.3946 0.0
C663 C 0.96462 0.29771 0.44022 0.0
C664 C 0.91018 0.29863 0.45242 0.0
C665 C 0.95368 0.29579 0.4217 0.0
C666 C 0.82234 0.29868 0.38648 0.0
H667 H 0.94408 0.30005 0.29773 0.0
H668 H 0.95947 0.29676 0.33043 0.0
H669 H 0.7734 0.30271 0.3616 0.0
H670 H 0.80163 0.29771 0.4549 0.0
H671 H 0.78239 0.29412 0.42256 0.0
H672 H 0.9633 0.28484 0.38933 0.0
C673 C 0.90943 0.29622 0.32462 0.0
C674 C 0.81446 0.29864 0.36748 0.0
C675 C 0.90069 0.2981 0.3059 0.0
C676 C 0.84461 0.29709 0.44584 0.0
C677 C 0.83364 0.29511 0.42727 0.0
C678 C 0.9216 0.28877 0.38345 0.0
C679 C 0.85346 0.29432 0.33592 0.0
C680 C 0.86051 0.29379 0.35618 0.0
C681 C 0.88798 0.29468 0.41487 0.0
C682 C 0.87639 0.29383 0.39474 0.0
H683 H 0.73009 0.29544 0.30373 0.0
H684 H 0.74547 0.29206 0.33609 0.0
H685 H 0.94984 0.2849 0.35606 0.0
H686 H 0.0159 0.29883 0.4448 0.0
H687 H 0.99679 0.29562 0.41263 0.0
C688 C 0.58481 0.04744 0.55217 0.0
C689 C 0.65048 0.04978 0.54662 0.0
C690 C 0.57164 0.04507 0.57051 0.0
C691 C 0.65557 0.03873 0.61483 0.0
H692 H 0.5048 0.05222 0.6364 0.0
C693 C 0.63717 0.04816 0.69201 0.0
C694 C 0.57299 0.04831 0.7001 0.0
C695 C 0.64431 0.04623 0.67327 0.0
C696 C 0.5465 0.04825 0.63061 0.0
H697 H 0.75438 0.0509 0.55563 0.0
H698 H 0.7316 0.04687 0.58724 0.0
H699 H 0.51938 0.05232 0.60337 0.0
H700 H 0.46656 0.04585 0.69519 0.0
H701 H 0.47917 0.04236 0.66277 0.0
H702 H 0.68388 0.03496 0.64222 0.0
C703 C 0.69006 0.04678 0.57764 0.0
C704 C 0.55474 0.04829 0.6116 0.0
C705 C 0.70304 0.04919 0.55947 0.0
C706 C 0.51672 0.04591 0.68934 0.0
C707 C 0.52384 0.04396 0.6707 0.0
C708 C 0.64744 0.03872 0.63387 0.0
C709 C 0.62404 0.04492 0.58355 0.0
C710 C 0.61013 0.04369 0.60347 0.0
C711 C 0.5874 0.04438 0.6623 0.0
C712 C 0.59341 0.04362 0.64201 0.0
H713 H 0.54333 0.04784 0.54257 0.0
H714 H 0.52026 0.04356 0.57457 0.0
H715 H 0.69827 0.03498 0.60902 0.0
H716 H 0.68144 0.05 0.69992 0.0
H717 H 0.69402 0.04666 0.66722 0.0
C718 C 0.54304 0.21485 0.56025 0.0
C719 C 0.59072 0.2114 0.54763 0.0
C720 C 0.56123 0.21676 0.57833 0.0
C721 C 0.68878 0.20915 0.61201 0.0
H722 H 0.59279 0.22678 0.64363 0.0
C723 C 0.74233 0.21076 0.68908 0.0
C724 C 0.68556 0.20993 0.7005 0.0
C725 C 0.7351 0.21278 0.67048 0.0
C726 C 0.61988 0.22182 0.63495 0.0
H727 H 0.69624 0.20804 0.54372 0.0
H728 H 0.72881 0.2117 0.57523 0.0
H729 H 0.57678 0.22761 0.6105 0.0
H730 H 0.57678 0.2111 0.7015 0.0
H731 H 0.5641 0.21471 0.66883 0.0
H732 H 0.73171 0.20336 0.63646 0.0
C733 C 0.67668 0.21264 0.57127 0.0
C734 C 0.61074 0.22227 0.61596 0.0
C735 C 0.65828 0.21065 0.55313 0.0
C736 C 0.62146 0.21169 0.69307 0.0
C737 C 0.61425 0.21377 0.67438 0.0
C738 C 0.69849 0.20878 0.63094 0.0
C739 C 0.62782 0.21536 0.58429 0.0
C740 C 0.64409 0.21581 0.60424 0.0
C741 C 0.67096 0.21407 0.66281 0.0
C742 C 0.66339 0.215 0.64265 0.0
H743 H 0.4905 0.21556 0.55647 0.0
H744 H 0.52188 0.21876 0.58784 0.0
H745 H 0.7143 0.20391 0.60359 0.0
H746 H 0.7926 0.20954 0.69436 0.0
H747 H 0.77979 0.21311 0.66199 0.0
C748 C 0.23894 0.9616 0.43701 0.0
C749 C 0.29645 0.96093 0.44819 0.0
C750 C 0.24483 0.96375 0.41842 0.0
C751 C 0.35677 0.97347 0.38272 0.0
H752 H 0.26485 0.9554 0.35118 0.0
C753 C 0.43449 0.96696 0.30799 0.0
C754 C 0.3876 0.96331 0.29536 0.0
C755 C 0.41577 0.96884 0.32604 0.0
C756 C 0.28959 0.96068 0.35966 0.0
H757 H 0.40504 0.96249 0.44876 0.0
H758 H 0.41532 0.96633 0.41614 0.0
H759 H 0.24829 0.95461 0.38407 0.0
H760 H 0.28273 0.95959 0.2914 0.0
H761 H 0.24916 0.96318 0.32286 0.0
H762 H 0.3983 0.97955 0.35831 0.0
C763 C 0.36565 0.96518 0.42186 0.0
C764 C 0.28038 0.96018 0.37859 0.0
C765 C 0.35981 0.96296 0.44053 0.0
C766 C 0.32009 0.96236 0.3008 0.0
C767 C 0.30113 0.96431 0.31892 0.0
C768 C 0.36538 0.97406 0.36372 0.0
C769 C 0.3083 0.96534 0.41053 0.0
C770 C 0.31475 0.96645 0.39036 0.0
C771 C 0.34939 0.9672 0.33197 0.0
C772 C 0.33302 0.96754 0.35193 0.0
H773 H 0.18921 0.96017 0.44246 0.0
H774 H 0.19967 0.96397 0.41011 0.0
H775 H 0.38323 0.97848 0.39145 0.0
H776 H 0.48695 0.96784 0.30425 0.0
H777 H 0.45468 0.97098 0.33557 0.0
C778 C 0.3553 0.79987 0.4516 0.0
C779 C 0.4204 0.80083 0.45888 0.0
C780 C 0.34645 0.79788 0.4329 0.0
C781 C 0.43829 0.80121 0.38942 0.0
H782 H 0.29278 0.7864 0.36837 0.0
C783 C 0.40186 0.79955 0.31124 0.0
C784 C 0.33548 0.80121 0.30543 0.0
C785 C 0.41527 0.79739 0.32964 0.0
C786 C 0.33367 0.79058 0.37405 0.0
H787 H 0.527 0.7997 0.45272 0.0
H788 H 0.51165 0.79597 0.42056 0.0
H789 H 0.30854 0.78657 0.40157 0.0
H790 H 0.23081 0.80126 0.31405 0.0
H791 H 0.25408 0.79762 0.34585 0.0
H792 H 0.46239 0.80548 0.36211 0.0
C793 C 0.46736 0.79704 0.42897 0.0
C794 C 0.34256 0.79069 0.39308 0.0
C795 C 0.47612 0.79911 0.44747 0.0
C796 C 0.28267 0.8001 0.3181 0.0
C797 C 0.29597 0.79792 0.33637 0.0
C798 C 0.42938 0.80112 0.37047 0.0
C799 C 0.40261 0.79675 0.42126 0.0
C800 C 0.39462 0.79609 0.40101 0.0
C801 C 0.36251 0.7968 0.34253 0.0
C802 C 0.37643 0.79591 0.36252 0.0
H803 H 0.31148 0.80119 0.46006 0.0
H804 H 0.29582 0.79773 0.42741 0.0
H805 H 0.47815 0.80561 0.39503 0.0
H806 H 0.44354 0.80034 0.30179 0.0
H807 H 0.4671 0.79643 0.33388 0.0
C808 C 0.73648 0.54779 0.06631 0.0
C809 C 0.68167 0.54805 0.05413 0.0
C810 C 0.72705 0.54553 0.08473 0.0
C811 C 0.59419 0.54582 0.12012 0.0
H812 H 0.73456 0.53442 0.14994 0.0
C813 C 0.56118 0.5423 0.19757 0.0
C814 C 0.61352 0.54636 0.20798 0.0
C815 C 0.57041 0.54024 0.17906 0.0
C816 C 0.69496 0.53761 0.14177 0.0
H817 H 0.57437 0.54557 0.05158 0.0
H818 H 0.55793 0.54133 0.08375 0.0
H819 H 0.74634 0.53466 0.11665 0.0
H820 H 0.71822 0.55072 0.20743 0.0
H821 H 0.73458 0.54704 0.17495 0.0
H822 H 0.54306 0.54881 0.14524 0.0
C823 C 0.60815 0.54314 0.07912 0.0
C824 C 0.70168 0.53778 0.12269 0.0
C825 C 0.61756 0.54549 0.06063 0.0
C826 C 0.67701 0.54758 0.1998 0.0
C827 C 0.68632 0.54548 0.18119 0.0
C828 C 0.58717 0.54555 0.13914 0.0
C829 C 0.66258 0.54335 0.09152 0.0
C830 C 0.65198 0.54207 0.11161 0.0
C831 C 0.63225 0.54215 0.17048 0.0
C832 C 0.63793 0.54159 0.15021 0.0
H833 H 0.78668 0.54971 0.0618 0.0
H834 H 0.77013 0.54592 0.09379 0.0
H835 H 0.55543 0.54935 0.11219 0.0
H836 H 0.51177 0.54117 0.20349 0.0
H837 H 0.52821 0.5375 0.17126 0.0
C838 C 0.58534 0.71158 0.20113 0.0
C839 C 0.651 0.70975 0.20736 0.0
C840 C 0.57365 0.71368 0.18261 0.0
C841 C 0.66061 0.71995 0.13858 0.0
H842 H 0.51249 0.70595 0.11684 0.0
C843 C 0.64311 0.7102 0.06127 0.0
C844 C 0.5787 0.71 0.05333 0.0
C845 C 0.65067 0.7122 0.07999 0.0
C846 C 0.5535 0.71004 0.12268 0.0
H847 H 0.75623 0.7093 0.1993 0.0
H848 H 0.73593 0.71279 0.16732 0.0
H849 H 0.5258 0.70603 0.14988 0.0
H850 H 0.4724 0.71248 0.0584 0.0
H851 H 0.48572 0.71608 0.09074 0.0
H852 H 0.68947 0.72365 0.11117 0.0
C853 C 0.69327 0.7127 0.17656 0.0
C854 C 0.561 0.71012 0.14169 0.0
C855 C 0.70486 0.7106 0.19495 0.0
C856 C 0.52271 0.71245 0.06415 0.0
C857 C 0.53023 0.71446 0.08274 0.0
C858 C 0.65328 0.71983 0.11951 0.0
C859 C 0.62742 0.71403 0.17 0.0
C860 C 0.6152 0.71495 0.14992 0.0
C861 C 0.59394 0.71405 0.09104 0.0
C862 C 0.60003 0.71478 0.11132 0.0
H863 H 0.54283 0.71099 0.21035 0.0
H864 H 0.52232 0.71482 0.1781 0.0
H865 H 0.70242 0.72387 0.14443 0.0
H866 H 0.68715 0.70832 0.0533 0.0
H867 H 0.70048 0.7118 0.08598 0.0
C868 C 0.34718 0.46035 0.81246 0.0
C869 C 0.41172 0.46137 0.80484 0.0
C870 C 0.33623 0.46243 0.83102 0.0
C871 C 0.43205 0.46241 0.87395 0.0
H872 H 0.26819 0.47262 0.89509 0.0
C873 C 0.38977 0.46198 0.95218 0.0
C874 C 0.32605 0.45865 0.95755 0.0
C875 C 0.4016 0.46462 0.93391 0.0
C876 C 0.31426 0.46972 0.88941 0.0
H877 H 0.51372 0.46621 0.81014 0.0
H878 H 0.49436 0.46996 0.84221 0.0
H879 H 0.28404 0.47304 0.86193 0.0
H880 H 0.22382 0.45601 0.94826 0.0
H881 H 0.24451 0.46041 0.91676 0.0
H882 H 0.46127 0.45871 0.9012 0.0
C883 C 0.45262 0.46732 0.83411 0.0
C884 C 0.32325 0.46997 0.8704 0.0
C885 C 0.46355 0.46522 0.81568 0.0
C886 C 0.27376 0.45847 0.94457 0.0
C887 C 0.28545 0.46111 0.92645 0.0
C888 C 0.4229 0.46211 0.8929 0.0
C889 C 0.38962 0.46559 0.84219 0.0
C890 C 0.38183 0.46619 0.86243 0.0
C891 C 0.34981 0.46402 0.92074 0.0
C892 C 0.36333 0.46558 0.90088 0.0
H893 H 0.3064 0.45735 0.80446 0.0
H894 H 0.28709 0.461 0.83684 0.0
H895 H 0.47737 0.45929 0.86826 0.0
H896 H 0.43095 0.46222 0.96189 0.0
H897 H 0.45161 0.46695 0.93004 0.0
C898 C 0.40248 0.29841 0.80588 0.0
C899 C 0.33735 0.29935 0.7986 0.0
C900 C 0.4113 0.29622 0.82449 0.0
C901 C 0.31978 0.2994 0.8678 0.0
H902 H 0.46131 0.28386 0.88893 0.0
C903 C 0.35007 0.29707 0.94591 0.0
C904 C 0.4163 0.29811 0.95234 0.0
C905 C 0.3379 0.29515 0.92737 0.0
C906 C 0.42163 0.28826 0.88324 0.0
H907 H 0.23077 0.29795 0.80462 0.0
H908 H 0.24616 0.29396 0.83667 0.0
H909 H 0.44715 0.28435 0.85567 0.0
H910 H 0.52176 0.29734 0.94459 0.0
H911 H 0.50065 0.2942 0.91247 0.0
H912 H 0.29544 0.30361 0.89509 0.0
C913 C 0.29041 0.29516 0.8283 0.0
C914 C 0.41362 0.28853 0.86418 0.0
C915 C 0.28165 0.29739 0.80987 0.0
C916 C 0.47 0.29664 0.94009 0.0
C917 C 0.4579 0.29476 0.92162 0.0
C918 C 0.32796 0.29917 0.88676 0.0
C919 C 0.3551 0.29491 0.83603 0.0
C920 C 0.36279 0.29416 0.85625 0.0
C921 C 0.39171 0.29425 0.91488 0.0
C922 C 0.37935 0.29367 0.89477 0.0
H923 H 0.44625 0.2999 0.79751 0.0
H924 H 0.46186 0.29609 0.83005 0.0
H925 H 0.28092 0.30397 0.86215 0.0
H926 H 0.30762 0.29811 0.95501 0.0
H927 H 0.28623 0.29462 0.92273 0.0
C928 C 0.49262 0.03963 0.99585 0.0
C929 C 0.439 0.04191 0.0076 0.0
C930 C 0.51146 0.03006 0.99321 0.0
C931 C 0.49082 0.00541 0.01159 0.0
H932 H 0.50856 0.99787 0.96074 0.0
C933 C 0.50693 0.96572 0.99244 0.0
C934 C 0.56099 0.96343 0.98084 0.0
C935 C 0.4855 0.97522 0.9942 0.0
C936 C 0.50406 0.99985 0.97502 0.0
H937 H 0.36661 0.03611 0.02684 0.0
H938 H 0.39996 0.01955 0.02251 0.0
H939 H 0.49477 0.01472 0.96849 0.0
H940 H 0.62993 0.96909 0.96053 0.0
H941 H 0.59247 0.98555 0.96347 0.0
H942 H 0.50044 0.99058 0.01817 0.0
C943 C 0.42744 0.02505 0.01523 0.0
C944 C 0.49668 0.00953 0.97947 0.0
C945 C 0.40831 0.03456 0.01773 0.0
C946 C 0.58815 0.97063 0.96961 0.0
C947 C 0.56669 0.9801 0.97133 0.0
C948 C 0.4983 0.99574 0.00715 0.0
C949 C 0.47746 0.02265 1.00244 0.0
C950 C 0.4899 0.01243 0.99782 0.0
C951 C 0.51747 0.98258 0.98432 0.0
C952 C 0.50492 0.99283 0.9888 0.0
H953 H 0.51665 0.04514 0.98773 0.0
H954 H 0.55097 0.02845 0.98347 0.0
H955 H 0.48635 0.0074 0.02587 0.0
H956 H 0.48511 0.96035 1.00133 0.0
H957 H 0.44626 0.97687 0.00401 0.0
C958 C 0.64751 0.28508 0.99027 0.0
C959 C 0.67896 0.29243 1.00023 0.0
C960 C 0.66827 0.27561 0.99221 0.0
C961 C 0.80403 0.25986 0.00843 0.0
H962 H 0.65791 0.24188 0.01636 0.0
C963 C 0.86138 0.22097 0.02677 0.0
C964 C 0.82483 0.21394 0.01731 0.0
C965 C 0.84 0.23047 0.02677 0.0
C966 C 0.6993 0.24677 0.01402 0.0
H967 H 0.75986 0.29569 0.01911 0.0
H968 H 0.79705 0.27907 0.02233 0.0
H969 H 0.63275 0.25869 0.01069 0.0
H970 H 0.73535 0.21117 1.00129 0.0
H971 H 0.69801 0.22785 1.00098 0.0
H972 H 0.87062 0.24796 0.01135 0.0
C973 C 0.75598 0.28067 0.01308 0.0
C974 C 0.6849 0.25641 0.01075 0.0
C975 C 0.73499 0.2902 0.01116 0.0
C976 C 0.76384 0.21645 0.00891 0.0
C977 C 0.74278 0.22602 0.00868 0.0
C978 C 0.81844 0.25021 0.01157 0.0
C979 C 0.72114 0.27325 0.00412 0.0
C980 C 0.73709 0.26305 0.00782 0.0
C981 C 0.78214 0.2332 0.01701 0.0
C982 C 0.76626 0.24353 0.01438 0.0
H983 H 0.60449 0.28657 0.9816 0.0
H984 H 0.64155 0.27009 0.98477 0.0
H985 H 0.84525 0.26478 0.00606 0.0
H986 H 0.90859 0.2192 0.03341 0.0
H987 H 0.87047 0.23573 0.03381 0.0
C988 C 0.41437 0.22221 0.21724 0.0
C989 C 0.44246 0.21517 0.22867 0.0
C990 C 0.43586 0.23171 0.21836 0.0
C991 C 0.50425 0.24786 0.25308 0.0
H992 H 0.51294 0.26619 0.21335 0.0
C993 C 0.59851 0.28646 0.26258 0.0
C994 C 0.57141 0.29379 0.25167 0.0
C995 C 0.57796 0.27701 0.26028 0.0
C996 C 0.50951 0.26119 0.22463 0.0
H997 H 0.51959 0.2124 0.24896 0.0
H998 H 0.55805 0.22898 0.2507 0.0
H999 H 0.49693 0.24925 0.20655 0.0
H1000 H 0.49845 0.29704 0.23055 0.0
H1001 H 0.46122 0.28044 0.22671 0.0
H1002 H 0.51619 0.25976 0.27118 0.0
C1003 C 0.51838 0.22717 0.24112 0.0
C1004 C 0.50094 0.25146 0.22071 0.0
C1005 C 0.49711 0.21764 0.23992 0.0
C1006 C 0.51975 0.29155 0.23927 0.0
C1007 C 0.49929 0.28203 0.23688 0.0
C1008 C 0.51257 0.25757 0.257 0.0
C1009 C 0.48581 0.23438 0.23098 0.0
C1010 C 0.49858 0.24467 0.23489 0.0
C1011 C 0.52981 0.27461 0.24695 0.0
C1012 C 0.51566 0.26436 0.24283 0.0
H1013 H 0.37211 0.22053 0.20842 0.0
H1014 H 0.40971 0.23705 0.21033 0.0
H1015 H 0.50087 0.24287 0.26437 0.0
H1016 H 0.63861 0.28796 0.27223 0.0
H1017 H 0.60294 0.27151 0.26821 0.0
C1018 C 0.66917 0.97195 0.28976 0.0
C1019 C 0.69967 0.96521 0.27815 0.0
C1020 C 0.69064 0.98147 0.28982 0.0
C1021 C 0.82258 0.99818 0.27227 0.0
H1022 H 0.67368 0.01616 0.27103 0.0
C1023 C 0.85922 0.03631 0.24582 0.0
C1024 C 0.83493 0.04375 0.25696 0.0
C1025 C 0.83948 0.02688 0.24888 0.0
C1026 C 0.71581 0.01124 0.27152 0.0
H1027 H 0.7799 0.96299 0.25853 0.0
H1028 H 0.81717 0.97959 0.25845 0.0
H1029 H 0.65197 0.99931 0.2773 0.0
H1030 H 0.76724 0.04719 0.27927 0.0
H1031 H 0.73164 0.03062 0.28447 0.0
H1032 H 0.88608 0.01011 0.26601 0.0
C1033 C 0.77703 0.97755 0.2677 0.0
C1034 C 0.70356 1.00158 0.27523 0.0
C1035 C 0.75594 0.96799 0.26779 0.0
C1036 C 0.78634 0.04163 0.27035 0.0
C1037 C 0.76635 0.03213 0.27341 0.0
C1038 C 0.83471 0.00782 0.26843 0.0
C1039 C 0.74265 0.98449 0.27811 0.0
C1040 C 0.75674 0.99489 0.27552 0.0
C1041 C 0.79482 0.02463 0.26315 0.0
C1042 C 0.7814 0.01445 0.26781 0.0
H1043 H 0.62577 0.97001 0.29796 0.0
H1044 H 0.66431 0.98654 0.29844 0.0
H1045 H 0.86489 0.9933 0.27266 0.0
H1046 H 0.89643 0.03771 0.2353 0.0
H1047 H 0.86097 0.02129 0.24044 0.0
C1048 C 0.26573 0.71685 0.99416 0.0
C1049 C 0.31804 0.71471 0.00643 0.0
C1050 C 0.2447 0.72634 0.9917 0.0
C1051 C 0.25697 0.75084 0.01158 0.0
H1052 H 0.2389 0.75907 0.96114 0.0
C1053 C 0.23568 0.79069 0.99459 0.0
C1054 C 0.18026 0.793 0.98349 0.0
C1055 C 0.25858 0.78123 0.99566 0.0
C1056 C 0.24359 0.75688 0.9753 0.0
H1057 H 0.38592 0.72068 0.02666 0.0
H1058 H 0.34922 0.73708 0.02255 0.0
H1059 H 0.25668 0.74217 0.96798 0.0
H1060 H 0.11036 0.78746 0.96331 0.0
H1061 H 0.15068 0.77106 0.96501 0.0
H1062 H 0.24405 0.76552 0.01893 0.0
C1063 C 0.32419 0.73153 0.01477 0.0
C1064 C 0.25319 0.74718 0.97924 0.0
C1065 C 0.34533 0.7221 0.01713 0.0
C1066 C 0.15315 0.7859 0.97202 0.0
C1067 C 0.17621 0.77647 0.97302 0.0
C1068 C 0.24759 0.76053 0.00764 0.0
C1069 C 0.27526 0.73383 1.00159 0.0
C1070 C 0.26019 0.74404 0.99744 0.0
C1071 C 0.22684 0.77394 0.98555 0.0
C1072 C 0.241 0.76368 0.98946 0.0
H1073 H 0.24428 0.7113 0.98561 0.0
H1074 H 0.20608 0.72785 0.98165 0.0
H1075 H 0.26125 0.74867 0.02577 0.0
H1076 H 0.2575 0.79598 1.00365 0.0
H1077 H 0.29877 0.77954 0.00515 0.0
C1078 C 0.50411 0.7913 0.74657 0.0
C1079 C 0.5523 0.79432 0.75939 0.0
C1080 C 0.48454 0.78167 0.74585 0.0
C1081 C 0.55471 0.75801 0.75708 0.0
H1082 H 0.37524 0.74869 0.74648 0.0
C1083 C 0.47944 0.71789 0.76027 0.0
C1084 C 0.42878 0.71477 0.74829 0.0
C1085 C 0.4986 0.72755 0.76051 0.0
C1086 C 0.42595 0.75118 0.74915 0.0
H1087 H 0.61304 0.78988 0.78255 0.0
H1088 H 0.57774 0.77324 0.78159 0.0
H1089 H 0.39386 0.76579 0.75039 0.0
H1090 H 0.36287 0.71902 0.72609 0.0
H1091 H 0.39797 0.73568 0.72601 0.0
H1092 H 0.58696 0.74341 0.75577 0.0
C1093 C 0.55651 0.77818 0.77174 0.0
C1094 C 0.43644 0.76099 0.75148 0.0
C1095 C 0.5761 0.78774 0.77242 0.0
C1096 C 0.40185 0.72125 0.73555 0.0
C1097 C 0.42132 0.73083 0.73567 0.0
C1098 C 0.54429 0.7482 0.75469 0.0
C1099 C 0.51279 0.77494 0.75797 0.0
C1100 C 0.50088 0.76452 0.75557 0.0
C1101 C 0.46769 0.73419 0.74868 0.0
C1102 C 0.47976 0.74465 0.75071 0.0
H1103 H 0.48553 0.79619 0.73624 0.0
H1104 H 0.45063 0.7794 0.73509 0.0
H1105 H 0.60533 0.76051 0.75985 0.0
H1106 H 0.50036 0.71308 0.77039 0.0
H1107 H 0.53445 0.72989 0.77074 0.0
C1108 C 0.14098 0.97187 0.77715 0.0
C1109 C 0.17734 0.96502 0.76719 0.0
C1110 C 0.16157 0.9814 0.7774 0.0
C1111 C 0.29959 0.99808 0.76391 0.0
H1112 H 0.15136 0.01592 0.75798 0.0
C1113 C 0.34489 0.0364 0.73964 0.0
C1114 C 0.31655 0.04369 0.75043 0.0
C1115 C 0.32424 0.02694 0.74171 0.0
C1116 C 0.19319 0.01104 0.75978 0.0
H1117 H 0.26562 0.96258 0.7505 0.0
H1118 H 0.30142 0.97931 0.75056 0.0
H1119 H 0.12791 0.99903 0.76319 0.0
H1120 H 0.24077 0.04687 0.77089 0.0
H1121 H 0.20351 0.03024 0.77428 0.0
H1122 H 0.36472 0.0101 0.75996 0.0
C1123 C 0.25756 0.97732 0.7585 0.0
C1124 C 0.17993 1.00135 0.76289 0.0
C1125 C 0.23739 0.96771 0.75851 0.0
C1126 C 0.26317 0.04142 0.76229 0.0
C1127 C 0.2422 0.0319 0.76431 0.0
C1128 C 0.31279 0.00775 0.76063 0.0
C1129 C 0.21831 0.98435 0.76736 0.0
C1130 C 0.23297 0.99473 0.76494 0.0
C1131 C 0.27451 0.02453 0.75455 0.0
C1132 C 0.25975 0.01432 0.7584 0.0
H1133 H 0.09441 0.96995 0.78397 0.0
H1134 H 0.13126 0.98653 0.78484 0.0
H1135 H 0.34167 0.99324 0.76569 0.0
H1136 H 0.38579 0.03793 0.73026 0.0
H1137 H 0.34887 0.02145 0.73367 0.0
C1138 C 0.60157 0.4724 0.4954 0.0
C1139 C 0.57075 0.46503 0.50547 0.0
C1140 C 0.58161 0.48187 0.49769 0.0
C1141 C 0.44954 0.49783 0.5152 0.0
H1142 H 0.59895 0.51524 0.52321 0.0
C1143 C 0.39922 0.53693 0.53361 0.0
C1144 C 0.43723 0.54379 0.5241 0.0
C1145 C 0.41886 0.52736 0.53375 0.0
C1146 C 0.55663 0.51051 0.52085 0.0
H1147 H 0.49143 0.46175 0.52485 0.0
H1148 H 0.45549 0.47841 0.52865 0.0
H1149 H 0.62102 0.49841 0.51697 0.0
H1150 H 0.52757 0.54617 0.5082 0.0
H1151 H 0.56182 0.52938 0.50813 0.0
H1152 H 0.38507 0.50992 0.51859 0.0
C1153 C 0.49554 0.4768 0.51907 0.0
C1154 C 0.56927 0.50086 0.51727 0.0
C1155 C 0.51577 0.46726 0.5168 0.0
C1156 C 0.498 0.54104 0.51587 0.0
C1157 C 0.51729 0.53139 0.51577 0.0
C1158 C 0.43686 0.5075 0.51863 0.0
C1159 C 0.53015 0.48423 0.51007 0.0
C1160 C 0.5159 0.49443 0.51426 0.0
C1161 C 0.47639 0.52438 0.52409 0.0
C1162 C 0.49026 0.51399 0.52144 0.0
H1163 H 0.64376 0.47091 0.48643 0.0
H1164 H 0.60807 0.48741 0.49022 0.0
H1165 H 0.40745 0.49306 0.51281 0.0
H1166 H 0.35209 0.53889 0.5401 0.0
H1167 H 0.38723 0.52223 0.54078 0.0
C1168 C 0.73508 0.79156 0.49839 0.0
C1169 C 0.6732 0.79403 0.49045 0.0
C1170 C 0.7566 0.782 0.49832 0.0
C1171 C 0.68191 0.75774 0.49538 0.0
H1172 H 0.86816 0.7495 0.49523 0.0
C1173 C 0.76941 0.71788 0.4948 0.0
C1174 C 0.82582 0.71575 0.50566 0.0
C1175 C 0.74719 0.72736 0.49305 0.0
C1176 C 0.81587 0.75171 0.49543 0.0
H1177 H 0.58818 0.78875 0.47488 0.0
H1178 H 0.62711 0.77229 0.47387 0.0
H1179 H 0.84158 0.7663 0.48992 0.0
H1180 H 0.89957 0.72171 0.52438 0.0
H1181 H 0.86046 0.73811 0.52148 0.0
H1182 H 0.65643 0.7431 0.50076 0.0
C1183 C 0.65795 0.77754 0.48081 0.0
C1184 C 0.80066 0.76134 0.49239 0.0
C1185 C 0.6361 0.78701 0.48114 0.0
C1186 C 0.85632 0.72314 0.51576 0.0
C1187 C 0.83437 0.73255 0.51397 0.0
C1188 C 0.69714 0.74809 0.49827 0.0
C1189 C 0.71684 0.77482 0.49012 0.0
C1190 C 0.73349 0.7645 0.49243 0.0
C1191 C 0.78122 0.73482 0.5021 0.0
C1192 C 0.76431 0.745 0.49852 0.0
H1193 H 0.76406 0.79682 0.50588 0.0
H1194 H 0.80215 0.78018 0.50567 0.0
H1195 H 0.62961 0.75991 0.49591 0.0
H1196 H 0.74528 0.71236 0.48675 0.0
H1197 H 0.70588 0.72891 0.48384 0.0
C1198 C 0.75655 0.54148 0.75508 0.0
C1199 C 0.81212 0.54394 0.74417 0.0
C1200 C 0.73629 0.5319 0.75652 0.0
C1201 C 0.75855 0.50763 0.73626 0.0
H1202 H 0.73333 0.49905 0.78626 0.0
C1203 C 0.74302 0.46745 0.75361 0.0
C1204 C 0.68848 0.46494 0.76486 0.0
C1205 C 0.76243 0.47706 0.75192 0.0
C1206 C 0.73986 0.50133 0.77221 0.0
H1207 H 0.88649 0.5385 0.7251 0.0
H1208 H 0.85087 0.52193 0.7274 0.0
H1209 H 0.74824 0.51604 0.77997 0.0
H1210 H 0.61502 0.47035 0.78423 0.0
H1211 H 0.64897 0.48696 0.78145 0.0
H1212 H 0.75016 0.49292 0.7285 0.0
C1213 C 0.82286 0.52729 0.73491 0.0
C1214 C 0.74788 0.51108 0.76858 0.0
C1215 C 0.84333 0.53681 0.73359 0.0
C1216 C 0.65735 0.47207 0.77545 0.0
C1217 C 0.6769 0.48161 0.77387 0.0
C1218 C 0.75047 0.49787 0.73989 0.0
C1219 C 0.77087 0.52466 0.74694 0.0
C1220 C 0.75737 0.51436 0.75056 0.0
C1221 C 0.72798 0.48428 0.76158 0.0
C1222 C 0.74104 0.4946 0.75791 0.0
H1223 H 0.73205 0.54681 0.76351 0.0
H1224 H 0.69529 0.53011 0.76568 0.0
H1225 H 0.76526 0.50991 0.72221 0.0
H1226 H 0.76751 0.46212 0.74517 0.0
H1227 H 0.8028 0.47887 0.74257 0.0
C1228 C 0.21579 0.29037 0.51735 0.0
C1229 C 0.16704 0.29278 0.5042 0.0
C1230 C 0.23325 0.28077 0.52027 0.0
C1231 C 0.15737 0.25689 0.5153 0.0
H1232 H 0.33697 0.24742 0.52519 0.0
C1233 C 0.22665 0.2167 0.5159 0.0
C1234 C 0.28101 0.21375 0.52681 0.0
C1235 C 0.20757 0.22634 0.51547 0.0
C1236 C 0.28622 0.24996 0.52282 0.0
H1237 H 0.10291 0.28716 0.48271 0.0
H1238 H 0.13433 0.27054 0.48752 0.0
H1239 H 0.32053 0.26432 0.51836 0.0
H1240 H 0.35307 0.21831 0.5473 0.0
H1241 H 0.31807 0.23499 0.54713 0.0
H1242 H 0.12289 0.24258 0.51973 0.0
C1243 C 0.1577 0.27598 0.49594 0.0
C1244 C 0.27698 0.25966 0.51879 0.0
C1245 C 0.14031 0.28552 0.49305 0.0
C1246 C 0.31117 0.22039 0.53867 0.0
C1247 C 0.29177 0.22999 0.53837 0.0
C1248 C 0.16653 0.24722 0.51941 0.0
C1249 C 0.20222 0.27345 0.51007 0.0
C1250 C 0.21256 0.26321 0.51476 0.0
C1251 C 0.24214 0.23317 0.52608 0.0
C1252 C 0.23115 0.2436 0.52308 0.0
H1253 H 0.23671 0.29579 0.52627 0.0
H1254 H 0.26789 0.27905 0.53123 0.0
H1255 H 0.1068 0.25945 0.51265 0.0
H1256 H 0.20296 0.21177 0.50646 0.0
H1257 H 0.16914 0.22851 0.50582 0.0
C1258 C 0.14784 0.47318 0.26278 0.0
C1259 C 0.17236 0.46588 0.25137 0.0
C1260 C 0.16745 0.48266 0.26008 0.0
C1261 C 0.29029 0.49847 0.23704 0.0
H1262 H 0.14221 0.51658 0.2381 0.0
C1263 C 0.33479 0.53764 0.21781 0.0
C1264 C 0.30909 0.54437 0.23028 0.0
C1265 C 0.31222 0.52818 0.21808 0.0
C1266 C 0.1842 0.51164 0.23785 0.0
H1267 H 0.24018 0.4627 0.22895 0.0
H1268 H 0.27505 0.47931 0.22428 0.0
H1269 H 0.12116 0.49976 0.2447 0.0
H1270 H 0.2353 0.54666 0.25168 0.0
H1271 H 0.19583 0.53016 0.2522 0.0
H1272 H 0.35356 0.51036 0.23047 0.0
C1273 C 0.24054 0.47769 0.23533 0.0
C1274 C 0.17222 0.502 0.2417 0.0
C1275 C 0.2209 0.46816 0.23807 0.0
C1276 C 0.2557 0.54167 0.24179 0.0
C1277 C 0.23335 0.53217 0.24215 0.0
C1278 C 0.30233 0.50813 0.23324 0.0
C1279 C 0.21199 0.48508 0.24587 0.0
C1280 C 0.22522 0.49531 0.24151 0.0
C1281 C 0.26366 0.52522 0.23089 0.0
C1282 C 0.24949 0.51485 0.23369 0.0
H1283 H 0.11065 0.47165 0.27323 0.0
H1284 H 0.14595 0.48814 0.26877 0.0
H1285 H 0.33228 0.49353 0.23692 0.0
H1286 H 0.37576 0.53951 0.20869 0.0
H1287 H 0.33526 0.52308 0.20885 0.0
C1288 C 0.99756 0.9668 0.51469 0.0
C1289 C 0.05051 0.96477 0.50253 0.0
C1290 C 0.97568 0.97626 0.51715 0.0
C1291 C 0.04341 1.00053 0.51452 0.0
H1292 H 0.85786 0.00903 0.51565 0.0
C1293 C 0.96735 0.04046 0.51158 0.0
C1294 C 0.90564 0.04315 0.51934 0.0
C1295 C 0.98774 0.03087 0.51198 0.0
C1296 C 0.91001 0.00677 0.51579 0.0
H1297 H 0.11809 0.97091 0.48232 0.0
H1298 H 0.07989 0.98726 0.4866 0.0
H1299 H 0.88283 0.99218 0.51051 0.0
H1300 H 0.81968 0.03824 0.53496 0.0
H1301 H 0.85685 0.02168 0.53666 0.0
H1302 H 0.07099 0.01504 0.51998 0.0
C1303 C 0.05618 0.98163 0.49448 0.0
C1304 C 0.92414 0.99711 0.51271 0.0
C1305 C 0.07758 0.97224 0.49194 0.0
C1306 C 0.86757 0.03631 0.52886 0.0
C1307 C 0.8884 0.0268 0.52957 0.0
C1308 C 0.02934 0.01017 0.51782 0.0
C1309 C 0.00678 0.98379 0.50757 0.0
C1310 C 0.99099 0.99392 0.51176 0.0
C1311 C 0.94707 0.02385 0.52039 0.0
C1312 C 0.96245 0.01346 0.51828 0.0
H1313 H 0.97607 0.96121 0.52313 0.0
H1314 H 0.9372 0.97773 0.52728 0.0
H1315 H 0.0955 0.99823 0.51417 0.0
H1316 H 0.99696 0.04558 0.5039 0.0
H1317 H 0.03307 0.02889 0.50467 0.0
C1318 C 0.91064 0.22134 0.73948 0.0
C1319 C 0.93876 0.21413 0.75049 0.0
C1320 C 0.93297 0.23076 0.74082 0.0
C1321 C 0.01527 0.24692 0.77397 0.0
H1322 H 0.00868 0.26472 0.73333 0.0
C1323 C 0.11967 0.28552 0.77546 0.0
C1324 C 0.08311 0.29268 0.76633 0.0
C1325 C 0.09783 0.27605 0.7752 0.0
C1326 C 0.00975 0.25985 0.74485 0.0
H1327 H 0.01582 0.21102 0.77059 0.0
H1328 H 0.05681 0.22751 0.77253 0.0
H1329 H 0.98969 0.24776 0.72783 0.0
H1330 H 0.99339 0.29566 0.75052 0.0
H1331 H 0.95509 0.27897 0.74989 0.0
H1332 H 0.03727 0.25906 0.79086 0.0
C1333 C 0.01604 0.22589 0.7632 0.0
C1334 C -0.00085 0.25011 0.74171 0.0
C1335 C 0.99338 0.21641 0.76188 0.0
C1336 C 0.02196 0.29029 0.75786 0.0
C1337 C 0.00061 0.28074 0.75732 0.0
C1338 C 0.02668 0.25666 0.77707 0.0
C1339 C 0.98448 0.23324 0.75313 0.0
C1340 C 0.00126 0.24351 0.75624 0.0
C1341 C 0.03954 0.27349 0.76551 0.0
C1342 C 0.02358 0.26323 0.76255 0.0
H1343 H 0.86846 0.21981 0.73053 0.0
H1344 H 0.90691 0.23616 0.73294 0.0
H1345 H 0.016 0.2421 0.78557 0.0
H1346 H 0.1673 0.28717 0.78197 0.0
H1347 H 0.12904 0.27063 0.78156 0.0
C1348 C 0.00927 0.7921 0.26415 0.0
C1349 C 0.07186 0.7941 0.2722 0.0
C1350 C 0.98675 0.78262 0.26271 0.0
C1351 C 0.05829 0.7582 0.26067 0.0
H1352 H 0.87174 0.75019 0.26289 0.0
C1353 C 0.97073 0.71846 0.25676 0.0
C1354 C 0.9095 0.71669 0.24776 0.0
C1355 C 0.99359 0.72787 0.25914 0.0
C1356 C 0.92406 0.75234 0.262 0.0
H1357 H 0.15708 0.78795 0.28651 0.0
H1358 H 0.11693 0.77154 0.28459 0.0
H1359 H 0.90106 0.76669 0.2701 0.0
H1360 H 0.82719 0.72327 0.23285 0.0
H1361 H 0.86771 0.73956 0.23657 0.0
H1362 H 0.08121 0.74384 0.25256 0.0
C1363 C 0.08615 0.77717 0.27881 0.0
C1364 C 0.94082 0.7618 0.26618 0.0
C1365 C 0.10875 0.78659 0.28011 0.0
C1366 C 0.87434 0.72442 0.24 0.0
C1367 C 0.89715 0.73377 0.24231 0.0
C1368 C 0.04153 0.74873 0.25651 0.0
C1369 C 0.02633 0.77501 0.26941 0.0
C1370 C 0.00815 0.76487 0.26554 0.0
C1371 C 0.9556 0.73565 0.25251 0.0
C1372 C 0.97415 0.7457 0.25702 0.0
H1373 H 0.98025 0.79773 0.25774 0.0
H1374 H 0.94043 0.78122 0.25537 0.0
H1375 H 0.11058 0.76035 0.25967 0.0
H1376 H -0.00153 0.71265 0.26303 0.0
H1377 H 0.03891 0.72908 0.26705 0.0
C1378 C 0.11547 0.47206 0.97688 0.0
C1379 C 0.07708 0.4652 0.98626 0.0
C1380 C 0.09509 0.4816 0.97636 0.0
C1381 C 0.95466 0.49829 0.9881 0.0
H1382 H 0.10159 0.51613 0.99607 0.0
C1383 C 0.90583 0.53631 0.01351 0.0
C1384 C 0.93511 0.54376 1.00332 0.0
C1385 C 0.92679 0.52688 0.01111 0.0
C1386 C 0.06015 0.51125 0.99368 0.0
H1387 H 0.98558 0.46277 1.00163 0.0
H1388 H 0.95013 0.47951 1.00112 0.0
H1389 H 0.12605 0.49927 0.99083 0.0
H1390 H 0.01276 0.54724 0.98357 0.0
H1391 H 0.05067 0.53066 0.97963 0.0
H1392 H 0.88883 0.51027 0.99157 0.0
C1393 C 0.99545 0.47752 0.99381 0.0
C1394 C 0.074 0.50158 0.99055 0.0
C1395 C 0.01545 0.46791 0.99406 0.0
C1396 C 0.98959 0.54166 0.99171 0.0
C1397 C 0.01093 0.53217 0.98937 0.0
C1398 C 0.94084 0.50793 0.99141 0.0
C1399 C 0.03647 0.48455 0.98556 0.0
C1400 C 0.02141 0.49494 0.98781 0.0
C1401 C 0.97784 0.52466 0.99854 0.0
C1402 C 0.99339 0.5145 0.99441 0.0
H1403 H 0.16328 0.47012 0.97074 0.0
H1404 H 0.12691 0.48673 0.96939 0.0
H1405 H 0.91292 0.49346 0.98575 0.0
H1406 H 0.86407 0.53769 0.0227 0.0
H1407 H 0.90149 0.52128 0.0187 0.0
C1408 C 0.28253 0.04615 0.94026 0.0
C1409 C 0.2878 0.05564 0.94653 0.0
C1410 C 0.30809 0.04362 0.92294 0.0
C1411 C 0.44362 0.05071 0.89291 0.0
H1412 H 0.34539 0.04118 0.85089 0.0
C1413 C 0.51681 0.05976 0.81978 0.0
C1414 C 0.50443 0.05334 0.80546 0.0
C1415 C 0.50003 0.05739 0.83775 0.0
C1416 C 0.3741 0.0436 0.8626 0.0
H1417 H 0.31855 0.07 0.93901 0.0
H1418 H 0.36274 0.06559 0.9092 0.0
H1419 H 0.28965 0.042 0.88085 0.0
H1420 H 0.46685 0.03927 0.79861 0.0
H1421 H 0.43705 0.03505 0.83027 0.0
H1422 H 0.52715 0.05266 0.87481 0.0
C1423 C 0.34004 0.06009 0.91765 0.0
C1424 C 0.34202 0.04409 0.87971 0.0
C1425 C 0.31439 0.06261 0.9347 0.0
C1426 C 0.47831 0.04425 0.80952 0.0
C1427 C 0.46038 0.04191 0.82757 0.0
C1428 C 0.47569 0.05016 0.87595 0.0
C1429 C 0.33941 0.05054 0.91186 0.0
C1430 C 0.3758 0.04802 0.89481 0.0
C1431 C 0.46928 0.04858 0.84181 0.0
C1432 C 0.44049 0.04699 0.86041 0.0
H1433 H 0.26271 0.04062 0.94913 0.0
H1434 H 0.30674 0.03621 0.91866 0.0
H1435 H 0.47096 0.05366 0.90444 0.0
H1436 H 0.53567 0.06688 0.81691 0.0
H1437 H 0.50678 0.06276 0.84826 0.0
C1438 C 0.89886 0.19414 0.93945 0.0
C1439 C 0.94256 0.20002 0.9496 0.0
C1440 C 0.87444 0.19703 0.92249 0.0
C1441 C 0.90353 0.21173 0.88253 0.0
H1442 H 0.71237 0.20735 0.87515 0.0
C1443 C 0.78241 0.21383 0.81056 0.0
C1444 C 0.74843 0.20532 0.80623 0.0
C1445 C 0.79874 0.21594 0.82881 0.0
C1446 C 0.76568 0.20868 0.87699 0.0
H1447 H 0.99746 0.21342 0.9493 0.0
H1448 H 0.95523 0.21843 0.91903 0.0
H1449 H 0.76063 0.20569 0.90567 0.0
H1450 H 0.70221 0.19259 0.81732 0.0
H1451 H 0.72817 0.19638 0.84907 0.0
H1452 H 0.90902 0.21424 0.8536 0.0
C1453 C 0.93956 0.21161 0.92459 0.0
C1454 C 0.79334 0.20773 0.89446 0.0
C1455 C 0.96389 0.20873 0.94184 0.0
C1456 C 0.72705 0.1993 0.8204 0.0
C1457 C 0.74223 0.20147 0.83858 0.0
C1458 C 0.87575 0.21267 0.86496 0.0
C1459 C 0.89313 0.20587 0.91502 0.0
C1460 C 0.86296 0.20886 0.89729 0.0
C1461 C 0.78047 0.20963 0.84296 0.0
C1462 C 0.80695 0.21078 0.8619 0.0
H1463 H 0.88192 0.18733 0.94479 0.0
H1464 H 0.84023 0.19233 0.91524 0.0
H1465 H 0.95732 0.21263 0.88432 0.0
H1466 H 0.80092 0.21845 0.79977 0.0
H1467 H 0.82806 0.22229 0.83176 0.0
C1468 C 0.47966 0.20616 0.44045 0.0
C1469 C 0.42797 0.20358 0.45263 0.0
C1470 C 0.465 0.20801 0.42198 0.0
C1471 C 0.32342 0.21337 0.39001 0.0
H1472 H 0.43553 0.20067 0.35409 0.0
C1473 C 0.23793 0.20587 0.3152 0.0
C1474 C 0.28775 0.20593 0.30155 0.0
C1475 C 0.25572 0.20721 0.33363 0.0
C1476 C 0.40418 0.20442 0.36387 0.0
H1477 H 0.31998 0.20134 0.45508 0.0
H1478 H 0.29502 0.20448 0.42323 0.0
H1479 H 0.46785 0.20034 0.38617 0.0
H1480 H 0.39411 0.20821 0.29628 0.0
H1481 H 0.42449 0.2108 0.32806 0.0
H1482 H 0.25904 0.21729 0.36769 0.0
C1483 C 0.34672 0.20513 0.4278 0.0
C1484 C 0.4229 0.20423 0.3823 0.0
C1485 C 0.36131 0.20323 0.44609 0.0
C1486 C 0.35467 0.20795 0.30652 0.0
C1487 C 0.37222 0.20938 0.32478 0.0
C1488 C 0.30472 0.21357 0.37154 0.0
C1489 C 0.39832 0.20742 0.41543 0.0
C1490 C 0.38228 0.20858 0.39564 0.0
C1491 C 0.3235 0.20872 0.33866 0.0
C1492 C 0.3445 0.20901 0.35825 0.0
H1493 H 0.53144 0.20652 0.44505 0.0
H1494 H 0.50586 0.20983 0.41279 0.0
H1495 H 0.29139 0.21689 0.39994 0.0
H1496 H 0.18602 0.20431 0.31176 0.0
H1497 H 0.21686 0.20663 0.34397 0.0
C1498 C 0.78463 0.04874 0.43957 0.0
C1499 C 0.80812 0.05702 0.44846 0.0
C1500 C 0.81211 0.04596 0.42261 0.0
C1501 C 0.96643 0.04926 0.39487 0.0
H1502 H 0.85563 0.04408 0.35237 0.0
C1503 C 0.04614 0.05832 0.32196 0.0
C1504 C 0.02522 0.0526 0.30728 0.0
C1505 C 0.02791 0.056 0.33987 0.0
C1506 C 0.88747 0.04528 0.36419 0.0
H1507 H 0.87693 0.06905 0.44602 0.0
H1508 H 0.9238 0.06425 0.41695 0.0
H1509 H 0.80293 0.04556 0.38256 0.0
H1510 H 0.97047 0.03982 0.29969 0.0
H1511 H 0.93796 0.03573 0.33119 0.0
H1512 H 0.05048 0.04944 0.37652 0.0
C1513 C 0.88539 0.05978 0.4231 0.0
C1514 C 0.85719 0.04614 0.38147 0.0
C1515 C 0.85794 0.06257 0.43978 0.0
C1516 C 0.98873 0.0442 0.31088 0.0
C1517 C 0.96931 0.04195 0.32884 0.0
C1518 C 0.99657 0.04841 0.37768 0.0
C1519 C 0.8639 0.05137 0.41443 0.0
C1520 C 0.89612 0.04853 0.39686 0.0
C1521 C 0.987 0.048 0.34346 0.0
C1522 C 0.95719 0.04678 0.36202 0.0
H1523 H 0.74636 0.04432 0.44587 0.0
H1524 H 0.79422 0.03947 0.41615 0.0
H1525 H 0.99797 0.0509 0.40656 0.0
H1526 H 0.0729 0.06495 0.31945 0.0
H1527 H 0.04169 0.06089 0.35074 0.0
C1528 C 0.76835 0.95471 0.06597 0.0
C1529 C 0.71957 0.95503 0.05208 0.0
C1530 C 0.74961 0.95619 0.08431 0.0
C1531 C 0.59785 0.95428 0.11365 0.0
H1532 H 0.71047 0.96616 0.15047 0.0
C1533 C 0.51347 0.957 0.18942 0.0
C1534 C 0.56265 0.95429 0.20224 0.0
C1535 C 0.53119 0.95855 0.17105 0.0
C1536 C 0.67848 0.96279 0.14034 0.0
H1537 H 0.61447 0.95794 0.04621 0.0
H1538 H 0.58255 0.9608 0.0778 0.0
H1539 H 0.74637 0.96625 0.11847 0.0
H1540 H 0.66951 0.95146 0.20586 0.0
H1541 H 0.6997 0.95409 0.17417 0.0
H1542 H 0.53058 0.95067 0.13547 0.0
C1543 C 0.63457 0.95906 0.07482 0.0
C1544 C 0.6992 0.96283 0.12201 0.0
C1545 C 0.65302 0.95748 0.05668 0.0
C1546 C 0.63001 0.95347 0.19639 0.0
C1547 C 0.64764 0.95508 0.17818 0.0
C1548 C 0.57713 0.95426 0.13193 0.0
C1549 C 0.68195 0.95811 0.08897 0.0
C1550 C 0.65939 0.9585 0.10844 0.0
C1551 C 0.5985 0.95752 0.1652 0.0
C1552 C 0.61751 0.95841 0.14555 0.0
H1553 H 0.81994 0.9528 0.06281 0.0
H1554 H 0.78745 0.95538 0.09486 0.0
H1555 H 0.56639 0.9507 0.10366 0.0
H1556 H 0.46123 0.95771 0.19348 0.0
H1557 H 0.49216 0.96051 0.1614 0.0
C1558 C 0.09301 0.7986 0.06167 0.0
C1559 C 0.02681 0.80142 0.05754 0.0
C1560 C 0.11316 0.79717 0.07975 0.0
C1561 C 0.05121 0.7952 0.12786 0.0
H1562 H 0.22698 0.80584 0.13909 0.0
C1563 C 0.1257 0.80863 0.19914 0.0
C1564 C 0.19103 0.80691 0.20584 0.0
C1565 C 0.10774 0.80599 0.18143 0.0
C1566 C 0.17839 0.80266 0.13616 0.0
H1567 H 0.92883 0.80456 0.06904 0.0
H1568 H 0.96437 0.80237 0.10086 0.0
H1569 H 0.18974 0.80493 0.10744 0.0
H1570 H 0.28838 0.80083 0.19927 0.0
H1571 H 0.25718 0.79635 0.16779 0.0
H1572 H 0.03904 0.79339 0.15681 0.0
C1573 C 0.00058 0.80106 0.09006 0.0
C1574 C 0.15683 0.80213 0.11798 0.0
C1575 C 0.98007 0.80234 0.07184 0.0
C1576 C 0.23779 0.80227 0.19446 0.0
C1577 C 0.21996 0.79974 0.17649 0.0
C1578 C 0.07262 0.79581 0.14608 0.0
C1579 C 0.06798 0.79871 0.09426 0.0
C1580 C 0.09251 0.79853 0.11358 0.0
C1581 C 0.15472 0.80163 0.16979 0.0
C1582 C 0.13596 0.79971 0.15044 0.0
H1583 H 0.12993 0.79769 0.05088 0.0
H1584 H 0.1648 0.79509 0.08234 0.0
H1585 H 0.00197 0.79222 0.12502 0.0
H1586 H 0.08809 0.8121 0.20758 0.0
H1587 H 0.05745 0.80766 0.17665 0.0
C1588 C 0.77106 0.80869 0.68918 0.0
C1589 C 0.74829 0.80272 0.70328 0.0
C1590 C 0.75675 0.80652 0.67094 0.0
C1591 C 0.62329 0.79554 0.64419 0.0
H1592 H 0.7405 0.80216 0.60371 0.0
C1593 C 0.53561 0.79932 0.56744 0.0
C1594 C 0.55873 0.80782 0.55926 0.0
C1595 C 0.55995 0.7965 0.58472 0.0
C1596 C 0.70715 0.80024 0.61486 0.0
H1597 H 0.69428 0.78969 0.70955 0.0
H1598 H 0.66878 0.78586 0.67747 0.0
H1599 H 0.78744 0.80057 0.63439 0.0
H1600 H 0.62306 0.82022 0.56333 0.0
H1601 H 0.66459 0.81534 0.59296 0.0
H1602 H 0.54244 0.79564 0.62463 0.0
C1603 C 0.69849 0.79216 0.68052 0.0
C1604 C 0.73409 0.79932 0.63242 0.0
C1605 C 0.7139 0.79426 0.69883 0.0
C1606 C 0.60462 0.81356 0.569 0.0
C1607 C 0.62899 0.81073 0.586 0.0
C1608 C 0.59624 0.79646 0.62654 0.0
C1609 C 0.718 0.79843 0.66643 0.0
C1610 C 0.69212 0.79732 0.64742 0.0
C1611 C 0.60818 0.8021 0.59394 0.0
C1612 C 0.63755 0.79921 0.61184 0.0
H1613 H 0.79616 0.81537 0.69235 0.0
H1614 H 0.77179 0.81158 0.66049 0.0
H1615 H 0.58948 0.79405 0.65548 0.0
H1616 H 0.50033 0.79474 0.56031 0.0
H1617 H 0.54263 0.78983 0.59061 0.0
C1618 C 0.21398 0.96444 0.55865 0.0
C1619 C 0.24738 0.95589 0.5543 0.0
C1620 C 0.19877 0.96665 0.57693 0.0
C1621 C 0.23466 0.95967 0.62508 0.0
H1622 H 0.0434 0.96355 0.63324 0.0
C1623 C 0.10612 0.94549 0.6886 0.0
C1624 C 0.06163 0.95131 0.69864 0.0
C1625 C 0.12982 0.94832 0.67152 0.0
C1626 C 0.0971 0.96267 0.63122 0.0
H1627 H 0.29384 0.94318 0.56541 0.0
H1628 H 0.26996 0.94714 0.59722 0.0
H1629 H 0.08972 0.96499 0.60226 0.0
H1630 H 0.00484 0.96454 0.69804 0.0
H1631 H 0.0459 0.96945 0.66758 0.0
H1632 H 0.24167 0.95689 0.6538 0.0
C1633 C 0.25542 0.95219 0.5867 0.0
C1634 C 0.12373 0.96352 0.61349 0.0
C1635 C 0.26942 0.94992 0.56849 0.0
C1636 C 0.03906 0.9599 0.69068 0.0
C1637 C 0.0627 0.96272 0.67331 0.0
C1638 C 0.20815 0.95883 0.64271 0.0
C1639 C 0.21768 0.96039 0.59111 0.0
C1640 C 0.19238 0.96165 0.61015 0.0
C1641 C 0.10969 0.95704 0.66381 0.0
C1642 C 0.13867 0.95993 0.64586 0.0
H1643 H 0.19495 0.96903 0.54786 0.0
H1644 H 0.1698 0.97302 0.57991 0.0
H1645 H 0.28788 0.95835 0.62301 0.0
H1646 H 0.12406 0.93876 0.69408 0.0
H1647 H 0.16446 0.94365 0.66435 0.0
C1648 C 0.39154 0.55863 0.44709 0.0
C1649 C 0.32684 0.55671 0.45404 0.0
C1650 C 0.40827 0.55632 0.4291 0.0
C1651 C 0.33306 0.55351 0.38411 0.0
H1652 H 0.50955 0.54378 0.37089 0.0
C1653 C 0.40812 0.54996 0.30872 0.0
C1654 C 0.47309 0.55303 0.30385 0.0
C1655 C 0.39099 0.54846 0.327 0.0
C1656 C 0.46026 0.54657 0.37433 0.0
H1657 H 0.22941 0.5506 0.44764 0.0
H1658 H 0.25848 0.54667 0.41579 0.0
H1659 H 0.47645 0.54451 0.40307 0.0
H1660 H 0.57211 0.55654 0.31424 0.0
H1661 H 0.5418 0.55421 0.34644 0.0
H1662 H 0.31753 0.55597 0.3556 0.0
C1663 C 0.29615 0.54997 0.42445 0.0
C1664 C 0.44115 0.54694 0.39276 0.0
C1665 C 0.27956 0.55218 0.44266 0.0
C1666 C 0.52175 0.55413 0.31761 0.0
C1667 C 0.50426 0.55277 0.33605 0.0
C1668 C 0.35228 0.55321 0.36571 0.0
C1669 C 0.36065 0.55209 0.41747 0.0
C1670 C 0.37772 0.55055 0.39787 0.0
C1671 C 0.43802 0.55017 0.34099 0.0
C1672 C 0.41648 0.54984 0.36056 0.0
H1673 H 0.4295 0.56203 0.45551 0.0
H1674 H 0.45802 0.55817 0.42413 0.0
H1675 H 0.28433 0.55648 0.3876 0.0
H1676 H 0.36977 0.5489 0.29836 0.0
H1677 H 0.34019 0.54618 0.33018 0.0
C1678 C 0.8014 0.69535 0.32115 0.0
C1679 C 0.7733 0.70229 0.30952 0.0
C1680 C 0.82966 0.69792 0.33785 0.0
C1681 C 0.83734 0.71426 0.37536 0.0
H1682 H 0.02117 0.70501 0.37921 0.0
C1683 C 0.98127 0.71421 0.44443 0.0
C1684 C 0.00523 0.70502 0.44864 0.0
C1685 C 0.96186 0.71646 0.42645 0.0
C1686 C 0.97013 0.70771 0.37835 0.0
H1687 H 0.74844 0.71732 0.30696 0.0
H1688 H 0.79718 0.72182 0.33683 0.0
H1689 H 0.96196 0.70397 0.35004 0.0
H1690 H 0.03124 0.69119 0.4375 0.0
H1691 H -0.00017 0.69514 0.40624 0.0
H1692 H 0.84416 0.71743 0.40404 0.0
C1693 C 0.79765 0.7144 0.33265 0.0
C1694 C 0.93632 0.70713 0.36165 0.0
C1695 C 0.76943 0.71181 0.31568 0.0
C1696 C 0.01398 0.69837 0.4345 0.0
C1697 C 0.99581 0.70065 0.41659 0.0
C1698 C 0.8712 0.71479 0.3922 0.0
C1699 C 0.83026 0.70749 0.3435 0.0
C1700 C 0.86884 0.71005 0.36016 0.0
C1701 C 0.96725 0.70959 0.41244 0.0
C1702 C 0.93708 0.71116 0.39402 0.0
H1703 H 0.80452 0.68794 0.31693 0.0
H1704 H 0.85323 0.69244 0.34614 0.0
H1705 H 0.78528 0.71654 0.37454 0.0
H1706 H 0.9727 0.71938 0.45522 0.0
H1707 H 0.94023 0.72342 0.42366 0.0
C1708 C 0.47444 0.69582 0.93587 0.0
C1709 C 0.48551 0.70283 0.9493 0.0
C1710 C 0.44742 0.69826 0.91892 0.0
C1711 C 0.41672 0.71476 0.88344 0.0
H1712 H 0.24288 0.70221 0.87959 0.0
C1713 C 0.26851 0.71332 0.81495 0.0
C1714 C 0.25172 0.70388 0.81023 0.0
C1715 C 0.2879 0.71555 0.83295 0.0
C1716 C 0.29103 0.70582 0.88045 0.0
H1717 H 0.48184 0.71802 0.95501 0.0
H1718 H 0.43517 0.72236 0.92483 0.0
H1719 H 0.30433 0.7018 0.90849 0.0
H1720 H 0.23842 0.68952 0.82056 0.0
H1721 H 0.26997 0.69338 0.85182 0.0
H1722 H 0.40542 0.71823 0.85499 0.0
C1723 C 0.44749 0.71496 0.92766 0.0
C1724 C 0.32602 0.70561 0.897 0.0
C1725 C 0.47464 0.71249 0.94481 0.0
C1726 C 0.25016 0.69688 0.82394 0.0
C1727 C 0.26835 0.69911 0.84187 0.0
C1728 C 0.38174 0.71492 0.86674 0.0
C1729 C 0.4311 0.70779 0.91494 0.0
C1730 C 0.39007 0.70979 0.89848 0.0
C1731 C 0.28967 0.70839 0.8465 0.0
C1732 C 0.31962 0.71013 0.8649 0.0
H1733 H 0.48239 0.68832 0.93894 0.0
H1734 H 0.43575 0.69263 0.90924 0.0
H1735 H 0.46621 0.71799 0.88428 0.0
H1736 H 0.27141 0.7188 0.8045 0.0
H1737 H 0.30381 0.72277 0.83611 0.0
C1738 C 0.96907 0.54699 0.81359 0.0
C1739 C 0.96417 0.55653 0.80759 0.0
C1740 C 0.94383 0.54436 0.83089 0.0
C1741 C 0.80939 0.55135 0.86127 0.0
H1742 H 0.90819 0.54165 0.90306 0.0
C1743 C 0.73855 0.56034 0.93455 0.0
C1744 C 0.75018 0.55383 0.94879 0.0
C1745 C 0.7551 0.558 0.91655 0.0
C1746 C 0.87932 0.54411 0.89141 0.0
H1747 H 0.93452 0.57087 0.81555 0.0
H1748 H 0.8909 0.56629 0.84533 0.0
H1749 H 0.96337 0.54253 0.87302 0.0
H1750 H 0.78622 0.53965 0.95544 0.0
H1751 H 0.81577 0.5355 0.92372 0.0
H1752 H 0.72633 0.55332 0.87953 0.0
C1753 C 0.91304 0.56083 0.83669 0.0
C1754 C 0.91107 0.54464 0.87426 0.0
C1755 C 0.93833 0.56344 0.81965 0.0
C1756 C 0.77542 0.5447 0.9446 0.0
C1757 C 0.79316 0.5424 0.92652 0.0
C1758 C 0.77767 0.55077 0.87828 0.0
C1759 C 0.91325 0.55124 0.84222 0.0
C1760 C 0.87709 0.54863 0.85925 0.0
C1761 C 0.78485 0.54913 0.91238 0.0
C1762 C 0.81311 0.54755 0.89373 0.0
H1763 H 0.98835 0.54151 0.80454 0.0
H1764 H 0.94483 0.53692 0.83497 0.0
H1765 H 0.78192 0.55436 0.84983 0.0
H1766 H 0.72027 0.56747 0.93751 0.0
H1767 H 0.74883 0.56342 0.90611 0.0
C1768 C 0.75518 0.4472 0.57659 0.0
C1769 C 0.74843 0.45402 0.56267 0.0
C1770 C 0.73775 0.44943 0.59458 0.0
C1771 C 0.61845 0.46414 0.61974 0.0
H1772 H 0.70761 0.45247 0.66131 0.0
C1773 C 0.52791 0.46156 0.69767 0.0
C1774 C 0.52734 0.45195 0.70331 0.0
C1775 C 0.55315 0.46404 0.6803 0.0
C1776 C 0.6825 0.45587 0.64987 0.0
H1777 H 0.72013 0.46862 0.55656 0.0
H1778 H 0.68897 0.47256 0.58828 0.0
H1779 H 0.76569 0.4533 0.63194 0.0
H1780 H 0.54667 0.43737 0.69471 0.0
H1781 H 0.59008 0.44167 0.6647 0.0
H1782 H 0.53415 0.46636 0.63781 0.0
C1783 C 0.70844 0.46551 0.58524 0.0
C1784 C 0.71563 0.45633 0.63306 0.0
C1785 C 0.72711 0.4633 0.56718 0.0
C1786 C 0.54695 0.44484 0.69081 0.0
C1787 C 0.57213 0.4473 0.67366 0.0
C1788 C 0.58531 0.46373 0.63671 0.0
C1789 C 0.71197 0.4585 0.59904 0.0
C1790 C 0.683 0.4601 0.61759 0.0
C1791 C 0.57809 0.45691 0.66853 0.0
C1792 C 0.61623 0.45924 0.65169 0.0
H1793 H 0.77045 0.43996 0.57337 0.0
H1794 H 0.74026 0.4438 0.60475 0.0
H1795 H 0.59176 0.46704 0.60807 0.0
H1796 H 0.51372 0.46718 0.70711 0.0
H1797 H 0.55712 0.47151 0.67655 0.0
C1798 C 0.96532 0.30936 0.5719 0.0
C1799 C 0.9825 0.30313 0.55762 0.0
C1800 C 0.98253 0.30717 0.58993 0.0
C1801 C 0.11618 0.29522 0.61501 0.0
H1802 H 0.01003 0.30322 0.65682 0.0
C1803 C 0.21576 0.29875 0.69098 0.0
C1804 C 0.19828 0.30759 0.69888 0.0
C1805 C 0.18873 0.29606 0.67392 0.0
C1806 C 0.04024 0.30089 0.6453 0.0
H1807 H 0.02943 0.28963 0.55087 0.0
H1808 H 0.06011 0.28577 0.58262 0.0
H1809 H 0.95651 0.30172 0.62693 0.0
H1810 H 0.14232 0.32074 0.69447 0.0
H1811 H 0.09601 0.31606 0.66519 0.0
H1812 H 0.20062 0.29482 0.63342 0.0
C1813 C 0.03252 0.29229 0.57985 0.0
C1814 C 0.00956 0.30003 0.62819 0.0
C1815 C 0.01413 0.29442 0.56176 0.0
C1816 C 0.15618 0.31382 0.689 0.0
C1817 C 0.12915 0.31112 0.67221 0.0
C1818 C 0.14697 0.29608 0.63222 0.0
C1819 C 0.01864 0.29879 0.59406 0.0
C1820 C 0.04766 0.29756 0.6127 0.0
C1821 C 0.14353 0.30213 0.66468 0.0
C1822 C 0.10977 0.29931 0.64736 0.0
H1823 H 0.94234 0.31622 0.56895 0.0
H1824 H 0.97184 0.31241 0.60046 0.0
H1825 H 0.14705 0.29336 0.60332 0.0
H1826 H 0.24798 0.2938 0.69825 0.0
H1827 H 0.20109 0.28911 0.66831 0.0
C1828 C 0.52119 0.2942 0.06081 0.0
C1829 C 0.50047 0.30357 0.05683 0.0
C1830 C 0.54096 0.29174 0.07866 0.0
C1831 C 0.54058 0.30039 0.12693 0.0
H1832 H 0.72217 0.29017 0.1292 0.0
C1833 C 0.72711 0.31167 0.18079 0.0
C1834 C 0.73847 0.30486 0.19458 0.0
C1835 C 0.6999 0.30897 0.16401 0.0
C1836 C 0.67094 0.29283 0.12879 0.0
H1837 H 0.48024 0.31753 0.0683 0.0
H1838 H 0.51235 0.31324 0.09933 0.0
H1839 H 0.66003 0.28984 0.10014 0.0
H1840 H 0.73479 0.28977 0.20114 0.0
H1841 H 0.68753 0.28498 0.17128 0.0
H1842 H 0.5534 0.30398 0.15522 0.0
C1843 C 0.51357 0.30774 0.0889 0.0
C1844 C 0.63522 0.29262 0.11222 0.0
C1845 C 0.49502 0.31022 0.07111 0.0
C1846 C 0.72743 0.29514 0.19065 0.0
C1847 C 0.69996 0.29241 0.17369 0.0
C1848 C 0.57628 0.30063 0.14338 0.0
C1849 C 0.5392 0.29859 0.09278 0.0
C1850 C 0.5706 0.29675 0.11096 0.0
C1851 C 0.68364 0.29939 0.16058 0.0
C1852 C 0.64246 0.29714 0.14429 0.0
H1853 H 0.52715 0.28902 0.04992 0.0
H1854 H 0.56023 0.28462 0.08125 0.0
H1855 H 0.49066 0.30351 0.12649 0.0
H1856 H 0.73509 0.31921 0.18344 0.0
H1857 H 0.68798 0.31445 0.15403 0.0
C1858 C 0.01599 0.46479 0.19561 0.0
C1859 C 0.97939 0.45645 0.19958 0.0
C1860 C 0.03294 0.46702 0.17747 0.0
C1861 C 0.99837 0.46073 0.12898 0.0
H1862 H 0.19165 0.46298 0.12224 0.0
C1863 C 0.12674 0.44631 0.06549 0.0
C1864 C 0.17733 0.45161 0.05659 0.0
C1865 C 0.10131 0.4492 0.08234 0.0
C1866 C 0.13749 0.46257 0.12385 0.0
H1867 H 0.92926 0.44415 0.18797 0.0
H1868 H 0.95619 0.44819 0.15634 0.0
H1869 H 0.14325 0.46453 0.15292 0.0
H1870 H 0.24236 0.464 0.0589 0.0
H1871 H 0.19802 0.46902 0.0889 0.0
H1872 H 0.9927 0.45836 0.10011 0.0
C1873 C 0.97182 0.45305 0.16707 0.0
C1874 C 0.10969 0.46347 0.14141 0.0
C1875 C 0.95604 0.45074 0.18516 0.0
C1876 C 0.20341 0.45976 0.06537 0.0
C1877 C 0.17797 0.46264 0.08249 0.0
C1878 C 0.02604 0.45985 0.11149 0.0
C1879 C 0.01272 0.46099 0.16306 0.0
C1880 C 0.04009 0.46218 0.14424 0.0
C1881 C 0.12564 0.45746 0.09095 0.0
C1882 C 0.09615 0.46036 0.10883 0.0
H1883 H 0.03611 0.46914 0.20659 0.0
H1884 H 0.06439 0.47319 0.17478 0.0
H1885 H 0.94451 0.45985 0.13068 0.0
H1886 H 0.1057 0.43993 0.05933 0.0
H1887 H 0.0624 0.44489 0.08869 0.0
C1888 C 0.99649 0.15939 0.0219 0.0
C1889 C 0.04316 0.16647 0.01688 0.0
C1890 C 0.0175 0.14992 0.02457 0.0
C1891 C 0.16816 0.13473 0.03258 0.0
H1892 H 0.06421 0.11527 0.00758 0.0
C1893 C 0.27148 0.09663 0.01781 0.0
C1894 C 0.22538 0.08902 0.01742 0.0
C1895 C 0.24886 0.10605 0.02032 0.0
C1896 C 0.09335 0.12055 0.01496 0.0
H1897 H 0.14895 0.16923 0.01149 0.0
H1898 H 0.18526 0.15281 0.01617 0.0
H1899 H 0.02416 0.13169 0.00787 0.0
H1900 H 0.12007 0.08523 0.02059 0.0
H1901 H 0.08117 0.10148 0.02554 0.0
H1902 H 0.23766 0.12359 0.03958 0.0
C1903 C 0.13253 0.15454 0.01808 0.0
C1904 C 0.07026 0.12999 0.0151 0.0
C1905 C 0.11152 0.16395 0.01526 0.0
C1906 C 0.15684 0.09095 0.02054 0.0
C1907 C 0.13442 0.1003 0.02326 0.0
C1908 C 0.1911 0.12526 0.03256 0.0
C1909 C 0.08569 0.14737 0.02246 0.0
C1910 C 0.10771 0.13722 0.02373 0.0
C1911 C 0.17975 0.10802 0.02269 0.0
C1912 C 0.15429 0.11805 0.02359 0.0
H1913 H 0.94351 0.16109 0.02328 0.0
H1914 H 0.98028 0.14457 0.0281 0.0
H1915 H 0.19786 0.14012 0.03951 0.0
H1916 H 0.32458 0.09538 0.01539 0.0
H1917 H 0.28528 0.1118 0.01967 0.0
C1918 C 0.27207 0.16142 0.23577 0.0
C1919 C 0.22219 0.16846 0.23803 0.0
C1920 C 0.25418 0.15174 0.23429 0.0
C1921 C 0.10844 0.13565 0.22482 0.0
H1922 H 0.20896 0.11728 0.25359 0.0
C1923 C 0.00635 0.09781 0.2419 0.0
C1924 C 0.05269 0.09021 0.24235 0.0
C1925 C 0.02862 0.10724 0.23949 0.0
C1926 C 0.18082 0.12228 0.24525 0.0
H1927 H 0.11421 0.17081 0.23991 0.0
H1928 H 0.0836 0.1541 0.23747 0.0
H1929 H 0.24669 0.13384 0.25226 0.0
H1930 H 0.15872 0.0866 0.23993 0.0
H1931 H 0.19703 0.10293 0.23554 0.0
H1932 H 0.04197 0.12412 0.21804 0.0
C1933 C 0.13642 0.15599 0.23669 0.0
C1934 C 0.20261 0.13178 0.24447 0.0
C1935 C 0.15418 0.16561 0.23825 0.0
C1936 C 0.1215 0.09226 0.23982 0.0
C1937 C 0.14366 0.10165 0.2374 0.0
C1938 C 0.08663 0.12615 0.22561 0.0
C1939 C 0.18607 0.14891 0.23488 0.0
C1940 C 0.16626 0.13862 0.23442 0.0
C1941 C 0.09771 0.10929 0.23746 0.0
C1942 C 0.12216 0.11935 0.23598 0.0
H1943 H 0.32488 0.16336 0.23554 0.0
H1944 H 0.2937 0.14646 0.23273 0.0
H1945 H 0.07978 0.1407 0.21671 0.0
H1946 H 0.95305 0.09651 0.24384 0.0
H1947 H 0.99183 0.11296 0.23975 0.0
C1948 C 0.8816 0.84096 0.99187 0.0
C1949 C 0.95026 0.83854 0.99304 0.0
C1950 C 0.86147 0.85045 0.98974 0.0
C1951 C 0.92114 0.87468 0.97684 0.0
H1952 H 0.76647 0.88281 0.00534 0.0
C1953 C 0.85469 0.91437 0.98893 0.0
C1954 C 0.78646 0.91712 0.98921 0.0
C1955 C 0.87297 0.90476 0.98753 0.0
C1956 C 0.80906 0.88064 0.99706 0.0
H1957 H 0.05173 0.84424 0.99239 0.0
H1958 H 0.01646 0.86092 0.98895 0.0
H1959 H 0.80331 0.86624 0.0067 0.0
H1960 H 0.68393 0.91185 0.98773 0.0
H1961 H 0.71598 0.89498 0.98525 0.0
H1962 H 0.92741 0.88918 0.96748 0.0
C1963 C 0.97819 0.85541 0.98948 0.0
C1964 C 0.83035 0.87112 0.99784 0.0
C1965 C -0.00152 0.84585 0.99152 0.0
C1966 C 0.73689 0.90999 0.98758 0.0
C1967 C 0.75528 0.90033 0.98628 0.0
C1968 C 0.89992 0.88423 0.97609 0.0
C1969 C 0.9093 0.85784 0.98884 0.0
C1970 C 0.88677 0.86801 0.98778 0.0
C1971 C 0.82361 0.8976 0.98642 0.0
C1972 C 0.84379 0.88733 0.98627 0.0
H1973 H 0.84293 0.83552 0.99273 0.0
H1974 H 0.80811 0.852 0.98885 0.0
H1975 H 0.96413 0.87253 0.9687 0.0
H1976 H 0.89441 0.91964 0.99009 0.0
H1977 H 0.92597 0.90293 0.9879 0.0
C1978 C 0.84019 0.84213 0.77311 0.0
C1979 C 0.77278 0.84026 0.76836 0.0
C1980 C 0.8632 0.8515 0.77515 0.0
C1981 C 0.80694 0.87671 0.78059 0.0
H1982 H 0.98112 0.8824 0.75912 0.0
C1983 C 0.89165 0.91495 0.76238 0.0
C1984 C 0.9594 0.91754 0.76508 0.0
C1985 C 0.87022 0.90556 0.76527 0.0
C1986 C 0.93291 0.88092 0.76546 0.0
H1987 H 0.6762 0.84683 0.76259 0.0
H1988 H 0.71661 0.86323 0.76587 0.0
H1989 H 0.94023 0.866 0.75946 0.0
H1990 H 0.05747 0.9123 0.77341 0.0
H1991 H 0.0199 0.89583 0.77846 0.0
H1992 H 0.79913 0.8917 0.78616 0.0
C1993 C 0.75155 0.85742 0.76825 0.0
C1994 C 0.90935 0.8715 0.76566 0.0
C1995 C 0.72837 0.84801 0.76629 0.0
C1996 C 0.00498 0.91054 0.77118 0.0
C1997 C 0.98353 0.9011 0.77397 0.0
C1998 C 0.83044 0.88614 0.78034 0.0
C1999 C 0.81959 0.85928 0.7724 0.0
C2000 C 0.84576 0.86927 0.77307 0.0
C2001 C 0.91596 0.89849 0.77088 0.0
C2002 C 0.8934 0.88838 0.77258 0.0
H2003 H 0.87572 0.83633 0.775 0.0
H2004 H 0.91551 0.85265 0.77874 0.0
H2005 H 0.75829 0.87524 0.78669 0.0
H2006 H 0.855 0.92014 0.75774 0.0
H2007 H 0.81806 0.90379 0.76254 0.0
C2008 C 0.10849 0.66668 0.51853 0.0
C2009 C 0.03996 0.66898 0.5163 0.0
C2010 C 0.12881 0.65722 0.52119 0.0
C2011 C 0.07436 0.63274 0.51125 0.0
H2012 H 0.21986 0.62552 0.54389 0.0
C2013 C 0.15255 0.59352 0.51862 0.0
C2014 C 0.22179 0.59142 0.51902 0.0
C2015 C 0.1297 0.60288 0.52059 0.0
C2016 C 0.17959 0.62744 0.53459 0.0
H2017 H 0.93885 0.66313 0.51575 0.0
H2018 H 0.97442 0.64657 0.5204 0.0
H2019 H 0.17973 0.64205 0.54346 0.0
H2020 H 0.32131 0.5975 0.52252 0.0
H2021 H 0.28142 0.614 0.52558 0.0
H2022 H 0.07497 0.61827 0.502 0.0
C2023 C 0.01244 0.65212 0.51993 0.0
C2024 C 0.15645 0.6369 0.53438 0.0
C2025 C 0.99201 0.66161 0.51737 0.0
C2026 C 0.26766 0.59889 0.52216 0.0
C2027 C 0.2447 0.60834 0.52397 0.0
C2028 C 0.09762 0.62332 0.51139 0.0
C2029 C 0.08119 0.6498 0.52159 0.0
C2030 C 0.10365 0.63966 0.52267 0.0
C2031 C 0.17542 0.61046 0.52281 0.0
C2032 C 0.15057 0.62053 0.52304 0.0
H2033 H 0.14685 0.67218 0.51786 0.0
H2034 H 0.18215 0.65569 0.52225 0.0
H2035 H 0.03462 0.63466 0.50179 0.0
H2036 H 0.1157 0.58791 0.51652 0.0
H2037 H 0.07595 0.60419 0.52013 0.0
C2038 C 0.26154 0.66094 0.74013 0.0
C2039 C 0.21337 0.66824 0.74202 0.0
C2040 C 0.24132 0.65143 0.7375 0.0
C2041 C 0.09499 0.63623 0.7244 0.0
H2042 H 0.18514 0.61713 0.75398 0.0
C2043 C 0.98673 0.59813 0.73711 0.0
C2044 C 0.03292 0.59056 0.73873 0.0
C2045 C 0.00957 0.60758 0.73525 0.0
C2046 C 0.15998 0.62232 0.74537 0.0
H2047 H 0.10607 0.67127 0.74194 0.0
H2048 H 0.07119 0.65479 0.73749 0.0
H2049 H 0.22487 0.63356 0.75449 0.0
H2050 H 0.13924 0.58694 0.73853 0.0
H2051 H 0.17864 0.60326 0.73492 0.0
H2052 H 0.0295 0.62496 0.71548 0.0
C2053 C 0.12456 0.65638 0.73791 0.0
C2054 C 0.18289 0.63177 0.74567 0.0
C2055 C 0.14469 0.66585 0.7406 0.0
C2056 C 0.10218 0.5926 0.73758 0.0
C2057 C 0.12489 0.60199 0.73562 0.0
C2058 C 0.07208 0.62675 0.72408 0.0
C2059 C 0.17251 0.64902 0.7366 0.0
C2060 C 0.15046 0.63886 0.73529 0.0
C2061 C 0.07906 0.60963 0.73488 0.0
C2062 C 0.10411 0.61969 0.73464 0.0
H2063 H 0.31483 0.66252 0.7411 0.0
H2064 H 0.27962 0.64596 0.7363 0.0
H2065 H 0.06928 0.64149 0.71607 0.0
H2066 H 0.93307 0.59681 0.73799 0.0
H2067 H 0.97281 0.61329 0.73482 0.0
C2068 C 0.85345 0.41612 0.4931 0.0
C2069 C 0.78449 0.41821 0.49509 0.0
C2070 C 0.87543 0.40673 0.49071 0.0
C2071 C 0.82022 0.38226 0.4784 0.0
H2072 H 0.97534 0.37473 0.50727 0.0
C2073 C 0.89134 0.3428 0.49132 0.0
C2074 C 0.95985 0.34028 0.49246 0.0
C2075 C 0.87188 0.35235 0.48946 0.0
C2076 C 0.93271 0.37673 0.49886 0.0
H2077 H 0.68438 0.41202 0.49548 0.0
H2078 H 0.72294 0.39554 0.49145 0.0
H2079 H 0.9366 0.39121 0.50811 0.0
H2080 H 0.06172 0.34586 0.49187 0.0
H2081 H 0.02771 0.36256 0.48843 0.0
H2082 H 0.81598 0.36771 0.46932 0.0
C2083 C 0.75994 0.40123 0.49161 0.0
C2084 C 0.91034 0.3862 0.49936 0.0
C2085 C 0.73781 0.41067 0.49398 0.0
C2086 C 0.00854 0.34754 0.49111 0.0
C2087 C 0.989 0.35713 0.48926 0.0
C2088 C 0.84269 0.37277 0.47787 0.0
C2089 C 0.82917 0.39914 0.49028 0.0
C2090 C 0.8536 0.38908 0.48923 0.0
C2091 C 0.92034 0.35965 0.48868 0.0
C2092 C 0.89894 0.36987 0.48821 0.0
H2093 H 0.8909 0.42175 0.49368 0.0
H2094 H 0.92896 0.40541 0.48935 0.0
H2095 H 0.77694 0.38426 0.47023 0.0
H2096 H 0.85232 0.33741 0.49228 0.0
H2097 H 0.81861 0.35401 0.48929 0.0
C2098 C 0.74425 0.34786 0.26424 0.0
C2099 C 0.79098 0.34038 0.26224 0.0
C2100 C 0.76637 0.35731 0.26644 0.0
C2101 C 0.91443 0.37255 0.25665 0.0
H2102 H 0.82514 0.39084 0.28823 0.0
C2103 C 0.01315 0.41122 0.26432 0.0
C2104 C 0.96418 0.41847 0.2638 0.0
C2105 C 0.99409 0.40162 0.26619 0.0
C2106 C 0.8504 0.38583 0.27925 0.0
H2107 H 0.89768 0.33695 0.26189 0.0
H2108 H 0.93579 0.35331 0.26594 0.0
H2109 H 0.78665 0.37426 0.28764 0.0
H2110 H 0.85677 0.4213 0.26545 0.0
H2111 H 0.82386 0.40466 0.2685 0.0
H2112 H 0.97746 0.3841 0.24802 0.0
C2113 C 0.88213 0.35194 0.2654 0.0
C2114 C 0.82824 0.37633 0.2789 0.0
C2115 C 0.86014 0.34253 0.26318 0.0
C2116 C 0.89598 0.41592 0.26577 0.0
C2117 C 0.87701 0.40635 0.26765 0.0
C2118 C 0.93651 0.38203 0.25698 0.0
C2119 C 0.83567 0.35948 0.26669 0.0
C2120 C 0.85981 0.36957 0.26753 0.0
C2121 C 0.92566 0.39905 0.26763 0.0
C2122 C 0.90456 0.38882 0.26819 0.0
H2123 H 0.69066 0.34645 0.26357 0.0
H2124 H 0.72917 0.36296 0.26729 0.0
H2125 H 0.93922 0.36759 0.24747 0.0
H2126 H 0.0661 0.41293 0.26291 0.0
H2127 H 0.03298 0.39619 0.26638 0.0
C2128 C 0.62004 0.09295 0.51123 0.0
C2129 C 0.68778 0.09043 0.51421 0.0
C2130 C 0.5977 0.10227 0.51438 0.0
C2131 C 0.65859 0.12691 0.51519 0.0
H2132 H 0.48485 0.13244 0.53707 0.0
C2133 C 0.56875 0.16566 0.52361 0.0
C2134 C 0.50099 0.16768 0.51958 0.0
C2135 C 0.59092 0.15624 0.5255 0.0
C2136 C 0.5332 0.13102 0.53077 0.0
H2137 H 0.78481 0.09571 0.52329 0.0
H2138 H 0.74576 0.11208 0.52867 0.0
H2139 H 0.52564 0.11597 0.53596 0.0
H2140 H 0.40278 0.16137 0.51498 0.0
H2141 H 0.44176 0.14485 0.5178 0.0
H2142 H 0.66562 0.14184 0.50941 0.0
C2143 C 0.71008 0.1068 0.52383 0.0
C2144 C 0.55669 0.12159 0.53021 0.0
C2145 C 0.73237 0.09742 0.52084 0.0
C2146 C 0.45526 0.16005 0.51814 0.0
C2147 C 0.47768 0.15058 0.51982 0.0
C2148 C 0.63496 0.13632 0.51562 0.0
C2149 C 0.64258 0.10934 0.52047 0.0
C2150 C 0.61949 0.11942 0.5223 0.0
C2151 C 0.54616 0.14855 0.52316 0.0
C2152 C 0.5718 0.13852 0.52334 0.0
H2153 H 0.58416 0.08774 0.5062 0.0
H2154 H 0.54561 0.10401 0.51148 0.0
H2155 H 0.70661 0.12547 0.50871 0.0
H2156 H 0.60517 0.17138 0.52508 0.0
H2157 H 0.64355 0.155 0.52858 0.0
C2158 C 0.48408 0.09784 0.73888 0.0
C2159 C 0.53169 0.09044 0.74027 0.0
C2160 C 0.50504 0.10736 0.73704 0.0
C2161 C 0.65386 0.12255 0.7257 0.0
H2162 H 0.56125 0.14141 0.7553 0.0
C2163 C 0.76248 0.16034 0.74096 0.0
C2164 C 0.71664 0.168 0.74148 0.0
C2165 C 0.73941 0.15092 0.73896 0.0
C2166 C 0.5872 0.13627 0.74675 0.0
H2167 H 0.63879 0.08726 0.74023 0.0
H2168 H 0.67493 0.10376 0.73728 0.0
H2169 H 0.52055 0.12501 0.75476 0.0
H2170 H 0.61069 0.17175 0.73954 0.0
H2171 H 0.571 0.15544 0.73592 0.0
H2172 H 0.72125 0.13384 0.71797 0.0
C2173 C 0.62143 0.10225 0.73739 0.0
C2174 C 0.5637 0.12685 0.74641 0.0
C2175 C 0.60057 0.09276 0.73922 0.0
C2176 C 0.64754 0.16604 0.73938 0.0
C2177 C 0.6246 0.15666 0.7374 0.0
C2178 C 0.67749 0.13198 0.72608 0.0
C2179 C 0.57405 0.1097 0.73652 0.0
C2180 C 0.59691 0.11985 0.73597 0.0
C2181 C 0.67003 0.14896 0.73747 0.0
C2182 C 0.64457 0.13895 0.73667 0.0
H2183 H 0.43066 0.09632 0.73957 0.0
H2184 H 0.46712 0.11291 0.73614 0.0
H2185 H 0.68018 0.11738 0.71731 0.0
H2186 H 0.816 0.16159 0.74255 0.0
H2187 H 0.77575 0.14515 0.73918 0.0
C2188 C 0.33618 0.91683 0.48368 0.0
C2189 C 0.26888 0.91865 0.48859 0.0
C2190 C 0.35931 0.90747 0.48149 0.0
C2191 C 0.30347 0.88223 0.47609 0.0
H2192 H 0.47803 0.87661 0.49738 0.0
C2193 C 0.38823 0.8441 0.49493 0.0
C2194 C 0.45593 0.84147 0.49223 0.0
C2195 C 0.36686 0.85346 0.49181 0.0
C2196 C 0.42973 0.87807 0.49109 0.0
H2197 H 0.17254 0.91203 0.49446 0.0
H2198 H 0.21314 0.89566 0.49093 0.0
H2199 H 0.43699 0.893 0.49697 0.0
H2200 H 0.55395 0.84663 0.48365 0.0
H2201 H 0.51649 0.86308 0.47822 0.0
H2202 H 0.29569 0.86721 0.47067 0.0
C2203 C 0.24792 0.90149 0.48853 0.0
C2204 C 0.40608 0.88749 0.49085 0.0
C2205 C 0.22462 0.91088 0.49063 0.0
C2206 C 0.50151 0.84841 0.48589 0.0
C2207 C 0.48012 0.85784 0.48287 0.0
C2208 C 0.32707 0.8728 0.47639 0.0
C2209 C 0.31591 0.89966 0.48425 0.0
C2210 C 0.34232 0.88968 0.48352 0.0
C2211 C 0.41261 0.86048 0.48597 0.0
C2212 C 0.39014 0.87059 0.4841 0.0
H2213 H 0.37157 0.92264 0.4818 0.0
H2214 H 0.41155 0.90635 0.47779 0.0
H2215 H 0.25469 0.88366 0.47006 0.0
H2216 H 0.35158 0.83894 0.49975 0.0
H2217 H 0.31476 0.85526 0.49455 0.0
C2218 C 0.52093 0.9118 0.27076 0.0
C2219 C 0.47524 0.91946 0.27016 0.0
C2220 C 0.49765 0.90239 0.27308 0.0
C2221 C 0.34179 0.88795 0.26717 0.0
H2222 H 0.44246 0.86857 0.29339 0.0
C2223 C 0.24121 0.8493 0.27554 0.0
C2224 C 0.288 0.84209 0.27133 0.0
C2225 C 0.26252 0.8588 0.27776 0.0
C2226 C 0.41382 0.8739 0.28598 0.0
H2227 H 0.3697 0.92331 0.27261 0.0
H2228 H 0.32972 0.90709 0.27713 0.0
H2229 H 0.48375 0.88501 0.29282 0.0
H2230 H 0.39422 0.83915 0.26698 0.0
H2231 H 0.43092 0.85558 0.27089 0.0
H2232 H 0.27215 0.87683 0.26025 0.0
C2233 C 0.38321 0.90823 0.2752 0.0
C2234 C 0.43766 0.88333 0.28559 0.0
C2235 C 0.4063 0.91756 0.27272 0.0
C2236 C 0.35665 0.84452 0.27011 0.0
C2237 C 0.3779 0.85395 0.27249 0.0
C2238 C 0.31781 0.87855 0.26766 0.0
C2239 C 0.42825 0.90048 0.275 0.0
C2240 C 0.40223 0.89047 0.27605 0.0
C2241 C 0.3311 0.86124 0.27605 0.0
C2242 C 0.35384 0.87139 0.27691 0.0
H2243 H 0.57432 0.91302 0.26879 0.0
H2244 H 0.53386 0.89661 0.27272 0.0
H2245 H 0.31368 0.89318 0.25937 0.0
H2246 H 0.18803 0.84767 0.27658 0.0
H2247 H 0.22526 0.86425 0.28066 0.0
C2248 C 0.60435 0.66541 0.01747 0.0
C2249 C 0.53559 0.66786 0.01747 0.0
C2250 C 0.62475 0.65592 0.01966 0.0
C2251 C 0.56337 0.63136 0.0129 0.0
H2252 H 0.72641 0.62446 0.03901 0.0
C2253 C 0.64861 0.59217 0.01849 0.0
C2254 C 0.71735 0.59023 0.01559 0.0
C2255 C 0.62594 0.60153 0.02093 0.0
C2256 C 0.68107 0.62628 0.03154 0.0
H2257 H 0.43442 0.66223 0.02045 0.0
H2258 H 0.47014 0.64562 0.02441 0.0
H2259 H 0.68621 0.64096 0.03981 0.0
H2260 H 0.81645 0.59666 0.0136 0.0
H2261 H 0.7767 0.61307 0.01768 0.0
H2262 H 0.55866 0.61676 0.00437 0.0
C2263 C 0.50823 0.65107 0.02247 0.0
C2264 C 0.65792 0.63574 0.03203 0.0
C2265 C 0.48775 0.6606 0.02033 0.0
C2266 C 0.76321 0.59789 0.01582 0.0
C2267 C 0.7404 0.6073 0.01822 0.0
C2268 C 0.58648 0.62192 0.01242 0.0
C2269 C 0.577 0.6486 0.02189 0.0
C2270 C 0.59906 0.63841 0.02258 0.0
C2271 C 0.67127 0.60925 0.02049 0.0
C2272 C 0.64588 0.61926 0.02162 0.0
H2273 H 0.64274 0.6708 0.01535 0.0
H2274 H 0.67801 0.65429 0.01892 0.0
H2275 H 0.51862 0.63319 0.00518 0.0
H2276 H 0.61182 0.58645 0.0186 0.0
H2277 H 0.5726 0.60273 0.02303 0.0
C2278 C 0.62791 0.666 0.24246 0.0
C2279 C 0.69579 0.66878 0.24078 0.0
C2280 C 0.60859 0.6565 0.23977 0.0
C2281 C 0.67621 0.63214 0.24245 0.0
H2282 H 0.508 0.62511 0.21903 0.0
C2283 C 0.60066 0.59275 0.23477 0.0
C2284 C 0.53326 0.59026 0.23834 0.0
C2285 C 0.61972 0.60229 0.23286 0.0
C2286 C 0.55481 0.62696 0.22576 0.0
H2287 H 0.79629 0.66374 0.23435 0.0
H2288 H 0.76246 0.64709 0.22965 0.0
H2289 H 0.544 0.64182 0.21919 0.0
H2290 H 0.43254 0.5959 0.24206 0.0
H2291 H 0.46607 0.61267 0.23906 0.0
H2292 H 0.68656 0.61739 0.24944 0.0
C2293 C 0.7243 0.6523 0.2332 0.0
C2294 C 0.57558 0.63653 0.2258 0.0
C2295 C 0.74365 0.66185 0.23578 0.0
C2296 C 0.48483 0.59757 0.23929 0.0
C2297 C 0.50411 0.60719 0.23752 0.0
C2298 C 0.65538 0.6226 0.24248 0.0
C2299 C 0.65662 0.64949 0.23542 0.0
C2300 C 0.6364 0.63925 0.23424 0.0
C2301 C 0.57212 0.60967 0.23462 0.0
C2302 C 0.59431 0.61987 0.23418 0.0
H2303 H 0.58954 0.67114 0.24622 0.0
H2304 H 0.55622 0.6546 0.24178 0.0
H2305 H 0.72262 0.634 0.24939 0.0
H2306 H 0.63922 0.5873 0.23367 0.0
H2307 H 0.67216 0.60389 0.23015 0.0
C2308 C 0.36459 0.4157 0.9932 0.0
C2309 C 0.29569 0.41786 0.99156 0.0
C2310 C 0.38784 0.40637 0.99083 0.0
C2311 C 0.34065 0.38225 0.97342 0.0
H2312 H 0.47846 0.37397 0.00755 0.0
C2313 C 0.40575 0.34253 0.98701 0.0
C2314 C 0.47362 0.34006 0.98992 0.0
C2315 C 0.38667 0.35208 0.98487 0.0
C2316 C 0.44075 0.37619 0.99772 0.0
H2317 H 0.19735 0.41192 0.98556 0.0
H2318 H 0.23772 0.39551 0.98182 0.0
H2319 H 0.43891 0.3904 0.00838 0.0
H2320 H 0.57499 0.3457 0.9922 0.0
H2321 H 0.54157 0.36242 0.9885 0.0
H2322 H 0.34152 0.36788 0.96316 0.0
C2323 C 0.27401 0.40109 0.98468 0.0
C2324 C 0.41797 0.38564 0.99817 0.0
C2325 C 0.25075 0.41049 0.98688 0.0
C2326 C 0.5223 0.34735 0.99002 0.0
C2327 C 0.50309 0.35694 0.98802 0.0
C2328 C 0.36322 0.37276 0.97305 0.0
C2329 C 0.34279 0.39888 0.98695 0.0
C2330 C 0.36752 0.38881 0.98606 0.0
C2331 C 0.43489 0.35942 0.9857 0.0
C2332 C 0.41341 0.36962 0.98524 0.0
H2333 H 0.40082 0.42122 0.99653 0.0
H2334 H 0.44131 0.40501 0.9922 0.0
H2335 H 0.30244 0.38445 0.96373 0.0
H2336 H 0.36688 0.3371 0.98677 0.0
H2337 H 0.33371 0.35374 0.98327 0.0
C2338 C 0.40676 0.41605 0.77722 0.0
C2339 C 0.47494 0.41803 0.77364 0.0
C2340 C 0.38451 0.40665 0.77944 0.0
C2341 C 0.44229 0.38152 0.78641 0.0
H2342 H 0.27343 0.37549 0.76232 0.0
C2343 C 0.36485 0.34323 0.76598 0.0
C2344 C 0.29698 0.34049 0.7678 0.0
C2345 C 0.38497 0.35261 0.76955 0.0
C2346 C 0.32009 0.37707 0.76939 0.0
H2347 H 0.57372 0.41169 0.77026 0.0
H2348 H 0.53474 0.39522 0.77372 0.0
H2349 H 0.31256 0.39195 0.76323 0.0
H2350 H 0.19728 0.34544 0.77531 0.0
H2351 H 0.23249 0.36193 0.78143 0.0
H2352 H 0.45054 0.36652 0.79198 0.0
C2353 C 0.49848 0.40095 0.77511 0.0
C2354 C 0.34265 0.38653 0.76993 0.0
C2355 C 0.52091 0.4104 0.77307 0.0
C2356 C 0.2499 0.34732 0.77375 0.0
C2357 C 0.27001 0.35677 0.77716 0.0
C2358 C 0.41987 0.37204 0.78575 0.0
C2359 C 0.42967 0.39894 0.77794 0.0
C2360 C 0.40435 0.38889 0.77831 0.0
C2361 C 0.33772 0.35953 0.77491 0.0
C2362 C 0.35883 0.36969 0.77706 0.0
H2363 H 0.37008 0.42177 0.77798 0.0
H2364 H 0.33153 0.40542 0.78207 0.0
H2365 H 0.48944 0.38307 0.79323 0.0
H2366 H 0.4026 0.33815 0.76151 0.0
H2367 H 0.43731 0.35451 0.76748 0.0
loop_
_geom_bond_atom_site_label_1
_geom_bond_atom_site_label_2
_geom_bond_distance
_geom_bond_site_symmetry_2
_ccdc_geom_bond_type
O0 Cd1 2.223 . S
O0 C8 1.315 . S
Cd1 O0 2.223 . S
Cd1 O4 2.297 . S
Cd1 O5 2.439 1_556 S
Cd1 O11 2.240 1_556 S
Cd2 O3 2.240 1_554 S
Cd2 O10 2.223 1_554 S
Cd2 O12 2.297 . S
Cd2 O13 2.439 . S
O3 Cd2 2.240 1_556 S
O3 C8 1.279 . S
O4 Cd1 2.297 . S
O4 C6 1.222 1_556 S
O5 Cd1 2.439 1_554 S
O5 C6 1.229 . S
C6 O4 1.222 1_554 S
C6 O5 1.229 . S
C7 O12 1.247 . S
C7 O13 1.208 . S
C8 O0 1.315 . S
C8 O3 1.279 . S
C9 O10 1.315 1_554 S
C9 O11 1.279 . S
O10 Cd2 2.223 1_556 S
O10 C9 1.315 1_556 S
O11 Cd1 2.240 1_554 S
O11 C9 1.279 . S
O12 Cd2 2.297 . S
O12 C7 1.247 . S
O13 Cd2 2.439 . S
O13 C7 1.208 . S
O14 Cd15 2.223 . S
O14 C22 1.315 . S
Cd15 O14 2.223 . S
Cd15 O18 2.297 . S
Cd15 O19 2.439 1_556 S
Cd15 O25 2.240 1_556 S
Cd16 O17 2.232 1_454 S
Cd16 O24 2.220 1_454 S
Cd16 O26 2.303 . S
Cd16 O27 2.435 1_455 S
O17 Cd16 2.232 1_656 S
O17 C22 1.279 . S
O18 Cd15 2.297 . S
O18 C20 1.224 1_556 S
O19 Cd15 2.439 1_554 S
O19 C20 1.228 . S
C20 O18 1.224 1_554 S
C20 O19 1.228 . S
C21 O26 1.247 . S
C21 O27 1.208 1_455 S
C22 O14 1.315 . S
C22 O17 1.279 . S
C23 O24 1.315 1_554 S
C23 O25 1.279 . S
O24 Cd16 2.220 1_656 S
O24 C23 1.315 1_556 S
O25 Cd15 2.240 1_554 S
O25 C23 1.279 . S
O26 Cd16 2.303 . S
O26 C21 1.247 . S
O27 Cd16 2.435 1_655 S
O27 C21 1.208 1_655 S
O28 Cd29 2.223 . S
O28 C36 1.315 . S
Cd29 O28 2.223 . S
Cd29 O32 2.297 . S
Cd29 O33 2.439 . S
Cd29 O39 2.240 . S
Cd30 O31 2.240 . S
Cd30 O38 2.223 . S
Cd30 O40 2.297 . S
Cd30 O41 2.439 . S
O31 Cd30 2.240 . S
O31 C36 1.279 . S
O32 Cd29 2.297 . S
O32 C34 1.247 . S
O33 Cd29 2.439 . S
O33 C34 1.208 . S
C34 O32 1.247 . S
C34 O33 1.208 . S
C35 O40 1.247 . S
C35 O41 1.208 . S
C36 O28 1.315 . S
C36 O31 1.279 . S
C37 O38 1.315 . S
C37 O39 1.279 . S
O38 Cd30 2.223 . S
O38 C37 1.315 . S
O39 Cd29 2.240 . S
O39 C37 1.279 . S
O40 Cd30 2.297 . S
O40 C35 1.247 . S
O41 Cd30 2.439 . S
O41 C35 1.208 . S
O42 Cd43 2.223 . S
O42 C50 1.315 . S
Cd43 O42 2.223 . S
Cd43 O46 2.297 . S
Cd43 O47 2.439 . S
Cd43 O53 2.240 . S
Cd44 O45 2.232 1_455 S
Cd44 O52 2.220 1_455 S
Cd44 O54 2.303 . S
Cd44 O55 2.435 1_455 S
O45 Cd44 2.232 1_655 S
O45 C50 1.279 . S
O46 Cd43 2.297 . S
O46 C48 1.247 . S
O47 Cd43 2.439 . S
O47 C48 1.208 . S
C48 O46 1.247 . S
C48 O47 1.208 . S
C49 O54 1.247 . S
C49 O55 1.208 1_455 S
C50 O42 1.315 . S
C50 O45 1.279 . S
C51 O52 1.315 . S
C51 O53 1.279 . S
O52 Cd44 2.220 1_655 S
O52 C51 1.315 . S
O53 Cd43 2.240 . S
O53 C51 1.279 . S
O54 Cd44 2.303 . S
O54 C49 1.247 . S
O55 Cd44 2.435 1_655 S
O55 C49 1.208 1_655 S
O56 Cd57 2.223 . S
O56 C64 1.315 . S
Cd57 O56 2.223 . S
Cd57 O60 2.297 . S
Cd57 O61 2.439 1_554 S
Cd57 O67 2.240 1_554 S
Cd58 O59 2.240 1_556 S
Cd58 O66 2.223 1_556 S
Cd58 O68 2.297 . S
Cd58 O69 2.439 . S
O59 Cd58 2.240 1_554 S
O59 C64 1.279 . S
O60 Cd57 2.297 . S
O60 C62 1.222 1_554 S
O61 Cd57 2.439 1_556 S
O61 C62 1.229 . S
C62 O60 1.222 1_556 S
C62 O61 1.229 . S
C63 O68 1.247 . S
C63 O69 1.208 . S
C64 O56 1.315 . S
C64 O59 1.279 . S
C65 O66 1.315 1_556 S
C65 O67 1.279 . S
O66 Cd58 2.223 1_554 S
O66 C65 1.315 1_554 S
O67 Cd57 2.240 1_556 S
O67 C65 1.279 . S
O68 Cd58 2.297 . S
O68 C63 1.247 . S
O69 Cd58 2.439 . S
O69 C63 1.208 . S
O70 Cd71 2.223 . S
O70 C78 1.315 . S
Cd71 O70 2.223 . S
Cd71 O74 2.297 . S
Cd71 O75 2.439 1_554 S
Cd71 O81 2.240 1_554 S
Cd72 O73 2.232 1_656 S
Cd72 O80 2.220 1_656 S
Cd72 O82 2.303 . S
Cd72 O83 2.435 1_655 S
O73 Cd72 2.232 1_454 S
O73 C78 1.279 . S
O74 Cd71 2.297 . S
O74 C76 1.224 1_554 S
O75 Cd71 2.439 1_556 S
O75 C76 1.228 . S
C76 O74 1.224 1_556 S
C76 O75 1.228 . S
C77 O82 1.247 . S
C77 O83 1.208 1_655 S
C78 O70 1.315 . S
C78 O73 1.279 . S
C79 O80 1.315 1_556 S
C79 O81 1.279 . S
O80 Cd72 2.220 1_454 S
O80 C79 1.315 1_554 S
O81 Cd71 2.240 1_556 S
O81 C79 1.279 . S
O82 Cd72 2.303 . S
O82 C77 1.247 . S
O83 Cd72 2.435 1_455 S
O83 C77 1.208 1_455 S
O84 Cd85 2.223 . S
O84 C92 1.315 . S
Cd85 O84 2.223 . S
Cd85 O88 2.297 . S
Cd85 O89 2.439 . S
Cd85 O95 2.240 . S
Cd86 O87 2.240 . S
Cd86 O94 2.223 . S
Cd86 O96 2.297 . S
Cd86 O97 2.439 . S
O87 Cd86 2.240 . S
O87 C92 1.279 . S
O88 Cd85 2.297 . S
O88 C90 1.247 . S
O89 Cd85 2.439 . S
O89 C90 1.208 . S
C90 O88 1.247 . S
C90 O89 1.208 . S
C91 O96 1.247 . S
C91 O97 1.208 . S
C92 O84 1.315 . S
C92 O87 1.279 . S
C93 O94 1.315 . S
C93 O95 1.279 . S
O94 Cd86 2.223 . S
O94 C93 1.315 . S
O95 Cd85 2.240 . S
O95 C93 1.279 . S
O96 Cd86 2.297 . S
O96 C91 1.247 . S
O97 Cd86 2.439 . S
O97 C91 1.208 . S
O98 Cd99 2.223 . S
O98 C106 1.315 . S
Cd99 O98 2.223 . S
Cd99 O102 2.297 . S
Cd99 O103 2.439 . S
Cd99 O109 2.240 . S
Cd100 O101 2.232 1_655 S
Cd100 O108 2.220 1_655 S
Cd100 O110 2.303 . S
Cd100 O111 2.435 1_655 S
O101 Cd100 2.232 1_455 S
O101 C106 1.279 . S
O102 Cd99 2.297 . S
O102 C104 1.247 . S
O103 Cd99 2.439 . S
O103 C104 1.208 . S
C104 O102 1.247 . S
C104 O103 1.208 . S
C105 O110 1.247 . S
C105 O111 1.208 1_655 S
C106 O98 1.315 . S
C106 O101 1.279 . S
C107 O108 1.315 . S
C107 O109 1.279 . S
O108 Cd100 2.220 1_455 S
O108 C107 1.315 . S
O109 Cd99 2.240 . S
O109 C107 1.279 . S
O110 Cd100 2.303 . S
O110 C105 1.247 . S
O111 Cd100 2.435 1_455 S
O111 C105 1.208 1_455 S
O112 Cd113 2.223 . S
O112 C120 1.315 . S
Cd113 O112 2.223 . S
Cd113 O116 2.297 . S
Cd113 O117 2.439 . S
Cd113 O123 2.240 . S
Cd114 O115 2.240 . S
Cd114 O122 2.223 . S
Cd114 O124 2.297 . S
Cd114 O125 2.439 . S
O115 Cd114 2.240 . S
O115 C120 1.279 . S
O116 Cd113 2.297 . S
O116 C118 1.247 . S
O117 Cd113 2.439 . S
O117 C118 1.208 . S
C118 O116 1.247 . S
C118 O117 1.208 . S
C119 O124 1.247 . S
C119 O125 1.208 . S
C120 O112 1.315 . S
C120 O115 1.279 . S
C121 O122 1.315 . S
C121 O123 1.279 . S
O122 Cd114 2.223 . S
O122 C121 1.315 . S
O123 Cd113 2.240 . S
O123 C121 1.279 . S
O124 Cd114 2.297 . S
O124 C119 1.247 . S
O125 Cd114 2.439 . S
O125 C119 1.208 . S
O126 Cd127 2.223 . S
O126 C134 1.315 . S
Cd127 O126 2.223 . S
Cd127 O130 2.297 . S
Cd127 O131 2.439 . S
Cd127 O137 2.240 . S
Cd128 O129 2.231 1_455 S
Cd128 O136 2.220 1_455 S
Cd128 O138 2.304 . S
Cd128 O139 2.435 1_455 S
O129 Cd128 2.231 1_655 S
O129 C134 1.279 . S
O130 Cd127 2.297 . S
O130 C132 1.247 . S
O131 Cd127 2.439 . S
O131 C132 1.208 . S
C132 O130 1.247 . S
C132 O131 1.208 . S
C133 O138 1.247 . S
C133 O139 1.208 1_455 S
C134 O126 1.315 . S
C134 O129 1.279 . S
C135 O136 1.315 . S
C135 O137 1.279 . S
O136 Cd128 2.220 1_655 S
O136 C135 1.315 . S
O137 Cd127 2.240 . S
O137 C135 1.279 . S
O138 Cd128 2.304 . S
O138 C133 1.247 . S
O139 Cd128 2.435 1_655 S
O139 C133 1.208 1_655 S
O140 Cd141 2.223 . S
O140 C148 1.315 . S
Cd141 O140 2.223 . S
Cd141 O144 2.297 . S
Cd141 O145 2.439 . S
Cd141 O151 2.240 . S
Cd142 O143 2.240 . S
Cd142 O150 2.223 . S
Cd142 O152 2.297 . S
Cd142 O153 2.439 . S
O143 Cd142 2.240 . S
O143 C148 1.279 . S
O144 Cd141 2.297 . S
O144 C146 1.247 . S
O145 Cd141 2.439 . S
O145 C146 1.208 . S
C146 O144 1.247 . S
C146 O145 1.208 . S
C147 O152 1.247 . S
C147 O153 1.208 . S
C148 O140 1.315 . S
C148 O143 1.279 . S
C149 O150 1.315 . S
C149 O151 1.279 . S
O150 Cd142 2.223 . S
O150 C149 1.315 . S
O151 Cd141 2.240 . S
O151 C149 1.279 . S
O152 Cd142 2.297 . S
O152 C147 1.247 . S
O153 Cd142 2.439 . S
O153 C147 1.208 . S
O154 Cd155 2.223 . S
O154 C162 1.315 . S
Cd155 O154 2.223 . S
Cd155 O158 2.297 . S
Cd155 O159 2.439 . S
Cd155 O165 2.240 . S
Cd156 O157 2.233 1_455 S
Cd156 O164 2.221 1_455 S
Cd156 O166 2.302 . S
Cd156 O167 2.436 1_455 S
O157 Cd156 2.233 1_655 S
O157 C162 1.279 . S
O158 Cd155 2.297 . S
O158 C160 1.247 . S
O159 Cd155 2.439 . S
O159 C160 1.208 . S
C160 O158 1.247 . S
C160 O159 1.208 . S
C161 O166 1.247 . S
C161 O167 1.208 1_455 S
C162 O154 1.315 . S
C162 O157 1.279 . S
C163 O164 1.315 . S
C163 O165 1.279 . S
O164 Cd156 2.221 1_655 S
O164 C163 1.315 . S
O165 Cd155 2.240 . S
O165 C163 1.279 . S
O166 Cd156 2.302 . S
O166 C161 1.247 . S
O167 Cd156 2.436 1_655 S
O167 C161 1.208 1_655 S
O168 Cd169 2.223 . S
O168 C176 1.315 . S
Cd169 O168 2.223 . S
Cd169 O172 2.297 . S
Cd169 O173 2.439 . S
Cd169 O179 2.240 . S
Cd170 O171 2.240 . S
Cd170 O178 2.223 . S
Cd170 O180 2.297 . S
Cd170 O181 2.439 . S
O171 Cd170 2.240 . S
O171 C176 1.279 . S
O172 Cd169 2.297 . S
O172 C174 1.247 . S
O173 Cd169 2.439 . S
O173 C174 1.208 . S
C174 O172 1.247 . S
C174 O173 1.208 . S
C175 O180 1.247 . S
C175 O181 1.208 . S
C176 O168 1.315 . S
C176 O171 1.279 . S
C177 O178 1.315 . S
C177 O179 1.279 . S
O178 Cd170 2.223 . S
O178 C177 1.315 . S
O179 Cd169 2.240 . S
O179 C177 1.279 . S
O180 Cd170 2.297 . S
O180 C175 1.247 . S
O181 Cd170 2.439 . S
O181 C175 1.208 . S
O182 Cd183 2.223 . S
O182 C190 1.315 . S
Cd183 O182 2.223 . S
Cd183 O186 2.297 . S
Cd183 O187 2.439 . S
Cd183 O193 2.240 . S
Cd184 O185 2.231 1_655 S
Cd184 O192 2.220 1_655 S
Cd184 O194 2.304 . S
Cd184 O195 2.435 1_655 S
O185 Cd184 2.231 1_455 S
O185 C190 1.279 . S
O186 Cd183 2.297 . S
O186 C188 1.247 . S
O187 Cd183 2.439 . S
O187 C188 1.208 . S
C188 O186 1.247 . S
C188 O187 1.208 . S
C189 O194 1.247 . S
C189 O195 1.208 1_655 S
C190 O182 1.315 . S
C190 O185 1.279 . S
C191 O192 1.315 . S
C191 O193 1.279 . S
O192 Cd184 2.220 1_455 S
O192 C191 1.315 . S
O193 Cd183 2.240 . S
O193 C191 1.279 . S
O194 Cd184 2.304 . S
O194 C189 1.247 . S
O195 Cd184 2.435 1_455 S
O195 C189 1.208 1_455 S
O196 Cd197 2.223 . S
O196 C204 1.315 . S
Cd197 O196 2.223 . S
Cd197 O200 2.297 . S
Cd197 O201 2.439 . S
Cd197 O207 2.240 . S
Cd198 O199 2.240 . S
Cd198 O206 2.223 . S
Cd198 O208 2.297 . S
Cd198 O209 2.439 . S
O199 Cd198 2.240 . S
O199 C204 1.279 . S
O200 Cd197 2.297 . S
O200 C202 1.247 . S
O201 Cd197 2.439 . S
O201 C202 1.208 . S
C202 O200 1.247 . S
C202 O201 1.208 . S
C203 O208 1.247 . S
C203 O209 1.208 . S
C204 O196 1.315 . S
C204 O199 1.279 . S
C205 O206 1.315 . S
C205 O207 1.279 . S
O206 Cd198 2.223 . S
O206 C205 1.315 . S
O207 Cd197 2.240 . S
O207 C205 1.279 . S
O208 Cd198 2.297 . S
O208 C203 1.247 . S
O209 Cd198 2.439 . S
O209 C203 1.208 . S
O210 Cd211 2.223 . S
O210 C218 1.315 . S
Cd211 O210 2.223 . S
Cd211 O214 2.297 . S
Cd211 O215 2.439 . S
Cd211 O221 2.240 . S
Cd212 O213 2.233 1_655 S
Cd212 O220 2.221 1_655 S
Cd212 O222 2.302 . S
Cd212 O223 2.436 1_655 S
O213 Cd212 2.233 1_455 S
O213 C218 1.279 . S
O214 Cd211 2.297 . S
O214 C216 1.247 . S
O215 Cd211 2.439 . S
O215 C216 1.208 . S
C216 O214 1.247 . S
C216 O215 1.208 . S
C217 O222 1.247 . S
C217 O223 1.208 1_655 S
C218 O210 1.315 . S
C218 O213 1.279 . S
C219 O220 1.315 . S
C219 O221 1.279 . S
O220 Cd212 2.221 1_455 S
O220 C219 1.315 . S
O221 Cd211 2.240 . S
O221 C219 1.279 . S
O222 Cd212 2.302 . S
O222 C217 1.247 . S
O223 Cd212 2.436 1_455 S
O223 C217 1.208 1_455 S
O224 Cd225 2.223 . S
O224 C232 1.315 . S
Cd225 O224 2.223 . S
Cd225 O228 2.297 1_655 S
Cd225 O229 2.439 . S
Cd225 O235 2.240 . S
Cd226 O227 2.240 . S
Cd226 O234 2.223 . S
Cd226 O236 2.297 . S
Cd226 O237 2.439 . S
O227 Cd226 2.240 . S
O227 C232 1.279 . S
O228 Cd225 2.297 1_455 S
O228 C230 1.247 1_455 S
O229 Cd225 2.439 . S
O229 C230 1.208 . S
C230 O228 1.247 1_655 S
C230 O229 1.208 . S
C231 O236 1.247 . S
C231 O237 1.208 . S
C232 O224 1.315 . S
C232 O227 1.279 . S
C233 O234 1.315 . S
C233 O235 1.279 . S
O234 Cd226 2.223 . S
O234 C233 1.315 . S
O235 Cd225 2.240 . S
O235 C233 1.279 . S
O236 Cd226 2.297 . S
O236 C231 1.247 . S
O237 Cd226 2.439 . S
O237 C231 1.208 . S
O238 Cd239 2.223 . S
O238 C246 1.315 . S
Cd239 O238 2.223 . S
Cd239 O242 2.297 . S
Cd239 O243 2.439 . S
Cd239 O249 2.240 . S
Cd240 O241 2.240 . S
Cd240 O248 2.223 . S
Cd240 O250 2.297 . S
Cd240 O251 2.439 . S
O241 Cd240 2.240 . S
O241 C246 1.279 . S
O242 Cd239 2.297 . S
O242 C244 1.247 . S
O243 Cd239 2.439 . S
O243 C244 1.208 . S
C244 O242 1.247 . S
C244 O243 1.208 . S
C245 O250 1.247 . S
C245 O251 1.208 . S
C246 O238 1.315 . S
C246 O241 1.279 . S
C247 O248 1.315 . S
C247 O249 1.279 . S
O248 Cd240 2.223 . S
O248 C247 1.315 . S
O249 Cd239 2.240 . S
O249 C247 1.279 . S
O250 Cd240 2.297 . S
O250 C245 1.247 . S
O251 Cd240 2.439 . S
O251 C245 1.208 . S
O252 Cd253 2.223 . S
O252 C260 1.315 . S
Cd253 O252 2.223 . S
Cd253 O256 2.297 1_655 S
Cd253 O257 2.439 . S
Cd253 O263 2.240 . S
Cd254 O255 2.240 . S
Cd254 O262 2.223 . S
Cd254 O264 2.297 . S
Cd254 O265 2.439 . S
O255 Cd254 2.240 . S
O255 C260 1.279 . S
O256 Cd253 2.297 1_455 S
O256 C258 1.247 1_455 S
O257 Cd253 2.439 . S
O257 C258 1.208 . S
C258 O256 1.247 1_655 S
C258 O257 1.208 . S
C259 O264 1.247 . S
C259 O265 1.208 . S
C260 O252 1.315 . S
C260 O255 1.279 . S
C261 O262 1.315 . S
C261 O263 1.279 . S
O262 Cd254 2.223 . S
O262 C261 1.315 . S
O263 Cd253 2.240 . S
O263 C261 1.279 . S
O264 Cd254 2.297 . S
O264 C259 1.247 . S
O265 Cd254 2.439 . S
O265 C259 1.208 . S
O266 Cd267 2.223 . S
O266 C274 1.315 . S
Cd267 O266 2.223 . S
Cd267 O270 2.297 . S
Cd267 O271 2.439 . S
Cd267 O277 2.240 . S
Cd268 O269 2.240 . S
Cd268 O276 2.223 . S
Cd268 O278 2.297 . S
Cd268 O279 2.439 . S
O269 Cd268 2.240 . S
O269 C274 1.279 . S
O270 Cd267 2.297 . S
O270 C272 1.247 . S
O271 Cd267 2.439 . S
O271 C272 1.208 . S
C272 O270 1.247 . S
C272 O271 1.208 . S
C273 O278 1.247 . S
C273 O279 1.208 . S
C274 O266 1.315 . S
C274 O269 1.279 . S
C275 O276 1.315 . S
C275 O277 1.279 . S
O276 Cd268 2.223 . S
O276 C275 1.315 . S
O277 Cd267 2.240 . S
O277 C275 1.279 . S
O278 Cd268 2.297 . S
O278 C273 1.247 . S
O279 Cd268 2.439 . S
O279 C273 1.208 . S
O280 Cd281 2.223 . S
O280 C288 1.315 . S
Cd281 O280 2.223 . S
Cd281 O284 2.297 1_455 S
Cd281 O285 2.439 . S
Cd281 O291 2.240 . S
Cd282 O283 2.240 . S
Cd282 O290 2.223 . S
Cd282 O292 2.297 . S
Cd282 O293 2.439 . S
O283 Cd282 2.240 . S
O283 C288 1.279 . S
O284 Cd281 2.297 1_655 S
O284 C286 1.247 1_655 S
O285 Cd281 2.439 . S
O285 C286 1.208 . S
C286 O284 1.247 1_455 S
C286 O285 1.208 . S
C287 O292 1.247 . S
C287 O293 1.208 . S
C288 O280 1.315 . S
C288 O283 1.279 . S
C289 O290 1.315 . S
C289 O291 1.279 . S
O290 Cd282 2.223 . S
O290 C289 1.315 . S
O291 Cd281 2.240 . S
O291 C289 1.279 . S
O292 Cd282 2.297 . S
O292 C287 1.247 . S
O293 Cd282 2.439 . S
O293 C287 1.208 . S
O294 Cd295 2.223 . S
O294 C302 1.315 . S
Cd295 O294 2.223 . S
Cd295 O298 2.297 . S
Cd295 O299 2.439 . S
Cd295 O305 2.240 . S
Cd296 O297 2.240 . S
Cd296 O304 2.223 . S
Cd296 O306 2.297 . S
Cd296 O307 2.439 . S
O297 Cd296 2.240 . S
O297 C302 1.279 . S
O298 Cd295 2.297 . S
O298 C300 1.247 . S
O299 Cd295 2.439 . S
O299 C300 1.208 . S
C300 O298 1.247 . S
C300 O299 1.208 . S
C301 O306 1.247 . S
C301 O307 1.208 . S
C302 O294 1.315 . S
C302 O297 1.279 . S
C303 O304 1.315 . S
C303 O305 1.279 . S
O304 Cd296 2.223 . S
O304 C303 1.315 . S
O305 Cd295 2.240 . S
O305 C303 1.279 . S
O306 Cd296 2.297 . S
O306 C301 1.247 . S
O307 Cd296 2.439 . S
O307 C301 1.208 . S
O308 Cd309 2.223 . S
O308 C316 1.315 . S
Cd309 O308 2.223 . S
Cd309 O312 2.297 1_455 S
Cd309 O313 2.439 . S
Cd309 O319 2.240 . S
Cd310 O311 2.240 . S
Cd310 O318 2.223 . S
Cd310 O320 2.297 . S
Cd310 O321 2.439 . S
O311 Cd310 2.240 . S
O311 C316 1.279 . S
O312 Cd309 2.297 1_655 S
O312 C314 1.247 1_655 S
O313 Cd309 2.439 . S
O313 C314 1.208 . S
C314 O312 1.247 1_455 S
C314 O313 1.208 . S
C315 O320 1.247 . S
C315 O321 1.208 . S
C316 O308 1.315 . S
C316 O311 1.279 . S
C317 O318 1.315 . S
C317 O319 1.279 . S
O318 Cd310 2.223 . S
O318 C317 1.315 . S
O319 Cd309 2.240 . S
O319 C317 1.279 . S
O320 Cd310 2.297 . S
O320 C315 1.247 . S
O321 Cd310 2.439 . S
O321 C315 1.208 . S
O322 Cd323 2.223 . S
O322 C330 1.315 . S
Cd323 O322 2.223 . S
Cd323 O326 2.297 . S
Cd323 O327 2.439 . S
Cd323 O333 2.240 . S
Cd324 O325 2.240 . S
Cd324 O332 2.223 . S
Cd324 O334 2.297 . S
Cd324 O335 2.439 . S
O325 Cd324 2.240 . S
O325 C330 1.279 . S
O326 Cd323 2.297 . S
O326 C328 1.247 . S
O327 Cd323 2.439 . S
O327 C328 1.208 . S
C328 O326 1.247 . S
C328 O327 1.208 . S
C329 O334 1.247 . S
C329 O335 1.208 . S
C330 O322 1.315 . S
C330 O325 1.279 . S
C331 O332 1.315 . S
C331 O333 1.279 . S
O332 Cd324 2.223 . S
O332 C331 1.315 . S
O333 Cd323 2.240 . S
O333 C331 1.279 . S
O334 Cd324 2.297 . S
O334 C329 1.247 . S
O335 Cd324 2.439 . S
O335 C329 1.208 . S
O336 Cd337 2.223 . S
O336 C344 1.315 . S
Cd337 O336 2.223 . S
Cd337 O340 2.297 1_655 S
Cd337 O341 2.439 1_556 S
Cd337 O347 2.240 1_556 S
Cd338 O339 2.240 1_554 S
Cd338 O346 2.223 1_554 S
Cd338 O348 2.297 . S
Cd338 O349 2.439 . S
O339 Cd338 2.240 1_556 S
O339 C344 1.279 . S
O340 Cd337 2.297 1_455 S
O340 C342 1.224 1_456 S
O341 Cd337 2.439 1_554 S
O341 C342 1.228 . S
C342 O340 1.224 1_654 S
C342 O341 1.228 . S
C343 O348 1.247 . S
C343 O349 1.208 . S
C344 O336 1.315 . S
C344 O339 1.279 . S
C345 O346 1.315 1_554 S
C345 O347 1.279 . S
O346 Cd338 2.223 1_556 S
O346 C345 1.315 1_556 S
O347 Cd337 2.240 1_554 S
O347 C345 1.279 . S
O348 Cd338 2.297 . S
O348 C343 1.247 . S
O349 Cd338 2.439 . S
O349 C343 1.208 . S
O350 Cd351 2.223 . S
O350 C358 1.315 . S
Cd351 O350 2.223 . S
Cd351 O354 2.297 . S
Cd351 O355 2.439 1_556 S
Cd351 O361 2.240 1_556 S
Cd352 O353 2.240 1_554 S
Cd352 O360 2.223 1_554 S
Cd352 O362 2.297 . S
Cd352 O363 2.439 . S
O353 Cd352 2.240 1_556 S
O353 C358 1.279 . S
O354 Cd351 2.297 . S
O354 C356 1.224 1_556 S
O355 Cd351 2.439 1_554 S
O355 C356 1.228 . S
C356 O354 1.224 1_554 S
C356 O355 1.228 . S
C357 O362 1.247 . S
C357 O363 1.208 . S
C358 O350 1.315 . S
C358 O353 1.279 . S
C359 O360 1.315 1_554 S
C359 O361 1.279 . S
O360 Cd352 2.223 1_556 S
O360 C359 1.315 1_556 S
O361 Cd351 2.240 1_554 S
O361 C359 1.279 . S
O362 Cd352 2.297 . S
O362 C357 1.247 . S
O363 Cd352 2.439 . S
O363 C357 1.208 . S
O364 Cd365 2.223 . S
O364 C372 1.315 . S
Cd365 O364 2.223 . S
Cd365 O368 2.297 1_655 S
Cd365 O369 2.439 . S
Cd365 O375 2.240 . S
Cd366 O367 2.240 . S
Cd366 O374 2.223 . S
Cd366 O376 2.297 . S
Cd366 O377 2.439 . S
O367 Cd366 2.240 . S
O367 C372 1.279 . S
O368 Cd365 2.297 1_455 S
O368 C370 1.247 1_455 S
O369 Cd365 2.439 . S
O369 C370 1.208 . S
C370 O368 1.247 1_655 S
C370 O369 1.208 . S
C371 O376 1.247 . S
C371 O377 1.208 . S
C372 O364 1.315 . S
C372 O367 1.279 . S
C373 O374 1.315 . S
C373 O375 1.279 . S
O374 Cd366 2.223 . S
O374 C373 1.315 . S
O375 Cd365 2.240 . S
O375 C373 1.279 . S
O376 Cd366 2.297 . S
O376 C371 1.247 . S
O377 Cd366 2.439 . S
O377 C371 1.208 . S
O378 Cd379 2.223 . S
O378 C386 1.315 . S
Cd379 O378 2.223 . S
Cd379 O382 2.297 . S
Cd379 O383 2.439 . S
Cd379 O389 2.240 . S
Cd380 O381 2.240 . S
Cd380 O388 2.223 . S
Cd380 O390 2.297 . S
Cd380 O391 2.439 . S
O381 Cd380 2.240 . S
O381 C386 1.279 . S
O382 Cd379 2.297 . S
O382 C384 1.247 . S
O383 Cd379 2.439 . S
O383 C384 1.208 . S
C384 O382 1.247 . S
C384 O383 1.208 . S
C385 O390 1.247 . S
C385 O391 1.208 . S
C386 O378 1.315 . S
C386 O381 1.279 . S
C387 O388 1.315 . S
C387 O389 1.279 . S
O388 Cd380 2.223 . S
O388 C387 1.315 . S
O389 Cd379 2.240 . S
O389 C387 1.279 . S
O390 Cd380 2.297 . S
O390 C385 1.247 . S
O391 Cd380 2.439 . S
O391 C385 1.208 . S
O392 Cd393 2.223 . S
O392 C400 1.315 . S
Cd393 O392 2.223 . S
Cd393 O396 2.297 1_455 S
Cd393 O397 2.439 1_554 S
Cd393 O403 2.240 1_554 S
Cd394 O395 2.240 1_556 S
Cd394 O402 2.223 1_556 S
Cd394 O404 2.297 . S
Cd394 O405 2.439 . S
O395 Cd394 2.240 1_554 S
O395 C400 1.279 . S
O396 Cd393 2.297 1_655 S
O396 C398 1.224 1_654 S
O397 Cd393 2.439 1_556 S
O397 C398 1.228 . S
C398 O396 1.224 1_456 S
C398 O397 1.228 . S
C399 O404 1.247 . S
C399 O405 1.208 . S
C400 O392 1.315 . S
C400 O395 1.279 . S
C401 O402 1.315 1_556 S
C401 O403 1.279 . S
O402 Cd394 2.223 1_554 S
O402 C401 1.315 1_554 S
O403 Cd393 2.240 1_556 S
O403 C401 1.279 . S
O404 Cd394 2.297 . S
O404 C399 1.247 . S
O405 Cd394 2.439 . S
O405 C399 1.208 . S
O406 Cd407 2.223 . S
O406 C414 1.315 . S
Cd407 O406 2.223 . S
Cd407 O410 2.297 . S
Cd407 O411 2.439 1_554 S
Cd407 O417 2.240 1_554 S
Cd408 O409 2.240 1_556 S
Cd408 O416 2.223 1_556 S
Cd408 O418 2.297 . S
Cd408 O419 2.439 . S
O409 Cd408 2.240 1_554 S
O409 C414 1.279 . S
O410 Cd407 2.297 . S
O410 C412 1.224 1_554 S
O411 Cd407 2.439 1_556 S
O411 C412 1.228 . S
C412 O410 1.224 1_556 S
C412 O411 1.228 . S
C413 O418 1.247 . S
C413 O419 1.208 . S
C414 O406 1.315 . S
C414 O409 1.279 . S
C415 O416 1.315 1_556 S
C415 O417 1.279 . S
O416 Cd408 2.223 1_554 S
O416 C415 1.315 1_554 S
O417 Cd407 2.240 1_556 S
O417 C415 1.279 . S
O418 Cd408 2.297 . S
O418 C413 1.247 . S
O419 Cd408 2.439 . S
O419 C413 1.208 . S
O420 Cd421 2.223 . S
O420 C428 1.315 . S
Cd421 O420 2.223 . S
Cd421 O424 2.297 1_455 S
Cd421 O425 2.439 . S
Cd421 O431 2.240 . S
Cd422 O423 2.240 . S
Cd422 O430 2.223 . S
Cd422 O432 2.297 . S
Cd422 O433 2.439 . S
O423 Cd422 2.240 . S
O423 C428 1.279 . S
O424 Cd421 2.297 1_655 S
O424 C426 1.247 1_655 S
O425 Cd421 2.439 . S
O425 C426 1.208 . S
C426 O424 1.247 1_455 S
C426 O425 1.208 . S
C427 O432 1.247 . S
C427 O433 1.208 . S
C428 O420 1.315 . S
C428 O423 1.279 . S
C429 O430 1.315 . S
C429 O431 1.279 . S
O430 Cd422 2.223 . S
O430 C429 1.315 . S
O431 Cd421 2.240 . S
O431 C429 1.279 . S
O432 Cd422 2.297 . S
O432 C427 1.247 . S
O433 Cd422 2.439 . S
O433 C427 1.208 . S
O434 Cd435 2.223 . S
O434 C442 1.315 . S
Cd435 O434 2.223 . S
Cd435 O438 2.297 . S
Cd435 O439 2.439 . S
Cd435 O445 2.240 . S
Cd436 O437 2.240 . S
Cd436 O444 2.223 . S
Cd436 O446 2.297 . S
Cd436 O447 2.439 . S
O437 Cd436 2.240 . S
O437 C442 1.279 . S
O438 Cd435 2.297 . S
O438 C440 1.247 . S
O439 Cd435 2.439 . S
O439 C440 1.208 . S
C440 O438 1.247 . S
C440 O439 1.208 . S
C441 O446 1.247 . S
C441 O447 1.208 . S
C442 O434 1.315 . S
C442 O437 1.279 . S
C443 O444 1.315 . S
C443 O445 1.279 . S
O444 Cd436 2.223 . S
O444 C443 1.315 . S
O445 Cd435 2.240 . S
O445 C443 1.279 . S
O446 Cd436 2.297 . S
O446 C441 1.247 . S
O447 Cd436 2.439 . S
O447 C441 1.208 . S
C448 C449 1.349 . S
C448 C450 1.327 . S
C448 H473 0.950 . S
C449 C448 1.349 . S
C449 C465 1.349 . S
C450 C448 1.327 . S
C450 C469 1.429 . S
C450 H474 0.950 . S
C451 C468 1.574 . S
C451 C470 1.368 . S
C451 H475 0.949 . S
H452 C456 0.949 . S
C453 C454 1.349 . S
C453 C455 1.327 . S
C453 H476 0.950 . S
C454 C453 1.349 . S
C454 C466 1.349 . S
C455 C453 1.327 . S
C455 C471 1.429 . S
C455 H477 0.950 . S
C456 H452 0.949 . S
C456 C464 1.574 . S
C456 C472 1.368 . S
H457 C465 0.950 . S
H458 C463 0.950 . S
H459 C464 0.949 . S
H460 C466 0.950 1_655 S
H461 C467 0.950 . S
H462 C468 0.949 . S
C463 H458 0.950 . S
C463 C465 1.327 . S
C463 C469 1.429 . S
C464 C456 1.574 . S
C464 H459 0.949 . S
C464 C470 1.368 . S
C465 C449 1.349 . S
C465 H457 0.950 . S
C465 C463 1.327 . S
C466 C454 1.349 . S
C466 H460 0.950 1_455 S
C466 C467 1.327 . S
C467 H461 0.950 . S
C467 C466 1.327 . S
C467 C471 1.429 . S
C468 C451 1.574 . S
C468 H462 0.949 . S
C468 C472 1.368 . S
C469 C450 1.429 . S
C469 C463 1.429 . S
C469 C470 1.523 . S
C470 C451 1.368 . S
C470 C464 1.368 . S
C470 C469 1.523 . S
C471 C455 1.429 . S
C471 C467 1.429 . S
C471 C472 1.523 . S
C472 C456 1.368 . S
C472 C468 1.368 . S
C472 C471 1.523 . S
H473 C448 0.950 . S
H474 C450 0.950 . S
H475 C451 0.949 . S
H476 C453 0.950 . S
H477 C455 0.950 . S
C478 C479 1.349 . S
C478 C480 1.327 . S
C478 H503 0.950 . S
C479 C478 1.349 . S
C479 C495 1.349 . S
C480 C478 1.327 . S
C480 C499 1.429 . S
C480 H504 0.950 . S
C481 C498 1.574 . S
C481 C500 1.368 . S
C481 H505 0.949 . S
H482 C486 0.949 . S
C483 C484 1.349 . S
C483 C485 1.327 . S
C483 H506 0.950 . S
C484 C483 1.349 . S
C484 C496 1.349 . S
C485 C483 1.327 . S
C485 C501 1.429 . S
C485 H507 0.950 . S
C486 H482 0.949 . S
C486 C494 1.574 . S
C486 C502 1.368 . S
H487 C495 0.950 . S
H488 C493 0.950 . S
H489 C494 0.949 . S
H490 C496 0.950 1_655 S
H491 C497 0.950 . S
H492 C498 0.949 . S
C493 H488 0.950 . S
C493 C495 1.327 . S
C493 C499 1.429 . S
C494 C486 1.574 . S
C494 H489 0.949 . S
C494 C500 1.368 . S
C495 C479 1.349 . S
C495 H487 0.950 . S
C495 C493 1.327 . S
C496 C484 1.349 . S
C496 H490 0.950 1_455 S
C496 C497 1.327 . S
C497 H491 0.950 . S
C497 C496 1.327 . S
C497 C501 1.429 . S
C498 C481 1.574 . S
C498 H492 0.949 . S
C498 C502 1.368 . S
C499 C480 1.429 . S
C499 C493 1.429 . S
C499 C500 1.523 . S
C500 C481 1.368 . S
C500 C494 1.368 . S
C500 C499 1.523 . S
C501 C485 1.429 . S
C501 C497 1.429 . S
C501 C502 1.523 . S
C502 C486 1.368 . S
C502 C498 1.368 . S
C502 C501 1.523 . S
H503 C478 0.950 . S
H504 C480 0.950 . S
H505 C481 0.949 . S
H506 C483 0.950 . S
H507 C485 0.950 . S
C508 C509 1.349 . S
C508 C510 1.327 . S
C508 H533 0.950 . S
C509 C508 1.349 . S
C509 C525 1.349 . S
C510 C508 1.327 . S
C510 C529 1.429 . S
C510 H534 0.950 . S
C511 C528 1.574 . S
C511 C530 1.368 . S
C511 H535 0.949 . S
H512 C516 0.949 . S
C513 C514 1.349 . S
C513 C515 1.327 . S
C513 H536 0.950 . S
C514 C513 1.349 . S
C514 C526 1.349 . S
C515 C513 1.327 . S
C515 C531 1.429 . S
C515 H537 0.950 . S
C516 H512 0.949 . S
C516 C524 1.574 . S
C516 C532 1.368 . S
H517 C525 0.950 1_455 S
H518 C523 0.950 . S
H519 C524 0.949 . S
H520 C526 0.950 . S
H521 C527 0.950 . S
H522 C528 0.949 . S
C523 H518 0.950 . S
C523 C525 1.327 . S
C523 C529 1.429 . S
C524 C516 1.574 . S
C524 H519 0.949 . S
C524 C530 1.368 . S
C525 C509 1.349 . S
C525 H517 0.950 1_655 S
C525 C523 1.327 . S
C526 C514 1.349 . S
C526 H520 0.950 . S
C526 C527 1.327 . S
C527 H521 0.950 . S
C527 C526 1.327 . S
C527 C531 1.429 . S
C528 C511 1.574 . S
C528 H522 0.949 . S
C528 C532 1.368 . S
C529 C510 1.429 . S
C529 C523 1.429 . S
C529 C530 1.523 . S
C530 C511 1.368 . S
C530 C524 1.368 . S
C530 C529 1.523 . S
C531 C515 1.429 . S
C531 C527 1.429 . S
C531 C532 1.523 . S
C532 C516 1.368 . S
C532 C528 1.368 . S
C532 C531 1.523 . S
H533 C508 0.950 . S
H534 C510 0.950 . S
H535 C511 0.949 . S
H536 C513 0.950 . S
H537 C515 0.950 . S
C538 C539 1.349 . S
C538 C540 1.327 . S
C538 H563 0.950 . S
C539 C538 1.349 . S
C539 C555 1.349 . S
C540 C538 1.327 . S
C540 C559 1.429 . S
C540 H564 0.950 . S
C541 C558 1.574 . S
C541 C560 1.368 . S
C541 H565 0.949 . S
H542 C546 0.949 . S
C543 C544 1.349 . S
C543 C545 1.327 . S
C543 H566 0.950 1_655 S
C544 C543 1.349 . S
C544 C556 1.349 . S
C545 C543 1.327 . S
C545 C561 1.429 . S
C545 H567 0.950 . S
C546 H542 0.949 . S
C546 C554 1.574 . S
C546 C562 1.368 . S
H547 C555 0.950 . S
H548 C553 0.950 . S
H549 C554 0.949 . S
H550 C556 0.950 . S
H551 C557 0.950 . S
H552 C558 0.949 . S
C553 H548 0.950 . S
C553 C555 1.327 . S
C553 C559 1.429 . S
C554 C546 1.574 . S
C554 H549 0.949 . S
C554 C560 1.368 . S
C555 C539 1.349 . S
C555 H547 0.950 . S
C555 C553 1.327 . S
C556 C544 1.349 . S
C556 H550 0.950 . S
C556 C557 1.327 . S
C557 H551 0.950 . S
C557 C556 1.327 . S
C557 C561 1.429 . S
C558 C541 1.574 . S
C558 H552 0.949 . S
C558 C562 1.368 . S
C559 C540 1.429 . S
C559 C553 1.429 . S
C559 C560 1.523 . S
C560 C541 1.368 . S
C560 C554 1.368 . S
C560 C559 1.523 . S
C561 C545 1.429 . S
C561 C557 1.429 . S
C561 C562 1.523 . S
C562 C546 1.368 . S
C562 C558 1.368 . S
C562 C561 1.523 . S
H563 C538 0.950 . S
H564 C540 0.950 . S
H565 C541 0.949 . S
H566 C543 0.950 1_455 S
H567 C545 0.950 . S
C568 C569 1.349 . S
C568 C570 1.327 . S
C568 H593 0.950 . S
C569 C568 1.349 . S
C569 C585 1.349 . S
C570 C568 1.327 . S
C570 C589 1.429 . S
C570 H594 0.950 . S
C571 C588 1.574 . S
C571 C590 1.368 . S
C571 H595 0.949 . S
H572 C576 0.949 . S
C573 C574 1.349 . S
C573 C575 1.327 . S
C573 H596 0.950 . S
C574 C573 1.349 . S
C574 C586 1.349 . S
C575 C573 1.327 . S
C575 C591 1.429 . S
C575 H597 0.950 . S
C576 H572 0.949 . S
C576 C584 1.574 . S
C576 C592 1.368 . S
H577 C585 0.950 . S
H578 C583 0.950 . S
H579 C584 0.949 . S
H580 C586 0.950 1_655 S
H581 C587 0.950 . S
H582 C588 0.949 . S
C583 H578 0.950 . S
C583 C585 1.327 . S
C583 C589 1.429 . S
C584 C576 1.574 . S
C584 H579 0.949 . S
C584 C590 1.368 . S
C585 C569 1.349 . S
C585 H577 0.950 . S
C585 C583 1.327 . S
C586 C574 1.349 . S
C586 H580 0.950 1_455 S
C586 C587 1.327 . S
C587 H581 0.950 . S
C587 C586 1.327 . S
C587 C591 1.429 . S
C588 C571 1.574 . S
C588 H582 0.949 . S
C588 C592 1.368 . S
C589 C570 1.429 . S
C589 C583 1.429 . S
C589 C590 1.523 . S
C590 C571 1.368 . S
C590 C584 1.368 . S
C590 C589 1.523 . S
C591 C575 1.429 . S
C591 C587 1.429 . S
C591 C592 1.523 . S
C592 C576 1.368 . S
C592 C588 1.368 . S
C592 C591 1.523 . S
H593 C568 0.950 . S
H594 C570 0.950 . S
H595 C571 0.949 . S
H596 C573 0.950 . S
H597 C575 0.950 . S
C598 C599 1.349 . S
C598 C600 1.327 . S
C598 H623 0.950 . S
C599 C598 1.349 . S
C599 C615 1.349 . S
C600 C598 1.327 . S
C600 C619 1.429 . S
C600 H624 0.950 . S
C601 C618 1.574 . S
C601 C620 1.368 . S
C601 H625 0.949 . S
H602 C606 0.949 . S
C603 C604 1.349 . S
C603 C605 1.327 . S
C603 H626 0.950 . S
C604 C603 1.349 . S
C604 C616 1.349 . S
C605 C603 1.327 . S
C605 C621 1.429 . S
C605 H627 0.950 . S
C606 H602 0.949 . S
C606 C614 1.574 . S
C606 C622 1.368 . S
H607 C615 0.950 1_655 S
H608 C613 0.950 . S
H609 C614 0.949 . S
H610 C616 0.950 . S
H611 C617 0.950 . S
H612 C618 0.949 . S
C613 H608 0.950 . S
C613 C615 1.327 . S
C613 C619 1.429 . S
C614 C606 1.574 . S
C614 H609 0.949 . S
C614 C620 1.368 . S
C615 C599 1.349 . S
C615 H607 0.950 1_455 S
C615 C613 1.327 . S
C616 C604 1.349 . S
C616 H610 0.950 . S
C616 C617 1.327 . S
C617 H611 0.950 . S
C617 C616 1.327 . S
C617 C621 1.429 . S
C618 C601 1.574 . S
C618 H612 0.949 . S
C618 C622 1.368 . S
C619 C600 1.429 . S
C619 C613 1.429 . S
C619 C620 1.523 . S
C620 C601 1.368 . S
C620 C614 1.368 . S
C620 C619 1.523 . S
C621 C605 1.429 . S
C621 C617 1.429 . S
C621 C622 1.523 . S
C622 C606 1.368 . S
C622 C618 1.368 . S
C622 C621 1.523 . S
H623 C598 0.950 . S
H624 C600 0.950 . S
H625 C601 0.949 . S
H626 C603 0.950 . S
H627 C605 0.950 . S
C628 C629 1.349 . S
C628 C630 1.327 . S
C628 H653 0.950 1_655 S
C629 C628 1.349 . S
C629 C645 1.349 . S
C630 C628 1.327 . S
C630 C649 1.429 . S
C630 H654 0.950 . S
C631 C648 1.574 . S
C631 C650 1.368 . S
C631 H655 0.949 . S
H632 C636 0.949 . S
C633 C634 1.349 . S
C633 C635 1.327 . S
C633 H656 0.950 . S
C634 C633 1.349 . S
C634 C646 1.349 . S
C635 C633 1.327 . S
C635 C651 1.429 . S
C635 H657 0.950 . S
C636 H632 0.949 . S
C636 C644 1.574 . S
C636 C652 1.368 . S
H637 C645 0.950 . S
H638 C643 0.950 . S
H639 C644 0.949 . S
H640 C646 0.950 . S
H641 C647 0.950 . S
H642 C648 0.949 . S
C643 H638 0.950 . S
C643 C645 1.327 . S
C643 C649 1.429 . S
C644 C636 1.574 . S
C644 H639 0.949 . S
C644 C650 1.368 . S
C645 C629 1.349 . S
C645 H637 0.950 . S
C645 C643 1.327 . S
C646 C634 1.349 . S
C646 H640 0.950 . S
C646 C647 1.327 . S
C647 H641 0.950 . S
C647 C646 1.327 . S
C647 C651 1.429 . S
C648 C631 1.574 . S
C648 H642 0.949 . S
C648 C652 1.368 . S
C649 C630 1.429 . S
C649 C643 1.429 . S
C649 C650 1.523 . S
C650 C631 1.368 . S
C650 C644 1.368 . S
C650 C649 1.523 . S
C651 C635 1.429 . S
C651 C647 1.429 . S
C651 C652 1.523 . S
C652 C636 1.368 . S
C652 C648 1.368 . S
C652 C651 1.523 . S
H653 C628 0.950 1_455 S
H654 C630 0.950 . S
H655 C631 0.949 . S
H656 C633 0.950 . S
H657 C635 0.950 . S
C658 C659 1.349 . S
C658 C660 1.327 . S
C658 H683 0.950 . S
C659 C658 1.349 . S
C659 C675 1.349 . S
C660 C658 1.327 . S
C660 C679 1.429 . S
C660 H684 0.950 . S
C661 C678 1.574 . S
C661 C680 1.368 . S
C661 H685 0.949 . S
H662 C666 0.949 . S
C663 C664 1.349 . S
C663 C665 1.327 . S
C663 H686 0.950 1_655 S
C664 C663 1.349 . S
C664 C676 1.349 . S
C665 C663 1.327 . S
C665 C681 1.429 . S
C665 H687 0.950 . S
C666 H662 0.949 . S
C666 C674 1.574 . S
C666 C682 1.368 . S
H667 C675 0.950 . S
H668 C673 0.950 . S
H669 C674 0.949 . S
H670 C676 0.950 . S
H671 C677 0.950 . S
H672 C678 0.949 . S
C673 H668 0.950 . S
C673 C675 1.327 . S
C673 C679 1.429 . S
C674 C666 1.574 . S
C674 H669 0.949 . S
C674 C680 1.368 . S
C675 C659 1.349 . S
C675 H667 0.950 . S
C675 C673 1.327 . S
C676 C664 1.349 . S
C676 H670 0.950 . S
C676 C677 1.327 . S
C677 H671 0.950 . S
C677 C676 1.327 . S
C677 C681 1.429 . S
C678 C661 1.574 . S
C678 H672 0.949 . S
C678 C682 1.368 . S
C679 C660 1.429 . S
C679 C673 1.429 . S
C679 C680 1.523 . S
C680 C661 1.368 . S
C680 C674 1.368 . S
C680 C679 1.523 . S
C681 C665 1.429 . S
C681 C677 1.429 . S
C681 C682 1.523 . S
C682 C666 1.368 . S
C682 C678 1.368 . S
C682 C681 1.523 . S
H683 C658 0.950 . S
H684 C660 0.950 . S
H685 C661 0.949 . S
H686 C663 0.950 1_455 S
H687 C665 0.950 . S
C688 C689 1.349 . S
C688 C690 1.327 . S
C688 H713 0.950 . S
C689 C688 1.349 . S
C689 C705 1.349 . S
C690 C688 1.327 . S
C690 C709 1.429 . S
C690 H714 0.950 . S
C691 C708 1.574 . S
C691 C710 1.368 . S
C691 H715 0.949 . S
H692 C696 0.949 . S
C693 C694 1.349 . S
C693 C695 1.327 . S
C693 H716 0.950 . S
C694 C693 1.349 . S
C694 C706 1.349 . S
C695 C693 1.327 . S
C695 C711 1.429 . S
C695 H717 0.950 . S
C696 H692 0.949 . S
C696 C704 1.574 . S
C696 C712 1.368 . S
H697 C705 0.950 . S
H698 C703 0.950 . S
H699 C704 0.949 . S
H700 C706 0.950 . S
H701 C707 0.950 . S
H702 C708 0.949 . S
C703 H698 0.950 . S
C703 C705 1.327 . S
C703 C709 1.429 . S
C704 C696 1.574 . S
C704 H699 0.949 . S
C704 C710 1.368 . S
C705 C689 1.349 . S
C705 H697 0.950 . S
C705 C703 1.327 . S
C706 C694 1.349 . S
C706 H700 0.950 . S
C706 C707 1.327 . S
C707 H701 0.950 . S
C707 C706 1.327 . S
C707 C711 1.429 . S
C708 C691 1.574 . S
C708 H702 0.949 . S
C708 C712 1.368 . S
C709 C690 1.429 . S
C709 C703 1.429 . S
C709 C710 1.523 . S
C710 C691 1.368 . S
C710 C704 1.368 . S
C710 C709 1.523 . S
C711 C695 1.429 . S
C711 C707 1.429 . S
C711 C712 1.523 . S
C712 C696 1.368 . S
C712 C708 1.368 . S
C712 C711 1.523 . S
H713 C688 0.950 . S
H714 C690 0.950 . S
H715 C691 0.949 . S
H716 C693 0.950 . S
H717 C695 0.950 . S
C718 C719 1.349 . S
C718 C720 1.327 . S
C718 H743 0.950 . S
C719 C718 1.349 . S
C719 C735 1.349 . S
C720 C718 1.327 . S
C720 C739 1.429 . S
C720 H744 0.950 . S
C721 C738 1.574 . S
C721 C740 1.368 . S
C721 H745 0.949 . S
H722 C726 0.949 . S
C723 C724 1.349 . S
C723 C725 1.327 . S
C723 H746 0.950 . S
C724 C723 1.349 . S
C724 C736 1.349 . S
C725 C723 1.327 . S
C725 C741 1.429 . S
C725 H747 0.950 . S
C726 H722 0.949 . S
C726 C734 1.574 . S
C726 C742 1.368 . S
H727 C735 0.950 . S
H728 C733 0.950 . S
H729 C734 0.949 . S
H730 C736 0.950 . S
H731 C737 0.950 . S
H732 C738 0.949 . S
C733 H728 0.950 . S
C733 C735 1.327 . S
C733 C739 1.429 . S
C734 C726 1.574 . S
C734 H729 0.949 . S
C734 C740 1.368 . S
C735 C719 1.349 . S
C735 H727 0.950 . S
C735 C733 1.327 . S
C736 C724 1.349 . S
C736 H730 0.950 . S
C736 C737 1.327 . S
C737 H731 0.950 . S
C737 C736 1.327 . S
C737 C741 1.429 . S
C738 C721 1.574 . S
C738 H732 0.949 . S
C738 C742 1.368 . S
C739 C720 1.429 . S
C739 C733 1.429 . S
C739 C740 1.523 . S
C740 C721 1.368 . S
C740 C734 1.368 . S
C740 C739 1.523 . S
C741 C725 1.429 . S
C741 C737 1.429 . S
C741 C742 1.523 . S
C742 C726 1.368 . S
C742 C738 1.368 . S
C742 C741 1.523 . S
H743 C718 0.950 . S
H744 C720 0.950 . S
H745 C721 0.949 . S
H746 C723 0.950 . S
H747 C725 0.950 . S
C748 C749 1.349 . S
C748 C750 1.327 . S
C748 H773 0.950 . S
C749 C748 1.349 . S
C749 C765 1.349 . S
C750 C748 1.327 . S
C750 C769 1.429 . S
C750 H774 0.950 . S
C751 C768 1.574 . S
C751 C770 1.368 . S
C751 H775 0.949 . S
H752 C756 0.949 . S
C753 C754 1.349 . S
C753 C755 1.327 . S
C753 H776 0.950 . S
C754 C753 1.349 . S
C754 C766 1.349 . S
C755 C753 1.327 . S
C755 C771 1.429 . S
C755 H777 0.950 . S
C756 H752 0.949 . S
C756 C764 1.574 . S
C756 C772 1.368 . S
H757 C765 0.950 . S
H758 C763 0.950 . S
H759 C764 0.949 . S
H760 C766 0.950 . S
H761 C767 0.950 . S
H762 C768 0.949 . S
C763 H758 0.950 . S
C763 C765 1.327 . S
C763 C769 1.429 . S
C764 C756 1.574 . S
C764 H759 0.949 . S
C764 C770 1.368 . S
C765 C749 1.349 . S
C765 H757 0.950 . S
C765 C763 1.327 . S
C766 C754 1.349 . S
C766 H760 0.950 . S
C766 C767 1.327 . S
C767 H761 0.950 . S
C767 C766 1.327 . S
C767 C771 1.429 . S
C768 C751 1.574 . S
C768 H762 0.949 . S
C768 C772 1.368 . S
C769 C750 1.429 . S
C769 C763 1.429 . S
C769 C770 1.523 . S
C770 C751 1.368 . S
C770 C764 1.368 . S
C770 C769 1.523 . S
C771 C755 1.429 . S
C771 C767 1.429 . S
C771 C772 1.523 . S
C772 C756 1.368 . S
C772 C768 1.368 . S
C772 C771 1.523 . S
H773 C748 0.950 . S
H774 C750 0.950 . S
H775 C751 0.949 . S
H776 C753 0.950 . S
H777 C755 0.950 . S
C778 C779 1.349 . S
C778 C780 1.327 . S
C778 H803 0.950 . S
C779 C778 1.349 . S
C779 C795 1.349 . S
C780 C778 1.327 . S
C780 C799 1.429 . S
C780 H804 0.950 . S
C781 C798 1.574 . S
C781 C800 1.368 . S
C781 H805 0.949 . S
H782 C786 0.949 . S
C783 C784 1.349 . S
C783 C785 1.327 . S
C783 H806 0.950 . S
C784 C783 1.349 . S
C784 C796 1.349 . S
C785 C783 1.327 . S
C785 C801 1.429 . S
C785 H807 0.950 . S
C786 H782 0.949 . S
C786 C794 1.574 . S
C786 C802 1.368 . S
H787 C795 0.950 . S
H788 C793 0.950 . S
H789 C794 0.949 . S
H790 C796 0.950 . S
H791 C797 0.950 . S
H792 C798 0.949 . S
C793 H788 0.950 . S
C793 C795 1.327 . S
C793 C799 1.429 . S
C794 C786 1.574 . S
C794 H789 0.949 . S
C794 C800 1.368 . S
C795 C779 1.349 . S
C795 H787 0.950 . S
C795 C793 1.327 . S
C796 C784 1.349 . S
C796 H790 0.950 . S
C796 C797 1.327 . S
C797 H791 0.950 . S
C797 C796 1.327 . S
C797 C801 1.429 . S
C798 C781 1.574 . S
C798 H792 0.949 . S
C798 C802 1.368 . S
C799 C780 1.429 . S
C799 C793 1.429 . S
C799 C800 1.523 . S
C800 C781 1.368 . S
C800 C794 1.368 . S
C800 C799 1.523 . S
C801 C785 1.429 . S
C801 C797 1.429 . S
C801 C802 1.523 . S
C802 C786 1.368 . S
C802 C798 1.368 . S
C802 C801 1.523 . S
H803 C778 0.950 . S
H804 C780 0.950 . S
H805 C781 0.949 . S
H806 C783 0.950 . S
H807 C785 0.950 . S
C808 C809 1.349 . S
C808 C810 1.327 . S
C808 H833 0.950 . S
C809 C808 1.349 . S
C809 C825 1.349 . S
C810 C808 1.327 . S
C810 C829 1.429 . S
C810 H834 0.950 . S
C811 C828 1.574 . S
C811 C830 1.368 . S
C811 H835 0.949 . S
H812 C816 0.949 . S
C813 C814 1.349 . S
C813 C815 1.327 . S
C813 H836 0.950 . S
C814 C813 1.349 . S
C814 C826 1.349 . S
C815 C813 1.327 . S
C815 C831 1.429 . S
C815 H837 0.950 . S
C816 H812 0.949 . S
C816 C824 1.574 . S
C816 C832 1.368 . S
H817 C825 0.950 . S
H818 C823 0.950 . S
H819 C824 0.949 . S
H820 C826 0.950 . S
H821 C827 0.950 . S
H822 C828 0.949 . S
C823 H818 0.950 . S
C823 C825 1.327 . S
C823 C829 1.429 . S
C824 C816 1.574 . S
C824 H819 0.949 . S
C824 C830 1.368 . S
C825 C809 1.349 . S
C825 H817 0.950 . S
C825 C823 1.327 . S
C826 C814 1.349 . S
C826 H820 0.950 . S
C826 C827 1.327 . S
C827 H821 0.950 . S
C827 C826 1.327 . S
C827 C831 1.429 . S
C828 C811 1.574 . S
C828 H822 0.949 . S
C828 C832 1.368 . S
C829 C810 1.429 . S
C829 C823 1.429 . S
C829 C830 1.523 . S
C830 C811 1.368 . S
C830 C824 1.368 . S
C830 C829 1.523 . S
C831 C815 1.429 . S
C831 C827 1.429 . S
C831 C832 1.523 . S
C832 C816 1.368 . S
C832 C828 1.368 . S
C832 C831 1.523 . S
H833 C808 0.950 . S
H834 C810 0.950 . S
H835 C811 0.949 . S
H836 C813 0.950 . S
H837 C815 0.950 . S
C838 C839 1.349 . S
C838 C840 1.327 . S
C838 H863 0.950 . S
C839 C838 1.349 . S
C839 C855 1.349 . S
C840 C838 1.327 . S
C840 C859 1.429 . S
C840 H864 0.950 . S
C841 C858 1.574 . S
C841 C860 1.368 . S
C841 H865 0.949 . S
H842 C846 0.949 . S
C843 C844 1.349 . S
C843 C845 1.327 . S
C843 H866 0.950 . S
C844 C843 1.349 . S
C844 C856 1.349 . S
C845 C843 1.327 . S
C845 C861 1.429 . S
C845 H867 0.950 . S
C846 H842 0.949 . S
C846 C854 1.574 . S
C846 C862 1.368 . S
H847 C855 0.950 . S
H848 C853 0.950 . S
H849 C854 0.949 . S
H850 C856 0.950 . S
H851 C857 0.950 . S
H852 C858 0.949 . S
C853 H848 0.950 . S
C853 C855 1.327 . S
C853 C859 1.429 . S
C854 C846 1.574 . S
C854 H849 0.949 . S
C854 C860 1.368 . S
C855 C839 1.349 . S
C855 H847 0.950 . S
C855 C853 1.327 . S
C856 C844 1.349 . S
C856 H850 0.950 . S
C856 C857 1.327 . S
C857 H851 0.950 . S
C857 C856 1.327 . S
C857 C861 1.429 . S
C858 C841 1.574 . S
C858 H852 0.949 . S
C858 C862 1.368 . S
C859 C840 1.429 . S
C859 C853 1.429 . S
C859 C860 1.523 . S
C860 C841 1.368 . S
C860 C854 1.368 . S
C860 C859 1.523 . S
C861 C845 1.429 . S
C861 C857 1.429 . S
C861 C862 1.523 . S
C862 C846 1.368 . S
C862 C858 1.368 . S
C862 C861 1.523 . S
H863 C838 0.950 . S
H864 C840 0.950 . S
H865 C841 0.949 . S
H866 C843 0.950 . S
H867 C845 0.950 . S
C868 C869 1.349 . S
C868 C870 1.327 . S
C868 H893 0.950 . S
C869 C868 1.349 . S
C869 C885 1.349 . S
C870 C868 1.327 . S
C870 C889 1.429 . S
C870 H894 0.950 . S
C871 C888 1.574 . S
C871 C890 1.368 . S
C871 H895 0.949 . S
H872 C876 0.949 . S
C873 C874 1.349 . S
C873 C875 1.327 . S
C873 H896 0.950 . S
C874 C873 1.349 . S
C874 C886 1.349 . S
C875 C873 1.327 . S
C875 C891 1.429 . S
C875 H897 0.950 . S
C876 H872 0.949 . S
C876 C884 1.574 . S
C876 C892 1.368 . S
H877 C885 0.950 . S
H878 C883 0.950 . S
H879 C884 0.949 . S
H880 C886 0.950 . S
H881 C887 0.950 . S
H882 C888 0.949 . S
C883 H878 0.950 . S
C883 C885 1.327 . S
C883 C889 1.429 . S
C884 C876 1.574 . S
C884 H879 0.949 . S
C884 C890 1.368 . S
C885 C869 1.349 . S
C885 H877 0.950 . S
C885 C883 1.327 . S
C886 C874 1.349 . S
C886 H880 0.950 . S
C886 C887 1.327 . S
C887 H881 0.950 . S
C887 C886 1.327 . S
C887 C891 1.429 . S
C888 C871 1.574 . S
C888 H882 0.949 . S
C888 C892 1.368 . S
C889 C870 1.429 . S
C889 C883 1.429 . S
C889 C890 1.523 . S
C890 C871 1.368 . S
C890 C884 1.368 . S
C890 C889 1.523 . S
C891 C875 1.429 . S
C891 C887 1.429 . S
C891 C892 1.523 . S
C892 C876 1.368 . S
C892 C888 1.368 . S
C892 C891 1.523 . S
H893 C868 0.950 . S
H894 C870 0.950 . S
H895 C871 0.949 . S
H896 C873 0.950 . S
H897 C875 0.950 . S
C898 C899 1.349 . S
C898 C900 1.327 . S
C898 H923 0.950 . S
C899 C898 1.349 . S
C899 C915 1.349 . S
C900 C898 1.327 . S
C900 C919 1.429 . S
C900 H924 0.950 . S
C901 C918 1.574 . S
C901 C920 1.368 . S
C901 H925 0.949 . S
H902 C906 0.949 . S
C903 C904 1.349 . S
C903 C905 1.327 . S
C903 H926 0.950 . S
C904 C903 1.349 . S
C904 C916 1.349 . S
C905 C903 1.327 . S
C905 C921 1.429 . S
C905 H927 0.950 . S
C906 H902 0.949 . S
C906 C914 1.574 . S
C906 C922 1.368 . S
H907 C915 0.950 . S
H908 C913 0.950 . S
H909 C914 0.949 . S
H910 C916 0.950 . S
H911 C917 0.950 . S
H912 C918 0.949 . S
C913 H908 0.950 . S
C913 C915 1.327 . S
C913 C919 1.429 . S
C914 C906 1.574 . S
C914 H909 0.949 . S
C914 C920 1.368 . S
C915 C899 1.349 . S
C915 H907 0.950 . S
C915 C913 1.327 . S
C916 C904 1.349 . S
C916 H910 0.950 . S
C916 C917 1.327 . S
C917 H911 0.950 . S
C917 C916 1.327 . S
C917 C921 1.429 . S
C918 C901 1.574 . S
C918 H912 0.949 . S
C918 C922 1.368 . S
C919 C900 1.429 . S
C919 C913 1.429 . S
C919 C920 1.523 . S
C920 C901 1.368 . S
C920 C914 1.368 . S
C920 C919 1.523 . S
C921 C905 1.429 . S
C921 C917 1.429 . S
C921 C922 1.523 . S
C922 C906 1.368 . S
C922 C918 1.368 . S
C922 C921 1.523 . S
H923 C898 0.950 . S
H924 C900 0.950 . S
H925 C901 0.949 . S
H926 C903 0.950 . S
H927 C905 0.950 . S
C928 C929 1.349 1_556 S
C928 C930 1.327 . S
C928 H953 0.950 . S
C929 C928 1.349 1_554 S
C929 C945 1.349 . S
C930 C928 1.327 . S
C930 C949 1.393 1_556 S
C930 H954 0.950 . S
C931 C948 1.574 1_545 S
C931 C950 1.384 . S
C931 H955 0.949 . S
H932 C936 0.949 . S
C933 C934 1.349 1_554 S
C933 C935 1.327 . S
C933 H956 0.950 . S
C934 C933 1.349 1_556 S
C934 C946 1.349 . S
C935 C933 1.327 . S
C935 C951 1.393 1_554 S
C935 H957 0.950 . S
C936 H932 0.949 . S
C936 C944 1.574 1_565 S
C936 C952 1.384 . S
H937 C945 0.950 . S
H938 C943 0.950 . S
H939 C944 0.949 . S
H940 C946 0.950 . S
H941 C947 0.950 . S
H942 C948 0.949 . S
C943 H938 0.950 . S
C943 C945 1.327 . S
C943 C949 1.466 . S
C944 C936 1.574 1_545 S
C944 H939 0.949 . S
C944 C950 1.353 1_556 S
C945 C929 1.349 . S
C945 H937 0.950 . S
C945 C943 1.327 . S
C946 C934 1.349 . S
C946 H940 0.950 . S
C946 C947 1.327 . S
C947 H941 0.950 . S
C947 C946 1.327 . S
C947 C951 1.466 . S
C948 C931 1.574 1_565 S
C948 H942 0.949 . S
C948 C952 1.353 1_554 S
C949 C930 1.393 1_554 S
C949 C943 1.466 . S
C949 C950 1.523 . S
C950 C931 1.384 . S
C950 C944 1.353 1_554 S
C950 C949 1.523 . S
C951 C935 1.393 1_556 S
C951 C947 1.466 . S
C951 C952 1.523 . S
C952 C936 1.384 . S
C952 C948 1.353 1_556 S
C952 C951 1.523 . S
H953 C928 0.950 . S
H954 C930 0.950 . S
H955 C931 0.949 . S
H956 C933 0.950 . S
H957 C935 0.950 . S
C958 C959 1.349 1_554 S
C958 C960 1.327 . S
C958 H983 0.950 . S
C959 C958 1.349 1_556 S
C959 C975 1.349 . S
C960 C958 1.327 . S
C960 C979 1.394 1_554 S
C960 H984 0.950 . S
C961 C978 1.574 . S
C961 C980 1.383 . S
C961 H985 0.949 . S
H962 C966 0.949 . S
C963 C964 1.349 1_556 S
C963 C965 1.327 . S
C963 H986 0.950 . S
C964 C963 1.349 1_554 S
C964 C976 1.349 . S
C965 C963 1.327 . S
C965 C981 1.394 1_556 S
C965 H987 0.950 . S
C966 H962 0.949 . S
C966 C974 1.574 . S
C966 C982 1.383 . S
H967 C975 0.950 . S
H968 C973 0.950 . S
H969 C974 0.949 . S
H970 C976 0.950 . S
H971 C977 0.950 . S
H972 C978 0.949 . S
C973 H968 0.950 . S
C973 C975 1.327 . S
C973 C979 1.465 . S
C974 C966 1.574 . S
C974 H969 0.949 . S
C974 C980 1.353 1_554 S
C975 C959 1.349 . S
C975 H967 0.950 . S
C975 C973 1.327 . S
C976 C964 1.349 . S
C976 H970 0.950 . S
C976 C977 1.327 . S
C977 H971 0.950 . S
C977 C976 1.327 . S
C977 C981 1.465 . S
C978 C961 1.574 . S
C978 H972 0.949 . S
C978 C982 1.353 1_556 S
C979 C960 1.394 1_556 S
C979 C973 1.465 . S
C979 C980 1.523 . S
C980 C961 1.383 . S
C980 C974 1.353 1_556 S
C980 C979 1.523 . S
C981 C965 1.394 1_554 S
C981 C977 1.465 . S
C981 C982 1.523 . S
C982 C966 1.383 . S
C982 C978 1.353 1_554 S
C982 C981 1.523 . S
H983 C958 0.950 . S
H984 C960 0.950 . S
H985 C961 0.949 . S
H986 C963 0.950 . S
H987 C965 0.950 . S
C988 C989 1.349 . S
C988 C990 1.327 . S
C988 H1013 0.950 . S
C989 C988 1.349 . S
C989 C1005 1.349 . S
C990 C988 1.327 . S
C990 C1009 1.429 . S
C990 H1014 0.950 . S
C991 C1008 1.574 . S
C991 C1010 1.368 . S
C991 H1015 0.949 . S
H992 C996 0.949 . S
C993 C994 1.349 . S
C993 C995 1.327 . S
C993 H1016 0.950 . S
C994 C993 1.349 . S
C994 C1006 1.349 . S
C995 C993 1.327 . S
C995 C1011 1.429 . S
C995 H1017 0.950 . S
C996 H992 0.949 . S
C996 C1004 1.574 . S
C996 C1012 1.368 . S
H997 C1005 0.950 . S
H998 C1003 0.950 . S
H999 C1004 0.949 . S
H1000 C1006 0.950 . S
H1001 C1007 0.950 . S
H1002 C1008 0.949 . S
C1003 H998 0.950 . S
C1003 C1005 1.327 . S
C1003 C1009 1.429 . S
C1004 C996 1.574 . S
C1004 H999 0.949 . S
C1004 C1010 1.368 . S
C1005 C989 1.349 . S
C1005 H997 0.950 . S
C1005 C1003 1.327 . S
C1006 C994 1.349 . S
C1006 H1000 0.950 . S
C1006 C1007 1.327 . S
C1007 H1001 0.950 . S
C1007 C1006 1.327 . S
C1007 C1011 1.429 . S
C1008 C991 1.574 . S
C1008 H1002 0.949 . S
C1008 C1012 1.368 . S
C1009 C990 1.429 . S
C1009 C1003 1.429 . S
C1009 C1010 1.523 . S
C1010 C991 1.368 . S
C1010 C1004 1.368 . S
C1010 C1009 1.523 . S
C1011 C995 1.429 . S
C1011 C1007 1.429 . S
C1011 C1012 1.523 . S
C1012 C996 1.368 . S
C1012 C1008 1.368 . S
C1012 C1011 1.523 . S
H1013 C988 0.950 . S
H1014 C990 0.950 . S
H1015 C991 0.949 . S
H1016 C993 0.950 . S
H1017 C995 0.950 . S
C1018 C1019 1.349 . S
C1018 C1020 1.327 . S
C1018 H1043 0.950 . S
C1019 C1018 1.349 . S
C1019 C1035 1.349 . S
C1020 C1018 1.327 . S
C1020 C1039 1.429 . S
C1020 H1044 0.950 . S
C1021 C1038 1.574 1_565 S
C1021 C1040 1.368 . S
C1021 H1045 0.949 . S
H1022 C1026 0.949 . S
C1023 C1024 1.349 . S
C1023 C1025 1.327 . S
C1023 H1046 0.950 . S
C1024 C1023 1.349 . S
C1024 C1036 1.349 . S
C1025 C1023 1.327 . S
C1025 C1041 1.429 . S
C1025 H1047 0.950 . S
C1026 H1022 0.949 . S
C1026 C1034 1.574 1_545 S
C1026 C1042 1.368 . S
H1027 C1035 0.950 . S
H1028 C1033 0.950 . S
H1029 C1034 0.949 . S
H1030 C1036 0.950 . S
H1031 C1037 0.950 . S
H1032 C1038 0.949 . S
C1033 H1028 0.950 . S
C1033 C1035 1.327 . S
C1033 C1039 1.429 . S
C1034 C1026 1.574 1_565 S
C1034 H1029 0.949 . S
C1034 C1040 1.368 . S
C1035 C1019 1.349 . S
C1035 H1027 0.950 . S
C1035 C1033 1.327 . S
C1036 C1024 1.349 . S
C1036 H1030 0.950 . S
C1036 C1037 1.327 . S
C1037 H1031 0.950 . S
C1037 C1036 1.327 . S
C1037 C1041 1.429 . S
C1038 C1021 1.574 1_545 S
C1038 H1032 0.949 . S
C1038 C1042 1.368 . S
C1039 C1020 1.429 . S
C1039 C1033 1.429 . S
C1039 C1040 1.523 . S
C1040 C1021 1.368 . S
C1040 C1034 1.368 . S
C1040 C1039 1.523 . S
C1041 C1025 1.429 . S
C1041 C1037 1.429 . S
C1041 C1042 1.523 . S
C1042 C1026 1.368 . S
C1042 C1038 1.368 . S
C1042 C1041 1.523 . S
H1043 C1018 0.950 . S
H1044 C1020 0.950 . S
H1045 C1021 0.949 . S
H1046 C1023 0.950 . S
H1047 C1025 0.950 . S
C1048 C1049 1.349 1_556 S
C1048 C1050 1.327 . S
C1048 H1073 0.950 . S
C1049 C1048 1.349 1_554 S
C1049 C1065 1.349 . S
C1050 C1048 1.327 . S
C1050 C1069 1.395 1_556 S
C1050 H1074 0.950 . S
C1051 C1068 1.574 . S
C1051 C1070 1.383 . S
C1051 H1075 0.949 . S
H1052 C1056 0.949 . S
C1053 C1054 1.349 1_554 S
C1053 C1055 1.327 . S
C1053 H1076 0.950 . S
C1054 C1053 1.349 1_556 S
C1054 C1066 1.349 . S
C1055 C1053 1.327 . S
C1055 C1071 1.395 1_554 S
C1055 H1077 0.950 . S
C1056 H1052 0.949 . S
C1056 C1064 1.574 . S
C1056 C1072 1.383 . S
H1057 C1065 0.950 . S
H1058 C1063 0.950 . S
H1059 C1064 0.949 . S
H1060 C1066 0.950 . S
H1061 C1067 0.950 . S
H1062 C1068 0.949 . S
C1063 H1058 0.950 . S
C1063 C1065 1.327 . S
C1063 C1069 1.465 . S
C1064 C1056 1.574 . S
C1064 H1059 0.949 . S
C1064 C1070 1.353 1_556 S
C1065 C1049 1.349 . S
C1065 H1057 0.950 . S
C1065 C1063 1.327 . S
C1066 C1054 1.349 . S
C1066 H1060 0.950 . S
C1066 C1067 1.327 . S
C1067 H1061 0.950 . S
C1067 C1066 1.327 . S
C1067 C1071 1.464 . S
C1068 C1051 1.574 . S
C1068 H1062 0.949 . S
C1068 C1072 1.354 1_554 S
C1069 C1050 1.395 1_554 S
C1069 C1063 1.465 . S
C1069 C1070 1.523 . S
C1070 C1051 1.383 . S
C1070 C1064 1.353 1_554 S
C1070 C1069 1.523 . S
C1071 C1055 1.395 1_556 S
C1071 C1067 1.464 . S
C1071 C1072 1.523 . S
C1072 C1056 1.383 . S
C1072 C1068 1.354 1_556 S
C1072 C1071 1.523 . S
H1073 C1048 0.950 . S
H1074 C1050 0.950 . S
H1075 C1051 0.949 . S
H1076 C1053 0.950 . S
H1077 C1055 0.950 . S
C1078 C1079 1.349 . S
C1078 C1080 1.327 . S
C1078 H1103 0.950 . S
C1079 C1078 1.349 . S
C1079 C1095 1.349 . S
C1080 C1078 1.327 . S
C1080 C1099 1.429 . S
C1080 H1104 0.950 . S
C1081 C1098 1.574 . S
C1081 C1100 1.368 . S
C1081 H1105 0.949 . S
H1082 C1086 0.949 . S
C1083 C1084 1.349 . S
C1083 C1085 1.327 . S
C1083 H1106 0.950 . S
C1084 C1083 1.349 . S
C1084 C1096 1.349 . S
C1085 C1083 1.327 . S
C1085 C1101 1.429 . S
C1085 H1107 0.950 . S
C1086 H1082 0.949 . S
C1086 C1094 1.574 . S
C1086 C1102 1.368 . S
H1087 C1095 0.950 . S
H1088 C1093 0.950 . S
H1089 C1094 0.949 . S
H1090 C1096 0.950 . S
H1091 C1097 0.950 . S
H1092 C1098 0.949 . S
C1093 H1088 0.950 . S
C1093 C1095 1.327 . S
C1093 C1099 1.429 . S
C1094 C1086 1.574 . S
C1094 H1089 0.949 . S
C1094 C1100 1.368 . S
C1095 C1079 1.349 . S
C1095 H1087 0.950 . S
C1095 C1093 1.327 . S
C1096 C1084 1.349 . S
C1096 H1090 0.950 . S
C1096 C1097 1.327 . S
C1097 H1091 0.950 . S
C1097 C1096 1.327 . S
C1097 C1101 1.429 . S
C1098 C1081 1.574 . S
C1098 H1092 0.949 . S
C1098 C1102 1.368 . S
C1099 C1080 1.429 . S
C1099 C1093 1.429 . S
C1099 C1100 1.523 . S
C1100 C1081 1.368 . S
C1100 C1094 1.368 . S
C1100 C1099 1.523 . S
C1101 C1085 1.429 . S
C1101 C1097 1.429 . S
C1101 C1102 1.523 . S
C1102 C1086 1.368 . S
C1102 C1098 1.368 . S
C1102 C1101 1.523 . S
H1103 C1078 0.950 . S
H1104 C1080 0.950 . S
H1105 C1081 0.949 . S
H1106 C1083 0.950 . S
H1107 C1085 0.950 . S
C1108 C1109 1.349 . S
C1108 C1110 1.327 . S
C1108 H1133 0.950 . S
C1109 C1108 1.349 . S
C1109 C1125 1.349 . S
C1110 C1108 1.327 . S
C1110 C1129 1.429 . S
C1110 H1134 0.950 . S
C1111 C1128 1.574 1_565 S
C1111 C1130 1.368 . S
C1111 H1135 0.949 . S
H1112 C1116 0.949 . S
C1113 C1114 1.349 . S
C1113 C1115 1.327 . S
C1113 H1136 0.950 . S
C1114 C1113 1.349 . S
C1114 C1126 1.349 . S
C1115 C1113 1.327 . S
C1115 C1131 1.429 . S
C1115 H1137 0.950 . S
C1116 H1112 0.949 . S
C1116 C1124 1.574 1_545 S
C1116 C1132 1.368 . S
H1117 C1125 0.950 . S
H1118 C1123 0.950 . S
H1119 C1124 0.949 . S
H1120 C1126 0.950 . S
H1121 C1127 0.950 . S
H1122 C1128 0.949 . S
C1123 H1118 0.950 . S
C1123 C1125 1.327 . S
C1123 C1129 1.429 . S
C1124 C1116 1.574 1_565 S
C1124 H1119 0.949 . S
C1124 C1130 1.368 . S
C1125 C1109 1.349 . S
C1125 H1117 0.950 . S
C1125 C1123 1.327 . S
C1126 C1114 1.349 . S
C1126 H1120 0.950 . S
C1126 C1127 1.327 . S
C1127 H1121 0.950 . S
C1127 C1126 1.327 . S
C1127 C1131 1.429 . S
C1128 C1111 1.574 1_545 S
C1128 H1122 0.949 . S
C1128 C1132 1.368 . S
C1129 C1110 1.429 . S
C1129 C1123 1.429 . S
C1129 C1130 1.523 . S
C1130 C1111 1.368 . S
C1130 C1124 1.368 . S
C1130 C1129 1.523 . S
C1131 C1115 1.429 . S
C1131 C1127 1.429 . S
C1131 C1132 1.523 . S
C1132 C1116 1.368 . S
C1132 C1128 1.368 . S
C1132 C1131 1.523 . S
H1133 C1108 0.950 . S
H1134 C1110 0.950 . S
H1135 C1111 0.949 . S
H1136 C1113 0.950 . S
H1137 C1115 0.950 . S
C1138 C1139 1.349 . S
C1138 C1140 1.327 . S
C1138 H1163 0.950 . S
C1139 C1138 1.349 . S
C1139 C1155 1.349 . S
C1140 C1138 1.327 . S
C1140 C1159 1.429 . S
C1140 H1164 0.950 . S
C1141 C1158 1.574 . S
C1141 C1160 1.368 . S
C1141 H1165 0.949 . S
H1142 C1146 0.949 . S
C1143 C1144 1.349 . S
C1143 C1145 1.327 . S
C1143 H1166 0.950 . S
C1144 C1143 1.349 . S
C1144 C1156 1.349 . S
C1145 C1143 1.327 . S
C1145 C1161 1.429 . S
C1145 H1167 0.950 . S
C1146 H1142 0.949 . S
C1146 C1154 1.574 . S
C1146 C1162 1.368 . S
H1147 C1155 0.950 . S
H1148 C1153 0.950 . S
H1149 C1154 0.949 . S
H1150 C1156 0.950 . S
H1151 C1157 0.950 . S
H1152 C1158 0.949 . S
C1153 H1148 0.950 . S
C1153 C1155 1.327 . S
C1153 C1159 1.429 . S
C1154 C1146 1.574 . S
C1154 H1149 0.949 . S
C1154 C1160 1.368 . S
C1155 C1139 1.349 . S
C1155 H1147 0.950 . S
C1155 C1153 1.327 . S
C1156 C1144 1.349 . S
C1156 H1150 0.950 . S
C1156 C1157 1.327 . S
C1157 H1151 0.950 . S
C1157 C1156 1.327 . S
C1157 C1161 1.429 . S
C1158 C1141 1.574 . S
C1158 H1152 0.949 . S
C1158 C1162 1.368 . S
C1159 C1140 1.429 . S
C1159 C1153 1.429 . S
C1159 C1160 1.523 . S
C1160 C1141 1.368 . S
C1160 C1154 1.368 . S
C1160 C1159 1.523 . S
C1161 C1145 1.429 . S
C1161 C1157 1.429 . S
C1161 C1162 1.523 . S
C1162 C1146 1.368 . S
C1162 C1158 1.368 . S
C1162 C1161 1.523 . S
H1163 C1138 0.950 . S
H1164 C1140 0.950 . S
H1165 C1141 0.949 . S
H1166 C1143 0.950 . S
H1167 C1145 0.950 . S
C1168 C1169 1.349 . S
C1168 C1170 1.327 . S
C1168 H1193 0.950 . S
C1169 C1168 1.349 . S
C1169 C1185 1.349 . S
C1170 C1168 1.327 . S
C1170 C1189 1.429 . S
C1170 H1194 0.950 . S
C1171 C1188 1.574 . S
C1171 C1190 1.368 . S
C1171 H1195 0.949 . S
H1172 C1176 0.949 . S
C1173 C1174 1.349 . S
C1173 C1175 1.327 . S
C1173 H1196 0.950 . S
C1174 C1173 1.349 . S
C1174 C1186 1.349 . S
C1175 C1173 1.327 . S
C1175 C1191 1.429 . S
C1175 H1197 0.950 . S
C1176 H1172 0.949 . S
C1176 C1184 1.574 . S
C1176 C1192 1.368 . S
H1177 C1185 0.950 . S
H1178 C1183 0.950 . S
H1179 C1184 0.949 . S
H1180 C1186 0.950 . S
H1181 C1187 0.950 . S
H1182 C1188 0.949 . S
C1183 H1178 0.950 . S
C1183 C1185 1.327 . S
C1183 C1189 1.429 . S
C1184 C1176 1.574 . S
C1184 H1179 0.949 . S
C1184 C1190 1.368 . S
C1185 C1169 1.349 . S
C1185 H1177 0.950 . S
C1185 C1183 1.327 . S
C1186 C1174 1.349 . S
C1186 H1180 0.950 . S
C1186 C1187 1.327 . S
C1187 H1181 0.950 . S
C1187 C1186 1.327 . S
C1187 C1191 1.429 . S
C1188 C1171 1.574 . S
C1188 H1182 0.949 . S
C1188 C1192 1.368 . S
C1189 C1170 1.429 . S
C1189 C1183 1.429 . S
C1189 C1190 1.523 . S
C1190 C1171 1.368 . S
C1190 C1184 1.368 . S
C1190 C1189 1.523 . S
C1191 C1175 1.429 . S
C1191 C1187 1.429 . S
C1191 C1192 1.523 . S
C1192 C1176 1.368 . S
C1192 C1188 1.368 . S
C1192 C1191 1.523 . S
H1193 C1168 0.950 . S
H1194 C1170 0.950 . S
H1195 C1171 0.949 . S
H1196 C1173 0.950 . S
H1197 C1175 0.950 . S
C1198 C1199 1.349 . S
C1198 C1200 1.327 . S
C1198 H1223 0.950 . S
C1199 C1198 1.349 . S
C1199 C1215 1.349 . S
C1200 C1198 1.327 . S
C1200 C1219 1.429 . S
C1200 H1224 0.950 . S
C1201 C1218 1.574 . S
C1201 C1220 1.368 . S
C1201 H1225 0.949 . S
H1202 C1206 0.949 . S
C1203 C1204 1.349 . S
C1203 C1205 1.327 . S
C1203 H1226 0.950 . S
C1204 C1203 1.349 . S
C1204 C1216 1.349 . S
C1205 C1203 1.327 . S
C1205 C1221 1.429 . S
C1205 H1227 0.950 . S
C1206 H1202 0.949 . S
C1206 C1214 1.574 . S
C1206 C1222 1.368 . S
H1207 C1215 0.950 . S
H1208 C1213 0.950 . S
H1209 C1214 0.949 . S
H1210 C1216 0.950 . S
H1211 C1217 0.950 . S
H1212 C1218 0.949 . S
C1213 H1208 0.950 . S
C1213 C1215 1.327 . S
C1213 C1219 1.429 . S
C1214 C1206 1.574 . S
C1214 H1209 0.949 . S
C1214 C1220 1.368 . S
C1215 C1199 1.349 . S
C1215 H1207 0.950 . S
C1215 C1213 1.327 . S
C1216 C1204 1.349 . S
C1216 H1210 0.950 . S
C1216 C1217 1.327 . S
C1217 H1211 0.950 . S
C1217 C1216 1.327 . S
C1217 C1221 1.429 . S
C1218 C1201 1.574 . S
C1218 H1212 0.949 . S
C1218 C1222 1.368 . S
C1219 C1200 1.429 . S
C1219 C1213 1.429 . S
C1219 C1220 1.523 . S
C1220 C1201 1.368 . S
C1220 C1214 1.368 . S
C1220 C1219 1.523 . S
C1221 C1205 1.429 . S
C1221 C1217 1.429 . S
C1221 C1222 1.523 . S
C1222 C1206 1.368 . S
C1222 C1218 1.368 . S
C1222 C1221 1.523 . S
H1223 C1198 0.950 . S
H1224 C1200 0.950 . S
H1225 C1201 0.949 . S
H1226 C1203 0.950 . S
H1227 C1205 0.950 . S
C1228 C1229 1.349 . S
C1228 C1230 1.327 . S
C1228 H1253 0.950 . S
C1229 C1228 1.349 . S
C1229 C1245 1.349 . S
C1230 C1228 1.327 . S
C1230 C1249 1.429 . S
C1230 H1254 0.950 . S
C1231 C1248 1.574 . S
C1231 C1250 1.368 . S
C1231 H1255 0.949 . S
H1232 C1236 0.949 . S
C1233 C1234 1.349 . S
C1233 C1235 1.327 . S
C1233 H1256 0.950 . S
C1234 C1233 1.349 . S
C1234 C1246 1.349 . S
C1235 C1233 1.327 . S
C1235 C1251 1.429 . S
C1235 H1257 0.950 . S
C1236 H1232 0.949 . S
C1236 C1244 1.574 . S
C1236 C1252 1.368 . S
H1237 C1245 0.950 . S
H1238 C1243 0.950 . S
H1239 C1244 0.949 . S
H1240 C1246 0.950 . S
H1241 C1247 0.950 . S
H1242 C1248 0.949 . S
C1243 H1238 0.950 . S
C1243 C1245 1.327 . S
C1243 C1249 1.429 . S
C1244 C1236 1.574 . S
C1244 H1239 0.949 . S
C1244 C1250 1.368 . S
C1245 C1229 1.349 . S
C1245 H1237 0.950 . S
C1245 C1243 1.327 . S
C1246 C1234 1.349 . S
C1246 H1240 0.950 . S
C1246 C1247 1.327 . S
C1247 H1241 0.950 . S
C1247 C1246 1.327 . S
C1247 C1251 1.429 . S
C1248 C1231 1.574 . S
C1248 H1242 0.949 . S
C1248 C1252 1.368 . S
C1249 C1230 1.429 . S
C1249 C1243 1.429 . S
C1249 C1250 1.523 . S
C1250 C1231 1.368 . S
C1250 C1244 1.368 . S
C1250 C1249 1.523 . S
C1251 C1235 1.429 . S
C1251 C1247 1.429 . S
C1251 C1252 1.523 . S
C1252 C1236 1.368 . S
C1252 C1248 1.368 . S
C1252 C1251 1.523 . S
H1253 C1228 0.950 . S
H1254 C1230 0.950 . S
H1255 C1231 0.949 . S
H1256 C1233 0.950 . S
H1257 C1235 0.950 . S
C1258 C1259 1.349 . S
C1258 C1260 1.327 . S
C1258 H1283 0.950 . S
C1259 C1258 1.349 . S
C1259 C1275 1.349 . S
C1260 C1258 1.327 . S
C1260 C1279 1.429 . S
C1260 H1284 0.950 . S
C1261 C1278 1.574 . S
C1261 C1280 1.368 . S
C1261 H1285 0.949 . S
H1262 C1266 0.949 . S
C1263 C1264 1.349 . S
C1263 C1265 1.327 . S
C1263 H1286 0.950 . S
C1264 C1263 1.349 . S
C1264 C1276 1.349 . S
C1265 C1263 1.327 . S
C1265 C1281 1.429 . S
C1265 H1287 0.950 . S
C1266 H1262 0.949 . S
C1266 C1274 1.574 . S
C1266 C1282 1.368 . S
H1267 C1275 0.950 . S
H1268 C1273 0.950 . S
H1269 C1274 0.949 . S
H1270 C1276 0.950 . S
H1271 C1277 0.950 . S
H1272 C1278 0.949 . S
C1273 H1268 0.950 . S
C1273 C1275 1.327 . S
C1273 C1279 1.429 . S
C1274 C1266 1.574 . S
C1274 H1269 0.949 . S
C1274 C1280 1.368 . S
C1275 C1259 1.349 . S
C1275 H1267 0.950 . S
C1275 C1273 1.327 . S
C1276 C1264 1.349 . S
C1276 H1270 0.950 . S
C1276 C1277 1.327 . S
C1277 H1271 0.950 . S
C1277 C1276 1.327 . S
C1277 C1281 1.429 . S
C1278 C1261 1.574 . S
C1278 H1272 0.949 . S
C1278 C1282 1.368 . S
C1279 C1260 1.429 . S
C1279 C1273 1.429 . S
C1279 C1280 1.523 . S
C1280 C1261 1.368 . S
C1280 C1274 1.368 . S
C1280 C1279 1.523 . S
C1281 C1265 1.429 . S
C1281 C1277 1.429 . S
C1281 C1282 1.523 . S
C1282 C1266 1.368 . S
C1282 C1278 1.368 . S
C1282 C1281 1.523 . S
H1283 C1258 0.950 . S
H1284 C1260 0.950 . S
H1285 C1261 0.949 . S
H1286 C1263 0.950 . S
H1287 C1265 0.950 . S
C1288 C1289 1.349 1_655 S
C1288 C1290 1.327 . S
C1288 H1313 0.950 . S
C1289 C1288 1.349 1_455 S
C1289 C1305 1.349 . S
C1290 C1288 1.327 . S
C1290 C1309 1.429 1_655 S
C1290 H1314 0.950 . S
C1291 C1308 1.574 1_565 S
C1291 C1310 1.368 . S
C1291 H1315 0.949 . S
H1292 C1296 0.949 . S
C1293 C1294 1.349 1_455 S
C1293 C1295 1.327 . S
C1293 H1316 0.950 . S
C1294 C1293 1.349 1_655 S
C1294 C1306 1.349 . S
C1295 C1293 1.327 . S
C1295 C1311 1.429 1_455 S
C1295 H1317 0.950 . S
C1296 H1292 0.949 . S
C1296 C1304 1.574 1_545 S
C1296 C1312 1.368 . S
H1297 C1305 0.950 . S
H1298 C1303 0.950 . S
H1299 C1304 0.949 . S
H1300 C1306 0.950 . S
H1301 C1307 0.950 . S
H1302 C1308 0.949 . S
C1303 H1298 0.950 . S
C1303 C1305 1.327 . S
C1303 C1309 1.429 . S
C1304 C1296 1.574 1_565 S
C1304 H1299 0.949 . S
C1304 C1310 1.368 1_655 S
C1305 C1289 1.349 . S
C1305 H1297 0.950 . S
C1305 C1303 1.327 . S
C1306 C1294 1.349 . S
C1306 H1300 0.950 . S
C1306 C1307 1.327 . S
C1307 H1301 0.950 . S
C1307 C1306 1.327 . S
C1307 C1311 1.429 . S
C1308 C1291 1.574 1_545 S
C1308 H1302 0.949 . S
C1308 C1312 1.368 1_455 S
C1309 C1290 1.429 1_455 S
C1309 C1303 1.429 . S
C1309 C1310 1.523 . S
C1310 C1291 1.368 . S
C1310 C1304 1.368 1_455 S
C1310 C1309 1.523 . S
C1311 C1295 1.429 1_655 S
C1311 C1307 1.429 . S
C1311 C1312 1.523 . S
C1312 C1296 1.368 . S
C1312 C1308 1.368 1_655 S
C1312 C1311 1.523 . S
H1313 C1288 0.950 . S
H1314 C1290 0.950 . S
H1315 C1291 0.949 . S
H1316 C1293 0.950 . S
H1317 C1295 0.950 . S
C1318 C1319 1.349 . S
C1318 C1320 1.327 . S
C1318 H1343 0.950 . S
C1319 C1318 1.349 . S
C1319 C1335 1.349 1_655 S
C1320 C1318 1.327 . S
C1320 C1339 1.429 . S
C1320 H1344 0.950 . S
C1321 C1338 1.574 . S
C1321 C1340 1.368 1_455 S
C1321 H1345 0.949 . S
H1322 C1326 0.949 . S
C1323 C1324 1.349 . S
C1323 C1325 1.327 . S
C1323 H1346 0.950 . S
C1324 C1323 1.349 . S
C1324 C1336 1.349 1_455 S
C1325 C1323 1.327 . S
C1325 C1341 1.429 . S
C1325 H1347 0.950 . S
C1326 H1322 0.949 . S
C1326 C1334 1.574 . S
C1326 C1342 1.368 1_655 S
H1327 C1335 0.950 . S
H1328 C1333 0.950 . S
H1329 C1334 0.949 . S
H1330 C1336 0.950 . S
H1331 C1337 0.950 . S
H1332 C1338 0.949 . S
C1333 H1328 0.950 . S
C1333 C1335 1.327 . S
C1333 C1339 1.429 1_455 S
C1334 C1326 1.574 . S
C1334 H1329 0.949 . S
C1334 C1340 1.368 . S
C1335 C1319 1.349 1_455 S
C1335 H1327 0.950 . S
C1335 C1333 1.327 . S
C1336 C1324 1.349 1_655 S
C1336 H1330 0.950 . S
C1336 C1337 1.327 . S
C1337 H1331 0.950 . S
C1337 C1336 1.327 . S
C1337 C1341 1.429 1_655 S
C1338 C1321 1.574 . S
C1338 H1332 0.949 . S
C1338 C1342 1.368 . S
C1339 C1320 1.429 . S
C1339 C1333 1.429 1_655 S
C1339 C1340 1.523 . S
C1340 C1321 1.368 1_655 S
C1340 C1334 1.368 . S
C1340 C1339 1.523 . S
C1341 C1325 1.429 . S
C1341 C1337 1.429 1_455 S
C1341 C1342 1.523 . S
C1342 C1326 1.368 1_455 S
C1342 C1338 1.368 . S
C1342 C1341 1.523 . S
H1343 C1318 0.950 . S
H1344 C1320 0.950 . S
H1345 C1321 0.949 . S
H1346 C1323 0.950 . S
H1347 C1325 0.950 . S
C1348 C1349 1.349 1_655 S
C1348 C1350 1.327 . S
C1348 H1373 0.950 . S
C1349 C1348 1.349 1_455 S
C1349 C1365 1.349 . S
C1350 C1348 1.327 . S
C1350 C1369 1.429 1_655 S
C1350 H1374 0.950 . S
C1351 C1368 1.574 . S
C1351 C1370 1.368 . S
C1351 H1375 0.949 . S
H1352 C1356 0.949 . S
C1353 C1354 1.349 1_455 S
C1353 C1355 1.327 . S
C1353 H1376 0.950 . S
C1354 C1353 1.349 1_655 S
C1354 C1366 1.349 . S
C1355 C1353 1.327 . S
C1355 C1371 1.429 1_455 S
C1355 H1377 0.950 . S
C1356 H1352 0.949 . S
C1356 C1364 1.574 . S
C1356 C1372 1.368 . S
H1357 C1365 0.950 . S
H1358 C1363 0.950 . S
H1359 C1364 0.949 . S
H1360 C1366 0.950 . S
H1361 C1367 0.950 . S
H1362 C1368 0.949 . S
C1363 H1358 0.950 . S
C1363 C1365 1.327 . S
C1363 C1369 1.429 . S
C1364 C1356 1.574 . S
C1364 H1359 0.949 . S
C1364 C1370 1.368 1_655 S
C1365 C1349 1.349 . S
C1365 H1357 0.950 . S
C1365 C1363 1.327 . S
C1366 C1354 1.349 . S
C1366 H1360 0.950 . S
C1366 C1367 1.327 . S
C1367 H1361 0.950 . S
C1367 C1366 1.327 . S
C1367 C1371 1.429 . S
C1368 C1351 1.574 . S
C1368 H1362 0.949 . S
C1368 C1372 1.368 1_455 S
C1369 C1350 1.429 1_455 S
C1369 C1363 1.429 . S
C1369 C1370 1.523 . S
C1370 C1351 1.368 . S
C1370 C1364 1.368 1_455 S
C1370 C1369 1.523 . S
C1371 C1355 1.429 1_655 S
C1371 C1367 1.429 . S
C1371 C1372 1.523 . S
C1372 C1356 1.368 . S
C1372 C1368 1.368 1_655 S
C1372 C1371 1.523 . S
H1373 C1348 0.950 . S
H1374 C1350 0.950 . S
H1375 C1351 0.949 . S
H1376 C1353 0.950 . S
H1377 C1355 0.950 . S
C1378 C1379 1.349 1_554 S
C1378 C1380 1.327 . S
C1378 H1403 0.950 . S
C1379 C1378 1.349 1_556 S
C1379 C1395 1.349 1_455 S
C1380 C1378 1.327 . S
C1380 C1399 1.394 1_554 S
C1380 H1404 0.950 . S
C1381 C1398 1.574 . S
C1381 C1400 1.383 1_655 S
C1381 H1405 0.949 . S
H1382 C1386 0.949 . S
C1383 C1384 1.349 1_556 S
C1383 C1385 1.327 . S
C1383 H1406 0.950 . S
C1384 C1383 1.349 1_554 S
C1384 C1396 1.349 1_655 S
C1385 C1383 1.327 . S
C1385 C1401 1.394 1_556 S
C1385 H1407 0.950 . S
C1386 H1382 0.949 . S
C1386 C1394 1.574 . S
C1386 C1402 1.383 1_455 S
H1387 C1395 0.950 . S
H1388 C1393 0.950 . S
H1389 C1394 0.949 . S
H1390 C1396 0.950 . S
H1391 C1397 0.950 . S
H1392 C1398 0.949 . S
C1393 H1388 0.950 . S
C1393 C1395 1.327 . S
C1393 C1399 1.465 1_655 S
C1394 C1386 1.574 . S
C1394 H1389 0.949 . S
C1394 C1400 1.353 1_554 S
C1395 C1379 1.349 1_655 S
C1395 H1387 0.950 . S
C1395 C1393 1.327 . S
C1396 C1384 1.349 1_455 S
C1396 H1390 0.950 . S
C1396 C1397 1.327 . S
C1397 H1391 0.950 . S
C1397 C1396 1.327 . S
C1397 C1401 1.465 1_455 S
C1398 C1381 1.574 . S
C1398 H1392 0.949 . S
C1398 C1402 1.353 1_556 S
C1399 C1380 1.394 1_556 S
C1399 C1393 1.465 1_455 S
C1399 C1400 1.523 . S
C1400 C1381 1.383 1_455 S
C1400 C1394 1.353 1_556 S
C1400 C1399 1.523 . S
C1401 C1385 1.394 1_554 S
C1401 C1397 1.465 1_655 S
C1401 C1402 1.523 . S
C1402 C1386 1.383 1_655 S
C1402 C1398 1.353 1_554 S
C1402 C1401 1.523 . S
H1403 C1378 0.950 . S
H1404 C1380 0.950 . S
H1405 C1381 0.949 . S
H1406 C1383 0.950 . S
H1407 C1385 0.950 . S
C1408 C1409 1.349 . S
C1408 C1410 1.327 . S
C1408 H1433 0.950 . S
C1409 C1408 1.349 . S
C1409 C1425 1.349 . S
C1410 C1408 1.327 . S
C1410 C1429 1.429 . S
C1410 H1434 0.950 . S
C1411 C1428 1.574 . S
C1411 C1430 1.368 . S
C1411 H1435 0.949 . S
H1412 C1416 0.949 . S
C1413 C1414 1.349 . S
C1413 C1415 1.327 . S
C1413 H1436 0.950 . S
C1414 C1413 1.349 . S
C1414 C1426 1.349 . S
C1415 C1413 1.327 . S
C1415 C1431 1.429 . S
C1415 H1437 0.950 . S
C1416 H1412 0.949 . S
C1416 C1424 1.574 . S
C1416 C1432 1.368 . S
H1417 C1425 0.950 . S
H1418 C1423 0.950 . S
H1419 C1424 0.949 . S
H1420 C1426 0.950 . S
H1421 C1427 0.950 . S
H1422 C1428 0.949 . S
C1423 H1418 0.950 . S
C1423 C1425 1.327 . S
C1423 C1429 1.429 . S
C1424 C1416 1.574 . S
C1424 H1419 0.949 . S
C1424 C1430 1.368 . S
C1425 C1409 1.349 . S
C1425 H1417 0.950 . S
C1425 C1423 1.327 . S
C1426 C1414 1.349 . S
C1426 H1420 0.950 . S
C1426 C1427 1.327 . S
C1427 H1421 0.950 . S
C1427 C1426 1.327 . S
C1427 C1431 1.429 . S
C1428 C1411 1.574 . S
C1428 H1422 0.949 . S
C1428 C1432 1.368 . S
C1429 C1410 1.429 . S
C1429 C1423 1.429 . S
C1429 C1430 1.523 . S
C1430 C1411 1.368 . S
C1430 C1424 1.368 . S
C1430 C1429 1.523 . S
C1431 C1415 1.429 . S
C1431 C1427 1.429 . S
C1431 C1432 1.523 . S
C1432 C1416 1.368 . S
C1432 C1428 1.368 . S
C1432 C1431 1.523 . S
H1433 C1408 0.950 . S
H1434 C1410 0.950 . S
H1435 C1411 0.949 . S
H1436 C1413 0.950 . S
H1437 C1415 0.950 . S
C1438 C1439 1.349 . S
C1438 C1440 1.327 . S
C1438 H1463 0.950 . S
C1439 C1438 1.349 . S
C1439 C1455 1.349 . S
C1440 C1438 1.327 . S
C1440 C1459 1.429 . S
C1440 H1464 0.950 . S
C1441 C1458 1.574 . S
C1441 C1460 1.368 . S
C1441 H1465 0.949 . S
H1442 C1446 0.949 . S
C1443 C1444 1.349 . S
C1443 C1445 1.327 . S
C1443 H1466 0.950 . S
C1444 C1443 1.349 . S
C1444 C1456 1.349 . S
C1445 C1443 1.327 . S
C1445 C1461 1.429 . S
C1445 H1467 0.950 . S
C1446 H1442 0.949 . S
C1446 C1454 1.574 . S
C1446 C1462 1.368 . S
H1447 C1455 0.950 . S
H1448 C1453 0.950 . S
H1449 C1454 0.949 . S
H1450 C1456 0.950 . S
H1451 C1457 0.950 . S
H1452 C1458 0.949 . S
C1453 H1448 0.950 . S
C1453 C1455 1.327 . S
C1453 C1459 1.429 . S
C1454 C1446 1.574 . S
C1454 H1449 0.949 . S
C1454 C1460 1.368 . S
C1455 C1439 1.349 . S
C1455 H1447 0.950 . S
C1455 C1453 1.327 . S
C1456 C1444 1.349 . S
C1456 H1450 0.950 . S
C1456 C1457 1.327 . S
C1457 H1451 0.950 . S
C1457 C1456 1.327 . S
C1457 C1461 1.429 . S
C1458 C1441 1.574 . S
C1458 H1452 0.949 . S
C1458 C1462 1.368 . S
C1459 C1440 1.429 . S
C1459 C1453 1.429 . S
C1459 C1460 1.523 . S
C1460 C1441 1.368 . S
C1460 C1454 1.368 . S
C1460 C1459 1.523 . S
C1461 C1445 1.429 . S
C1461 C1457 1.429 . S
C1461 C1462 1.523 . S
C1462 C1446 1.368 . S
C1462 C1458 1.368 . S
C1462 C1461 1.523 . S
H1463 C1438 0.950 . S
H1464 C1440 0.950 . S
H1465 C1441 0.949 . S
H1466 C1443 0.950 . S
H1467 C1445 0.950 . S
C1468 C1469 1.349 . S
C1468 C1470 1.327 . S
C1468 H1493 0.950 . S
C1469 C1468 1.349 . S
C1469 C1485 1.349 . S
C1470 C1468 1.327 . S
C1470 C1489 1.429 . S
C1470 H1494 0.950 . S
C1471 C1488 1.574 . S
C1471 C1490 1.368 . S
C1471 H1495 0.949 . S
H1472 C1476 0.949 . S
C1473 C1474 1.349 . S
C1473 C1475 1.327 . S
C1473 H1496 0.950 . S
C1474 C1473 1.349 . S
C1474 C1486 1.349 . S
C1475 C1473 1.327 . S
C1475 C1491 1.429 . S
C1475 H1497 0.950 . S
C1476 H1472 0.949 . S
C1476 C1484 1.574 . S
C1476 C1492 1.368 . S
H1477 C1485 0.950 . S
H1478 C1483 0.950 . S
H1479 C1484 0.949 . S
H1480 C1486 0.950 . S
H1481 C1487 0.950 . S
H1482 C1488 0.949 . S
C1483 H1478 0.950 . S
C1483 C1485 1.327 . S
C1483 C1489 1.429 . S
C1484 C1476 1.574 . S
C1484 H1479 0.949 . S
C1484 C1490 1.368 . S
C1485 C1469 1.349 . S
C1485 H1477 0.950 . S
C1485 C1483 1.327 . S
C1486 C1474 1.349 . S
C1486 H1480 0.950 . S
C1486 C1487 1.327 . S
C1487 H1481 0.950 . S
C1487 C1486 1.327 . S
C1487 C1491 1.429 . S
C1488 C1471 1.574 . S
C1488 H1482 0.949 . S
C1488 C1492 1.368 . S
C1489 C1470 1.429 . S
C1489 C1483 1.429 . S
C1489 C1490 1.523 . S
C1490 C1471 1.368 . S
C1490 C1484 1.368 . S
C1490 C1489 1.523 . S
C1491 C1475 1.429 . S
C1491 C1487 1.429 . S
C1491 C1492 1.523 . S
C1492 C1476 1.368 . S
C1492 C1488 1.368 . S
C1492 C1491 1.523 . S
H1493 C1468 0.950 . S
H1494 C1470 0.950 . S
H1495 C1471 0.949 . S
H1496 C1473 0.950 . S
H1497 C1475 0.950 . S
C1498 C1499 1.349 . S
C1498 C1500 1.327 . S
C1498 H1523 0.950 . S
C1499 C1498 1.349 . S
C1499 C1515 1.349 . S
C1500 C1498 1.327 . S
C1500 C1519 1.429 . S
C1500 H1524 0.950 . S
C1501 C1518 1.574 . S
C1501 C1520 1.368 . S
C1501 H1525 0.949 . S
H1502 C1506 0.949 . S
C1503 C1504 1.349 . S
C1503 C1505 1.327 . S
C1503 H1526 0.950 . S
C1504 C1503 1.349 . S
C1504 C1516 1.349 . S
C1505 C1503 1.327 . S
C1505 C1521 1.429 . S
C1505 H1527 0.950 . S
C1506 H1502 0.949 . S
C1506 C1514 1.574 . S
C1506 C1522 1.368 . S
H1507 C1515 0.950 . S
H1508 C1513 0.950 . S
H1509 C1514 0.949 . S
H1510 C1516 0.950 . S
H1511 C1517 0.950 . S
H1512 C1518 0.949 . S
C1513 H1508 0.950 . S
C1513 C1515 1.327 . S
C1513 C1519 1.429 . S
C1514 C1506 1.574 . S
C1514 H1509 0.949 . S
C1514 C1520 1.368 . S
C1515 C1499 1.349 . S
C1515 H1507 0.950 . S
C1515 C1513 1.327 . S
C1516 C1504 1.349 . S
C1516 H1510 0.950 . S
C1516 C1517 1.327 . S
C1517 H1511 0.950 . S
C1517 C1516 1.327 . S
C1517 C1521 1.429 . S
C1518 C1501 1.574 . S
C1518 H1512 0.949 . S
C1518 C1522 1.368 . S
C1519 C1500 1.429 . S
C1519 C1513 1.429 . S
C1519 C1520 1.523 . S
C1520 C1501 1.368 . S
C1520 C1514 1.368 . S
C1520 C1519 1.523 . S
C1521 C1505 1.429 . S
C1521 C1517 1.429 . S
C1521 C1522 1.523 . S
C1522 C1506 1.368 . S
C1522 C1518 1.368 . S
C1522 C1521 1.523 . S
H1523 C1498 0.950 . S
H1524 C1500 0.950 . S
H1525 C1501 0.949 . S
H1526 C1503 0.950 . S
H1527 C1505 0.950 . S
C1528 C1529 1.349 . S
C1528 C1530 1.327 . S
C1528 H1553 0.950 . S
C1529 C1528 1.349 . S
C1529 C1545 1.349 . S
C1530 C1528 1.327 . S
C1530 C1549 1.429 . S
C1530 H1554 0.950 . S
C1531 C1548 1.574 . S
C1531 C1550 1.368 . S
C1531 H1555 0.949 . S
H1532 C1536 0.949 . S
C1533 C1534 1.349 . S
C1533 C1535 1.327 . S
C1533 H1556 0.950 . S
C1534 C1533 1.349 . S
C1534 C1546 1.349 . S
C1535 C1533 1.327 . S
C1535 C1551 1.429 . S
C1535 H1557 0.950 . S
C1536 H1532 0.949 . S
C1536 C1544 1.574 . S
C1536 C1552 1.368 . S
H1537 C1545 0.950 . S
H1538 C1543 0.950 . S
H1539 C1544 0.949 . S
H1540 C1546 0.950 . S
H1541 C1547 0.950 . S
H1542 C1548 0.949 . S
C1543 H1538 0.950 . S
C1543 C1545 1.327 . S
C1543 C1549 1.429 . S
C1544 C1536 1.574 . S
C1544 H1539 0.949 . S
C1544 C1550 1.368 . S
C1545 C1529 1.349 . S
C1545 H1537 0.950 . S
C1545 C1543 1.327 . S
C1546 C1534 1.349 . S
C1546 H1540 0.950 . S
C1546 C1547 1.327 . S
C1547 H1541 0.950 . S
C1547 C1546 1.327 . S
C1547 C1551 1.429 . S
C1548 C1531 1.574 . S
C1548 H1542 0.949 . S
C1548 C1552 1.368 . S
C1549 C1530 1.429 . S
C1549 C1543 1.429 . S
C1549 C1550 1.523 . S
C1550 C1531 1.368 . S
C1550 C1544 1.368 . S
C1550 C1549 1.523 . S
C1551 C1535 1.429 . S
C1551 C1547 1.429 . S
C1551 C1552 1.523 . S
C1552 C1536 1.368 . S
C1552 C1548 1.368 . S
C1552 C1551 1.523 . S
H1553 C1528 0.950 . S
H1554 C1530 0.950 . S
H1555 C1531 0.949 . S
H1556 C1533 0.950 . S
H1557 C1535 0.950 . S
C1558 C1559 1.349 . S
C1558 C1560 1.327 . S
C1558 H1583 0.950 . S
C1559 C1558 1.349 . S
C1559 C1575 1.349 . S
C1560 C1558 1.327 . S
C1560 C1579 1.429 . S
C1560 H1584 0.950 . S
C1561 C1578 1.574 . S
C1561 C1580 1.368 . S
C1561 H1585 0.949 . S
H1562 C1566 0.949 . S
C1563 C1564 1.349 . S
C1563 C1565 1.327 . S
C1563 H1586 0.950 . S
C1564 C1563 1.349 . S
C1564 C1576 1.349 . S
C1565 C1563 1.327 . S
C1565 C1581 1.429 . S
C1565 H1587 0.950 . S
C1566 H1562 0.949 . S
C1566 C1574 1.574 . S
C1566 C1582 1.368 . S
H1567 C1575 0.950 . S
H1568 C1573 0.950 . S
H1569 C1574 0.949 . S
H1570 C1576 0.950 . S
H1571 C1577 0.950 . S
H1572 C1578 0.949 . S
C1573 H1568 0.950 . S
C1573 C1575 1.327 . S
C1573 C1579 1.429 . S
C1574 C1566 1.574 . S
C1574 H1569 0.949 . S
C1574 C1580 1.368 . S
C1575 C1559 1.349 . S
C1575 H1567 0.950 . S
C1575 C1573 1.327 . S
C1576 C1564 1.349 . S
C1576 H1570 0.950 . S
C1576 C1577 1.327 . S
C1577 H1571 0.950 . S
C1577 C1576 1.327 . S
C1577 C1581 1.429 . S
C1578 C1561 1.574 . S
C1578 H1572 0.949 . S
C1578 C1582 1.368 . S
C1579 C1560 1.429 . S
C1579 C1573 1.429 . S
C1579 C1580 1.523 . S
C1580 C1561 1.368 . S
C1580 C1574 1.368 . S
C1580 C1579 1.523 . S
C1581 C1565 1.429 . S
C1581 C1577 1.429 . S
C1581 C1582 1.523 . S
C1582 C1566 1.368 . S
C1582 C1578 1.368 . S
C1582 C1581 1.523 . S
H1583 C1558 0.950 . S
H1584 C1560 0.950 . S
H1585 C1561 0.949 . S
H1586 C1563 0.950 . S
H1587 C1565 0.950 . S
C1588 C1589 1.349 . S
C1588 C1590 1.327 . S
C1588 H1613 0.950 . S
C1589 C1588 1.349 . S
C1589 C1605 1.349 . S
C1590 C1588 1.327 . S
C1590 C1609 1.429 . S
C1590 H1614 0.950 . S
C1591 C1608 1.574 . S
C1591 C1610 1.368 . S
C1591 H1615 0.949 . S
H1592 C1596 0.949 . S
C1593 C1594 1.349 . S
C1593 C1595 1.327 . S
C1593 H1616 0.950 . S
C1594 C1593 1.349 . S
C1594 C1606 1.349 . S
C1595 C1593 1.327 . S
C1595 C1611 1.429 . S
C1595 H1617 0.950 . S
C1596 H1592 0.949 . S
C1596 C1604 1.574 . S
C1596 C1612 1.368 . S
H1597 C1605 0.950 . S
H1598 C1603 0.950 . S
H1599 C1604 0.949 . S
H1600 C1606 0.950 . S
H1601 C1607 0.950 . S
H1602 C1608 0.949 . S
C1603 H1598 0.950 . S
C1603 C1605 1.327 . S
C1603 C1609 1.429 . S
C1604 C1596 1.574 . S
C1604 H1599 0.949 . S
C1604 C1610 1.368 . S
C1605 C1589 1.349 . S
C1605 H1597 0.950 . S
C1605 C1603 1.327 . S
C1606 C1594 1.349 . S
C1606 H1600 0.950 . S
C1606 C1607 1.327 . S
C1607 H1601 0.950 . S
C1607 C1606 1.327 . S
C1607 C1611 1.429 . S
C1608 C1591 1.574 . S
C1608 H1602 0.949 . S
C1608 C1612 1.368 . S
C1609 C1590 1.429 . S
C1609 C1603 1.429 . S
C1609 C1610 1.523 . S
C1610 C1591 1.368 . S
C1610 C1604 1.368 . S
C1610 C1609 1.523 . S
C1611 C1595 1.429 . S
C1611 C1607 1.429 . S
C1611 C1612 1.523 . S
C1612 C1596 1.368 . S
C1612 C1608 1.368 . S
C1612 C1611 1.523 . S
H1613 C1588 0.950 . S
H1614 C1590 0.950 . S
H1615 C1591 0.949 . S
H1616 C1593 0.950 . S
H1617 C1595 0.950 . S
C1618 C1619 1.349 . S
C1618 C1620 1.327 . S
C1618 H1643 0.950 . S
C1619 C1618 1.349 . S
C1619 C1635 1.349 . S
C1620 C1618 1.327 . S
C1620 C1639 1.429 . S
C1620 H1644 0.950 . S
C1621 C1638 1.574 . S
C1621 C1640 1.368 . S
C1621 H1645 0.949 . S
H1622 C1626 0.949 . S
C1623 C1624 1.349 . S
C1623 C1625 1.327 . S
C1623 H1646 0.950 . S
C1624 C1623 1.349 . S
C1624 C1636 1.349 . S
C1625 C1623 1.327 . S
C1625 C1641 1.429 . S
C1625 H1647 0.950 . S
C1626 H1622 0.949 . S
C1626 C1634 1.574 . S
C1626 C1642 1.368 . S
H1627 C1635 0.950 . S
H1628 C1633 0.950 . S
H1629 C1634 0.949 . S
H1630 C1636 0.950 . S
H1631 C1637 0.950 . S
H1632 C1638 0.949 . S
C1633 H1628 0.950 . S
C1633 C1635 1.327 . S
C1633 C1639 1.429 . S
C1634 C1626 1.574 . S
C1634 H1629 0.949 . S
C1634 C1640 1.368 . S
C1635 C1619 1.349 . S
C1635 H1627 0.950 . S
C1635 C1633 1.327 . S
C1636 C1624 1.349 . S
C1636 H1630 0.950 . S
C1636 C1637 1.327 . S
C1637 H1631 0.950 . S
C1637 C1636 1.327 . S
C1637 C1641 1.429 . S
C1638 C1621 1.574 . S
C1638 H1632 0.949 . S
C1638 C1642 1.368 . S
C1639 C1620 1.429 . S
C1639 C1633 1.429 . S
C1639 C1640 1.523 . S
C1640 C1621 1.368 . S
C1640 C1634 1.368 . S
C1640 C1639 1.523 . S
C1641 C1625 1.429 . S
C1641 C1637 1.429 . S
C1641 C1642 1.523 . S
C1642 C1626 1.368 . S
C1642 C1638 1.368 . S
C1642 C1641 1.523 . S
H1643 C1618 0.950 . S
H1644 C1620 0.950 . S
H1645 C1621 0.949 . S
H1646 C1623 0.950 . S
H1647 C1625 0.950 . S
C1648 C1649 1.349 . S
C1648 C1650 1.327 . S
C1648 H1673 0.950 . S
C1649 C1648 1.349 . S
C1649 C1665 1.349 . S
C1650 C1648 1.327 . S
C1650 C1669 1.429 . S
C1650 H1674 0.950 . S
C1651 C1668 1.574 . S
C1651 C1670 1.368 . S
C1651 H1675 0.949 . S
H1652 C1656 0.949 . S
C1653 C1654 1.349 . S
C1653 C1655 1.327 . S
C1653 H1676 0.950 . S
C1654 C1653 1.349 . S
C1654 C1666 1.349 . S
C1655 C1653 1.327 . S
C1655 C1671 1.429 . S
C1655 H1677 0.950 . S
C1656 H1652 0.949 . S
C1656 C1664 1.574 . S
C1656 C1672 1.368 . S
H1657 C1665 0.950 . S
H1658 C1663 0.950 . S
H1659 C1664 0.949 . S
H1660 C1666 0.950 . S
H1661 C1667 0.950 . S
H1662 C1668 0.949 . S
C1663 H1658 0.950 . S
C1663 C1665 1.327 . S
C1663 C1669 1.429 . S
C1664 C1656 1.574 . S
C1664 H1659 0.949 . S
C1664 C1670 1.368 . S
C1665 C1649 1.349 . S
C1665 H1657 0.950 . S
C1665 C1663 1.327 . S
C1666 C1654 1.349 . S
C1666 H1660 0.950 . S
C1666 C1667 1.327 . S
C1667 H1661 0.950 . S
C1667 C1666 1.327 . S
C1667 C1671 1.429 . S
C1668 C1651 1.574 . S
C1668 H1662 0.949 . S
C1668 C1672 1.368 . S
C1669 C1650 1.429 . S
C1669 C1663 1.429 . S
C1669 C1670 1.523 . S
C1670 C1651 1.368 . S
C1670 C1664 1.368 . S
C1670 C1669 1.523 . S
C1671 C1655 1.429 . S
C1671 C1667 1.429 . S
C1671 C1672 1.523 . S
C1672 C1656 1.368 . S
C1672 C1668 1.368 . S
C1672 C1671 1.523 . S
H1673 C1648 0.950 . S
H1674 C1650 0.950 . S
H1675 C1651 0.949 . S
H1676 C1653 0.950 . S
H1677 C1655 0.950 . S
C1678 C1679 1.349 . S
C1678 C1680 1.327 . S
C1678 H1703 0.950 . S
C1679 C1678 1.349 . S
C1679 C1695 1.349 . S
C1680 C1678 1.327 . S
C1680 C1699 1.429 . S
C1680 H1704 0.950 . S
C1681 C1698 1.574 . S
C1681 C1700 1.368 . S
C1681 H1705 0.949 . S
H1682 C1686 0.949 . S
C1683 C1684 1.349 . S
C1683 C1685 1.327 . S
C1683 H1706 0.950 . S
C1684 C1683 1.349 . S
C1684 C1696 1.349 . S
C1685 C1683 1.327 . S
C1685 C1701 1.429 . S
C1685 H1707 0.950 . S
C1686 H1682 0.949 . S
C1686 C1694 1.574 . S
C1686 C1702 1.368 . S
H1687 C1695 0.950 . S
H1688 C1693 0.950 . S
H1689 C1694 0.949 . S
H1690 C1696 0.950 . S
H1691 C1697 0.950 . S
H1692 C1698 0.949 . S
C1693 H1688 0.950 . S
C1693 C1695 1.327 . S
C1693 C1699 1.429 . S
C1694 C1686 1.574 . S
C1694 H1689 0.949 . S
C1694 C1700 1.368 . S
C1695 C1679 1.349 . S
C1695 H1687 0.950 . S
C1695 C1693 1.327 . S
C1696 C1684 1.349 . S
C1696 H1690 0.950 . S
C1696 C1697 1.327 . S
C1697 H1691 0.950 . S
C1697 C1696 1.327 . S
C1697 C1701 1.429 . S
C1698 C1681 1.574 . S
C1698 H1692 0.949 . S
C1698 C1702 1.368 . S
C1699 C1680 1.429 . S
C1699 C1693 1.429 . S
C1699 C1700 1.523 . S
C1700 C1681 1.368 . S
C1700 C1694 1.368 . S
C1700 C1699 1.523 . S
C1701 C1685 1.429 . S
C1701 C1697 1.429 . S
C1701 C1702 1.523 . S
C1702 C1686 1.368 . S
C1702 C1698 1.368 . S
C1702 C1701 1.523 . S
H1703 C1678 0.950 . S
H1704 C1680 0.950 . S
H1705 C1681 0.949 . S
H1706 C1683 0.950 . S
H1707 C1685 0.950 . S
C1708 C1709 1.349 . S
C1708 C1710 1.327 . S
C1708 H1733 0.950 . S
C1709 C1708 1.349 . S
C1709 C1725 1.349 . S
C1710 C1708 1.327 . S
C1710 C1729 1.429 . S
C1710 H1734 0.950 . S
C1711 C1728 1.574 . S
C1711 C1730 1.368 . S
C1711 H1735 0.949 . S
H1712 C1716 0.949 . S
C1713 C1714 1.349 . S
C1713 C1715 1.327 . S
C1713 H1736 0.950 . S
C1714 C1713 1.349 . S
C1714 C1726 1.349 . S
C1715 C1713 1.327 . S
C1715 C1731 1.429 . S
C1715 H1737 0.950 . S
C1716 H1712 0.949 . S
C1716 C1724 1.574 . S
C1716 C1732 1.368 . S
H1717 C1725 0.950 . S
H1718 C1723 0.950 . S
H1719 C1724 0.949 . S
H1720 C1726 0.950 . S
H1721 C1727 0.950 . S
H1722 C1728 0.949 . S
C1723 H1718 0.950 . S
C1723 C1725 1.327 . S
C1723 C1729 1.429 . S
C1724 C1716 1.574 . S
C1724 H1719 0.949 . S
C1724 C1730 1.368 . S
C1725 C1709 1.349 . S
C1725 H1717 0.950 . S
C1725 C1723 1.327 . S
C1726 C1714 1.349 . S
C1726 H1720 0.950 . S
C1726 C1727 1.327 . S
C1727 H1721 0.950 . S
C1727 C1726 1.327 . S
C1727 C1731 1.429 . S
C1728 C1711 1.574 . S
C1728 H1722 0.949 . S
C1728 C1732 1.368 . S
C1729 C1710 1.429 . S
C1729 C1723 1.429 . S
C1729 C1730 1.523 . S
C1730 C1711 1.368 . S
C1730 C1724 1.368 . S
C1730 C1729 1.523 . S
C1731 C1715 1.429 . S
C1731 C1727 1.429 . S
C1731 C1732 1.523 . S
C1732 C1716 1.368 . S
C1732 C1728 1.368 . S
C1732 C1731 1.523 . S
H1733 C1708 0.950 . S
H1734 C1710 0.950 . S
H1735 C1711 0.949 . S
H1736 C1713 0.950 . S
H1737 C1715 0.950 . S
C1738 C1739 1.349 . S
C1738 C1740 1.327 . S
C1738 H1763 0.950 . S
C1739 C1738 1.349 . S
C1739 C1755 1.349 . S
C1740 C1738 1.327 . S
C1740 C1759 1.429 . S
C1740 H1764 0.950 . S
C1741 C1758 1.574 . S
C1741 C1760 1.368 . S
C1741 H1765 0.949 . S
H1742 C1746 0.949 . S
C1743 C1744 1.349 . S
C1743 C1745 1.327 . S
C1743 H1766 0.950 . S
C1744 C1743 1.349 . S
C1744 C1756 1.349 . S
C1745 C1743 1.327 . S
C1745 C1761 1.429 . S
C1745 H1767 0.950 . S
C1746 H1742 0.949 . S
C1746 C1754 1.574 . S
C1746 C1762 1.368 . S
H1747 C1755 0.950 . S
H1748 C1753 0.950 . S
H1749 C1754 0.949 . S
H1750 C1756 0.950 . S
H1751 C1757 0.950 . S
H1752 C1758 0.949 . S
C1753 H1748 0.950 . S
C1753 C1755 1.327 . S
C1753 C1759 1.429 . S
C1754 C1746 1.574 . S
C1754 H1749 0.949 . S
C1754 C1760 1.368 . S
C1755 C1739 1.349 . S
C1755 H1747 0.950 . S
C1755 C1753 1.327 . S
C1756 C1744 1.349 . S
C1756 H1750 0.950 . S
C1756 C1757 1.327 . S
C1757 H1751 0.950 . S
C1757 C1756 1.327 . S
C1757 C1761 1.429 . S
C1758 C1741 1.574 . S
C1758 H1752 0.949 . S
C1758 C1762 1.368 . S
C1759 C1740 1.429 . S
C1759 C1753 1.429 . S
C1759 C1760 1.523 . S
C1760 C1741 1.368 . S
C1760 C1754 1.368 . S
C1760 C1759 1.523 . S
C1761 C1745 1.429 . S
C1761 C1757 1.429 . S
C1761 C1762 1.523 . S
C1762 C1746 1.368 . S
C1762 C1758 1.368 . S
C1762 C1761 1.523 . S
H1763 C1738 0.950 . S
H1764 C1740 0.950 . S
H1765 C1741 0.949 . S
H1766 C1743 0.950 . S
H1767 C1745 0.950 . S
C1768 C1769 1.349 . S
C1768 C1770 1.327 . S
C1768 H1793 0.950 . S
C1769 C1768 1.349 . S
C1769 C1785 1.349 . S
C1770 C1768 1.327 . S
C1770 C1789 1.429 . S
C1770 H1794 0.950 . S
C1771 C1788 1.574 . S
C1771 C1790 1.368 . S
C1771 H1795 0.949 . S
H1772 C1776 0.949 . S
C1773 C1774 1.349 . S
C1773 C1775 1.327 . S
C1773 H1796 0.950 . S
C1774 C1773 1.349 . S
C1774 C1786 1.349 . S
C1775 C1773 1.327 . S
C1775 C1791 1.429 . S
C1775 H1797 0.950 . S
C1776 H1772 0.949 . S
C1776 C1784 1.574 . S
C1776 C1792 1.368 . S
H1777 C1785 0.950 . S
H1778 C1783 0.950 . S
H1779 C1784 0.949 . S
H1780 C1786 0.950 . S
H1781 C1787 0.950 . S
H1782 C1788 0.949 . S
C1783 H1778 0.950 . S
C1783 C1785 1.327 . S
C1783 C1789 1.429 . S
C1784 C1776 1.574 . S
C1784 H1779 0.949 . S
C1784 C1790 1.368 . S
C1785 C1769 1.349 . S
C1785 H1777 0.950 . S
C1785 C1783 1.327 . S
C1786 C1774 1.349 . S
C1786 H1780 0.950 . S
C1786 C1787 1.327 . S
C1787 H1781 0.950 . S
C1787 C1786 1.327 . S
C1787 C1791 1.429 . S
C1788 C1771 1.574 . S
C1788 H1782 0.949 . S
C1788 C1792 1.368 . S
C1789 C1770 1.429 . S
C1789 C1783 1.429 . S
C1789 C1790 1.523 . S
C1790 C1771 1.368 . S
C1790 C1784 1.368 . S
C1790 C1789 1.523 . S
C1791 C1775 1.429 . S
C1791 C1787 1.429 . S
C1791 C1792 1.523 . S
C1792 C1776 1.368 . S
C1792 C1788 1.368 . S
C1792 C1791 1.523 . S
H1793 C1768 0.950 . S
H1794 C1770 0.950 . S
H1795 C1771 0.949 . S
H1796 C1773 0.950 . S
H1797 C1775 0.950 . S
C1798 C1799 1.349 . S
C1798 C1800 1.327 . S
C1798 H1823 0.950 . S
C1799 C1798 1.349 . S
C1799 C1815 1.349 . S
C1800 C1798 1.327 . S
C1800 C1819 1.429 . S
C1800 H1824 0.950 . S
C1801 C1818 1.574 . S
C1801 C1820 1.368 . S
C1801 H1825 0.949 . S
H1802 C1806 0.949 . S
C1803 C1804 1.349 . S
C1803 C1805 1.327 . S
C1803 H1826 0.950 . S
C1804 C1803 1.349 . S
C1804 C1816 1.349 . S
C1805 C1803 1.327 . S
C1805 C1821 1.429 . S
C1805 H1827 0.950 . S
C1806 H1802 0.949 . S
C1806 C1814 1.574 . S
C1806 C1822 1.368 . S
H1807 C1815 0.950 . S
H1808 C1813 0.950 . S
H1809 C1814 0.949 . S
H1810 C1816 0.950 . S
H1811 C1817 0.950 . S
H1812 C1818 0.949 . S
C1813 H1808 0.950 . S
C1813 C1815 1.327 . S
C1813 C1819 1.429 . S
C1814 C1806 1.574 . S
C1814 H1809 0.949 . S
C1814 C1820 1.368 . S
C1815 C1799 1.349 . S
C1815 H1807 0.950 . S
C1815 C1813 1.327 . S
C1816 C1804 1.349 . S
C1816 H1810 0.950 . S
C1816 C1817 1.327 . S
C1817 H1811 0.950 . S
C1817 C1816 1.327 . S
C1817 C1821 1.429 . S
C1818 C1801 1.574 . S
C1818 H1812 0.949 . S
C1818 C1822 1.368 . S
C1819 C1800 1.429 . S
C1819 C1813 1.429 . S
C1819 C1820 1.523 . S
C1820 C1801 1.368 . S
C1820 C1814 1.368 . S
C1820 C1819 1.523 . S
C1821 C1805 1.429 . S
C1821 C1817 1.429 . S
C1821 C1822 1.523 . S
C1822 C1806 1.368 . S
C1822 C1818 1.368 . S
C1822 C1821 1.523 . S
H1823 C1798 0.950 . S
H1824 C1800 0.950 . S
H1825 C1801 0.949 . S
H1826 C1803 0.950 . S
H1827 C1805 0.950 . S
C1828 C1829 1.349 . S
C1828 C1830 1.327 . S
C1828 H1853 0.950 . S
C1829 C1828 1.349 . S
C1829 C1845 1.349 . S
C1830 C1828 1.327 . S
C1830 C1849 1.429 . S
C1830 H1854 0.950 . S
C1831 C1848 1.574 . S
C1831 C1850 1.368 . S
C1831 H1855 0.949 . S
H1832 C1836 0.949 . S
C1833 C1834 1.349 . S
C1833 C1835 1.327 . S
C1833 H1856 0.950 . S
C1834 C1833 1.349 . S
C1834 C1846 1.349 . S
C1835 C1833 1.327 . S
C1835 C1851 1.429 . S
C1835 H1857 0.950 . S
C1836 H1832 0.949 . S
C1836 C1844 1.574 . S
C1836 C1852 1.368 . S
H1837 C1845 0.950 . S
H1838 C1843 0.950 . S
H1839 C1844 0.949 . S
H1840 C1846 0.950 . S
H1841 C1847 0.950 . S
H1842 C1848 0.949 . S
C1843 H1838 0.950 . S
C1843 C1845 1.327 . S
C1843 C1849 1.429 . S
C1844 C1836 1.574 . S
C1844 H1839 0.949 . S
C1844 C1850 1.368 . S
C1845 C1829 1.349 . S
C1845 H1837 0.950 . S
C1845 C1843 1.327 . S
C1846 C1834 1.349 . S
C1846 H1840 0.950 . S
C1846 C1847 1.327 . S
C1847 H1841 0.950 . S
C1847 C1846 1.327 . S
C1847 C1851 1.429 . S
C1848 C1831 1.574 . S
C1848 H1842 0.949 . S
C1848 C1852 1.368 . S
C1849 C1830 1.429 . S
C1849 C1843 1.429 . S
C1849 C1850 1.523 . S
C1850 C1831 1.368 . S
C1850 C1844 1.368 . S
C1850 C1849 1.523 . S
C1851 C1835 1.429 . S
C1851 C1847 1.429 . S
C1851 C1852 1.523 . S
C1852 C1836 1.368 . S
C1852 C1848 1.368 . S
C1852 C1851 1.523 . S
H1853 C1828 0.950 . S
H1854 C1830 0.950 . S
H1855 C1831 0.949 . S
H1856 C1833 0.950 . S
H1857 C1835 0.950 . S
C1858 C1859 1.349 . S
C1858 C1860 1.327 . S
C1858 H1883 0.950 . S
C1859 C1858 1.349 . S
C1859 C1875 1.349 . S
C1860 C1858 1.327 . S
C1860 C1879 1.429 . S
C1860 H1884 0.950 . S
C1861 C1878 1.574 . S
C1861 C1880 1.368 . S
C1861 H1885 0.949 . S
H1862 C1866 0.949 . S
C1863 C1864 1.349 . S
C1863 C1865 1.327 . S
C1863 H1886 0.950 . S
C1864 C1863 1.349 . S
C1864 C1876 1.349 . S
C1865 C1863 1.327 . S
C1865 C1881 1.429 . S
C1865 H1887 0.950 . S
C1866 H1862 0.949 . S
C1866 C1874 1.574 . S
C1866 C1882 1.368 . S
H1867 C1875 0.950 . S
H1868 C1873 0.950 . S
H1869 C1874 0.949 . S
H1870 C1876 0.950 . S
H1871 C1877 0.950 . S
H1872 C1878 0.949 . S
C1873 H1868 0.950 . S
C1873 C1875 1.327 . S
C1873 C1879 1.429 . S
C1874 C1866 1.574 . S
C1874 H1869 0.949 . S
C1874 C1880 1.368 . S
C1875 C1859 1.349 . S
C1875 H1867 0.950 . S
C1875 C1873 1.327 . S
C1876 C1864 1.349 . S
C1876 H1870 0.950 . S
C1876 C1877 1.327 . S
C1877 H1871 0.950 . S
C1877 C1876 1.327 . S
C1877 C1881 1.429 . S
C1878 C1861 1.574 . S
C1878 H1872 0.949 . S
C1878 C1882 1.368 . S
C1879 C1860 1.429 . S
C1879 C1873 1.429 . S
C1879 C1880 1.523 . S
C1880 C1861 1.368 . S
C1880 C1874 1.368 . S
C1880 C1879 1.523 . S
C1881 C1865 1.429 . S
C1881 C1877 1.429 . S
C1881 C1882 1.523 . S
C1882 C1866 1.368 . S
C1882 C1878 1.368 . S
C1882 C1881 1.523 . S
H1883 C1858 0.950 . S
H1884 C1860 0.950 . S
H1885 C1861 0.949 . S
H1886 C1863 0.950 . S
H1887 C1865 0.950 . S
C1888 C1889 1.395 . S
C1888 C1890 1.327 . S
C1888 H1913 0.950 . S
C1889 C1888 1.395 . S
C1889 C1905 1.304 1_554 S
C1890 C1888 1.327 . S
C1890 C1909 1.473 1_655 S
C1890 H1914 0.950 . S
C1891 C1908 1.574 . S
C1891 C1910 1.321 1_556 S
C1891 H1915 0.949 . S
H1892 C1896 0.949 . S
C1893 C1894 1.304 1_556 S
C1893 C1895 1.327 . S
C1893 H1916 0.950 . S
C1894 C1893 1.304 1_554 S
C1894 C1906 1.396 . S
C1895 C1893 1.327 . S
C1895 C1911 1.385 1_556 S
C1895 H1917 0.950 . S
C1896 H1892 0.949 . S
C1896 C1904 1.574 . S
C1896 C1912 1.418 . S
H1897 C1905 0.950 . S
H1898 C1903 0.950 . S
H1899 C1904 0.949 . S
H1900 C1906 0.950 . S
H1901 C1907 0.950 . S
H1902 C1908 0.949 . S
C1903 H1898 0.950 . S
C1903 C1905 1.327 1_455 S
C1903 C1909 1.385 1_556 S
C1904 C1896 1.574 . S
C1904 H1899 0.949 . S
C1904 C1910 1.417 . S
C1905 C1889 1.304 1_556 S
C1905 H1897 0.950 . S
C1905 C1903 1.327 1_655 S
C1906 C1894 1.396 . S
C1906 H1900 0.950 . S
C1906 C1907 1.327 . S
C1907 H1901 0.950 . S
C1907 C1906 1.327 . S
C1907 C1911 1.474 . S
C1908 C1891 1.574 . S
C1908 H1902 0.949 . S
C1908 C1912 1.320 1_556 S
C1909 C1890 1.473 1_455 S
C1909 C1903 1.385 1_554 S
C1909 C1910 1.523 . S
C1910 C1891 1.321 1_554 S
C1910 C1904 1.417 . S
C1910 C1909 1.523 . S
C1911 C1895 1.385 1_554 S
C1911 C1907 1.474 . S
C1911 C1912 1.523 . S
C1912 C1896 1.418 . S
C1912 C1908 1.320 1_554 S
C1912 C1911 1.523 . S
H1913 C1888 0.950 . S
H1914 C1890 0.950 . S
H1915 C1891 0.949 . S
H1916 C1893 0.950 . S
H1917 C1895 0.950 . S
C1918 C1919 1.349 . S
C1918 C1920 1.327 . S
C1918 H1943 0.950 . S
C1919 C1918 1.349 . S
C1919 C1935 1.349 . S
C1920 C1918 1.327 . S
C1920 C1939 1.429 . S
C1920 H1944 0.950 . S
C1921 C1938 1.574 . S
C1921 C1940 1.368 . S
C1921 H1945 0.949 . S
H1922 C1926 0.949 . S
C1923 C1924 1.349 . S
C1923 C1925 1.327 1_655 S
C1923 H1946 0.950 . S
C1924 C1923 1.349 . S
C1924 C1936 1.349 . S
C1925 C1923 1.327 1_455 S
C1925 C1941 1.429 . S
C1925 H1947 0.950 . S
C1926 H1922 0.949 . S
C1926 C1934 1.574 . S
C1926 C1942 1.368 . S
H1927 C1935 0.950 . S
H1928 C1933 0.950 . S
H1929 C1934 0.949 . S
H1930 C1936 0.950 . S
H1931 C1937 0.950 . S
H1932 C1938 0.949 . S
C1933 H1928 0.950 . S
C1933 C1935 1.327 . S
C1933 C1939 1.429 . S
C1934 C1926 1.574 . S
C1934 H1929 0.949 . S
C1934 C1940 1.368 . S
C1935 C1919 1.349 . S
C1935 H1927 0.950 . S
C1935 C1933 1.327 . S
C1936 C1924 1.349 . S
C1936 H1930 0.950 . S
C1936 C1937 1.327 . S
C1937 H1931 0.950 . S
C1937 C1936 1.327 . S
C1937 C1941 1.429 1_655 S
C1938 C1921 1.574 . S
C1938 H1932 0.949 . S
C1938 C1942 1.368 . S
C1939 C1920 1.429 . S
C1939 C1933 1.429 . S
C1939 C1940 1.523 . S
C1940 C1921 1.368 . S
C1940 C1934 1.368 . S
C1940 C1939 1.523 . S
C1941 C1925 1.429 . S
C1941 C1937 1.429 1_455 S
C1941 C1942 1.523 . S
C1942 C1926 1.368 . S
C1942 C1938 1.368 . S
C1942 C1941 1.523 . S
H1943 C1918 0.950 . S
H1944 C1920 0.950 . S
H1945 C1921 0.949 . S
H1946 C1923 0.950 . S
H1947 C1925 0.950 . S
C1948 C1949 1.395 . S
C1948 C1950 1.327 1_455 S
C1948 H1973 0.950 . S
C1949 C1948 1.395 . S
C1949 C1965 1.305 1_556 S
C1950 C1948 1.327 1_655 S
C1950 C1969 1.473 . S
C1950 H1974 0.950 . S
C1951 C1968 1.574 . S
C1951 C1970 1.321 1_554 S
C1951 H1975 0.949 . S
H1952 C1956 0.949 . S
C1953 C1954 1.304 1_554 S
C1953 C1955 1.327 . S
C1953 H1976 0.950 . S
C1954 C1953 1.304 1_556 S
C1954 C1966 1.396 . S
C1955 C1953 1.327 . S
C1955 C1971 1.385 1_554 S
C1955 H1977 0.950 . S
C1956 H1952 0.949 . S
C1956 C1964 1.574 . S
C1956 C1972 1.418 . S
H1957 C1965 0.950 . S
H1958 C1963 0.950 . S
H1959 C1964 0.949 . S
H1960 C1966 0.950 . S
H1961 C1967 0.950 . S
H1962 C1968 0.949 . S
C1963 H1958 0.950 . S
C1963 C1965 1.327 . S
C1963 C1969 1.385 1_454 S
C1964 C1956 1.574 . S
C1964 H1959 0.949 . S
C1964 C1970 1.417 . S
C1965 C1949 1.305 1_554 S
C1965 H1957 0.950 . S
C1965 C1963 1.327 . S
C1966 C1954 1.396 . S
C1966 H1960 0.950 . S
C1966 C1967 1.327 . S
C1967 H1961 0.950 . S
C1967 C1966 1.327 . S
C1967 C1971 1.474 . S
C1968 C1951 1.574 . S
C1968 H1962 0.949 . S
C1968 C1972 1.320 1_554 S
C1969 C1950 1.473 . S
C1969 C1963 1.385 1_656 S
C1969 C1970 1.523 . S
C1970 C1951 1.321 1_556 S
C1970 C1964 1.417 . S
C1970 C1969 1.523 . S
C1971 C1955 1.385 1_556 S
C1971 C1967 1.474 . S
C1971 C1972 1.523 . S
C1972 C1956 1.418 . S
C1972 C1968 1.320 1_556 S
C1972 C1971 1.523 . S
H1973 C1948 0.950 . S
H1974 C1950 0.950 . S
H1975 C1951 0.949 . S
H1976 C1953 0.950 . S
H1977 C1955 0.950 . S
C1978 C1979 1.349 . S
C1978 C1980 1.327 . S
C1978 H2003 0.950 . S
C1979 C1978 1.349 . S
C1979 C1995 1.349 . S
C1980 C1978 1.327 . S
C1980 C1999 1.429 . S
C1980 H2004 0.950 . S
C1981 C1998 1.574 . S
C1981 C2000 1.368 . S
C1981 H2005 0.949 . S
H1982 C1986 0.949 . S
C1983 C1984 1.349 . S
C1983 C1985 1.327 1_455 S
C1983 H2006 0.950 . S
C1984 C1983 1.349 . S
C1984 C1996 1.349 . S
C1985 C1983 1.327 1_655 S
C1985 C2001 1.429 . S
C1985 H2007 0.950 . S
C1986 H1982 0.949 . S
C1986 C1994 1.574 . S
C1986 C2002 1.368 . S
H1987 C1995 0.950 . S
H1988 C1993 0.950 . S
H1989 C1994 0.949 . S
H1990 C1996 0.950 . S
H1991 C1997 0.950 . S
H1992 C1998 0.949 . S
C1993 H1988 0.950 . S
C1993 C1995 1.327 . S
C1993 C1999 1.429 . S
C1994 C1986 1.574 . S
C1994 H1989 0.949 . S
C1994 C2000 1.368 . S
C1995 C1979 1.349 . S
C1995 H1987 0.950 . S
C1995 C1993 1.327 . S
C1996 C1984 1.349 . S
C1996 H1990 0.950 . S
C1996 C1997 1.327 . S
C1997 H1991 0.950 . S
C1997 C1996 1.327 . S
C1997 C2001 1.429 1_455 S
C1998 C1981 1.574 . S
C1998 H1992 0.949 . S
C1998 C2002 1.368 . S
C1999 C1980 1.429 . S
C1999 C1993 1.429 . S
C1999 C2000 1.523 . S
C2000 C1981 1.368 . S
C2000 C1994 1.368 . S
C2000 C1999 1.523 . S
C2001 C1985 1.429 . S
C2001 C1997 1.429 1_655 S
C2001 C2002 1.523 . S
C2002 C1986 1.368 . S
C2002 C1998 1.368 . S
C2002 C2001 1.523 . S
H2003 C1978 0.950 . S
H2004 C1980 0.950 . S
H2005 C1981 0.949 . S
H2006 C1983 0.950 . S
H2007 C1985 0.950 . S
C2008 C2009 1.349 . S
C2008 C2010 1.327 1_655 S
C2008 H2033 0.950 . S
C2009 C2008 1.349 . S
C2009 C2025 1.349 . S
C2010 C2008 1.327 1_455 S
C2010 C2029 1.429 . S
C2010 H2034 0.950 . S
C2011 C2028 1.574 . S
C2011 C2030 1.368 . S
C2011 H2035 0.949 . S
H2012 C2016 0.949 . S
C2013 C2014 1.349 . S
C2013 C2015 1.327 . S
C2013 H2036 0.950 . S
C2014 C2013 1.349 . S
C2014 C2026 1.349 . S
C2015 C2013 1.327 . S
C2015 C2031 1.429 . S
C2015 H2037 0.950 . S
C2016 H2012 0.949 . S
C2016 C2024 1.574 . S
C2016 C2032 1.368 . S
H2017 C2025 0.950 . S
H2018 C2023 0.950 . S
H2019 C2024 0.949 . S
H2020 C2026 0.950 . S
H2021 C2027 0.950 . S
H2022 C2028 0.949 . S
C2023 H2018 0.950 . S
C2023 C2025 1.327 . S
C2023 C2029 1.429 1_655 S
C2024 C2016 1.574 . S
C2024 H2019 0.949 . S
C2024 C2030 1.368 . S
C2025 C2009 1.349 . S
C2025 H2017 0.950 . S
C2025 C2023 1.327 . S
C2026 C2014 1.349 . S
C2026 H2020 0.950 . S
C2026 C2027 1.327 . S
C2027 H2021 0.950 . S
C2027 C2026 1.327 . S
C2027 C2031 1.429 . S
C2028 C2011 1.574 . S
C2028 H2022 0.949 . S
C2028 C2032 1.368 . S
C2029 C2010 1.429 . S
C2029 C2023 1.429 1_455 S
C2029 C2030 1.523 . S
C2030 C2011 1.368 . S
C2030 C2024 1.368 . S
C2030 C2029 1.523 . S
C2031 C2015 1.429 . S
C2031 C2027 1.429 . S
C2031 C2032 1.523 . S
C2032 C2016 1.368 . S
C2032 C2028 1.368 . S
C2032 C2031 1.523 . S
H2033 C2008 0.950 . S
H2034 C2010 0.950 . S
H2035 C2011 0.949 . S
H2036 C2013 0.950 . S
H2037 C2015 0.950 . S
C2038 C2039 1.349 . S
C2038 C2040 1.327 . S
C2038 H2063 0.950 . S
C2039 C2038 1.349 . S
C2039 C2055 1.349 . S
C2040 C2038 1.327 . S
C2040 C2059 1.429 . S
C2040 H2064 0.950 . S
C2041 C2058 1.574 . S
C2041 C2060 1.368 . S
C2041 H2065 0.949 . S
H2042 C2046 0.949 . S
C2043 C2044 1.349 . S
C2043 C2045 1.327 . S
C2043 H2066 0.950 . S
C2044 C2043 1.349 . S
C2044 C2056 1.349 . S
C2045 C2043 1.327 . S
C2045 C2061 1.429 1_655 S
C2045 H2067 0.950 . S
C2046 H2042 0.949 . S
C2046 C2054 1.574 . S
C2046 C2062 1.368 . S
H2047 C2055 0.950 . S
H2048 C2053 0.950 . S
H2049 C2054 0.949 . S
H2050 C2056 0.950 . S
H2051 C2057 0.950 . S
H2052 C2058 0.949 . S
C2053 H2048 0.950 . S
C2053 C2055 1.327 . S
C2053 C2059 1.429 . S
C2054 C2046 1.574 . S
C2054 H2049 0.949 . S
C2054 C2060 1.368 . S
C2055 C2039 1.349 . S
C2055 H2047 0.950 . S
C2055 C2053 1.327 . S
C2056 C2044 1.349 . S
C2056 H2050 0.950 . S
C2056 C2057 1.327 1_655 S
C2057 H2051 0.950 . S
C2057 C2056 1.327 1_455 S
C2057 C2061 1.429 . S
C2058 C2041 1.574 . S
C2058 H2052 0.949 . S
C2058 C2062 1.368 . S
C2059 C2040 1.429 . S
C2059 C2053 1.429 . S
C2059 C2060 1.523 . S
C2060 C2041 1.368 . S
C2060 C2054 1.368 . S
C2060 C2059 1.523 . S
C2061 C2045 1.429 1_455 S
C2061 C2057 1.429 . S
C2061 C2062 1.523 . S
C2062 C2046 1.368 . S
C2062 C2058 1.368 . S
C2062 C2061 1.523 . S
H2063 C2038 0.950 . S
H2064 C2040 0.950 . S
H2065 C2041 0.949 . S
H2066 C2043 0.950 . S
H2067 C2045 0.950 . S
C2068 C2069 1.349 . S
C2068 C2070 1.327 . S
C2068 H2093 0.950 . S
C2069 C2068 1.349 . S
C2069 C2085 1.349 . S
C2070 C2068 1.327 . S
C2070 C2089 1.429 . S
C2070 H2094 0.950 . S
C2071 C2088 1.574 . S
C2071 C2090 1.368 . S
C2071 H2095 0.949 . S
H2072 C2076 0.949 . S
C2073 C2074 1.349 . S
C2073 C2075 1.327 1_455 S
C2073 H2096 0.950 . S
C2074 C2073 1.349 . S
C2074 C2086 1.349 . S
C2075 C2073 1.327 1_655 S
C2075 C2091 1.429 . S
C2075 H2097 0.950 . S
C2076 H2072 0.949 . S
C2076 C2084 1.574 . S
C2076 C2092 1.368 . S
H2077 C2085 0.950 . S
H2078 C2083 0.950 . S
H2079 C2084 0.949 . S
H2080 C2086 0.950 . S
H2081 C2087 0.950 . S
H2082 C2088 0.949 . S
C2083 H2078 0.950 . S
C2083 C2085 1.327 . S
C2083 C2089 1.429 . S
C2084 C2076 1.574 . S
C2084 H2079 0.949 . S
C2084 C2090 1.368 . S
C2085 C2069 1.349 . S
C2085 H2077 0.950 . S
C2085 C2083 1.327 . S
C2086 C2074 1.349 . S
C2086 H2080 0.950 . S
C2086 C2087 1.327 . S
C2087 H2081 0.950 . S
C2087 C2086 1.327 . S
C2087 C2091 1.429 1_455 S
C2088 C2071 1.574 . S
C2088 H2082 0.949 . S
C2088 C2092 1.368 . S
C2089 C2070 1.429 . S
C2089 C2083 1.429 . S
C2089 C2090 1.523 . S
C2090 C2071 1.368 . S
C2090 C2084 1.368 . S
C2090 C2089 1.523 . S
C2091 C2075 1.429 . S
C2091 C2087 1.429 1_655 S
C2091 C2092 1.523 . S
C2092 C2076 1.368 . S
C2092 C2088 1.368 . S
C2092 C2091 1.523 . S
H2093 C2068 0.950 . S
H2094 C2070 0.950 . S
H2095 C2071 0.949 . S
H2096 C2073 0.950 . S
H2097 C2075 0.950 . S
C2098 C2099 1.349 . S
C2098 C2100 1.327 . S
C2098 H2123 0.950 . S
C2099 C2098 1.349 . S
C2099 C2115 1.349 . S
C2100 C2098 1.327 . S
C2100 C2119 1.429 . S
C2100 H2124 0.950 . S
C2101 C2118 1.574 . S
C2101 C2120 1.368 . S
C2101 H2125 0.949 . S
H2102 C2106 0.949 . S
C2103 C2104 1.349 . S
C2103 C2105 1.327 . S
C2103 H2126 0.950 . S
C2104 C2103 1.349 . S
C2104 C2116 1.349 . S
C2105 C2103 1.327 . S
C2105 C2121 1.429 1_455 S
C2105 H2127 0.950 . S
C2106 H2102 0.949 . S
C2106 C2114 1.574 . S
C2106 C2122 1.368 . S
H2107 C2115 0.950 . S
H2108 C2113 0.950 . S
H2109 C2114 0.949 . S
H2110 C2116 0.950 . S
H2111 C2117 0.950 . S
H2112 C2118 0.949 . S
C2113 H2108 0.950 . S
C2113 C2115 1.327 . S
C2113 C2119 1.429 . S
C2114 C2106 1.574 . S
C2114 H2109 0.949 . S
C2114 C2120 1.368 . S
C2115 C2099 1.349 . S
C2115 H2107 0.950 . S
C2115 C2113 1.327 . S
C2116 C2104 1.349 . S
C2116 H2110 0.950 . S
C2116 C2117 1.327 1_455 S
C2117 H2111 0.950 . S
C2117 C2116 1.327 1_655 S
C2117 C2121 1.429 . S
C2118 C2101 1.574 . S
C2118 H2112 0.949 . S
C2118 C2122 1.368 . S
C2119 C2100 1.429 . S
C2119 C2113 1.429 . S
C2119 C2120 1.523 . S
C2120 C2101 1.368 . S
C2120 C2114 1.368 . S
C2120 C2119 1.523 . S
C2121 C2105 1.429 1_655 S
C2121 C2117 1.429 . S
C2121 C2122 1.523 . S
C2122 C2106 1.368 . S
C2122 C2118 1.368 . S
C2122 C2121 1.523 . S
H2123 C2098 0.950 . S
H2124 C2100 0.950 . S
H2125 C2101 0.949 . S
H2126 C2103 0.950 . S
H2127 C2105 0.950 . S
C2128 C2129 1.349 . S
C2128 C2130 1.327 . S
C2128 H2153 0.950 . S
C2129 C2128 1.349 . S
C2129 C2145 1.349 . S
C2130 C2128 1.327 . S
C2130 C2149 1.429 . S
C2130 H2154 0.950 . S
C2131 C2148 1.574 . S
C2131 C2150 1.368 . S
C2131 H2155 0.949 . S
H2132 C2136 0.949 . S
C2133 C2134 1.349 . S
C2133 C2135 1.327 . S
C2133 H2156 0.950 . S
C2134 C2133 1.349 . S
C2134 C2146 1.349 . S
C2135 C2133 1.327 . S
C2135 C2151 1.429 . S
C2135 H2157 0.950 . S
C2136 H2132 0.949 . S
C2136 C2144 1.574 . S
C2136 C2152 1.368 . S
H2137 C2145 0.950 . S
H2138 C2143 0.950 . S
H2139 C2144 0.949 . S
H2140 C2146 0.950 . S
H2141 C2147 0.950 . S
H2142 C2148 0.949 . S
C2143 H2138 0.950 . S
C2143 C2145 1.327 . S
C2143 C2149 1.429 . S
C2144 C2136 1.574 . S
C2144 H2139 0.949 . S
C2144 C2150 1.368 . S
C2145 C2129 1.349 . S
C2145 H2137 0.950 . S
C2145 C2143 1.327 . S
C2146 C2134 1.349 . S
C2146 H2140 0.950 . S
C2146 C2147 1.327 . S
C2147 H2141 0.950 . S
C2147 C2146 1.327 . S
C2147 C2151 1.429 . S
C2148 C2131 1.574 . S
C2148 H2142 0.949 . S
C2148 C2152 1.368 . S
C2149 C2130 1.429 . S
C2149 C2143 1.429 . S
C2149 C2150 1.523 . S
C2150 C2131 1.368 . S
C2150 C2144 1.368 . S
C2150 C2149 1.523 . S
C2151 C2135 1.429 . S
C2151 C2147 1.429 . S
C2151 C2152 1.523 . S
C2152 C2136 1.368 . S
C2152 C2148 1.368 . S
C2152 C2151 1.523 . S
H2153 C2128 0.950 . S
H2154 C2130 0.950 . S
H2155 C2131 0.949 . S
H2156 C2133 0.950 . S
H2157 C2135 0.950 . S
C2158 C2159 1.349 . S
C2158 C2160 1.327 . S
C2158 H2183 0.950 . S
C2159 C2158 1.349 . S
C2159 C2175 1.349 . S
C2160 C2158 1.327 . S
C2160 C2179 1.429 . S
C2160 H2184 0.950 . S
C2161 C2178 1.574 . S
C2161 C2180 1.368 . S
C2161 H2185 0.949 . S
H2162 C2166 0.949 . S
C2163 C2164 1.349 . S
C2163 C2165 1.327 . S
C2163 H2186 0.950 . S
C2164 C2163 1.349 . S
C2164 C2176 1.349 . S
C2165 C2163 1.327 . S
C2165 C2181 1.429 . S
C2165 H2187 0.950 . S
C2166 H2162 0.949 . S
C2166 C2174 1.574 . S
C2166 C2182 1.368 . S
H2167 C2175 0.950 . S
H2168 C2173 0.950 . S
H2169 C2174 0.949 . S
H2170 C2176 0.950 . S
H2171 C2177 0.950 . S
H2172 C2178 0.949 . S
C2173 H2168 0.950 . S
C2173 C2175 1.327 . S
C2173 C2179 1.429 . S
C2174 C2166 1.574 . S
C2174 H2169 0.949 . S
C2174 C2180 1.368 . S
C2175 C2159 1.349 . S
C2175 H2167 0.950 . S
C2175 C2173 1.327 . S
C2176 C2164 1.349 . S
C2176 H2170 0.950 . S
C2176 C2177 1.327 . S
C2177 H2171 0.950 . S
C2177 C2176 1.327 . S
C2177 C2181 1.429 . S
C2178 C2161 1.574 . S
C2178 H2172 0.949 . S
C2178 C2182 1.368 . S
C2179 C2160 1.429 . S
C2179 C2173 1.429 . S
C2179 C2180 1.523 . S
C2180 C2161 1.368 . S
C2180 C2174 1.368 . S
C2180 C2179 1.523 . S
C2181 C2165 1.429 . S
C2181 C2177 1.429 . S
C2181 C2182 1.523 . S
C2182 C2166 1.368 . S
C2182 C2178 1.368 . S
C2182 C2181 1.523 . S
H2183 C2158 0.950 . S
H2184 C2160 0.950 . S
H2185 C2161 0.949 . S
H2186 C2163 0.950 . S
H2187 C2165 0.950 . S
C2188 C2189 1.349 . S
C2188 C2190 1.327 . S
C2188 H2213 0.950 . S
C2189 C2188 1.349 . S
C2189 C2205 1.349 . S
C2190 C2188 1.327 . S
C2190 C2209 1.429 . S
C2190 H2214 0.950 . S
C2191 C2208 1.574 . S
C2191 C2210 1.368 . S
C2191 H2215 0.949 . S
H2192 C2196 0.949 . S
C2193 C2194 1.349 . S
C2193 C2195 1.327 . S
C2193 H2216 0.950 . S
C2194 C2193 1.349 . S
C2194 C2206 1.349 . S
C2195 C2193 1.327 . S
C2195 C2211 1.429 . S
C2195 H2217 0.950 . S
C2196 H2192 0.949 . S
C2196 C2204 1.574 . S
C2196 C2212 1.368 . S
H2197 C2205 0.950 . S
H2198 C2203 0.950 . S
H2199 C2204 0.949 . S
H2200 C2206 0.950 . S
H2201 C2207 0.950 . S
H2202 C2208 0.949 . S
C2203 H2198 0.950 . S
C2203 C2205 1.327 . S
C2203 C2209 1.429 . S
C2204 C2196 1.574 . S
C2204 H2199 0.949 . S
C2204 C2210 1.368 . S
C2205 C2189 1.349 . S
C2205 H2197 0.950 . S
C2205 C2203 1.327 . S
C2206 C2194 1.349 . S
C2206 H2200 0.950 . S
C2206 C2207 1.327 . S
C2207 H2201 0.950 . S
C2207 C2206 1.327 . S
C2207 C2211 1.429 . S
C2208 C2191 1.574 . S
C2208 H2202 0.949 . S
C2208 C2212 1.368 . S
C2209 C2190 1.429 . S
C2209 C2203 1.429 . S
C2209 C2210 1.523 . S
C2210 C2191 1.368 . S
C2210 C2204 1.368 . S
C2210 C2209 1.523 . S
C2211 C2195 1.429 . S
C2211 C2207 1.429 . S
C2211 C2212 1.523 . S
C2212 C2196 1.368 . S
C2212 C2208 1.368 . S
C2212 C2211 1.523 . S
H2213 C2188 0.950 . S
H2214 C2190 0.950 . S
H2215 C2191 0.949 . S
H2216 C2193 0.950 . S
H2217 C2195 0.950 . S
C2218 C2219 1.349 . S
C2218 C2220 1.327 . S
C2218 H2243 0.950 . S
C2219 C2218 1.349 . S
C2219 C2235 1.349 . S
C2220 C2218 1.327 . S
C2220 C2239 1.429 . S
C2220 H2244 0.950 . S
C2221 C2238 1.574 . S
C2221 C2240 1.368 . S
C2221 H2245 0.949 . S
H2222 C2226 0.949 . S
C2223 C2224 1.349 . S
C2223 C2225 1.327 . S
C2223 H2246 0.950 . S
C2224 C2223 1.349 . S
C2224 C2236 1.349 . S
C2225 C2223 1.327 . S
C2225 C2241 1.429 . S
C2225 H2247 0.950 . S
C2226 H2222 0.949 . S
C2226 C2234 1.574 . S
C2226 C2242 1.368 . S
H2227 C2235 0.950 . S
H2228 C2233 0.950 . S
H2229 C2234 0.949 . S
H2230 C2236 0.950 . S
H2231 C2237 0.950 . S
H2232 C2238 0.949 . S
C2233 H2228 0.950 . S
C2233 C2235 1.327 . S
C2233 C2239 1.429 . S
C2234 C2226 1.574 . S
C2234 H2229 0.949 . S
C2234 C2240 1.368 . S
C2235 C2219 1.349 . S
C2235 H2227 0.950 . S
C2235 C2233 1.327 . S
C2236 C2224 1.349 . S
C2236 H2230 0.950 . S
C2236 C2237 1.327 . S
C2237 H2231 0.950 . S
C2237 C2236 1.327 . S
C2237 C2241 1.429 . S
C2238 C2221 1.574 . S
C2238 H2232 0.949 . S
C2238 C2242 1.368 . S
C2239 C2220 1.429 . S
C2239 C2233 1.429 . S
C2239 C2240 1.523 . S
C2240 C2221 1.368 . S
C2240 C2234 1.368 . S
C2240 C2239 1.523 . S
C2241 C2225 1.429 . S
C2241 C2237 1.429 . S
C2241 C2242 1.523 . S
C2242 C2226 1.368 . S
C2242 C2238 1.368 . S
C2242 C2241 1.523 . S
H2243 C2218 0.950 . S
H2244 C2220 0.950 . S
H2245 C2221 0.949 . S
H2246 C2223 0.950 . S
H2247 C2225 0.950 . S
C2248 C2249 1.305 1_556 S
C2248 C2250 1.327 . S
C2248 H2273 0.950 . S
C2249 C2248 1.305 1_554 S
C2249 C2265 1.395 . S
C2250 C2248 1.327 . S
C2250 C2269 1.386 1_556 S
C2250 H2274 0.950 . S
C2251 C2268 1.574 . S
C2251 C2270 1.417 . S
C2251 H2275 0.949 . S
H2252 C2256 0.949 . S
C2253 C2254 1.395 . S
C2253 C2255 1.327 . S
C2253 H2276 0.950 . S
C2254 C2253 1.395 . S
C2254 C2266 1.305 1_554 S
C2255 C2253 1.327 . S
C2255 C2271 1.473 . S
C2255 H2277 0.950 . S
C2256 H2252 0.949 . S
C2256 C2264 1.574 . S
C2256 C2272 1.321 1_556 S
H2257 C2265 0.950 . S
H2258 C2263 0.950 . S
H2259 C2264 0.949 . S
H2260 C2266 0.950 . S
H2261 C2267 0.950 . S
H2262 C2268 0.949 . S
C2263 H2258 0.950 . S
C2263 C2265 1.327 . S
C2263 C2269 1.473 . S
C2264 C2256 1.574 . S
C2264 H2259 0.949 . S
C2264 C2270 1.321 1_556 S
C2265 C2249 1.395 . S
C2265 H2257 0.950 . S
C2265 C2263 1.327 . S
C2266 C2254 1.305 1_556 S
C2266 H2260 0.950 . S
C2266 C2267 1.327 . S
C2267 H2261 0.950 . S
C2267 C2266 1.327 . S
C2267 C2271 1.386 1_556 S
C2268 C2251 1.574 . S
C2268 H2262 0.949 . S
C2268 C2272 1.417 . S
C2269 C2250 1.386 1_554 S
C2269 C2263 1.473 . S
C2269 C2270 1.523 . S
C2270 C2251 1.417 . S
C2270 C2264 1.321 1_554 S
C2270 C2269 1.523 . S
C2271 C2255 1.473 . S
C2271 C2267 1.386 1_554 S
C2271 C2272 1.523 . S
C2272 C2256 1.321 1_554 S
C2272 C2268 1.417 . S
C2272 C2271 1.523 . S
H2273 C2248 0.950 . S
H2274 C2250 0.950 . S
H2275 C2251 0.949 . S
H2276 C2253 0.950 . S
H2277 C2255 0.950 . S
C2278 C2279 1.349 . S
C2278 C2280 1.327 . S
C2278 H2303 0.950 . S
C2279 C2278 1.349 . S
C2279 C2295 1.349 . S
C2280 C2278 1.327 . S
C2280 C2299 1.429 . S
C2280 H2304 0.950 . S
C2281 C2298 1.574 . S
C2281 C2300 1.368 . S
C2281 H2305 0.949 . S
H2282 C2286 0.949 . S
C2283 C2284 1.349 . S
C2283 C2285 1.327 . S
C2283 H2306 0.950 . S
C2284 C2283 1.349 . S
C2284 C2296 1.349 . S
C2285 C2283 1.327 . S
C2285 C2301 1.429 . S
C2285 H2307 0.950 . S
C2286 H2282 0.949 . S
C2286 C2294 1.574 . S
C2286 C2302 1.368 . S
H2287 C2295 0.950 . S
H2288 C2293 0.950 . S
H2289 C2294 0.949 . S
H2290 C2296 0.950 . S
H2291 C2297 0.950 . S
H2292 C2298 0.949 . S
C2293 H2288 0.950 . S
C2293 C2295 1.327 . S
C2293 C2299 1.429 . S
C2294 C2286 1.574 . S
C2294 H2289 0.949 . S
C2294 C2300 1.368 . S
C2295 C2279 1.349 . S
C2295 H2287 0.950 . S
C2295 C2293 1.327 . S
C2296 C2284 1.349 . S
C2296 H2290 0.950 . S
C2296 C2297 1.327 . S
C2297 H2291 0.950 . S
C2297 C2296 1.327 . S
C2297 C2301 1.429 . S
C2298 C2281 1.574 . S
C2298 H2292 0.949 . S
C2298 C2302 1.368 . S
C2299 C2280 1.429 . S
C2299 C2293 1.429 . S
C2299 C2300 1.523 . S
C2300 C2281 1.368 . S
C2300 C2294 1.368 . S
C2300 C2299 1.523 . S
C2301 C2285 1.429 . S
C2301 C2297 1.429 . S
C2301 C2302 1.523 . S
C2302 C2286 1.368 . S
C2302 C2298 1.368 . S
C2302 C2301 1.523 . S
H2303 C2278 0.950 . S
H2304 C2280 0.950 . S
H2305 C2281 0.949 . S
H2306 C2283 0.950 . S
H2307 C2285 0.950 . S
C2308 C2309 1.395 . S
C2308 C2310 1.327 . S
C2308 H2333 0.950 . S
C2309 C2308 1.395 . S
C2309 C2325 1.305 1_556 S
C2310 C2308 1.327 . S
C2310 C2329 1.473 . S
C2310 H2334 0.950 . S
C2311 C2328 1.574 . S
C2311 C2330 1.321 1_554 S
C2311 H2335 0.949 . S
H2312 C2316 0.949 . S
C2313 C2314 1.305 1_554 S
C2313 C2315 1.327 . S
C2313 H2336 0.950 . S
C2314 C2313 1.305 1_556 S
C2314 C2326 1.395 . S
C2315 C2313 1.327 . S
C2315 C2331 1.386 1_554 S
C2315 H2337 0.950 . S
C2316 H2312 0.949 . S
C2316 C2324 1.574 . S
C2316 C2332 1.417 . S
H2317 C2325 0.950 . S
H2318 C2323 0.950 . S
H2319 C2324 0.949 . S
H2320 C2326 0.950 . S
H2321 C2327 0.950 . S
H2322 C2328 0.949 . S
C2323 H2318 0.950 . S
C2323 C2325 1.327 . S
C2323 C2329 1.386 1_554 S
C2324 C2316 1.574 . S
C2324 H2319 0.949 . S
C2324 C2330 1.417 . S
C2325 C2309 1.305 1_554 S
C2325 H2317 0.950 . S
C2325 C2323 1.327 . S
C2326 C2314 1.395 . S
C2326 H2320 0.950 . S
C2326 C2327 1.327 . S
C2327 H2321 0.950 . S
C2327 C2326 1.327 . S
C2327 C2331 1.473 . S
C2328 C2311 1.574 . S
C2328 H2322 0.949 . S
C2328 C2332 1.321 1_554 S
C2329 C2310 1.473 . S
C2329 C2323 1.386 1_556 S
C2329 C2330 1.523 . S
C2330 C2311 1.321 1_556 S
C2330 C2324 1.417 . S
C2330 C2329 1.523 . S
C2331 C2315 1.386 1_556 S
C2331 C2327 1.473 . S
C2331 C2332 1.523 . S
C2332 C2316 1.417 . S
C2332 C2328 1.321 1_556 S
C2332 C2331 1.523 . S
H2333 C2308 0.950 . S
H2334 C2310 0.950 . S
H2335 C2311 0.949 . S
H2336 C2313 0.950 . S
H2337 C2315 0.950 . S
C2338 C2339 1.349 . S
C2338 C2340 1.327 . S
C2338 H2363 0.950 . S
C2339 C2338 1.349 . S
C2339 C2355 1.349 . S
C2340 C2338 1.327 . S
C2340 C2359 1.429 . S
C2340 H2364 0.950 . S
C2341 C2358 1.574 . S
C2341 C2360 1.368 . S
C2341 H2365 0.949 . S
H2342 C2346 0.949 . S
C2343 C2344 1.349 . S
C2343 C2345 1.327 . S
C2343 H2366 0.950 . S
C2344 C2343 1.349 . S
C2344 C2356 1.349 . S
C2345 C2343 1.327 . S
C2345 C2361 1.429 . S
C2345 H2367 0.950 . S
C2346 H2342 0.949 . S
C2346 C2354 1.574 . S
C2346 C2362 1.368 . S
H2347 C2355 0.950 . S
H2348 C2353 0.950 . S
H2349 C2354 0.949 . S
H2350 C2356 0.950 . S
H2351 C2357 0.950 . S
H2352 C2358 0.949 . S
C2353 H2348 0.950 . S
C2353 C2355 1.327 . S
C2353 C2359 1.429 . S
C2354 C2346 1.574 . S
C2354 H2349 0.949 . S
C2354 C2360 1.368 . S
C2355 C2339 1.349 . S
C2355 H2347 0.950 . S
C2355 C2353 1.327 . S
C2356 C2344 1.349 . S
C2356 H2350 0.950 . S
C2356 C2357 1.327 . S
C2357 H2351 0.950 . S
C2357 C2356 1.327 . S
C2357 C2361 1.429 . S
C2358 C2341 1.574 . S
C2358 H2352 0.949 . S
C2358 C2362 1.368 . S
C2359 C2340 1.429 . S
C2359 C2353 1.429 . S
C2359 C2360 1.523 . S
C2360 C2341 1.368 . S
C2360 C2354 1.368 . S
C2360 C2359 1.523 . S
C2361 C2345 1.429 . S
C2361 C2357 1.429 . S
C2361 C2362 1.523 . S
C2362 C2346 1.368 . S
C2362 C2358 1.368 . S
C2362 C2361 1.523 . S
H2363 C2338 0.950 . S
H2364 C2340 0.950 . S
H2365 C2341 0.949 . S
H2366 C2343 0.950 . S
H2367 C2345 0.950 . S
C449 C7 1.095 . S
C454 C49 1.095 . S
C479 C35 1.094 . S
C484 C21 1.094 . S
C509 C105 1.095 . S
C514 C63 1.095 . S
C539 C91 1.094 . S
C544 C77 1.094 . S
C569 C119 1.095 . S
C574 C161 1.095 . S
C599 C133 1.095 . S
C604 C147 1.095 . S
C629 C217 1.095 . S
C634 C175 1.095 . S
C659 C203 1.095 . S
C664 C189 1.095 . S
C689 C231 1.094 . S
C694 C273 1.094 . S
C719 C245 1.095 . S
C724 C259 1.095 . S
C749 C287 1.094 . S
C754 C329 1.094 . S
C779 C301 1.095 . S
C784 C315 1.095 . S
C809 C343 1.094 . S
C814 C385 1.094 . S
C839 C371 1.094 . S
C844 C357 1.094 . S
C869 C441 1.094 . S
C874 C399 1.094 . S
C899 C427 1.094 . S
C904 C413 1.094 . S
C929 C6 1.820 . S
C934 C62 1.820 . S
C959 C412 1.820 . S
C964 C20 1.820 . S
C989 C34 1.817 . S
C994 C202 1.817 . S
C1019 C328 1.816 . S
C1024 C48 1.816 . S
C1049 C356 1.820 . S
C1054 C76 1.820 . S
C1079 C90 1.817 . S
C1084 C146 1.817 . S
C1109 C104 1.816 . S
C1114 C272 1.816 . S
C1139 C174 1.817 . S
C1144 C118 1.817 . S
C1169 C300 1.817 . S
C1174 C132 1.817 . S
C1199 C160 1.816 . S
C1204 C440 1.816 . S
C1229 C188 1.817 . S
C1234 C244 1.817 . S
C1259 C216 1.816 . S
C1264 C384 1.816 . S
C1289 C286 1.817 . S
C1294 C230 1.817 . S
C1319 C258 1.816 . S
C1324 C426 1.816 . S
C1349 C314 1.816 . S
C1354 C370 1.816 . S
C1379 C398 1.820 . S
C1384 C342 1.820 . S
C1409 C8 1.364 . S
C1414 C274 1.364 . S
C1439 C22 1.364 . S
C1444 C260 1.364 . S
C1469 C246 1.364 . S
C1474 C36 1.364 . S
C1499 C232 1.364 . S
C1504 C50 1.365 . S
C1529 C64 1.364 . S
C1534 C330 1.364 . S
C1559 C78 1.364 . S
C1564 C316 1.364 . S
C1589 C92 1.364 . S
C1594 C302 1.364 . S
C1619 C288 1.364 . S
C1624 C106 1.365 . S
C1649 C120 1.364 . S
C1654 C386 1.364 . S
C1679 C372 1.364 . S
C1684 C134 1.364 . S
C1709 C358 1.365 . S
C1714 C148 1.365 . S
C1739 C162 1.365 . S
C1744 C344 1.365 . S
C1769 C176 1.364 . S
C1774 C442 1.364 . S
C1799 C190 1.364 . S
C1804 C428 1.364 . S
C1829 C414 1.365 . S
C1834 C204 1.365 . S
C1859 C218 1.365 . S
C1864 C400 1.365 . S
C1889 C23 1.344 . S
C1894 C9 1.344 . S
C1919 C37 1.336 . S
C1924 C51 1.336 . S
C1949 C79 1.344 . S
C1954 C65 1.344 . S
C1979 C93 1.336 . S
C1984 C107 1.337 . S
C2009 C135 1.337 . S
C2014 C121 1.337 . S
C2039 C149 1.337 . S
C2044 C163 1.337 . S
C2069 C177 1.337 . S
C2074 C191 1.337 . S
C2099 C205 1.337 . S
C2104 C219 1.337 . S
C2129 C233 1.338 . S
C2134 C247 1.338 . S
C2159 C275 1.336 . S
C2164 C261 1.336 . S
C2189 C289 1.337 . S
C2194 C303 1.338 . S
C2219 C331 1.336 . S
C2224 C317 1.336 . S
C2249 C359 1.344 . S
C2254 C345 1.344 . S
C2279 C373 1.336 . S
C2284 C387 1.336 . S
C2309 C401 1.344 . S
C2314 C415 1.344 . S
C2339 C443 1.336 . S
C2344 C429 1.336 . S
