# Generated by pormake.
# Topology wjx, (5)-cn, num edge types: 1
# Building blocks:
#     Node 0, Type 0, BuildingBlock: XOMCOT_clean_sbu_1, # of connection points: 5
#     Node 1, Type 0, BuildingBlock: XOMCOT_clean_sbu_1, # of connection points: 5
#     Node 2, Type 0, BuildingBlock: XOMCOT_clean_sbu_1, # of connection points: 5
#     Node 3, Type 0, BuildingBlock: XOMCOT_clean_sbu_1, # of connection points: 5
#     Node 4, Type 0, BuildingBlock: XOMCOT_clean_sbu_1, # of connection points: 5
#     Node 5, Type 0, BuildingBlock: XOMCOT_clean_sbu_1, # of connection points: 5
#     Node 6, Type 0, BuildingBlock: XOMCOT_clean_sbu_1, # of connection points: 5
#     Node 7, Type 0, BuildingBlock: XOMCOT_clean_sbu_1, # of connection points: 5
#     Node 8, Type 0, BuildingBlock: XOMCOT_clean_sbu_1, # of connection points: 5
#     Node 9, Type 0, BuildingBlock: XOMCOT_clean_sbu_1, # of connection points: 5
#     Node 10, Type 0, BuildingBlock: XOMCOT_clean_sbu_1, # of connection points: 5
#     Node 11, Type 0, BuildingBlock: XOMCOT_clean_sbu_1, # of connection points: 5
#     Edge 12, Type (0, 0), BuildingBlock: EZIPEK_clean_linker_0, # of connection points: 2
#     Edge 13, Type (0, 0), BuildingBlock: EZIPEK_clean_linker_0, # of connection points: 2
#     Edge 14, Type (0, 0), BuildingBlock: EZIPEK_clean_linker_0, # of connection points: 2
#     Edge 15, Type (0, 0), BuildingBlock: EZIPEK_clean_linker_0, # of connection points: 2
#     Edge 16, Type (0, 0), BuildingBlock: EZIPEK_clean_linker_0, # of connection points: 2
#     Edge 17, Type (0, 0), BuildingBlock: EZIPEK_clean_linker_0, # of connection points: 2
#     Edge 18, Type (0, 0), BuildingBlock: EZIPEK_clean_linker_0, # of connection points: 2
#     Edge 19, Type (0, 0), BuildingBlock: EZIPEK_clean_linker_0, # of connection points: 2
#     Edge 20, Type (0, 0), BuildingBlock: EZIPEK_clean_linker_0, # of connection points: 2
#     Edge 21, Type (0, 0), BuildingBlock: EZIPEK_clean_linker_0, # of connection points: 2
#     Edge 22, Type (0, 0), BuildingBlock: EZIPEK_clean_linker_0, # of connection points: 2
#     Edge 23, Type (0, 0), BuildingBlock: EZIPEK_clean_linker_0, # of connection points: 2
#     Edge 24, Type (0, 0), BuildingBlock: EZIPEK_clean_linker_0, # of connection points: 2
#     Edge 25, Type (0, 0), BuildingBlock: EZIPEK_clean_linker_0, # of connection points: 2
#     Edge 26, Type (0, 0), BuildingBlock: EZIPEK_clean_linker_0, # of connection points: 2
#     Edge 27, Type (0, 0), BuildingBlock: EZIPEK_clean_linker_0, # of connection points: 2
#     Edge 28, Type (0, 0), BuildingBlock: EZIPEK_clean_linker_0, # of connection points: 2
#     Edge 29, Type (0, 0), BuildingBlock: EZIPEK_clean_linker_0, # of connection points: 2
#     Edge 30, Type (0, 0), BuildingBlock: EZIPEK_clean_linker_0, # of connection points: 2
#     Edge 31, Type (0, 0), BuildingBlock: EZIPEK_clean_linker_0, # of connection points: 2
#     Edge 32, Type (0, 0), BuildingBlock: EZIPEK_clean_linker_0, # of connection points: 2
#     Edge 33, Type (0, 0), BuildingBlock: EZIPEK_clean_linker_0, # of connection points: 2
#     Edge 34, Type (0, 0), BuildingBlock: EZIPEK_clean_linker_0, # of connection points: 2
#     Edge 35, Type (0, 0), BuildingBlock: EZIPEK_clean_linker_0, # of connection points: 2
#     Edge 36, Type (0, 0), BuildingBlock: EZIPEK_clean_linker_0, # of connection points: 2
#     Edge 37, Type (0, 0), BuildingBlock: EZIPEK_clean_linker_0, # of connection points: 2
#     Edge 38, Type (0, 0), BuildingBlock: EZIPEK_clean_linker_0, # of connection points: 2
#     Edge 39, Type (0, 0), BuildingBlock: EZIPEK_clean_linker_0, # of connection points: 2
#     Edge 40, Type (0, 0), BuildingBlock: EZIPEK_clean_linker_0, # of connection points: 2
#     Edge 41, Type (0, 0), BuildingBlock: EZIPEK_clean_linker_0, # of connection points: 2
# Relax obj value: 0.116
# Max RMSD: 0.102
# Mean RMSD: 0.102
data_MOF--net-wjx--node1-XOMCOT_clean_sbu_1--edge1-EZIPEK_clean_linker_0
_symmetry_space_group_name_H-M    P1
_symmetry_Int_Tables_number       1
_symmetry_cell_setting            triclinic
loop_
_symmetry_equiv_pos_as_xyz
'x, y, z'
_cell_length_a     54.489295
_cell_length_b     54.6384
_cell_length_c     13.551799
_cell_angle_alpha  89.756227
_cell_angle_beta   90.402397
_cell_angle_gamma 120.00489
loop_
_atom_site_label
_atom_site_type_symbol
_atom_site_fract_x
_atom_site_fract_y
_atom_site_fract_z
_atom_type_partial_charge
C0 C 0.15672 0.44987 0.26812 0.0
C1 C 0.15877 0.45129 0.36954 0.0
N2 N 0.13298 0.43364 0.40632 0.0
N3 N 0.12982 0.43115 0.24126 0.0
C4 C 0.11575 0.4219 0.32766 0.0
H5 H 0.17374 0.46205 0.21723 0.0
Co6 Co 0.11702 0.42329 0.11032 0.0
C7 C 0.07181 0.36677 0.18704 0.0
O8 O 0.08893 0.35695 0.20661 0.0
N9 N 0.10439 0.41605 0.97866 0.0
C10 C 0.07645 0.40534 0.84604 0.0
C11 C 0.07733 0.40562 0.94752 0.0
C12 C 0.11963 0.42234 0.89449 0.0
N13 N 0.10306 0.41584 0.81321 0.0
O14 O 0.13387 0.39958 0.09777 0.0
H15 H 0.05941 0.39957 0.99542 0.0
H16 H 0.14246 0.43234 0.89216 0.0
O17 O 0.08125 0.39141 0.15084 0.0
C18 C 0.1597 0.41244 0.07046 0.0
O19 O 0.17181 0.43936 0.04772 0.0
N20 N 0.10256 0.44785 0.12223 0.0
C21 C 0.08952 0.49065 0.14596 0.0
C22 C 0.07245 0.46406 0.18881 0.0
C23 C 0.07944 0.44287 0.17654 0.0
C24 C 0.11883 0.47335 0.07774 0.0
C25 C 0.11264 0.49509 0.08845 0.0
H26 H 0.06674 0.42295 0.21373 0.0
H27 H 0.13723 0.47703 0.03606 0.0
H28 H 0.09324 0.40755 0.33353 0.0
H29 H 0.17756 0.46449 0.41301 0.0
H30 H 0.05791 0.39873 0.79979 0.0
H31 H 0.05458 0.46013 0.23434 0.0
H32 H 0.12631 0.5155 0.05495 0.0
C33 C 0.72842 0.16352 0.563 0.0
C34 C 0.73182 0.16541 0.66392 0.0
N35 N 0.71596 0.13938 0.70195 0.0
N36 N 0.7109 0.13632 0.53673 0.0
C37 C 0.70363 0.12219 0.62384 0.0
H38 H 0.7376 0.1812 0.51273 0.0
Co39 Co 0.69872 0.12337 0.40651 0.0
C40 C 0.6759 0.06107 0.41762 0.0
O41 O 0.65436 0.05728 0.36289 0.0
N42 N 0.68651 0.1109 0.27192 0.0
C43 C 0.66044 0.09718 0.13318 0.0
C44 C 0.6598 0.09844 0.23399 0.0
C45 C 0.70282 0.11627 0.19029 0.0
N46 N 0.68756 0.1088 0.10559 0.0
O47 O 0.73798 0.13793 0.36964 0.0
H48 H 0.64057 0.09114 0.27569 0.0
H49 H 0.72558 0.12625 0.19155 0.0
O50 O 0.69478 0.08622 0.4418 0.0
C51 C 0.74956 0.16344 0.33838 0.0
O52 O 0.73347 0.17483 0.32592 0.0
N53 N 0.66141 0.11298 0.44333 0.0
C54 C 0.60904 0.10798 0.48841 0.0
C55 C 0.61761 0.09019 0.53318 0.0
C56 C 0.64361 0.09255 0.50778 0.0
C57 C 0.65409 0.13146 0.4041 0.0
C58 C 0.62753 0.12841 0.42131 0.0
H59 H 0.64942 0.07828 0.54168 0.0
H60 H 0.66875 0.14816 0.35586 0.0
H61 H 0.68887 0.0999 0.6312 0.0
H62 H 0.74382 0.18456 0.70658 0.0
H63 H 0.64254 0.09009 0.08336 0.0
H64 H 0.60425 0.07451 0.58695 0.0
H65 H 0.62189 0.14261 0.38495 0.0
C66 C 0.54855 0.69312 0.89159 0.0
C67 C 0.54964 0.69511 0.99256 0.0
N68 N 0.57674 0.70566 0.02196 0.0
N69 N 0.57473 0.70158 0.85681 0.0
C70 C 0.59168 0.71036 0.93768 0.0
H71 H 0.52948 0.68373 0.84689 0.0
Co72 Co 0.58079 0.69372 0.72714 0.0
C73 C 0.61953 0.67022 0.76387 0.0
O74 O 0.59991 0.64596 0.72829 0.0
N75 N 0.58636 0.68572 0.59318 0.0
C76 C 0.5822 0.66269 0.45237 0.0
C77 C 0.57952 0.66038 0.55273 0.0
C78 C 0.59403 0.70325 0.51374 0.0
N79 N 0.59104 0.68958 0.42753 0.0
O80 O 0.6045 0.73395 0.70282 0.0
H81 H 0.57067 0.64048 0.59112 0.0
H82 H 0.60053 0.72538 0.51768 0.0
O83 O 0.61474 0.69091 0.77045 0.0
C84 C 0.58939 0.74578 0.69366 0.0
O85 O 0.56177 0.73003 0.70262 0.0
N86 N 0.55424 0.65495 0.75102 0.0
C87 C 0.50639 0.60278 0.7944 0.0
C88 C 0.52995 0.61461 0.85814 0.0
C89 C 0.5538 0.64058 0.83457 0.0
C90 C 0.53096 0.64416 0.6908 0.0
C91 C 0.50756 0.61755 0.70811 0.0
H92 H 0.5713 0.64988 0.886 0.0
H93 H 0.53034 0.65654 0.62935 0.0
H94 H 0.61416 0.71832 0.93578 0.0
H95 H 0.53164 0.68783 0.04127 0.0
H96 H 0.57645 0.64555 0.4008 0.0
H97 H 0.52962 0.60423 0.92678 0.0
H98 H 0.48969 0.60937 0.65765 0.0
C99 C 0.86206 0.55305 0.21142 0.0
C100 C 0.85897 0.55167 0.3126 0.0
N101 N 0.88059 0.57529 0.35174 0.0
N102 N 0.88559 0.57738 0.18675 0.0
C103 C 0.89607 0.59079 0.27407 0.0
H104 H 0.84882 0.5367 0.15939 0.0
Co105 Co 0.90058 0.58651 0.05772 0.0
C106 C 0.96198 0.62158 0.12319 0.0
O107 O 0.96819 0.60313 0.08668 0.0
N108 N 0.91448 0.59577 0.92518 0.0
C109 C 0.94037 0.61242 0.78811 0.0
C110 C 0.94104 0.61196 0.88961 0.0
C111 C 0.89808 0.58683 0.84237 0.0
N112 N 0.91334 0.59668 0.75864 0.0
O113 O 0.88513 0.6115 0.04449 0.0
H114 H 0.96009 0.62287 0.93268 0.0
H115 H 0.8754 0.57274 0.84311 0.0
O116 O 0.93692 0.61795 0.11296 0.0
C117 C 0.85918 0.59794 1.01687 0.0
O118 O 0.8473 0.57067 1.00069 0.0
N119 N 0.91276 0.55905 0.06893 0.0
C120 C 0.91862 0.51112 0.09143 0.0
C121 C 0.92488 0.53003 0.16954 0.0
C122 C 0.92194 0.55383 0.15667 0.0
C123 C 0.90681 0.54075 0.99198 0.0
C124 C 0.91039 0.51721 1.00073 0.0
H125 H 0.92628 0.56754 0.21883 0.0
H126 H 0.89771 0.54318 0.9245 0.0
H127 H 0.91552 0.61078 0.28165 0.0
H128 H 0.84304 0.53403 0.3546 0.0
H129 H 0.95837 0.62326 0.73946 0.0
H130 H 0.93112 0.52595 0.24105 0.0
H131 H 0.90502 0.50286 0.93897 0.0
C132 C 0.32541 0.85978 0.61313 0.0
C133 C 0.32452 0.85778 0.71467 0.0
N134 N 0.31132 0.87126 0.7487 0.0
N135 N 0.31328 0.87491 0.58339 0.0
C136 C 0.30406 0.88078 0.66774 0.0
H137 H 0.3356 0.852 0.56438 0.0
Co138 Co 0.31331 0.88731 0.45351 0.0
C139 C 0.33185 0.94814 0.47589 0.0
O140 O 0.34864 0.95243 0.40065 0.0
N141 N 0.31209 0.8989 0.31997 0.0
C142 C 0.29496 0.91146 0.19073 0.0
C143 C 0.29659 0.91091 0.29211 0.0
C144 C 0.31898 0.89166 0.2327 0.0
N145 N 0.309 0.89925 0.15378 0.0
O146 O 0.27212 0.86592 0.45445 0.0
H147 H 0.28541 0.91715 0.34247 0.0
H148 H 0.32876 0.87884 0.22553 0.0
O149 O 0.3151 0.92265 0.50492 0.0
C150 C 0.26437 0.84345 0.40413 0.0
O151 O 0.28392 0.84146 0.35436 0.0
N152 N 0.35368 0.90473 0.45393 0.0
C153 C 0.40885 0.91468 0.48599 0.0
C154 C 0.39779 0.92779 0.54494 0.0
C155 C 0.37023 0.92257 0.52771 0.0
C156 C 0.36433 0.89183 0.39646 0.0
C157 C 0.39214 0.8974 0.40834 0.0
H158 H 0.36148 0.93072 0.58028 0.0
H159 H 0.35047 0.87469 0.34886 0.0
H160 H 0.29302 0.8926 0.67033 0.0
H161 H 0.33413 0.8485 0.7603 0.0
H162 H 0.283 0.91868 0.1476 0.0
H163 H 0.40967 0.94053 0.6077 0.0
H164 H 0.39958 0.88608 0.3635 0.0
C165 C 0.46519 0.31121 0.91621 0.0
C166 C 0.46669 0.30961 1.01752 0.0
N167 N 0.44197 0.30498 0.05555 0.0
N168 N 0.43976 0.30795 0.89037 0.0
C169 C 0.42578 0.30336 0.97699 0.0
H170 H 0.48212 0.31599 0.86486 0.0
Co171 Co 0.42953 0.31257 0.7608 0.0
C172 C 0.39695 0.34199 0.82055 0.0
O173 O 0.41524 0.36546 0.77619 0.0
N174 N 0.41929 0.31587 0.62754 0.0
C175 C 0.40335 0.3255 0.4885 0.0
C176 C 0.40392 0.327 0.58979 0.0
C177 C 0.42749 0.30738 0.54605 0.0
N178 N 0.41823 0.31322 0.46111 0.0
O179 O 0.40299 0.27245 0.75641 0.0
H180 H 0.39411 0.33641 0.63088 0.0
H181 H 0.44109 0.29824 0.54853 0.0
O182 O 0.39978 0.32003 0.8168 0.0
C183 C 0.4155 0.2589 0.73207 0.0
O184 O 0.44268 0.27324 0.7121 0.0
N185 N 0.45832 0.35183 0.76392 0.0
C186 C 0.5077 0.40493 0.77698 0.0
C187 C 0.48915 0.39389 0.85686 0.0
C188 C 0.46459 0.36748 0.84861 0.0
C189 C 0.47628 0.36255 0.68534 0.0
C190 C 0.50056 0.38932 0.6893 0.0
H191 H 0.45121 0.3592 0.91213 0.0
H192 H 0.47297 0.34998 0.62042 0.0
H193 H 0.40452 0.29993 0.98307 0.0
H194 H 0.485 0.3131 0.06036 0.0
H195 H 0.3935 0.33358 0.43848 0.0
H196 H 0.49404 0.40521 0.92622 0.0
H197 H 0.51457 0.39705 0.62631 0.0
C198 C 0.54632 0.86209 0.45281 0.0
C199 C 0.54483 0.85976 0.35146 0.0
N200 N 0.57125 0.87506 0.31581 0.0
N201 N 0.57351 0.87925 0.4807 0.0
C202 C 0.58832 0.88613 0.39548 0.0
H203 H 0.52854 0.85302 0.5028 0.0
Co204 Co 0.58525 0.8918 0.61041 0.0
C205 C 0.624 0.95388 0.58763 0.0
O206 O 0.61036 0.95724 0.66117 0.0
N207 N 0.59707 0.90301 0.74371 0.0
C208 C 0.62597 0.91898 0.8751 0.0
C209 C 0.62437 0.91884 0.77363 0.0
C210 C 0.58272 0.89252 0.82946 0.0
N211 N 0.5997 0.90242 0.90973 0.0
O212 O 0.60885 0.8747 0.60811 0.0
H213 H 0.64236 0.92818 0.72472 0.0
H214 H 0.56083 0.87617 0.8343 0.0
O215 O 0.61701 0.9287 0.56016 0.0
C216 C 0.59667 0.85049 0.64968 0.0
O217 O 0.57161 0.84135 0.68906 0.0
N218 N 0.55957 0.90625 0.61121 0.0
C219 C 0.51327 0.91482 0.58407 0.0
C220 C 0.53671 0.92772 0.52156 0.0
C221 C 0.55957 0.92324 0.53648 0.0
C222 C 0.53666 0.89342 0.672 0.0
C223 C 0.51391 0.89833 0.66244 0.0
H224 H 0.57606 0.93154 0.48226 0.0
H225 H 0.53436 0.87714 0.72191 0.0
H226 H 0.61107 0.89957 0.39138 0.0
H227 H 0.52577 0.84881 0.30705 0.0
H228 H 0.64503 0.92923 0.91983 0.0
H229 H 0.53669 0.93993 0.45838 0.0
H230 H 0.49576 0.88724 0.7104 0.0
C231 C 0.71605 0.55718 0.75219 0.0
C232 C 0.7193 0.55802 0.65155 0.0
N233 N 0.72277 0.58278 0.61839 0.0
N234 N 0.71694 0.58107 0.78273 0.0
C235 C 0.72217 0.59678 0.69977 0.0
H236 H 0.71129 0.53937 0.79946 0.0
Co237 Co 0.70624 0.58404 0.91122 0.0
C238 C 0.67943 0.62078 0.89545 0.0
O239 O 0.65989 0.604 0.95771 0.0
N240 N 0.69521 0.58535 0.04554 0.0
C241 C 0.67064 0.57033 0.18569 0.0
C242 C 0.66905 0.56943 0.08504 0.0
C243 C 0.71203 0.59671 0.12633 0.0
N244 N 0.69779 0.58718 0.2123 0.0
O245 O 0.74595 0.61131 0.94118 0.0
H246 H 0.64956 0.55697 0.04457 0.0
H247 H 0.73445 0.61062 0.1231 0.0
O248 O 0.69904 0.61548 0.87044 0.0
C249 C 0.7596 0.59937 0.97276 0.0
O250 O 0.74544 0.57198 0.98848 0.0
N251 N 0.6689 0.55514 0.87927 0.0
C252 C 0.61645 0.50743 0.83744 0.0
C253 C 0.62432 0.53343 0.79225 0.0
C254 C 0.65065 0.55707 0.81432 0.0
C255 C 0.6623 0.52951 0.91842 0.0
C256 C 0.63588 0.50562 0.90107 0.0
H257 H 0.65632 0.57658 0.77753 0.0
H258 H 0.67747 0.52787 0.96585 0.0
H259 H 0.7243 0.61747 0.69779 0.0
H260 H 0.71712 0.54092 0.60534 0.0
H261 H 0.6532 0.5585 0.23581 0.0
H262 H 0.6102 0.53543 0.74042 0.0
H263 H 0.63079 0.48576 0.93595 0.0
C264 C 0.15344 0.71443 0.12669 0.0
C265 C 0.15218 0.71526 0.02547 0.0
N266 N 0.12478 0.70057 0.99733 0.0
N267 N 0.12697 0.69919 0.16244 0.0
C268 C 0.10986 0.69136 0.08194 0.0
H269 H 0.1725 0.72303 0.1711 0.0
Co270 Co 0.11883 0.68723 0.29302 0.0
C271 C 0.07172 0.70011 0.26215 0.0
O272 O 0.08816 0.72767 0.25737 0.0
N273 N 0.11078 0.67475 0.42493 0.0
C274 C 0.1155 0.65581 0.56392 0.0
C275 C 0.11766 0.65612 0.46335 0.0
C276 C 0.10384 0.6851 0.50417 0.0
N277 N 0.10727 0.67433 0.5902 0.0
O278 O 0.13865 0.72702 0.33426 0.0
H279 H 0.126 0.6451 0.42173 0.0
H280 H 0.09874 0.70184 0.49948 0.0
O281 O 0.08223 0.68432 0.27968 0.0
C282 C 0.16102 0.73431 0.38632 0.0
O283 O 0.16433 0.71428 0.42686 0.0
N284 N 0.1032 0.64964 0.2514 0.0
C285 C 0.08894 0.59434 0.20882 0.0
C286 C 0.06828 0.6003 0.24338 0.0
C287 C 0.07591 0.62833 0.26478 0.0
C288 C 0.12314 0.6441 0.21473 0.0
C289 C 0.11642 0.61659 0.19259 0.0
H290 H 0.06032 0.63262 0.29659 0.0
H291 H 0.14479 0.66107 0.20707 0.0
H292 H 0.08711 0.67759 0.08462 0.0
H293 H 0.17006 0.72487 0.97582 0.0
H294 H 0.12136 0.6442 0.61468 0.0
H295 H 0.04691 0.58338 0.25772 0.0
H296 H 0.13286 0.61256 0.16691 0.0
C297 C 0.43872 0.15846 0.49888 0.0
C298 C 0.43736 0.16052 0.39791 0.0
N299 N 0.42616 0.13441 0.35972 0.0
N300 N 0.42797 0.13109 0.52488 0.0
C301 C 0.42053 0.117 0.43778 0.0
H302 H 0.4478 0.17605 0.54955 0.0
Co303 Co 0.42668 0.11798 0.65503 0.0
C304 C 0.38861 0.05553 0.6382 0.0
O305 O 0.40751 0.05205 0.68684 0.0
N306 N 0.42578 0.10517 0.78978 0.0
C307 C 0.43728 0.09069 0.92866 0.0
C308 C 0.4392 0.09191 0.82784 0.0
C309 C 0.41522 0.11099 0.87136 0.0
N310 N 0.42255 0.1031 0.95618 0.0
O311 O 0.40146 0.13217 0.68937 0.0
H312 H 0.45094 0.08437 0.78639 0.0
H313 H 0.40301 0.12149 0.8699 0.0
O314 O 0.39374 0.0806 0.61872 0.0
C315 C 0.41511 0.15758 0.72174 0.0
O316 O 0.44239 0.16878 0.73929 0.0
N317 N 0.45432 0.10834 0.62029 0.0
C318 C 0.50294 0.10544 0.57618 0.0
C319 C 0.47719 0.08812 0.52679 0.0
C320 C 0.45292 0.08942 0.55151 0.0
C321 C 0.47956 0.12639 0.6644 0.0
C322 C 0.50361 0.12425 0.64767 0.0
H323 H 0.43335 0.07559 0.51372 0.0
H324 H 0.48076 0.14211 0.71553 0.0
H325 H 0.41202 0.09457 0.43038 0.0
H326 H 0.44526 0.1798 0.35534 0.0
H327 H 0.44769 0.08318 0.97852 0.0
H328 H 0.47586 0.0737 0.46965 0.0
H329 H 0.52296 0.13807 0.68758 0.0
C330 C 0.28099 0.4324 0.83245 0.0
C331 C 0.27759 0.43047 0.73166 0.0
N332 N 0.29469 0.42165 0.6949 0.0
N333 N 0.29971 0.42426 0.85987 0.0
C334 C 0.30767 0.4178 0.77379 0.0
H335 H 0.27123 0.44042 0.8819 0.0
Co336 Co 0.31272 0.42603 0.98996 0.0
C337 C 0.33803 0.38864 0.9945 0.0
O338 O 0.35839 0.40753 0.05034 0.0
N339 N 0.32574 0.42854 0.12485 0.0
C340 C 0.35194 0.44386 0.26288 0.0
C341 C 0.35216 0.44564 0.16204 0.0
C342 C 0.31007 0.41628 0.20689 0.0
N343 N 0.32537 0.42572 0.29114 0.0
O344 O 0.27377 0.40049 0.02958 0.0
H345 H 0.37091 0.45899 0.11981 0.0
H346 H 0.28769 0.40127 0.20611 0.0
O347 O 0.31868 0.39359 0.96333 0.0
C348 C 0.2614 0.41354 0.06167 0.0
O349 O 0.27675 0.44095 0.076 0.0
N350 N 0.34941 0.45336 0.94854 0.0
C351 C 0.40083 0.5005 0.8943 0.0
C352 C 0.39346 0.4734 0.86056 0.0
C353 C 0.36782 0.44999 0.88981 0.0
C354 C 0.35545 0.47977 0.97619 0.0
C355 C 0.38147 0.50341 0.95371 0.0
H356 H 0.36279 0.42944 0.86321 0.0
H357 H 0.34024 0.48227 1.01947 0.0
H358 H 0.32349 0.41152 0.76779 0.0
H359 H 0.26501 0.43685 0.68804 0.0
H360 H 0.36957 0.45624 0.31222 0.0
H361 H 0.40752 0.47037 0.81252 0.0
H362 H 0.38618 0.52396 0.98067 0.0
C363 C 0.86278 0.3073 0.09155 0.0
C364 C 0.86176 0.30407 0.99101 0.0
N365 N 0.88279 0.29937 0.96451 0.0
N366 N 0.88459 0.30503 0.12854 0.0
C367 C 0.89598 0.29939 0.04952 0.0
H368 H 0.84936 0.31245 0.13475 0.0
Co369 Co 0.89567 0.31379 0.25963 0.0
C370 C 0.95804 0.33643 0.26423 0.0
O371 O 0.96085 0.35711 0.3207 0.0
N372 N 0.9059 0.3229 0.39621 0.0
C373 C 0.91558 0.34514 0.54136 0.0
C374 C 0.91519 0.34818 0.44142 0.0
C375 C 0.90212 0.30515 0.47241 0.0
N376 N 0.90699 0.318 0.56122 0.0
O377 O 0.88012 0.27364 0.28585 0.0
H378 H 0.92169 0.36814 0.40572 0.0
H379 H 0.89523 0.28312 0.46392 0.0
O380 O 0.93342 0.31797 0.23229 0.0
C381 C 0.85394 0.26149 0.3091 0.0
O382 O 0.84223 0.27726 0.32039 0.0
N383 N 0.90727 0.35189 0.2292 0.0
C384 C 0.91397 0.40442 0.17658 0.0
C385 C 0.93203 0.39547 0.13836 0.0
C386 C 0.92829 0.36904 0.16552 0.0
C387 C 0.88847 0.35963 0.26165 0.0
C388 C 0.89203 0.38615 0.23937 0.0
H389 H 0.94163 0.36213 0.1324 0.0
H390 H 0.87075 0.34512 0.30665 0.0
H391 H 0.91421 0.29657 0.05313 0.0
H392 H 0.84755 0.30635 0.94047 0.0
H393 H 0.92135 0.3616 0.59589 0.0
H394 H 0.94859 0.40862 0.08688 0.0
H395 H 0.87724 0.39203 0.26852 0.0
C396 C 0.03071 0.34543 0.30513 0.0
C397 C 0.04098 0.34979 0.20706 0.0
C398 C 0.99419 0.33797 0.14307 0.0
C399 C 0.98413 0.33513 0.24135 0.0
N400 N 0.98979 0.32727 0.41285 0.0
N401 N 0.03071 0.34075 0.03421 0.0
C402 C 1.00147 0.33588 0.32142 0.0
C403 C 0.02199 0.34278 0.12656 0.0
N404 N 0.04909 0.35178 0.38261 0.0
N405 N 0.97813 0.33812 0.06581 0.0
H406 H 0.05097 0.34393 0.02101 0.0
H407 H 0.01722 0.33329 0.9732 0.0
H408 H 0.95763 0.33423 0.07459 0.0
H409 H 0.98575 0.34382 0.99421 0.0
H410 H 0.04375 0.35271 0.45557 0.0
H411 H 0.07024 0.35739 0.37345 0.0
H412 H 1.00055 0.32505 0.47288 0.0
H413 H 0.96831 0.31967 0.42607 0.0
C414 C 0.6795 0.03122 0.55651 0.0
C415 C 0.67551 0.03505 0.45537 0.0
C416 C 0.64624 0.98394 0.43292 0.0
C417 C 0.64645 0.98001 0.53699 0.0
N418 N 0.67141 0.99832 0.69068 0.0
N419 N 0.66818 0.0153 0.29329 0.0
C420 C 0.6658 1.00325 0.59654 0.0
C421 C 0.66345 0.01132 0.39244 0.0
N422 N 0.69599 0.05411 0.61413 0.0
N423 N 0.62806 0.96247 0.37295 0.0
H424 H 0.68107 0.03539 0.26334 0.0
H425 H 0.66212 0.99879 0.24333 0.0
H426 H 0.61505 0.94214 0.39787 0.0
H427 H 0.62454 0.9653 0.29921 0.0
H428 H 0.69617 0.0536 0.69089 0.0
H429 H 0.7103 0.07364 0.58398 0.0
H430 H 0.68662 0.01374 0.73655 0.0
H431 H 0.66247 0.97801 0.72007 0.0
C432 C 0.67099 0.64548 0.74975 0.0
C433 C 0.67641 0.64456 0.8524 0.0
C434 C 0.65815 0.67698 0.88452 0.0
C435 C 0.64741 0.67241 0.78721 0.0
N436 N 0.65469 0.66489 0.61924 0.0
N437 N 0.68058 0.66403 1.0148 0.0
C438 C 0.65793 0.66105 0.71715 0.0
C439 C 0.67219 0.66232 0.9186 0.0
N440 N 0.67575 0.62949 0.68456 0.0
N441 N 0.65583 0.69608 0.9419 0.0
H442 H 0.69253 0.65504 0.03932 0.0
H443 H 0.67556 0.67388 0.07023 0.0
H444 H 0.64807 0.70853 0.91271 0.0
H445 H 0.66423 0.70184 1.01269 0.0
H446 H 0.66909 0.62653 0.6113 0.0
H447 H 0.68535 0.61808 0.70526 0.0
H448 H 0.66374 0.65937 0.56245 0.0
H449 H 0.64511 0.6764 0.59589 0.0
C450 C 0.03142 0.68915 0.14264 0.0
C451 C 0.0409 0.686 0.23754 0.0
C452 C 0.99431 0.64436 0.26869 0.0
C453 C 0.98525 0.64698 0.1728 0.0
N454 N 0.99116 0.67699 0.03452 0.0
N455 N 0.02888 0.66621 0.40081 0.0
C456 C 1.00247 0.67125 0.11544 0.0
C457 C 0.0214 0.66543 0.30393 0.0
N458 N 0.05028 0.70752 0.07541 0.0
N459 N 0.97746 0.62115 0.3246 0.0
H460 H 0.04837 0.68185 0.42856 0.0
H461 H 0.01493 0.6533 0.45511 0.0
H462 H 0.95686 0.60643 0.30364 0.0
H463 H 0.9842 0.61597 0.38945 0.0
H464 H 0.04509 0.70803 1.00161 0.0
H465 H 0.07171 0.72081 0.09076 0.0
H466 H 1.00197 0.69555 0.9936 0.0
H467 H 0.96978 0.66463 1.01581 0.0
C468 C 0.35169 0.00595 0.66995 0.0
C469 C 0.36236 0.0293 0.60523 0.0
C470 C 0.33771 0.99667 0.46835 0.0
C471 C 0.33489 0.97383 0.52768 0.0
N472 N 0.33784 0.95704 0.69093 0.0
N473 N 0.35865 0.04746 0.44729 0.0
C474 C 0.34061 0.9783 0.63089 0.0
C475 C 0.35285 0.02489 0.50585 0.0
N476 N 0.35276 0.01055 0.76928 0.0
N477 N 0.32551 0.99108 0.3767 0.0
H478 H 0.36504 0.06735 0.47654 0.0
H479 H 0.35641 0.04638 0.37084 0.0
H480 H 0.31352 0.97051 0.34984 0.0
H481 H 0.32497 0.0062 0.33125 0.0
H482 H 0.34315 0.99437 0.8211 0.0
H483 H 0.36064 0.03083 0.79826 0.0
H484 H 0.34548 0.9602 0.76316 0.0
H485 H 0.32931 0.93644 0.66737 0.0
C486 C 0.33561 0.35429 0.8605 0.0
C487 C 0.3414 0.36444 0.95927 0.0
C488 C 0.37624 0.34893 0.97684 0.0
C489 C 0.3733 0.3421 0.87503 0.0
N490 N 0.3428 0.32724 0.73289 0.0
N491 N 0.35516 0.35716 0.12064 0.0
C492 C 0.35052 0.34124 0.82082 0.0
C493 C 0.35752 0.35663 1.02055 0.0
N494 N 0.31644 0.35732 0.80438 0.0
N495 N 0.39803 0.35005 0.03049 0.0
H496 H 0.34086 0.36208 0.15339 0.0
H497 H 0.36484 0.34975 0.16947 0.0
H498 H 0.41219 0.34468 1.00087 0.0
H499 H 0.40305 0.35804 0.10203 0.0
H500 H 0.31473 0.35463 0.72814 0.0
H501 H 0.30171 0.3619 0.8346 0.0
H502 H 0.32535 0.32418 0.69138 0.0
H503 H 0.3521 0.31577 0.7078 0.0
C504 C 0.11489 0.4453 0.66321 0.0
C505 C 0.11182 0.4209 0.71157 0.0
C506 C 0.12388 0.40549 0.55866 0.0
C507 C 0.12533 0.42905 0.50904 0.0
N508 N 0.11946 0.46973 0.50792 0.0
N509 N 0.11067 0.37647 0.70701 0.0
C510 C 0.12011 0.44857 0.55982 0.0
C511 C 0.11566 0.40063 0.65966 0.0
N512 N 0.11332 0.46551 0.71731 0.0
N513 N 0.13098 0.38824 0.50902 0.0
H514 H 0.10515 0.37283 0.78141 0.0
H515 H 0.11046 0.35944 0.67218 0.0
H516 H 0.13658 0.39121 0.43465 0.0
H517 H 0.13293 0.37206 0.54205 0.0
H518 H 0.11775 0.48505 0.68935 0.0
H519 H 0.10937 0.46341 0.793 0.0
H520 H 0.11332 0.48335 0.53763 0.0
H521 H 0.12336 0.47248 0.43226 0.0
C522 C 0.69639 0.144 0.86032 0.0
C523 C 0.70991 0.13221 0.80506 0.0
C524 C 0.70941 0.10493 0.9506 0.0
C525 C 0.69773 0.11836 1.00692 0.0
N526 N 0.68685 0.15572 0.02233 0.0
N527 N 0.7337 0.1052 0.80037 0.0
C528 C 0.69338 0.13954 0.96373 0.0
C529 C 0.71771 0.11369 0.8511 0.0
N530 N 0.68499 0.15816 0.81311 0.0
N531 N 0.71169 0.0833 0.99158 0.0
H532 H 0.74034 0.11172 0.72816 0.0
H533 H 0.74218 0.09363 0.83201 0.0
H534 H 0.70609 0.07694 0.06464 0.0
H535 H 0.71735 0.07063 0.95181 0.0
H536 H 0.67252 0.16493 0.84853 0.0
H537 H 0.68539 0.16046 0.73663 0.0
H538 H 0.68594 0.17322 0.99637 0.0
H539 H 0.6853 0.1534 0.09887 0.0
C540 C 0.60795 0.69405 0.25669 0.0
C541 C 0.59224 0.69937 0.32749 0.0
C542 C 0.5754 0.71811 0.19589 0.0
C543 C 0.58583 0.707 0.12363 0.0
N544 N 0.60698 0.67791 0.09117 0.0
N545 N 0.55459 0.70949 0.35748 0.0
C546 C 0.60122 0.69358 0.15502 0.0
C547 C 0.57447 0.70995 0.29584 0.0
N548 N 0.62867 0.68862 0.28698 0.0
N549 N 0.56579 0.7359 0.16865 0.0
H550 H 0.55072 0.7003 0.4273 0.0
H551 H 0.53968 0.71498 0.33437 0.0
H552 H 0.5671 0.74287 0.096 0.0
H553 H 0.55961 0.74593 0.21993 0.0
H554 H 0.6422 0.68661 0.23785 0.0
H555 H 0.63405 0.68914 0.36135 0.0
H556 H 0.61578 0.66569 0.11393 0.0
H557 H 0.60006 0.67431 1.01837 0.0
C558 C 0.90372 0.56769 0.60841 0.0
C559 C 0.90356 0.59042 0.65753 0.0
C560 C 0.88626 0.6019 0.50608 0.0
C561 C 0.88837 0.58045 0.45506 0.0
N562 N 0.90362 0.54606 0.45212 0.0
N563 N 0.89911 0.63193 0.6513 0.0
C564 C 0.89823 0.56408 0.50492 0.0
C565 C 0.896 0.6083 0.60576 0.0
N566 N 0.90902 0.5495 0.6614 0.0
N567 N 0.87428 0.61559 0.45951 0.0
H568 H 0.90636 0.63704 0.72389 0.0
H569 H 0.89654 0.64739 0.61547 0.0
H570 H 0.86709 0.61123 0.38662 0.0
H571 H 0.86953 0.62959 0.49485 0.0
H572 H 0.90672 0.5308 0.63288 0.0
H573 H 0.91379 0.55217 0.73666 0.0
H574 H 0.91347 0.53553 0.48167 0.0
H575 H 0.90041 0.54344 0.3761 0.0
C576 C 0.2864 0.86736 1.0109 0.0
C577 C 0.30958 0.89207 0.05158 0.0
C578 C 0.33411 0.9027 0.89227 0.0
C579 C 0.31039 0.87868 0.85035 0.0
N580 N 0.26316 0.83946 0.86408 0.0
N581 N 0.35404 0.93483 0.03189 0.0
C582 C 0.28625 0.86139 0.90829 0.0
C583 C 0.33309 0.91016 0.99232 0.0
N584 N 0.26494 0.84938 0.0716 0.0
N585 N 0.35778 0.91797 0.83632 0.0
H586 H 0.35387 0.94033 0.10544 0.0
H587 H 0.37063 0.95054 0.99142 0.0
H588 H 0.35868 0.9136 0.76205 0.0
H589 H 0.37694 0.93409 0.86382 0.0
H590 H 0.24837 0.82976 0.0499 0.0
H591 H 0.26458 0.85347 0.14655 0.0
H592 H 0.24377 0.82718 0.89867 0.0
H593 H 0.26302 0.83449 0.78971 0.0
C594 C 0.45036 0.33328 0.20765 0.0
C595 C 0.43621 0.30681 0.15862 0.0
C596 C 0.40959 0.28455 0.30999 0.0
C597 C 0.42539 0.3105 0.36081 0.0
N598 N 0.46342 0.35862 0.36359 0.0
N599 N 0.40541 0.25658 0.16525 0.0
C600 C 0.44661 0.3346 0.31107 0.0
C601 C 0.41665 0.28221 0.21061 0.0
N602 N 0.4664 0.35731 0.15424 0.0
N603 N 0.38719 0.26253 0.35597 0.0
H604 H 0.41051 0.2546 0.09291 0.0
H605 H 0.39302 0.23739 0.20113 0.0
H606 H 0.3815 0.26404 0.42807 0.0
H607 H 0.37305 0.24373 0.32075 0.0
H608 H 0.47499 0.37759 0.18324 0.0
H609 H 0.46913 0.35706 0.07829 0.0
H610 H 0.48113 0.37616 0.33435 0.0
H611 H 0.46093 0.3601 0.43921 0.0
C612 C 0.58418 0.91176 0.06889 0.0
C613 C 0.59185 0.89501 1.01169 0.0
C614 C 0.58576 0.86496 0.15569 0.0
C615 C 0.57875 0.88211 0.21347 0.0
N616 N 0.57062 0.92122 0.22922 0.0
N617 N 0.60046 0.85627 0.99634 0.0
C618 C 0.57778 0.9054 0.17099 0.0
C619 C 0.59273 0.87169 0.0541 0.0
N620 N 0.58295 0.9336 0.02418 0.0
N621 N 0.58513 0.84198 0.19864 0.0
H622 H 0.6045 0.86034 0.92127 0.0
H623 H 0.60335 0.8399 0.02159 0.0
H624 H 0.58029 0.83705 0.27301 0.0
H625 H 0.58854 0.82735 0.16157 0.0
H626 H 0.57697 0.94673 0.05878 0.0
H627 H 0.58763 0.93847 0.94966 0.0
H628 H 0.57009 0.93908 0.20602 0.0
H629 H 0.56547 0.91661 0.3035 0.0
C630 C 0.69508 0.58956 0.48598 0.0
C631 C 0.71949 0.5886 0.51647 0.0
C632 C 0.731 0.58707 0.34254 0.0
C633 C 0.70822 0.59131 0.31316 0.0
N634 N 0.67454 0.60487 0.35724 0.0
N635 N 0.76383 0.5921 0.47398 0.0
C636 C 0.6925 0.59566 0.38615 0.0
C637 C 0.73866 0.58952 0.44449 0.0
N638 N 0.67284 0.58127 0.5486 0.0
N639 N 0.74366 0.57829 0.27602 0.0
H640 H 0.76963 0.59379 0.54832 0.0
H641 H 0.77977 0.59526 0.42474 0.0
H642 H 0.73699 0.57345 0.20306 0.0
H643 H 0.75872 0.57272 0.29602 0.0
H644 H 0.65334 0.57867 0.52612 0.0
H645 H 0.67265 0.57351 0.61895 0.0
H646 H 0.66324 0.61014 0.40635 0.0
H647 H 0.66324 0.61014 0.40635 0.0
C648 C 0.12321 0.71066 0.72484 0.0
C649 C 0.10647 0.68233 0.69145 0.0
C650 C 0.09926 0.66566 0.86288 0.0
C651 C 0.11481 0.69406 0.8964 0.0
N652 N 0.13364 0.74331 0.86043 0.0
N653 N 0.07228 0.63472 0.72612 0.0
C654 C 0.12396 0.71646 0.82739 0.0
C655 C 0.09213 0.66048 0.76096 0.0
N656 N 0.14027 0.73171 0.6613 0.0
N657 N 0.09377 0.64381 0.9252 0.0
H658 H 0.05923 0.61755 0.771 0.0
H659 H 0.05923 0.61755 0.771 0.0
H660 H 0.1005 0.64664 0.99838 0.0
H661 H 0.08535 0.62302 0.90143 0.0
H662 H 0.15489 0.75205 0.68461 0.0
H663 H 0.14205 0.72833 0.58702 0.0
H664 H 0.13852 0.76027 0.81327 0.0
H665 H 0.13377 0.74786 0.93523 0.0
C666 C 0.39813 0.10912 0.21091 0.0
C667 C 0.4247 0.12713 0.25657 0.0
C668 C 0.4483 0.13359 0.09763 0.0
C669 C 0.42239 0.11293 0.05479 0.0
N670 N 0.37296 0.07898 0.07082 0.0
N671 N 0.47566 0.15168 0.24791 0.0
C672 C 0.39729 0.10018 0.11145 0.0
C673 C 0.44998 0.13819 0.201 0.0
N674 N 0.3738 0.10126 0.26201 0.0
N675 N 0.4712 0.14917 0.03875 0.0
H676 H 0.47767 0.15397 0.32435 0.0
H677 H 0.49476 0.15784 0.21231 0.0
H678 H 0.47032 0.14675 0.96226 0.0
H679 H 0.48997 0.16634 0.06439 0.0
H680 H 0.35365 0.09011 0.2307 0.0
H681 H 0.37396 0.10792 0.33418 0.0
H682 H 0.3545 0.06674 0.1108 0.0
H683 H 0.37192 0.07251 0.99781 0.0
C684 C 0.31386 0.44783 0.53928 0.0
C685 C 0.30189 0.42205 0.59236 0.0
C686 C 0.3052 0.39798 0.44456 0.0
C687 C 0.31489 0.42333 0.39019 0.0
N688 N 0.32134 0.47012 0.37922 0.0
N689 N 0.28207 0.37165 0.59325 0.0
C690 C 0.31697 0.44756 0.43571 0.0
C691 C 0.29637 0.39677 0.54427 0.0
N692 N 0.32371 0.47278 0.58862 0.0
N693 N 0.30533 0.3755 0.40165 0.0
H694 H 0.27518 0.3703 0.66574 0.0
H695 H 0.27518 0.35212 0.55998 0.0
H696 H 0.31149 0.37597 0.3286 0.0
H697 H 0.3012 0.35729 0.43998 0.0
H698 H 0.33499 0.49244 0.55443 0.0
H699 H 0.32344 0.47393 0.66535 0.0
H700 H 0.32055 0.48743 0.40736 0.0
H701 H 0.32266 0.47007 0.30246 0.0
C702 C 0.87541 0.28574 0.69303 0.0
C703 C 0.90277 0.30639 0.65966 0.0
C704 C 0.91822 0.32027 0.82989 0.0
C705 C 0.8913 0.29911 0.86404 0.0
N706 N 0.84748 0.25655 0.83011 0.0
N707 N 0.95224 0.33557 0.69706 0.0
C708 C 0.87106 0.27994 0.79589 0.0
C709 C 0.92493 0.32063 0.729 0.0
N710 N 0.85308 0.27338 0.62878 0.0
N711 N 0.93617 0.34183 0.89031 0.0
H712 H 0.95739 0.33587 0.62278 0.0
H713 H 0.96954 0.34491 0.7452 0.0
H714 H 0.93066 0.34437 0.96127 0.0
H715 H 0.95503 0.35903 0.86574 0.0
H716 H 0.83222 0.26051 0.65162 0.0
H717 H 0.85483 0.2776 0.55352 0.0
H718 H 0.83296 0.24054 0.78404 0.0
H719 H 0.84419 0.25195 0.90533 0.0
C720 C 0.09415 0.52903 0.25918 0.0
C721 C 0.08483 0.51466 0.16753 0.0
C722 C 0.07395 0.55063 0.10699 0.0
C723 C 0.08325 0.56489 0.19864 0.0
N724 N 0.09573 0.56468 0.36937 0.0
N725 N 0.06036 0.50794 1.01262 0.0
C726 C 0.09112 0.55298 0.2773 0.0
C727 C 0.07292 0.52426 0.09403 0.0
N728 N 0.10733 0.52074 0.32675 0.0
N729 N 0.06718 0.56287 0.03141 0.0
H730 H 0.05939 0.4886 1.00122 0.0
H731 H 0.04893 0.51231 0.96059 0.0
H732 H 0.06665 0.58157 0.03999 0.0
H733 H 0.06347 0.55537 0.95924 0.0
H734 H 0.11761 0.53232 0.38962 0.0
H735 H 0.10989 0.50324 0.31682 0.0
H736 H 0.09869 0.55539 0.43215 0.0
H737 H 0.09406 0.58249 0.38482 0.0
C738 C 0.5554 0.08037 0.51207 0.0
C739 C 0.58153 0.10642 0.51379 0.0
C740 C 0.55504 0.13123 0.53491 0.0
C741 C 0.52961 0.10524 0.55092 0.0
N742 N 0.50815 0.05486 0.57953 0.0
N743 N 0.60549 0.15577 0.5613 0.0
C744 C 0.53044 0.07964 0.54675 0.0
C745 C 0.58117 0.13163 0.53576 0.0
N746 N 0.55389 0.05659 0.47362 0.0
N747 N 0.5544 0.15542 0.51488 0.0
H748 H 0.62481 0.15644 0.57136 0.0
H749 H 0.60551 0.17398 0.58431 0.0
H750 H 0.53554 0.15569 0.50485 0.0
H751 H 0.57255 0.17431 0.49616 0.0
H752 H 0.53473 0.0378 0.46417 0.0
H753 H 0.5711 0.05655 0.44078 0.0
H754 H 0.50899 0.03624 0.58486 0.0
H755 H 0.49028 0.05363 0.61197 0.0
C756 C 0.45345 0.57605 0.81987 0.0
C757 C 0.47964 0.57628 0.82093 0.0
C758 C 0.45463 0.52743 0.88187 0.0
C759 C 0.42814 0.52605 0.86544 0.0
N760 N 0.4033 0.54754 0.78848 0.0
N761 N 0.50355 0.54909 0.83066 0.0
C762 C 0.42782 0.5499 0.82508 0.0
C763 C 0.47982 0.55104 0.84535 0.0
N764 N 0.45286 0.60075 0.81855 0.0
N765 N 0.45613 0.50707 0.93602 0.0
H766 H 0.52198 0.56535 0.79945 0.0
H767 H 0.50378 0.53023 0.83945 0.0
H768 H 0.43852 0.49035 0.96944 0.0
H769 H 0.47531 0.50863 0.95677 0.0
H770 H 0.43411 0.60134 0.8255 0.0
H771 H 0.47113 0.62055 0.82286 0.0
H772 H 0.40277 0.56405 0.75154 0.0
H773 H 0.38436 0.52829 0.78445 0.0
C774 C 0.94144 0.45805 0.16903 0.0
C775 C 0.91656 0.432 0.14689 0.0
C776 C 0.89264 0.4578 0.09493 0.0
C777 C 0.9183 0.48388 0.10734 0.0
N778 N 0.96889 0.50827 0.13464 0.0
N779 N 0.87154 0.40788 0.06146 0.0
C780 C 0.94329 0.48385 0.13776 0.0
C781 C 0.89312 0.43214 0.10118 0.0
N782 N 0.96274 0.45838 0.22389 0.0
N783 N 0.86748 0.45729 0.08255 0.0
H784 H 0.87165 0.38884 0.06084 0.0
H785 H 0.85523 0.40749 1.0196 0.0
H786 H 0.86573 0.47544 0.08304 0.0
H787 H 0.84796 0.43862 0.08284 0.0
H788 H 0.98 0.47694 0.25033 0.0
H789 H 0.9619 0.4401 0.25102 0.0
H790 H 0.9881 0.5089 0.14692 0.0
H791 H 0.97114 0.5274 0.11005 0.0
C792 C 0.48678 0.94142 0.55296 0.0
C793 C 0.48674 0.91542 0.55986 0.0
C794 C 0.43532 0.88977 0.53562 0.0
C795 C 0.43584 0.91547 0.51399 0.0
N796 N 0.46345 0.96581 0.48603 0.0
N797 N 0.46153 0.86506 0.52839 0.0
C798 C 0.46199 0.9414 0.51822 0.0
C799 C 0.46117 0.88962 0.5427 0.0
N800 N 0.51007 0.966 0.58243 0.0
N801 N 0.41023 0.86558 0.5533 0.0
H802 H 0.48018 0.86414 0.52613 0.0
H803 H 0.44358 0.84629 0.50707 0.0
H804 H 0.39081 0.865 0.55505 0.0
H805 H 0.40919 0.84696 0.57773 0.0
H806 H 0.51027 0.98512 0.58767 0.0
H807 H 0.52827 0.96673 0.6108 0.0
H808 H 0.4825 0.98477 0.47852 0.0
H809 H 0.44594 0.96652 0.458 0.0
C810 C 0.56272 0.48137 0.83925 0.0
C811 C 0.58838 0.48183 0.81633 0.0
C812 C 0.56123 0.43141 0.7759 0.0
C813 C 0.53548 0.43169 0.78788 0.0
N814 N 0.51216 0.459 0.80927 0.0
N815 N 0.61105 0.4589 0.73691 0.0
C816 C 0.53635 0.45733 0.81297 0.0
C817 C 0.58733 0.45733 0.77661 0.0
N818 N 0.56336 0.50322 0.89017 0.0
N819 N 0.56105 0.40637 0.76894 0.0
H820 H 0.63035 0.47776 0.73233 0.0
H821 H 0.6107 0.44217 0.6989 0.0
H822 H 0.54261 0.38673 0.77347 0.0
H823 H 0.57952 0.40512 0.76969 0.0
H824 H 0.54518 0.50259 0.91706 0.0
H825 H 0.5821 0.52074 0.91425 0.0
H826 H 0.5121 0.47792 0.8177 0.0
H827 H 0.4926 0.44207 0.78781 0.0
C828 C 0.21222 0.3907 0.98902 0.0
C829 C 0.23003 0.39999 0.07395 0.0
C830 C 0.1918 0.40102 0.16597 0.0
C831 C 0.17786 0.39932 0.07584 0.0
N832 N 0.17269 0.39005 0.9018 0.0
N833 N 0.23595 0.41212 0.2468 0.0
C834 C 0.18716 0.39283 0.98759 0.0
C835 C 0.21927 0.40396 0.16415 0.0
N836 N 0.21947 0.3804 0.90967 0.0
N837 N 0.17897 0.40045 0.25279 0.0
H838 H 0.25562 0.41334 0.24916 0.0
H839 H 0.23091 0.41886 0.31137 0.0
H840 H 0.15862 0.39773 0.25485 0.0
H841 H 0.18701 0.39963 0.32186 0.0
H842 H 0.20649 0.37168 0.84799 0.0
H843 H 0.23713 0.37779 0.90991 0.0
H844 H 0.18009 0.38882 0.83241 0.0
H845 H 0.1535 0.39 0.9005 0.0
C846 C 0.82802 0.21346 0.38874 0.0
C847 C 0.83467 0.2303 0.30284 0.0
C848 C 0.7894 0.19621 0.22752 0.0
C849 C 0.78062 0.18142 0.31906 0.0
N850 N 0.7927 0.17363 0.48376 0.0
N851 N 0.82781 0.2321 0.12929 0.0
C852 C 0.80058 0.18886 0.39802 0.0
C853 C 0.81729 0.21964 0.21837 0.0
N854 N 0.84837 0.22093 0.45978 0.0
N855 N 0.7705 0.18901 0.15118 0.0
H856 H 0.84867 0.24847 0.12214 0.0
H857 H 0.81737 0.22438 0.06225 0.0
H858 H 0.7502 0.17154 0.15314 0.0
H859 H 0.77429 0.20111 0.08761 0.0
H860 H 0.84605 0.20967 0.52438 0.0
H861 H 0.86896 0.23739 0.44832 0.0
H862 H 0.80475 0.17955 0.54817 0.0
H863 H 0.77364 0.15479 0.49162 0.0
C864 C 0.62003 0.82495 0.72273 0.0
C865 C 0.60704 0.83011 0.64058 0.0
C866 C 0.59056 0.78252 0.57846 0.0
C867 C 0.60116 0.77606 0.66528 0.0
N868 N 0.6314 0.79259 0.80909 0.0
N869 N 0.58978 0.81848 0.47472 0.0
C870 C 0.61815 0.79797 0.73314 0.0
C871 C 0.59589 0.81045 0.56279 0.0
N872 N 0.63311 0.84566 0.79202 0.0
N873 N 0.57371 0.76152 0.51412 0.0
H874 H 0.59373 0.83899 0.46263 0.0
H875 H 0.58381 0.80602 0.41145 0.0
H876 H 0.56934 0.74083 0.52253 0.0
H877 H 0.56249 0.76407 0.45634 0.0
H878 H 0.64089 0.84305 0.85916 0.0
H879 H 0.63586 0.86583 0.78158 0.0
H880 H 0.64529 0.80781 0.85848 0.0
H881 H 0.62983 0.77294 0.81946 0.0
C882 C 0.83195 0.61252 0.90622 0.0
C883 C 0.84145 0.61139 1.00289 0.0
C884 C 0.80478 0.61996 0.06999 0.0
C885 C 0.79121 0.61375 0.97658 0.0
N886 N 0.79348 0.60816 0.80191 0.0
N887 N 0.83816 0.61572 0.17832 0.0
C888 C 0.80569 0.61194 0.893 0.0
C889 C 0.82861 0.61624 0.08535 0.0
N890 N 0.84808 0.61385 0.82763 0.0
N891 N 0.7951 0.62996 0.14287 0.0
H892 H 0.85619 0.61409 0.19135 0.0
H893 H 0.82756 0.61566 0.24206 0.0
H894 H 0.77979 0.63557 0.12805 0.0
H895 H 0.8047 0.63627 0.21195 0.0
H896 H 0.84358 0.61645 0.75486 0.0
H897 H 0.86763 0.61504 0.83737 0.0
H898 H 0.80082 0.60307 0.73895 0.0
H899 H 0.77539 0.60973 0.79037 0.0
C900 C 0.20976 0.81578 0.39991 0.0
C901 C 0.23627 0.81707 0.415 0.0
C902 C 0.21344 0.76635 0.38909 0.0
C903 C 0.18615 0.76372 0.38791 0.0
N904 N 0.15841 0.78665 0.41009 0.0
N905 N 0.25969 0.79124 0.46342 0.0
C906 C 0.18419 0.78867 0.39842 0.0
C907 C 0.23681 0.79156 0.42305 0.0
N908 N 0.20894 0.84001 0.38386 0.0
N909 N 0.21769 0.74553 0.35219 0.0
H910 H 0.27663 0.80914 0.49525 0.0
H911 H 0.25995 0.7725 0.47573 0.0
H912 H 0.20198 0.72797 0.31476 0.0
H913 H 0.23783 0.74783 0.34664 0.0
H914 H 0.19054 0.84005 0.36267 0.0
H915 H 0.22709 0.85994 0.38511 0.0
H916 H 0.15609 0.80398 0.42678 0.0
H917 H 0.13953 0.76735 0.41169 0.0
C918 C 0.39599 0.21223 0.64607 0.0
C919 C 0.40167 0.22757 0.73533 0.0
C920 C 0.4061 0.1908 0.82295 0.0
C921 C 0.4024 0.17616 0.7324 0.0
N922 N 0.38446 0.16813 0.56518 0.0
N923 N 0.40118 0.22656 0.91191 0.0
C924 C 0.39384 0.18509 0.64656 0.0
C925 C 0.4027 0.21494 0.82497 0.0
N926 N 0.39412 0.22439 0.56029 0.0
N927 N 0.41472 0.18285 0.90587 0.0
H928 H 0.39859 0.24422 0.91407 0.0
H929 H 0.39919 0.21686 0.98003 0.0
H930 H 0.41694 0.16506 0.90858 0.0
H931 H 0.4213 0.19485 0.97026 0.0
H932 H 0.39356 0.21621 0.49051 0.0
H933 H 0.39422 0.24353 0.55985 0.0
H934 H 0.3762 0.17267 0.50278 0.0
H935 H 0.38222 0.14806 0.56366 0.0
loop_
_geom_bond_atom_site_label_1
_geom_bond_atom_site_label_2
_geom_bond_distance
_geom_bond_site_symmetry_2
_ccdc_geom_bond_type
C0 C1 1.351 . S
C0 N3 1.368 . S
C0 H5 0.931 . S
C1 C0 1.351 . S
C1 N2 1.373 . S
C1 H29 0.930 . S
N2 C1 1.373 . S
N2 C4 1.340 . S
N3 C0 1.368 . S
N3 C4 1.321 . S
N3 Co6 2.135 . S
C4 N2 1.340 . S
C4 N3 1.321 . S
C4 H28 0.930 . S
H5 C0 0.931 . S
Co6 N3 2.135 . S
Co6 N9 2.121 1_554 S
Co6 O14 2.055 . S
Co6 O17 2.039 . S
Co6 N20 2.140 . S
C7 O8 1.227 . S
C7 O17 1.265 . S
O8 C7 1.227 . S
N9 Co6 2.121 1_556 S
N9 C11 1.375 . S
N9 C12 1.313 . S
C10 C11 1.338 . S
C10 N13 1.377 . S
C10 H30 0.930 . S
C11 N9 1.375 . S
C11 C10 1.338 . S
C11 H15 0.931 . S
C12 N9 1.313 . S
C12 N13 1.344 . S
C12 H16 0.930 . S
N13 C10 1.377 . S
N13 C12 1.344 . S
O14 Co6 2.055 . S
O14 C18 1.253 . S
H15 C11 0.931 . S
H16 C12 0.930 . S
O17 Co6 2.039 . S
O17 C7 1.265 . S
C18 O14 1.253 . S
C18 O19 1.227 . S
O19 C18 1.227 . S
N20 Co6 2.140 . S
N20 C23 1.346 . S
N20 C24 1.345 . S
C21 C22 1.387 . S
C21 C25 1.391 . S
C22 C21 1.387 . S
C22 C23 1.369 . S
C22 H31 0.929 . S
C23 N20 1.346 . S
C23 C22 1.369 . S
C23 H26 0.928 . S
C24 N20 1.345 . S
C24 C25 1.371 . S
C24 H27 0.931 . S
C25 C21 1.391 . S
C25 C24 1.371 . S
C25 H32 0.930 . S
H26 C23 0.928 . S
H27 C24 0.931 . S
H28 C4 0.930 . S
H29 C1 0.930 . S
H30 C10 0.930 . S
H31 C22 0.929 . S
H32 C25 0.930 . S
C33 C34 1.351 . S
C33 N36 1.368 . S
C33 H38 0.931 . S
C34 C33 1.351 . S
C34 N35 1.373 . S
C34 H62 0.930 . S
N35 C34 1.373 . S
N35 C37 1.340 . S
N36 C33 1.368 . S
N36 C37 1.321 . S
N36 Co39 2.135 . S
C37 N35 1.340 . S
C37 N36 1.321 . S
C37 H61 0.930 . S
H38 C33 0.931 . S
Co39 N36 2.135 . S
Co39 N42 2.121 . S
Co39 O47 2.055 . S
Co39 O50 2.039 . S
Co39 N53 2.140 . S
C40 O41 1.227 . S
C40 O50 1.265 . S
O41 C40 1.227 . S
N42 Co39 2.121 . S
N42 C44 1.375 . S
N42 C45 1.313 . S
C43 C44 1.338 . S
C43 N46 1.377 . S
C43 H63 0.930 . S
C44 N42 1.375 . S
C44 C43 1.338 . S
C44 H48 0.931 . S
C45 N42 1.313 . S
C45 N46 1.344 . S
C45 H49 0.930 . S
N46 C43 1.377 . S
N46 C45 1.344 . S
O47 Co39 2.055 . S
O47 C51 1.253 . S
H48 C44 0.931 . S
H49 C45 0.930 . S
O50 Co39 2.039 . S
O50 C40 1.265 . S
C51 O47 1.253 . S
C51 O52 1.227 . S
O52 C51 1.227 . S
N53 Co39 2.140 . S
N53 C56 1.346 . S
N53 C57 1.345 . S
C54 C55 1.387 . S
C54 C58 1.391 . S
C55 C54 1.387 . S
C55 C56 1.369 . S
C55 H64 0.929 . S
C56 N53 1.346 . S
C56 C55 1.369 . S
C56 H59 0.928 . S
C57 N53 1.345 . S
C57 C58 1.371 . S
C57 H60 0.931 . S
C58 C54 1.391 . S
C58 C57 1.371 . S
C58 H65 0.930 . S
H59 C56 0.928 . S
H60 C57 0.931 . S
H61 C37 0.930 . S
H62 C34 0.930 . S
H63 C43 0.930 . S
H64 C55 0.929 . S
H65 C58 0.930 . S
C66 C67 1.351 1_556 S
C66 N69 1.368 . S
C66 H71 0.931 . S
C67 C66 1.351 1_554 S
C67 N68 1.373 . S
C67 H95 0.930 . S
N68 C67 1.373 . S
N68 C70 1.340 . S
N69 C66 1.368 . S
N69 C70 1.321 1_556 S
N69 Co72 2.135 . S
C70 N68 1.340 . S
C70 N69 1.321 1_554 S
C70 H94 0.930 . S
H71 C66 0.931 . S
Co72 N69 2.135 . S
Co72 N75 2.121 . S
Co72 O80 2.055 . S
Co72 O83 2.039 . S
Co72 N86 2.140 . S
C73 O74 1.227 . S
C73 O83 1.265 . S
O74 C73 1.227 . S
N75 Co72 2.121 . S
N75 C77 1.375 . S
N75 C78 1.313 . S
C76 C77 1.338 . S
C76 N79 1.377 . S
C76 H96 0.930 . S
C77 N75 1.375 . S
C77 C76 1.338 . S
C77 H81 0.931 . S
C78 N75 1.313 . S
C78 N79 1.344 . S
C78 H82 0.930 . S
N79 C76 1.377 . S
N79 C78 1.344 . S
O80 Co72 2.055 . S
O80 C84 1.253 . S
H81 C77 0.931 . S
H82 C78 0.930 . S
O83 Co72 2.039 . S
O83 C73 1.265 . S
C84 O80 1.253 . S
C84 O85 1.227 . S
O85 C84 1.227 . S
N86 Co72 2.140 . S
N86 C89 1.346 . S
N86 C90 1.345 . S
C87 C88 1.387 . S
C87 C91 1.391 . S
C88 C87 1.387 . S
C88 C89 1.369 . S
C88 H97 0.929 . S
C89 N86 1.346 . S
C89 C88 1.369 . S
C89 H92 0.928 . S
C90 N86 1.345 . S
C90 C91 1.371 . S
C90 H93 0.931 . S
C91 C87 1.391 . S
C91 C90 1.371 . S
C91 H98 0.930 . S
H92 C89 0.928 . S
H93 C90 0.931 . S
H94 C70 0.930 . S
H95 C67 0.930 . S
H96 C76 0.930 . S
H97 C88 0.929 . S
H98 C91 0.930 . S
C99 C100 1.351 . S
C99 N102 1.368 . S
C99 H104 0.931 . S
C100 C99 1.351 . S
C100 N101 1.373 . S
C100 H128 0.930 . S
N101 C100 1.373 . S
N101 C103 1.340 . S
N102 C99 1.368 . S
N102 C103 1.321 . S
N102 Co105 2.135 . S
C103 N101 1.340 . S
C103 N102 1.321 . S
C103 H127 0.930 . S
H104 C99 0.931 . S
Co105 N102 2.135 . S
Co105 N108 2.121 1_554 S
Co105 O113 2.055 . S
Co105 O116 2.039 . S
Co105 N119 2.140 . S
C106 O107 1.227 . S
C106 O116 1.265 . S
O107 C106 1.227 . S
N108 Co105 2.121 1_556 S
N108 C110 1.375 . S
N108 C111 1.313 . S
C109 C110 1.338 . S
C109 N112 1.377 . S
C109 H129 0.930 . S
C110 N108 1.375 . S
C110 C109 1.338 . S
C110 H114 0.931 . S
C111 N108 1.313 . S
C111 N112 1.344 . S
C111 H115 0.930 . S
N112 C109 1.377 . S
N112 C111 1.344 . S
O113 Co105 2.055 . S
O113 C117 1.253 . S
H114 C110 0.931 . S
H115 C111 0.930 . S
O116 Co105 2.039 . S
O116 C106 1.265 . S
C117 O113 1.253 . S
C117 O118 1.227 . S
O118 C117 1.227 . S
N119 Co105 2.140 . S
N119 C122 1.346 . S
N119 C123 1.345 . S
C120 C121 1.387 . S
C120 C124 1.391 . S
C121 C120 1.387 . S
C121 C122 1.369 . S
C121 H130 0.929 . S
C122 N119 1.346 . S
C122 C121 1.369 . S
C122 H125 0.928 . S
C123 N119 1.345 . S
C123 C124 1.371 . S
C123 H126 0.931 . S
C124 C120 1.391 . S
C124 C123 1.371 . S
C124 H131 0.930 . S
H125 C122 0.928 . S
H126 C123 0.931 . S
H127 C103 0.930 . S
H128 C100 0.930 . S
H129 C109 0.930 . S
H130 C121 0.929 . S
H131 C124 0.930 . S
C132 C133 1.351 . S
C132 N135 1.368 . S
C132 H137 0.931 . S
C133 C132 1.351 . S
C133 N134 1.373 . S
C133 H161 0.930 . S
N134 C133 1.373 . S
N134 C136 1.340 . S
N135 C132 1.368 . S
N135 C136 1.321 . S
N135 Co138 2.135 . S
C136 N134 1.340 . S
C136 N135 1.321 . S
C136 H160 0.930 . S
H137 C132 0.931 . S
Co138 N135 2.135 . S
Co138 N141 2.121 . S
Co138 O146 2.055 . S
Co138 O149 2.039 . S
Co138 N152 2.140 . S
C139 O140 1.227 . S
C139 O149 1.265 . S
O140 C139 1.227 . S
N141 Co138 2.121 . S
N141 C143 1.375 . S
N141 C144 1.313 . S
C142 C143 1.338 . S
C142 N145 1.377 . S
C142 H162 0.930 . S
C143 N141 1.375 . S
C143 C142 1.338 . S
C143 H147 0.931 . S
C144 N141 1.313 . S
C144 N145 1.344 . S
C144 H148 0.930 . S
N145 C142 1.377 . S
N145 C144 1.344 . S
O146 Co138 2.055 . S
O146 C150 1.253 . S
H147 C143 0.931 . S
H148 C144 0.930 . S
O149 Co138 2.039 . S
O149 C139 1.265 . S
C150 O146 1.253 . S
C150 O151 1.227 . S
O151 C150 1.227 . S
N152 Co138 2.140 . S
N152 C155 1.346 . S
N152 C156 1.345 . S
C153 C154 1.387 . S
C153 C157 1.391 . S
C154 C153 1.387 . S
C154 C155 1.369 . S
C154 H163 0.929 . S
C155 N152 1.346 . S
C155 C154 1.369 . S
C155 H158 0.928 . S
C156 N152 1.345 . S
C156 C157 1.371 . S
C156 H159 0.931 . S
C157 C153 1.391 . S
C157 C156 1.371 . S
C157 H164 0.930 . S
H158 C155 0.928 . S
H159 C156 0.931 . S
H160 C136 0.930 . S
H161 C133 0.930 . S
H162 C142 0.930 . S
H163 C154 0.929 . S
H164 C157 0.930 . S
C165 C166 1.351 1_556 S
C165 N168 1.368 . S
C165 H170 0.931 . S
C166 C165 1.351 1_554 S
C166 N167 1.373 . S
C166 H194 0.930 . S
N167 C166 1.373 . S
N167 C169 1.340 . S
N168 C165 1.368 . S
N168 C169 1.321 1_556 S
N168 Co171 2.135 . S
C169 N167 1.340 . S
C169 N168 1.321 1_554 S
C169 H193 0.930 . S
H170 C165 0.931 . S
Co171 N168 2.135 . S
Co171 N174 2.121 . S
Co171 O179 2.055 . S
Co171 O182 2.039 . S
Co171 N185 2.140 . S
C172 O173 1.227 . S
C172 O182 1.265 . S
O173 C172 1.227 . S
N174 Co171 2.121 . S
N174 C176 1.375 . S
N174 C177 1.313 . S
C175 C176 1.338 . S
C175 N178 1.377 . S
C175 H195 0.930 . S
C176 N174 1.375 . S
C176 C175 1.338 . S
C176 H180 0.931 . S
C177 N174 1.313 . S
C177 N178 1.344 . S
C177 H181 0.930 . S
N178 C175 1.377 . S
N178 C177 1.344 . S
O179 Co171 2.055 . S
O179 C183 1.253 . S
H180 C176 0.931 . S
H181 C177 0.930 . S
O182 Co171 2.039 . S
O182 C172 1.265 . S
C183 O179 1.253 . S
C183 O184 1.227 . S
O184 C183 1.227 . S
N185 Co171 2.140 . S
N185 C188 1.346 . S
N185 C189 1.345 . S
C186 C187 1.387 . S
C186 C190 1.391 . S
C187 C186 1.387 . S
C187 C188 1.369 . S
C187 H196 0.929 . S
C188 N185 1.346 . S
C188 C187 1.369 . S
C188 H191 0.928 . S
C189 N185 1.345 . S
C189 C190 1.371 . S
C189 H192 0.931 . S
C190 C186 1.391 . S
C190 C189 1.371 . S
C190 H197 0.930 . S
H191 C188 0.928 . S
H192 C189 0.931 . S
H193 C169 0.930 . S
H194 C166 0.930 . S
H195 C175 0.930 . S
H196 C187 0.929 . S
H197 C190 0.930 . S
C198 C199 1.351 . S
C198 N201 1.368 . S
C198 H203 0.931 . S
C199 C198 1.351 . S
C199 N200 1.373 . S
C199 H227 0.930 . S
N200 C199 1.373 . S
N200 C202 1.340 . S
N201 C198 1.368 . S
N201 C202 1.321 . S
N201 Co204 2.135 . S
C202 N200 1.340 . S
C202 N201 1.321 . S
C202 H226 0.930 . S
H203 C198 0.931 . S
Co204 N201 2.135 . S
Co204 N207 2.121 . S
Co204 O212 2.055 . S
Co204 O215 2.039 . S
Co204 N218 2.140 . S
C205 O206 1.227 . S
C205 O215 1.265 . S
O206 C205 1.227 . S
N207 Co204 2.121 . S
N207 C209 1.375 . S
N207 C210 1.313 . S
C208 C209 1.338 . S
C208 N211 1.377 . S
C208 H228 0.930 . S
C209 N207 1.375 . S
C209 C208 1.338 . S
C209 H213 0.931 . S
C210 N207 1.313 . S
C210 N211 1.344 . S
C210 H214 0.930 . S
N211 C208 1.377 . S
N211 C210 1.344 . S
O212 Co204 2.055 . S
O212 C216 1.253 . S
H213 C209 0.931 . S
H214 C210 0.930 . S
O215 Co204 2.039 . S
O215 C205 1.265 . S
C216 O212 1.253 . S
C216 O217 1.227 . S
O217 C216 1.227 . S
N218 Co204 2.140 . S
N218 C221 1.346 . S
N218 C222 1.345 . S
C219 C220 1.387 . S
C219 C223 1.391 . S
C220 C219 1.387 . S
C220 C221 1.369 . S
C220 H229 0.929 . S
C221 N218 1.346 . S
C221 C220 1.369 . S
C221 H224 0.928 . S
C222 N218 1.345 . S
C222 C223 1.371 . S
C222 H225 0.931 . S
C223 C219 1.391 . S
C223 C222 1.371 . S
C223 H230 0.930 . S
H224 C221 0.928 . S
H225 C222 0.931 . S
H226 C202 0.930 . S
H227 C199 0.930 . S
H228 C208 0.930 . S
H229 C220 0.929 . S
H230 C223 0.930 . S
C231 C232 1.351 . S
C231 N234 1.368 . S
C231 H236 0.931 . S
C232 C231 1.351 . S
C232 N233 1.373 . S
C232 H260 0.930 . S
N233 C232 1.373 . S
N233 C235 1.340 . S
N234 C231 1.368 . S
N234 C235 1.321 . S
N234 Co237 2.135 . S
C235 N233 1.340 . S
C235 N234 1.321 . S
C235 H259 0.930 . S
H236 C231 0.931 . S
Co237 N234 2.135 . S
Co237 N240 2.121 1_556 S
Co237 O245 2.055 . S
Co237 O248 2.039 . S
Co237 N251 2.140 . S
C238 O239 1.227 . S
C238 O248 1.265 . S
O239 C238 1.227 . S
N240 Co237 2.121 1_554 S
N240 C242 1.375 . S
N240 C243 1.313 . S
C241 C242 1.338 . S
C241 N244 1.377 . S
C241 H261 0.930 . S
C242 N240 1.375 . S
C242 C241 1.338 . S
C242 H246 0.931 . S
C243 N240 1.313 . S
C243 N244 1.344 . S
C243 H247 0.930 . S
N244 C241 1.377 . S
N244 C243 1.344 . S
O245 Co237 2.055 . S
O245 C249 1.253 . S
H246 C242 0.931 . S
H247 C243 0.930 . S
O248 Co237 2.039 . S
O248 C238 1.265 . S
C249 O245 1.253 . S
C249 O250 1.227 . S
O250 C249 1.227 . S
N251 Co237 2.140 . S
N251 C254 1.346 . S
N251 C255 1.345 . S
C252 C253 1.387 . S
C252 C256 1.391 . S
C253 C252 1.387 . S
C253 C254 1.369 . S
C253 H262 0.929 . S
C254 N251 1.346 . S
C254 C253 1.369 . S
C254 H257 0.928 . S
C255 N251 1.345 . S
C255 C256 1.371 . S
C255 H258 0.931 . S
C256 C252 1.391 . S
C256 C255 1.371 . S
C256 H263 0.930 . S
H257 C254 0.928 . S
H258 C255 0.931 . S
H259 C235 0.930 . S
H260 C232 0.930 . S
H261 C241 0.930 . S
H262 C253 0.929 . S
H263 C256 0.930 . S
C264 C265 1.351 1_554 S
C264 N267 1.368 . S
C264 H269 0.931 . S
C265 C264 1.351 1_556 S
C265 N266 1.373 . S
C265 H293 0.930 . S
N266 C265 1.373 . S
N266 C268 1.340 . S
N267 C264 1.368 . S
N267 C268 1.321 1_554 S
N267 Co270 2.135 . S
C268 N266 1.340 . S
C268 N267 1.321 1_556 S
C268 H292 0.930 . S
H269 C264 0.931 . S
Co270 N267 2.135 . S
Co270 N273 2.121 . S
Co270 O278 2.055 . S
Co270 O281 2.039 . S
Co270 N284 2.140 . S
C271 O272 1.227 . S
C271 O281 1.265 . S
O272 C271 1.227 . S
N273 Co270 2.121 . S
N273 C275 1.375 . S
N273 C276 1.313 . S
C274 C275 1.338 . S
C274 N277 1.377 . S
C274 H294 0.930 . S
C275 N273 1.375 . S
C275 C274 1.338 . S
C275 H279 0.931 . S
C276 N273 1.313 . S
C276 N277 1.344 . S
C276 H280 0.930 . S
N277 C274 1.377 . S
N277 C276 1.344 . S
O278 Co270 2.055 . S
O278 C282 1.253 . S
H279 C275 0.931 . S
H280 C276 0.930 . S
O281 Co270 2.039 . S
O281 C271 1.265 . S
C282 O278 1.253 . S
C282 O283 1.227 . S
O283 C282 1.227 . S
N284 Co270 2.140 . S
N284 C287 1.346 . S
N284 C288 1.345 . S
C285 C286 1.387 . S
C285 C289 1.391 . S
C286 C285 1.387 . S
C286 C287 1.369 . S
C286 H295 0.929 . S
C287 N284 1.346 . S
C287 C286 1.369 . S
C287 H290 0.928 . S
C288 N284 1.345 . S
C288 C289 1.371 . S
C288 H291 0.931 . S
C289 C285 1.391 . S
C289 C288 1.371 . S
C289 H296 0.930 . S
H290 C287 0.928 . S
H291 C288 0.931 . S
H292 C268 0.930 . S
H293 C265 0.930 . S
H294 C274 0.930 . S
H295 C286 0.929 . S
H296 C289 0.930 . S
C297 C298 1.351 . S
C297 N300 1.368 . S
C297 H302 0.931 . S
C298 C297 1.351 . S
C298 N299 1.373 . S
C298 H326 0.930 . S
N299 C298 1.373 . S
N299 C301 1.340 . S
N300 C297 1.368 . S
N300 C301 1.321 . S
N300 Co303 2.135 . S
C301 N299 1.340 . S
C301 N300 1.321 . S
C301 H325 0.930 . S
H302 C297 0.931 . S
Co303 N300 2.135 . S
Co303 N306 2.121 . S
Co303 O311 2.055 . S
Co303 O314 2.039 . S
Co303 N317 2.140 . S
C304 O305 1.227 . S
C304 O314 1.265 . S
O305 C304 1.227 . S
N306 Co303 2.121 . S
N306 C308 1.375 . S
N306 C309 1.313 . S
C307 C308 1.338 . S
C307 N310 1.377 . S
C307 H327 0.930 . S
C308 N306 1.375 . S
C308 C307 1.338 . S
C308 H312 0.931 . S
C309 N306 1.313 . S
C309 N310 1.344 . S
C309 H313 0.930 . S
N310 C307 1.377 . S
N310 C309 1.344 . S
O311 Co303 2.055 . S
O311 C315 1.253 . S
H312 C308 0.931 . S
H313 C309 0.930 . S
O314 Co303 2.039 . S
O314 C304 1.265 . S
C315 O311 1.253 . S
C315 O316 1.227 . S
O316 C315 1.227 . S
N317 Co303 2.140 . S
N317 C320 1.346 . S
N317 C321 1.345 . S
C318 C319 1.387 . S
C318 C322 1.391 . S
C319 C318 1.387 . S
C319 C320 1.369 . S
C319 H328 0.929 . S
C320 N317 1.346 . S
C320 C319 1.369 . S
C320 H323 0.928 . S
C321 N317 1.345 . S
C321 C322 1.371 . S
C321 H324 0.931 . S
C322 C318 1.391 . S
C322 C321 1.371 . S
C322 H329 0.930 . S
H323 C320 0.928 . S
H324 C321 0.931 . S
H325 C301 0.930 . S
H326 C298 0.930 . S
H327 C307 0.930 . S
H328 C319 0.929 . S
H329 C322 0.930 . S
C330 C331 1.351 . S
C330 N333 1.368 . S
C330 H335 0.931 . S
C331 C330 1.351 . S
C331 N332 1.373 . S
C331 H359 0.930 . S
N332 C331 1.373 . S
N332 C334 1.340 . S
N333 C330 1.368 . S
N333 C334 1.321 . S
N333 Co336 2.135 . S
C334 N332 1.340 . S
C334 N333 1.321 . S
C334 H358 0.930 . S
H335 C330 0.931 . S
Co336 N333 2.135 . S
Co336 N339 2.121 1_556 S
Co336 O344 2.055 . S
Co336 O347 2.039 . S
Co336 N350 2.140 . S
C337 O338 1.227 . S
C337 O347 1.265 . S
O338 C337 1.227 . S
N339 Co336 2.121 1_554 S
N339 C341 1.375 . S
N339 C342 1.313 . S
C340 C341 1.338 . S
C340 N343 1.377 . S
C340 H360 0.930 . S
C341 N339 1.375 . S
C341 C340 1.338 . S
C341 H345 0.931 . S
C342 N339 1.313 . S
C342 N343 1.344 . S
C342 H346 0.930 . S
N343 C340 1.377 . S
N343 C342 1.344 . S
O344 Co336 2.055 . S
O344 C348 1.253 . S
H345 C341 0.931 . S
H346 C342 0.930 . S
O347 Co336 2.039 . S
O347 C337 1.265 . S
C348 O344 1.253 . S
C348 O349 1.227 . S
O349 C348 1.227 . S
N350 Co336 2.140 . S
N350 C353 1.346 . S
N350 C354 1.345 . S
C351 C352 1.387 . S
C351 C355 1.391 . S
C352 C351 1.387 . S
C352 C353 1.369 . S
C352 H361 0.929 . S
C353 N350 1.346 . S
C353 C352 1.369 . S
C353 H356 0.928 . S
C354 N350 1.345 . S
C354 C355 1.371 . S
C354 H357 0.931 . S
C355 C351 1.391 . S
C355 C354 1.371 . S
C355 H362 0.930 . S
H356 C353 0.928 . S
H357 C354 0.931 . S
H358 C334 0.930 . S
H359 C331 0.930 . S
H360 C340 0.930 . S
H361 C352 0.929 . S
H362 C355 0.930 . S
C363 C364 1.351 1_554 S
C363 N366 1.368 . S
C363 H368 0.931 . S
C364 C363 1.351 1_556 S
C364 N365 1.373 . S
C364 H392 0.930 . S
N365 C364 1.373 . S
N365 C367 1.340 . S
N366 C363 1.368 . S
N366 C367 1.321 1_554 S
N366 Co369 2.135 . S
C367 N365 1.340 . S
C367 N366 1.321 1_556 S
C367 H391 0.930 . S
H368 C363 0.931 . S
Co369 N366 2.135 . S
Co369 N372 2.121 . S
Co369 O377 2.055 . S
Co369 O380 2.039 . S
Co369 N383 2.140 . S
C370 O371 1.227 . S
C370 O380 1.265 . S
O371 C370 1.227 . S
N372 Co369 2.121 . S
N372 C374 1.375 . S
N372 C375 1.313 . S
C373 C374 1.338 . S
C373 N376 1.377 . S
C373 H393 0.930 . S
C374 N372 1.375 . S
C374 C373 1.338 . S
C374 H378 0.931 . S
C375 N372 1.313 . S
C375 N376 1.344 . S
C375 H379 0.930 . S
N376 C373 1.377 . S
N376 C375 1.344 . S
O377 Co369 2.055 . S
O377 C381 1.253 . S
H378 C374 0.931 . S
H379 C375 0.930 . S
O380 Co369 2.039 . S
O380 C370 1.265 . S
C381 O377 1.253 . S
C381 O382 1.227 . S
O382 C381 1.227 . S
N383 Co369 2.140 . S
N383 C386 1.346 . S
N383 C387 1.345 . S
C384 C385 1.387 . S
C384 C388 1.391 . S
C385 C384 1.387 . S
C385 C386 1.369 . S
C385 H394 0.929 . S
C386 N383 1.346 . S
C386 C385 1.369 . S
C386 H389 0.928 . S
C387 N383 1.345 . S
C387 C388 1.371 . S
C387 H390 0.931 . S
C388 C384 1.391 . S
C388 C387 1.371 . S
C388 H395 0.930 . S
H389 C386 0.928 . S
H390 C387 0.931 . S
H391 C367 0.930 . S
H392 C364 0.930 . S
H393 C373 0.930 . S
H394 C385 0.929 . S
H395 C388 0.930 . S
C396 C397 1.363 . S
C396 C402 1.379 1_455 S
C396 N404 1.356 . S
C397 C396 1.363 . S
C397 C403 1.363 . S
C398 C399 1.363 . S
C398 C403 1.379 1_655 S
C398 N405 1.356 . S
C399 C398 1.363 . S
C399 C402 1.363 . S
N400 C402 1.356 . S
N400 H412 0.984 . S
N400 H413 0.985 . S
N401 C403 1.356 . S
N401 H406 0.984 . S
N401 H407 0.985 1_554 S
C402 C396 1.379 1_655 S
C402 C399 1.363 . S
C402 N400 1.356 . S
C403 C397 1.363 . S
C403 C398 1.379 1_455 S
C403 N401 1.356 . S
N404 C396 1.356 . S
N404 H410 0.984 . S
N404 H411 0.984 . S
N405 C398 1.356 . S
N405 H408 0.984 . S
N405 H409 0.985 1_554 S
H406 N401 0.984 . S
H407 N401 0.985 1_556 S
H408 N405 0.984 . S
H409 N405 0.985 1_556 S
H410 N404 0.984 . S
H411 N404 0.984 . S
H412 N400 0.984 . S
H413 N400 0.985 . S
C414 C415 1.363 . S
C414 C420 1.379 1_545 S
C414 N422 1.356 . S
C415 C414 1.363 . S
C415 C421 1.363 . S
C416 C417 1.363 . S
C416 C421 1.379 1_565 S
C416 N423 1.356 . S
C417 C416 1.363 . S
C417 C420 1.363 . S
N418 C420 1.356 . S
N418 H430 0.984 . S
N418 H431 0.985 . S
N419 C421 1.356 . S
N419 H424 0.984 . S
N419 H425 0.985 . S
C420 C414 1.379 1_565 S
C420 C417 1.363 . S
C420 N418 1.356 . S
C421 C415 1.363 . S
C421 C416 1.379 1_545 S
C421 N419 1.356 . S
N422 C414 1.356 . S
N422 H428 0.984 . S
N422 H429 0.984 . S
N423 C416 1.356 . S
N423 H426 0.984 . S
N423 H427 0.985 . S
H424 N419 0.984 . S
H425 N419 0.985 . S
H426 N423 0.984 . S
H427 N423 0.985 . S
H428 N422 0.984 . S
H429 N422 0.984 . S
H430 N418 0.984 . S
H431 N418 0.985 . S
C432 C433 1.363 . S
C432 C438 1.379 . S
C432 N440 1.356 . S
C433 C432 1.363 . S
C433 C439 1.363 . S
C434 C435 1.363 . S
C434 C439 1.379 . S
C434 N441 1.356 . S
C435 C434 1.363 . S
C435 C438 1.363 . S
N436 C438 1.356 . S
N436 H448 0.984 . S
N436 H449 0.985 . S
N437 C439 1.356 . S
N437 H442 0.984 . S
N437 H443 0.985 1_556 S
C438 C432 1.379 . S
C438 C435 1.363 . S
C438 N436 1.356 . S
C439 C433 1.363 . S
C439 C434 1.379 . S
C439 N437 1.356 . S
N440 C432 1.356 . S
N440 H446 0.984 . S
N440 H447 0.984 . S
N441 C434 1.356 . S
N441 H444 0.984 . S
N441 H445 0.985 1_556 S
H442 N437 0.984 . S
H443 N437 0.985 1_554 S
H444 N441 0.984 . S
H445 N441 0.985 1_554 S
H446 N440 0.984 . S
H447 N440 0.984 . S
H448 N436 0.984 . S
H449 N436 0.985 . S
C450 C451 1.363 . S
C450 C456 1.379 1_455 S
C450 N458 1.356 . S
C451 C450 1.363 . S
C451 C457 1.363 . S
C452 C453 1.363 . S
C452 C457 1.379 1_655 S
C452 N459 1.356 . S
C453 C452 1.363 . S
C453 C456 1.363 . S
N454 C456 1.356 . S
N454 H466 0.984 1_554 S
N454 H467 0.985 . S
N455 C457 1.356 . S
N455 H460 0.984 . S
N455 H461 0.985 . S
C456 C450 1.379 1_655 S
C456 C453 1.363 . S
C456 N454 1.356 . S
C457 C451 1.363 . S
C457 C452 1.379 1_455 S
C457 N455 1.356 . S
N458 C450 1.356 . S
N458 H464 0.984 . S
N458 H465 0.984 . S
N459 C452 1.356 . S
N459 H462 0.984 . S
N459 H463 0.985 . S
H460 N455 0.984 . S
H461 N455 0.985 . S
H462 N459 0.984 . S
H463 N459 0.985 . S
H464 N458 0.984 . S
H465 N458 0.984 . S
H466 N454 0.984 1_556 S
H467 N454 0.985 . S
C468 C469 1.363 . S
C468 C474 1.379 1_545 S
C468 N476 1.356 . S
C469 C468 1.363 . S
C469 C475 1.363 . S
C470 C471 1.363 . S
C470 C475 1.379 1_565 S
C470 N477 1.356 . S
C471 C470 1.363 . S
C471 C474 1.363 . S
N472 C474 1.356 . S
N472 H484 0.984 . S
N472 H485 0.985 . S
N473 C475 1.356 . S
N473 H478 0.984 . S
N473 H479 0.985 . S
C474 C468 1.379 1_565 S
C474 C471 1.363 . S
C474 N472 1.356 . S
C475 C469 1.363 . S
C475 C470 1.379 1_545 S
C475 N473 1.356 . S
N476 C468 1.356 . S
N476 H482 0.984 . S
N476 H483 0.984 . S
N477 C470 1.356 . S
N477 H480 0.984 . S
N477 H481 0.985 . S
H478 N473 0.984 . S
H479 N473 0.985 . S
H480 N477 0.984 . S
H481 N477 0.985 . S
H482 N476 0.984 . S
H483 N476 0.984 . S
H484 N472 0.984 . S
H485 N472 0.985 . S
C486 C487 1.363 . S
C486 C492 1.379 . S
C486 N494 1.356 . S
C487 C486 1.363 . S
C487 C493 1.363 . S
C488 C489 1.363 . S
C488 C493 1.379 . S
C488 N495 1.356 . S
C489 C488 1.363 . S
C489 C492 1.363 . S
N490 C492 1.356 . S
N490 H502 0.984 . S
N490 H503 0.985 . S
N491 C493 1.356 . S
N491 H496 0.984 . S
N491 H497 0.985 1_556 S
C492 C486 1.379 . S
C492 C489 1.363 . S
C492 N490 1.356 . S
C493 C487 1.363 . S
C493 C488 1.379 . S
C493 N491 1.356 . S
N494 C486 1.356 . S
N494 H500 0.984 . S
N494 H501 0.984 . S
N495 C488 1.356 . S
N495 H498 0.984 . S
N495 H499 0.985 . S
H496 N491 0.984 . S
H497 N491 0.985 1_554 S
H498 N495 0.984 . S
H499 N495 0.985 . S
H500 N494 0.984 . S
H501 N494 0.984 . S
H502 N490 0.984 . S
H503 N490 0.985 . S
C504 C505 1.363 . S
C504 C510 1.379 . S
C504 N512 1.356 . S
C505 C504 1.363 . S
C505 C511 1.363 . S
C506 C507 1.363 . S
C506 C511 1.379 . S
C506 N513 1.356 . S
C507 C506 1.363 . S
C507 C510 1.363 . S
N508 C510 1.356 . S
N508 H520 0.984 . S
N508 H521 0.985 . S
N509 C511 1.356 . S
N509 H514 0.984 . S
N509 H515 0.985 . S
C510 C504 1.379 . S
C510 C507 1.363 . S
C510 N508 1.356 . S
C511 C505 1.363 . S
C511 C506 1.379 . S
C511 N509 1.356 . S
N512 C504 1.356 . S
N512 H518 0.984 . S
N512 H519 0.984 . S
N513 C506 1.356 . S
N513 H516 0.984 . S
N513 H517 0.985 . S
H514 N509 0.984 . S
H515 N509 0.985 . S
H516 N513 0.984 . S
H517 N513 0.985 . S
H518 N512 0.984 . S
H519 N512 0.984 . S
H520 N508 0.984 . S
H521 N508 0.985 . S
C522 C523 1.363 . S
C522 C528 1.379 . S
C522 N530 1.356 . S
C523 C522 1.363 . S
C523 C529 1.363 . S
C524 C525 1.363 . S
C524 C529 1.379 1_554 S
C524 N531 1.356 . S
C525 C524 1.363 . S
C525 C528 1.363 1_554 S
N526 C528 1.356 1_554 S
N526 H538 0.984 . S
N526 H539 0.985 . S
N527 C529 1.356 . S
N527 H532 0.984 . S
N527 H533 0.985 . S
C528 C522 1.379 . S
C528 C525 1.363 1_556 S
C528 N526 1.356 1_556 S
C529 C523 1.363 . S
C529 C524 1.379 1_556 S
C529 N527 1.356 . S
N530 C522 1.356 . S
N530 H536 0.984 . S
N530 H537 0.984 . S
N531 C524 1.356 . S
N531 H534 0.984 . S
N531 H535 0.985 . S
H532 N527 0.984 . S
H533 N527 0.985 . S
H534 N531 0.984 . S
H535 N531 0.985 . S
H536 N530 0.984 . S
H537 N530 0.984 . S
H538 N526 0.984 . S
H539 N526 0.985 . S
C540 C541 1.363 . S
C540 C546 1.379 . S
C540 N548 1.356 . S
C541 C540 1.363 . S
C541 C547 1.363 . S
C542 C543 1.363 . S
C542 C547 1.379 . S
C542 N549 1.356 . S
C543 C542 1.363 . S
C543 C546 1.363 . S
N544 C546 1.356 . S
N544 H556 0.984 . S
N544 H557 0.985 . S
N545 C547 1.356 . S
N545 H550 0.984 . S
N545 H551 0.985 . S
C546 C540 1.379 . S
C546 C543 1.363 . S
C546 N544 1.356 . S
C547 C541 1.363 . S
C547 C542 1.379 . S
C547 N545 1.356 . S
N548 C540 1.356 . S
N548 H554 0.984 . S
N548 H555 0.984 . S
N549 C542 1.356 . S
N549 H552 0.984 . S
N549 H553 0.985 . S
H550 N545 0.984 . S
H551 N545 0.985 . S
H552 N549 0.984 . S
H553 N549 0.985 . S
H554 N548 0.984 . S
H555 N548 0.984 . S
H556 N544 0.984 . S
H557 N544 0.985 . S
C558 C559 1.363 . S
C558 C564 1.379 . S
C558 N566 1.356 . S
C559 C558 1.363 . S
C559 C565 1.363 . S
C560 C561 1.363 . S
C560 C565 1.379 . S
C560 N567 1.356 . S
C561 C560 1.363 . S
C561 C564 1.363 . S
N562 C564 1.356 . S
N562 H574 0.984 . S
N562 H575 0.985 . S
N563 C565 1.356 . S
N563 H568 0.984 . S
N563 H569 0.985 . S
C564 C558 1.379 . S
C564 C561 1.363 . S
C564 N562 1.356 . S
C565 C559 1.363 . S
C565 C560 1.379 . S
C565 N563 1.356 . S
N566 C558 1.356 . S
N566 H572 0.984 . S
N566 H573 0.984 . S
N567 C560 1.356 . S
N567 H570 0.984 . S
N567 H571 0.985 . S
H568 N563 0.984 . S
H569 N563 0.985 . S
H570 N567 0.984 . S
H571 N567 0.985 . S
H572 N566 0.984 . S
H573 N566 0.984 . S
H574 N562 0.984 . S
H575 N562 0.985 . S
C576 C577 1.363 . S
C576 C582 1.379 1_554 S
C576 N584 1.356 . S
C577 C576 1.363 . S
C577 C583 1.363 1_554 S
C578 C579 1.363 . S
C578 C583 1.379 . S
C578 N585 1.356 . S
C579 C578 1.363 . S
C579 C582 1.363 . S
N580 C582 1.356 . S
N580 H592 0.984 . S
N580 H593 0.985 . S
N581 C583 1.356 1_554 S
N581 H586 0.984 . S
N581 H587 0.985 . S
C582 C576 1.379 1_556 S
C582 C579 1.363 . S
C582 N580 1.356 . S
C583 C577 1.363 1_556 S
C583 C578 1.379 . S
C583 N581 1.356 1_556 S
N584 C576 1.356 . S
N584 H590 0.984 . S
N584 H591 0.984 . S
N585 C578 1.356 . S
N585 H588 0.984 . S
N585 H589 0.985 . S
H586 N581 0.984 . S
H587 N581 0.985 . S
H588 N585 0.984 . S
H589 N585 0.985 . S
H590 N584 0.984 . S
H591 N584 0.984 . S
H592 N580 0.984 . S
H593 N580 0.985 . S
C594 C595 1.363 . S
C594 C600 1.379 . S
C594 N602 1.356 . S
C595 C594 1.363 . S
C595 C601 1.363 . S
C596 C597 1.363 . S
C596 C601 1.379 . S
C596 N603 1.356 . S
C597 C596 1.363 . S
C597 C600 1.363 . S
N598 C600 1.356 . S
N598 H610 0.984 . S
N598 H611 0.985 . S
N599 C601 1.356 . S
N599 H604 0.984 . S
N599 H605 0.985 . S
C600 C594 1.379 . S
C600 C597 1.363 . S
C600 N598 1.356 . S
C601 C595 1.363 . S
C601 C596 1.379 . S
C601 N599 1.356 . S
N602 C594 1.356 . S
N602 H608 0.984 . S
N602 H609 0.984 . S
N603 C596 1.356 . S
N603 H606 0.984 . S
N603 H607 0.985 . S
H604 N599 0.984 . S
H605 N599 0.985 . S
H606 N603 0.984 . S
H607 N603 0.985 . S
H608 N602 0.984 . S
H609 N602 0.984 . S
H610 N598 0.984 . S
H611 N598 0.985 . S
C612 C613 1.363 1_554 S
C612 C618 1.379 . S
C612 N620 1.356 1_554 S
C613 C612 1.363 1_556 S
C613 C619 1.363 . S
C614 C615 1.363 . S
C614 C619 1.379 1_554 S
C614 N621 1.356 . S
C615 C614 1.363 . S
C615 C618 1.363 . S
N616 C618 1.356 . S
N616 H628 0.984 . S
N616 H629 0.985 . S
N617 C619 1.356 . S
N617 H622 0.984 . S
N617 H623 0.985 . S
C618 C612 1.379 . S
C618 C615 1.363 . S
C618 N616 1.356 . S
C619 C613 1.363 . S
C619 C614 1.379 1_556 S
C619 N617 1.356 . S
N620 C612 1.356 1_556 S
N620 H626 0.984 . S
N620 H627 0.984 . S
N621 C614 1.356 . S
N621 H624 0.984 . S
N621 H625 0.985 . S
H622 N617 0.984 . S
H623 N617 0.985 . S
H624 N621 0.984 . S
H625 N621 0.985 . S
H626 N620 0.984 . S
H627 N620 0.984 . S
H628 N616 0.984 . S
H629 N616 0.985 . S
C630 C631 1.363 . S
C630 C636 1.379 . S
C630 N638 1.356 . S
C631 C630 1.363 . S
C631 C637 1.363 . S
C632 C633 1.363 . S
C632 C637 1.379 . S
C632 N639 1.356 . S
C633 C632 1.363 . S
C633 C636 1.363 . S
N634 C636 1.356 . S
N634 H646 0.984 . S
N634 H647 0.985 . S
N635 C637 1.356 . S
N635 H640 0.984 . S
N635 H641 0.985 . S
C636 C630 1.379 . S
C636 C633 1.363 . S
C636 N634 1.356 . S
C637 C631 1.363 . S
C637 C632 1.379 . S
C637 N635 1.356 . S
N638 C630 1.356 . S
N638 H644 0.984 . S
N638 H645 0.984 . S
N639 C632 1.356 . S
N639 H642 0.984 . S
N639 H643 0.985 . S
H640 N635 0.984 . S
H641 N635 0.985 . S
H642 N639 0.984 . S
H643 N639 0.985 . S
H644 N638 0.984 . S
H645 N638 0.984 . S
H646 N634 0.984 . S
H647 N634 0.985 . S
C648 C649 1.363 . S
C648 C654 1.379 . S
C648 N656 1.356 . S
C649 C648 1.363 . S
C649 C655 1.363 . S
C650 C651 1.363 . S
C650 C655 1.379 . S
C650 N657 1.356 . S
C651 C650 1.363 . S
C651 C654 1.363 . S
N652 C654 1.356 . S
N652 H664 0.984 . S
N652 H665 0.985 . S
N653 C655 1.356 . S
N653 H658 0.984 . S
N653 H659 0.985 . S
C654 C648 1.379 . S
C654 C651 1.363 . S
C654 N652 1.356 . S
C655 C649 1.363 . S
C655 C650 1.379 . S
C655 N653 1.356 . S
N656 C648 1.356 . S
N656 H662 0.984 . S
N656 H663 0.984 . S
N657 C650 1.356 . S
N657 H660 0.984 . S
N657 H661 0.985 . S
H658 N653 0.984 . S
H659 N653 0.985 . S
H660 N657 0.984 . S
H661 N657 0.985 . S
H662 N656 0.984 . S
H663 N656 0.984 . S
H664 N652 0.984 . S
H665 N652 0.985 . S
C666 C667 1.363 . S
C666 C672 1.379 1_554 S
C666 N674 1.356 . S
C667 C666 1.363 . S
C667 C673 1.363 . S
C668 C669 1.363 1_554 S
C668 C673 1.379 . S
C668 N675 1.356 1_554 S
C669 C668 1.363 1_556 S
C669 C672 1.363 . S
N670 C672 1.356 . S
N670 H682 0.984 . S
N670 H683 0.985 . S
N671 C673 1.356 . S
N671 H676 0.984 . S
N671 H677 0.985 . S
C672 C666 1.379 1_556 S
C672 C669 1.363 . S
C672 N670 1.356 . S
C673 C667 1.363 . S
C673 C668 1.379 . S
C673 N671 1.356 . S
N674 C666 1.356 . S
N674 H680 0.984 . S
N674 H681 0.984 . S
N675 C668 1.356 1_556 S
N675 H678 0.984 . S
N675 H679 0.985 . S
H676 N671 0.984 . S
H677 N671 0.985 . S
H678 N675 0.984 . S
H679 N675 0.985 . S
H680 N674 0.984 . S
H681 N674 0.984 . S
H682 N670 0.984 . S
H683 N670 0.985 . S
C684 C685 1.363 . S
C684 C690 1.379 . S
C684 N692 1.356 . S
C685 C684 1.363 . S
C685 C691 1.363 . S
C686 C687 1.363 . S
C686 C691 1.379 . S
C686 N693 1.356 . S
C687 C686 1.363 . S
C687 C690 1.363 . S
N688 C690 1.356 . S
N688 H700 0.984 . S
N688 H701 0.985 . S
N689 C691 1.356 . S
N689 H694 0.984 . S
N689 H695 0.985 . S
C690 C684 1.379 . S
C690 C687 1.363 . S
C690 N688 1.356 . S
C691 C685 1.363 . S
C691 C686 1.379 . S
C691 N689 1.356 . S
N692 C684 1.356 . S
N692 H698 0.984 . S
N692 H699 0.984 . S
N693 C686 1.356 . S
N693 H696 0.984 . S
N693 H697 0.985 . S
H694 N689 0.984 . S
H695 N689 0.985 . S
H696 N693 0.984 . S
H697 N693 0.985 . S
H698 N692 0.984 . S
H699 N692 0.984 . S
H700 N688 0.984 . S
H701 N688 0.985 . S
C702 C703 1.363 . S
C702 C708 1.379 . S
C702 N710 1.356 . S
C703 C702 1.363 . S
C703 C709 1.363 . S
C704 C705 1.363 . S
C704 C709 1.379 . S
C704 N711 1.356 . S
C705 C704 1.363 . S
C705 C708 1.363 . S
N706 C708 1.356 . S
N706 H718 0.984 . S
N706 H719 0.985 . S
N707 C709 1.356 . S
N707 H712 0.984 . S
N707 H713 0.985 . S
C708 C702 1.379 . S
C708 C705 1.363 . S
C708 N706 1.356 . S
C709 C703 1.363 . S
C709 C704 1.379 . S
C709 N707 1.356 . S
N710 C702 1.356 . S
N710 H716 0.984 . S
N710 H717 0.984 . S
N711 C704 1.356 . S
N711 H714 0.984 . S
N711 H715 0.985 . S
H712 N707 0.984 . S
H713 N707 0.985 . S
H714 N711 0.984 . S
H715 N711 0.985 . S
H716 N710 0.984 . S
H717 N710 0.984 . S
H718 N706 0.984 . S
H719 N706 0.985 . S
C720 C721 1.363 . S
C720 C726 1.379 . S
C720 N728 1.356 . S
C721 C720 1.363 . S
C721 C727 1.363 . S
C722 C723 1.363 . S
C722 C727 1.379 . S
C722 N729 1.356 . S
C723 C722 1.363 . S
C723 C726 1.363 . S
N724 C726 1.356 . S
N724 H736 0.984 . S
N724 H737 0.985 . S
N725 C727 1.356 . S
N725 H730 0.984 . S
N725 H731 0.985 1_554 S
C726 C720 1.379 . S
C726 C723 1.363 . S
C726 N724 1.356 . S
C727 C721 1.363 . S
C727 C722 1.379 . S
C727 N725 1.356 . S
N728 C720 1.356 . S
N728 H734 0.984 . S
N728 H735 0.984 . S
N729 C722 1.356 . S
N729 H732 0.984 . S
N729 H733 0.985 1_554 S
H730 N725 0.984 . S
H731 N725 0.985 1_556 S
H732 N729 0.984 . S
H733 N729 0.985 1_556 S
H734 N728 0.984 . S
H735 N728 0.984 . S
H736 N724 0.984 . S
H737 N724 0.985 . S
C738 C739 1.363 . S
C738 C744 1.379 . S
C738 N746 1.356 . S
C739 C738 1.363 . S
C739 C745 1.363 . S
C740 C741 1.363 . S
C740 C745 1.379 . S
C740 N747 1.356 . S
C741 C740 1.363 . S
C741 C744 1.363 . S
N742 C744 1.356 . S
N742 H754 0.984 . S
N742 H755 0.985 . S
N743 C745 1.356 . S
N743 H748 0.984 . S
N743 H749 0.985 . S
C744 C738 1.379 . S
C744 C741 1.363 . S
C744 N742 1.356 . S
C745 C739 1.363 . S
C745 C740 1.379 . S
C745 N743 1.356 . S
N746 C738 1.356 . S
N746 H752 0.984 . S
N746 H753 0.984 . S
N747 C740 1.356 . S
N747 H750 0.984 . S
N747 H751 0.985 . S
H748 N743 0.984 . S
H749 N743 0.985 . S
H750 N747 0.984 . S
H751 N747 0.985 . S
H752 N746 0.984 . S
H753 N746 0.984 . S
H754 N742 0.984 . S
H755 N742 0.985 . S
C756 C757 1.363 . S
C756 C762 1.379 . S
C756 N764 1.356 . S
C757 C756 1.363 . S
C757 C763 1.363 . S
C758 C759 1.363 . S
C758 C763 1.379 . S
C758 N765 1.356 . S
C759 C758 1.363 . S
C759 C762 1.363 . S
N760 C762 1.356 . S
N760 H772 0.984 . S
N760 H773 0.985 . S
N761 C763 1.356 . S
N761 H766 0.984 . S
N761 H767 0.985 . S
C762 C756 1.379 . S
C762 C759 1.363 . S
C762 N760 1.356 . S
C763 C757 1.363 . S
C763 C758 1.379 . S
C763 N761 1.356 . S
N764 C756 1.356 . S
N764 H770 0.984 . S
N764 H771 0.984 . S
N765 C758 1.356 . S
N765 H768 0.984 . S
N765 H769 0.985 . S
H766 N761 0.984 . S
H767 N761 0.985 . S
H768 N765 0.984 . S
H769 N765 0.985 . S
H770 N764 0.984 . S
H771 N764 0.984 . S
H772 N760 0.984 . S
H773 N760 0.985 . S
C774 C775 1.363 . S
C774 C780 1.379 . S
C774 N782 1.356 . S
C775 C774 1.363 . S
C775 C781 1.363 . S
C776 C777 1.363 . S
C776 C781 1.379 . S
C776 N783 1.356 . S
C777 C776 1.363 . S
C777 C780 1.363 . S
N778 C780 1.356 . S
N778 H790 0.984 1_554 S
N778 H791 0.985 . S
N779 C781 1.356 . S
N779 H784 0.984 . S
N779 H785 0.985 . S
C780 C774 1.379 . S
C780 C777 1.363 . S
C780 N778 1.356 . S
C781 C775 1.363 . S
C781 C776 1.379 . S
C781 N779 1.356 . S
N782 C774 1.356 . S
N782 H788 0.984 . S
N782 H789 0.984 . S
N783 C776 1.356 . S
N783 H786 0.984 . S
N783 H787 0.985 . S
H784 N779 0.984 . S
H785 N779 0.985 . S
H786 N783 0.984 . S
H787 N783 0.985 . S
H788 N782 0.984 . S
H789 N782 0.984 . S
H790 N778 0.984 1_556 S
H791 N778 0.985 . S
C792 C793 1.363 . S
C792 C798 1.379 . S
C792 N800 1.356 . S
C793 C792 1.363 . S
C793 C799 1.363 . S
C794 C795 1.363 . S
C794 C799 1.379 . S
C794 N801 1.356 . S
C795 C794 1.363 . S
C795 C798 1.363 . S
N796 C798 1.356 . S
N796 H808 0.984 . S
N796 H809 0.985 . S
N797 C799 1.356 . S
N797 H802 0.984 . S
N797 H803 0.985 . S
C798 C792 1.379 . S
C798 C795 1.363 . S
C798 N796 1.356 . S
C799 C793 1.363 . S
C799 C794 1.379 . S
C799 N797 1.356 . S
N800 C792 1.356 . S
N800 H806 0.984 . S
N800 H807 0.984 . S
N801 C794 1.356 . S
N801 H804 0.984 . S
N801 H805 0.985 . S
H802 N797 0.984 . S
H803 N797 0.985 . S
H804 N801 0.984 . S
H805 N801 0.985 . S
H806 N800 0.984 . S
H807 N800 0.984 . S
H808 N796 0.984 . S
H809 N796 0.985 . S
C810 C811 1.363 . S
C810 C816 1.379 . S
C810 N818 1.356 . S
C811 C810 1.363 . S
C811 C817 1.363 . S
C812 C813 1.363 . S
C812 C817 1.379 . S
C812 N819 1.356 . S
C813 C812 1.363 . S
C813 C816 1.363 . S
N814 C816 1.356 . S
N814 H826 0.984 . S
N814 H827 0.985 . S
N815 C817 1.356 . S
N815 H820 0.984 . S
N815 H821 0.985 . S
C816 C810 1.379 . S
C816 C813 1.363 . S
C816 N814 1.356 . S
C817 C811 1.363 . S
C817 C812 1.379 . S
C817 N815 1.356 . S
N818 C810 1.356 . S
N818 H824 0.984 . S
N818 H825 0.984 . S
N819 C812 1.356 . S
N819 H822 0.984 . S
N819 H823 0.985 . S
H820 N815 0.984 . S
H821 N815 0.985 . S
H822 N819 0.984 . S
H823 N819 0.985 . S
H824 N818 0.984 . S
H825 N818 0.984 . S
H826 N814 0.984 . S
H827 N814 0.985 . S
C828 C829 1.363 . S
C828 C834 1.379 . S
C828 N836 1.356 . S
C829 C828 1.363 . S
C829 C835 1.363 1_556 S
C830 C831 1.363 . S
C830 C835 1.379 . S
C830 N837 1.356 . S
C831 C830 1.363 . S
C831 C834 1.363 1_554 S
N832 C834 1.356 . S
N832 H844 0.984 . S
N832 H845 0.985 1_556 S
N833 C835 1.356 . S
N833 H838 0.984 1_554 S
N833 H839 0.985 . S
C834 C828 1.379 . S
C834 C831 1.363 1_556 S
C834 N832 1.356 . S
C835 C829 1.363 1_554 S
C835 C830 1.379 . S
C835 N833 1.356 . S
N836 C828 1.356 . S
N836 H842 0.984 . S
N836 H843 0.984 . S
N837 C830 1.356 . S
N837 H840 0.984 . S
N837 H841 0.985 . S
H838 N833 0.984 1_556 S
H839 N833 0.985 . S
H840 N837 0.984 . S
H841 N837 0.985 . S
H842 N836 0.984 . S
H843 N836 0.984 . S
H844 N832 0.984 . S
H845 N832 0.985 1_554 S
C846 C847 1.363 . S
C846 C852 1.379 . S
C846 N854 1.356 . S
C847 C846 1.363 . S
C847 C853 1.363 . S
C848 C849 1.363 . S
C848 C853 1.379 . S
C848 N855 1.356 . S
C849 C848 1.363 . S
C849 C852 1.363 . S
N850 C852 1.356 . S
N850 H862 0.984 . S
N850 H863 0.985 . S
N851 C853 1.356 . S
N851 H856 0.984 . S
N851 H857 0.985 . S
C852 C846 1.379 . S
C852 C849 1.363 . S
C852 N850 1.356 . S
C853 C847 1.363 . S
C853 C848 1.379 . S
C853 N851 1.356 . S
N854 C846 1.356 . S
N854 H860 0.984 . S
N854 H861 0.984 . S
N855 C848 1.356 . S
N855 H858 0.984 . S
N855 H859 0.985 . S
H856 N851 0.984 . S
H857 N851 0.985 . S
H858 N855 0.984 . S
H859 N855 0.985 . S
H860 N854 0.984 . S
H861 N854 0.984 . S
H862 N850 0.984 . S
H863 N850 0.985 . S
C864 C865 1.363 . S
C864 C870 1.379 . S
C864 N872 1.356 . S
C865 C864 1.363 . S
C865 C871 1.363 . S
C866 C867 1.363 . S
C866 C871 1.379 . S
C866 N873 1.356 . S
C867 C866 1.363 . S
C867 C870 1.363 . S
N868 C870 1.356 . S
N868 H880 0.984 . S
N868 H881 0.985 . S
N869 C871 1.356 . S
N869 H874 0.984 . S
N869 H875 0.985 . S
C870 C864 1.379 . S
C870 C867 1.363 . S
C870 N868 1.356 . S
C871 C865 1.363 . S
C871 C866 1.379 . S
C871 N869 1.356 . S
N872 C864 1.356 . S
N872 H878 0.984 . S
N872 H879 0.984 . S
N873 C866 1.356 . S
N873 H876 0.984 . S
N873 H877 0.985 . S
H874 N869 0.984 . S
H875 N869 0.985 . S
H876 N873 0.984 . S
H877 N873 0.985 . S
H878 N872 0.984 . S
H879 N872 0.984 . S
H880 N868 0.984 . S
H881 N868 0.985 . S
C882 C883 1.363 1_556 S
C882 C888 1.379 . S
C882 N890 1.356 . S
C883 C882 1.363 1_554 S
C883 C889 1.363 . S
C884 C885 1.363 1_554 S
C884 C889 1.379 . S
C884 N891 1.356 . S
C885 C884 1.363 1_556 S
C885 C888 1.363 . S
N886 C888 1.356 . S
N886 H898 0.984 . S
N886 H899 0.985 . S
N887 C889 1.356 . S
N887 H892 0.984 . S
N887 H893 0.985 . S
C888 C882 1.379 . S
C888 C885 1.363 . S
C888 N886 1.356 . S
C889 C883 1.363 . S
C889 C884 1.379 . S
C889 N887 1.356 . S
N890 C882 1.356 . S
N890 H896 0.984 . S
N890 H897 0.984 1_556 S
N891 C884 1.356 . S
N891 H894 0.984 1_554 S
N891 H895 0.985 . S
H892 N887 0.984 . S
H893 N887 0.985 . S
H894 N891 0.984 1_556 S
H895 N891 0.985 . S
H896 N890 0.984 . S
H897 N890 0.984 1_554 S
H898 N886 0.984 . S
H899 N886 0.985 . S
C900 C901 1.363 . S
C900 C906 1.379 . S
C900 N908 1.356 . S
C901 C900 1.363 . S
C901 C907 1.363 . S
C902 C903 1.363 . S
C902 C907 1.379 . S
C902 N909 1.356 . S
C903 C902 1.363 . S
C903 C906 1.363 . S
N904 C906 1.356 . S
N904 H916 0.984 . S
N904 H917 0.985 . S
N905 C907 1.356 . S
N905 H910 0.984 . S
N905 H911 0.985 . S
C906 C900 1.379 . S
C906 C903 1.363 . S
C906 N904 1.356 . S
C907 C901 1.363 . S
C907 C902 1.379 . S
C907 N905 1.356 . S
N908 C900 1.356 . S
N908 H914 0.984 . S
N908 H915 0.984 . S
N909 C902 1.356 . S
N909 H912 0.984 . S
N909 H913 0.985 . S
H910 N905 0.984 . S
H911 N905 0.985 . S
H912 N909 0.984 . S
H913 N909 0.985 . S
H914 N908 0.984 . S
H915 N908 0.984 . S
H916 N904 0.984 . S
H917 N904 0.985 . S
C918 C919 1.363 . S
C918 C924 1.379 . S
C918 N926 1.356 . S
C919 C918 1.363 . S
C919 C925 1.363 . S
C920 C921 1.363 . S
C920 C925 1.379 . S
C920 N927 1.356 . S
C921 C920 1.363 . S
C921 C924 1.363 . S
N922 C924 1.356 . S
N922 H934 0.984 . S
N922 H935 0.985 . S
N923 C925 1.356 . S
N923 H928 0.984 . S
N923 H929 0.985 . S
C924 C918 1.379 . S
C924 C921 1.363 . S
C924 N922 1.356 . S
C925 C919 1.363 . S
C925 C920 1.379 . S
C925 N923 1.356 . S
N926 C918 1.356 . S
N926 H932 0.984 . S
N926 H933 0.984 . S
N927 C920 1.356 . S
N927 H930 0.984 . S
N927 H931 0.985 . S
H928 N923 0.984 . S
H929 N923 0.985 . S
H930 N927 0.984 . S
H931 N927 0.985 . S
H932 N926 0.984 . S
H933 N926 0.984 . S
H934 N922 0.984 . S
H935 N922 0.985 . S
C397 C7 1.358 . S
C399 C370 1.358 . S
C415 C40 1.358 . S
C417 C205 1.358 . S
C433 C238 1.357 . S
C435 C73 1.357 . S
C451 C271 1.358 . S
C453 C106 1.358 . S
C469 C304 1.358 . S
C471 C139 1.358 . S
C487 C337 1.357 . S
C489 C172 1.357 . S
C505 N13 1.425 . S
C507 N2 1.424 . S
C523 N35 1.424 . S
C525 N46 1.425 . S
C541 N79 1.425 . S
C543 N68 1.424 . S
C559 N112 1.425 . S
C561 N101 1.424 . S
C577 N145 1.425 . S
C579 N134 1.424 . S
C595 N167 1.424 . S
C597 N178 1.425 . S
C613 N211 1.425 . S
C615 N200 1.424 . S
C631 N233 1.424 . S
C633 N244 1.425 . S
C649 N277 1.425 . S
C651 N266 1.424 . S
C667 N299 1.424 . S
C669 N310 1.425 . S
C685 N332 1.424 . S
C687 N343 1.425 . S
C703 N376 1.425 . S
C705 N365 1.424 . S
C721 C21 1.569 . S
C723 C285 1.569 . S
C739 C54 1.569 . S
C741 C318 1.569 . S
C757 C87 1.569 . S
C759 C351 1.569 . S
C775 C384 1.569 . S
C777 C120 1.569 . S
C793 C219 1.569 . S
C795 C153 1.569 . S
C811 C252 1.569 . S
C813 C186 1.569 . S
C829 C348 1.316 . S
C831 C18 1.316 . S
C847 C381 1.316 . S
C849 C51 1.316 . S
C865 C216 1.316 . S
C867 C84 1.316 . S
C883 C117 1.316 . S
C885 C249 1.316 . S
C901 C150 1.316 . S
C903 C282 1.316 . S
C919 C183 1.316 . S
C921 C315 1.316 . S
