# Generated by pormake.
# Topology vby, (6)-cn, num edge types: 1
# Building blocks:
#     Node 0, Type 0, BuildingBlock: VOLQOD_clean_sbu_1, # of connection points: 6
#     Node 1, Type 0, BuildingBlock: VOLQOD_clean_sbu_1, # of connection points: 6
#     Node 2, Type 0, BuildingBlock: VOLQOD_clean_sbu_1, # of connection points: 6
#     Node 3, Type 0, BuildingBlock: VOLQOD_clean_sbu_1, # of connection points: 6
#     Node 4, Type 0, BuildingBlock: VOLQOD_clean_sbu_1, # of connection points: 6
#     Node 5, Type 0, BuildingBlock: VOLQOD_clean_sbu_1, # of connection points: 6
#     Node 6, Type 0, BuildingBlock: VOLQOD_clean_sbu_1, # of connection points: 6
#     Node 7, Type 0, BuildingBlock: VOLQOD_clean_sbu_1, # of connection points: 6
#     Edge 8, Type (0, 0), BuildingBlock: AJUNOK_clean_linker_0, # of connection points: 2
#     Edge 9, Type (0, 0), BuildingBlock: AJUNOK_clean_linker_0, # of connection points: 2
#     Edge 10, Type (0, 0), BuildingBlock: AJUNOK_clean_linker_0, # of connection points: 2
#     Edge 11, Type (0, 0), BuildingBlock: AJUNOK_clean_linker_0, # of connection points: 2
#     Edge 12, Type (0, 0), BuildingBlock: AJUNOK_clean_linker_0, # of connection points: 2
#     Edge 13, Type (0, 0), BuildingBlock: AJUNOK_clean_linker_0, # of connection points: 2
#     Edge 14, Type (0, 0), BuildingBlock: AJUNOK_clean_linker_0, # of connection points: 2
#     Edge 15, Type (0, 0), BuildingBlock: AJUNOK_clean_linker_0, # of connection points: 2
#     Edge 16, Type (0, 0), BuildingBlock: AJUNOK_clean_linker_0, # of connection points: 2
#     Edge 17, Type (0, 0), BuildingBlock: AJUNOK_clean_linker_0, # of connection points: 2
#     Edge 18, Type (0, 0), BuildingBlock: AJUNOK_clean_linker_0, # of connection points: 2
#     Edge 19, Type (0, 0), BuildingBlock: AJUNOK_clean_linker_0, # of connection points: 2
#     Edge 20, Type (0, 0), BuildingBlock: AJUNOK_clean_linker_0, # of connection points: 2
#     Edge 21, Type (0, 0), BuildingBlock: AJUNOK_clean_linker_0, # of connection points: 2
#     Edge 22, Type (0, 0), BuildingBlock: AJUNOK_clean_linker_0, # of connection points: 2
#     Edge 23, Type (0, 0), BuildingBlock: AJUNOK_clean_linker_0, # of connection points: 2
#     Edge 24, Type (0, 0), BuildingBlock: AJUNOK_clean_linker_0, # of connection points: 2
#     Edge 25, Type (0, 0), BuildingBlock: AJUNOK_clean_linker_0, # of connection points: 2
#     Edge 26, Type (0, 0), BuildingBlock: AJUNOK_clean_linker_0, # of connection points: 2
#     Edge 27, Type (0, 0), BuildingBlock: AJUNOK_clean_linker_0, # of connection points: 2
#     Edge 28, Type (0, 0), BuildingBlock: AJUNOK_clean_linker_0, # of connection points: 2
#     Edge 29, Type (0, 0), BuildingBlock: AJUNOK_clean_linker_0, # of connection points: 2
#     Edge 30, Type (0, 0), BuildingBlock: AJUNOK_clean_linker_0, # of connection points: 2
#     Edge 31, Type (0, 0), BuildingBlock: AJUNOK_clean_linker_0, # of connection points: 2
# Relax obj value: 0.083
# Max RMSD: 0.107
# Mean RMSD: 0.107
data_MOF--net-vby--node1-VOLQOD_clean_sbu_1--edge1-AJUNOK_clean_linker_0
_symmetry_space_group_name_H-M    P1
_symmetry_Int_Tables_number       1
_symmetry_cell_setting            triclinic
loop_
_symmetry_equiv_pos_as_xyz
'x, y, z'
_cell_length_a     13.001241
_cell_length_b     50.202789
_cell_length_c     26.063625
_cell_angle_alpha  89.964928
_cell_angle_beta   90.043224
_cell_angle_gamma 89.98604
loop_
_atom_site_label
_atom_site_type_symbol
_atom_site_fract_x
_atom_site_fract_y
_atom_site_fract_z
_atom_type_partial_charge
O0 O 0.28 0.37313 0.97131 0.0
Zn1 Zn 0.12591 0.38025 0.96449 0.0
O2 O 0.05183 0.3573 0.01261 0.0
Zn3 Zn 0.98186 0.32807 0.97684 0.0
Zn4 Zn 0.14472 0.34294 0.06336 0.0
Zn5 Zn 0.95337 0.37827 0.04957 0.0
O6 O 0.8258 0.32928 -0.00924 0.0
O7 O 0.81455 0.37002 0.02411 0.0
O8 O 0.08191 0.37153 0.89217 0.0
O9 O -0.00786 0.33411 0.90085 0.0
O10 O 0.05391 0.29238 -0.0083 0.0
O11 O 0.15205 0.30378 0.05791 0.0
O12 O 0.10693 0.35183 0.13621 0.0
O13 O 0.09083 0.41949 0.97594 0.0
O14 O 0.9559 0.37151 0.12547 0.0
O15 O 0.97432 0.41699 0.03812 0.0
C16 C 0.33167 0.36192 0.00702 0.0
C17 C 0.77285 0.34955 0.00456 0.0
C18 C 0.11913 0.28644 0.02659 0.0
C19 C 0.0309 0.35231 0.87289 0.0
C20 C 0.02513 0.36193 0.15463 0.0
C21 C 0.02833 0.43057 0.00707 0.0
O22 O 0.28877 0.35228 0.04668 0.0
O23 O 0.68851 0.60052 0.9749 0.0
Zn24 Zn 0.84263 0.59402 0.96736 0.0
O25 O 0.91676 0.61706 0.01509 0.0
Zn26 Zn -0.01206 0.64592 0.97853 0.0
Zn27 Zn 0.82354 0.63196 0.06502 0.0
Zn28 Zn 0.01424 0.596 0.05292 0.0
O29 O 0.14348 0.64442 -0.007 0.0
O30 O 0.15322 0.60378 0.02719 0.0
O31 O 0.88554 0.60251 0.89496 0.0
O32 O 0.9788 0.6394 0.9026 0.0
O33 O 0.91754 0.68195 -0.00808 0.0
O34 O 0.81399 0.67096 0.05626 0.0
O35 O 0.86443 0.62491 0.13832 0.0
O36 O 0.87969 0.55499 0.97839 0.0
O37 O 0.01242 0.6036 0.12865 0.0
O38 O -0.00665 0.55714 0.042 0.0
C39 C 0.63644 0.61121 0.01099 0.0
C40 C 0.19541 0.62403 0.00707 0.0
C41 C 0.84966 0.68813 0.0253 0.0
C42 C 0.93887 0.62115 0.8752 0.0
C43 C 0.94523 0.61448 0.15727 0.0
C44 C 0.94107 0.54375 0.00989 0.0
O45 O 0.67964 0.62131 0.05021 0.0
O46 O 0.28474 0.60255 0.55841 0.0
Zn47 Zn 0.13084 0.59563 0.56523 0.0
O48 O 0.05741 0.61917 0.51817 0.0
Zn49 Zn 0.98534 0.648 0.55439 0.0
Zn50 Zn 0.15178 0.6337 0.46814 0.0
Zn51 Zn 0.95854 0.59857 0.48132 0.0
O52 O 0.82952 0.64677 0.54009 0.0
O53 O 0.82001 0.60581 0.50778 0.0
O54 O 0.08595 0.60364 0.63738 0.0
O55 O -0.00548 0.64095 0.63047 0.0
O56 O 0.05553 0.68406 0.54062 0.0
O57 O 0.16902 0.67237 0.48096 0.0
O58 O 0.10671 0.62776 0.3943 0.0
O59 O 0.09554 0.55646 0.55267 0.0
O60 O 0.95901 0.60656 0.40645 0.0
O61 O 0.97995 0.55991 0.49029 0.0
C62 C 0.33733 0.61226 0.52146 0.0
C63 C 0.77765 0.6262 0.52713 0.0
C64 C 0.13035 0.6897 0.5107 0.0
C65 C 0.03308 0.62227 0.65747 0.0
C66 C 0.02406 0.61752 0.37684 0.0
C67 C 0.03358 0.54586 0.52066 0.0
O68 O 0.29465 0.62139 0.48118 0.0
O69 O 0.69197 0.37633 0.55715 0.0
Zn70 Zn 0.8464 0.38271 0.56443 0.0
O71 O 0.91836 0.35983 0.51567 0.0
Zn72 Zn -0.00819 0.33049 0.5495 0.0
Zn73 Zn 0.82292 0.34595 0.46562 0.0
Zn74 Zn 0.01594 0.3809 0.47904 0.0
O75 O 0.14752 0.33264 0.5358 0.0
O76 O 0.15498 0.37407 0.50558 0.0
O77 O 0.89078 0.37304 0.63622 0.0
O78 O 0.98085 0.33572 0.62583 0.0
O79 O 0.92383 0.29446 0.53329 0.0
O80 O 0.80482 0.30725 0.47719 0.0
O81 O 0.86764 0.35209 0.39206 0.0
O82 O 0.88263 0.42203 0.5536 0.0
O83 O 0.0157 0.37312 0.40406 0.0
O84 O -0.00775 0.41941 0.48847 0.0
C85 C 0.63888 0.3673 0.51972 0.0
C86 C 0.19835 0.35358 0.52407 0.0
C87 C 0.84646 0.28935 0.50463 0.0
C88 C 0.94197 0.35358 0.65458 0.0
C89 C 0.95026 0.36227 0.37449 0.0
C90 C 0.94114 0.43305 0.52051 0.0
O91 O 0.68099 0.35856 0.47904 0.0
O92 O 0.79169 0.87432 0.97628 0.0
Zn93 Zn 0.63795 0.88119 0.96544 0.0
O94 O 0.55988 0.85909 0.0139 0.0
Zn95 Zn 0.48643 0.83043 0.9775 0.0
Zn96 Zn 0.65006 0.84362 0.06467 0.0
Zn97 Zn 0.46721 0.88132 0.05236 0.0
O98 O 0.33123 0.8328 -0.00746 0.0
O99 O 0.32565 0.87073 0.03685 0.0
O100 O 0.59898 0.87166 0.89268 0.0
O101 O 0.49779 0.83626 0.90163 0.0
O102 O 0.5542 0.79397 -0.00846 0.0
O103 O 0.66323 0.80501 0.05361 0.0
O104 O 0.60535 0.8488 0.13781 0.0
O105 O 0.60184 0.92079 0.97328 0.0
O106 O 0.48119 0.87858 0.12867 0.0
O107 O 0.48129 0.91918 0.03358 0.0
C108 C 0.83982 0.86551 0.01557 0.0
C109 C 0.28103 0.85134 0.01502 0.0
C110 C 0.6247 0.78783 0.02364 0.0
C111 C 0.54331 0.8533 0.87353 0.0
C112 C 0.53733 0.864 0.15694 0.0
C113 C 0.53572 0.93224 0.00199 0.0
O114 O 0.79254 0.8563 0.0544 0.0
O115 O 0.19298 0.10273 0.97492 0.0
Zn116 Zn 0.34674 0.09653 0.96551 0.0
O117 O 0.42309 0.1179 0.01582 0.0
Zn118 Zn 0.49705 0.14689 0.98111 0.0
Zn119 Zn 0.32967 0.13198 0.06675 0.0
Zn120 Zn 0.51738 0.09596 0.05377 0.0
O121 O 0.65146 0.14513 -0.00314 0.0
O122 O 0.65872 0.10587 0.03655 0.0
O123 O 0.38341 0.10765 0.89344 0.0
O124 O 0.4923 0.14129 0.90501 0.0
O125 O 0.4249 0.18267 -0.00441 0.0
O126 O 0.31799 0.17096 0.05828 0.0
O127 O 0.36759 0.12424 0.14011 0.0
O128 O 0.38533 0.05701 0.97213 0.0
O129 O 0.50711 0.0996 0.13011 0.0
O130 O 0.50023 0.05803 0.03547 0.0
C131 C 0.14268 0.11127 0.01359 0.0
C132 C 0.70251 0.12583 0.01627 0.0
C133 C 0.35499 0.18842 0.02828 0.0
C134 C 0.44369 0.1254 0.87581 0.0
C135 C 0.44246 0.11121 0.15892 0.0
C136 C 0.4484 0.0453 0.00225 0.0
O137 O 0.18752 0.11992 0.05356 0.0
O138 O 0.777 0.10646 0.55952 0.0
Zn139 Zn 0.62503 0.09836 0.56851 0.0
O140 O 0.54593 0.11908 0.51911 0.0
Zn141 Zn 0.47555 0.14909 0.55193 0.0
Zn142 Zn 0.64031 0.13169 0.46733 0.0
Zn143 Zn 0.44576 0.09694 0.48594 0.0
O144 O 0.32144 0.1492 0.53557 0.0
O145 O 0.30603 0.1078 0.50582 0.0
O146 O 0.58373 0.10887 0.64029 0.0
O147 O 0.47874 0.14336 0.62825 0.0
O148 O 0.55185 0.18404 0.53637 0.0
O149 O 0.6642 0.17031 0.47767 0.0
O150 O 0.59117 0.1246 0.3953 0.0
O151 O 0.5942 0.05859 0.56063 0.0
O152 O 0.45216 0.09998 0.40924 0.0
O153 O 0.461 0.05916 0.50699 0.0
C154 C 0.82772 0.1128 0.51945 0.0
C155 C 0.26663 0.12932 0.52187 0.0
C156 C 0.62799 0.1884 0.50649 0.0
C157 C 0.52394 0.12683 0.65767 0.0
C158 C 0.51364 0.1117 0.37873 0.0
C159 C 0.52277 0.04661 0.53608 0.0
O160 O 0.78212 0.1178 0.47735 0.0
O161 O 0.2016 0.87226 0.55671 0.0
Zn162 Zn 0.35383 0.88109 0.56538 0.0
O163 O 0.43244 0.86012 0.51645 0.0
Zn164 Zn 0.50557 0.83064 0.55012 0.0
Zn165 Zn 0.33734 0.84612 0.46697 0.0
Zn166 Zn 0.52502 0.88274 0.4792 0.0
O167 O 0.66026 0.83223 0.53352 0.0
O168 O 0.66688 0.87101 0.49215 0.0
O169 O 0.39913 0.87169 0.63718 0.0
O170 O 0.49933 0.8362 0.62638 0.0
O171 O 0.4321 0.79489 0.53623 0.0
O172 O 0.30803 0.80851 0.48361 0.0
O173 O 0.38967 0.84884 0.39452 0.0
O174 O 0.38343 0.9209 0.55697 0.0
O175 O 0.50577 0.88098 0.40274 0.0
O176 O 0.5162 0.92017 0.50318 0.0
C177 C 0.15224 0.86696 0.5156 0.0
C178 C 0.71121 0.85103 0.51222 0.0
C179 C 0.34943 0.79054 0.51091 0.0
C180 C 0.45621 0.8533 0.65529 0.0
C181 C 0.45421 0.86498 0.37504 0.0
C182 C 0.45613 0.93269 0.53308 0.0
O183 O 0.19885 0.86269 0.47349 0.0
C184 C 0.50716 0.37799 0.9835 0.0
C185 C 0.44307 0.35749 0.00098 0.0
C186 C 0.61413 0.37463 0.98269 0.0
C187 C 0.66027 0.35046 -0.002 0.0
H188 H 0.47491 0.39707 0.9726 0.0
H189 H 0.66145 0.39137 0.97116 0.0
S190 S 0.52437 0.28958 0.04075 0.0
N191 N 0.43181 0.31143 0.02993 0.0
N192 N 0.63314 0.30508 0.02716 0.0
C193 C 0.59657 0.32926 0.01244 0.0
C194 C 0.48777 0.33283 0.01432 0.0
C195 C 0.37085 0.6417 0.02434 0.0
C196 C 0.30753 0.62286 0.00048 0.0
C197 C 0.4774 0.63768 0.0272 0.0
C198 C 0.52416 0.61491 0.00558 0.0
H199 H 0.33748 0.65892 0.04307 0.0
H200 H 0.52343 0.65246 0.04697 0.0
S201 S 0.39101 0.56084 0.93534 0.0
N202 N 0.29801 0.58134 0.95278 0.0
N203 N 0.49885 0.57421 0.95682 0.0
C204 C 0.46179 0.59662 0.97943 0.0
C205 C 0.35322 0.60048 0.97732 0.0
C206 C 0.60202 0.64329 0.50811 0.0
C207 C 0.66548 0.62502 0.53358 0.0
C208 C 0.49575 0.63889 0.50464 0.0
C209 C 0.44938 0.6163 0.52719 0.0
H210 H 0.6352 0.66029 0.48857 0.0
H211 H 0.44964 0.65322 0.48369 0.0
S212 S 0.5828 0.56368 0.60145 0.0
N213 N 0.67538 0.58423 0.58361 0.0
N214 N 0.47502 0.57641 0.57843 0.0
C215 C 0.51175 0.59861 0.55489 0.0
C216 C 0.62006 0.60285 0.55764 0.0
C217 C 0.48056 0.34073 0.50291 0.0
C218 C 0.52683 0.36338 0.52524 0.0
C219 C 0.37419 0.33645 0.50591 0.0
C220 C 0.31053 0.35494 0.53057 0.0
H221 H 0.52686 0.32625 0.48252 0.0
H222 H 0.34117 0.31935 0.48664 0.0
S223 S 0.39308 0.41649 0.59771 0.0
N224 N 0.50106 0.40352 0.57553 0.0
N225 N 0.30042 0.39599 0.57975 0.0
C226 C 0.35587 0.37719 0.55441 0.0
C227 C 0.46431 0.38127 0.55222 0.0
C228 C 0.00516 0.85599 0.96959 0.0
C229 C 0.95296 0.86282 0.01508 0.0
C230 C 0.11117 0.85038 0.97 0.0
C231 C 0.16795 0.85173 0.01582 0.0
H232 H 0.96361 0.85456 0.93366 0.0
H233 H 0.14946 0.84589 0.93413 0.0
S234 S 0.06801 0.86861 0.14498 0.0
N235 N 0.9665 0.87036 0.10704 0.0
N236 N 0.16501 0.86017 0.10754 0.0
C237 C 0.11654 0.85838 0.0614 0.0
C238 C 0.00925 0.86386 0.06111 0.0
C239 C 0.97353 0.11094 0.05718 0.0
C240 C 0.02997 0.11404 0.01163 0.0
C241 C 0.8681 0.11609 0.0586 0.0
C242 C 0.81541 0.12516 0.01487 0.0
H243 H 0.01116 0.10434 0.09207 0.0
H244 H 0.82707 0.11267 0.0942 0.0
S245 S 0.92782 0.1373 0.88642 0.0
N246 N 0.02599 0.12719 0.92176 0.0
N247 N 0.82662 0.13719 0.92477 0.0
C248 C 0.87076 0.12882 0.96921 0.0
C249 C 0.97835 0.12308 0.96746 0.0
C250 C 0.09569 0.13622 0.48274 0.0
C251 C 0.15445 0.12985 0.52606 0.0
C252 C -0.00959 0.13044 0.48105 0.0
C253 C 0.94019 0.11779 0.52249 0.0
H254 H 0.13215 0.14477 0.44918 0.0
H255 H 0.94855 0.13575 0.44659 0.0
S256 S 0.06311 0.09696 0.64476 0.0
N257 N 0.15758 0.11029 0.6111 0.0
N258 N 0.95916 0.09953 0.60862 0.0
C259 C -0.00134 0.11177 0.5665 0.0
C260 C 0.10596 0.11773 0.56805 0.0
C261 C 0.87614 0.86322 0.4708 0.0
C262 C 0.82471 0.85155 0.51265 0.0
C263 C 0.98164 0.86846 0.47256 0.0
C264 C 0.03974 0.8628 0.51669 0.0
H265 H 0.83398 0.86876 0.43653 0.0
H266 H 0.01775 0.87737 0.43925 0.0
S267 S 0.94296 0.83107 0.63592 0.0
N268 N 0.84024 0.83356 0.59885 0.0
N269 N 0.03935 0.84369 0.60253 0.0
C270 C -0.01013 0.85072 0.55863 0.0
C271 C 0.88224 0.84492 0.55645 0.0
C272 C 0.97179 0.50038 0.05343 0.0
C273 C 0.95889 0.51476 0.0076 0.0
C274 C -0.00375 0.47323 0.05273 0.0
C275 C 0.01209 0.45966 0.00622 0.0
H276 H 0.96213 0.51017 0.09016 0.0
H277 H 0.0032 0.46277 0.08895 0.0
S278 S -0.00924 0.48849 0.87562 0.0
N279 N 0.96468 0.51362 0.9144 0.0
N280 N 0.01378 0.4626 0.91312 0.0
C281 C 0.0012 0.47388 0.96007 0.0
C282 C 0.97358 0.50143 0.96076 0.0
C283 C 0.97564 0.47578 0.56685 0.0
C284 C 0.95783 0.4621 0.5206 0.0
C285 C 0.00519 0.50272 0.56674 0.0
C286 C 0.01585 0.51685 0.5204 0.0
H287 H 0.96936 0.46543 0.6032 0.0
H288 H 0.0173 0.5127 0.60309 0.0
S289 S 0.97645 0.49009 0.38923 0.0
N290 N 0.95313 0.46459 0.42752 0.0
N291 N 0.00578 0.51523 0.42733 0.0
C292 C -0.00275 0.50339 0.47407 0.0
C293 C 0.96897 0.47601 0.47416 0.0
C294 C 0.49941 0.97496 0.04575 0.0
C295 C 0.51889 0.96127 -0.00025 0.0
C296 C 0.47423 0.002 0.04572 0.0
C297 C 0.46482 0.01629 -0.00039 0.0
H298 H 0.50409 0.96468 0.08226 0.0
H299 H 0.46182 0.01182 0.08221 0.0
S300 S 0.5065 -0.01028 0.86861 0.0
N301 N 0.52717 0.96392 0.90671 0.0
N302 N 0.47726 0.01496 0.9066 0.0
C303 C 0.48294 0.00288 0.95316 0.0
C304 C 0.51098 0.97532 0.95325 0.0
C305 C 0.40772 0.00692 0.53925 0.0
C306 C 0.50805 0.01756 0.54131 0.0
C307 C 0.39071 0.97934 0.53927 0.0
C308 C 0.47366 0.96149 0.54 0.0
H309 H 0.3417 0.02005 0.53687 0.0
H310 H 0.31257 0.97199 0.5364 0.0
S311 S 0.75051 0.979 0.54902 0.0
N312 N 0.69076 0.00803 0.54756 0.0
N313 N 0.65929 0.95615 0.54605 0.0
C314 C 0.57412 0.97182 0.54375 0.0
C315 C 0.59124 -0.00012 0.54489 0.0
C316 C 0.2058 0.24862 0.98112 0.0
C317 C 0.1717 0.26029 0.02719 0.0
C318 C 0.27117 0.22626 0.98154 0.0
C319 C 0.30347 0.21468 0.02804 0.0
H320 H 0.18417 0.25725 0.94457 0.0
H321 H 0.29398 0.21752 0.9453 0.0
S322 S 0.23583 0.23769 0.15894 0.0
N323 N 0.17618 0.25873 0.12036 0.0
N324 N 0.2965 0.21653 0.1211 0.0
C325 C 0.2696 0.22616 0.0742 0.0
C326 C 0.2044 0.24898 0.07379 0.0
C327 C 0.70698 0.74946 0.97788 0.0
C328 C 0.67307 0.7612 0.02389 0.0
C329 C 0.76964 0.72658 0.97845 0.0
C330 C 0.79918 0.71455 0.02502 0.0
H331 H 0.68763 0.75848 0.94135 0.0
H332 H 0.79282 0.71786 0.94224 0.0
S333 S 0.72949 0.73751 0.15576 0.0
N334 N 0.67381 0.75919 0.117 0.0
N335 N 0.78898 0.71604 0.11809 0.0
C336 C 0.76487 0.72605 0.07111 0.0
C337 C 0.7025 0.74938 0.07053 0.0
C338 C 0.29191 0.71651 0.50919 0.0
C339 C 0.18368 0.71573 0.514 0.0
C340 C 0.34625 0.74066 0.51045 0.0
C341 C 0.29398 0.76493 0.51531 0.0
H342 H 0.33523 0.69825 0.50435 0.0
H343 H 0.42904 0.74038 0.50582 0.0
S344 S 0.01213 0.77389 0.53166 0.0
N345 N 0.02734 0.74132 0.52649 0.0
N346 N 0.12857 0.78684 0.52725 0.0
C347 C 0.18607 0.76444 0.52119 0.0
C348 C 0.1311 0.7398 0.52104 0.0
C349 C 0.68526 0.26247 0.50598 0.0
C350 C 0.79386 0.26324 0.50714 0.0
C351 C 0.63132 0.23828 0.50734 0.0
C352 C 0.68421 0.21397 0.50846 0.0
H353 H 0.64134 0.28081 0.5043 0.0
H354 H 0.54803 0.23859 0.50613 0.0
S355 S 0.96776 0.20493 0.51372 0.0
N356 N 0.95173 0.23756 0.51169 0.0
N357 N 0.85101 0.19196 0.51245 0.0
C358 C 0.79271 0.21442 0.51018 0.0
C359 C 0.84744 0.23908 0.51006 0.0
C360 C 0.9076 0.36222 0.2305 0.0
C361 C 0.00844 0.36195 0.2108 0.0
C362 C 0.88927 0.36182 0.28348 0.0
C363 C 0.97112 0.36169 0.31873 0.0
H364 H 0.84207 0.36244 0.2048 0.0
H365 H 0.81041 0.36207 0.29689 0.0
S366 S 0.24957 0.36082 0.28706 0.0
N367 N 0.19119 0.36126 0.2308 0.0
N368 N 0.15689 0.36096 0.33032 0.0
C369 C 0.07235 0.36146 0.29959 0.0
C370 C 0.09098 0.36145 0.24566 0.0
C371 C 0.06435 0.61466 0.23277 0.0
C372 C 0.96322 0.61564 0.21337 0.0
C373 C 0.08382 0.61601 0.28565 0.0
C374 C 0.00276 0.61784 0.3211 0.0
H375 H 0.12924 0.61305 0.2069 0.0
H376 H 0.16275 0.61503 0.29888 0.0
S377 S 0.72423 0.62154 0.29034 0.0
N378 N 0.78124 0.61913 0.23396 0.0
N379 N 0.81769 0.62117 0.33324 0.0
C380 C 0.90135 0.61895 0.30227 0.0
C381 C 0.88162 0.618 0.24845 0.0
C382 C 0.97326 0.64507 0.79292 0.0
C383 C 0.96016 0.62093 0.81953 0.0
C384 C -0.00324 0.64535 0.74044 0.0
C385 C 0.01078 0.62149 0.71305 0.0
H386 H 0.96438 0.66391 0.81269 0.0
H387 H 0.00514 0.66439 0.72132 0.0
S388 S 0.98672 0.55296 0.76527 0.0
N389 N 0.96312 0.57255 0.81473 0.0
N390 N 0.00952 0.57305 0.7164 0.0
C391 C -0.00116 0.5972 0.73934 0.0
C392 C 0.97279 0.59693 0.79249 0.0
C393 C 0.97458 0.37642 0.73799 0.0
C394 C 0.96245 0.35258 0.71031 0.0
C395 C -0.00067 0.37611 0.79031 0.0
C396 C 0.01057 0.35196 0.81711 0.0
H397 H 0.96672 0.39549 0.7189 0.0
H398 H 0.00786 0.39496 0.8101 0.0
S399 S 0.9852 0.28405 0.76243 0.0
N400 N 0.96365 0.30417 0.71344 0.0
N401 N 0.00753 0.30359 0.81216 0.0
C402 C -0.0023 0.32798 0.79001 0.0
C403 C 0.97444 0.32829 0.7365 0.0
C404 C 0.50021 0.88794 0.23865 0.0
C405 C 0.51914 0.86389 0.21269 0.0
C406 C 0.47983 0.88818 0.29146 0.0
C407 C 0.47397 0.86431 0.31948 0.0
H408 H 0.50233 0.9067 0.21809 0.0
H409 H 0.46708 0.90712 0.31036 0.0
S410 S 0.51579 0.79611 0.26921 0.0
N411 N 0.5315 0.81568 0.21885 0.0
N412 N 0.48889 0.81607 0.31776 0.0
C413 C 0.49151 0.84013 0.29388 0.0
C414 C 0.51531 0.83994 0.24051 0.0
C415 C 0.55836 0.11007 0.23515 0.0
C416 C 0.45789 0.11052 0.21504 0.0
C417 C 0.57577 0.11057 0.28819 0.0
C418 C 0.4933 0.11082 0.32301 0.0
H419 H 0.62422 0.10993 0.2097 0.0
H420 H 0.65439 0.11056 0.30202 0.0
S421 S 0.21557 0.11133 0.29 0.0
N422 N 0.27486 0.11103 0.23398 0.0
N423 N 0.30743 0.11119 0.33379 0.0
C424 C 0.39241 0.11075 0.30345 0.0
C425 C 0.37473 0.11084 0.24942 0.0
C426 C 0.56331 0.12459 0.80153 0.0
C427 C 0.46234 0.12671 0.82032 0.0
C428 C 0.58288 0.12459 0.74864 0.0
C429 C 0.50238 0.12764 0.71311 0.0
H430 H 0.62724 0.12228 0.82788 0.0
H431 H 0.66145 0.12237 0.73548 0.0
S432 S 0.22506 0.13496 0.74337 0.0
N433 N 0.2814 0.13208 0.79994 0.0
N434 N 0.31829 0.13335 0.70042 0.0
C435 C 0.40137 0.13045 0.7316 0.0
C436 C 0.38126 0.12963 0.78533 0.0
C437 C 0.48818 0.87668 0.73818 0.0
C438 C 0.47774 0.85267 0.71089 0.0
C439 C 0.51279 0.8767 0.79053 0.0
C440 C 0.52519 0.8527 0.81766 0.0
H441 H 0.47882 0.89562 0.71876 0.0
H442 H 0.51975 0.89564 0.81015 0.0
S443 S 0.50546 0.78449 0.76402 0.0
N444 N 0.48292 0.8043 0.71464 0.0
N445 N 0.52577 0.80433 0.81353 0.0
C446 C 0.51443 0.82856 0.79093 0.0
C447 C 0.49168 0.82855 0.73738 0.0
loop_
_geom_bond_atom_site_label_1
_geom_bond_atom_site_label_2
_geom_bond_distance
_geom_bond_site_symmetry_2
_ccdc_geom_bond_type
O0 Zn1 1.953 . S
O0 C16 1.225 1_556 S
Zn1 O0 1.953 . S
Zn1 O2 1.949 1_556 S
Zn1 O8 1.919 . S
Zn1 O13 1.924 . S
O2 Zn1 1.949 1_554 S
O2 Zn3 1.923 1_454 S
O2 Zn4 1.950 . S
O2 Zn5 1.945 1_455 S
Zn3 O2 1.923 1_656 S
Zn3 O6 1.933 1_556 S
Zn3 O9 1.941 1_655 S
Zn3 O10 1.965 1_656 S
Zn4 O2 1.950 . S
Zn4 O11 1.938 . S
Zn4 O12 1.906 . S
Zn4 O22 1.953 . S
Zn5 O2 1.945 1_655 S
Zn5 O7 1.932 . S
Zn5 O14 1.977 . S
Zn5 O15 1.910 . S
O6 Zn3 1.933 1_554 S
O6 C17 1.226 . S
O7 Zn5 1.932 . S
O7 C17 1.307 . S
O8 Zn1 1.919 . S
O8 C19 1.253 . S
O9 Zn3 1.941 1_455 S
O9 C19 1.283 . S
O10 Zn3 1.965 1_454 S
O10 C18 1.303 . S
O11 Zn4 1.938 . S
O11 C18 1.247 . S
O12 Zn4 1.906 . S
O12 C20 1.304 . S
O13 Zn1 1.924 . S
O13 C21 1.311 1_556 S
O14 Zn5 1.977 . S
O14 C20 1.272 1_655 S
O15 Zn5 1.910 . S
O15 C21 1.231 1_655 S
C16 O0 1.225 1_554 S
C16 O22 1.298 . S
C17 O6 1.226 . S
C17 O7 1.307 . S
C18 O10 1.303 . S
C18 O11 1.247 . S
C19 O8 1.253 . S
C19 O9 1.283 . S
C20 O12 1.304 . S
C20 O14 1.272 1_455 S
C21 O13 1.311 1_554 S
C21 O15 1.231 1_455 S
O22 Zn4 1.953 . S
O22 C16 1.298 . S
O23 Zn24 1.953 . S
O23 C39 1.225 1_556 S
Zn24 O23 1.953 . S
Zn24 O25 1.949 1_556 S
Zn24 O31 1.919 . S
Zn24 O36 1.924 . S
O25 Zn24 1.949 1_554 S
O25 Zn26 1.923 1_654 S
O25 Zn27 1.950 . S
O25 Zn28 1.945 1_655 S
Zn26 O25 1.923 1_456 S
Zn26 O29 1.933 1_556 S
Zn26 O32 1.941 1_455 S
Zn26 O33 1.965 1_456 S
Zn27 O25 1.950 . S
Zn27 O34 1.938 . S
Zn27 O35 1.906 . S
Zn27 O45 1.953 . S
Zn28 O25 1.945 1_455 S
Zn28 O30 1.932 . S
Zn28 O37 1.977 . S
Zn28 O38 1.910 . S
O29 Zn26 1.933 1_554 S
O29 C40 1.226 . S
O30 Zn28 1.932 . S
O30 C40 1.307 . S
O31 Zn24 1.919 . S
O31 C42 1.253 . S
O32 Zn26 1.941 1_655 S
O32 C42 1.283 . S
O33 Zn26 1.965 1_654 S
O33 C41 1.303 . S
O34 Zn27 1.938 . S
O34 C41 1.247 . S
O35 Zn27 1.906 . S
O35 C43 1.304 . S
O36 Zn24 1.924 . S
O36 C44 1.311 1_556 S
O37 Zn28 1.977 . S
O37 C43 1.272 1_455 S
O38 Zn28 1.910 . S
O38 C44 1.231 1_455 S
C39 O23 1.225 1_554 S
C39 O45 1.298 . S
C40 O29 1.226 . S
C40 O30 1.307 . S
C41 O33 1.303 . S
C41 O34 1.247 . S
C42 O31 1.253 . S
C42 O32 1.283 . S
C43 O35 1.304 . S
C43 O37 1.272 1_655 S
C44 O36 1.311 1_554 S
C44 O38 1.231 1_655 S
O45 Zn27 1.953 . S
O45 C39 1.298 . S
O46 Zn47 1.953 . S
O46 C62 1.225 . S
Zn47 O46 1.953 . S
Zn47 O48 1.949 . S
Zn47 O54 1.919 . S
Zn47 O59 1.924 . S
O48 Zn47 1.949 . S
O48 Zn49 1.923 1_455 S
O48 Zn50 1.950 . S
O48 Zn51 1.945 1_455 S
Zn49 O48 1.923 1_655 S
Zn49 O52 1.933 . S
Zn49 O55 1.941 1_655 S
Zn49 O56 1.965 1_655 S
Zn50 O48 1.950 . S
Zn50 O57 1.938 . S
Zn50 O58 1.906 . S
Zn50 O68 1.953 . S
Zn51 O48 1.945 1_655 S
Zn51 O53 1.932 . S
Zn51 O60 1.977 . S
Zn51 O61 1.910 . S
O52 Zn49 1.933 . S
O52 C63 1.226 . S
O53 Zn51 1.932 . S
O53 C63 1.307 . S
O54 Zn47 1.919 . S
O54 C65 1.253 . S
O55 Zn49 1.941 1_455 S
O55 C65 1.283 . S
O56 Zn49 1.965 1_455 S
O56 C64 1.303 . S
O57 Zn50 1.938 . S
O57 C64 1.247 . S
O58 Zn50 1.906 . S
O58 C66 1.304 . S
O59 Zn47 1.924 . S
O59 C67 1.311 . S
O60 Zn51 1.977 . S
O60 C66 1.272 1_655 S
O61 Zn51 1.910 . S
O61 C67 1.231 1_655 S
C62 O46 1.225 . S
C62 O68 1.298 . S
C63 O52 1.226 . S
C63 O53 1.307 . S
C64 O56 1.303 . S
C64 O57 1.247 . S
C65 O54 1.253 . S
C65 O55 1.283 . S
C66 O58 1.304 . S
C66 O60 1.272 1_455 S
C67 O59 1.311 . S
C67 O61 1.231 1_455 S
O68 Zn50 1.953 . S
O68 C62 1.298 . S
O69 Zn70 1.953 . S
O69 C85 1.225 . S
Zn70 O69 1.953 . S
Zn70 O71 1.949 . S
Zn70 O77 1.919 . S
Zn70 O82 1.924 . S
O71 Zn70 1.949 . S
O71 Zn72 1.923 1_655 S
O71 Zn73 1.950 . S
O71 Zn74 1.945 1_655 S
Zn72 O71 1.923 1_455 S
Zn72 O75 1.933 . S
Zn72 O78 1.941 1_455 S
Zn72 O79 1.965 1_455 S
Zn73 O71 1.950 . S
Zn73 O80 1.938 . S
Zn73 O81 1.906 . S
Zn73 O91 1.953 . S
Zn74 O71 1.945 1_455 S
Zn74 O76 1.932 . S
Zn74 O83 1.977 . S
Zn74 O84 1.910 . S
O75 Zn72 1.933 . S
O75 C86 1.226 . S
O76 Zn74 1.932 . S
O76 C86 1.307 . S
O77 Zn70 1.919 . S
O77 C88 1.253 . S
O78 Zn72 1.941 1_655 S
O78 C88 1.283 . S
O79 Zn72 1.965 1_655 S
O79 C87 1.303 . S
O80 Zn73 1.938 . S
O80 C87 1.247 . S
O81 Zn73 1.906 . S
O81 C89 1.304 . S
O82 Zn70 1.924 . S
O82 C90 1.311 . S
O83 Zn74 1.977 . S
O83 C89 1.272 1_455 S
O84 Zn74 1.910 . S
O84 C90 1.231 1_455 S
C85 O69 1.225 . S
C85 O91 1.298 . S
C86 O75 1.226 . S
C86 O76 1.307 . S
C87 O79 1.303 . S
C87 O80 1.247 . S
C88 O77 1.253 . S
C88 O78 1.283 . S
C89 O81 1.304 . S
C89 O83 1.272 1_655 S
C90 O82 1.311 . S
C90 O84 1.231 1_655 S
O91 Zn73 1.953 . S
O91 C85 1.298 . S
O92 Zn93 1.953 . S
O92 C108 1.225 1_556 S
Zn93 O92 1.953 . S
Zn93 O94 1.949 1_556 S
Zn93 O100 1.919 . S
Zn93 O105 1.924 . S
O94 Zn93 1.949 1_554 S
O94 Zn95 1.923 1_554 S
O94 Zn96 1.950 . S
O94 Zn97 1.945 . S
Zn95 O94 1.923 1_556 S
Zn95 O98 1.933 1_556 S
Zn95 O101 1.941 . S
Zn95 O102 1.965 1_556 S
Zn96 O94 1.950 . S
Zn96 O103 1.938 . S
Zn96 O104 1.906 . S
Zn96 O114 1.953 . S
Zn97 O94 1.945 . S
Zn97 O99 1.932 . S
Zn97 O106 1.977 . S
Zn97 O107 1.910 . S
O98 Zn95 1.933 1_554 S
O98 C109 1.226 . S
O99 Zn97 1.932 . S
O99 C109 1.307 . S
O100 Zn93 1.919 . S
O100 C111 1.253 . S
O101 Zn95 1.941 . S
O101 C111 1.283 . S
O102 Zn95 1.965 1_554 S
O102 C110 1.303 . S
O103 Zn96 1.938 . S
O103 C110 1.247 . S
O104 Zn96 1.906 . S
O104 C112 1.304 . S
O105 Zn93 1.924 . S
O105 C113 1.311 1_556 S
O106 Zn97 1.977 . S
O106 C112 1.272 . S
O107 Zn97 1.910 . S
O107 C113 1.231 . S
C108 O92 1.225 1_554 S
C108 O114 1.298 . S
C109 O98 1.226 . S
C109 O99 1.307 . S
C110 O102 1.303 . S
C110 O103 1.247 . S
C111 O100 1.253 . S
C111 O101 1.283 . S
C112 O104 1.304 . S
C112 O106 1.272 . S
C113 O105 1.311 1_554 S
C113 O107 1.231 . S
O114 Zn96 1.953 . S
O114 C108 1.298 . S
O115 Zn116 1.953 . S
O115 C131 1.225 1_556 S
Zn116 O115 1.953 . S
Zn116 O117 1.949 1_556 S
Zn116 O123 1.919 . S
Zn116 O128 1.924 . S
O117 Zn116 1.949 1_554 S
O117 Zn118 1.923 1_554 S
O117 Zn119 1.950 . S
O117 Zn120 1.945 . S
Zn118 O117 1.923 1_556 S
Zn118 O121 1.933 1_556 S
Zn118 O124 1.941 . S
Zn118 O125 1.965 1_556 S
Zn119 O117 1.950 . S
Zn119 O126 1.938 . S
Zn119 O127 1.906 . S
Zn119 O137 1.953 . S
Zn120 O117 1.945 . S
Zn120 O122 1.932 . S
Zn120 O129 1.977 . S
Zn120 O130 1.910 . S
O121 Zn118 1.933 1_554 S
O121 C132 1.226 . S
O122 Zn120 1.932 . S
O122 C132 1.307 . S
O123 Zn116 1.919 . S
O123 C134 1.253 . S
O124 Zn118 1.941 . S
O124 C134 1.283 . S
O125 Zn118 1.965 1_554 S
O125 C133 1.303 . S
O126 Zn119 1.938 . S
O126 C133 1.247 . S
O127 Zn119 1.906 . S
O127 C135 1.304 . S
O128 Zn116 1.924 . S
O128 C136 1.311 1_556 S
O129 Zn120 1.977 . S
O129 C135 1.272 . S
O130 Zn120 1.910 . S
O130 C136 1.231 . S
C131 O115 1.225 1_554 S
C131 O137 1.298 . S
C132 O121 1.226 . S
C132 O122 1.307 . S
C133 O125 1.303 . S
C133 O126 1.247 . S
C134 O123 1.253 . S
C134 O124 1.283 . S
C135 O127 1.304 . S
C135 O129 1.272 . S
C136 O128 1.311 1_554 S
C136 O130 1.231 . S
O137 Zn119 1.953 . S
O137 C131 1.298 . S
O138 Zn139 1.953 . S
O138 C154 1.225 . S
Zn139 O138 1.953 . S
Zn139 O140 1.949 . S
Zn139 O146 1.919 . S
Zn139 O151 1.924 . S
O140 Zn139 1.949 . S
O140 Zn141 1.923 . S
O140 Zn142 1.950 . S
O140 Zn143 1.945 . S
Zn141 O140 1.923 . S
Zn141 O144 1.933 . S
Zn141 O147 1.941 . S
Zn141 O148 1.965 . S
Zn142 O140 1.950 . S
Zn142 O149 1.938 . S
Zn142 O150 1.906 . S
Zn142 O160 1.953 . S
Zn143 O140 1.945 . S
Zn143 O145 1.932 . S
Zn143 O152 1.977 . S
Zn143 O153 1.910 . S
O144 Zn141 1.933 . S
O144 C155 1.226 . S
O145 Zn143 1.932 . S
O145 C155 1.307 . S
O146 Zn139 1.919 . S
O146 C157 1.253 . S
O147 Zn141 1.941 . S
O147 C157 1.283 . S
O148 Zn141 1.965 . S
O148 C156 1.303 . S
O149 Zn142 1.938 . S
O149 C156 1.247 . S
O150 Zn142 1.906 . S
O150 C158 1.304 . S
O151 Zn139 1.924 . S
O151 C159 1.311 . S
O152 Zn143 1.977 . S
O152 C158 1.272 . S
O153 Zn143 1.910 . S
O153 C159 1.231 . S
C154 O138 1.225 . S
C154 O160 1.298 . S
C155 O144 1.226 . S
C155 O145 1.307 . S
C156 O148 1.303 . S
C156 O149 1.247 . S
C157 O146 1.253 . S
C157 O147 1.283 . S
C158 O150 1.304 . S
C158 O152 1.272 . S
C159 O151 1.311 . S
C159 O153 1.231 . S
O160 Zn142 1.953 . S
O160 C154 1.298 . S
O161 Zn162 1.953 . S
O161 C177 1.225 . S
Zn162 O161 1.953 . S
Zn162 O163 1.949 . S
Zn162 O169 1.919 . S
Zn162 O174 1.924 . S
O163 Zn162 1.949 . S
O163 Zn164 1.923 . S
O163 Zn165 1.950 . S
O163 Zn166 1.945 . S
Zn164 O163 1.923 . S
Zn164 O167 1.933 . S
Zn164 O170 1.941 . S
Zn164 O171 1.965 . S
Zn165 O163 1.950 . S
Zn165 O172 1.938 . S
Zn165 O173 1.906 . S
Zn165 O183 1.953 . S
Zn166 O163 1.945 . S
Zn166 O168 1.932 . S
Zn166 O175 1.977 . S
Zn166 O176 1.910 . S
O167 Zn164 1.933 . S
O167 C178 1.226 . S
O168 Zn166 1.932 . S
O168 C178 1.307 . S
O169 Zn162 1.919 . S
O169 C180 1.253 . S
O170 Zn164 1.941 . S
O170 C180 1.283 . S
O171 Zn164 1.965 . S
O171 C179 1.303 . S
O172 Zn165 1.938 . S
O172 C179 1.247 . S
O173 Zn165 1.906 . S
O173 C181 1.304 . S
O174 Zn162 1.924 . S
O174 C182 1.311 . S
O175 Zn166 1.977 . S
O175 C181 1.272 . S
O176 Zn166 1.910 . S
O176 C182 1.231 . S
C177 O161 1.225 . S
C177 O183 1.298 . S
C178 O167 1.226 . S
C178 O168 1.307 . S
C179 O171 1.303 . S
C179 O172 1.247 . S
C180 O169 1.253 . S
C180 O170 1.283 . S
C181 O173 1.304 . S
C181 O175 1.272 . S
C182 O174 1.311 . S
C182 O176 1.231 . S
O183 Zn165 1.953 . S
O183 C177 1.298 . S
C184 C185 1.369 1_556 S
C184 C186 1.419 . S
C184 H188 0.930 . S
C185 C184 1.369 1_554 S
C185 C194 1.429 . S
C186 C184 1.419 . S
C186 C187 1.363 1_556 S
C186 H189 0.929 . S
C187 C186 1.363 1_554 S
C187 C193 1.428 . S
H188 C184 0.930 . S
H189 C186 0.929 . S
S190 N191 1.613 . S
S190 N192 1.610 . S
N191 S190 1.613 . S
N191 C194 1.350 . S
N192 S190 1.610 . S
N192 C193 1.351 . S
C193 C187 1.428 . S
C193 N192 1.351 . S
C193 C194 1.434 . S
C194 C185 1.429 . S
C194 N191 1.350 . S
C194 C193 1.434 . S
C195 C196 1.369 . S
C195 C197 1.419 . S
C195 H199 0.930 . S
C196 C195 1.369 . S
C196 C205 1.429 1_554 S
C197 C195 1.419 . S
C197 C198 1.363 . S
C197 H200 0.929 . S
C198 C197 1.363 . S
C198 C204 1.428 1_554 S
H199 C195 0.930 . S
H200 C197 0.929 . S
S201 N202 1.613 . S
S201 N203 1.610 . S
N202 S201 1.613 . S
N202 C205 1.350 . S
N203 S201 1.610 . S
N203 C204 1.351 . S
C204 C198 1.428 1_556 S
C204 N203 1.351 . S
C204 C205 1.434 . S
C205 C196 1.429 1_556 S
C205 N202 1.350 . S
C205 C204 1.434 . S
C206 C207 1.369 . S
C206 C208 1.419 . S
C206 H210 0.930 . S
C207 C206 1.369 . S
C207 C216 1.429 . S
C208 C206 1.419 . S
C208 C209 1.363 . S
C208 H211 0.929 . S
C209 C208 1.363 . S
C209 C215 1.428 . S
H210 C206 0.930 . S
H211 C208 0.929 . S
S212 N213 1.613 . S
S212 N214 1.610 . S
N213 S212 1.613 . S
N213 C216 1.350 . S
N214 S212 1.610 . S
N214 C215 1.351 . S
C215 C209 1.428 . S
C215 N214 1.351 . S
C215 C216 1.434 . S
C216 C207 1.429 . S
C216 N213 1.350 . S
C216 C215 1.434 . S
C217 C218 1.369 . S
C217 C219 1.419 . S
C217 H221 0.930 . S
C218 C217 1.369 . S
C218 C227 1.429 . S
C219 C217 1.419 . S
C219 C220 1.363 . S
C219 H222 0.929 . S
C220 C219 1.363 . S
C220 C226 1.428 . S
H221 C217 0.930 . S
H222 C219 0.929 . S
S223 N224 1.613 . S
S223 N225 1.610 . S
N224 S223 1.613 . S
N224 C227 1.350 . S
N225 S223 1.610 . S
N225 C226 1.351 . S
C226 C220 1.428 . S
C226 N225 1.351 . S
C226 C227 1.434 . S
C227 C218 1.429 . S
C227 N224 1.350 . S
C227 C226 1.434 . S
C228 C229 1.369 1_456 S
C228 C230 1.419 . S
C228 H232 0.930 1_455 S
C229 C228 1.369 1_654 S
C229 C238 1.429 . S
C230 C228 1.419 . S
C230 C231 1.363 1_556 S
C230 H233 0.929 . S
C231 C230 1.363 1_554 S
C231 C237 1.428 . S
H232 C228 0.930 1_655 S
H233 C230 0.929 . S
S234 N235 1.613 1_455 S
S234 N236 1.610 . S
N235 S234 1.613 1_655 S
N235 C238 1.350 . S
N236 S234 1.610 . S
N236 C237 1.351 . S
C237 C231 1.428 . S
C237 N236 1.351 . S
C237 C238 1.434 1_455 S
C238 C229 1.429 . S
C238 N235 1.350 . S
C238 C237 1.434 1_655 S
C239 C240 1.369 1_655 S
C239 C241 1.419 . S
C239 H243 0.931 . S
C240 C239 1.369 1_455 S
C240 C249 1.429 . S
C241 C239 1.419 . S
C241 C242 1.363 . S
C241 H244 0.929 . S
C242 C241 1.363 . S
C242 C248 1.428 . S
H243 C239 0.931 . S
H244 C241 0.929 . S
S245 N246 1.613 . S
S245 N247 1.610 1_455 S
N246 S245 1.613 . S
N246 C249 1.350 1_556 S
N247 S245 1.610 1_655 S
N247 C248 1.351 1_556 S
C248 C242 1.428 . S
C248 N247 1.351 1_554 S
C248 C249 1.434 1_655 S
C249 C240 1.429 . S
C249 N246 1.350 1_554 S
C249 C248 1.434 1_455 S
C250 C251 1.369 . S
C250 C252 1.419 1_455 S
C250 H254 0.930 . S
C251 C250 1.369 . S
C251 C260 1.429 . S
C252 C250 1.419 1_655 S
C252 C253 1.363 . S
C252 H255 0.929 . S
C253 C252 1.363 . S
C253 C259 1.428 1_655 S
H254 C250 0.930 . S
H255 C252 0.929 . S
S256 N257 1.613 . S
S256 N258 1.610 1_455 S
N257 S256 1.613 . S
N257 C260 1.350 . S
N258 S256 1.610 1_655 S
N258 C259 1.351 1_655 S
C259 C253 1.428 1_455 S
C259 N258 1.351 1_455 S
C259 C260 1.434 . S
C260 C251 1.429 . S
C260 N257 1.350 . S
C260 C259 1.434 . S
C261 C262 1.369 . S
C261 C263 1.419 1_655 S
C261 H265 0.930 . S
C262 C261 1.369 . S
C262 C271 1.429 . S
C263 C261 1.419 1_455 S
C263 C264 1.363 . S
C263 H266 0.929 . S
C264 C263 1.363 . S
C264 C270 1.428 1_455 S
H265 C261 0.930 . S
H266 C263 0.929 . S
S267 N268 1.613 . S
S267 N269 1.610 1_655 S
N268 S267 1.613 . S
N268 C271 1.350 . S
N269 S267 1.610 1_455 S
N269 C270 1.351 1_455 S
C270 C264 1.428 1_655 S
C270 N269 1.351 1_655 S
C270 C271 1.434 . S
C271 C262 1.429 . S
C271 N268 1.350 . S
C271 C270 1.434 . S
C272 C273 1.369 . S
C272 C274 1.419 1_655 S
C272 H276 0.930 . S
C273 C272 1.369 . S
C273 C282 1.429 1_554 S
C274 C272 1.419 1_455 S
C274 C275 1.363 . S
C274 H277 0.929 . S
C275 C274 1.363 . S
C275 C281 1.428 1_554 S
H276 C272 0.930 . S
H277 C274 0.929 . S
S278 N279 1.613 . S
S278 N280 1.610 1_655 S
N279 S278 1.613 . S
N279 C282 1.350 . S
N280 S278 1.610 1_455 S
N280 C281 1.351 . S
C281 C275 1.428 1_556 S
C281 N280 1.351 . S
C281 C282 1.434 1_455 S
C282 C273 1.429 1_556 S
C282 N279 1.350 . S
C282 C281 1.434 1_655 S
C283 C284 1.369 . S
C283 C285 1.419 1_655 S
C283 H287 0.930 . S
C284 C283 1.369 . S
C284 C293 1.429 . S
C285 C283 1.419 1_455 S
C285 C286 1.363 . S
C285 H288 0.929 . S
C286 C285 1.363 . S
C286 C292 1.428 . S
H287 C283 0.930 . S
H288 C285 0.929 . S
S289 N290 1.613 . S
S289 N291 1.610 1_655 S
N290 S289 1.613 . S
N290 C293 1.350 . S
N291 S289 1.610 1_455 S
N291 C292 1.351 . S
C292 C286 1.428 . S
C292 N291 1.351 . S
C292 C293 1.434 1_455 S
C293 C284 1.429 . S
C293 N290 1.350 . S
C293 C292 1.434 1_655 S
C294 C295 1.369 . S
C294 C296 1.419 1_565 S
C294 H298 0.930 . S
C295 C294 1.369 . S
C295 C304 1.429 1_554 S
C296 C294 1.419 1_545 S
C296 C297 1.363 . S
C296 H299 0.929 . S
C297 C296 1.363 . S
C297 C303 1.428 1_554 S
H298 C294 0.930 . S
H299 C296 0.929 . S
S300 N301 1.613 . S
S300 N302 1.610 1_565 S
N301 S300 1.613 . S
N301 C304 1.350 . S
N302 S300 1.610 1_545 S
N302 C303 1.351 . S
C303 C297 1.428 1_556 S
C303 N302 1.351 . S
C303 C304 1.434 1_545 S
C304 C295 1.429 1_556 S
C304 N301 1.350 . S
C304 C303 1.434 1_565 S
C305 C306 1.369 . S
C305 C307 1.419 1_545 S
C305 H309 0.930 . S
C306 C305 1.369 . S
C306 C315 1.429 . S
C307 C305 1.419 1_565 S
C307 C308 1.363 . S
C307 H310 0.929 . S
C308 C307 1.363 . S
C308 C314 1.428 . S
H309 C305 0.930 . S
H310 C307 0.929 . S
S311 N312 1.613 1_565 S
S311 N313 1.610 . S
N312 S311 1.613 1_545 S
N312 C315 1.350 . S
N313 S311 1.610 . S
N313 C314 1.351 . S
C314 C308 1.428 . S
C314 N313 1.351 . S
C314 C315 1.434 1_565 S
C315 C306 1.429 . S
C315 N312 1.350 . S
C315 C314 1.434 1_545 S
C316 C317 1.369 1_556 S
C316 C318 1.419 . S
C316 H320 0.930 . S
C317 C316 1.369 1_554 S
C317 C326 1.429 . S
C318 C316 1.419 . S
C318 C319 1.363 1_556 S
C318 H321 0.929 . S
C319 C318 1.363 1_554 S
C319 C325 1.428 . S
H320 C316 0.930 . S
H321 C318 0.929 . S
S322 N323 1.613 . S
S322 N324 1.610 . S
N323 S322 1.613 . S
N323 C326 1.350 . S
N324 S322 1.610 . S
N324 C325 1.351 . S
C325 C319 1.428 . S
C325 N324 1.351 . S
C325 C326 1.434 . S
C326 C317 1.429 . S
C326 N323 1.350 . S
C326 C325 1.434 . S
C327 C328 1.369 1_556 S
C327 C329 1.419 . S
C327 H331 0.930 . S
C328 C327 1.369 1_554 S
C328 C337 1.429 . S
C329 C327 1.419 . S
C329 C330 1.363 1_556 S
C329 H332 0.929 . S
C330 C329 1.363 1_554 S
C330 C336 1.428 . S
H331 C327 0.930 . S
H332 C329 0.929 . S
S333 N334 1.613 . S
S333 N335 1.610 . S
N334 S333 1.613 . S
N334 C337 1.350 . S
N335 S333 1.610 . S
N335 C336 1.351 . S
C336 C330 1.428 . S
C336 N335 1.351 . S
C336 C337 1.434 . S
C337 C328 1.429 . S
C337 N334 1.350 . S
C337 C336 1.434 . S
C338 C339 1.369 . S
C338 C340 1.419 . S
C338 H342 0.930 . S
C339 C338 1.369 . S
C339 C348 1.429 . S
C340 C338 1.419 . S
C340 C341 1.363 . S
C340 H343 0.929 . S
C341 C340 1.363 . S
C341 C347 1.428 . S
H342 C338 0.930 . S
H343 C340 0.929 . S
S344 N345 1.613 . S
S344 N346 1.610 . S
N345 S344 1.613 . S
N345 C348 1.350 . S
N346 S344 1.610 . S
N346 C347 1.351 . S
C347 C341 1.428 . S
C347 N346 1.351 . S
C347 C348 1.434 . S
C348 C339 1.429 . S
C348 N345 1.350 . S
C348 C347 1.434 . S
C349 C350 1.369 . S
C349 C351 1.419 . S
C349 H353 0.930 . S
C350 C349 1.369 . S
C350 C359 1.429 . S
C351 C349 1.419 . S
C351 C352 1.363 . S
C351 H354 0.929 . S
C352 C351 1.363 . S
C352 C358 1.428 . S
H353 C349 0.930 . S
H354 C351 0.929 . S
S355 N356 1.613 . S
S355 N357 1.610 . S
N356 S355 1.613 . S
N356 C359 1.350 . S
N357 S355 1.610 . S
N357 C358 1.351 . S
C358 C352 1.428 . S
C358 N357 1.351 . S
C358 C359 1.434 . S
C359 C350 1.429 . S
C359 N356 1.350 . S
C359 C358 1.434 . S
C360 C361 1.369 1_655 S
C360 C362 1.419 . S
C360 H364 0.930 . S
C361 C360 1.369 1_455 S
C361 C370 1.429 . S
C362 C360 1.419 . S
C362 C363 1.360 1_655 S
C362 H365 0.929 . S
C363 C362 1.360 1_455 S
C363 C369 1.431 . S
H364 C360 0.930 . S
H365 C362 0.929 . S
S366 N367 1.613 . S
S366 N368 1.610 . S
N367 S366 1.613 . S
N367 C370 1.350 . S
N368 S366 1.610 . S
N368 C369 1.351 . S
C369 C363 1.431 . S
C369 N368 1.351 . S
C369 C370 1.434 . S
C370 C361 1.429 . S
C370 N367 1.350 . S
C370 C369 1.434 . S
C371 C372 1.369 1_455 S
C371 C373 1.419 . S
C371 H375 0.930 . S
C372 C371 1.369 1_655 S
C372 C381 1.429 . S
C373 C371 1.419 . S
C373 C374 1.364 . S
C373 H376 0.929 . S
C374 C373 1.364 . S
C374 C380 1.428 1_455 S
H375 C371 0.930 . S
H376 C373 0.929 . S
S377 N378 1.613 . S
S377 N379 1.610 . S
N378 S377 1.613 . S
N378 C381 1.350 . S
N379 S377 1.610 . S
N379 C380 1.351 . S
C380 C374 1.428 1_655 S
C380 N379 1.351 . S
C380 C381 1.434 . S
C381 C372 1.429 . S
C381 N378 1.350 . S
C381 C380 1.434 . S
C382 C383 1.369 1_455 S
C382 C384 1.419 . S
C382 H386 0.930 . S
C383 C382 1.369 1_655 S
C383 C392 1.429 . S
C384 C382 1.419 . S
C384 C385 1.363 . S
C384 H387 0.929 . S
C385 C384 1.363 . S
C385 C391 1.428 1_455 S
H386 C382 0.930 . S
H387 C384 0.929 . S
S388 N389 1.613 . S
S388 N390 1.610 . S
N389 S388 1.613 . S
N389 C392 1.350 . S
N390 S388 1.610 . S
N390 C391 1.351 . S
C391 C385 1.428 1_655 S
C391 N390 1.351 . S
C391 C392 1.434 . S
C392 C383 1.429 . S
C392 N389 1.350 . S
C392 C391 1.434 . S
C393 C394 1.369 . S
C393 C395 1.419 . S
C393 H397 0.930 . S
C394 C393 1.369 . S
C394 C403 1.429 1_655 S
C395 C393 1.419 . S
C395 C396 1.363 1_655 S
C395 H398 0.929 . S
C396 C395 1.363 1_455 S
C396 C402 1.428 . S
H397 C393 0.930 . S
H398 C395 0.929 . S
S399 N400 1.613 . S
S399 N401 1.610 . S
N400 S399 1.613 . S
N400 C403 1.350 . S
N401 S399 1.610 . S
N401 C402 1.351 . S
C402 C396 1.428 . S
C402 N401 1.351 . S
C402 C403 1.434 . S
C403 C394 1.429 1_455 S
C403 N400 1.350 . S
C403 C402 1.434 . S
C404 C405 1.369 . S
C404 C406 1.419 . S
C404 H408 0.930 . S
C405 C404 1.369 . S
C405 C414 1.429 . S
C406 C404 1.419 . S
C406 C407 1.363 . S
C406 H409 0.929 . S
C407 C406 1.363 . S
C407 C413 1.428 . S
H408 C404 0.930 . S
H409 C406 0.929 . S
S410 N411 1.613 . S
S410 N412 1.610 . S
N411 S410 1.613 . S
N411 C414 1.350 . S
N412 S410 1.610 . S
N412 C413 1.351 . S
C413 C407 1.428 . S
C413 N412 1.351 . S
C413 C414 1.434 . S
C414 C405 1.429 . S
C414 N411 1.350 . S
C414 C413 1.434 . S
C415 C416 1.369 . S
C415 C417 1.419 . S
C415 H419 0.930 . S
C416 C415 1.369 . S
C416 C425 1.429 . S
C417 C415 1.419 . S
C417 C418 1.363 . S
C417 H420 0.929 . S
C418 C417 1.363 . S
C418 C424 1.428 . S
H419 C415 0.930 . S
H420 C417 0.929 . S
S421 N422 1.613 . S
S421 N423 1.610 . S
N422 S421 1.613 . S
N422 C425 1.350 . S
N423 S421 1.610 . S
N423 C424 1.351 . S
C424 C418 1.428 . S
C424 N423 1.351 . S
C424 C425 1.434 . S
C425 C416 1.429 . S
C425 N422 1.350 . S
C425 C424 1.434 . S
C426 C427 1.369 . S
C426 C428 1.419 . S
C426 H430 0.930 . S
C427 C426 1.369 . S
C427 C436 1.429 . S
C428 C426 1.419 . S
C428 C429 1.363 . S
C428 H431 0.929 . S
C429 C428 1.363 . S
C429 C435 1.428 . S
H430 C426 0.930 . S
H431 C428 0.929 . S
S432 N433 1.613 . S
S432 N434 1.610 . S
N433 S432 1.613 . S
N433 C436 1.350 . S
N434 S432 1.610 . S
N434 C435 1.351 . S
C435 C429 1.428 . S
C435 N434 1.351 . S
C435 C436 1.434 . S
C436 C427 1.429 . S
C436 N433 1.350 . S
C436 C435 1.434 . S
C437 C438 1.369 . S
C437 C439 1.419 . S
C437 H441 0.930 . S
C438 C437 1.369 . S
C438 C447 1.429 . S
C439 C437 1.419 . S
C439 C440 1.363 . S
C439 H442 0.929 . S
C440 C439 1.363 . S
C440 C446 1.428 . S
H441 C437 0.930 . S
H442 C439 0.929 . S
S443 N444 1.613 . S
S443 N445 1.610 . S
N444 S443 1.613 . S
N444 C447 1.350 . S
N445 S443 1.610 . S
N445 C446 1.351 . S
C446 C440 1.428 . S
C446 N445 1.351 . S
C446 C447 1.434 . S
C447 C438 1.429 . S
C447 N444 1.350 . S
C447 C446 1.434 . S
C185 C16 1.379 . S
C187 C17 1.385 . S
C196 C40 1.382 . S
C198 C39 1.382 . S
C207 C63 1.381 . S
C209 C62 1.382 . S
C218 C85 1.383 . S
C220 C86 1.382 . S
C229 C108 1.381 . S
C231 C109 1.384 . S
C240 C131 1.376 . S
C242 C132 1.387 . S
C251 C155 1.382 . S
C253 C154 1.381 . S
C262 C178 1.383 . S
C264 C177 1.381 . S
C273 C44 1.529 . S
C275 C21 1.524 . S
C284 C90 1.526 . S
C286 C67 1.529 . S
C295 C113 1.525 . S
C297 C136 1.527 . S
C306 C159 1.531 . S
C308 C182 1.525 . S
C317 C18 1.493 . S
C319 C133 1.493 . S
C328 C110 1.491 . S
C330 C41 1.492 . S
C339 C64 1.492 . S
C341 C179 1.492 . S
C350 C87 1.492 . S
C352 C156 1.492 . S
C361 C20 1.455 . S
C363 C89 1.459 1_455 S
C372 C43 1.459 . S
C374 C66 1.459 . S
C383 C42 1.448 . S
C385 C65 1.447 . S
C394 C88 1.447 . S
C396 C19 1.445 . S
C405 C112 1.460 . S
C407 C181 1.457 . S
C416 C135 1.458 . S
C418 C158 1.458 . S
C427 C134 1.443 . S
C429 C157 1.450 . S
C438 C180 1.443 . S
C440 C111 1.448 . S
