# Generated by pormake.
# Topology unw, (4)-cn, num edge types: 1
# Building blocks:
#     Node 0, Type 0, BuildingBlock: NAWXER_clean_sbu_0, # of connection points: 4
#     Node 1, Type 0, BuildingBlock: NAWXER_clean_sbu_0, # of connection points: 4
#     Node 2, Type 0, BuildingBlock: NAWXER_clean_sbu_0, # of connection points: 4
#     Node 3, Type 0, BuildingBlock: NAWXER_clean_sbu_0, # of connection points: 4
#     Node 4, Type 0, BuildingBlock: NAWXER_clean_sbu_0, # of connection points: 4
#     Node 5, Type 0, BuildingBlock: NAWXER_clean_sbu_0, # of connection points: 4
#     Node 6, Type 0, BuildingBlock: NAWXER_clean_sbu_0, # of connection points: 4
#     Node 7, Type 0, BuildingBlock: NAWXER_clean_sbu_0, # of connection points: 4
#     Node 8, Type 0, BuildingBlock: NAWXER_clean_sbu_0, # of connection points: 4
#     Node 9, Type 0, BuildingBlock: NAWXER_clean_sbu_0, # of connection points: 4
#     Node 10, Type 0, BuildingBlock: NAWXER_clean_sbu_0, # of connection points: 4
#     Node 11, Type 0, BuildingBlock: NAWXER_clean_sbu_0, # of connection points: 4
#     Node 12, Type 0, BuildingBlock: NAWXER_clean_sbu_0, # of connection points: 4
#     Node 13, Type 0, BuildingBlock: NAWXER_clean_sbu_0, # of connection points: 4
#     Node 14, Type 0, BuildingBlock: NAWXER_clean_sbu_0, # of connection points: 4
#     Node 15, Type 0, BuildingBlock: NAWXER_clean_sbu_0, # of connection points: 4
#     Node 16, Type 0, BuildingBlock: NAWXER_clean_sbu_0, # of connection points: 4
#     Node 17, Type 0, BuildingBlock: NAWXER_clean_sbu_0, # of connection points: 4
#     Node 18, Type 0, BuildingBlock: NAWXER_clean_sbu_0, # of connection points: 4
#     Node 19, Type 0, BuildingBlock: NAWXER_clean_sbu_0, # of connection points: 4
#     Node 20, Type 0, BuildingBlock: NAWXER_clean_sbu_0, # of connection points: 4
#     Node 21, Type 0, BuildingBlock: NAWXER_clean_sbu_0, # of connection points: 4
#     Node 22, Type 0, BuildingBlock: NAWXER_clean_sbu_0, # of connection points: 4
#     Node 23, Type 0, BuildingBlock: NAWXER_clean_sbu_0, # of connection points: 4
#     Edge 24, Type (0, 0), BuildingBlock: ZUJKAS_clean_linker_0, # of connection points: 2
#     Edge 25, Type (0, 0), BuildingBlock: ZUJKAS_clean_linker_0, # of connection points: 2
#     Edge 26, Type (0, 0), BuildingBlock: ZUJKAS_clean_linker_0, # of connection points: 2
#     Edge 27, Type (0, 0), BuildingBlock: ZUJKAS_clean_linker_0, # of connection points: 2
#     Edge 28, Type (0, 0), BuildingBlock: ZUJKAS_clean_linker_0, # of connection points: 2
#     Edge 29, Type (0, 0), BuildingBlock: ZUJKAS_clean_linker_0, # of connection points: 2
#     Edge 30, Type (0, 0), BuildingBlock: ZUJKAS_clean_linker_0, # of connection points: 2
#     Edge 31, Type (0, 0), BuildingBlock: ZUJKAS_clean_linker_0, # of connection points: 2
#     Edge 32, Type (0, 0), BuildingBlock: ZUJKAS_clean_linker_0, # of connection points: 2
#     Edge 33, Type (0, 0), BuildingBlock: ZUJKAS_clean_linker_0, # of connection points: 2
#     Edge 34, Type (0, 0), BuildingBlock: ZUJKAS_clean_linker_0, # of connection points: 2
#     Edge 35, Type (0, 0), BuildingBlock: ZUJKAS_clean_linker_0, # of connection points: 2
#     Edge 36, Type (0, 0), BuildingBlock: ZUJKAS_clean_linker_0, # of connection points: 2
#     Edge 37, Type (0, 0), BuildingBlock: ZUJKAS_clean_linker_0, # of connection points: 2
#     Edge 38, Type (0, 0), BuildingBlock: ZUJKAS_clean_linker_0, # of connection points: 2
#     Edge 39, Type (0, 0), BuildingBlock: ZUJKAS_clean_linker_0, # of connection points: 2
#     Edge 40, Type (0, 0), BuildingBlock: ZUJKAS_clean_linker_0, # of connection points: 2
#     Edge 41, Type (0, 0), BuildingBlock: ZUJKAS_clean_linker_0, # of connection points: 2
#     Edge 42, Type (0, 0), BuildingBlock: ZUJKAS_clean_linker_0, # of connection points: 2
#     Edge 43, Type (0, 0), BuildingBlock: ZUJKAS_clean_linker_0, # of connection points: 2
#     Edge 44, Type (0, 0), BuildingBlock: ZUJKAS_clean_linker_0, # of connection points: 2
#     Edge 45, Type (0, 0), BuildingBlock: ZUJKAS_clean_linker_0, # of connection points: 2
#     Edge 46, Type (0, 0), BuildingBlock: ZUJKAS_clean_linker_0, # of connection points: 2
#     Edge 47, Type (0, 0), BuildingBlock: ZUJKAS_clean_linker_0, # of connection points: 2
#     Edge 48, Type (0, 0), BuildingBlock: ZUJKAS_clean_linker_0, # of connection points: 2
#     Edge 49, Type (0, 0), BuildingBlock: ZUJKAS_clean_linker_0, # of connection points: 2
#     Edge 50, Type (0, 0), BuildingBlock: ZUJKAS_clean_linker_0, # of connection points: 2
#     Edge 51, Type (0, 0), BuildingBlock: ZUJKAS_clean_linker_0, # of connection points: 2
#     Edge 52, Type (0, 0), BuildingBlock: ZUJKAS_clean_linker_0, # of connection points: 2
#     Edge 53, Type (0, 0), BuildingBlock: ZUJKAS_clean_linker_0, # of connection points: 2
#     Edge 54, Type (0, 0), BuildingBlock: ZUJKAS_clean_linker_0, # of connection points: 2
#     Edge 55, Type (0, 0), BuildingBlock: ZUJKAS_clean_linker_0, # of connection points: 2
#     Edge 56, Type (0, 0), BuildingBlock: ZUJKAS_clean_linker_0, # of connection points: 2
#     Edge 57, Type (0, 0), BuildingBlock: ZUJKAS_clean_linker_0, # of connection points: 2
#     Edge 58, Type (0, 0), BuildingBlock: ZUJKAS_clean_linker_0, # of connection points: 2
#     Edge 59, Type (0, 0), BuildingBlock: ZUJKAS_clean_linker_0, # of connection points: 2
#     Edge 60, Type (0, 0), BuildingBlock: ZUJKAS_clean_linker_0, # of connection points: 2
#     Edge 61, Type (0, 0), BuildingBlock: ZUJKAS_clean_linker_0, # of connection points: 2
#     Edge 62, Type (0, 0), BuildingBlock: ZUJKAS_clean_linker_0, # of connection points: 2
#     Edge 63, Type (0, 0), BuildingBlock: ZUJKAS_clean_linker_0, # of connection points: 2
#     Edge 64, Type (0, 0), BuildingBlock: ZUJKAS_clean_linker_0, # of connection points: 2
#     Edge 65, Type (0, 0), BuildingBlock: ZUJKAS_clean_linker_0, # of connection points: 2
#     Edge 66, Type (0, 0), BuildingBlock: ZUJKAS_clean_linker_0, # of connection points: 2
#     Edge 67, Type (0, 0), BuildingBlock: ZUJKAS_clean_linker_0, # of connection points: 2
#     Edge 68, Type (0, 0), BuildingBlock: ZUJKAS_clean_linker_0, # of connection points: 2
#     Edge 69, Type (0, 0), BuildingBlock: ZUJKAS_clean_linker_0, # of connection points: 2
#     Edge 70, Type (0, 0), BuildingBlock: ZUJKAS_clean_linker_0, # of connection points: 2
#     Edge 71, Type (0, 0), BuildingBlock: ZUJKAS_clean_linker_0, # of connection points: 2
# Relax obj value: 0.404
# Max RMSD: 0.268
# Mean RMSD: 0.268
data_MOF--net-unw--node1-NAWXER_clean_sbu_0--edge1-ZUJKAS_clean_linker_0
_symmetry_space_group_name_H-M    P1
_symmetry_Int_Tables_number       1
_symmetry_cell_setting            triclinic
loop_
_symmetry_equiv_pos_as_xyz
'x, y, z'
_cell_length_a     60.447523
_cell_length_b     60.390701
_cell_length_c     60.558907
_cell_angle_alpha  89.916395
_cell_angle_beta   89.961757
_cell_angle_gamma 89.929821
loop_
_atom_site_label
_atom_site_type_symbol
_atom_site_fract_x
_atom_site_fract_y
_atom_site_fract_z
_atom_type_partial_charge
C0 C 0.18667 0.3886 0.2605 0.0
C1 C 0.11069 0.3914 0.28913 0.0
O2 O 0.17168 0.38351 0.24654 0.0
Zn3 Zn 0.13673 0.38054 0.24408 0.0
O4 O 0.18124 0.39524 0.27974 0.0
Zn5 Zn 0.14914 0.39337 0.27479 0.0
O6 O 0.14771 0.35826 0.2722 0.0
O7 O 0.13626 0.34844 0.23896 0.0
O8 O 0.12805 0.39865 0.2985 0.0
O9 O 0.1118 0.38477 0.26903 0.0
O10 O 0.1306 0.4014 0.2204 0.0
O11 O 0.14381 0.41819 0.2499 0.0
C12 C 0.14323 0.34317 0.25812 0.0
C13 C 0.13715 0.41904 0.22979 0.0
C14 C 0.64242 0.19053 0.26767 0.0
C15 C 0.64074 0.1134 0.29348 0.0
O16 O 0.6475 0.17612 0.25309 0.0
Zn17 Zn 0.65077 0.14131 0.24929 0.0
O18 O 0.63588 0.18433 0.28672 0.0
Zn19 Zn 0.63791 0.15241 0.28053 0.0
O20 O 0.673 0.15156 0.27764 0.0
O21 O 0.68282 0.14167 0.24387 0.0
O22 O 0.63288 0.13024 0.30336 0.0
O23 O 0.64742 0.11542 0.27345 0.0
O24 O 0.62965 0.13584 0.22561 0.0
O25 O 0.61305 0.14798 0.25568 0.0
C26 C 0.68807 0.14798 0.26325 0.0
C27 C 0.61206 0.14201 0.23538 0.0
C28 C 0.91563 0.64215 0.29821 0.0
C29 C 0.83806 0.64187 0.27457 0.0
O30 O 0.91306 0.64869 0.27818 0.0
Zn31 Zn 0.88654 0.65081 0.2546 0.0
O32 O 0.89927 0.63372 0.30838 0.0
Zn33 Zn 0.87649 0.63803 0.28611 0.0
O34 O 0.8804 0.61293 0.26132 0.0
O35 O 0.89188 0.62954 0.231 0.0
O36 O 0.84493 0.63556 0.29347 0.0
O37 O 0.85189 0.64696 0.25944 0.0
O38 O 0.88491 0.68273 0.24859 0.0
O39 O 0.87609 0.67322 0.28277 0.0
C40 C 0.88595 0.61193 0.24088 0.0
C41 C 0.87873 0.68812 0.26799 0.0
C42 C 0.36472 0.8627 0.29838 0.0
C43 C 0.42782 0.87859 0.25157 0.0
O44 O 0.38496 0.85769 0.30099 0.0
Zn45 Zn 0.39564 0.8742 0.27651 0.0
O46 O 0.35907 0.87588 0.28257 0.0
Zn47 Zn 0.3771 0.89328 0.25555 0.0
O48 O 0.36062 0.88313 0.23095 0.0
O49 O 0.37807 0.8567 0.24934 0.0
O50 O 0.41046 0.88769 0.24343 0.0
O51 O 0.42682 0.87042 0.27079 0.0
O52 O 0.39043 0.90763 0.28878 0.0
O53 O 0.37383 0.92445 0.26128 0.0
C54 C 0.36515 0.86275 0.23349 0.0
C55 C 0.38173 0.9252 0.28059 0.0
C56 C 0.1435 0.68849 0.76556 0.0
C57 C 0.1425 0.61194 0.79347 0.0
O58 O 0.1487 0.67361 0.7515 0.0
Zn59 Zn 0.15238 0.63878 0.74868 0.0
O60 O 0.13742 0.68296 0.78498 0.0
Zn61 Zn 0.13973 0.65082 0.7798 0.0
O62 O 0.17477 0.65004 0.77671 0.0
O63 O 0.18445 0.63919 0.7432 0.0
O64 O 0.13476 0.62898 0.80311 0.0
O65 O 0.1491 0.61361 0.77339 0.0
O66 O 0.13096 0.63248 0.72537 0.0
O67 O 0.11484 0.64595 0.75511 0.0
C68 C 0.18978 0.64607 0.76237 0.0
C69 C 0.11356 0.63936 0.73502 0.0
C70 C 0.34368 0.15021 0.76816 0.0
C71 C 0.41854 0.14053 0.79849 0.0
O72 O 0.35937 0.1532 0.75431 0.0
Zn73 Zn 0.39454 0.15238 0.75258 0.0
O74 O 0.34801 0.14347 0.78765 0.0
Zn75 Zn 0.38024 0.14155 0.78344 0.0
O76 O 0.3854 0.17604 0.78004 0.0
O77 O 0.39841 0.18431 0.7469 0.0
O78 O 0.40045 0.13504 0.80776 0.0
O79 O 0.41834 0.1466 0.77818 0.0
O80 O 0.39938 0.13002 0.72986 0.0
O81 O 0.38346 0.11575 0.75936 0.0
C82 C 0.39175 0.19043 0.76593 0.0
C83 C 0.39067 0.11348 0.73955 0.0
C84 C 0.88568 0.34182 0.76758 0.0
C85 C 0.88898 0.41893 0.79276 0.0
O86 O 0.88127 0.35627 0.75279 0.0
Zn87 Zn 0.8789 0.39115 0.74873 0.0
O88 O 0.89223 0.34791 0.78664 0.0
Zn89 Zn 0.89125 0.37979 0.78013 0.0
O90 O 0.85624 0.38124 0.77696 0.0
O91 O 0.84687 0.39118 0.74306 0.0
O92 O 0.89659 0.40205 0.80281 0.0
O93 O 0.88236 0.4169 0.77275 0.0
O94 O 0.90049 0.39644 0.72534 0.0
O95 O 0.91634 0.38325 0.75535 0.0
C96 C 0.84136 0.38493 0.76242 0.0
C97 C 0.91776 0.38944 0.73512 0.0
C98 C 0.64543 0.91959 0.73287 0.0
C99 C 0.64916 0.84214 0.7569 0.0
O100 O 0.65157 0.91749 0.75305 0.0
Zn101 Zn 0.6542 0.89125 0.77693 0.0
O102 O 0.63822 0.90271 0.72264 0.0
Zn103 Zn 0.64324 0.88029 0.74521 0.0
O104 O 0.61714 0.88262 0.76921 0.0
O105 O 0.63188 0.89601 0.79962 0.0
O106 O 0.6431 0.84869 0.7378 0.0
O107 O 0.65259 0.85623 0.77225 0.0
O108 O 0.68576 0.89133 0.7843 0.0
O109 O 0.67823 0.88186 0.74985 0.0
C110 C 0.61506 0.88864 0.78943 0.0
C111 C 0.6923 0.88522 0.76523 0.0
C112 C 0.26643 0.19437 0.38117 0.0
C113 C 0.29301 0.11775 0.38492 0.0
O114 O 0.25162 0.17969 0.37769 0.0
Zn115 Zn 0.24806 0.14467 0.37612 0.0
O116 O 0.28588 0.18857 0.38695 0.0
Zn117 Zn 0.27977 0.15668 0.38673 0.0
O118 O 0.27504 0.15469 0.35199 0.0
O119 O 0.24093 0.14391 0.34448 0.0
O120 O 0.30321 0.13502 0.39122 0.0
O121 O 0.27259 0.11923 0.37936 0.0
O122 O 0.2256 0.1394 0.39853 0.0
O123 O 0.25605 0.15321 0.41297 0.0
C124 C 0.25987 0.15048 0.33793 0.0
C125 C 0.23594 0.14677 0.41526 0.0
C126 C 0.91774 0.29752 0.38884 0.0
C127 C 0.84202 0.26883 0.38315 0.0
O128 O 0.91695 0.27707 0.38319 0.0
Zn129 Zn 0.89236 0.25187 0.37913 0.0
O130 O 0.90006 0.30725 0.39482 0.0
Zn131 Zn 0.87918 0.28325 0.38968 0.0
O132 O 0.88269 0.25945 0.41585 0.0
O133 O 0.89762 0.22938 0.40163 0.0
O134 O 0.84709 0.28841 0.38917 0.0
O135 O 0.85722 0.25447 0.37985 0.0
O136 O 0.89449 0.24519 0.3474 0.0
O137 O 0.88254 0.27893 0.35505 0.0
C138 C 0.88959 0.23948 0.41822 0.0
C139 C 0.88777 0.26414 0.34091 0.0
C140 C 0.79266 0.88961 0.41905 0.0
C141 C 0.76492 0.8834 0.3432 0.0
O142 O 0.77234 0.88359 0.41801 0.0
Zn143 Zn 0.74734 0.87963 0.39322 0.0
O144 O 0.80233 0.89612 0.40155 0.0
Zn145 Zn 0.77871 0.8904 0.38042 0.0
O146 O 0.75476 0.91649 0.38329 0.0
O147 O 0.7247 0.90215 0.39805 0.0
O148 O 0.78434 0.88967 0.34849 0.0
O149 O 0.75039 0.88008 0.35819 0.0
O150 O 0.74068 0.84786 0.39548 0.0
O151 O 0.77457 0.85556 0.38403 0.0
C152 C 0.73473 0.91878 0.38994 0.0
C153 C 0.75975 0.84137 0.38915 0.0
C154 C 0.18828 0.75489 0.4055 0.0
C155 C 0.10993 0.735 0.39868 0.0
O156 O 0.17602 0.77036 0.39782 0.0
Zn157 Zn 0.14199 0.77658 0.39018 0.0
O158 O 0.17975 0.73667 0.41183 0.0
Zn159 Zn 0.14922 0.74536 0.40532 0.0
O160 O 0.15265 0.74671 0.37019 0.0
O161 O 0.14601 0.78073 0.35836 0.0
O162 O 0.12496 0.72445 0.40895 0.0
O163 O 0.11416 0.75449 0.39134 0.0
O164 O 0.13553 0.80166 0.4094 0.0
O165 O 0.14453 0.77188 0.42842 0.0
C166 C 0.1516 0.76077 0.35439 0.0
C167 C 0.13977 0.79259 0.42789 0.0
C168 C 0.26295 0.84508 0.64826 0.0
C169 C 0.29277 0.92081 0.64562 0.0
O170 O 0.24922 0.86041 0.65321 0.0
Zn171 Zn 0.24726 0.8954 0.65617 0.0
O172 O 0.28248 0.85002 0.64199 0.0
Zn173 Zn 0.2781 0.88231 0.64365 0.0
O174 O 0.2752 0.88395 0.67854 0.0
O175 O 0.24198 0.89588 0.68825 0.0
O176 O 0.30199 0.90338 0.63821 0.0
O177 O 0.27263 0.91981 0.65225 0.0
O178 O 0.22399 0.90198 0.63473 0.0
O179 O 0.25341 0.88743 0.61886 0.0
C180 C 0.2611 0.88868 0.69356 0.0
C181 C 0.23345 0.89454 0.61748 0.0
C182 C 0.14347 0.23953 0.61177 0.0
C183 C 0.14742 0.26553 0.68839 0.0
O184 O 0.14973 0.25975 0.61352 0.0
Zn185 Zn 0.15303 0.28415 0.63894 0.0
O186 O 0.13627 0.2295 0.62879 0.0
Zn187 Zn 0.14148 0.25255 0.6507 0.0
O188 O 0.11584 0.27688 0.64744 0.0
O189 O 0.13091 0.30713 0.63374 0.0
O190 O 0.14113 0.24626 0.68255 0.0
O191 O 0.15128 0.28034 0.67381 0.0
O192 O 0.18492 0.29049 0.63839 0.0
O193 O 0.1764 0.25641 0.64874 0.0
C194 C 0.11394 0.29708 0.64108 0.0
C195 C 0.19091 0.27125 0.64472 0.0
C196 C 0.76538 0.14712 0.68905 0.0
C197 C 0.79454 0.14555 0.61319 0.0
O198 O 0.75148 0.15211 0.67395 0.0
Zn199 Zn 0.74917 0.1554 0.63916 0.0
O200 O 0.78493 0.14104 0.68387 0.0
Zn201 Zn 0.7803 0.14299 0.65171 0.0
O202 O 0.77705 0.17797 0.65032 0.0
O203 O 0.74362 0.18754 0.63893 0.0
O204 O 0.80406 0.13803 0.63038 0.0
O205 O 0.77434 0.15196 0.61451 0.0
O206 O 0.72609 0.13375 0.63268 0.0
O207 O 0.7559 0.11789 0.64646 0.0
C208 C 0.76278 0.19296 0.64587 0.0
C209 C 0.73589 0.11641 0.6396 0.0
C210 C 0.88779 0.76936 0.68853 0.0
C211 C 0.8896 0.79385 0.6114 0.0
O212 O 0.88341 0.75416 0.67452 0.0
Zn213 Zn 0.88071 0.74967 0.63964 0.0
O214 O 0.89392 0.78844 0.68191 0.0
Zn215 Zn 0.89253 0.78124 0.65042 0.0
O216 O 0.85739 0.77735 0.64953 0.0
O217 O 0.84897 0.74303 0.63998 0.0
O218 O 0.89742 0.80391 0.62808 0.0
O219 O 0.88321 0.7737 0.61356 0.0
O220 O 0.9025 0.7265 0.63422 0.0
O221 O 0.9181 0.75669 0.64727 0.0
C222 C 0.84293 0.76229 0.64615 0.0
C223 C 0.91968 0.7364 0.64119 0.0
C224 C 0.38343 0.27027 0.18845 0.0
C225 C 0.38779 0.29537 0.11144 0.0
O226 O 0.37943 0.25531 0.1741 0.0
Zn227 Zn 0.37775 0.25111 0.13926 0.0
O228 O 0.39005 0.28934 0.18227 0.0
Zn229 Zn 0.38967 0.28263 0.15051 0.0
O230 O 0.35463 0.2791 0.14866 0.0
O231 O 0.34588 0.24496 0.13876 0.0
O232 O 0.39513 0.30541 0.12836 0.0
O233 O 0.38129 0.27524 0.11339 0.0
O234 O 0.39944 0.22772 0.1346 0.0
O235 O 0.41513 0.25801 0.14739 0.0
C236 C 0.34002 0.2643 0.14486 0.0
C237 C 0.41663 0.23767 0.14147 0.0
C238 C 0.34343 0.76768 0.88158 0.0
C239 C 0.42034 0.79355 0.88441 0.0
O240 O 0.35795 0.75297 0.87704 0.0
Zn241 Zn 0.39285 0.74919 0.87447 0.0
O242 O 0.34942 0.78683 0.88809 0.0
Zn243 Zn 0.38133 0.78053 0.88694 0.0
O244 O 0.38259 0.77741 0.852 0.0
O245 O 0.39276 0.74352 0.84253 0.0
O246 O 0.40345 0.80343 0.89218 0.0
O247 O 0.41843 0.77347 0.87778 0.0
O248 O 0.39839 0.7257 0.8959 0.0
O249 O 0.38495 0.75559 0.91186 0.0
C250 C 0.38633 0.76291 0.83711 0.0
C251 C 0.39126 0.73534 0.91316 0.0
C252 C 0.23799 0.41754 0.88691 0.0
C253 C 0.26775 0.34173 0.88361 0.0
O254 O 0.25821 0.41653 0.88052 0.0
Zn255 Zn 0.28357 0.39207 0.87654 0.0
O256 O 0.2286 0.40005 0.89395 0.0
Zn257 Zn 0.25252 0.37895 0.88855 0.0
O258 O 0.27685 0.38375 0.91373 0.0
O259 O 0.30658 0.3982 0.89837 0.0
O260 O 0.24815 0.34663 0.88974 0.0
O261 O 0.28153 0.35709 0.87901 0.0
O262 O 0.28913 0.39306 0.84449 0.0
O263 O 0.25579 0.38117 0.85372 0.0
C264 C 0.29681 0.39074 0.91545 0.0
C265 C 0.27003 0.38607 0.8389 0.0
C266 C 0.68977 0.2616 0.88423 0.0
C267 C 0.61388 0.23347 0.89267 0.0
O268 O 0.67451 0.27576 0.88045 0.0
Zn269 Zn 0.63951 0.27854 0.88027 0.0
O270 O 0.68478 0.24233 0.89126 0.0
Zn271 Zn 0.65258 0.24737 0.89211 0.0
O272 O 0.64834 0.25012 0.85752 0.0
O273 O 0.63659 0.28354 0.84821 0.0
O274 O 0.6316 0.22371 0.89856 0.0
O275 O 0.61479 0.25372 0.88623 0.0
O276 O 0.63514 0.30207 0.90186 0.0
O277 O 0.649 0.27202 0.91732 0.0
C278 C 0.6428 0.26412 0.84269 0.0
C279 C 0.6426 0.29223 0.9189 0.0
C280 C 0.77148 0.69335 0.87813 0.0
C281 C 0.79559 0.61608 0.88381 0.0
O282 O 0.75614 0.67922 0.87465 0.0
Zn283 Zn 0.7515 0.64417 0.87384 0.0
O284 O 0.79045 0.6869 0.88472 0.0
Zn285 Zn 0.78319 0.6553 0.8851 0.0
O286 O 0.77917 0.65271 0.85024 0.0
O287 O 0.74483 0.64303 0.84216 0.0
O288 O 0.80582 0.63307 0.8908 0.0
O289 O 0.77544 0.61809 0.87746 0.0
O290 O 0.7285 0.63972 0.89592 0.0
O291 O 0.7589 0.65305 0.91082 0.0
C292 C 0.76416 0.64876 0.83593 0.0
C293 C 0.73864 0.64706 0.91277 0.0
C294 C 0.69524 0.76302 0.1458 0.0
C295 C 0.6194 0.79225 0.14313 0.0
O296 O 0.68003 0.74874 0.1492 0.0
Zn297 Zn 0.64501 0.74633 0.15103 0.0
O298 O 0.69014 0.7828 0.14041 0.0
Zn299 Zn 0.65798 0.77801 0.14081 0.0
O300 O 0.65598 0.77276 0.17536 0.0
O301 O 0.644 0.73896 0.1827 0.0
O302 O 0.63691 0.80222 0.13704 0.0
O303 O 0.6204 0.77164 0.1482 0.0
O304 O 0.63904 0.72447 0.12821 0.0
O305 O 0.65346 0.75496 0.11428 0.0
C306 C 0.65119 0.75765 0.18932 0.0
C307 C 0.6465 0.73507 0.11163 0.0
C308 C 0.25604 0.65255 0.17502 0.0
C309 C 0.28764 0.6416 0.10128 0.0
O310 O 0.24217 0.65472 0.1592 0.0
Zn311 Zn 0.24076 0.65236 0.12406 0.0
O312 O 0.27572 0.64616 0.17091 0.0
Zn313 Zn 0.27166 0.64348 0.13893 0.0
O314 O 0.26674 0.67796 0.13218 0.0
O315 O 0.23329 0.68333 0.11825 0.0
O316 O 0.29655 0.63676 0.11968 0.0
O317 O 0.26712 0.64706 0.10083 0.0
O318 O 0.21886 0.62919 0.11994 0.0
O319 O 0.24874 0.61643 0.13646 0.0
C320 C 0.25178 0.69101 0.12479 0.0
C321 C 0.22905 0.61328 0.12921 0.0
C322 C 0.73642 0.38573 0.11541 0.0
C323 C 0.76178 0.38189 0.19233 0.0
O324 O 0.75676 0.37988 0.11722 0.0
Zn325 Zn 0.78087 0.37642 0.14308 0.0
O326 O 0.72609 0.39242 0.13245 0.0
Zn327 Zn 0.74909 0.38777 0.15446 0.0
O328 O 0.77314 0.41374 0.15107 0.0
O329 O 0.80383 0.39855 0.1385 0.0
O330 O 0.74254 0.38811 0.1863 0.0
O331 O 0.77672 0.3781 0.17789 0.0
O332 O 0.78747 0.34451 0.14259 0.0
O333 O 0.7533 0.35287 0.15263 0.0
C334 C 0.79347 0.41559 0.14523 0.0
C335 C 0.76825 0.33841 0.14878 0.0
H336 H 0.18444 0.60582 0.1321 0.0
H337 H 0.166 0.57291 0.14693 0.0
H338 H 0.22906 0.53985 0.15228 0.0
H339 H 0.24764 0.57305 0.13847 0.0
H340 H 0.16129 0.53075 0.1366 0.0
H341 H 0.20861 0.53528 0.2146 0.0
H342 H 0.20982 0.55682 0.19402 0.0
H343 H 0.22648 0.53222 0.19119 0.0
C344 C 0.19435 0.59143 0.13617 0.0
C345 C 0.21755 0.59215 0.13433 0.0
C346 C 0.18378 0.57261 0.14471 0.0
C347 C 0.19615 0.55405 0.1514 0.0
C348 C 0.21917 0.55419 0.14803 0.0
H349 H 0.14388 0.42357 0.18534 0.0
H350 H 0.1562 0.45673 0.16571 0.0
C351 C 0.22978 0.57313 0.1399 0.0
C352 C 0.18514 0.53496 0.16265 0.0
H353 H 0.18762 0.50257 0.20889 0.0
C354 C 0.16697 0.52466 0.15247 0.0
C355 C 0.19211 0.52725 0.18365 0.0
C356 C 0.21015 0.53862 0.19661 0.0
C357 C 0.15594 0.50667 0.16244 0.0
C358 C 0.16371 0.49822 0.18288 0.0
C359 C 0.18166 0.50879 0.19317 0.0
C360 C 0.15376 0.47848 0.19404 0.0
C361 C 0.13577 0.49734 0.15115 0.0
C362 C 0.14834 0.47935 0.21662 0.0
C363 C 0.14183 0.46024 0.228 0.0
C364 C 0.14022 0.43982 0.21701 0.0
C365 C 0.14457 0.43911 0.1942 0.0
C366 C 0.15155 0.45816 0.18291 0.0
H367 H 0.12768 0.50994 0.14047 0.0
H368 H 0.14084 0.48334 0.14043 0.0
H369 H 0.12344 0.49122 0.1633 0.0
H370 H 0.14984 0.49474 0.22567 0.0
H371 H 0.13866 0.46133 0.24557 0.0
H372 H 0.57014 0.144 0.25201 0.0
H373 H 0.53653 0.15576 0.2329 0.0
H374 H 0.57325 0.16153 0.17205 0.0
H375 H 0.6067 0.14881 0.19094 0.0
H376 H 0.5295 0.19422 0.21604 0.0
H377 H 0.51859 0.13362 0.14859 0.0
H378 H 0.53766 0.12905 0.17105 0.0
H379 H 0.54547 0.14612 0.14791 0.0
C380 C 0.57092 0.14719 0.23442 0.0
C381 C 0.5911 0.14535 0.22299 0.0
C382 C 0.55169 0.15402 0.22349 0.0
C383 C 0.55215 0.15946 0.20091 0.0
C384 C 0.57216 0.15693 0.18929 0.0
H385 H 0.45807 0.25482 0.14706 0.0
H386 H 0.49134 0.23538 0.1594 0.0
C387 C 0.59136 0.1497 0.20016 0.0
C388 C 0.53231 0.16981 0.19028 0.0
H389 H 0.4979 0.16737 0.14547 0.0
C390 C 0.52255 0.18818 0.20068 0.0
C391 C 0.52295 0.16193 0.17032 0.0
C392 C 0.53157 0.14146 0.15895 0.0
C393 C 0.50398 0.19894 0.19173 0.0
C394 C 0.49526 0.19175 0.17125 0.0
C395 C 0.50476 0.17317 0.16095 0.0
C396 C 0.47596 0.20305 0.16069 0.0
C397 C 0.4936 0.21759 0.20472 0.0
C398 C 0.45658 0.1912 0.15575 0.0
C399 C 0.43761 0.20224 0.14815 0.0
C400 C 0.43761 0.2254 0.14546 0.0
C401 C 0.45741 0.23702 0.14918 0.0
C402 C 0.47642 0.22593 0.15645 0.0
H403 H 0.49785 0.21653 0.22254 0.0
H404 H 0.49993 0.23364 0.19842 0.0
H405 H 0.47531 0.21752 0.20311 0.0
H406 H 0.45581 0.17351 0.15868 0.0
H407 H 0.42264 0.19278 0.14549 0.0
H408 H 0.77544 0.45685 0.1498 0.0
H409 H 0.79394 0.49074 0.1617 0.0
H410 H 0.85632 0.456 0.16342 0.0
H411 H 0.83801 0.42231 0.15057 0.0
H412 H 0.81253 0.49774 0.19914 0.0
H413 H 0.87659 0.51195 0.13555 0.0
H414 H 0.85453 0.49223 0.13181 0.0
H415 H 0.87882 0.48484 0.14742 0.0
C416 C 0.7932 0.45657 0.15217 0.0
C417 C 0.80524 0.43687 0.14911 0.0
C418 C 0.80378 0.47597 0.15908 0.0
C419 C 0.82665 0.47617 0.16335 0.0
C420 C 0.83882 0.45662 0.15972 0.0
H421 H 0.88234 0.56997 0.25749 0.0
H422 H 0.86998 0.53673 0.23811 0.0
C423 C 0.82828 0.43727 0.15243 0.0
C424 C 0.83718 0.49615 0.17349 0.0
H425 H 0.88092 0.53192 0.16946 0.0
C426 C 0.8274 0.50525 0.19249 0.0
C427 C 0.85649 0.50628 0.16481 0.0
C428 C 0.86708 0.49846 0.14364 0.0
C429 C 0.83637 0.52387 0.20312 0.0
C430 C 0.85628 0.53332 0.19511 0.0
C431 C 0.86591 0.5245 0.17589 0.0
C432 C 0.8669 0.55268 0.20622 0.0
C433 C 0.82397 0.53352 0.22251 0.0
C434 C 0.87089 0.57241 0.19452 0.0
C435 C 0.87854 0.59137 0.20551 0.0
C436 C 0.88221 0.59102 0.22846 0.0
C437 C 0.87947 0.57089 0.23986 0.0
C438 C 0.87217 0.5519 0.22882 0.0
H439 H 0.8062 0.52884 0.22222 0.0
H440 H 0.83116 0.527 0.23807 0.0
H441 H 0.82513 0.55186 0.22274 0.0
H442 H 0.86717 0.57345 0.17706 0.0
H443 H 0.8804 0.60659 0.19622 0.0
H444 H 0.57743 0.77585 0.14366 0.0
H445 H 0.54403 0.7941 0.15727 0.0
H446 H 0.58116 0.85408 0.16812 0.0
H447 H 0.6144 0.83612 0.15353 0.0
H448 H 0.53787 0.80708 0.19711 0.0
H449 H 0.52604 0.88055 0.14385 0.0
H450 H 0.54493 0.85853 0.13674 0.0
H451 H 0.55317 0.87989 0.15576 0.0
C452 C 0.57833 0.79314 0.14834 0.0
C453 C 0.59856 0.80456 0.14742 0.0
C454 C 0.55922 0.80356 0.15623 0.0
C455 C 0.55988 0.82559 0.16369 0.0
C456 C 0.57992 0.8373 0.162 0.0
H457 H 0.46975 0.87054 0.26626 0.0
H458 H 0.502 0.85977 0.24442 0.0
C459 C 0.599 0.82697 0.15369 0.0
C460 C 0.54031 0.83525 0.17536 0.0
H461 H 0.50623 0.88049 0.17823 0.0
C462 C 0.53089 0.82306 0.19278 0.0
C463 C 0.53091 0.85603 0.16973 0.0
C464 C 0.53914 0.86939 0.15035 0.0
C465 C 0.51268 0.83104 0.20479 0.0
C466 C 0.50399 0.8523 0.19993 0.0
C467 C 0.51308 0.86438 0.18226 0.0
C468 C 0.48529 0.86193 0.21288 0.0
C469 C 0.50266 0.81627 0.22227 0.0
C470 C 0.46551 0.86827 0.2024 0.0
C471 C 0.44712 0.87498 0.21489 0.0
C472 C 0.44813 0.87532 0.2381 0.0
C473 C 0.46832 0.87019 0.24844 0.0
C474 C 0.48675 0.86384 0.23596 0.0
H475 H 0.50659 0.79855 0.21926 0.0
H476 H 0.50958 0.82075 0.23863 0.0
H477 H 0.4844 0.81815 0.22295 0.0
H478 H 0.46399 0.86714 0.18462 0.0
H479 H 0.4318 0.87879 0.20642 0.0
H480 H 0.25375 0.45733 0.87237 0.0
H481 H 0.23271 0.49003 0.86173 0.0
H482 H 0.17233 0.45824 0.88247 0.0
H483 H 0.19335 0.42502 0.89281 0.0
H484 H 0.16806 0.47597 0.84187 0.0
H485 H 0.20458 0.53912 0.89658 0.0
H486 H 0.22561 0.52466 0.88148 0.0
H487 H 0.20867 0.50984 0.90102 0.0
C488 C 0.23604 0.45734 0.87508 0.0
C489 C 0.2253 0.43846 0.88354 0.0
C490 C 0.224 0.4762 0.86908 0.0
C491 C 0.20091 0.47685 0.87157 0.0
C492 C 0.19014 0.45824 0.88051 0.0
H493 H 0.1351 0.60297 0.83752 0.0
H494 H 0.14567 0.56948 0.85799 0.0
C495 C 0.20221 0.43927 0.88652 0.0
C496 C 0.18809 0.49626 0.86316 0.0
H497 H 0.18655 0.55287 0.86371 0.0
C498 C 0.17187 0.49276 0.84692 0.0
C499 C 0.19268 0.51823 0.86993 0.0
C500 C 0.20866 0.52318 0.88839 0.0
C501 C 0.16105 0.51057 0.83648 0.0
C502 C 0.1669 0.53258 0.84206 0.0
C503 C 0.18222 0.53606 0.85915 0.0
C504 C 0.15849 0.55214 0.82945 0.0
C505 C 0.14355 0.50557 0.81947 0.0
C506 C 0.16201 0.55359 0.80658 0.0
C507 C 0.15588 0.5726 0.79485 0.0
C508 C 0.14626 0.59083 0.80571 0.0
C509 C 0.14232 0.58922 0.82857 0.0
C510 C 0.14845 0.5701 0.84032 0.0
H511 H 0.13566 0.48927 0.82265 0.0
H512 H 0.13049 0.51852 0.81922 0.0
H513 H 0.15134 0.50483 0.80289 0.0
H514 H 0.17023 0.54029 0.79783 0.0
H515 H 0.15937 0.57323 0.77731 0.0
H516 H 0.57205 0.25036 0.89047 0.0
H517 H 0.53827 0.23112 0.87956 0.0
H518 H 0.57443 0.1696 0.87597 0.0
H519 H 0.60811 0.18868 0.88774 0.0
H520 H 0.53159 0.2129 0.84152 0.0
H521 H 0.51909 0.14778 0.9046 0.0
H522 H 0.53828 0.17032 0.90845 0.0
H523 H 0.54611 0.14646 0.89243 0.0
C524 C 0.57269 0.23262 0.88796 0.0
C525 C 0.5928 0.22107 0.89007 0.0
C526 C 0.55334 0.22161 0.88162 0.0
C527 C 0.5536 0.1988 0.877 0.0
C528 C 0.57351 0.18705 0.87991 0.0
H529 H 0.46089 0.14231 0.78294 0.0
H530 H 0.49394 0.15417 0.80288 0.0
C531 C 0.59285 0.19803 0.8866 0.0
C532 C 0.53371 0.18804 0.86698 0.0
H533 H 0.4985 0.14381 0.871 0.0
C534 C 0.52432 0.19787 0.84813 0.0
C535 C 0.52394 0.16851 0.87559 0.0
C536 C 0.53223 0.15778 0.89651 0.0
C537 C 0.50578 0.18873 0.83757 0.0
C538 C 0.49663 0.16866 0.84554 0.0
C539 C 0.5057 0.15897 0.86463 0.0
C540 C 0.47742 0.1579 0.83437 0.0
C541 C 0.4959 0.20105 0.81821 0.0
C542 C 0.4574 0.15447 0.84571 0.0
C543 C 0.43849 0.14719 0.83439 0.0
C544 C 0.43924 0.14333 0.81148 0.0
C545 C 0.45967 0.14534 0.80053 0.0
C546 C 0.47857 0.15231 0.81189 0.0
H547 H 0.50055 0.21884 0.81835 0.0
H548 H 0.50221 0.19375 0.80262 0.0
H549 H 0.47757 0.19985 0.81821 0.0
H550 H 0.45611 0.15847 0.86309 0.0
H551 H 0.42302 0.1459 0.84332 0.0
H552 H 0.8393 0.60617 0.8921 0.0
H553 H 0.85941 0.57254 0.8815 0.0
H554 H 0.79903 0.54444 0.85614 0.0
H555 H 0.77879 0.57761 0.86708 0.0
H556 H 0.82377 0.51364 0.87794 0.0
H557 H 0.876 0.55953 0.81782 0.0
H558 H 0.87782 0.56913 0.84581 0.0
H559 H 0.85222 0.57186 0.83096 0.0
C560 C 0.83024 0.5927 0.88457 0.0
C561 C 0.80742 0.59472 0.88032 0.0
C562 C 0.84181 0.57354 0.87832 0.0
C563 C 0.83085 0.55611 0.86754 0.0
C564 C 0.80791 0.55768 0.86429 0.0
H565 H 0.87222 0.45738 0.77582 0.0
H566 H 0.86072 0.49042 0.79586 0.0
C567 C 0.79634 0.57672 0.87059 0.0
C568 C 0.84315 0.53656 0.85881 0.0
H569 H 0.88208 0.52115 0.82077 0.0
C570 C 0.83668 0.51527 0.8656 0.0
C571 C 0.85981 0.53867 0.84247 0.0
C572 C 0.8668 0.56098 0.83364 0.0
C573 C 0.84602 0.4961 0.85622 0.0
C574 C 0.86268 0.49822 0.83988 0.0
C575 C 0.86949 0.51951 0.83344 0.0
C576 C 0.8717 0.47868 0.8278 0.0
C577 C 0.83719 0.47378 0.86316 0.0
C578 C 0.88242 0.46124 0.8389 0.0
C579 C 0.88901 0.44215 0.82743 0.0
C580 C 0.88514 0.4402 0.80459 0.0
C581 C 0.87544 0.4582 0.7934 0.0
C582 C 0.86882 0.47717 0.80485 0.0
H583 H 0.82121 0.47521 0.87212 0.0
H584 H 0.83476 0.46289 0.8486 0.0
H585 H 0.84927 0.46568 0.87434 0.0
H586 H 0.88531 0.46221 0.85652 0.0
H587 H 0.89649 0.42867 0.83659 0.0
H588 H 0.60512 0.89649 0.83311 0.0
H589 H 0.5719 0.88491 0.85328 0.0
H590 H 0.5443 0.85876 0.79311 0.0
H591 H 0.57708 0.87066 0.7728 0.0
H592 H 0.51307 0.87993 0.81786 0.0
H593 H 0.5604 0.82079 0.87002 0.0
H594 H 0.5694 0.84906 0.87176 0.0
H595 H 0.57235 0.83421 0.84622 0.0
C596 C 0.59185 0.88855 0.8241 0.0
C597 C 0.5939 0.88439 0.80132 0.0
C598 C 0.57293 0.88175 0.83572 0.0
C599 C 0.55577 0.87049 0.82484 0.0
C600 C 0.55735 0.86728 0.80193 0.0
H601 H 0.45884 0.77696 0.8675 0.0
H602 H 0.49146 0.79743 0.85555 0.0
C603 C 0.57616 0.87413 0.79031 0.0
C604 C 0.53646 0.8613 0.83718 0.0
H605 H 0.52204 0.8231 0.87638 0.0
C606 C 0.51503 0.86765 0.8308 0.0
C607 C 0.53899 0.84505 0.85389 0.0
C608 C 0.56149 0.83668 0.8608 0.0
C609 C 0.49612 0.85795 0.84031 0.0
C610 C 0.49865 0.84172 0.85705 0.0
C611 C 0.52008 0.83568 0.86373 0.0
C612 C 0.4794 0.82937 0.86635 0.0
C613 C 0.47363 0.86444 0.83161 0.0
C614 C 0.46193 0.84034 0.87713 0.0
C615 C 0.44309 0.82862 0.88399 0.0
C616 C 0.44141 0.80566 0.88033 0.0
C617 C 0.45945 0.79462 0.87056 0.0
C618 C 0.47818 0.80632 0.86369 0.0
H619 H 0.47478 0.87332 0.81556 0.0
H620 H 0.46298 0.84964 0.82941 0.0
H621 H 0.46545 0.87562 0.84363 0.0
H622 H 0.46267 0.85804 0.87986 0.0
H623 H 0.42957 0.83766 0.89152 0.0
H624 H 0.13644 0.1954 0.60254 0.0
H625 H 0.14757 0.17522 0.5692 0.0
H626 H 0.17116 0.23606 0.54028 0.0
H627 H 0.15971 0.25633 0.57312 0.0
H628 H 0.14988 0.21057 0.51004 0.0
H629 H 0.21168 0.16011 0.55581 0.0
H630 H 0.18373 0.15765 0.56556 0.0
H631 H 0.19796 0.18364 0.568 0.0
C632 C 0.1437 0.20454 0.58895 0.0
C633 C 0.1473 0.22751 0.59064 0.0
C634 C 0.15026 0.19293 0.56996 0.0
C635 C 0.16068 0.20402 0.55238 0.0
C636 C 0.16329 0.22707 0.55364 0.0
H637 H 0.253 0.16423 0.45322 0.0
H638 H 0.23302 0.1755 0.48635 0.0
C639 C 0.1567 0.23867 0.5725 0.0
C640 C 0.16966 0.19181 0.53292 0.0
H641 H 0.20877 0.15382 0.51757 0.0
C642 C 0.1626 0.198 0.51169 0.0
C643 C 0.1865 0.17559 0.53504 0.0
C644 C 0.1956 0.16893 0.55729 0.0
C645 C 0.17217 0.18883 0.49258 0.0
C646 C 0.189 0.17261 0.4947 0.0
C647 C 0.19574 0.16608 0.51594 0.0
C648 C 0.20116 0.16372 0.47517 0.0
C649 C 0.16489 0.19739 0.47031 0.0
C650 C 0.1901 0.15262 0.45803 0.0
C651 C 0.20153 0.14618 0.4389 0.0
C652 C 0.22429 0.15054 0.43661 0.0
C653 C 0.23549 0.16062 0.45432 0.0
C654 C 0.22406 0.1671 0.47334 0.0
H655 H 0.15558 0.21321 0.47169 0.0
H656 H 0.17934 0.20007 0.45929 0.0
H657 H 0.15388 0.18503 0.46243 0.0
H658 H 0.17254 0.14933 0.45925 0.0
H659 H 0.19238 0.13838 0.42566 0.0
H660 H 0.83903 0.13925 0.60503 0.0
H661 H 0.85982 0.15062 0.57209 0.0
H662 H 0.79934 0.17312 0.54169 0.0
H663 H 0.77849 0.16142 0.5741 0.0
H664 H 0.82583 0.15212 0.51214 0.0
H665 H 0.87416 0.21492 0.55855 0.0
H666 H 0.87687 0.18701 0.56847 0.0
H667 H 0.85062 0.2009 0.57036 0.0
C668 C 0.83012 0.14631 0.5912 0.0
C669 C 0.80706 0.14952 0.59235 0.0
C670 C 0.84207 0.15302 0.57244 0.0
C671 C 0.83124 0.1632 0.55455 0.0
C672 C 0.80813 0.16544 0.55529 0.0
H673 H 0.87111 0.25615 0.45592 0.0
H674 H 0.85965 0.23593 0.48887 0.0
C675 C 0.79621 0.15871 0.57392 0.0
C676 C 0.84372 0.1723 0.53528 0.0
H677 H 0.88117 0.21208 0.52044 0.0
C678 C 0.8381 0.16507 0.51396 0.0
C679 C 0.85954 0.18943 0.53761 0.0
C680 C 0.86558 0.19871 0.55993 0.0
C681 C 0.84744 0.17477 0.49497 0.0
C682 C 0.86325 0.19192 0.4973 0.0
C683 C 0.86923 0.19882 0.51863 0.0
C684 C 0.87222 0.20425 0.47787 0.0
C685 C 0.83945 0.16728 0.47259 0.0
C686 C 0.88381 0.19339 0.46089 0.0
C687 C 0.89037 0.20496 0.44185 0.0
C688 C 0.88563 0.22768 0.4395 0.0
C689 C 0.87503 0.23868 0.45706 0.0
C690 C 0.86844 0.22711 0.47598 0.0
H691 H 0.82383 0.15768 0.47373 0.0
H692 H 0.83668 0.18167 0.46149 0.0
H693 H 0.85218 0.15648 0.46495 0.0
H694 H 0.88741 0.17587 0.46215 0.0
H695 H 0.89856 0.19595 0.42873 0.0
H696 H 0.77661 0.87543 0.45881 0.0
H697 H 0.79757 0.86398 0.49122 0.0
H698 H 0.85825 0.88356 0.45927 0.0
H699 H 0.83733 0.89472 0.42639 0.0
H700 H 0.86137 0.84231 0.47622 0.0
H701 H 0.82714 0.89758 0.54033 0.0
H702 H 0.80563 0.88321 0.52589 0.0
H703 H 0.82295 0.90253 0.51122 0.0
C704 C 0.79438 0.87775 0.45875 0.0
C705 C 0.80524 0.88608 0.43992 0.0
C706 C 0.80637 0.87127 0.47743 0.0
C707 C 0.82952 0.87314 0.4779 0.0
C708 C 0.8404 0.88205 0.45938 0.0
H709 H 0.89764 0.83763 0.6016 0.0
H710 H 0.88638 0.858 0.56841 0.0
C711 C 0.82839 0.88854 0.44062 0.0
C712 C 0.84228 0.86409 0.49699 0.0
H713 H 0.84488 0.86428 0.55338 0.0
C714 C 0.85799 0.84736 0.49307 0.0
C715 C 0.83821 0.87083 0.51901 0.0
C716 C 0.82273 0.88969 0.52436 0.0
C717 C 0.86887 0.83651 0.51055 0.0
C718 C 0.86363 0.84219 0.53263 0.0
C719 C 0.84875 0.85967 0.53651 0.0
C720 C 0.8724 0.8295 0.55191 0.0
C721 C 0.88584 0.819 0.50514 0.0
C722 C 0.86849 0.80665 0.55371 0.0
C723 C 0.87502 0.79495 0.57258 0.0
C724 C 0.88544 0.80584 0.59028 0.0
C725 C 0.88979 0.82865 0.58827 0.0
C726 C 0.88327 0.84036 0.56932 0.0
H727 H 0.89328 0.82184 0.48859 0.0
H728 H 0.89929 0.81857 0.51761 0.0
H729 H 0.87768 0.80256 0.50486 0.0
H730 H 0.85967 0.79794 0.54083 0.0
H731 H 0.8712 0.77746 0.57357 0.0
H732 H 0.13268 0.83737 0.43346 0.0
H733 H 0.1428 0.85994 0.46553 0.0
H734 H 0.16449 0.80122 0.49989 0.0
H735 H 0.15378 0.7786 0.46844 0.0
H736 H 0.14427 0.82867 0.52771 0.0
H737 H 0.20593 0.87599 0.4787 0.0
H738 H 0.17802 0.8783 0.4689 0.0
H739 H 0.19197 0.85199 0.4679 0.0
C740 C 0.13925 0.82923 0.448 0.0
C741 C 0.14254 0.80614 0.44823 0.0
C742 C 0.14526 0.8422 0.46626 0.0
C743 C 0.15499 0.8324 0.48498 0.0
C744 C 0.15717 0.80926 0.48565 0.0
H745 H 0.24902 0.8773 0.57885 0.0
H746 H 0.22782 0.86529 0.54693 0.0
C747 C 0.151 0.7963 0.46756 0.0
C748 C 0.16386 0.84599 0.50358 0.0
H749 H 0.20292 0.88487 0.51634 0.0
C750 C 0.15694 0.84112 0.52521 0.0
C751 C 0.18063 0.86208 0.50038 0.0
C752 C 0.18976 0.86732 0.47777 0.0
C753 C 0.16671 0.85131 0.54368 0.0
C754 C 0.1835 0.86737 0.54049 0.0
C755 C 0.18993 0.87274 0.51882 0.0
C756 C 0.19629 0.87693 0.5593 0.0
C757 C 0.15978 0.84384 0.56645 0.0
C758 C 0.18586 0.88827 0.57673 0.0
C759 C 0.19802 0.89508 0.59527 0.0
C760 C 0.22091 0.89092 0.59662 0.0
C761 C 0.23144 0.88076 0.57852 0.0
C762 C 0.21929 0.87385 0.56016 0.0
H763 H 0.15051 0.82796 0.566 0.0
H764 H 0.17438 0.84169 0.57736 0.0
H765 H 0.14882 0.85656 0.57389 0.0
H766 H 0.16823 0.8914 0.57624 0.0
H767 H 0.18937 0.90292 0.60884 0.0
H768 H 0.66318 0.95775 0.74943 0.0
H769 H 0.67341 0.99119 0.72931 0.0
H770 H 0.64658 0.96361 0.66942 0.0
H771 H 0.63665 0.92973 0.68942 0.0
H772 H 0.68724 0.98009 0.66256 0.0
H773 H 0.63791 0.0429 0.70697 0.0
H774 H 0.65443 0.02683 0.72564 0.0
H775 H 0.63288 1.01359 0.70995 0.0
C776 C 0.65907 0.95887 0.73206 0.0
C777 C 0.649 0.94098 0.7211 0.0
C778 C 0.66485 0.97814 0.72056 0.0
C779 C 0.6605 0.98017 0.69787 0.0
C780 C 0.65001 0.96254 0.68695 0.0
H781 H 0.6913 0.10826 0.6347 0.0
H782 H 0.6712 0.07459 0.64533 0.0
C783 C 0.64426 0.94318 0.69844 0.0
C784 C 0.66842 0.99997 0.68537 0.0
H785 H 0.66909 0.05658 0.68622 0.0
C786 C 0.68299 0.99681 0.66755 0.0
C787 C 0.66266 0.02186 0.69152 0.0
C788 C 0.64592 0.02651 0.70941 0.0
C789 C 0.69279 1.01483 0.65652 0.0
C790 C 0.68827 0.03668 0.66374 0.0
C791 C 0.67281 0.03987 0.68079 0.0
C792 C 0.70046 0.05628 0.65494 0.0
C793 C 0.70799 1.01024 0.6373 0.0
C794 C 0.72361 0.0572 0.65653 0.0
C795 C 0.73511 0.07631 0.65037 0.0
C796 C 0.72376 0.09516 0.64263 0.0
C797 C 0.70061 0.09403 0.6404 0.0
C798 C 0.68908 0.07482 0.6466 0.0
H799 H 0.70379 0.99431 0.62917 0.0
H800 H 0.70722 0.02368 0.6248 0.0
H801 H 0.72525 1.00894 0.6434 0.0
H802 H 0.7328 0.0434 0.66338 0.0
H803 H 0.7529 0.07655 0.65247 0.0
H804 H 0.92908 0.69265 0.63222 0.0
H805 H 0.96215 0.67176 0.64307 0.0
H806 H 0.99052 0.73111 0.67053 0.0
H807 H 0.95797 0.75214 0.65928 0.0
H808 H 0.02145 0.70694 0.64929 0.0
H809 H 0.97371 0.65263 0.70601 0.0
H810 H 0.96495 0.65169 0.67771 0.0
H811 H 0.96179 0.67685 0.69325 0.0
C812 C 0.94249 0.70132 0.64029 0.0
C813 C 0.94073 0.72409 0.64498 0.0
C814 C 0.96133 0.68929 0.64669 0.0
C815 C 0.97867 0.69971 0.65812 0.0
C816 C 0.97736 0.72262 0.66187 0.0
H817 H 0.07409 0.65417 0.75126 0.0
H818 H 0.04167 0.6661 0.73054 0.0
C819 C 0.95866 0.73465 0.65539 0.0
C820 C 0.9979 0.68691 0.66693 0.0
H821 H 1.01206 0.64627 0.70376 0.0
C822 C 0.0194 0.69353 0.66105 0.0
C823 C 0.99527 0.66956 0.6825 0.0
C824 C 0.97272 0.66234 0.69044 0.0
C825 C 0.03824 0.68372 0.67062 0.0
C826 C 0.0356 0.66636 0.68619 0.0
C827 C 1.01412 0.65939 0.69168 0.0
C828 C 0.05473 0.65683 0.69859 0.0
C829 C 0.06074 0.69282 0.66478 0.0
C830 C 0.07271 0.64682 0.68769 0.0
C831 C 0.09148 0.64 0.69958 0.0
C832 C 0.09255 0.64289 0.72262 0.0
C833 C 0.07397 0.65172 0.73355 0.0
C834 C 0.05533 0.65859 0.72169 0.0
H835 H 0.0596 0.70922 0.65651 0.0
H836 H 0.07119 0.69455 0.67975 0.0
H837 H 0.06916 0.68125 0.65329 0.0
H838 H 0.07246 0.64475 0.66994 0.0
H839 H 0.10543 0.63322 0.69061 0.0
H840 H 0.37233 0.07549 0.75589 0.0
H841 H 0.36091 0.04268 0.73555 0.0
H842 H 0.3875 0.07049 0.67555 0.0
H843 H 0.3987 0.10378 0.69582 0.0
H844 H 0.34588 0.0552 0.66953 0.0
H845 H 0.39478 0.99044 0.71169 0.0
H846 H 0.37929 1.00673 0.73101 0.0
H847 H 0.40072 0.01956 0.71477 0.0
C848 C 0.37615 0.07456 0.73844 0.0
C849 C 0.38653 0.09235 0.72755 0.0
C850 C 0.36968 0.05564 0.72682 0.0
C851 C 0.3736 0.05386 0.70403 0.0
C852 C 0.38441 0.07137 0.69315 0.0
H853 H 0.33746 0.92782 0.63995 0.0
H854 H 0.35876 0.96066 0.65068 0.0
C855 C 0.3909 0.09038 0.70479 0.0
C856 C 0.36486 0.03449 0.69148 0.0
H857 H 0.36262 0.97791 0.69179 0.0
C858 C 0.34981 0.0383 0.67419 0.0
C859 C 0.37018 1.01236 0.69722 0.0
C860 C 0.38731 1.00701 0.71453 0.0
C861 C 0.33915 0.02071 0.66334 0.0
C862 C 0.34328 0.99864 0.67018 0.0
C863 C 0.35919 0.99479 0.68666 0.0
C864 C 0.3303 0.9795 0.66156 0.0
C865 C 0.32343 0.02599 0.64471 0.0
C866 C 0.30719 0.97913 0.6639 0.0
C867 C 0.295 0.96047 0.6577 0.0
C868 C 0.3056 0.94155 0.64916 0.0
C869 C 0.32871 0.94212 0.64629 0.0
C870 C 0.34093 0.96086 0.65253 0.0
H871 H 0.32774 0.04195 0.63665 0.0
H872 H 0.32349 1.01274 0.63201 0.0
H873 H 0.30642 0.02756 0.65141 0.0
H874 H 0.29858 0.993 0.67129 0.0
H875 H 0.27727 0.96065 0.66032 0.0
H876 H 0.10419 0.341 0.63317 0.0
H877 H 0.0707 0.36117 0.64414 0.0
H878 H 0.04261 0.30066 0.66949 0.0
H879 H 0.07558 0.28038 0.65817 0.0
H880 H 1.01178 0.32529 0.64821 0.0
H881 H 0.05789 0.37785 0.70768 0.0
H882 H 0.06716 0.37977 0.67956 0.0
H883 H 0.07025 0.35415 0.69441 0.0
C884 C 0.09075 0.33193 0.64079 0.0
C885 C 0.09272 0.30905 0.6449 0.0
C886 C 0.07168 0.34354 0.64725 0.0
C887 C 0.05428 0.33256 0.65812 0.0
C888 C 0.05581 0.30957 0.66127 0.0
H889 H 0.95673 0.37328 0.75133 0.0
H890 H 0.98951 0.36215 0.73069 0.0
C891 C 0.07476 0.29797 0.65476 0.0
C892 C 0.03476 0.34482 0.66702 0.0
H893 H 0.01948 0.38361 0.70524 0.0
C894 C 1.01346 0.3382 0.66053 0.0
C895 C 0.03692 0.3615 0.68331 0.0
C896 C 0.05925 0.36866 0.69185 0.0
C897 C 0.99434 0.34736 0.67018 0.0
C898 C 0.9965 0.36402 0.68649 0.0
C899 C 0.01779 0.37101 0.69261 0.0
C900 C 0.97704 0.37281 0.69892 0.0
C901 C 0.97204 0.3383 0.66358 0.0
C902 C 0.95925 0.38322 0.68812 0.0
C903 C 0.94028 0.38956 0.69994 0.0
C904 C 0.93882 0.38579 0.72285 0.0
C905 C 0.95716 0.37641 0.73372 0.0
C906 C 0.976 0.37002 0.72192 0.0
H907 H 0.97352 0.3223 0.65466 0.0
H908 H 0.96135 0.33578 0.67828 0.0
H909 H 0.96371 0.35029 0.65245 0.0
H910 H 0.95984 0.38606 0.67047 0.0
H911 H 0.92653 0.39681 0.69102 0.0
H912 H 0.75173 0.9571 0.37288 0.0
H913 H 0.73168 0.99007 0.36104 0.0
H914 H 0.67066 0.96177 0.38473 0.0
H915 H 0.69063 0.92836 0.39637 0.0
H916 H 0.66655 0.97762 0.34284 0.0
H917 H 0.70585 0.04167 0.39475 0.0
H918 H 0.72593 0.02562 0.37992 0.0
H919 H 0.70877 1.01244 0.40039 0.0
C920 C 0.7341 0.95796 0.37598 0.0
C921 C 0.72285 0.94001 0.38568 0.0
C922 C 0.72264 0.97696 0.36927 0.0
C923 C 0.69965 0.97863 0.37222 0.0
C924 C 0.6884 0.96096 0.38237 0.0
H925 H 0.6339 0.10427 0.33752 0.0
H926 H 0.64504 0.07092 0.35783 0.0
C927 C 0.69988 0.94189 0.38912 0.0
C928 C 0.68733 0.99809 0.36323 0.0
H929 H 0.68677 0.05471 0.36239 0.0
C930 C 0.67077 0.99447 0.34736 0.0
C931 C 0.69253 0.02013 0.36927 0.0
C932 C 0.70908 0.02522 0.38719 0.0
C933 C 0.66006 1.01221 0.33668 0.0
C934 C 0.66631 0.03424 0.34169 0.0
C935 C 0.68211 0.03787 0.35831 0.0
C936 C 0.65759 0.05367 0.32913 0.0
C937 C 0.6422 1.00714 0.32007 0.0
C938 C 0.66073 0.0551 0.3062 0.0
C939 C 0.65429 0.07407 0.29454 0.0
C940 C 0.6447 0.09223 0.30554 0.0
C941 C 0.64108 0.09058 0.32846 0.0
C942 C 0.64754 0.07154 0.34013 0.0
H943 H 0.63443 0.9908 0.32339 0.0
H944 H 0.6291 0.02004 0.32014 0.0
H945 H 0.64961 1.0065 0.30331 0.0
H946 H 0.66888 0.04182 0.29735 0.0
H947 H 0.65753 0.07475 0.27696 0.0
H948 H 0.92546 0.63565 0.34211 0.0
H949 H 0.95836 0.64825 0.36208 0.0
H950 H 0.98614 0.67291 0.30127 0.0
H951 H 0.95353 0.66019 0.28116 0.0
H952 H 0.0173 0.65154 0.32784 0.0
H953 H 0.96958 0.71383 0.37572 0.0
H954 H 0.95983 0.68583 0.37815 0.0
H955 H 0.95825 0.69982 0.35199 0.0
C956 C 0.93869 0.64348 0.33291 0.0
C957 C 0.93672 0.64699 0.31 0.0
C958 C 0.95743 0.65085 0.34441 0.0
C959 C 0.97457 0.66195 0.33327 0.0
C960 C 0.9731 0.66453 0.31027 0.0
H961 H 0.07447 0.75327 0.37724 0.0
H962 H 0.04165 0.73441 0.36319 0.0
C963 C 0.95439 0.65721 0.29878 0.0
C964 C 0.99372 0.67152 0.3455 0.0
H965 H 1.00768 0.71088 0.3836 0.0
C966 C 1.0152 0.6644 0.34015 0.0
C967 C 0.99101 0.68854 0.36135 0.0
C968 C 0.96847 0.69765 0.36707 0.0
C969 C 0.03398 0.67386 0.35011 0.0
C970 C 0.03126 0.69074 0.36612 0.0
C971 C 1.00978 0.69779 0.37153 0.0
C972 C 0.05052 0.70228 0.37632 0.0
C973 C 0.05662 0.66626 0.34281 0.0
C974 C 0.0662 0.69069 0.38901 0.0
C975 C 0.08506 0.70147 0.39716 0.0
C976 C 0.08861 0.72411 0.39282 0.0
C977 C 0.07237 0.73584 0.3809 0.0
C978 C 0.05355 0.72506 0.37282 0.0
H979 H 0.05596 0.65685 0.32708 0.0
H980 H 0.06791 0.68059 0.34062 0.0
H981 H 0.06377 0.65526 0.35566 0.0
H982 H 0.06403 0.6732 0.39233 0.0
H983 H 0.09716 0.69191 0.40628 0.0
H984 H 0.37976 0.92866 0.32572 0.0
H985 H 0.36747 0.96087 0.34718 0.0
H986 H 0.36437 0.99973 0.28746 0.0
H987 H 0.37575 0.96748 0.26592 0.0
H988 H 0.38092 1.00298 0.35475 0.0
H989 H 0.30175 1.00466 0.30897 0.0
H990 H 0.32128 0.98225 0.30629 0.0
H991 H 0.3251 1.00754 0.29093 0.0
C992 C 0.37679 0.94418 0.31723 0.0
C993 C 0.37845 0.94545 0.29409 0.0
C994 C 0.3697 0.96258 0.32951 0.0
C995 C 0.36433 0.98259 0.31888 0.0
C996 C 0.36767 0.9843 0.29598 0.0
H997 H 0.33722 0.11177 0.37692 0.0
H998 H 0.35528 0.07816 0.36337 0.0
C999 C 0.37437 0.96588 0.28369 0.0
C1000 C 0.35414 1.00128 0.33139 0.0
H1001 H 0.30934 0.03579 0.33165 0.0
C1002 C 0.3652 1.01008 0.34981 0.0
C1003 C 0.33335 1.01028 0.32533 0.0
C1004 C 0.31956 1.00055 0.30696 0.0
C1005 C 0.35634 0.02797 0.36188 0.0
C1006 C 0.33612 0.03772 0.35503 0.0
C1007 C 0.3249 0.02855 0.33691 0.0
C1008 C 0.32613 0.05749 0.36607 0.0
C1009 C 0.36857 0.03589 0.38208 0.0
C1010 C 0.30367 0.0573 0.37215 0.0
C1011 C 0.29321 0.07665 0.37941 0.0
C1012 C 0.305 0.09662 0.38107 0.0
C1013 C 0.32775 0.09658 0.37615 0.0
C1014 C 0.33814 0.07728 0.36846 0.0
H1015 H 0.37898 0.02253 0.38925 0.0
H1016 H 0.3797 0.04971 0.37735 0.0
H1017 H 0.35698 0.04191 0.39498 0.0
H1018 H 0.29399 0.04231 0.37052 0.0
H1019 H 0.27567 0.07612 0.38307 0.0
H1020 H 0.10566 0.38833 0.33408 0.0
H1021 H 0.073 0.37527 0.35423 0.0
H1022 H 0.03616 0.3732 0.29332 0.0
H1023 H 0.06891 0.38542 0.27302 0.0
H1024 H 0.03077 0.38827 0.36093 0.0
H1025 H 0.03093 0.31007 0.31337 0.0
H1026 H 0.05322 0.32979 0.31167 0.0
H1027 H 0.02829 0.33391 0.29589 0.0
C1028 C 0.0905 0.38543 0.32502 0.0
C1029 C 0.08999 0.38768 0.30189 0.0
C1030 C 0.07183 0.37789 0.33657 0.0
C1031 C 0.05224 0.3726 0.32525 0.0
C1032 C 0.05124 0.37645 0.30238 0.0
H1033 H 0.92264 0.34204 0.38139 0.0
H1034 H 0.95582 0.36105 0.36818 0.0
C1035 C 0.06996 0.38364 0.29079 0.0
C1036 C 0.0333 0.362 0.33706 0.0
H1037 H 0.99954 0.31669 0.33596 0.0
C1038 C 0.02399 0.37257 0.35555 0.0
C1039 C 0.02471 0.34123 0.33042 0.0
C1040 C 0.03495 0.32797 0.31191 0.0
C1041 C 1.00608 0.3632 0.3672 0.0
C1042 C 0.99681 0.34295 0.35985 0.0
C1043 C 1.00642 0.33227 0.3416 0.0
C1044 C 0.9772 0.33234 0.37059 0.0
C1045 C 0.99764 0.3749 0.38752 0.0
C1046 C 0.97793 0.3098 0.37642 0.0
C1047 C 0.95884 0.29879 0.38354 0.0
C1048 C 0.93857 0.3101 0.38528 0.0
C1049 C 0.93806 0.33291 0.38057 0.0
C1050 C 0.95711 0.34386 0.37306 0.0
H1051 H 1.01063 0.38553 0.39497 0.0
H1052 H 0.98358 0.38577 0.38286 0.0
H1053 H 0.99183 0.36293 0.40018 0.0
H1054 H 0.99315 0.30047 0.37473 0.0
H1055 H 0.95982 0.28121 0.38701 0.0
H1056 H 0.69483 0.6392 0.92259 0.0
H1057 H 0.67483 0.64976 0.95622 0.0
H1058 H 0.73529 0.67511 0.98414 0.0
H1059 H 0.75542 0.66424 0.95096 0.0
H1060 H 0.71092 0.6525 0.01465 0.0
H1061 H 0.658 0.71337 0.97041 0.0
H1062 H 0.65629 0.68547 0.96034 0.0
H1063 H 0.68177 0.70056 0.9577 0.0
C1064 C 0.70393 0.64678 0.936 0.0
C1065 C 0.72675 0.65098 0.93395 0.0
C1066 C 0.69241 0.65299 0.95515 0.0
C1067 C 0.70344 0.66367 0.97257 0.0
C1068 C 0.72636 0.66701 0.97091 0.0
H1069 H 0.66268 0.75322 0.07357 0.0
H1070 H 0.67382 0.73408 0.03994 0.0
C1071 C 0.73787 0.66077 0.95187 0.0
C1072 C 0.69127 0.67204 0.99231 0.0
H1073 H 0.65225 0.70967 1.00869 0.0
C1074 C 0.69794 0.66485 1.01335 0.0
C1075 C 0.67451 0.68838 0.99063 0.0
C1076 C 0.66729 0.69759 0.9686 0.0
C1077 C 0.68868 0.6738 0.0327 0.0
C1078 C 0.67191 0.69013 0.03103 0.0
C1079 C 0.66493 0.69701 1.00998 0.0
C1080 C 0.66294 0.70174 0.05084 0.0
C1081 C 0.69771 0.66644 0.05476 0.0
C1082 C 0.65236 0.69013 0.06798 0.0
C1083 C 0.64597 0.70108 0.0874 0.0
C1084 C 0.64992 0.7239 0.08999 0.0
C1085 C 0.65942 0.73564 0.07226 0.0
C1086 C 0.66583 0.7247 0.05295 0.0
H1087 H 0.71372 0.65755 0.05306 0.0
H1088 H 0.70014 0.68082 0.0659 0.0
H1089 H 0.68574 0.65501 0.0627 0.0
H1090 H 0.64947 0.6725 0.06655 0.0
H1091 H 0.63863 0.69151 0.10065 0.0
H1092 H 0.27389 0.65504 0.06045 0.0
H1093 H 0.29668 0.6652 0.0289 0.0
H1094 H 0.35521 0.64461 0.06409 0.0
H1095 H 0.33244 0.63491 0.09618 0.0
H1096 H 0.36089 0.6846 0.04687 0.0
H1097 H 0.32723 0.63096 0.98141 0.0
H1098 H 0.30548 0.64631 0.99447 0.0
H1099 H 0.32118 0.62642 1.01025 0.0
C1100 C 0.29156 0.65218 0.0614 0.0
C1101 C 0.30128 0.64408 0.08093 0.0
C1102 C 0.30461 0.65791 0.0432 0.0
C1103 C 0.3277 0.6554 0.04387 0.0
C1104 C 0.33743 0.64661 0.06308 0.0
H1105 H 0.39839 0.69101 0.9214 0.0
H1106 H 0.3869 0.66991 0.95408 0.0
C1107 C 0.32436 0.64096 0.0814 0.0
C1108 C 0.34162 0.66385 0.02531 0.0
H1109 H 0.34587 0.66421 0.96903 0.0
C1110 C 0.35785 0.67984 0.02988 0.0
C1111 C 0.33806 0.65744 1.0031 0.0
C1112 C 0.3222 0.63915 0.99705 0.0
C1113 C 0.36966 0.69043 1.01286 0.0
C1114 C 0.36477 0.68533 0.99057 0.0
C1115 C 0.34946 0.66843 0.98605 0.0
C1116 C 0.37407 0.6983 0.97174 0.0
C1117 C 0.38716 0.7071 0.01901 0.0
C1118 C 0.37096 0.72133 0.97078 0.0
C1119 C 0.37767 0.73343 0.95225 0.0
C1120 C 0.38742 0.72279 0.934 0.0
C1121 C 0.39108 0.69979 0.93518 0.0
C1122 C 0.38441 0.68767 0.95383 0.0
H1123 H 0.39442 0.70327 0.03544 0.0
H1124 H 0.40069 0.7076 1.00661 0.0
H1125 H 0.37953 0.72378 0.02003 0.0
H1126 H 0.36252 0.72992 0.98402 0.0
H1127 H 0.37438 0.75106 0.95193 0.0
H1128 H 0.34118 0.39681 0.92425 0.0
H1129 H 0.36135 0.38534 0.95753 0.0
H1130 H 0.30014 0.36406 0.9873 0.0
H1131 H 0.27992 0.37587 0.95456 0.0
H1132 H 0.32658 0.3844 0.01716 0.0
H1133 H 0.37441 0.32078 0.97114 0.0
H1134 H 0.37773 0.34865 0.96131 0.0
H1135 H 0.35127 0.33529 0.9591 0.0
C1136 C 0.33198 0.39004 0.93803 0.0
C1137 C 0.30891 0.38714 0.93659 0.0
C1138 C 0.34357 0.38327 0.95698 0.0
C1139 C 0.33235 0.37333 0.97478 0.0
C1140 C 0.30923 0.37152 0.97379 0.0
H1141 H 0.3697 0.27918 0.07338 0.0
H1142 H 0.35892 0.29976 0.04043 0.0
C1143 C 0.29767 0.37831 0.95497 0.0
C1144 C 0.34444 0.36396 0.99417 0.0
H1145 H 0.38096 0.32337 1.00933 0.0
C1146 C 0.33865 0.37121 0.01544 0.0
C1147 C 0.35998 0.3465 0.99197 0.0
C1148 C 0.36614 0.33715 0.9697 0.0
C1149 C 0.34752 0.36124 0.03451 0.0
C1150 C 0.36307 0.34379 0.03232 0.0
C1151 C 0.36923 0.33686 1.01104 0.0
C1152 C 0.37159 0.33122 0.05181 0.0
C1153 C 0.33932 0.36878 0.05681 0.0
C1154 C 0.38299 0.34183 0.06904 0.0
C1155 C 0.38914 0.33006 0.08809 0.0
C1156 C 0.38419 0.30737 0.09021 0.0
C1157 C 0.37378 0.29661 0.07242 0.0
C1158 C 0.36757 0.30839 0.05349 0.0
H1159 H 0.32381 0.37861 0.0555 0.0
H1160 H 0.33623 0.35442 0.06785 0.0
H1161 H 0.35205 0.3794 0.06463 0.0
H1162 H 0.38679 0.35931 0.06795 0.0
H1163 H 0.39721 0.33888 0.10139 0.0
H1164 H 0.69178 0.38087 0.10877 0.0
H1165 H 0.67331 0.3677 0.07529 0.0
H1166 H 0.7356 0.36876 0.04056 0.0
H1167 H 0.75427 0.38101 0.07418 0.0
H1168 H 0.6671 0.38121 0.03377 0.0
H1169 H 0.71862 0.3054 0.03236 0.0
H1170 H 0.71901 0.32447 0.05521 0.0
H1171 H 0.735 0.33007 0.03071 0.0
C1172 C 0.70151 0.37861 0.09392 0.0
C1173 C 0.72457 0.38177 0.09425 0.0
C1174 C 0.69091 0.371 0.07476 0.0
C1175 C 0.70312 0.36655 0.05549 0.0
C1176 C 0.72589 0.37129 0.05537 0.0
H1177 H 0.64858 0.33686 0.92472 0.0
H1178 H 0.66152 0.35563 0.95808 0.0
C1179 C 0.73653 0.37852 0.07458 0.0
C1180 C 0.69229 0.35606 0.03593 0.0
H1181 H 0.69622 0.31192 1.00088 0.0
C1182 C 0.67341 0.36601 0.02663 0.0
C1183 C 0.70015 0.33592 0.0268 0.0
C1184 C 0.71915 0.32321 0.03692 0.0
C1185 C 0.66248 0.35662 1.00833 0.0
C1186 C 0.67098 0.33703 0.9986 0.0
C1187 C 0.68969 0.327 1.00811 0.0
C1188 C 0.66084 0.32632 0.97875 0.0
C1189 C 0.64161 0.36754 1.00004 0.0
C1190 C 0.65619 0.30351 0.97895 0.0
C1191 C 0.64926 0.29267 0.95975 0.0
C1192 C 0.6465 0.30439 0.93987 0.0
C1193 C 0.65018 0.3274 0.93984 0.0
C1194 C 0.65753 0.33819 0.959 0.0
H1195 H 0.63351 0.37747 1.01319 0.0
H1196 H 0.64584 0.37897 0.98631 0.0
H1197 H 0.62959 0.35513 0.99386 0.0
H1198 H 0.65853 0.29389 0.99389 0.0
H1199 H 0.6466 0.27494 0.96035 0.0
H1200 H 0.13237 0.31996 0.29456 0.0
H1201 H 0.15576 0.29183 0.3118 0.0
H1202 H 0.19613 0.28919 0.25311 0.0
H1203 H 0.17259 0.31747 0.23577 0.0
H1204 H 0.17303 0.24871 0.30194 0.0
H1205 H 0.23754 0.31451 0.3013 0.0
H1206 H 0.20903 0.32023 0.29453 0.0
H1207 H 0.22643 0.3061 0.27507 0.0
C1208 C 0.14553 0.31251 0.28492 0.0
C1209 C 0.15054 0.32065 0.26378 0.0
C1210 C 0.15904 0.29662 0.29486 0.0
C1211 C 0.17797 0.28883 0.28393 0.0
C1212 C 0.18175 0.29524 0.26193 0.0
H1213 H 0.28578 0.21495 0.34656 0.0
H1214 H 0.26574 0.2399 0.32162 0.0
C1215 C 0.16806 0.31107 0.25187 0.0
C1216 C 0.19482 0.27635 0.29675 0.0
H1217 H 0.24542 0.28217 0.32136 0.0
C1218 C 0.18895 0.2559 0.30599 0.0
C1219 C 0.2156 0.28579 0.30204 0.0
C1220 C 0.2226 0.30793 0.29289 0.0
C1221 C 0.20311 0.24481 0.32068 0.0
C1222 C 0.22342 0.25477 0.32682 0.0
C1223 C 0.22971 0.27477 0.3169 0.0
C1224 C 0.23803 0.24459 0.34373 0.0
C1225 C 0.19611 0.22252 0.32956 0.0
C1226 C 0.22997 0.24057 0.3651 0.0
C1227 C 0.24144 0.22649 0.37939 0.0
C1228 C 0.26133 0.21656 0.37267 0.0
C1229 C 0.27079 0.22289 0.35241 0.0
C1230 C 0.25915 0.23681 0.33797 0.0
H1231 H 0.18389 0.2144 0.31853 0.0
H1232 H 0.21053 0.21131 0.33161 0.0
H1233 H 0.1882 0.22479 0.34595 0.0
H1234 H 0.21393 0.24687 0.37006 0.0
H1235 H 0.23362 0.22152 0.39472 0.0
H1236 H 0.81901 0.23217 0.39384 0.0
H1237 H 0.79161 0.21438 0.37008 0.0
H1238 H 0.78942 0.2726 0.32891 0.0
H1239 H 0.81688 0.29059 0.35283 0.0
H1240 H 0.74487 0.24043 0.3415 0.0
H1241 H 0.81995 0.20561 0.30118 0.0
H1242 H 0.81919 0.20505 0.33094 0.0
H1243 H 0.82028 0.23109 0.31678 0.0
C1244 C 0.81177 0.24163 0.38044 0.0
C1245 C 0.81977 0.26286 0.37535 0.0
C1246 C 0.79633 0.23136 0.36674 0.0
C1247 C 0.78874 0.24212 0.34768 0.0
C1248 C 0.79507 0.26412 0.34364 0.0
H1249 H 0.71277 0.17856 0.24138 0.0
H1250 H 0.74032 0.20259 0.25911 0.0
C1251 C 0.8105 0.27449 0.35748 0.0
C1252 C 0.77684 0.22915 0.33072 0.0
H1253 H 0.78542 0.18932 0.29151 0.0
C1254 C 0.75369 0.22956 0.33028 0.0
C1255 C 0.78846 0.21494 0.31618 0.0
C1256 C 0.81338 0.21411 0.31607 0.0
C1257 C 0.74184 0.21546 0.31616 0.0
C1258 C 0.75345 0.20061 0.30227 0.0
C1259 C 0.77661 0.20078 0.30213 0.0
C1260 C 0.74151 0.18361 0.28939 0.0
C1261 C 0.71691 0.2158 0.31675 0.0
C1262 C 0.73417 0.1644 0.30011 0.0
C1263 C 0.71868 0.15063 0.28999 0.0
C1264 C 0.71038 0.1558 0.26894 0.0
C1265 C 0.7194 0.17383 0.25733 0.0
C1266 C 0.73487 0.18774 0.26756 0.0
H1267 H 0.71038 0.23071 0.3253 0.0
H1268 H 0.7102 0.21532 0.29973 0.0
H1269 H 0.71088 0.20084 0.32555 0.0
H1270 H 0.73912 0.16099 0.31697 0.0
H1271 H 0.71162 0.13712 0.29945 0.0
H1272 H 0.84306 0.70738 0.2491 0.0
H1273 H 0.8181 0.73287 0.26831 0.0
H1274 H 0.86688 0.74168 0.31948 0.0
H1275 H 0.89146 0.71567 0.30064 0.0
H1276 H 0.82791 0.72541 0.3352 0.0
H1277 H 0.81092 0.79829 0.28157 0.0
H1278 H 0.80718 0.77177 0.26871 0.0
H1279 H 0.83437 0.78027 0.27712 0.0
C1280 C 0.84896 0.71585 0.26372 0.0
C1281 C 0.86939 0.70999 0.27316 0.0
C1282 C 0.83456 0.73023 0.27485 0.0
C1283 C 0.84056 0.73918 0.2954 0.0
C1284 C 0.86186 0.73496 0.30368 0.0
H1285 H 0.79581 0.81755 0.40019 0.0
H1286 H 0.81164 0.78804 0.37772 0.0
C1287 C 0.87608 0.7204 0.29273 0.0
C1288 C 0.82391 0.75017 0.30982 0.0
H1289 H 0.79019 0.79536 0.31453 0.0
C1290 C 0.81965 0.7407 0.33062 0.0
C1291 C 0.81265 0.76978 0.30367 0.0
C1292 C 0.81656 0.78077 0.28163 0.0
C1293 C 0.80519 0.75073 0.34575 0.0
C1294 C 0.79482 0.77091 0.34006 0.0
C1295 C 0.79815 0.77984 0.31885 0.0
C1296 C 0.78292 0.78451 0.35671 0.0
C1297 C 0.80139 0.7398 0.36783 0.0
C1298 C 0.76108 0.79163 0.35308 0.0
C1299 C 0.7518 0.80828 0.36632 0.0
C1300 C 0.76447 0.81829 0.38298 0.0
C1301 C 0.78554 0.80976 0.38776 0.0
C1302 C 0.79467 0.79299 0.37479 0.0
H1303 H 0.80427 0.72164 0.36694 0.0
H1304 H 0.81318 0.74673 0.38004 0.0
H1305 H 0.78432 0.74282 0.37391 0.0
H1306 H 0.75176 0.78532 0.33918 0.0
H1307 H 0.73572 0.81493 0.36203 0.0
H1308 H 0.37091 0.84297 0.33847 0.0
H1309 H 0.3438 0.82268 0.36053 0.0
H1310 H 0.29351 0.837 0.31203 0.0
H1311 H 0.32042 0.85804 0.29026 0.0
H1312 H 0.27749 0.8417 0.35213 0.0
H1313 H 0.32174 0.76144 0.34852 0.0
H1314 H 0.33824 0.78301 0.36039 0.0
H1315 H 0.32976 0.78494 0.33196 0.0
C1316 C 0.35404 0.84191 0.33256 0.0
C1317 C 0.34782 0.85204 0.31256 0.0
C1318 C 0.3386 0.83009 0.34509 0.0
C1319 C 0.31674 0.82774 0.33767 0.0
C1320 C 0.31033 0.83841 0.31803 0.0
H1321 H 0.21506 0.73552 0.37558 0.0
H1322 H 0.24906 0.75215 0.36115 0.0
C1323 C 0.3257 0.85051 0.30562 0.0
C1324 C 0.30043 0.81448 0.35051 0.0
H1325 H 0.29092 0.76333 0.37293 0.0
C1326 C 0.28045 0.82457 0.35666 0.0
C1327 C 0.30412 0.79198 0.35615 0.0
C1328 C 0.32452 0.77962 0.34872 0.0
C1329 C 0.26408 0.81288 0.36827 0.0
C1330 C 0.26812 0.79065 0.3747 0.0
C1331 C 0.28805 0.78049 0.36844 0.0
C1332 C 0.25107 0.77738 0.38646 0.0
C1333 C 0.24229 0.8243 0.37276 0.0
C1334 C 0.24183 0.78496 0.40636 0.0
C1335 C 0.22232 0.77556 0.41448 0.0
C1336 C 0.21224 0.75795 0.40326 0.0
C1337 C 0.22289 0.7487 0.38485 0.0
C1338 C 0.24217 0.75838 0.37646 0.0
H1339 H 0.23978 0.83884 0.36178 0.0
H1340 H 0.22819 0.81277 0.37045 0.0
H1341 H 0.24205 0.83031 0.39006 0.0
H1342 H 0.24874 0.79922 0.41468 0.0
H1343 H 0.21413 0.78323 0.42844 0.0
H1344 H 0.13005 0.70985 0.72891 0.0
H1345 H 0.1523 0.73746 0.70952 0.0
H1346 H 0.1933 0.74508 0.76713 0.0
H1347 H 0.17112 0.71711 0.78665 0.0
H1348 H 0.18893 0.78451 0.74073 0.0
H1349 H 0.21312 0.71113 0.69136 0.0
H1350 H 0.18382 0.71608 0.69152 0.0
H1351 H 0.19773 0.70901 0.71683 0.0
C1352 C 0.1431 0.71826 0.73785 0.0
C1353 C 0.14889 0.71137 0.75925 0.0
C1354 C 0.15603 0.73375 0.72663 0.0
C1355 C 0.17502 0.7425 0.73662 0.0
C1356 C 0.17905 0.73799 0.75901 0.0
H1357 H 0.28464 0.81486 0.67389 0.0
H1358 H 0.26595 0.78568 0.69535 0.0
C1359 C 0.16608 0.72238 0.7703 0.0
C1360 C 0.1919 0.75388 0.72288 0.0
H1361 H 0.22487 0.74632 0.67752 0.0
C1362 C 0.19698 0.77611 0.7271 0.0
C1363 C 0.20279 0.74272 0.70535 0.0
C1364 C 0.1993 0.71835 0.70109 0.0
C1365 C 0.21174 0.7878 0.71345 0.0
C1366 C 0.22154 0.77698 0.69517 0.0
C1367 C 0.21721 0.75455 0.69149 0.0
C1368 C 0.23459 0.78956 0.67873 0.0
C1369 C 0.21628 0.8119 0.71808 0.0
C1370 C 0.22351 0.79998 0.66127 0.0
C1371 C 0.23417 0.81626 0.64885 0.0
C1372 C 0.25606 0.82236 0.6537 0.0
C1373 C 0.26791 0.81017 0.66955 0.0
C1374 C 0.25717 0.79381 0.68205 0.0
H1375 H 0.20874 0.8175 0.73384 0.0
H1376 H 0.23439 0.81478 0.71879 0.0
H1377 H 0.20961 0.82219 0.70441 0.0
H1378 H 0.2061 0.79684 0.65845 0.0
H1379 H 0.2246 0.82562 0.63691 0.0
H1380 H 0.3213 0.1402 0.73102 0.0
H1381 H 0.2934 0.16355 0.71334 0.0
H1382 H 0.29045 0.20454 0.77153 0.0
H1383 H 0.31846 0.18098 0.78935 0.0
H1384 H 0.24988 0.17966 0.72399 0.0
H1385 H 0.31346 0.24632 0.7222 0.0
H1386 H 0.32016 0.21818 0.72981 0.0
H1387 H 0.30544 0.23568 0.74877 0.0
C1388 C 0.31392 0.15357 0.74042 0.0
C1389 C 0.32175 0.1586 0.76165 0.0
C1390 C 0.29815 0.16705 0.73023 0.0
C1391 C 0.29017 0.18604 0.74093 0.0
C1392 C 0.29659 0.1901 0.76287 0.0
H1393 H 0.21196 0.29138 0.67856 0.0
H1394 H 0.23792 0.27227 0.70318 0.0
C1395 C 0.31227 0.17641 0.7732 0.0
C1396 C 0.27694 0.20236 0.72811 0.0
H1397 H 0.2804 0.25297 0.70282 0.0
C1398 C 0.25646 0.19576 0.71953 0.0
C1399 C 0.2855 0.22343 0.72236 0.0
C1400 C 0.30743 0.23139 0.73108 0.0
C1401 C 0.24449 0.20947 0.70507 0.0
C1402 C 0.2536 0.23004 0.69838 0.0
C1403 C 0.27365 0.23705 0.70764 0.0
C1404 C 0.2425 0.24415 0.68155 0.0
C1405 C 0.22212 0.20176 0.69712 0.0
C1406 C 0.23799 0.2356 0.66048 0.0
C1407 C 0.22331 0.24655 0.64639 0.0
C1408 C 0.21327 0.26646 0.65294 0.0
C1409 C 0.21995 0.27638 0.67283 0.0
C1410 C 0.23447 0.26525 0.6871 0.0
H1411 H 0.21479 0.18936 0.70854 0.0
H1412 H 0.21043 0.21586 0.69545 0.0
H1413 H 0.22399 0.19382 0.68071 0.0
H1414 H 0.24446 0.21959 0.65564 0.0
H1415 H 0.21808 0.23836 0.63136 0.0
H1416 H 0.79962 0.21564 0.63532 0.0
H1417 H 0.81674 0.24384 0.65853 0.0
H1418 H 0.75714 0.2481 0.69742 0.0
H1419 H 0.73992 0.21957 0.67413 0.0
H1420 H 0.80646 0.2877 0.67522 0.0
H1421 H 0.80483 0.22198 0.73992 0.0
H1422 H 0.79885 0.21611 0.71132 0.0
H1423 H 0.77889 0.23041 0.728 0.0
C1424 C 0.78977 0.22341 0.64812 0.0
C1425 C 0.76842 0.21558 0.65286 0.0
C1426 C 0.79964 0.23935 0.66153 0.0
C1427 C 0.78841 0.24759 0.68004 0.0
C1428 C 0.7662 0.2416 0.68342 0.0
H1429 H 0.85137 0.32134 0.78753 0.0
H1430 H 0.82623 0.29637 0.76794 0.0
C1431 C 0.75622 0.22565 0.66987 0.0
C1432 C 0.80108 0.26004 0.69695 0.0
H1433 H 0.82552 0.25396 0.74758 0.0
C1434 C 0.81041 0.28047 0.69114 0.0
C1435 C 0.80623 0.25055 0.71775 0.0
C1436 C 0.79685 0.22849 0.72472 0.0
C1437 C 0.82509 0.29145 0.70536 0.0
C1438 C 0.83117 0.28139 0.72564 0.0
C1439 C 0.82112 0.26143 0.73189 0.0
C1440 C 0.84823 0.29138 0.74018 0.0
C1441 C 0.83401 0.31375 0.69845 0.0
C1442 C 0.86964 0.29521 0.73204 0.0
C1443 C 0.88405 0.30929 0.7433 0.0
C1444 C 0.87741 0.31945 0.76306 0.0
C1445 C 0.85715 0.31325 0.77265 0.0
C1446 C 0.84259 0.29931 0.76123 0.0
H1447 H 0.82304 0.32193 0.68618 0.0
H1448 H 0.83593 0.32491 0.71287 0.0
H1449 H 0.85048 0.31149 0.69067 0.0
H1450 H 0.87452 0.2888 0.71606 0.0
H1451 H 0.89937 0.31416 0.73535 0.0
H1452 H 0.81975 0.73948 0.67716 0.0
H1453 H 0.79087 0.7556 0.70079 0.0
H1454 H 0.78879 0.81333 0.65889 0.0
H1455 H 0.81745 0.79734 0.63541 0.0
H1456 H 0.80001 0.79547 0.72284 0.0
H1457 H 0.72352 0.80365 0.67359 0.0
H1458 H 0.74522 0.78429 0.66657 0.0
H1459 H 0.74741 0.81294 0.65863 0.0
C1460 C 0.81217 0.75501 0.67232 0.0
C1461 C 0.82045 0.767 0.6542 0.0
C1462 C 0.79597 0.76437 0.68604 0.0
C1463 C 0.78767 0.78565 0.68161 0.0
C1464 C 0.79463 0.79674 0.66245 0.0
H1465 H 0.72072 0.89641 0.7327 0.0
H1466 H 0.74657 0.87047 0.71558 0.0
C1467 C 0.81091 0.78753 0.64892 0.0
C1468 C 0.77434 0.79782 0.69828 0.0
H1469 H 0.72801 0.82967 0.70341 0.0
C1470 C 0.78405 0.80262 0.71883 0.0
C1471 C 0.75353 0.80707 0.69305 0.0
C1472 C 0.7417 0.80154 0.67184 0.0
C1473 C 0.77416 0.81765 0.73361 0.0
C1474 C 0.75404 0.82799 0.72768 0.0
C1475 C 0.74372 0.82212 0.70774 0.0
C1476 C 0.74357 0.84565 0.74121 0.0
C1477 C 0.78582 0.82318 0.7549 0.0
C1478 C 0.73453 0.84098 0.76207 0.0
C1479 C 0.72016 0.85614 0.77218 0.0
C1480 C 0.71447 0.87599 0.76138 0.0
C1481 C 0.72526 0.8815 0.74161 0.0
C1482 C 0.73973 0.8665 0.73165 0.0
H1483 H 0.8031 0.81691 0.75515 0.0
H1484 H 0.78602 0.84137 0.75759 0.0
H1485 H 0.77675 0.81551 0.76889 0.0
H1486 H 0.73698 0.8249 0.76963 0.0
H1487 H 0.71147 0.85113 0.78702 0.0
H1488 H 0.23844 0.18383 0.31721 0.0
H1489 H 0.2554 0.208 0.28937 0.0
H1490 H 0.30925 0.16162 0.28235 0.0
H1491 H 0.29246 0.13775 0.31026 0.0
H1492 H 0.2973 0.22605 0.29821 0.0
H1493 H 0.29856 0.18133 0.2186 0.0
H1494 H 0.27953 0.17441 0.24057 0.0
H1495 H 0.30755 0.16431 0.2412 0.0
C1496 C 0.25315 0.17819 0.30868 0.0
C1497 C 0.26387 0.15865 0.31542 0.0
C1498 C 0.26305 0.19219 0.29306 0.0
C1499 C 0.28357 0.1866 0.28369 0.0
C1500 C 0.29323 0.16612 0.28901 0.0
H1501 H 0.39456 0.23631 0.21518 0.0
H1502 H 0.36909 0.21891 0.24129 0.0
C1503 C 0.28352 0.15233 0.3048 0.0
C1504 C 0.29658 0.20316 0.27097 0.0
H1505 H 0.32633 0.20941 0.22348 0.0
C1506 C 0.30329 0.22269 0.28167 0.0
C1507 C 0.30446 0.19871 0.24946 0.0
C1508 C 0.29698 0.17865 0.23669 0.0
C1509 C 0.31864 0.23723 0.2719 0.0
C1510 C 0.32742 0.23209 0.2509 0.0
C1511 C 0.31987 0.21314 0.23978 0.0
C1512 C 0.34507 0.24547 0.24024 0.0
C1513 C 0.32615 0.2574 0.28446 0.0
C1514 C 0.34072 0.26685 0.23215 0.0
C1515 C 0.3556 0.27706 0.21757 0.0
C1516 C 0.37484 0.26587 0.21074 0.0
C1517 C 0.38014 0.2455 0.22059 0.0
C1518 C 0.3654 0.2354 0.23523 0.0
H1519 H 0.32044 0.25716 0.3019 0.0
H1520 H 0.34448 0.25863 0.2842 0.0
H1521 H 0.3194 0.27247 0.2764 0.0
H1522 H 0.32502 0.27481 0.23555 0.0
H1523 H 0.35074 0.2924 0.20963 0.0
H1524 H 0.85972 0.24004 0.31564 0.0
H1525 H 0.83559 0.25624 0.28717 0.0
H1526 H 0.87465 0.31591 0.2881 0.0
H1527 H 0.8984 0.29991 0.31648 0.0
H1528 H 0.81164 0.29468 0.29855 0.0
H1529 H 0.86031 0.30901 0.22254 0.0
H1530 H 0.86835 0.28893 0.24319 0.0
H1531 H 0.87472 0.31779 0.24689 0.0
C1532 C 0.86385 0.25608 0.30877 0.0
C1533 C 0.88103 0.26865 0.31801 0.0
C1534 C 0.84986 0.26546 0.2928 0.0
C1535 C 0.85326 0.28732 0.28557 0.0
C1536 C 0.87185 0.29893 0.29315 0.0
H1537 H 0.7939 0.39599 0.2198 0.0
H1538 H 0.81345 0.37176 0.24559 0.0
C1539 C 0.88559 0.28969 0.30924 0.0
C1540 C 0.83594 0.29937 0.27293 0.0
H1541 H 0.82874 0.33265 0.22797 0.0
C1542 C 0.81517 0.30269 0.2829 0.0
C1543 C 0.8406 0.30983 0.25259 0.0
C1544 C 0.86213 0.30605 0.24056 0.0
C1545 C 0.79945 0.31723 0.27368 0.0
C1546 C 0.8046 0.32855 0.25388 0.0
C1547 C 0.82495 0.32434 0.2434 0.0
C1548 C 0.78956 0.34517 0.24364 0.0
C1549 C 0.77793 0.32109 0.28568 0.0
C1550 C 0.76882 0.33896 0.23523 0.0
C1551 C 0.75731 0.35315 0.22092 0.0
C1552 C 0.76655 0.37357 0.21463 0.0
C1553 C 0.78614 0.38062 0.22483 0.0
C1554 C 0.79751 0.36658 0.23926 0.0
H1555 H 0.77865 0.31519 0.30306 0.0
H1556 H 0.77349 0.33894 0.28561 0.0
H1557 H 0.76454 0.3119 0.27716 0.0
H1558 H 0.76246 0.32245 0.23809 0.0
H1559 H 0.74265 0.34697 0.21268 0.0
H1560 H 0.63478 0.78641 0.21932 0.0
H1561 H 0.65748 0.80532 0.24698 0.0
H1562 H 0.71064 0.75927 0.23491 0.0
H1563 H 0.68773 0.73999 0.20765 0.0
H1564 H 0.68901 0.78836 0.28664 0.0
H1565 H 0.72515 0.82826 0.21203 0.0
H1566 H 0.6999 0.81232 0.21106 0.0
H1567 H 0.72612 0.79855 0.21315 0.0
C1568 C 0.65072 0.77945 0.22367 0.0
C1569 C 0.65926 0.76137 0.21185 0.0
C1570 C 0.66382 0.79046 0.2392 0.0
C1571 C 0.68576 0.78378 0.2428 0.0
C1572 C 0.69369 0.76458 0.23243 0.0
H1573 H 0.78776 0.85347 0.31855 0.0
H1574 H 0.7707 0.8287 0.29128 0.0
C1575 C 0.68044 0.75334 0.21716 0.0
C1576 C 0.70103 0.79865 0.25483 0.0
H1577 H 0.73938 0.8395 0.24657 0.0
C1578 C 0.70018 0.79936 0.27792 0.0
C1579 C 0.7154 0.81319 0.24335 0.0
C1580 C 0.71665 0.81328 0.2185 0.0
C1581 C 0.71328 0.81438 0.28983 0.0
C1582 C 0.72739 0.82911 0.27833 0.0
C1583 C 0.72857 0.82813 0.25528 0.0
C1584 C 0.7397 0.84659 0.29018 0.0
C1585 C 0.71164 0.81484 0.31467 0.0
C1586 C 0.72835 0.86545 0.29746 0.0
C1587 C 0.73809 0.87964 0.3128 0.0
C1588 C 0.75937 0.87524 0.32101 0.0
C1589 C 0.77159 0.85759 0.31202 0.0
C1590 C 0.76175 0.84326 0.2967 0.0
H1591 H 0.70338 0.79982 0.32134 0.0
H1592 H 0.72835 0.81623 0.32208 0.0
H1593 H 0.70199 0.82961 0.31979 0.0
H1594 H 0.71133 0.86826 0.29257 0.0
H1595 H 0.7282 0.89287 0.3198 0.0
H1596 H 0.2147 0.65203 0.19192 0.0
H1597 H 0.20095 0.67351 0.22311 0.0
H1598 H 0.26747 0.69391 0.23859 0.0
H1599 H 0.2815 0.67226 0.20707 0.0
H1600 H 0.2371 0.68204 0.27665 0.0
H1601 H 0.20248 0.74355 0.21798 0.0
H1602 H 0.19589 0.71531 0.21136 0.0
H1603 H 0.22419 0.72436 0.21052 0.0
C1604 C 0.22651 0.66065 0.20225 0.0
C1605 C 0.24917 0.66056 0.19701 0.0
C1606 C 0.2186 0.67304 0.21996 0.0
C1607 C 0.23314 0.68569 0.23275 0.0
C1608 C 0.25599 0.68438 0.2287 0.0
H1609 H 0.17648 0.78443 0.3247 0.0
H1610 H 0.19843 0.76866 0.29425 0.0
C1611 C 0.264 0.67185 0.21088 0.0
C1612 C 0.22392 0.70094 0.24954 0.0
H1613 H 0.18799 0.74434 0.25485 0.0
C1614 C 0.22667 0.6959 0.27195 0.0
C1615 C 0.21067 0.71927 0.24334 0.0
C1616 C 0.20826 0.72614 0.2195 0.0
C1617 C 0.2153 0.70786 0.28829 0.0
C1618 C 0.20054 0.72497 0.28195 0.0
C1619 C 0.19901 0.73099 0.25964 0.0
C1620 C 0.18543 0.7355 0.29814 0.0
C1621 C 0.21882 0.70174 0.3122 0.0
C1622 C 0.16999 0.72239 0.30942 0.0
C1623 C 0.15748 0.73131 0.32658 0.0
C1624 C 0.15994 0.75362 0.33263 0.0
C1625 C 0.17406 0.76726 0.32016 0.0
C1626 C 0.18676 0.75822 0.30297 0.0
H1627 H 0.23502 0.6934 0.31471 0.0
H1628 H 0.21804 0.71659 0.32298 0.0
H1629 H 0.20564 0.6901 0.31747 0.0
H1630 H 0.16827 0.70496 0.30554 0.0
H1631 H 0.14669 0.72045 0.3359 0.0
H1632 H 0.39938 0.79606 0.81018 0.0
H1633 H 0.37404 0.81621 0.78592 0.0
H1634 H 0.32588 0.76408 0.79303 0.0
H1635 H 0.3515 0.74365 0.81691 0.0
H1636 H 0.32442 0.78567 0.75129 0.0
H1637 H 0.32321 0.84537 0.82059 0.0
H1638 H 0.35045 0.84113 0.80955 0.0
H1639 H 0.33619 0.81852 0.82267 0.0
C1640 C 0.38396 0.78829 0.80543 0.0
C1641 C 0.37751 0.76819 0.81516 0.0
C1642 C 0.36927 0.80002 0.79198 0.0
C1643 C 0.34779 0.79201 0.78837 0.0
C1644 C 0.34229 0.77068 0.79583 0.0
H1645 H 0.23844 0.85999 0.71983 0.0
H1646 H 0.256 0.83606 0.74766 0.0
C1647 C 0.35712 0.7588 0.80913 0.0
C1648 C 0.33056 0.8069 0.77908 0.0
H1649 H 0.30598 0.85731 0.78705 0.0
C1650 C 0.32015 0.8012 0.75921 0.0
C1651 C 0.32467 0.82697 0.78971 0.0
C1652 C 0.33403 0.83328 0.81193 0.0
C1653 C 0.30507 0.8157 0.74897 0.0
C1654 C 0.30009 0.83629 0.75904 0.0
C1655 C 0.30979 0.84154 0.77938 0.0
C1656 C 0.28718 0.85359 0.74727 0.0
C1657 C 0.29535 0.80936 0.72695 0.0
C1658 C 0.29824 0.87241 0.73939 0.0
C1659 C 0.28816 0.8862 0.72384 0.0
C1660 C 0.26679 0.88152 0.71607 0.0
C1661 C 0.25475 0.86422 0.72589 0.0
C1662 C 0.26493 0.85029 0.74143 0.0
H1663 H 0.30325 0.79431 0.71994 0.0
H1664 H 0.27743 0.80601 0.72904 0.0
H1665 H 0.29714 0.82314 0.71493 0.0
H1666 H 0.31536 0.87535 0.74377 0.0
H1667 H 0.29789 0.89922 0.71625 0.0
H1668 H 0.23321 0.39709 0.81643 0.0
H1669 H 0.21616 0.37437 0.78781 0.0
H1670 H 0.27583 0.33555 0.78286 0.0
H1671 H 0.29298 0.35833 0.81182 0.0
H1672 H 0.22675 0.35836 0.74361 0.0
H1673 H 0.22792 0.29254 0.80823 0.0
H1674 H 0.23376 0.32115 0.81456 0.0
H1675 H 0.25389 0.3047 0.80023 0.0
C1676 C 0.24309 0.38444 0.80844 0.0
C1677 C 0.26444 0.37955 0.81618 0.0
C1678 C 0.23325 0.3713 0.79225 0.0
C1679 C 0.24453 0.35292 0.78367 0.0
C1680 C 0.26674 0.34944 0.78961 0.0
H1681 H 0.18192 0.24574 0.70881 0.0
H1682 H 0.207 0.26536 0.73381 0.0
C1683 C 0.27668 0.36272 0.80581 0.0
C1684 C 0.23191 0.33618 0.77093 0.0
H1685 H 0.20744 0.28534 0.77609 0.0
C1686 C 0.22274 0.34229 0.75057 0.0
C1687 C 0.22669 0.3152 0.78006 0.0
C1688 C 0.23591 0.30791 0.80204 0.0
C1689 C 0.20817 0.32819 0.73928 0.0
C1690 C 0.20201 0.30771 0.74898 0.0
C1691 C 0.2119 0.30117 0.76889 0.0
C1692 C 0.18504 0.29325 0.73868 0.0
C1693 C 0.19946 0.33541 0.71705 0.0
C1694 C 0.16367 0.30149 0.73472 0.0
C1695 C 0.14931 0.29023 0.7206 0.0
C1696 C 0.15592 0.27035 0.71057 0.0
C1697 C 0.17616 0.26072 0.71681 0.0
C1698 C 0.19068 0.27214 0.73077 0.0
H1699 H 0.21052 0.34779 0.70915 0.0
H1700 H 0.1976 0.3211 0.70572 0.0
H1701 H 0.18298 0.34323 0.71924 0.0
H1702 H 0.15878 0.31751 0.74111 0.0
H1703 H 0.13401 0.29821 0.7157 0.0
H1704 H 0.72823 0.13384 0.70967 0.0
H1705 H 0.70897 0.15521 0.73804 0.0
H1706 H 0.7667 0.19601 0.7466 0.0
H1707 H 0.78613 0.17465 0.71794 0.0
H1708 H 0.72429 0.17516 0.7865 0.0
H1709 H 0.71036 0.23244 0.71548 0.0
H1710 H 0.71398 0.2031 0.71093 0.0
H1711 H 0.73692 0.2195 0.71984 0.0
C1712 C 0.73724 0.14659 0.71845 0.0
C1713 C 0.75871 0.1525 0.71177 0.0
C1714 C 0.72614 0.15893 0.73448 0.0
C1715 C 0.73631 0.17742 0.744 0.0
C1716 C 0.75859 0.18189 0.73918 0.0
H1717 H 0.67092 0.28512 0.81456 0.0
H1718 H 0.69352 0.26533 0.78722 0.0
C1719 C 0.76979 0.16945 0.72313 0.0
C1720 C 0.72253 0.19359 0.75618 0.0
H1721 H 0.69046 0.23962 0.74815 0.0
C1722 C 0.71705 0.18937 0.77824 0.0
C1723 C 0.71323 0.21216 0.74531 0.0
C1724 C 0.71879 0.21726 0.72156 0.0
C1725 C 0.70218 0.2031 0.78967 0.0
C1726 C 0.69193 0.22103 0.77845 0.0
C1727 C 0.69803 0.22568 0.75659 0.0
C1728 C 0.67488 0.23494 0.78942 0.0
C1729 C 0.69766 0.19835 0.81373 0.0
C1730 C 0.65557 0.22514 0.79775 0.0
C1731 C 0.64241 0.2365 0.81293 0.0
C1732 C 0.64827 0.25789 0.81988 0.0
C1733 C 0.6658 0.26879 0.80921 0.0
C1734 C 0.67902 0.25735 0.79397 0.0
H1735 H 0.7111 0.18833 0.82129 0.0
H1736 H 0.69581 0.21393 0.82328 0.0
H1737 H 0.68204 0.18882 0.81521 0.0
H1738 H 0.65173 0.20804 0.79398 0.0
H1739 H 0.62912 0.22766 0.82109 0.0
H1740 H 0.85668 0.79205 0.71138 0.0
H1741 H 0.83285 0.77538 0.73967 0.0
H1742 H 0.87637 0.71884 0.7429 0.0
H1743 H 0.90003 0.73541 0.71476 0.0
H1744 H 0.8123 0.73578 0.72918 0.0
H1745 H 0.85861 0.72627 0.80723 0.0
H1746 H 0.86652 0.74599 0.7862 0.0
H1747 H 0.87454 0.71736 0.78387 0.0
C1748 C 0.86188 0.77675 0.7192 0.0
C1749 C 0.88042 0.76518 0.71126 0.0
C1750 C 0.84804 0.76706 0.73506 0.0
C1751 C 0.85281 0.74586 0.74341 0.0
C1752 C 0.87253 0.73536 0.73704 0.0
H1753 H 0.79724 0.63533 0.80919 0.0
H1754 H 0.81623 0.65994 0.78335 0.0
C1755 C 0.88619 0.74491 0.72107 0.0
C1756 C 0.83584 0.73307 0.75573 0.0
H1757 H 0.82892 0.70039 0.80116 0.0
C1758 C 0.8157 0.72836 0.74512 0.0
C1759 C 0.84034 0.72335 0.77647 0.0
C1760 C 0.86109 0.72868 0.78921 0.0
C1761 C 0.8005 0.71321 0.75414 0.0
C1762 C 0.8056 0.7026 0.77432 0.0
C1763 C 0.82525 0.70816 0.78541 0.0
C1764 C 0.79114 0.68548 0.78441 0.0
C1765 C 0.77961 0.70801 0.74159 0.0
C1766 C 0.76997 0.69095 0.79228 0.0
C1767 C 0.75881 0.67657 0.80663 0.0
C1768 C 0.76886 0.65672 0.8135 0.0
C1769 C 0.78891 0.65027 0.80373 0.0
C1770 C 0.79994 0.66452 0.78928 0.0
H1771 H 0.78053 0.71369 0.72415 0.0
H1772 H 0.77621 0.68994 0.74182 0.0
H1773 H 0.76546 0.71655 0.74958 0.0
H1774 H 0.76302 0.70713 0.78899 0.0
H1775 H 0.74374 0.68229 0.81449 0.0
H1776 H 0.21601 0.36402 0.28447 0.0
H1777 H 0.24608 0.34183 0.26826 0.0
H1778 H 0.23676 0.37507 0.20596 0.0
H1779 H 0.20727 0.39741 0.22206 0.0
H1780 H 0.23338 0.3138 0.23155 0.0
H1781 H 0.30453 0.36747 0.21038 0.0
H1782 H 0.28472 0.37457 0.2316 0.0
H1783 H 0.27828 0.37928 0.20299 0.0
C1784 C 0.22127 0.36742 0.2677 0.0
C1785 C 0.20949 0.38254 0.25453 0.0
C1786 C 0.23811 0.35445 0.25835 0.0
C1787 C 0.24341 0.3566 0.23586 0.0
C1788 C 0.23312 0.37325 0.22339 0.0
H1789 H 0.31174 0.2954 0.12958 0.0
H1790 H 0.28532 0.31526 0.15287 0.0
C1791 C 0.21634 0.38611 0.23264 0.0
C1792 C 0.2569 0.3396 0.22438 0.0
H1793 H 0.30106 0.33381 0.18984 0.0
C1794 C 0.24841 0.318 0.2227 0.0
C1795 C 0.27637 0.34518 0.21278 0.0
C1796 C 0.28666 0.36783 0.21465 0.0
C1797 C 0.25823 0.30218 0.20874 0.0
C1798 C 0.27723 0.30807 0.1964 0.0
C1799 C 0.28624 0.32938 0.19894 0.0
C1800 C 0.28819 0.29273 0.18056 0.0
C1801 C 0.2476 0.2797 0.2066 0.0
C1802 C 0.2974 0.27259 0.18775 0.0
C1803 C 0.31194 0.26081 0.17407 0.0
C1804 C 0.31776 0.26921 0.1532 0.0
C1805 C 0.30703 0.28825 0.14532 0.0
C1806 C 0.29225 0.29981 0.15881 0.0
H1807 H 0.23011 0.27989 0.21226 0.0
H1808 H 0.24813 0.27378 0.18926 0.0
H1809 H 0.25676 0.26766 0.21702 0.0
H1810 H 0.29492 0.26694 0.20454 0.0
H1811 H 0.32065 0.24666 0.18087 0.0
H1812 H 0.31672 0.73478 0.89565 0.0
H1813 H 0.2903 0.71568 0.87178 0.0
H1814 H 0.29555 0.76836 0.82393 0.0
H1815 H 0.32162 0.78774 0.84812 0.0
H1816 H 0.25318 0.74821 0.82509 0.0
H1817 H 0.3203 0.6861 0.81848 0.0
H1818 H 0.31144 0.69049 0.84642 0.0
H1819 H 0.32421 0.71275 0.83131 0.0
C1820 C 0.31119 0.7429 0.88066 0.0
C1821 C 0.32093 0.76286 0.87386 0.0
C1822 C 0.29648 0.73177 0.8668 0.0
C1823 C 0.29162 0.74022 0.84575 0.0
C1824 C 0.29929 0.76141 0.84001 0.0
H1825 H 0.21494 0.67579 0.73977 0.0
H1826 H 0.2435 0.6993 0.75656 0.0
C1827 C 0.31386 0.77269 0.85403 0.0
C1828 C 0.28064 0.72592 0.82909 0.0
H1829 H 0.28522 0.67564 0.80354 0.0
C1830 C 0.26027 0.73247 0.82016 0.0
C1831 C 0.29018 0.70558 0.82229 0.0
C1832 C 0.31285 0.69839 0.82992 0.0
C1833 C 0.24854 0.71859 0.80567 0.0
C1834 C 0.25754 0.69772 0.79982 0.0
C1835 C 0.27833 0.6916 0.80805 0.0
C1836 C 0.24442 0.68111 0.78738 0.0
C1837 C 0.2262 0.72595 0.79738 0.0
C1838 C 0.23672 0.66224 0.7985 0.0
C1839 C 0.22064 0.64877 0.78888 0.0
C1840 C 0.21221 0.65374 0.76784 0.0
C1841 C 0.22156 0.67129 0.75578 0.0
C1842 C 0.23756 0.68495 0.76553 0.0
H1843 H 0.22019 0.74109 0.80589 0.0
H1844 H 0.22747 0.72959 0.77947 0.0
H1845 H 0.21379 0.71259 0.7996 0.0
H1846 H 0.24184 0.65891 0.81533 0.0
H1847 H 0.21339 0.6356 0.79866 0.0
H1848 H 0.30483 0.32092 0.89692 0.0
H1849 H 0.32456 0.29308 0.87521 0.0
H1850 H 0.26748 0.28529 0.83342 0.0
H1851 H 0.24758 0.31338 0.85515 0.0
H1852 H 0.31143 0.24552 0.85499 0.0
H1853 H 0.32239 0.31693 0.79748 0.0
H1854 H 0.31772 0.32127 0.82663 0.0
H1855 H 0.29572 0.31131 0.80958 0.0
C1856 C 0.29606 0.31239 0.88385 0.0
C1857 C 0.27464 0.31912 0.8778 0.0
C1858 C 0.30743 0.29667 0.87132 0.0
C1859 C 0.29759 0.28756 0.85248 0.0
C1860 C 0.27535 0.29241 0.8478 0.0
H1861 H 0.36285 0.21759 0.74494 0.0
H1862 H 0.34006 0.24469 0.76479 0.0
C1863 C 0.26388 0.30812 0.86045 0.0
C1864 C 0.31167 0.27577 0.83628 0.0
H1865 H 0.34268 0.28457 0.78982 0.0
C1866 C 0.31812 0.25394 0.84064 0.0
C1867 C 0.3203 0.28686 0.81755 0.0
C1868 C 0.31382 0.31042 0.81236 0.0
C1869 C 0.33322 0.24292 0.82684 0.0
C1870 C 0.3427 0.25436 0.80867 0.0
C1871 C 0.3357 0.27599 0.80393 0.0
C1872 C 0.35976 0.24378 0.7945 0.0
C1873 C 0.33877 0.21903 0.83175 0.0
C1874 C 0.37962 0.23624 0.80382 0.0
C1875 C 0.39288 0.22114 0.7924 0.0
C1876 C 0.38651 0.21351 0.77144 0.0
C1877 C 0.36838 0.22352 0.76089 0.0
C1878 C 0.35507 0.23863 0.77239 0.0
H1879 H 0.32593 0.21109 0.84223 0.0
H1880 H 0.3405 0.20933 0.81627 0.0
H1881 H 0.35472 0.21825 0.84077 0.0
H1882 H 0.38385 0.24045 0.82068 0.0
H1883 H 0.4066 0.21345 0.801 0.0
H1884 H 0.71316 0.29797 0.89493 0.0
H1885 H 0.74121 0.3154 0.87163 0.0
H1886 H 0.74287 0.25737 0.83025 0.0
H1887 H 0.71469 0.23982 0.85373 0.0
H1888 H 0.78434 0.30455 0.85457 0.0
H1889 H 0.71937 0.30722 0.78941 0.0
H1890 H 0.71313 0.2999 0.81765 0.0
H1891 H 0.72719 0.28052 0.80007 0.0
C1892 C 0.72034 0.28851 0.88152 0.0
C1893 C 0.71204 0.26745 0.87632 0.0
C1894 C 0.73618 0.29857 0.86805 0.0
C1895 C 0.74378 0.28789 0.84894 0.0
C1896 C 0.73701 0.26602 0.84478 0.0
H1897 H 0.81994 0.35099 0.74268 0.0
H1898 H 0.79445 0.32614 0.76214 0.0
C1899 C 0.72124 0.25583 0.85843 0.0
C1900 C 0.75677 0.30077 0.83249 0.0
H1901 H 0.75232 0.3266 0.78232 0.0
C1902 C 0.77745 0.30918 0.83869 0.0
C1903 C 0.74777 0.30679 0.81172 0.0
C1904 C 0.72557 0.29832 0.80424 0.0
C1905 C 0.78919 0.32373 0.82488 0.0
C1906 C 0.77967 0.33066 0.80462 0.0
C1907 C 0.75941 0.32157 0.798 0.0
C1908 C 0.79053 0.3476 0.79046 0.0
C1909 C 0.81176 0.33152 0.83215 0.0
C1910 C 0.79525 0.36865 0.79905 0.0
C1911 C 0.80965 0.38288 0.78789 0.0
C1912 C 0.8192 0.37648 0.76775 0.0
C1913 C 0.81232 0.3566 0.75787 0.0
C1914 C 0.79807 0.3422 0.76919 0.0
H1915 H 0.81931 0.31993 0.84427 0.0
H1916 H 0.82315 0.33326 0.81786 0.0
H1917 H 0.81014 0.34792 0.84023 0.0
H1918 H 0.78915 0.37339 0.8152 0.0
H1919 H 0.81503 0.3979 0.79604 0.0
H1920 H 0.79323 0.71232 0.84403 0.0
H1921 H 0.77709 0.73992 0.819 0.0
H1922 H 0.72326 0.74986 0.86471 0.0
H1923 H 0.73918 0.72211 0.88946 0.0
H1924 H 0.73423 0.73147 0.8015 0.0
H1925 H 0.73673 0.81306 0.84288 0.0
H1926 H 0.75525 0.79068 0.85014 0.0
H1927 H 0.72745 0.79121 0.86076 0.0
C1928 C 0.7787 0.72142 0.84932 0.0
C1929 C 0.76774 0.71558 0.86896 0.0
C1930 C 0.76928 0.7369 0.83483 0.0
C1931 C 0.74902 0.74704 0.84003 0.0
C1932 C 0.7391 0.74257 0.86053 0.0
H1933 H 0.63856 0.81476 0.79046 0.0
H1934 H 0.6645 0.78871 0.80733 0.0
C1935 C 0.7483 0.72687 0.8748 0.0
C1936 C 0.73647 0.75968 0.8231 0.0
H1937 H 0.70859 0.80819 0.81524 0.0
C1938 C 0.72908 0.74844 0.80416 0.0
C1939 C 0.72961 0.78174 0.82669 0.0
C1940 C 0.73784 0.79498 0.84612 0.0
C1941 C 0.71401 0.7583 0.78941 0.0
C1942 C 0.70612 0.77985 0.79382 0.0
C1943 C 0.71441 0.79149 0.8121 0.0
C1944 C 0.68827 0.79037 0.78068 0.0
C1945 C 0.70574 0.7453 0.76987 0.0
C1946 C 0.69237 0.79873 0.75942 0.0
C1947 C 0.67725 0.81331 0.74953 0.0
C1948 C 0.65803 0.81982 0.76092 0.0
C1949 C 0.65298 0.80961 0.78113 0.0
C1950 C 0.66797 0.79501 0.79092 0.0
H1951 H 0.71202 0.728 0.76985 0.0
H1952 H 0.68737 0.74499 0.76984 0.0
H1953 H 0.71118 0.75351 0.75439 0.0
H1954 H 0.70805 0.79555 0.75134 0.0
H1955 H 0.68191 0.82151 0.73429 0.0
H1956 H 0.71949 0.78426 0.17668 0.0
H1957 H 0.74414 0.76506 0.20264 0.0
H1958 H 0.74359 0.70745 0.16076 0.0
H1959 H 0.71858 0.72636 0.13526 0.0
H1960 H 0.7269 0.69948 0.20241 0.0
H1961 H 0.80753 0.74321 0.20871 0.0
H1962 H 0.78344 0.76044 0.21137 0.0
H1963 H 0.78912 0.74702 0.18552 0.0
C1964 C 0.72578 0.76803 0.1724 0.0
C1965 C 0.71734 0.75686 0.15392 0.0
C1966 C 0.73964 0.75696 0.18736 0.0
C1967 C 0.74553 0.73475 0.18376 0.0
C1968 C 0.73916 0.72454 0.16395 0.0
H1969 H 0.81047 0.62677 0.24304 0.0
H1970 H 0.78318 0.65004 0.22447 0.0
C1971 C 0.72517 0.73548 0.14918 0.0
C1972 C 0.75525 0.7211 0.20176 0.0
H1973 H 0.80088 0.71439 0.23427 0.0
C1974 C 0.74309 0.70277 0.20938 0.0
C1975 C 0.7761 0.7257 0.21127 0.0
C1976 C 0.78993 0.74505 0.20374 0.0
C1977 C 0.75149 0.68852 0.22568 0.0
C1978 C 0.77273 0.69253 0.23449 0.0
C1979 C 0.78453 0.71138 0.22758 0.0
C1980 C 0.78417 0.67618 0.24887 0.0
C1981 C 0.73762 0.66919 0.23321 0.0
C1982 C 0.79292 0.68256 0.26937 0.0
C1983 C 0.80819 0.66893 0.28028 0.0
C1984 C 0.81519 0.64898 0.27059 0.0
C1985 C 0.80482 0.64171 0.25119 0.0
C1986 C 0.78939 0.65517 0.24044 0.0
H1987 H 0.71971 0.6724 0.2306 0.0
H1988 H 0.74218 0.65433 0.22345 0.0
H1989 H 0.74045 0.66545 0.25095 0.0
H1990 H 0.78924 0.69876 0.2761 0.0
H1991 H 0.81652 0.67529 0.29479 0.0
H1992 H 0.34583 0.86972 0.19339 0.0
H1993 H 0.3247 0.84336 0.17133 0.0
H1994 H 0.33741 0.79236 0.21966 0.0
H1995 H 0.35927 0.81851 0.24147 0.0
H1996 H 0.34151 0.77645 0.1793 0.0
H1997 H 0.26281 0.82326 0.1839 0.0
H1998 H 0.28483 0.83922 0.17204 0.0
H1999 H 0.28662 0.83032 0.20038 0.0
C2000 C 0.34425 0.85284 0.19927 0.0
C2001 C 0.35414 0.84621 0.21923 0.0
C2002 C 0.33196 0.83785 0.18673 0.0
C2003 C 0.3289 0.81603 0.19412 0.0
C2004 C 0.33936 0.80917 0.21371 0.0
H2005 H 0.23348 0.7177 0.15542 0.0
H2006 H 0.2512 0.75089 0.17039 0.0
C2007 C 0.35193 0.8241 0.22612 0.0
C2008 C 0.31507 0.80026 0.18131 0.0
H2009 H 0.2636 0.7927 0.15912 0.0
C2010 C 0.32448 0.78002 0.1749 0.0
C2011 C 0.2927 0.80475 0.17587 0.0
C2012 C 0.28106 0.82546 0.1836 0.0
C2013 C 0.31224 0.76419 0.16319 0.0
C2014 C 0.29016 0.76905 0.15692 0.0
C2015 C 0.28066 0.78921 0.16348 0.0
C2016 C 0.27636 0.75263 0.14496 0.0
C2017 C 0.32292 0.74209 0.15836 0.0
C2018 C 0.28359 0.74357 0.12486 0.0
C2019 C 0.27358 0.72453 0.11643 0.0
C2020 C 0.25571 0.71478 0.12756 0.0
C2021 C 0.24686 0.72531 0.14624 0.0
C2022 C 0.25716 0.74412 0.15492 0.0
H2023 H 0.33738 0.73894 0.16925 0.0
H2024 H 0.31095 0.72833 0.16054 0.0
H2025 H 0.32888 0.74192 0.14103 0.0
H2026 H 0.29803 0.75022 0.11659 0.0
H2027 H 0.28091 0.7164 0.10226 0.0
H2028 H 0.78747 0.31798 0.18352 0.0
H2029 H 0.76765 0.29259 0.20804 0.0
H2030 H 0.71658 0.28509 0.15893 0.0
H2031 H 0.73614 0.31086 0.1347 0.0
H2032 H 0.70135 0.30292 0.1978 0.0
H2033 H 0.75129 0.2276 0.21563 0.0
H2034 H 0.76549 0.25352 0.21883 0.0
H2035 H 0.75651 0.24499 0.19189 0.0
C2036 C 0.7728 0.30973 0.17739 0.0
C2037 C 0.76353 0.31603 0.15703 0.0
C2038 C 0.76128 0.29543 0.19157 0.0
C2039 C 0.7405 0.28705 0.18543 0.0
C2040 C 0.73254 0.29141 0.16407 0.0
H2041 H 0.63174 0.21447 0.23162 0.0
H2042 H 0.65543 0.2427 0.21519 0.0
C2043 C 0.74391 0.30582 0.15003 0.0
C2044 C 0.72546 0.27692 0.20206 0.0
H2045 H 0.71843 0.23243 0.23623 0.0
C2046 C 0.70514 0.2875 0.20621 0.0
C2047 C 0.73059 0.25714 0.21349 0.0
C2048 C 0.75207 0.245 0.20969 0.0
C2049 C 0.68951 0.27845 0.22079 0.0
C2050 C 0.69417 0.25814 0.2314 0.0
C2051 C 0.7149 0.24806 0.22811 0.0
C2052 C 0.67689 0.24566 0.24363 0.0
C2053 C 0.668 0.29058 0.22451 0.0
C2054 C 0.68034 0.23874 0.26552 0.0
C2055 C 0.66639 0.22287 0.27515 0.0
C2056 C 0.64918 0.21341 0.26278 0.0
C2057 C 0.64458 0.22188 0.24167 0.0
C2058 C 0.65827 0.23788 0.23219 0.0
H2059 H 0.6698 0.30861 0.22127 0.0
H2060 H 0.65534 0.28406 0.21297 0.0
H2061 H 0.66191 0.2882 0.24165 0.0
H2062 H 0.69462 0.24454 0.27461 0.0
H2063 H 0.67055 0.21623 0.29124 0.0
loop_
_geom_bond_atom_site_label_1
_geom_bond_atom_site_label_2
_geom_bond_distance
_geom_bond_site_symmetry_2
_ccdc_geom_bond_type
C0 O2 1.247 . S
C0 O4 1.258 . S
C1 O8 1.247 . S
C1 O9 1.258 . S
O2 C0 1.247 . S
O2 Zn3 2.028 . S
Zn3 O2 2.028 . S
Zn3 O7 2.035 . S
Zn3 O9 2.035 . S
Zn3 O10 2.028 . S
O4 C0 1.258 . S
O4 Zn5 2.035 . S
Zn5 O4 2.035 . S
Zn5 O6 2.028 . S
Zn5 O8 2.028 . S
Zn5 O11 2.035 . S
O6 Zn5 2.028 . S
O6 C12 1.247 . S
O7 Zn3 2.035 . S
O7 C12 1.258 . S
O8 C1 1.247 . S
O8 Zn5 2.028 . S
O9 C1 1.258 . S
O9 Zn3 2.035 . S
O10 Zn3 2.028 . S
O10 C13 1.247 . S
O11 Zn5 2.035 . S
O11 C13 1.258 . S
C12 O6 1.247 . S
C12 O7 1.258 . S
C13 O10 1.247 . S
C13 O11 1.258 . S
C14 O16 1.247 . S
C14 O18 1.258 . S
C15 O22 1.247 . S
C15 O23 1.258 . S
O16 C14 1.247 . S
O16 Zn17 2.028 . S
Zn17 O16 2.028 . S
Zn17 O21 2.035 . S
Zn17 O23 2.035 . S
Zn17 O24 2.028 . S
O18 C14 1.258 . S
O18 Zn19 2.035 . S
Zn19 O18 2.035 . S
Zn19 O20 2.028 . S
Zn19 O22 2.028 . S
Zn19 O25 2.035 . S
O20 Zn19 2.028 . S
O20 C26 1.247 . S
O21 Zn17 2.035 . S
O21 C26 1.258 . S
O22 C15 1.247 . S
O22 Zn19 2.028 . S
O23 C15 1.258 . S
O23 Zn17 2.035 . S
O24 Zn17 2.028 . S
O24 C27 1.247 . S
O25 Zn19 2.035 . S
O25 C27 1.258 . S
C26 O20 1.247 . S
C26 O21 1.258 . S
C27 O24 1.247 . S
C27 O25 1.258 . S
C28 O30 1.247 . S
C28 O32 1.258 . S
C29 O36 1.247 . S
C29 O37 1.258 . S
O30 C28 1.247 . S
O30 Zn31 2.028 . S
Zn31 O30 2.028 . S
Zn31 O35 2.035 . S
Zn31 O37 2.035 . S
Zn31 O38 2.028 . S
O32 C28 1.258 . S
O32 Zn33 2.035 . S
Zn33 O32 2.035 . S
Zn33 O34 2.028 . S
Zn33 O36 2.028 . S
Zn33 O39 2.035 . S
O34 Zn33 2.028 . S
O34 C40 1.247 . S
O35 Zn31 2.035 . S
O35 C40 1.258 . S
O36 C29 1.247 . S
O36 Zn33 2.028 . S
O37 C29 1.258 . S
O37 Zn31 2.035 . S
O38 Zn31 2.028 . S
O38 C41 1.247 . S
O39 Zn33 2.035 . S
O39 C41 1.258 . S
C40 O34 1.247 . S
C40 O35 1.258 . S
C41 O38 1.247 . S
C41 O39 1.258 . S
C42 O44 1.247 . S
C42 O46 1.258 . S
C43 O50 1.247 . S
C43 O51 1.258 . S
O44 C42 1.247 . S
O44 Zn45 2.028 . S
Zn45 O44 2.028 . S
Zn45 O49 2.035 . S
Zn45 O51 2.035 . S
Zn45 O52 2.028 . S
O46 C42 1.258 . S
O46 Zn47 2.035 . S
Zn47 O46 2.035 . S
Zn47 O48 2.028 . S
Zn47 O50 2.028 . S
Zn47 O53 2.035 . S
O48 Zn47 2.028 . S
O48 C54 1.247 . S
O49 Zn45 2.035 . S
O49 C54 1.258 . S
O50 C43 1.247 . S
O50 Zn47 2.028 . S
O51 C43 1.258 . S
O51 Zn45 2.035 . S
O52 Zn45 2.028 . S
O52 C55 1.247 . S
O53 Zn47 2.035 . S
O53 C55 1.258 . S
C54 O48 1.247 . S
C54 O49 1.258 . S
C55 O52 1.247 . S
C55 O53 1.258 . S
C56 O58 1.247 . S
C56 O60 1.258 . S
C57 O64 1.247 . S
C57 O65 1.258 . S
O58 C56 1.247 . S
O58 Zn59 2.028 . S
Zn59 O58 2.028 . S
Zn59 O63 2.035 . S
Zn59 O65 2.035 . S
Zn59 O66 2.028 . S
O60 C56 1.258 . S
O60 Zn61 2.035 . S
Zn61 O60 2.035 . S
Zn61 O62 2.028 . S
Zn61 O64 2.028 . S
Zn61 O67 2.035 . S
O62 Zn61 2.028 . S
O62 C68 1.247 . S
O63 Zn59 2.035 . S
O63 C68 1.258 . S
O64 C57 1.247 . S
O64 Zn61 2.028 . S
O65 C57 1.258 . S
O65 Zn59 2.035 . S
O66 Zn59 2.028 . S
O66 C69 1.247 . S
O67 Zn61 2.035 . S
O67 C69 1.258 . S
C68 O62 1.247 . S
C68 O63 1.258 . S
C69 O66 1.247 . S
C69 O67 1.258 . S
C70 O72 1.247 . S
C70 O74 1.258 . S
C71 O78 1.247 . S
C71 O79 1.258 . S
O72 C70 1.247 . S
O72 Zn73 2.028 . S
Zn73 O72 2.028 . S
Zn73 O77 2.035 . S
Zn73 O79 2.035 . S
Zn73 O80 2.028 . S
O74 C70 1.258 . S
O74 Zn75 2.035 . S
Zn75 O74 2.035 . S
Zn75 O76 2.028 . S
Zn75 O78 2.028 . S
Zn75 O81 2.035 . S
O76 Zn75 2.028 . S
O76 C82 1.247 . S
O77 Zn73 2.035 . S
O77 C82 1.258 . S
O78 C71 1.247 . S
O78 Zn75 2.028 . S
O79 C71 1.258 . S
O79 Zn73 2.035 . S
O80 Zn73 2.028 . S
O80 C83 1.247 . S
O81 Zn75 2.035 . S
O81 C83 1.258 . S
C82 O76 1.247 . S
C82 O77 1.258 . S
C83 O80 1.247 . S
C83 O81 1.258 . S
C84 O86 1.247 . S
C84 O88 1.258 . S
C85 O92 1.247 . S
C85 O93 1.258 . S
O86 C84 1.247 . S
O86 Zn87 2.028 . S
Zn87 O86 2.028 . S
Zn87 O91 2.035 . S
Zn87 O93 2.035 . S
Zn87 O94 2.028 . S
O88 C84 1.258 . S
O88 Zn89 2.035 . S
Zn89 O88 2.035 . S
Zn89 O90 2.028 . S
Zn89 O92 2.028 . S
Zn89 O95 2.035 . S
O90 Zn89 2.028 . S
O90 C96 1.247 . S
O91 Zn87 2.035 . S
O91 C96 1.258 . S
O92 C85 1.247 . S
O92 Zn89 2.028 . S
O93 C85 1.258 . S
O93 Zn87 2.035 . S
O94 Zn87 2.028 . S
O94 C97 1.247 . S
O95 Zn89 2.035 . S
O95 C97 1.258 . S
C96 O90 1.247 . S
C96 O91 1.258 . S
C97 O94 1.247 . S
C97 O95 1.258 . S
C98 O100 1.247 . S
C98 O102 1.258 . S
C99 O106 1.247 . S
C99 O107 1.258 . S
O100 C98 1.247 . S
O100 Zn101 2.028 . S
Zn101 O100 2.028 . S
Zn101 O105 2.035 . S
Zn101 O107 2.035 . S
Zn101 O108 2.028 . S
O102 C98 1.258 . S
O102 Zn103 2.035 . S
Zn103 O102 2.035 . S
Zn103 O104 2.028 . S
Zn103 O106 2.028 . S
Zn103 O109 2.035 . S
O104 Zn103 2.028 . S
O104 C110 1.247 . S
O105 Zn101 2.035 . S
O105 C110 1.258 . S
O106 C99 1.247 . S
O106 Zn103 2.028 . S
O107 C99 1.258 . S
O107 Zn101 2.035 . S
O108 Zn101 2.028 . S
O108 C111 1.247 . S
O109 Zn103 2.035 . S
O109 C111 1.258 . S
C110 O104 1.247 . S
C110 O105 1.258 . S
C111 O108 1.247 . S
C111 O109 1.258 . S
C112 O114 1.247 . S
C112 O116 1.258 . S
C113 O120 1.247 . S
C113 O121 1.258 . S
O114 C112 1.247 . S
O114 Zn115 2.028 . S
Zn115 O114 2.028 . S
Zn115 O119 2.035 . S
Zn115 O121 2.035 . S
Zn115 O122 2.028 . S
O116 C112 1.258 . S
O116 Zn117 2.035 . S
Zn117 O116 2.035 . S
Zn117 O118 2.028 . S
Zn117 O120 2.028 . S
Zn117 O123 2.035 . S
O118 Zn117 2.028 . S
O118 C124 1.247 . S
O119 Zn115 2.035 . S
O119 C124 1.258 . S
O120 C113 1.247 . S
O120 Zn117 2.028 . S
O121 C113 1.258 . S
O121 Zn115 2.035 . S
O122 Zn115 2.028 . S
O122 C125 1.247 . S
O123 Zn117 2.035 . S
O123 C125 1.258 . S
C124 O118 1.247 . S
C124 O119 1.258 . S
C125 O122 1.247 . S
C125 O123 1.258 . S
C126 O128 1.247 . S
C126 O130 1.258 . S
C127 O134 1.247 . S
C127 O135 1.258 . S
O128 C126 1.247 . S
O128 Zn129 2.028 . S
Zn129 O128 2.028 . S
Zn129 O133 2.035 . S
Zn129 O135 2.035 . S
Zn129 O136 2.028 . S
O130 C126 1.258 . S
O130 Zn131 2.035 . S
Zn131 O130 2.035 . S
Zn131 O132 2.028 . S
Zn131 O134 2.028 . S
Zn131 O137 2.035 . S
O132 Zn131 2.028 . S
O132 C138 1.247 . S
O133 Zn129 2.035 . S
O133 C138 1.258 . S
O134 C127 1.247 . S
O134 Zn131 2.028 . S
O135 C127 1.258 . S
O135 Zn129 2.035 . S
O136 Zn129 2.028 . S
O136 C139 1.247 . S
O137 Zn131 2.035 . S
O137 C139 1.258 . S
C138 O132 1.247 . S
C138 O133 1.258 . S
C139 O136 1.247 . S
C139 O137 1.258 . S
C140 O142 1.247 . S
C140 O144 1.258 . S
C141 O148 1.247 . S
C141 O149 1.258 . S
O142 C140 1.247 . S
O142 Zn143 2.028 . S
Zn143 O142 2.028 . S
Zn143 O147 2.035 . S
Zn143 O149 2.035 . S
Zn143 O150 2.028 . S
O144 C140 1.258 . S
O144 Zn145 2.035 . S
Zn145 O144 2.035 . S
Zn145 O146 2.028 . S
Zn145 O148 2.028 . S
Zn145 O151 2.035 . S
O146 Zn145 2.028 . S
O146 C152 1.247 . S
O147 Zn143 2.035 . S
O147 C152 1.258 . S
O148 C141 1.247 . S
O148 Zn145 2.028 . S
O149 C141 1.258 . S
O149 Zn143 2.035 . S
O150 Zn143 2.028 . S
O150 C153 1.247 . S
O151 Zn145 2.035 . S
O151 C153 1.258 . S
C152 O146 1.247 . S
C152 O147 1.258 . S
C153 O150 1.247 . S
C153 O151 1.258 . S
C154 O156 1.247 . S
C154 O158 1.258 . S
C155 O162 1.247 . S
C155 O163 1.258 . S
O156 C154 1.247 . S
O156 Zn157 2.028 . S
Zn157 O156 2.028 . S
Zn157 O161 2.035 . S
Zn157 O163 2.035 . S
Zn157 O164 2.028 . S
O158 C154 1.258 . S
O158 Zn159 2.035 . S
Zn159 O158 2.035 . S
Zn159 O160 2.028 . S
Zn159 O162 2.028 . S
Zn159 O165 2.035 . S
O160 Zn159 2.028 . S
O160 C166 1.247 . S
O161 Zn157 2.035 . S
O161 C166 1.258 . S
O162 C155 1.247 . S
O162 Zn159 2.028 . S
O163 C155 1.258 . S
O163 Zn157 2.035 . S
O164 Zn157 2.028 . S
O164 C167 1.247 . S
O165 Zn159 2.035 . S
O165 C167 1.258 . S
C166 O160 1.247 . S
C166 O161 1.258 . S
C167 O164 1.247 . S
C167 O165 1.258 . S
C168 O170 1.247 . S
C168 O172 1.258 . S
C169 O176 1.247 . S
C169 O177 1.258 . S
O170 C168 1.247 . S
O170 Zn171 2.028 . S
Zn171 O170 2.028 . S
Zn171 O175 2.035 . S
Zn171 O177 2.035 . S
Zn171 O178 2.028 . S
O172 C168 1.258 . S
O172 Zn173 2.035 . S
Zn173 O172 2.035 . S
Zn173 O174 2.028 . S
Zn173 O176 2.028 . S
Zn173 O179 2.035 . S
O174 Zn173 2.028 . S
O174 C180 1.247 . S
O175 Zn171 2.035 . S
O175 C180 1.258 . S
O176 C169 1.247 . S
O176 Zn173 2.028 . S
O177 C169 1.258 . S
O177 Zn171 2.035 . S
O178 Zn171 2.028 . S
O178 C181 1.247 . S
O179 Zn173 2.035 . S
O179 C181 1.258 . S
C180 O174 1.247 . S
C180 O175 1.258 . S
C181 O178 1.247 . S
C181 O179 1.258 . S
C182 O184 1.247 . S
C182 O186 1.258 . S
C183 O190 1.247 . S
C183 O191 1.258 . S
O184 C182 1.247 . S
O184 Zn185 2.028 . S
Zn185 O184 2.028 . S
Zn185 O189 2.035 . S
Zn185 O191 2.035 . S
Zn185 O192 2.028 . S
O186 C182 1.258 . S
O186 Zn187 2.035 . S
Zn187 O186 2.035 . S
Zn187 O188 2.028 . S
Zn187 O190 2.028 . S
Zn187 O193 2.035 . S
O188 Zn187 2.028 . S
O188 C194 1.247 . S
O189 Zn185 2.035 . S
O189 C194 1.258 . S
O190 C183 1.247 . S
O190 Zn187 2.028 . S
O191 C183 1.258 . S
O191 Zn185 2.035 . S
O192 Zn185 2.028 . S
O192 C195 1.247 . S
O193 Zn187 2.035 . S
O193 C195 1.258 . S
C194 O188 1.247 . S
C194 O189 1.258 . S
C195 O192 1.247 . S
C195 O193 1.258 . S
C196 O198 1.247 . S
C196 O200 1.258 . S
C197 O204 1.247 . S
C197 O205 1.258 . S
O198 C196 1.247 . S
O198 Zn199 2.028 . S
Zn199 O198 2.028 . S
Zn199 O203 2.035 . S
Zn199 O205 2.035 . S
Zn199 O206 2.028 . S
O200 C196 1.258 . S
O200 Zn201 2.035 . S
Zn201 O200 2.035 . S
Zn201 O202 2.028 . S
Zn201 O204 2.028 . S
Zn201 O207 2.035 . S
O202 Zn201 2.028 . S
O202 C208 1.247 . S
O203 Zn199 2.035 . S
O203 C208 1.258 . S
O204 C197 1.247 . S
O204 Zn201 2.028 . S
O205 C197 1.258 . S
O205 Zn199 2.035 . S
O206 Zn199 2.028 . S
O206 C209 1.247 . S
O207 Zn201 2.035 . S
O207 C209 1.258 . S
C208 O202 1.247 . S
C208 O203 1.258 . S
C209 O206 1.247 . S
C209 O207 1.258 . S
C210 O212 1.247 . S
C210 O214 1.258 . S
C211 O218 1.247 . S
C211 O219 1.258 . S
O212 C210 1.247 . S
O212 Zn213 2.028 . S
Zn213 O212 2.028 . S
Zn213 O217 2.035 . S
Zn213 O219 2.035 . S
Zn213 O220 2.028 . S
O214 C210 1.258 . S
O214 Zn215 2.035 . S
Zn215 O214 2.035 . S
Zn215 O216 2.028 . S
Zn215 O218 2.028 . S
Zn215 O221 2.035 . S
O216 Zn215 2.028 . S
O216 C222 1.247 . S
O217 Zn213 2.035 . S
O217 C222 1.258 . S
O218 C211 1.247 . S
O218 Zn215 2.028 . S
O219 C211 1.258 . S
O219 Zn213 2.035 . S
O220 Zn213 2.028 . S
O220 C223 1.247 . S
O221 Zn215 2.035 . S
O221 C223 1.258 . S
C222 O216 1.247 . S
C222 O217 1.258 . S
C223 O220 1.247 . S
C223 O221 1.258 . S
C224 O226 1.247 . S
C224 O228 1.258 . S
C225 O232 1.247 . S
C225 O233 1.258 . S
O226 C224 1.247 . S
O226 Zn227 2.028 . S
Zn227 O226 2.028 . S
Zn227 O231 2.035 . S
Zn227 O233 2.035 . S
Zn227 O234 2.028 . S
O228 C224 1.258 . S
O228 Zn229 2.035 . S
Zn229 O228 2.035 . S
Zn229 O230 2.028 . S
Zn229 O232 2.028 . S
Zn229 O235 2.035 . S
O230 Zn229 2.028 . S
O230 C236 1.247 . S
O231 Zn227 2.035 . S
O231 C236 1.258 . S
O232 C225 1.247 . S
O232 Zn229 2.028 . S
O233 C225 1.258 . S
O233 Zn227 2.035 . S
O234 Zn227 2.028 . S
O234 C237 1.247 . S
O235 Zn229 2.035 . S
O235 C237 1.258 . S
C236 O230 1.247 . S
C236 O231 1.258 . S
C237 O234 1.247 . S
C237 O235 1.258 . S
C238 O240 1.247 . S
C238 O242 1.258 . S
C239 O246 1.247 . S
C239 O247 1.258 . S
O240 C238 1.247 . S
O240 Zn241 2.028 . S
Zn241 O240 2.028 . S
Zn241 O245 2.035 . S
Zn241 O247 2.035 . S
Zn241 O248 2.028 . S
O242 C238 1.258 . S
O242 Zn243 2.035 . S
Zn243 O242 2.035 . S
Zn243 O244 2.028 . S
Zn243 O246 2.028 . S
Zn243 O249 2.035 . S
O244 Zn243 2.028 . S
O244 C250 1.247 . S
O245 Zn241 2.035 . S
O245 C250 1.258 . S
O246 C239 1.247 . S
O246 Zn243 2.028 . S
O247 C239 1.258 . S
O247 Zn241 2.035 . S
O248 Zn241 2.028 . S
O248 C251 1.247 . S
O249 Zn243 2.035 . S
O249 C251 1.258 . S
C250 O244 1.247 . S
C250 O245 1.258 . S
C251 O248 1.247 . S
C251 O249 1.258 . S
C252 O254 1.247 . S
C252 O256 1.258 . S
C253 O260 1.247 . S
C253 O261 1.258 . S
O254 C252 1.247 . S
O254 Zn255 2.028 . S
Zn255 O254 2.028 . S
Zn255 O259 2.035 . S
Zn255 O261 2.035 . S
Zn255 O262 2.028 . S
O256 C252 1.258 . S
O256 Zn257 2.035 . S
Zn257 O256 2.035 . S
Zn257 O258 2.028 . S
Zn257 O260 2.028 . S
Zn257 O263 2.035 . S
O258 Zn257 2.028 . S
O258 C264 1.247 . S
O259 Zn255 2.035 . S
O259 C264 1.258 . S
O260 C253 1.247 . S
O260 Zn257 2.028 . S
O261 C253 1.258 . S
O261 Zn255 2.035 . S
O262 Zn255 2.028 . S
O262 C265 1.247 . S
O263 Zn257 2.035 . S
O263 C265 1.258 . S
C264 O258 1.247 . S
C264 O259 1.258 . S
C265 O262 1.247 . S
C265 O263 1.258 . S
C266 O268 1.247 . S
C266 O270 1.258 . S
C267 O274 1.247 . S
C267 O275 1.258 . S
O268 C266 1.247 . S
O268 Zn269 2.028 . S
Zn269 O268 2.028 . S
Zn269 O273 2.035 . S
Zn269 O275 2.035 . S
Zn269 O276 2.028 . S
O270 C266 1.258 . S
O270 Zn271 2.035 . S
Zn271 O270 2.035 . S
Zn271 O272 2.028 . S
Zn271 O274 2.028 . S
Zn271 O277 2.035 . S
O272 Zn271 2.028 . S
O272 C278 1.247 . S
O273 Zn269 2.035 . S
O273 C278 1.258 . S
O274 C267 1.247 . S
O274 Zn271 2.028 . S
O275 C267 1.258 . S
O275 Zn269 2.035 . S
O276 Zn269 2.028 . S
O276 C279 1.247 . S
O277 Zn271 2.035 . S
O277 C279 1.258 . S
C278 O272 1.247 . S
C278 O273 1.258 . S
C279 O276 1.247 . S
C279 O277 1.258 . S
C280 O282 1.247 . S
C280 O284 1.258 . S
C281 O288 1.247 . S
C281 O289 1.258 . S
O282 C280 1.247 . S
O282 Zn283 2.028 . S
Zn283 O282 2.028 . S
Zn283 O287 2.035 . S
Zn283 O289 2.035 . S
Zn283 O290 2.028 . S
O284 C280 1.258 . S
O284 Zn285 2.035 . S
Zn285 O284 2.035 . S
Zn285 O286 2.028 . S
Zn285 O288 2.028 . S
Zn285 O291 2.035 . S
O286 Zn285 2.028 . S
O286 C292 1.247 . S
O287 Zn283 2.035 . S
O287 C292 1.258 . S
O288 C281 1.247 . S
O288 Zn285 2.028 . S
O289 C281 1.258 . S
O289 Zn283 2.035 . S
O290 Zn283 2.028 . S
O290 C293 1.247 . S
O291 Zn285 2.035 . S
O291 C293 1.258 . S
C292 O286 1.247 . S
C292 O287 1.258 . S
C293 O290 1.247 . S
C293 O291 1.258 . S
C294 O296 1.247 . S
C294 O298 1.258 . S
C295 O302 1.247 . S
C295 O303 1.258 . S
O296 C294 1.247 . S
O296 Zn297 2.028 . S
Zn297 O296 2.028 . S
Zn297 O301 2.035 . S
Zn297 O303 2.035 . S
Zn297 O304 2.028 . S
O298 C294 1.258 . S
O298 Zn299 2.035 . S
Zn299 O298 2.035 . S
Zn299 O300 2.028 . S
Zn299 O302 2.028 . S
Zn299 O305 2.035 . S
O300 Zn299 2.028 . S
O300 C306 1.247 . S
O301 Zn297 2.035 . S
O301 C306 1.258 . S
O302 C295 1.247 . S
O302 Zn299 2.028 . S
O303 C295 1.258 . S
O303 Zn297 2.035 . S
O304 Zn297 2.028 . S
O304 C307 1.247 . S
O305 Zn299 2.035 . S
O305 C307 1.258 . S
C306 O300 1.247 . S
C306 O301 1.258 . S
C307 O304 1.247 . S
C307 O305 1.258 . S
C308 O310 1.247 . S
C308 O312 1.258 . S
C309 O316 1.247 . S
C309 O317 1.258 . S
O310 C308 1.247 . S
O310 Zn311 2.028 . S
Zn311 O310 2.028 . S
Zn311 O315 2.035 . S
Zn311 O317 2.035 . S
Zn311 O318 2.028 . S
O312 C308 1.258 . S
O312 Zn313 2.035 . S
Zn313 O312 2.035 . S
Zn313 O314 2.028 . S
Zn313 O316 2.028 . S
Zn313 O319 2.035 . S
O314 Zn313 2.028 . S
O314 C320 1.247 . S
O315 Zn311 2.035 . S
O315 C320 1.258 . S
O316 C309 1.247 . S
O316 Zn313 2.028 . S
O317 C309 1.258 . S
O317 Zn311 2.035 . S
O318 Zn311 2.028 . S
O318 C321 1.247 . S
O319 Zn313 2.035 . S
O319 C321 1.258 . S
C320 O314 1.247 . S
C320 O315 1.258 . S
C321 O318 1.247 . S
C321 O319 1.258 . S
C322 O324 1.247 . S
C322 O326 1.258 . S
C323 O330 1.247 . S
C323 O331 1.258 . S
O324 C322 1.247 . S
O324 Zn325 2.028 . S
Zn325 O324 2.028 . S
Zn325 O329 2.035 . S
Zn325 O331 2.035 . S
Zn325 O332 2.028 . S
O326 C322 1.258 . S
O326 Zn327 2.035 . S
Zn327 O326 2.035 . S
Zn327 O328 2.028 . S
Zn327 O330 2.028 . S
Zn327 O333 2.035 . S
O328 Zn327 2.028 . S
O328 C334 1.247 . S
O329 Zn325 2.035 . S
O329 C334 1.258 . S
O330 C323 1.247 . S
O330 Zn327 2.028 . S
O331 C323 1.258 . S
O331 Zn325 2.035 . S
O332 Zn325 2.028 . S
O332 C335 1.247 . S
O333 Zn327 2.035 . S
O333 C335 1.258 . S
C334 O328 1.247 . S
C334 O329 1.258 . S
C335 O332 1.247 . S
C335 O333 1.258 . S
H336 C344 0.929 . S
H337 C346 0.930 . S
H338 C348 0.930 . S
H339 C351 0.929 . S
H340 C354 0.930 . S
H341 C356 0.960 . S
H342 C356 0.960 . S
H343 C356 0.960 . S
C344 H336 0.929 . S
C344 C345 1.377 . S
C344 C346 1.384 . S
C345 C344 1.377 . S
C345 C351 1.390 . S
C346 H337 0.930 . S
C346 C344 1.384 . S
C346 C347 1.372 . S
C347 C346 1.372 . S
C347 C348 1.400 . S
C347 C352 1.490 . S
C348 H338 0.930 . S
C348 C347 1.400 . S
C348 C351 1.386 . S
H349 C365 0.930 . S
H350 C366 0.931 . S
C351 H339 0.929 . S
C351 C345 1.390 . S
C351 C348 1.386 . S
C352 C347 1.490 . S
C352 C354 1.395 . S
C352 C355 1.403 . S
H353 C359 0.930 . S
C354 H340 0.930 . S
C354 C352 1.395 . S
C354 C357 1.403 . S
C355 C352 1.403 . S
C355 C356 1.524 . S
C355 C359 1.400 . S
C356 H341 0.960 . S
C356 H342 0.960 . S
C356 H343 0.960 . S
C356 C355 1.524 . S
C357 C354 1.403 . S
C357 C358 1.392 . S
C357 C361 1.495 . S
C358 C357 1.392 . S
C358 C359 1.385 . S
C358 C360 1.478 . S
C359 H353 0.930 . S
C359 C355 1.400 . S
C359 C358 1.385 . S
C360 C358 1.478 . S
C360 C362 1.381 . S
C360 C366 1.383 . S
C361 C357 1.495 . S
C361 H367 0.959 . S
C361 H368 0.961 . S
C361 H369 0.960 . S
C362 C360 1.381 . S
C362 C363 1.394 . S
C362 H370 0.930 . S
C363 C362 1.394 . S
C363 C364 1.383 . S
C363 H371 0.929 . S
C364 C363 1.383 . S
C364 C365 1.377 . S
C365 H349 0.930 . S
C365 C364 1.377 . S
C365 C366 1.379 . S
C366 H350 0.931 . S
C366 C360 1.383 . S
C366 C365 1.379 . S
H367 C361 0.959 . S
H368 C361 0.961 . S
H369 C361 0.960 . S
H370 C362 0.930 . S
H371 C363 0.929 . S
H372 C380 0.929 . S
H373 C382 0.930 . S
H374 C384 0.930 . S
H375 C387 0.929 . S
H376 C390 0.930 . S
H377 C392 0.960 . S
H378 C392 0.960 . S
H379 C392 0.960 . S
C380 H372 0.929 . S
C380 C381 1.377 . S
C380 C382 1.384 . S
C381 C380 1.377 . S
C381 C387 1.390 . S
C382 H373 0.930 . S
C382 C380 1.384 . S
C382 C383 1.372 . S
C383 C382 1.372 . S
C383 C384 1.400 . S
C383 C388 1.490 . S
C384 H374 0.930 . S
C384 C383 1.400 . S
C384 C387 1.386 . S
H385 C401 0.930 . S
H386 C402 0.931 . S
C387 H375 0.929 . S
C387 C381 1.390 . S
C387 C384 1.386 . S
C388 C383 1.490 . S
C388 C390 1.395 . S
C388 C391 1.403 . S
H389 C395 0.930 . S
C390 H376 0.930 . S
C390 C388 1.395 . S
C390 C393 1.403 . S
C391 C388 1.403 . S
C391 C392 1.524 . S
C391 C395 1.400 . S
C392 H377 0.960 . S
C392 H378 0.960 . S
C392 H379 0.960 . S
C392 C391 1.524 . S
C393 C390 1.403 . S
C393 C394 1.392 . S
C393 C397 1.495 . S
C394 C393 1.392 . S
C394 C395 1.385 . S
C394 C396 1.478 . S
C395 H389 0.930 . S
C395 C391 1.400 . S
C395 C394 1.385 . S
C396 C394 1.478 . S
C396 C398 1.381 . S
C396 C402 1.383 . S
C397 C393 1.495 . S
C397 H403 0.959 . S
C397 H404 0.961 . S
C397 H405 0.960 . S
C398 C396 1.381 . S
C398 C399 1.394 . S
C398 H406 0.930 . S
C399 C398 1.394 . S
C399 C400 1.383 . S
C399 H407 0.929 . S
C400 C399 1.383 . S
C400 C401 1.377 . S
C401 H385 0.930 . S
C401 C400 1.377 . S
C401 C402 1.379 . S
C402 H386 0.931 . S
C402 C396 1.383 . S
C402 C401 1.379 . S
H403 C397 0.959 . S
H404 C397 0.961 . S
H405 C397 0.960 . S
H406 C398 0.930 . S
H407 C399 0.929 . S
H408 C416 0.929 . S
H409 C418 0.930 . S
H410 C420 0.930 . S
H411 C423 0.929 . S
H412 C426 0.930 . S
H413 C428 0.960 . S
H414 C428 0.960 . S
H415 C428 0.960 . S
C416 H408 0.929 . S
C416 C417 1.377 . S
C416 C418 1.384 . S
C417 C416 1.377 . S
C417 C423 1.390 . S
C418 H409 0.930 . S
C418 C416 1.384 . S
C418 C419 1.372 . S
C419 C418 1.372 . S
C419 C420 1.400 . S
C419 C424 1.490 . S
C420 H410 0.930 . S
C420 C419 1.400 . S
C420 C423 1.386 . S
H421 C437 0.930 . S
H422 C438 0.931 . S
C423 H411 0.929 . S
C423 C417 1.390 . S
C423 C420 1.386 . S
C424 C419 1.490 . S
C424 C426 1.395 . S
C424 C427 1.403 . S
H425 C431 0.930 . S
C426 H412 0.930 . S
C426 C424 1.395 . S
C426 C429 1.403 . S
C427 C424 1.403 . S
C427 C428 1.524 . S
C427 C431 1.400 . S
C428 H413 0.960 . S
C428 H414 0.960 . S
C428 H415 0.960 . S
C428 C427 1.524 . S
C429 C426 1.403 . S
C429 C430 1.392 . S
C429 C433 1.495 . S
C430 C429 1.392 . S
C430 C431 1.385 . S
C430 C432 1.478 . S
C431 H425 0.930 . S
C431 C427 1.400 . S
C431 C430 1.385 . S
C432 C430 1.478 . S
C432 C434 1.381 . S
C432 C438 1.383 . S
C433 C429 1.495 . S
C433 H439 0.959 . S
C433 H440 0.961 . S
C433 H441 0.960 . S
C434 C432 1.381 . S
C434 C435 1.394 . S
C434 H442 0.930 . S
C435 C434 1.394 . S
C435 C436 1.383 . S
C435 H443 0.929 . S
C436 C435 1.383 . S
C436 C437 1.377 . S
C437 H421 0.930 . S
C437 C436 1.377 . S
C437 C438 1.379 . S
C438 H422 0.931 . S
C438 C432 1.383 . S
C438 C437 1.379 . S
H439 C433 0.959 . S
H440 C433 0.961 . S
H441 C433 0.960 . S
H442 C434 0.930 . S
H443 C435 0.929 . S
H444 C452 0.929 . S
H445 C454 0.930 . S
H446 C456 0.930 . S
H447 C459 0.929 . S
H448 C462 0.930 . S
H449 C464 0.960 . S
H450 C464 0.960 . S
H451 C464 0.960 . S
C452 H444 0.929 . S
C452 C453 1.377 . S
C452 C454 1.384 . S
C453 C452 1.377 . S
C453 C459 1.390 . S
C454 H445 0.930 . S
C454 C452 1.384 . S
C454 C455 1.372 . S
C455 C454 1.372 . S
C455 C456 1.400 . S
C455 C460 1.490 . S
C456 H446 0.930 . S
C456 C455 1.400 . S
C456 C459 1.386 . S
H457 C473 0.930 . S
H458 C474 0.931 . S
C459 H447 0.929 . S
C459 C453 1.390 . S
C459 C456 1.386 . S
C460 C455 1.490 . S
C460 C462 1.395 . S
C460 C463 1.403 . S
H461 C467 0.930 . S
C462 H448 0.930 . S
C462 C460 1.395 . S
C462 C465 1.403 . S
C463 C460 1.403 . S
C463 C464 1.524 . S
C463 C467 1.400 . S
C464 H449 0.960 . S
C464 H450 0.960 . S
C464 H451 0.960 . S
C464 C463 1.524 . S
C465 C462 1.403 . S
C465 C466 1.392 . S
C465 C469 1.495 . S
C466 C465 1.392 . S
C466 C467 1.385 . S
C466 C468 1.478 . S
C467 H461 0.930 . S
C467 C463 1.400 . S
C467 C466 1.385 . S
C468 C466 1.478 . S
C468 C470 1.381 . S
C468 C474 1.383 . S
C469 C465 1.495 . S
C469 H475 0.959 . S
C469 H476 0.961 . S
C469 H477 0.960 . S
C470 C468 1.381 . S
C470 C471 1.394 . S
C470 H478 0.930 . S
C471 C470 1.394 . S
C471 C472 1.383 . S
C471 H479 0.929 . S
C472 C471 1.383 . S
C472 C473 1.377 . S
C473 H457 0.930 . S
C473 C472 1.377 . S
C473 C474 1.379 . S
C474 H458 0.931 . S
C474 C468 1.383 . S
C474 C473 1.379 . S
H475 C469 0.959 . S
H476 C469 0.961 . S
H477 C469 0.960 . S
H478 C470 0.930 . S
H479 C471 0.929 . S
H480 C488 0.929 . S
H481 C490 0.930 . S
H482 C492 0.930 . S
H483 C495 0.929 . S
H484 C498 0.930 . S
H485 C500 0.960 . S
H486 C500 0.960 . S
H487 C500 0.960 . S
C488 H480 0.929 . S
C488 C489 1.377 . S
C488 C490 1.384 . S
C489 C488 1.377 . S
C489 C495 1.390 . S
C490 H481 0.930 . S
C490 C488 1.384 . S
C490 C491 1.372 . S
C491 C490 1.372 . S
C491 C492 1.400 . S
C491 C496 1.490 . S
C492 H482 0.930 . S
C492 C491 1.400 . S
C492 C495 1.386 . S
H493 C509 0.930 . S
H494 C510 0.931 . S
C495 H483 0.929 . S
C495 C489 1.390 . S
C495 C492 1.386 . S
C496 C491 1.490 . S
C496 C498 1.395 . S
C496 C499 1.403 . S
H497 C503 0.930 . S
C498 H484 0.930 . S
C498 C496 1.395 . S
C498 C501 1.403 . S
C499 C496 1.403 . S
C499 C500 1.524 . S
C499 C503 1.400 . S
C500 H485 0.960 . S
C500 H486 0.960 . S
C500 H487 0.960 . S
C500 C499 1.524 . S
C501 C498 1.403 . S
C501 C502 1.392 . S
C501 C505 1.495 . S
C502 C501 1.392 . S
C502 C503 1.385 . S
C502 C504 1.478 . S
C503 H497 0.930 . S
C503 C499 1.400 . S
C503 C502 1.385 . S
C504 C502 1.478 . S
C504 C506 1.381 . S
C504 C510 1.383 . S
C505 C501 1.495 . S
C505 H511 0.959 . S
C505 H512 0.961 . S
C505 H513 0.960 . S
C506 C504 1.381 . S
C506 C507 1.394 . S
C506 H514 0.930 . S
C507 C506 1.394 . S
C507 C508 1.383 . S
C507 H515 0.929 . S
C508 C507 1.383 . S
C508 C509 1.377 . S
C509 H493 0.930 . S
C509 C508 1.377 . S
C509 C510 1.379 . S
C510 H494 0.931 . S
C510 C504 1.383 . S
C510 C509 1.379 . S
H511 C505 0.959 . S
H512 C505 0.961 . S
H513 C505 0.960 . S
H514 C506 0.930 . S
H515 C507 0.929 . S
H516 C524 0.929 . S
H517 C526 0.930 . S
H518 C528 0.930 . S
H519 C531 0.929 . S
H520 C534 0.930 . S
H521 C536 0.960 . S
H522 C536 0.960 . S
H523 C536 0.960 . S
C524 H516 0.929 . S
C524 C525 1.377 . S
C524 C526 1.384 . S
C525 C524 1.377 . S
C525 C531 1.390 . S
C526 H517 0.930 . S
C526 C524 1.384 . S
C526 C527 1.372 . S
C527 C526 1.372 . S
C527 C528 1.400 . S
C527 C532 1.490 . S
C528 H518 0.930 . S
C528 C527 1.400 . S
C528 C531 1.386 . S
H529 C545 0.930 . S
H530 C546 0.931 . S
C531 H519 0.929 . S
C531 C525 1.390 . S
C531 C528 1.386 . S
C532 C527 1.490 . S
C532 C534 1.395 . S
C532 C535 1.403 . S
H533 C539 0.930 . S
C534 H520 0.930 . S
C534 C532 1.395 . S
C534 C537 1.403 . S
C535 C532 1.403 . S
C535 C536 1.524 . S
C535 C539 1.400 . S
C536 H521 0.960 . S
C536 H522 0.960 . S
C536 H523 0.960 . S
C536 C535 1.524 . S
C537 C534 1.403 . S
C537 C538 1.392 . S
C537 C541 1.495 . S
C538 C537 1.392 . S
C538 C539 1.385 . S
C538 C540 1.478 . S
C539 H533 0.930 . S
C539 C535 1.400 . S
C539 C538 1.385 . S
C540 C538 1.478 . S
C540 C542 1.381 . S
C540 C546 1.383 . S
C541 C537 1.495 . S
C541 H547 0.959 . S
C541 H548 0.961 . S
C541 H549 0.960 . S
C542 C540 1.381 . S
C542 C543 1.394 . S
C542 H550 0.930 . S
C543 C542 1.394 . S
C543 C544 1.383 . S
C543 H551 0.929 . S
C544 C543 1.383 . S
C544 C545 1.377 . S
C545 H529 0.930 . S
C545 C544 1.377 . S
C545 C546 1.379 . S
C546 H530 0.931 . S
C546 C540 1.383 . S
C546 C545 1.379 . S
H547 C541 0.959 . S
H548 C541 0.961 . S
H549 C541 0.960 . S
H550 C542 0.930 . S
H551 C543 0.929 . S
H552 C560 0.929 . S
H553 C562 0.930 . S
H554 C564 0.930 . S
H555 C567 0.929 . S
H556 C570 0.930 . S
H557 C572 0.960 . S
H558 C572 0.960 . S
H559 C572 0.960 . S
C560 H552 0.929 . S
C560 C561 1.377 . S
C560 C562 1.384 . S
C561 C560 1.377 . S
C561 C567 1.390 . S
C562 H553 0.930 . S
C562 C560 1.384 . S
C562 C563 1.372 . S
C563 C562 1.372 . S
C563 C564 1.400 . S
C563 C568 1.490 . S
C564 H554 0.930 . S
C564 C563 1.400 . S
C564 C567 1.386 . S
H565 C581 0.930 . S
H566 C582 0.931 . S
C567 H555 0.929 . S
C567 C561 1.390 . S
C567 C564 1.386 . S
C568 C563 1.490 . S
C568 C570 1.395 . S
C568 C571 1.403 . S
H569 C575 0.930 . S
C570 H556 0.930 . S
C570 C568 1.395 . S
C570 C573 1.403 . S
C571 C568 1.403 . S
C571 C572 1.524 . S
C571 C575 1.400 . S
C572 H557 0.960 . S
C572 H558 0.960 . S
C572 H559 0.960 . S
C572 C571 1.524 . S
C573 C570 1.403 . S
C573 C574 1.392 . S
C573 C577 1.495 . S
C574 C573 1.392 . S
C574 C575 1.385 . S
C574 C576 1.478 . S
C575 H569 0.930 . S
C575 C571 1.400 . S
C575 C574 1.385 . S
C576 C574 1.478 . S
C576 C578 1.381 . S
C576 C582 1.383 . S
C577 C573 1.495 . S
C577 H583 0.959 . S
C577 H584 0.961 . S
C577 H585 0.960 . S
C578 C576 1.381 . S
C578 C579 1.394 . S
C578 H586 0.930 . S
C579 C578 1.394 . S
C579 C580 1.383 . S
C579 H587 0.929 . S
C580 C579 1.383 . S
C580 C581 1.377 . S
C581 H565 0.930 . S
C581 C580 1.377 . S
C581 C582 1.379 . S
C582 H566 0.931 . S
C582 C576 1.383 . S
C582 C581 1.379 . S
H583 C577 0.959 . S
H584 C577 0.961 . S
H585 C577 0.960 . S
H586 C578 0.930 . S
H587 C579 0.929 . S
H588 C596 0.929 . S
H589 C598 0.930 . S
H590 C600 0.930 . S
H591 C603 0.929 . S
H592 C606 0.930 . S
H593 C608 0.960 . S
H594 C608 0.960 . S
H595 C608 0.960 . S
C596 H588 0.929 . S
C596 C597 1.377 . S
C596 C598 1.384 . S
C597 C596 1.377 . S
C597 C603 1.390 . S
C598 H589 0.930 . S
C598 C596 1.384 . S
C598 C599 1.372 . S
C599 C598 1.372 . S
C599 C600 1.400 . S
C599 C604 1.490 . S
C600 H590 0.930 . S
C600 C599 1.400 . S
C600 C603 1.386 . S
H601 C617 0.930 . S
H602 C618 0.931 . S
C603 H591 0.929 . S
C603 C597 1.390 . S
C603 C600 1.386 . S
C604 C599 1.490 . S
C604 C606 1.395 . S
C604 C607 1.403 . S
H605 C611 0.930 . S
C606 H592 0.930 . S
C606 C604 1.395 . S
C606 C609 1.403 . S
C607 C604 1.403 . S
C607 C608 1.524 . S
C607 C611 1.400 . S
C608 H593 0.960 . S
C608 H594 0.960 . S
C608 H595 0.960 . S
C608 C607 1.524 . S
C609 C606 1.403 . S
C609 C610 1.392 . S
C609 C613 1.495 . S
C610 C609 1.392 . S
C610 C611 1.385 . S
C610 C612 1.478 . S
C611 H605 0.930 . S
C611 C607 1.400 . S
C611 C610 1.385 . S
C612 C610 1.478 . S
C612 C614 1.381 . S
C612 C618 1.383 . S
C613 C609 1.495 . S
C613 H619 0.959 . S
C613 H620 0.961 . S
C613 H621 0.960 . S
C614 C612 1.381 . S
C614 C615 1.394 . S
C614 H622 0.930 . S
C615 C614 1.394 . S
C615 C616 1.383 . S
C615 H623 0.929 . S
C616 C615 1.383 . S
C616 C617 1.377 . S
C617 H601 0.930 . S
C617 C616 1.377 . S
C617 C618 1.379 . S
C618 H602 0.931 . S
C618 C612 1.383 . S
C618 C617 1.379 . S
H619 C613 0.959 . S
H620 C613 0.961 . S
H621 C613 0.960 . S
H622 C614 0.930 . S
H623 C615 0.929 . S
H624 C632 0.929 . S
H625 C634 0.930 . S
H626 C636 0.930 . S
H627 C639 0.929 . S
H628 C642 0.930 . S
H629 C644 0.960 . S
H630 C644 0.960 . S
H631 C644 0.960 . S
C632 H624 0.929 . S
C632 C633 1.377 . S
C632 C634 1.384 . S
C633 C632 1.377 . S
C633 C639 1.390 . S
C634 H625 0.930 . S
C634 C632 1.384 . S
C634 C635 1.372 . S
C635 C634 1.372 . S
C635 C636 1.400 . S
C635 C640 1.490 . S
C636 H626 0.930 . S
C636 C635 1.400 . S
C636 C639 1.386 . S
H637 C653 0.930 . S
H638 C654 0.931 . S
C639 H627 0.929 . S
C639 C633 1.390 . S
C639 C636 1.386 . S
C640 C635 1.490 . S
C640 C642 1.395 . S
C640 C643 1.403 . S
H641 C647 0.930 . S
C642 H628 0.930 . S
C642 C640 1.395 . S
C642 C645 1.403 . S
C643 C640 1.403 . S
C643 C644 1.524 . S
C643 C647 1.400 . S
C644 H629 0.960 . S
C644 H630 0.960 . S
C644 H631 0.960 . S
C644 C643 1.524 . S
C645 C642 1.403 . S
C645 C646 1.392 . S
C645 C649 1.495 . S
C646 C645 1.392 . S
C646 C647 1.385 . S
C646 C648 1.478 . S
C647 H641 0.930 . S
C647 C643 1.400 . S
C647 C646 1.385 . S
C648 C646 1.478 . S
C648 C650 1.381 . S
C648 C654 1.383 . S
C649 C645 1.495 . S
C649 H655 0.959 . S
C649 H656 0.961 . S
C649 H657 0.960 . S
C650 C648 1.381 . S
C650 C651 1.394 . S
C650 H658 0.930 . S
C651 C650 1.394 . S
C651 C652 1.383 . S
C651 H659 0.929 . S
C652 C651 1.383 . S
C652 C653 1.377 . S
C653 H637 0.930 . S
C653 C652 1.377 . S
C653 C654 1.379 . S
C654 H638 0.931 . S
C654 C648 1.383 . S
C654 C653 1.379 . S
H655 C649 0.959 . S
H656 C649 0.961 . S
H657 C649 0.960 . S
H658 C650 0.930 . S
H659 C651 0.929 . S
H660 C668 0.929 . S
H661 C670 0.930 . S
H662 C672 0.930 . S
H663 C675 0.929 . S
H664 C678 0.930 . S
H665 C680 0.960 . S
H666 C680 0.960 . S
H667 C680 0.960 . S
C668 H660 0.929 . S
C668 C669 1.377 . S
C668 C670 1.384 . S
C669 C668 1.377 . S
C669 C675 1.390 . S
C670 H661 0.930 . S
C670 C668 1.384 . S
C670 C671 1.372 . S
C671 C670 1.372 . S
C671 C672 1.400 . S
C671 C676 1.490 . S
C672 H662 0.930 . S
C672 C671 1.400 . S
C672 C675 1.386 . S
H673 C689 0.930 . S
H674 C690 0.931 . S
C675 H663 0.929 . S
C675 C669 1.390 . S
C675 C672 1.386 . S
C676 C671 1.490 . S
C676 C678 1.395 . S
C676 C679 1.403 . S
H677 C683 0.930 . S
C678 H664 0.930 . S
C678 C676 1.395 . S
C678 C681 1.403 . S
C679 C676 1.403 . S
C679 C680 1.524 . S
C679 C683 1.400 . S
C680 H665 0.960 . S
C680 H666 0.960 . S
C680 H667 0.960 . S
C680 C679 1.524 . S
C681 C678 1.403 . S
C681 C682 1.392 . S
C681 C685 1.495 . S
C682 C681 1.392 . S
C682 C683 1.385 . S
C682 C684 1.478 . S
C683 H677 0.930 . S
C683 C679 1.400 . S
C683 C682 1.385 . S
C684 C682 1.478 . S
C684 C686 1.381 . S
C684 C690 1.383 . S
C685 C681 1.495 . S
C685 H691 0.959 . S
C685 H692 0.961 . S
C685 H693 0.960 . S
C686 C684 1.381 . S
C686 C687 1.394 . S
C686 H694 0.930 . S
C687 C686 1.394 . S
C687 C688 1.383 . S
C687 H695 0.929 . S
C688 C687 1.383 . S
C688 C689 1.377 . S
C689 H673 0.930 . S
C689 C688 1.377 . S
C689 C690 1.379 . S
C690 H674 0.931 . S
C690 C684 1.383 . S
C690 C689 1.379 . S
H691 C685 0.959 . S
H692 C685 0.961 . S
H693 C685 0.960 . S
H694 C686 0.930 . S
H695 C687 0.929 . S
H696 C704 0.929 . S
H697 C706 0.930 . S
H698 C708 0.930 . S
H699 C711 0.929 . S
H700 C714 0.930 . S
H701 C716 0.960 . S
H702 C716 0.960 . S
H703 C716 0.960 . S
C704 H696 0.929 . S
C704 C705 1.377 . S
C704 C706 1.384 . S
C705 C704 1.377 . S
C705 C711 1.390 . S
C706 H697 0.930 . S
C706 C704 1.384 . S
C706 C707 1.372 . S
C707 C706 1.372 . S
C707 C708 1.400 . S
C707 C712 1.490 . S
C708 H698 0.930 . S
C708 C707 1.400 . S
C708 C711 1.386 . S
H709 C725 0.930 . S
H710 C726 0.931 . S
C711 H699 0.929 . S
C711 C705 1.390 . S
C711 C708 1.386 . S
C712 C707 1.490 . S
C712 C714 1.395 . S
C712 C715 1.403 . S
H713 C719 0.930 . S
C714 H700 0.930 . S
C714 C712 1.395 . S
C714 C717 1.403 . S
C715 C712 1.403 . S
C715 C716 1.524 . S
C715 C719 1.400 . S
C716 H701 0.960 . S
C716 H702 0.960 . S
C716 H703 0.960 . S
C716 C715 1.524 . S
C717 C714 1.403 . S
C717 C718 1.392 . S
C717 C721 1.495 . S
C718 C717 1.392 . S
C718 C719 1.385 . S
C718 C720 1.478 . S
C719 H713 0.930 . S
C719 C715 1.400 . S
C719 C718 1.385 . S
C720 C718 1.478 . S
C720 C722 1.381 . S
C720 C726 1.383 . S
C721 C717 1.495 . S
C721 H727 0.959 . S
C721 H728 0.961 . S
C721 H729 0.960 . S
C722 C720 1.381 . S
C722 C723 1.394 . S
C722 H730 0.930 . S
C723 C722 1.394 . S
C723 C724 1.383 . S
C723 H731 0.929 . S
C724 C723 1.383 . S
C724 C725 1.377 . S
C725 H709 0.930 . S
C725 C724 1.377 . S
C725 C726 1.379 . S
C726 H710 0.931 . S
C726 C720 1.383 . S
C726 C725 1.379 . S
H727 C721 0.959 . S
H728 C721 0.961 . S
H729 C721 0.960 . S
H730 C722 0.930 . S
H731 C723 0.929 . S
H732 C740 0.929 . S
H733 C742 0.930 . S
H734 C744 0.930 . S
H735 C747 0.929 . S
H736 C750 0.930 . S
H737 C752 0.960 . S
H738 C752 0.960 . S
H739 C752 0.960 . S
C740 H732 0.929 . S
C740 C741 1.377 . S
C740 C742 1.384 . S
C741 C740 1.377 . S
C741 C747 1.390 . S
C742 H733 0.930 . S
C742 C740 1.384 . S
C742 C743 1.372 . S
C743 C742 1.372 . S
C743 C744 1.400 . S
C743 C748 1.490 . S
C744 H734 0.930 . S
C744 C743 1.400 . S
C744 C747 1.386 . S
H745 C761 0.930 . S
H746 C762 0.931 . S
C747 H735 0.929 . S
C747 C741 1.390 . S
C747 C744 1.386 . S
C748 C743 1.490 . S
C748 C750 1.395 . S
C748 C751 1.403 . S
H749 C755 0.930 . S
C750 H736 0.930 . S
C750 C748 1.395 . S
C750 C753 1.403 . S
C751 C748 1.403 . S
C751 C752 1.524 . S
C751 C755 1.400 . S
C752 H737 0.960 . S
C752 H738 0.960 . S
C752 H739 0.960 . S
C752 C751 1.524 . S
C753 C750 1.403 . S
C753 C754 1.392 . S
C753 C757 1.495 . S
C754 C753 1.392 . S
C754 C755 1.385 . S
C754 C756 1.478 . S
C755 H749 0.930 . S
C755 C751 1.400 . S
C755 C754 1.385 . S
C756 C754 1.478 . S
C756 C758 1.381 . S
C756 C762 1.383 . S
C757 C753 1.495 . S
C757 H763 0.959 . S
C757 H764 0.961 . S
C757 H765 0.960 . S
C758 C756 1.381 . S
C758 C759 1.394 . S
C758 H766 0.930 . S
C759 C758 1.394 . S
C759 C760 1.383 . S
C759 H767 0.929 . S
C760 C759 1.383 . S
C760 C761 1.377 . S
C761 H745 0.930 . S
C761 C760 1.377 . S
C761 C762 1.379 . S
C762 H746 0.931 . S
C762 C756 1.383 . S
C762 C761 1.379 . S
H763 C757 0.959 . S
H764 C757 0.961 . S
H765 C757 0.960 . S
H766 C758 0.930 . S
H767 C759 0.929 . S
H768 C776 0.929 . S
H769 C778 0.930 . S
H770 C780 0.930 . S
H771 C783 0.929 . S
H772 C786 0.930 . S
H773 C788 0.941 1_545 S
H774 C788 0.959 1_545 S
H775 C788 0.980 . S
C776 H768 0.929 . S
C776 C777 1.377 . S
C776 C778 1.384 . S
C777 C776 1.377 . S
C777 C783 1.390 . S
C778 H769 0.930 . S
C778 C776 1.384 . S
C778 C779 1.372 . S
C779 C778 1.372 . S
C779 C780 1.400 . S
C779 C784 1.490 . S
C780 H770 0.930 . S
C780 C779 1.400 . S
C780 C783 1.386 . S
H781 C797 0.930 . S
H782 C798 0.931 . S
C783 H771 0.929 . S
C783 C777 1.390 . S
C783 C780 1.386 . S
C784 C779 1.490 . S
C784 C786 1.395 . S
C784 C787 1.403 . S
H785 C791 0.930 . S
C786 H772 0.930 . S
C786 C784 1.395 . S
C786 C789 1.372 1_565 S
C787 C784 1.403 . S
C787 C788 1.524 . S
C787 C791 1.400 1_565 S
C788 H773 0.941 1_565 S
C788 H774 0.959 1_565 S
C788 H775 0.980 . S
C788 C787 1.524 . S
C789 C786 1.372 1_545 S
C789 C790 1.423 . S
C789 C793 1.495 . S
C790 C789 1.423 . S
C790 C791 1.385 . S
C790 C792 1.478 . S
C791 H785 0.930 . S
C791 C787 1.400 1_545 S
C791 C790 1.385 . S
C792 C790 1.478 . S
C792 C794 1.381 . S
C792 C798 1.383 . S
C793 C789 1.495 . S
C793 H799 0.918 1_545 S
C793 H800 0.961 . S
C793 H801 1.004 . S
C794 C792 1.381 . S
C794 C795 1.394 . S
C794 H802 0.930 . S
C795 C794 1.394 . S
C795 C796 1.383 . S
C795 H803 0.929 . S
C796 C795 1.383 . S
C796 C797 1.377 . S
C797 H781 0.930 . S
C797 C796 1.377 . S
C797 C798 1.379 . S
C798 H782 0.931 . S
C798 C792 1.383 . S
C798 C797 1.379 . S
H799 C793 0.918 1_565 S
H800 C793 0.961 . S
H801 C793 1.004 . S
H802 C794 0.930 . S
H803 C795 0.929 . S
H804 C812 0.929 . S
H805 C814 0.930 . S
H806 C816 0.930 . S
H807 C819 0.929 . S
H808 C822 0.930 . S
H809 C824 0.960 . S
H810 C824 0.960 . S
H811 C824 0.960 . S
C812 H804 0.929 . S
C812 C813 1.377 . S
C812 C814 1.384 . S
C813 C812 1.377 . S
C813 C819 1.390 . S
C814 H805 0.930 . S
C814 C812 1.384 . S
C814 C815 1.372 . S
C815 C814 1.372 . S
C815 C816 1.400 . S
C815 C820 1.490 . S
C816 H806 0.930 . S
C816 C815 1.400 . S
C816 C819 1.386 . S
H817 C833 0.930 . S
H818 C834 0.931 . S
C819 H807 0.929 . S
C819 C813 1.390 . S
C819 C816 1.386 . S
C820 C815 1.490 . S
C820 C822 1.395 1_655 S
C820 C823 1.403 . S
H821 C827 0.932 . S
C822 H808 0.930 . S
C822 C820 1.395 1_455 S
C822 C825 1.403 . S
C823 C820 1.403 . S
C823 C824 1.524 . S
C823 C827 1.400 1_655 S
C824 H809 0.960 . S
C824 H810 0.960 . S
C824 H811 0.960 . S
C824 C823 1.524 . S
C825 C822 1.403 . S
C825 C826 1.392 . S
C825 C829 1.495 . S
C826 C825 1.392 . S
C826 C827 1.385 . S
C826 C828 1.478 . S
C827 H821 0.932 . S
C827 C823 1.400 1_455 S
C827 C826 1.385 . S
C828 C826 1.478 . S
C828 C830 1.381 . S
C828 C834 1.383 . S
C829 C825 1.495 . S
C829 H835 0.959 . S
C829 H836 0.961 . S
C829 H837 0.960 . S
C830 C828 1.381 . S
C830 C831 1.394 . S
C830 H838 0.930 . S
C831 C830 1.394 . S
C831 C832 1.383 . S
C831 H839 0.929 . S
C832 C831 1.383 . S
C832 C833 1.377 . S
C833 H817 0.930 . S
C833 C832 1.377 . S
C833 C834 1.379 . S
C834 H818 0.931 . S
C834 C828 1.383 . S
C834 C833 1.379 . S
H835 C829 0.959 . S
H836 C829 0.961 . S
H837 C829 0.960 . S
H838 C830 0.930 . S
H839 C831 0.929 . S
H840 C848 0.929 . S
H841 C850 0.930 . S
H842 C852 0.930 . S
H843 C855 0.929 . S
H844 C858 0.930 . S
H845 C860 0.960 . S
H846 C860 0.960 . S
H847 C860 0.960 1_545 S
C848 H840 0.929 . S
C848 C849 1.377 . S
C848 C850 1.384 . S
C849 C848 1.377 . S
C849 C855 1.390 . S
C850 H841 0.930 . S
C850 C848 1.384 . S
C850 C851 1.372 . S
C851 C850 1.372 . S
C851 C852 1.400 . S
C851 C856 1.490 . S
C852 H842 0.930 . S
C852 C851 1.400 . S
C852 C855 1.386 . S
H853 C869 0.930 . S
H854 C870 0.931 . S
C855 H843 0.929 . S
C855 C849 1.390 . S
C855 C852 1.386 . S
C856 C851 1.490 . S
C856 C858 1.395 . S
C856 C859 1.403 1_545 S
H857 C863 0.930 . S
C858 H844 0.930 . S
C858 C856 1.395 . S
C858 C861 1.403 . S
C859 C856 1.403 1_565 S
C859 C860 1.524 . S
C859 C863 1.400 . S
C860 H845 0.960 . S
C860 H846 0.960 . S
C860 H847 0.960 1_565 S
C860 C859 1.524 . S
C861 C858 1.403 . S
C861 C862 1.392 1_545 S
C861 C865 1.495 . S
C862 C861 1.392 1_565 S
C862 C863 1.385 . S
C862 C864 1.478 . S
C863 H857 0.930 . S
C863 C859 1.400 . S
C863 C862 1.385 . S
C864 C862 1.478 . S
C864 C866 1.381 . S
C864 C870 1.383 . S
C865 C861 1.495 . S
C865 H871 0.959 . S
C865 H872 0.961 . S
C865 H873 0.960 1_545 S
C866 C864 1.381 . S
C866 C867 1.394 . S
C866 H874 0.930 . S
C867 C866 1.394 . S
C867 C868 1.383 . S
C867 H875 0.929 . S
C868 C867 1.383 . S
C868 C869 1.377 . S
C869 H853 0.930 . S
C869 C868 1.377 . S
C869 C870 1.379 . S
C870 H854 0.931 . S
C870 C864 1.383 . S
C870 C869 1.379 . S
H871 C865 0.959 . S
H872 C865 0.961 . S
H873 C865 0.960 1_565 S
H874 C866 0.930 . S
H875 C867 0.929 . S
H876 C884 0.929 . S
H877 C886 0.930 . S
H878 C888 0.930 . S
H879 C891 0.929 . S
H880 C894 0.930 . S
H881 C896 0.960 . S
H882 C896 0.960 . S
H883 C896 0.960 . S
C884 H876 0.929 . S
C884 C885 1.377 . S
C884 C886 1.384 . S
C885 C884 1.377 . S
C885 C891 1.390 . S
C886 H877 0.930 . S
C886 C884 1.384 . S
C886 C887 1.372 . S
C887 C886 1.372 . S
C887 C888 1.400 . S
C887 C892 1.490 . S
C888 H878 0.930 . S
C888 C887 1.400 . S
C888 C891 1.386 . S
H889 C905 0.930 . S
H890 C906 0.931 . S
C891 H879 0.929 . S
C891 C885 1.390 . S
C891 C888 1.386 . S
C892 C887 1.490 . S
C892 C894 1.395 1_455 S
C892 C895 1.403 . S
H893 C899 0.929 . S
C894 H880 0.930 . S
C894 C892 1.395 1_655 S
C894 C897 1.403 . S
C895 C892 1.403 . S
C895 C896 1.524 . S
C895 C899 1.358 1_455 S
C896 H881 0.960 . S
C896 H882 0.960 . S
C896 H883 0.960 . S
C896 C895 1.524 . S
C897 C894 1.403 . S
C897 C898 1.392 . S
C897 C901 1.495 . S
C898 C897 1.392 . S
C898 C899 1.430 . S
C898 C900 1.478 . S
C899 H893 0.929 . S
C899 C895 1.358 1_655 S
C899 C898 1.430 . S
C900 C898 1.478 . S
C900 C902 1.381 . S
C900 C906 1.383 . S
C901 C897 1.495 . S
C901 H907 0.959 . S
C901 H908 0.961 . S
C901 H909 0.960 . S
C902 C900 1.381 . S
C902 C903 1.394 . S
C902 H910 0.930 . S
C903 C902 1.394 . S
C903 C904 1.383 . S
C903 H911 0.929 . S
C904 C903 1.383 . S
C904 C905 1.377 . S
C905 H889 0.930 . S
C905 C904 1.377 . S
C905 C906 1.379 . S
C906 H890 0.931 . S
C906 C900 1.383 . S
C906 C905 1.379 . S
H907 C901 0.959 . S
H908 C901 0.961 . S
H909 C901 0.960 . S
H910 C902 0.930 . S
H911 C903 0.929 . S
H912 C920 0.929 . S
H913 C922 0.930 . S
H914 C924 0.930 . S
H915 C927 0.929 . S
H916 C930 0.930 . S
H917 C932 0.927 1_545 S
H918 C932 0.959 1_545 S
H919 C932 0.995 . S
C920 H912 0.929 . S
C920 C921 1.377 . S
C920 C922 1.384 . S
C921 C920 1.377 . S
C921 C927 1.390 . S
C922 H913 0.930 . S
C922 C920 1.384 . S
C922 C923 1.372 . S
C923 C922 1.372 . S
C923 C924 1.400 . S
C923 C928 1.490 . S
C924 H914 0.930 . S
C924 C923 1.400 . S
C924 C927 1.386 . S
H925 C941 0.930 . S
H926 C942 0.931 . S
C927 H915 0.929 . S
C927 C921 1.390 . S
C927 C924 1.386 . S
C928 C923 1.490 . S
C928 C930 1.395 . S
C928 C931 1.403 . S
H929 C935 0.930 . S
C930 H916 0.930 . S
C930 C928 1.395 . S
C930 C933 1.364 1_565 S
C931 C928 1.403 . S
C931 C932 1.525 . S
C931 C935 1.400 1_565 S
C932 H917 0.927 1_565 S
C932 H918 0.959 1_565 S
C932 H919 0.995 . S
C932 C931 1.525 . S
C933 C930 1.364 1_545 S
C933 C934 1.430 . S
C933 C937 1.497 . S
C934 C933 1.430 . S
C934 C935 1.385 . S
C934 C936 1.478 . S
C935 H929 0.930 . S
C935 C931 1.400 1_545 S
C935 C934 1.385 . S
C936 C934 1.478 . S
C936 C938 1.381 . S
C936 C942 1.383 . S
C937 C933 1.497 . S
C937 H943 0.959 1_545 S
C937 H944 0.963 . S
C937 H945 0.960 . S
C938 C936 1.381 . S
C938 C939 1.394 . S
C938 H946 0.930 . S
C939 C938 1.394 . S
C939 C940 1.383 . S
C939 H947 0.929 . S
C940 C939 1.383 . S
C940 C941 1.377 . S
C941 H925 0.930 . S
C941 C940 1.377 . S
C941 C942 1.379 . S
C942 H926 0.931 . S
C942 C936 1.383 . S
C942 C941 1.379 . S
H943 C937 0.959 1_565 S
H944 C937 0.963 . S
H945 C937 0.960 . S
H946 C938 0.930 . S
H947 C939 0.929 . S
H948 C956 0.929 . S
H949 C958 0.930 . S
H950 C960 0.930 . S
H951 C963 0.929 . S
H952 C966 0.930 . S
H953 C968 0.960 . S
H954 C968 0.960 . S
H955 C968 0.960 . S
C956 H948 0.929 . S
C956 C957 1.377 . S
C956 C958 1.384 . S
C957 C956 1.377 . S
C957 C963 1.390 . S
C958 H949 0.930 . S
C958 C956 1.384 . S
C958 C959 1.372 . S
C959 C958 1.372 . S
C959 C960 1.400 . S
C959 C964 1.490 . S
C960 H950 0.930 . S
C960 C959 1.400 . S
C960 C963 1.386 . S
H961 C977 0.930 . S
H962 C978 0.931 . S
C963 H951 0.929 . S
C963 C957 1.390 . S
C963 C960 1.386 . S
C964 C959 1.490 . S
C964 C966 1.395 1_655 S
C964 C967 1.403 . S
H965 C971 0.929 1_655 S
C966 H952 0.930 . S
C966 C964 1.395 1_455 S
C966 C969 1.403 . S
C967 C964 1.403 . S
C967 C968 1.524 . S
C967 C971 1.384 1_655 S
C968 H953 0.960 . S
C968 H954 0.960 . S
C968 H955 0.960 . S
C968 C967 1.524 . S
C969 C966 1.403 . S
C969 C970 1.392 . S
C969 C973 1.495 . S
C970 C969 1.392 . S
C970 C971 1.402 . S
C970 C972 1.478 . S
C971 H965 0.929 1_455 S
C971 C967 1.384 1_455 S
C971 C970 1.402 . S
C972 C970 1.478 . S
C972 C974 1.381 . S
C972 C978 1.383 . S
C973 C969 1.495 . S
C973 H979 0.959 . S
C973 H980 0.961 . S
C973 H981 0.960 . S
C974 C972 1.381 . S
C974 C975 1.394 . S
C974 H982 0.930 . S
C975 C974 1.394 . S
C975 C976 1.383 . S
C975 H983 0.929 . S
C976 C975 1.383 . S
C976 C977 1.377 . S
C977 H961 0.930 . S
C977 C976 1.377 . S
C977 C978 1.379 . S
C978 H962 0.931 . S
C978 C972 1.383 . S
C978 C977 1.379 . S
H979 C973 0.959 . S
H980 C973 0.961 . S
H981 C973 0.960 . S
H982 C974 0.930 . S
H983 C975 0.929 . S
H984 C992 0.929 . S
H985 C994 0.930 . S
H986 C996 0.930 . S
H987 C999 0.929 . S
H988 C1002 0.930 . S
H989 C1004 0.960 . S
H990 C1004 0.960 . S
H991 C1004 0.960 . S
C992 H984 0.929 . S
C992 C993 1.377 . S
C992 C994 1.384 . S
C993 C992 1.377 . S
C993 C999 1.390 . S
C994 H985 0.930 . S
C994 C992 1.384 . S
C994 C995 1.372 . S
C995 C994 1.372 . S
C995 C996 1.400 . S
C995 C1000 1.490 . S
C996 H986 0.930 . S
C996 C995 1.400 . S
C996 C999 1.386 . S
H997 C1013 0.930 . S
H998 C1014 0.931 . S
C999 H987 0.929 . S
C999 C993 1.390 . S
C999 C996 1.386 . S
C1000 C995 1.490 . S
C1000 C1002 1.395 . S
C1000 C1003 1.403 . S
H1001 C1007 0.930 . S
C1002 H988 0.930 . S
C1002 C1000 1.395 . S
C1002 C1005 1.403 1_565 S
C1003 C1000 1.403 . S
C1003 C1004 1.524 . S
C1003 C1007 1.400 1_565 S
C1004 H989 0.960 . S
C1004 H990 0.960 . S
C1004 H991 0.960 . S
C1004 C1003 1.524 . S
C1005 C1002 1.403 1_545 S
C1005 C1006 1.392 . S
C1005 C1009 1.495 . S
C1006 C1005 1.392 . S
C1006 C1007 1.385 . S
C1006 C1008 1.478 . S
C1007 H1001 0.930 . S
C1007 C1003 1.400 1_545 S
C1007 C1006 1.385 . S
C1008 C1006 1.478 . S
C1008 C1010 1.381 . S
C1008 C1014 1.383 . S
C1009 C1005 1.495 . S
C1009 H1015 0.959 . S
C1009 H1016 0.961 . S
C1009 H1017 0.960 . S
C1010 C1008 1.381 . S
C1010 C1011 1.394 . S
C1010 H1018 0.930 . S
C1011 C1010 1.394 . S
C1011 C1012 1.383 . S
C1011 H1019 0.929 . S
C1012 C1011 1.383 . S
C1012 C1013 1.377 . S
C1013 H997 0.930 . S
C1013 C1012 1.377 . S
C1013 C1014 1.379 . S
C1014 H998 0.931 . S
C1014 C1008 1.383 . S
C1014 C1013 1.379 . S
H1015 C1009 0.959 . S
H1016 C1009 0.961 . S
H1017 C1009 0.960 . S
H1018 C1010 0.930 . S
H1019 C1011 0.929 . S
H1020 C1028 0.929 . S
H1021 C1030 0.930 . S
H1022 C1032 0.930 . S
H1023 C1035 0.929 . S
H1024 C1038 0.930 . S
H1025 C1040 0.960 1_655 S
H1026 C1040 0.960 . S
H1027 C1040 0.960 . S
C1028 H1020 0.929 . S
C1028 C1029 1.377 . S
C1028 C1030 1.384 . S
C1029 C1028 1.377 . S
C1029 C1035 1.390 . S
C1030 H1021 0.930 . S
C1030 C1028 1.384 . S
C1030 C1031 1.372 . S
C1031 C1030 1.372 . S
C1031 C1032 1.400 . S
C1031 C1036 1.490 . S
C1032 H1022 0.930 . S
C1032 C1031 1.400 . S
C1032 C1035 1.386 . S
H1033 C1049 0.930 . S
H1034 C1050 0.931 . S
C1035 H1023 0.929 . S
C1035 C1029 1.390 . S
C1035 C1032 1.386 . S
C1036 C1031 1.490 . S
C1036 C1038 1.395 . S
C1036 C1039 1.403 . S
H1037 C1043 0.930 . S
C1038 H1024 0.930 . S
C1038 C1036 1.395 . S
C1038 C1041 1.396 1_455 S
C1039 C1036 1.403 . S
C1039 C1040 1.524 . S
C1039 C1043 1.400 1_455 S
C1040 H1025 0.960 1_455 S
C1040 H1026 0.960 . S
C1040 H1027 0.960 . S
C1040 C1039 1.524 . S
C1041 C1038 1.396 1_655 S
C1041 C1042 1.399 . S
C1041 C1045 1.496 . S
C1042 C1041 1.399 . S
C1042 C1043 1.385 . S
C1042 C1044 1.478 . S
C1043 H1037 0.930 . S
C1043 C1039 1.400 1_655 S
C1043 C1042 1.385 . S
C1044 C1042 1.478 . S
C1044 C1046 1.381 . S
C1044 C1050 1.383 . S
C1045 C1041 1.496 . S
C1045 H1051 0.959 1_655 S
C1045 H1052 0.961 . S
C1045 H1053 0.960 . S
C1046 C1044 1.381 . S
C1046 C1047 1.394 . S
C1046 H1054 0.930 . S
C1047 C1046 1.394 . S
C1047 C1048 1.383 . S
C1047 H1055 0.929 . S
C1048 C1047 1.383 . S
C1048 C1049 1.377 . S
C1049 H1033 0.930 . S
C1049 C1048 1.377 . S
C1049 C1050 1.379 . S
C1050 H1034 0.931 . S
C1050 C1044 1.383 . S
C1050 C1049 1.379 . S
H1051 C1045 0.959 1_455 S
H1052 C1045 0.961 . S
H1053 C1045 0.960 . S
H1054 C1046 0.930 . S
H1055 C1047 0.929 . S
H1056 C1064 0.929 . S
H1057 C1066 0.930 . S
H1058 C1068 0.930 . S
H1059 C1071 0.929 . S
H1060 C1074 0.930 . S
H1061 C1076 0.960 . S
H1062 C1076 0.960 . S
H1063 C1076 0.960 . S
C1064 H1056 0.929 . S
C1064 C1065 1.377 . S
C1064 C1066 1.384 . S
C1065 C1064 1.377 . S
C1065 C1071 1.390 . S
C1066 H1057 0.930 . S
C1066 C1064 1.384 . S
C1066 C1067 1.372 . S
C1067 C1066 1.372 . S
C1067 C1068 1.400 . S
C1067 C1072 1.490 . S
C1068 H1058 0.930 . S
C1068 C1067 1.400 . S
C1068 C1071 1.386 . S
H1069 C1085 0.930 . S
H1070 C1086 0.931 . S
C1071 H1059 0.929 . S
C1071 C1065 1.390 . S
C1071 C1068 1.386 . S
C1072 C1067 1.490 . S
C1072 C1074 1.395 1_556 S
C1072 C1075 1.403 . S
H1073 C1079 0.929 1_556 S
C1074 H1060 0.930 . S
C1074 C1072 1.395 1_554 S
C1074 C1077 1.403 . S
C1075 C1072 1.403 . S
C1075 C1076 1.524 . S
C1075 C1079 1.384 1_556 S
C1076 H1061 0.960 . S
C1076 H1062 0.960 . S
C1076 H1063 0.960 . S
C1076 C1075 1.524 . S
C1077 C1074 1.403 . S
C1077 C1078 1.392 . S
C1077 C1081 1.495 . S
C1078 C1077 1.392 . S
C1078 C1079 1.402 . S
C1078 C1080 1.478 . S
C1079 H1073 0.929 1_554 S
C1079 C1075 1.384 1_554 S
C1079 C1078 1.402 . S
C1080 C1078 1.478 . S
C1080 C1082 1.381 . S
C1080 C1086 1.383 . S
C1081 C1077 1.495 . S
C1081 H1087 0.959 . S
C1081 H1088 0.961 . S
C1081 H1089 0.960 . S
C1082 C1080 1.381 . S
C1082 C1083 1.394 . S
C1082 H1090 0.930 . S
C1083 C1082 1.394 . S
C1083 C1084 1.383 . S
C1083 H1091 0.929 . S
C1084 C1083 1.383 . S
C1084 C1085 1.377 . S
C1085 H1069 0.930 . S
C1085 C1084 1.377 . S
C1085 C1086 1.379 . S
C1086 H1070 0.931 . S
C1086 C1080 1.383 . S
C1086 C1085 1.379 . S
H1087 C1081 0.959 . S
H1088 C1081 0.961 . S
H1089 C1081 0.960 . S
H1090 C1082 0.930 . S
H1091 C1083 0.929 . S
H1092 C1100 0.929 . S
H1093 C1102 0.930 . S
H1094 C1104 0.930 . S
H1095 C1107 0.929 . S
H1096 C1110 0.930 . S
H1097 C1112 0.960 . S
H1098 C1112 0.960 . S
H1099 C1112 0.960 . S
C1100 H1092 0.929 . S
C1100 C1101 1.377 . S
C1100 C1102 1.384 . S
C1101 C1100 1.377 . S
C1101 C1107 1.390 . S
C1102 H1093 0.930 . S
C1102 C1100 1.384 . S
C1102 C1103 1.372 . S
C1103 C1102 1.372 . S
C1103 C1104 1.400 . S
C1103 C1108 1.490 . S
C1104 H1094 0.930 . S
C1104 C1103 1.400 . S
C1104 C1107 1.386 . S
H1105 C1121 0.930 . S
H1106 C1122 0.931 . S
C1107 H1095 0.929 . S
C1107 C1101 1.390 . S
C1107 C1104 1.386 . S
C1108 C1103 1.490 . S
C1108 C1110 1.395 . S
C1108 C1111 1.403 1_554 S
H1109 C1115 0.930 . S
C1110 H1096 0.930 . S
C1110 C1108 1.395 . S
C1110 C1113 1.403 . S
C1111 C1108 1.403 1_556 S
C1111 C1112 1.524 . S
C1111 C1115 1.400 . S
C1112 H1097 0.960 . S
C1112 H1098 0.960 . S
C1112 H1099 0.960 . S
C1112 C1111 1.524 . S
C1113 C1110 1.403 . S
C1113 C1114 1.392 1_554 S
C1113 C1117 1.495 . S
C1114 C1113 1.392 1_556 S
C1114 C1115 1.385 . S
C1114 C1116 1.478 . S
C1115 H1109 0.930 . S
C1115 C1111 1.400 . S
C1115 C1114 1.385 . S
C1116 C1114 1.478 . S
C1116 C1118 1.381 . S
C1116 C1122 1.383 . S
C1117 C1113 1.495 . S
C1117 H1123 0.959 . S
C1117 H1124 0.961 . S
C1117 H1125 0.960 . S
C1118 C1116 1.381 . S
C1118 C1119 1.394 . S
C1118 H1126 0.930 . S
C1119 C1118 1.394 . S
C1119 C1120 1.383 . S
C1119 H1127 0.929 . S
C1120 C1119 1.383 . S
C1120 C1121 1.377 . S
C1121 H1105 0.930 . S
C1121 C1120 1.377 . S
C1121 C1122 1.379 . S
C1122 H1106 0.931 . S
C1122 C1116 1.383 . S
C1122 C1121 1.379 . S
H1123 C1117 0.959 . S
H1124 C1117 0.961 . S
H1125 C1117 0.960 . S
H1126 C1118 0.930 . S
H1127 C1119 0.929 . S
H1128 C1136 0.929 . S
H1129 C1138 0.930 . S
H1130 C1140 0.930 . S
H1131 C1143 0.929 . S
H1132 C1146 0.930 . S
H1133 C1148 0.960 . S
H1134 C1148 0.960 . S
H1135 C1148 0.960 . S
C1136 H1128 0.929 . S
C1136 C1137 1.377 . S
C1136 C1138 1.384 . S
C1137 C1136 1.377 . S
C1137 C1143 1.390 . S
C1138 H1129 0.930 . S
C1138 C1136 1.384 . S
C1138 C1139 1.372 . S
C1139 C1138 1.372 . S
C1139 C1140 1.400 . S
C1139 C1144 1.490 . S
C1140 H1130 0.930 . S
C1140 C1139 1.400 . S
C1140 C1143 1.386 . S
H1141 C1157 0.930 . S
H1142 C1158 0.931 . S
C1143 H1131 0.929 . S
C1143 C1137 1.390 . S
C1143 C1140 1.386 . S
C1144 C1139 1.490 . S
C1144 C1146 1.395 . S
C1144 C1147 1.403 . S
H1145 C1151 0.930 . S
C1146 H1132 0.930 . S
C1146 C1144 1.395 . S
C1146 C1149 1.403 1_556 S
C1147 C1144 1.403 . S
C1147 C1148 1.524 . S
C1147 C1151 1.400 1_556 S
C1148 H1133 0.960 . S
C1148 H1134 0.960 . S
C1148 H1135 0.960 . S
C1148 C1147 1.524 . S
C1149 C1146 1.403 1_554 S
C1149 C1150 1.392 . S
C1149 C1153 1.495 . S
C1150 C1149 1.392 . S
C1150 C1151 1.385 . S
C1150 C1152 1.478 . S
C1151 H1145 0.930 . S
C1151 C1147 1.400 1_554 S
C1151 C1150 1.385 . S
C1152 C1150 1.478 . S
C1152 C1154 1.381 . S
C1152 C1158 1.383 . S
C1153 C1149 1.495 . S
C1153 H1159 0.959 . S
C1153 H1160 0.961 . S
C1153 H1161 0.960 . S
C1154 C1152 1.381 . S
C1154 C1155 1.394 . S
C1154 H1162 0.930 . S
C1155 C1154 1.394 . S
C1155 C1156 1.383 . S
C1155 H1163 0.929 . S
C1156 C1155 1.383 . S
C1156 C1157 1.377 . S
C1157 H1141 0.930 . S
C1157 C1156 1.377 . S
C1157 C1158 1.379 . S
C1158 H1142 0.931 . S
C1158 C1152 1.383 . S
C1158 C1157 1.379 . S
H1159 C1153 0.959 . S
H1160 C1153 0.961 . S
H1161 C1153 0.960 . S
H1162 C1154 0.930 . S
H1163 C1155 0.929 . S
H1164 C1172 0.929 . S
H1165 C1174 0.930 . S
H1166 C1176 0.930 . S
H1167 C1179 0.929 . S
H1168 C1182 0.930 . S
H1169 C1184 0.960 . S
H1170 C1184 0.960 1_554 S
H1171 C1184 0.960 . S
C1172 H1164 0.929 . S
C1172 C1173 1.377 . S
C1172 C1174 1.384 . S
C1173 C1172 1.377 . S
C1173 C1179 1.390 . S
C1174 H1165 0.930 . S
C1174 C1172 1.384 . S
C1174 C1175 1.372 . S
C1175 C1174 1.372 . S
C1175 C1176 1.400 . S
C1175 C1180 1.490 . S
C1176 H1166 0.930 . S
C1176 C1175 1.400 . S
C1176 C1179 1.386 . S
H1177 C1193 0.930 . S
H1178 C1194 0.931 . S
C1179 H1167 0.929 . S
C1179 C1173 1.390 . S
C1179 C1176 1.386 . S
C1180 C1175 1.490 . S
C1180 C1182 1.395 . S
C1180 C1183 1.364 1_554 S
H1181 C1187 0.930 . S
C1182 H1168 0.930 . S
C1182 C1180 1.395 . S
C1182 C1185 1.403 . S
C1183 C1180 1.364 1_556 S
C1183 C1184 1.530 . S
C1183 C1187 1.434 . S
C1184 H1169 0.960 . S
C1184 H1170 0.960 1_556 S
C1184 H1171 0.960 . S
C1184 C1183 1.530 . S
C1185 C1182 1.403 . S
C1185 C1186 1.392 1_554 S
C1185 C1189 1.495 . S
C1186 C1185 1.392 1_556 S
C1186 C1187 1.385 . S
C1186 C1188 1.478 . S
C1187 H1181 0.930 . S
C1187 C1183 1.434 . S
C1187 C1186 1.385 . S
C1188 C1186 1.478 . S
C1188 C1190 1.381 . S
C1188 C1194 1.383 . S
C1189 C1185 1.495 . S
C1189 H1195 0.959 . S
C1189 H1196 0.961 1_554 S
C1189 H1197 0.960 . S
C1190 C1188 1.381 . S
C1190 C1191 1.394 . S
C1190 H1198 0.930 . S
C1191 C1190 1.394 . S
C1191 C1192 1.383 . S
C1191 H1199 0.929 . S
C1192 C1191 1.383 . S
C1192 C1193 1.377 . S
C1193 H1177 0.930 . S
C1193 C1192 1.377 . S
C1193 C1194 1.379 . S
C1194 H1178 0.931 . S
C1194 C1188 1.383 . S
C1194 C1193 1.379 . S
H1195 C1189 0.959 . S
H1196 C1189 0.961 1_556 S
H1197 C1189 0.960 . S
H1198 C1190 0.930 . S
H1199 C1191 0.929 . S
H1200 C1208 0.929 . S
H1201 C1210 0.930 . S
H1202 C1212 0.930 . S
H1203 C1215 0.929 . S
H1204 C1218 0.930 . S
H1205 C1220 0.960 . S
H1206 C1220 0.960 . S
H1207 C1220 0.960 . S
C1208 H1200 0.929 . S
C1208 C1209 1.377 . S
C1208 C1210 1.384 . S
C1209 C1208 1.377 . S
C1209 C1215 1.390 . S
C1210 H1201 0.930 . S
C1210 C1208 1.384 . S
C1210 C1211 1.372 . S
C1211 C1210 1.372 . S
C1211 C1212 1.400 . S
C1211 C1216 1.490 . S
C1212 H1202 0.930 . S
C1212 C1211 1.400 . S
C1212 C1215 1.386 . S
H1213 C1229 0.930 . S
H1214 C1230 0.931 . S
C1215 H1203 0.929 . S
C1215 C1209 1.390 . S
C1215 C1212 1.386 . S
C1216 C1211 1.490 . S
C1216 C1218 1.395 . S
C1216 C1219 1.403 . S
H1217 C1223 0.930 . S
C1218 H1204 0.930 . S
C1218 C1216 1.395 . S
C1218 C1221 1.403 . S
C1219 C1216 1.403 . S
C1219 C1220 1.524 . S
C1219 C1223 1.400 . S
C1220 H1205 0.960 . S
C1220 H1206 0.960 . S
C1220 H1207 0.960 . S
C1220 C1219 1.524 . S
C1221 C1218 1.403 . S
C1221 C1222 1.392 . S
C1221 C1225 1.495 . S
C1222 C1221 1.392 . S
C1222 C1223 1.385 . S
C1222 C1224 1.478 . S
C1223 H1217 0.930 . S
C1223 C1219 1.400 . S
C1223 C1222 1.385 . S
C1224 C1222 1.478 . S
C1224 C1226 1.381 . S
C1224 C1230 1.383 . S
C1225 C1221 1.495 . S
C1225 H1231 0.959 . S
C1225 H1232 0.961 . S
C1225 H1233 0.960 . S
C1226 C1224 1.381 . S
C1226 C1227 1.394 . S
C1226 H1234 0.930 . S
C1227 C1226 1.394 . S
C1227 C1228 1.383 . S
C1227 H1235 0.929 . S
C1228 C1227 1.383 . S
C1228 C1229 1.377 . S
C1229 H1213 0.930 . S
C1229 C1228 1.377 . S
C1229 C1230 1.379 . S
C1230 H1214 0.931 . S
C1230 C1224 1.383 . S
C1230 C1229 1.379 . S
H1231 C1225 0.959 . S
H1232 C1225 0.961 . S
H1233 C1225 0.960 . S
H1234 C1226 0.930 . S
H1235 C1227 0.929 . S
H1236 C1244 0.929 . S
H1237 C1246 0.930 . S
H1238 C1248 0.930 . S
H1239 C1251 0.929 . S
H1240 C1254 0.930 . S
H1241 C1256 0.960 . S
H1242 C1256 0.960 . S
H1243 C1256 0.960 . S
C1244 H1236 0.929 . S
C1244 C1245 1.377 . S
C1244 C1246 1.384 . S
C1245 C1244 1.377 . S
C1245 C1251 1.390 . S
C1246 H1237 0.930 . S
C1246 C1244 1.384 . S
C1246 C1247 1.372 . S
C1247 C1246 1.372 . S
C1247 C1248 1.400 . S
C1247 C1252 1.490 . S
C1248 H1238 0.930 . S
C1248 C1247 1.400 . S
C1248 C1251 1.386 . S
H1249 C1265 0.930 . S
H1250 C1266 0.931 . S
C1251 H1239 0.929 . S
C1251 C1245 1.390 . S
C1251 C1248 1.386 . S
C1252 C1247 1.490 . S
C1252 C1254 1.395 . S
C1252 C1255 1.403 . S
H1253 C1259 0.930 . S
C1254 H1240 0.930 . S
C1254 C1252 1.395 . S
C1254 C1257 1.403 . S
C1255 C1252 1.403 . S
C1255 C1256 1.524 . S
C1255 C1259 1.400 . S
C1256 H1241 0.960 . S
C1256 H1242 0.960 . S
C1256 H1243 0.960 . S
C1256 C1255 1.524 . S
C1257 C1254 1.403 . S
C1257 C1258 1.392 . S
C1257 C1261 1.495 . S
C1258 C1257 1.392 . S
C1258 C1259 1.385 . S
C1258 C1260 1.478 . S
C1259 H1253 0.930 . S
C1259 C1255 1.400 . S
C1259 C1258 1.385 . S
C1260 C1258 1.478 . S
C1260 C1262 1.381 . S
C1260 C1266 1.383 . S
C1261 C1257 1.495 . S
C1261 H1267 0.959 . S
C1261 H1268 0.961 . S
C1261 H1269 0.960 . S
C1262 C1260 1.381 . S
C1262 C1263 1.394 . S
C1262 H1270 0.930 . S
C1263 C1262 1.394 . S
C1263 C1264 1.383 . S
C1263 H1271 0.929 . S
C1264 C1263 1.383 . S
C1264 C1265 1.377 . S
C1265 H1249 0.930 . S
C1265 C1264 1.377 . S
C1265 C1266 1.379 . S
C1266 H1250 0.931 . S
C1266 C1260 1.383 . S
C1266 C1265 1.379 . S
H1267 C1261 0.959 . S
H1268 C1261 0.961 . S
H1269 C1261 0.960 . S
H1270 C1262 0.930 . S
H1271 C1263 0.929 . S
H1272 C1280 0.929 . S
H1273 C1282 0.930 . S
H1274 C1284 0.930 . S
H1275 C1287 0.929 . S
H1276 C1290 0.930 . S
H1277 C1292 0.960 . S
H1278 C1292 0.960 . S
H1279 C1292 0.960 . S
C1280 H1272 0.929 . S
C1280 C1281 1.377 . S
C1280 C1282 1.384 . S
C1281 C1280 1.377 . S
C1281 C1287 1.390 . S
C1282 H1273 0.930 . S
C1282 C1280 1.384 . S
C1282 C1283 1.372 . S
C1283 C1282 1.372 . S
C1283 C1284 1.400 . S
C1283 C1288 1.490 . S
C1284 H1274 0.930 . S
C1284 C1283 1.400 . S
C1284 C1287 1.386 . S
H1285 C1301 0.930 . S
H1286 C1302 0.931 . S
C1287 H1275 0.929 . S
C1287 C1281 1.390 . S
C1287 C1284 1.386 . S
C1288 C1283 1.490 . S
C1288 C1290 1.395 . S
C1288 C1291 1.403 . S
H1289 C1295 0.930 . S
C1290 H1276 0.930 . S
C1290 C1288 1.395 . S
C1290 C1293 1.403 . S
C1291 C1288 1.403 . S
C1291 C1292 1.524 . S
C1291 C1295 1.400 . S
C1292 H1277 0.960 . S
C1292 H1278 0.960 . S
C1292 H1279 0.960 . S
C1292 C1291 1.524 . S
C1293 C1290 1.403 . S
C1293 C1294 1.392 . S
C1293 C1297 1.495 . S
C1294 C1293 1.392 . S
C1294 C1295 1.385 . S
C1294 C1296 1.478 . S
C1295 H1289 0.930 . S
C1295 C1291 1.400 . S
C1295 C1294 1.385 . S
C1296 C1294 1.478 . S
C1296 C1298 1.381 . S
C1296 C1302 1.383 . S
C1297 C1293 1.495 . S
C1297 H1303 0.959 . S
C1297 H1304 0.961 . S
C1297 H1305 0.960 . S
C1298 C1296 1.381 . S
C1298 C1299 1.394 . S
C1298 H1306 0.930 . S
C1299 C1298 1.394 . S
C1299 C1300 1.383 . S
C1299 H1307 0.929 . S
C1300 C1299 1.383 . S
C1300 C1301 1.377 . S
C1301 H1285 0.930 . S
C1301 C1300 1.377 . S
C1301 C1302 1.379 . S
C1302 H1286 0.931 . S
C1302 C1296 1.383 . S
C1302 C1301 1.379 . S
H1303 C1297 0.959 . S
H1304 C1297 0.961 . S
H1305 C1297 0.960 . S
H1306 C1298 0.930 . S
H1307 C1299 0.929 . S
H1308 C1316 0.929 . S
H1309 C1318 0.930 . S
H1310 C1320 0.930 . S
H1311 C1323 0.929 . S
H1312 C1326 0.930 . S
H1313 C1328 0.960 . S
H1314 C1328 0.960 . S
H1315 C1328 0.960 . S
C1316 H1308 0.929 . S
C1316 C1317 1.377 . S
C1316 C1318 1.384 . S
C1317 C1316 1.377 . S
C1317 C1323 1.390 . S
C1318 H1309 0.930 . S
C1318 C1316 1.384 . S
C1318 C1319 1.372 . S
C1319 C1318 1.372 . S
C1319 C1320 1.400 . S
C1319 C1324 1.490 . S
C1320 H1310 0.930 . S
C1320 C1319 1.400 . S
C1320 C1323 1.386 . S
H1321 C1337 0.930 . S
H1322 C1338 0.931 . S
C1323 H1311 0.929 . S
C1323 C1317 1.390 . S
C1323 C1320 1.386 . S
C1324 C1319 1.490 . S
C1324 C1326 1.395 . S
C1324 C1327 1.403 . S
H1325 C1331 0.930 . S
C1326 H1312 0.930 . S
C1326 C1324 1.395 . S
C1326 C1329 1.403 . S
C1327 C1324 1.403 . S
C1327 C1328 1.524 . S
C1327 C1331 1.400 . S
C1328 H1313 0.960 . S
C1328 H1314 0.960 . S
C1328 H1315 0.960 . S
C1328 C1327 1.524 . S
C1329 C1326 1.403 . S
C1329 C1330 1.392 . S
C1329 C1333 1.495 . S
C1330 C1329 1.392 . S
C1330 C1331 1.385 . S
C1330 C1332 1.478 . S
C1331 H1325 0.930 . S
C1331 C1327 1.400 . S
C1331 C1330 1.385 . S
C1332 C1330 1.478 . S
C1332 C1334 1.381 . S
C1332 C1338 1.383 . S
C1333 C1329 1.495 . S
C1333 H1339 0.959 . S
C1333 H1340 0.961 . S
C1333 H1341 0.960 . S
C1334 C1332 1.381 . S
C1334 C1335 1.394 . S
C1334 H1342 0.930 . S
C1335 C1334 1.394 . S
C1335 C1336 1.383 . S
C1335 H1343 0.929 . S
C1336 C1335 1.383 . S
C1336 C1337 1.377 . S
C1337 H1321 0.930 . S
C1337 C1336 1.377 . S
C1337 C1338 1.379 . S
C1338 H1322 0.931 . S
C1338 C1332 1.383 . S
C1338 C1337 1.379 . S
H1339 C1333 0.959 . S
H1340 C1333 0.961 . S
H1341 C1333 0.960 . S
H1342 C1334 0.930 . S
H1343 C1335 0.929 . S
H1344 C1352 0.929 . S
H1345 C1354 0.930 . S
H1346 C1356 0.930 . S
H1347 C1359 0.929 . S
H1348 C1362 0.930 . S
H1349 C1364 0.960 . S
H1350 C1364 0.960 . S
H1351 C1364 0.960 . S
C1352 H1344 0.929 . S
C1352 C1353 1.377 . S
C1352 C1354 1.384 . S
C1353 C1352 1.377 . S
C1353 C1359 1.390 . S
C1354 H1345 0.930 . S
C1354 C1352 1.384 . S
C1354 C1355 1.372 . S
C1355 C1354 1.372 . S
C1355 C1356 1.400 . S
C1355 C1360 1.490 . S
C1356 H1346 0.930 . S
C1356 C1355 1.400 . S
C1356 C1359 1.386 . S
H1357 C1373 0.930 . S
H1358 C1374 0.931 . S
C1359 H1347 0.929 . S
C1359 C1353 1.390 . S
C1359 C1356 1.386 . S
C1360 C1355 1.490 . S
C1360 C1362 1.395 . S
C1360 C1363 1.403 . S
H1361 C1367 0.930 . S
C1362 H1348 0.930 . S
C1362 C1360 1.395 . S
C1362 C1365 1.403 . S
C1363 C1360 1.403 . S
C1363 C1364 1.524 . S
C1363 C1367 1.400 . S
C1364 H1349 0.960 . S
C1364 H1350 0.960 . S
C1364 H1351 0.960 . S
C1364 C1363 1.524 . S
C1365 C1362 1.403 . S
C1365 C1366 1.392 . S
C1365 C1369 1.495 . S
C1366 C1365 1.392 . S
C1366 C1367 1.385 . S
C1366 C1368 1.478 . S
C1367 H1361 0.930 . S
C1367 C1363 1.400 . S
C1367 C1366 1.385 . S
C1368 C1366 1.478 . S
C1368 C1370 1.381 . S
C1368 C1374 1.383 . S
C1369 C1365 1.495 . S
C1369 H1375 0.959 . S
C1369 H1376 0.961 . S
C1369 H1377 0.960 . S
C1370 C1368 1.381 . S
C1370 C1371 1.394 . S
C1370 H1378 0.930 . S
C1371 C1370 1.394 . S
C1371 C1372 1.383 . S
C1371 H1379 0.929 . S
C1372 C1371 1.383 . S
C1372 C1373 1.377 . S
C1373 H1357 0.930 . S
C1373 C1372 1.377 . S
C1373 C1374 1.379 . S
C1374 H1358 0.931 . S
C1374 C1368 1.383 . S
C1374 C1373 1.379 . S
H1375 C1369 0.959 . S
H1376 C1369 0.961 . S
H1377 C1369 0.960 . S
H1378 C1370 0.930 . S
H1379 C1371 0.929 . S
H1380 C1388 0.929 . S
H1381 C1390 0.930 . S
H1382 C1392 0.930 . S
H1383 C1395 0.929 . S
H1384 C1398 0.930 . S
H1385 C1400 0.960 . S
H1386 C1400 0.960 . S
H1387 C1400 0.960 . S
C1388 H1380 0.929 . S
C1388 C1389 1.377 . S
C1388 C1390 1.384 . S
C1389 C1388 1.377 . S
C1389 C1395 1.390 . S
C1390 H1381 0.930 . S
C1390 C1388 1.384 . S
C1390 C1391 1.372 . S
C1391 C1390 1.372 . S
C1391 C1392 1.400 . S
C1391 C1396 1.490 . S
C1392 H1382 0.930 . S
C1392 C1391 1.400 . S
C1392 C1395 1.386 . S
H1393 C1409 0.930 . S
H1394 C1410 0.931 . S
C1395 H1383 0.929 . S
C1395 C1389 1.390 . S
C1395 C1392 1.386 . S
C1396 C1391 1.490 . S
C1396 C1398 1.395 . S
C1396 C1399 1.403 . S
H1397 C1403 0.930 . S
C1398 H1384 0.930 . S
C1398 C1396 1.395 . S
C1398 C1401 1.403 . S
C1399 C1396 1.403 . S
C1399 C1400 1.524 . S
C1399 C1403 1.400 . S
C1400 H1385 0.960 . S
C1400 H1386 0.960 . S
C1400 H1387 0.960 . S
C1400 C1399 1.524 . S
C1401 C1398 1.403 . S
C1401 C1402 1.392 . S
C1401 C1405 1.495 . S
C1402 C1401 1.392 . S
C1402 C1403 1.385 . S
C1402 C1404 1.478 . S
C1403 H1397 0.930 . S
C1403 C1399 1.400 . S
C1403 C1402 1.385 . S
C1404 C1402 1.478 . S
C1404 C1406 1.381 . S
C1404 C1410 1.383 . S
C1405 C1401 1.495 . S
C1405 H1411 0.959 . S
C1405 H1412 0.961 . S
C1405 H1413 0.960 . S
C1406 C1404 1.381 . S
C1406 C1407 1.394 . S
C1406 H1414 0.930 . S
C1407 C1406 1.394 . S
C1407 C1408 1.383 . S
C1407 H1415 0.929 . S
C1408 C1407 1.383 . S
C1408 C1409 1.377 . S
C1409 H1393 0.930 . S
C1409 C1408 1.377 . S
C1409 C1410 1.379 . S
C1410 H1394 0.931 . S
C1410 C1404 1.383 . S
C1410 C1409 1.379 . S
H1411 C1405 0.959 . S
H1412 C1405 0.961 . S
H1413 C1405 0.960 . S
H1414 C1406 0.930 . S
H1415 C1407 0.929 . S
H1416 C1424 0.929 . S
H1417 C1426 0.930 . S
H1418 C1428 0.930 . S
H1419 C1431 0.929 . S
H1420 C1434 0.930 . S
H1421 C1436 0.960 . S
H1422 C1436 0.960 . S
H1423 C1436 0.960 . S
C1424 H1416 0.929 . S
C1424 C1425 1.377 . S
C1424 C1426 1.384 . S
C1425 C1424 1.377 . S
C1425 C1431 1.390 . S
C1426 H1417 0.930 . S
C1426 C1424 1.384 . S
C1426 C1427 1.372 . S
C1427 C1426 1.372 . S
C1427 C1428 1.400 . S
C1427 C1432 1.490 . S
C1428 H1418 0.930 . S
C1428 C1427 1.400 . S
C1428 C1431 1.386 . S
H1429 C1445 0.930 . S
H1430 C1446 0.931 . S
C1431 H1419 0.929 . S
C1431 C1425 1.390 . S
C1431 C1428 1.386 . S
C1432 C1427 1.490 . S
C1432 C1434 1.395 . S
C1432 C1435 1.403 . S
H1433 C1439 0.930 . S
C1434 H1420 0.930 . S
C1434 C1432 1.395 . S
C1434 C1437 1.403 . S
C1435 C1432 1.403 . S
C1435 C1436 1.524 . S
C1435 C1439 1.400 . S
C1436 H1421 0.960 . S
C1436 H1422 0.960 . S
C1436 H1423 0.960 . S
C1436 C1435 1.524 . S
C1437 C1434 1.403 . S
C1437 C1438 1.392 . S
C1437 C1441 1.495 . S
C1438 C1437 1.392 . S
C1438 C1439 1.385 . S
C1438 C1440 1.478 . S
C1439 H1433 0.930 . S
C1439 C1435 1.400 . S
C1439 C1438 1.385 . S
C1440 C1438 1.478 . S
C1440 C1442 1.381 . S
C1440 C1446 1.383 . S
C1441 C1437 1.495 . S
C1441 H1447 0.959 . S
C1441 H1448 0.961 . S
C1441 H1449 0.960 . S
C1442 C1440 1.381 . S
C1442 C1443 1.394 . S
C1442 H1450 0.930 . S
C1443 C1442 1.394 . S
C1443 C1444 1.383 . S
C1443 H1451 0.929 . S
C1444 C1443 1.383 . S
C1444 C1445 1.377 . S
C1445 H1429 0.930 . S
C1445 C1444 1.377 . S
C1445 C1446 1.379 . S
C1446 H1430 0.931 . S
C1446 C1440 1.383 . S
C1446 C1445 1.379 . S
H1447 C1441 0.959 . S
H1448 C1441 0.961 . S
H1449 C1441 0.960 . S
H1450 C1442 0.930 . S
H1451 C1443 0.929 . S
H1452 C1460 0.929 . S
H1453 C1462 0.930 . S
H1454 C1464 0.930 . S
H1455 C1467 0.929 . S
H1456 C1470 0.930 . S
H1457 C1472 0.960 . S
H1458 C1472 0.960 . S
H1459 C1472 0.960 . S
C1460 H1452 0.929 . S
C1460 C1461 1.377 . S
C1460 C1462 1.384 . S
C1461 C1460 1.377 . S
C1461 C1467 1.390 . S
C1462 H1453 0.930 . S
C1462 C1460 1.384 . S
C1462 C1463 1.372 . S
C1463 C1462 1.372 . S
C1463 C1464 1.400 . S
C1463 C1468 1.490 . S
C1464 H1454 0.930 . S
C1464 C1463 1.400 . S
C1464 C1467 1.386 . S
H1465 C1481 0.930 . S
H1466 C1482 0.931 . S
C1467 H1455 0.929 . S
C1467 C1461 1.390 . S
C1467 C1464 1.386 . S
C1468 C1463 1.490 . S
C1468 C1470 1.395 . S
C1468 C1471 1.403 . S
H1469 C1475 0.930 . S
C1470 H1456 0.930 . S
C1470 C1468 1.395 . S
C1470 C1473 1.403 . S
C1471 C1468 1.403 . S
C1471 C1472 1.524 . S
C1471 C1475 1.400 . S
C1472 H1457 0.960 . S
C1472 H1458 0.960 . S
C1472 H1459 0.960 . S
C1472 C1471 1.524 . S
C1473 C1470 1.403 . S
C1473 C1474 1.392 . S
C1473 C1477 1.495 . S
C1474 C1473 1.392 . S
C1474 C1475 1.385 . S
C1474 C1476 1.478 . S
C1475 H1469 0.930 . S
C1475 C1471 1.400 . S
C1475 C1474 1.385 . S
C1476 C1474 1.478 . S
C1476 C1478 1.381 . S
C1476 C1482 1.383 . S
C1477 C1473 1.495 . S
C1477 H1483 0.959 . S
C1477 H1484 0.961 . S
C1477 H1485 0.960 . S
C1478 C1476 1.381 . S
C1478 C1479 1.394 . S
C1478 H1486 0.930 . S
C1479 C1478 1.394 . S
C1479 C1480 1.383 . S
C1479 H1487 0.929 . S
C1480 C1479 1.383 . S
C1480 C1481 1.377 . S
C1481 H1465 0.930 . S
C1481 C1480 1.377 . S
C1481 C1482 1.379 . S
C1482 H1466 0.931 . S
C1482 C1476 1.383 . S
C1482 C1481 1.379 . S
H1483 C1477 0.959 . S
H1484 C1477 0.961 . S
H1485 C1477 0.960 . S
H1486 C1478 0.930 . S
H1487 C1479 0.929 . S
H1488 C1496 0.929 . S
H1489 C1498 0.930 . S
H1490 C1500 0.930 . S
H1491 C1503 0.929 . S
H1492 C1506 0.930 . S
H1493 C1508 0.960 . S
H1494 C1508 0.960 . S
H1495 C1508 0.960 . S
C1496 H1488 0.929 . S
C1496 C1497 1.377 . S
C1496 C1498 1.384 . S
C1497 C1496 1.377 . S
C1497 C1503 1.390 . S
C1498 H1489 0.930 . S
C1498 C1496 1.384 . S
C1498 C1499 1.372 . S
C1499 C1498 1.372 . S
C1499 C1500 1.400 . S
C1499 C1504 1.490 . S
C1500 H1490 0.930 . S
C1500 C1499 1.400 . S
C1500 C1503 1.386 . S
H1501 C1517 0.930 . S
H1502 C1518 0.931 . S
C1503 H1491 0.929 . S
C1503 C1497 1.390 . S
C1503 C1500 1.386 . S
C1504 C1499 1.490 . S
C1504 C1506 1.395 . S
C1504 C1507 1.403 . S
H1505 C1511 0.930 . S
C1506 H1492 0.930 . S
C1506 C1504 1.395 . S
C1506 C1509 1.403 . S
C1507 C1504 1.403 . S
C1507 C1508 1.524 . S
C1507 C1511 1.400 . S
C1508 H1493 0.960 . S
C1508 H1494 0.960 . S
C1508 H1495 0.960 . S
C1508 C1507 1.524 . S
C1509 C1506 1.403 . S
C1509 C1510 1.392 . S
C1509 C1513 1.495 . S
C1510 C1509 1.392 . S
C1510 C1511 1.385 . S
C1510 C1512 1.478 . S
C1511 H1505 0.930 . S
C1511 C1507 1.400 . S
C1511 C1510 1.385 . S
C1512 C1510 1.478 . S
C1512 C1514 1.381 . S
C1512 C1518 1.383 . S
C1513 C1509 1.495 . S
C1513 H1519 0.959 . S
C1513 H1520 0.961 . S
C1513 H1521 0.960 . S
C1514 C1512 1.381 . S
C1514 C1515 1.394 . S
C1514 H1522 0.930 . S
C1515 C1514 1.394 . S
C1515 C1516 1.383 . S
C1515 H1523 0.929 . S
C1516 C1515 1.383 . S
C1516 C1517 1.377 . S
C1517 H1501 0.930 . S
C1517 C1516 1.377 . S
C1517 C1518 1.379 . S
C1518 H1502 0.931 . S
C1518 C1512 1.383 . S
C1518 C1517 1.379 . S
H1519 C1513 0.959 . S
H1520 C1513 0.961 . S
H1521 C1513 0.960 . S
H1522 C1514 0.930 . S
H1523 C1515 0.929 . S
H1524 C1532 0.929 . S
H1525 C1534 0.930 . S
H1526 C1536 0.930 . S
H1527 C1539 0.929 . S
H1528 C1542 0.930 . S
H1529 C1544 0.960 . S
H1530 C1544 0.960 . S
H1531 C1544 0.960 . S
C1532 H1524 0.929 . S
C1532 C1533 1.377 . S
C1532 C1534 1.384 . S
C1533 C1532 1.377 . S
C1533 C1539 1.390 . S
C1534 H1525 0.930 . S
C1534 C1532 1.384 . S
C1534 C1535 1.372 . S
C1535 C1534 1.372 . S
C1535 C1536 1.400 . S
C1535 C1540 1.490 . S
C1536 H1526 0.930 . S
C1536 C1535 1.400 . S
C1536 C1539 1.386 . S
H1537 C1553 0.930 . S
H1538 C1554 0.931 . S
C1539 H1527 0.929 . S
C1539 C1533 1.390 . S
C1539 C1536 1.386 . S
C1540 C1535 1.490 . S
C1540 C1542 1.395 . S
C1540 C1543 1.403 . S
H1541 C1547 0.930 . S
C1542 H1528 0.930 . S
C1542 C1540 1.395 . S
C1542 C1545 1.403 . S
C1543 C1540 1.403 . S
C1543 C1544 1.524 . S
C1543 C1547 1.400 . S
C1544 H1529 0.960 . S
C1544 H1530 0.960 . S
C1544 H1531 0.960 . S
C1544 C1543 1.524 . S
C1545 C1542 1.403 . S
C1545 C1546 1.392 . S
C1545 C1549 1.495 . S
C1546 C1545 1.392 . S
C1546 C1547 1.385 . S
C1546 C1548 1.478 . S
C1547 H1541 0.930 . S
C1547 C1543 1.400 . S
C1547 C1546 1.385 . S
C1548 C1546 1.478 . S
C1548 C1550 1.381 . S
C1548 C1554 1.383 . S
C1549 C1545 1.495 . S
C1549 H1555 0.959 . S
C1549 H1556 0.961 . S
C1549 H1557 0.960 . S
C1550 C1548 1.381 . S
C1550 C1551 1.394 . S
C1550 H1558 0.930 . S
C1551 C1550 1.394 . S
C1551 C1552 1.383 . S
C1551 H1559 0.929 . S
C1552 C1551 1.383 . S
C1552 C1553 1.377 . S
C1553 H1537 0.930 . S
C1553 C1552 1.377 . S
C1553 C1554 1.379 . S
C1554 H1538 0.931 . S
C1554 C1548 1.383 . S
C1554 C1553 1.379 . S
H1555 C1549 0.959 . S
H1556 C1549 0.961 . S
H1557 C1549 0.960 . S
H1558 C1550 0.930 . S
H1559 C1551 0.929 . S
H1560 C1568 0.929 . S
H1561 C1570 0.930 . S
H1562 C1572 0.930 . S
H1563 C1575 0.929 . S
H1564 C1578 0.930 . S
H1565 C1580 0.960 . S
H1566 C1580 0.960 . S
H1567 C1580 0.960 . S
C1568 H1560 0.929 . S
C1568 C1569 1.377 . S
C1568 C1570 1.384 . S
C1569 C1568 1.377 . S
C1569 C1575 1.390 . S
C1570 H1561 0.930 . S
C1570 C1568 1.384 . S
C1570 C1571 1.372 . S
C1571 C1570 1.372 . S
C1571 C1572 1.400 . S
C1571 C1576 1.490 . S
C1572 H1562 0.930 . S
C1572 C1571 1.400 . S
C1572 C1575 1.386 . S
H1573 C1589 0.930 . S
H1574 C1590 0.931 . S
C1575 H1563 0.929 . S
C1575 C1569 1.390 . S
C1575 C1572 1.386 . S
C1576 C1571 1.490 . S
C1576 C1578 1.395 . S
C1576 C1579 1.403 . S
H1577 C1583 0.930 . S
C1578 H1564 0.930 . S
C1578 C1576 1.395 . S
C1578 C1581 1.403 . S
C1579 C1576 1.403 . S
C1579 C1580 1.524 . S
C1579 C1583 1.400 . S
C1580 H1565 0.960 . S
C1580 H1566 0.960 . S
C1580 H1567 0.960 . S
C1580 C1579 1.524 . S
C1581 C1578 1.403 . S
C1581 C1582 1.392 . S
C1581 C1585 1.495 . S
C1582 C1581 1.392 . S
C1582 C1583 1.385 . S
C1582 C1584 1.478 . S
C1583 H1577 0.930 . S
C1583 C1579 1.400 . S
C1583 C1582 1.385 . S
C1584 C1582 1.478 . S
C1584 C1586 1.381 . S
C1584 C1590 1.383 . S
C1585 C1581 1.495 . S
C1585 H1591 0.959 . S
C1585 H1592 0.961 . S
C1585 H1593 0.960 . S
C1586 C1584 1.381 . S
C1586 C1587 1.394 . S
C1586 H1594 0.930 . S
C1587 C1586 1.394 . S
C1587 C1588 1.383 . S
C1587 H1595 0.929 . S
C1588 C1587 1.383 . S
C1588 C1589 1.377 . S
C1589 H1573 0.930 . S
C1589 C1588 1.377 . S
C1589 C1590 1.379 . S
C1590 H1574 0.931 . S
C1590 C1584 1.383 . S
C1590 C1589 1.379 . S
H1591 C1585 0.959 . S
H1592 C1585 0.961 . S
H1593 C1585 0.960 . S
H1594 C1586 0.930 . S
H1595 C1587 0.929 . S
H1596 C1604 0.929 . S
H1597 C1606 0.930 . S
H1598 C1608 0.930 . S
H1599 C1611 0.929 . S
H1600 C1614 0.930 . S
H1601 C1616 0.960 . S
H1602 C1616 0.960 . S
H1603 C1616 0.960 . S
C1604 H1596 0.929 . S
C1604 C1605 1.377 . S
C1604 C1606 1.384 . S
C1605 C1604 1.377 . S
C1605 C1611 1.390 . S
C1606 H1597 0.930 . S
C1606 C1604 1.384 . S
C1606 C1607 1.372 . S
C1607 C1606 1.372 . S
C1607 C1608 1.400 . S
C1607 C1612 1.490 . S
C1608 H1598 0.930 . S
C1608 C1607 1.400 . S
C1608 C1611 1.386 . S
H1609 C1625 0.930 . S
H1610 C1626 0.931 . S
C1611 H1599 0.929 . S
C1611 C1605 1.390 . S
C1611 C1608 1.386 . S
C1612 C1607 1.490 . S
C1612 C1614 1.395 . S
C1612 C1615 1.403 . S
H1613 C1619 0.930 . S
C1614 H1600 0.930 . S
C1614 C1612 1.395 . S
C1614 C1617 1.403 . S
C1615 C1612 1.403 . S
C1615 C1616 1.524 . S
C1615 C1619 1.400 . S
C1616 H1601 0.960 . S
C1616 H1602 0.960 . S
C1616 H1603 0.960 . S
C1616 C1615 1.524 . S
C1617 C1614 1.403 . S
C1617 C1618 1.392 . S
C1617 C1621 1.495 . S
C1618 C1617 1.392 . S
C1618 C1619 1.385 . S
C1618 C1620 1.478 . S
C1619 H1613 0.930 . S
C1619 C1615 1.400 . S
C1619 C1618 1.385 . S
C1620 C1618 1.478 . S
C1620 C1622 1.381 . S
C1620 C1626 1.383 . S
C1621 C1617 1.495 . S
C1621 H1627 0.959 . S
C1621 H1628 0.961 . S
C1621 H1629 0.960 . S
C1622 C1620 1.381 . S
C1622 C1623 1.394 . S
C1622 H1630 0.930 . S
C1623 C1622 1.394 . S
C1623 C1624 1.383 . S
C1623 H1631 0.929 . S
C1624 C1623 1.383 . S
C1624 C1625 1.377 . S
C1625 H1609 0.930 . S
C1625 C1624 1.377 . S
C1625 C1626 1.379 . S
C1626 H1610 0.931 . S
C1626 C1620 1.383 . S
C1626 C1625 1.379 . S
H1627 C1621 0.959 . S
H1628 C1621 0.961 . S
H1629 C1621 0.960 . S
H1630 C1622 0.930 . S
H1631 C1623 0.929 . S
H1632 C1640 0.929 . S
H1633 C1642 0.930 . S
H1634 C1644 0.930 . S
H1635 C1647 0.929 . S
H1636 C1650 0.930 . S
H1637 C1652 0.960 . S
H1638 C1652 0.960 . S
H1639 C1652 0.960 . S
C1640 H1632 0.929 . S
C1640 C1641 1.377 . S
C1640 C1642 1.384 . S
C1641 C1640 1.377 . S
C1641 C1647 1.390 . S
C1642 H1633 0.930 . S
C1642 C1640 1.384 . S
C1642 C1643 1.372 . S
C1643 C1642 1.372 . S
C1643 C1644 1.400 . S
C1643 C1648 1.490 . S
C1644 H1634 0.930 . S
C1644 C1643 1.400 . S
C1644 C1647 1.386 . S
H1645 C1661 0.930 . S
H1646 C1662 0.931 . S
C1647 H1635 0.929 . S
C1647 C1641 1.390 . S
C1647 C1644 1.386 . S
C1648 C1643 1.490 . S
C1648 C1650 1.395 . S
C1648 C1651 1.403 . S
H1649 C1655 0.930 . S
C1650 H1636 0.930 . S
C1650 C1648 1.395 . S
C1650 C1653 1.403 . S
C1651 C1648 1.403 . S
C1651 C1652 1.524 . S
C1651 C1655 1.400 . S
C1652 H1637 0.960 . S
C1652 H1638 0.960 . S
C1652 H1639 0.960 . S
C1652 C1651 1.524 . S
C1653 C1650 1.403 . S
C1653 C1654 1.392 . S
C1653 C1657 1.495 . S
C1654 C1653 1.392 . S
C1654 C1655 1.385 . S
C1654 C1656 1.478 . S
C1655 H1649 0.930 . S
C1655 C1651 1.400 . S
C1655 C1654 1.385 . S
C1656 C1654 1.478 . S
C1656 C1658 1.381 . S
C1656 C1662 1.383 . S
C1657 C1653 1.495 . S
C1657 H1663 0.959 . S
C1657 H1664 0.961 . S
C1657 H1665 0.960 . S
C1658 C1656 1.381 . S
C1658 C1659 1.394 . S
C1658 H1666 0.930 . S
C1659 C1658 1.394 . S
C1659 C1660 1.383 . S
C1659 H1667 0.929 . S
C1660 C1659 1.383 . S
C1660 C1661 1.377 . S
C1661 H1645 0.930 . S
C1661 C1660 1.377 . S
C1661 C1662 1.379 . S
C1662 H1646 0.931 . S
C1662 C1656 1.383 . S
C1662 C1661 1.379 . S
H1663 C1657 0.959 . S
H1664 C1657 0.961 . S
H1665 C1657 0.960 . S
H1666 C1658 0.930 . S
H1667 C1659 0.929 . S
H1668 C1676 0.929 . S
H1669 C1678 0.930 . S
H1670 C1680 0.930 . S
H1671 C1683 0.929 . S
H1672 C1686 0.930 . S
H1673 C1688 0.960 . S
H1674 C1688 0.960 . S
H1675 C1688 0.960 . S
C1676 H1668 0.929 . S
C1676 C1677 1.377 . S
C1676 C1678 1.384 . S
C1677 C1676 1.377 . S
C1677 C1683 1.390 . S
C1678 H1669 0.930 . S
C1678 C1676 1.384 . S
C1678 C1679 1.372 . S
C1679 C1678 1.372 . S
C1679 C1680 1.400 . S
C1679 C1684 1.490 . S
C1680 H1670 0.930 . S
C1680 C1679 1.400 . S
C1680 C1683 1.386 . S
H1681 C1697 0.930 . S
H1682 C1698 0.931 . S
C1683 H1671 0.929 . S
C1683 C1677 1.390 . S
C1683 C1680 1.386 . S
C1684 C1679 1.490 . S
C1684 C1686 1.395 . S
C1684 C1687 1.403 . S
H1685 C1691 0.930 . S
C1686 H1672 0.930 . S
C1686 C1684 1.395 . S
C1686 C1689 1.403 . S
C1687 C1684 1.403 . S
C1687 C1688 1.524 . S
C1687 C1691 1.400 . S
C1688 H1673 0.960 . S
C1688 H1674 0.960 . S
C1688 H1675 0.960 . S
C1688 C1687 1.524 . S
C1689 C1686 1.403 . S
C1689 C1690 1.392 . S
C1689 C1693 1.495 . S
C1690 C1689 1.392 . S
C1690 C1691 1.385 . S
C1690 C1692 1.478 . S
C1691 H1685 0.930 . S
C1691 C1687 1.400 . S
C1691 C1690 1.385 . S
C1692 C1690 1.478 . S
C1692 C1694 1.381 . S
C1692 C1698 1.383 . S
C1693 C1689 1.495 . S
C1693 H1699 0.959 . S
C1693 H1700 0.961 . S
C1693 H1701 0.960 . S
C1694 C1692 1.381 . S
C1694 C1695 1.394 . S
C1694 H1702 0.930 . S
C1695 C1694 1.394 . S
C1695 C1696 1.383 . S
C1695 H1703 0.929 . S
C1696 C1695 1.383 . S
C1696 C1697 1.377 . S
C1697 H1681 0.930 . S
C1697 C1696 1.377 . S
C1697 C1698 1.379 . S
C1698 H1682 0.931 . S
C1698 C1692 1.383 . S
C1698 C1697 1.379 . S
H1699 C1693 0.959 . S
H1700 C1693 0.961 . S
H1701 C1693 0.960 . S
H1702 C1694 0.930 . S
H1703 C1695 0.929 . S
H1704 C1712 0.929 . S
H1705 C1714 0.930 . S
H1706 C1716 0.930 . S
H1707 C1719 0.929 . S
H1708 C1722 0.930 . S
H1709 C1724 0.960 . S
H1710 C1724 0.960 . S
H1711 C1724 0.960 . S
C1712 H1704 0.929 . S
C1712 C1713 1.377 . S
C1712 C1714 1.384 . S
C1713 C1712 1.377 . S
C1713 C1719 1.390 . S
C1714 H1705 0.930 . S
C1714 C1712 1.384 . S
C1714 C1715 1.372 . S
C1715 C1714 1.372 . S
C1715 C1716 1.400 . S
C1715 C1720 1.490 . S
C1716 H1706 0.930 . S
C1716 C1715 1.400 . S
C1716 C1719 1.386 . S
H1717 C1733 0.930 . S
H1718 C1734 0.931 . S
C1719 H1707 0.929 . S
C1719 C1713 1.390 . S
C1719 C1716 1.386 . S
C1720 C1715 1.490 . S
C1720 C1722 1.395 . S
C1720 C1723 1.403 . S
H1721 C1727 0.930 . S
C1722 H1708 0.930 . S
C1722 C1720 1.395 . S
C1722 C1725 1.403 . S
C1723 C1720 1.403 . S
C1723 C1724 1.524 . S
C1723 C1727 1.400 . S
C1724 H1709 0.960 . S
C1724 H1710 0.960 . S
C1724 H1711 0.960 . S
C1724 C1723 1.524 . S
C1725 C1722 1.403 . S
C1725 C1726 1.392 . S
C1725 C1729 1.495 . S
C1726 C1725 1.392 . S
C1726 C1727 1.385 . S
C1726 C1728 1.478 . S
C1727 H1721 0.930 . S
C1727 C1723 1.400 . S
C1727 C1726 1.385 . S
C1728 C1726 1.478 . S
C1728 C1730 1.381 . S
C1728 C1734 1.383 . S
C1729 C1725 1.495 . S
C1729 H1735 0.959 . S
C1729 H1736 0.961 . S
C1729 H1737 0.960 . S
C1730 C1728 1.381 . S
C1730 C1731 1.394 . S
C1730 H1738 0.930 . S
C1731 C1730 1.394 . S
C1731 C1732 1.383 . S
C1731 H1739 0.929 . S
C1732 C1731 1.383 . S
C1732 C1733 1.377 . S
C1733 H1717 0.930 . S
C1733 C1732 1.377 . S
C1733 C1734 1.379 . S
C1734 H1718 0.931 . S
C1734 C1728 1.383 . S
C1734 C1733 1.379 . S
H1735 C1729 0.959 . S
H1736 C1729 0.961 . S
H1737 C1729 0.960 . S
H1738 C1730 0.930 . S
H1739 C1731 0.929 . S
H1740 C1748 0.929 . S
H1741 C1750 0.930 . S
H1742 C1752 0.930 . S
H1743 C1755 0.929 . S
H1744 C1758 0.930 . S
H1745 C1760 0.960 . S
H1746 C1760 0.960 . S
H1747 C1760 0.960 . S
C1748 H1740 0.929 . S
C1748 C1749 1.377 . S
C1748 C1750 1.384 . S
C1749 C1748 1.377 . S
C1749 C1755 1.390 . S
C1750 H1741 0.930 . S
C1750 C1748 1.384 . S
C1750 C1751 1.372 . S
C1751 C1750 1.372 . S
C1751 C1752 1.400 . S
C1751 C1756 1.490 . S
C1752 H1742 0.930 . S
C1752 C1751 1.400 . S
C1752 C1755 1.386 . S
H1753 C1769 0.930 . S
H1754 C1770 0.931 . S
C1755 H1743 0.929 . S
C1755 C1749 1.390 . S
C1755 C1752 1.386 . S
C1756 C1751 1.490 . S
C1756 C1758 1.395 . S
C1756 C1759 1.403 . S
H1757 C1763 0.930 . S
C1758 H1744 0.930 . S
C1758 C1756 1.395 . S
C1758 C1761 1.403 . S
C1759 C1756 1.403 . S
C1759 C1760 1.524 . S
C1759 C1763 1.400 . S
C1760 H1745 0.960 . S
C1760 H1746 0.960 . S
C1760 H1747 0.960 . S
C1760 C1759 1.524 . S
C1761 C1758 1.403 . S
C1761 C1762 1.392 . S
C1761 C1765 1.495 . S
C1762 C1761 1.392 . S
C1762 C1763 1.385 . S
C1762 C1764 1.478 . S
C1763 H1757 0.930 . S
C1763 C1759 1.400 . S
C1763 C1762 1.385 . S
C1764 C1762 1.478 . S
C1764 C1766 1.381 . S
C1764 C1770 1.383 . S
C1765 C1761 1.495 . S
C1765 H1771 0.959 . S
C1765 H1772 0.961 . S
C1765 H1773 0.960 . S
C1766 C1764 1.381 . S
C1766 C1767 1.394 . S
C1766 H1774 0.930 . S
C1767 C1766 1.394 . S
C1767 C1768 1.383 . S
C1767 H1775 0.929 . S
C1768 C1767 1.383 . S
C1768 C1769 1.377 . S
C1769 H1753 0.930 . S
C1769 C1768 1.377 . S
C1769 C1770 1.379 . S
C1770 H1754 0.931 . S
C1770 C1764 1.383 . S
C1770 C1769 1.379 . S
H1771 C1765 0.959 . S
H1772 C1765 0.961 . S
H1773 C1765 0.960 . S
H1774 C1766 0.930 . S
H1775 C1767 0.929 . S
H1776 C1784 0.929 . S
H1777 C1786 0.930 . S
H1778 C1788 0.930 . S
H1779 C1791 0.929 . S
H1780 C1794 0.930 . S
H1781 C1796 0.960 . S
H1782 C1796 0.960 . S
H1783 C1796 0.960 . S
C1784 H1776 0.929 . S
C1784 C1785 1.377 . S
C1784 C1786 1.384 . S
C1785 C1784 1.377 . S
C1785 C1791 1.390 . S
C1786 H1777 0.930 . S
C1786 C1784 1.384 . S
C1786 C1787 1.372 . S
C1787 C1786 1.372 . S
C1787 C1788 1.400 . S
C1787 C1792 1.490 . S
C1788 H1778 0.930 . S
C1788 C1787 1.400 . S
C1788 C1791 1.386 . S
H1789 C1805 0.930 . S
H1790 C1806 0.931 . S
C1791 H1779 0.929 . S
C1791 C1785 1.390 . S
C1791 C1788 1.386 . S
C1792 C1787 1.490 . S
C1792 C1794 1.395 . S
C1792 C1795 1.403 . S
H1793 C1799 0.930 . S
C1794 H1780 0.930 . S
C1794 C1792 1.395 . S
C1794 C1797 1.403 . S
C1795 C1792 1.403 . S
C1795 C1796 1.524 . S
C1795 C1799 1.400 . S
C1796 H1781 0.960 . S
C1796 H1782 0.960 . S
C1796 H1783 0.960 . S
C1796 C1795 1.524 . S
C1797 C1794 1.403 . S
C1797 C1798 1.392 . S
C1797 C1801 1.495 . S
C1798 C1797 1.392 . S
C1798 C1799 1.385 . S
C1798 C1800 1.478 . S
C1799 H1793 0.930 . S
C1799 C1795 1.400 . S
C1799 C1798 1.385 . S
C1800 C1798 1.478 . S
C1800 C1802 1.381 . S
C1800 C1806 1.383 . S
C1801 C1797 1.495 . S
C1801 H1807 0.959 . S
C1801 H1808 0.961 . S
C1801 H1809 0.960 . S
C1802 C1800 1.381 . S
C1802 C1803 1.394 . S
C1802 H1810 0.930 . S
C1803 C1802 1.394 . S
C1803 C1804 1.383 . S
C1803 H1811 0.929 . S
C1804 C1803 1.383 . S
C1804 C1805 1.377 . S
C1805 H1789 0.930 . S
C1805 C1804 1.377 . S
C1805 C1806 1.379 . S
C1806 H1790 0.931 . S
C1806 C1800 1.383 . S
C1806 C1805 1.379 . S
H1807 C1801 0.959 . S
H1808 C1801 0.961 . S
H1809 C1801 0.960 . S
H1810 C1802 0.930 . S
H1811 C1803 0.929 . S
H1812 C1820 0.929 . S
H1813 C1822 0.930 . S
H1814 C1824 0.930 . S
H1815 C1827 0.929 . S
H1816 C1830 0.930 . S
H1817 C1832 0.960 . S
H1818 C1832 0.960 . S
H1819 C1832 0.960 . S
C1820 H1812 0.929 . S
C1820 C1821 1.377 . S
C1820 C1822 1.384 . S
C1821 C1820 1.377 . S
C1821 C1827 1.390 . S
C1822 H1813 0.930 . S
C1822 C1820 1.384 . S
C1822 C1823 1.372 . S
C1823 C1822 1.372 . S
C1823 C1824 1.400 . S
C1823 C1828 1.490 . S
C1824 H1814 0.930 . S
C1824 C1823 1.400 . S
C1824 C1827 1.386 . S
H1825 C1841 0.930 . S
H1826 C1842 0.931 . S
C1827 H1815 0.929 . S
C1827 C1821 1.390 . S
C1827 C1824 1.386 . S
C1828 C1823 1.490 . S
C1828 C1830 1.395 . S
C1828 C1831 1.403 . S
H1829 C1835 0.930 . S
C1830 H1816 0.930 . S
C1830 C1828 1.395 . S
C1830 C1833 1.403 . S
C1831 C1828 1.403 . S
C1831 C1832 1.524 . S
C1831 C1835 1.400 . S
C1832 H1817 0.960 . S
C1832 H1818 0.960 . S
C1832 H1819 0.960 . S
C1832 C1831 1.524 . S
C1833 C1830 1.403 . S
C1833 C1834 1.392 . S
C1833 C1837 1.495 . S
C1834 C1833 1.392 . S
C1834 C1835 1.385 . S
C1834 C1836 1.478 . S
C1835 H1829 0.930 . S
C1835 C1831 1.400 . S
C1835 C1834 1.385 . S
C1836 C1834 1.478 . S
C1836 C1838 1.381 . S
C1836 C1842 1.383 . S
C1837 C1833 1.495 . S
C1837 H1843 0.959 . S
C1837 H1844 0.961 . S
C1837 H1845 0.960 . S
C1838 C1836 1.381 . S
C1838 C1839 1.394 . S
C1838 H1846 0.930 . S
C1839 C1838 1.394 . S
C1839 C1840 1.383 . S
C1839 H1847 0.929 . S
C1840 C1839 1.383 . S
C1840 C1841 1.377 . S
C1841 H1825 0.930 . S
C1841 C1840 1.377 . S
C1841 C1842 1.379 . S
C1842 H1826 0.931 . S
C1842 C1836 1.383 . S
C1842 C1841 1.379 . S
H1843 C1837 0.959 . S
H1844 C1837 0.961 . S
H1845 C1837 0.960 . S
H1846 C1838 0.930 . S
H1847 C1839 0.929 . S
H1848 C1856 0.929 . S
H1849 C1858 0.930 . S
H1850 C1860 0.930 . S
H1851 C1863 0.929 . S
H1852 C1866 0.930 . S
H1853 C1868 0.960 . S
H1854 C1868 0.960 . S
H1855 C1868 0.960 . S
C1856 H1848 0.929 . S
C1856 C1857 1.377 . S
C1856 C1858 1.384 . S
C1857 C1856 1.377 . S
C1857 C1863 1.390 . S
C1858 H1849 0.930 . S
C1858 C1856 1.384 . S
C1858 C1859 1.372 . S
C1859 C1858 1.372 . S
C1859 C1860 1.400 . S
C1859 C1864 1.490 . S
C1860 H1850 0.930 . S
C1860 C1859 1.400 . S
C1860 C1863 1.386 . S
H1861 C1877 0.930 . S
H1862 C1878 0.931 . S
C1863 H1851 0.929 . S
C1863 C1857 1.390 . S
C1863 C1860 1.386 . S
C1864 C1859 1.490 . S
C1864 C1866 1.395 . S
C1864 C1867 1.403 . S
H1865 C1871 0.930 . S
C1866 H1852 0.930 . S
C1866 C1864 1.395 . S
C1866 C1869 1.403 . S
C1867 C1864 1.403 . S
C1867 C1868 1.524 . S
C1867 C1871 1.400 . S
C1868 H1853 0.960 . S
C1868 H1854 0.960 . S
C1868 H1855 0.960 . S
C1868 C1867 1.524 . S
C1869 C1866 1.403 . S
C1869 C1870 1.392 . S
C1869 C1873 1.495 . S
C1870 C1869 1.392 . S
C1870 C1871 1.385 . S
C1870 C1872 1.478 . S
C1871 H1865 0.930 . S
C1871 C1867 1.400 . S
C1871 C1870 1.385 . S
C1872 C1870 1.478 . S
C1872 C1874 1.381 . S
C1872 C1878 1.383 . S
C1873 C1869 1.495 . S
C1873 H1879 0.959 . S
C1873 H1880 0.961 . S
C1873 H1881 0.960 . S
C1874 C1872 1.381 . S
C1874 C1875 1.394 . S
C1874 H1882 0.930 . S
C1875 C1874 1.394 . S
C1875 C1876 1.383 . S
C1875 H1883 0.929 . S
C1876 C1875 1.383 . S
C1876 C1877 1.377 . S
C1877 H1861 0.930 . S
C1877 C1876 1.377 . S
C1877 C1878 1.379 . S
C1878 H1862 0.931 . S
C1878 C1872 1.383 . S
C1878 C1877 1.379 . S
H1879 C1873 0.959 . S
H1880 C1873 0.961 . S
H1881 C1873 0.960 . S
H1882 C1874 0.930 . S
H1883 C1875 0.929 . S
H1884 C1892 0.929 . S
H1885 C1894 0.930 . S
H1886 C1896 0.930 . S
H1887 C1899 0.929 . S
H1888 C1902 0.930 . S
H1889 C1904 0.960 . S
H1890 C1904 0.960 . S
H1891 C1904 0.960 . S
C1892 H1884 0.929 . S
C1892 C1893 1.377 . S
C1892 C1894 1.384 . S
C1893 C1892 1.377 . S
C1893 C1899 1.390 . S
C1894 H1885 0.930 . S
C1894 C1892 1.384 . S
C1894 C1895 1.372 . S
C1895 C1894 1.372 . S
C1895 C1896 1.400 . S
C1895 C1900 1.490 . S
C1896 H1886 0.930 . S
C1896 C1895 1.400 . S
C1896 C1899 1.386 . S
H1897 C1913 0.930 . S
H1898 C1914 0.931 . S
C1899 H1887 0.929 . S
C1899 C1893 1.390 . S
C1899 C1896 1.386 . S
C1900 C1895 1.490 . S
C1900 C1902 1.395 . S
C1900 C1903 1.403 . S
H1901 C1907 0.930 . S
C1902 H1888 0.930 . S
C1902 C1900 1.395 . S
C1902 C1905 1.403 . S
C1903 C1900 1.403 . S
C1903 C1904 1.524 . S
C1903 C1907 1.400 . S
C1904 H1889 0.960 . S
C1904 H1890 0.960 . S
C1904 H1891 0.960 . S
C1904 C1903 1.524 . S
C1905 C1902 1.403 . S
C1905 C1906 1.392 . S
C1905 C1909 1.495 . S
C1906 C1905 1.392 . S
C1906 C1907 1.385 . S
C1906 C1908 1.478 . S
C1907 H1901 0.930 . S
C1907 C1903 1.400 . S
C1907 C1906 1.385 . S
C1908 C1906 1.478 . S
C1908 C1910 1.381 . S
C1908 C1914 1.383 . S
C1909 C1905 1.495 . S
C1909 H1915 0.959 . S
C1909 H1916 0.961 . S
C1909 H1917 0.960 . S
C1910 C1908 1.381 . S
C1910 C1911 1.394 . S
C1910 H1918 0.930 . S
C1911 C1910 1.394 . S
C1911 C1912 1.383 . S
C1911 H1919 0.929 . S
C1912 C1911 1.383 . S
C1912 C1913 1.377 . S
C1913 H1897 0.930 . S
C1913 C1912 1.377 . S
C1913 C1914 1.379 . S
C1914 H1898 0.931 . S
C1914 C1908 1.383 . S
C1914 C1913 1.379 . S
H1915 C1909 0.959 . S
H1916 C1909 0.961 . S
H1917 C1909 0.960 . S
H1918 C1910 0.930 . S
H1919 C1911 0.929 . S
H1920 C1928 0.929 . S
H1921 C1930 0.930 . S
H1922 C1932 0.930 . S
H1923 C1935 0.929 . S
H1924 C1938 0.930 . S
H1925 C1940 0.960 . S
H1926 C1940 0.960 . S
H1927 C1940 0.960 . S
C1928 H1920 0.929 . S
C1928 C1929 1.377 . S
C1928 C1930 1.384 . S
C1929 C1928 1.377 . S
C1929 C1935 1.390 . S
C1930 H1921 0.930 . S
C1930 C1928 1.384 . S
C1930 C1931 1.372 . S
C1931 C1930 1.372 . S
C1931 C1932 1.400 . S
C1931 C1936 1.490 . S
C1932 H1922 0.930 . S
C1932 C1931 1.400 . S
C1932 C1935 1.386 . S
H1933 C1949 0.930 . S
H1934 C1950 0.931 . S
C1935 H1923 0.929 . S
C1935 C1929 1.390 . S
C1935 C1932 1.386 . S
C1936 C1931 1.490 . S
C1936 C1938 1.395 . S
C1936 C1939 1.403 . S
H1937 C1943 0.930 . S
C1938 H1924 0.930 . S
C1938 C1936 1.395 . S
C1938 C1941 1.403 . S
C1939 C1936 1.403 . S
C1939 C1940 1.524 . S
C1939 C1943 1.400 . S
C1940 H1925 0.960 . S
C1940 H1926 0.960 . S
C1940 H1927 0.960 . S
C1940 C1939 1.524 . S
C1941 C1938 1.403 . S
C1941 C1942 1.392 . S
C1941 C1945 1.495 . S
C1942 C1941 1.392 . S
C1942 C1943 1.385 . S
C1942 C1944 1.478 . S
C1943 H1937 0.930 . S
C1943 C1939 1.400 . S
C1943 C1942 1.385 . S
C1944 C1942 1.478 . S
C1944 C1946 1.381 . S
C1944 C1950 1.383 . S
C1945 C1941 1.495 . S
C1945 H1951 0.959 . S
C1945 H1952 0.961 . S
C1945 H1953 0.960 . S
C1946 C1944 1.381 . S
C1946 C1947 1.394 . S
C1946 H1954 0.930 . S
C1947 C1946 1.394 . S
C1947 C1948 1.383 . S
C1947 H1955 0.929 . S
C1948 C1947 1.383 . S
C1948 C1949 1.377 . S
C1949 H1933 0.930 . S
C1949 C1948 1.377 . S
C1949 C1950 1.379 . S
C1950 H1934 0.931 . S
C1950 C1944 1.383 . S
C1950 C1949 1.379 . S
H1951 C1945 0.959 . S
H1952 C1945 0.961 . S
H1953 C1945 0.960 . S
H1954 C1946 0.930 . S
H1955 C1947 0.929 . S
H1956 C1964 0.929 . S
H1957 C1966 0.930 . S
H1958 C1968 0.930 . S
H1959 C1971 0.929 . S
H1960 C1974 0.930 . S
H1961 C1976 0.960 . S
H1962 C1976 0.960 . S
H1963 C1976 0.960 . S
C1964 H1956 0.929 . S
C1964 C1965 1.377 . S
C1964 C1966 1.384 . S
C1965 C1964 1.377 . S
C1965 C1971 1.390 . S
C1966 H1957 0.930 . S
C1966 C1964 1.384 . S
C1966 C1967 1.372 . S
C1967 C1966 1.372 . S
C1967 C1968 1.400 . S
C1967 C1972 1.490 . S
C1968 H1958 0.930 . S
C1968 C1967 1.400 . S
C1968 C1971 1.386 . S
H1969 C1985 0.930 . S
H1970 C1986 0.931 . S
C1971 H1959 0.929 . S
C1971 C1965 1.390 . S
C1971 C1968 1.386 . S
C1972 C1967 1.490 . S
C1972 C1974 1.395 . S
C1972 C1975 1.403 . S
H1973 C1979 0.930 . S
C1974 H1960 0.930 . S
C1974 C1972 1.395 . S
C1974 C1977 1.403 . S
C1975 C1972 1.403 . S
C1975 C1976 1.524 . S
C1975 C1979 1.400 . S
C1976 H1961 0.960 . S
C1976 H1962 0.960 . S
C1976 H1963 0.960 . S
C1976 C1975 1.524 . S
C1977 C1974 1.403 . S
C1977 C1978 1.392 . S
C1977 C1981 1.495 . S
C1978 C1977 1.392 . S
C1978 C1979 1.385 . S
C1978 C1980 1.478 . S
C1979 H1973 0.930 . S
C1979 C1975 1.400 . S
C1979 C1978 1.385 . S
C1980 C1978 1.478 . S
C1980 C1982 1.381 . S
C1980 C1986 1.383 . S
C1981 C1977 1.495 . S
C1981 H1987 0.959 . S
C1981 H1988 0.961 . S
C1981 H1989 0.960 . S
C1982 C1980 1.381 . S
C1982 C1983 1.394 . S
C1982 H1990 0.930 . S
C1983 C1982 1.394 . S
C1983 C1984 1.383 . S
C1983 H1991 0.929 . S
C1984 C1983 1.383 . S
C1984 C1985 1.377 . S
C1985 H1969 0.930 . S
C1985 C1984 1.377 . S
C1985 C1986 1.379 . S
C1986 H1970 0.931 . S
C1986 C1980 1.383 . S
C1986 C1985 1.379 . S
H1987 C1981 0.959 . S
H1988 C1981 0.961 . S
H1989 C1981 0.960 . S
H1990 C1982 0.930 . S
H1991 C1983 0.929 . S
H1992 C2000 0.929 . S
H1993 C2002 0.930 . S
H1994 C2004 0.930 . S
H1995 C2007 0.929 . S
H1996 C2010 0.930 . S
H1997 C2012 0.960 . S
H1998 C2012 0.960 . S
H1999 C2012 0.960 . S
C2000 H1992 0.929 . S
C2000 C2001 1.377 . S
C2000 C2002 1.384 . S
C2001 C2000 1.377 . S
C2001 C2007 1.390 . S
C2002 H1993 0.930 . S
C2002 C2000 1.384 . S
C2002 C2003 1.372 . S
C2003 C2002 1.372 . S
C2003 C2004 1.400 . S
C2003 C2008 1.490 . S
C2004 H1994 0.930 . S
C2004 C2003 1.400 . S
C2004 C2007 1.386 . S
H2005 C2021 0.930 . S
H2006 C2022 0.931 . S
C2007 H1995 0.929 . S
C2007 C2001 1.390 . S
C2007 C2004 1.386 . S
C2008 C2003 1.490 . S
C2008 C2010 1.395 . S
C2008 C2011 1.403 . S
H2009 C2015 0.930 . S
C2010 H1996 0.930 . S
C2010 C2008 1.395 . S
C2010 C2013 1.403 . S
C2011 C2008 1.403 . S
C2011 C2012 1.524 . S
C2011 C2015 1.400 . S
C2012 H1997 0.960 . S
C2012 H1998 0.960 . S
C2012 H1999 0.960 . S
C2012 C2011 1.524 . S
C2013 C2010 1.403 . S
C2013 C2014 1.392 . S
C2013 C2017 1.495 . S
C2014 C2013 1.392 . S
C2014 C2015 1.385 . S
C2014 C2016 1.478 . S
C2015 H2009 0.930 . S
C2015 C2011 1.400 . S
C2015 C2014 1.385 . S
C2016 C2014 1.478 . S
C2016 C2018 1.381 . S
C2016 C2022 1.383 . S
C2017 C2013 1.495 . S
C2017 H2023 0.959 . S
C2017 H2024 0.961 . S
C2017 H2025 0.960 . S
C2018 C2016 1.381 . S
C2018 C2019 1.394 . S
C2018 H2026 0.930 . S
C2019 C2018 1.394 . S
C2019 C2020 1.383 . S
C2019 H2027 0.929 . S
C2020 C2019 1.383 . S
C2020 C2021 1.377 . S
C2021 H2005 0.930 . S
C2021 C2020 1.377 . S
C2021 C2022 1.379 . S
C2022 H2006 0.931 . S
C2022 C2016 1.383 . S
C2022 C2021 1.379 . S
H2023 C2017 0.959 . S
H2024 C2017 0.961 . S
H2025 C2017 0.960 . S
H2026 C2018 0.930 . S
H2027 C2019 0.929 . S
H2028 C2036 0.929 . S
H2029 C2038 0.930 . S
H2030 C2040 0.930 . S
H2031 C2043 0.929 . S
H2032 C2046 0.930 . S
H2033 C2048 0.960 . S
H2034 C2048 0.960 . S
H2035 C2048 0.960 . S
C2036 H2028 0.929 . S
C2036 C2037 1.377 . S
C2036 C2038 1.384 . S
C2037 C2036 1.377 . S
C2037 C2043 1.390 . S
C2038 H2029 0.930 . S
C2038 C2036 1.384 . S
C2038 C2039 1.372 . S
C2039 C2038 1.372 . S
C2039 C2040 1.400 . S
C2039 C2044 1.490 . S
C2040 H2030 0.930 . S
C2040 C2039 1.400 . S
C2040 C2043 1.386 . S
H2041 C2057 0.930 . S
H2042 C2058 0.931 . S
C2043 H2031 0.929 . S
C2043 C2037 1.390 . S
C2043 C2040 1.386 . S
C2044 C2039 1.490 . S
C2044 C2046 1.395 . S
C2044 C2047 1.403 . S
H2045 C2051 0.930 . S
C2046 H2032 0.930 . S
C2046 C2044 1.395 . S
C2046 C2049 1.403 . S
C2047 C2044 1.403 . S
C2047 C2048 1.524 . S
C2047 C2051 1.400 . S
C2048 H2033 0.960 . S
C2048 H2034 0.960 . S
C2048 H2035 0.960 . S
C2048 C2047 1.524 . S
C2049 C2046 1.403 . S
C2049 C2050 1.392 . S
C2049 C2053 1.495 . S
C2050 C2049 1.392 . S
C2050 C2051 1.385 . S
C2050 C2052 1.478 . S
C2051 H2045 0.930 . S
C2051 C2047 1.400 . S
C2051 C2050 1.385 . S
C2052 C2050 1.478 . S
C2052 C2054 1.381 . S
C2052 C2058 1.383 . S
C2053 C2049 1.495 . S
C2053 H2059 0.959 . S
C2053 H2060 0.961 . S
C2053 H2061 0.960 . S
C2054 C2052 1.381 . S
C2054 C2055 1.394 . S
C2054 H2062 0.930 . S
C2055 C2054 1.394 . S
C2055 C2056 1.383 . S
C2055 H2063 0.929 . S
C2056 C2055 1.383 . S
C2056 C2057 1.377 . S
C2057 H2041 0.930 . S
C2057 C2056 1.377 . S
C2057 C2058 1.379 . S
C2058 H2042 0.931 . S
C2058 C2052 1.383 . S
C2058 C2057 1.379 . S
H2059 C2053 0.959 . S
H2060 C2053 0.961 . S
H2061 C2053 0.960 . S
H2062 C2054 0.930 . S
H2063 C2055 0.929 . S
C345 C321 1.837 . S
C364 C13 1.852 . S
C381 C27 1.843 . S
C400 C237 1.821 . S
C417 C334 1.842 . S
C436 C40 1.823 . S
C453 C295 1.844 . S
C472 C43 1.822 . S
C489 C252 1.842 . S
C508 C57 1.827 . S
C525 C267 1.843 . S
C544 C71 1.826 . S
C561 C281 1.841 . S
C580 C85 1.829 . S
C597 C110 1.840 . S
C616 C239 1.830 . S
C633 C182 1.838 . S
C652 C125 1.839 . S
C669 C197 1.841 . S
C688 C138 1.830 . S
C705 C140 1.841 . S
C724 C211 1.832 . S
C741 C167 1.841 . S
C760 C181 1.828 . S
C777 C98 1.841 . S
C796 C209 1.834 . S
C813 C223 1.843 . S
C832 C69 1.822 . S
C849 C83 1.840 . S
C868 C169 1.842 . S
C885 C194 1.842 . S
C904 C97 1.823 . S
C921 C152 1.841 . S
C940 C15 1.833 . S
C957 C28 1.841 . S
C976 C155 1.825 . S
C993 C55 1.837 . S
C1012 C113 1.849 . S
C1029 C1 1.837 . S
C1048 C126 1.852 . S
C1065 C293 1.842 . S
C1084 C307 1.826 . S
C1101 C309 1.839 . S
C1120 C251 1.847 . S
C1137 C264 1.838 . S
C1156 C225 1.839 . S
C1173 C322 1.836 . S
C1192 C279 1.852 . S
C1209 C12 0.909 . S
C1228 C112 0.935 . S
C1245 C127 0.917 . S
C1264 C26 0.893 . S
C1281 C41 0.908 . S
C1300 C153 0.956 . S
C1317 C42 0.911 . S
C1336 C154 0.918 . S
C1353 C56 0.924 . S
C1372 C168 0.871 . S
C1389 C70 0.907 . S
C1408 C195 0.948 . S
C1425 C208 0.908 . S
C1444 C84 0.944 . S
C1461 C222 0.923 . S
C1480 C111 0.901 . S
C1497 C124 0.924 . S
C1516 C224 0.897 . S
C1533 C139 0.917 . S
C1552 C323 0.933 . S
C1569 C306 0.914 . S
C1588 C141 0.907 . S
C1605 C308 0.907 . S
C1624 C166 0.949 . S
C1641 C250 0.925 . S
C1660 C180 0.872 . S
C1677 C265 0.917 . S
C1696 C183 0.894 . S
C1713 C196 0.918 . S
C1732 C278 0.886 . S
C1749 C210 0.925 . S
C1768 C292 0.877 . S
C1785 C0 0.917 . S
C1804 C236 0.932 . S
C1821 C238 0.925 . S
C1840 C68 0.874 . S
C1857 C253 0.913 . S
C1876 C82 0.912 . S
C1893 C266 0.911 . S
C1912 C96 0.918 . S
C1929 C280 0.922 . S
C1948 C99 0.911 . S
C1965 C294 0.910 . S
C1984 C29 0.955 . S
C2001 C54 0.911 . S
C2020 C320 0.919 . S
C2037 C335 0.909 . S
C2056 C14 0.958 . S
