# Generated by pormake.
# Topology umf, (4)-cn, num edge types: 1
# Building blocks:
#     Node 0, Type 0, BuildingBlock: GALJAG_clean_sbu_0, # of connection points: 4
#     Node 1, Type 0, BuildingBlock: GALJAG_clean_sbu_0, # of connection points: 4
#     Node 2, Type 0, BuildingBlock: GALJAG_clean_sbu_0, # of connection points: 4
#     Node 3, Type 0, BuildingBlock: GALJAG_clean_sbu_0, # of connection points: 4
#     Node 4, Type 0, BuildingBlock: GALJAG_clean_sbu_0, # of connection points: 4
#     Node 5, Type 0, BuildingBlock: GALJAG_clean_sbu_0, # of connection points: 4
#     Node 6, Type 0, BuildingBlock: GALJAG_clean_sbu_0, # of connection points: 4
#     Node 7, Type 0, BuildingBlock: GALJAG_clean_sbu_0, # of connection points: 4
#     Edge 8, Type (0, 0), BuildingBlock: FUNLAD_clean_linker_0, # of connection points: 2
#     Edge 9, Type (0, 0), BuildingBlock: FUNLAD_clean_linker_0, # of connection points: 2
#     Edge 10, Type (0, 0), BuildingBlock: FUNLAD_clean_linker_0, # of connection points: 2
#     Edge 11, Type (0, 0), BuildingBlock: FUNLAD_clean_linker_0, # of connection points: 2
#     Edge 12, Type (0, 0), BuildingBlock: FUNLAD_clean_linker_0, # of connection points: 2
#     Edge 13, Type (0, 0), BuildingBlock: FUNLAD_clean_linker_0, # of connection points: 2
#     Edge 14, Type (0, 0), BuildingBlock: FUNLAD_clean_linker_0, # of connection points: 2
#     Edge 15, Type (0, 0), BuildingBlock: FUNLAD_clean_linker_0, # of connection points: 2
#     Edge 16, Type (0, 0), BuildingBlock: FUNLAD_clean_linker_0, # of connection points: 2
#     Edge 17, Type (0, 0), BuildingBlock: FUNLAD_clean_linker_0, # of connection points: 2
#     Edge 18, Type (0, 0), BuildingBlock: FUNLAD_clean_linker_0, # of connection points: 2
#     Edge 19, Type (0, 0), BuildingBlock: FUNLAD_clean_linker_0, # of connection points: 2
#     Edge 20, Type (0, 0), BuildingBlock: FUNLAD_clean_linker_0, # of connection points: 2
#     Edge 21, Type (0, 0), BuildingBlock: FUNLAD_clean_linker_0, # of connection points: 2
#     Edge 22, Type (0, 0), BuildingBlock: FUNLAD_clean_linker_0, # of connection points: 2
#     Edge 23, Type (0, 0), BuildingBlock: FUNLAD_clean_linker_0, # of connection points: 2
# Relax obj value: 0.108
# Max RMSD: 0.235
# Mean RMSD: 0.235
data_MOF--net-umf--node1-GALJAG_clean_sbu_0--edge1-FUNLAD_clean_linker_0
_symmetry_space_group_name_H-M    P1
_symmetry_Int_Tables_number       1
_symmetry_cell_setting            triclinic
loop_
_symmetry_equiv_pos_as_xyz
'x, y, z'
_cell_length_a     33.179983
_cell_length_b     33.254157
_cell_length_c     61.449815
_cell_angle_alpha  90.017325
_cell_angle_beta   90.012166
_cell_angle_gamma 89.853908
loop_
_atom_site_label
_atom_site_type_symbol
_atom_site_fract_x
_atom_site_fract_y
_atom_site_fract_z
_atom_type_partial_charge
In0 In 0.06834 0.24086 0.14628 0.0
O1 O 0.0921 0.2358 0.11115 0.0
O2 O 0.02863 0.23424 0.11697 0.0
C3 C 0.12401 0.2472 0.17766 0.0
C4 C 0.0467 0.31783 0.14866 0.0
C5 C 0.03995 0.16959 0.15913 0.0
O6 O 0.1338 0.23589 0.1586 0.0
O7 O 0.08708 0.25492 0.18033 0.0
O8 O 0.01942 0.20159 0.1611 0.0
O9 O 0.07435 0.17389 0.15061 0.0
C10 C 0.05681 0.23346 0.10318 0.0
O11 O 0.0243 0.29 0.15589 0.0
O12 O 0.07936 0.30642 0.13998 0.0
In13 In 0.74144 0.06181 0.64861 0.0
O14 O 0.74854 0.07664 0.61217 0.0
O15 O 0.7401 0.01563 0.62203 0.0
C16 C 0.73909 0.12489 0.67565 0.0
C17 C 0.66419 0.04385 0.6546 0.0
C18 C 0.81336 0.0341 0.66132 0.0
O19 O 0.74641 0.1297 0.65551 0.0
O20 O 0.7334 0.08899 0.68153 0.0
O21 O 0.78107 0.01572 0.66594 0.0
O22 O 0.80894 0.0659 0.65033 0.0
C23 C 0.74514 0.04002 0.60655 0.0
O24 O 0.69223 0.02196 0.66219 0.0
O25 O 0.67546 0.0742 0.64379 0.0
In26 In 0.91421 0.74805 0.15066 0.0
O27 O 0.89344 0.75335 0.11503 0.0
O28 O 0.95623 0.75692 0.12239 0.0
C29 C 0.85398 0.74179 0.17946 0.0
C30 C 0.9354 0.67089 0.15289 0.0
C31 C 0.94135 0.81861 0.16534 0.0
O32 O 0.84746 0.75407 0.16019 0.0
O33 O 0.89014 0.73279 0.18365 0.0
O34 O 0.96238 0.78683 0.16678 0.0
O35 O 0.90727 0.81443 0.15646 0.0
C36 C 0.92921 0.75694 0.10794 0.0
O37 O 0.95691 0.69827 0.16133 0.0
O38 O 0.90389 0.68286 0.14327 0.0
In39 In 0.23741 0.9095 0.64539 0.0
O40 O 0.28506 0.95214 0.65815 0.0
O41 O 0.30368 0.90091 0.63945 0.0
C42 C 0.16561 0.93474 0.65967 0.0
C43 C 0.23019 0.92926 0.6031 0.0
C44 C 0.24255 0.84704 0.67281 0.0
O45 O 0.1975 0.95453 0.6633 0.0
O46 O 0.17034 0.90278 0.64883 0.0
O47 O 0.23074 0.84212 0.65332 0.0
O48 O 0.2518 0.88261 0.67784 0.0
C49 C 0.31385 0.93179 0.65014 0.0
O50 O 0.23378 0.89281 0.609 0.0
O51 O 0.23003 0.9545 0.61844 0.0
In52 In 0.06201 0.73898 0.87471 0.0
O53 O 0.08641 0.73895 0.90979 0.0
O54 O 0.02363 0.72892 0.9042 0.0
C55 C 0.11707 0.74406 0.8429 0.0
C56 C 0.03937 0.66481 0.8645 0.0
C57 C 0.03006 0.81223 0.87132 0.0
O58 O 0.12789 0.74302 0.86274 0.0
O59 O 0.07952 0.74362 0.83977 0.0
O60 O 0.01342 0.78188 0.86276 0.0
O61 O 0.06283 0.80549 0.88114 0.0
C62 C 0.0517 0.73282 0.9179 0.0
O63 O 0.01648 0.69488 0.86152 0.0
O64 O 0.07322 0.67236 0.87304 0.0
In65 In 0.2472 0.05387 0.36665 0.0
O66 O 0.24216 0.0679 0.40311 0.0
O67 O 0.23982 0.00662 0.39233 0.0
C68 C 0.25765 0.11229 0.33746 0.0
C69 C 0.32389 0.03169 0.36406 0.0
C70 C 0.17218 0.03815 0.35388 0.0
O71 O 0.24885 0.12066 0.35713 0.0
O72 O 0.2609 0.07526 0.33312 0.0
O73 O 0.20119 0.01465 0.34921 0.0
O74 O 0.18143 0.06868 0.3651 0.0
C75 C 0.23928 0.03089 0.40819 0.0
O76 O 0.29623 0.01125 0.35497 0.0
O77 O 0.31227 0.06243 0.37453 0.0
In78 In 0.92439 0.2425 0.86818 0.0
O79 O 0.90441 0.24885 0.90388 0.0
O80 O 0.96689 0.24082 0.89664 0.0
C81 C 0.86634 0.24942 0.8382 0.0
C82 C 0.95692 0.31237 0.85734 0.0
C83 C 0.93708 0.16452 0.86099 0.0
O84 O 0.85767 0.24893 0.85837 0.0
O85 O 0.90335 0.24602 0.83379 0.0
O86 O 0.9614 0.19102 0.85418 0.0
O87 O 0.90716 0.17764 0.87158 0.0
C88 C 0.94018 0.24543 0.91106 0.0
O89 O 0.97625 0.27972 0.85494 0.0
O90 O 0.92229 0.30942 0.86578 0.0
In91 In 0.75694 0.91285 0.37279 0.0
O92 O 0.76296 0.89531 0.4088 0.0
O93 O 0.77706 0.95534 0.39916 0.0
C94 C 0.74078 0.84892 0.3476 0.0
C95 C 0.68319 0.94474 0.37328 0.0
C96 C 0.8276 0.93117 0.35433 0.0
O97 O 0.75763 0.8448 0.36601 0.0
O98 O 0.73149 0.88454 0.34263 0.0
O99 O 0.79762 0.9548 0.35319 0.0
O100 O 0.82157 0.89906 0.36478 0.0
C101 C 0.77376 0.93036 0.41452 0.0
O102 O 0.7104 0.95817 0.36076 0.0
O103 O 0.69351 0.91567 0.38531 0.0
C104 C 0.00053 0.37283 0.16092 0.0
C105 C 0.03656 0.36074 0.15089 0.0
C106 C 0.99157 0.41364 0.16333 0.0
C107 C 0.01849 0.44304 0.15561 0.0
C108 C 0.05477 0.43083 0.14595 0.0
C109 C 0.06366 0.3901 0.14349 0.0
C110 C 0.00989 0.48663 0.15738 0.0
C111 C 0.97223 0.5016 0.15753 0.0
C112 C 0.96356 0.54526 0.15702 0.0
C113 C 0.92752 0.55828 0.14742 0.0
C114 C 0.9186 0.59914 0.14601 0.0
C115 C 0.94538 0.62784 0.15445 0.0
H116 H 0.01763 0.5649 0.17396 0.0
C117 C 0.98109 0.61492 0.16452 0.0
C118 C 0.99013 0.57394 0.16583 0.0
H119 H 0.00202 0.63644 0.17137 0.0
H120 H 0.97936 0.35079 0.16702 0.0
H121 H 0.96388 0.42194 0.17149 0.0
H122 H 0.07611 0.45287 0.14001 0.0
H123 H 0.09185 0.38165 0.13585 0.0
H124 H 0.0354 0.50699 0.15664 0.0
H125 H 0.94673 0.48136 0.15605 0.0
H126 H 0.90644 0.53678 0.14066 0.0
H127 H 0.89065 0.60821 0.1383 0.0
C128 C 0.36709 0.9768 0.66536 0.0
C129 C 0.35644 0.94216 0.65367 0.0
C130 C 0.40761 0.98612 0.66881 0.0
C131 C 0.43812 0.96093 0.66051 0.0
C132 C 0.42733 0.92589 0.64927 0.0
C133 C 0.38691 0.91668 0.64576 0.0
C134 C 0.48144 0.9703 0.66299 0.0
C135 C 0.49541 0.00814 0.66432 0.0
C136 C 0.53893 0.01749 0.66332 0.0
C137 C 0.55095 0.05362 0.65359 0.0
C138 C 0.59173 0.06223 0.65087 0.0
C139 C 0.62126 0.03503 0.65812 0.0
H140 H 0.56022 0.96328 0.67947 0.0
C141 C 0.60935 -0.00044 0.66865 0.0
C142 C 0.56849 -0.00917 0.67126 0.0
H143 H 0.63154 0.97835 0.67465 0.0
H144 H 0.34415 -0.00334 0.67189 0.0
H145 H 0.41483 0.01277 0.67812 0.0
H146 H 0.45027 0.90589 0.64286 0.0
H147 H 0.37958 0.88955 0.63686 0.0
H148 H 0.50258 0.94547 0.6614 0.0
H149 H 0.47448 0.03327 0.66367 0.0
H150 H 0.52874 0.07478 0.64752 0.0
H151 H 0.60007 0.09005 0.64291 0.0
C152 C 0.94515 0.38139 0.84395 0.0
C153 C 0.97248 0.35144 0.85032 0.0
C154 C 0.95862 0.41994 0.8392 0.0
C155 C -0.00034 0.42962 0.84146 0.0
C156 C 0.02732 0.39887 0.8464 0.0
C157 C 0.01383 0.35987 0.85072 0.0
C158 C 0.01406 0.47172 0.8404 0.0
C159 C 0.9899 0.50319 0.84506 0.0
C160 C 0.00459 0.5447 0.84812 0.0
C161 C 0.97715 0.57659 0.84578 0.0
C162 C 0.9886 0.61585 0.85074 0.0
C163 C 0.0276 0.62376 0.85841 0.0
H164 H 0.06553 0.5289 0.85813 0.0
C165 C 0.05527 0.592 0.86051 0.0
C166 C 0.04391 0.55278 0.85544 0.0
H167 H 0.08556 0.59731 0.86642 0.0
H168 H 0.91317 0.37511 0.84289 0.0
H169 H 0.93654 0.44206 0.83422 0.0
H170 H 0.05917 0.40541 0.84791 0.0
H171 H 0.03542 0.33694 0.85537 0.0
H172 H 0.04599 0.4765 0.83758 0.0
H173 H 0.95801 0.49862 0.84796 0.0
H174 H 0.94656 0.57102 0.8404 0.0
H175 H 0.96669 0.63983 0.84897 0.0
C176 C 0.3953 0.04381 0.37424 0.0
C177 C 0.36701 0.02161 0.36226 0.0
C178 C 0.43628 0.03534 0.37252 0.0
C179 C 0.44988 0.00434 0.35881 0.0
C180 C 0.42175 0.98267 0.34644 0.0
C181 C 0.38052 -0.00899 0.34827 0.0
C182 C 0.49327 -0.00569 0.35724 0.0
C183 C 0.51792 -0.00278 0.37454 0.0
C184 C 0.56075 0.98521 0.37384 0.0
C185 C 0.57771 0.96716 0.39229 0.0
C186 C 0.61773 0.95443 0.3921 0.0
C187 C 0.64182 0.96055 0.37363 0.0
H188 H 0.57279 0.00674 0.34114 0.0
C189 C 0.62539 0.98002 0.3554 0.0
C190 C 0.58496 -0.00801 0.35542 0.0
H191 H 0.64347 0.98504 0.34098 0.0
H192 H 0.38584 0.06789 0.38498 0.0
H193 H 0.45726 0.05344 0.38178 0.0
H194 H 0.43162 0.95887 0.33563 0.0
H195 H 0.35934 0.97373 0.33868 0.0
H196 H 0.50446 0.98172 0.34207 0.0
H197 H 0.50563 0.0056 0.3903 0.0
H198 H 0.55968 0.96204 0.40673 0.0
H199 H 0.62983 0.93971 0.40642 0.0
C200 C 0.99163 0.24445 0.9407 0.0
C201 C 0.95088 0.24607 0.93447 0.0
C202 C 0.0026 0.24406 0.96264 0.0
C203 C 0.97297 0.24492 0.97902 0.0
C204 C 0.93219 0.24722 0.97275 0.0
C205 C 0.92122 0.24773 0.95072 0.0
C206 C 0.98309 0.24427 1.00271 0.0
C207 C 0.01935 0.23335 0.01093 0.0
C208 C 0.02857 0.23251 0.03469 0.0
C209 C 0.06887 0.23557 0.04166 0.0
C210 C 0.07852 0.23529 0.06389 0.0
C211 C 0.04799 0.23161 0.07957 0.0
H212 H 0.96706 0.22353 0.0459 0.0
C213 C 0.00787 0.22739 0.07256 0.0
C214 C -0.00174 0.22765 0.05045 0.0
H215 H 0.98362 0.224 0.08422 0.0
H216 H 0.01531 0.24355 0.92857 0.0
H217 H 0.03437 0.24359 0.96648 0.0
H218 H 0.90864 0.24828 0.98495 0.0
H219 H 0.88958 0.2491 0.94643 0.0
H220 H 0.95916 0.25306 0.01378 0.0
H221 H 0.04373 0.22507 1.00008 0.0
H222 H 0.09293 0.2388 0.02988 0.0
H223 H 0.10972 0.23847 0.06878 0.0
C224 C 0.76075 0.05022 0.56678 0.0
C225 C 0.74681 0.02567 0.58377 0.0
C226 C 0.76341 0.03507 0.54549 0.0
C227 C 0.7519 -0.00485 0.54088 0.0
C228 C 0.73712 0.97119 0.55784 0.0
C229 C 0.73491 0.98609 0.57901 0.0
C230 C 0.75344 0.97751 0.51863 0.0
C231 C 0.77922 0.9896 0.50303 0.0
C232 C 0.77999 0.97203 0.48072 0.0
C233 C 0.79463 -0.00432 0.46358 0.0
C234 C 0.7938 0.98147 0.4422 0.0
C235 C 0.77877 0.94296 0.43746 0.0
H236 H 0.75642 0.91289 0.48893 0.0
C237 C 0.76593 0.91837 0.45467 0.0
C238 C 0.76654 0.93272 0.47611 0.0
H239 H 0.75442 0.88848 0.45152 0.0
H240 H 0.76992 0.08089 0.56996 0.0
H241 H 0.77385 0.05488 0.53274 0.0
H242 H 0.72764 0.94055 0.55475 0.0
H243 H 0.72374 0.96645 0.5917 0.0
H244 H 0.73278 0.95302 0.51529 0.0
H245 H 0.79977 0.0142 0.50636 0.0
H246 H 0.80569 0.0258 0.46664 0.0
H247 H 0.80419 0.00108 0.42931 0.0
C248 C 0.98011 0.76497 0.07839 0.0
C249 C 0.93983 0.75849 0.08456 0.0
C250 C 0.9916 0.76329 0.05655 0.0
C251 C 0.96306 0.7547 0.04027 0.0
C252 C 0.9225 0.74965 0.04639 0.0
C253 C 0.91097 0.75143 0.06831 0.0
C254 C 0.97416 0.75109 0.01682 0.0
C255 C 0.01196 0.74384 0.00954 0.0
C256 C 0.02222 0.7393 0.98606 0.0
C257 C 0.06172 0.74743 0.97898 0.0
C258 C 0.07201 0.74435 0.9569 0.0
C259 C 0.04299 0.73275 0.94153 0.0
H260 H 0.9635 0.7179 0.97549 0.0
C261 C 0.00397 0.72314 0.94874 0.0
C262 C -0.00627 0.72618 0.97069 0.0
H263 H 0.98099 0.71358 0.93734 0.0
H264 H 0.00304 0.77097 0.09051 0.0
H265 H 0.02283 0.76895 0.05264 0.0
H266 H 0.89973 0.74348 0.03421 0.0
H267 H 0.87971 0.74638 0.07256 0.0
H268 H 0.9497 0.75387 1.00519 0.0
H269 H 0.03673 0.74143 0.02098 0.0
H270 H 0.08447 0.75702 0.99051 0.0
H271 H 0.10233 0.75189 0.95184 0.0
C272 C 0.23637 0.04255 0.4487 0.0
C273 C 0.23695 0.01606 0.4309 0.0
C274 C 0.23557 0.02761 0.47006 0.0
C275 C 0.23527 0.98579 0.47398 0.0
C276 C 0.23593 0.95955 0.45612 0.0
C277 C 0.23652 0.97442 0.43488 0.0
C278 C 0.23611 0.96813 0.49628 0.0
C279 C 0.2223 0.98734 0.5141 0.0
C280 C 0.22392 0.9705 0.5366 0.0
C281 C 0.21978 -0.00271 0.5541 0.0
C282 C 0.22155 0.98359 0.57553 0.0
C283 C 0.22718 0.94255 0.58013 0.0
H284 H 0.23105 0.90717 0.52824 0.0
C285 C 0.23054 0.91537 0.56273 0.0
C286 C 0.22887 0.92915 0.54115 0.0
H287 H 0.23464 0.88354 0.56578 0.0
H288 H 0.23704 0.07477 0.44615 0.0
H289 H 0.23626 0.04893 0.48334 0.0
H290 H 0.23601 0.92728 0.45858 0.0
H291 H 0.23711 0.9531 0.42155 0.0
H292 H 0.24826 0.93795 0.49778 0.0
H293 H 0.20984 0.01739 0.51236 0.0
H294 H 0.21563 0.02918 0.5512 0.0
H295 H 0.21866 0.00541 0.58854 0.0
C296 C 0.18715 0.22532 0.19697 0.0
C297 C 0.15198 0.24878 0.19633 0.0
C298 C 0.2087 0.22108 0.21649 0.0
C299 C 0.19553 0.24072 0.23561 0.0
C300 C 0.16205 0.26643 0.23434 0.0
C301 C 0.14054 0.2704 0.21499 0.0
C302 C 0.21146 0.23091 0.25765 0.0
C303 C 0.24634 0.21136 0.26142 0.0
C304 C 0.25518 0.19131 0.28256 0.0
C305 C 0.27821 0.15593 0.28214 0.0
C306 C 0.28092 0.13158 0.30054 0.0
C307 C 0.2612 0.14238 0.31992 0.0
H308 H 0.22158 0.23184 0.30371 0.0
C309 C 0.24132 0.1796 0.32108 0.0
C310 C 0.23827 0.20395 0.30251 0.0
H311 H 0.2262 0.18879 0.33589 0.0
H312 H 0.19648 0.20819 0.18283 0.0
H313 H 0.23391 0.20044 0.2167 0.0
H314 H 0.15118 0.28198 0.2487 0.0
H315 H 0.11372 0.28907 0.21493 0.0
H316 H 0.19129 0.23693 0.27118 0.0
H317 H 0.26662 0.20513 0.24799 0.0
H318 H 0.29202 0.14569 0.26714 0.0
H319 H 0.29701 0.10327 0.29927 0.0
C320 C 0.84963 0.26063 0.79933 0.0
C321 C 0.83634 0.2519 0.8205 0.0
C322 C 0.82381 0.25683 0.78159 0.0
C323 C 0.7837 0.24424 0.78455 0.0
C324 C 0.7697 0.23807 0.80594 0.0
C325 C 0.79574 0.24202 0.8238 0.0
C326 C 0.75805 0.23115 0.76591 0.0
C327 C 0.76759 0.23747 0.74478 0.0
C328 C 0.75225 0.21255 0.72634 0.0
C329 C 0.7656 0.22128 0.70509 0.0
C330 C 0.75923 0.19408 0.688 0.0
C331 C 0.73955 0.15754 0.69194 0.0
H332 H 0.71877 0.16865 0.74555 0.0
C333 C 0.7236 0.15018 0.71271 0.0
C334 C 0.7298 0.17721 0.7297 0.0
H335 H 0.70781 0.12241 0.71617 0.0
H336 H 0.88075 0.26873 0.7963 0.0
H337 H 0.83657 0.26144 0.76563 0.0
H338 H 0.73906 0.22819 0.80878 0.0
H339 H 0.7847 0.23518 0.83996 0.0
H340 H 0.73254 0.21238 0.77002 0.0
H341 H 0.79072 0.25918 0.74074 0.0
H342 H 0.78296 0.2482 0.70192 0.0
H343 H 0.77174 0.20056 0.67211 0.0
C344 C 0.71169 0.82166 0.31338 0.0
C345 C 0.73744 0.81647 0.33132 0.0
C346 C 0.7152 0.79696 0.29511 0.0
C347 C 0.7451 0.76695 0.29429 0.0
C348 C 0.76799 0.75918 0.31311 0.0
C349 C 0.76423 0.78378 0.33151 0.0
C350 C 0.75628 0.74632 0.27364 0.0
C351 C 0.75199 0.76398 0.25394 0.0
C352 C 0.77352 0.75106 0.23379 0.0
C353 C 0.76409 0.77031 0.21401 0.0
C354 C 0.78858 0.76526 0.19564 0.0
C355 C 0.8232 0.74111 0.19681 0.0
H356 H 0.81563 0.70917 0.24902 0.0
C357 C 0.83111 0.7197 0.21604 0.0
C358 C 0.80664 0.72452 0.23432 0.0
H359 H 0.8575 0.70058 0.21734 0.0
H360 H 0.69019 0.84624 0.313 0.0
H361 H 0.69559 0.80268 0.28138 0.0
H362 H 0.79086 0.73586 0.31305 0.0
H363 H 0.7844 0.77907 0.34514 0.0
H364 H 0.77299 0.71842 0.27515 0.0
H365 H 0.73532 0.792 0.25273 0.0
H366 H 0.73884 0.79097 0.21307 0.0
H367 H 0.78182 0.78217 0.18101 0.0
C368 C 0.26535 0.82021 0.70845 0.0
C369 C 0.24159 0.81555 0.6897 0.0
C370 C 0.25834 0.79679 0.72689 0.0
C371 C 0.22676 0.76865 0.7271 0.0
C372 C 0.20561 0.7614 0.70762 0.0
C373 C 0.21297 0.78464 0.68903 0.0
C374 C 0.21202 0.74956 0.74755 0.0
C375 C 0.21898 0.76473 0.76763 0.0
C376 C 0.19466 0.7538 0.78709 0.0
C377 C 0.21009 0.76108 0.80807 0.0
C378 C 0.18562 0.75652 0.82654 0.0
C379 C 0.14509 0.74536 0.82422 0.0
H380 H 0.14077 0.73659 0.76922 0.0
C381 C 0.13008 0.73708 0.80331 0.0
C382 C 0.15443 0.74124 0.785 0.0
H383 H 0.09895 0.72831 0.80096 0.0
H384 H 0.28819 0.84341 0.70922 0.0
H385 H 0.27676 0.80216 0.7411 0.0
H386 H 0.18148 0.73952 0.70716 0.0
H387 H 0.19427 0.78042 0.67476 0.0
H388 H 0.19086 0.72492 0.74575 0.0
H389 H 0.2407 0.78865 0.7699 0.0
H390 H 0.24083 0.77131 0.81013 0.0
H391 H 0.19793 0.76314 0.84246 0.0
C392 C 0.05024 0.09601 0.16448 0.0
C393 C 0.02476 0.12973 0.16561 0.0
C394 C 0.03557 0.05771 0.16916 0.0
C395 C -0.00498 0.05234 0.17514 0.0
C396 C 0.96977 0.0862 0.17667 0.0
C397 C 0.98455 0.12461 0.1721 0.0
C398 C 0.97715 0.01174 0.17755 0.0
C399 C -0.00127 0.97872 0.18284 0.0
C400 C 0.98274 0.93706 0.18119 0.0
C401 C 0.01026 0.90491 0.17979 0.0
C402 C -0.00314 0.86584 0.17554 0.0
C403 C 0.95566 0.85834 0.17252 0.0
H404 H 0.91869 0.95196 0.18167 0.0
C405 C 0.92795 0.8899 0.17519 0.0
C406 C 0.94123 0.92875 0.17971 0.0
H407 H 0.89589 0.8847 0.17343 0.0
H408 H 0.08139 0.09904 0.15948 0.0
H409 H 0.05573 0.03238 0.16711 0.0
H410 H 0.93831 0.08284 0.18101 0.0
H411 H 0.96423 0.15009 0.17307 0.0
H412 H 0.9454 0.00931 0.17366 0.0
H413 H 0.03036 0.9819 0.18703 0.0
H414 H 0.04236 0.91026 0.18113 0.0
H415 H 0.01882 0.84193 0.17371 0.0
C416 C 0.09155 0.92432 0.66225 0.0
C417 C 0.12535 0.94823 0.66674 0.0
C418 C 0.0529 0.93795 0.66724 0.0
C419 C 0.04718 0.9758 0.67703 0.0
C420 C 0.08114 -0.0008 0.68208 0.0
C421 C 0.11992 0.9855 0.67706 0.0
C422 C 0.00643 -0.00637 0.67978 0.0
C423 C 0.97219 0.9719 0.67956 0.0
C424 C 0.93161 0.99018 0.67699 0.0
C425 C 0.89739 0.96758 0.68254 0.0
C426 C 0.85869 0.98214 0.678 0.0
C427 C 0.85364 0.01942 0.66763 0.0
H428 H 0.95169 0.04575 0.66173 0.0
C429 C 0.88778 0.04234 0.66246 0.0
C430 C 0.92631 0.02789 0.66699 0.0
H431 H 0.88485 0.07115 0.65438 0.0
H432 H 0.0948 0.89545 0.65426 0.0
H433 H 0.02775 0.91937 0.66242 0.0
H434 H 0.0776 0.02863 0.68942 0.0
H435 H 0.14549 0.00454 0.68072 0.0
H436 H 0.00474 0.02615 0.68113 0.0
H437 H 0.97368 0.93934 0.68048 0.0
H438 H 0.90062 0.93822 0.68999 0.0
H439 H 0.83285 0.96382 0.68213 0.0
C440 C 0.91785 0.09344 0.86773 0.0
C441 C 0.94298 0.12124 0.85721 0.0
C442 C 0.92424 0.05233 0.86518 0.0
C443 C 0.9558 0.03826 0.85198 0.0
C444 C 0.9797 0.06591 0.84061 0.0
C445 C 0.97359 0.10721 0.84336 0.0
C446 C 0.96561 -0.005 0.85094 0.0
C447 C 0.96494 0.97223 0.86898 0.0
C448 C 0.98035 0.93071 0.86929 0.0
C449 C 0.00411 0.91843 0.88693 0.0
C450 C 0.02049 0.87987 0.88741 0.0
C451 C 0.01226 0.85258 0.87059 0.0
H452 H 0.95298 0.91215 0.83886 0.0
C453 C 0.98735 0.86432 0.85325 0.0
C454 C 0.97183 0.9034 0.85246 0.0
H455 H 0.98057 0.8436 0.84015 0.0
H456 H 0.8937 0.10341 0.87832 0.0
H457 H 0.90478 0.03156 0.87374 0.0
H458 H 0.00404 0.05558 0.83025 0.0
H459 H -0.00694 0.12807 0.83487 0.0
H460 H 0.97783 0.98288 0.83589 0.0
H461 H 0.95718 0.98579 0.88454 0.0
H462 H 0.01077 0.93904 0.90011 0.0
H463 H 0.03931 0.87127 0.90106 0.0
C464 C 0.87652 0.97929 0.33742 0.0
C465 C 0.86762 0.9407 0.34529 0.0
C466 C 0.91593 0.98903 0.33129 0.0
C467 C 0.94706 0.96026 0.33305 0.0
C468 C 0.93734 0.92102 0.33949 0.0
C469 C 0.89814 0.91138 0.34566 0.0
C470 C 0.99028 0.97028 0.32996 0.0
C471 C 0.00514 0.00733 0.33359 0.0
C472 C 0.0488 0.01575 0.33654 0.0
C473 C 0.05959 0.05033 0.34823 0.0
C474 C 0.09972 0.05774 0.35351 0.0
C475 C 0.13016 0.0308 0.34712 0.0
H476 H 0.0728 0.96337 0.31955 0.0
C477 C 0.11984 -0.00294 0.3346 0.0
C478 C 0.07953 0.98965 0.32924 0.0
H479 H 0.14281 0.97615 0.32916 0.0
H480 H 0.85339 0.00229 0.33667 0.0
H481 H 0.92191 0.01921 0.32561 0.0
H482 H 0.96054 0.89814 0.34074 0.0
H483 H 0.89205 0.88117 0.35135 0.0
H484 H 0.0108 0.94517 0.32777 0.0
H485 H 0.9845 0.03171 0.33739 0.0
H486 H 0.03673 0.07115 0.35393 0.0
H487 H 0.10675 0.08429 0.36298 0.0
loop_
_geom_bond_atom_site_label_1
_geom_bond_atom_site_label_2
_geom_bond_distance
_geom_bond_site_symmetry_2
_ccdc_geom_bond_type
In0 O1 2.294 . S
In0 O2 2.326 . S
In0 O6 2.266 . S
In0 O7 2.326 . S
In0 O8 2.266 . S
In0 O9 2.326 . S
In0 O11 2.294 . S
In0 O12 2.326 . S
O1 In0 2.294 . S
O1 C10 1.240 . S
O2 In0 2.326 . S
O2 C10 1.252 . S
C3 O6 1.252 . S
C3 O7 1.260 . S
C4 O11 1.240 . S
C4 O12 1.252 . S
C5 O8 1.252 . S
C5 O9 1.260 . S
O6 In0 2.266 . S
O6 C3 1.252 . S
O7 In0 2.326 . S
O7 C3 1.260 . S
O8 In0 2.266 . S
O8 C5 1.252 . S
O9 In0 2.326 . S
O9 C5 1.260 . S
C10 O1 1.240 . S
C10 O2 1.252 . S
O11 In0 2.294 . S
O11 C4 1.240 . S
O12 In0 2.326 . S
O12 C4 1.252 . S
In13 O14 2.294 . S
In13 O15 2.326 . S
In13 O19 2.266 . S
In13 O20 2.326 . S
In13 O21 2.266 . S
In13 O22 2.326 . S
In13 O24 2.294 . S
In13 O25 2.326 . S
O14 In13 2.294 . S
O14 C23 1.240 . S
O15 In13 2.326 . S
O15 C23 1.252 . S
C16 O19 1.252 . S
C16 O20 1.260 . S
C17 O24 1.240 . S
C17 O25 1.252 . S
C18 O21 1.252 . S
C18 O22 1.260 . S
O19 In13 2.266 . S
O19 C16 1.252 . S
O20 In13 2.326 . S
O20 C16 1.260 . S
O21 In13 2.266 . S
O21 C18 1.252 . S
O22 In13 2.326 . S
O22 C18 1.260 . S
C23 O14 1.240 . S
C23 O15 1.252 . S
O24 In13 2.294 . S
O24 C17 1.240 . S
O25 In13 2.326 . S
O25 C17 1.252 . S
In26 O27 2.294 . S
In26 O28 2.326 . S
In26 O32 2.266 . S
In26 O33 2.326 . S
In26 O34 2.266 . S
In26 O35 2.326 . S
In26 O37 2.294 . S
In26 O38 2.326 . S
O27 In26 2.294 . S
O27 C36 1.240 . S
O28 In26 2.326 . S
O28 C36 1.252 . S
C29 O32 1.252 . S
C29 O33 1.260 . S
C30 O37 1.240 . S
C30 O38 1.252 . S
C31 O34 1.252 . S
C31 O35 1.260 . S
O32 In26 2.266 . S
O32 C29 1.252 . S
O33 In26 2.326 . S
O33 C29 1.260 . S
O34 In26 2.266 . S
O34 C31 1.252 . S
O35 In26 2.326 . S
O35 C31 1.260 . S
C36 O27 1.240 . S
C36 O28 1.252 . S
O37 In26 2.294 . S
O37 C30 1.240 . S
O38 In26 2.326 . S
O38 C30 1.252 . S
In39 O40 2.294 . S
In39 O41 2.326 . S
In39 O45 2.266 . S
In39 O46 2.326 . S
In39 O47 2.266 . S
In39 O48 2.326 . S
In39 O50 2.294 . S
In39 O51 2.326 . S
O40 In39 2.294 . S
O40 C49 1.240 . S
O41 In39 2.326 . S
O41 C49 1.252 . S
C42 O45 1.252 . S
C42 O46 1.260 . S
C43 O50 1.240 . S
C43 O51 1.252 . S
C44 O47 1.252 . S
C44 O48 1.260 . S
O45 In39 2.266 . S
O45 C42 1.252 . S
O46 In39 2.326 . S
O46 C42 1.260 . S
O47 In39 2.266 . S
O47 C44 1.252 . S
O48 In39 2.326 . S
O48 C44 1.260 . S
C49 O40 1.240 . S
C49 O41 1.252 . S
O50 In39 2.294 . S
O50 C43 1.240 . S
O51 In39 2.326 . S
O51 C43 1.252 . S
In52 O53 2.294 . S
In52 O54 2.326 . S
In52 O58 2.266 . S
In52 O59 2.326 . S
In52 O60 2.266 . S
In52 O61 2.326 . S
In52 O63 2.294 . S
In52 O64 2.326 . S
O53 In52 2.294 . S
O53 C62 1.240 . S
O54 In52 2.326 . S
O54 C62 1.252 . S
C55 O58 1.252 . S
C55 O59 1.260 . S
C56 O63 1.240 . S
C56 O64 1.252 . S
C57 O60 1.252 . S
C57 O61 1.260 . S
O58 In52 2.266 . S
O58 C55 1.252 . S
O59 In52 2.326 . S
O59 C55 1.260 . S
O60 In52 2.266 . S
O60 C57 1.252 . S
O61 In52 2.326 . S
O61 C57 1.260 . S
C62 O53 1.240 . S
C62 O54 1.252 . S
O63 In52 2.294 . S
O63 C56 1.240 . S
O64 In52 2.326 . S
O64 C56 1.252 . S
In65 O66 2.294 . S
In65 O67 2.326 . S
In65 O71 2.266 . S
In65 O72 2.326 . S
In65 O73 2.266 . S
In65 O74 2.326 . S
In65 O76 2.294 . S
In65 O77 2.326 . S
O66 In65 2.294 . S
O66 C75 1.240 . S
O67 In65 2.326 . S
O67 C75 1.252 . S
C68 O71 1.252 . S
C68 O72 1.260 . S
C69 O76 1.240 . S
C69 O77 1.252 . S
C70 O73 1.252 . S
C70 O74 1.260 . S
O71 In65 2.266 . S
O71 C68 1.252 . S
O72 In65 2.326 . S
O72 C68 1.260 . S
O73 In65 2.266 . S
O73 C70 1.252 . S
O74 In65 2.326 . S
O74 C70 1.260 . S
C75 O66 1.240 . S
C75 O67 1.252 . S
O76 In65 2.294 . S
O76 C69 1.240 . S
O77 In65 2.326 . S
O77 C69 1.252 . S
In78 O79 2.294 . S
In78 O80 2.326 . S
In78 O84 2.266 . S
In78 O85 2.326 . S
In78 O86 2.266 . S
In78 O87 2.326 . S
In78 O89 2.294 . S
In78 O90 2.326 . S
O79 In78 2.294 . S
O79 C88 1.240 . S
O80 In78 2.326 . S
O80 C88 1.252 . S
C81 O84 1.252 . S
C81 O85 1.260 . S
C82 O89 1.240 . S
C82 O90 1.252 . S
C83 O86 1.252 . S
C83 O87 1.260 . S
O84 In78 2.266 . S
O84 C81 1.252 . S
O85 In78 2.326 . S
O85 C81 1.260 . S
O86 In78 2.266 . S
O86 C83 1.252 . S
O87 In78 2.326 . S
O87 C83 1.260 . S
C88 O79 1.240 . S
C88 O80 1.252 . S
O89 In78 2.294 . S
O89 C82 1.240 . S
O90 In78 2.326 . S
O90 C82 1.252 . S
In91 O92 2.294 . S
In91 O93 2.326 . S
In91 O97 2.266 . S
In91 O98 2.326 . S
In91 O99 2.266 . S
In91 O100 2.326 . S
In91 O102 2.294 . S
In91 O103 2.326 . S
O92 In91 2.294 . S
O92 C101 1.240 . S
O93 In91 2.326 . S
O93 C101 1.252 . S
C94 O97 1.252 . S
C94 O98 1.260 . S
C95 O102 1.240 . S
C95 O103 1.252 . S
C96 O99 1.252 . S
C96 O100 1.260 . S
O97 In91 2.266 . S
O97 C94 1.252 . S
O98 In91 2.326 . S
O98 C94 1.260 . S
O99 In91 2.266 . S
O99 C96 1.252 . S
O100 In91 2.326 . S
O100 C96 1.260 . S
C101 O92 1.240 . S
C101 O93 1.252 . S
O102 In91 2.294 . S
O102 C95 1.240 . S
O103 In91 2.326 . S
O103 C95 1.252 . S
C104 C105 1.386 1_655 S
C104 C106 1.383 . S
C104 H120 0.951 . S
C105 C104 1.386 1_455 S
C105 C109 1.383 . S
C106 C104 1.383 . S
C106 C107 1.402 1_655 S
C106 H121 0.951 . S
C107 C106 1.402 1_455 S
C107 C108 1.375 . S
C107 C110 1.481 . S
C108 C107 1.375 . S
C108 C109 1.367 . S
C108 H122 0.951 . S
C109 C105 1.383 . S
C109 C108 1.367 . S
C109 H123 0.950 . S
C110 C107 1.481 . S
C110 C111 1.297 1_455 S
C110 H124 0.950 . S
C111 C110 1.297 1_655 S
C111 C112 1.479 . S
C111 H125 0.950 . S
C112 C111 1.479 . S
C112 C113 1.375 . S
C112 C118 1.404 1_655 S
C113 C112 1.375 . S
C113 C114 1.369 . S
C113 H126 0.950 . S
C114 C113 1.369 . S
C114 C115 1.392 . S
C114 H127 0.951 . S
C115 C114 1.392 . S
C115 C117 1.384 1_655 S
H116 C118 0.949 . S
C117 C115 1.384 1_455 S
C117 C118 1.385 . S
C117 H119 0.950 . S
C118 C112 1.404 1_455 S
C118 H116 0.949 . S
C118 C117 1.385 . S
H119 C117 0.950 . S
H120 C104 0.951 . S
H121 C106 0.951 . S
H122 C108 0.951 . S
H123 C109 0.950 . S
H124 C110 0.950 . S
H125 C111 0.950 . S
H126 C113 0.950 . S
H127 C114 0.951 . S
C128 C129 1.386 . S
C128 C130 1.383 . S
C128 H144 0.951 1_565 S
C129 C128 1.386 . S
C129 C133 1.383 . S
C130 C128 1.383 . S
C130 C131 1.402 . S
C130 H145 0.951 1_565 S
C131 C130 1.402 . S
C131 C132 1.375 . S
C131 C134 1.481 . S
C132 C131 1.375 . S
C132 C133 1.367 . S
C132 H146 0.951 . S
C133 C129 1.383 . S
C133 C132 1.367 . S
C133 H147 0.950 . S
C134 C131 1.481 . S
C134 C135 1.297 . S
C134 H148 0.950 . S
C135 C134 1.297 . S
C135 C136 1.479 1_565 S
C135 H149 0.950 1_565 S
C136 C135 1.479 1_545 S
C136 C137 1.375 . S
C136 C142 1.404 1_545 S
C137 C136 1.375 . S
C137 C138 1.369 . S
C137 H150 0.950 . S
C138 C137 1.369 . S
C138 C139 1.392 . S
C138 H151 0.951 . S
C139 C138 1.392 . S
C139 C141 1.384 1_545 S
H140 C142 0.949 . S
C141 C139 1.384 1_565 S
C141 C142 1.385 . S
C141 H143 0.950 . S
C142 C136 1.404 1_565 S
C142 H140 0.949 . S
C142 C141 1.385 . S
H143 C141 0.950 . S
H144 C128 0.951 1_545 S
H145 C130 0.951 1_545 S
H146 C132 0.951 . S
H147 C133 0.950 . S
H148 C134 0.950 . S
H149 C135 0.950 1_545 S
H150 C137 0.950 . S
H151 C138 0.951 . S
C152 C153 1.386 . S
C152 C154 1.383 . S
C152 H168 0.951 . S
C153 C152 1.386 . S
C153 C157 1.383 1_655 S
C154 C152 1.383 . S
C154 C155 1.402 . S
C154 H169 0.951 . S
C155 C154 1.402 . S
C155 C156 1.375 1_655 S
C155 C158 1.481 1_655 S
C156 C155 1.375 1_455 S
C156 C157 1.367 . S
C156 H170 0.951 . S
C157 C153 1.383 1_455 S
C157 C156 1.367 . S
C157 H171 0.950 . S
C158 C155 1.481 1_455 S
C158 C159 1.297 1_455 S
C158 H172 0.950 . S
C159 C158 1.297 1_655 S
C159 C160 1.479 1_655 S
C159 H173 0.950 . S
C160 C159 1.479 1_455 S
C160 C161 1.375 1_455 S
C160 C166 1.404 . S
C161 C160 1.375 1_655 S
C161 C162 1.369 . S
C161 H174 0.950 . S
C162 C161 1.369 . S
C162 C163 1.392 1_655 S
C162 H175 0.951 . S
C163 C162 1.392 1_455 S
C163 C165 1.384 . S
H164 C166 0.949 . S
C165 C163 1.384 . S
C165 C166 1.385 . S
C165 H167 0.950 . S
C166 C160 1.404 . S
C166 H164 0.949 . S
C166 C165 1.385 . S
H167 C165 0.950 . S
H168 C152 0.951 . S
H169 C154 0.951 . S
H170 C156 0.951 . S
H171 C157 0.950 . S
H172 C158 0.950 . S
H173 C159 0.950 . S
H174 C161 0.950 . S
H175 C162 0.951 . S
C176 C177 1.386 . S
C176 C178 1.388 . S
C176 H192 0.951 . S
C177 C176 1.386 . S
C177 C181 1.383 . S
C178 C176 1.388 . S
C178 C179 1.404 . S
C178 H193 0.943 1_545 S
C179 C178 1.404 . S
C179 C180 1.375 . S
C179 C182 1.481 1_545 S
C180 C179 1.375 . S
C180 C181 1.367 . S
C180 H194 0.951 . S
C181 C177 1.383 . S
C181 C180 1.367 . S
C181 H195 0.950 . S
C182 C179 1.481 1_565 S
C182 C183 1.297 . S
C182 H196 0.950 1_565 S
C183 C182 1.297 . S
C183 C184 1.479 . S
C183 H197 0.950 . S
C184 C183 1.479 . S
C184 C185 1.375 . S
C184 C190 1.404 . S
C185 C184 1.375 . S
C185 C186 1.369 . S
C185 H198 0.950 . S
C186 C185 1.369 . S
C186 C187 1.392 . S
C186 H199 0.951 . S
C187 C186 1.392 . S
C187 C189 1.384 . S
H188 C190 0.949 . S
C189 C187 1.384 . S
C189 C190 1.385 . S
C189 H191 0.950 . S
C190 C184 1.404 . S
C190 H188 0.949 . S
C190 C189 1.385 . S
H191 C189 0.950 . S
H192 C176 0.951 . S
H193 C178 0.943 1_565 S
H194 C180 0.951 . S
H195 C181 0.950 . S
H196 C182 0.950 1_545 S
H197 C183 0.950 . S
H198 C185 0.950 . S
H199 C186 0.951 . S
C200 C201 1.386 . S
C200 C202 1.383 . S
C200 H216 0.951 . S
C201 C200 1.386 . S
C201 C205 1.383 . S
C202 C200 1.383 . S
C202 C203 1.402 . S
C202 H217 0.951 . S
C203 C202 1.402 . S
C203 C204 1.375 . S
C203 C206 1.481 . S
C204 C203 1.375 . S
C204 C205 1.367 . S
C204 H218 0.951 . S
C205 C201 1.383 . S
C205 C204 1.367 . S
C205 H219 0.950 . S
C206 C203 1.481 . S
C206 C207 1.297 1_556 S
C206 H220 0.950 1_556 S
C207 C206 1.297 1_554 S
C207 C208 1.479 1_655 S
C207 H221 0.949 1_655 S
C208 C207 1.479 1_455 S
C208 C209 1.375 . S
C208 C214 1.404 . S
C209 C208 1.375 . S
C209 C210 1.369 . S
C209 H222 0.950 . S
C210 C209 1.369 . S
C210 C211 1.392 . S
C210 H223 0.951 . S
C211 C210 1.392 . S
C211 C213 1.384 . S
H212 C214 0.949 1_655 S
C213 C211 1.384 . S
C213 C214 1.385 . S
C213 H215 0.950 . S
C214 C208 1.404 . S
C214 H212 0.949 1_455 S
C214 C213 1.385 . S
H215 C213 0.950 . S
H216 C200 0.951 . S
H217 C202 0.951 . S
H218 C204 0.951 . S
H219 C205 0.950 . S
H220 C206 0.950 1_554 S
H221 C207 0.949 1_455 S
H222 C209 0.950 . S
H223 C210 0.951 . S
C224 C225 1.386 . S
C224 C226 1.383 . S
C224 H240 0.951 . S
C225 C224 1.386 . S
C225 C229 1.383 . S
C226 C224 1.383 . S
C226 C227 1.402 . S
C226 H241 0.951 . S
C227 C226 1.402 . S
C227 C228 1.375 . S
C227 C230 1.481 1_545 S
C228 C227 1.375 . S
C228 C229 1.367 . S
C228 H242 0.951 1_545 S
C229 C225 1.383 . S
C229 C228 1.367 . S
C229 H243 0.950 . S
C230 C227 1.481 1_565 S
C230 C231 1.297 . S
C230 H244 0.950 . S
C231 C230 1.297 . S
C231 C232 1.479 . S
C231 H245 0.950 . S
C232 C231 1.479 . S
C232 C233 1.375 . S
C232 C238 1.404 . S
C233 C232 1.375 . S
C233 C234 1.369 . S
C233 H246 0.950 . S
C234 C233 1.369 . S
C234 C235 1.392 . S
C234 H247 0.951 . S
C235 C234 1.392 . S
C235 C237 1.384 . S
H236 C238 0.949 . S
C237 C235 1.384 . S
C237 C238 1.385 . S
C237 H239 0.950 . S
C238 C232 1.404 . S
C238 H236 0.949 . S
C238 C237 1.385 . S
H239 C237 0.950 . S
H240 C224 0.951 . S
H241 C226 0.951 . S
H242 C228 0.951 1_565 S
H243 C229 0.950 . S
H244 C230 0.950 . S
H245 C231 0.950 . S
H246 C233 0.950 . S
H247 C234 0.951 . S
C248 C249 1.386 . S
C248 C250 1.383 . S
C248 H264 0.951 . S
C249 C248 1.386 . S
C249 C253 1.383 . S
C250 C248 1.383 . S
C250 C251 1.402 . S
C250 H265 0.950 . S
C251 C250 1.402 . S
C251 C252 1.375 . S
C251 C254 1.481 . S
C252 C251 1.375 . S
C252 C253 1.367 . S
C252 H266 0.951 . S
C253 C249 1.383 . S
C253 C252 1.367 . S
C253 H267 0.950 . S
C254 C251 1.481 . S
C254 C255 1.297 1_654 S
C254 H268 0.937 1_554 S
C255 C254 1.297 1_456 S
C255 C256 1.479 . S
C255 H269 0.950 1_556 S
C256 C255 1.479 . S
C256 C257 1.375 . S
C256 C262 1.404 . S
C257 C256 1.375 . S
C257 C258 1.369 . S
C257 H270 0.950 . S
C258 C257 1.369 . S
C258 C259 1.392 . S
C258 H271 0.951 . S
C259 C258 1.392 . S
C259 C261 1.384 . S
H260 C262 0.949 . S
C261 C259 1.384 . S
C261 C262 1.385 . S
C261 H263 0.950 . S
C262 C256 1.404 . S
C262 H260 0.949 . S
C262 C261 1.385 . S
H263 C261 0.950 . S
H264 C248 0.951 . S
H265 C250 0.950 . S
H266 C252 0.951 . S
H267 C253 0.950 . S
H268 C254 0.937 1_556 S
H269 C255 0.950 1_554 S
H270 C257 0.950 . S
H271 C258 0.951 . S
C272 C273 1.386 . S
C272 C274 1.383 . S
C272 H288 0.951 . S
C273 C272 1.386 . S
C273 C277 1.383 . S
C274 C272 1.383 . S
C274 C275 1.402 . S
C274 H289 0.951 . S
C275 C274 1.402 . S
C275 C276 1.375 1_545 S
C275 C278 1.481 1_545 S
C276 C275 1.375 1_565 S
C276 C277 1.367 1_565 S
C276 H290 0.951 . S
C277 C273 1.383 . S
C277 C276 1.367 1_545 S
C277 H291 0.950 . S
C278 C275 1.481 1_565 S
C278 C279 1.297 . S
C278 H292 0.950 . S
C279 C278 1.297 . S
C279 C280 1.479 . S
C279 H293 0.950 1_565 S
C280 C279 1.479 . S
C280 C281 1.375 . S
C280 C286 1.404 . S
C281 C280 1.375 . S
C281 C282 1.369 . S
C281 H294 0.950 1_565 S
C282 C281 1.369 . S
C282 C283 1.392 . S
C282 H295 0.951 . S
C283 C282 1.392 . S
C283 C285 1.384 . S
H284 C286 0.949 . S
C285 C283 1.384 . S
C285 C286 1.385 . S
C285 H287 0.950 . S
C286 C280 1.404 . S
C286 H284 0.949 . S
C286 C285 1.385 . S
H287 C285 0.950 . S
H288 C272 0.951 . S
H289 C274 0.951 . S
H290 C276 0.951 . S
H291 C277 0.950 . S
H292 C278 0.950 . S
H293 C279 0.950 1_545 S
H294 C281 0.950 1_545 S
H295 C282 0.951 . S
C296 C297 1.386 . S
C296 C298 1.383 . S
C296 H312 0.951 . S
C297 C296 1.386 . S
C297 C301 1.383 . S
C298 C296 1.383 . S
C298 C299 1.402 . S
C298 H313 0.951 . S
C299 C298 1.402 . S
C299 C300 1.375 . S
C299 C302 1.481 . S
C300 C299 1.375 . S
C300 C301 1.367 . S
C300 H314 0.951 . S
C301 C297 1.383 . S
C301 C300 1.367 . S
C301 H315 0.950 . S
C302 C299 1.481 . S
C302 C303 1.297 . S
C302 H316 0.950 . S
C303 C302 1.297 . S
C303 C304 1.479 . S
C303 H317 0.950 . S
C304 C303 1.479 . S
C304 C305 1.375 . S
C304 C310 1.404 . S
C305 C304 1.375 . S
C305 C306 1.369 . S
C305 H318 0.950 . S
C306 C305 1.369 . S
C306 C307 1.392 . S
C306 H319 0.951 . S
C307 C306 1.392 . S
C307 C309 1.384 . S
H308 C310 0.949 . S
C309 C307 1.384 . S
C309 C310 1.385 . S
C309 H311 0.950 . S
C310 C304 1.404 . S
C310 H308 0.949 . S
C310 C309 1.385 . S
H311 C309 0.950 . S
H312 C296 0.951 . S
H313 C298 0.951 . S
H314 C300 0.951 . S
H315 C301 0.950 . S
H316 C302 0.950 . S
H317 C303 0.950 . S
H318 C305 0.950 . S
H319 C306 0.951 . S
C320 C321 1.386 . S
C320 C322 1.383 . S
C320 H336 0.951 . S
C321 C320 1.386 . S
C321 C325 1.383 . S
C322 C320 1.383 . S
C322 C323 1.402 . S
C322 H337 0.951 . S
C323 C322 1.402 . S
C323 C324 1.375 . S
C323 C326 1.481 . S
C324 C323 1.375 . S
C324 C325 1.367 . S
C324 H338 0.951 . S
C325 C321 1.383 . S
C325 C324 1.367 . S
C325 H339 0.950 . S
C326 C323 1.481 . S
C326 C327 1.297 . S
C326 H340 0.950 . S
C327 C326 1.297 . S
C327 C328 1.479 . S
C327 H341 0.950 . S
C328 C327 1.479 . S
C328 C329 1.375 . S
C328 C334 1.404 . S
C329 C328 1.375 . S
C329 C330 1.369 . S
C329 H342 0.950 . S
C330 C329 1.369 . S
C330 C331 1.392 . S
C330 H343 0.951 . S
C331 C330 1.392 . S
C331 C333 1.384 . S
H332 C334 0.949 . S
C333 C331 1.384 . S
C333 C334 1.385 . S
C333 H335 0.950 . S
C334 C328 1.404 . S
C334 H332 0.949 . S
C334 C333 1.385 . S
H335 C333 0.950 . S
H336 C320 0.951 . S
H337 C322 0.951 . S
H338 C324 0.951 . S
H339 C325 0.950 . S
H340 C326 0.950 . S
H341 C327 0.950 . S
H342 C329 0.950 . S
H343 C330 0.951 . S
C344 C345 1.386 . S
C344 C346 1.383 . S
C344 H360 0.951 . S
C345 C344 1.386 . S
C345 C349 1.383 . S
C346 C344 1.383 . S
C346 C347 1.402 . S
C346 H361 0.951 . S
C347 C346 1.402 . S
C347 C348 1.375 . S
C347 C350 1.481 . S
C348 C347 1.375 . S
C348 C349 1.367 . S
C348 H362 0.951 . S
C349 C345 1.383 . S
C349 C348 1.367 . S
C349 H363 0.950 . S
C350 C347 1.481 . S
C350 C351 1.297 . S
C350 H364 0.950 . S
C351 C350 1.297 . S
C351 C352 1.479 . S
C351 H365 0.950 . S
C352 C351 1.479 . S
C352 C353 1.375 . S
C352 C358 1.404 . S
C353 C352 1.375 . S
C353 C354 1.369 . S
C353 H366 0.950 . S
C354 C353 1.369 . S
C354 C355 1.392 . S
C354 H367 0.951 . S
C355 C354 1.392 . S
C355 C357 1.384 . S
H356 C358 0.949 . S
C357 C355 1.384 . S
C357 C358 1.385 . S
C357 H359 0.950 . S
C358 C352 1.404 . S
C358 H356 0.949 . S
C358 C357 1.385 . S
H359 C357 0.950 . S
H360 C344 0.951 . S
H361 C346 0.951 . S
H362 C348 0.951 . S
H363 C349 0.950 . S
H364 C350 0.950 . S
H365 C351 0.950 . S
H366 C353 0.950 . S
H367 C354 0.951 . S
C368 C369 1.386 . S
C368 C370 1.383 . S
C368 H384 0.951 . S
C369 C368 1.386 . S
C369 C373 1.383 . S
C370 C368 1.383 . S
C370 C371 1.402 . S
C370 H385 0.951 . S
C371 C370 1.402 . S
C371 C372 1.375 . S
C371 C374 1.481 . S
C372 C371 1.375 . S
C372 C373 1.367 . S
C372 H386 0.951 . S
C373 C369 1.383 . S
C373 C372 1.367 . S
C373 H387 0.950 . S
C374 C371 1.481 . S
C374 C375 1.297 . S
C374 H388 0.950 . S
C375 C374 1.297 . S
C375 C376 1.479 . S
C375 H389 0.950 . S
C376 C375 1.479 . S
C376 C377 1.375 . S
C376 C382 1.404 . S
C377 C376 1.375 . S
C377 C378 1.369 . S
C377 H390 0.950 . S
C378 C377 1.369 . S
C378 C379 1.392 . S
C378 H391 0.951 . S
C379 C378 1.392 . S
C379 C381 1.384 . S
H380 C382 0.949 . S
C381 C379 1.384 . S
C381 C382 1.385 . S
C381 H383 0.950 . S
C382 C376 1.404 . S
C382 H380 0.949 . S
C382 C381 1.385 . S
H383 C381 0.950 . S
H384 C368 0.951 . S
H385 C370 0.951 . S
H386 C372 0.951 . S
H387 C373 0.950 . S
H388 C374 0.950 . S
H389 C375 0.950 . S
H390 C377 0.950 . S
H391 C378 0.951 . S
C392 C393 1.386 . S
C392 C394 1.383 . S
C392 H408 0.951 . S
C393 C392 1.386 . S
C393 C397 1.370 1_455 S
C394 C392 1.383 . S
C394 C395 1.402 . S
C394 H409 0.951 . S
C395 C394 1.402 . S
C395 C396 1.375 1_455 S
C395 C398 1.483 . S
C396 C395 1.375 1_655 S
C396 C397 1.371 . S
C396 H410 0.951 . S
C397 C393 1.370 1_655 S
C397 C396 1.371 . S
C397 H411 0.959 . S
C398 C395 1.483 . S
C398 C399 1.302 1_545 S
C398 H412 0.941 1_455 S
C399 C398 1.302 1_565 S
C399 C400 1.479 . S
C399 H413 0.950 . S
C400 C399 1.479 . S
C400 C401 1.375 . S
C400 C406 1.404 1_455 S
C401 C400 1.375 . S
C401 C402 1.369 . S
C401 H414 0.950 . S
C402 C401 1.369 . S
C402 C403 1.392 1_455 S
C402 H415 0.951 . S
C403 C402 1.392 1_655 S
C403 C405 1.384 . S
H404 C406 0.949 . S
C405 C403 1.384 . S
C405 C406 1.385 . S
C405 H407 0.950 . S
C406 C400 1.404 1_655 S
C406 H404 0.949 . S
C406 C405 1.385 . S
H407 C405 0.950 . S
H408 C392 0.951 . S
H409 C394 0.951 . S
H410 C396 0.951 . S
H411 C397 0.959 . S
H412 C398 0.941 1_655 S
H413 C399 0.950 . S
H414 C401 0.950 . S
H415 C402 0.951 . S
C416 C417 1.386 . S
C416 C418 1.383 . S
C416 H432 0.951 . S
C417 C416 1.386 . S
C417 C421 1.383 1_565 S
C418 C416 1.383 . S
C418 C419 1.402 . S
C418 H433 0.951 . S
C419 C418 1.402 . S
C419 C420 1.375 1_565 S
C419 C422 1.481 1_565 S
C420 C419 1.375 1_545 S
C420 C421 1.367 . S
C420 H434 0.951 . S
C421 C417 1.383 1_545 S
C421 C420 1.367 . S
C421 H435 0.950 . S
C422 C419 1.481 1_545 S
C422 C423 1.297 1_445 S
C422 H436 0.950 . S
C423 C422 1.297 1_665 S
C423 C424 1.479 . S
C423 H437 0.950 . S
C424 C423 1.479 . S
C424 C425 1.375 . S
C424 C430 1.404 1_565 S
C425 C424 1.375 . S
C425 C426 1.369 . S
C425 H438 0.950 . S
C426 C425 1.369 . S
C426 C427 1.392 1_565 S
C426 H439 0.951 . S
C427 C426 1.392 1_545 S
C427 C429 1.384 . S
H428 C430 0.949 . S
C429 C427 1.384 . S
C429 C430 1.385 . S
C429 H431 0.950 . S
C430 C424 1.404 1_545 S
C430 H428 0.949 . S
C430 C429 1.385 . S
H431 C429 0.950 . S
H432 C416 0.951 . S
H433 C418 0.951 . S
H434 C420 0.951 . S
H435 C421 0.950 . S
H436 C422 0.950 . S
H437 C423 0.950 . S
H438 C425 0.950 . S
H439 C426 0.951 . S
C440 C441 1.386 . S
C440 C442 1.383 . S
C440 H456 0.951 . S
C441 C440 1.386 . S
C441 C445 1.383 . S
C442 C440 1.383 . S
C442 C443 1.402 . S
C442 H457 0.951 . S
C443 C442 1.402 . S
C443 C444 1.375 1_655 S
C443 C446 1.481 . S
C444 C443 1.375 1_455 S
C444 C445 1.367 1_455 S
C444 H458 0.951 . S
C445 C441 1.383 . S
C445 C444 1.367 1_655 S
C445 H459 0.950 1_655 S
C446 C443 1.481 . S
C446 C447 1.297 1_545 S
C446 H460 0.950 1_655 S
C447 C446 1.297 1_565 S
C447 C448 1.479 . S
C447 H461 0.950 . S
C448 C447 1.479 . S
C448 C449 1.375 . S
C448 C454 1.404 1_655 S
C449 C448 1.375 . S
C449 C450 1.369 . S
C449 H462 0.950 . S
C450 C449 1.369 . S
C450 C451 1.392 1_655 S
C450 H463 0.951 . S
C451 C450 1.392 1_455 S
C451 C453 1.384 . S
H452 C454 0.949 . S
C453 C451 1.384 . S
C453 C454 1.385 . S
C453 H455 0.950 . S
C454 C448 1.404 1_455 S
C454 H452 0.949 . S
C454 C453 1.385 . S
H455 C453 0.950 . S
H456 C440 0.951 . S
H457 C442 0.951 . S
H458 C444 0.951 . S
H459 C445 0.950 1_455 S
H460 C446 0.950 1_455 S
H461 C447 0.950 . S
H462 C449 0.950 . S
H463 C450 0.951 . S
C464 C465 1.386 1_545 S
C464 C466 1.383 . S
C464 H480 0.951 . S
C465 C464 1.386 1_565 S
C465 C469 1.383 . S
C466 C464 1.383 . S
C466 C467 1.402 1_545 S
C466 H481 0.951 . S
C467 C466 1.402 1_565 S
C467 C468 1.375 . S
C467 C470 1.481 . S
C468 C467 1.375 . S
C468 C469 1.367 . S
C468 H482 0.951 . S
C469 C465 1.383 . S
C469 C468 1.367 . S
C469 H483 0.950 . S
C470 C467 1.481 . S
C470 C471 1.297 1_665 S
C470 H484 0.950 1_655 S
C471 C470 1.297 1_445 S
C471 C472 1.479 . S
C471 H485 0.947 1_455 S
C472 C471 1.479 . S
C472 C473 1.375 . S
C472 C478 1.404 1_545 S
C473 C472 1.375 . S
C473 C474 1.369 . S
C473 H486 0.950 . S
C474 C473 1.369 . S
C474 C475 1.392 . S
C474 H487 0.951 . S
C475 C474 1.392 . S
C475 C477 1.384 1_545 S
H476 C478 0.949 . S
C477 C475 1.384 1_565 S
C477 C478 1.385 . S
C477 H479 0.950 . S
C478 C472 1.404 1_565 S
C478 H476 0.949 . S
C478 C477 1.385 . S
H479 C477 0.950 . S
H480 C464 0.951 . S
H481 C466 0.951 . S
H482 C468 0.951 . S
H483 C469 0.950 . S
H484 C470 0.950 1_455 S
H485 C471 0.947 1_655 S
H486 C473 0.950 . S
H487 C474 0.951 . S
C105 C4 1.299 . S
C115 C30 1.298 . S
C129 C49 1.286 . S
C139 C17 1.309 . S
C153 C82 1.293 . S
C163 C56 1.276 . S
C177 C69 1.307 . S
C187 C95 1.280 . S
C201 C88 1.525 . S
C211 C10 1.458 . S
C225 C23 1.474 . S
C235 C101 1.527 . S
C249 C36 1.498 . S
C259 C62 1.542 . S
C273 C75 1.470 . S
C283 C43 1.494 . S
C297 C3 1.332 . S
C307 C68 1.342 . S
C321 C81 1.300 . S
C331 C16 1.325 . S
C345 C94 1.336 . S
C355 C29 1.272 . S
C369 C44 1.297 . S
C379 C55 1.343 . S
C393 C5 1.090 . S
C403 C31 1.114 . S
C417 C42 1.093 . S
C427 C18 1.113 . S
C441 C83 1.088 . S
C451 C57 1.114 . S
C465 C96 1.057 . S
C475 C70 1.071 . S
