# Generated by pormake.
# Topology qtz-x, (6)-cn, num edge types: 1
# Building blocks:
#     Node 0, Type 0, BuildingBlock: BETDEL_clean_sbu_0, # of connection points: 6
#     Node 1, Type 0, BuildingBlock: BETDEL_clean_sbu_0, # of connection points: 6
#     Node 2, Type 0, BuildingBlock: BETDEL_clean_sbu_0, # of connection points: 6
#     Edge 3, Type (0, 0), BuildingBlock: FUNLAD_clean_linker_0, # of connection points: 2
#     Edge 4, Type (0, 0), BuildingBlock: FUNLAD_clean_linker_0, # of connection points: 2
#     Edge 5, Type (0, 0), BuildingBlock: FUNLAD_clean_linker_0, # of connection points: 2
#     Edge 6, Type (0, 0), BuildingBlock: FUNLAD_clean_linker_0, # of connection points: 2
#     Edge 7, Type (0, 0), BuildingBlock: FUNLAD_clean_linker_0, # of connection points: 2
#     Edge 8, Type (0, 0), BuildingBlock: FUNLAD_clean_linker_0, # of connection points: 2
#     Edge 9, Type (0, 0), BuildingBlock: FUNLAD_clean_linker_0, # of connection points: 2
#     Edge 10, Type (0, 0), BuildingBlock: FUNLAD_clean_linker_0, # of connection points: 2
#     Edge 11, Type (0, 0), BuildingBlock: FUNLAD_clean_linker_0, # of connection points: 2
# Relax obj value: 0.130
# Max RMSD: 0.213
# Mean RMSD: 0.210
data_MOF--net-qtz-x--node1-BETDEL_clean_sbu_0--edge1-FUNLAD_clean_linker_0
_symmetry_space_group_name_H-M    P1
_symmetry_Int_Tables_number       1
_symmetry_cell_setting            triclinic
loop_
_symmetry_equiv_pos_as_xyz
'x, y, z'
_cell_length_a     16.837365
_cell_length_b     16.91579
_cell_length_c     49.063962
_cell_angle_alpha  86.153581
_cell_angle_beta   96.775559
_cell_angle_gamma 119.69212
loop_
_atom_site_label
_atom_site_type_symbol
_atom_site_fract_x
_atom_site_fract_y
_atom_site_fract_z
_atom_type_partial_charge
Dy0 Dy 0.92364 0.4576 0.1972 0.0
C1 C 0.21498 0.6605 0.13136 0.0
C2 C 0.79918 0.35783 0.23413 0.0
Dy3 Dy 0.09567 0.56253 0.16976 0.0
O4 O 0.80223 0.42627 0.21979 0.0
O5 O 0.86204 0.34152 0.22747 0.0
O6 O 0.87483 0.55195 0.17902 0.0
O7 O 0.01585 0.60406 0.19103 0.0
C8 C 0.95586 0.62313 0.17974 0.0
C9 C 0.06384 0.39726 0.18731 0.0
O10 O 0.15964 0.6186 0.21147 0.0
O11 O 0.03568 0.50444 0.23213 0.0
O12 O 0.21494 0.59421 0.14626 0.0
O13 O 0.15306 0.67708 0.13871 0.0
O14 O 0.14499 0.4684 0.18782 0.0
O15 O 0.00383 0.41629 0.176 0.0
O16 O 0.85969 0.39982 0.15568 0.0
O17 O 0.98485 0.51053 0.13458 0.0
C18 C 0.12155 0.57249 0.23362 0.0
C19 C 0.89922 0.44242 0.13337 0.0
Dy20 Dy 0.59324 0.11719 0.53208 0.0
C21 C 0.51299 0.82614 0.4629 0.0
C22 C 0.61318 0.24212 0.56877 0.0
Dy23 Dy 0.53357 0.94592 0.50165 0.0
O24 O 0.67976 0.23811 0.55933 0.0
O25 O 0.53512 0.17937 0.55744 0.0
O26 O 0.73598 0.17234 0.52085 0.0
O27 O 0.65606 0.03159 0.52841 0.0
C28 C 0.73156 0.09362 0.52072 0.0
C29 C 0.39521 0.97085 0.51238 0.0
O30 O 0.54592 0.89127 0.54366 0.0
O31 O 0.54046 0.00702 0.56449 0.0
O32 O 0.45086 0.8148 0.47845 0.0
O33 O 0.58829 0.9007 0.46974 0.0
O34 O 0.38974 0.89183 0.51192 0.0
O35 O 0.47136 0.03209 0.50497 0.0
O36 O 0.58938 0.17558 0.49 0.0
O37 O 0.5877 0.0553 0.4694 0.0
C38 C 0.53486 0.92587 0.56544 0.0
C39 C 0.59768 0.13799 0.46848 0.0
Dy40 Dy 0.48977 0.60388 0.86257 0.0
C41 C 0.69716 0.52435 0.79769 0.0
C42 C 0.39017 0.623 0.8994 0.0
Dy43 Dy 0.59769 0.54288 0.83452 0.0
O44 O 0.46382 0.6883 0.89003 0.0
O45 O 0.3686 0.54724 0.88776 0.0
O46 O 0.57479 0.74529 0.84711 0.0
O47 O 0.63681 0.66428 0.85777 0.0
C48 C 0.6494 0.74013 0.84784 0.0
C49 C 0.43741 0.40655 0.84906 0.0
O50 O 0.66793 0.55088 0.87631 0.0
O51 O 0.5494 0.54698 0.89689 0.0
O52 O 0.6401 0.45934 0.81265 0.0
O53 O 0.70337 0.60072 0.80394 0.0
O54 O 0.51173 0.40102 0.84965 0.0
O55 O 0.45064 0.4826 0.8392 0.0
O56 O 0.42599 0.60761 0.82009 0.0
O57 O 0.53314 0.58986 0.7994 0.0
C58 C 0.62478 0.53984 0.89829 0.0
C59 C 0.46386 0.60655 0.79799 0.0
C60 C 0.04997 0.79149 0.187 0.0
C61 C 0.96906 0.71593 0.17613 0.0
C62 C 0.05691 0.87758 0.18613 0.0
C63 C 0.98298 0.88935 0.17425 0.0
C64 C 0.90428 0.81444 0.16214 0.0
C65 C 0.89705 0.7285 0.16325 0.0
C66 C 0.98519 0.97828 0.17392 0.0
C67 C 0.0342 0.04203 0.19324 0.0
C68 C 0.03645 0.13099 0.1929 0.0
C69 C 0.11517 0.20588 0.205 0.0
C70 C 0.12248 0.29186 0.20387 0.0
C71 C 0.05053 0.30445 0.19097 0.0
H72 H 0.89936 0.08599 0.17236 0.0
C73 C 0.96959 0.22892 0.1801 0.0
C74 C 0.96256 0.1428 0.181 0.0
H75 H 0.91281 0.2368 0.17025 0.0
H76 H 0.10679 0.78366 0.19683 0.0
H77 H 0.1201 0.93442 0.19476 0.0
H78 H 0.84697 0.82184 0.15249 0.0
H79 H 0.83418 0.67142 0.15446 0.0
H80 H 0.94256 -0.01008 0.15758 0.0
H81 H 0.07682 0.03039 0.20957 0.0
H82 H 0.17243 0.19845 0.21467 0.0
H83 H 0.18536 0.34892 0.21265 0.0
C84 C 0.31849 0.06642 0.51031 0.0
C85 C 0.31613 0.98291 0.51604 0.0
C86 C 0.2408 0.07478 0.51265 0.0
C87 C 0.15948 -0.00045 0.52084 0.0
C88 C 0.15874 0.9172 0.52736 0.0
C89 C 0.23588 0.90875 0.52483 0.0
C90 C 0.0746 0.00404 0.52341 0.0
C91 C 0.0533 0.06298 0.50913 0.0
C92 C 0.96809 0.06693 0.51166 0.0
C93 C 0.96804 0.14891 0.50508 0.0
C94 C 0.89059 0.15676 0.50773 0.0
C95 C 0.8109 0.08237 0.51673 0.0
H96 H 0.88306 0.92603 0.52424 0.0
C97 C 0.80925 -0.00081 0.52243 0.0
C98 C 0.88714 -0.00859 0.51993 0.0
H99 H 0.74822 0.9405 0.5291 0.0
H100 H 0.37993 0.12489 0.50376 0.0
H101 H 0.2453 0.14034 0.50833 0.0
H102 H 0.09764 0.85854 0.53402 0.0
H103 H 0.23239 0.84371 0.52963 0.0
H104 H 0.02719 0.95504 0.53719 0.0
H105 H 0.10077 0.11208 0.49537 0.0
H106 H 0.02879 0.20776 0.49832 0.0
H107 H 0.89344 0.22151 0.50291 0.0
C108 C 0.82155 0.81854 0.85423 0.0
C109 C 0.74044 0.82134 0.84569 0.0
C110 C 0.90706 0.89812 0.85447 0.0
C111 C 0.91302 0.98208 0.84586 0.0
C112 C 0.83157 0.98373 0.83678 0.0
C113 C 0.7464 0.90442 0.83664 0.0
C114 C 0.0013 0.07009 0.84702 0.0
C115 C 0.0851 0.07696 0.84947 0.0
C116 C 0.17343 0.1649 0.85071 0.0
C117 C 0.25475 0.163 0.85978 0.0
C118 C 0.33999 0.24222 0.86003 0.0
C119 C 0.34619 0.32548 0.85108 0.0
H120 H 0.11945 0.25406 0.83449 0.0
C121 C 0.26522 0.32855 0.84254 0.0
C122 C 0.1796 0.24903 0.84221 0.0
H123 H 0.26818 0.39186 0.83537 0.0
H124 H 0.8188 0.75539 0.86149 0.0
H125 H 0.96729 0.89327 0.86222 0.0
H126 H 0.83362 0.047 0.83005 0.0
H127 H 0.68494 0.90861 0.82989 0.0
H128 H -0.00416 0.13147 0.84575 0.0
H129 H 0.09053 0.01556 0.85072 0.0
H130 H 0.25254 0.09961 0.86644 0.0
H131 H 0.40133 0.23782 0.86677 0.0
C132 C 0.38979 0.7147 0.93715 0.0
C133 C 0.35245 0.63028 0.92422 0.0
C134 C 0.36748 0.71987 0.96332 0.0
C135 C 0.30708 0.64042 0.97707 0.0
C136 C 0.26642 0.55672 0.96347 0.0
C137 C 0.28851 0.55167 0.93727 0.0
C138 C 0.2917 0.64033 1.00636 0.0
C139 C 0.308 0.71433 0.02003 0.0
C140 C 0.29522 0.70963 0.04968 0.0
C141 C 0.25817 0.75905 0.05968 0.0
C142 C 0.23727 0.74801 0.08698 0.0
C143 C 0.255 0.68881 0.10482 0.0
H144 H 0.34993 0.61853 0.0612 0.0
C145 C 0.2987 0.64504 0.09534 0.0
C146 C 0.31834 0.65506 0.06805 0.0
H147 H 0.3135 0.5992 0.10863 0.0
H148 H 0.43982 0.77637 0.92761 0.0
H149 H 0.40161 0.78549 0.97315 0.0
H150 H 0.21974 0.49439 0.97353 0.0
H151 H 0.25906 0.48563 0.92786 0.0
H152 H 0.26491 0.57529 0.01719 0.0
H153 H 0.32615 0.7782 1.00919 0.0
H154 H 0.24115 0.80268 0.04602 0.0
H155 H 0.20345 0.78247 0.09374 0.0
C156 C 0.56977 0.20575 0.42401 0.0
C157 C 0.62946 0.1906 0.44324 0.0
C158 C 0.59412 0.23546 0.39731 0.0
C159 C 0.67862 0.25004 0.38959 0.0
C160 C 0.73991 0.23991 0.40961 0.0
C161 C 0.71528 0.20971 0.43602 0.0
C162 C 0.70517 0.27124 0.36099 0.0
C163 C 0.64812 0.2642 0.33841 0.0
C164 C 0.67935 0.27914 0.31049 0.0
C165 C 0.65058 0.32539 0.29051 0.0
C166 C 0.686 0.34711 0.26495 0.0
C167 C 0.7492 0.32109 0.25878 0.0
H168 H 0.75962 0.21016 0.31834 0.0
C169 C 0.77302 0.26935 0.27805 0.0
C170 C 0.73862 0.24873 0.30369 0.0
H171 H 0.82142 0.24823 0.27381 0.0
H172 H 0.50257 0.18991 0.42916 0.0
H173 H 0.54553 0.24426 0.38279 0.0
H174 H 0.8056 0.25112 0.40446 0.0
H175 H 0.76173 0.1971 0.45051 0.0
H176 H 0.77559 0.29003 0.35826 0.0
H177 H 0.57841 0.24931 0.34007 0.0
H178 H 0.60393 0.34831 0.29512 0.0
H179 H 0.66646 0.38705 0.25041 0.0
C180 C 0.43726 0.58367 0.74767 0.0
C181 C 0.43258 0.62689 0.77041 0.0
C182 C 0.42809 0.61464 0.72106 0.0
C183 C 0.41601 0.69119 0.71656 0.0
C184 C 0.4041 0.72993 0.73921 0.0
C185 C 0.41226 0.69801 0.76597 0.0
C186 C 0.4198 0.73469 0.6889 0.0
C187 C 0.46375 0.72631 0.66884 0.0
C188 C 0.47713 0.77649 0.64213 0.0
C189 C 0.49731 0.74318 0.61992 0.0
C190 C 0.5155 0.79092 0.59492 0.0
C191 C 0.51505 0.87382 0.59168 0.0
H192 H 0.46426 0.88921 0.65557 0.0
C193 C 0.49508 0.90726 0.61393 0.0
C194 C 0.47648 0.85939 0.63883 0.0
H195 H 0.49433 0.97107 0.61226 0.0
H196 H 0.45149 0.52763 0.75053 0.0
H197 H 0.43284 0.57947 0.70425 0.0
H198 H 0.39318 0.78803 0.73634 0.0
H199 H 0.40876 0.73272 0.78318 0.0
H200 H 0.38984 0.77888 0.68569 0.0
H201 H 0.49402 0.68243 0.67206 0.0
H202 H 0.4993 0.67998 0.62195 0.0
H203 H 0.53072 0.76323 0.57825 0.0
C204 C 0.60902 0.49508 0.94792 0.0
C205 C 0.66023 0.51815 0.92514 0.0
C206 C 0.64215 0.47481 0.97335 0.0
C207 C 0.72742 0.47718 0.97657 0.0
C208 C 0.77859 0.50047 0.95383 0.0
C209 C 0.74518 0.5201 0.92835 0.0
C210 C 0.76841 0.46257 1.00362 0.0
C211 C 0.71922 0.41347 0.02446 0.0
C212 C 0.76255 0.40743 0.05224 0.0
C213 C 0.71233 0.38778 0.07512 0.0
C214 C 0.75467 0.3928 0.10181 0.0
C215 C 0.84804 0.41792 0.10595 0.0
H216 H 0.89394 0.43539 0.03963 0.0
C217 C 0.89628 0.43099 0.0831 0.0
C218 C 0.85387 0.42471 0.05655 0.0
H219 H 0.96802 0.44874 0.08576 0.0
H220 H 0.54334 0.49312 0.9462 0.0
H221 H 0.60187 0.46001 0.99051 0.0
H222 H 0.84496 0.50377 0.95581 0.0
H223 H 0.78649 0.53779 0.91127 0.0
H224 H 0.8428 0.49589 1.00632 0.0
H225 H 0.64478 0.38053 0.02168 0.0
H226 H 0.64143 0.37277 0.07241 0.0
H227 H 0.71604 0.38248 0.11913 0.0
C228 C 0.2662 0.66438 0.26496 0.0
C229 C 0.17541 0.59229 0.26093 0.0
C230 C 0.31596 0.67931 0.29096 0.0
C231 C 0.27564 0.62195 0.31339 0.0
C232 C 0.18538 0.54977 0.30908 0.0
C233 C 0.1359 0.53534 0.28337 0.0
C234 C 0.32233 0.63429 0.3418 0.0
C235 C 0.39842 0.71042 0.35114 0.0
C236 C 0.43206 0.72623 0.38086 0.0
C237 C 0.523 0.79353 0.38843 0.0
C238 C 0.55249 0.82058 0.41582 0.0
C239 C 0.4911 0.78147 0.4361 0.0
H240 H 0.30132 0.63272 0.39686 0.0
C241 C 0.40204 0.71031 0.42892 0.0
C242 C 0.37258 0.68313 0.40162 0.0
H243 H 0.353 0.67963 0.44409 0.0
H244 H 0.29891 0.70902 0.24806 0.0
H245 H 0.38576 0.73504 0.29315 0.0
H246 H 0.15221 0.5044 0.32583 0.0
H247 H 0.06642 0.4786 0.28117 0.0
H248 H 0.28859 0.57868 0.35612 0.0
H249 H 0.43524 0.7656 0.33704 0.0
H250 H 0.57023 0.82815 0.37295 0.0
H251 H 0.62141 0.87625 0.42074 0.0
C252 C 0.68963 0.41919 0.76319 0.0
C253 C 0.72436 0.50869 0.77197 0.0
C254 C 0.69519 0.40236 0.73623 0.0
C255 C 0.73622 0.47482 0.71758 0.0
C256 C 0.77816 0.56448 0.72701 0.0
C257 C 0.77148 0.5814 0.75397 0.0
C258 C 0.7326 0.45751 0.6881 0.0
C259 C 0.65613 0.39097 0.67476 0.0
C260 C 0.64767 0.36636 0.64563 0.0
C261 C 0.55937 0.31259 0.6323 0.0
C262 C 0.54786 0.27708 0.60631 0.0
C263 C 0.62461 0.29411 0.59325 0.0
H264 H 0.79375 0.42728 0.64146 0.0
C265 C 0.71299 0.35169 0.60585 0.0
C266 C 0.72459 0.38748 0.63181 0.0
H267 H 0.77339 0.36544 0.59625 0.0
H268 H 0.65335 0.36182 0.77667 0.0
H269 H 0.66497 0.33248 0.72975 0.0
H270 H 0.81144 0.62137 0.7131 0.0
H271 H 0.79891 0.65108 0.76025 0.0
H272 H 0.79119 0.50341 0.67711 0.0
H273 H 0.59555 0.35216 0.68579 0.0
H274 H 0.4989 0.29519 0.64245 0.0
H275 H 0.47894 0.23256 0.59711 0.0
loop_
_geom_bond_atom_site_label_1
_geom_bond_atom_site_label_2
_geom_bond_distance
_geom_bond_site_symmetry_2
_ccdc_geom_bond_type
Dy0 O4 2.398 . S
Dy0 O5 2.491 . S
Dy0 O6 2.403 . S
Dy0 O7 2.664 1_655 S
Dy0 O11 2.326 1_655 S
Dy0 O15 2.310 . S
Dy0 O16 2.351 . S
C1 O12 1.185 . S
C1 O13 1.355 . S
C2 O4 1.185 . S
C2 O5 1.355 . S
Dy3 O7 2.310 . S
Dy3 O10 2.351 . S
Dy3 O12 2.398 . S
Dy3 O13 2.491 . S
Dy3 O14 2.403 . S
Dy3 O15 2.664 1_455 S
Dy3 O17 2.326 1_455 S
O4 Dy0 2.398 . S
O4 C2 1.185 . S
O5 Dy0 2.491 . S
O5 C2 1.355 . S
O6 Dy0 2.403 . S
O6 C8 1.254 . S
O7 Dy0 2.664 1_455 S
O7 Dy3 2.310 . S
O7 C8 1.268 1_455 S
C8 O6 1.254 . S
C8 O7 1.268 1_655 S
C9 O14 1.254 . S
C9 O15 1.268 1_455 S
O10 Dy3 2.351 . S
O10 C18 1.249 . S
O11 Dy0 2.326 1_455 S
O11 C18 1.267 . S
O12 C1 1.185 . S
O12 Dy3 2.398 . S
O13 C1 1.355 . S
O13 Dy3 2.491 . S
O14 Dy3 2.403 . S
O14 C9 1.254 . S
O15 Dy0 2.310 . S
O15 Dy3 2.664 1_655 S
O15 C9 1.268 1_655 S
O16 Dy0 2.351 . S
O16 C19 1.249 . S
O17 Dy3 2.326 1_655 S
O17 C19 1.267 . S
C18 O10 1.249 . S
C18 O11 1.267 . S
C19 O16 1.249 . S
C19 O17 1.267 . S
Dy20 O24 2.398 . S
Dy20 O25 2.491 . S
Dy20 O26 2.403 . S
Dy20 O27 2.664 1_545 S
Dy20 O31 2.326 1_545 S
Dy20 O35 2.310 . S
Dy20 O36 2.351 . S
C21 O32 1.185 . S
C21 O33 1.355 . S
C22 O24 1.185 . S
C22 O25 1.355 . S
Dy23 O27 2.310 . S
Dy23 O30 2.351 . S
Dy23 O32 2.398 . S
Dy23 O33 2.491 . S
Dy23 O34 2.403 . S
Dy23 O35 2.664 1_565 S
Dy23 O37 2.326 1_565 S
O24 Dy20 2.398 . S
O24 C22 1.185 . S
O25 Dy20 2.491 . S
O25 C22 1.355 . S
O26 Dy20 2.403 . S
O26 C28 1.254 . S
O27 Dy20 2.664 1_565 S
O27 Dy23 2.310 . S
O27 C28 1.268 1_565 S
C28 O26 1.254 . S
C28 O27 1.268 1_545 S
C29 O34 1.254 . S
C29 O35 1.268 1_565 S
O30 Dy23 2.351 . S
O30 C38 1.249 . S
O31 Dy20 2.326 1_565 S
O31 C38 1.267 . S
O32 C21 1.185 . S
O32 Dy23 2.398 . S
O33 C21 1.355 . S
O33 Dy23 2.491 . S
O34 Dy23 2.403 . S
O34 C29 1.254 . S
O35 Dy20 2.310 . S
O35 Dy23 2.664 1_545 S
O35 C29 1.268 1_545 S
O36 Dy20 2.351 . S
O36 C39 1.249 . S
O37 Dy23 2.326 1_545 S
O37 C39 1.267 . S
C38 O30 1.249 . S
C38 O31 1.267 . S
C39 O36 1.249 . S
C39 O37 1.267 . S
Dy40 O44 2.398 . S
Dy40 O45 2.491 . S
Dy40 O46 2.403 . S
Dy40 O47 2.664 . S
Dy40 O51 2.326 . S
Dy40 O55 2.310 . S
Dy40 O56 2.351 . S
C41 O52 1.185 . S
C41 O53 1.355 . S
C42 O44 1.185 . S
C42 O45 1.355 . S
Dy43 O47 2.310 . S
Dy43 O50 2.351 . S
Dy43 O52 2.398 . S
Dy43 O53 2.491 . S
Dy43 O54 2.403 . S
Dy43 O55 2.664 . S
Dy43 O57 2.326 . S
O44 Dy40 2.398 . S
O44 C42 1.185 . S
O45 Dy40 2.491 . S
O45 C42 1.355 . S
O46 Dy40 2.403 . S
O46 C48 1.254 . S
O47 Dy40 2.664 . S
O47 Dy43 2.310 . S
O47 C48 1.268 . S
C48 O46 1.254 . S
C48 O47 1.268 . S
C49 O54 1.254 . S
C49 O55 1.268 . S
O50 Dy43 2.351 . S
O50 C58 1.249 . S
O51 Dy40 2.326 . S
O51 C58 1.267 . S
O52 C41 1.185 . S
O52 Dy43 2.398 . S
O53 C41 1.355 . S
O53 Dy43 2.491 . S
O54 Dy43 2.403 . S
O54 C49 1.254 . S
O55 Dy40 2.310 . S
O55 Dy43 2.664 . S
O55 C49 1.268 . S
O56 Dy40 2.351 . S
O56 C59 1.249 . S
O57 Dy43 2.326 . S
O57 C59 1.267 . S
C58 O50 1.249 . S
C58 O51 1.267 . S
C59 O56 1.249 . S
C59 O57 1.267 . S
C60 C61 1.387 . S
C60 C62 1.383 . S
C60 H76 0.951 . S
C61 C60 1.387 . S
C61 C65 1.376 1_455 S
C62 C60 1.383 . S
C62 C63 1.402 1_455 S
C62 H77 0.951 . S
C63 C62 1.402 1_655 S
C63 C64 1.375 . S
C63 C66 1.481 1_565 S
C64 C63 1.375 . S
C64 C65 1.367 . S
C64 H78 0.951 . S
C65 C61 1.376 1_655 S
C65 C64 1.367 . S
C65 H79 0.950 . S
C66 C63 1.481 1_545 S
C66 C67 1.297 1_655 S
C66 H80 0.950 . S
C67 C66 1.297 1_455 S
C67 C68 1.479 . S
C67 H81 0.950 . S
C68 C67 1.479 . S
C68 C69 1.375 . S
C68 C74 1.404 1_455 S
C69 C68 1.375 . S
C69 C70 1.369 . S
C69 H82 0.950 . S
C70 C69 1.369 . S
C70 C71 1.392 . S
C70 H83 0.951 . S
C71 C70 1.392 . S
C71 C73 1.384 1_455 S
H72 C74 0.949 . S
C73 C71 1.384 1_655 S
C73 C74 1.385 . S
C73 H75 0.950 . S
C74 C68 1.404 1_655 S
C74 H72 0.949 . S
C74 C73 1.385 . S
H75 C73 0.950 . S
H76 C60 0.951 . S
H77 C62 0.951 . S
H78 C64 0.951 . S
H79 C65 0.950 . S
H80 C66 0.950 . S
H81 C67 0.950 . S
H82 C69 0.950 . S
H83 C70 0.951 . S
C84 C85 1.386 1_545 S
C84 C86 1.383 . S
C84 H100 0.951 . S
C85 C84 1.386 1_565 S
C85 C89 1.383 . S
C86 C84 1.383 . S
C86 C87 1.402 1_545 S
C86 H101 0.951 . S
C87 C86 1.402 1_565 S
C87 C88 1.375 . S
C87 C90 1.481 . S
C88 C87 1.375 . S
C88 C89 1.367 . S
C88 H102 0.951 . S
C89 C85 1.383 . S
C89 C88 1.367 . S
C89 H103 0.950 . S
C90 C87 1.481 . S
C90 C91 1.297 1_565 S
C90 H104 0.950 . S
C91 C90 1.297 1_545 S
C91 C92 1.479 1_445 S
C91 H105 0.950 . S
C92 C91 1.479 1_665 S
C92 C93 1.375 1_565 S
C92 C98 1.404 . S
C93 C92 1.375 1_545 S
C93 C94 1.369 . S
C93 H106 0.950 . S
C94 C93 1.369 . S
C94 C95 1.392 1_545 S
C94 H107 0.951 . S
C95 C94 1.392 1_565 S
C95 C97 1.384 . S
H96 C98 0.949 . S
C97 C95 1.384 . S
C97 C98 1.385 . S
C97 H99 0.950 . S
C98 C92 1.404 . S
C98 H96 0.949 . S
C98 C97 1.385 . S
H99 C97 0.950 . S
H100 C84 0.951 . S
H101 C86 0.951 . S
H102 C88 0.951 . S
H103 C89 0.950 . S
H104 C90 0.950 . S
H105 C91 0.950 . S
H106 C93 0.950 . S
H107 C94 0.951 . S
C108 C109 1.386 . S
C108 C110 1.383 . S
C108 H124 0.951 . S
C109 C108 1.386 . S
C109 C113 1.383 . S
C110 C108 1.383 . S
C110 C111 1.402 . S
C110 H125 0.951 1_655 S
C111 C110 1.402 . S
C111 C112 1.375 . S
C111 C114 1.481 1_665 S
C112 C111 1.375 . S
C112 C113 1.367 . S
C112 H126 0.951 . S
C113 C109 1.383 . S
C113 C112 1.367 . S
C113 H127 0.950 . S
C114 C111 1.481 1_445 S
C114 C115 1.297 . S
C114 H128 0.950 . S
C115 C114 1.297 . S
C115 C116 1.479 . S
C115 H129 0.950 . S
C116 C115 1.479 . S
C116 C117 1.375 . S
C116 C122 1.404 . S
C117 C116 1.375 . S
C117 C118 1.369 . S
C117 H130 0.950 . S
C118 C117 1.369 . S
C118 C119 1.392 . S
C118 H131 0.951 . S
C119 C118 1.392 . S
C119 C121 1.384 . S
H120 C122 0.949 . S
C121 C119 1.384 . S
C121 C122 1.385 . S
C121 H123 0.950 . S
C122 C116 1.404 . S
C122 H120 0.949 . S
C122 C121 1.385 . S
H123 C121 0.950 . S
H124 C108 0.951 . S
H125 C110 0.951 1_455 S
H126 C112 0.951 . S
H127 C113 0.950 . S
H128 C114 0.950 . S
H129 C115 0.950 . S
H130 C117 0.950 . S
H131 C118 0.951 . S
C132 C133 1.386 . S
C132 C134 1.383 . S
C132 H148 0.951 . S
C133 C132 1.386 . S
C133 C137 1.383 . S
C134 C132 1.383 . S
C134 C135 1.402 . S
C134 H149 0.951 . S
C135 C134 1.402 . S
C135 C136 1.375 . S
C135 C138 1.481 . S
C136 C135 1.375 . S
C136 C137 1.367 . S
C136 H150 0.951 . S
C137 C133 1.383 . S
C137 C136 1.367 . S
C137 H151 0.950 . S
C138 C135 1.481 . S
C138 C139 1.297 . S
C138 H152 0.947 1_556 S
C139 C138 1.297 . S
C139 C140 1.479 1_556 S
C139 H153 0.950 . S
C140 C139 1.479 1_554 S
C140 C141 1.375 . S
C140 C146 1.404 . S
C141 C140 1.375 . S
C141 C142 1.369 . S
C141 H154 0.950 . S
C142 C141 1.369 . S
C142 C143 1.392 . S
C142 H155 0.951 . S
C143 C142 1.392 . S
C143 C145 1.384 . S
H144 C146 0.949 . S
C145 C143 1.384 . S
C145 C146 1.385 . S
C145 H147 0.950 . S
C146 C140 1.404 . S
C146 H144 0.949 . S
C146 C145 1.385 . S
H147 C145 0.950 . S
H148 C132 0.951 . S
H149 C134 0.951 . S
H150 C136 0.951 . S
H151 C137 0.950 . S
H152 C138 0.947 1_554 S
H153 C139 0.950 . S
H154 C141 0.950 . S
H155 C142 0.951 . S
C156 C157 1.386 . S
C156 C158 1.383 . S
C156 H172 0.951 . S
C157 C156 1.386 . S
C157 C161 1.383 . S
C158 C156 1.383 . S
C158 C159 1.402 . S
C158 H173 0.951 . S
C159 C158 1.402 . S
C159 C160 1.375 . S
C159 C162 1.481 . S
C160 C159 1.375 . S
C160 C161 1.367 . S
C160 H174 0.951 . S
C161 C157 1.383 . S
C161 C160 1.367 . S
C161 H175 0.950 . S
C162 C159 1.481 . S
C162 C163 1.297 . S
C162 H176 0.950 . S
C163 C162 1.297 . S
C163 C164 1.479 . S
C163 H177 0.950 . S
C164 C163 1.479 . S
C164 C165 1.375 . S
C164 C170 1.404 . S
C165 C164 1.375 . S
C165 C166 1.369 . S
C165 H178 0.950 . S
C166 C165 1.369 . S
C166 C167 1.392 . S
C166 H179 0.951 . S
C167 C166 1.392 . S
C167 C169 1.384 . S
H168 C170 0.949 . S
C169 C167 1.384 . S
C169 C170 1.385 . S
C169 H171 0.950 . S
C170 C164 1.404 . S
C170 H168 0.949 . S
C170 C169 1.385 . S
H171 C169 0.950 . S
H172 C156 0.951 . S
H173 C158 0.951 . S
H174 C160 0.951 . S
H175 C161 0.950 . S
H176 C162 0.950 . S
H177 C163 0.950 . S
H178 C165 0.950 . S
H179 C166 0.951 . S
C180 C181 1.386 . S
C180 C182 1.383 . S
C180 H196 0.951 . S
C181 C180 1.386 . S
C181 C185 1.383 . S
C182 C180 1.383 . S
C182 C183 1.402 . S
C182 H197 0.951 . S
C183 C182 1.402 . S
C183 C184 1.375 . S
C183 C186 1.481 . S
C184 C183 1.375 . S
C184 C185 1.367 . S
C184 H198 0.951 . S
C185 C181 1.383 . S
C185 C184 1.367 . S
C185 H199 0.950 . S
C186 C183 1.481 . S
C186 C187 1.297 . S
C186 H200 0.950 . S
C187 C186 1.297 . S
C187 C188 1.479 . S
C187 H201 0.950 . S
C188 C187 1.479 . S
C188 C189 1.375 . S
C188 C194 1.404 . S
C189 C188 1.375 . S
C189 C190 1.369 . S
C189 H202 0.950 . S
C190 C189 1.369 . S
C190 C191 1.392 . S
C190 H203 0.951 . S
C191 C190 1.392 . S
C191 C193 1.384 . S
H192 C194 0.949 . S
C193 C191 1.384 . S
C193 C194 1.385 . S
C193 H195 0.950 . S
C194 C188 1.404 . S
C194 H192 0.949 . S
C194 C193 1.385 . S
H195 C193 0.950 . S
H196 C180 0.951 . S
H197 C182 0.951 . S
H198 C184 0.951 . S
H199 C185 0.950 . S
H200 C186 0.950 . S
H201 C187 0.950 . S
H202 C189 0.950 . S
H203 C190 0.951 . S
C204 C205 1.386 . S
C204 C206 1.383 . S
C204 H220 0.951 . S
C205 C204 1.386 . S
C205 C209 1.383 . S
C206 C204 1.383 . S
C206 C207 1.402 . S
C206 H221 0.951 . S
C207 C206 1.402 . S
C207 C208 1.375 . S
C207 C210 1.481 . S
C208 C207 1.375 . S
C208 C209 1.367 . S
C208 H222 0.951 . S
C209 C205 1.383 . S
C209 C208 1.367 . S
C209 H223 0.950 . S
C210 C207 1.481 . S
C210 C211 1.297 1_556 S
C210 H224 0.950 . S
C211 C210 1.297 1_554 S
C211 C212 1.479 . S
C211 H225 0.950 . S
C212 C211 1.479 . S
C212 C213 1.375 . S
C212 C218 1.404 . S
C213 C212 1.375 . S
C213 C214 1.369 . S
C213 H226 0.950 . S
C214 C213 1.369 . S
C214 C215 1.392 . S
C214 H227 0.951 . S
C215 C214 1.392 . S
C215 C217 1.384 . S
H216 C218 0.949 . S
C217 C215 1.384 . S
C217 C218 1.385 . S
C217 H219 0.950 . S
C218 C212 1.404 . S
C218 H216 0.949 . S
C218 C217 1.385 . S
H219 C217 0.950 . S
H220 C204 0.951 . S
H221 C206 0.951 . S
H222 C208 0.951 . S
H223 C209 0.950 . S
H224 C210 0.950 . S
H225 C211 0.950 . S
H226 C213 0.950 . S
H227 C214 0.951 . S
C228 C229 1.386 . S
C228 C230 1.383 . S
C228 H244 0.951 . S
C229 C228 1.386 . S
C229 C233 1.383 . S
C230 C228 1.383 . S
C230 C231 1.402 . S
C230 H245 0.951 . S
C231 C230 1.402 . S
C231 C232 1.375 . S
C231 C234 1.481 . S
C232 C231 1.375 . S
C232 C233 1.367 . S
C232 H246 0.951 . S
C233 C229 1.383 . S
C233 C232 1.367 . S
C233 H247 0.950 . S
C234 C231 1.481 . S
C234 C235 1.297 . S
C234 H248 0.950 . S
C235 C234 1.297 . S
C235 C236 1.479 . S
C235 H249 0.950 . S
C236 C235 1.479 . S
C236 C237 1.375 . S
C236 C242 1.404 . S
C237 C236 1.375 . S
C237 C238 1.369 . S
C237 H250 0.950 . S
C238 C237 1.369 . S
C238 C239 1.392 . S
C238 H251 0.951 . S
C239 C238 1.392 . S
C239 C241 1.384 . S
H240 C242 0.949 . S
C241 C239 1.384 . S
C241 C242 1.385 . S
C241 H243 0.950 . S
C242 C236 1.404 . S
C242 H240 0.949 . S
C242 C241 1.385 . S
H243 C241 0.950 . S
H244 C228 0.951 . S
H245 C230 0.951 . S
H246 C232 0.951 . S
H247 C233 0.950 . S
H248 C234 0.950 . S
H249 C235 0.950 . S
H250 C237 0.950 . S
H251 C238 0.951 . S
C252 C253 1.386 . S
C252 C254 1.383 . S
C252 H268 0.951 . S
C253 C252 1.386 . S
C253 C257 1.383 . S
C254 C252 1.383 . S
C254 C255 1.402 . S
C254 H269 0.951 . S
C255 C254 1.402 . S
C255 C256 1.375 . S
C255 C258 1.481 . S
C256 C255 1.375 . S
C256 C257 1.367 . S
C256 H270 0.951 . S
C257 C253 1.383 . S
C257 C256 1.367 . S
C257 H271 0.950 . S
C258 C255 1.481 . S
C258 C259 1.297 . S
C258 H272 0.950 . S
C259 C258 1.297 . S
C259 C260 1.479 . S
C259 H273 0.950 . S
C260 C259 1.479 . S
C260 C261 1.375 . S
C260 C266 1.404 . S
C261 C260 1.375 . S
C261 C262 1.369 . S
C261 H274 0.950 . S
C262 C261 1.369 . S
C262 C263 1.392 . S
C262 H275 0.951 . S
C263 C262 1.392 . S
C263 C265 1.384 . S
H264 C266 0.949 . S
C265 C263 1.384 . S
C265 C266 1.385 . S
C265 H267 0.950 . S
C266 C260 1.404 . S
C266 H264 0.949 . S
C266 C265 1.385 . S
H267 C265 0.950 . S
H268 C252 0.951 . S
H269 C254 0.951 . S
H270 C256 0.951 . S
H271 C257 0.950 . S
H272 C258 0.950 . S
H273 C259 0.950 . S
H274 C261 0.950 . S
H275 C262 0.951 . S
C61 C8 1.144 1_455 S
C71 C9 1.054 . S
C85 C29 1.112 . S
C95 C28 1.178 1_565 S
C109 C48 1.140 . S
C119 C49 1.052 . S
C133 C42 1.202 . S
C143 C1 1.215 . S
C157 C39 1.539 . S
C167 C2 1.528 . S
C181 C59 1.575 . S
C191 C38 1.556 . S
C205 C58 1.532 . S
C215 C19 1.549 . S
C229 C18 1.252 . S
C239 C21 1.184 . S
C253 C41 1.218 . S
C263 C22 1.165 . S
