# Generated by pormake.
# Topology whz, (6)-cn, num edge types: 1
# Building blocks:
#     Node 0, Type 0, BuildingBlock: HISSIN_clean_sbu_0, # of connection points: 6
#     Node 1, Type 0, BuildingBlock: HISSIN_clean_sbu_0, # of connection points: 6
#     Node 2, Type 0, BuildingBlock: HISSIN_clean_sbu_0, # of connection points: 6
#     Node 3, Type 0, BuildingBlock: HISSIN_clean_sbu_0, # of connection points: 6
#     Node 4, Type 0, BuildingBlock: HISSIN_clean_sbu_0, # of connection points: 6
#     Node 5, Type 0, BuildingBlock: HISSIN_clean_sbu_0, # of connection points: 6
#     Node 6, Type 0, BuildingBlock: HISSIN_clean_sbu_0, # of connection points: 6
#     Node 7, Type 0, BuildingBlock: HISSIN_clean_sbu_0, # of connection points: 6
#     Node 8, Type 0, BuildingBlock: HISSIN_clean_sbu_0, # of connection points: 6
#     Node 9, Type 0, BuildingBlock: HISSIN_clean_sbu_0, # of connection points: 6
#     Node 10, Type 0, BuildingBlock: HISSIN_clean_sbu_0, # of connection points: 6
#     Node 11, Type 0, BuildingBlock: HISSIN_clean_sbu_0, # of connection points: 6
#     Node 12, Type 0, BuildingBlock: HISSIN_clean_sbu_0, # of connection points: 6
#     Node 13, Type 0, BuildingBlock: HISSIN_clean_sbu_0, # of connection points: 6
#     Node 14, Type 0, BuildingBlock: HISSIN_clean_sbu_0, # of connection points: 6
#     Node 15, Type 0, BuildingBlock: HISSIN_clean_sbu_0, # of connection points: 6
#     Edge 16, Type (0, 0), BuildingBlock: AJUNOK_clean_linker_0, # of connection points: 2
#     Edge 17, Type (0, 0), BuildingBlock: AJUNOK_clean_linker_0, # of connection points: 2
#     Edge 18, Type (0, 0), BuildingBlock: AJUNOK_clean_linker_0, # of connection points: 2
#     Edge 19, Type (0, 0), BuildingBlock: AJUNOK_clean_linker_0, # of connection points: 2
#     Edge 20, Type (0, 0), BuildingBlock: AJUNOK_clean_linker_0, # of connection points: 2
#     Edge 21, Type (0, 0), BuildingBlock: AJUNOK_clean_linker_0, # of connection points: 2
#     Edge 22, Type (0, 0), BuildingBlock: AJUNOK_clean_linker_0, # of connection points: 2
#     Edge 23, Type (0, 0), BuildingBlock: AJUNOK_clean_linker_0, # of connection points: 2
#     Edge 24, Type (0, 0), BuildingBlock: AJUNOK_clean_linker_0, # of connection points: 2
#     Edge 25, Type (0, 0), BuildingBlock: AJUNOK_clean_linker_0, # of connection points: 2
#     Edge 26, Type (0, 0), BuildingBlock: AJUNOK_clean_linker_0, # of connection points: 2
#     Edge 27, Type (0, 0), BuildingBlock: AJUNOK_clean_linker_0, # of connection points: 2
#     Edge 28, Type (0, 0), BuildingBlock: AJUNOK_clean_linker_0, # of connection points: 2
#     Edge 29, Type (0, 0), BuildingBlock: AJUNOK_clean_linker_0, # of connection points: 2
#     Edge 30, Type (0, 0), BuildingBlock: AJUNOK_clean_linker_0, # of connection points: 2
#     Edge 31, Type (0, 0), BuildingBlock: AJUNOK_clean_linker_0, # of connection points: 2
#     Edge 32, Type (0, 0), BuildingBlock: AJUNOK_clean_linker_0, # of connection points: 2
#     Edge 33, Type (0, 0), BuildingBlock: AJUNOK_clean_linker_0, # of connection points: 2
#     Edge 34, Type (0, 0), BuildingBlock: AJUNOK_clean_linker_0, # of connection points: 2
#     Edge 35, Type (0, 0), BuildingBlock: AJUNOK_clean_linker_0, # of connection points: 2
#     Edge 36, Type (0, 0), BuildingBlock: AJUNOK_clean_linker_0, # of connection points: 2
#     Edge 37, Type (0, 0), BuildingBlock: AJUNOK_clean_linker_0, # of connection points: 2
#     Edge 38, Type (0, 0), BuildingBlock: AJUNOK_clean_linker_0, # of connection points: 2
#     Edge 39, Type (0, 0), BuildingBlock: AJUNOK_clean_linker_0, # of connection points: 2
#     Edge 40, Type (0, 0), BuildingBlock: AJUNOK_clean_linker_0, # of connection points: 2
#     Edge 41, Type (0, 0), BuildingBlock: AJUNOK_clean_linker_0, # of connection points: 2
#     Edge 42, Type (0, 0), BuildingBlock: AJUNOK_clean_linker_0, # of connection points: 2
#     Edge 43, Type (0, 0), BuildingBlock: AJUNOK_clean_linker_0, # of connection points: 2
#     Edge 44, Type (0, 0), BuildingBlock: AJUNOK_clean_linker_0, # of connection points: 2
#     Edge 45, Type (0, 0), BuildingBlock: AJUNOK_clean_linker_0, # of connection points: 2
#     Edge 46, Type (0, 0), BuildingBlock: AJUNOK_clean_linker_0, # of connection points: 2
#     Edge 47, Type (0, 0), BuildingBlock: AJUNOK_clean_linker_0, # of connection points: 2
#     Edge 48, Type (0, 0), BuildingBlock: AJUNOK_clean_linker_0, # of connection points: 2
#     Edge 49, Type (0, 0), BuildingBlock: AJUNOK_clean_linker_0, # of connection points: 2
#     Edge 50, Type (0, 0), BuildingBlock: AJUNOK_clean_linker_0, # of connection points: 2
#     Edge 51, Type (0, 0), BuildingBlock: AJUNOK_clean_linker_0, # of connection points: 2
#     Edge 52, Type (0, 0), BuildingBlock: AJUNOK_clean_linker_0, # of connection points: 2
#     Edge 53, Type (0, 0), BuildingBlock: AJUNOK_clean_linker_0, # of connection points: 2
#     Edge 54, Type (0, 0), BuildingBlock: AJUNOK_clean_linker_0, # of connection points: 2
#     Edge 55, Type (0, 0), BuildingBlock: AJUNOK_clean_linker_0, # of connection points: 2
#     Edge 56, Type (0, 0), BuildingBlock: AJUNOK_clean_linker_0, # of connection points: 2
#     Edge 57, Type (0, 0), BuildingBlock: AJUNOK_clean_linker_0, # of connection points: 2
#     Edge 58, Type (0, 0), BuildingBlock: AJUNOK_clean_linker_0, # of connection points: 2
#     Edge 59, Type (0, 0), BuildingBlock: AJUNOK_clean_linker_0, # of connection points: 2
#     Edge 60, Type (0, 0), BuildingBlock: AJUNOK_clean_linker_0, # of connection points: 2
#     Edge 61, Type (0, 0), BuildingBlock: AJUNOK_clean_linker_0, # of connection points: 2
#     Edge 62, Type (0, 0), BuildingBlock: AJUNOK_clean_linker_0, # of connection points: 2
#     Edge 63, Type (0, 0), BuildingBlock: AJUNOK_clean_linker_0, # of connection points: 2
# Relax obj value: 0.863
# Max RMSD: 0.330
# Mean RMSD: 0.330
data_MOF--net-whz--node1-HISSIN_clean_sbu_0--edge1-AJUNOK_clean_linker_0
_symmetry_space_group_name_H-M    P1
_symmetry_Int_Tables_number       1
_symmetry_cell_setting            triclinic
loop_
_symmetry_equiv_pos_as_xyz
'x, y, z'
_cell_length_a     25.794725
_cell_length_b     26.041812
_cell_length_c     57.288618
_cell_angle_alpha  89.957559
_cell_angle_beta   89.605059
_cell_angle_gamma 89.805186
loop_
_atom_site_label
_atom_site_type_symbol
_atom_site_fract_x
_atom_site_fract_y
_atom_site_fract_z
_atom_type_partial_charge
Eu0 Eu 0.30269 0.26929 0.20837 0.0
Eu1 Eu 0.32053 0.20082 0.16147 0.0
C2 C 0.36476 0.16415 0.213 0.0
C3 C 0.22469 0.34586 0.2507 0.0
C4 C 0.22203 0.35789 0.27441 0.0
C5 C 0.13128 0.33214 0.25053 0.0
C6 C 0.175 0.35438 0.28639 0.0
C7 C 0.17871 0.33516 0.23855 0.0
C8 C 0.12941 0.33893 0.27486 0.0
C9 C 0.27565 0.33561 0.24003 0.0
O10 O 0.24566 0.17011 0.17701 0.0
O11 O 0.2502 0.20139 0.21473 0.0
C12 C 0.23034 0.17026 0.19906 0.0
O13 O 0.23436 0.27338 0.1849 0.0
O14 O 0.35384 0.19877 0.12619 0.0
O15 O 0.30465 0.13671 0.13768 0.0
O16 O 0.28458 0.27955 0.15358 0.0
C17 C 0.24207 0.29331 0.16457 0.0
O18 O 0.37596 0.29951 0.19059 0.0
O19 O 0.40093 0.22666 0.17122 0.0
O20 O 0.34877 0.15003 0.19194 0.0
O21 O 0.29532 0.29058 0.245 0.0
O22 O 0.28075 0.34746 0.21794 0.0
O23 O 0.35978 0.21131 0.22079 0.0
C24 C 0.30838 0.15309 0.09652 0.0
C25 C 0.26952 0.18699 0.08874 0.0
C26 C 0.30617 0.1103 0.05864 0.0
C27 C 0.24877 0.18208 0.06611 0.0
C28 C 0.32679 0.11522 0.08112 0.0
C29 C 0.26627 0.14303 1.0509 0.0
C30 C 0.33105 0.15615 0.12033 0.0
C31 C 0.41229 0.2714 0.18041 0.0
H32 H 0.25701 0.36605 0.28408 0.0
H33 H 0.09695 0.32099 0.24104 0.0
H34 H 0.17565 0.35939 0.30515 0.0
H35 H 0.1799 0.32576 0.22014 0.0
H36 H 0.25484 0.21679 0.10022 0.0
H37 H 0.32114 0.08031 1.04734 0.0
H38 H 0.21798 0.20781 0.06077 0.0
H39 H 0.35707 0.08896 0.08655 0.0
Eu40 Eu 0.57726 0.56664 0.45004 0.0
Eu41 Eu 0.64691 0.58964 0.40496 0.0
C42 C 0.68506 0.61988 0.45884 0.0
C43 C 0.47698 0.58952 0.49605 0.0
C44 C 0.46841 0.64011 0.48833 0.0
C45 C 0.46277 0.61708 0.53582 0.0
C46 C 0.46087 0.67947 0.50453 0.0
C47 C 0.46992 0.57765 0.51967 0.0
C48 C 0.46329 0.66867 0.52843 0.0
C49 C 0.50442 0.55274 0.48099 0.0
O50 O 0.6665 0.50784 0.4143 0.0
O51 O 0.64292 0.50732 0.45306 0.0
C52 C 0.66879 0.48719 0.43524 0.0
O53 O 0.56298 0.50572 0.42362 0.0
O54 O 0.70803 0.57018 0.37942 0.0
O55 O 0.65409 0.63146 0.37208 0.0
O56 O 0.56436 0.56393 0.3953 0.0
C57 C 0.54665 0.52014 0.4034 0.0
O58 O 0.55471 0.6474 0.43656 0.0
O59 O 0.62811 0.66982 0.41656 0.0
O60 O 0.69955 0.60673 0.43718 0.0
O61 O 0.49551 0.55671 0.45862 0.0
O62 O 0.55378 0.54733 0.48557 0.0
O63 O 0.63682 0.61649 0.46582 0.0
C64 C 0.68448 0.58355 0.3395 0.0
C65 C 0.63715 0.56296 0.3319 0.0
C66 C 0.71875 0.57359 0.29994 0.0
C67 C 0.63061 0.54812 0.30848 0.0
C68 C 0.72522 0.58837 0.32331 0.0
C69 C 0.67115 0.55376 0.29205 0.0
C70 C 0.69118 0.60254 0.3638 0.0
C71 C 0.58458 0.68282 0.42679 0.0
H72 H 0.4728 0.65014 0.47008 0.0
H73 H 0.46453 0.60755 0.55422 0.0
H74 H 0.45931 0.71871 0.49852 0.0
H75 H 0.4759 0.53879 0.52591 0.0
H76 H 0.60504 0.55875 0.34403 0.0
H77 H 0.75162 0.57662 0.28817 0.0
H78 H 0.59361 0.53262 0.30319 0.0
H79 H 0.76223 0.6037 0.32873 0.0
Eu80 Eu 0.27042 0.79918 0.70259 0.0
Eu81 Eu 0.25604 0.87963 0.66019 0.0
C82 C 0.22451 0.91229 0.7144 0.0
C83 C 0.35367 0.74758 0.74613 0.0
C84 C 0.35614 0.79837 0.75412 0.0
C85 C 0.44179 0.73353 0.7597 0.0
C86 C 0.40027 0.81641 0.76494 0.0
C87 C 0.39715 0.71538 0.74856 0.0
C88 C 0.44344 0.78428 0.7681 0.0
C89 C 0.3102 0.73355 0.73108 0.0
O90 O 0.31939 0.91961 0.67913 0.0
O91 O 0.34263 0.85026 0.70155 0.0
C92 C 0.35057 0.89755 0.69406 0.0
O93 O 0.26306 0.76353 0.66764 0.0
O94 O 0.26565 0.94699 0.63735 0.0
O95 O 0.22984 0.87822 0.62397 0.0
O96 O 0.31914 0.81823 0.65418 0.0
C97 C 0.30566 0.77007 0.65607 0.0
O98 O 0.18513 0.78812 0.69704 0.0
O99 O 0.17501 0.84586 0.66668 0.0
O100 O 0.22345 0.92484 0.69182 0.0
O101 O 0.26596 0.75673 0.73547 0.0
O102 O 0.32237 0.73465 0.70898 0.0
O103 O 0.24203 0.86794 0.72199 0.0
C104 C 0.27301 0.93107 0.59605 0.0
C105 C 0.32272 0.91105 0.59149 0.0
C106 C 0.26924 0.96063 0.55551 0.0
C107 C 0.34531 0.91564 0.56911 0.0
C108 C 0.24673 0.95602 0.57784 0.0
C109 C 0.31874 0.94008 0.55064 0.0
C110 C 0.2464 0.92428 0.61904 0.0
C111 C 0.156 0.81152 0.68149 0.0
H112 H 0.32408 0.8248 0.75169 0.0
H113 H 0.47447 0.70789 0.76216 0.0
H114 H 0.39969 0.85529 0.77169 0.0
H115 H 0.39675 0.67668 0.74163 0.0
H116 H 0.34394 0.8916 0.60517 0.0
H117 H 0.24737 0.97956 0.54191 0.0
H118 H 0.38385 0.90029 0.56637 0.0
H119 H 0.20822 0.97154 0.58081 0.0
Eu120 Eu 0.04394 0.51466 0.9528 0.0
Eu121 Eu 0.95761 0.50828 0.91215 0.0
C122 C 0.92935 0.47071 0.9661 0.0
C123 C 0.14099 0.47213 0.99531 0.0
C124 C 0.13321 0.4211 0.98805 0.0
C125 C 0.15074 0.44245 1.03499 0.0
C126 C 0.13051 0.38156 1.00447 0.0
C127 C 0.1535 0.48192 1.01857 0.0
C128 C 0.13498 0.39274 1.02832 0.0
C129 C 0.12339 0.51469 0.98047 0.0
O130 O 0.92536 0.56508 0.9381 0.0
O131 O 1.00377 0.59328 0.95148 0.0
C132 C 0.95306 0.59932 0.94926 0.0
O133 O 0.07756 0.51204 0.91692 0.0
O134 O 0.90033 0.54522 0.88944 0.0
O135 O 0.92722 0.46898 0.88127 0.0
O136 O 1.02082 0.5667 0.90298 0.0
C137 C 0.06938 0.55307 0.90475 0.0
O138 O 1.02846 0.43007 0.94998 0.0
O139 O 1.00157 0.43121 0.91203 0.0
O140 O 0.91358 0.47493 0.94405 0.0
O141 O 0.12731 0.50716 0.95804 0.0
O142 O 0.0784 0.53407 0.98636 0.0
O143 O 0.9762 0.48395 0.97271 0.0
C144 C 0.90253 0.52228 0.84917 0.0
C145 C 0.9497 0.53556 0.83835 0.0
C146 C 0.85846 0.53887 0.81223 0.0
C147 C 0.95114 0.55063 0.81473 0.0
C148 C 0.85708 0.52382 0.8358 0.0
C149 C 0.90549 0.55269 0.80128 0.0
C150 C 0.89943 0.50792 0.87433 0.0
C151 C 1.01777 0.40574 0.93059 0.0
H152 H 0.12381 0.41243 0.97009 0.0
H153 H 0.154 0.45283 1.05321 0.0
H154 H 0.11866 0.3437 0.99881 0.0
H155 H 0.15963 0.52093 1.0245 0.0
H156 H 0.98534 0.53487 0.84824 0.0
H157 H 0.82227 0.54136 0.80284 0.0
H158 H 0.98806 0.56112 0.80701 0.0
H159 H 0.82013 0.51415 0.84374 0.0
Eu160 Eu 0.75775 0.88052 0.95593 0.0
Eu161 Eu 0.76483 0.80309 0.91293 0.0
C162 C 0.83395 0.78375 0.95504 0.0
C163 C 0.76693 0.93173 1.02024 0.0
C164 C 0.81685 0.91606 1.02696 0.0
C165 C 0.74664 0.95002 0.06117 0.0
C166 C 0.83154 0.91775 1.05055 0.0
C167 C 0.73199 0.94833 1.03762 0.0
C168 C 0.79684 0.93531 0.06799 0.0
C169 C 0.75016 0.93198 0.99543 0.0
O170 O 0.69281 0.78418 0.93498 0.0
O171 O 0.67427 0.86455 0.9468 0.0
C172 C 0.6581 0.81872 0.94122 0.0
O173 O 0.73312 0.92899 0.92388 0.0
O174 O 0.76529 0.72016 0.90759 0.0
O175 O 0.77059 0.77194 0.87783 0.0
O176 O 0.71377 0.86397 0.89803 0.0
C177 C 0.71389 0.91283 0.90366 0.0
O178 O 0.83134 0.90685 0.93807 0.0
O179 O 0.82763 0.86132 0.90338 0.0
O180 O 0.83745 0.79435 0.93308 0.0
O181 O 0.71789 0.89629 0.98908 0.0
O182 O 0.78466 0.94153 0.97923 0.0
O183 O 0.79385 0.80249 0.96665 0.0
C184 C 0.71719 0.70087 0.87402 0.0
C185 C 0.66727 0.71289 0.88241 0.0
C186 C 0.68121 0.68057 0.83647 0.0
C187 C 0.62544 0.71375 0.8671 0.0
C188 C 0.72299 0.67985 0.85175 0.0
C189 C 0.63403 0.70394 0.8433 0.0
C190 C 0.76212 0.7249 0.88493 0.0
C191 C 0.84865 0.8968 0.91684 0.0
H192 H 0.84457 0.90282 1.01399 0.0
H193 H 0.7184 0.96252 0.07405 0.0
H194 H 0.87048 0.90604 1.05511 0.0
H195 H 0.69314 0.96028 1.03294 0.0
H196 H 0.66183 0.72841 0.89976 0.0
H197 H 0.68921 0.67159 0.81835 0.0
H198 H 0.58914 0.73057 0.87297 0.0
H199 H 0.76112 0.66975 0.8451 0.0
Eu200 Eu 0.46013 0.49752 0.70776 0.0
Eu201 Eu 0.54171 0.51779 0.66611 0.0
C202 C 0.56944 0.54292 0.71431 0.0
C203 C 0.40685 0.51077 0.77099 0.0
C204 C 0.43564 0.5549 0.77642 0.0
C205 C 0.37265 0.51049 0.81082 0.0
C206 C 0.43303 0.57651 0.79892 0.0
C207 C 0.37532 0.48895 0.78839 0.0
C208 C 0.40177 0.55432 0.81652 0.0
C209 C 0.41175 0.48483 0.74797 0.0
O210 O 0.54206 0.43056 0.66659 0.0
O211 O 0.50136 0.42054 0.70229 0.0
C212 C 0.52652 0.40131 0.68412 0.0
O213 O 0.41923 0.46477 0.67517 0.0
O214 O 0.5836 0.51918 0.63279 0.0
O215 O 0.61427 0.5595 0.66275 0.0
O216 O 0.46942 0.50297 0.64621 0.0
C217 C 0.42825 0.47721 0.65292 0.0
O218 O 0.42202 0.56348 0.68964 0.0
O219 O 0.4935 0.5923 0.66946 0.0
O220 O 0.5757 0.50315 0.70109 0.0
O221 O 0.39064 0.5068 0.72985 0.0
O222 O 0.45729 0.4658 0.74299 0.0
O223 O 0.52129 0.55759 0.71634 0.0
C224 C 0.61828 0.60172 0.62655 0.0
C225 C 0.62797 0.59894 0.60257 0.0
C226 C 0.58791 0.68978 0.62188 0.0
C227 C 0.61386 0.63963 0.58817 0.0
C228 C 0.60139 0.64865 0.63633 0.0
C229 C 0.59004 0.68397 0.59756 0.0
C230 C 0.6163 0.55381 0.64017 0.0
C231 C 0.4449 0.59818 0.67658 0.0
H232 H 0.46038 0.57243 0.76331 0.0
H233 H 0.34818 0.49237 0.82385 0.0
H234 H 0.45501 0.61098 0.80243 0.0
H235 H 0.35311 0.45469 0.78472 0.0
H236 H 0.64155 0.56347 0.59472 0.0
H237 H 0.57122 0.72404 0.62959 0.0
H238 H 0.61628 0.63362 0.56949 0.0
H239 H 0.5944 0.65229 0.65492 0.0
Eu240 Eu 0.8572 0.19996 0.45347 0.0
Eu241 Eu 0.88201 0.24254 0.40061 0.0
C242 C 0.80628 0.30762 0.43384 0.0
C243 C 0.8204 0.16071 0.52075 0.0
C244 C 0.76743 0.16064 0.52659 0.0
C245 C 0.84047 0.14958 0.56209 0.0
C246 C 0.75117 0.15591 0.5498 0.0
C247 C 0.85683 0.15397 0.53866 0.0
C248 C 0.78735 0.15155 0.56798 0.0
C249 C 0.83654 0.17457 0.49661 0.0
O250 O 0.92526 0.29105 0.42677 0.0
O251 O 0.94097 0.22651 0.4522 0.0
C252 C 0.95607 0.26903 0.44193 0.0
O253 O 0.8729 0.1302 0.42925 0.0
O254 O 0.87081 0.27712 0.36625 0.0
O255 O 0.94711 0.25153 0.37641 0.0
O256 O 0.93226 0.17664 0.41071 0.0
C257 C 0.91021 0.13246 0.41341 0.0
O258 O 0.78761 0.17478 0.43332 0.0
O259 O 0.81482 0.18554 0.39496 0.0
O260 O 0.81821 0.29446 0.4124 0.0
O261 O 0.87905 0.159 0.48615 0.0
O262 O 0.80592 0.20178 0.4835 0.0
O263 O 0.82642 0.28319 0.45192 0.0
C264 C 0.9407 0.33071 0.35712 0.0
C265 C 0.94234 0.34945 0.33431 0.0
C266 C 0.95194 0.4174 0.37192 0.0
C267 C 0.94502 0.40229 0.33043 0.0
C268 C 0.94979 0.36446 0.37576 0.0
C269 C 0.94353 0.437 0.34942 0.0
C270 C 0.92045 0.27906 0.36179 0.0
C271 C 0.78102 0.16844 0.41078 0.0
H272 H 0.73834 0.16561 0.51322 0.0
H273 H 0.86944 0.14666 0.57562 0.0
H274 H 0.70996 0.15649 0.55358 0.0
H275 H 0.89794 0.15451 0.5347 0.0
H276 H 0.93672 0.32386 0.31964 0.0
H277 H 0.95263 0.4429 0.38684 0.0
H278 H 0.94059 0.41561 0.31268 0.0
H279 H 0.94988 0.35049 0.39349 0.0
Eu280 Eu 0.12224 0.58528 0.20491 0.0
Eu281 Eu 1.04072 0.56851 0.1626 0.0
C282 C 1.01027 0.54378 0.21073 0.0
C283 C 0.17787 0.57433 0.26836 0.0
C284 C 0.17849 0.52099 0.27216 0.0
C285 C 0.1886 0.58713 0.31039 0.0
C286 C 0.18432 0.50106 0.29485 0.0
C287 C 0.18284 0.60703 0.28774 0.0
C288 C 0.18974 0.53378 0.31432 0.0
C289 C 0.17184 0.59725 0.24465 0.0
O290 O 1.04 0.65502 0.16447 0.0
O291 O 0.0844 0.66368 0.19909 0.0
C292 C 0.05744 0.68358 0.18171 0.0
O293 O 0.16516 0.61726 0.17237 0.0
O294 O 1.00303 0.56734 0.1285 0.0
O295 O 0.96652 0.53038 0.15823 0.0
O296 O 0.1146 0.58159 0.14322 0.0
C297 C 0.1566 0.60544 0.15008 0.0
O298 O 0.15837 0.51929 0.18589 0.0
O299 O 0.08411 0.49257 0.16778 0.0
O300 O 1.00717 0.5841 0.19763 0.0
O301 O 0.19102 0.5728 0.22664 0.0
O302 O 0.12712 0.61818 0.24 0.0
O303 O 0.05773 0.52752 0.21362 0.0
C304 C 0.968 0.48491 0.12284 0.0
C305 C 0.96299 0.48537 0.09858 0.0
C306 C 0.99825 0.39623 0.121 0.0
C307 C 0.97867 0.44287 0.08553 0.0
C308 C 0.98279 0.43896 0.13407 0.0
C309 C 0.99964 0.39909 0.09656 0.0
C310 C 0.96837 0.53405 0.13557 0.0
C311 C 0.13307 0.4854 0.17356 0.0
H312 H 0.17452 0.4947 0.25764 0.0
H313 H 0.19138 0.61365 0.32487 0.0
H314 H 0.18516 0.45988 0.29715 0.0
H315 H 0.1821 0.64831 0.28536 0.0
H316 H 0.95157 0.52018 0.08957 0.0
H317 H 1.0133 0.36278 0.12996 0.0
H318 H 0.97949 0.44668 0.0667 0.0
H319 H 0.98662 0.43722 0.15288 0.0
Eu320 Eu 0.82631 0.77039 0.70569 0.0
Eu321 Eu 0.83746 0.69672 0.66081 0.0
C322 C 0.88028 0.66207 0.71335 0.0
C323 C 0.75556 0.85239 0.7474 0.0
C324 C 0.75541 0.86149 0.77138 0.0
C325 C 0.66356 0.83212 0.74926 0.0
C326 C 0.71086 0.85204 0.78448 0.0
C327 C 0.70864 0.84081 0.73615 0.0
C328 C 0.66539 0.83377 0.77375 0.0
C329 C 0.80532 0.84161 0.73585 0.0
O330 O 0.76099 0.67182 0.67685 0.0
O331 O 0.76803 0.70731 0.7137 0.0
C332 C 0.74548 0.6761 0.69876 0.0
O333 O 0.75712 0.77578 0.68316 0.0
O334 O 0.87437 0.68641 0.62637 0.0
O335 O 0.81285 0.63549 0.63703 0.0
O336 O 0.80717 0.77791 0.65179 0.0
C337 C 0.76552 0.79453 0.66272 0.0
O338 O 0.89878 0.79466 0.68536 0.0
O339 O 0.91948 0.71578 0.67101 0.0
O340 O 0.86239 0.64668 0.69266 0.0
O341 O 0.80765 0.85041 0.71339 0.0
O342 O 0.82567 0.79733 0.74159 0.0
O343 O 0.87941 0.71056 0.71952 0.0
C344 C 0.82371 0.64948 0.59561 0.0
C345 C 0.77112 0.6584 0.59057 0.0
C346 C 0.83962 0.63701 0.55367 0.0
C347 C 0.75315 0.65674 0.56739 0.0
C348 C 0.85759 0.63876 0.57684 0.0
C349 C 0.78712 0.64628 0.54849 0.0
C350 C 0.84404 0.64899 0.62009 0.0
C351 C 0.93386 0.7616 0.67783 0.0
H352 H 0.79114 0.87036 0.78035 0.0
H353 H 0.6288 0.81987 0.74039 0.0
H354 H 0.71415 0.85389 0.80329 0.0
H355 H 0.70777 0.83392 0.71751 0.0
H356 H 0.74373 0.66628 0.60455 0.0
H357 H 0.86705 0.62885 0.53976 0.0
H358 H 0.71227 0.66289 0.56433 0.0
H359 H 0.89825 0.63137 0.58011 0.0
Eu360 Eu 1.03867 0.06634 0.94834 0.0
Eu361 Eu 0.12653 0.08555 0.90878 0.0
C362 C 0.15184 0.10667 0.96435 0.0
C363 C 0.95892 0.97973 0.9848 0.0
C364 C 0.94804 0.97818 1.0087 0.0
C365 C 0.98744 0.89049 0.9863 0.0
C366 C 0.96016 0.93443 1.02157 0.0
C367 C 0.97583 0.93459 0.97342 0.0
C368 C 0.98308 0.89125 1.01071 0.0
C369 C 0.9622 1.02987 0.97299 0.0
O370 O 0.16281 1.02272 0.92978 0.0
O371 O 0.08682 0.9923 0.94549 0.0
C372 C 0.13718 0.98778 0.94156 0.0
O373 O 1.00934 0.07798 0.9123 0.0
O374 O 0.19674 0.06998 0.88772 0.0
O375 O 0.13738 0.12047 0.87445 0.0
O376 O 0.06697 1.02453 0.89879 0.0
C377 C 1.01816 1.03755 0.89976 0.0
O378 O 1.03586 0.15279 0.94654 0.0
O379 O 0.08606 0.16341 0.91339 0.0
O380 O 0.16514 0.1169 0.94227 0.0
O381 O 0.99612 0.06196 0.98148 0.0
O382 O 0.96391 1.02815 0.9503 0.0
O383 O 0.10789 0.08425 0.97002 0.0
C384 C 0.18354 0.07069 0.84623 0.0
C385 C 0.13944 0.05037 0.83529 0.0
C386 C 0.23439 0.0482 0.81145 0.0
C387 C 0.14274 1.0295 0.81268 0.0
C388 C 0.23101 0.06923 0.83405 0.0
C389 C 0.1902 1.02834 0.8003 0.0
C390 C 0.18013 0.09566 0.86967 0.0
C391 C 0.05574 0.18228 0.93005 0.0
H392 H 0.93482 1.01233 1.01779 0.0
H393 H 1.00423 0.85763 0.97742 0.0
H394 H 0.95671 0.93676 1.04039 0.0
H395 H 0.98421 0.93449 0.95487 0.0
H396 H 0.10222 0.05089 0.84416 0.0
H397 H 0.27193 0.04666 0.80292 0.0
H398 H 0.10789 1.0145 0.80481 0.0
H399 H 0.26566 0.0845 0.84201 0.0
Eu400 Eu 0.73606 0.34659 0.21553 0.0
Eu401 Eu 0.73275 0.38555 0.16146 0.0
C402 C 0.70179 0.4565 0.20488 0.0
C403 C 0.75939 0.3697 0.27663 0.0
C404 C 0.72748 0.39959 0.29132 0.0
C405 C 0.83231 0.42341 0.28679 0.0
C406 C 0.74794 0.44119 0.30367 0.0
C407 C 0.81199 0.38227 0.27452 0.0
C408 C 0.80087 0.45356 0.30168 0.0
C409 C 0.73629 0.33299 0.26012 0.0
O410 O 0.80514 0.42281 0.17596 0.0
O411 O 0.8188 0.37353 0.20879 0.0
C412 C 0.83414 0.40886 0.19379 0.0
O413 O 0.74805 0.27582 0.19411 0.0
O414 O 0.73957 0.44505 0.13446 0.0
O415 O 0.71788 0.36775 0.12476 0.0
O416 O 0.78792 0.3163 0.16361 0.0
C417 C 0.78051 0.27466 0.1764 0.0
O418 O 0.65109 0.34262 0.20543 0.0
O419 O 0.65991 0.33775 0.16578 0.0
O420 O 0.68301 0.43919 0.18501 0.0
O421 O 0.69615 0.35101 0.24908 0.0
O422 O 0.76825 0.30835 0.24617 0.0
O423 O 0.74005 0.43169 0.21412 0.0
C424 C 0.75783 0.41833 0.09486 0.0
C425 C 0.80609 0.443 0.09318 0.0
C426 C 0.7602 0.40465 1.05259 0.0
C427 C 0.83095 0.44852 0.07141 0.0
C428 C 0.73532 0.39921 0.07433 0.0
C429 C 0.80829 0.42964 1.05077 0.0
C430 C 0.72871 0.41385 0.11733 0.0
C431 C 0.63154 0.33287 0.18479 0.0
H432 H 0.68639 0.3916 0.29273 0.0
H433 H 0.87341 0.43048 0.28489 0.0
H434 H 0.72221 0.46341 0.31473 0.0
H435 H 0.83766 0.36103 0.26298 0.0
H436 H 0.82448 0.45833 0.10861 0.0
H437 H 0.74204 0.38867 1.03725 0.0
H438 H 0.86778 0.46826 0.07065 0.0
H439 H 0.6981 0.3801 0.07509 0.0
Eu440 Eu 0.55027 1.01717 0.45838 0.0
Eu441 Eu 0.4803 1.00649 0.41226 0.0
C442 C 0.43554 0.97242 0.46443 0.0
C443 C 0.63966 0.97378 0.50423 0.0
C444 C 0.63755 0.924 0.49482 0.0
C445 C 0.6392 0.9376 0.54304 0.0
C446 C 0.6315 0.8818 0.50952 0.0
C447 C 0.64462 0.97998 0.52835 0.0
C448 C 0.62803 0.88887 0.53367 0.0
C449 C 0.62148 1.01722 0.4902 0.0
O450 O 0.44873 0.07765 0.43022 0.0
O451 O 0.4952 0.08394 0.4644 0.0
C452 C 0.45849 0.10014 0.45029 0.0
O453 O 0.5718 0.0783 0.4326 0.0
O454 O 0.43096 0.97927 0.38289 0.0
O455 O 0.47191 0.05323 0.38147 0.0
O456 O 0.56661 1.02031 0.40469 0.0
C457 C 0.5876 0.06269 0.41234 0.0
O458 O 0.56264 0.93467 0.4446 0.0
O459 O 0.5034 0.92347 0.41513 0.0
O460 O 0.42393 0.98764 0.44285 0.0
O461 O 0.63187 1.01488 0.46788 0.0
O462 O 0.5733 1.03029 0.49438 0.0
O463 O 0.48299 0.97321 0.47244 0.0
C464 C 0.42159 1.03374 0.34728 0.0
C465 C 0.41905 0.08563 0.34061 0.0
C466 C 0.40283 1.00986 0.30693 0.0
C467 C 0.40989 0.09946 0.31743 0.0
C468 C 0.41199 0.99591 0.33034 0.0
C469 C 0.40313 0.06189 0.30012 0.0
C470 C 0.44236 1.02046 0.3707 0.0
C471 C 0.53871 0.90508 0.42927 0.0
H472 H 0.63447 0.91807 0.47619 0.0
H473 H 0.63654 0.94443 0.56167 0.0
H474 H 0.62371 0.84488 0.50191 0.0
H475 H 0.64632 1.01806 0.53593 0.0
H476 H 0.42608 0.1158 0.3532 0.0
H477 H 0.39787 0.97996 0.29402 0.0
H478 H 0.40931 0.13987 0.31293 0.0
H479 H 0.41433 0.9556 0.3349 0.0
Eu480 Eu 0.27499 0.39201 0.45304 0.0
Eu481 Eu 0.27349 0.31509 0.40913 0.0
C482 C 0.34213 0.28756 0.45075 0.0
C483 C 0.29199 0.43848 0.51757 0.0
C484 C 0.33873 0.41499 0.52444 0.0
C485 C 0.27555 0.46142 0.55827 0.0
C486 C 0.35413 0.41568 0.54798 0.0
C487 C 0.26018 0.46067 0.53484 0.0
C488 C 0.32333 0.4401 0.5651 0.0
C489 C 0.277 0.44357 0.49259 0.0
O490 O 0.20963 0.29519 0.43531 0.0
O491 O 0.19054 0.37579 0.44661 0.0
C492 C 0.17511 0.32911 0.44225 0.0
O493 O 0.25199 0.44232 0.42136 0.0
O494 O 0.26416 0.23399 0.40065 0.0
O495 O 0.26988 0.29048 0.37286 0.0
O496 O 0.21928 0.37777 0.39863 0.0
C497 C 0.22676 0.4267 0.4025 0.0
O498 O 0.34544 0.41695 0.43276 0.0
O499 O 0.33865 0.37001 0.39858 0.0
O500 O 0.34544 0.29627 0.42849 0.0
O501 O 0.23697 0.41767 0.48547 0.0
O502 O 0.3139 0.44454 0.47694 0.0
O503 O 0.30591 0.31161 0.46293 0.0
C504 C 0.20565 0.22831 0.36946 0.0
C505 C 0.16001 0.24428 0.38097 0.0
C506 C 0.15569 0.20996 0.33502 0.0
C507 C 0.11301 0.24632 0.36901 0.0
C508 C 0.20254 0.20799 0.347 0.0
C509 C 0.11136 0.23318 0.34526 0.0
C510 C 0.25625 0.24382 0.3786 0.0
C511 C 0.3608 0.40606 0.41137 0.0
H512 H 0.36406 0.3974 0.51156 0.0
H513 H 0.25061 0.47999 0.57103 0.0
H514 H 0.39125 0.39914 0.55261 0.0
H515 H 0.22392 0.47888 0.53008 0.0
H516 H 0.16157 0.25998 0.39841 0.0
H517 H 0.15659 0.19948 0.31675 0.0
H518 H 0.07967 0.26382 0.37748 0.0
H519 H 0.23727 0.19552 0.33786 0.0
Eu520 Eu 0.93868 0.99284 0.20908 0.0
Eu521 Eu 1.00522 1.01287 0.16183 0.0
C522 C 1.04088 0.06087 0.2072 0.0
C523 C 0.90113 0.99895 0.27492 0.0
C524 C 0.92487 0.04616 0.27988 0.0
C525 C 0.88631 0.98646 0.31672 0.0
C526 C 0.92907 0.06342 0.30306 0.0
C527 C 0.88203 0.96933 0.29357 0.0
C528 C 0.91008 1.03367 0.32187 0.0
C529 C 0.89623 0.97952 0.25063 0.0
O530 O 1.03376 0.93928 0.1794 0.0
O531 O 0.95796 0.91348 0.19604 0.0
C532 C 1.00362 0.90245 0.18731 0.0
O533 O 0.8833 0.97647 0.17835 0.0
O534 O 0.0851 1.0186 0.14951 0.0
O535 O 1.02164 1.02611 0.12498 0.0
O536 O 0.94461 0.95829 0.15014 0.0
C537 C 0.89638 0.95906 0.1573 0.0
O538 O 0.91726 0.07358 0.19854 0.0
O539 O 0.94159 0.07382 0.15969 0.0
O540 O 1.0235 0.07473 0.18702 0.0
O541 O 0.93473 0.95219 0.24254 0.0
O542 O 0.8782 1.01098 0.23489 0.0
O543 O 1.02174 1.01914 0.21678 0.0
C544 C 0.09235 0.97593 0.11356 0.0
C545 C 0.08821 0.92519 0.12181 0.0
C546 C 0.10941 0.94361 0.07481 0.0
C547 C 0.09139 0.88397 0.1063 0.0
C548 C 0.10616 0.98473 0.09031 0.0
C549 C 0.09838 0.89316 0.08237 0.0
C550 C 0.07136 1.01824 0.12761 0.0
C551 C 0.91508 0.0935 0.17741 0.0
H552 H 0.93992 0.0698 0.26584 0.0
H553 H 0.87131 0.96247 0.33064 0.0
H554 H 0.94643 0.10057 0.30618 0.0
H555 H 0.86369 0.93272 0.29022 0.0
H556 H 0.07771 0.91757 0.13978 0.0
H557 H 0.11401 0.95236 1.05644 0.0
H558 H 0.08289 0.84566 0.11257 0.0
H559 H 0.10935 1.02357 0.08365 0.0
Eu560 Eu 0.33407 0.70839 0.95458 0.0
Eu561 Eu 0.32997 0.78085 0.90949 0.0
C562 C 0.25826 0.80489 0.95058 0.0
C563 C 0.31665 0.65774 1.019 0.0
C564 C 0.27323 0.68693 1.02595 0.0
C565 C 0.31865 0.61913 1.0578 0.0
C566 C 0.25233 0.68168 1.04864 0.0
C567 C 0.33944 0.62443 1.03526 0.0
C568 C 0.2743 0.64695 0.06472 0.0
C569 C 0.33942 0.66078 0.99513 0.0
O570 O 0.39927 0.80246 0.93217 0.0
O571 O 0.41824 0.72321 0.9453 0.0
C572 C 0.43403 0.76911 0.93938 0.0
O573 O 0.3557 0.65635 0.92332 0.0
O574 O 0.32576 0.86302 0.90256 0.0
O575 O 0.32965 0.80883 0.87369 0.0
O576 O 0.38045 0.71729 0.89617 0.0
C577 C 0.37658 0.66927 0.90288 0.0
O578 O 0.2587 0.68422 0.93814 0.0
O579 O 0.2667 0.72206 0.90164 0.0
O580 O 0.25624 0.79209 0.92886 0.0
O581 O 0.36583 0.70182 0.98981 0.0
O582 O 0.31163 0.6448 0.97765 0.0
O583 O 0.29722 0.78729 0.96302 0.0
C584 C 0.37695 0.8846 0.86999 0.0
C585 C 0.42643 0.8788 0.8798 0.0
C586 C 0.4163 0.91126 0.83372 0.0
C587 C 0.47059 0.88465 0.86582 0.0
C588 C 0.37223 0.90565 0.84768 0.0
C589 C 0.46469 0.89359 0.84182 0.0
C590 C 0.33293 0.85695 0.88014 0.0
C591 C 0.24345 0.69018 0.91637 0.0
H592 H 0.25513 0.71317 1.01377 0.0
H593 H 0.33695 0.59257 0.06978 0.0
H594 H 0.21802 0.70351 1.05338 0.0
H595 H 0.37322 0.60188 1.03042 0.0
H596 H 0.4308 0.86325 0.89717 0.0
H597 H 0.41065 0.91987 0.8154 0.0
H598 H 0.50771 0.87236 0.87264 0.0
H599 H 0.33434 0.91129 0.84001 0.0
Eu600 Eu 0.63578 0.08337 0.70622 0.0
Eu601 Eu 0.56718 0.06865 0.65971 0.0
C602 C 0.53859 1.01123 0.70438 0.0
C603 C 0.67764 0.06753 0.7713 0.0
C604 C 0.6813 1.01422 0.77491 0.0
C605 C 0.67384 0.0793 0.81369 0.0
C606 C 0.68176 0.99387 0.79763 0.0
C607 C 0.67352 0.0997 0.79096 0.0
C608 C 0.67871 1.02606 0.81741 0.0
C609 C 0.67981 0.0907 0.74747 0.0
O610 O 0.54198 0.14545 0.67545 0.0
O611 O 0.61485 0.16488 0.6962 0.0
C612 C 0.57201 0.17939 0.68576 0.0
O613 O 0.6895 0.10749 0.67572 0.0
O614 O 0.54503 0.06047 0.62331 0.0
O615 O 0.48676 0.05288 0.65076 0.0
O616 O 0.62923 0.12027 0.64646 0.0
C617 C 0.67671 0.12337 0.65444 0.0
O618 O 0.66113 1.00559 0.69193 0.0
O619 O 0.63286 1.01195 0.65389 0.0
O620 O 0.55725 1.00218 0.68385 0.0
O621 O 0.64018 0.11828 0.741 0.0
O622 O 0.69818 0.06296 0.73032 0.0
O623 O 0.55422 0.05318 0.71473 0.0
C624 C 0.48456 0.99454 0.61926 0.0
C625 C 0.47452 0.99053 0.59545 0.0
C626 C 0.49635 0.90184 0.62134 0.0
C627 C 0.47932 0.94324 0.58433 0.0
C628 C 0.4922 0.94956 0.63247 0.0
C629 C 0.49439 0.89886 0.59686 0.0
C630 C 0.49827 0.04503 0.62878 0.0
C631 C 0.66152 0.98986 0.67002 0.0
H632 H 0.68438 0.9882 0.76022 0.0
H633 H 0.66999 0.10533 0.82832 0.0
H634 H 0.68559 0.95277 0.79974 0.0
H635 H 0.67042 0.14091 0.78873 0.0
H636 H 0.46825 1.02469 0.58501 0.0
H637 H 0.50598 0.86838 0.63167 0.0
H638 H 0.47702 0.94321 0.56547 0.0
H639 H 0.49936 0.95168 0.65104 0.0
C640 C 0.07571 0.34263 0.31098 0.0
C641 C 0.08562 0.31893 0.28931 0.0
C642 C 0.06995 0.31254 0.33112 0.0
C643 C 0.0732 0.25857 0.32958 0.0
H644 H 0.0828 0.38334 0.31311 0.0
H645 H 0.07344 0.33171 0.34781 0.0
S646 S 0.06007 0.18201 0.27587 0.0
N647 N 0.07145 0.24104 0.26659 0.0
N648 N 0.05692 0.1855 0.30461 0.0
C649 C 0.06384 0.23673 0.30767 0.0
C650 C 0.07162 0.26686 0.28718 0.0
C651 C 0.5733 0.72336 0.55904 0.0
C652 C 0.55613 0.71469 0.58202 0.0
C653 C 0.53902 0.71821 0.54042 0.0
C654 C 0.4865 0.70635 0.54445 0.0
H655 H 0.61447 0.72466 0.55523 0.0
H656 H 0.5557 0.71421 0.52315 0.0
S657 S 0.41889 0.70563 0.60132 0.0
N658 N 0.48077 0.7119 0.60788 0.0
N659 N 0.41624 0.70465 0.57256 0.0
C660 C 0.46718 0.71096 0.56719 0.0
C661 C 0.5022 0.71496 0.58622 0.0
C662 C 0.50065 0.85321 0.78284 0.0
C663 C 0.48345 0.80198 0.78454 0.0
C664 C 0.50619 0.88329 0.80293 0.0
C665 C 0.49514 0.86241 0.82503 0.0
H666 H 0.5006 0.87259 0.76613 0.0
H667 H 0.51039 0.92444 0.80091 0.0
S668 S 0.47116 0.72519 0.83848 0.0
N669 N 0.47254 0.72802 0.80975 0.0
N670 N 0.48365 0.78384 0.84756 0.0
C671 C 0.49051 0.80861 0.82687 0.0
C672 C 0.4847 0.77827 0.80644 0.0
C673 C 0.05426 0.35084 1.04156 0.0
C674 C 0.10699 0.36098 1.0458 0.0
C675 C 1.018 0.35195 0.05981 0.0
C676 C 1.03356 0.3646 0.08254 0.0
H677 H 1.03951 0.35085 1.02394 0.0
H678 H 0.97721 0.35167 1.05546 0.0
S679 S 0.16927 0.36826 0.10352 0.0
N680 N 0.17465 0.3629 0.07491 0.0
N681 N 0.10647 0.36811 0.10934 0.0
C682 C 0.08692 0.36211 0.08756 0.0
C683 C 0.12386 0.35959 0.06899 0.0
C684 C 0.6097 0.79038 0.82973 0.0
C685 C 0.60829 0.73701 0.82576 0.0
C686 C 0.61795 0.8245 0.81129 0.0
C687 C 0.62683 0.80626 0.78856 0.0
H688 H 0.61179 0.80565 0.84728 0.0
H689 H 0.62514 0.86432 0.81537 0.0
S690 S 0.60326 0.67284 0.7685 0.0
N691 N 0.59645 0.67002 0.7971 0.0
N692 N 0.61611 0.73343 0.76227 0.0
C693 C 0.61402 0.75465 0.78388 0.0
C694 C 0.60369 0.72015 0.80268 0.0
C695 C 0.87377 0.51312 0.31025 0.0
C696 C 0.82657 0.49077 0.31763 0.0
C697 C 0.91738 0.51047 0.32477 0.0
C698 C 0.91322 0.48542 0.34649 0.0
H699 H 0.87988 0.52218 0.29197 0.0
H700 H 0.95524 0.51619 0.3169 0.0
S701 S 0.79096 0.4654 0.37932 0.0
N702 N 0.77295 0.47426 0.35202 0.0
N703 N 0.85447 0.47282 0.37943 0.0
C704 C 0.86336 0.48455 0.35664 0.0
C705 C 0.81929 0.48533 0.34183 0.0
C706 C 1.02519 0.84323 0.06715 0.0
C707 C 0.07792 0.85645 0.06499 0.0
C708 C 0.99341 0.84221 1.04746 0.0
C709 C 1.01375 0.8556 1.02545 0.0
H710 H 1.00636 0.84319 0.08409 0.0
H711 H 0.9518 0.8408 1.05013 0.0
S712 S 0.15343 0.86472 1.01025 0.0
N713 N 0.1521 0.86043 1.03898 0.0
N714 N 0.09247 0.86111 1.00178 0.0
C715 C 0.06808 0.85467 1.02266 0.0
C716 C 0.10041 0.85446 1.04271 0.0
C717 C 0.54379 0.8493 0.54272 0.0
C718 C 0.59678 0.85341 0.54812 0.0
C719 C 0.50638 0.84839 0.56054 0.0
C720 C 0.52139 0.85681 0.5838 0.0
H721 H 0.53054 0.85608 0.52512 0.0
H722 H 0.46615 0.85305 0.55568 0.0
S723 S 0.65474 0.83799 0.60619 0.0
N724 N 0.66187 0.8401 0.5776 0.0
N725 N 0.59189 0.84354 0.61139 0.0
C726 C 0.57356 0.84599 0.58928 0.0
C727 C 0.61151 0.84409 0.57112 0.0
C728 C 0.20828 0.16391 0.98965 0.0
C729 C 0.18792 0.1152 0.9843 0.0
C730 C 0.23381 0.173 1.0111 0.0
C731 C 0.24067 0.13351 1.02778 0.0
H732 H 0.2024 0.19565 0.97772 0.0
H733 H 0.24792 0.21126 1.01475 0.0
S734 S 0.19478 0.99923 1.02199 0.0
N735 N 0.17656 1.02729 0.99755 0.0
N736 N 0.22482 0.04394 1.03709 0.0
C737 C 0.22146 0.08456 1.02225 0.0
C738 C 0.1951 0.07557 1.00076 0.0
C739 C 0.64297 0.48771 0.26237 0.0
C740 C 0.66548 0.53574 0.26723 0.0
C741 C 0.64656 0.46551 0.23999 0.0
C742 C 0.67323 0.49 0.22155 0.0
H743 H 0.62595 0.4652 0.27634 0.0
H744 H 0.63302 0.42653 0.23778 0.0
S745 S 0.72539 0.62224 0.22323 0.0
N746 N 0.70474 0.6119 0.25017 0.0
N747 N 0.71331 0.56904 0.20854 0.0
C748 C 0.69039 0.54034 0.22546 0.0
C749 C 0.68626 0.56334 0.24817 0.0
C750 C 0.3395 0.99191 0.51409 0.0
C751 C 0.34268 0.94516 0.52658 0.0
C752 C 0.36534 0.99894 0.49249 0.0
C753 C 0.39516 0.95945 0.48225 0.0
H754 H 0.31905 1.02437 0.52162 0.0
H755 H 0.3649 1.03671 0.48459 0.0
S756 S 0.41116 0.82782 0.50594 0.0
N757 N 0.37406 0.85703 0.52544 0.0
N758 N 0.4235 0.87093 0.48549 0.0
C759 C 0.39664 0.91192 0.49393 0.0
C760 C 0.37023 0.90459 0.51583 0.0
C761 C 0.92892 0.64432 0.75017 0.0
C762 C 0.89646 0.62568 0.73232 0.0
C763 C 0.93363 0.61908 0.77176 0.0
C764 C 0.90606 0.57378 0.77673 0.0
H765 H 0.94875 0.68064 0.74797 0.0
H766 H 0.95677 0.63708 0.78515 0.0
S767 S 0.82365 0.50322 0.73462 0.0
N768 N 0.84205 0.55496 0.72008 0.0
N769 N 0.8508 0.5073 0.76059 0.0
C770 C 0.87681 0.55232 0.7584 0.0
C771 C 0.87229 0.57807 0.73623 0.0
C772 C 0.86452 0.90294 0.12536 0.0
C773 C 0.85775 0.94754 0.13894 0.0
C774 C 0.84277 0.89839 0.10301 0.0
C775 C 0.81355 0.93854 0.09306 0.0
H776 H 0.88946 0.8724 0.13152 0.0
H777 H 0.85061 0.86378 0.0931 0.0
S778 S 0.78349 0.06335 0.1217 0.0
N779 N 0.81828 1.03197 0.1412 0.0
N780 N 0.77774 1.02418 0.0992 0.0
C781 C 0.80425 0.98245 0.10699 0.0
C782 C 0.82621 0.98675 0.12988 0.0
C783 C 0.34235 0.61136 0.87217 0.0
C784 C 0.38539 0.6303 0.88435 0.0
C785 C 0.3482 0.58557 0.85073 0.0
C786 C 0.39742 0.57787 0.84042 0.0
H787 H 0.30353 0.61929 0.87854 0.0
H788 H 0.31356 0.57373 0.84164 0.0
S789 S 0.52311 0.61452 0.86688 0.0
N790 N 0.47911 0.63635 0.88553 0.0
N791 N 0.49055 0.58683 0.84559 0.0
C792 C 0.44103 0.59437 0.85309 0.0
C793 C 0.43491 0.62088 0.87491 0.0
C794 C 0.72883 0.18474 0.5998 0.0
C795 C 0.76839 0.15054 0.59277 0.0
C796 C 0.70312 0.17914 0.6213 0.0
C797 C 0.71618 0.13951 0.63693 0.0
H798 H 0.71573 0.21464 0.58806 0.0
H799 H 0.67032 0.204 0.62505 0.0
S800 S 0.82126 0.04377 0.62842 0.0
N801 N 0.82262 0.07844 0.60427 0.0
N802 N 0.77487 0.06877 0.64494 0.0
C803 C 0.75869 0.10794 0.63113 0.0
C804 C 0.78466 0.11324 0.609 0.0
C805 C 0.17233 0.44629 0.3675 0.0
C806 C 0.2115 0.46204 0.38303 0.0
C807 C 0.16472 0.47055 0.34585 0.0
C808 C 0.19588 0.51192 0.33852 0.0
H809 H 0.14847 0.4133 0.37168 0.0
H810 H 0.13475 0.45595 0.33451 0.0
S811 S 0.30264 0.56971 0.37286 0.0
N812 N 0.28037 0.52333 0.38982 0.0
N813 N 0.26665 0.56871 0.34913 0.0
C814 C 0.23369 0.52969 0.3543 0.0
C815 C 0.24128 0.50494 0.37651 0.0
C816 C 0.78204 0.60429 0.50821 0.0
C817 C 0.76767 0.6445 0.5236 0.0
C818 C 0.75955 0.59923 0.48579 0.0
C819 C 0.72213 0.63446 0.47771 0.0
H820 H 0.80872 0.57481 0.514 0.0
H821 H 0.76875 0.56551 0.47548 0.0
S822 S 0.67613 0.75004 0.50955 0.0
N823 N 0.71764 0.72316 0.52764 0.0
N824 N 0.67514 0.71308 0.48618 0.0
C825 C 0.71002 0.67636 0.49232 0.0
C826 C 0.73272 0.68152 0.51501 0.0
C827 C 0.16981 0.95579 0.77268 0.0
C828 C 0.19398 1.00345 0.77656 0.0
C829 C 0.17663 0.92877 0.75162 0.0
C830 C 0.20723 0.94828 0.73319 0.0
H831 H 0.14744 0.93779 0.78648 0.0
H832 H 0.15958 0.89094 0.75016 0.0
S833 S 0.27574 0.07308 0.73327 0.0
N834 N 0.24722 0.07062 0.75917 0.0
N835 N 0.26 1.01939 0.71974 0.0
C836 C 0.22954 0.99693 0.73623 0.0
C837 C 0.22305 1.02447 0.75785 0.0
C838 C 0.88917 0.42358 1.02628 0.0
C839 C 0.83596 0.43492 1.02772 0.0
C840 C 0.91768 0.43196 1.00572 0.0
C841 C 0.8946 0.45241 0.98542 0.0
H842 H 0.90928 0.40881 1.04139 0.0
H843 H 0.9589 0.42377 1.00605 0.0
S844 S 0.7553 0.48472 0.97912 0.0
N845 N 0.76028 0.4647 1.00639 0.0
N846 N 0.8141 0.48033 0.96764 0.0
C847 C 0.84079 0.4613 0.98609 0.0
C848 C 0.8115 0.4527 1.00722 0.0
C849 C 0.42538 0.13878 0.24448 0.0
C850 C 0.38253 0.12621 0.23059 0.0
C851 C 0.43351 0.11512 0.26618 0.0
C852 C 0.39872 0.07829 0.27514 0.0
H853 H 0.45098 0.16969 0.23924 0.0
H854 H 0.46594 0.12777 0.2766 0.0
S855 S 0.28209 1.0295 0.24493 0.0
N856 N 0.3067 0.07215 0.22662 0.0
N857 N 0.32149 1.02796 0.26754 0.0
C858 C 0.35762 0.0628 0.26073 0.0
C859 C 0.34963 0.08673 0.23844 0.0
C860 C 0.38635 0.41574 0.6248 0.0
C861 C 0.39086 0.46568 0.63399 0.0
C862 C 0.36316 0.40715 0.60282 0.0
C863 C 0.34326 0.44814 0.58937 0.0
H864 H 0.4036 0.38359 0.63394 0.0
H865 H 0.36202 0.36837 0.59602 0.0
S866 S 0.34675 0.58597 0.60553 0.0
N867 N 0.37436 0.55626 0.62768 0.0
N868 N 0.33003 0.54035 0.58712 0.0
C869 C 0.34633 0.49786 0.5988 0.0
C870 C 0.37035 0.50652 0.62086 0.0
C871 C 0.86988 0.04952 0.3617 0.0
C872 C 0.91333 0.05248 0.34666 0.0
C873 C 0.87033 0.07131 0.38423 0.0
C874 C 0.91416 0.09681 0.39289 0.0
H875 H 0.83418 1.03254 0.3556 0.0
H876 H 0.83489 0.07116 0.39414 0.0
S877 S 1.04059 0.10923 0.36186 0.0
N878 N 1.00348 0.07842 0.34318 0.0
N879 N 1.00411 0.11933 0.38522 0.0
C880 C 0.95892 0.09715 0.37855 0.0
C881 C 0.95851 0.07522 0.35559 0.0
C882 C 0.20998 0.66598 0.12503 0.0
C883 C 0.19523 0.61568 0.13116 0.0
C884 C 0.23611 0.67617 0.10368 0.0
C885 C 0.24899 0.63634 0.08791 0.0
H886 H 0.19885 0.69787 0.13613 0.0
H887 H 0.24558 0.71552 0.09933 0.0
S888 S 0.21877 0.49823 0.09591 0.0
N889 N 0.19533 0.52602 0.11963 0.0
N890 N 0.24484 0.54477 0.08025 0.0
C891 C 0.23557 0.58592 0.09428 0.0
C892 C 0.20864 0.57575 0.11567 0.0
C893 C 0.65433 0.95789 0.84673 0.0
C894 C 0.68134 1.00342 0.84158 0.0
C895 C 0.66203 0.93112 0.86774 0.0
C896 C 0.69635 0.94911 0.88496 0.0
H897 H 0.62792 0.94203 0.83408 0.0
H898 H 0.64234 0.89476 0.87007 0.0
S899 S 0.77014 0.07095 0.88205 0.0
N900 N 0.7402 0.06806 0.8567 0.0
N901 N 0.75206 1.01927 0.89668 0.0
C902 C 0.71976 0.99711 0.88107 0.0
C903 C 0.71292 1.02388 0.85933 0.0
C904 C 0.48656 0.31941 0.19881 0.0
C905 C 0.46767 0.28887 0.18045 0.0
C906 C 0.5394 0.33296 0.20017 0.0
C907 C 0.57564 0.31758 0.18295 0.0
H908 H 0.46057 0.33195 0.21262 0.0
H909 H 0.55186 0.35606 0.2148 0.0
S910 S 0.546 0.23864 0.13077 0.0
N911 N 0.48972 0.24424 0.14446 0.0
N912 N 0.58812 0.27071 0.14666 0.0
C913 C 0.55701 0.28792 0.16424 0.0
C914 C 0.50344 0.27329 0.16311 0.0
C915 C 0.5727 0.76938 0.40706 0.0
C916 C 0.56996 0.73878 0.42741 0.0
C917 C 0.56199 0.8228 0.40761 0.0
C918 C 0.55039 0.84843 0.4287 0.0
H919 H 0.58286 0.75178 0.39052 0.0
H920 H 0.56383 0.84438 0.39145 0.0
S921 S 0.53936 0.78662 0.48663 0.0
N922 N 0.55407 0.73853 0.46906 0.0
N923 N 0.53673 0.8387 0.47029 0.0
C924 C 0.5482 0.81837 0.44909 0.0
C925 C 0.55725 0.7638 0.4484 0.0
C926 C 1.00873 0.82383 0.67341 0.0
C927 C 0.99042 0.77419 0.67866 0.0
C928 C 0.06223 0.83544 0.67393 0.0
C929 C 0.09948 0.79834 0.68045 0.0
H930 H 0.98161 0.85374 0.66852 0.0
H931 H 0.0744 0.87406 0.66958 0.0
S932 S 0.07144 0.66309 0.69672 0.0
N933 N 1.01401 0.6879 0.69086 0.0
N934 N 0.11351 0.70991 0.69253 0.0
C935 C 0.0814 0.74883 0.68609 0.0
C936 C 1.02727 0.73674 0.68501 0.0
C937 C 1.04255 0.32287 0.90996 0.0
C938 C 1.0247 0.34854 0.93011 0.0
C939 C 0.05246 0.26941 0.91006 0.0
C940 C 0.04387 0.23898 0.93017 0.0
H941 H 0.05023 0.34443 0.89414 0.0
H942 H 0.06696 0.25183 0.89417 0.0
S943 S 0.99343 0.28722 0.98704 0.0
N944 N 0.99676 0.33897 0.97046 0.0
N945 N 1.01412 0.23931 0.97057 0.0
C946 C 1.0246 0.26422 0.95023 0.0
C947 C 1.0154 0.31862 0.95022 0.0
C948 C 0.58283 0.75561 0.94113 0.0
C949 C 0.60079 0.80674 0.94134 0.0
C950 C 0.52926 0.74394 0.94092 0.0
C951 C 0.49083 0.78277 0.94053 0.0
H952 H 0.61039 0.72414 0.94121 0.0
H953 H 0.51795 0.70393 0.94067 0.0
S954 S 0.51661 0.92305 0.94026 0.0
N955 N 0.57487 0.89667 0.94076 0.0
N956 N 0.47528 0.87481 0.94029 0.0
C957 C 0.50826 0.83403 0.94059 0.0
C958 C 0.56272 0.84593 0.94103 0.0
C959 C 0.55547 0.32002 0.70439 0.0
C960 C 0.53823 0.3448 0.68395 0.0
C961 C 0.56634 0.26682 0.70482 0.0
C962 C 0.55851 0.23552 0.68509 0.0
H963 H 0.56146 0.34214 0.72015 0.0
H964 H 0.58048 0.24993 0.72086 0.0
S965 S 0.51264 0.28092 0.62733 0.0
N966 N 0.51398 0.33355 0.64341 0.0
N967 N 0.53204 0.23367 0.64449 0.0
C968 C 0.54043 0.25965 0.66465 0.0
C969 C 0.53095 0.31413 0.66401 0.0
C970 C 0.10354 0.26429 0.44773 0.0
C971 C 0.11887 0.31542 0.44375 0.0
C972 C 0.05082 0.25022 0.44812 0.0
C973 C 1.01108 0.28641 0.44401 0.0
H974 H 0.13254 0.23474 0.45045 0.0
H975 H 1.04129 0.21018 0.45088 0.0
S976 S 1.0302 0.42531 0.4325 0.0
N977 N 0.08954 0.40251 0.43574 0.0
N978 N 0.99102 0.37588 0.4361 0.0
C979 C 1.02584 0.33769 0.44012 0.0
C980 C 0.07947 0.35221 0.44011 0.0
C981 C 0.05691 0.7697 0.20224 0.0
C982 C 0.04511 0.74009 0.18228 0.0
C983 C 0.04427 0.82236 0.20366 0.0
C984 C 1.01981 0.84783 0.18511 0.0
H985 H 0.0754 0.752 0.21714 0.0
H986 H 0.05323 0.84316 0.21949 0.0
S987 S 0.98107 0.7899 0.12887 0.0
N988 N 1.00761 0.74186 0.14338 0.0
N989 N 0.98484 0.84045 0.14615 0.0
C990 C 1.00849 0.81939 0.16499 0.0
C991 C 1.02089 0.76572 0.16354 0.0
C992 C 0.16 0.34346 0.16358 0.0
C993 C 0.21415 0.34192 0.1601 0.0
C994 C 0.13337 0.39024 0.16651 0.0
C995 C 0.16029 0.43706 0.16703 0.0
H996 H 0.13841 0.30799 0.16514 0.0
H997 H 0.09196 0.38941 0.16979 0.0
S998 S 0.30188 0.45405 0.15769 0.0
N999 N 0.29313 0.3914 0.15591 0.0
N1000 N 0.2439 0.47911 0.16251 0.0
C1001 C 0.21419 0.43612 0.16272 0.0
C1002 C 0.24093 0.38861 0.15897 0.0
C1003 C 0.40557 0.49024 0.4062 0.0
C1004 C 0.40487 0.43686 0.40208 0.0
C1005 C 0.45078 0.51943 0.40285 0.0
C1006 C 0.49757 0.49613 0.39589 0.0
H1007 H 0.37177 0.50909 0.41358 0.0
H1008 H 0.4504 0.55936 0.40818 0.0
S1009 S 0.51607 0.35844 0.38148 0.0
N1010 N 0.4541 0.36282 0.38877 0.0
N1011 N 0.5398 0.4171 0.38367 0.0
C1012 C 0.49664 0.44347 0.39031 0.0
C1013 C 0.45015 0.41395 0.39312 0.0
C1014 C 0.32579 0.67687 0.66044 0.0
C1015 C 0.34442 0.72713 0.65709 0.0
C1016 C 0.35877 0.63631 0.66665 0.0
C1017 C 0.41265 0.64303 0.66889 0.0
H1018 H 0.28464 0.66908 0.65937 0.0
H1019 H 0.34148 0.59908 0.66983 0.0
S1020 S 0.48221 0.76617 0.66089 0.0
N1021 N 0.42095 0.78127 0.65623 0.0
N1022 N 0.48356 0.70387 0.66636 0.0
C1023 C 0.4325 0.69247 0.6645 0.0
C1024 C 0.39837 0.73462 0.6589 0.0
C1025 C 0.16433 0.57131 0.90464 0.0
C1026 C 0.11326 0.59014 0.90235 0.0
C1027 C 0.20644 0.60437 0.90794 0.0
C1028 C 0.19974 0.65785 0.90852 0.0
H1029 H 0.17162 0.53033 0.90518 0.0
H1030 H 0.24439 0.58778 0.91099 0.0
S1031 S 0.07541 0.72787 0.90207 0.0
N1032 N 0.05914 0.66672 0.89995 0.0
N1033 N 0.13896 0.72878 0.90557 0.0
C1034 C 0.14969 0.67771 0.90494 0.0
C1035 C 0.10633 0.6439 0.90188 0.0
C1036 C 0.92014 0.7409 0.9572 0.0
C1037 C 0.8667 0.73997 0.96277 0.0
C1038 C 0.94941 0.69533 0.95484 0.0
C1039 C 0.92601 0.64695 0.95743 0.0
H1040 H 0.9385 0.77702 0.95273 0.0
H1041 H 0.98938 0.69802 0.94904 0.0
S1042 S 0.78927 0.62358 0.97513 0.0
N1043 N 0.79338 0.68674 0.97334 0.0
N1044 N 0.84767 0.60122 0.96874 0.0
C1045 C 0.87373 0.64571 0.96489 0.0
C1046 C 0.84428 0.69215 0.96765 0.0
C1047 C 0.70692 0.59223 0.71012 0.0
C1048 C 0.70059 0.64509 0.70647 0.0
C1049 C 0.66429 0.5604 0.71473 0.0
C1050 C 0.61327 0.57995 0.71528 0.0
H1051 H 0.74495 0.57501 0.70857 0.0
H1052 H 0.67112 0.51952 0.7166 0.0
S1053 S 0.5763 0.71658 0.70678 0.0
N1054 N 0.64015 0.7164 0.70434 0.0
N1055 N 0.55934 0.65652 0.712 0.0
C1056 C 0.60656 0.63329 0.7122 0.0
C1057 C 0.65037 0.66584 0.70794 0.0
C1058 C 0.736 0.36325 0.41769 0.0
C1059 C 0.76842 0.35114 0.43665 0.0
C1060 C 0.70255 0.4057 0.41811 0.0
C1061 C 0.6994 0.43859 0.43752 0.0
H1062 H 0.73688 0.34013 0.40197 0.0
H1063 H 0.67964 0.41342 0.4027 0.0
S1064 S 0.77339 0.42346 0.49243 0.0
N1065 N 0.79321 0.37478 0.47609 0.0
N1066 N 0.73003 0.45504 0.47682 0.0
C1067 C 0.72971 0.42609 0.45712 0.0
C1068 C 0.76422 0.38239 0.4567 0.0
C1069 C 0.92763 0.42179 0.2064 0.0
C1070 C 0.87896 0.44207 0.20001 0.0
C1071 C 0.97001 0.45444 0.21135 0.0
C1072 C 0.96457 0.50843 0.21079 0.0
H1073 H 0.93352 0.38059 0.20665 0.0
H1074 H 1.00756 0.43731 0.21469 0.0
S1075 S 0.84326 0.58002 0.19816 0.0
N1076 N 0.82711 0.51917 0.1952 0.0
N1077 N 0.90473 0.5798 0.20578 0.0
C1078 C 0.91492 0.52854 0.20613 0.0
C1079 C 0.87276 0.49565 0.20034 0.0
C1080 C 0.76629 0.88995 0.65655 0.0
C1081 C 0.73848 0.8436 0.65788 0.0
C1082 C 0.74116 0.93764 0.66001 0.0
C1083 C 0.68742 0.94053 0.6643 0.0
H1084 H 0.8081 0.88917 0.6547 0.0
H1085 H 0.76422 0.97215 0.66033 0.0
S1086 S 0.59759 0.83082 0.66915 0.0
N1087 N 0.65455 0.80399 0.66402 0.0
N1088 N 0.60739 0.8934 0.66915 0.0
C1089 C 0.65917 0.89476 0.66477 0.0
C1090 C 0.6847 0.84643 0.66189 0.0
C1091 C 0.8833 0.98228 0.90559 0.0
C1092 C 0.8916 0.92927 0.90785 0.0
C1093 C 0.92404 1.01606 0.90049 0.0
C1094 C 0.97568 0.99866 0.89848 0.0
H1095 H 0.84524 0.99813 0.90885 0.0
H1096 H 0.91539 0.05677 0.89978 0.0
S1097 S 1.01823 0.86256 0.90293 0.0
N1098 N 0.95475 0.86012 0.90688 0.0
N1099 N 1.03238 0.92366 0.89848 0.0
C1100 C 0.98443 0.94517 0.89989 0.0
C1101 C 0.94225 0.91053 0.90448 0.0
C1102 C 0.83366 0.14044 0.18731 0.0
C1103 C 0.87977 0.13836 0.17411 0.0
C1104 C 0.80096 0.18346 0.1868 0.0
C1105 C 0.81289 0.22717 0.17328 0.0
H1106 H 0.82292 0.10861 0.19852 0.0
H1107 H 0.7666 0.18274 0.19777 0.0
S1108 S 0.92815 0.24045 0.13446 0.0
N1109 N 0.93468 0.18265 0.14604 0.0
N1110 N 0.87371 0.26439 0.14535 0.0
C1111 C 0.85802 0.22495 0.15919 0.0
C1112 C 0.89127 0.18042 0.15954 0.0
C1113 C 0.64408 0.13032 0.39408 0.0
C1114 C 0.63917 0.08136 0.40443 0.0
C1115 C 0.69206 0.15651 0.39366 0.0
C1116 C 0.73618 0.13545 0.40444 0.0
H1117 H 0.60991 0.14991 0.38766 0.0
H1118 H 0.69339 0.19522 0.38675 0.0
S1119 S 0.74318 1.00832 0.43384 0.0
N1120 N 0.68333 1.01154 0.42393 0.0
N1121 N 0.7709 0.06277 0.42605 0.0
C1122 C 0.7317 0.08595 0.41427 0.0
C1123 C 0.68392 0.05839 0.41348 0.0
C1124 C 0.42139 0.23915 0.46304 0.0
C1125 C 0.36764 0.23968 0.45879 0.0
C1126 C 0.45029 0.19298 0.46233 0.0
C1127 C 0.42667 0.1461 0.45645 0.0
H1128 H 0.44181 0.27505 0.46537 0.0
H1129 H 0.49192 0.19469 0.46455 0.0
S1130 S 0.28666 0.12653 0.44516 0.0
N1131 N 0.29164 0.18872 0.45028 0.0
N1132 N 0.3458 0.10282 0.44779 0.0
C1133 C 0.37262 0.14592 0.45329 0.0
C1134 C 0.34317 0.19248 0.45473 0.0
C1135 C 0.09587 0.13325 0.21976 0.0
C1136 C 0.09222 0.0815 0.21303 0.0
C1137 C 0.14224 0.16079 0.21685 0.0
C1138 C 0.18556 0.13816 0.20587 0.0
H1139 H 0.06153 0.15361 0.22565 0.0
H1140 H 0.1428 0.20113 0.22149 0.0
S1141 S 0.19644 1.00333 0.18575 0.0
N1142 N 0.13704 1.00776 0.19656 0.0
N1143 N 0.22275 0.06056 0.1892 0.0
C1144 C 0.18301 0.08603 0.19978 0.0
C1145 C 0.13666 0.05741 0.20383 0.0
C1146 C 0.14272 0.89256 0.94849 0.0
C1147 C 0.166 0.94123 0.94934 0.0
C1148 C 0.17227 0.84761 0.95175 0.0
C1149 C 0.22565 0.84963 0.95691 0.0
H1150 H 0.10237 0.88896 0.94366 0.0
H1151 H 0.15394 0.81084 0.94871 0.0
S1152 S 0.30348 0.96769 0.96395 0.0
N1153 N 0.24486 0.98884 0.95751 0.0
N1154 N 0.29931 0.90443 0.96458 0.0
C1155 C 0.24823 0.89808 0.95977 0.0
C1156 C 0.21868 0.94383 0.95573 0.0
C1157 C 0.3973 0.98065 0.7008 0.0
C1158 C 0.39727 0.9265 0.70173 0.0
C1159 C 0.44257 1.00905 0.70499 0.0
C1160 C 0.4897 0.98442 0.71005 0.0
H1161 H 0.36257 1.0013 0.69583 0.0
H1162 H 0.44163 0.05022 0.70225 0.0
S1163 S 0.50987 0.84417 0.71674 0.0
N1164 N 0.44782 0.84986 0.7103 0.0
N1165 N 0.53306 0.90322 0.71733 0.0
C1166 C 0.48957 0.93066 0.71243 0.0
C1167 C 0.44332 0.90171 0.70854 0.0
loop_
_geom_bond_atom_site_label_1
_geom_bond_atom_site_label_2
_geom_bond_distance
_geom_bond_site_symmetry_2
_ccdc_geom_bond_type
Eu0 C9 2.828 . S
Eu0 O11 2.392 . S
Eu0 O13 2.418 . S
Eu0 O18 2.373 . S
Eu0 O21 2.488 . S
Eu0 O22 2.471 . S
Eu0 O23 2.349 . S
Eu1 O10 2.373 . S
Eu1 O14 2.488 . S
Eu1 O15 2.471 . S
Eu1 O16 2.349 . S
Eu1 O19 2.392 . S
Eu1 O20 2.418 . S
Eu1 C30 2.828 . S
C2 O20 1.244 . S
C2 O23 1.265 . S
C3 C4 1.379 . S
C3 C7 1.373 . S
C3 C9 1.505 . S
C4 C3 1.379 . S
C4 C6 1.369 . S
C4 H32 0.930 . S
C5 C7 1.383 . S
C5 C8 1.382 . S
C5 H33 0.930 . S
C6 C4 1.369 . S
C6 C8 1.392 . S
C6 H34 0.930 . S
C7 C3 1.373 . S
C7 C5 1.383 . S
C7 H35 0.931 . S
C8 C5 1.382 . S
C8 C6 1.392 . S
C9 Eu0 2.828 . S
C9 C3 1.505 . S
C9 O21 1.249 . S
C9 O22 1.244 . S
O10 Eu1 2.373 . S
O10 C12 1.258 . S
O11 Eu0 2.392 . S
O11 C12 1.242 . S
C12 O10 1.258 . S
C12 O11 1.242 . S
O13 Eu0 2.418 . S
O13 C17 1.244 . S
O14 Eu1 2.488 . S
O14 C30 1.249 . S
O15 Eu1 2.471 . S
O15 C30 1.244 . S
O16 Eu1 2.349 . S
O16 C17 1.265 . S
C17 O13 1.244 . S
C17 O16 1.265 . S
O18 Eu0 2.373 . S
O18 C31 1.258 . S
O19 Eu1 2.392 . S
O19 C31 1.242 . S
O20 Eu1 2.418 . S
O20 C2 1.244 . S
O21 Eu0 2.488 . S
O21 C9 1.249 . S
O22 Eu0 2.471 . S
O22 C9 1.244 . S
O23 Eu0 2.349 . S
O23 C2 1.265 . S
C24 C25 1.379 . S
C24 C28 1.373 1_545 S
C24 C30 1.505 . S
C25 C24 1.379 . S
C25 C27 1.369 . S
C25 H36 0.930 . S
C26 C28 1.383 . S
C26 C29 1.382 . S
C26 H37 0.930 . S
C27 C25 1.369 . S
C27 C29 1.392 1_545 S
C27 H38 0.930 . S
C28 C24 1.373 1_565 S
C28 C26 1.383 . S
C28 H39 0.931 . S
C29 C26 1.382 . S
C29 C27 1.392 1_565 S
C30 Eu1 2.828 . S
C30 O14 1.249 . S
C30 O15 1.244 . S
C30 C24 1.505 . S
C31 O18 1.258 . S
C31 O19 1.242 . S
H32 C4 0.930 . S
H33 C5 0.930 . S
H34 C6 0.930 . S
H35 C7 0.931 . S
H36 C25 0.930 . S
H37 C26 0.930 . S
H38 C27 0.930 . S
H39 C28 0.931 . S
Eu40 C49 2.828 . S
Eu40 O51 2.392 . S
Eu40 O53 2.418 . S
Eu40 O58 2.373 . S
Eu40 O61 2.488 . S
Eu40 O62 2.471 . S
Eu40 O63 2.349 . S
Eu41 O50 2.373 . S
Eu41 O54 2.488 . S
Eu41 O55 2.471 . S
Eu41 O56 2.349 . S
Eu41 O59 2.392 . S
Eu41 O60 2.418 . S
Eu41 C70 2.828 . S
C42 O60 1.244 . S
C42 O63 1.265 . S
C43 C44 1.379 . S
C43 C47 1.373 . S
C43 C49 1.505 . S
C44 C43 1.379 . S
C44 C46 1.369 . S
C44 H72 0.930 . S
C45 C47 1.383 . S
C45 C48 1.382 . S
C45 H73 0.930 . S
C46 C44 1.369 . S
C46 C48 1.392 . S
C46 H74 0.930 . S
C47 C43 1.373 . S
C47 C45 1.383 . S
C47 H75 0.931 . S
C48 C45 1.382 . S
C48 C46 1.392 . S
C49 Eu40 2.828 . S
C49 C43 1.505 . S
C49 O61 1.249 . S
C49 O62 1.244 . S
O50 Eu41 2.373 . S
O50 C52 1.258 . S
O51 Eu40 2.392 . S
O51 C52 1.242 . S
C52 O50 1.258 . S
C52 O51 1.242 . S
O53 Eu40 2.418 . S
O53 C57 1.244 . S
O54 Eu41 2.488 . S
O54 C70 1.249 . S
O55 Eu41 2.471 . S
O55 C70 1.244 . S
O56 Eu41 2.349 . S
O56 C57 1.265 . S
C57 O53 1.244 . S
C57 O56 1.265 . S
O58 Eu40 2.373 . S
O58 C71 1.258 . S
O59 Eu41 2.392 . S
O59 C71 1.242 . S
O60 Eu41 2.418 . S
O60 C42 1.244 . S
O61 Eu40 2.488 . S
O61 C49 1.249 . S
O62 Eu40 2.471 . S
O62 C49 1.244 . S
O63 Eu40 2.349 . S
O63 C42 1.265 . S
C64 C65 1.379 . S
C64 C68 1.373 . S
C64 C70 1.505 . S
C65 C64 1.379 . S
C65 C67 1.369 . S
C65 H76 0.930 . S
C66 C68 1.383 . S
C66 C69 1.382 . S
C66 H77 0.930 . S
C67 C65 1.369 . S
C67 C69 1.392 . S
C67 H78 0.930 . S
C68 C64 1.373 . S
C68 C66 1.383 . S
C68 H79 0.931 . S
C69 C66 1.382 . S
C69 C67 1.392 . S
C70 Eu41 2.828 . S
C70 O54 1.249 . S
C70 O55 1.244 . S
C70 C64 1.505 . S
C71 O58 1.258 . S
C71 O59 1.242 . S
H72 C44 0.930 . S
H73 C45 0.930 . S
H74 C46 0.930 . S
H75 C47 0.931 . S
H76 C65 0.930 . S
H77 C66 0.930 . S
H78 C67 0.930 . S
H79 C68 0.931 . S
Eu80 C89 2.828 . S
Eu80 O91 2.392 . S
Eu80 O93 2.418 . S
Eu80 O98 2.373 . S
Eu80 O101 2.488 . S
Eu80 O102 2.471 . S
Eu80 O103 2.349 . S
Eu81 O90 2.373 . S
Eu81 O94 2.488 . S
Eu81 O95 2.471 . S
Eu81 O96 2.349 . S
Eu81 O99 2.392 . S
Eu81 O100 2.418 . S
Eu81 C110 2.828 . S
C82 O100 1.244 . S
C82 O103 1.265 . S
C83 C84 1.379 . S
C83 C87 1.373 . S
C83 C89 1.505 . S
C84 C83 1.379 . S
C84 C86 1.369 . S
C84 H112 0.930 . S
C85 C87 1.383 . S
C85 C88 1.382 . S
C85 H113 0.930 . S
C86 C84 1.369 . S
C86 C88 1.392 . S
C86 H114 0.930 . S
C87 C83 1.373 . S
C87 C85 1.383 . S
C87 H115 0.931 . S
C88 C85 1.382 . S
C88 C86 1.392 . S
C89 Eu80 2.828 . S
C89 C83 1.505 . S
C89 O101 1.249 . S
C89 O102 1.244 . S
O90 Eu81 2.373 . S
O90 C92 1.258 . S
O91 Eu80 2.392 . S
O91 C92 1.242 . S
C92 O90 1.258 . S
C92 O91 1.242 . S
O93 Eu80 2.418 . S
O93 C97 1.244 . S
O94 Eu81 2.488 . S
O94 C110 1.249 . S
O95 Eu81 2.471 . S
O95 C110 1.244 . S
O96 Eu81 2.349 . S
O96 C97 1.265 . S
C97 O93 1.244 . S
C97 O96 1.265 . S
O98 Eu80 2.373 . S
O98 C111 1.258 . S
O99 Eu81 2.392 . S
O99 C111 1.242 . S
O100 Eu81 2.418 . S
O100 C82 1.244 . S
O101 Eu80 2.488 . S
O101 C89 1.249 . S
O102 Eu80 2.471 . S
O102 C89 1.244 . S
O103 Eu80 2.349 . S
O103 C82 1.265 . S
C104 C105 1.379 . S
C104 C108 1.373 1_565 S
C104 C110 1.505 . S
C105 C104 1.379 . S
C105 C107 1.369 . S
C105 H116 0.930 . S
C106 C108 1.383 . S
C106 C109 1.382 . S
C106 H117 0.930 . S
C107 C105 1.369 . S
C107 C109 1.392 1_565 S
C107 H118 0.930 . S
C108 C104 1.373 1_545 S
C108 C106 1.383 . S
C108 H119 0.931 . S
C109 C106 1.382 . S
C109 C107 1.392 1_545 S
C110 Eu81 2.828 . S
C110 O94 1.249 . S
C110 O95 1.244 . S
C110 C104 1.505 . S
C111 O98 1.258 . S
C111 O99 1.242 . S
H112 C84 0.930 . S
H113 C85 0.930 . S
H114 C86 0.930 . S
H115 C87 0.931 . S
H116 C105 0.930 . S
H117 C106 0.930 . S
H118 C107 0.930 . S
H119 C108 0.931 . S
Eu120 C129 2.828 . S
Eu120 O131 2.392 . S
Eu120 O133 2.418 . S
Eu120 O138 2.373 . S
Eu120 O141 2.488 . S
Eu120 O142 2.471 . S
Eu120 O143 2.349 . S
Eu121 O130 2.373 . S
Eu121 O134 2.488 . S
Eu121 O135 2.471 . S
Eu121 O136 2.349 . S
Eu121 O139 2.392 . S
Eu121 O140 2.418 . S
Eu121 C150 2.828 . S
C122 O140 1.244 . S
C122 O143 1.265 . S
C123 C124 1.379 . S
C123 C127 1.373 1_655 S
C123 C129 1.505 . S
C124 C123 1.379 . S
C124 C126 1.369 . S
C124 H152 0.930 . S
C125 C127 1.383 . S
C125 C128 1.382 . S
C125 H153 0.930 . S
C126 C124 1.369 . S
C126 C128 1.392 1_655 S
C126 H154 0.930 . S
C127 C123 1.373 1_455 S
C127 C125 1.383 . S
C127 H155 0.931 . S
C128 C125 1.382 . S
C128 C126 1.392 1_455 S
C129 Eu120 2.828 . S
C129 C123 1.505 . S
C129 O141 1.249 . S
C129 O142 1.244 . S
O130 Eu121 2.373 . S
O130 C132 1.258 . S
O131 Eu120 2.392 . S
O131 C132 1.242 . S
C132 O130 1.258 . S
C132 O131 1.242 . S
O133 Eu120 2.418 . S
O133 C137 1.244 . S
O134 Eu121 2.488 . S
O134 C150 1.249 . S
O135 Eu121 2.471 . S
O135 C150 1.244 . S
O136 Eu121 2.349 . S
O136 C137 1.265 . S
C137 O133 1.244 . S
C137 O136 1.265 . S
O138 Eu120 2.373 . S
O138 C151 1.258 . S
O139 Eu121 2.392 . S
O139 C151 1.242 . S
O140 Eu121 2.418 . S
O140 C122 1.244 . S
O141 Eu120 2.488 . S
O141 C129 1.249 . S
O142 Eu120 2.471 . S
O142 C129 1.244 . S
O143 Eu120 2.349 . S
O143 C122 1.265 . S
C144 C145 1.379 . S
C144 C148 1.373 . S
C144 C150 1.505 . S
C145 C144 1.379 . S
C145 C147 1.369 . S
C145 H156 0.930 . S
C146 C148 1.383 . S
C146 C149 1.382 . S
C146 H157 0.930 . S
C147 C145 1.369 . S
C147 C149 1.392 . S
C147 H158 0.930 . S
C148 C144 1.373 . S
C148 C146 1.383 . S
C148 H159 0.931 . S
C149 C146 1.382 . S
C149 C147 1.392 . S
C150 Eu121 2.828 . S
C150 O134 1.249 . S
C150 O135 1.244 . S
C150 C144 1.505 . S
C151 O138 1.258 . S
C151 O139 1.242 . S
H152 C124 0.930 . S
H153 C125 0.930 . S
H154 C126 0.930 . S
H155 C127 0.931 . S
H156 C145 0.930 . S
H157 C146 0.930 . S
H158 C147 0.930 . S
H159 C148 0.931 . S
Eu160 C169 2.828 . S
Eu160 O171 2.392 . S
Eu160 O173 2.418 . S
Eu160 O178 2.373 . S
Eu160 O181 2.488 . S
Eu160 O182 2.471 . S
Eu160 O183 2.349 . S
Eu161 O170 2.373 . S
Eu161 O174 2.488 . S
Eu161 O175 2.471 . S
Eu161 O176 2.349 . S
Eu161 O179 2.392 . S
Eu161 O180 2.418 . S
Eu161 C190 2.828 . S
C162 O180 1.244 . S
C162 O183 1.265 . S
C163 C164 1.379 . S
C163 C167 1.373 1_565 S
C163 C169 1.505 . S
C164 C163 1.379 . S
C164 C166 1.369 . S
C164 H192 0.930 . S
C165 C167 1.383 . S
C165 C168 1.382 . S
C165 H193 0.930 . S
C166 C164 1.369 . S
C166 C168 1.392 1_565 S
C166 H194 0.930 . S
C167 C163 1.373 1_545 S
C167 C165 1.383 . S
C167 H195 0.931 . S
C168 C165 1.382 . S
C168 C166 1.392 1_545 S
C169 Eu160 2.828 . S
C169 C163 1.505 . S
C169 O181 1.249 . S
C169 O182 1.244 . S
O170 Eu161 2.373 . S
O170 C172 1.258 . S
O171 Eu160 2.392 . S
O171 C172 1.242 . S
C172 O170 1.258 . S
C172 O171 1.242 . S
O173 Eu160 2.418 . S
O173 C177 1.244 . S
O174 Eu161 2.488 . S
O174 C190 1.249 . S
O175 Eu161 2.471 . S
O175 C190 1.244 . S
O176 Eu161 2.349 . S
O176 C177 1.265 . S
C177 O173 1.244 . S
C177 O176 1.265 . S
O178 Eu160 2.373 . S
O178 C191 1.258 . S
O179 Eu161 2.392 . S
O179 C191 1.242 . S
O180 Eu161 2.418 . S
O180 C162 1.244 . S
O181 Eu160 2.488 . S
O181 C169 1.249 . S
O182 Eu160 2.471 . S
O182 C169 1.244 . S
O183 Eu160 2.349 . S
O183 C162 1.265 . S
C184 C185 1.379 . S
C184 C188 1.373 . S
C184 C190 1.505 . S
C185 C184 1.379 . S
C185 C187 1.369 . S
C185 H196 0.930 . S
C186 C188 1.383 . S
C186 C189 1.382 . S
C186 H197 0.930 . S
C187 C185 1.369 . S
C187 C189 1.392 . S
C187 H198 0.930 . S
C188 C184 1.373 . S
C188 C186 1.383 . S
C188 H199 0.931 . S
C189 C186 1.382 . S
C189 C187 1.392 . S
C190 Eu161 2.828 . S
C190 O174 1.249 . S
C190 O175 1.244 . S
C190 C184 1.505 . S
C191 O178 1.258 . S
C191 O179 1.242 . S
H192 C164 0.930 . S
H193 C165 0.930 . S
H194 C166 0.930 . S
H195 C167 0.931 . S
H196 C185 0.930 . S
H197 C186 0.930 . S
H198 C187 0.930 . S
H199 C188 0.931 . S
Eu200 C209 2.828 . S
Eu200 O211 2.392 . S
Eu200 O213 2.418 . S
Eu200 O218 2.373 . S
Eu200 O221 2.488 . S
Eu200 O222 2.471 . S
Eu200 O223 2.349 . S
Eu201 O210 2.373 . S
Eu201 O214 2.488 . S
Eu201 O215 2.471 . S
Eu201 O216 2.349 . S
Eu201 O219 2.392 . S
Eu201 O220 2.418 . S
Eu201 C230 2.828 . S
C202 O220 1.244 . S
C202 O223 1.265 . S
C203 C204 1.379 . S
C203 C207 1.373 . S
C203 C209 1.505 . S
C204 C203 1.379 . S
C204 C206 1.369 . S
C204 H232 0.930 . S
C205 C207 1.383 . S
C205 C208 1.382 . S
C205 H233 0.930 . S
C206 C204 1.369 . S
C206 C208 1.392 . S
C206 H234 0.930 . S
C207 C203 1.373 . S
C207 C205 1.383 . S
C207 H235 0.931 . S
C208 C205 1.382 . S
C208 C206 1.392 . S
C209 Eu200 2.828 . S
C209 C203 1.505 . S
C209 O221 1.249 . S
C209 O222 1.244 . S
O210 Eu201 2.373 . S
O210 C212 1.258 . S
O211 Eu200 2.392 . S
O211 C212 1.242 . S
C212 O210 1.258 . S
C212 O211 1.242 . S
O213 Eu200 2.418 . S
O213 C217 1.244 . S
O214 Eu201 2.488 . S
O214 C230 1.249 . S
O215 Eu201 2.471 . S
O215 C230 1.244 . S
O216 Eu201 2.349 . S
O216 C217 1.265 . S
C217 O213 1.244 . S
C217 O216 1.265 . S
O218 Eu200 2.373 . S
O218 C231 1.258 . S
O219 Eu201 2.392 . S
O219 C231 1.242 . S
O220 Eu201 2.418 . S
O220 C202 1.244 . S
O221 Eu200 2.488 . S
O221 C209 1.249 . S
O222 Eu200 2.471 . S
O222 C209 1.244 . S
O223 Eu200 2.349 . S
O223 C202 1.265 . S
C224 C225 1.379 . S
C224 C228 1.373 . S
C224 C230 1.505 . S
C225 C224 1.379 . S
C225 C227 1.369 . S
C225 H236 0.930 . S
C226 C228 1.383 . S
C226 C229 1.382 . S
C226 H237 0.930 . S
C227 C225 1.369 . S
C227 C229 1.392 . S
C227 H238 0.930 . S
C228 C224 1.373 . S
C228 C226 1.383 . S
C228 H239 0.931 . S
C229 C226 1.382 . S
C229 C227 1.392 . S
C230 Eu201 2.828 . S
C230 O214 1.249 . S
C230 O215 1.244 . S
C230 C224 1.505 . S
C231 O218 1.258 . S
C231 O219 1.242 . S
H232 C204 0.930 . S
H233 C205 0.930 . S
H234 C206 0.930 . S
H235 C207 0.931 . S
H236 C225 0.930 . S
H237 C226 0.930 . S
H238 C227 0.930 . S
H239 C228 0.931 . S
Eu240 C249 2.828 . S
Eu240 O251 2.392 . S
Eu240 O253 2.418 . S
Eu240 O258 2.373 . S
Eu240 O261 2.488 . S
Eu240 O262 2.471 . S
Eu240 O263 2.349 . S
Eu241 O250 2.373 . S
Eu241 O254 2.488 . S
Eu241 O255 2.471 . S
Eu241 O256 2.349 . S
Eu241 O259 2.392 . S
Eu241 O260 2.418 . S
Eu241 C270 2.828 . S
C242 O260 1.244 . S
C242 O263 1.265 . S
C243 C244 1.379 . S
C243 C247 1.373 1_545 S
C243 C249 1.505 . S
C244 C243 1.379 . S
C244 C246 1.369 . S
C244 H272 0.930 . S
C245 C247 1.383 . S
C245 C248 1.382 . S
C245 H273 0.930 . S
C246 C244 1.369 . S
C246 C248 1.392 1_545 S
C246 H274 0.930 . S
C247 C243 1.373 1_565 S
C247 C245 1.383 . S
C247 H275 0.931 . S
C248 C245 1.382 . S
C248 C246 1.392 1_565 S
C249 Eu240 2.828 . S
C249 C243 1.505 . S
C249 O261 1.249 . S
C249 O262 1.244 . S
O250 Eu241 2.373 . S
O250 C252 1.258 . S
O251 Eu240 2.392 . S
O251 C252 1.242 . S
C252 O250 1.258 . S
C252 O251 1.242 . S
O253 Eu240 2.418 . S
O253 C257 1.244 . S
O254 Eu241 2.488 . S
O254 C270 1.249 . S
O255 Eu241 2.471 . S
O255 C270 1.244 . S
O256 Eu241 2.349 . S
O256 C257 1.265 . S
C257 O253 1.244 . S
C257 O256 1.265 . S
O258 Eu240 2.373 . S
O258 C271 1.258 . S
O259 Eu241 2.392 . S
O259 C271 1.242 . S
O260 Eu241 2.418 . S
O260 C242 1.244 . S
O261 Eu240 2.488 . S
O261 C249 1.249 . S
O262 Eu240 2.471 . S
O262 C249 1.244 . S
O263 Eu240 2.349 . S
O263 C242 1.265 . S
C264 C265 1.379 . S
C264 C268 1.373 . S
C264 C270 1.505 . S
C265 C264 1.379 . S
C265 C267 1.369 . S
C265 H276 0.930 . S
C266 C268 1.383 . S
C266 C269 1.382 . S
C266 H277 0.930 . S
C267 C265 1.369 . S
C267 C269 1.392 . S
C267 H278 0.930 . S
C268 C264 1.373 . S
C268 C266 1.383 . S
C268 H279 0.931 . S
C269 C266 1.382 . S
C269 C267 1.392 . S
C270 Eu241 2.828 . S
C270 O254 1.249 . S
C270 O255 1.244 . S
C270 C264 1.505 . S
C271 O258 1.258 . S
C271 O259 1.242 . S
H272 C244 0.930 . S
H273 C245 0.930 . S
H274 C246 0.930 . S
H275 C247 0.931 . S
H276 C265 0.930 . S
H277 C266 0.930 . S
H278 C267 0.930 . S
H279 C268 0.931 . S
Eu280 C289 2.828 . S
Eu280 O291 2.392 . S
Eu280 O293 2.418 . S
Eu280 O298 2.373 . S
Eu280 O301 2.488 . S
Eu280 O302 2.471 . S
Eu280 O303 2.349 . S
Eu281 O290 2.373 . S
Eu281 O294 2.488 . S
Eu281 O295 2.471 . S
Eu281 O296 2.349 . S
Eu281 O299 2.392 . S
Eu281 O300 2.418 . S
Eu281 C310 2.828 . S
C282 O300 1.244 . S
C282 O303 1.265 . S
C283 C284 1.379 . S
C283 C287 1.373 . S
C283 C289 1.505 . S
C284 C283 1.379 . S
C284 C286 1.369 . S
C284 H312 0.930 . S
C285 C287 1.383 . S
C285 C288 1.382 . S
C285 H313 0.930 . S
C286 C284 1.369 . S
C286 C288 1.392 . S
C286 H314 0.930 . S
C287 C283 1.373 . S
C287 C285 1.383 . S
C287 H315 0.931 . S
C288 C285 1.382 . S
C288 C286 1.392 . S
C289 Eu280 2.828 . S
C289 C283 1.505 . S
C289 O301 1.249 . S
C289 O302 1.244 . S
O290 Eu281 2.373 . S
O290 C292 1.258 . S
O291 Eu280 2.392 . S
O291 C292 1.242 . S
C292 O290 1.258 . S
C292 O291 1.242 . S
O293 Eu280 2.418 . S
O293 C297 1.244 . S
O294 Eu281 2.488 . S
O294 C310 1.249 . S
O295 Eu281 2.471 . S
O295 C310 1.244 . S
O296 Eu281 2.349 . S
O296 C297 1.265 . S
C297 O293 1.244 . S
C297 O296 1.265 . S
O298 Eu280 2.373 . S
O298 C311 1.258 . S
O299 Eu281 2.392 . S
O299 C311 1.242 . S
O300 Eu281 2.418 . S
O300 C282 1.244 . S
O301 Eu280 2.488 . S
O301 C289 1.249 . S
O302 Eu280 2.471 . S
O302 C289 1.244 . S
O303 Eu280 2.349 . S
O303 C282 1.265 . S
C304 C305 1.379 . S
C304 C308 1.373 1_455 S
C304 C310 1.505 . S
C305 C304 1.379 . S
C305 C307 1.369 . S
C305 H316 0.930 . S
C306 C308 1.383 . S
C306 C309 1.382 . S
C306 H317 0.930 . S
C307 C305 1.369 . S
C307 C309 1.392 1_455 S
C307 H318 0.930 . S
C308 C304 1.373 1_655 S
C308 C306 1.383 . S
C308 H319 0.931 . S
C309 C306 1.382 . S
C309 C307 1.392 1_655 S
C310 Eu281 2.828 . S
C310 O294 1.249 . S
C310 O295 1.244 . S
C310 C304 1.505 . S
C311 O298 1.258 . S
C311 O299 1.242 . S
H312 C284 0.930 . S
H313 C285 0.930 . S
H314 C286 0.930 . S
H315 C287 0.931 . S
H316 C305 0.930 . S
H317 C306 0.930 . S
H318 C307 0.930 . S
H319 C308 0.931 . S
Eu320 C329 2.828 . S
Eu320 O331 2.392 . S
Eu320 O333 2.418 . S
Eu320 O338 2.373 . S
Eu320 O341 2.488 . S
Eu320 O342 2.471 . S
Eu320 O343 2.349 . S
Eu321 O330 2.373 . S
Eu321 O334 2.488 . S
Eu321 O335 2.471 . S
Eu321 O336 2.349 . S
Eu321 O339 2.392 . S
Eu321 O340 2.418 . S
Eu321 C350 2.828 . S
C322 O340 1.244 . S
C322 O343 1.265 . S
C323 C324 1.379 . S
C323 C327 1.373 . S
C323 C329 1.505 . S
C324 C323 1.379 . S
C324 C326 1.369 . S
C324 H352 0.930 . S
C325 C327 1.383 . S
C325 C328 1.382 . S
C325 H353 0.930 . S
C326 C324 1.369 . S
C326 C328 1.392 . S
C326 H354 0.930 . S
C327 C323 1.373 . S
C327 C325 1.383 . S
C327 H355 0.931 . S
C328 C325 1.382 . S
C328 C326 1.392 . S
C329 Eu320 2.828 . S
C329 C323 1.505 . S
C329 O341 1.249 . S
C329 O342 1.244 . S
O330 Eu321 2.373 . S
O330 C332 1.258 . S
O331 Eu320 2.392 . S
O331 C332 1.242 . S
C332 O330 1.258 . S
C332 O331 1.242 . S
O333 Eu320 2.418 . S
O333 C337 1.244 . S
O334 Eu321 2.488 . S
O334 C350 1.249 . S
O335 Eu321 2.471 . S
O335 C350 1.244 . S
O336 Eu321 2.349 . S
O336 C337 1.265 . S
C337 O333 1.244 . S
C337 O336 1.265 . S
O338 Eu320 2.373 . S
O338 C351 1.258 . S
O339 Eu321 2.392 . S
O339 C351 1.242 . S
O340 Eu321 2.418 . S
O340 C322 1.244 . S
O341 Eu320 2.488 . S
O341 C329 1.249 . S
O342 Eu320 2.471 . S
O342 C329 1.244 . S
O343 Eu320 2.349 . S
O343 C322 1.265 . S
C344 C345 1.379 . S
C344 C348 1.373 . S
C344 C350 1.505 . S
C345 C344 1.379 . S
C345 C347 1.369 . S
C345 H356 0.930 . S
C346 C348 1.383 . S
C346 C349 1.382 . S
C346 H357 0.930 . S
C347 C345 1.369 . S
C347 C349 1.392 . S
C347 H358 0.930 . S
C348 C344 1.373 . S
C348 C346 1.383 . S
C348 H359 0.931 . S
C349 C346 1.382 . S
C349 C347 1.392 . S
C350 Eu321 2.828 . S
C350 O334 1.249 . S
C350 O335 1.244 . S
C350 C344 1.505 . S
C351 O338 1.258 . S
C351 O339 1.242 . S
H352 C324 0.930 . S
H353 C325 0.930 . S
H354 C326 0.930 . S
H355 C327 0.931 . S
H356 C345 0.930 . S
H357 C346 0.930 . S
H358 C347 0.930 . S
H359 C348 0.931 . S
Eu360 C369 2.828 1_565 S
Eu360 O371 2.392 . S
Eu360 O373 2.418 . S
Eu360 O378 2.373 1_565 S
Eu360 O381 2.488 1_565 S
Eu360 O382 2.471 1_565 S
Eu360 O383 2.349 1_565 S
Eu361 O370 2.373 1_545 S
Eu361 O374 2.488 . S
Eu361 O375 2.471 . S
Eu361 O376 2.349 . S
Eu361 O379 2.392 . S
Eu361 O380 2.418 . S
Eu361 C390 2.828 . S
C362 O380 1.244 . S
C362 O383 1.265 . S
C363 C364 1.379 . S
C363 C367 1.373 1_455 S
C363 C369 1.505 . S
C364 C363 1.379 . S
C364 C366 1.369 . S
C364 H392 0.930 . S
C365 C367 1.383 . S
C365 C368 1.382 . S
C365 H393 0.930 . S
C366 C364 1.369 . S
C366 C368 1.392 1_455 S
C366 H394 0.930 . S
C367 C363 1.373 1_655 S
C367 C365 1.383 . S
C367 H395 0.931 . S
C368 C365 1.382 . S
C368 C366 1.392 1_655 S
C369 Eu360 2.828 1_545 S
C369 C363 1.505 . S
C369 O381 1.249 . S
C369 O382 1.244 . S
O370 Eu361 2.373 1_565 S
O370 C372 1.258 . S
O371 Eu360 2.392 . S
O371 C372 1.242 . S
C372 O370 1.258 . S
C372 O371 1.242 . S
O373 Eu360 2.418 . S
O373 C377 1.244 . S
O374 Eu361 2.488 . S
O374 C390 1.249 . S
O375 Eu361 2.471 . S
O375 C390 1.244 . S
O376 Eu361 2.349 . S
O376 C377 1.265 1_545 S
C377 O373 1.244 . S
C377 O376 1.265 1_565 S
O378 Eu360 2.373 1_545 S
O378 C391 1.258 . S
O379 Eu361 2.392 . S
O379 C391 1.242 . S
O380 Eu361 2.418 . S
O380 C362 1.244 . S
O381 Eu360 2.488 1_545 S
O381 C369 1.249 . S
O382 Eu360 2.471 1_545 S
O382 C369 1.244 . S
O383 Eu360 2.349 1_545 S
O383 C362 1.265 . S
C384 C385 1.379 1_545 S
C384 C388 1.373 . S
C384 C390 1.505 . S
C385 C384 1.379 1_565 S
C385 C387 1.369 . S
C385 H396 0.930 . S
C386 C388 1.383 . S
C386 C389 1.382 1_545 S
C386 H397 0.930 . S
C387 C385 1.369 . S
C387 C389 1.392 . S
C387 H398 0.930 . S
C388 C384 1.373 . S
C388 C386 1.383 . S
C388 H399 0.931 . S
C389 C386 1.382 1_565 S
C389 C387 1.392 . S
C390 Eu361 2.828 . S
C390 O374 1.249 . S
C390 O375 1.244 . S
C390 C384 1.505 . S
C391 O378 1.258 . S
C391 O379 1.242 . S
H392 C364 0.930 . S
H393 C365 0.930 . S
H394 C366 0.930 . S
H395 C367 0.931 . S
H396 C385 0.930 . S
H397 C386 0.930 . S
H398 C387 0.930 . S
H399 C388 0.931 . S
Eu400 C409 2.828 . S
Eu400 O411 2.392 . S
Eu400 O413 2.418 . S
Eu400 O418 2.373 . S
Eu400 O421 2.488 . S
Eu400 O422 2.471 . S
Eu400 O423 2.349 . S
Eu401 O410 2.373 . S
Eu401 O414 2.488 . S
Eu401 O415 2.471 . S
Eu401 O416 2.349 . S
Eu401 O419 2.392 . S
Eu401 O420 2.418 . S
Eu401 C430 2.828 . S
C402 O420 1.244 . S
C402 O423 1.265 . S
C403 C404 1.379 . S
C403 C407 1.373 . S
C403 C409 1.505 . S
C404 C403 1.379 . S
C404 C406 1.369 . S
C404 H432 0.930 . S
C405 C407 1.383 . S
C405 C408 1.382 . S
C405 H433 0.930 . S
C406 C404 1.369 . S
C406 C408 1.392 . S
C406 H434 0.930 . S
C407 C403 1.373 . S
C407 C405 1.383 . S
C407 H435 0.931 . S
C408 C405 1.382 . S
C408 C406 1.392 . S
C409 Eu400 2.828 . S
C409 C403 1.505 . S
C409 O421 1.249 . S
C409 O422 1.244 . S
O410 Eu401 2.373 . S
O410 C412 1.258 . S
O411 Eu400 2.392 . S
O411 C412 1.242 . S
C412 O410 1.258 . S
C412 O411 1.242 . S
O413 Eu400 2.418 . S
O413 C417 1.244 . S
O414 Eu401 2.488 . S
O414 C430 1.249 . S
O415 Eu401 2.471 . S
O415 C430 1.244 . S
O416 Eu401 2.349 . S
O416 C417 1.265 . S
C417 O413 1.244 . S
C417 O416 1.265 . S
O418 Eu400 2.373 . S
O418 C431 1.258 . S
O419 Eu401 2.392 . S
O419 C431 1.242 . S
O420 Eu401 2.418 . S
O420 C402 1.244 . S
O421 Eu400 2.488 . S
O421 C409 1.249 . S
O422 Eu400 2.471 . S
O422 C409 1.244 . S
O423 Eu400 2.349 . S
O423 C402 1.265 . S
C424 C425 1.379 . S
C424 C428 1.373 . S
C424 C430 1.505 . S
C425 C424 1.379 . S
C425 C427 1.369 . S
C425 H436 0.930 . S
C426 C428 1.383 . S
C426 C429 1.382 . S
C426 H437 0.930 . S
C427 C425 1.369 . S
C427 C429 1.392 . S
C427 H438 0.930 . S
C428 C424 1.373 . S
C428 C426 1.383 . S
C428 H439 0.931 . S
C429 C426 1.382 . S
C429 C427 1.392 . S
C430 Eu401 2.828 . S
C430 O414 1.249 . S
C430 O415 1.244 . S
C430 C424 1.505 . S
C431 O418 1.258 . S
C431 O419 1.242 . S
H432 C404 0.930 . S
H433 C405 0.930 . S
H434 C406 0.930 . S
H435 C407 0.931 . S
H436 C425 0.930 . S
H437 C426 0.930 . S
H438 C427 0.930 . S
H439 C428 0.931 . S
Eu440 C449 2.828 1_545 S
Eu440 O451 2.392 . S
Eu440 O453 2.418 . S
Eu440 O458 2.373 1_545 S
Eu440 O461 2.488 1_545 S
Eu440 O462 2.471 1_545 S
Eu440 O463 2.349 1_545 S
Eu441 O450 2.373 1_565 S
Eu441 O454 2.488 . S
Eu441 O455 2.471 . S
Eu441 O456 2.349 . S
Eu441 O459 2.392 . S
Eu441 O460 2.418 . S
Eu441 C470 2.828 . S
C442 O460 1.244 . S
C442 O463 1.265 . S
C443 C444 1.379 . S
C443 C447 1.373 . S
C443 C449 1.505 . S
C444 C443 1.379 . S
C444 C446 1.369 . S
C444 H472 0.930 . S
C445 C447 1.383 . S
C445 C448 1.382 . S
C445 H473 0.930 . S
C446 C444 1.369 . S
C446 C448 1.392 . S
C446 H474 0.930 . S
C447 C443 1.373 . S
C447 C445 1.383 . S
C447 H475 0.931 . S
C448 C445 1.382 . S
C448 C446 1.392 . S
C449 Eu440 2.828 1_565 S
C449 C443 1.505 . S
C449 O461 1.249 . S
C449 O462 1.244 . S
O450 Eu441 2.373 1_545 S
O450 C452 1.258 . S
O451 Eu440 2.392 . S
O451 C452 1.242 . S
C452 O450 1.258 . S
C452 O451 1.242 . S
O453 Eu440 2.418 . S
O453 C457 1.244 . S
O454 Eu441 2.488 . S
O454 C470 1.249 . S
O455 Eu441 2.471 . S
O455 C470 1.244 . S
O456 Eu441 2.349 . S
O456 C457 1.265 1_565 S
C457 O453 1.244 . S
C457 O456 1.265 1_545 S
O458 Eu440 2.373 1_565 S
O458 C471 1.258 . S
O459 Eu441 2.392 . S
O459 C471 1.242 . S
O460 Eu441 2.418 . S
O460 C442 1.244 . S
O461 Eu440 2.488 1_565 S
O461 C449 1.249 . S
O462 Eu440 2.471 1_565 S
O462 C449 1.244 . S
O463 Eu440 2.349 1_565 S
O463 C442 1.265 . S
C464 C465 1.379 1_565 S
C464 C468 1.373 . S
C464 C470 1.505 . S
C465 C464 1.379 1_545 S
C465 C467 1.369 . S
C465 H476 0.930 . S
C466 C468 1.383 . S
C466 C469 1.382 1_565 S
C466 H477 0.930 . S
C467 C465 1.369 . S
C467 C469 1.392 . S
C467 H478 0.930 . S
C468 C464 1.373 . S
C468 C466 1.383 . S
C468 H479 0.931 . S
C469 C466 1.382 1_545 S
C469 C467 1.392 . S
C470 Eu441 2.828 . S
C470 O454 1.249 . S
C470 O455 1.244 . S
C470 C464 1.505 . S
C471 O458 1.258 . S
C471 O459 1.242 . S
H472 C444 0.930 . S
H473 C445 0.930 . S
H474 C446 0.930 . S
H475 C447 0.931 . S
H476 C465 0.930 . S
H477 C466 0.930 . S
H478 C467 0.930 . S
H479 C468 0.931 . S
Eu480 C489 2.828 . S
Eu480 O491 2.392 . S
Eu480 O493 2.418 . S
Eu480 O498 2.373 . S
Eu480 O501 2.488 . S
Eu480 O502 2.471 . S
Eu480 O503 2.349 . S
Eu481 O490 2.373 . S
Eu481 O494 2.488 . S
Eu481 O495 2.471 . S
Eu481 O496 2.349 . S
Eu481 O499 2.392 . S
Eu481 O500 2.418 . S
Eu481 C510 2.828 . S
C482 O500 1.244 . S
C482 O503 1.265 . S
C483 C484 1.379 . S
C483 C487 1.373 . S
C483 C489 1.505 . S
C484 C483 1.379 . S
C484 C486 1.369 . S
C484 H512 0.930 . S
C485 C487 1.383 . S
C485 C488 1.382 . S
C485 H513 0.930 . S
C486 C484 1.369 . S
C486 C488 1.392 . S
C486 H514 0.930 . S
C487 C483 1.373 . S
C487 C485 1.383 . S
C487 H515 0.931 . S
C488 C485 1.382 . S
C488 C486 1.392 . S
C489 Eu480 2.828 . S
C489 C483 1.505 . S
C489 O501 1.249 . S
C489 O502 1.244 . S
O490 Eu481 2.373 . S
O490 C492 1.258 . S
O491 Eu480 2.392 . S
O491 C492 1.242 . S
C492 O490 1.258 . S
C492 O491 1.242 . S
O493 Eu480 2.418 . S
O493 C497 1.244 . S
O494 Eu481 2.488 . S
O494 C510 1.249 . S
O495 Eu481 2.471 . S
O495 C510 1.244 . S
O496 Eu481 2.349 . S
O496 C497 1.265 . S
C497 O493 1.244 . S
C497 O496 1.265 . S
O498 Eu480 2.373 . S
O498 C511 1.258 . S
O499 Eu481 2.392 . S
O499 C511 1.242 . S
O500 Eu481 2.418 . S
O500 C482 1.244 . S
O501 Eu480 2.488 . S
O501 C489 1.249 . S
O502 Eu480 2.471 . S
O502 C489 1.244 . S
O503 Eu480 2.349 . S
O503 C482 1.265 . S
C504 C505 1.379 . S
C504 C508 1.373 . S
C504 C510 1.505 . S
C505 C504 1.379 . S
C505 C507 1.369 . S
C505 H516 0.930 . S
C506 C508 1.383 . S
C506 C509 1.382 . S
C506 H517 0.930 . S
C507 C505 1.369 . S
C507 C509 1.392 . S
C507 H518 0.930 . S
C508 C504 1.373 . S
C508 C506 1.383 . S
C508 H519 0.931 . S
C509 C506 1.382 . S
C509 C507 1.392 . S
C510 Eu481 2.828 . S
C510 O494 1.249 . S
C510 O495 1.244 . S
C510 C504 1.505 . S
C511 O498 1.258 . S
C511 O499 1.242 . S
H512 C484 0.930 . S
H513 C485 0.930 . S
H514 C486 0.930 . S
H515 C487 0.931 . S
H516 C505 0.930 . S
H517 C506 0.930 . S
H518 C507 0.930 . S
H519 C508 0.931 . S
Eu520 C529 2.828 . S
Eu520 O531 2.392 . S
Eu520 O533 2.418 . S
Eu520 O538 2.373 1_565 S
Eu520 O541 2.488 . S
Eu520 O542 2.471 . S
Eu520 O543 2.349 . S
Eu521 O530 2.373 1_545 S
Eu521 O534 2.488 1_545 S
Eu521 O535 2.471 1_545 S
Eu521 O536 2.349 1_545 S
Eu521 O539 2.392 . S
Eu521 O540 2.418 . S
Eu521 C550 2.828 1_545 S
C522 O540 1.244 . S
C522 O543 1.265 1_545 S
C523 C524 1.379 1_565 S
C523 C527 1.373 . S
C523 C529 1.505 . S
C524 C523 1.379 1_545 S
C524 C526 1.369 . S
C524 H552 0.930 . S
C525 C527 1.383 . S
C525 C528 1.382 1_565 S
C525 H553 0.930 . S
C526 C524 1.369 . S
C526 C528 1.392 . S
C526 H554 0.930 . S
C527 C523 1.373 . S
C527 C525 1.383 . S
C527 H555 0.931 . S
C528 C525 1.382 1_545 S
C528 C526 1.392 . S
C529 Eu520 2.828 . S
C529 C523 1.505 . S
C529 O541 1.249 . S
C529 O542 1.244 . S
O530 Eu521 2.373 1_565 S
O530 C532 1.258 . S
O531 Eu520 2.392 . S
O531 C532 1.242 . S
C532 O530 1.258 . S
C532 O531 1.242 . S
O533 Eu520 2.418 . S
O533 C537 1.244 . S
O534 Eu521 2.488 1_565 S
O534 C550 1.249 . S
O535 Eu521 2.471 1_565 S
O535 C550 1.244 . S
O536 Eu521 2.349 1_565 S
O536 C537 1.265 . S
C537 O533 1.244 . S
C537 O536 1.265 . S
O538 Eu520 2.373 1_545 S
O538 C551 1.258 . S
O539 Eu521 2.392 . S
O539 C551 1.242 . S
O540 Eu521 2.418 . S
O540 C522 1.244 . S
O541 Eu520 2.488 . S
O541 C529 1.249 . S
O542 Eu520 2.471 . S
O542 C529 1.244 . S
O543 Eu520 2.349 . S
O543 C522 1.265 1_565 S
C544 C545 1.379 . S
C544 C548 1.373 1_655 S
C544 C550 1.505 . S
C545 C544 1.379 . S
C545 C547 1.369 . S
C545 H556 0.930 . S
C546 C548 1.383 . S
C546 C549 1.382 . S
C546 H557 0.930 . S
C547 C545 1.369 . S
C547 C549 1.392 1_655 S
C547 H558 0.930 . S
C548 C544 1.373 1_455 S
C548 C546 1.383 . S
C548 H559 0.931 . S
C549 C546 1.382 . S
C549 C547 1.392 1_455 S
C550 Eu521 2.828 1_565 S
C550 O534 1.249 . S
C550 O535 1.244 . S
C550 C544 1.505 . S
C551 O538 1.258 . S
C551 O539 1.242 . S
H552 C524 0.930 . S
H553 C525 0.930 . S
H554 C526 0.930 . S
H555 C527 0.931 . S
H556 C545 0.930 . S
H557 C546 0.930 . S
H558 C547 0.930 . S
H559 C548 0.931 . S
Eu560 C569 2.828 . S
Eu560 O571 2.392 . S
Eu560 O573 2.418 . S
Eu560 O578 2.373 . S
Eu560 O581 2.488 . S
Eu560 O582 2.471 . S
Eu560 O583 2.349 . S
Eu561 O570 2.373 . S
Eu561 O574 2.488 . S
Eu561 O575 2.471 . S
Eu561 O576 2.349 . S
Eu561 O579 2.392 . S
Eu561 O580 2.418 . S
Eu561 C590 2.828 . S
C562 O580 1.244 . S
C562 O583 1.265 . S
C563 C564 1.379 . S
C563 C567 1.373 . S
C563 C569 1.505 . S
C564 C563 1.379 . S
C564 C566 1.369 . S
C564 H592 0.930 . S
C565 C567 1.383 . S
C565 C568 1.382 . S
C565 H593 0.930 . S
C566 C564 1.369 . S
C566 C568 1.392 . S
C566 H594 0.930 . S
C567 C563 1.373 . S
C567 C565 1.383 . S
C567 H595 0.931 . S
C568 C565 1.382 . S
C568 C566 1.392 . S
C569 Eu560 2.828 . S
C569 C563 1.505 . S
C569 O581 1.249 . S
C569 O582 1.244 . S
O570 Eu561 2.373 . S
O570 C572 1.258 . S
O571 Eu560 2.392 . S
O571 C572 1.242 . S
C572 O570 1.258 . S
C572 O571 1.242 . S
O573 Eu560 2.418 . S
O573 C577 1.244 . S
O574 Eu561 2.488 . S
O574 C590 1.249 . S
O575 Eu561 2.471 . S
O575 C590 1.244 . S
O576 Eu561 2.349 . S
O576 C577 1.265 . S
C577 O573 1.244 . S
C577 O576 1.265 . S
O578 Eu560 2.373 . S
O578 C591 1.258 . S
O579 Eu561 2.392 . S
O579 C591 1.242 . S
O580 Eu561 2.418 . S
O580 C562 1.244 . S
O581 Eu560 2.488 . S
O581 C569 1.249 . S
O582 Eu560 2.471 . S
O582 C569 1.244 . S
O583 Eu560 2.349 . S
O583 C562 1.265 . S
C584 C585 1.379 . S
C584 C588 1.373 . S
C584 C590 1.505 . S
C585 C584 1.379 . S
C585 C587 1.369 . S
C585 H596 0.930 . S
C586 C588 1.383 . S
C586 C589 1.382 . S
C586 H597 0.930 . S
C587 C585 1.369 . S
C587 C589 1.392 . S
C587 H598 0.930 . S
C588 C584 1.373 . S
C588 C586 1.383 . S
C588 H599 0.931 . S
C589 C586 1.382 . S
C589 C587 1.392 . S
C590 Eu561 2.828 . S
C590 O574 1.249 . S
C590 O575 1.244 . S
C590 C584 1.505 . S
C591 O578 1.258 . S
C591 O579 1.242 . S
H592 C564 0.930 . S
H593 C565 0.930 . S
H594 C566 0.930 . S
H595 C567 0.931 . S
H596 C585 0.930 . S
H597 C586 0.930 . S
H598 C587 0.930 . S
H599 C588 0.931 . S
Eu600 C609 2.828 . S
Eu600 O611 2.392 . S
Eu600 O613 2.418 . S
Eu600 O618 2.373 1_545 S
Eu600 O621 2.488 . S
Eu600 O622 2.471 . S
Eu600 O623 2.349 . S
Eu601 O610 2.373 1_565 S
Eu601 O614 2.488 1_565 S
Eu601 O615 2.471 1_565 S
Eu601 O616 2.349 1_565 S
Eu601 O619 2.392 . S
Eu601 O620 2.418 . S
Eu601 C630 2.828 1_565 S
C602 O620 1.244 . S
C602 O623 1.265 1_565 S
C603 C604 1.379 1_545 S
C603 C607 1.373 . S
C603 C609 1.505 . S
C604 C603 1.379 1_565 S
C604 C606 1.369 . S
C604 H632 0.930 . S
C605 C607 1.383 . S
C605 C608 1.382 1_545 S
C605 H633 0.930 . S
C606 C604 1.369 . S
C606 C608 1.392 . S
C606 H634 0.930 . S
C607 C603 1.373 . S
C607 C605 1.383 . S
C607 H635 0.931 . S
C608 C605 1.382 1_565 S
C608 C606 1.392 . S
C609 Eu600 2.828 . S
C609 C603 1.505 . S
C609 O621 1.249 . S
C609 O622 1.244 . S
O610 Eu601 2.373 1_545 S
O610 C612 1.258 . S
O611 Eu600 2.392 . S
O611 C612 1.242 . S
C612 O610 1.258 . S
C612 O611 1.242 . S
O613 Eu600 2.418 . S
O613 C617 1.244 . S
O614 Eu601 2.488 1_545 S
O614 C630 1.249 . S
O615 Eu601 2.471 1_545 S
O615 C630 1.244 . S
O616 Eu601 2.349 1_545 S
O616 C617 1.265 . S
C617 O613 1.244 . S
C617 O616 1.265 . S
O618 Eu600 2.373 1_565 S
O618 C631 1.258 . S
O619 Eu601 2.392 . S
O619 C631 1.242 . S
O620 Eu601 2.418 . S
O620 C602 1.244 . S
O621 Eu600 2.488 . S
O621 C609 1.249 . S
O622 Eu600 2.471 . S
O622 C609 1.244 . S
O623 Eu600 2.349 . S
O623 C602 1.265 1_545 S
C624 C625 1.379 . S
C624 C628 1.373 . S
C624 C630 1.505 . S
C625 C624 1.379 . S
C625 C627 1.369 . S
C625 H636 0.930 . S
C626 C628 1.383 . S
C626 C629 1.382 . S
C626 H637 0.930 . S
C627 C625 1.369 . S
C627 C629 1.392 . S
C627 H638 0.930 . S
C628 C624 1.373 . S
C628 C626 1.383 . S
C628 H639 0.931 . S
C629 C626 1.382 . S
C629 C627 1.392 . S
C630 Eu601 2.828 1_545 S
C630 O614 1.249 . S
C630 O615 1.244 . S
C630 C624 1.505 . S
C631 O618 1.258 . S
C631 O619 1.242 . S
H632 C604 0.930 . S
H633 C605 0.930 . S
H634 C606 0.930 . S
H635 C607 0.931 . S
H636 C625 0.930 . S
H637 C626 0.930 . S
H638 C627 0.930 . S
H639 C628 0.931 . S
C640 C641 1.369 . S
C640 C642 1.419 . S
C640 H644 0.930 . S
C641 C640 1.369 . S
C641 C650 1.429 . S
C642 C640 1.419 . S
C642 C643 1.363 . S
C642 H645 0.929 . S
C643 C642 1.363 . S
C643 C649 1.428 . S
H644 C640 0.930 . S
H645 C642 0.929 . S
S646 N647 1.613 . S
S646 N648 1.610 . S
N647 S646 1.613 . S
N647 C650 1.350 . S
N648 S646 1.610 . S
N648 C649 1.351 . S
C649 C643 1.428 . S
C649 N648 1.351 . S
C649 C650 1.434 . S
C650 C641 1.429 . S
C650 N647 1.350 . S
C650 C649 1.434 . S
C651 C652 1.369 . S
C651 C653 1.419 . S
C651 H655 0.930 . S
C652 C651 1.369 . S
C652 C661 1.429 . S
C653 C651 1.419 . S
C653 C654 1.363 . S
C653 H656 0.929 . S
C654 C653 1.363 . S
C654 C660 1.428 . S
H655 C651 0.930 . S
H656 C653 0.929 . S
S657 N658 1.613 . S
S657 N659 1.610 . S
N658 S657 1.613 . S
N658 C661 1.350 . S
N659 S657 1.610 . S
N659 C660 1.351 . S
C660 C654 1.428 . S
C660 N659 1.351 . S
C660 C661 1.434 . S
C661 C652 1.429 . S
C661 N658 1.350 . S
C661 C660 1.434 . S
C662 C663 1.369 . S
C662 C664 1.419 . S
C662 H666 0.930 . S
C663 C662 1.369 . S
C663 C672 1.429 . S
C664 C662 1.419 . S
C664 C665 1.363 . S
C664 H667 0.929 . S
C665 C664 1.363 . S
C665 C671 1.428 . S
H666 C662 0.930 . S
H667 C664 0.929 . S
S668 N669 1.613 . S
S668 N670 1.610 . S
N669 S668 1.613 . S
N669 C672 1.350 . S
N670 S668 1.610 . S
N670 C671 1.351 . S
C671 C665 1.428 . S
C671 N670 1.351 . S
C671 C672 1.434 . S
C672 C663 1.429 . S
C672 N669 1.350 . S
C672 C671 1.434 . S
C673 C674 1.369 . S
C673 C675 1.419 . S
C673 H677 0.930 . S
C674 C673 1.369 . S
C674 C683 1.429 1_454 S
C675 C673 1.419 . S
C675 C676 1.363 1_454 S
C675 H678 0.929 . S
C676 C675 1.363 1_656 S
C676 C682 1.428 . S
H677 C673 0.930 . S
H678 C675 0.929 . S
S679 N680 1.613 . S
S679 N681 1.610 . S
N680 S679 1.613 . S
N680 C683 1.350 . S
N681 S679 1.610 . S
N681 C682 1.351 . S
C682 C676 1.428 . S
C682 N681 1.351 . S
C682 C683 1.434 . S
C683 C674 1.429 1_656 S
C683 N680 1.350 . S
C683 C682 1.434 . S
C684 C685 1.369 . S
C684 C686 1.419 . S
C684 H688 0.930 . S
C685 C684 1.369 . S
C685 C694 1.429 . S
C686 C684 1.419 . S
C686 C687 1.363 . S
C686 H689 0.929 . S
C687 C686 1.363 . S
C687 C693 1.428 . S
H688 C684 0.930 . S
H689 C686 0.929 . S
S690 N691 1.613 . S
S690 N692 1.610 . S
N691 S690 1.613 . S
N691 C694 1.350 . S
N692 S690 1.610 . S
N692 C693 1.351 . S
C693 C687 1.428 . S
C693 N692 1.351 . S
C693 C694 1.434 . S
C694 C685 1.429 . S
C694 N691 1.350 . S
C694 C693 1.434 . S
C695 C696 1.369 . S
C695 C697 1.419 . S
C695 H699 0.930 . S
C696 C695 1.369 . S
C696 C705 1.429 . S
C697 C695 1.419 . S
C697 C698 1.363 . S
C697 H700 0.929 . S
C698 C697 1.363 . S
C698 C704 1.428 . S
H699 C695 0.930 . S
H700 C697 0.929 . S
S701 N702 1.613 . S
S701 N703 1.610 . S
N702 S701 1.613 . S
N702 C705 1.350 . S
N703 S701 1.610 . S
N703 C704 1.351 . S
C704 C698 1.428 . S
C704 N703 1.351 . S
C704 C705 1.434 . S
C705 C696 1.429 . S
C705 N702 1.350 . S
C705 C704 1.434 . S
C706 C707 1.369 1_554 S
C706 C708 1.419 1_565 S
C706 H710 0.930 . S
C707 C706 1.369 1_556 S
C707 C716 1.429 1_455 S
C708 C706 1.419 1_545 S
C708 C709 1.401 1_455 S
C708 H711 0.929 . S
C709 C708 1.401 1_655 S
C709 C715 1.387 1_554 S
H710 C706 0.930 . S
H711 C708 0.929 . S
S712 N713 1.613 . S
S712 N714 1.610 1_565 S
N713 S712 1.613 . S
N713 C716 1.350 . S
N714 S712 1.610 1_545 S
N714 C715 1.351 . S
C715 C709 1.387 1_556 S
C715 N714 1.351 . S
C715 C716 1.434 1_545 S
C716 C707 1.429 1_655 S
C716 N713 1.350 . S
C716 C715 1.434 1_565 S
C717 C718 1.369 . S
C717 C719 1.419 1_565 S
C717 H721 0.930 . S
C718 C717 1.369 . S
C718 C727 1.429 . S
C719 C717 1.419 1_545 S
C719 C720 1.363 . S
C719 H722 0.929 . S
C720 C719 1.363 . S
C720 C726 1.428 . S
H721 C717 0.930 . S
H722 C719 0.929 . S
S723 N724 1.613 1_545 S
S723 N725 1.610 . S
N724 S723 1.613 1_565 S
N724 C727 1.350 . S
N725 S723 1.610 . S
N725 C726 1.351 . S
C726 C720 1.428 . S
C726 N725 1.351 . S
C726 C727 1.434 1_545 S
C727 C718 1.429 . S
C727 N724 1.350 . S
C727 C726 1.434 1_565 S
C728 C729 1.369 . S
C728 C730 1.419 . S
C728 H732 0.930 . S
C729 C728 1.369 . S
C729 C738 1.429 . S
C730 C728 1.419 . S
C730 C731 1.350 1_545 S
C730 H733 0.929 . S
C731 C730 1.350 1_565 S
C731 C737 1.434 . S
H732 C728 0.930 . S
H733 C730 0.929 . S
S734 N735 1.613 . S
S734 N736 1.610 . S
N735 S734 1.613 . S
N735 C738 1.350 1_565 S
N736 S734 1.610 . S
N736 C737 1.351 . S
C737 C731 1.434 . S
C737 N736 1.351 . S
C737 C738 1.434 1_565 S
C738 C729 1.429 . S
C738 N735 1.350 1_545 S
C738 C737 1.434 1_545 S
C739 C740 1.369 . S
C739 C741 1.419 . S
C739 H743 0.930 . S
C740 C739 1.369 . S
C740 C749 1.429 . S
C741 C739 1.419 . S
C741 C742 1.363 . S
C741 H744 0.929 . S
C742 C741 1.363 . S
C742 C748 1.428 . S
H743 C739 0.930 . S
H744 C741 0.929 . S
S745 N746 1.613 . S
S745 N747 1.610 . S
N746 S745 1.613 . S
N746 C749 1.350 . S
N747 S745 1.610 . S
N747 C748 1.351 . S
C748 C742 1.428 . S
C748 N747 1.351 . S
C748 C749 1.434 . S
C749 C740 1.429 . S
C749 N746 1.350 . S
C749 C748 1.434 . S
C750 C751 1.368 . S
C750 C752 1.419 . S
C750 H754 0.930 . S
C751 C750 1.368 . S
C751 C760 1.430 1_545 S
C752 C750 1.419 . S
C752 C753 1.363 1_545 S
C752 H755 0.929 . S
C753 C752 1.363 1_565 S
C753 C759 1.428 . S
H754 C750 0.930 . S
H755 C752 0.929 . S
S756 N757 1.613 . S
S756 N758 1.610 . S
N757 S756 1.613 . S
N757 C760 1.350 . S
N758 S756 1.610 . S
N758 C759 1.351 . S
C759 C753 1.428 . S
C759 N758 1.351 . S
C759 C760 1.434 . S
C760 C751 1.430 1_565 S
C760 N757 1.350 . S
C760 C759 1.434 . S
C761 C762 1.369 . S
C761 C763 1.419 . S
C761 H765 0.930 . S
C762 C761 1.369 . S
C762 C771 1.429 . S
C763 C761 1.419 . S
C763 C764 1.363 . S
C763 H766 0.929 . S
C764 C763 1.363 . S
C764 C770 1.428 . S
H765 C761 0.930 . S
H766 C763 0.929 . S
S767 N768 1.613 . S
S767 N769 1.610 . S
N768 S767 1.613 . S
N768 C771 1.350 . S
N769 S767 1.610 . S
N769 C770 1.351 . S
C770 C764 1.428 . S
C770 N769 1.351 . S
C770 C771 1.434 . S
C771 C762 1.429 . S
C771 N768 1.350 . S
C771 C770 1.434 . S
C772 C773 1.369 . S
C772 C774 1.419 . S
C772 H776 0.930 . S
C773 C772 1.369 . S
C773 C782 1.429 . S
C774 C772 1.419 . S
C774 C775 1.355 1_565 S
C774 H777 0.929 . S
C775 C774 1.355 1_545 S
C775 C781 1.430 . S
H776 C772 0.930 . S
H777 C774 0.929 . S
S778 N779 1.601 1_545 S
S778 N780 1.610 . S
N779 S778 1.601 1_565 S
N779 C782 1.355 . S
N780 S778 1.610 . S
N780 C781 1.351 . S
C781 C775 1.430 . S
C781 N780 1.351 . S
C781 C782 1.434 1_545 S
C782 C773 1.429 . S
C782 N779 1.355 . S
C782 C781 1.434 1_565 S
C783 C784 1.369 . S
C783 C785 1.419 . S
C783 H787 0.930 . S
C784 C783 1.369 . S
C784 C793 1.429 . S
C785 C783 1.419 . S
C785 C786 1.363 . S
C785 H788 0.929 . S
C786 C785 1.363 . S
C786 C792 1.428 . S
H787 C783 0.930 . S
H788 C785 0.929 . S
S789 N790 1.613 . S
S789 N791 1.610 . S
N790 S789 1.613 . S
N790 C793 1.350 . S
N791 S789 1.610 . S
N791 C792 1.351 . S
C792 C786 1.428 . S
C792 N791 1.351 . S
C792 C793 1.434 . S
C793 C784 1.429 . S
C793 N790 1.350 . S
C793 C792 1.434 . S
C794 C795 1.352 1_545 S
C794 C796 1.419 . S
C794 H798 0.930 . S
C795 C794 1.352 1_565 S
C795 C804 1.437 . S
C796 C794 1.419 . S
C796 C797 1.363 . S
C796 H799 0.929 . S
C797 C796 1.363 . S
C797 C803 1.426 1_545 S
H798 C794 0.930 . S
H799 C796 0.929 . S
S800 N801 1.613 . S
S800 N802 1.610 . S
N801 S800 1.613 . S
N801 C804 1.350 . S
N802 S800 1.610 . S
N802 C803 1.353 . S
C803 C797 1.426 1_565 S
C803 N802 1.353 . S
C803 C804 1.435 . S
C804 C795 1.437 . S
C804 N801 1.350 . S
C804 C803 1.435 . S
C805 C806 1.369 . S
C805 C807 1.419 . S
C805 H809 0.930 . S
C806 C805 1.369 . S
C806 C815 1.429 . S
C807 C805 1.419 . S
C807 C808 1.363 . S
C807 H810 0.929 . S
C808 C807 1.363 . S
C808 C814 1.428 . S
H809 C805 0.930 . S
H810 C807 0.929 . S
S811 N812 1.613 . S
S811 N813 1.610 . S
N812 S811 1.613 . S
N812 C815 1.350 . S
N813 S811 1.610 . S
N813 C814 1.351 . S
C814 C808 1.428 . S
C814 N813 1.351 . S
C814 C815 1.434 . S
C815 C806 1.429 . S
C815 N812 1.350 . S
C815 C814 1.434 . S
C816 C817 1.369 . S
C816 C818 1.419 . S
C816 H820 0.930 . S
C817 C816 1.369 . S
C817 C826 1.429 . S
C818 C816 1.419 . S
C818 C819 1.363 . S
C818 H821 0.929 . S
C819 C818 1.363 . S
C819 C825 1.428 . S
H820 C816 0.930 . S
H821 C818 0.929 . S
S822 N823 1.613 . S
S822 N824 1.610 . S
N823 S822 1.613 . S
N823 C826 1.350 . S
N824 S822 1.610 . S
N824 C825 1.351 . S
C825 C819 1.428 . S
C825 N824 1.351 . S
C825 C826 1.434 . S
C826 C817 1.429 . S
C826 N823 1.350 . S
C826 C825 1.434 . S
C827 C828 1.369 . S
C827 C829 1.419 . S
C827 H831 0.930 . S
C828 C827 1.369 . S
C828 C837 1.429 1_565 S
C829 C827 1.419 . S
C829 C830 1.363 . S
C829 H832 0.929 . S
C830 C829 1.363 . S
C830 C836 1.428 1_565 S
H831 C827 0.930 . S
H832 C829 0.929 . S
S833 N834 1.613 . S
S833 N835 1.610 . S
N834 S833 1.613 . S
N834 C837 1.350 . S
N835 S833 1.610 . S
N835 C836 1.351 . S
C836 C830 1.428 1_545 S
C836 N835 1.351 . S
C836 C837 1.434 . S
C837 C828 1.429 1_545 S
C837 N834 1.350 . S
C837 C836 1.434 . S
C838 C839 1.369 . S
C838 C840 1.419 . S
C838 H842 0.930 . S
C839 C838 1.369 . S
C839 C848 1.429 . S
C840 C838 1.419 . S
C840 C841 1.363 . S
C840 H843 0.929 . S
C841 C840 1.363 . S
C841 C847 1.428 . S
H842 C838 0.930 . S
H843 C840 0.929 . S
S844 N845 1.613 . S
S844 N846 1.610 . S
N845 S844 1.613 . S
N845 C848 1.350 . S
N846 S844 1.610 . S
N846 C847 1.351 . S
C847 C841 1.428 . S
C847 N846 1.351 . S
C847 C848 1.434 . S
C848 C839 1.429 . S
C848 N845 1.350 . S
C848 C847 1.434 . S
C849 C850 1.369 . S
C849 C851 1.419 . S
C849 H853 0.930 . S
C850 C849 1.369 . S
C850 C859 1.429 . S
C851 C849 1.419 . S
C851 C852 1.363 . S
C851 H854 0.929 . S
C852 C851 1.363 . S
C852 C858 1.428 . S
H853 C849 0.930 . S
H854 C851 0.929 . S
S855 N856 1.613 . S
S855 N857 1.610 . S
N856 S855 1.613 . S
N856 C859 1.350 1_565 S
N857 S855 1.610 . S
N857 C858 1.351 1_565 S
C858 C852 1.428 . S
C858 N857 1.351 1_545 S
C858 C859 1.434 . S
C859 C850 1.429 . S
C859 N856 1.350 1_545 S
C859 C858 1.434 . S
C860 C861 1.369 . S
C860 C862 1.419 . S
C860 H864 0.930 . S
C861 C860 1.369 . S
C861 C870 1.429 . S
C862 C860 1.419 . S
C862 C863 1.363 . S
C862 H865 0.929 . S
C863 C862 1.363 . S
C863 C869 1.428 . S
H864 C860 0.930 . S
H865 C862 0.929 . S
S866 N867 1.613 . S
S866 N868 1.610 . S
N867 S866 1.613 . S
N867 C870 1.350 . S
N868 S866 1.610 . S
N868 C869 1.351 . S
C869 C863 1.428 . S
C869 N868 1.351 . S
C869 C870 1.434 . S
C870 C861 1.429 . S
C870 N867 1.350 . S
C870 C869 1.434 . S
C871 C872 1.369 . S
C871 C873 1.419 . S
C871 H875 0.930 . S
C872 C871 1.369 . S
C872 C881 1.429 . S
C873 C871 1.419 . S
C873 C874 1.363 . S
C873 H876 0.929 . S
C874 C873 1.363 . S
C874 C880 1.428 . S
H875 C871 0.930 . S
H876 C873 0.929 . S
S877 N878 1.613 . S
S877 N879 1.610 . S
N878 S877 1.613 . S
N878 C881 1.350 . S
N879 S877 1.610 . S
N879 C880 1.351 . S
C880 C874 1.428 . S
C880 N879 1.351 . S
C880 C881 1.434 . S
C881 C872 1.429 . S
C881 N878 1.350 . S
C881 C880 1.434 . S
C882 C883 1.369 . S
C882 C884 1.419 . S
C882 H886 0.930 . S
C883 C882 1.369 . S
C883 C892 1.429 . S
C884 C882 1.419 . S
C884 C885 1.363 . S
C884 H887 0.929 . S
C885 C884 1.363 . S
C885 C891 1.428 . S
H886 C882 0.930 . S
H887 C884 0.929 . S
S888 N889 1.613 . S
S888 N890 1.610 . S
N889 S888 1.613 . S
N889 C892 1.350 . S
N890 S888 1.610 . S
N890 C891 1.351 . S
C891 C885 1.428 . S
C891 N890 1.351 . S
C891 C892 1.434 . S
C892 C883 1.429 . S
C892 N889 1.350 . S
C892 C891 1.434 . S
C893 C894 1.369 . S
C893 C895 1.419 . S
C893 H897 0.930 . S
C894 C893 1.369 . S
C894 C903 1.429 . S
C895 C893 1.419 . S
C895 C896 1.363 . S
C895 H898 0.929 . S
C896 C895 1.363 . S
C896 C902 1.428 . S
H897 C893 0.930 . S
H898 C895 0.929 . S
S899 N900 1.613 . S
S899 N901 1.610 . S
N900 S899 1.613 . S
N900 C903 1.350 1_545 S
N901 S899 1.610 . S
N901 C902 1.351 1_545 S
C902 C896 1.428 . S
C902 N901 1.351 1_565 S
C902 C903 1.434 . S
C903 C894 1.429 . S
C903 N900 1.350 1_565 S
C903 C902 1.434 . S
C904 C905 1.369 . S
C904 C906 1.419 . S
C904 H908 0.930 . S
C905 C904 1.369 . S
C905 C914 1.429 . S
C906 C904 1.419 . S
C906 C907 1.363 . S
C906 H909 0.929 . S
C907 C906 1.363 . S
C907 C913 1.428 . S
H908 C904 0.930 . S
H909 C906 0.929 . S
S910 N911 1.613 . S
S910 N912 1.610 . S
N911 S910 1.613 . S
N911 C914 1.350 . S
N912 S910 1.610 . S
N912 C913 1.351 . S
C913 C907 1.428 . S
C913 N912 1.351 . S
C913 C914 1.434 . S
C914 C905 1.429 . S
C914 N911 1.350 . S
C914 C913 1.434 . S
C915 C916 1.369 . S
C915 C917 1.419 . S
C915 H919 0.930 . S
C916 C915 1.369 . S
C916 C925 1.429 . S
C917 C915 1.419 . S
C917 C918 1.363 . S
C917 H920 0.929 . S
C918 C917 1.363 . S
C918 C924 1.428 . S
H919 C915 0.930 . S
H920 C917 0.929 . S
S921 N922 1.613 . S
S921 N923 1.610 . S
N922 S921 1.613 . S
N922 C925 1.350 . S
N923 S921 1.610 . S
N923 C924 1.351 . S
C924 C918 1.428 . S
C924 N923 1.351 . S
C924 C925 1.434 . S
C925 C916 1.429 . S
C925 N922 1.350 . S
C925 C924 1.434 . S
C926 C927 1.369 . S
C926 C928 1.419 1_655 S
C926 H930 0.930 . S
C927 C926 1.369 . S
C927 C936 1.429 . S
C928 C926 1.419 1_455 S
C928 C929 1.363 . S
C928 H931 0.929 . S
C929 C928 1.363 . S
C929 C935 1.428 . S
H930 C926 0.930 . S
H931 C928 0.929 . S
S932 N933 1.617 . S
S932 N934 1.610 . S
N933 S932 1.617 . S
N933 C936 1.350 1_455 S
N934 S932 1.610 . S
N934 C935 1.351 . S
C935 C929 1.428 . S
C935 N934 1.351 . S
C935 C936 1.434 1_455 S
C936 C927 1.429 . S
C936 N933 1.350 1_655 S
C936 C935 1.434 1_655 S
C937 C938 1.369 . S
C937 C939 1.419 . S
C937 H941 0.930 . S
C938 C937 1.369 . S
C938 C947 1.429 1_655 S
C939 C937 1.419 . S
C939 C940 1.363 1_655 S
C939 H942 0.929 . S
C940 C939 1.363 1_455 S
C940 C946 1.428 . S
H941 C937 0.930 . S
H942 C939 0.929 . S
S943 N944 1.613 . S
S943 N945 1.610 . S
N944 S943 1.613 . S
N944 C947 1.350 . S
N945 S943 1.610 . S
N945 C946 1.351 . S
C946 C940 1.428 . S
C946 N945 1.351 . S
C946 C947 1.434 . S
C947 C938 1.429 1_455 S
C947 N944 1.350 . S
C947 C946 1.434 . S
C948 C949 1.369 . S
C948 C950 1.419 . S
C948 H952 0.930 . S
C949 C948 1.369 . S
C949 C958 1.429 . S
C950 C948 1.419 . S
C950 C951 1.363 . S
C950 H953 0.929 . S
C951 C950 1.363 . S
C951 C957 1.428 . S
H952 C948 0.930 . S
H953 C950 0.929 . S
S954 N955 1.613 . S
S954 N956 1.610 . S
N955 S954 1.613 . S
N955 C958 1.350 . S
N956 S954 1.610 . S
N956 C957 1.351 . S
C957 C951 1.428 . S
C957 N956 1.351 . S
C957 C958 1.434 . S
C958 C949 1.429 . S
C958 N955 1.350 . S
C958 C957 1.434 . S
C959 C960 1.369 . S
C959 C961 1.419 . S
C959 H963 0.930 . S
C960 C959 1.369 . S
C960 C969 1.429 . S
C961 C959 1.419 . S
C961 C962 1.363 . S
C961 H964 0.929 . S
C962 C961 1.363 . S
C962 C968 1.428 . S
H963 C959 0.930 . S
H964 C961 0.929 . S
S965 N966 1.613 . S
S965 N967 1.610 . S
N966 S965 1.613 . S
N966 C969 1.350 . S
N967 S965 1.610 . S
N967 C968 1.351 . S
C968 C962 1.428 . S
C968 N967 1.351 . S
C968 C969 1.434 . S
C969 C960 1.429 . S
C969 N966 1.350 . S
C969 C968 1.434 . S
C970 C971 1.369 . S
C970 C972 1.419 1_455 S
C970 H974 0.930 . S
C971 C970 1.369 . S
C971 C980 1.429 . S
C972 C970 1.419 1_655 S
C972 C973 1.363 . S
C972 H975 0.929 . S
C973 C972 1.363 . S
C973 C979 1.428 . S
H974 C970 0.930 . S
H975 C972 0.929 . S
S976 N977 1.613 1_655 S
S976 N978 1.610 . S
N977 S976 1.613 1_455 S
N977 C980 1.350 . S
N978 S976 1.610 . S
N978 C979 1.351 . S
C979 C973 1.428 . S
C979 N978 1.351 . S
C979 C980 1.434 1_655 S
C980 C971 1.429 . S
C980 N977 1.350 . S
C980 C979 1.434 1_455 S
C981 C982 1.369 1_655 S
C981 C983 1.419 . S
C981 H985 0.930 . S
C982 C981 1.369 1_455 S
C982 C991 1.429 . S
C983 C981 1.419 . S
C983 C984 1.363 . S
C983 H986 0.929 . S
C984 C983 1.363 . S
C984 C990 1.428 1_655 S
H985 C981 0.930 . S
H986 C983 0.929 . S
S987 N988 1.613 . S
S987 N989 1.610 . S
N988 S987 1.613 . S
N988 C991 1.350 . S
N989 S987 1.610 . S
N989 C990 1.351 . S
C990 C984 1.428 1_455 S
C990 N989 1.351 . S
C990 C991 1.434 . S
C991 C982 1.429 . S
C991 N988 1.350 . S
C991 C990 1.434 . S
C992 C993 1.369 . S
C992 C994 1.419 . S
C992 H996 0.930 . S
C993 C992 1.369 . S
C993 C1002 1.429 . S
C994 C992 1.419 . S
C994 C995 1.363 . S
C994 H997 0.929 . S
C995 C994 1.363 . S
C995 C1001 1.428 . S
H996 C992 0.930 . S
H997 C994 0.929 . S
S998 N999 1.613 . S
S998 N1000 1.610 . S
N999 S998 1.613 . S
N999 C1002 1.350 . S
N1000 S998 1.610 . S
N1000 C1001 1.351 . S
C1001 C995 1.428 . S
C1001 N1000 1.351 . S
C1001 C1002 1.434 . S
C1002 C993 1.429 . S
C1002 N999 1.350 . S
C1002 C1001 1.434 . S
C1003 C1004 1.369 . S
C1003 C1005 1.419 . S
C1003 H1007 0.930 . S
C1004 C1003 1.369 . S
C1004 C1013 1.429 . S
C1005 C1003 1.419 . S
C1005 C1006 1.363 . S
C1005 H1008 0.929 . S
C1006 C1005 1.363 . S
C1006 C1012 1.428 . S
H1007 C1003 0.930 . S
H1008 C1005 0.929 . S
S1009 N1010 1.613 . S
S1009 N1011 1.610 . S
N1010 S1009 1.613 . S
N1010 C1013 1.350 . S
N1011 S1009 1.610 . S
N1011 C1012 1.351 . S
C1012 C1006 1.428 . S
C1012 N1011 1.351 . S
C1012 C1013 1.434 . S
C1013 C1004 1.429 . S
C1013 N1010 1.350 . S
C1013 C1012 1.434 . S
C1014 C1015 1.369 . S
C1014 C1016 1.419 . S
C1014 H1018 0.930 . S
C1015 C1014 1.369 . S
C1015 C1024 1.429 . S
C1016 C1014 1.419 . S
C1016 C1017 1.363 . S
C1016 H1019 0.929 . S
C1017 C1016 1.363 . S
C1017 C1023 1.428 . S
H1018 C1014 0.930 . S
H1019 C1016 0.929 . S
S1020 N1021 1.613 . S
S1020 N1022 1.610 . S
N1021 S1020 1.613 . S
N1021 C1024 1.350 . S
N1022 S1020 1.610 . S
N1022 C1023 1.351 . S
C1023 C1017 1.428 . S
C1023 N1022 1.351 . S
C1023 C1024 1.434 . S
C1024 C1015 1.429 . S
C1024 N1021 1.350 . S
C1024 C1023 1.434 . S
C1025 C1026 1.369 . S
C1025 C1027 1.419 . S
C1025 H1029 0.930 . S
C1026 C1025 1.369 . S
C1026 C1035 1.429 . S
C1027 C1025 1.419 . S
C1027 C1028 1.363 . S
C1027 H1030 0.929 . S
C1028 C1027 1.363 . S
C1028 C1034 1.428 . S
H1029 C1025 0.930 . S
H1030 C1027 0.929 . S
S1031 N1032 1.613 . S
S1031 N1033 1.610 . S
N1032 S1031 1.613 . S
N1032 C1035 1.350 . S
N1033 S1031 1.610 . S
N1033 C1034 1.351 . S
C1034 C1028 1.428 . S
C1034 N1033 1.351 . S
C1034 C1035 1.434 . S
C1035 C1026 1.429 . S
C1035 N1032 1.350 . S
C1035 C1034 1.434 . S
C1036 C1037 1.369 . S
C1036 C1038 1.419 . S
C1036 H1040 0.930 . S
C1037 C1036 1.369 . S
C1037 C1046 1.429 . S
C1038 C1036 1.419 . S
C1038 C1039 1.363 . S
C1038 H1041 0.929 . S
C1039 C1038 1.363 . S
C1039 C1045 1.428 . S
H1040 C1036 0.930 . S
H1041 C1038 0.929 . S
S1042 N1043 1.613 . S
S1042 N1044 1.610 . S
N1043 S1042 1.613 . S
N1043 C1046 1.350 . S
N1044 S1042 1.610 . S
N1044 C1045 1.351 . S
C1045 C1039 1.428 . S
C1045 N1044 1.351 . S
C1045 C1046 1.434 . S
C1046 C1037 1.429 . S
C1046 N1043 1.350 . S
C1046 C1045 1.434 . S
C1047 C1048 1.369 . S
C1047 C1049 1.419 . S
C1047 H1051 0.930 . S
C1048 C1047 1.369 . S
C1048 C1057 1.429 . S
C1049 C1047 1.419 . S
C1049 C1050 1.363 . S
C1049 H1052 0.929 . S
C1050 C1049 1.363 . S
C1050 C1056 1.428 . S
H1051 C1047 0.930 . S
H1052 C1049 0.929 . S
S1053 N1054 1.613 . S
S1053 N1055 1.610 . S
N1054 S1053 1.613 . S
N1054 C1057 1.350 . S
N1055 S1053 1.610 . S
N1055 C1056 1.351 . S
C1056 C1050 1.428 . S
C1056 N1055 1.351 . S
C1056 C1057 1.434 . S
C1057 C1048 1.429 . S
C1057 N1054 1.350 . S
C1057 C1056 1.434 . S
C1058 C1059 1.369 . S
C1058 C1060 1.419 . S
C1058 H1062 0.930 . S
C1059 C1058 1.369 . S
C1059 C1068 1.429 . S
C1060 C1058 1.419 . S
C1060 C1061 1.363 . S
C1060 H1063 0.929 . S
C1061 C1060 1.363 . S
C1061 C1067 1.428 . S
H1062 C1058 0.930 . S
H1063 C1060 0.929 . S
S1064 N1065 1.613 . S
S1064 N1066 1.610 . S
N1065 S1064 1.613 . S
N1065 C1068 1.350 . S
N1066 S1064 1.610 . S
N1066 C1067 1.351 . S
C1067 C1061 1.428 . S
C1067 N1066 1.351 . S
C1067 C1068 1.434 . S
C1068 C1059 1.429 . S
C1068 N1065 1.350 . S
C1068 C1067 1.434 . S
C1069 C1070 1.369 . S
C1069 C1071 1.419 . S
C1069 H1073 0.930 . S
C1070 C1069 1.369 . S
C1070 C1079 1.429 . S
C1071 C1069 1.419 . S
C1071 C1072 1.363 . S
C1071 H1074 0.929 . S
C1072 C1071 1.363 . S
C1072 C1078 1.428 . S
H1073 C1069 0.930 . S
H1074 C1071 0.929 . S
S1075 N1076 1.613 . S
S1075 N1077 1.610 . S
N1076 S1075 1.613 . S
N1076 C1079 1.350 . S
N1077 S1075 1.610 . S
N1077 C1078 1.351 . S
C1078 C1072 1.428 . S
C1078 N1077 1.351 . S
C1078 C1079 1.434 . S
C1079 C1070 1.429 . S
C1079 N1076 1.350 . S
C1079 C1078 1.434 . S
C1080 C1081 1.369 . S
C1080 C1082 1.419 . S
C1080 H1084 0.930 . S
C1081 C1080 1.369 . S
C1081 C1090 1.429 . S
C1082 C1080 1.419 . S
C1082 C1083 1.363 . S
C1082 H1085 0.929 . S
C1083 C1082 1.363 . S
C1083 C1089 1.428 . S
H1084 C1080 0.930 . S
H1085 C1082 0.929 . S
S1086 N1087 1.613 . S
S1086 N1088 1.610 . S
N1087 S1086 1.613 . S
N1087 C1090 1.350 . S
N1088 S1086 1.610 . S
N1088 C1089 1.351 . S
C1089 C1083 1.428 . S
C1089 N1088 1.351 . S
C1089 C1090 1.434 . S
C1090 C1081 1.429 . S
C1090 N1087 1.350 . S
C1090 C1089 1.434 . S
C1091 C1092 1.369 . S
C1091 C1093 1.419 . S
C1091 H1095 0.930 . S
C1092 C1091 1.369 . S
C1092 C1101 1.429 . S
C1093 C1091 1.419 . S
C1093 C1094 1.363 . S
C1093 H1096 0.929 1_565 S
C1094 C1093 1.363 . S
C1094 C1100 1.428 . S
H1095 C1091 0.930 . S
H1096 C1093 0.929 1_545 S
S1097 N1098 1.613 . S
S1097 N1099 1.610 1_655 S
N1098 S1097 1.613 . S
N1098 C1101 1.350 . S
N1099 S1097 1.610 1_455 S
N1099 C1100 1.351 1_455 S
C1100 C1094 1.428 . S
C1100 N1099 1.351 1_655 S
C1100 C1101 1.434 . S
C1101 C1092 1.429 . S
C1101 N1098 1.350 . S
C1101 C1100 1.434 . S
C1102 C1103 1.369 . S
C1102 C1104 1.419 . S
C1102 H1106 0.930 . S
C1103 C1102 1.369 . S
C1103 C1112 1.429 . S
C1104 C1102 1.419 . S
C1104 C1105 1.363 . S
C1104 H1107 0.929 . S
C1105 C1104 1.363 . S
C1105 C1111 1.428 . S
H1106 C1102 0.930 . S
H1107 C1104 0.929 . S
S1108 N1109 1.613 . S
S1108 N1110 1.610 . S
N1109 S1108 1.613 . S
N1109 C1112 1.350 . S
N1110 S1108 1.610 . S
N1110 C1111 1.351 . S
C1111 C1105 1.428 . S
C1111 N1110 1.351 . S
C1111 C1112 1.434 . S
C1112 C1103 1.429 . S
C1112 N1109 1.350 . S
C1112 C1111 1.434 . S
C1113 C1114 1.369 . S
C1113 C1115 1.419 . S
C1113 H1117 0.930 . S
C1114 C1113 1.369 . S
C1114 C1123 1.429 . S
C1115 C1113 1.419 . S
C1115 C1116 1.363 . S
C1115 H1118 0.929 . S
C1116 C1115 1.363 . S
C1116 C1122 1.428 . S
H1117 C1113 0.930 . S
H1118 C1115 0.929 . S
S1119 N1120 1.613 . S
S1119 N1121 1.610 . S
N1120 S1119 1.613 . S
N1120 C1123 1.350 . S
N1121 S1119 1.610 . S
N1121 C1122 1.351 . S
C1122 C1116 1.428 . S
C1122 N1121 1.351 . S
C1122 C1123 1.434 . S
C1123 C1114 1.429 . S
C1123 N1120 1.350 . S
C1123 C1122 1.434 . S
C1124 C1125 1.369 . S
C1124 C1126 1.419 . S
C1124 H1128 0.930 . S
C1125 C1124 1.369 . S
C1125 C1134 1.429 . S
C1126 C1124 1.419 . S
C1126 C1127 1.363 . S
C1126 H1129 0.929 . S
C1127 C1126 1.363 . S
C1127 C1133 1.428 . S
H1128 C1124 0.930 . S
H1129 C1126 0.929 . S
S1130 N1131 1.613 . S
S1130 N1132 1.610 . S
N1131 S1130 1.613 . S
N1131 C1134 1.350 . S
N1132 S1130 1.610 . S
N1132 C1133 1.351 . S
C1133 C1127 1.428 . S
C1133 N1132 1.351 . S
C1133 C1134 1.434 . S
C1134 C1125 1.429 . S
C1134 N1131 1.350 . S
C1134 C1133 1.434 . S
C1135 C1136 1.369 . S
C1135 C1137 1.419 . S
C1135 H1139 0.930 . S
C1136 C1135 1.369 . S
C1136 C1145 1.429 1_545 S
C1137 C1135 1.419 . S
C1137 C1138 1.363 . S
C1137 H1140 0.929 . S
C1138 C1137 1.363 . S
C1138 C1144 1.428 . S
H1139 C1135 0.930 . S
H1140 C1137 0.929 . S
S1141 N1142 1.613 . S
S1141 N1143 1.610 . S
N1142 S1141 1.613 . S
N1142 C1145 1.350 . S
N1143 S1141 1.610 . S
N1143 C1144 1.351 1_565 S
C1144 C1138 1.428 . S
C1144 N1143 1.351 1_545 S
C1144 C1145 1.434 1_545 S
C1145 C1136 1.429 1_565 S
C1145 N1142 1.350 . S
C1145 C1144 1.434 1_565 S
C1146 C1147 1.369 . S
C1146 C1148 1.419 . S
C1146 H1150 0.930 . S
C1147 C1146 1.369 . S
C1147 C1156 1.429 . S
C1148 C1146 1.419 . S
C1148 C1149 1.363 . S
C1148 H1151 0.929 . S
C1149 C1148 1.363 . S
C1149 C1155 1.428 . S
H1150 C1146 0.930 . S
H1151 C1148 0.929 . S
S1152 N1153 1.613 . S
S1152 N1154 1.610 . S
N1153 S1152 1.613 . S
N1153 C1156 1.350 . S
N1154 S1152 1.610 . S
N1154 C1155 1.351 . S
C1155 C1149 1.428 . S
C1155 N1154 1.351 . S
C1155 C1156 1.434 . S
C1156 C1147 1.429 . S
C1156 N1153 1.350 . S
C1156 C1155 1.434 . S
C1157 C1158 1.369 . S
C1157 C1159 1.419 1_565 S
C1157 H1161 0.930 1_565 S
C1158 C1157 1.369 . S
C1158 C1167 1.429 . S
C1159 C1157 1.419 1_545 S
C1159 C1160 1.363 1_545 S
C1159 H1162 0.929 . S
C1160 C1159 1.363 1_565 S
C1160 C1166 1.428 . S
H1161 C1157 0.930 1_545 S
H1162 C1159 0.929 . S
S1163 N1164 1.613 . S
S1163 N1165 1.610 . S
N1164 S1163 1.613 . S
N1164 C1167 1.350 . S
N1165 S1163 1.610 . S
N1165 C1166 1.351 . S
C1166 C1160 1.428 . S
C1166 N1165 1.351 . S
C1166 C1167 1.434 . S
C1167 C1158 1.429 . S
C1167 N1164 1.350 . S
C1167 C1166 1.434 . S
C641 C8 1.168 . S
C643 C509 1.184 . S
C652 C229 1.176 . S
C654 C48 1.178 . S
C663 C88 1.186 . S
C665 C589 1.171 . S
C674 C128 1.170 1_554 S
C676 C309 1.183 1_556 S
C685 C189 1.186 . S
C687 C328 1.171 . S
C696 C408 1.173 . S
C698 C269 1.180 . S
C707 C549 1.185 1_556 S
C709 C368 1.147 1_554 S
C718 C448 1.186 . S
C720 C629 1.171 . S
C729 C362 2.485 . S
C731 C29 2.421 1_556 S
C740 C69 2.417 . S
C742 C402 2.486 . S
C751 C109 2.416 . S
C753 C442 2.485 . S
C762 C322 2.488 . S
C764 C149 2.416 . S
C773 C537 2.481 . S
C775 C168 2.422 1_554 S
C784 C577 2.482 . S
C786 C208 2.418 . S
C795 C248 2.423 . S
C797 C617 2.485 . S
C806 C497 2.487 . S
C808 C288 2.416 . S
C817 C349 2.412 . S
C819 C42 2.487 . S
C828 C389 2.413 . S
C830 C82 2.488 . S
C839 C429 2.421 1_556 S
C841 C122 2.483 . S
C850 C2 2.483 . S
C852 C469 2.419 . S
C861 C217 2.483 . S
C863 C488 2.420 . S
C872 C528 2.413 . S
C874 C257 2.487 . S
C883 C297 2.485 . S
C885 C568 2.419 1_554 S
C894 C608 2.419 . S
C896 C177 2.485 . S
C905 C31 2.938 . S
C907 C431 2.939 . S
C916 C71 2.939 . S
C918 C471 2.939 . S
C927 C351 2.940 . S
C929 C111 2.940 . S
C938 C151 2.940 . S
C940 C391 2.940 . S
C949 C172 2.939 . S
C951 C572 2.939 . S
C960 C212 2.938 . S
C962 C612 2.939 . S
C971 C492 2.939 . S
C973 C252 2.940 . S
C982 C292 2.939 . S
C984 C532 2.940 . S
C993 C17 1.979 . S
C995 C311 2.312 . S
C1004 C511 2.307 . S
C1006 C57 1.985 . S
C1015 C97 1.984 . S
C1017 C231 2.308 . S
C1026 C137 1.985 1_455 S
C1028 C591 2.308 . S
C1037 C162 1.988 . S
C1039 C132 2.309 . S
C1048 C332 2.311 . S
C1050 C202 1.979 . S
C1059 C242 1.990 . S
C1061 C52 2.307 . S
C1070 C412 2.310 . S
C1072 C282 1.984 1_655 S
C1081 C337 1.982 . S
C1083 C631 2.310 . S
C1092 C191 2.312 . S
C1094 C377 1.979 1_655 S
C1103 C551 2.312 . S
C1105 C417 1.980 . S
C1114 C457 1.977 . S
C1116 C271 2.312 . S
C1125 C482 1.988 . S
C1127 C452 2.309 . S
C1136 C522 1.984 1_455 S
C1138 C12 2.311 . S
C1147 C372 2.313 . S
C1149 C562 1.981 . S
C1158 C92 2.307 . S
C1160 C602 1.985 . S
