# Generated by pormake.
# Topology ecv, (8)-cn, num edge types: 1
# Building blocks:
#     Node 0, Type 0, BuildingBlock: VETTIZ_charged_sbu_0, # of connection points: 8
#     Node 1, Type 0, BuildingBlock: VETTIZ_charged_sbu_0, # of connection points: 8
#     Node 2, Type 0, BuildingBlock: VETTIZ_charged_sbu_0, # of connection points: 8
#     Node 3, Type 0, BuildingBlock: VETTIZ_charged_sbu_0, # of connection points: 8
#     Node 4, Type 0, BuildingBlock: VETTIZ_charged_sbu_0, # of connection points: 8
#     Node 5, Type 0, BuildingBlock: VETTIZ_charged_sbu_0, # of connection points: 8
#     Node 6, Type 0, BuildingBlock: VETTIZ_charged_sbu_0, # of connection points: 8
#     Node 7, Type 0, BuildingBlock: VETTIZ_charged_sbu_0, # of connection points: 8
#     Node 8, Type 0, BuildingBlock: VETTIZ_charged_sbu_0, # of connection points: 8
#     Node 9, Type 0, BuildingBlock: VETTIZ_charged_sbu_0, # of connection points: 8
#     Node 10, Type 0, BuildingBlock: VETTIZ_charged_sbu_0, # of connection points: 8
#     Node 11, Type 0, BuildingBlock: VETTIZ_charged_sbu_0, # of connection points: 8
#     Node 12, Type 0, BuildingBlock: VETTIZ_charged_sbu_0, # of connection points: 8
#     Node 13, Type 0, BuildingBlock: VETTIZ_charged_sbu_0, # of connection points: 8
#     Node 14, Type 0, BuildingBlock: VETTIZ_charged_sbu_0, # of connection points: 8
#     Node 15, Type 0, BuildingBlock: VETTIZ_charged_sbu_0, # of connection points: 8
#     Edge 16, Type (0, 0), None
#     Edge 17, Type (0, 0), None
#     Edge 18, Type (0, 0), None
#     Edge 19, Type (0, 0), None
#     Edge 20, Type (0, 0), None
#     Edge 21, Type (0, 0), None
#     Edge 22, Type (0, 0), None
#     Edge 23, Type (0, 0), None
#     Edge 24, Type (0, 0), None
#     Edge 25, Type (0, 0), None
#     Edge 26, Type (0, 0), None
#     Edge 27, Type (0, 0), None
#     Edge 28, Type (0, 0), None
#     Edge 29, Type (0, 0), None
#     Edge 30, Type (0, 0), None
#     Edge 31, Type (0, 0), None
#     Edge 32, Type (0, 0), None
#     Edge 33, Type (0, 0), None
#     Edge 34, Type (0, 0), None
#     Edge 35, Type (0, 0), None
#     Edge 36, Type (0, 0), None
#     Edge 37, Type (0, 0), None
#     Edge 38, Type (0, 0), None
#     Edge 39, Type (0, 0), None
#     Edge 40, Type (0, 0), None
#     Edge 41, Type (0, 0), None
#     Edge 42, Type (0, 0), None
#     Edge 43, Type (0, 0), None
#     Edge 44, Type (0, 0), None
#     Edge 45, Type (0, 0), None
#     Edge 46, Type (0, 0), None
#     Edge 47, Type (0, 0), None
#     Edge 48, Type (0, 0), None
#     Edge 49, Type (0, 0), None
#     Edge 50, Type (0, 0), None
#     Edge 51, Type (0, 0), None
#     Edge 52, Type (0, 0), None
#     Edge 53, Type (0, 0), None
#     Edge 54, Type (0, 0), None
#     Edge 55, Type (0, 0), None
#     Edge 56, Type (0, 0), None
#     Edge 57, Type (0, 0), None
#     Edge 58, Type (0, 0), None
#     Edge 59, Type (0, 0), None
#     Edge 60, Type (0, 0), None
#     Edge 61, Type (0, 0), None
#     Edge 62, Type (0, 0), None
#     Edge 63, Type (0, 0), None
#     Edge 64, Type (0, 0), None
#     Edge 65, Type (0, 0), None
#     Edge 66, Type (0, 0), None
#     Edge 67, Type (0, 0), None
#     Edge 68, Type (0, 0), None
#     Edge 69, Type (0, 0), None
#     Edge 70, Type (0, 0), None
#     Edge 71, Type (0, 0), None
#     Edge 72, Type (0, 0), None
#     Edge 73, Type (0, 0), None
#     Edge 74, Type (0, 0), None
#     Edge 75, Type (0, 0), None
#     Edge 76, Type (0, 0), None
#     Edge 77, Type (0, 0), None
#     Edge 78, Type (0, 0), None
#     Edge 79, Type (0, 0), None
# Relax obj value: 0.130
# Max RMSD: 0.230
# Mean RMSD: 0.230
data_MOF--net-ecv--node1-VETTIZ_charged_sbu_0--edge1-none
_symmetry_space_group_name_H-M    P1
_symmetry_Int_Tables_number       1
_symmetry_cell_setting            triclinic
loop_
_symmetry_equiv_pos_as_xyz
'x, y, z'
_cell_length_a     10.821884
_cell_length_b     12.227888
_cell_length_c     59.061151
_cell_angle_alpha  90.040374
_cell_angle_beta   89.65379
_cell_angle_gamma 91.296779
loop_
_atom_site_label
_atom_site_type_symbol
_atom_site_fract_x
_atom_site_fract_y
_atom_site_fract_z
_atom_type_partial_charge
Fe0 Fe 0.15047 0.328 0.40526 0.0
O1 O 0.13468 0.21422 0.42714 0.0
Fe2 Fe 0.15604 1.03586 0.41829 0.0
Fe3 Fe 0.09595 0.21699 0.4612 0.0
O4 O 0.14085 0.1991 0.42611 0.0
O5 O 0.20416 0.07857 0.45186 0.0
O6 O 0.18439 0.0867 0.45806 0.0
Fe7 Fe 0.16444 0.99346 0.48183 0.0
C8 C 0.33793 0.36309 0.4431 0.0
O9 O 1.00891 0.40044 0.42334 0.0
O10 O 1.01447 0.35759 0.46085 0.0
O11 O 0.07013 0.86837 0.46198 0.0
O12 O 1.00842 0.98824 0.43667 0.0
O13 O 0.01873 0.0713 0.39413 0.0
O14 O 1.01583 0.25332 0.38621 0.0
O15 O 0.02987 0.16807 0.49645 0.0
O16 O 0.9832 1.02511 0.48072 0.0
C17 C 0.97064 0.1558 0.3848 0.0
O18 O 0.33554 0.94361 0.47557 0.0
O19 O 0.30952 0.97849 0.43806 0.0
O20 O 0.28478 0.39517 0.42503 0.0
O21 O 0.28003 0.30435 0.45879 0.0
C22 C 0.96899 0.4047 0.44389 0.0
C23 C 0.99576 0.0658 0.4989 0.0
C24 C 0.25061 0.25554 0.49929 0.0
O25 O 0.23586 0.28991 0.47907 0.0
O26 O 0.23916 0.14666 0.50304 0.0
C27 C 0.99191 0.89747 0.4465 0.0
O28 O 0.307 0.07679 0.39827 0.0
O29 O 0.2938 0.25205 0.38709 0.0
C30 C 0.37551 0.94838 0.45507 0.0
C31 C 0.34723 0.15878 0.38699 0.0
Fe32 Fe 0.13088 0.26714 0.84621 0.0
O33 O 0.07474 0.27232 0.81412 0.0
Fe34 Fe 0.1463 0.993 0.85691 0.0
Fe35 Fe 0.12572 0.38926 0.79231 0.0
O36 O 0.17942 0.11773 0.83743 0.0
O37 O 0.18302 0.11213 0.83479 0.0
O38 O 0.07714 0.26676 0.8122 0.0
Fe39 Fe 0.12611 0.11941 0.80215 0.0
C40 C 0.98915 0.45937 0.83315 0.0
O41 O 0.30106 0.31911 0.83787 0.0
O42 O 0.28881 0.42141 0.80666 0.0
O43 O 0.23912 0.96981 0.7999 0.0
O44 O 0.28243 0.92247 0.83668 0.0
O45 O 0.27939 0.06579 0.87614 0.0
O46 O 0.22059 0.24433 0.87761 0.0
O47 O 0.2269 0.28023 0.76761 0.0
O48 O 0.29179 0.1708 0.79194 0.0
C49 C 0.29979 0.16681 0.88129 0.0
O50 O 0.95681 0.0605 0.81303 0.0
O51 O 1.00646 0.93168 0.83738 0.0
O52 O 0.05933 0.42384 0.84933 0.0
O53 O 0.03765 0.49217 0.81447 0.0
C54 C 0.34719 0.38126 0.8231 0.0
C55 C 0.28102 0.18092 0.77015 0.0
C56 C 0.99098 0.29304 0.76583 0.0
O57 O 0.95866 0.34396 0.78264 0.0
O58 O 0.03749 0.19189 0.76901 0.0
C59 C 0.31557 0.93113 0.81551 0.0
O60 O 1.00529 0.07034 0.87627 0.0
O61 O 0.95778 0.21785 0.85662 0.0
C62 C 0.92503 0.98897 0.82774 0.0
C63 C 0.93157 0.14869 0.87186 0.0
Fe64 Fe 0.89923 1.03153 0.59891 0.0
O65 O 0.897 0.86951 0.58993 0.0
Fe66 Fe 0.89168 0.0822 0.53554 0.0
Fe67 Fe 0.88628 0.74236 0.60989 0.0
O68 O 0.83637 1.00392 0.56527 0.0
O69 O 0.86952 0.97955 0.55933 0.0
O70 O 0.88791 0.85425 0.58742 0.0
Fe71 Fe 0.93199 0.82764 0.55392 0.0
C72 C 0.05684 0.90923 0.6352 0.0
O73 O 0.73172 0.99759 0.61535 0.0
O74 O 0.73559 0.8186 0.62578 0.0
O75 O 0.76801 0.80537 0.53788 0.0
O76 O 0.79606 0.94385 0.5137 0.0
O77 O 0.73686 0.16603 0.54215 0.0
O78 O 0.79146 0.12726 0.57713 0.0
O79 O 0.76209 0.6659 0.58937 0.0
O80 O 0.74514 0.76154 0.55653 0.0
C81 C 0.72849 0.1837 0.56341 0.0
O82 O 1.00318 0.88053 0.51937 0.0
O83 O 0.06015 1.02301 0.53519 0.0
O84 O 1.01016 0.99781 0.62753 0.0
O85 O 1.01523 0.81474 0.63007 0.0
C86 C 0.68176 0.91247 0.62451 0.0
C87 C 0.69831 0.70104 0.57286 0.0
C88 C 0.11563 0.73241 0.57885 0.0
O89 O 0.03472 0.68274 0.59172 0.0
O90 O 0.09878 0.82399 0.56851 0.0
C91 C 0.76836 0.83795 0.51743 0.0
O92 O 0.99927 0.19012 0.55586 0.0
O93 O 0.05816 0.07057 0.58264 0.0
C94 C 0.04241 0.98193 0.51706 0.0
C95 C 0.07974 0.15314 0.56995 0.0
Fe96 Fe 0.86872 0.15462 0.22477 0.0
O97 O 0.87111 1.0496 0.20156 0.0
Fe98 Fe 0.88129 0.07182 0.16189 0.0
Fe99 Fe 0.84845 0.89371 0.21199 0.0
O100 O 0.87107 1.04973 0.19754 0.0
O101 O 0.89927 0.9143 0.17583 0.0
O102 O 0.90065 0.8928 0.178 0.0
Fe103 Fe 0.87267 0.76335 0.16181 0.0
C104 C 1.01678 0.9322 0.24584 0.0
O105 O 0.69645 0.09858 0.22979 0.0
O106 O 0.77262 0.96002 0.24575 0.0
O107 O 0.71758 0.82026 0.14595 0.0
O108 O 0.72374 1.00335 0.14686 0.0
O109 O 0.73441 0.15355 0.17544 0.0
O110 O 0.78033 0.26311 0.20467 0.0
O111 O 0.67881 0.8691 0.20097 0.0
O112 O 0.76776 0.71834 0.18821 0.0
C113 C 0.70575 0.22645 0.18981 0.0
O114 O 0.9869 0.81204 0.13602 0.0
O115 O 0.02918 0.99099 0.14387 0.0
O116 O 0.96695 1.0353 0.24805 0.0
O117 O 0.02189 0.90764 0.22422 0.0
C118 C 0.72598 0.0591 0.24771 0.0
C119 C 0.67303 0.77266 0.1928 0.0
C120 C 0.08409 0.7605 0.19501 0.0
O121 O 0.03921 0.83468 0.20885 0.0
O122 O 0.02184 0.71437 0.17902 0.0
C123 C 0.66762 0.91317 0.14286 0.0
O124 O 0.01838 0.16884 0.17619 0.0
O125 O 0.02407 0.21403 0.21404 0.0
C126 C 0.05567 0.89786 0.13444 0.0
C127 C 0.05818 0.22218 0.19353 0.0
Fe128 Fe 0.14077 0.86081 0.90714 0.0
O129 O 0.12448 0.73548 0.92618 0.0
Fe130 Fe 0.14941 0.55773 0.91481 0.0
Fe131 Fe 0.08031 0.726 0.96029 0.0
O132 O 0.12681 0.71811 0.92522 0.0
O133 O 0.16758 0.58801 0.9498 0.0
O134 O 0.15184 0.58664 0.95456 0.0
Fe135 Fe 0.14404 0.49387 0.97873 0.0
C136 C 0.32678 0.86598 0.94449 0.0
O137 O 0.99359 0.91438 0.92544 0.0
O138 O 0.02132 0.87504 0.96249 0.0
O139 O 0.05438 0.37105 0.95855 0.0
O140 O 0.99903 0.47541 0.92919 0.0
O141 O 1.0066 0.61318 0.89328 0.0
O142 O 1.01407 0.79334 0.88401 0.0
O143 O 1.01071 0.66685 0.99476 0.0
O144 O 0.96179 0.52079 0.97923 0.0
C145 C 0.96403 0.697 0.88277 0.0
O146 O 0.31605 0.45504 0.97096 0.0
O147 O 0.30046 0.49486 0.93328 0.0
O148 O 0.26344 0.92041 0.93026 0.0
O149 O 0.27301 0.79625 0.95855 0.0
C150 C 0.96106 0.91357 0.94637 0.0
C151 C 0.97621 0.56389 0.9972 0.0
C152 C 0.23422 0.74907 0.99869 0.0
O153 O 0.22597 0.78441 0.97858 0.0
O154 O 0.21899 0.64063 1.00161 0.0
C155 C 0.97421 0.39884 0.94338 0.0
O156 O 0.30152 0.62984 0.89865 0.0
O157 O 0.29637 0.8068 0.88915 0.0
C158 C 0.36107 0.46494 0.95088 0.0
C159 C 0.35171 0.71555 0.88978 0.0
Fe160 Fe 0.13505 0.8234 0.34529 0.0
O161 O 0.08747 0.79525 0.30967 0.0
Fe162 Fe 0.15536 0.53787 0.35557 0.0
Fe163 Fe 0.18456 0.877 0.2815 0.0
O164 O 0.17298 0.66836 0.3337 0.0
O165 O 0.17519 0.65508 0.33071 0.0
O166 O 0.0853 0.75235 0.29546 0.0
Fe167 Fe 0.15084 0.60521 0.29659 0.0
C168 C 0.99972 0.97284 0.31354 0.0
O169 O 0.27535 0.91832 0.33513 0.0
O170 O 0.32693 0.86331 0.30179 0.0
O171 O 0.25781 0.47061 0.30636 0.0
O172 O 0.3085 0.47929 0.34244 0.0
O173 O 0.27522 0.61607 0.37645 0.0
O174 O 0.25365 0.79717 0.37308 0.0
O175 O 0.25268 0.74357 0.25935 0.0
O176 O 0.31431 0.64336 0.28527 0.0
C177 C 0.31249 0.71325 0.38004 0.0
O178 O 0.99028 0.55428 0.30685 0.0
O179 O 0.04116 0.44456 0.33508 0.0
O180 O 1.01271 0.87645 0.32133 0.0
O181 O 0.08263 1.00462 0.29891 0.0
C182 C 0.33152 0.93387 0.317 0.0
C183 C 0.29111 0.64746 0.26474 0.0
C184 C 0.98071 0.81688 0.2621 0.0
O185 O 0.05291 0.89268 0.26086 0.0
O186 O 0.03351 0.73627 0.27459 0.0
C187 C 0.34139 0.47813 0.32197 0.0
O188 O 0.99738 0.59613 0.37152 0.0
O189 O 0.97416 0.76685 0.36006 0.0
C190 C 0.97258 0.4716 0.31871 0.0
C191 C 0.93574 0.68344 0.37081 0.0
Fe192 Fe 0.8816 0.50708 0.09347 0.0
O193 O 0.90367 0.34893 0.08919 0.0
Fe194 Fe 0.87562 0.58143 0.03686 0.0
Fe195 Fe 0.8869 0.23125 0.10954 0.0
O196 O 0.82161 0.48358 0.06193 0.0
O197 O 0.8553 0.47281 0.0596 0.0
O198 O 0.88353 0.33891 0.08625 0.0
Fe199 Fe 0.92992 0.32428 0.05297 0.0
C200 C 0.03574 0.422 0.13264 0.0
O201 O 0.7122 0.47137 0.10939 0.0
O202 O 0.72742 0.30036 0.12413 0.0
O203 O 0.7643 0.30006 0.03755 0.0
O204 O 0.77607 0.4471 0.01462 0.0
O205 O 0.73676 0.65852 0.05253 0.0
O206 O 0.81875 0.6663 0.08912 0.0
O207 O 0.77156 0.14402 0.08784 0.0
O208 O 0.74978 0.24485 0.05557 0.0
C209 C 0.7409 0.69469 0.0733 0.0
O210 O 0.99041 0.37908 0.01781 0.0
O211 O 0.04241 0.52374 0.03314 0.0
O212 O 0.98071 0.50709 0.12441 0.0
O213 O 0.99861 0.32325 0.1295 0.0
C214 C 0.67069 0.39209 0.12174 0.0
C215 C 0.70585 0.17912 0.07135 0.0
C216 C 0.12924 0.24641 0.08123 0.0
O217 O 0.04991 0.18637 0.0929 0.0
O218 O 0.10035 0.32733 0.06811 0.0
C219 C 0.75481 0.33899 0.01765 0.0
O220 O 0.99588 0.67953 0.05689 0.0
O221 O 0.05226 0.54777 0.08031 0.0
C222 C 0.02553 0.48141 0.01521 0.0
C223 C 0.07749 0.6357 0.06965 0.0
Fe224 Fe 0.88834 0.60505 0.73049 0.0
O225 O 0.88408 0.49902 0.70725 0.0
Fe226 Fe 0.90384 0.52201 0.66759 0.0
Fe227 Fe 0.87616 0.34261 0.71755 0.0
O228 O 0.88015 0.50061 0.70314 0.0
O229 O 0.92034 0.36554 0.68128 0.0
O230 O 0.92243 0.34588 0.68331 0.0
Fe231 Fe 0.9104 0.21602 0.66668 0.0
C232 C 0.03799 0.3867 0.74932 0.0
O233 O 0.71657 0.55036 0.73811 0.0
O234 O 0.80466 0.41478 0.75195 0.0
O235 O 0.75369 0.26627 0.64889 0.0
O236 O 0.75458 0.45039 0.65069 0.0
O237 O 0.74835 0.59811 0.68187 0.0
O238 O 0.78118 0.70688 0.71178 0.0
O239 O 0.70423 0.308 0.70743 0.0
O240 O 0.79753 0.16228 0.69242 0.0
C241 C 0.70838 0.66271 0.69727 0.0
O242 O 0.02861 0.27233 0.64192 0.0
O243 O 0.05373 0.45325 0.64915 0.0
O244 O 1.00263 0.4883 0.75226 0.0
O245 O 0.04814 0.35963 0.72894 0.0
C246 C 0.76018 0.51395 0.75526 0.0
C247 C 0.70065 0.21312 0.6982 0.0
C248 C 0.1307 0.23644 0.69911 0.0
O249 O 0.07794 0.3069 0.71275 0.0
O250 O 0.06723 0.17869 0.68469 0.0
C251 C 0.70442 0.3594 0.64488 0.0
O252 O 0.04895 0.60755 0.6821 0.0
O253 O 0.04338 0.66545 0.71866 0.0
C254 C 0.08966 0.36259 0.64026 0.0
C255 C 0.09387 0.65595 0.69942 0.0
Fe256 Fe 0.63601 0.3406 0.90586 0.0
O257 O 0.62133 0.22605 0.92729 0.0
Fe258 Fe 0.62583 1.04381 0.91781 0.0
Fe259 Fe 0.58722 0.22634 0.96148 0.0
O260 O 0.62513 0.2084 0.92637 0.0
O261 O 0.67267 0.08309 0.95134 0.0
O262 O 0.66014 0.08709 0.95662 0.0
Fe263 Fe 0.63893 0.99327 0.98044 0.0
C264 C 0.84043 0.35753 0.94191 0.0
O265 O 0.51759 0.42286 0.92647 0.0
O266 O 0.52311 0.37388 0.96344 0.0
O267 O 0.53995 0.87187 0.96084 0.0
O268 O 0.47745 0.99383 0.93605 0.0
O269 O 0.47946 0.10351 0.89872 0.0
O270 O 0.47668 0.28326 0.8899 0.0
O271 O 0.51787 0.17369 0.99635 0.0
O272 O 0.45942 1.03304 0.98046 0.0
C273 C 0.42465 0.18813 0.89109 0.0
O274 O 0.80415 0.93803 0.97239 0.0
O275 O 0.77463 0.97072 0.93472 0.0
O276 O 0.78832 0.38971 0.92362 0.0
O277 O 0.77985 0.30232 0.95803 0.0
C278 C 0.48192 0.42808 0.94713 0.0
C279 C 0.47803 0.07252 0.99859 0.0
C280 C 0.74364 0.2485 0.99855 0.0
O281 O 0.73724 0.28388 0.97829 0.0
O282 O 0.72446 0.14034 1.00201 0.0
C283 C 0.45969 0.90378 0.94613 0.0
O284 O 0.77775 0.08615 0.89802 0.0
O285 O 0.7589 0.25621 0.88439 0.0
C286 C 0.83846 0.93705 0.95151 0.0
C287 C 0.81513 0.16457 0.88544 0.0
Fe288 Fe 0.65846 0.29915 0.34732 0.0
O289 O 0.64091 0.27586 0.31188 0.0
Fe290 Fe 0.65873 0.99497 0.35023 0.0
Fe291 Fe 0.64555 0.38097 0.28506 0.0
O292 O 0.66547 0.14074 0.33435 0.0
O293 O 0.66823 0.1213 0.33215 0.0
O294 O 0.63952 0.27422 0.30805 0.0
Fe295 Fe 0.61537 0.11883 0.29808 0.0
C296 C 0.47086 0.44289 0.31946 0.0
O297 O 0.80464 0.37729 0.33213 0.0
O298 O 0.81205 0.42847 0.29529 0.0
O299 O 0.81474 0.07517 0.30108 0.0
O300 O 0.80268 0.94902 0.32962 0.0
O301 O 0.79317 1.05201 0.37234 0.0
O302 O 0.80862 0.23153 0.36387 0.0
O303 O 0.73576 0.25656 0.26115 0.0
O304 O 0.78413 0.12736 0.28439 0.0
C305 C 0.85138 0.14425 0.3726 0.0
O306 O 0.448 0.09111 0.31082 0.0
O307 O 0.53187 0.94166 0.32707 0.0
O308 O 0.50386 0.37334 0.33416 0.0
O309 O 0.54971 0.48723 0.30567 0.0
C310 C 0.85877 0.41755 0.31489 0.0
C311 C 0.76959 0.15434 0.2641 0.0
C312 C 0.48957 0.29527 0.26259 0.0
O313 O 0.46991 0.3368 0.28058 0.0
O314 O 0.53427 0.19475 0.26445 0.0
C315 C 0.86618 1.00449 0.31475 0.0
O316 O 0.51189 1.05125 0.37066 0.0
O317 O 0.51186 0.23309 0.36533 0.0
C318 C 0.44054 0.9951 0.31951 0.0
C319 C 0.46379 0.14586 0.37346 0.0
Fe320 Fe 0.38353 1.00254 0.094 0.0
O321 O 0.40576 0.84499 0.08894 0.0
Fe322 Fe 0.37376 0.08113 0.03762 0.0
Fe323 Fe 0.39087 0.72436 0.10867 0.0
O324 O 0.32097 0.98208 0.06255 0.0
O325 O 0.35409 0.9716 0.06009 0.0
O326 O 0.38538 0.83511 0.08608 0.0
Fe327 Fe 0.43035 0.82457 0.05269 0.0
C328 C 0.54225 0.91044 0.13227 0.0
O329 O 0.21617 0.9641 0.10997 0.0
O330 O 0.23286 0.79225 0.12422 0.0
O331 O 0.26467 0.79887 0.03749 0.0
O332 O 0.27426 0.94734 0.01498 0.0
O333 O 0.23472 0.15677 0.05365 0.0
O334 O 0.31638 0.16168 0.09035 0.0
O335 O 0.27285 0.64014 0.08704 0.0
O336 O 0.25103 0.74404 0.05523 0.0
C337 C 0.23861 0.19146 0.07455 0.0
O338 O 0.48898 0.88376 0.01776 0.0
O339 O 0.54186 1.02467 0.03418 0.0
O340 O 0.48575 0.99661 0.12471 0.0
O341 O 0.50569 0.81213 0.1287 0.0
C342 C 0.17575 0.88411 0.12216 0.0
C343 C 0.20727 0.6768 0.07071 0.0
C344 C 0.63064 0.74659 0.08011 0.0
O345 O 0.55186 0.68288 0.09109 0.0
O346 O 0.60098 0.82875 0.06743 0.0
C347 C 0.25253 0.83899 0.01777 0.0
O348 O 0.49355 0.17965 0.05777 0.0
O349 O 0.55303 1.04711 0.0807 0.0
C350 C 0.52562 0.986 0.01593 0.0
C351 C 0.57626 0.13654 0.0704 0.0
Fe352 Fe 0.4376 0.10579 0.73397 0.0
O353 O 0.3265 0.98514 0.72141 0.0
Fe354 Fe 0.39214 1.04743 0.66968 0.0
Fe355 Fe 0.39389 0.83999 0.7199 0.0
O356 O 0.33645 1.02626 0.706 0.0
O357 O 0.42068 0.89342 0.68256 0.0
O358 O 0.41903 0.88187 0.68542 0.0
Fe359 Fe 0.39336 0.75911 0.6621 0.0
C360 C 0.54523 0.8706 0.75091 0.0
O361 O 0.31225 0.13474 0.7555 0.0
O362 O 0.28158 0.97695 0.74249 0.0
O363 O 0.23245 0.81885 0.6488 0.0
O364 O 0.22524 0.99775 0.6551 0.0
O365 O 0.27681 0.10838 0.69381 0.0
O366 O 0.34374 0.23669 0.71588 0.0
O367 O 0.22996 0.78482 0.71123 0.0
O368 O 0.29003 0.67151 0.6845 0.0
C369 C 0.26511 0.2068 0.70048 0.0
O370 O 0.50515 0.82779 0.6388 0.0
O371 O 0.50913 1.01012 0.64184 0.0
O372 O 0.49302 0.96825 0.75661 0.0
O373 O 0.55959 0.88425 0.72882 0.0
C374 C 0.23635 0.06196 0.75521 0.0
C375 C 0.20803 0.71112 0.69702 0.0
C376 C 0.57984 0.69813 0.69451 0.0
O377 O 0.49779 0.70056 0.71067 0.0
O378 O 0.54782 0.70069 0.67406 0.0
C379 C 0.17674 0.90936 0.64776 0.0
O380 O 0.54237 0.135 0.67932 0.0
O381 O 0.57596 0.07985 0.71311 0.0
C382 C 0.55585 0.91968 0.63505 0.0
C383 C 0.58961 0.15089 0.69824 0.0
Fe384 Fe 0.65226 0.86442 0.40841 0.0
O385 O 0.63496 0.74239 0.42793 0.0
Fe386 Fe 0.63286 0.56125 0.41639 0.0
Fe387 Fe 0.60213 0.73551 0.46225 0.0
O388 O 0.63681 0.72399 0.42688 0.0
O389 O 0.67394 0.59164 0.45061 0.0
O390 O 0.66155 0.59112 0.45538 0.0
Fe391 Fe 0.65091 0.49617 0.47922 0.0
C392 C 0.85949 0.85833 0.44388 0.0
O393 O 0.53466 0.94017 0.43001 0.0
O394 O 0.55893 0.8886 0.46619 0.0
O395 O 0.55057 0.37839 0.45944 0.0
O396 O 0.48305 0.49936 0.43431 0.0
O397 O 0.48365 0.63455 0.39895 0.0
O398 O 0.49444 0.81601 0.39108 0.0
O399 O 0.53344 0.68074 0.49692 0.0
O400 O 0.47365 0.53666 0.48158 0.0
C401 C 0.43614 0.72352 0.39128 0.0
O402 O 0.81501 0.44686 0.46922 0.0
O403 O 0.7869 0.48183 0.43142 0.0
O404 O 0.80594 0.9027 0.42686 0.0
O405 O 0.79877 0.79809 0.45899 0.0
C406 C 0.50256 0.93679 0.45084 0.0
C407 C 0.49224 0.57994 0.49944 0.0
C408 C 0.76228 0.74443 0.49878 0.0
O409 O 0.75969 0.77796 0.47847 0.0
O410 O 0.73891 0.63732 0.50202 0.0
C411 C 0.46637 0.41171 0.44566 0.0
O412 O 0.78204 0.61175 0.39621 0.0
O413 O 0.7702 0.78776 0.3857 0.0
C414 C 0.85091 0.44831 0.4484 0.0
C415 C 0.82047 0.69403 0.38467 0.0
Fe416 Fe 0.64191 0.76641 0.83837 0.0
O417 O 0.68112 0.73128 0.80593 0.0
Fe418 Fe 0.64061 0.51001 0.8631 0.0
Fe419 Fe 0.69376 0.83892 0.78262 0.0
O420 O 0.62096 0.605 0.837 0.0
O421 O 0.64962 0.59944 0.83399 0.0
O422 O 0.62721 0.70778 0.80099 0.0
Fe423 Fe 0.67104 0.54611 0.80033 0.0
C424 C 0.44547 0.88069 0.81098 0.0
O425 O 0.7153 0.92448 0.83531 0.0
O426 O 0.82473 0.87651 0.80442 0.0
O427 O 0.78339 0.4313 0.81626 0.0
O428 O 0.79977 0.43626 0.85331 0.0
O429 O 0.7616 0.61674 0.87971 0.0
O430 O 0.81767 0.73596 0.85274 0.0
O431 O 0.80117 0.71555 0.76341 0.0
O432 O 0.83307 0.60195 0.79031 0.0
C433 C 0.84211 0.68202 0.87078 0.0
O434 O 0.51069 0.47657 0.80955 0.0
O435 O 0.52488 0.40399 0.84524 0.0
O436 O 0.4695 0.80404 0.82501 0.0
O437 O 0.53886 0.92715 0.79967 0.0
C438 C 0.81114 0.93346 0.82204 0.0
C439 C 0.81988 0.61346 0.76946 0.0
C440 C 0.50471 0.7364 0.76326 0.0
O441 O 0.56961 0.81151 0.76155 0.0
O442 O 0.55331 0.65932 0.77671 0.0
C443 C 0.84993 0.44774 0.83412 0.0
O444 O 0.49167 0.59451 0.8743 0.0
O445 O 0.54741 0.77414 0.87027 0.0
C446 C 0.47132 0.41794 0.82597 0.0
C447 C 0.47133 0.69654 0.87739 0.0
Fe448 Fe 0.40779 0.50704 0.6009 0.0
O449 O 0.40221 0.34992 0.58892 0.0
Fe450 Fe 0.38166 0.58663 0.53881 0.0
Fe451 Fe 0.40759 0.20905 0.6053 0.0
O452 O 0.34219 0.49135 0.56719 0.0
O453 O 0.37113 0.4809 0.5618 0.0
O454 O 0.39509 0.33535 0.58713 0.0
Fe455 Fe 0.4358 0.33266 0.55313 0.0
C456 C 0.58647 0.36193 0.6316 0.0
O457 O 0.25296 0.44997 0.61932 0.0
O458 O 0.26321 0.26611 0.62574 0.0
O459 O 0.26929 0.31168 0.53815 0.0
O460 O 0.28872 0.4543 0.5152 0.0
O461 O 0.22571 0.65507 0.5491 0.0
O462 O 0.27595 0.61281 0.58526 0.0
O463 O 0.27739 0.14311 0.58445 0.0
O464 O 0.25151 0.26191 0.55541 0.0
C465 C 0.21247 0.66597 0.57058 0.0
O466 O 0.49888 0.39422 0.51885 0.0
O467 O 0.55303 0.53621 0.5355 0.0
O468 O 0.53974 0.45314 0.62511 0.0
O469 O 0.54152 0.2694 0.62603 0.0
C470 C 0.20973 0.35958 0.62771 0.0
C471 C 0.20926 0.18959 0.5699 0.0
C472 C 0.62727 0.23735 0.57273 0.0
O473 O 0.54956 0.17312 0.58337 0.0
O474 O 0.60502 0.33399 0.56545 0.0
C475 C 0.26425 0.34759 0.51805 0.0
O476 O 0.48588 0.69315 0.55958 0.0
O477 O 0.55804 0.56636 0.58348 0.0
C478 C 0.53792 0.4959 0.5172 0.0
C479 C 0.57172 0.65514 0.57228 0.0
Fe480 Fe 0.38431 0.62992 0.22824 0.0
O481 O 0.38206 0.53696 0.20332 0.0
Fe482 Fe 0.38014 0.57422 0.164 0.0
Fe483 Fe 0.34551 0.38008 0.21196 0.0
O484 O 0.38177 0.53855 0.19917 0.0
O485 O 0.39429 0.41152 0.17529 0.0
O486 O 0.39444 0.38817 0.17744 0.0
Fe487 Fe 0.36282 0.26596 0.15929 0.0
C488 C 0.51778 0.39078 0.24482 0.0
O489 O 0.20584 0.57849 0.23245 0.0
O490 O 0.28414 0.4446 0.24769 0.0
O491 O 0.21251 0.33124 0.14419 0.0
O492 O 0.21767 0.51316 0.14856 0.0
O493 O 0.24 0.65683 0.17979 0.0
O494 O 0.28917 0.75031 0.21121 0.0
O495 O 0.17623 0.37303 0.20069 0.0
O496 O 0.25557 0.22185 0.18541 0.0
C497 C 0.21373 0.7249 0.19541 0.0
O498 O 0.47923 0.31951 0.13421 0.0
O499 O 0.5244 0.49524 0.14446 0.0
O500 O 0.48711 0.49429 0.24871 0.0
O501 O 0.51706 0.36372 0.22432 0.0
C502 C 0.24033 0.54399 0.25042 0.0
C503 C 0.16475 0.28141 0.19033 0.0
C504 C 0.57552 0.25231 0.19054 0.0
O505 O 0.53216 0.31984 0.20583 0.0
O506 O 0.51003 0.20591 0.17518 0.0
C507 C 0.16231 0.42454 0.14276 0.0
O508 O 0.5222 0.66426 0.17876 0.0
O509 O 0.5402 0.69319 0.21723 0.0
C510 C 0.54925 0.40499 0.13371 0.0
C511 C 0.56869 0.70946 0.19652 0.0
loop_
_geom_bond_atom_site_label_1
_geom_bond_atom_site_label_2
_geom_bond_distance
_geom_bond_site_symmetry_2
_ccdc_geom_bond_type
Fe0 O1 1.886 . S
Fe0 O4 1.715 . S
Fe0 O9 2.077 1_455 S
Fe0 O14 1.935 1_455 S
Fe0 O20 2.077 . S
Fe0 O29 1.935 . S
O1 Fe0 1.886 . S
O1 Fe3 1.715 . S
Fe2 O4 1.886 1_565 S
Fe2 O5 1.715 . S
Fe2 O12 1.935 . S
Fe2 O13 2.077 1_565 S
Fe2 O19 1.935 . S
Fe2 O28 2.077 1_565 S
Fe3 O1 1.715 . S
Fe3 O6 1.886 . S
Fe3 O10 1.935 1_455 S
Fe3 O15 2.077 1_455 S
Fe3 O21 1.935 . S
Fe3 O25 2.077 . S
O4 Fe0 1.715 . S
O4 Fe2 1.886 1_545 S
O5 Fe2 1.715 . S
O5 Fe7 1.886 . S
O6 Fe3 1.886 . S
O6 Fe7 1.715 1_545 S
Fe7 O5 1.886 . S
Fe7 O6 1.715 1_565 S
Fe7 O11 2.077 . S
Fe7 O16 1.935 1_465 S
Fe7 O18 2.077 . S
Fe7 O26 1.935 1_565 S
C8 O20 1.381 . S
C8 O21 1.421 . S
O9 Fe0 2.077 1_655 S
O9 C22 1.381 . S
O10 Fe3 1.935 1_655 S
O10 C22 1.421 . S
O11 Fe7 2.077 . S
O11 C27 1.381 1_455 S
O12 Fe2 1.935 . S
O12 C27 1.421 1_455 S
O13 Fe2 2.077 1_545 S
O13 C17 1.381 1_455 S
O14 Fe0 1.935 1_655 S
O14 C17 1.421 . S
O15 Fe3 2.077 1_655 S
O15 C23 1.381 . S
O16 Fe7 1.935 1_645 S
O16 C23 1.421 . S
C17 O13 1.381 1_655 S
C17 O14 1.421 . S
O18 Fe7 2.077 . S
O18 C30 1.381 . S
O19 Fe2 1.935 . S
O19 C30 1.421 . S
O20 Fe0 2.077 . S
O20 C8 1.381 . S
O21 Fe3 1.935 . S
O21 C8 1.421 . S
C22 O9 1.381 . S
C22 O10 1.421 . S
C23 O15 1.381 . S
C23 O16 1.421 . S
C24 O25 1.381 . S
C24 O26 1.421 . S
O25 Fe3 2.077 . S
O25 C24 1.381 . S
O26 Fe7 1.935 1_545 S
O26 C24 1.421 . S
C27 O11 1.381 1_655 S
C27 O12 1.421 1_655 S
O28 Fe2 2.077 1_545 S
O28 C31 1.381 . S
O29 Fe0 1.935 . S
O29 C31 1.421 . S
C30 O18 1.381 . S
C30 O19 1.421 . S
C31 O28 1.381 . S
C31 O29 1.421 . S
Fe32 O33 1.886 . S
Fe32 O36 1.715 . S
Fe32 O41 2.077 . S
Fe32 O46 1.935 . S
Fe32 O52 2.077 . S
Fe32 O61 1.935 1_455 S
O33 Fe32 1.886 . S
O33 Fe35 1.715 . S
Fe34 O36 1.886 1_565 S
Fe34 O37 1.715 . S
Fe34 O44 1.935 . S
Fe34 O45 2.077 1_565 S
Fe34 O51 1.935 1_455 S
Fe34 O60 2.077 1_465 S
Fe35 O33 1.715 . S
Fe35 O38 1.886 . S
Fe35 O42 1.935 . S
Fe35 O47 2.077 . S
Fe35 O53 1.935 . S
Fe35 O57 2.077 . S
O36 Fe32 1.715 . S
O36 Fe34 1.886 1_545 S
O37 Fe34 1.715 . S
O37 Fe39 1.886 . S
O38 Fe35 1.886 . S
O38 Fe39 1.715 1_545 S
Fe39 O37 1.886 . S
Fe39 O38 1.715 1_565 S
Fe39 O43 2.077 . S
Fe39 O48 1.935 1_565 S
Fe39 O50 2.077 1_455 S
Fe39 O58 1.935 1_465 S
C40 O52 1.381 1_655 S
C40 O53 1.421 1_655 S
O41 Fe32 2.077 . S
O41 C54 1.381 . S
O42 Fe35 1.935 . S
O42 C54 1.421 . S
O43 Fe39 2.077 . S
O43 C59 1.381 . S
O44 Fe34 1.935 . S
O44 C59 1.421 . S
O45 Fe34 2.077 1_545 S
O45 C49 1.381 . S
O46 Fe32 1.935 . S
O46 C49 1.421 . S
O47 Fe35 2.077 . S
O47 C55 1.381 . S
O48 Fe39 1.935 1_545 S
O48 C55 1.421 . S
C49 O45 1.381 . S
C49 O46 1.421 . S
O50 Fe39 2.077 1_655 S
O50 C62 1.381 . S
O51 Fe34 1.935 1_655 S
O51 C62 1.421 . S
O52 Fe32 2.077 . S
O52 C40 1.381 1_455 S
O53 Fe35 1.935 . S
O53 C40 1.421 1_455 S
C54 O41 1.381 . S
C54 O42 1.421 . S
C55 O47 1.381 . S
C55 O48 1.421 . S
C56 O57 1.381 1_655 S
C56 O58 1.421 . S
O57 Fe35 2.077 . S
O57 C56 1.381 1_455 S
O58 Fe39 1.935 1_645 S
O58 C56 1.421 . S
C59 O43 1.381 . S
C59 O44 1.421 . S
O60 Fe34 2.077 1_645 S
O60 C63 1.381 . S
O61 Fe32 1.935 1_655 S
O61 C63 1.421 . S
C62 O50 1.381 . S
C62 O51 1.421 . S
C63 O60 1.381 . S
C63 O61 1.421 . S
Fe64 O65 1.886 1_545 S
Fe64 O68 1.715 . S
Fe64 O73 2.077 1_545 S
Fe64 O78 1.935 . S
Fe64 O84 2.077 1_545 S
Fe64 O93 1.935 . S
O65 Fe64 1.886 1_565 S
O65 Fe67 1.715 . S
Fe66 O68 1.886 . S
Fe66 O69 1.715 1_545 S
Fe66 O76 1.935 1_545 S
Fe66 O77 2.077 . S
Fe66 O83 1.935 1_645 S
Fe66 O92 2.077 . S
Fe67 O65 1.715 . S
Fe67 O70 1.886 . S
Fe67 O74 1.935 . S
Fe67 O79 2.077 . S
Fe67 O85 1.935 1_655 S
Fe67 O89 2.077 1_655 S
O68 Fe64 1.715 . S
O68 Fe66 1.886 . S
O69 Fe66 1.715 1_565 S
O69 Fe71 1.886 . S
O70 Fe67 1.886 . S
O70 Fe71 1.715 . S
Fe71 O69 1.886 . S
Fe71 O70 1.715 . S
Fe71 O75 2.077 . S
Fe71 O80 1.935 . S
Fe71 O82 2.077 1_655 S
Fe71 O90 1.935 1_655 S
C72 O84 1.381 1_455 S
C72 O85 1.421 . S
O73 Fe64 2.077 1_565 S
O73 C86 1.381 . S
O74 Fe67 1.935 . S
O74 C86 1.421 . S
O75 Fe71 2.077 . S
O75 C91 1.381 . S
O76 Fe66 1.935 1_565 S
O76 C91 1.421 . S
O77 Fe66 2.077 . S
O77 C81 1.381 . S
O78 Fe64 1.935 . S
O78 C81 1.421 . S
O79 Fe67 2.077 . S
O79 C87 1.381 . S
O80 Fe71 1.935 . S
O80 C87 1.421 . S
C81 O77 1.381 . S
C81 O78 1.421 . S
O82 Fe71 2.077 1_455 S
O82 C94 1.381 . S
O83 Fe66 1.935 1_465 S
O83 C94 1.421 . S
O84 Fe64 2.077 1_565 S
O84 C72 1.381 1_655 S
O85 Fe67 1.935 1_455 S
O85 C72 1.421 . S
C86 O73 1.381 . S
C86 O74 1.421 . S
C87 O79 1.381 . S
C87 O80 1.421 . S
C88 O89 1.381 . S
C88 O90 1.421 . S
O89 Fe67 2.077 1_455 S
O89 C88 1.381 . S
O90 Fe71 1.935 1_455 S
O90 C88 1.421 . S
C91 O75 1.381 . S
C91 O76 1.421 . S
O92 Fe66 2.077 . S
O92 C95 1.381 1_655 S
O93 Fe64 1.935 . S
O93 C95 1.421 1_655 S
C94 O82 1.381 . S
C94 O83 1.421 . S
C95 O92 1.381 1_455 S
C95 O93 1.421 1_455 S
Fe96 O97 1.886 1_545 S
Fe96 O100 1.715 . S
Fe96 O105 2.077 1_545 S
Fe96 O110 1.935 . S
Fe96 O116 2.077 1_645 S
Fe96 O125 1.935 1_655 S
O97 Fe96 1.886 1_565 S
O97 Fe99 1.715 . S
Fe98 O100 1.886 . S
Fe98 O101 1.715 1_545 S
Fe98 O108 1.935 1_545 S
Fe98 O109 2.077 . S
Fe98 O115 1.935 1_645 S
Fe98 O124 2.077 1_655 S
Fe99 O97 1.715 . S
Fe99 O102 1.886 . S
Fe99 O106 1.935 . S
Fe99 O111 2.077 . S
Fe99 O117 1.935 1_655 S
Fe99 O121 2.077 . S
O100 Fe96 1.715 . S
O100 Fe98 1.886 . S
O101 Fe98 1.715 1_565 S
O101 Fe103 1.886 . S
O102 Fe99 1.886 . S
O102 Fe103 1.715 . S
Fe103 O101 1.886 . S
Fe103 O102 1.715 . S
Fe103 O107 2.077 . S
Fe103 O112 1.935 . S
Fe103 O114 2.077 . S
Fe103 O122 1.935 . S
C104 O116 1.381 . S
C104 O117 1.421 . S
O105 Fe96 2.077 1_565 S
O105 C118 1.381 . S
O106 Fe99 1.935 . S
O106 C118 1.421 . S
O107 Fe103 2.077 . S
O107 C123 1.381 . S
O108 Fe98 1.935 1_565 S
O108 C123 1.421 . S
O109 Fe98 2.077 . S
O109 C113 1.381 . S
O110 Fe96 1.935 . S
O110 C113 1.421 . S
O111 Fe99 2.077 . S
O111 C119 1.381 . S
O112 Fe103 1.935 . S
O112 C119 1.421 . S
C113 O109 1.381 . S
C113 O110 1.421 . S
O114 Fe103 2.077 . S
O114 C126 1.381 1_655 S
O115 Fe98 1.935 1_465 S
O115 C126 1.421 . S
O116 Fe96 2.077 1_465 S
O116 C104 1.381 . S
O117 Fe99 1.935 1_455 S
O117 C104 1.421 . S
C118 O105 1.381 . S
C118 O106 1.421 . S
C119 O111 1.381 . S
C119 O112 1.421 . S
C120 O121 1.381 1_455 S
C120 O122 1.421 1_455 S
O121 Fe99 2.077 . S
O121 C120 1.381 1_655 S
O122 Fe103 1.935 . S
O122 C120 1.421 1_655 S
C123 O107 1.381 . S
C123 O108 1.421 . S
O124 Fe98 2.077 1_455 S
O124 C127 1.381 . S
O125 Fe96 1.935 1_455 S
O125 C127 1.421 . S
C126 O114 1.381 1_455 S
C126 O115 1.421 . S
C127 O124 1.381 . S
C127 O125 1.421 . S
Fe128 O129 1.886 . S
Fe128 O132 1.715 . S
Fe128 O137 2.077 1_455 S
Fe128 O142 1.935 1_455 S
Fe128 O148 2.077 . S
Fe128 O157 1.935 . S
O129 Fe128 1.886 . S
O129 Fe131 1.715 . S
Fe130 O132 1.886 . S
Fe130 O133 1.715 . S
Fe130 O140 1.935 . S
Fe130 O141 2.077 . S
Fe130 O147 1.935 . S
Fe130 O156 2.077 . S
Fe131 O129 1.715 . S
Fe131 O134 1.886 . S
Fe131 O138 1.935 1_455 S
Fe131 O143 2.077 1_455 S
Fe131 O149 1.935 . S
Fe131 O153 2.077 . S
O132 Fe128 1.715 . S
O132 Fe130 1.886 . S
O133 Fe130 1.715 . S
O133 Fe135 1.886 . S
O134 Fe131 1.886 . S
O134 Fe135 1.715 . S
Fe135 O133 1.886 . S
Fe135 O134 1.715 . S
Fe135 O139 2.077 . S
Fe135 O144 1.935 1_455 S
Fe135 O146 2.077 . S
Fe135 O154 1.935 . S
C136 O148 1.381 . S
C136 O149 1.421 . S
O137 Fe128 2.077 1_655 S
O137 C150 1.381 . S
O138 Fe131 1.935 1_655 S
O138 C150 1.421 . S
O139 Fe135 2.077 . S
O139 C155 1.381 1_455 S
O140 Fe130 1.935 . S
O140 C155 1.421 1_455 S
O141 Fe130 2.077 . S
O141 C145 1.381 1_455 S
O142 Fe128 1.935 1_655 S
O142 C145 1.421 . S
O143 Fe131 2.077 1_655 S
O143 C151 1.381 . S
O144 Fe135 1.935 1_655 S
O144 C151 1.421 . S
C145 O141 1.381 1_655 S
C145 O142 1.421 . S
O146 Fe135 2.077 . S
O146 C158 1.381 . S
O147 Fe130 1.935 . S
O147 C158 1.421 . S
O148 Fe128 2.077 . S
O148 C136 1.381 . S
O149 Fe131 1.935 . S
O149 C136 1.421 . S
C150 O137 1.381 . S
C150 O138 1.421 . S
C151 O143 1.381 . S
C151 O144 1.421 . S
C152 O153 1.381 . S
C152 O154 1.421 . S
O153 Fe131 2.077 . S
O153 C152 1.381 . S
O154 Fe135 1.935 . S
O154 C152 1.421 . S
C155 O139 1.381 1_655 S
C155 O140 1.421 1_655 S
O156 Fe130 2.077 . S
O156 C159 1.381 . S
O157 Fe128 1.935 . S
O157 C159 1.421 . S
C158 O146 1.381 . S
C158 O147 1.421 . S
C159 O156 1.381 . S
C159 O157 1.421 . S
Fe160 O161 1.886 . S
Fe160 O164 1.715 . S
Fe160 O169 2.077 . S
Fe160 O174 1.935 . S
Fe160 O180 2.077 . S
Fe160 O189 1.935 1_455 S
O161 Fe160 1.886 . S
O161 Fe163 1.715 . S
Fe162 O164 1.886 . S
Fe162 O165 1.715 . S
Fe162 O172 1.935 . S
Fe162 O173 2.077 . S
Fe162 O179 1.935 1_455 S
Fe162 O188 2.077 1_455 S
Fe163 O161 1.715 . S
Fe163 O166 1.886 . S
Fe163 O170 1.935 . S
Fe163 O175 2.077 . S
Fe163 O181 1.935 . S
Fe163 O185 2.077 . S
O164 Fe160 1.715 . S
O164 Fe162 1.886 . S
O165 Fe162 1.715 . S
O165 Fe167 1.886 . S
O166 Fe163 1.886 . S
O166 Fe167 1.715 . S
Fe167 O165 1.886 . S
Fe167 O166 1.715 . S
Fe167 O171 2.077 . S
Fe167 O176 1.935 . S
Fe167 O178 2.077 1_455 S
Fe167 O186 1.935 1_455 S
C168 O180 1.381 1_655 S
C168 O181 1.421 1_655 S
O169 Fe160 2.077 . S
O169 C182 1.381 . S
O170 Fe163 1.935 . S
O170 C182 1.421 . S
O171 Fe167 2.077 . S
O171 C187 1.381 . S
O172 Fe162 1.935 . S
O172 C187 1.421 . S
O173 Fe162 2.077 . S
O173 C177 1.381 . S
O174 Fe160 1.935 . S
O174 C177 1.421 . S
O175 Fe163 2.077 . S
O175 C183 1.381 . S
O176 Fe167 1.935 . S
O176 C183 1.421 . S
C177 O173 1.381 . S
C177 O174 1.421 . S
O178 Fe167 2.077 1_655 S
O178 C190 1.381 . S
O179 Fe162 1.935 1_655 S
O179 C190 1.421 . S
O180 Fe160 2.077 . S
O180 C168 1.381 1_455 S
O181 Fe163 1.935 . S
O181 C168 1.421 1_455 S
C182 O169 1.381 . S
C182 O170 1.421 . S
C183 O175 1.381 . S
C183 O176 1.421 . S
C184 O185 1.381 1_655 S
C184 O186 1.421 . S
O185 Fe163 2.077 . S
O185 C184 1.381 1_455 S
O186 Fe167 1.935 1_655 S
O186 C184 1.421 . S
C187 O171 1.381 . S
C187 O172 1.421 . S
O188 Fe162 2.077 1_655 S
O188 C191 1.381 . S
O189 Fe160 1.935 1_655 S
O189 C191 1.421 . S
C190 O178 1.381 . S
C190 O179 1.421 . S
C191 O188 1.381 . S
C191 O189 1.421 . S
Fe192 O193 1.886 . S
Fe192 O196 1.715 . S
Fe192 O201 2.077 . S
Fe192 O206 1.935 . S
Fe192 O212 2.077 . S
Fe192 O221 1.935 . S
O193 Fe192 1.886 . S
O193 Fe195 1.715 . S
Fe194 O196 1.886 . S
Fe194 O197 1.715 . S
Fe194 O204 1.935 . S
Fe194 O205 2.077 . S
Fe194 O211 1.935 1_655 S
Fe194 O220 2.077 . S
Fe195 O193 1.715 . S
Fe195 O198 1.886 . S
Fe195 O202 1.935 . S
Fe195 O207 2.077 . S
Fe195 O213 1.935 1_655 S
Fe195 O217 2.077 1_655 S
O196 Fe192 1.715 . S
O196 Fe194 1.886 . S
O197 Fe194 1.715 . S
O197 Fe199 1.886 . S
O198 Fe195 1.886 . S
O198 Fe199 1.715 . S
Fe199 O197 1.886 . S
Fe199 O198 1.715 . S
Fe199 O203 2.077 . S
Fe199 O208 1.935 . S
Fe199 O210 2.077 1_655 S
Fe199 O218 1.935 1_655 S
C200 O212 1.381 1_455 S
C200 O213 1.421 . S
O201 Fe192 2.077 . S
O201 C214 1.381 . S
O202 Fe195 1.935 . S
O202 C214 1.421 . S
O203 Fe199 2.077 . S
O203 C219 1.381 . S
O204 Fe194 1.935 . S
O204 C219 1.421 . S
O205 Fe194 2.077 . S
O205 C209 1.381 . S
O206 Fe192 1.935 . S
O206 C209 1.421 . S
O207 Fe195 2.077 . S
O207 C215 1.381 . S
O208 Fe199 1.935 . S
O208 C215 1.421 . S
C209 O205 1.381 . S
C209 O206 1.421 . S
O210 Fe199 2.077 1_455 S
O210 C222 1.381 . S
O211 Fe194 1.935 1_455 S
O211 C222 1.421 . S
O212 Fe192 2.077 . S
O212 C200 1.381 1_655 S
O213 Fe195 1.935 1_455 S
O213 C200 1.421 . S
C214 O201 1.381 . S
C214 O202 1.421 . S
C215 O207 1.381 . S
C215 O208 1.421 . S
C216 O217 1.381 . S
C216 O218 1.421 . S
O217 Fe195 2.077 1_455 S
O217 C216 1.381 . S
O218 Fe199 1.935 1_455 S
O218 C216 1.421 . S
C219 O203 1.381 . S
C219 O204 1.421 . S
O220 Fe194 2.077 . S
O220 C223 1.381 1_655 S
O221 Fe192 1.935 . S
O221 C223 1.421 1_655 S
C222 O210 1.381 . S
C222 O211 1.421 . S
C223 O220 1.381 1_455 S
C223 O221 1.421 1_455 S
Fe224 O225 1.886 . S
Fe224 O228 1.715 . S
Fe224 O233 2.077 . S
Fe224 O238 1.935 . S
Fe224 O244 2.077 1_655 S
Fe224 O253 1.935 1_655 S
O225 Fe224 1.886 . S
O225 Fe227 1.715 . S
Fe226 O228 1.886 . S
Fe226 O229 1.715 . S
Fe226 O236 1.935 . S
Fe226 O237 2.077 . S
Fe226 O243 1.935 1_655 S
Fe226 O252 2.077 1_655 S
Fe227 O225 1.715 . S
Fe227 O230 1.886 . S
Fe227 O234 1.935 . S
Fe227 O239 2.077 . S
Fe227 O245 1.935 1_655 S
Fe227 O249 2.077 . S
O228 Fe224 1.715 . S
O228 Fe226 1.886 . S
O229 Fe226 1.715 . S
O229 Fe231 1.886 . S
O230 Fe227 1.886 . S
O230 Fe231 1.715 . S
Fe231 O229 1.886 . S
Fe231 O230 1.715 . S
Fe231 O235 2.077 . S
Fe231 O240 1.935 . S
Fe231 O242 2.077 . S
Fe231 O250 1.935 . S
C232 O244 1.381 . S
C232 O245 1.421 . S
O233 Fe224 2.077 . S
O233 C246 1.381 . S
O234 Fe227 1.935 . S
O234 C246 1.421 . S
O235 Fe231 2.077 . S
O235 C251 1.381 . S
O236 Fe226 1.935 . S
O236 C251 1.421 . S
O237 Fe226 2.077 . S
O237 C241 1.381 . S
O238 Fe224 1.935 . S
O238 C241 1.421 . S
O239 Fe227 2.077 . S
O239 C247 1.381 . S
O240 Fe231 1.935 . S
O240 C247 1.421 . S
C241 O237 1.381 . S
C241 O238 1.421 . S
O242 Fe231 2.077 . S
O242 C254 1.381 1_655 S
O243 Fe226 1.935 1_455 S
O243 C254 1.421 . S
O244 Fe224 2.077 1_455 S
O244 C232 1.381 . S
O245 Fe227 1.935 1_455 S
O245 C232 1.421 . S
C246 O233 1.381 . S
C246 O234 1.421 . S
C247 O239 1.381 . S
C247 O240 1.421 . S
C248 O249 1.381 1_455 S
C248 O250 1.421 1_455 S
O249 Fe227 2.077 . S
O249 C248 1.381 1_655 S
O250 Fe231 1.935 . S
O250 C248 1.421 1_655 S
C251 O235 1.381 . S
C251 O236 1.421 . S
O252 Fe226 2.077 1_455 S
O252 C255 1.381 . S
O253 Fe224 1.935 1_455 S
O253 C255 1.421 . S
C254 O242 1.381 1_455 S
C254 O243 1.421 . S
C255 O252 1.381 . S
C255 O253 1.421 . S
Fe256 O257 1.886 . S
Fe256 O260 1.715 . S
Fe256 O265 2.077 . S
Fe256 O270 1.935 . S
Fe256 O276 2.077 . S
Fe256 O285 1.935 . S
O257 Fe256 1.886 . S
O257 Fe259 1.715 . S
Fe258 O260 1.886 1_565 S
Fe258 O261 1.715 . S
Fe258 O268 1.935 . S
Fe258 O269 2.077 1_565 S
Fe258 O275 1.935 . S
Fe258 O284 2.077 1_565 S
Fe259 O257 1.715 . S
Fe259 O262 1.886 . S
Fe259 O266 1.935 . S
Fe259 O271 2.077 . S
Fe259 O277 1.935 . S
Fe259 O281 2.077 . S
O260 Fe256 1.715 . S
O260 Fe258 1.886 1_545 S
O261 Fe258 1.715 . S
O261 Fe263 1.886 . S
O262 Fe259 1.886 . S
O262 Fe263 1.715 1_545 S
Fe263 O261 1.886 . S
Fe263 O262 1.715 1_565 S
Fe263 O267 2.077 . S
Fe263 O272 1.935 1_565 S
Fe263 O274 2.077 . S
Fe263 O282 1.935 1_565 S
C264 O276 1.381 . S
C264 O277 1.421 . S
O265 Fe256 2.077 . S
O265 C278 1.381 . S
O266 Fe259 1.935 . S
O266 C278 1.421 . S
O267 Fe263 2.077 . S
O267 C283 1.381 . S
O268 Fe258 1.935 . S
O268 C283 1.421 . S
O269 Fe258 2.077 1_545 S
O269 C273 1.381 . S
O270 Fe256 1.935 . S
O270 C273 1.421 . S
O271 Fe259 2.077 . S
O271 C279 1.381 . S
O272 Fe263 1.935 1_545 S
O272 C279 1.421 . S
C273 O269 1.381 . S
C273 O270 1.421 . S
O274 Fe263 2.077 . S
O274 C286 1.381 . S
O275 Fe258 1.935 . S
O275 C286 1.421 . S
O276 Fe256 2.077 . S
O276 C264 1.381 . S
O277 Fe259 1.935 . S
O277 C264 1.421 . S
C278 O265 1.381 . S
C278 O266 1.421 . S
C279 O271 1.381 . S
C279 O272 1.421 . S
C280 O281 1.381 . S
C280 O282 1.421 . S
O281 Fe259 2.077 . S
O281 C280 1.381 . S
O282 Fe263 1.935 1_545 S
O282 C280 1.421 . S
C283 O267 1.381 . S
C283 O268 1.421 . S
O284 Fe258 2.077 1_545 S
O284 C287 1.381 . S
O285 Fe256 1.935 . S
O285 C287 1.421 . S
C286 O274 1.381 . S
C286 O275 1.421 . S
C287 O284 1.381 . S
C287 O285 1.421 . S
Fe288 O289 1.886 . S
Fe288 O292 1.715 . S
Fe288 O297 2.077 . S
Fe288 O302 1.935 . S
Fe288 O308 2.077 . S
Fe288 O317 1.935 . S
O289 Fe288 1.886 . S
O289 Fe291 1.715 . S
Fe290 O292 1.886 1_565 S
Fe290 O293 1.715 . S
Fe290 O300 1.935 . S
Fe290 O301 2.077 1_565 S
Fe290 O307 1.935 . S
Fe290 O316 2.077 1_565 S
Fe291 O289 1.715 . S
Fe291 O294 1.886 . S
Fe291 O298 1.935 . S
Fe291 O303 2.077 . S
Fe291 O309 1.935 . S
Fe291 O313 2.077 . S
O292 Fe288 1.715 . S
O292 Fe290 1.886 1_545 S
O293 Fe290 1.715 . S
O293 Fe295 1.886 . S
O294 Fe291 1.886 . S
O294 Fe295 1.715 1_545 S
Fe295 O293 1.886 . S
Fe295 O294 1.715 1_565 S
Fe295 O299 2.077 . S
Fe295 O304 1.935 1_565 S
Fe295 O306 2.077 . S
Fe295 O314 1.935 1_565 S
C296 O308 1.381 . S
C296 O309 1.421 . S
O297 Fe288 2.077 . S
O297 C310 1.381 . S
O298 Fe291 1.935 . S
O298 C310 1.421 . S
O299 Fe295 2.077 . S
O299 C315 1.381 . S
O300 Fe290 1.935 . S
O300 C315 1.421 . S
O301 Fe290 2.077 1_545 S
O301 C305 1.381 . S
O302 Fe288 1.935 . S
O302 C305 1.421 . S
O303 Fe291 2.077 . S
O303 C311 1.381 . S
O304 Fe295 1.935 1_545 S
O304 C311 1.421 . S
C305 O301 1.381 . S
C305 O302 1.421 . S
O306 Fe295 2.077 . S
O306 C318 1.381 . S
O307 Fe290 1.935 . S
O307 C318 1.421 . S
O308 Fe288 2.077 . S
O308 C296 1.381 . S
O309 Fe291 1.935 . S
O309 C296 1.421 . S
C310 O297 1.381 . S
C310 O298 1.421 . S
C311 O303 1.381 . S
C311 O304 1.421 . S
C312 O313 1.381 . S
C312 O314 1.421 . S
O313 Fe291 2.077 . S
O313 C312 1.381 . S
O314 Fe295 1.935 1_545 S
O314 C312 1.421 . S
C315 O299 1.381 . S
C315 O300 1.421 . S
O316 Fe290 2.077 1_545 S
O316 C319 1.381 . S
O317 Fe288 1.935 . S
O317 C319 1.421 . S
C318 O306 1.381 . S
C318 O307 1.421 . S
C319 O316 1.381 . S
C319 O317 1.421 . S
Fe320 O321 1.886 1_545 S
Fe320 O324 1.715 . S
Fe320 O329 2.077 1_545 S
Fe320 O334 1.935 . S
Fe320 O340 2.077 1_545 S
Fe320 O349 1.935 . S
O321 Fe320 1.886 1_565 S
O321 Fe323 1.715 . S
Fe322 O324 1.886 . S
Fe322 O325 1.715 1_545 S
Fe322 O332 1.935 1_545 S
Fe322 O333 2.077 . S
Fe322 O339 1.935 1_545 S
Fe322 O348 2.077 . S
Fe323 O321 1.715 . S
Fe323 O326 1.886 . S
Fe323 O330 1.935 . S
Fe323 O335 2.077 . S
Fe323 O341 1.935 . S
Fe323 O345 2.077 . S
O324 Fe320 1.715 . S
O324 Fe322 1.886 . S
O325 Fe322 1.715 1_565 S
O325 Fe327 1.886 . S
O326 Fe323 1.886 . S
O326 Fe327 1.715 . S
Fe327 O325 1.886 . S
Fe327 O326 1.715 . S
Fe327 O331 2.077 . S
Fe327 O336 1.935 . S
Fe327 O338 2.077 . S
Fe327 O346 1.935 . S
C328 O340 1.381 . S
C328 O341 1.421 . S
O329 Fe320 2.077 1_565 S
O329 C342 1.381 . S
O330 Fe323 1.935 . S
O330 C342 1.421 . S
O331 Fe327 2.077 . S
O331 C347 1.381 . S
O332 Fe322 1.935 1_565 S
O332 C347 1.421 . S
O333 Fe322 2.077 . S
O333 C337 1.381 . S
O334 Fe320 1.935 . S
O334 C337 1.421 . S
O335 Fe323 2.077 . S
O335 C343 1.381 . S
O336 Fe327 1.935 . S
O336 C343 1.421 . S
C337 O333 1.381 . S
C337 O334 1.421 . S
O338 Fe327 2.077 . S
O338 C350 1.381 . S
O339 Fe322 1.935 1_565 S
O339 C350 1.421 . S
O340 Fe320 2.077 1_565 S
O340 C328 1.381 . S
O341 Fe323 1.935 . S
O341 C328 1.421 . S
C342 O329 1.381 . S
C342 O330 1.421 . S
C343 O335 1.381 . S
C343 O336 1.421 . S
C344 O345 1.381 . S
C344 O346 1.421 . S
O345 Fe323 2.077 . S
O345 C344 1.381 . S
O346 Fe327 1.935 . S
O346 C344 1.421 . S
C347 O331 1.381 . S
C347 O332 1.421 . S
O348 Fe322 2.077 . S
O348 C351 1.381 . S
O349 Fe320 1.935 . S
O349 C351 1.421 . S
C350 O338 1.381 . S
C350 O339 1.421 . S
C351 O348 1.381 . S
C351 O349 1.421 . S
Fe352 O353 1.886 1_545 S
Fe352 O356 1.715 . S
Fe352 O361 2.077 1_545 S
Fe352 O366 1.935 . S
Fe352 O372 2.077 1_545 S
Fe352 O381 1.935 . S
O353 Fe352 1.886 1_565 S
O353 Fe355 1.715 . S
Fe354 O356 1.886 . S
Fe354 O357 1.715 1_545 S
Fe354 O364 1.935 1_545 S
Fe354 O365 2.077 . S
Fe354 O371 1.935 1_545 S
Fe354 O380 2.077 . S
Fe355 O353 1.715 . S
Fe355 O358 1.886 . S
Fe355 O362 1.935 . S
Fe355 O367 2.077 . S
Fe355 O373 1.935 . S
Fe355 O377 2.077 . S
O356 Fe352 1.715 . S
O356 Fe354 1.886 . S
O357 Fe354 1.715 1_565 S
O357 Fe359 1.886 . S
O358 Fe355 1.886 . S
O358 Fe359 1.715 . S
Fe359 O357 1.886 . S
Fe359 O358 1.715 . S
Fe359 O363 2.077 . S
Fe359 O368 1.935 . S
Fe359 O370 2.077 . S
Fe359 O378 1.935 . S
C360 O372 1.381 . S
C360 O373 1.421 . S
O361 Fe352 2.077 1_565 S
O361 C374 1.381 . S
O362 Fe355 1.935 . S
O362 C374 1.421 . S
O363 Fe359 2.077 . S
O363 C379 1.381 . S
O364 Fe354 1.935 1_565 S
O364 C379 1.421 . S
O365 Fe354 2.077 . S
O365 C369 1.381 . S
O366 Fe352 1.935 . S
O366 C369 1.421 . S
O367 Fe355 2.077 . S
O367 C375 1.381 . S
O368 Fe359 1.935 . S
O368 C375 1.421 . S
C369 O365 1.381 . S
C369 O366 1.421 . S
O370 Fe359 2.077 . S
O370 C382 1.381 . S
O371 Fe354 1.935 1_565 S
O371 C382 1.421 . S
O372 Fe352 2.077 1_565 S
O372 C360 1.381 . S
O373 Fe355 1.935 . S
O373 C360 1.421 . S
C374 O361 1.381 . S
C374 O362 1.421 . S
C375 O367 1.381 . S
C375 O368 1.421 . S
C376 O377 1.381 . S
C376 O378 1.421 . S
O377 Fe355 2.077 . S
O377 C376 1.381 . S
O378 Fe359 1.935 . S
O378 C376 1.421 . S
C379 O363 1.381 . S
C379 O364 1.421 . S
O380 Fe354 2.077 . S
O380 C383 1.381 . S
O381 Fe352 1.935 . S
O381 C383 1.421 . S
C382 O370 1.381 . S
C382 O371 1.421 . S
C383 O380 1.381 . S
C383 O381 1.421 . S
Fe384 O385 1.886 . S
Fe384 O388 1.715 . S
Fe384 O393 2.077 . S
Fe384 O398 1.935 . S
Fe384 O404 2.077 . S
Fe384 O413 1.935 . S
O385 Fe384 1.886 . S
O385 Fe387 1.715 . S
Fe386 O388 1.886 . S
Fe386 O389 1.715 . S
Fe386 O396 1.935 . S
Fe386 O397 2.077 . S
Fe386 O403 1.935 . S
Fe386 O412 2.077 . S
Fe387 O385 1.715 . S
Fe387 O390 1.886 . S
Fe387 O394 1.935 . S
Fe387 O399 2.077 . S
Fe387 O405 1.935 . S
Fe387 O409 2.077 . S
O388 Fe384 1.715 . S
O388 Fe386 1.886 . S
O389 Fe386 1.715 . S
O389 Fe391 1.886 . S
O390 Fe387 1.886 . S
O390 Fe391 1.715 . S
Fe391 O389 1.886 . S
Fe391 O390 1.715 . S
Fe391 O395 2.077 . S
Fe391 O400 1.935 . S
Fe391 O402 2.077 . S
Fe391 O410 1.935 . S
C392 O404 1.381 . S
C392 O405 1.421 . S
O393 Fe384 2.077 . S
O393 C406 1.381 . S
O394 Fe387 1.935 . S
O394 C406 1.421 . S
O395 Fe391 2.077 . S
O395 C411 1.381 . S
O396 Fe386 1.935 . S
O396 C411 1.421 . S
O397 Fe386 2.077 . S
O397 C401 1.381 . S
O398 Fe384 1.935 . S
O398 C401 1.421 . S
O399 Fe387 2.077 . S
O399 C407 1.381 . S
O400 Fe391 1.935 . S
O400 C407 1.421 . S
C401 O397 1.381 . S
C401 O398 1.421 . S
O402 Fe391 2.077 . S
O402 C414 1.381 . S
O403 Fe386 1.935 . S
O403 C414 1.421 . S
O404 Fe384 2.077 . S
O404 C392 1.381 . S
O405 Fe387 1.935 . S
O405 C392 1.421 . S
C406 O393 1.381 . S
C406 O394 1.421 . S
C407 O399 1.381 . S
C407 O400 1.421 . S
C408 O409 1.381 . S
C408 O410 1.421 . S
O409 Fe387 2.077 . S
O409 C408 1.381 . S
O410 Fe391 1.935 . S
O410 C408 1.421 . S
C411 O395 1.381 . S
C411 O396 1.421 . S
O412 Fe386 2.077 . S
O412 C415 1.381 . S
O413 Fe384 1.935 . S
O413 C415 1.421 . S
C414 O402 1.381 . S
C414 O403 1.421 . S
C415 O412 1.381 . S
C415 O413 1.421 . S
Fe416 O417 1.886 . S
Fe416 O420 1.715 . S
Fe416 O425 2.077 . S
Fe416 O430 1.935 . S
Fe416 O436 2.077 . S
Fe416 O445 1.935 . S
O417 Fe416 1.886 . S
O417 Fe419 1.715 . S
Fe418 O420 1.886 . S
Fe418 O421 1.715 . S
Fe418 O428 1.935 . S
Fe418 O429 2.077 . S
Fe418 O435 1.935 . S
Fe418 O444 2.077 . S
Fe419 O417 1.715 . S
Fe419 O422 1.886 . S
Fe419 O426 1.935 . S
Fe419 O431 2.077 . S
Fe419 O437 1.935 . S
Fe419 O441 2.077 . S
O420 Fe416 1.715 . S
O420 Fe418 1.886 . S
O421 Fe418 1.715 . S
O421 Fe423 1.886 . S
O422 Fe419 1.886 . S
O422 Fe423 1.715 . S
Fe423 O421 1.886 . S
Fe423 O422 1.715 . S
Fe423 O427 2.077 . S
Fe423 O432 1.935 . S
Fe423 O434 2.077 . S
Fe423 O442 1.935 . S
C424 O436 1.381 . S
C424 O437 1.421 . S
O425 Fe416 2.077 . S
O425 C438 1.381 . S
O426 Fe419 1.935 . S
O426 C438 1.421 . S
O427 Fe423 2.077 . S
O427 C443 1.381 . S
O428 Fe418 1.935 . S
O428 C443 1.421 . S
O429 Fe418 2.077 . S
O429 C433 1.381 . S
O430 Fe416 1.935 . S
O430 C433 1.421 . S
O431 Fe419 2.077 . S
O431 C439 1.381 . S
O432 Fe423 1.935 . S
O432 C439 1.421 . S
C433 O429 1.381 . S
C433 O430 1.421 . S
O434 Fe423 2.077 . S
O434 C446 1.381 . S
O435 Fe418 1.935 . S
O435 C446 1.421 . S
O436 Fe416 2.077 . S
O436 C424 1.381 . S
O437 Fe419 1.935 . S
O437 C424 1.421 . S
C438 O425 1.381 . S
C438 O426 1.421 . S
C439 O431 1.381 . S
C439 O432 1.421 . S
C440 O441 1.381 . S
C440 O442 1.421 . S
O441 Fe419 2.077 . S
O441 C440 1.381 . S
O442 Fe423 1.935 . S
O442 C440 1.421 . S
C443 O427 1.381 . S
C443 O428 1.421 . S
O444 Fe418 2.077 . S
O444 C447 1.381 . S
O445 Fe416 1.935 . S
O445 C447 1.421 . S
C446 O434 1.381 . S
C446 O435 1.421 . S
C447 O444 1.381 . S
C447 O445 1.421 . S
Fe448 O449 1.886 . S
Fe448 O452 1.715 . S
Fe448 O457 2.077 . S
Fe448 O462 1.935 . S
Fe448 O468 2.077 . S
Fe448 O477 1.935 . S
O449 Fe448 1.886 . S
O449 Fe451 1.715 . S
Fe450 O452 1.886 . S
Fe450 O453 1.715 . S
Fe450 O460 1.935 . S
Fe450 O461 2.077 . S
Fe450 O467 1.935 . S
Fe450 O476 2.077 . S
Fe451 O449 1.715 . S
Fe451 O454 1.886 . S
Fe451 O458 1.935 . S
Fe451 O463 2.077 . S
Fe451 O469 1.935 . S
Fe451 O473 2.077 . S
O452 Fe448 1.715 . S
O452 Fe450 1.886 . S
O453 Fe450 1.715 . S
O453 Fe455 1.886 . S
O454 Fe451 1.886 . S
O454 Fe455 1.715 . S
Fe455 O453 1.886 . S
Fe455 O454 1.715 . S
Fe455 O459 2.077 . S
Fe455 O464 1.935 . S
Fe455 O466 2.077 . S
Fe455 O474 1.935 . S
C456 O468 1.381 . S
C456 O469 1.421 . S
O457 Fe448 2.077 . S
O457 C470 1.381 . S
O458 Fe451 1.935 . S
O458 C470 1.421 . S
O459 Fe455 2.077 . S
O459 C475 1.381 . S
O460 Fe450 1.935 . S
O460 C475 1.421 . S
O461 Fe450 2.077 . S
O461 C465 1.381 . S
O462 Fe448 1.935 . S
O462 C465 1.421 . S
O463 Fe451 2.077 . S
O463 C471 1.381 . S
O464 Fe455 1.935 . S
O464 C471 1.421 . S
C465 O461 1.381 . S
C465 O462 1.421 . S
O466 Fe455 2.077 . S
O466 C478 1.381 . S
O467 Fe450 1.935 . S
O467 C478 1.421 . S
O468 Fe448 2.077 . S
O468 C456 1.381 . S
O469 Fe451 1.935 . S
O469 C456 1.421 . S
C470 O457 1.381 . S
C470 O458 1.421 . S
C471 O463 1.381 . S
C471 O464 1.421 . S
C472 O473 1.381 . S
C472 O474 1.421 . S
O473 Fe451 2.077 . S
O473 C472 1.381 . S
O474 Fe455 1.935 . S
O474 C472 1.421 . S
C475 O459 1.381 . S
C475 O460 1.421 . S
O476 Fe450 2.077 . S
O476 C479 1.381 . S
O477 Fe448 1.935 . S
O477 C479 1.421 . S
C478 O466 1.381 . S
C478 O467 1.421 . S
C479 O476 1.381 . S
C479 O477 1.421 . S
Fe480 O481 1.886 . S
Fe480 O484 1.715 . S
Fe480 O489 2.077 . S
Fe480 O494 1.935 . S
Fe480 O500 2.077 . S
Fe480 O509 1.935 . S
O481 Fe480 1.886 . S
O481 Fe483 1.715 . S
Fe482 O484 1.886 . S
Fe482 O485 1.715 . S
Fe482 O492 1.935 . S
Fe482 O493 2.077 . S
Fe482 O499 1.935 . S
Fe482 O508 2.077 . S
Fe483 O481 1.715 . S
Fe483 O486 1.886 . S
Fe483 O490 1.935 . S
Fe483 O495 2.077 . S
Fe483 O501 1.935 . S
Fe483 O505 2.077 . S
O484 Fe480 1.715 . S
O484 Fe482 1.886 . S
O485 Fe482 1.715 . S
O485 Fe487 1.886 . S
O486 Fe483 1.886 . S
O486 Fe487 1.715 . S
Fe487 O485 1.886 . S
Fe487 O486 1.715 . S
Fe487 O491 2.077 . S
Fe487 O496 1.935 . S
Fe487 O498 2.077 . S
Fe487 O506 1.935 . S
C488 O500 1.381 . S
C488 O501 1.421 . S
O489 Fe480 2.077 . S
O489 C502 1.381 . S
O490 Fe483 1.935 . S
O490 C502 1.421 . S
O491 Fe487 2.077 . S
O491 C507 1.381 . S
O492 Fe482 1.935 . S
O492 C507 1.421 . S
O493 Fe482 2.077 . S
O493 C497 1.381 . S
O494 Fe480 1.935 . S
O494 C497 1.421 . S
O495 Fe483 2.077 . S
O495 C503 1.381 . S
O496 Fe487 1.935 . S
O496 C503 1.421 . S
C497 O493 1.381 . S
C497 O494 1.421 . S
O498 Fe487 2.077 . S
O498 C510 1.381 . S
O499 Fe482 1.935 . S
O499 C510 1.421 . S
O500 Fe480 2.077 . S
O500 C488 1.381 . S
O501 Fe483 1.935 . S
O501 C488 1.421 . S
C502 O489 1.381 . S
C502 O490 1.421 . S
C503 O495 1.381 . S
C503 O496 1.421 . S
C504 O505 1.381 . S
C504 O506 1.421 . S
O505 Fe483 2.077 . S
O505 C504 1.381 . S
O506 Fe487 1.935 . S
O506 C504 1.421 . S
C507 O491 1.381 . S
C507 O492 1.421 . S
O508 Fe482 2.077 . S
O508 C511 1.381 . S
O509 Fe480 1.935 . S
O509 C511 1.421 . S
C510 O498 1.381 . S
C510 O499 1.421 . S
C511 O508 1.381 . S
C511 O509 1.421 . S
C8 C411 2.391 . S
C27 C392 2.391 . S
C59 C424 2.391 . S
C40 C443 2.391 . S
C479 C87 2.391 . S
C95 C471 2.391 . S
C113 C504 2.391 . S
C120 C497 2.391 . S
C283 C136 2.391 . S
C264 C155 2.391 . S
C296 C187 2.391 . S
C315 C168 2.391 . S
C351 C215 2.391 . S
C223 C343 2.391 . S
C376 C241 2.391 . S
C248 C369 2.391 . S
C30 C406 1.227 . S
C22 C414 1.227 . S
C54 C446 1.227 . S
C438 C62 1.227 . S
C472 C81 1.227 . S
C465 C88 1.227 . S
C511 C119 1.227 . S
C503 C127 1.227 . S
C158 C278 1.227 . S
C150 C286 1.227 . S
C182 C318 1.227 . S
C190 C310 1.227 . S
C344 C209 1.227 . S
C337 C216 1.227 . S
C383 C247 1.227 . S
C255 C375 1.227 . S
C31 C319 1.861 . S
C305 C17 1.837 . S
C273 C49 1.837 . S
C287 C63 1.861 . S
C382 C86 1.855 . S
C72 C379 1.855 . S
C123 C328 1.855 . S
C126 C342 1.855 . S
C447 C159 1.861 . S
C145 C433 1.837 . S
C177 C401 1.837 . S
C415 C191 1.861 . S
C510 C214 1.855 . S
C507 C200 1.855 . S
C456 C251 1.855 . S
C470 C254 1.855 . S
C475 C24 3.467 . S
C94 C23 3.202 1_465 S
C374 C55 3.334 1_565 S
C56 C232 3.334 1_655 S
C408 C91 3.467 . S
C118 C311 3.334 1_565 S
C184 C104 3.334 1_655 S
C347 C152 3.467 1_554 S
C151 C222 3.202 1_656 S
C183 C502 3.334 . S
C280 C219 3.467 1_556 S
C439 C246 3.334 . S
C279 C350 3.202 1_546 S
C312 C488 3.334 . S
C440 C360 3.334 . S
C478 C407 3.202 . S
