# Generated by pormake.
# Topology vbd, (5)-cn, num edge types: 1
# Building blocks:
#     Node 0, Type 0, BuildingBlock: XOMCOT_clean_sbu_0, # of connection points: 5
#     Node 1, Type 0, BuildingBlock: XOMCOT_clean_sbu_0, # of connection points: 5
#     Node 2, Type 0, BuildingBlock: XOMCOT_clean_sbu_0, # of connection points: 5
#     Node 3, Type 0, BuildingBlock: XOMCOT_clean_sbu_0, # of connection points: 5
#     Node 4, Type 0, BuildingBlock: XOMCOT_clean_sbu_0, # of connection points: 5
#     Node 5, Type 0, BuildingBlock: XOMCOT_clean_sbu_0, # of connection points: 5
#     Node 6, Type 0, BuildingBlock: XOMCOT_clean_sbu_0, # of connection points: 5
#     Node 7, Type 0, BuildingBlock: XOMCOT_clean_sbu_0, # of connection points: 5
#     Node 8, Type 0, BuildingBlock: XOMCOT_clean_sbu_0, # of connection points: 5
#     Node 9, Type 0, BuildingBlock: XOMCOT_clean_sbu_0, # of connection points: 5
#     Node 10, Type 0, BuildingBlock: XOMCOT_clean_sbu_0, # of connection points: 5
#     Node 11, Type 0, BuildingBlock: XOMCOT_clean_sbu_0, # of connection points: 5
#     Node 12, Type 0, BuildingBlock: XOMCOT_clean_sbu_0, # of connection points: 5
#     Node 13, Type 0, BuildingBlock: XOMCOT_clean_sbu_0, # of connection points: 5
#     Node 14, Type 0, BuildingBlock: XOMCOT_clean_sbu_0, # of connection points: 5
#     Node 15, Type 0, BuildingBlock: XOMCOT_clean_sbu_0, # of connection points: 5
#     Node 16, Type 0, BuildingBlock: XOMCOT_clean_sbu_0, # of connection points: 5
#     Node 17, Type 0, BuildingBlock: XOMCOT_clean_sbu_0, # of connection points: 5
#     Node 18, Type 0, BuildingBlock: XOMCOT_clean_sbu_0, # of connection points: 5
#     Node 19, Type 0, BuildingBlock: XOMCOT_clean_sbu_0, # of connection points: 5
#     Node 20, Type 0, BuildingBlock: XOMCOT_clean_sbu_0, # of connection points: 5
#     Node 21, Type 0, BuildingBlock: XOMCOT_clean_sbu_0, # of connection points: 5
#     Node 22, Type 0, BuildingBlock: XOMCOT_clean_sbu_0, # of connection points: 5
#     Node 23, Type 0, BuildingBlock: XOMCOT_clean_sbu_0, # of connection points: 5
#     Node 24, Type 0, BuildingBlock: XOMCOT_clean_sbu_0, # of connection points: 5
#     Node 25, Type 0, BuildingBlock: XOMCOT_clean_sbu_0, # of connection points: 5
#     Node 26, Type 0, BuildingBlock: XOMCOT_clean_sbu_0, # of connection points: 5
#     Node 27, Type 0, BuildingBlock: XOMCOT_clean_sbu_0, # of connection points: 5
#     Node 28, Type 0, BuildingBlock: XOMCOT_clean_sbu_0, # of connection points: 5
#     Node 29, Type 0, BuildingBlock: XOMCOT_clean_sbu_0, # of connection points: 5
#     Node 30, Type 0, BuildingBlock: XOMCOT_clean_sbu_0, # of connection points: 5
#     Node 31, Type 0, BuildingBlock: XOMCOT_clean_sbu_0, # of connection points: 5
#     Edge 32, Type (0, 0), BuildingBlock: XIVTED_clean_linker_0, # of connection points: 2
#     Edge 33, Type (0, 0), BuildingBlock: XIVTED_clean_linker_0, # of connection points: 2
#     Edge 34, Type (0, 0), BuildingBlock: XIVTED_clean_linker_0, # of connection points: 2
#     Edge 35, Type (0, 0), BuildingBlock: XIVTED_clean_linker_0, # of connection points: 2
#     Edge 36, Type (0, 0), BuildingBlock: XIVTED_clean_linker_0, # of connection points: 2
#     Edge 37, Type (0, 0), BuildingBlock: XIVTED_clean_linker_0, # of connection points: 2
#     Edge 38, Type (0, 0), BuildingBlock: XIVTED_clean_linker_0, # of connection points: 2
#     Edge 39, Type (0, 0), BuildingBlock: XIVTED_clean_linker_0, # of connection points: 2
#     Edge 40, Type (0, 0), BuildingBlock: XIVTED_clean_linker_0, # of connection points: 2
#     Edge 41, Type (0, 0), BuildingBlock: XIVTED_clean_linker_0, # of connection points: 2
#     Edge 42, Type (0, 0), BuildingBlock: XIVTED_clean_linker_0, # of connection points: 2
#     Edge 43, Type (0, 0), BuildingBlock: XIVTED_clean_linker_0, # of connection points: 2
#     Edge 44, Type (0, 0), BuildingBlock: XIVTED_clean_linker_0, # of connection points: 2
#     Edge 45, Type (0, 0), BuildingBlock: XIVTED_clean_linker_0, # of connection points: 2
#     Edge 46, Type (0, 0), BuildingBlock: XIVTED_clean_linker_0, # of connection points: 2
#     Edge 47, Type (0, 0), BuildingBlock: XIVTED_clean_linker_0, # of connection points: 2
#     Edge 48, Type (0, 0), BuildingBlock: XIVTED_clean_linker_0, # of connection points: 2
#     Edge 49, Type (0, 0), BuildingBlock: XIVTED_clean_linker_0, # of connection points: 2
#     Edge 50, Type (0, 0), BuildingBlock: XIVTED_clean_linker_0, # of connection points: 2
#     Edge 51, Type (0, 0), BuildingBlock: XIVTED_clean_linker_0, # of connection points: 2
#     Edge 52, Type (0, 0), BuildingBlock: XIVTED_clean_linker_0, # of connection points: 2
#     Edge 53, Type (0, 0), BuildingBlock: XIVTED_clean_linker_0, # of connection points: 2
#     Edge 54, Type (0, 0), BuildingBlock: XIVTED_clean_linker_0, # of connection points: 2
#     Edge 55, Type (0, 0), BuildingBlock: XIVTED_clean_linker_0, # of connection points: 2
#     Edge 56, Type (0, 0), BuildingBlock: XIVTED_clean_linker_0, # of connection points: 2
#     Edge 57, Type (0, 0), BuildingBlock: XIVTED_clean_linker_0, # of connection points: 2
#     Edge 58, Type (0, 0), BuildingBlock: XIVTED_clean_linker_0, # of connection points: 2
#     Edge 59, Type (0, 0), BuildingBlock: XIVTED_clean_linker_0, # of connection points: 2
#     Edge 60, Type (0, 0), BuildingBlock: XIVTED_clean_linker_0, # of connection points: 2
#     Edge 61, Type (0, 0), BuildingBlock: XIVTED_clean_linker_0, # of connection points: 2
#     Edge 62, Type (0, 0), BuildingBlock: XIVTED_clean_linker_0, # of connection points: 2
#     Edge 63, Type (0, 0), BuildingBlock: XIVTED_clean_linker_0, # of connection points: 2
#     Edge 64, Type (0, 0), BuildingBlock: XIVTED_clean_linker_0, # of connection points: 2
#     Edge 65, Type (0, 0), BuildingBlock: XIVTED_clean_linker_0, # of connection points: 2
#     Edge 66, Type (0, 0), BuildingBlock: XIVTED_clean_linker_0, # of connection points: 2
#     Edge 67, Type (0, 0), BuildingBlock: XIVTED_clean_linker_0, # of connection points: 2
#     Edge 68, Type (0, 0), BuildingBlock: XIVTED_clean_linker_0, # of connection points: 2
#     Edge 69, Type (0, 0), BuildingBlock: XIVTED_clean_linker_0, # of connection points: 2
#     Edge 70, Type (0, 0), BuildingBlock: XIVTED_clean_linker_0, # of connection points: 2
#     Edge 71, Type (0, 0), BuildingBlock: XIVTED_clean_linker_0, # of connection points: 2
#     Edge 72, Type (0, 0), BuildingBlock: XIVTED_clean_linker_0, # of connection points: 2
#     Edge 73, Type (0, 0), BuildingBlock: XIVTED_clean_linker_0, # of connection points: 2
#     Edge 74, Type (0, 0), BuildingBlock: XIVTED_clean_linker_0, # of connection points: 2
#     Edge 75, Type (0, 0), BuildingBlock: XIVTED_clean_linker_0, # of connection points: 2
#     Edge 76, Type (0, 0), BuildingBlock: XIVTED_clean_linker_0, # of connection points: 2
#     Edge 77, Type (0, 0), BuildingBlock: XIVTED_clean_linker_0, # of connection points: 2
#     Edge 78, Type (0, 0), BuildingBlock: XIVTED_clean_linker_0, # of connection points: 2
#     Edge 79, Type (0, 0), BuildingBlock: XIVTED_clean_linker_0, # of connection points: 2
#     Edge 80, Type (0, 0), BuildingBlock: XIVTED_clean_linker_0, # of connection points: 2
#     Edge 81, Type (0, 0), BuildingBlock: XIVTED_clean_linker_0, # of connection points: 2
#     Edge 82, Type (0, 0), BuildingBlock: XIVTED_clean_linker_0, # of connection points: 2
#     Edge 83, Type (0, 0), BuildingBlock: XIVTED_clean_linker_0, # of connection points: 2
#     Edge 84, Type (0, 0), BuildingBlock: XIVTED_clean_linker_0, # of connection points: 2
#     Edge 85, Type (0, 0), BuildingBlock: XIVTED_clean_linker_0, # of connection points: 2
#     Edge 86, Type (0, 0), BuildingBlock: XIVTED_clean_linker_0, # of connection points: 2
#     Edge 87, Type (0, 0), BuildingBlock: XIVTED_clean_linker_0, # of connection points: 2
#     Edge 88, Type (0, 0), BuildingBlock: XIVTED_clean_linker_0, # of connection points: 2
#     Edge 89, Type (0, 0), BuildingBlock: XIVTED_clean_linker_0, # of connection points: 2
#     Edge 90, Type (0, 0), BuildingBlock: XIVTED_clean_linker_0, # of connection points: 2
#     Edge 91, Type (0, 0), BuildingBlock: XIVTED_clean_linker_0, # of connection points: 2
#     Edge 92, Type (0, 0), BuildingBlock: XIVTED_clean_linker_0, # of connection points: 2
#     Edge 93, Type (0, 0), BuildingBlock: XIVTED_clean_linker_0, # of connection points: 2
#     Edge 94, Type (0, 0), BuildingBlock: XIVTED_clean_linker_0, # of connection points: 2
#     Edge 95, Type (0, 0), BuildingBlock: XIVTED_clean_linker_0, # of connection points: 2
#     Edge 96, Type (0, 0), BuildingBlock: XIVTED_clean_linker_0, # of connection points: 2
#     Edge 97, Type (0, 0), BuildingBlock: XIVTED_clean_linker_0, # of connection points: 2
#     Edge 98, Type (0, 0), BuildingBlock: XIVTED_clean_linker_0, # of connection points: 2
#     Edge 99, Type (0, 0), BuildingBlock: XIVTED_clean_linker_0, # of connection points: 2
#     Edge 100, Type (0, 0), BuildingBlock: XIVTED_clean_linker_0, # of connection points: 2
#     Edge 101, Type (0, 0), BuildingBlock: XIVTED_clean_linker_0, # of connection points: 2
#     Edge 102, Type (0, 0), BuildingBlock: XIVTED_clean_linker_0, # of connection points: 2
#     Edge 103, Type (0, 0), BuildingBlock: XIVTED_clean_linker_0, # of connection points: 2
#     Edge 104, Type (0, 0), BuildingBlock: XIVTED_clean_linker_0, # of connection points: 2
#     Edge 105, Type (0, 0), BuildingBlock: XIVTED_clean_linker_0, # of connection points: 2
#     Edge 106, Type (0, 0), BuildingBlock: XIVTED_clean_linker_0, # of connection points: 2
#     Edge 107, Type (0, 0), BuildingBlock: XIVTED_clean_linker_0, # of connection points: 2
#     Edge 108, Type (0, 0), BuildingBlock: XIVTED_clean_linker_0, # of connection points: 2
#     Edge 109, Type (0, 0), BuildingBlock: XIVTED_clean_linker_0, # of connection points: 2
#     Edge 110, Type (0, 0), BuildingBlock: XIVTED_clean_linker_0, # of connection points: 2
#     Edge 111, Type (0, 0), BuildingBlock: XIVTED_clean_linker_0, # of connection points: 2
# Relax obj value: 0.073
# Max RMSD: 0.131
# Mean RMSD: 0.127
data_MOF--net-vbd--node1-XOMCOT_clean_sbu_0--edge1-XIVTED_clean_linker_0
_symmetry_space_group_name_H-M    P1
_symmetry_Int_Tables_number       1
_symmetry_cell_setting            triclinic
loop_
_symmetry_equiv_pos_as_xyz
'x, y, z'
_cell_length_a     105.88185
_cell_length_b     24.219583
_cell_length_c     67.069665
_cell_angle_alpha  89.975981
_cell_angle_beta   90.461465
_cell_angle_gamma 89.799654
loop_
_atom_site_label
_atom_site_type_symbol
_atom_site_fract_x
_atom_site_fract_y
_atom_site_fract_z
_atom_type_partial_charge
Co0 Co 0.03948 0.27629 0.04255 0.0
C1 C 0.04179 0.30136 0.99897 0.0
C2 C 0.02569 0.25132 1.00536 0.0
C3 C 0.0256 0.26327 0.98531 0.0
N4 N 0.03607 0.27361 1.01392 0.0
N5 N 0.0357 0.29493 0.98133 0.0
H6 H 0.04986 0.32789 1.00095 0.0
H7 H 0.01835 0.22979 1.0133 0.0
C8 C 0.03412 0.15764 0.03383 0.0
O9 O 0.04181 0.15953 0.01855 0.0
N10 N 0.04271 0.28015 0.07098 0.0
C11 C 0.05105 0.31459 0.07971 0.0
C12 C 0.05253 0.29967 0.09937 0.0
C13 C 0.03914 0.24487 0.08552 0.0
N14 N 0.0451 0.25575 0.10299 0.0
C15 C 0.06586 0.28511 0.03109 0.0
C16 C 0.07305 0.18452 0.04714 0.0
C17 C 0.08229 0.21692 0.03803 0.0
C18 C 0.07855 0.2682 0.03002 0.0
C19 C 0.06065 0.20327 0.04815 0.0
N20 N 0.05696 0.25169 0.03935 0.0
H21 H 0.06334 0.32596 0.02602 0.0
H22 H 0.05411 0.17891 0.05664 0.0
H23 H 0.05622 0.34648 0.07203 0.0
H24 H 0.03299 0.2099 0.08314 0.0
O25 O 0.04104 0.35647 0.04054 0.0
O26 O 0.02339 0.31024 0.04616 0.0
O27 O 0.03309 0.19892 0.0455 0.0
C28 C 0.02885 0.3574 0.04351 0.0
H29 H 0.01826 0.25234 0.97471 0.0
H30 H 0.05893 0.31847 0.11002 0.0
H31 H 0.07532 0.1448 0.05367 0.0
H32 H 0.0854 0.29587 0.02355 0.0
Co33 Co 0.21611 0.05184 0.03615 0.0
C34 C 0.21535 0.07887 0.0797 0.0
C35 C 0.23025 0.02241 0.07254 0.0
C36 C 0.23119 0.03555 0.09247 0.0
N37 N 0.22019 0.04887 0.06453 0.0
N38 N 0.22185 0.0713 0.09697 0.0
H39 H 0.20746 0.10676 0.07818 0.0
H40 H 0.23671 -0.00343 0.06428 0.0
C41 C 0.21569 0.92983 0.04671 0.0
O42 O 0.21123 0.93792 0.0647 0.0
N43 N 0.21227 0.05545 1.00792 0.0
C44 C 0.20642 0.09712 0.99825 0.0
C45 C 0.20525 0.08329 0.97841 0.0
C46 C 0.21462 0.01699 0.99388 0.0
N47 N 0.21038 0.03273 0.97564 0.0
C48 C 0.19366 0.1107 0.0454 0.0
C49 C 0.17662 0.02754 0.03719 0.0
C50 C 0.17212 0.08127 0.04055 0.0
C51 C 0.18081 0.12269 0.0451 0.0
C52 C 0.1897 0.0173 0.03736 0.0
N53 N 0.19807 0.05884 0.04134 0.0
H54 H 0.20009 0.14429 0.04815 0.0
H55 H 0.19298 0.97672 0.03326 0.0
H56 H 0.20321 0.13496 1.00513 0.0
H57 H 0.21919 0.97799 0.99703 0.0
O58 O 0.22062 0.12909 0.0357 0.0
O59 O 0.23385 0.05951 0.03048 0.0
O60 O 0.21603 0.96913 0.0341 0.0
C61 C 0.23198 0.11238 0.03158 0.0
H62 H 0.23856 0.02176 0.1026 0.0
H63 H 0.20103 0.10895 0.96694 0.0
H64 H 0.17015 0.99452 0.03346 0.0
H65 H 0.1777 0.16461 0.04795 0.0
Co66 Co 0.04143 0.02244 0.2894 0.0
C67 C 0.04249 -0.00192 0.33323 0.0
C68 C 0.02796 0.05629 0.32577 0.0
C69 C 0.02731 0.04514 0.34585 0.0
N70 N 0.03777 0.02832 0.31786 0.0
N71 N 0.03643 0.00837 0.35054 0.0
H72 H 0.04973 0.96703 0.33177 0.0
H73 H 0.0213 0.08119 0.31736 0.0
C74 C 0.03763 0.14422 0.29548 0.0
O75 O 0.04473 0.14327 0.31164 0.0
N76 N 0.0448 0.01559 0.26117 0.0
C77 C 0.05353 0.98203 0.25307 0.0
C78 C 0.05458 0.99448 0.23313 0.0
C79 C 0.04052 0.04754 0.24601 0.0
N80 N 0.04644 0.03581 0.22873 0.0
C81 C 0.06738 0.01046 0.30356 0.0
C82 C 0.07599 0.10477 0.28491 0.0
C83 C 0.08455 0.07333 0.29619 0.0
C84 C 0.08014 0.02536 0.30556 0.0
C85 C 0.06345 0.08853 0.28334 0.0
N86 N 0.05907 0.04331 0.2933 0.0
H87 H 0.06437 0.9715 0.30956 0.0
H88 H 0.05735 0.11196 0.27353 0.0
H89 H 0.05918 0.95243 0.26132 0.0
H90 H 0.03376 0.08072 0.24777 0.0
O91 O 0.04225 0.94246 0.2921 0.0
O92 O 0.02505 0.99193 0.28534 0.0
O93 O 0.03604 0.10081 0.28507 0.0
C94 C 0.03011 0.94386 0.2884 0.0
H95 H 0.0202 0.06041 0.35598 0.0
H96 H 0.06111 0.9757 0.22279 0.0
H97 H 0.07894 0.14176 0.27719 0.0
H98 H 0.08655 -0.00131 0.31379 0.0
Co99 Co 0.2137 0.28578 0.28886 0.0
C100 C 0.21402 0.32151 0.33127 0.0
C101 C 0.22922 0.26591 0.32443 0.0
C102 C 0.23033 0.28143 0.34407 0.0
N103 N 0.21896 0.29067 0.31646 0.0
N104 N 0.2208 0.31644 0.3484 0.0
H105 H 0.20572 0.3473 0.32946 0.0
H106 H 0.23567 0.23959 0.31636 0.0
C107 C 0.21601 0.16266 0.28087 0.0
O108 O 0.20578 0.1604 0.2697 0.0
N109 N 0.20881 0.28112 0.26072 0.0
C110 C 0.19998 0.31157 0.25109 0.0
C111 C 0.19999 0.29823 0.23118 0.0
C112 C 0.21449 0.25159 0.24612 0.0
N113 N 0.20908 0.26022 0.228 0.0
C114 C 0.18688 0.30055 0.29393 0.0
C115 C 0.18249 0.19823 0.3107 0.0
C116 C 0.17214 0.23023 0.30445 0.0
C117 C 0.17445 0.28318 0.29683 0.0
C118 C 0.19474 0.21722 0.3074 0.0
N119 N 0.19677 0.26562 0.29746 0.0
H120 H 0.18851 0.34181 0.28856 0.0
H121 H 0.20256 0.19214 0.31251 0.0
H122 H 0.19417 0.34315 0.25764 0.0
H123 H 0.22262 0.22521 0.24861 0.0
O124 O 0.2123 0.36571 0.28782 0.0
O125 O 0.22947 0.31655 0.28104 0.0
O126 O 0.2196 0.20753 0.28892 0.0
C127 C 0.22419 0.36466 0.28279 0.0
H128 H 0.23787 0.26932 0.35416 0.0
H129 H 0.19373 0.31538 0.21994 0.0
H130 H 0.18118 0.15782 0.31727 0.0
H131 H 0.16673 0.31057 0.29284 0.0
Co132 Co 0.961 0.76762 0.02873 0.0
C133 C 0.95949 0.737 0.07202 0.0
C134 C 0.97213 0.80423 0.06708 0.0
C135 C 0.97248 0.79104 0.08702 0.0
N136 N 0.96356 0.77203 0.05766 0.0
N137 N 0.96456 0.74866 0.09012 0.0
H138 H 0.95354 0.70171 0.06927 0.0
H139 H 0.97833 0.83324 0.05988 0.0
C140 C 0.96318 0.8898 0.03553 0.0
O141 O 0.95486 0.88729 0.04994 0.0
N142 N 0.9589 0.76238 1.00003 0.0
C143 C 0.95125 0.72729 0.99016 0.0
C144 C 0.95162 0.73962 0.9701 0.0
C145 C 0.96385 0.79543 0.98588 0.0
N146 N 0.95949 0.78272 0.96742 0.0
C147 C 0.93488 0.75837 0.04199 0.0
C148 C 0.92631 0.84918 0.02077 0.0
C149 C 0.91786 0.82193 0.03333 0.0
C150 C 0.92224 0.77534 0.04383 0.0
C151 C 0.93877 0.83103 0.01944 0.0
N152 N 0.94314 0.78781 0.03069 0.0
H153 H 0.93787 0.72111 0.04937 0.0
H154 H 0.94497 0.85249 1.00939 0.0
H155 H 0.94547 0.69616 0.99714 0.0
H156 H 0.97035 0.82866 0.98902 0.0
O157 O 0.96035 0.68749 0.03085 0.0
O158 O 0.97763 0.73757 0.02653 0.0
O159 O 0.96608 0.84673 0.02565 0.0
C160 C 0.97262 0.68925 0.02884 0.0
H161 H 0.9787 0.80889 0.09815 0.0
H162 H 0.94608 0.71992 0.95851 0.0
H163 H 0.92343 0.88508 1.01223 0.0
H164 H 0.91593 0.75169 0.05313 0.0
Co165 Co 0.78806 0.04169 0.03606 0.0
C166 C 0.78932 0.07706 0.07847 0.0
C167 C 0.77779 0.00505 0.07461 0.0
C168 C 0.77785 0.0192 0.09448 0.0
N169 N 0.78507 0.04097 0.06459 0.0
N170 N 0.78506 0.06454 0.09689 0.0
H171 H 0.79536 0.11179 0.07516 0.0
H172 H 0.77258 0.97142 0.06798 0.0
C173 C 0.78926 0.91797 0.02799 0.0
O174 O 0.80025 0.92136 0.0191 0.0
N175 N 0.79065 0.04303 1.00711 0.0
C176 C 0.79541 0.08501 0.99627 0.0
C177 C 0.79527 0.07089 0.97639 0.0
C178 C 0.78703 0.00527 0.99329 0.0
N179 N 0.79009 0.02043 0.97454 0.0
C180 C 0.81513 0.0569 0.03257 0.0
C181 C 0.82174 0.96481 0.05476 0.0
C182 C 0.83117 0.99214 0.04406 0.0
C183 C 0.82779 0.04015 0.03351 0.0
C184 C 0.80922 0.98292 0.05335 0.0
N185 N 0.80591 0.02604 0.0412 0.0
H186 H 0.81279 0.09414 0.02463 0.0
H187 H 0.80206 0.96009 0.0612 0.0
H188 H 0.79861 0.12402 1.00223 0.0
H189 H 0.78177 0.96838 0.99654 0.0
O190 O 0.78781 0.1221 0.03683 0.0
O191 O 0.77118 0.06827 0.03166 0.0
O192 O 0.78389 0.96098 0.035 0.0
C193 C 0.77567 0.11775 0.03365 0.0
H194 H 0.77264 -0.0012 0.10617 0.0
H195 H 0.79884 0.09574 0.96427 0.0
H196 H 0.82386 0.92802 0.06335 0.0
H197 H 0.83484 0.06417 0.02579 0.0
Co198 Co 0.96307 0.02393 0.77984 0.0
C199 C 0.95958 0.05726 0.73752 0.0
C200 C 0.97436 -0.00295 0.74122 0.0
C201 C 0.97344 0.01047 0.72134 0.0
N202 N 0.96559 0.02583 0.75131 0.0
N203 N 0.96418 0.04837 0.71903 0.0
H204 H 0.9521 0.0862 0.74097 0.0
H205 H 0.98122 0.96942 0.74789 0.0
C206 C 0.96476 0.89947 0.78652 0.0
O207 O 0.95448 0.89698 0.79733 0.0
N208 N 0.96087 0.02277 0.80888 0.0
C209 C 0.95552 0.06305 0.81993 0.0
C210 C 0.9561 0.04879 0.83975 0.0
C211 C 0.9652 0.98574 0.82253 0.0
N212 N 0.96211 -8e-05 0.84139 0.0
C213 C 0.93605 0.03531 0.78335 0.0
C214 C 0.93002 0.94093 0.76218 0.0
C215 C 0.92038 0.9693 0.77213 0.0
C216 C 0.92348 0.01822 0.78222 0.0
C217 C 0.94247 0.9595 0.76374 0.0
N218 N 0.94546 0.00408 0.77533 0.0
H219 H 0.93818 0.07354 0.79077 0.0
H220 H 0.94978 0.93697 0.75604 0.0
H221 H 0.95163 0.10121 0.8142 0.0
H222 H 0.97094 0.95019 0.81906 0.0
O223 O 0.96195 0.10401 0.77989 0.0
O224 O 0.97951 0.05467 0.78371 0.0
O225 O 0.96871 0.9451 0.77959 0.0
C226 C 0.97419 0.10289 0.78246 0.0
H227 H 0.97948 0.99522 0.70959 0.0
H228 H 0.95225 0.0724 0.85199 0.0
H229 H 0.92807 0.90355 0.75387 0.0
H230 H 0.91626 0.04293 0.78933 0.0
Co231 Co 0.78827 0.77998 0.78849 0.0
C232 C 0.78847 0.75281 0.74456 0.0
C233 C 0.77461 0.81344 0.75241 0.0
C234 C 0.77295 0.80026 0.7327 0.0
N235 N 0.78456 0.78501 0.75992 0.0
N236 N 0.78161 0.76194 0.72774 0.0
H237 H 0.79528 0.71979 0.74595 0.0
H238 H 0.76836 0.83935 0.761 0.0
C239 C 0.78572 0.90104 0.78088 0.0
O240 O 0.79353 0.89647 0.76583 0.0
N241 N 0.79137 0.77495 0.81697 0.0
C242 C 0.79933 0.73998 0.82639 0.0
C243 C 0.7997 0.75348 0.84638 0.0
C244 C 0.78699 0.80904 0.83131 0.0
N245 N 0.792 0.79719 0.84943 0.0
C246 C 0.81393 0.7664 0.77412 0.0
C247 C 0.82345 0.85742 0.79397 0.0
C248 C 0.83162 0.82619 0.78211 0.0
C249 C 0.82673 0.77989 0.77214 0.0
C250 C 0.8108 0.84268 0.79545 0.0
N251 N 0.806 0.79901 0.78498 0.0
H252 H 0.81054 0.72878 0.76748 0.0
H253 H 0.80489 0.86634 0.80534 0.0
H254 H 0.80483 0.70824 0.81912 0.0
H255 H 0.78043 0.8425 0.8285 0.0
O256 O 0.78893 0.70009 0.78617 0.0
O257 O 0.77175 0.75003 0.79214 0.0
O258 O 0.78332 0.85934 0.7918 0.0
C259 C 0.77675 0.70181 0.78907 0.0
H260 H 0.76552 0.81577 0.72301 0.0
H261 H 0.80563 0.73414 0.85762 0.0
H262 H 0.82677 0.89325 0.80209 0.0
H263 H 0.83282 0.75343 0.7634 0.0
Co264 Co 0.03848 0.7861 0.54145 0.0
C265 C 0.04087 0.82148 0.49897 0.0
C266 C 0.02869 0.75137 0.50207 0.0
C267 C 0.02921 0.7653 0.48224 0.0
N268 N 0.03609 0.78613 0.51262 0.0
N269 N 0.03682 0.80942 0.48027 0.0
H270 H 0.04711 0.85535 0.50262 0.0
H271 H 0.02304 0.71862 0.50825 0.0
C272 C 0.0343 0.66055 0.54745 0.0
O273 O 0.04517 0.64782 0.55589 0.0
N274 N 0.04061 0.78652 0.57057 0.0
C275 C 0.04566 0.82764 0.58161 0.0
C276 C 0.04539 0.8133 0.60146 0.0
C277 C 0.03693 0.7485 0.58419 0.0
N278 N 0.03995 0.76333 0.6031 0.0
C279 C 0.06553 0.79019 0.54673 0.0
C280 C 0.07061 0.6928 0.52679 0.0
C281 C 0.08044 0.71844 0.53743 0.0
C282 C 0.07784 0.76901 0.54684 0.0
C283 C 0.05846 0.71568 0.52698 0.0
N284 N 0.05588 0.76176 0.53796 0.0
H285 H 0.06374 0.82908 0.55398 0.0
H286 H 0.05101 0.69488 0.5189 0.0
H287 H 0.04933 0.86591 0.57578 0.0
H288 H 0.03176 0.71158 0.58066 0.0
O289 O 0.04019 0.86628 0.54064 0.0
O290 O 0.02235 0.81967 0.54443 0.0
O291 O 0.03172 0.70966 0.54215 0.0
C292 C 0.02791 0.86692 0.54278 0.0
H293 H 0.02403 0.74563 0.47022 0.0
H294 H 0.04913 0.83757 0.61368 0.0
H295 H 0.0721 0.6542 0.51902 0.0
H296 H 0.08521 0.79191 0.55441 0.0
Co297 Co 0.21202 0.53526 0.53844 0.0
C298 C 0.21298 0.57648 0.58059 0.0
C299 C 0.22561 0.50878 0.57545 0.0
C300 C 0.22694 0.52529 0.59498 0.0
N301 N 0.21675 0.54029 0.56645 0.0
N302 N 0.21898 0.56789 0.59824 0.0
H303 H 0.20612 0.60878 0.57814 0.0
H304 H 0.23106 0.47709 0.56814 0.0
C305 C 0.21013 0.41255 0.52939 0.0
O306 O 0.20204 0.41947 0.51464 0.0
N307 N 0.20754 0.53126 0.51028 0.0
C308 C 0.19765 0.55657 0.50132 0.0
C309 C 0.19785 0.54502 0.48128 0.0
C310 C 0.21388 0.5062 0.49534 0.0
N311 N 0.20798 0.51298 0.4775 0.0
C312 C 0.18972 0.5949 0.54855 0.0
C313 C 0.17271 0.50899 0.54663 0.0
C314 C 0.16818 0.56291 0.54949 0.0
C315 C 0.17692 0.6058 0.55089 0.0
C316 C 0.18576 0.49953 0.54489 0.0
N317 N 0.19411 0.54253 0.5453 0.0
H318 H 0.19604 0.62963 0.54865 0.0
H319 H 0.18895 0.45785 0.54274 0.0
H320 H 0.19068 0.58175 0.50868 0.0
H321 H 0.22246 0.48248 0.49758 0.0
O322 O 0.21598 0.61226 0.5347 0.0
O323 O 0.22962 0.54324 0.5316 0.0
O324 O 0.21262 0.45213 0.54138 0.0
C325 C 0.22744 0.59602 0.53107 0.0
H326 H 0.23355 0.50828 0.60574 0.0
H327 H 0.19081 0.55793 0.47043 0.0
H328 H 0.16622 0.47462 0.5456 0.0
H329 H 0.17384 0.64815 0.55284 0.0
Co330 Co 0.03975 0.51838 0.79094 0.0
C331 C 0.04177 0.4802 0.83311 0.0
C332 C 0.02737 0.542 0.82902 0.0
C333 C 0.02766 0.52696 0.84878 0.0
N334 N 0.03632 0.51337 0.81924 0.0
N335 N 0.03666 0.48809 0.85133 0.0
H336 H 0.04924 0.45098 0.82994 0.0
H337 H 0.02084 0.57084 0.8222 0.0
C338 C 0.03773 0.64283 0.78519 0.0
O339 O 0.04817 0.64625 0.77479 0.0
N340 N 0.04281 0.52271 0.76214 0.0
C341 C 0.04897 0.48486 0.75103 0.0
C342 C 0.04848 0.50013 0.7313 0.0
C343 C 0.03808 0.55906 0.74856 0.0
N344 N 0.04169 0.54705 0.72972 0.0
C345 C 0.06704 0.51037 0.78968 0.0
C346 C 0.07159 0.60245 0.81294 0.0
C347 C 0.08185 0.57619 0.80379 0.0
C348 C 0.07945 0.5285 0.79249 0.0
C349 C 0.05934 0.58308 0.80964 0.0
N350 N 0.05711 0.53953 0.79717 0.0
H351 H 0.06546 0.47294 0.78144 0.0
H352 H 0.05161 0.60382 0.81694 0.0
H353 H 0.05322 0.44728 0.75661 0.0
H354 H 0.03168 0.59236 0.7521 0.0
O355 O 0.04126 0.43844 0.78993 0.0
O356 O 0.02361 0.48678 0.78538 0.0
O357 O 0.03378 0.59671 0.79169 0.0
C358 C 0.02909 0.43888 0.78646 0.0
H359 H 0.02141 0.54198 0.86028 0.0
H360 H 0.05284 0.47824 0.71908 0.0
H361 H 0.07297 0.63788 0.82255 0.0
H362 H 0.08704 0.50597 0.78542 0.0
Co363 Co 0.21073 0.79613 0.78747 0.0
C364 C 0.21044 0.8311 0.8299 0.0
C365 C 0.22616 0.77822 0.82318 0.0
C366 C 0.2271 0.79415 0.84278 0.0
N367 N 0.2157 0.80106 0.81516 0.0
N368 N 0.21723 0.82745 0.84706 0.0
H369 H 0.20195 0.85555 0.82795 0.0
H370 H 0.2329 0.75327 0.81513 0.0
C371 C 0.21293 0.67243 0.78042 0.0
O372 O 0.20243 0.66956 0.76991 0.0
N373 N 0.20618 0.79161 0.75922 0.0
C374 C 0.19831 0.82543 0.74897 0.0
C375 C 0.19848 0.81136 0.72912 0.0
C376 C 0.21153 0.75941 0.74508 0.0
N377 N 0.20675 0.76957 0.72665 0.0
C378 C 0.1836 0.80735 0.79065 0.0
C379 C 0.17987 0.70937 0.81082 0.0
C380 C 0.16928 0.73845 0.8037 0.0
C381 C 0.17128 0.78924 0.79413 0.0
C382 C 0.192 0.72888 0.80688 0.0
N383 N 0.19375 0.77517 0.7956 0.0
H384 H 0.18494 0.84717 0.78391 0.0
H385 H 0.19999 0.70618 0.81277 0.0
H386 H 0.19321 0.86 0.75506 0.0
H387 H 0.21911 0.73051 0.74802 0.0
O388 O 0.20924 0.87611 0.78655 0.0
O389 O 0.22654 0.82741 0.78011 0.0
O390 O 0.21676 0.71795 0.78769 0.0
C391 C 0.22119 0.8754 0.78187 0.0
H392 H 0.23479 0.78372 0.85284 0.0
H393 H 0.19295 0.83084 0.71743 0.0
H394 H 0.17884 0.67158 0.81927 0.0
H395 H 0.16345 0.81422 0.78885 0.0
Co396 Co 0.95929 0.27075 0.52956 0.0
C397 C 0.95718 0.23634 0.57193 0.0
C398 C 0.97112 0.29955 0.56806 0.0
C399 C 0.97072 0.28575 0.58792 0.0
N400 N 0.96254 0.26902 0.55805 0.0
N401 N 0.96199 0.24598 0.59034 0.0
H402 H 0.94995 0.20611 0.56862 0.0
H403 H 0.97744 0.32914 0.56142 0.0
C404 C 0.96311 0.39676 0.52505 0.0
O405 O 0.95182 0.41011 0.51831 0.0
N406 N 0.95637 0.272 0.50069 0.0
C407 C 0.95158 0.23044 0.48955 0.0
C408 C 0.95173 0.24524 0.46976 0.0
C409 C 0.95969 0.31096 0.48721 0.0
N410 N 0.95681 0.29597 0.4683 0.0
C411 C 0.93209 0.26924 0.52554 0.0
C412 C 0.92767 0.35849 0.55028 0.0
C413 C 0.91746 0.33516 0.53991 0.0
C414 C 0.91976 0.28924 0.52771 0.0
C415 C 0.93986 0.33763 0.5475 0.0
N416 N 0.94203 0.29504 0.53459 0.0
H417 H 0.9336 0.23312 0.51652 0.0
H418 H 0.94761 0.35679 0.5554 0.0
H419 H 0.94827 0.19143 0.49528 0.0
H420 H 0.9646 0.34854 0.49083 0.0
O421 O 0.95753 0.19064 0.53002 0.0
O422 O 0.97528 0.23708 0.52517 0.0
O423 O 0.96604 0.34712 0.52908 0.0
C424 C 0.96973 0.18986 0.52705 0.0
H425 H 0.97673 0.30228 0.5996 0.0
H426 H 0.94828 0.2206 0.45743 0.0
H427 H 0.92634 0.39371 0.55999 0.0
H428 H 0.91209 0.26881 0.51993 0.0
Co429 Co 0.78661 0.54034 0.53687 0.0
C430 C 0.7876 0.57291 0.5799 0.0
C431 C 0.77471 0.50652 0.57394 0.0
C432 C 0.7737 0.52098 0.59363 0.0
N433 N 0.78343 0.53873 0.5653 0.0
N434 N 0.78172 0.5629 0.59741 0.0
H435 H 0.79421 0.6062 0.5775 0.0
H436 H 0.76895 0.47652 0.56622 0.0
C437 C 0.7894 0.4173 0.52903 0.0
O438 O 0.79995 0.42372 0.51911 0.0
N439 N 0.78917 0.54222 0.50791 0.0
C440 C 0.79329 0.58562 0.49712 0.0
C441 C 0.79305 0.57227 0.47718 0.0
C442 C 0.78583 0.50417 0.49401 0.0
N443 N 0.78843 0.5208 0.47523 0.0
C444 C 0.81352 0.56058 0.5331 0.0
C445 C 0.82105 0.47187 0.55634 0.0
C446 C 0.8302 0.50044 0.54547 0.0
C447 C 0.82634 0.54653 0.53427 0.0
C448 C 0.80834 0.48695 0.55456 0.0
N449 N 0.80462 0.52863 0.54204 0.0
H450 H 0.81082 0.59667 0.52476 0.0
H451 H 0.80141 0.46318 0.56256 0.0
H452 H 0.79604 0.6252 0.50313 0.0
H453 H 0.78106 0.46599 0.49727 0.0
O454 O 0.7855 0.62051 0.53741 0.0
O455 O 0.76943 0.56324 0.53265 0.0
O456 O 0.78347 0.45873 0.53612 0.0
C457 C 0.77339 0.61365 0.53455 0.0
H458 H 0.76723 0.50316 0.60424 0.0
H459 H 0.79612 0.59846 0.46509 0.0
H460 H 0.82358 0.43643 0.5654 0.0
H461 H 0.83316 0.57117 0.52629 0.0
Co462 Co 0.96266 0.5337 0.28171 0.0
C463 C 0.9607 0.56068 0.23813 0.0
C464 C 0.97648 0.50825 0.24495 0.0
C465 C 0.97678 0.52097 0.22498 0.0
N466 N 0.96616 0.53156 0.25318 0.0
N467 N 0.96689 0.55413 0.2207 0.0
H468 H 0.95275 0.58812 0.2399 0.0
H469 H 0.98364 0.48546 0.25309 0.0
C470 C 0.96796 0.41383 0.27344 0.0
O471 O 0.96103 0.41538 0.2571 0.0
N472 N 0.9594 0.53693 0.31007 0.0
C473 C 0.95131 0.57179 0.31907 0.0
C474 C 0.95075 0.55852 0.33901 0.0
C475 C 0.96364 0.50286 0.32463 0.0
N476 N 0.95846 0.51499 0.34248 0.0
C477 C 0.93635 0.54503 0.26943 0.0
C478 C 0.92895 0.44455 0.28494 0.0
C479 C 0.91976 0.47822 0.27596 0.0
C480 C 0.9236 0.52932 0.26812 0.0
C481 C 0.94139 0.46221 0.28628 0.0
N482 N 0.94517 0.51067 0.27782 0.0
H483 H 0.939 0.58571 0.26448 0.0
H484 H 0.94783 0.43714 0.29489 0.0
H485 H 0.94587 0.60347 0.31153 0.0
H486 H 0.97024 0.46948 0.32222 0.0
O487 O 0.96128 0.61395 0.28013 0.0
O488 O 0.9788 0.56595 0.28601 0.0
O489 O 0.96879 0.45585 0.28478 0.0
C490 C 0.97344 0.61366 0.2837 0.0
H491 H 0.98413 0.5094 0.21464 0.0
H492 H 0.9447 0.57791 0.34992 0.0
H493 H 0.92661 0.40478 0.29124 0.0
H494 H 0.9168 0.55775 0.26167 0.0
Co495 Co 0.78824 0.28547 0.28747 0.0
C496 C 0.78967 0.25647 0.24399 0.0
C497 C 0.77405 0.30956 0.25059 0.0
C498 C 0.7735 0.29619 0.23068 0.0
N499 N 0.78442 0.28621 0.25892 0.0
N500 N 0.7833 0.26264 0.22655 0.0
H501 H 0.7976 0.22889 0.24584 0.0
H502 H 0.76702 0.33295 0.25863 0.0
C503 C 0.78372 0.40429 0.27767 0.0
O504 O 0.79101 0.39955 0.26198 0.0
N505 N 0.79168 0.28405 0.31589 0.0
C506 C 0.79989 0.25034 0.32536 0.0
C507 C 0.80015 0.26396 0.34531 0.0
C508 C 0.78707 0.31781 0.33015 0.0
N509 N 0.79212 0.30653 0.34832 0.0
C510 C 0.81409 0.27122 0.27461 0.0
C511 C 0.82233 0.37355 0.28744 0.0
C512 C 0.83074 0.33919 0.27732 0.0
C513 C 0.82665 0.28672 0.27136 0.0
C514 C 0.81003 0.3559 0.29081 0.0
N515 N 0.80575 0.30694 0.28323 0.0
H516 H 0.81118 0.23004 0.27064 0.0
H517 H 0.80403 0.38169 0.29981 0.0
H518 H 0.80552 0.21889 0.31818 0.0
H519 H 0.7802 0.35008 0.32732 0.0
O520 O 0.78954 0.20546 0.28625 0.0
O521 O 0.77203 0.25341 0.2919 0.0
O522 O 0.78244 0.36402 0.28972 0.0
C523 C 0.77737 0.2057 0.28932 0.0
H524 H 0.76607 0.30773 0.22029 0.0
H525 H 0.80613 0.24514 0.35659 0.0
H526 H 0.82536 0.41317 0.29322 0.0
H527 H 0.83308 0.25811 0.26425 0.0
Co528 Co 0.53763 0.27886 0.53853 0.0
C529 C 0.53828 0.30999 0.49547 0.0
C530 C 0.5246 0.2472 0.50182 0.0
C531 C 0.52348 0.26141 0.48212 0.0
N532 N 0.5339 0.27732 0.51023 0.0
N533 N 0.53197 0.30116 0.47813 0.0
H534 H 0.54533 0.34172 0.49765 0.0
H535 H 0.51853 0.21892 0.50966 0.0
C536 C 0.53545 0.15508 0.54694 0.0
O537 O 0.54574 0.15118 0.55792 0.0
N538 N 0.54082 0.28054 0.56732 0.0
C539 C 0.54699 0.32013 0.57767 0.0
C540 C 0.54655 0.30807 0.5977 0.0
C541 C 0.53617 0.24656 0.58151 0.0
N542 N 0.53981 0.26152 0.60011 0.0
C543 C 0.5649 0.28496 0.54036 0.0
C544 C 0.56927 0.18683 0.52046 0.0
C545 C 0.5795 0.21357 0.52965 0.0
C546 C 0.57723 0.26443 0.53905 0.0
C547 C 0.5571 0.20891 0.52213 0.0
N548 N 0.55493 0.25538 0.53317 0.0
H549 H 0.56341 0.32444 0.54729 0.0
H550 H 0.54936 0.18743 0.51504 0.0
H551 H 0.55124 0.35651 0.57132 0.0
H552 H 0.5298 0.21284 0.57854 0.0
O553 O 0.53922 0.35874 0.53718 0.0
O554 O 0.52153 0.31277 0.54294 0.0
O555 O 0.53163 0.20093 0.53984 0.0
C556 C 0.52706 0.35992 0.54032 0.0
H557 H 0.51656 0.24526 0.4717 0.0
H558 H 0.55093 0.33173 0.60955 0.0
H559 H 0.57053 0.14806 0.51269 0.0
H560 H 0.58491 0.28805 0.54549 0.0
Co561 Co 0.71233 0.04827 0.52232 0.0
C562 C 0.71214 0.07707 0.56591 0.0
C563 C 0.72645 0.0179 0.55873 0.0
C564 C 0.72765 0.03151 0.57861 0.0
N565 N 0.71657 0.04572 0.55075 0.0
N566 N 0.71867 0.06899 0.58311 0.0
H567 H 0.70456 0.10644 0.5645 0.0
H568 H 0.73266 0.99092 0.55047 0.0
C569 C 0.71164 0.92826 0.53354 0.0
O570 O 0.7053 0.93934 0.54983 0.0
N571 N 0.70842 0.05123 0.49411 0.0
C572 C 0.70096 0.08858 0.48493 0.0
C573 C 0.70013 0.07535 0.465 0.0
C574 C 0.71212 0.01596 0.47968 0.0
N575 N 0.70715 0.0296 0.46164 0.0
C576 C 0.68925 0.09909 0.53395 0.0
C577 C 0.67312 0.01445 0.52348 0.0
C578 C 0.66801 0.06419 0.53061 0.0
C579 C 0.6763 0.10656 0.53592 0.0
C580 C 0.6863 0.00822 0.5221 0.0
N581 N 0.69423 0.05004 0.5277 0.0
H582 H 0.69523 0.13415 0.53679 0.0
H583 H 0.69001 0.97075 0.51568 0.0
H584 H 0.69627 0.12262 0.49227 0.0
H585 H 0.71834 0.9812 0.48237 0.0
O586 O 0.71567 0.12651 0.52243 0.0
O587 O 0.72992 0.06132 0.51663 0.0
O588 O 0.71339 0.96567 0.5205 0.0
C589 C 0.72734 0.11345 0.51872 0.0
H590 H 0.73495 0.01679 0.58869 0.0
H591 H 0.69452 0.09724 0.45399 0.0
H592 H 0.667 0.98108 0.51878 0.0
H593 H 0.67279 0.14644 0.54072 0.0
Co594 Co 0.53789 0.02705 0.78866 0.0
C595 C 0.54061 0.99316 0.83105 0.0
C596 C 0.5261 0.05441 0.82686 0.0
C597 C 0.52666 0.04075 0.84674 0.0
N598 N 0.53494 0.02514 0.81708 0.0
N599 N 0.53574 0.0022 0.84935 0.0
H600 H 0.54804 0.96372 0.82786 0.0
H601 H 0.51944 0.08254 0.81996 0.0
C602 C 0.53616 0.15131 0.78159 0.0
O603 O 0.54637 0.15363 0.77061 0.0
N604 N 0.5405 0.02815 0.75976 0.0
C605 C 0.54626 0.98845 0.74895 0.0
C606 C 0.54559 0.00187 0.72906 0.0
C607 C 0.53585 0.06384 0.74592 0.0
N608 N 0.53911 0.04952 0.72715 0.0
C609 C 0.56512 0.01699 0.78627 0.0
C610 C 0.57035 0.11227 0.80741 0.0
C611 C 0.58031 0.08466 0.79798 0.0
C612 C 0.57761 0.03526 0.78788 0.0
C613 C 0.55803 0.09248 0.80543 0.0
N614 N 0.55543 0.04745 0.79385 0.0
H615 H 0.56329 0.97859 0.77877 0.0
H616 H 0.55052 0.11433 0.81289 0.0
H617 H 0.55038 0.951 0.75488 0.0
H618 H 0.52975 0.09837 0.74923 0.0
O619 O 0.53898 0.94681 0.78863 0.0
O620 O 0.52152 -0.00355 0.78416 0.0
O621 O 0.53224 0.10584 0.78869 0.0
C622 C 0.52677 0.94814 0.78561 0.0
H623 H 0.5205 0.05629 0.85828 0.0
H624 H 0.54965 0.97839 0.71696 0.0
H625 H 0.57202 0.1492 0.81612 0.0
H626 H 0.58501 0.01169 0.78074 0.0
Co627 Co 0.71041 0.29261 0.77265 0.0
C628 C 0.70997 0.3235 0.81613 0.0
C629 C 0.72564 0.27168 0.80868 0.0
C630 C 0.72675 0.28627 0.82842 0.0
N631 N 0.71491 0.29352 0.80099 0.0
N632 N 0.71691 0.31902 0.83312 0.0
H633 H 0.70186 0.35015 0.8147 0.0
H634 H 0.73255 0.24863 0.80026 0.0
C635 C 0.71549 0.17507 0.78311 0.0
O636 O 0.70815 0.1804 0.79871 0.0
N637 N 0.70639 0.29231 0.74443 0.0
C638 C 0.69725 0.32211 0.73539 0.0
C639 C 0.69685 0.308 0.7155 0.0
C640 C 0.71144 0.26049 0.72996 0.0
N641 N 0.70575 0.26913 0.71206 0.0
C642 C 0.6848 0.30354 0.78744 0.0
C643 C 0.67666 0.20222 0.77353 0.0
C644 C 0.66834 0.23422 0.78487 0.0
C645 C 0.67244 0.28629 0.79143 0.0
C646 C 0.68884 0.22107 0.76989 0.0
N647 N 0.69309 0.26954 0.77789 0.0
H648 H 0.68757 0.34471 0.79163 0.0
H649 H 0.69481 0.19658 0.76036 0.0
H650 H 0.69111 0.35111 0.74286 0.0
H651 H 0.71908 0.23153 0.73252 0.0
O652 O 0.70874 0.37263 0.77341 0.0
O653 O 0.72633 0.32592 0.76713 0.0
O654 O 0.71653 0.21447 0.77063 0.0
C655 C 0.72083 0.37329 0.76965 0.0
H656 H 0.73458 0.27604 0.83824 0.0
H657 H 0.69021 0.32403 0.70459 0.0
H658 H 0.67372 0.16318 0.76716 0.0
H659 H 0.6662 0.31337 0.79963 0.0
Co660 Co 0.46184 0.77836 0.52892 0.0
C661 C 0.45871 0.74485 0.57128 0.0
C662 C 0.47311 0.80628 0.56771 0.0
C663 C 0.47232 0.79325 0.58759 0.0
N664 N 0.46447 0.77656 0.55752 0.0
N665 N 0.46331 0.75462 0.58982 0.0
H666 H 0.4514 0.71516 0.56781 0.0
H667 H 0.47977 0.83448 0.56113 0.0
C668 C 0.46403 0.90298 0.52288 0.0
O669 O 0.4539 0.90786 0.51157 0.0
N670 N 0.45962 0.77969 0.49986 0.0
C671 C 0.45427 0.73967 0.48862 0.0
C672 C 0.45512 0.75357 0.4688 0.0
C673 C 0.46416 0.81626 0.48638 0.0
N674 N 0.46127 0.80195 0.46738 0.0
C675 C 0.43463 0.77244 0.52454 0.0
C676 C 0.42943 0.86502 0.54719 0.0
C677 C 0.41944 0.83893 0.53715 0.0
C678 C 0.42215 0.79111 0.52611 0.0
C679 C 0.44175 0.84497 0.54519 0.0
N680 N 0.44433 0.80098 0.53311 0.0
H681 H 0.43643 0.73507 0.51638 0.0
H682 H 0.44926 0.86554 0.55322 0.0
H683 H 0.45024 0.70193 0.49426 0.0
H684 H 0.46992 0.85145 0.49011 0.0
O685 O 0.46029 0.69837 0.52905 0.0
O686 O 0.47811 0.7452 0.52546 0.0
O687 O 0.46783 0.85638 0.5293 0.0
C688 C 0.47255 0.69772 0.52693 0.0
H689 H 0.47827 0.80931 0.59943 0.0
H690 H 0.45137 0.72998 0.45641 0.0
H691 H 0.42778 0.90071 0.55654 0.0
H692 H 0.41475 0.76884 0.51835 0.0
Co693 Co 0.28686 0.03121 0.52318 0.0
C694 C 0.288 0.06308 0.56624 0.0
C695 C 0.27758 0.98853 0.56187 0.0
C696 C 0.27721 0.00209 0.58179 0.0
N697 N 0.28476 0.02556 0.5521 0.0
N698 N 0.28376 0.04907 0.58452 0.0
H699 H 0.29282 0.10133 0.56318 0.0
H700 H 0.27227 0.95557 0.55498 0.0
C701 C 0.28727 0.90734 0.52869 0.0
O702 O 0.29598 0.91114 0.5427 0.0
N703 N 0.28856 0.03762 0.49448 0.0
C704 C 0.29526 0.07606 0.48468 0.0
C705 C 0.29517 0.06339 0.46464 0.0
C706 C 0.28444 0.00224 0.48028 0.0
N707 N 0.28844 0.01671 0.4619 0.0
C708 C 0.31285 0.04629 0.53733 0.0
C709 C 0.32257 0.95938 0.5155 0.0
C710 C 0.33046 0.98577 0.52933 0.0
C711 C 0.32559 0.03114 0.53985 0.0
C712 C 0.31002 0.9759 0.51343 0.0
N713 N 0.30504 0.01659 0.52513 0.0
H714 H 0.30937 0.08175 0.54522 0.0
H715 H 0.30418 0.95441 0.50271 0.0
H716 H 0.30028 0.10971 0.49172 0.0
H717 H 0.2789 0.96589 0.48334 0.0
O718 O 0.28615 0.11151 0.52543 0.0
O719 O 0.26973 0.0561 0.52098 0.0
O720 O 0.2831 0.95052 0.51992 0.0
C721 C 0.27394 0.10592 0.52321 0.0
H722 H 0.27191 0.98082 0.59316 0.0
H723 H 0.3002 0.08535 0.45313 0.0
H724 H 0.32603 0.92574 0.50639 0.0
H725 H 0.33146 0.05385 0.55027 0.0
Co726 Co 0.46246 0.03672 0.27938 0.0
C727 C 0.46022 0.06785 0.23663 0.0
C728 C 0.47556 0.01142 0.24212 0.0
C729 C 0.47512 0.02311 0.22206 0.0
N730 N 0.46615 0.03893 0.2512 0.0
N731 N 0.46549 0.05858 0.21862 0.0
H732 H 0.45223 0.09486 0.23916 0.0
H733 H 0.48243 0.98541 0.24959 0.0
C734 C 0.46531 0.91361 0.28819 0.0
O735 O 0.45547 0.91114 0.29996 0.0
N736 N 0.45899 0.0349 0.30798 0.0
C737 C 0.45103 0.06832 0.318 0.0
C738 C 0.45163 0.05584 0.338 0.0
C739 C 0.46474 0.00421 0.32235 0.0
N740 N 0.46017 0.01516 0.34073 0.0
C741 C 0.4355 0.05227 0.27624 0.0
C742 C 0.43021 0.94951 0.26045 0.0
C743 C 0.42009 0.98405 0.26565 0.0
C744 C 0.42293 0.03699 0.27296 0.0
C745 C 0.44261 0.96695 0.26362 0.0
N746 N 0.44513 0.01603 0.27283 0.0
H747 H 0.43747 0.09355 0.28134 0.0
H748 H 0.45016 0.94057 0.25858 0.0
H749 H 0.44536 0.1008 0.31153 0.0
H750 H 0.47229 0.97509 0.31957 0.0
O751 O 0.46109 0.11675 0.27952 0.0
O752 O 0.4786 0.06829 0.28508 0.0
O753 O 0.46846 0.95843 0.27971 0.0
C754 C 0.47321 0.11623 0.28334 0.0
H755 H 0.48162 0.00803 0.21093 0.0
H756 H 0.44604 0.07478 0.34959 0.0
H757 H 0.42868 0.90872 0.25435 0.0
H758 H 0.41554 0.06663 0.27611 0.0
Co759 Co 0.28982 0.77874 0.2736 0.0
C760 C 0.291 0.74164 0.2314 0.0
C761 C 0.27659 0.80287 0.23603 0.0
C762 C 0.2764 0.78786 0.21627 0.0
N763 N 0.28581 0.77443 0.24546 0.0
N764 N 0.28543 0.74934 0.21337 0.0
H765 H 0.29861 0.71277 0.23432 0.0
H766 H 0.2702 0.83156 0.2431 0.0
C767 C 0.28821 0.90272 0.28052 0.0
O768 O 0.29845 0.90444 0.29168 0.0
N769 N 0.29346 0.78267 0.30222 0.0
C770 C 0.30066 0.74737 0.31303 0.0
C771 C 0.30015 0.76184 0.33284 0.0
C772 C 0.28817 0.81645 0.31597 0.0
N773 N 0.29237 0.80561 0.33468 0.0
C774 C 0.31694 0.76431 0.27244 0.0
C775 C 0.32179 0.86316 0.25341 0.0
C776 C 0.33193 0.83224 0.26097 0.0
C777 C 0.32946 0.78102 0.26982 0.0
C778 C 0.30948 0.84441 0.25604 0.0
N779 N 0.30714 0.79788 0.26692 0.0
H780 H 0.31516 0.72456 0.27899 0.0
H781 H 0.30183 0.86811 0.2496 0.0
H782 H 0.30561 0.71193 0.30726 0.0
H783 H 0.28108 0.84728 0.31256 0.0
O784 O 0.2909 0.69874 0.27459 0.0
O785 O 0.27362 0.74898 0.27958 0.0
O786 O 0.28425 0.8576 0.27308 0.0
C787 C 0.27881 0.70054 0.27836 0.0
H788 H 0.26983 0.80271 0.20503 0.0
H789 H 0.30518 0.74172 0.34495 0.0
H790 H 0.32337 0.90179 0.24567 0.0
H791 H 0.33709 0.75503 0.27526 0.0
Co792 Co 0.53919 0.78255 0.03916 0.0
C793 C 0.54092 0.81519 0.9967 0.0
C794 C 0.52669 0.75353 1.00116 0.0
C795 C 0.52696 0.76681 0.98122 0.0
N796 N 0.53552 0.78352 1.01082 0.0
N797 N 0.53587 0.80564 0.97845 0.0
H798 H 0.54836 0.84464 0.99973 0.0
H799 H 0.52032 0.72467 1.00809 0.0
C800 C 0.53473 0.65822 0.04598 0.0
O801 O 0.54582 0.64594 0.05377 0.0
N802 N 0.54266 0.78218 0.06785 0.0
C803 C 0.5489 0.82136 0.07829 0.0
C804 C 0.54893 0.80768 0.09819 0.0
C805 C 0.53858 0.74628 0.08187 0.0
N806 N 0.54249 0.76025 0.10042 0.0
C807 C 0.56648 0.78393 0.04033 0.0
C808 C 0.56974 0.6865 0.01945 0.0
C809 C 0.58036 0.71229 0.02777 0.0
C810 C 0.57866 0.76255 0.03783 0.0
C811 C 0.55777 0.7097 0.02208 0.0
N812 N 0.55617 0.75601 0.03344 0.0
H813 H 0.56537 0.82284 0.04787 0.0
H814 H 0.54974 0.68964 0.01526 0.0
H815 H 0.55301 0.8582 0.07204 0.0
H816 H 0.53243 0.71185 0.0789 0.0
O817 O 0.54139 0.86248 0.03826 0.0
O818 O 0.52349 0.81805 0.04411 0.0
O819 O 0.53202 0.70694 0.04038 0.0
C820 C 0.52926 0.8646 0.04179 0.0
H821 H 0.52076 0.75056 0.96974 0.0
H822 H 0.55346 0.83069 0.11007 0.0
H823 H 0.57067 0.64876 1.01091 0.0
H824 H 0.58663 0.78456 0.04412 0.0
Co825 Co 0.71317 0.5439 0.02345 0.0
C826 C 0.7129 0.57678 0.0669 0.0
C827 C 0.72866 0.52548 0.05945 0.0
C828 C 0.72982 0.54092 0.07915 0.0
N829 N 0.71797 0.54743 0.0517 0.0
N830 N 0.71993 0.57348 0.0838 0.0
H831 H 0.70436 0.60067 0.06587 0.0
H832 H 0.73535 0.5008 0.05117 0.0
C833 C 0.71308 0.42763 0.03849 0.0
O834 O 0.70801 0.44424 0.05527 0.0
N835 N 0.70874 0.54121 0.9954 0.0
C836 C 0.70101 0.57676 0.98583 0.0
C837 C 0.7001 0.56131 0.96615 0.0
C838 C 0.71252 0.5047 0.9814 0.0
N839 N 0.70735 0.51602 0.96327 0.0
C840 C 0.69042 0.59753 0.03439 0.0
C841 C 0.6739 0.5143 0.02394 0.0
C842 C 0.66909 0.56705 0.02827 0.0
C843 C 0.67754 0.60804 0.03428 0.0
C844 C 0.68704 0.50514 0.02446 0.0
N845 N 0.69516 0.54687 0.02947 0.0
H846 H 0.6966 0.63184 0.03736 0.0
H847 H 0.69065 0.46583 0.01944 0.0
H848 H 0.6963 0.61145 0.9927 0.0
H849 H 0.719 0.47105 0.98443 0.0
O850 O 0.71621 0.62177 0.02119 0.0
O851 O 0.73068 0.55686 0.01663 0.0
O852 O 0.71417 0.46091 0.02387 0.0
C853 C 0.72785 0.60913 0.01729 0.0
H854 H 0.73762 0.53067 0.08902 0.0
H855 H 0.69434 0.58165 0.95495 0.0
H856 H 0.66767 0.48159 0.01901 0.0
H857 H 0.67427 0.6492 0.03797 0.0
Co858 Co 0.53912 0.53071 0.28949 0.0
C859 C 0.53908 0.4983 0.33241 0.0
C860 C 0.52478 0.55823 0.325 0.0
C861 C 0.52343 0.5437 0.34461 0.0
N862 N 0.53459 0.5301 0.31735 0.0
N863 N 0.53233 0.50575 0.34927 0.0
H864 H 0.54662 0.46838 0.33077 0.0
H865 H 0.51861 0.58555 0.31667 0.0
C866 C 0.53767 0.65483 0.28179 0.0
O867 O 0.54822 0.65724 0.27168 0.0
N868 N 0.54314 0.53118 0.26107 0.0
C869 C 0.54964 0.49241 0.25089 0.0
C870 C 0.54959 0.50572 0.23095 0.0
C871 C 0.53866 0.56585 0.2468 0.0
N872 N 0.54275 0.5522 0.22841 0.0
C873 C 0.56632 0.52072 0.29056 0.0
C874 C 0.57055 0.61785 0.31114 0.0
C875 C 0.58088 0.59013 0.3028 0.0
C876 C 0.57868 0.53969 0.29309 0.0
C877 C 0.55836 0.59732 0.30825 0.0
N878 N 0.55631 0.55154 0.29679 0.0
H879 H 0.56484 0.48167 0.28332 0.0
H880 H 0.55053 0.61936 0.31476 0.0
H881 H 0.55379 0.45553 0.25722 0.0
H882 H 0.53208 0.59908 0.24954 0.0
O883 O 0.5404 0.45073 0.28998 0.0
O884 O 0.52307 0.49924 0.28306 0.0
O885 O 0.53348 0.60939 0.28851 0.0
C886 C 0.52837 0.45129 0.2855 0.0
H887 H 0.51618 0.55872 0.35453 0.0
H888 H 0.55426 0.48288 0.21925 0.0
H889 H 0.57183 0.6556 0.31955 0.0
H890 H 0.58637 0.51598 0.28681 0.0
Co891 Co 0.70982 0.80156 0.27202 0.0
C892 C 0.70977 0.83326 0.31544 0.0
C893 C 0.7251 0.7796 0.30793 0.0
C894 C 0.72637 0.79432 0.32763 0.0
N895 N 0.71446 0.80246 0.30032 0.0
N896 N 0.71674 0.82821 0.33237 0.0
H897 H 0.70182 0.86084 0.31405 0.0
H898 H 0.73184 0.75567 0.29949 0.0
C899 C 0.71461 0.68345 0.28225 0.0
O900 O 0.70756 0.68901 0.29817 0.0
N901 N 0.70569 0.80106 0.24386 0.0
C902 C 0.69632 0.82944 0.23483 0.0
C903 C 0.69591 0.81461 0.21499 0.0
C904 C 0.71089 0.76953 0.22945 0.0
N905 N 0.70506 0.77675 0.21159 0.0
C906 C 0.68442 0.81337 0.28745 0.0
C907 C 0.676 0.71196 0.27407 0.0
C908 C 0.66797 0.74399 0.28588 0.0
C909 C 0.67217 0.79618 0.29211 0.0
C910 C 0.68809 0.7308 0.26974 0.0
N911 N 0.69251 0.77919 0.27756 0.0
H912 H 0.68729 0.85453 0.29147 0.0
H913 H 0.69387 0.70624 0.25994 0.0
H914 H 0.69001 0.85776 0.24228 0.0
H915 H 0.71873 0.74166 0.23205 0.0
O916 O 0.70824 0.88146 0.27276 0.0
O917 O 0.72577 0.83437 0.26632 0.0
O918 O 0.71573 0.72318 0.26994 0.0
C919 C 0.72033 0.88184 0.26897 0.0
H920 H 0.73416 0.78329 0.33741 0.0
H921 H 0.68909 0.82936 0.20412 0.0
H922 H 0.67293 0.67282 0.26795 0.0
H923 H 0.66611 0.82328 0.30064 0.0
Co924 Co 0.46055 0.26799 0.02708 0.0
C925 C 0.45813 0.2361 0.0698 0.0
C926 C 0.47169 0.30073 0.06563 0.0
C927 C 0.47114 0.28861 0.08561 0.0
N928 N 0.46343 0.26836 0.05571 0.0
N929 N 0.46265 0.24797 0.08823 0.0
H930 H 0.45115 0.20466 0.06665 0.0
H931 H 0.4779 0.33056 0.05886 0.0
C932 C 0.46404 0.39407 0.02205 0.0
O933 O 0.45268 0.40703 0.01555 0.0
N934 N 0.45806 0.26735 0.99808 0.0
C935 C 0.45382 0.22462 0.98697 0.0
C936 C 0.45407 0.2389 0.96712 0.0
C937 C 0.46115 0.30651 0.98454 0.0
N938 N 0.45866 0.29051 0.96559 0.0
C939 C 0.43345 0.26649 0.02142 0.0
C940 C 0.42848 0.35634 0.0456 0.0
C941 C 0.41858 0.33369 0.03431 0.0
C942 C 0.42113 0.2873 0.02247 0.0
C943 C 0.44067 0.33465 0.04393 0.0
N944 N 0.44316 0.29194 0.03122 0.0
H945 H 0.43517 0.23027 1.01254 0.0
H946 H 0.44822 0.35375 0.05234 0.0
H947 H 0.45074 0.18533 0.99278 0.0
H948 H 0.4656 0.34514 0.98814 0.0
O949 O 0.45892 0.18789 0.02817 0.0
O950 O 0.47666 0.2347 0.02355 0.0
O951 O 0.46711 0.34459 0.02611 0.0
C952 C 0.47117 0.18741 0.0256 0.0
H953 H 0.47688 0.30693 0.09728 0.0
H954 H 0.45098 0.21335 0.95479 0.0
H955 H 0.42693 0.39189 0.05508 0.0
H956 H 0.41367 0.26732 1.01404 0.0
Co957 Co 0.28749 0.53661 0.02299 0.0
C958 C 0.28968 0.56468 0.06577 0.0
C959 C 0.27825 0.49262 0.06126 0.0
C960 C 0.27863 0.50444 0.08136 0.0
N961 N 0.28525 0.53023 0.05155 0.0
N962 N 0.28577 0.54989 0.08415 0.0
H963 H 0.29554 0.60014 0.06267 0.0
H964 H 0.27299 0.45965 0.05423 0.0
C965 C 0.29121 0.41709 1.01209 0.0
O966 O 0.30155 0.42852 1.00226 0.0
N967 N 0.28928 0.54421 0.99397 0.0
C968 C 0.29335 0.58947 0.9842 0.0
C969 C 0.29334 0.57925 0.96404 0.0
C970 C 0.28599 0.5085 0.97923 0.0
N971 N 0.2888 0.52811 0.9609 0.0
C972 C 0.31451 0.55783 0.01825 0.0
C973 C 0.32227 0.4691 0.04131 0.0
C974 C 0.3314 0.49946 0.03112 0.0
C975 C 0.32741 0.54511 0.01978 0.0
C976 C 0.30953 0.48265 0.03914 0.0
N977 N 0.30567 0.52487 0.02693 0.0
H978 H 0.31174 0.5941 1.0101 0.0
H979 H 0.3027 0.45743 0.04676 0.0
H980 H 0.2961 0.62792 0.99111 0.0
H981 H 0.28164 0.46899 0.98165 0.0
O982 O 0.28624 0.61637 0.02559 0.0
O983 O 0.27013 0.55951 0.0206 0.0
O984 O 0.28465 0.45493 0.0203 0.0
C985 C 0.27407 0.60955 0.02369 0.0
H986 H 0.27363 0.48255 0.09292 0.0
H987 H 0.29639 0.60748 0.95254 0.0
H988 H 0.32489 0.43366 0.05032 0.0
H989 H 0.33421 0.57081 1.01219 0.0
Co990 Co 0.46097 0.53279 0.7788 0.0
C991 C 0.45925 0.56572 0.73633 0.0
C992 C 0.47436 0.50808 0.74172 0.0
C993 C 0.47411 0.52081 0.72173 0.0
N994 N 0.46497 0.53576 0.75079 0.0
N995 N 0.46462 0.55705 0.71838 0.0
H996 H 0.45132 0.59312 0.73888 0.0
H997 H 0.48108 0.48128 0.74916 0.0
C998 C 0.46347 0.40914 0.78716 0.0
O999 O 0.45354 0.40654 0.79871 0.0
N1000 N 0.45716 0.53031 0.80724 0.0
C1001 C 0.44912 0.56369 0.81713 0.0
C1002 C 0.44939 0.55041 0.83706 0.0
C1003 C 0.46263 0.49886 0.82164 0.0
N1004 N 0.45781 0.50927 0.83989 0.0
C1005 C 0.43408 0.55002 0.77489 0.0
C1006 C 0.42867 0.44807 0.75853 0.0
C1007 C 0.41858 0.4831 0.76348 0.0
C1008 C 0.42149 0.53559 0.77114 0.0
C1009 C 0.44108 0.46458 0.76223 0.0
N1010 N 0.44364 0.51329 0.77167 0.0
H1011 H 0.43611 0.59106 0.78017 0.0
H1012 H 0.4486 0.43783 0.75737 0.0
H1013 H 0.44361 0.59664 0.81061 0.0
H1014 H 0.47015 0.46953 0.81897 0.0
O1015 O 0.4599 0.61299 0.77928 0.0
O1016 O 0.47716 0.56317 0.78511 0.0
O1017 O 0.46676 0.45415 0.77894 0.0
C1018 C 0.47197 0.61153 0.78342 0.0
H1019 H 0.48065 0.50593 0.71062 0.0
H1020 H 0.44366 0.5691 0.84853 0.0
H1021 H 0.42707 0.40759 0.75218 0.0
H1022 H 0.41415 0.56557 0.77415 0.0
Co1023 Co 0.28789 0.28529 0.77314 0.0
C1024 C 0.28798 0.24708 0.73102 0.0
C1025 C 0.27311 0.30548 0.7366 0.0
C1026 C 0.27244 0.28966 0.71692 0.0
N1027 N 0.28292 0.27931 0.74537 0.0
N1028 N 0.28175 0.25288 0.71341 0.0
H1029 H 0.29599 0.21995 0.73342 0.0
H1030 H 0.26667 0.3331 0.74408 0.0
C1031 C 0.28487 0.40841 0.78116 0.0
O1032 O 0.29517 0.4117 0.79215 0.0
N1033 N 0.29268 0.29067 0.80135 0.0
C1034 C 0.30226 0.26362 0.81052 0.0
C1035 C 0.30301 0.28021 0.83007 0.0
C1036 C 0.28723 0.32089 0.81604 0.0
N1037 N 0.29363 0.31649 0.83352 0.0
C1038 C 0.31472 0.27057 0.76728 0.0
C1039 C 0.31908 0.37524 0.75254 0.0
C1040 C 0.32944 0.34193 0.75768 0.0
C1041 C 0.32716 0.28788 0.76418 0.0
C1042 C 0.30685 0.35594 0.75561 0.0
N1043 N 0.30483 0.30628 0.7647 0.0
H1044 H 0.31307 0.22877 0.77212 0.0
H1045 H 0.29906 0.38159 0.75084 0.0
H1046 H 0.30833 0.23333 0.80377 0.0
H1047 H 0.27906 0.34722 0.81387 0.0
O1048 O 0.28949 0.20536 0.77441 0.0
O1049 O 0.27216 0.2538 0.78078 0.0
O1050 O 0.2816 0.36327 0.77293 0.0
C1051 C 0.27756 0.20591 0.7792 0.0
H1052 H 0.26536 0.30278 0.70618 0.0
H1053 H 0.31002 0.26704 0.84093 0.0
H1054 H 0.32043 0.41616 0.7464 0.0
H1055 H 0.33489 0.26 0.76761 0.0
H1056 H 0.02567 0.08457 0.21219 0.0
H1057 H 0.06504 0.23299 0.12701 0.0
H1058 H 0.06545 0.05691 0.20315 0.0
H1059 H 0.02514 0.20349 0.11985 0.0
H1060 H 0.06499 0.1783 0.15759 0.0
H1061 H 0.02484 0.13761 0.18083 0.0
C1062 C 0.0342 0.08963 0.2036 0.0
C1063 C 0.04563 0.06604 0.21021 0.0
C1064 C 0.05623 0.18368 0.14936 0.0
C1065 C 0.04479 0.12689 0.17464 0.0
C1066 C 0.05624 0.21524 0.13198 0.0
C1067 C 0.04506 0.223 0.12095 0.0
C1068 C 0.04492 0.16022 0.15604 0.0
C1069 C 0.03396 0.19825 0.12792 0.0
C1070 C 0.03371 0.11956 0.18571 0.0
C1071 C 0.05641 0.07365 0.1985 0.0
N1072 N 0.03413 0.16828 0.14515 0.0
N1073 N 0.05575 0.10371 0.18142 0.0
H1074 H 0.21061 0.17107 0.10347 0.0
H1075 H 0.2203 0.15994 0.22223 0.0
H1076 H 0.22879 0.03501 0.13392 0.0
H1077 H 0.20433 0.29909 0.19058 0.0
H1078 H 0.22368 0.11344 0.19027 0.0
H1079 H 0.20796 0.21753 0.13544 0.0
C1080 C 0.21397 0.15064 0.11686 0.0
C1081 C 0.21993 0.09882 0.11588 0.0
C1082 C 0.21946 0.15423 0.19034 0.0
C1083 C 0.21704 0.15245 0.15276 0.0
C1084 C 0.2176 0.18101 0.20862 0.0
C1085 C 0.21194 0.23354 0.20923 0.0
C1086 C 0.21562 0.18008 0.1725 0.0
C1087 C 0.20851 0.25834 0.19099 0.0
C1088 C 0.21253 0.17749 0.13516 0.0
C1089 C 0.22426 0.0751 0.13385 0.0
N1090 N 0.21037 0.23142 0.17347 0.0
N1091 N 0.22272 0.10199 0.1515 0.0
H1092 H 0.9651 0.03928 0.87902 0.0
H1093 H 0.95833 0.74193 0.92968 0.0
H1094 H 0.96306 0.88815 0.84523 0.0
H1095 H 0.96551 0.89121 0.96288 0.0
H1096 H 0.96053 0.79396 0.89862 0.0
H1097 H 0.96587 0.98534 0.9098 0.0
C1098 C 0.96487 0.99469 0.87807 0.0
C1099 C 0.96393 0.96828 0.85948 0.0
C1100 C 0.96172 0.81527 0.9127 0.0
C1101 C 0.96478 0.90595 0.8948 0.0
C1102 C 0.9604 0.78561 0.93046 0.0
C1103 C 0.96167 0.81216 0.949 0.0
C1104 C 0.96423 0.87217 0.91338 0.0
C1105 C 0.96455 0.86878 0.94902 0.0
C1106 C 0.96536 0.96384 0.89567 0.0
C1107 C 0.96387 0.91026 0.85918 0.0
N1108 N 0.96562 0.89689 0.93153 0.0
N1109 N 0.96415 0.88109 0.87657 0.0
H1110 H 0.7944 0.75876 0.88739 0.0
H1111 H 0.78746 0.0585 0.93656 0.0
H1112 H 0.78622 0.90624 0.85353 0.0
H1113 H 0.79003 0.90849 0.97106 0.0
H1114 H 0.78697 0.0034 0.90603 0.0
H1115 H 0.79289 0.81257 0.91817 0.0
C1116 C 0.79227 0.80241 0.8864 0.0
C1117 C 0.79046 0.82788 0.86777 0.0
C1118 C 0.78757 0.98246 0.92028 0.0
C1119 C 0.7887 0.88997 0.90305 0.0
C1120 C 0.7879 0.01397 0.93774 0.0
C1121 C 0.78883 0.98823 0.95647 0.0
C1122 C 0.7883 0.92459 0.92144 0.0
C1123 C 0.7892 0.93019 0.95701 0.0
C1124 C 0.79135 0.83311 0.90401 0.0
C1125 C 0.78756 0.88458 0.86749 0.0
N1126 N 0.78903 0.90043 0.93978 0.0
N1127 N 0.78686 0.91368 0.88481 0.0
H1128 H 0.03825 0.65155 0.60667 0.0
H1129 H 0.03756 0.65773 0.72637 0.0
H1130 H 0.03815 0.80191 0.64115 0.0
H1131 H 0.04068 0.50859 0.69163 0.0
H1132 H 0.03562 0.71095 0.69541 0.0
H1133 H 0.03704 0.59846 0.63759 0.0
C1134 C 0.03783 0.67353 0.62069 0.0
C1135 C 0.03837 0.73148 0.6212 0.0
C1136 C 0.03666 0.66653 0.69456 0.0
C1137 C 0.03712 0.67062 0.65686 0.0
C1138 C 0.03768 0.63605 0.71227 0.0
C1139 C 0.03938 0.57852 0.71168 0.0
C1140 C 0.0373 0.63935 0.67606 0.0
C1141 C 0.0396 0.55286 0.69288 0.0
C1142 C 0.03722 0.6431 0.6384 0.0
C1143 C 0.03795 0.7574 0.63996 0.0
N1144 N 0.03862 0.58337 0.67589 0.0
N1145 N 0.03739 0.72687 0.65698 0.0
H1146 H 0.21067 0.67377 0.60284 0.0
H1147 H 0.21596 0.66518 0.72219 0.0
H1148 H 0.22384 0.53167 0.63594 0.0
H1149 H 0.20389 0.80856 0.68878 0.0
H1150 H 0.21942 0.61627 0.69081 0.0
H1151 H 0.20823 0.72385 0.63418 0.0
C1152 C 0.213 0.6529 0.61666 0.0
C1153 C 0.21747 0.59823 0.61665 0.0
C1154 C 0.21605 0.65851 0.69035 0.0
C1155 C 0.21481 0.65578 0.65273 0.0
C1156 C 0.21415 0.68664 0.7083 0.0
C1157 C 0.20956 0.74115 0.70824 0.0
C1158 C 0.21334 0.68495 0.67213 0.0
C1159 C 0.20723 0.7664 0.68967 0.0
C1160 C 0.21168 0.68172 0.63459 0.0
C1161 C 0.22051 0.57387 0.63512 0.0
N1162 N 0.20911 0.73811 0.67243 0.0
N1163 N 0.21911 0.6027 0.65237 0.0
H1164 H 0.95588 0.55504 0.38004 0.0
H1165 H 0.96045 0.25662 0.43083 0.0
H1166 H 0.96397 0.40591 0.34735 0.0
H1167 H 0.95709 0.40776 0.46439 0.0
H1168 H 0.96204 0.31066 0.40019 0.0
H1169 H 0.95659 0.50221 0.4111 0.0
C1170 C 0.95783 0.5112 0.37939 0.0
C1171 C 0.9598 0.48492 0.361 0.0
C1172 C 0.96102 0.33208 0.41426 0.0
C1173 C 0.96065 0.42397 0.3966 0.0
C1174 C 0.96004 0.30119 0.43177 0.0
C1175 C 0.95855 0.3276 0.45025 0.0
C1176 C 0.96041 0.38998 0.41511 0.0
C1177 C 0.95831 0.38561 0.45054 0.0
C1178 C 0.9583 0.48106 0.39715 0.0
C1179 C 0.96249 0.42806 0.36114 0.0
N1180 N 0.95913 0.41478 0.43324 0.0
N1181 N 0.96273 0.39947 0.37862 0.0
H1182 H 0.79449 0.26595 0.38596 0.0
H1183 H 0.78477 0.5607 0.43769 0.0
H1184 H 0.78521 0.41415 0.35322 0.0
H1185 H 0.78944 0.40918 0.47079 0.0
H1186 H 0.78453 0.50764 0.4067 0.0
H1187 H 0.79237 0.31728 0.41714 0.0
C1188 C 0.792 0.30929 0.3853 0.0
C1189 C 0.7901 0.33572 0.36686 0.0
C1190 C 0.78553 0.4859 0.42074 0.0
C1191 C 0.78762 0.39499 0.40266 0.0
C1192 C 0.78572 0.51625 0.43847 0.0
C1193 C 0.78721 0.4895 0.45694 0.0
C1194 C 0.78694 0.42822 0.42136 0.0
C1195 C 0.78819 0.43161 0.45696 0.0
C1196 C 0.79073 0.33856 0.40315 0.0
C1197 C 0.78668 0.39186 0.36702 0.0
N1198 N 0.78814 0.40302 0.43947 0.0
N1199 N 0.78565 0.41964 0.3846 0.0
H1200 H 0.53673 0.00776 0.68974 0.0
H1201 H 0.53908 0.30453 0.63759 0.0
H1202 H 0.53661 0.16066 0.72265 0.0
H1203 H 0.53564 0.15162 0.60506 0.0
H1204 H 0.53722 0.25327 0.66883 0.0
H1205 H 0.53529 0.06003 0.65866 0.0
C1206 C 0.53635 0.05237 0.69044 0.0
C1207 C 0.5369 0.07982 0.70887 0.0
C1208 C 0.53677 0.23094 0.65486 0.0
C1209 C 0.53525 0.14023 0.6732 0.0
C1210 C 0.5379 0.2602 0.63698 0.0
C1211 C 0.53761 0.23241 0.61859 0.0
C1212 C 0.53544 0.17326 0.65444 0.0
C1213 C 0.53584 0.17493 0.61881 0.0
C1214 C 0.53547 0.08225 0.67266 0.0
C1215 C 0.53614 0.13775 0.70883 0.0
N1216 N 0.53493 0.1473 0.63641 0.0
N1217 N 0.53549 0.16601 0.69128 0.0
H1218 H 0.70037 0.30637 0.67464 0.0
H1219 H 0.7255 0.03294 0.62015 0.0
H1220 H 0.71663 0.16791 0.70635 0.0
H1221 H 0.70808 0.17031 0.58938 0.0
H1222 H 0.72286 0.08204 0.65173 0.0
H1223 H 0.70357 0.25753 0.64332 0.0
C1224 C 0.70458 0.26562 0.67509 0.0
C1225 C 0.70815 0.24131 0.69333 0.0
C1226 C 0.7196 0.1014 0.63807 0.0
C1227 C 0.71197 0.18493 0.65719 0.0
C1228 C 0.72116 0.07344 0.61997 0.0
C1229 C 0.71699 0.09726 0.60195 0.0
C1230 C 0.71386 0.15379 0.63823 0.0
C1231 C 0.71128 0.14971 0.60281 0.0
C1232 C 0.70646 0.23776 0.65711 0.0
C1233 C 0.7138 0.18867 0.69275 0.0
N1234 N 0.70991 0.17609 0.62058 0.0
N1235 N 0.7155 0.16225 0.67502 0.0
H1236 H 0.46463 0.76112 0.43005 0.0
H1237 H 0.45924 0.05725 0.37822 0.0
H1238 H 0.46298 0.91343 0.46321 0.0
H1239 H 0.46701 0.90764 0.34569 0.0
H1240 H 0.46135 0.00598 0.4095 0.0
H1241 H 0.46626 0.81411 0.39916 0.0
C1242 C 0.46466 0.80574 0.43085 0.0
C1243 C 0.46355 0.83279 0.44929 0.0
C1244 C 0.46272 0.98438 0.39554 0.0
C1245 C 0.46541 0.894 0.41383 0.0
C1246 C 0.46147 0.01363 0.37766 0.0
C1247 C 0.46286 0.98667 0.35925 0.0
C1248 C 0.46525 0.92741 0.39513 0.0
C1249 C 0.46593 0.93019 0.35949 0.0
C1250 C 0.46566 0.83603 0.41319 0.0
C1251 C 0.46387 0.89079 0.44939 0.0
N1252 N 0.46688 0.90236 0.3771 0.0
N1253 N 0.46462 0.9194 0.43194 0.0
H1254 H 0.28691 0.91486 0.3382 0.0
H1255 H 0.28575 0.90556 0.45777 0.0
H1256 H 0.29205 0.76594 0.37258 0.0
H1257 H 0.28834 0.05667 0.42401 0.0
H1258 H 0.28507 0.85352 0.42656 0.0
H1259 H 0.28441 0.96693 0.36926 0.0
C1260 C 0.28734 0.89299 0.35225 0.0
C1261 C 0.28976 0.83596 0.35275 0.0
C1262 C 0.28572 0.8981 0.42596 0.0
C1263 C 0.28701 0.89535 0.38843 0.0
C1264 C 0.28601 0.92793 0.44381 0.0
C1265 C 0.28715 0.98571 0.44357 0.0
C1266 C 0.28648 0.9261 0.40765 0.0
C1267 C 0.28763 0.0122 0.42494 0.0
C1268 C 0.28601 0.9228 0.37 0.0
C1269 C 0.29038 0.80991 0.37147 0.0
N1270 N 0.28731 0.98226 0.40777 0.0
N1271 N 0.28904 0.83975 0.38851 0.0
H1272 H 0.53935 0.64952 0.10458 0.0
H1273 H 0.53867 0.66237 0.22405 0.0
H1274 H 0.54165 0.80108 0.13815 0.0
H1275 H 0.54252 0.51114 0.19066 0.0
H1276 H 0.53703 0.71355 0.19268 0.0
H1277 H 0.53781 0.5981 0.13587 0.0
C1278 C 0.53938 0.67209 0.1185 0.0
C1279 C 0.5407 0.72977 0.1187 0.0
C1280 C 0.53817 0.66912 0.19221 0.0
C1281 C 0.53906 0.67102 0.15465 0.0
C1282 C 0.53901 0.6398 0.21014 0.0
C1283 C 0.5408 0.58232 0.21003 0.0
C1284 C 0.53906 0.64081 0.17398 0.0
C1285 C 0.54134 0.55545 0.19149 0.0
C1286 C 0.5386 0.64265 0.13639 0.0
C1287 C 0.54084 0.75665 0.13726 0.0
N1288 N 0.5405 0.58489 0.17425 0.0
N1289 N 0.54006 0.7271 0.15446 0.0
H1290 H 0.7281 0.54295 0.12082 0.0
H1291 H 0.69864 0.80996 0.17401 0.0
H1292 H 0.70695 0.66943 0.08973 0.0
H1293 H 0.71716 0.67796 0.20631 0.0
H1294 H 0.70216 0.76004 0.143 0.0
H1295 H 0.72481 0.59273 0.15211 0.0
C1296 C 0.72279 0.58121 0.12052 0.0
C1297 C 0.71779 0.6018 0.1025 0.0
C1298 C 0.70546 0.74194 0.15687 0.0
C1299 C 0.71394 0.65912 0.13843 0.0
C1300 C 0.70341 0.77042 0.17468 0.0
C1301 C 0.70754 0.7483 0.193 0.0
C1302 C 0.71174 0.69076 0.1572 0.0
C1303 C 0.71389 0.69715 0.19265 0.0
C1304 C 0.72087 0.60953 0.13844 0.0
C1305 C 0.71085 0.65137 0.10319 0.0
N1306 N 0.71576 0.67017 0.17509 0.0
N1307 N 0.70917 0.67827 0.12079 0.0
H1308 H 0.45617 0.5495 0.87755 0.0
H1309 H 0.46264 0.25145 0.92812 0.0
H1310 H 0.46454 0.4015 0.84442 0.0
H1311 H 0.45828 0.40231 0.96157 0.0
H1312 H 0.46403 0.30565 0.89746 0.0
H1313 H 0.45774 0.49675 0.90853 0.0
C1314 C 0.4584 0.50591 0.87679 0.0
C1315 C 0.46014 0.47985 0.85831 0.0
C1316 C 0.46285 0.32695 0.91152 0.0
C1317 C 0.46191 0.41889 0.89384 0.0
C1318 C 0.46198 0.29596 0.92905 0.0
C1319 C 0.46026 0.32223 0.94751 0.0
C1320 C 0.4619 0.38477 0.91235 0.0
C1321 C 0.45969 0.3802 0.94776 0.0
C1322 C 0.45933 0.47579 0.89452 0.0
C1323 C 0.46321 0.42337 0.8583 0.0
N1324 N 0.46041 0.40941 0.93046 0.0
N1325 N 0.46387 0.39469 0.87576 0.0
H1326 H 0.27185 0.45022 0.94853 0.0
H1327 H 0.31226 0.36645 0.85403 0.0
H1328 H 0.30511 0.53856 0.93036 0.0
H1329 H 0.27202 0.3412 0.85358 0.0
H1330 H 0.31037 0.41937 0.88488 0.0
H1331 H 0.27214 0.39971 0.91657 0.0
C1332 C 0.27917 0.45907 0.93784 0.0
C1333 C 0.28843 0.49894 0.94209 0.0
C1334 C 0.30192 0.40246 0.87806 0.0
C1335 C 0.28891 0.44103 0.9058 0.0
C1336 C 0.30301 0.37206 0.86052 0.0
C1337 C 0.29228 0.34939 0.85131 0.0
C1338 C 0.29004 0.40954 0.88683 0.0
C1339 C 0.28049 0.35831 0.86023 0.0
C1340 C 0.27928 0.43054 0.9196 0.0
C1341 C 0.29769 0.50885 0.92765 0.0
N1342 N 0.27967 0.38724 0.87767 0.0
N1343 N 0.29776 0.47982 0.91033 0.0
H1344 H 0.04474 0.39839 0.97542 0.0
H1345 H 0.04129 0.37858 0.85612 0.0
H1346 H 0.03247 0.25206 0.9444 0.0
H1347 H 0.03781 0.53162 0.88833 0.0
H1348 H 0.04307 0.32901 0.88809 0.0
H1349 H 0.04722 0.44517 0.9432 0.0
C1350 C 0.04277 0.37587 0.96181 0.0
C1351 C 0.03834 0.32138 0.96255 0.0
C1352 C 0.04206 0.37352 0.88812 0.0
C1353 C 0.04117 0.37445 0.92571 0.0
C1354 C 0.04114 0.40173 0.86992 0.0
C1355 C 0.03934 0.45912 0.86966 0.0
C1356 C 0.04139 0.40313 0.90612 0.0
C1357 C 0.03907 0.48727 0.88795 0.0
C1358 C 0.0441 0.40264 0.94346 0.0
C1359 C 0.03578 0.29428 0.94445 0.0
N1360 N 0.04007 0.45906 0.90542 0.0
N1361 N 0.03723 0.32104 0.92678 0.0
H1362 H 0.20353 0.92151 0.85338 0.0
H1363 H 0.22552 0.94428 0.96734 0.0
H1364 H 0.22607 0.79809 0.88373 0.0
H1365 H 0.1968 0.04982 0.94134 0.0
H1366 H 0.22636 0.89263 0.93631 0.0
H1367 H 0.20127 0.97094 0.88498 0.0
C1368 C 0.20791 0.90445 0.86665 0.0
C1369 C 0.21511 0.85564 0.86574 0.0
C1370 C 0.21985 0.92704 0.93742 0.0
C1371 C 0.21271 0.9126 0.90195 0.0
C1372 C 0.21932 0.95663 0.95525 0.0
C1373 C 0.21105 0.00183 0.95719 0.0
C1374 C 0.21214 0.94274 0.92123 0.0
C1375 C 0.20344 0.01594 0.94063 0.0
C1376 C 0.20668 0.93291 0.88469 0.0
C1377 C 0.22066 0.83603 0.8835 0.0
N1378 N 0.2042 0.98663 0.92337 0.0
N1379 N 0.21941 0.86466 0.90078 0.0
H1380 H 0.03263 0.05283 0.38711 0.0
H1381 H 0.03984 0.76513 0.44367 0.0
H1382 H 0.04437 0.90315 0.35773 0.0
H1383 H 0.0388 0.9204 0.47492 0.0
H1384 H 0.04131 0.81495 0.41204 0.0
H1385 H 0.03448 0.00564 0.41934 0.0
C1386 C 0.03564 0.01007 0.38745 0.0
C1387 C 0.0383 0.98188 0.36966 0.0
C1388 C 0.04089 0.83827 0.4258 0.0
C1389 C 0.04041 0.92746 0.40654 0.0
C1390 C 0.04002 0.80982 0.44384 0.0
C1391 C 0.03915 0.8387 0.46192 0.0
C1392 C 0.04069 0.89625 0.42571 0.0
C1393 C 0.03953 0.89661 0.46133 0.0
C1394 C 0.03676 0.98325 0.40586 0.0
C1395 C 0.04231 0.92665 0.37102 0.0
N1396 N 0.04011 0.92353 0.44349 0.0
N1397 N 0.04311 0.90114 0.38909 0.0
H1398 H 0.22815 0.28146 0.38519 0.0
H1399 H 0.20229 0.5516 0.44051 0.0
H1400 H 0.20909 0.4152 0.35476 0.0
H1401 H 0.22018 0.41539 0.47125 0.0
H1402 H 0.20539 0.50379 0.40889 0.0
H1403 H 0.22583 0.33085 0.41664 0.0
C1404 C 0.22351 0.32133 0.38508 0.0
C1405 C 0.21887 0.34424 0.3672 0.0
C1406 C 0.20868 0.48437 0.42252 0.0
C1407 C 0.2161 0.40111 0.40337 0.0
C1408 C 0.2069 0.51165 0.44062 0.0
C1409 C 0.21091 0.48741 0.45864 0.0
C1410 C 0.21452 0.43226 0.42233 0.0
C1411 C 0.21703 0.43593 0.45777 0.0
C1412 C 0.22215 0.34945 0.40311 0.0
C1413 C 0.21272 0.39565 0.36813 0.0
N1414 N 0.21859 0.40997 0.43994 0.0
N1415 N 0.21156 0.42238 0.38589 0.0
H1416 H 0.96165 0.63807 0.09533 0.0
H1417 H 0.95823 0.65862 0.21456 0.0
H1418 H 0.96407 0.79214 0.12722 0.0
H1419 H 0.97032 0.51168 0.18383 0.0
H1420 H 0.95609 0.70597 0.18229 0.0
H1421 H 0.96063 0.58891 0.12735 0.0
C1422 C 0.96179 0.66155 0.10906 0.0
C1423 C 0.963 0.71923 0.10865 0.0
C1424 C 0.95913 0.66323 0.18262 0.0
C1425 C 0.9618 0.66346 0.14527 0.0
C1426 C 0.96025 0.63612 0.20101 0.0
C1427 C 0.96451 0.58122 0.20186 0.0
C1428 C 0.96208 0.63497 0.16494 0.0
C1429 C 0.96714 0.55418 0.18382 0.0
C1430 C 0.9613 0.63352 0.12731 0.0
C1431 C 0.96328 0.74762 0.12691 0.0
N1432 N 0.96588 0.58124 0.16612 0.0
N1433 N 0.96267 0.71953 0.14445 0.0
H1434 H 0.79237 0.15875 0.22081 0.0
H1435 H 0.78694 0.17562 0.10155 0.0
H1436 H 0.7792 0.30362 0.18951 0.0
H1437 H 0.7872 0.02219 0.13412 0.0
H1438 H 0.78811 0.22596 0.13332 0.0
H1439 H 0.79451 0.11088 0.18875 0.0
C1440 C 0.7901 0.1807 0.20717 0.0
C1441 C 0.78555 0.23516 0.20781 0.0
C1442 C 0.788 0.18125 0.13348 0.0
C1443 C 0.78796 0.18076 0.17111 0.0
C1444 C 0.78743 0.15258 0.11537 0.0
C1445 C 0.7869 0.09469 0.11523 0.0
C1446 C 0.78824 0.15179 0.15156 0.0
C1447 C 0.78743 0.06683 0.1336 0.0
C1448 C 0.79123 0.15328 0.1889 0.0
C1449 C 0.7826 0.26144 0.18967 0.0
N1450 N 0.78807 0.09557 0.15099 0.0
N1451 N 0.78386 0.23406 0.17209 0.0
H1452 H 0.95642 0.13746 0.59497 0.0
H1453 H 0.95711 0.15549 0.71443 0.0
H1454 H 0.96176 0.2891 0.62751 0.0
H1455 H 0.964 0.00518 0.68185 0.0
H1456 H 0.95407 0.20444 0.68267 0.0
H1457 H 0.95448 0.08791 0.62675 0.0
C1458 C 0.95696 0.1604 0.6088 0.0
C1459 C 0.95936 0.21732 0.60866 0.0
C1460 C 0.95613 0.16061 0.6825 0.0
C1461 C 0.95718 0.16117 0.64497 0.0
C1462 C 0.95776 0.13266 0.7006 0.0
C1463 C 0.96092 0.07636 0.70073 0.0
C1464 C 0.9575 0.13186 0.66443 0.0
C1465 C 0.96177 0.04877 0.68237 0.0
C1466 C 0.95595 0.13214 0.62691 0.0
C1467 C 0.9601 0.24507 0.62701 0.0
N1468 N 0.96012 0.07678 0.66497 0.0
N1469 N 0.95905 0.21675 0.64442 0.0
H1470 H 0.76171 0.73329 0.70457 0.0
H1471 H 0.80243 0.61063 0.61463 0.0
H1472 H 0.8023 0.7221 0.7084 0.0
H1473 H 0.76244 0.58614 0.6221 0.0
H1474 H 0.80307 0.65932 0.64701 0.0
H1475 H 0.76225 0.68682 0.67249 0.0
C1476 C 0.77078 0.72123 0.69859 0.0
C1477 C 0.78199 0.73198 0.70914 0.0
C1478 C 0.79419 0.64309 0.6415 0.0
C1479 C 0.7827 0.6781 0.67214 0.0
C1480 C 0.79381 0.61576 0.62302 0.0
C1481 C 0.78239 0.59392 0.61576 0.0
C1482 C 0.78302 0.64928 0.65253 0.0
C1483 C 0.77149 0.60142 0.62723 0.0
C1484 C 0.77108 0.69433 0.68026 0.0
C1485 C 0.79344 0.71434 0.70076 0.0
N1486 N 0.77208 0.62844 0.64492 0.0
N1487 N 0.79353 0.68852 0.68265 0.0
H1488 H 0.55339 0.4644 0.36775 0.0
H1489 H 0.51229 0.32994 0.45466 0.0
H1490 H 0.51291 0.47683 0.37276 0.0
H1491 H 0.55274 0.34435 0.46011 0.0
H1492 H 0.51297 0.3786 0.42311 0.0
H1493 H 0.55405 0.4149 0.39996 0.0
C1494 C 0.54468 0.45659 0.37558 0.0
C1495 C 0.53309 0.4752 0.36769 0.0
C1496 C 0.52175 0.37139 0.4311 0.0
C1497 C 0.53375 0.41903 0.40422 0.0
C1498 C 0.52136 0.3432 0.44912 0.0
C1499 C 0.53249 0.33258 0.45992 0.0
C1500 C 0.53338 0.38921 0.42358 0.0
C1501 C 0.54396 0.35191 0.4522 0.0
C1502 C 0.54506 0.42878 0.39396 0.0
C1503 C 0.52207 0.46426 0.37842 0.0
N1504 N 0.54413 0.37909 0.43436 0.0
N1505 N 0.52269 0.43696 0.39602 0.0
H1506 H 0.70263 0.06975 0.42421 0.0
H1507 H 0.72377 0.79179 0.36907 0.0
H1508 H 0.71509 0.92338 0.45559 0.0
H1509 H 0.70578 0.92857 0.33885 0.0
H1510 H 0.72152 0.84071 0.40073 0.0
H1511 H 0.70453 0.02014 0.39281 0.0
C1512 C 0.7057 0.02715 0.42463 0.0
C1513 C 0.70863 0.00093 0.44282 0.0
C1514 C 0.71803 0.86 0.38719 0.0
C1515 C 0.71101 0.94378 0.40653 0.0
C1516 C 0.71937 0.83218 0.36908 0.0
C1517 C 0.71498 0.85606 0.35121 0.0
C1518 C 0.71234 0.91247 0.38753 0.0
C1519 C 0.70918 0.90824 0.35222 0.0
C1520 C 0.70683 -0.00116 0.40657 0.0
C1521 C 0.71283 0.94578 0.44209 0.0
N1522 N 0.70809 0.93475 0.37003 0.0
N1523 N 0.71388 0.91916 0.42429 0.0
H1524 H 0.54193 0.89413 0.85414 0.0
H1525 H 0.54234 0.91306 0.97353 0.0
H1526 H 0.53587 0.0455 0.88648 0.0
H1527 H 0.53532 0.76223 0.94128 0.0
H1528 H 0.54469 0.96175 0.94168 0.0
H1529 H 0.54425 0.84487 0.886 0.0
C1530 C 0.54131 0.91708 0.86794 0.0
C1531 C 0.53861 0.97382 0.86773 0.0
C1532 C 0.54275 0.91788 0.9416 0.0
C1533 C 0.54122 0.91803 0.90411 0.0
C1534 C 0.5415 0.89007 0.95975 0.0
C1535 C 0.53854 0.83366 0.96 0.0
C1536 C 0.54119 0.8889 0.92359 0.0
C1537 C 0.53742 0.8059 0.9417 0.0
C1538 C 0.54253 0.88898 0.88609 0.0
C1539 C 0.53777 0.0016 0.88604 0.0
N1540 N 0.53872 0.83377 0.92424 0.0
N1541 N 0.53904 0.97345 0.90348 0.0
H1542 H 0.71582 0.41021 0.958 0.0
H1543 H 0.70529 0.41796 0.83942 0.0
H1544 H 0.7027 0.55378 0.9256 0.0
H1545 H 0.7242 0.284 0.86993 0.0
H1546 H 0.70288 0.46545 0.87133 0.0
H1547 H 0.718 0.36115 0.92632 0.0
C1548 C 0.71345 0.43166 0.94432 0.0
C1549 C 0.709 0.48643 0.94468 0.0
C1550 C 0.70755 0.42562 0.87107 0.0
C1551 C 0.71132 0.42993 0.90824 0.0
C1552 C 0.70884 0.39825 0.85283 0.0
C1553 C 0.71498 0.34685 0.85193 0.0
C1554 C 0.71235 0.40137 0.88863 0.0
C1555 C 0.71955 0.32382 0.86986 0.0
C1556 C 0.71464 0.40343 0.9262 0.0
C1557 C 0.70595 0.51149 0.9263 0.0
N1558 N 0.71813 0.35115 0.88743 0.0
N1559 N 0.70713 0.48309 0.90894 0.0
H1560 H 0.46189 0.80003 0.62645 0.0
H1561 H 0.46598 0.51171 0.68162 0.0
H1562 H 0.45831 0.6458 0.59498 0.0
H1563 H 0.45663 0.66237 0.7124 0.0
H1564 H 0.46309 0.55946 0.64972 0.0
H1565 H 0.45975 0.7507 0.6581 0.0
C1566 C 0.46051 0.75575 0.62626 0.0
C1567 C 0.46034 0.72681 0.60815 0.0
C1568 C 0.46151 0.58195 0.66343 0.0
C1569 C 0.45806 0.66993 0.64425 0.0
C1570 C 0.46323 0.5548 0.68162 0.0
C1571 C 0.46163 0.58329 0.69964 0.0
C1572 C 0.45839 0.63833 0.66324 0.0
C1573 C 0.45791 0.6389 0.69884 0.0
C1574 C 0.45925 0.72764 0.64429 0.0
C1575 C 0.45843 0.66956 0.60864 0.0
N1576 N 0.45659 0.66485 0.68094 0.0
N1577 N 0.45756 0.64281 0.62644 0.0
H1578 H 0.28491 0.16058 0.58906 0.0
H1579 H 0.29 0.14735 0.70844 0.0
H1580 H 0.28524 0.00774 0.62203 0.0
H1581 H 0.27826 0.29268 0.67605 0.0
H1582 H 0.29179 0.09744 0.67668 0.0
H1583 H 0.2859 0.21148 0.62061 0.0
C1584 C 0.28533 0.13772 0.60292 0.0
C1585 C 0.28494 0.07978 0.6029 0.0
C1586 C 0.28889 0.14035 0.67654 0.0
C1587 C 0.28606 0.13778 0.6391 0.0
C1588 C 0.28796 0.16891 0.69464 0.0
C1589 C 0.2839 0.22413 0.69489 0.0
C1590 C 0.2859 0.16745 0.65855 0.0
C1591 C 0.28126 0.24995 0.67655 0.0
C1592 C 0.28581 0.16678 0.62093 0.0
C1593 C 0.28536 0.05236 0.62137 0.0
N1594 N 0.2823 0.22148 0.65917 0.0
N1595 N 0.28591 0.08153 0.6387 0.0
H1596 H 0.46674 0.01089 0.18224 0.0
H1597 H 0.46096 0.2955 0.12452 0.0
H1598 H 0.45712 0.16306 0.21181 0.0
H1599 H 0.45863 0.13868 0.09446 0.0
H1600 H 0.45926 0.24806 0.15661 0.0
H1601 H 0.46359 0.0563 0.14996 0.0
C1602 C 0.46388 0.05383 0.1819 0.0
C1603 C 0.46228 0.08341 0.1997 0.0
C1604 C 0.45895 0.22398 0.14302 0.0
C1605 C 0.45874 0.13586 0.16282 0.0
C1606 C 0.45996 0.25103 0.12472 0.0
C1607 C 0.46001 0.22088 0.10686 0.0
C1608 C 0.45821 0.16613 0.14352 0.0
C1609 C 0.45857 0.1634 0.1079 0.0
C1610 C 0.46201 0.07965 0.16349 0.0
C1611 C 0.4584 0.13876 0.19844 0.0
N1612 N 0.45792 0.13776 0.12594 0.0
N1613 N 0.45694 0.16343 0.18031 0.0
H1614 H 0.29229 0.64192 0.2086 0.0
H1615 H 0.28904 0.66015 0.08924 0.0
H1616 H 0.28383 0.79125 0.1761 0.0
H1617 H 0.28693 0.50637 0.12145 0.0
H1618 H 0.2909 0.70938 0.12095 0.0
H1619 H 0.29411 0.59228 0.17677 0.0
C1620 C 0.291 0.66436 0.19476 0.0
C1621 C 0.28781 0.72064 0.19495 0.0
C1622 C 0.29011 0.66482 0.12108 0.0
C1623 C 0.28985 0.66439 0.1586 0.0
C1624 C 0.28913 0.63665 0.10297 0.0
C1625 C 0.28776 0.57904 0.10268 0.0
C1626 C 0.28982 0.63522 0.1391 0.0
C1627 C 0.28779 0.55085 0.121 0.0
C1628 C 0.29195 0.63601 0.17664 0.0
C1629 C 0.28613 0.74771 0.1766 0.0
N1630 N 0.28878 0.57918 0.13846 0.0
N1631 N 0.28715 0.71938 0.1592 0.0
H1632 H 0.10021 0.23331 1.00889 0.0
H1633 H 0.15184 0.03406 0.05912 0.0
H1634 H 0.0952 0.15595 0.06634 0.0
H1635 H 0.16169 0.16218 0.01747 0.0
H1636 H 0.12977 0.06603 0.05782 0.0
H1637 H 0.12188 0.19752 1.0083 0.0
C1638 C 0.10362 0.20912 0.02141 0.0
C1639 C 0.09571 0.19741 0.0376 0.0
C1640 C 0.13677 0.0869 0.04889 0.0
C1641 C 0.12043 0.1551 0.03671 0.0
C1642 C 0.14931 0.06841 0.04953 0.0
C1643 C 0.15856 0.09581 0.0385 0.0
C1644 C 0.13347 0.13246 0.03689 0.0
C1645 C 0.15482 0.14033 0.02635 0.0
C1646 C 0.11597 0.18836 0.02097 0.0
C1647 C 0.10072 0.16503 0.05325 0.0
N1648 N 0.14257 0.15728 0.02585 0.0
N1649 N 0.11268 0.14483 0.05235 0.0
H1650 H 0.09929 0.11259 0.26613 0.0
H1651 H 0.16059 0.16805 0.33356 0.0
H1652 H 0.10054 0.07301 0.32886 0.0
H1653 H 0.1542 0.23863 0.27524 0.0
H1654 H 0.13957 0.12565 0.33181 0.0
H1655 H 0.12052 0.15004 0.26871 0.0
C1656 C 0.10403 0.11184 0.2805 0.0
C1657 C 0.09801 0.09047 0.29739 0.0
C1658 C 0.14278 0.15066 0.31947 0.0
C1659 C 0.12251 0.13306 0.30042 0.0
C1660 C 0.15477 0.17476 0.32044 0.0
C1661 C 0.15915 0.2072 0.30456 0.0
C1662 C 0.1352 0.15848 0.30241 0.0
C1663 C 0.15117 0.21473 0.28797 0.0
C1664 C 0.11619 0.1332 0.28195 0.0
C1665 C 0.10482 0.08912 0.31547 0.0
N1666 N 0.13965 0.19039 0.2873 0.0
N1667 N 0.1167 0.11048 0.31655 0.0
H1668 H 0.84653 0.9871 1.01148 0.0
H1669 H 0.90337 0.829 0.06718 0.0
H1670 H 0.84545 0.94261 0.07377 0.0
H1671 H 0.90219 0.86262 1.00399 0.0
H1672 H 0.88229 0.87019 0.07026 0.0
H1673 H 0.8673 0.94411 1.00902 0.0
C1674 C 0.85071 0.96889 0.02473 0.0
C1675 C 0.8442 0.96879 0.04289 0.0
C1676 C 0.88664 0.86839 0.05572 0.0
C1677 C 0.86802 0.91826 0.04006 0.0
C1678 C 0.89865 0.84449 0.05392 0.0
C1679 C 0.90465 0.84267 0.03532 0.0
C1680 C 0.88058 0.89067 0.03879 0.0
C1681 C 0.89808 0.86401 0.01871 0.0
C1682 C 0.86255 0.94378 0.02326 0.0
C1683 C 0.85005 0.94332 0.05942 0.0
N1684 N 0.88648 0.88722 0.02086 0.0
N1685 N 0.86162 0.91915 0.05762 0.0
H1686 H 0.90657 0.92019 0.74195 0.0
H1687 H 0.84731 0.86042 0.8122 0.0
H1688 H 0.90449 0.96636 0.80398 0.0
H1689 H 0.84682 0.82743 0.74897 0.0
H1690 H 0.86889 0.89369 0.80948 0.0
H1691 H 0.88529 0.8811 0.74418 0.0
C1692 C 0.90166 0.92207 0.75603 0.0
C1693 C 0.90732 0.94692 0.77278 0.0
C1694 C 0.8641 0.87915 0.79617 0.0
C1695 C 0.88299 0.90223 0.77543 0.0
C1696 C 0.85174 0.86025 0.7977 0.0
C1697 C 0.84516 0.84177 0.78073 0.0
C1698 C 0.87004 0.87963 0.77752 0.0
C1699 C 0.85154 0.84121 0.76244 0.0
C1700 C 0.8895 0.8999 0.75727 0.0
C1701 C 0.90045 0.94853 0.79059 0.0
N1702 N 0.86361 0.86023 0.76129 0.0
N1703 N 0.8887 0.92647 0.79144 0.0
H1704 H 0.09344 0.65675 0.50954 0.0
H1705 H 0.15559 0.62522 0.57682 0.0
H1706 H 0.0965 0.71836 0.56981 0.0
H1707 H 0.14981 0.53302 0.52258 0.0
H1708 H 0.1339 0.65957 0.57443 0.0
H1709 H 0.11403 0.61184 0.51365 0.0
C1710 C 0.09837 0.66073 0.52367 0.0
C1711 C 0.09316 0.69185 0.53931 0.0
C1712 C 0.13729 0.63132 0.56315 0.0
C1713 C 0.11687 0.64074 0.544 0.0
C1714 C 0.14966 0.61162 0.56455 0.0
C1715 C 0.15449 0.57624 0.54988 0.0
C1716 C 0.12969 0.61626 0.54678 0.0
C1717 C 0.14641 0.55988 0.53428 0.0
C1718 C 0.11016 0.63508 0.52598 0.0
C1719 C 0.10017 0.69594 0.55715 0.0
N1720 N 0.13445 0.58055 0.533 0.0
N1721 N 0.11164 0.67094 0.55896 0.0
H1722 H 0.14685 0.79342 0.81079 0.0
H1723 H 0.10449 0.52 0.80699 0.0
H1724 H 0.16203 0.62996 0.80104 0.0
H1725 H 0.089 0.68511 0.80468 0.0
H1726 H 0.12571 0.55918 0.80825 0.0
H1727 H 0.12566 0.754 0.81203 0.0
C1728 C 0.14577 0.7493 0.80888 0.0
C1729 C 0.15632 0.71513 0.80574 0.0
C1730 C 0.11766 0.58682 0.80753 0.0
C1731 C 0.13201 0.66958 0.80741 0.0
C1732 C 0.10551 0.56445 0.80671 0.0
C1733 C 0.09487 0.59917 0.80564 0.0
C1734 C 0.11922 0.64439 0.80736 0.0
C1735 C 0.09687 0.65657 0.80575 0.0
C1736 C 0.13364 0.72678 0.80969 0.0
C1737 C 0.15426 0.65802 0.80378 0.0
N1738 N 0.10878 0.6773 0.80655 0.0
N1739 N 0.14237 0.63715 0.80461 0.0
H1740 H 0.8455 0.49045 0.51302 0.0
H1741 H 0.90507 0.37058 0.57344 0.0
H1742 H 0.84509 0.46336 0.57659 0.0
H1743 H 0.9006 0.35604 0.50968 0.0
H1744 H 0.88408 0.4134 0.57517 0.0
H1745 H 0.86679 0.45127 0.51183 0.0
C1746 C 0.84995 0.47688 0.52678 0.0
C1747 C 0.84349 0.48028 0.54494 0.0
C1748 C 0.88769 0.40069 0.56082 0.0
C1749 C 0.86786 0.43478 0.54365 0.0
C1750 C 0.89968 0.37645 0.55981 0.0
C1751 C 0.90458 0.35954 0.54139 0.0
C1752 C 0.88061 0.40881 0.54324 0.0
C1753 C 0.89714 0.36781 0.52422 0.0
C1754 C 0.86206 0.45402 0.52606 0.0
C1755 C 0.84967 0.46115 0.56224 0.0
N1756 N 0.88557 0.39208 0.52555 0.0
N1757 N 0.86152 0.43934 0.56118 0.0
H1758 H 0.90717 0.41878 0.30445 0.0
H1759 H 0.83881 0.43183 0.25816 0.0
H1760 H 0.90133 0.49705 0.24717 0.0
H1761 H 0.85237 0.28899 0.29025 0.0
H1762 H 0.86059 0.46663 0.25652 0.0
H1763 H 0.88588 0.38211 0.30266 0.0
C1764 C 0.90151 0.42796 0.29135 0.0
C1765 C 0.90629 0.46012 0.27566 0.0
C1766 C 0.85878 0.42741 0.26369 0.0
C1767 C 0.88156 0.41951 0.27402 0.0
C1768 C 0.84642 0.40763 0.26465 0.0
C1769 C 0.84388 0.35747 0.27429 0.0
C1770 C 0.86856 0.39749 0.27295 0.0
C1771 C 0.85399 0.32761 0.28256 0.0
C1772 C 0.88929 0.4071 0.29044 0.0
C1773 C 0.89812 0.47254 0.25961 0.0
N1774 N 0.86588 0.34848 0.28196 0.0
N1775 N 0.88612 0.4523 0.25922 0.0
H1776 H 0.59656 0.21237 0.56053 0.0
H1777 H 0.64995 0.04367 0.50187 0.0
H1778 H 0.59163 0.1548 0.50008 0.0
H1779 H 0.6547 0.1104 0.56104 0.0
H1780 H 0.6279 0.07567 0.50181 0.0
H1781 H 0.61738 0.16934 0.56153 0.0
C1782 C 0.59989 0.19109 0.54737 0.0
C1783 C 0.59232 0.1878 0.53012 0.0
C1784 C 0.63374 0.0828 0.51488 0.0
C1785 C 0.61622 0.13721 0.5313 0.0
C1786 C 0.64628 0.06406 0.51499 0.0
C1787 C 0.65418 0.07471 0.53144 0.0
C1788 C 0.62909 0.11219 0.53137 0.0
C1789 C 0.64898 0.1019 0.54795 0.0
C1790 C 0.61176 0.16601 0.54802 0.0
C1791 C 0.59707 0.15824 0.51374 0.0
N1792 N 0.63682 0.11995 0.54744 0.0
N1793 N 0.60873 0.1343 0.5147 0.0
H1794 H 0.66146 0.12915 0.79506 0.0
H1795 H 0.5872 0.1932 0.79428 0.0
H1796 H 0.64576 0.29134 0.78451 0.0
H1797 H 0.60306 0.03004 0.80185 0.0
H1798 H 0.60854 0.23101 0.79309 0.0
H1799 H 0.64018 0.09345 0.79978 0.0
C1800 C 0.65353 0.15733 0.79372 0.0
C1801 C 0.65543 0.21332 0.78918 0.0
C1802 C 0.60736 0.18697 0.7951 0.0
C1803 C 0.63094 0.17259 0.79476 0.0
C1804 C 0.59516 0.16531 0.79592 0.0
C1805 C 0.59329 0.10822 0.79816 0.0
C1806 C 0.61782 0.15138 0.79653 0.0
C1807 C 0.60401 0.07416 0.79984 0.0
C1808 C 0.64137 0.1369 0.79651 0.0
C1809 C 0.64478 0.248 0.78808 0.0
N1810 N 0.61579 0.09624 0.79895 0.0
N1811 N 0.633 0.22701 0.79073 0.0
H1812 H 0.41201 0.94787 0.53669 0.0
H1813 H 0.33817 0.87852 0.53282 0.0
H1814 H 0.39692 0.7827 0.53931 0.0
H1815 H 0.35256 0.04493 0.53365 0.0
H1816 H 0.35968 0.84337 0.53619 0.0
H1817 H 0.39048 0.98466 0.53677 0.0
C1818 C 0.40419 0.91926 0.53748 0.0
C1819 C 0.40635 0.86192 0.53794 0.0
C1820 C 0.35818 0.8876 0.5357 0.0
C1821 C 0.38159 0.90402 0.53775 0.0
C1822 C 0.34588 0.90775 0.53368 0.0
C1823 C 0.34355 0.96482 0.53271 0.0
C1824 C 0.36833 0.92465 0.53671 0.0
C1825 C 0.35391 0.00065 0.53436 0.0
C1826 C 0.39188 0.94038 0.53741 0.0
C1827 C 0.39578 0.82707 0.53862 0.0
N1828 N 0.36585 0.97997 0.53612 0.0
N1829 N 0.3839 0.84864 0.53844 0.0
H1830 H 0.35352 0.78205 0.24744 0.0
H1831 H 0.39978 0.01153 0.28911 0.0
H1832 H 0.33978 0.93329 0.27348 0.0
H1833 H 0.40973 0.9113 0.23821 0.0
H1834 H 0.37829 0.97632 0.28688 0.0
H1835 H 0.37498 0.82077 0.2475 0.0
C1836 C 0.35504 0.82335 0.25315 0.0
C1837 C 0.34491 0.85471 0.26039 0.0
C1838 C 0.3852 0.96231 0.27618 0.0
C1839 C 0.36928 0.89866 0.26076 0.0
C1840 C 0.39749 0.98271 0.27731 0.0
C1841 C 0.40674 0.9646 0.26384 0.0
C1842 C 0.38212 0.92261 0.26175 0.0
C1843 C 0.40311 0.92582 0.24924 0.0
C1844 C 0.36723 0.84545 0.25309 0.0
C1845 C 0.34734 0.90805 0.2676 0.0
N1846 N 0.39113 0.90579 0.2487 0.0
N1847 N 0.3593 0.92818 0.26778 0.0
H1848 H 0.58715 0.60398 0.03359 0.0
H1849 H 0.65989 0.65756 1.00904 0.0
H1850 H 0.60257 0.76271 0.01801 0.0
H1851 H 0.64758 0.51152 0.04006 0.0
H1852 H 0.63814 0.68992 1.00734 0.0
H1853 H 0.60843 0.56368 0.03163 0.0
C1854 C 0.595 0.63024 0.02961 0.0
C1855 C 0.5931 0.68688 0.02602 0.0
C1856 C 0.64013 0.65072 1.01449 0.0
C1857 C 0.61739 0.64103 0.02371 0.0
C1858 C 0.65257 0.63217 0.01549 0.0
C1859 C 0.6556 0.58227 0.0251 0.0
C1860 C 0.63052 0.61916 0.02305 0.0
C1861 C 0.64566 0.55037 0.03263 0.0
C1862 C 0.60712 0.60725 0.0286 0.0
C1863 C 0.60361 0.71905 0.02111 0.0
N1864 N 0.63354 0.56961 0.03161 0.0
N1865 N 0.61527 0.69567 0.02007 0.0
H1866 H 0.66164 0.63942 0.29735 0.0
H1867 H 0.58728 0.69888 0.29808 0.0
H1868 H 0.64531 0.80024 0.28647 0.0
H1869 H 0.60382 0.53809 0.30838 0.0
H1870 H 0.60844 0.73821 0.29643 0.0
H1871 H 0.6406 0.60313 0.30371 0.0
C1872 C 0.65362 0.66715 0.29629 0.0
C1873 C 0.65525 0.72288 0.29115 0.0
C1874 C 0.60745 0.69439 0.29918 0.0
C1875 C 0.63105 0.68155 0.29859 0.0
C1876 C 0.59535 0.67189 0.30028 0.0
C1877 C 0.59373 0.61494 0.30333 0.0
C1878 C 0.61805 0.65979 0.3011 0.0
C1879 C 0.60458 0.58202 0.30571 0.0
C1880 C 0.6416 0.64642 0.30003 0.0
C1881 C 0.64452 0.75709 0.29045 0.0
N1882 N 0.61626 0.60487 0.30446 0.0
N1883 N 0.63287 0.73578 0.29398 0.0
H1884 H 0.34785 0.49033 1.0 0.0
H1885 H 0.40509 0.37168 0.06637 0.0
H1886 H 0.34549 0.46692 0.06361 0.0
H1887 H 0.40305 0.35515 1.00239 0.0
H1888 H 0.3843 0.4165 0.06585 0.0
H1889 H 0.3693 0.45209 1.00084 0.0
C1890 C 0.35192 0.47787 1.01418 0.0
C1891 C 0.34486 0.48167 0.03175 0.0
C1892 C 0.3884 0.40298 0.05193 0.0
C1893 C 0.36935 0.43738 0.0328 0.0
C1894 C 0.40027 0.37756 0.05222 0.0
C1895 C 0.40579 0.3594 0.0344 0.0
C1896 C 0.38204 0.41099 0.03368 0.0
C1897 C 0.39908 0.3678 0.0165 0.0
C1898 C 0.36411 0.45556 1.01463 0.0
C1899 C 0.35055 0.4642 0.04968 0.0
N1900 N 0.3876 0.39315 0.01658 0.0
N1901 N 0.36244 0.44282 0.04975 0.0
H1902 H 0.40839 0.41329 0.73493 0.0
H1903 H 0.33753 0.44005 0.77274 0.0
H1904 H 0.39801 0.51024 0.7864 0.0
H1905 H 0.35087 0.29535 0.7418 0.0
H1906 H 0.35905 0.47645 0.77313 0.0
H1907 H 0.38675 0.37909 0.73285 0.0
C1908 C 0.40165 0.4274 0.74586 0.0
C1909 C 0.4052 0.46465 0.76099 0.0
C1910 C 0.35727 0.43682 0.76621 0.0
C1911 C 0.38024 0.42651 0.75822 0.0
C1912 C 0.34499 0.4162 0.76585 0.0
C1913 C 0.34243 0.36466 0.75719 0.0
C1914 C 0.36706 0.40611 0.75758 0.0
C1915 C 0.35247 0.33512 0.74872 0.0
C1916 C 0.38926 0.40795 0.74455 0.0
C1917 C 0.3958 0.48235 0.77428 0.0
N1918 N 0.36436 0.35641 0.74903 0.0
N1919 N 0.38379 0.46323 0.77256 0.0
H1920 H 0.00426 0.36742 0.05388 0.0
H1921 H 0.99777 0.68329 0.02109 0.0
H1922 H 0.03547 0.46229 0.03128 0.0
H1923 H 0.96634 0.58341 0.03984 0.0
H1924 H 0.01178 0.60406 0.02533 0.0
H1925 H 0.99056 0.44742 0.05005 0.0
C1926 C 0.00827 0.40532 0.0482 0.0
C1927 C 0.02105 0.40812 0.04283 0.0
C1928 C 0.00183 0.59931 0.02846 0.0
C1929 C 0.00527 0.50024 0.03827 0.0
C1930 C 0.99379 0.64452 0.02602 0.0
C1931 C 0.98084 0.63992 0.03012 0.0
C1932 C 0.99693 0.54898 0.03515 0.0
C1933 C 0.97624 0.5887 0.03643 0.0
C1934 C 0.0004 0.45102 0.04597 0.0
C1935 C 0.02569 0.45841 0.03565 0.0
N1936 N 0.9843 0.54524 0.03882 0.0
N1937 N 0.01778 0.50254 0.0335 0.0
H1938 H 0.24967 0.60231 0.03597 0.0
H1939 H 0.23318 0.91702 0.01751 0.0
H1940 H 0.27778 0.7205 0.01812 0.0
H1941 H 0.21538 0.82774 0.06538 0.0
H1942 H 0.24703 0.8385 1.01176 0.0
H1943 H 0.23471 0.67835 0.04149 0.0
C1944 C 0.25266 0.64426 0.03306 0.0
C1945 C 0.26496 0.65525 0.02648 0.0
C1946 C 0.24004 0.83595 0.02343 0.0
C1947 C 0.24787 0.74189 0.03255 0.0
C1948 C 0.23199 0.88056 0.02664 0.0
C1949 C 0.22299 0.8791 0.04196 0.0
C1950 C 0.23903 0.78877 0.03534 0.0
C1951 C 0.22215 0.8307 0.05342 0.0
C1952 C 0.24414 0.68747 0.03635 0.0
C1953 C 0.26839 0.71031 0.02318 0.0
N1954 N 0.23004 0.78722 0.04982 0.0
N1955 N 0.25984 0.7516 0.02605 0.0
H1956 H 0.03679 0.83567 0.2956 0.0
H1957 H 0.96644 0.72202 0.27695 0.0
H1958 H 0.00501 0.93962 0.27996 0.0
H1959 H 0.99833 0.61931 0.29311 0.0
H1960 H 0.98033 0.80302 0.27824 0.0
H1961 H 0.02274 0.75541 0.29483 0.0
C1962 C 0.02689 0.84155 0.29198 0.0
C1963 C 0.02208 0.89425 0.28783 0.0
C1964 C 0.98425 0.76265 0.28153 0.0
C1965 C 0.00595 0.80314 0.28696 0.0
C1966 C 0.97631 0.71657 0.28083 0.0
C1967 C 0.98123 0.66396 0.28489 0.0
C1968 C 0.99714 0.75577 0.28633 0.0
C1969 C 0.99412 0.65908 0.2898 0.0
C1970 C 0.01886 0.79586 0.29156 0.0
C1971 C 0.00915 0.89968 0.28326 0.0
N1972 N 0.0016 0.70429 0.29035 0.0
N1973 N 0.00155 0.85475 0.28295 0.0
H1974 H 0.24839 0.3712 0.2699 0.0
H1975 H 0.25421 0.6953 0.2894 0.0
H1976 H 0.21758 0.47211 0.29095 0.0
H1977 H 0.28539 0.59277 0.27081 0.0
H1978 H 0.24063 0.61441 0.28973 0.0
H1979 H 0.26184 0.45241 0.26914 0.0
C1980 C 0.24441 0.41062 0.27424 0.0
C1981 C 0.23184 0.41495 0.28055 0.0
C1982 C 0.25044 0.60945 0.28564 0.0
C1983 C 0.24727 0.50818 0.27986 0.0
C1984 C 0.25823 0.65561 0.28548 0.0
C1985 C 0.27096 0.65068 0.28004 0.0
C1986 C 0.25539 0.55787 0.28025 0.0
C1987 C 0.27565 0.5983 0.27515 0.0
C1988 C 0.25213 0.45697 0.27386 0.0
C1989 C 0.2272 0.46703 0.28595 0.0
N1990 N 0.26783 0.55386 0.27531 0.0
N1991 N 0.23495 0.51169 0.28556 0.0
H1992 H 0.77706 0.21284 0.0557 0.0
H1993 H 0.71767 0.36075 1.00653 0.0
H1994 H 0.75438 0.1301 1.01127 0.0
H1995 H 0.72645 0.38048 0.06902 0.0
H1996 H 0.73314 0.28506 1.00489 0.0
H1997 H 0.76096 0.28638 0.0574 0.0
C1998 C 0.76881 0.21075 0.04608 0.0
C1999 C 0.76703 0.16568 0.03327 0.0
C2000 C 0.73155 0.30561 0.01899 0.0
C2001 C 0.74871 0.249 0.03511 0.0
C2002 C 0.72269 0.34844 0.01996 0.0
C2003 C 0.72065 0.37625 0.03801 0.0
C2004 C 0.7387 0.2918 0.03601 0.0
C2005 C 0.72757 0.35939 0.05491 0.0
C2006 C 0.75959 0.2522 0.04722 0.0
C2007 C 0.75608 0.16428 0.02134 0.0
N2008 N 0.73643 0.31877 0.05344 0.0
N2009 N 0.74737 0.20552 0.02242 0.0
H2010 H 0.96666 0.21075 0.77749 0.0
H2011 H 0.03677 0.33106 0.79131 0.0
H2012 H 0.99951 0.10936 0.78916 0.0
H2013 H 0.00402 0.43152 0.77796 0.0
H2014 H 0.02332 0.24883 0.79031 0.0
H2015 H 0.98022 0.29256 0.77779 0.0
C2016 C 0.9767 0.20576 0.7802 0.0
C2017 C 0.98196 0.15329 0.78331 0.0
C2018 C 0.0191 0.28892 0.78754 0.0
C2019 C 0.99753 0.2463 0.78357 0.0
C2020 C 0.02679 0.33575 0.78805 0.0
C2021 C 0.0215 0.38811 0.78475 0.0
C2022 C 0.00607 0.29469 0.78373 0.0
C2023 C 0.0085 0.39194 0.78064 0.0
C2024 C 0.98445 0.25236 0.7803 0.0
C2025 C 0.99505 0.14907 0.78667 0.0
N2026 N 0.00123 0.34594 0.78031 0.0
N2027 N 0.00237 0.19491 0.7867 0.0
H2028 H 0.74522 0.38461 0.75817 0.0
H2029 H 0.7517 0.69471 0.79749 0.0
H2030 H 0.71414 0.47671 0.78303 0.0
H2031 H 0.78306 0.59785 0.77606 0.0
H2032 H 0.73771 0.61653 0.79164 0.0
H2033 H 0.75889 0.46408 0.7631 0.0
C2034 C 0.74122 0.42186 0.7645 0.0
C2035 C 0.72851 0.42403 0.77024 0.0
C2036 C 0.74765 0.6122 0.78828 0.0
C2037 C 0.74422 0.51524 0.77616 0.0
C2038 C 0.75567 0.65678 0.79168 0.0
C2039 C 0.76859 0.65273 0.78727 0.0
C2040 C 0.75254 0.56315 0.78032 0.0
C2041 C 0.77319 0.60264 0.77976 0.0
C2042 C 0.74907 0.46718 0.76739 0.0
C2043 C 0.72387 0.47339 0.77832 0.0
N2044 N 0.76515 0.55984 0.77644 0.0
N2045 N 0.73175 0.51703 0.78114 0.0
H2046 H 0.96354 0.08689 0.54124 0.0
H2047 H 0.03414 0.96976 0.52839 0.0
H2048 H 0.99378 0.1787 0.51421 0.0
H2049 H 0.00375 0.87789 0.55498 0.0
H2050 H 0.0196 0.04798 0.52354 0.0
H2051 H 0.97806 0.00856 0.54576 0.0
C2052 C 0.97315 0.09019 0.53599 0.0
C2053 C 0.97748 0.13923 0.52741 0.0
C2054 C 0.01615 0.01072 0.53054 0.0
C2055 C 0.99417 0.05075 0.53281 0.0
C2056 C 0.02449 0.96641 0.53346 0.0
C2057 C 0.02013 0.91742 0.54204 0.0
C2058 C 0.00344 0.00571 0.53628 0.0
C2059 C 0.00749 0.91487 0.54817 0.0
C2060 C 0.98148 0.0458 0.53872 0.0
C2061 C 0.99008 0.14168 0.52103 0.0
N2062 N 0.99959 0.95822 0.54511 0.0
N2063 N 0.99798 0.09824 0.52395 0.0
H2064 H 0.27685 0.20804 0.54068 0.0
H2065 H 0.20963 0.32243 0.50443 0.0
H2066 H 0.25041 0.10938 0.50698 0.0
H2067 H 0.22951 0.3887 0.55544 0.0
H2068 H 0.22529 0.248 0.50271 0.0
H2069 H 0.2607 0.28104 0.54316 0.0
C2070 C 0.26772 0.20207 0.53363 0.0
C2071 C 0.26495 0.15273 0.52362 0.0
C2072 C 0.22615 0.27873 0.51436 0.0
C2073 C 0.2465 0.23548 0.52639 0.0
C2074 C 0.21716 0.32107 0.51544 0.0
C2075 C 0.21824 0.36234 0.53005 0.0
C2076 C 0.23641 0.278 0.52781 0.0
C2077 C 0.22831 0.35835 0.54381 0.0
C2078 C 0.25848 0.24338 0.53519 0.0
C2079 C 0.25292 0.14675 0.51492 0.0
N2080 N 0.23706 0.31743 0.54222 0.0
N2081 N 0.24417 0.18763 0.51643 0.0
H2082 H 0.28416 0.09907 0.77001 0.0
H2083 H 0.21464 0.98222 0.79115 0.0
H2084 H 0.25343 0.19839 0.79232 0.0
H2085 H 0.24542 0.88263 0.76918 0.0
H2086 H 0.22865 0.06263 0.79126 0.0
H2087 H 0.27019 0.0185 0.7701 0.0
C2088 C 0.27454 0.10375 0.77514 0.0
C2089 C 0.26994 0.15539 0.78112 0.0
C2090 C 0.23231 0.02317 0.78634 0.0
C2091 C 0.25389 0.06403 0.78102 0.0
C2092 C 0.22429 0.97744 0.78616 0.0
C2093 C 0.22888 0.92579 0.78018 0.0
C2094 C 0.24498 0.01698 0.7805 0.0
C2095 C 0.24149 0.92171 0.77397 0.0
C2096 C 0.26654 0.05794 0.77507 0.0
C2097 C 0.25736 0.15934 0.78749 0.0
N2098 N 0.2491 0.96661 0.77435 0.0
N2099 N 0.24977 0.11437 0.7872 0.0
H2100 H 0.70977 0.83229 0.55547 0.0
H2101 H 0.77769 0.72227 0.52513 0.0
H2102 H 0.73168 0.90927 0.50914 0.0
H2103 H 0.74839 0.61016 0.54333 0.0
H2104 H 0.76198 0.79731 0.52404 0.0
H2105 H 0.72475 0.75436 0.55557 0.0
C2106 C 0.71761 0.83256 0.54519 0.0
C2107 C 0.71942 0.87733 0.53224 0.0
C2108 C 0.75903 0.75618 0.52825 0.0
C2109 C 0.73672 0.78955 0.53275 0.0
C2110 C 0.76798 0.71358 0.52896 0.0
C2111 C 0.7643 0.66005 0.5342 0.0
C2112 C 0.7464 0.74527 0.53327 0.0
C2113 C 0.75158 0.65085 0.53903 0.0
C2114 C 0.72615 0.78825 0.5453 0.0
C2115 C 0.72982 0.87561 0.51932 0.0
N2116 N 0.7431 0.6931 0.5386 0.0
N2117 N 0.73815 0.83289 0.52009 0.0
H2118 H 0.78416 0.1025 0.27611 0.0
H2119 H 0.71349 0.98489 0.28226 0.0
H2120 H 0.75254 0.19588 0.29858 0.0
H2121 H 0.74497 0.89277 0.25866 0.0
H2122 H 0.72758 0.06355 0.28788 0.0
H2123 H 0.77001 0.02422 0.27016 0.0
C2124 C 0.77429 0.10625 0.28003 0.0
C2125 C 0.76952 0.15566 0.28784 0.0
C2126 C 0.73137 0.0262 0.28135 0.0
C2127 C 0.75325 0.06695 0.28081 0.0
C2128 C 0.7233 0.98153 0.27799 0.0
C2129 C 0.72806 0.93232 0.27 0.0
C2130 C 0.74427 0.02143 0.27669 0.0
C2131 C 0.7409 0.92993 0.26492 0.0
C2132 C 0.76619 0.06179 0.27649 0.0
C2133 C 0.75662 0.15855 0.29248 0.0
N2134 N 0.74856 0.9737 0.26843 0.0
N2135 N 0.74894 0.11493 0.28884 0.0
H2136 H 0.53483 0.46486 0.53078 0.0
H2137 H 0.46473 0.59219 0.5354 0.0
H2138 H 0.50191 0.37139 0.54737 0.0
H2139 H 0.49778 0.68694 0.52045 0.0
H2140 H 0.47814 0.51002 0.53912 0.0
H2141 H 0.52143 0.54699 0.52687 0.0
C2142 C 0.52482 0.46174 0.53377 0.0
C2143 C 0.51949 0.41127 0.53942 0.0
C2144 C 0.48245 0.54879 0.53495 0.0
C2145 C 0.50407 0.50463 0.53476 0.0
C2146 C 0.47478 0.59557 0.53272 0.0
C2147 C 0.48014 0.64642 0.52762 0.0
C2148 C 0.49556 0.55298 0.53203 0.0
C2149 C 0.49323 0.64858 0.52445 0.0
C2150 C 0.51715 0.5085 0.53144 0.0
C2151 C 0.50644 0.40945 0.54297 0.0
N2152 N 0.50049 0.60264 0.52675 0.0
N2153 N 0.49919 0.45533 0.54054 0.0
H2154 H 0.50174 0.94266 0.7766 0.0
H2155 H 0.49683 0.61708 0.79373 0.0
H2156 H 0.53368 0.84004 0.79254 0.0
H2157 H 0.46515 0.71959 0.77646 0.0
H2158 H 0.51032 0.6983 0.79409 0.0
H2159 H 0.48826 0.86157 0.7767 0.0
C2160 C 0.50595 0.90292 0.78006 0.0
C2161 C 0.51888 0.89808 0.78459 0.0
C2162 C 0.50042 0.70318 0.79028 0.0
C2163 C 0.50339 0.80482 0.78483 0.0
C2164 C 0.49268 0.65682 0.79011 0.0
C2165 C 0.47983 0.66159 0.78502 0.0
C2166 C 0.49531 0.75489 0.7853 0.0
C2167 C 0.47499 0.71409 0.7805 0.0
C2168 C 0.49821 0.8566 0.78014 0.0
C2169 C 0.52377 0.84556 0.78892 0.0
N2170 N 0.48276 0.75873 0.78069 0.0
N2171 N 0.516 0.8009 0.78898 0.0
H2172 H 0.53562 0.34431 0.29324 0.0
H2173 H 0.46586 0.2234 0.27613 0.0
H2174 H 0.50352 0.44352 0.2754 0.0
H2175 H 0.4981 0.12393 0.29313 0.0
H2176 H 0.47944 0.30518 0.27628 0.0
H2177 H 0.52202 0.26265 0.29319 0.0
C2178 C 0.52575 0.34882 0.28918 0.0
C2179 C 0.52069 0.40068 0.28433 0.0
C2180 C 0.48352 0.26542 0.28003 0.0
C2181 C 0.50507 0.30789 0.2844 0.0
C2182 C 0.47575 0.21886 0.28003 0.0
C2183 C 0.48086 0.1669 0.2846 0.0
C2184 C 0.49645 0.25979 0.28465 0.0
C2185 C 0.49376 0.16322 0.28946 0.0
C2186 C 0.51797 0.30232 0.28923 0.0
C2187 C 0.50782 0.40431 0.27927 0.0
N2188 N 0.50111 0.20897 0.28931 0.0
N2189 N 0.50045 0.35861 0.27948 0.0
H2190 H 0.46518 0.08541 0.04087 0.0
H2191 H 0.53534 0.96562 0.02571 0.0
H2192 H 0.49518 0.17597 1.01265 0.0
H2193 H 0.5058 0.87903 0.05662 0.0
H2194 H 0.52087 0.04415 0.02104 0.0
H2195 H 0.4798 0.00766 0.04588 0.0
C2196 C 0.47477 0.08854 0.03548 0.0
C2197 C 0.47899 0.13705 0.0264 0.0
C2198 C 0.5176 0.00804 0.02898 0.0
C2199 C 0.49579 0.04925 0.03232 0.0
C2200 C 0.52591 0.96358 0.03181 0.0
C2201 C 0.52174 0.91588 0.04149 0.0
C2202 C 0.5051 0.00443 0.0359 0.0
C2203 C 0.50937 0.91496 0.04892 0.0
C2204 C 0.48315 0.04451 0.03849 0.0
C2205 C 0.49155 0.13934 0.01985 0.0
N2206 N 0.50148 0.95836 0.04587 0.0
N2207 N 0.49951 0.09622 0.023 0.0
H2208 H 0.97724 0.91858 1.00346 0.0
H2209 H 0.01841 0.13653 0.06493 0.0
H2210 H 0.96883 0.96776 0.06376 0.0
H2211 H 0.0275 0.08141 1.00551 0.0
H2212 H 1.00002 0.07631 0.06466 0.0
H2213 H 0.99482 0.98316 1.00318 0.0
C2214 C 0.97897 0.94374 0.01654 0.0
C2215 C 0.97165 0.93753 0.03373 0.0
C2216 C 0.00607 0.07709 0.05173 0.0
C2217 C 0.99191 0.01072 0.03366 0.0
C2218 C 0.01663 0.11115 0.05191 0.0
C2219 C 0.02449 0.11408 0.03517 0.0
C2220 C 0.0033 0.04583 0.03466 0.0
C2221 C 0.02174 0.08026 0.01876 0.0
C2222 C 0.98907 0.9803 0.01642 0.0
C2223 C 0.97423 0.97141 0.05019 0.0
N2224 N 0.01131 0.04779 0.01887 0.0
N2225 N 0.98427 0.00618 0.04984 0.0
H2226 H 0.257 0.10199 0.04085 0.0
H2227 H 0.27682 0.37311 0.9827 0.0
H2228 H 0.22991 0.21078 1.01265 0.0
H2229 H 0.29276 0.3383 0.0407 0.0
H2230 H 0.26334 0.29142 0.98579 0.0
H2231 H 0.27377 0.16944 0.03375 0.0
C2232 C 0.25464 0.1399 0.03306 0.0
C2233 C 0.24213 0.15155 0.02746 0.0
C2234 C 0.27004 0.30103 0.99759 0.0
C2235 C 0.26109 0.22674 0.01878 0.0
C2236 C 0.27775 0.34715 0.99578 0.0
C2237 C 0.28587 0.3617 1.01146 0.0
C2238 C 0.27061 0.26935 0.01507 0.0
C2239 C 0.28666 0.32756 0.02827 0.0
C2240 C 0.26415 0.17801 0.02904 0.0
C2241 C 0.23945 0.2009 0.0174 0.0
N2242 N 0.27903 0.28274 0.02972 0.0
N2243 N 0.2489 0.23667 1.01324 0.0
H2244 H 0.97868 0.38473 0.30886 0.0
H2245 H 0.02698 0.17185 0.25984 0.0
H2246 H 0.97789 0.34103 0.2465 0.0
H2247 H 0.02857 0.22117 0.32162 0.0
H2248 H 0.00938 0.23531 0.2544 0.0
H2249 H 0.9966 0.32293 0.31393 0.0
C2250 C 0.98219 0.3615 0.29627 0.0
C2251 C 0.97686 0.36823 0.2772 0.0
C2252 C 0.01364 0.23272 0.2691 0.0
C2253 C 0.99751 0.29804 0.28283 0.0
C2254 C 0.02374 0.19679 0.27219 0.0
C2255 C 0.02916 0.19106 0.29125 0.0
C2256 C 0.00887 0.26294 0.28522 0.0
C2257 C 0.02468 0.22456 0.30668 0.0
C2258 C 0.99248 0.3265 0.29916 0.0
C2259 C 0.98169 0.33679 0.26146 0.0
N2260 N 0.01468 0.25871 0.30338 0.0
N2261 N 0.99184 0.30331 0.2646 0.0
H2262 H 0.23068 0.13488 0.31242 0.0
H2263 H 0.27388 0.93156 0.24867 0.0
H2264 H 0.22215 0.08838 0.25175 0.0
H2265 H 0.28236 0.97837 0.3093 0.0
H2266 H 0.25537 0.9917 0.24903 0.0
H2267 H 0.24933 0.0757 0.31185 0.0
C2268 C 0.23263 0.11114 0.2991 0.0
C2269 C 0.22494 0.11641 0.28208 0.0
C2270 C 0.26133 0.98939 0.2622 0.0
C2271 C 0.24642 0.04988 0.28112 0.0
C2272 C 0.27195 0.95551 0.26194 0.0
C2273 C 0.27955 0.94989 0.27904 0.0
C2274 C 0.25826 0.0176 0.27976 0.0
C2275 C 0.27675 0.98187 0.2958 0.0
C2276 C 0.24334 0.07785 0.29871 0.0
C2277 C 0.22781 0.08494 0.26522 0.0
N2278 N 0.26619 0.01398 0.29584 0.0
N2279 N 0.23844 0.05334 0.26508 0.0
H2280 H 0.72391 0.71957 0.0183 0.0
H2281 H 0.79489 0.81892 1.00934 0.0
H2282 H 0.7536 0.5979 1.01285 0.0
H2283 H 0.76613 0.90101 0.04392 0.0
H2284 H 0.78041 0.74017 1.00479 0.0
H2285 H 0.73975 0.79163 0.02016 0.0
C2286 C 0.73378 0.70801 0.0173 0.0
C2287 C 0.73746 0.65263 0.01567 0.0
C2288 C 0.77743 0.77549 1.01349 0.0
C2289 C 0.75568 0.73514 0.01795 0.0
C2290 C 0.78565 0.82021 0.01615 0.0
C2291 C 0.7817 0.86688 0.02691 0.0
C2292 C 0.7652 0.7784 0.02138 0.0
C2293 C 0.76962 0.86638 0.03538 0.0
C2294 C 0.74282 0.74918 0.01848 0.0
C2295 C 0.75041 0.64022 1.01424 0.0
N2296 N 0.7618 0.82325 0.03225 0.0
N2297 N 0.75913 0.68133 0.01553 0.0
H2298 H 0.97075 0.82429 0.81558 0.0
H2299 H 0.0319 0.7194 0.75653 0.0
H2300 H 0.97938 0.87157 0.75525 0.0
H2301 H 0.02288 0.66901 0.81638 0.0
H2302 H 0.01314 0.77903 0.75625 0.0
H2303 H 0.98951 0.76457 0.81594 0.0
C2304 C 0.9764 0.82084 0.80225 0.0
C2305 C 0.97362 0.85286 0.7854 0.0
C2306 C 0.01534 0.75533 0.76953 0.0
C2307 C 0.9952 0.78664 0.78585 0.0
C2308 C 0.02615 0.7221 0.76977 0.0
C2309 C 0.02883 0.68922 0.78645 0.0
C2310 C 0.00724 0.75544 0.78609 0.0
C2311 C 0.021 0.69338 0.80315 0.0
C2312 C 0.98721 0.78757 0.80253 0.0
C2313 C 0.98134 0.84783 0.7686 0.0
N2314 N 0.01049 0.72547 0.8025 0.0
N2315 N 0.99185 0.81579 0.7693 0.0
H2316 H 0.7809 0.98065 0.75278 0.0
H2317 H 0.72132 0.09895 0.812 0.0
H2318 H 0.77072 0.92896 0.81213 0.0
H2319 H 0.73131 0.14997 0.75247 0.0
H2320 H 0.73937 0.03594 0.81228 0.0
H2321 H 0.76342 0.04679 0.75306 0.0
C2322 C 0.77516 0.98402 0.76602 0.0
C2323 C 0.77719 0.94896 0.78238 0.0
C2324 C 0.73756 0.06071 0.79911 0.0
C2325 C 0.75703 0.02339 0.78263 0.0
C2326 C 0.72717 0.09624 0.79887 0.0
C2327 C 0.72484 0.12992 0.78223 0.0
C2328 C 0.74565 0.05892 0.7826 0.0
C2329 C 0.7328 0.12497 0.76568 0.0
C2330 C 0.76509 0.0213 0.76609 0.0
C2331 C 0.76941 0.95483 0.7991 0.0
N2332 N 0.7429 0.09041 0.76633 0.0
N2333 N 0.7596 0.99094 0.79873 0.0
H2334 H 0.03546 0.54676 0.5498 0.0
H2335 H 0.96154 0.51073 0.525 0.0
H2336 H 0.0096 0.68267 0.53989 0.0
H2337 H 0.98807 0.37541 0.53036 0.0
H2338 H 0.97902 0.5752 0.53105 0.0
H2339 H 0.0179 0.48256 0.54403 0.0
C2340 C 0.02613 0.56302 0.5465 0.0
C2341 C 0.02404 0.61997 0.54514 0.0
C2342 C 0.98095 0.53128 0.53087 0.0
C2343 C 0.00401 0.54746 0.5385 0.0
C2344 C 0.97099 0.49467 0.52734 0.0
C2345 C 0.97329 0.43773 0.52735 0.0
C2346 C 0.99323 0.51053 0.53439 0.0
C2347 C 0.98576 0.41899 0.53048 0.0
C2348 C 0.01613 0.52654 0.54313 0.0
C2349 C 0.01173 0.63899 0.54084 0.0
N2350 N 0.99522 0.45521 0.53393 0.0
N2351 N 0.00222 0.60289 0.53765 0.0
H2352 H 0.25278 0.58288 0.53769 0.0
H2353 H 0.26872 0.88763 0.50126 0.0
H2354 H 0.225 0.69989 0.51629 0.0
H2355 H 0.29057 0.80717 0.54763 0.0
H2356 H 0.25541 0.80639 0.49877 0.0
H2357 H 0.26919 0.65383 0.53408 0.0
C2358 C 0.25019 0.62322 0.53197 0.0
C2359 C 0.23756 0.63596 0.52738 0.0
C2360 C 0.26321 0.80632 0.50934 0.0
C2361 C 0.25614 0.71614 0.52299 0.0
C2362 C 0.27086 0.85262 0.51076 0.0
C2363 C 0.28066 0.8547 0.52498 0.0
C2364 C 0.26538 0.76145 0.52209 0.0
C2365 C 0.28303 0.80758 0.53665 0.0
C2366 C 0.25951 0.66352 0.53001 0.0
C2367 C 0.23463 0.68871 0.52014 0.0
N2368 N 0.27533 0.76285 0.53509 0.0
N2369 N 0.24386 0.7269 0.51814 0.0
H2370 H 0.27986 0.48639 0.8096 0.0
H2371 H 0.21732 0.59169 0.75268 0.0
H2372 H 0.26864 0.43185 0.75089 0.0
H2373 H 0.22908 0.64946 0.81073 0.0
H2374 H 0.23555 0.52892 0.75239 0.0
H2375 H 0.26142 0.54784 0.81018 0.0
C2376 C 0.27367 0.48833 0.79668 0.0
C2377 C 0.27569 0.45395 0.78024 0.0
C2378 C 0.23406 0.55498 0.76528 0.0
C2379 C 0.25447 0.52245 0.78095 0.0
C2380 C 0.22357 0.5901 0.76554 0.0
C2381 C 0.22179 0.62577 0.78169 0.0
C2382 C 0.24274 0.55578 0.7813 0.0
C2383 C 0.23023 0.62285 0.7979 0.0
C2384 C 0.26306 0.5227 0.7971 0.0
C2385 C 0.2673 0.45729 0.76397 0.0
N2386 N 0.2404 0.58883 0.79723 0.0
N2387 N 0.25701 0.49059 0.76478 0.0
H2388 H 0.75136 0.10513 0.50394 0.0
H2389 H 0.77292 0.38236 0.55681 0.0
H2390 H 0.72617 0.21617 0.53463 0.0
H2391 H 0.79088 0.33097 0.50233 0.0
H2392 H 0.75857 0.30449 0.55415 0.0
H2393 H 0.76833 0.17402 0.50728 0.0
C2394 C 0.7494 0.14405 0.51125 0.0
C2395 C 0.73737 0.15527 0.51897 0.0
C2396 C 0.76572 0.30993 0.54286 0.0
C2397 C 0.75664 0.23257 0.52327 0.0
C2398 C 0.77394 0.35422 0.54439 0.0
C2399 C 0.7829 0.36371 0.52954 0.0
C2400 C 0.7665 0.27451 0.52642 0.0
C2401 C 0.78403 0.32512 0.51403 0.0
C2402 C 0.75905 0.18305 0.51315 0.0
C2403 C 0.73527 0.20606 0.52835 0.0
N2404 N 0.77578 0.2822 0.51272 0.0
N2405 N 0.74485 0.2426 0.5304 0.0
H2406 H 0.76989 0.43344 0.3101 0.0
H2407 H 0.72835 0.65377 0.24977 0.0
H2408 H 0.77703 0.47979 0.24906 0.0
H2409 H 0.72142 0.6085 0.31099 0.0
H2410 H 0.74585 0.58833 0.24896 0.0
H2411 H 0.75239 0.49891 0.31093 0.0
C2412 C 0.76788 0.45798 0.29694 0.0
C2413 C 0.77487 0.45095 0.27943 0.0
C2414 C 0.74046 0.59239 0.26253 0.0
C2415 C 0.75472 0.52529 0.28019 0.0
C2416 C 0.7304 0.62948 0.26298 0.0
C2417 C 0.72348 0.63682 0.28054 0.0
C2418 C 0.74363 0.56251 0.27979 0.0
C2419 C 0.7265 0.60406 0.29714 0.0
C2420 C 0.75783 0.4951 0.29739 0.0
C2421 C 0.77191 0.48402 0.26288 0.0
N2422 N 0.73645 0.5686 0.29641 0.0
N2423 N 0.76196 0.51948 0.26361 0.0
H2424 H 0.52714 0.11945 0.51129 0.0
H2425 H 0.47284 0.9345 0.55881 0.0
H2426 H 0.52425 0.08814 0.57432 0.0
H2427 H 0.47485 0.97313 0.49621 0.0
H2428 H 0.49139 0.99182 0.565 0.0
H2429 H 0.5086 0.06197 0.50535 0.0
C2430 C 0.52276 0.09895 0.52382 0.0
C2431 C 0.5272 0.10784 0.54328 0.0
C2432 C 0.4877 0.98858 0.54995 0.0
C2433 C 0.50577 0.04386 0.53675 0.0
C2434 C 0.47704 0.95648 0.54646 0.0
C2435 C 0.47235 0.94972 0.52702 0.0
C2436 C 0.49378 0.01356 0.5338 0.0
C2437 C 0.4781 0.97828 0.51145 0.0
C2438 C 0.51209 0.06685 0.52047 0.0
C2439 C 0.52119 0.08127 0.55908 0.0
N2440 N 0.48865 0.0086 0.51515 0.0
N2441 N 0.51065 0.05078 0.55549 0.0
H2442 H 0.52945 0.22587 0.75271 0.0
H2443 H 0.47034 0.33439 0.81595 0.0
H2444 H 0.52264 0.18075 0.81385 0.0
H2445 H 0.47748 0.38173 0.7551 0.0
H2446 H 0.48911 0.27486 0.81516 0.0
H2447 H 0.51083 0.28637 0.75358 0.0
C2448 C 0.52423 0.22999 0.76646 0.0
C2449 C 0.52748 0.19836 0.7832 0.0
C2450 C 0.4865 0.29791 0.80192 0.0
C2451 C 0.50605 0.26542 0.78418 0.0
C2452 C 0.47568 0.3311 0.80229 0.0
C2453 C 0.47246 0.36307 0.78562 0.0
C2454 C 0.49405 0.29689 0.78473 0.0
C2455 C 0.47977 0.35809 0.76835 0.0
C2456 C 0.5135 0.26369 0.76689 0.0
C2457 C 0.52031 0.2042 0.80058 0.0
N2458 N 0.49029 0.32603 0.76839 0.0
N2459 N 0.50986 0.23663 0.80058 0.0
H2460 H 0.47241 0.83954 0.31705 0.0
H2461 H 0.53099 0.72945 0.25293 0.0
H2462 H 0.47909 0.8858 0.25595 0.0
H2463 H 0.52452 0.68507 0.31424 0.0
H2464 H 0.51246 0.79055 0.25406 0.0
H2465 H 0.49119 0.78006 0.31606 0.0
C2466 C 0.47765 0.83603 0.30331 0.0
C2467 C 0.47431 0.86766 0.28661 0.0
C2468 C 0.51519 0.76795 0.26735 0.0
C2469 C 0.49589 0.80156 0.28547 0.0
C2470 C 0.52588 0.73395 0.26677 0.0
C2471 C 0.52918 0.70241 0.2835 0.0
C2472 C 0.50786 0.77001 0.28477 0.0
C2473 C 0.52215 0.7086 0.30099 0.0
C2474 C 0.48847 0.80287 0.3028 0.0
C2475 C 0.48149 0.86241 0.26922 0.0
N2476 N 0.51175 0.74129 0.30114 0.0
N2477 N 0.49201 0.83039 0.26914 0.0
H2478 H 0.53641 0.54454 0.04542 0.0
H2479 H 0.46203 0.50754 0.02477 0.0
H2480 H 0.50971 0.67966 0.04254 0.0
H2481 H 0.48917 0.37387 0.02454 0.0
H2482 H 0.47939 0.57203 0.03165 0.0
H2483 H 0.51893 0.48021 0.03921 0.0
C2484 C 0.5269 0.56052 0.04366 0.0
C2485 C 0.52453 0.61733 0.04426 0.0
C2486 C 0.48149 0.52849 0.03004 0.0
C2487 C 0.50461 0.54483 0.03703 0.0
C2488 C 0.47161 0.49192 0.02599 0.0
C2489 C 0.47413 0.43539 0.02426 0.0
C2490 C 0.49391 0.50807 0.0323 0.0
C2491 C 0.48672 0.41711 0.02602 0.0
C2492 C 0.51694 0.52404 0.03999 0.0
C2493 C 0.51202 0.63611 0.04188 0.0
N2494 N 0.49611 0.45325 0.03002 0.0
N2495 N 0.50255 0.60002 0.03829 0.0
loop_
_geom_bond_atom_site_label_1
_geom_bond_atom_site_label_2
_geom_bond_distance
_geom_bond_site_symmetry_2
_ccdc_geom_bond_type
Co0 N4 2.148 1_554 S
Co0 N10 2.128 . S
Co0 N20 2.194 . S
Co0 O25 2.351 . S
Co0 O26 2.155 . S
Co0 O27 2.096 . S
C1 N4 1.301 . S
C1 N5 1.328 . S
C1 H6 0.930 . S
C2 C3 1.333 . S
C2 N4 1.317 . S
C2 H7 0.930 . S
C3 C2 1.333 . S
C3 N5 1.350 . S
C3 H29 0.931 . S
N4 Co0 2.148 1_556 S
N4 C1 1.301 . S
N4 C2 1.317 . S
N5 C1 1.328 . S
N5 C3 1.350 . S
H6 C1 0.930 . S
H7 C2 0.930 . S
C8 O9 1.224 . S
C8 O27 1.247 . S
O9 C8 1.224 . S
N10 Co0 2.128 . S
N10 C11 1.355 . S
N10 C13 1.311 . S
C11 N10 1.355 . S
C11 C12 1.363 . S
C11 H23 0.929 . S
C12 C11 1.363 . S
C12 N14 1.375 . S
C12 H30 0.931 . S
C13 N10 1.311 . S
C13 N14 1.347 . S
C13 H24 0.929 . S
N14 C12 1.375 . S
N14 C13 1.347 . S
C15 C18 1.365 . S
C15 N20 1.328 . S
C15 H21 0.929 . S
C16 C17 1.362 . S
C16 C19 1.378 . S
C16 H31 0.929 . S
C17 C16 1.362 . S
C17 C18 1.366 . S
C18 C15 1.365 . S
C18 C17 1.366 . S
C18 H32 0.930 . S
C19 C16 1.378 . S
C19 N20 1.315 . S
C19 H22 0.930 . S
N20 Co0 2.194 . S
N20 C15 1.328 . S
N20 C19 1.315 . S
H21 C15 0.929 . S
H22 C19 0.930 . S
H23 C11 0.929 . S
H24 C13 0.929 . S
O25 Co0 2.351 . S
O25 C28 1.244 . S
O26 Co0 2.155 . S
O26 C28 1.240 . S
O27 Co0 2.096 . S
O27 C8 1.247 . S
C28 O25 1.244 . S
C28 O26 1.240 . S
H29 C3 0.931 . S
H30 C12 0.931 . S
H31 C16 0.929 . S
H32 C18 0.930 . S
Co33 N37 2.148 . S
Co33 N43 2.128 1_554 S
Co33 N53 2.194 . S
Co33 O58 2.351 . S
Co33 O59 2.155 . S
Co33 O60 2.096 1_545 S
C34 N37 1.301 . S
C34 N38 1.328 . S
C34 H39 0.930 . S
C35 C36 1.333 . S
C35 N37 1.317 . S
C35 H40 0.930 1_545 S
C36 C35 1.333 . S
C36 N38 1.350 . S
C36 H62 0.931 . S
N37 Co33 2.148 . S
N37 C34 1.301 . S
N37 C35 1.317 . S
N38 C34 1.328 . S
N38 C36 1.350 . S
H39 C34 0.930 . S
H40 C35 0.930 1_565 S
C41 O42 1.224 . S
C41 O60 1.247 . S
O42 C41 1.224 . S
N43 Co33 2.128 1_556 S
N43 C44 1.355 . S
N43 C46 1.311 . S
C44 N43 1.355 . S
C44 C45 1.363 . S
C44 H56 0.929 . S
C45 C44 1.363 . S
C45 N47 1.375 . S
C45 H63 0.931 . S
C46 N43 1.311 . S
C46 N47 1.347 . S
C46 H57 0.929 1_545 S
N47 C45 1.375 . S
N47 C46 1.347 . S
C48 C51 1.365 . S
C48 N53 1.328 . S
C48 H54 0.929 . S
C49 C50 1.362 . S
C49 C52 1.378 . S
C49 H64 0.914 1_545 S
C50 C49 1.362 . S
C50 C51 1.366 . S
C51 C48 1.365 . S
C51 C50 1.366 . S
C51 H65 0.930 . S
C52 C49 1.378 . S
C52 N53 1.315 . S
C52 H55 0.930 1_545 S
N53 Co33 2.194 . S
N53 C48 1.328 . S
N53 C52 1.315 . S
H54 C48 0.929 . S
H55 C52 0.930 1_565 S
H56 C44 0.929 . S
H57 C46 0.929 1_565 S
O58 Co33 2.351 . S
O58 C61 1.244 . S
O59 Co33 2.155 . S
O59 C61 1.240 . S
O60 Co33 2.096 1_565 S
O60 C41 1.247 . S
C61 O58 1.244 . S
C61 O59 1.240 . S
H62 C36 0.931 . S
H63 C45 0.931 . S
H64 C49 0.914 1_565 S
H65 C51 0.930 . S
Co66 N70 2.148 . S
Co66 N76 2.128 . S
Co66 N86 2.194 . S
Co66 O91 2.351 1_545 S
Co66 O92 2.155 1_545 S
Co66 O93 2.096 . S
C67 N70 1.301 . S
C67 N71 1.328 . S
C67 H72 0.930 1_545 S
C68 C69 1.333 . S
C68 N70 1.317 . S
C68 H73 0.930 . S
C69 C68 1.333 . S
C69 N71 1.350 . S
C69 H95 0.931 . S
N70 Co66 2.148 . S
N70 C67 1.301 . S
N70 C68 1.317 . S
N71 C67 1.328 . S
N71 C69 1.350 . S
H72 C67 0.930 1_565 S
H73 C68 0.930 . S
C74 O75 1.224 . S
C74 O93 1.247 . S
O75 C74 1.224 . S
N76 Co66 2.128 . S
N76 C77 1.355 . S
N76 C79 1.311 . S
C77 N76 1.355 . S
C77 C78 1.363 . S
C77 H89 0.929 . S
C78 C77 1.363 . S
C78 N80 1.375 . S
C78 H96 0.931 . S
C79 N76 1.311 . S
C79 N80 1.347 . S
C79 H90 0.929 . S
N80 C78 1.375 . S
N80 C79 1.347 . S
C81 C84 1.365 . S
C81 N86 1.328 . S
C81 H87 0.929 1_545 S
C82 C83 1.362 . S
C82 C85 1.378 . S
C82 H97 0.929 . S
C83 C82 1.362 . S
C83 C84 1.366 . S
C84 C81 1.365 . S
C84 C83 1.366 . S
C84 H98 0.917 1_545 S
C85 C82 1.378 . S
C85 N86 1.315 . S
C85 H88 0.930 . S
N86 Co66 2.194 . S
N86 C81 1.328 . S
N86 C85 1.315 . S
H87 C81 0.929 1_565 S
H88 C85 0.930 . S
H89 C77 0.929 . S
H90 C79 0.929 . S
O91 Co66 2.351 1_565 S
O91 C94 1.244 . S
O92 Co66 2.155 1_565 S
O92 C94 1.240 . S
O93 Co66 2.096 . S
O93 C74 1.247 . S
C94 O91 1.244 . S
C94 O92 1.240 . S
H95 C69 0.931 . S
H96 C78 0.931 . S
H97 C82 0.929 . S
H98 C84 0.917 1_565 S
Co99 N103 2.148 . S
Co99 N109 2.128 . S
Co99 N119 2.194 . S
Co99 O124 2.351 . S
Co99 O125 2.155 . S
Co99 O126 2.096 . S
C100 N103 1.301 . S
C100 N104 1.328 . S
C100 H105 0.930 . S
C101 C102 1.333 . S
C101 N103 1.317 . S
C101 H106 0.930 . S
C102 C101 1.333 . S
C102 N104 1.350 . S
C102 H128 0.931 . S
N103 Co99 2.148 . S
N103 C100 1.301 . S
N103 C101 1.317 . S
N104 C100 1.328 . S
N104 C102 1.350 . S
H105 C100 0.930 . S
H106 C101 0.930 . S
C107 O108 1.224 . S
C107 O126 1.247 . S
O108 C107 1.224 . S
N109 Co99 2.128 . S
N109 C110 1.355 . S
N109 C112 1.311 . S
C110 N109 1.355 . S
C110 C111 1.363 . S
C110 H122 0.929 . S
C111 C110 1.363 . S
C111 N113 1.375 . S
C111 H129 0.931 . S
C112 N109 1.311 . S
C112 N113 1.347 . S
C112 H123 0.929 . S
N113 C111 1.375 . S
N113 C112 1.347 . S
C114 C117 1.365 . S
C114 N119 1.328 . S
C114 H120 0.929 . S
C115 C116 1.362 . S
C115 C118 1.378 . S
C115 H130 0.929 . S
C116 C115 1.362 . S
C116 C117 1.366 . S
C117 C114 1.365 . S
C117 C116 1.366 . S
C117 H131 0.930 . S
C118 C115 1.378 . S
C118 N119 1.315 . S
C118 H121 0.930 . S
N119 Co99 2.194 . S
N119 C114 1.328 . S
N119 C118 1.315 . S
H120 C114 0.929 . S
H121 C118 0.930 . S
H122 C110 0.929 . S
H123 C112 0.929 . S
O124 Co99 2.351 . S
O124 C127 1.244 . S
O125 Co99 2.155 . S
O125 C127 1.240 . S
O126 Co99 2.096 . S
O126 C107 1.247 . S
C127 O124 1.244 . S
C127 O125 1.240 . S
H128 C102 0.931 . S
H129 C111 0.931 . S
H130 C115 0.929 . S
H131 C117 0.930 . S
Co132 N136 2.148 . S
Co132 N142 2.128 1_554 S
Co132 N152 2.194 . S
Co132 O157 2.351 . S
Co132 O158 2.155 . S
Co132 O159 2.096 . S
C133 N136 1.301 . S
C133 N137 1.328 . S
C133 H138 0.930 . S
C134 C135 1.333 . S
C134 N136 1.317 . S
C134 H139 0.930 . S
C135 C134 1.333 . S
C135 N137 1.350 . S
C135 H161 0.931 . S
N136 Co132 2.148 . S
N136 C133 1.301 . S
N136 C134 1.317 . S
N137 C133 1.328 . S
N137 C135 1.350 . S
H138 C133 0.930 . S
H139 C134 0.930 . S
C140 O141 1.224 . S
C140 O159 1.247 . S
O141 C140 1.224 . S
N142 Co132 2.128 1_556 S
N142 C143 1.355 . S
N142 C145 1.311 . S
C143 N142 1.355 . S
C143 C144 1.363 . S
C143 H155 0.929 . S
C144 C143 1.363 . S
C144 N146 1.375 . S
C144 H162 0.931 . S
C145 N142 1.311 . S
C145 N146 1.347 . S
C145 H156 0.929 . S
N146 C144 1.375 . S
N146 C145 1.347 . S
C147 C150 1.365 . S
C147 N152 1.328 . S
C147 H153 0.929 . S
C148 C149 1.362 . S
C148 C151 1.378 . S
C148 H163 0.929 . S
C149 C148 1.362 . S
C149 C150 1.366 . S
C150 C147 1.365 . S
C150 C149 1.366 . S
C150 H164 0.930 . S
C151 C148 1.378 . S
C151 N152 1.315 . S
C151 H154 0.930 . S
N152 Co132 2.194 . S
N152 C147 1.328 . S
N152 C151 1.315 . S
H153 C147 0.929 . S
H154 C151 0.930 . S
H155 C143 0.929 . S
H156 C145 0.929 . S
O157 Co132 2.351 . S
O157 C160 1.244 . S
O158 Co132 2.155 . S
O158 C160 1.240 . S
O159 Co132 2.096 . S
O159 C140 1.247 . S
C160 O157 1.244 . S
C160 O158 1.240 . S
H161 C135 0.931 . S
H162 C144 0.931 . S
H163 C148 0.929 . S
H164 C150 0.930 . S
Co165 N169 2.148 . S
Co165 N175 2.128 1_554 S
Co165 N185 2.194 . S
Co165 O190 2.351 . S
Co165 O191 2.155 . S
Co165 O192 2.096 1_545 S
C166 N169 1.301 . S
C166 N170 1.328 . S
C166 H171 0.930 . S
C167 C168 1.333 1_565 S
C167 N169 1.317 1_565 S
C167 H172 0.930 . S
C168 C167 1.333 1_545 S
C168 N170 1.350 . S
C168 H194 0.931 1_545 S
N169 Co165 2.148 . S
N169 C166 1.301 . S
N169 C167 1.317 1_545 S
N170 C166 1.328 . S
N170 C168 1.350 . S
H171 C166 0.930 . S
H172 C167 0.930 . S
C173 O174 1.224 . S
C173 O192 1.247 . S
O174 C173 1.224 . S
N175 Co165 2.128 1_556 S
N175 C176 1.355 . S
N175 C178 1.311 1_545 S
C176 N175 1.355 . S
C176 C177 1.363 . S
C176 H188 0.929 . S
C177 C176 1.363 . S
C177 N179 1.375 1_545 S
C177 H195 0.931 . S
C178 N175 1.311 1_565 S
C178 N179 1.347 . S
C178 H189 0.929 . S
N179 C177 1.375 1_565 S
N179 C178 1.347 . S
C180 C183 1.365 . S
C180 N185 1.328 . S
C180 H186 0.929 . S
C181 C182 1.362 . S
C181 C184 1.378 . S
C181 H196 0.929 . S
C182 C181 1.362 . S
C182 C183 1.366 1_565 S
C183 C180 1.365 . S
C183 C182 1.366 1_545 S
C183 H197 0.930 . S
C184 C181 1.378 . S
C184 N185 1.315 1_565 S
C184 H187 0.930 . S
N185 Co165 2.194 . S
N185 C180 1.328 . S
N185 C184 1.315 1_545 S
H186 C180 0.929 . S
H187 C184 0.930 . S
H188 C176 0.929 . S
H189 C178 0.929 . S
O190 Co165 2.351 . S
O190 C193 1.244 . S
O191 Co165 2.155 . S
O191 C193 1.240 . S
O192 Co165 2.096 1_565 S
O192 C173 1.247 . S
C193 O190 1.244 . S
C193 O191 1.240 . S
H194 C168 0.931 1_565 S
H195 C177 0.931 . S
H196 C181 0.929 . S
H197 C183 0.930 . S
Co198 N202 2.148 . S
Co198 N208 2.128 . S
Co198 N218 2.194 . S
Co198 O223 2.351 . S
Co198 O224 2.155 . S
Co198 O225 2.096 1_545 S
C199 N202 1.301 . S
C199 N203 1.328 . S
C199 H204 0.930 . S
C200 C201 1.333 1_565 S
C200 N202 1.317 1_565 S
C200 H205 0.930 . S
C201 C200 1.333 1_545 S
C201 N203 1.350 . S
C201 H227 0.931 1_545 S
N202 Co198 2.148 . S
N202 C199 1.301 . S
N202 C200 1.317 1_545 S
N203 C199 1.328 . S
N203 C201 1.350 . S
H204 C199 0.930 . S
H205 C200 0.930 . S
C206 O207 1.224 . S
C206 O225 1.247 . S
O207 C206 1.224 . S
N208 Co198 2.128 . S
N208 C209 1.355 . S
N208 C211 1.311 1_545 S
C209 N208 1.355 . S
C209 C210 1.363 . S
C209 H221 0.929 . S
C210 C209 1.363 . S
C210 N212 1.375 1_545 S
C210 H228 0.931 . S
C211 N208 1.311 1_565 S
C211 N212 1.347 . S
C211 H222 0.929 . S
N212 C210 1.375 1_565 S
N212 C211 1.347 . S
C213 C216 1.365 . S
C213 N218 1.328 . S
C213 H219 0.929 . S
C214 C215 1.362 . S
C214 C217 1.378 . S
C214 H229 0.929 . S
C215 C214 1.362 . S
C215 C216 1.366 1_565 S
C216 C213 1.365 . S
C216 C215 1.366 1_545 S
C216 H230 0.930 . S
C217 C214 1.378 . S
C217 N218 1.315 1_565 S
C217 H220 0.930 . S
N218 Co198 2.194 . S
N218 C213 1.328 . S
N218 C217 1.315 1_545 S
H219 C213 0.929 . S
H220 C217 0.930 . S
H221 C209 0.929 . S
H222 C211 0.929 . S
O223 Co198 2.351 . S
O223 C226 1.244 . S
O224 Co198 2.155 . S
O224 C226 1.240 . S
O225 Co198 2.096 1_565 S
O225 C206 1.247 . S
C226 O223 1.244 . S
C226 O224 1.240 . S
H227 C201 0.931 1_565 S
H228 C210 0.931 . S
H229 C214 0.929 . S
H230 C216 0.930 . S
Co231 N235 2.148 . S
Co231 N241 2.128 . S
Co231 N251 2.194 . S
Co231 O256 2.351 . S
Co231 O257 2.155 . S
Co231 O258 2.096 . S
C232 N235 1.301 . S
C232 N236 1.328 . S
C232 H237 0.930 . S
C233 C234 1.333 . S
C233 N235 1.317 . S
C233 H238 0.930 . S
C234 C233 1.333 . S
C234 N236 1.350 . S
C234 H260 0.931 . S
N235 Co231 2.148 . S
N235 C232 1.301 . S
N235 C233 1.317 . S
N236 C232 1.328 . S
N236 C234 1.350 . S
H237 C232 0.930 . S
H238 C233 0.930 . S
C239 O240 1.224 . S
C239 O258 1.247 . S
O240 C239 1.224 . S
N241 Co231 2.128 . S
N241 C242 1.355 . S
N241 C244 1.311 . S
C242 N241 1.355 . S
C242 C243 1.363 . S
C242 H254 0.929 . S
C243 C242 1.363 . S
C243 N245 1.375 . S
C243 H261 0.931 . S
C244 N241 1.311 . S
C244 N245 1.347 . S
C244 H255 0.929 . S
N245 C243 1.375 . S
N245 C244 1.347 . S
C246 C249 1.365 . S
C246 N251 1.328 . S
C246 H252 0.929 . S
C247 C248 1.362 . S
C247 C250 1.378 . S
C247 H262 0.929 . S
C248 C247 1.362 . S
C248 C249 1.366 . S
C249 C246 1.365 . S
C249 C248 1.366 . S
C249 H263 0.930 . S
C250 C247 1.378 . S
C250 N251 1.315 . S
C250 H253 0.930 . S
N251 Co231 2.194 . S
N251 C246 1.328 . S
N251 C250 1.315 . S
H252 C246 0.929 . S
H253 C250 0.930 . S
H254 C242 0.929 . S
H255 C244 0.929 . S
O256 Co231 2.351 . S
O256 C259 1.244 . S
O257 Co231 2.155 . S
O257 C259 1.240 . S
O258 Co231 2.096 . S
O258 C239 1.247 . S
C259 O256 1.244 . S
C259 O257 1.240 . S
H260 C234 0.931 . S
H261 C243 0.931 . S
H262 C247 0.929 . S
H263 C249 0.930 . S
Co264 N268 2.148 . S
Co264 N274 2.128 . S
Co264 N284 2.194 . S
Co264 O289 2.351 . S
Co264 O290 2.155 . S
Co264 O291 2.096 . S
C265 N268 1.301 . S
C265 N269 1.328 . S
C265 H270 0.930 . S
C266 C267 1.333 . S
C266 N268 1.317 . S
C266 H271 0.930 . S
C267 C266 1.333 . S
C267 N269 1.350 . S
C267 H293 0.931 . S
N268 Co264 2.148 . S
N268 C265 1.301 . S
N268 C266 1.317 . S
N269 C265 1.328 . S
N269 C267 1.350 . S
H270 C265 0.930 . S
H271 C266 0.930 . S
C272 O273 1.224 . S
C272 O291 1.247 . S
O273 C272 1.224 . S
N274 Co264 2.128 . S
N274 C275 1.355 . S
N274 C277 1.311 . S
C275 N274 1.355 . S
C275 C276 1.363 . S
C275 H287 0.929 . S
C276 C275 1.363 . S
C276 N278 1.375 . S
C276 H294 0.931 . S
C277 N274 1.311 . S
C277 N278 1.347 . S
C277 H288 0.929 . S
N278 C276 1.375 . S
N278 C277 1.347 . S
C279 C282 1.365 . S
C279 N284 1.328 . S
C279 H285 0.929 . S
C280 C281 1.362 . S
C280 C283 1.378 . S
C280 H295 0.929 . S
C281 C280 1.362 . S
C281 C282 1.366 . S
C282 C279 1.365 . S
C282 C281 1.366 . S
C282 H296 0.930 . S
C283 C280 1.378 . S
C283 N284 1.315 . S
C283 H286 0.930 . S
N284 Co264 2.194 . S
N284 C279 1.328 . S
N284 C283 1.315 . S
H285 C279 0.929 . S
H286 C283 0.930 . S
H287 C275 0.929 . S
H288 C277 0.929 . S
O289 Co264 2.351 . S
O289 C292 1.244 . S
O290 Co264 2.155 . S
O290 C292 1.240 . S
O291 Co264 2.096 . S
O291 C272 1.247 . S
C292 O289 1.244 . S
C292 O290 1.240 . S
H293 C267 0.931 . S
H294 C276 0.931 . S
H295 C280 0.929 . S
H296 C282 0.930 . S
Co297 N301 2.148 . S
Co297 N307 2.128 . S
Co297 N317 2.194 . S
Co297 O322 2.351 . S
Co297 O323 2.155 . S
Co297 O324 2.096 . S
C298 N301 1.301 . S
C298 N302 1.328 . S
C298 H303 0.930 . S
C299 C300 1.333 . S
C299 N301 1.317 . S
C299 H304 0.930 . S
C300 C299 1.333 . S
C300 N302 1.350 . S
C300 H326 0.931 . S
N301 Co297 2.148 . S
N301 C298 1.301 . S
N301 C299 1.317 . S
N302 C298 1.328 . S
N302 C300 1.350 . S
H303 C298 0.930 . S
H304 C299 0.930 . S
C305 O306 1.224 . S
C305 O324 1.247 . S
O306 C305 1.224 . S
N307 Co297 2.128 . S
N307 C308 1.355 . S
N307 C310 1.311 . S
C308 N307 1.355 . S
C308 C309 1.363 . S
C308 H320 0.929 . S
C309 C308 1.363 . S
C309 N311 1.375 . S
C309 H327 0.931 . S
C310 N307 1.311 . S
C310 N311 1.347 . S
C310 H321 0.929 . S
N311 C309 1.375 . S
N311 C310 1.347 . S
C312 C315 1.365 . S
C312 N317 1.328 . S
C312 H318 0.929 . S
C313 C314 1.362 . S
C313 C316 1.378 . S
C313 H328 0.929 . S
C314 C313 1.362 . S
C314 C315 1.366 . S
C315 C312 1.365 . S
C315 C314 1.366 . S
C315 H329 0.930 . S
C316 C313 1.378 . S
C316 N317 1.315 . S
C316 H319 0.930 . S
N317 Co297 2.194 . S
N317 C312 1.328 . S
N317 C316 1.315 . S
H318 C312 0.929 . S
H319 C316 0.930 . S
H320 C308 0.929 . S
H321 C310 0.929 . S
O322 Co297 2.351 . S
O322 C325 1.244 . S
O323 Co297 2.155 . S
O323 C325 1.240 . S
O324 Co297 2.096 . S
O324 C305 1.247 . S
C325 O322 1.244 . S
C325 O323 1.240 . S
H326 C300 0.931 . S
H327 C309 0.931 . S
H328 C313 0.929 . S
H329 C315 0.930 . S
Co330 N334 2.148 . S
Co330 N340 2.128 . S
Co330 N350 2.194 . S
Co330 O355 2.351 . S
Co330 O356 2.155 . S
Co330 O357 2.096 . S
C331 N334 1.301 . S
C331 N335 1.328 . S
C331 H336 0.930 . S
C332 C333 1.333 . S
C332 N334 1.317 . S
C332 H337 0.930 . S
C333 C332 1.333 . S
C333 N335 1.350 . S
C333 H359 0.931 . S
N334 Co330 2.148 . S
N334 C331 1.301 . S
N334 C332 1.317 . S
N335 C331 1.328 . S
N335 C333 1.350 . S
H336 C331 0.930 . S
H337 C332 0.930 . S
C338 O339 1.224 . S
C338 O357 1.247 . S
O339 C338 1.224 . S
N340 Co330 2.128 . S
N340 C341 1.355 . S
N340 C343 1.311 . S
C341 N340 1.355 . S
C341 C342 1.363 . S
C341 H353 0.929 . S
C342 C341 1.363 . S
C342 N344 1.375 . S
C342 H360 0.931 . S
C343 N340 1.311 . S
C343 N344 1.347 . S
C343 H354 0.929 . S
N344 C342 1.375 . S
N344 C343 1.347 . S
C345 C348 1.365 . S
C345 N350 1.328 . S
C345 H351 0.929 . S
C346 C347 1.362 . S
C346 C349 1.378 . S
C346 H361 0.929 . S
C347 C346 1.362 . S
C347 C348 1.366 . S
C348 C345 1.365 . S
C348 C347 1.366 . S
C348 H362 0.930 . S
C349 C346 1.378 . S
C349 N350 1.315 . S
C349 H352 0.930 . S
N350 Co330 2.194 . S
N350 C345 1.328 . S
N350 C349 1.315 . S
H351 C345 0.929 . S
H352 C349 0.930 . S
H353 C341 0.929 . S
H354 C343 0.929 . S
O355 Co330 2.351 . S
O355 C358 1.244 . S
O356 Co330 2.155 . S
O356 C358 1.240 . S
O357 Co330 2.096 . S
O357 C338 1.247 . S
C358 O355 1.244 . S
C358 O356 1.240 . S
H359 C333 0.931 . S
H360 C342 0.931 . S
H361 C346 0.929 . S
H362 C348 0.930 . S
Co363 N367 2.148 . S
Co363 N373 2.128 . S
Co363 N383 2.194 . S
Co363 O388 2.351 . S
Co363 O389 2.155 . S
Co363 O390 2.096 . S
C364 N367 1.301 . S
C364 N368 1.328 . S
C364 H369 0.930 . S
C365 C366 1.333 . S
C365 N367 1.317 . S
C365 H370 0.930 . S
C366 C365 1.333 . S
C366 N368 1.350 . S
C366 H392 0.931 . S
N367 Co363 2.148 . S
N367 C364 1.301 . S
N367 C365 1.317 . S
N368 C364 1.328 . S
N368 C366 1.350 . S
H369 C364 0.930 . S
H370 C365 0.930 . S
C371 O372 1.224 . S
C371 O390 1.247 . S
O372 C371 1.224 . S
N373 Co363 2.128 . S
N373 C374 1.355 . S
N373 C376 1.311 . S
C374 N373 1.355 . S
C374 C375 1.363 . S
C374 H386 0.929 . S
C375 C374 1.363 . S
C375 N377 1.375 . S
C375 H393 0.931 . S
C376 N373 1.311 . S
C376 N377 1.347 . S
C376 H387 0.929 . S
N377 C375 1.375 . S
N377 C376 1.347 . S
C378 C381 1.365 . S
C378 N383 1.328 . S
C378 H384 0.929 . S
C379 C380 1.362 . S
C379 C382 1.378 . S
C379 H394 0.929 . S
C380 C379 1.362 . S
C380 C381 1.366 . S
C381 C378 1.365 . S
C381 C380 1.366 . S
C381 H395 0.930 . S
C382 C379 1.378 . S
C382 N383 1.315 . S
C382 H385 0.930 . S
N383 Co363 2.194 . S
N383 C378 1.328 . S
N383 C382 1.315 . S
H384 C378 0.929 . S
H385 C382 0.930 . S
H386 C374 0.929 . S
H387 C376 0.929 . S
O388 Co363 2.351 . S
O388 C391 1.244 . S
O389 Co363 2.155 . S
O389 C391 1.240 . S
O390 Co363 2.096 . S
O390 C371 1.247 . S
C391 O388 1.244 . S
C391 O389 1.240 . S
H392 C366 0.931 . S
H393 C375 0.931 . S
H394 C379 0.929 . S
H395 C381 0.930 . S
Co396 N400 2.148 . S
Co396 N406 2.128 . S
Co396 N416 2.194 . S
Co396 O421 2.351 . S
Co396 O422 2.155 . S
Co396 O423 2.096 . S
C397 N400 1.301 . S
C397 N401 1.328 . S
C397 H402 0.930 . S
C398 C399 1.333 . S
C398 N400 1.317 . S
C398 H403 0.930 . S
C399 C398 1.333 . S
C399 N401 1.350 . S
C399 H425 0.931 . S
N400 Co396 2.148 . S
N400 C397 1.301 . S
N400 C398 1.317 . S
N401 C397 1.328 . S
N401 C399 1.350 . S
H402 C397 0.930 . S
H403 C398 0.930 . S
C404 O405 1.224 . S
C404 O423 1.247 . S
O405 C404 1.224 . S
N406 Co396 2.128 . S
N406 C407 1.355 . S
N406 C409 1.311 . S
C407 N406 1.355 . S
C407 C408 1.363 . S
C407 H419 0.929 . S
C408 C407 1.363 . S
C408 N410 1.375 . S
C408 H426 0.931 . S
C409 N406 1.311 . S
C409 N410 1.347 . S
C409 H420 0.929 . S
N410 C408 1.375 . S
N410 C409 1.347 . S
C411 C414 1.365 . S
C411 N416 1.328 . S
C411 H417 0.929 . S
C412 C413 1.362 . S
C412 C415 1.378 . S
C412 H427 0.929 . S
C413 C412 1.362 . S
C413 C414 1.366 . S
C414 C411 1.365 . S
C414 C413 1.366 . S
C414 H428 0.930 . S
C415 C412 1.378 . S
C415 N416 1.315 . S
C415 H418 0.930 . S
N416 Co396 2.194 . S
N416 C411 1.328 . S
N416 C415 1.315 . S
H417 C411 0.929 . S
H418 C415 0.930 . S
H419 C407 0.929 . S
H420 C409 0.929 . S
O421 Co396 2.351 . S
O421 C424 1.244 . S
O422 Co396 2.155 . S
O422 C424 1.240 . S
O423 Co396 2.096 . S
O423 C404 1.247 . S
C424 O421 1.244 . S
C424 O422 1.240 . S
H425 C399 0.931 . S
H426 C408 0.931 . S
H427 C412 0.929 . S
H428 C414 0.930 . S
Co429 N433 2.148 . S
Co429 N439 2.128 . S
Co429 N449 2.194 . S
Co429 O454 2.351 . S
Co429 O455 2.155 . S
Co429 O456 2.096 . S
C430 N433 1.301 . S
C430 N434 1.328 . S
C430 H435 0.930 . S
C431 C432 1.333 . S
C431 N433 1.317 . S
C431 H436 0.930 . S
C432 C431 1.333 . S
C432 N434 1.350 . S
C432 H458 0.931 . S
N433 Co429 2.148 . S
N433 C430 1.301 . S
N433 C431 1.317 . S
N434 C430 1.328 . S
N434 C432 1.350 . S
H435 C430 0.930 . S
H436 C431 0.930 . S
C437 O438 1.224 . S
C437 O456 1.247 . S
O438 C437 1.224 . S
N439 Co429 2.128 . S
N439 C440 1.355 . S
N439 C442 1.311 . S
C440 N439 1.355 . S
C440 C441 1.363 . S
C440 H452 0.929 . S
C441 C440 1.363 . S
C441 N443 1.375 . S
C441 H459 0.931 . S
C442 N439 1.311 . S
C442 N443 1.347 . S
C442 H453 0.929 . S
N443 C441 1.375 . S
N443 C442 1.347 . S
C444 C447 1.365 . S
C444 N449 1.328 . S
C444 H450 0.929 . S
C445 C446 1.362 . S
C445 C448 1.378 . S
C445 H460 0.929 . S
C446 C445 1.362 . S
C446 C447 1.366 . S
C447 C444 1.365 . S
C447 C446 1.366 . S
C447 H461 0.930 . S
C448 C445 1.378 . S
C448 N449 1.315 . S
C448 H451 0.930 . S
N449 Co429 2.194 . S
N449 C444 1.328 . S
N449 C448 1.315 . S
H450 C444 0.929 . S
H451 C448 0.930 . S
H452 C440 0.929 . S
H453 C442 0.929 . S
O454 Co429 2.351 . S
O454 C457 1.244 . S
O455 Co429 2.155 . S
O455 C457 1.240 . S
O456 Co429 2.096 . S
O456 C437 1.247 . S
C457 O454 1.244 . S
C457 O455 1.240 . S
H458 C432 0.931 . S
H459 C441 0.931 . S
H460 C445 0.929 . S
H461 C447 0.930 . S
Co462 N466 2.148 . S
Co462 N472 2.128 . S
Co462 N482 2.194 . S
Co462 O487 2.351 . S
Co462 O488 2.155 . S
Co462 O489 2.096 . S
C463 N466 1.301 . S
C463 N467 1.328 . S
C463 H468 0.930 . S
C464 C465 1.333 . S
C464 N466 1.317 . S
C464 H469 0.930 . S
C465 C464 1.333 . S
C465 N467 1.350 . S
C465 H491 0.931 . S
N466 Co462 2.148 . S
N466 C463 1.301 . S
N466 C464 1.317 . S
N467 C463 1.328 . S
N467 C465 1.350 . S
H468 C463 0.930 . S
H469 C464 0.930 . S
C470 O471 1.224 . S
C470 O489 1.247 . S
O471 C470 1.224 . S
N472 Co462 2.128 . S
N472 C473 1.355 . S
N472 C475 1.311 . S
C473 N472 1.355 . S
C473 C474 1.363 . S
C473 H485 0.929 . S
C474 C473 1.363 . S
C474 N476 1.375 . S
C474 H492 0.931 . S
C475 N472 1.311 . S
C475 N476 1.347 . S
C475 H486 0.929 . S
N476 C474 1.375 . S
N476 C475 1.347 . S
C477 C480 1.365 . S
C477 N482 1.328 . S
C477 H483 0.929 . S
C478 C479 1.362 . S
C478 C481 1.378 . S
C478 H493 0.929 . S
C479 C478 1.362 . S
C479 C480 1.366 . S
C480 C477 1.365 . S
C480 C479 1.366 . S
C480 H494 0.930 . S
C481 C478 1.378 . S
C481 N482 1.315 . S
C481 H484 0.930 . S
N482 Co462 2.194 . S
N482 C477 1.328 . S
N482 C481 1.315 . S
H483 C477 0.929 . S
H484 C481 0.930 . S
H485 C473 0.929 . S
H486 C475 0.929 . S
O487 Co462 2.351 . S
O487 C490 1.244 . S
O488 Co462 2.155 . S
O488 C490 1.240 . S
O489 Co462 2.096 . S
O489 C470 1.247 . S
C490 O487 1.244 . S
C490 O488 1.240 . S
H491 C465 0.931 . S
H492 C474 0.931 . S
H493 C478 0.929 . S
H494 C480 0.930 . S
Co495 N499 2.148 . S
Co495 N505 2.128 . S
Co495 N515 2.194 . S
Co495 O520 2.351 . S
Co495 O521 2.155 . S
Co495 O522 2.096 . S
C496 N499 1.301 . S
C496 N500 1.328 . S
C496 H501 0.930 . S
C497 C498 1.333 . S
C497 N499 1.317 . S
C497 H502 0.930 . S
C498 C497 1.333 . S
C498 N500 1.350 . S
C498 H524 0.931 . S
N499 Co495 2.148 . S
N499 C496 1.301 . S
N499 C497 1.317 . S
N500 C496 1.328 . S
N500 C498 1.350 . S
H501 C496 0.930 . S
H502 C497 0.930 . S
C503 O504 1.224 . S
C503 O522 1.247 . S
O504 C503 1.224 . S
N505 Co495 2.128 . S
N505 C506 1.355 . S
N505 C508 1.311 . S
C506 N505 1.355 . S
C506 C507 1.363 . S
C506 H518 0.929 . S
C507 C506 1.363 . S
C507 N509 1.375 . S
C507 H525 0.931 . S
C508 N505 1.311 . S
C508 N509 1.347 . S
C508 H519 0.929 . S
N509 C507 1.375 . S
N509 C508 1.347 . S
C510 C513 1.365 . S
C510 N515 1.328 . S
C510 H516 0.929 . S
C511 C512 1.362 . S
C511 C514 1.378 . S
C511 H526 0.929 . S
C512 C511 1.362 . S
C512 C513 1.366 . S
C513 C510 1.365 . S
C513 C512 1.366 . S
C513 H527 0.930 . S
C514 C511 1.378 . S
C514 N515 1.315 . S
C514 H517 0.930 . S
N515 Co495 2.194 . S
N515 C510 1.328 . S
N515 C514 1.315 . S
H516 C510 0.929 . S
H517 C514 0.930 . S
H518 C506 0.929 . S
H519 C508 0.929 . S
O520 Co495 2.351 . S
O520 C523 1.244 . S
O521 Co495 2.155 . S
O521 C523 1.240 . S
O522 Co495 2.096 . S
O522 C503 1.247 . S
C523 O520 1.244 . S
C523 O521 1.240 . S
H524 C498 0.931 . S
H525 C507 0.931 . S
H526 C511 0.929 . S
H527 C513 0.930 . S
Co528 N532 2.148 . S
Co528 N538 2.128 . S
Co528 N548 2.194 . S
Co528 O553 2.351 . S
Co528 O554 2.155 . S
Co528 O555 2.096 . S
C529 N532 1.301 . S
C529 N533 1.328 . S
C529 H534 0.930 . S
C530 C531 1.333 . S
C530 N532 1.317 . S
C530 H535 0.930 . S
C531 C530 1.333 . S
C531 N533 1.350 . S
C531 H557 0.931 . S
N532 Co528 2.148 . S
N532 C529 1.301 . S
N532 C530 1.317 . S
N533 C529 1.328 . S
N533 C531 1.350 . S
H534 C529 0.930 . S
H535 C530 0.930 . S
C536 O537 1.224 . S
C536 O555 1.247 . S
O537 C536 1.224 . S
N538 Co528 2.128 . S
N538 C539 1.355 . S
N538 C541 1.311 . S
C539 N538 1.355 . S
C539 C540 1.363 . S
C539 H551 0.929 . S
C540 C539 1.363 . S
C540 N542 1.375 . S
C540 H558 0.931 . S
C541 N538 1.311 . S
C541 N542 1.347 . S
C541 H552 0.929 . S
N542 C540 1.375 . S
N542 C541 1.347 . S
C543 C546 1.365 . S
C543 N548 1.328 . S
C543 H549 0.929 . S
C544 C545 1.362 . S
C544 C547 1.378 . S
C544 H559 0.929 . S
C545 C544 1.362 . S
C545 C546 1.366 . S
C546 C543 1.365 . S
C546 C545 1.366 . S
C546 H560 0.930 . S
C547 C544 1.378 . S
C547 N548 1.315 . S
C547 H550 0.930 . S
N548 Co528 2.194 . S
N548 C543 1.328 . S
N548 C547 1.315 . S
H549 C543 0.929 . S
H550 C547 0.930 . S
H551 C539 0.929 . S
H552 C541 0.929 . S
O553 Co528 2.351 . S
O553 C556 1.244 . S
O554 Co528 2.155 . S
O554 C556 1.240 . S
O555 Co528 2.096 . S
O555 C536 1.247 . S
C556 O553 1.244 . S
C556 O554 1.240 . S
H557 C531 0.931 . S
H558 C540 0.931 . S
H559 C544 0.929 . S
H560 C546 0.930 . S
Co561 N565 2.148 . S
Co561 N571 2.128 . S
Co561 N581 2.194 . S
Co561 O586 2.351 . S
Co561 O587 2.155 . S
Co561 O588 2.096 1_545 S
C562 N565 1.301 . S
C562 N566 1.328 . S
C562 H567 0.930 . S
C563 C564 1.333 . S
C563 N565 1.317 . S
C563 H568 0.930 1_545 S
C564 C563 1.333 . S
C564 N566 1.350 . S
C564 H590 0.931 . S
N565 Co561 2.148 . S
N565 C562 1.301 . S
N565 C563 1.317 . S
N566 C562 1.328 . S
N566 C564 1.350 . S
H567 C562 0.930 . S
H568 C563 0.930 1_565 S
C569 O570 1.224 . S
C569 O588 1.247 . S
O570 C569 1.224 . S
N571 Co561 2.128 . S
N571 C572 1.355 . S
N571 C574 1.311 . S
C572 N571 1.355 . S
C572 C573 1.363 . S
C572 H584 0.929 . S
C573 C572 1.363 . S
C573 N575 1.375 . S
C573 H591 0.931 . S
C574 N571 1.311 . S
C574 N575 1.347 . S
C574 H585 0.929 1_545 S
N575 C573 1.375 . S
N575 C574 1.347 . S
C576 C579 1.365 . S
C576 N581 1.328 . S
C576 H582 0.929 . S
C577 C578 1.362 . S
C577 C580 1.378 . S
C577 H592 0.915 1_545 S
C578 C577 1.362 . S
C578 C579 1.366 . S
C579 C576 1.365 . S
C579 C578 1.366 . S
C579 H593 0.930 . S
C580 C577 1.378 . S
C580 N581 1.315 . S
C580 H583 0.930 1_545 S
N581 Co561 2.194 . S
N581 C576 1.328 . S
N581 C580 1.315 . S
H582 C576 0.929 . S
H583 C580 0.930 1_565 S
H584 C572 0.929 . S
H585 C574 0.929 1_565 S
O586 Co561 2.351 . S
O586 C589 1.244 . S
O587 Co561 2.155 . S
O587 C589 1.240 . S
O588 Co561 2.096 1_565 S
O588 C569 1.247 . S
C589 O586 1.244 . S
C589 O587 1.240 . S
H590 C564 0.931 . S
H591 C573 0.931 . S
H592 C577 0.915 1_565 S
H593 C579 0.930 . S
Co594 N598 2.148 . S
Co594 N604 2.128 . S
Co594 N614 2.194 . S
Co594 O619 2.351 1_545 S
Co594 O620 2.155 1_545 S
Co594 O621 2.096 . S
C595 N598 1.301 . S
C595 N599 1.328 . S
C595 H600 0.930 1_545 S
C596 C597 1.333 . S
C596 N598 1.317 . S
C596 H601 0.930 . S
C597 C596 1.333 . S
C597 N599 1.350 . S
C597 H623 0.931 . S
N598 Co594 2.148 . S
N598 C595 1.301 . S
N598 C596 1.317 . S
N599 C595 1.328 . S
N599 C597 1.350 . S
H600 C595 0.930 1_565 S
H601 C596 0.930 . S
C602 O603 1.224 . S
C602 O621 1.247 . S
O603 C602 1.224 . S
N604 Co594 2.128 . S
N604 C605 1.355 . S
N604 C607 1.311 . S
C605 N604 1.355 . S
C605 C606 1.363 . S
C605 H617 0.929 . S
C606 C605 1.363 . S
C606 N608 1.375 . S
C606 H624 0.931 . S
C607 N604 1.311 . S
C607 N608 1.347 . S
C607 H618 0.929 . S
N608 C606 1.375 . S
N608 C607 1.347 . S
C609 C612 1.365 . S
C609 N614 1.328 . S
C609 H615 0.929 1_545 S
C610 C611 1.362 . S
C610 C613 1.378 . S
C610 H625 0.929 . S
C611 C610 1.362 . S
C611 C612 1.366 . S
C612 C609 1.365 . S
C612 C611 1.366 . S
C612 H626 0.918 1_545 S
C613 C610 1.378 . S
C613 N614 1.315 . S
C613 H616 0.930 . S
N614 Co594 2.194 . S
N614 C609 1.328 . S
N614 C613 1.315 . S
H615 C609 0.929 1_565 S
H616 C613 0.930 . S
H617 C605 0.929 . S
H618 C607 0.929 . S
O619 Co594 2.351 1_565 S
O619 C622 1.244 . S
O620 Co594 2.155 1_565 S
O620 C622 1.240 . S
O621 Co594 2.096 . S
O621 C602 1.247 . S
C622 O619 1.244 . S
C622 O620 1.240 . S
H623 C597 0.931 . S
H624 C606 0.931 . S
H625 C610 0.929 . S
H626 C612 0.918 1_565 S
Co627 N631 2.148 . S
Co627 N637 2.128 . S
Co627 N647 2.194 . S
Co627 O652 2.351 . S
Co627 O653 2.155 . S
Co627 O654 2.096 . S
C628 N631 1.301 . S
C628 N632 1.328 . S
C628 H633 0.930 . S
C629 C630 1.333 . S
C629 N631 1.317 . S
C629 H634 0.930 . S
C630 C629 1.333 . S
C630 N632 1.350 . S
C630 H656 0.931 . S
N631 Co627 2.148 . S
N631 C628 1.301 . S
N631 C629 1.317 . S
N632 C628 1.328 . S
N632 C630 1.350 . S
H633 C628 0.930 . S
H634 C629 0.930 . S
C635 O636 1.224 . S
C635 O654 1.247 . S
O636 C635 1.224 . S
N637 Co627 2.128 . S
N637 C638 1.355 . S
N637 C640 1.311 . S
C638 N637 1.355 . S
C638 C639 1.363 . S
C638 H650 0.929 . S
C639 C638 1.363 . S
C639 N641 1.375 . S
C639 H657 0.931 . S
C640 N637 1.311 . S
C640 N641 1.347 . S
C640 H651 0.929 . S
N641 C639 1.375 . S
N641 C640 1.347 . S
C642 C645 1.365 . S
C642 N647 1.328 . S
C642 H648 0.929 . S
C643 C644 1.362 . S
C643 C646 1.378 . S
C643 H658 0.929 . S
C644 C643 1.362 . S
C644 C645 1.366 . S
C645 C642 1.365 . S
C645 C644 1.366 . S
C645 H659 0.930 . S
C646 C643 1.378 . S
C646 N647 1.315 . S
C646 H649 0.930 . S
N647 Co627 2.194 . S
N647 C642 1.328 . S
N647 C646 1.315 . S
H648 C642 0.929 . S
H649 C646 0.930 . S
H650 C638 0.929 . S
H651 C640 0.929 . S
O652 Co627 2.351 . S
O652 C655 1.244 . S
O653 Co627 2.155 . S
O653 C655 1.240 . S
O654 Co627 2.096 . S
O654 C635 1.247 . S
C655 O652 1.244 . S
C655 O653 1.240 . S
H656 C630 0.931 . S
H657 C639 0.931 . S
H658 C643 0.929 . S
H659 C645 0.930 . S
Co660 N664 2.148 . S
Co660 N670 2.128 . S
Co660 N680 2.194 . S
Co660 O685 2.351 . S
Co660 O686 2.155 . S
Co660 O687 2.096 . S
C661 N664 1.301 . S
C661 N665 1.328 . S
C661 H666 0.930 . S
C662 C663 1.333 . S
C662 N664 1.317 . S
C662 H667 0.930 . S
C663 C662 1.333 . S
C663 N665 1.350 . S
C663 H689 0.931 . S
N664 Co660 2.148 . S
N664 C661 1.301 . S
N664 C662 1.317 . S
N665 C661 1.328 . S
N665 C663 1.350 . S
H666 C661 0.930 . S
H667 C662 0.930 . S
C668 O669 1.224 . S
C668 O687 1.247 . S
O669 C668 1.224 . S
N670 Co660 2.128 . S
N670 C671 1.355 . S
N670 C673 1.311 . S
C671 N670 1.355 . S
C671 C672 1.363 . S
C671 H683 0.929 . S
C672 C671 1.363 . S
C672 N674 1.375 . S
C672 H690 0.931 . S
C673 N670 1.311 . S
C673 N674 1.347 . S
C673 H684 0.929 . S
N674 C672 1.375 . S
N674 C673 1.347 . S
C675 C678 1.365 . S
C675 N680 1.328 . S
C675 H681 0.929 . S
C676 C677 1.362 . S
C676 C679 1.378 . S
C676 H691 0.929 . S
C677 C676 1.362 . S
C677 C678 1.366 . S
C678 C675 1.365 . S
C678 C677 1.366 . S
C678 H692 0.930 . S
C679 C676 1.378 . S
C679 N680 1.315 . S
C679 H682 0.930 . S
N680 Co660 2.194 . S
N680 C675 1.328 . S
N680 C679 1.315 . S
H681 C675 0.929 . S
H682 C679 0.930 . S
H683 C671 0.929 . S
H684 C673 0.929 . S
O685 Co660 2.351 . S
O685 C688 1.244 . S
O686 Co660 2.155 . S
O686 C688 1.240 . S
O687 Co660 2.096 . S
O687 C668 1.247 . S
C688 O685 1.244 . S
C688 O686 1.240 . S
H689 C663 0.931 . S
H690 C672 0.931 . S
H691 C676 0.929 . S
H692 C678 0.930 . S
Co693 N697 2.148 . S
Co693 N703 2.128 . S
Co693 N713 2.194 . S
Co693 O718 2.351 . S
Co693 O719 2.155 . S
Co693 O720 2.096 1_545 S
C694 N697 1.301 . S
C694 N698 1.328 . S
C694 H699 0.930 . S
C695 C696 1.333 1_565 S
C695 N697 1.317 1_565 S
C695 H700 0.930 . S
C696 C695 1.333 1_545 S
C696 N698 1.350 . S
C696 H722 0.931 1_545 S
N697 Co693 2.148 . S
N697 C694 1.301 . S
N697 C695 1.317 1_545 S
N698 C694 1.328 . S
N698 C696 1.350 . S
H699 C694 0.930 . S
H700 C695 0.930 . S
C701 O702 1.224 . S
C701 O720 1.247 . S
O702 C701 1.224 . S
N703 Co693 2.128 . S
N703 C704 1.355 . S
N703 C706 1.311 1_545 S
C704 N703 1.355 . S
C704 C705 1.363 . S
C704 H716 0.929 . S
C705 C704 1.363 . S
C705 N707 1.375 1_545 S
C705 H723 0.931 . S
C706 N703 1.311 1_565 S
C706 N707 1.347 . S
C706 H717 0.929 . S
N707 C705 1.375 1_565 S
N707 C706 1.347 . S
C708 C711 1.365 . S
C708 N713 1.328 . S
C708 H714 0.929 . S
C709 C710 1.362 . S
C709 C712 1.378 . S
C709 H724 0.929 . S
C710 C709 1.362 . S
C710 C711 1.366 1_565 S
C711 C708 1.365 . S
C711 C710 1.366 1_545 S
C711 H725 0.930 . S
C712 C709 1.378 . S
C712 N713 1.315 1_565 S
C712 H715 0.930 . S
N713 Co693 2.194 . S
N713 C708 1.328 . S
N713 C712 1.315 1_545 S
H714 C708 0.929 . S
H715 C712 0.930 . S
H716 C704 0.929 . S
H717 C706 0.929 . S
O718 Co693 2.351 . S
O718 C721 1.244 . S
O719 Co693 2.155 . S
O719 C721 1.240 . S
O720 Co693 2.096 1_565 S
O720 C701 1.247 . S
C721 O718 1.244 . S
C721 O719 1.240 . S
H722 C696 0.931 1_565 S
H723 C705 0.931 . S
H724 C709 0.929 . S
H725 C711 0.930 . S
Co726 N730 2.148 . S
Co726 N736 2.128 . S
Co726 N746 2.194 . S
Co726 O751 2.351 . S
Co726 O752 2.155 . S
Co726 O753 2.096 1_545 S
C727 N730 1.301 . S
C727 N731 1.328 . S
C727 H732 0.930 . S
C728 C729 1.333 1_565 S
C728 N730 1.317 1_565 S
C728 H733 0.930 . S
C729 C728 1.333 1_545 S
C729 N731 1.350 . S
C729 H755 0.931 1_545 S
N730 Co726 2.148 . S
N730 C727 1.301 . S
N730 C728 1.317 1_545 S
N731 C727 1.328 . S
N731 C729 1.350 . S
H732 C727 0.930 . S
H733 C728 0.930 . S
C734 O735 1.224 . S
C734 O753 1.247 . S
O735 C734 1.224 . S
N736 Co726 2.128 . S
N736 C737 1.355 . S
N736 C739 1.311 1_545 S
C737 N736 1.355 . S
C737 C738 1.363 . S
C737 H749 0.929 . S
C738 C737 1.363 . S
C738 N740 1.375 1_545 S
C738 H756 0.931 . S
C739 N736 1.311 1_565 S
C739 N740 1.347 . S
C739 H750 0.929 . S
N740 C738 1.375 1_565 S
N740 C739 1.347 . S
C741 C744 1.365 . S
C741 N746 1.328 . S
C741 H747 0.929 . S
C742 C743 1.362 . S
C742 C745 1.378 . S
C742 H757 0.929 . S
C743 C742 1.362 . S
C743 C744 1.366 1_565 S
C744 C741 1.365 . S
C744 C743 1.366 1_545 S
C744 H758 0.930 . S
C745 C742 1.378 . S
C745 N746 1.315 1_565 S
C745 H748 0.930 . S
N746 Co726 2.194 . S
N746 C741 1.328 . S
N746 C745 1.315 1_545 S
H747 C741 0.929 . S
H748 C745 0.930 . S
H749 C737 0.929 . S
H750 C739 0.929 . S
O751 Co726 2.351 . S
O751 C754 1.244 . S
O752 Co726 2.155 . S
O752 C754 1.240 . S
O753 Co726 2.096 1_565 S
O753 C734 1.247 . S
C754 O751 1.244 . S
C754 O752 1.240 . S
H755 C729 0.931 1_565 S
H756 C738 0.931 . S
H757 C742 0.929 . S
H758 C744 0.930 . S
Co759 N763 2.148 . S
Co759 N769 2.128 . S
Co759 N779 2.194 . S
Co759 O784 2.351 . S
Co759 O785 2.155 . S
Co759 O786 2.096 . S
C760 N763 1.301 . S
C760 N764 1.328 . S
C760 H765 0.930 . S
C761 C762 1.333 . S
C761 N763 1.317 . S
C761 H766 0.930 . S
C762 C761 1.333 . S
C762 N764 1.350 . S
C762 H788 0.931 . S
N763 Co759 2.148 . S
N763 C760 1.301 . S
N763 C761 1.317 . S
N764 C760 1.328 . S
N764 C762 1.350 . S
H765 C760 0.930 . S
H766 C761 0.930 . S
C767 O768 1.224 . S
C767 O786 1.247 . S
O768 C767 1.224 . S
N769 Co759 2.128 . S
N769 C770 1.355 . S
N769 C772 1.311 . S
C770 N769 1.355 . S
C770 C771 1.363 . S
C770 H782 0.929 . S
C771 C770 1.363 . S
C771 N773 1.375 . S
C771 H789 0.931 . S
C772 N769 1.311 . S
C772 N773 1.347 . S
C772 H783 0.929 . S
N773 C771 1.375 . S
N773 C772 1.347 . S
C774 C777 1.365 . S
C774 N779 1.328 . S
C774 H780 0.929 . S
C775 C776 1.362 . S
C775 C778 1.378 . S
C775 H790 0.929 . S
C776 C775 1.362 . S
C776 C777 1.366 . S
C777 C774 1.365 . S
C777 C776 1.366 . S
C777 H791 0.930 . S
C778 C775 1.378 . S
C778 N779 1.315 . S
C778 H781 0.930 . S
N779 Co759 2.194 . S
N779 C774 1.328 . S
N779 C778 1.315 . S
H780 C774 0.929 . S
H781 C778 0.930 . S
H782 C770 0.929 . S
H783 C772 0.929 . S
O784 Co759 2.351 . S
O784 C787 1.244 . S
O785 Co759 2.155 . S
O785 C787 1.240 . S
O786 Co759 2.096 . S
O786 C767 1.247 . S
C787 O784 1.244 . S
C787 O785 1.240 . S
H788 C762 0.931 . S
H789 C771 0.931 . S
H790 C775 0.929 . S
H791 C777 0.930 . S
Co792 N796 2.148 1_554 S
Co792 N802 2.128 . S
Co792 N812 2.194 . S
Co792 O817 2.351 . S
Co792 O818 2.155 . S
Co792 O819 2.096 . S
C793 N796 1.301 . S
C793 N797 1.328 . S
C793 H798 0.930 . S
C794 C795 1.333 . S
C794 N796 1.317 . S
C794 H799 0.930 . S
C795 C794 1.333 . S
C795 N797 1.350 . S
C795 H821 0.931 . S
N796 Co792 2.148 1_556 S
N796 C793 1.301 . S
N796 C794 1.317 . S
N797 C793 1.328 . S
N797 C795 1.350 . S
H798 C793 0.930 . S
H799 C794 0.930 . S
C800 O801 1.224 . S
C800 O819 1.247 . S
O801 C800 1.224 . S
N802 Co792 2.128 . S
N802 C803 1.355 . S
N802 C805 1.311 . S
C803 N802 1.355 . S
C803 C804 1.363 . S
C803 H815 0.929 . S
C804 C803 1.363 . S
C804 N806 1.375 . S
C804 H822 0.931 . S
C805 N802 1.311 . S
C805 N806 1.347 . S
C805 H816 0.929 . S
N806 C804 1.375 . S
N806 C805 1.347 . S
C807 C810 1.365 . S
C807 N812 1.328 . S
C807 H813 0.929 . S
C808 C809 1.362 . S
C808 C811 1.378 . S
C808 H823 0.929 . S
C809 C808 1.362 . S
C809 C810 1.366 . S
C810 C807 1.365 . S
C810 C809 1.366 . S
C810 H824 0.930 . S
C811 C808 1.378 . S
C811 N812 1.315 . S
C811 H814 0.930 . S
N812 Co792 2.194 . S
N812 C807 1.328 . S
N812 C811 1.315 . S
H813 C807 0.929 . S
H814 C811 0.930 . S
H815 C803 0.929 . S
H816 C805 0.929 . S
O817 Co792 2.351 . S
O817 C820 1.244 . S
O818 Co792 2.155 . S
O818 C820 1.240 . S
O819 Co792 2.096 . S
O819 C800 1.247 . S
C820 O817 1.244 . S
C820 O818 1.240 . S
H821 C795 0.931 . S
H822 C804 0.931 . S
H823 C808 0.929 . S
H824 C810 0.930 . S
Co825 N829 2.148 . S
Co825 N835 2.128 1_554 S
Co825 N845 2.194 . S
Co825 O850 2.351 . S
Co825 O851 2.155 . S
Co825 O852 2.096 . S
C826 N829 1.301 . S
C826 N830 1.328 . S
C826 H831 0.930 . S
C827 C828 1.333 . S
C827 N829 1.317 . S
C827 H832 0.930 . S
C828 C827 1.333 . S
C828 N830 1.350 . S
C828 H854 0.931 . S
N829 Co825 2.148 . S
N829 C826 1.301 . S
N829 C827 1.317 . S
N830 C826 1.328 . S
N830 C828 1.350 . S
H831 C826 0.930 . S
H832 C827 0.930 . S
C833 O834 1.224 . S
C833 O852 1.247 . S
O834 C833 1.224 . S
N835 Co825 2.128 1_556 S
N835 C836 1.355 . S
N835 C838 1.311 . S
C836 N835 1.355 . S
C836 C837 1.363 . S
C836 H848 0.929 . S
C837 C836 1.363 . S
C837 N839 1.375 . S
C837 H855 0.931 . S
C838 N835 1.311 . S
C838 N839 1.347 . S
C838 H849 0.929 . S
N839 C837 1.375 . S
N839 C838 1.347 . S
C840 C843 1.365 . S
C840 N845 1.328 . S
C840 H846 0.929 . S
C841 C842 1.362 . S
C841 C844 1.378 . S
C841 H856 0.929 . S
C842 C841 1.362 . S
C842 C843 1.366 . S
C843 C840 1.365 . S
C843 C842 1.366 . S
C843 H857 0.930 . S
C844 C841 1.378 . S
C844 N845 1.315 . S
C844 H847 0.930 . S
N845 Co825 2.194 . S
N845 C840 1.328 . S
N845 C844 1.315 . S
H846 C840 0.929 . S
H847 C844 0.930 . S
H848 C836 0.929 . S
H849 C838 0.929 . S
O850 Co825 2.351 . S
O850 C853 1.244 . S
O851 Co825 2.155 . S
O851 C853 1.240 . S
O852 Co825 2.096 . S
O852 C833 1.247 . S
C853 O850 1.244 . S
C853 O851 1.240 . S
H854 C828 0.931 . S
H855 C837 0.931 . S
H856 C841 0.929 . S
H857 C843 0.930 . S
Co858 N862 2.148 . S
Co858 N868 2.128 . S
Co858 N878 2.194 . S
Co858 O883 2.351 . S
Co858 O884 2.155 . S
Co858 O885 2.096 . S
C859 N862 1.301 . S
C859 N863 1.328 . S
C859 H864 0.930 . S
C860 C861 1.333 . S
C860 N862 1.317 . S
C860 H865 0.930 . S
C861 C860 1.333 . S
C861 N863 1.350 . S
C861 H887 0.931 . S
N862 Co858 2.148 . S
N862 C859 1.301 . S
N862 C860 1.317 . S
N863 C859 1.328 . S
N863 C861 1.350 . S
H864 C859 0.930 . S
H865 C860 0.930 . S
C866 O867 1.224 . S
C866 O885 1.247 . S
O867 C866 1.224 . S
N868 Co858 2.128 . S
N868 C869 1.355 . S
N868 C871 1.311 . S
C869 N868 1.355 . S
C869 C870 1.363 . S
C869 H881 0.929 . S
C870 C869 1.363 . S
C870 N872 1.375 . S
C870 H888 0.931 . S
C871 N868 1.311 . S
C871 N872 1.347 . S
C871 H882 0.929 . S
N872 C870 1.375 . S
N872 C871 1.347 . S
C873 C876 1.365 . S
C873 N878 1.328 . S
C873 H879 0.929 . S
C874 C875 1.362 . S
C874 C877 1.378 . S
C874 H889 0.929 . S
C875 C874 1.362 . S
C875 C876 1.366 . S
C876 C873 1.365 . S
C876 C875 1.366 . S
C876 H890 0.930 . S
C877 C874 1.378 . S
C877 N878 1.315 . S
C877 H880 0.930 . S
N878 Co858 2.194 . S
N878 C873 1.328 . S
N878 C877 1.315 . S
H879 C873 0.929 . S
H880 C877 0.930 . S
H881 C869 0.929 . S
H882 C871 0.929 . S
O883 Co858 2.351 . S
O883 C886 1.244 . S
O884 Co858 2.155 . S
O884 C886 1.240 . S
O885 Co858 2.096 . S
O885 C866 1.247 . S
C886 O883 1.244 . S
C886 O884 1.240 . S
H887 C861 0.931 . S
H888 C870 0.931 . S
H889 C874 0.929 . S
H890 C876 0.930 . S
Co891 N895 2.148 . S
Co891 N901 2.128 . S
Co891 N911 2.194 . S
Co891 O916 2.351 . S
Co891 O917 2.155 . S
Co891 O918 2.096 . S
C892 N895 1.301 . S
C892 N896 1.328 . S
C892 H897 0.930 . S
C893 C894 1.333 . S
C893 N895 1.317 . S
C893 H898 0.930 . S
C894 C893 1.333 . S
C894 N896 1.350 . S
C894 H920 0.931 . S
N895 Co891 2.148 . S
N895 C892 1.301 . S
N895 C893 1.317 . S
N896 C892 1.328 . S
N896 C894 1.350 . S
H897 C892 0.930 . S
H898 C893 0.930 . S
C899 O900 1.224 . S
C899 O918 1.247 . S
O900 C899 1.224 . S
N901 Co891 2.128 . S
N901 C902 1.355 . S
N901 C904 1.311 . S
C902 N901 1.355 . S
C902 C903 1.363 . S
C902 H914 0.929 . S
C903 C902 1.363 . S
C903 N905 1.375 . S
C903 H921 0.931 . S
C904 N901 1.311 . S
C904 N905 1.347 . S
C904 H915 0.929 . S
N905 C903 1.375 . S
N905 C904 1.347 . S
C906 C909 1.365 . S
C906 N911 1.328 . S
C906 H912 0.929 . S
C907 C908 1.362 . S
C907 C910 1.378 . S
C907 H922 0.929 . S
C908 C907 1.362 . S
C908 C909 1.366 . S
C909 C906 1.365 . S
C909 C908 1.366 . S
C909 H923 0.930 . S
C910 C907 1.378 . S
C910 N911 1.315 . S
C910 H913 0.930 . S
N911 Co891 2.194 . S
N911 C906 1.328 . S
N911 C910 1.315 . S
H912 C906 0.929 . S
H913 C910 0.930 . S
H914 C902 0.929 . S
H915 C904 0.929 . S
O916 Co891 2.351 . S
O916 C919 1.244 . S
O917 Co891 2.155 . S
O917 C919 1.240 . S
O918 Co891 2.096 . S
O918 C899 1.247 . S
C919 O916 1.244 . S
C919 O917 1.240 . S
H920 C894 0.931 . S
H921 C903 0.931 . S
H922 C907 0.929 . S
H923 C909 0.930 . S
Co924 N928 2.148 . S
Co924 N934 2.128 1_554 S
Co924 N944 2.194 . S
Co924 O949 2.351 . S
Co924 O950 2.155 . S
Co924 O951 2.096 . S
C925 N928 1.301 . S
C925 N929 1.328 . S
C925 H930 0.930 . S
C926 C927 1.333 . S
C926 N928 1.317 . S
C926 H931 0.930 . S
C927 C926 1.333 . S
C927 N929 1.350 . S
C927 H953 0.931 . S
N928 Co924 2.148 . S
N928 C925 1.301 . S
N928 C926 1.317 . S
N929 C925 1.328 . S
N929 C927 1.350 . S
H930 C925 0.930 . S
H931 C926 0.930 . S
C932 O933 1.224 . S
C932 O951 1.247 . S
O933 C932 1.224 . S
N934 Co924 2.128 1_556 S
N934 C935 1.355 . S
N934 C937 1.311 . S
C935 N934 1.355 . S
C935 C936 1.363 . S
C935 H947 0.929 . S
C936 C935 1.363 . S
C936 N938 1.375 . S
C936 H954 0.931 . S
C937 N934 1.311 . S
C937 N938 1.347 . S
C937 H948 0.929 . S
N938 C936 1.375 . S
N938 C937 1.347 . S
C939 C942 1.365 . S
C939 N944 1.328 . S
C939 H945 0.929 . S
C940 C941 1.362 . S
C940 C943 1.378 . S
C940 H955 0.929 . S
C941 C940 1.362 . S
C941 C942 1.366 . S
C942 C939 1.365 . S
C942 C941 1.366 . S
C942 H956 0.930 . S
C943 C940 1.378 . S
C943 N944 1.315 . S
C943 H946 0.930 . S
N944 Co924 2.194 . S
N944 C939 1.328 . S
N944 C943 1.315 . S
H945 C939 0.929 . S
H946 C943 0.930 . S
H947 C935 0.929 . S
H948 C937 0.929 . S
O949 Co924 2.351 . S
O949 C952 1.244 . S
O950 Co924 2.155 . S
O950 C952 1.240 . S
O951 Co924 2.096 . S
O951 C932 1.247 . S
C952 O949 1.244 . S
C952 O950 1.240 . S
H953 C927 0.931 . S
H954 C936 0.931 . S
H955 C940 0.929 . S
H956 C942 0.930 . S
Co957 N961 2.148 . S
Co957 N967 2.128 1_554 S
Co957 N977 2.194 . S
Co957 O982 2.351 . S
Co957 O983 2.155 . S
Co957 O984 2.096 . S
C958 N961 1.301 . S
C958 N962 1.328 . S
C958 H963 0.930 . S
C959 C960 1.333 . S
C959 N961 1.317 . S
C959 H964 0.930 . S
C960 C959 1.333 . S
C960 N962 1.350 . S
C960 H986 0.931 . S
N961 Co957 2.148 . S
N961 C958 1.301 . S
N961 C959 1.317 . S
N962 C958 1.328 . S
N962 C960 1.350 . S
H963 C958 0.930 . S
H964 C959 0.930 . S
C965 O966 1.224 . S
C965 O984 1.247 . S
O966 C965 1.224 . S
N967 Co957 2.128 1_556 S
N967 C968 1.355 . S
N967 C970 1.311 . S
C968 N967 1.355 . S
C968 C969 1.363 . S
C968 H980 0.929 . S
C969 C968 1.363 . S
C969 N971 1.375 . S
C969 H987 0.931 . S
C970 N967 1.311 . S
C970 N971 1.347 . S
C970 H981 0.929 . S
N971 C969 1.375 . S
N971 C970 1.347 . S
C972 C975 1.365 . S
C972 N977 1.328 . S
C972 H978 0.929 . S
C973 C974 1.362 . S
C973 C976 1.378 . S
C973 H988 0.929 . S
C974 C973 1.362 . S
C974 C975 1.366 . S
C975 C972 1.365 . S
C975 C974 1.366 . S
C975 H989 0.930 . S
C976 C973 1.378 . S
C976 N977 1.315 . S
C976 H979 0.930 . S
N977 Co957 2.194 . S
N977 C972 1.328 . S
N977 C976 1.315 . S
H978 C972 0.929 . S
H979 C976 0.930 . S
H980 C968 0.929 . S
H981 C970 0.929 . S
O982 Co957 2.351 . S
O982 C985 1.244 . S
O983 Co957 2.155 . S
O983 C985 1.240 . S
O984 Co957 2.096 . S
O984 C965 1.247 . S
C985 O982 1.244 . S
C985 O983 1.240 . S
H986 C960 0.931 . S
H987 C969 0.931 . S
H988 C973 0.929 . S
H989 C975 0.930 . S
Co990 N994 2.148 . S
Co990 N1000 2.128 . S
Co990 N1010 2.194 . S
Co990 O1015 2.351 . S
Co990 O1016 2.155 . S
Co990 O1017 2.096 . S
C991 N994 1.301 . S
C991 N995 1.328 . S
C991 H996 0.930 . S
C992 C993 1.333 . S
C992 N994 1.317 . S
C992 H997 0.930 . S
C993 C992 1.333 . S
C993 N995 1.350 . S
C993 H1019 0.931 . S
N994 Co990 2.148 . S
N994 C991 1.301 . S
N994 C992 1.317 . S
N995 C991 1.328 . S
N995 C993 1.350 . S
H996 C991 0.930 . S
H997 C992 0.930 . S
C998 O999 1.224 . S
C998 O1017 1.247 . S
O999 C998 1.224 . S
N1000 Co990 2.128 . S
N1000 C1001 1.355 . S
N1000 C1003 1.311 . S
C1001 N1000 1.355 . S
C1001 C1002 1.363 . S
C1001 H1013 0.929 . S
C1002 C1001 1.363 . S
C1002 N1004 1.375 . S
C1002 H1020 0.931 . S
C1003 N1000 1.311 . S
C1003 N1004 1.347 . S
C1003 H1014 0.929 . S
N1004 C1002 1.375 . S
N1004 C1003 1.347 . S
C1005 C1008 1.365 . S
C1005 N1010 1.328 . S
C1005 H1011 0.929 . S
C1006 C1007 1.362 . S
C1006 C1009 1.378 . S
C1006 H1021 0.929 . S
C1007 C1006 1.362 . S
C1007 C1008 1.366 . S
C1008 C1005 1.365 . S
C1008 C1007 1.366 . S
C1008 H1022 0.930 . S
C1009 C1006 1.378 . S
C1009 N1010 1.315 . S
C1009 H1012 0.930 . S
N1010 Co990 2.194 . S
N1010 C1005 1.328 . S
N1010 C1009 1.315 . S
H1011 C1005 0.929 . S
H1012 C1009 0.930 . S
H1013 C1001 0.929 . S
H1014 C1003 0.929 . S
O1015 Co990 2.351 . S
O1015 C1018 1.244 . S
O1016 Co990 2.155 . S
O1016 C1018 1.240 . S
O1017 Co990 2.096 . S
O1017 C998 1.247 . S
C1018 O1015 1.244 . S
C1018 O1016 1.240 . S
H1019 C993 0.931 . S
H1020 C1002 0.931 . S
H1021 C1006 0.929 . S
H1022 C1008 0.930 . S
Co1023 N1027 2.148 . S
Co1023 N1033 2.128 . S
Co1023 N1043 2.194 . S
Co1023 O1048 2.351 . S
Co1023 O1049 2.155 . S
Co1023 O1050 2.096 . S
C1024 N1027 1.301 . S
C1024 N1028 1.328 . S
C1024 H1029 0.930 . S
C1025 C1026 1.333 . S
C1025 N1027 1.317 . S
C1025 H1030 0.930 . S
C1026 C1025 1.333 . S
C1026 N1028 1.350 . S
C1026 H1052 0.931 . S
N1027 Co1023 2.148 . S
N1027 C1024 1.301 . S
N1027 C1025 1.317 . S
N1028 C1024 1.328 . S
N1028 C1026 1.350 . S
H1029 C1024 0.930 . S
H1030 C1025 0.930 . S
C1031 O1032 1.224 . S
C1031 O1050 1.247 . S
O1032 C1031 1.224 . S
N1033 Co1023 2.128 . S
N1033 C1034 1.355 . S
N1033 C1036 1.311 . S
C1034 N1033 1.355 . S
C1034 C1035 1.363 . S
C1034 H1046 0.929 . S
C1035 C1034 1.363 . S
C1035 N1037 1.375 . S
C1035 H1053 0.931 . S
C1036 N1033 1.311 . S
C1036 N1037 1.347 . S
C1036 H1047 0.929 . S
N1037 C1035 1.375 . S
N1037 C1036 1.347 . S
C1038 C1041 1.365 . S
C1038 N1043 1.328 . S
C1038 H1044 0.929 . S
C1039 C1040 1.362 . S
C1039 C1042 1.378 . S
C1039 H1054 0.929 . S
C1040 C1039 1.362 . S
C1040 C1041 1.366 . S
C1041 C1038 1.365 . S
C1041 C1040 1.366 . S
C1041 H1055 0.930 . S
C1042 C1039 1.378 . S
C1042 N1043 1.315 . S
C1042 H1045 0.930 . S
N1043 Co1023 2.194 . S
N1043 C1038 1.328 . S
N1043 C1042 1.315 . S
H1044 C1038 0.929 . S
H1045 C1042 0.930 . S
H1046 C1034 0.929 . S
H1047 C1036 0.929 . S
O1048 Co1023 2.351 . S
O1048 C1051 1.244 . S
O1049 Co1023 2.155 . S
O1049 C1051 1.240 . S
O1050 Co1023 2.096 . S
O1050 C1031 1.247 . S
C1051 O1048 1.244 . S
C1051 O1049 1.240 . S
H1052 C1026 0.931 . S
H1053 C1035 0.931 . S
H1054 C1039 0.929 . S
H1055 C1041 0.930 . S
H1056 C1062 0.930 . S
H1057 C1066 0.930 . S
H1058 C1071 0.929 . S
H1059 C1069 0.929 . S
H1060 C1064 0.929 . S
H1061 C1070 0.929 . S
C1062 H1056 0.930 . S
C1062 C1063 1.367 . S
C1062 C1070 1.378 . S
C1063 C1062 1.367 . S
C1063 C1071 1.433 . S
C1064 H1060 0.929 . S
C1064 C1066 1.378 . S
C1064 C1068 1.350 . S
C1065 C1068 1.463 . S
C1065 C1070 1.350 . S
C1065 N1073 1.427 . S
C1066 H1057 0.930 . S
C1066 C1064 1.378 . S
C1066 C1067 1.367 . S
C1067 C1066 1.367 . S
C1067 C1069 1.433 . S
C1068 C1064 1.350 . S
C1068 C1065 1.463 . S
C1068 N1072 1.427 . S
C1069 H1059 0.929 . S
C1069 C1067 1.433 . S
C1069 N1072 1.384 . S
C1070 H1061 0.929 . S
C1070 C1062 1.378 . S
C1070 C1065 1.350 . S
C1071 H1058 0.929 . S
C1071 C1063 1.433 . S
C1071 N1073 1.384 . S
N1072 C1068 1.427 . S
N1072 C1069 1.384 . S
N1073 C1065 1.427 . S
N1073 C1071 1.384 . S
H1074 C1080 0.930 . S
H1075 C1084 0.930 . S
H1076 C1089 0.929 . S
H1077 C1087 0.929 . S
H1078 C1082 0.929 . S
H1079 C1088 0.929 . S
C1080 H1074 0.930 . S
C1080 C1081 1.367 . S
C1080 C1088 1.378 . S
C1081 C1080 1.367 . S
C1081 C1089 1.433 . S
C1082 H1078 0.929 . S
C1082 C1084 1.378 . S
C1082 C1086 1.350 . S
C1083 C1086 1.463 . S
C1083 C1088 1.350 . S
C1083 N1091 1.427 . S
C1084 H1075 0.930 . S
C1084 C1082 1.378 . S
C1084 C1085 1.367 . S
C1085 C1084 1.367 . S
C1085 C1087 1.433 . S
C1086 C1082 1.350 . S
C1086 C1083 1.463 . S
C1086 N1090 1.427 . S
C1087 H1077 0.929 . S
C1087 C1085 1.433 . S
C1087 N1090 1.384 . S
C1088 H1079 0.929 . S
C1088 C1080 1.378 . S
C1088 C1083 1.350 . S
C1089 H1076 0.929 . S
C1089 C1081 1.433 . S
C1089 N1091 1.384 . S
N1090 C1086 1.427 . S
N1090 C1087 1.384 . S
N1091 C1083 1.427 . S
N1091 C1089 1.384 . S
H1092 C1098 0.930 1_545 S
H1093 C1102 0.930 . S
H1094 C1107 0.929 . S
H1095 C1105 0.929 . S
H1096 C1100 0.929 . S
H1097 C1106 0.929 . S
C1098 H1092 0.930 1_565 S
C1098 C1099 1.367 . S
C1098 C1106 1.378 . S
C1099 C1098 1.367 . S
C1099 C1107 1.433 . S
C1100 H1096 0.929 . S
C1100 C1102 1.378 . S
C1100 C1104 1.350 . S
C1101 C1104 1.463 . S
C1101 C1106 1.350 . S
C1101 N1109 1.427 . S
C1102 H1093 0.930 . S
C1102 C1100 1.378 . S
C1102 C1103 1.367 . S
C1103 C1102 1.367 . S
C1103 C1105 1.433 . S
C1104 C1100 1.350 . S
C1104 C1101 1.463 . S
C1104 N1108 1.427 . S
C1105 H1095 0.929 . S
C1105 C1103 1.433 . S
C1105 N1108 1.384 . S
C1106 H1097 0.929 . S
C1106 C1098 1.378 . S
C1106 C1101 1.350 . S
C1107 H1094 0.929 . S
C1107 C1099 1.433 . S
C1107 N1109 1.384 . S
N1108 C1104 1.427 . S
N1108 C1105 1.384 . S
N1109 C1101 1.427 . S
N1109 C1107 1.384 . S
H1110 C1116 0.930 . S
H1111 C1120 0.930 1_545 S
H1112 C1125 0.929 . S
H1113 C1123 0.929 . S
H1114 C1118 0.929 1_545 S
H1115 C1124 0.929 . S
C1116 H1110 0.930 . S
C1116 C1117 1.367 . S
C1116 C1124 1.378 . S
C1117 C1116 1.367 . S
C1117 C1125 1.433 . S
C1118 H1114 0.929 1_565 S
C1118 C1120 1.378 . S
C1118 C1122 1.350 . S
C1119 C1122 1.463 . S
C1119 C1124 1.350 . S
C1119 N1127 1.427 . S
C1120 H1111 0.930 1_565 S
C1120 C1118 1.378 . S
C1120 C1121 1.367 . S
C1121 C1120 1.367 . S
C1121 C1123 1.433 . S
C1122 C1118 1.350 . S
C1122 C1119 1.463 . S
C1122 N1126 1.427 . S
C1123 H1113 0.929 . S
C1123 C1121 1.433 . S
C1123 N1126 1.384 . S
C1124 H1115 0.929 . S
C1124 C1116 1.378 . S
C1124 C1119 1.350 . S
C1125 H1112 0.929 . S
C1125 C1117 1.433 . S
C1125 N1127 1.384 . S
N1126 C1122 1.427 . S
N1126 C1123 1.384 . S
N1127 C1119 1.427 . S
N1127 C1125 1.384 . S
H1128 C1134 0.930 . S
H1129 C1138 0.930 . S
H1130 C1143 0.929 . S
H1131 C1141 0.929 . S
H1132 C1136 0.929 . S
H1133 C1142 0.929 . S
C1134 H1128 0.930 . S
C1134 C1135 1.367 . S
C1134 C1142 1.378 . S
C1135 C1134 1.367 . S
C1135 C1143 1.433 . S
C1136 H1132 0.929 . S
C1136 C1138 1.378 . S
C1136 C1140 1.350 . S
C1137 C1140 1.463 . S
C1137 C1142 1.350 . S
C1137 N1145 1.427 . S
C1138 H1129 0.930 . S
C1138 C1136 1.378 . S
C1138 C1139 1.367 . S
C1139 C1138 1.367 . S
C1139 C1141 1.433 . S
C1140 C1136 1.350 . S
C1140 C1137 1.463 . S
C1140 N1144 1.427 . S
C1141 H1131 0.929 . S
C1141 C1139 1.433 . S
C1141 N1144 1.384 . S
C1142 H1133 0.929 . S
C1142 C1134 1.378 . S
C1142 C1137 1.350 . S
C1143 H1130 0.929 . S
C1143 C1135 1.433 . S
C1143 N1145 1.384 . S
N1144 C1140 1.427 . S
N1144 C1141 1.384 . S
N1145 C1137 1.427 . S
N1145 C1143 1.384 . S
H1146 C1152 0.930 . S
H1147 C1156 0.930 . S
H1148 C1161 0.929 . S
H1149 C1159 0.929 . S
H1150 C1154 0.929 . S
H1151 C1160 0.929 . S
C1152 H1146 0.930 . S
C1152 C1153 1.367 . S
C1152 C1160 1.378 . S
C1153 C1152 1.367 . S
C1153 C1161 1.433 . S
C1154 H1150 0.929 . S
C1154 C1156 1.378 . S
C1154 C1158 1.350 . S
C1155 C1158 1.463 . S
C1155 C1160 1.350 . S
C1155 N1163 1.427 . S
C1156 H1147 0.930 . S
C1156 C1154 1.378 . S
C1156 C1157 1.367 . S
C1157 C1156 1.367 . S
C1157 C1159 1.433 . S
C1158 C1154 1.350 . S
C1158 C1155 1.463 . S
C1158 N1162 1.427 . S
C1159 H1149 0.929 . S
C1159 C1157 1.433 . S
C1159 N1162 1.384 . S
C1160 H1151 0.929 . S
C1160 C1152 1.378 . S
C1160 C1155 1.350 . S
C1161 H1148 0.929 . S
C1161 C1153 1.433 . S
C1161 N1163 1.384 . S
N1162 C1158 1.427 . S
N1162 C1159 1.384 . S
N1163 C1155 1.427 . S
N1163 C1161 1.384 . S
H1164 C1170 0.930 . S
H1165 C1174 0.930 . S
H1166 C1179 0.929 . S
H1167 C1177 0.929 . S
H1168 C1172 0.929 . S
H1169 C1178 0.929 . S
C1170 H1164 0.930 . S
C1170 C1171 1.367 . S
C1170 C1178 1.378 . S
C1171 C1170 1.367 . S
C1171 C1179 1.433 . S
C1172 H1168 0.929 . S
C1172 C1174 1.378 . S
C1172 C1176 1.350 . S
C1173 C1176 1.463 . S
C1173 C1178 1.350 . S
C1173 N1181 1.427 . S
C1174 H1165 0.930 . S
C1174 C1172 1.378 . S
C1174 C1175 1.367 . S
C1175 C1174 1.367 . S
C1175 C1177 1.433 . S
C1176 C1172 1.350 . S
C1176 C1173 1.463 . S
C1176 N1180 1.427 . S
C1177 H1167 0.929 . S
C1177 C1175 1.433 . S
C1177 N1180 1.384 . S
C1178 H1169 0.929 . S
C1178 C1170 1.378 . S
C1178 C1173 1.350 . S
C1179 H1166 0.929 . S
C1179 C1171 1.433 . S
C1179 N1181 1.384 . S
N1180 C1176 1.427 . S
N1180 C1177 1.384 . S
N1181 C1173 1.427 . S
N1181 C1179 1.384 . S
H1182 C1188 0.930 . S
H1183 C1192 0.930 . S
H1184 C1197 0.929 . S
H1185 C1195 0.929 . S
H1186 C1190 0.929 . S
H1187 C1196 0.929 . S
C1188 H1182 0.930 . S
C1188 C1189 1.367 . S
C1188 C1196 1.378 . S
C1189 C1188 1.367 . S
C1189 C1197 1.433 . S
C1190 H1186 0.929 . S
C1190 C1192 1.378 . S
C1190 C1194 1.350 . S
C1191 C1194 1.463 . S
C1191 C1196 1.350 . S
C1191 N1199 1.427 . S
C1192 H1183 0.930 . S
C1192 C1190 1.378 . S
C1192 C1193 1.367 . S
C1193 C1192 1.367 . S
C1193 C1195 1.433 . S
C1194 C1190 1.350 . S
C1194 C1191 1.463 . S
C1194 N1198 1.427 . S
C1195 H1185 0.929 . S
C1195 C1193 1.433 . S
C1195 N1198 1.384 . S
C1196 H1187 0.929 . S
C1196 C1188 1.378 . S
C1196 C1191 1.350 . S
C1197 H1184 0.929 . S
C1197 C1189 1.433 . S
C1197 N1199 1.384 . S
N1198 C1194 1.427 . S
N1198 C1195 1.384 . S
N1199 C1191 1.427 . S
N1199 C1197 1.384 . S
H1200 C1206 0.930 . S
H1201 C1210 0.930 . S
H1202 C1215 0.929 . S
H1203 C1213 0.929 . S
H1204 C1208 0.929 . S
H1205 C1214 0.929 . S
C1206 H1200 0.930 . S
C1206 C1207 1.367 . S
C1206 C1214 1.378 . S
C1207 C1206 1.367 . S
C1207 C1215 1.433 . S
C1208 H1204 0.929 . S
C1208 C1210 1.378 . S
C1208 C1212 1.350 . S
C1209 C1212 1.463 . S
C1209 C1214 1.350 . S
C1209 N1217 1.427 . S
C1210 H1201 0.930 . S
C1210 C1208 1.378 . S
C1210 C1211 1.367 . S
C1211 C1210 1.367 . S
C1211 C1213 1.433 . S
C1212 C1208 1.350 . S
C1212 C1209 1.463 . S
C1212 N1216 1.427 . S
C1213 H1203 0.929 . S
C1213 C1211 1.433 . S
C1213 N1216 1.384 . S
C1214 H1205 0.929 . S
C1214 C1206 1.378 . S
C1214 C1209 1.350 . S
C1215 H1202 0.929 . S
C1215 C1207 1.433 . S
C1215 N1217 1.384 . S
N1216 C1212 1.427 . S
N1216 C1213 1.384 . S
N1217 C1209 1.427 . S
N1217 C1215 1.384 . S
H1218 C1224 0.930 . S
H1219 C1228 0.930 . S
H1220 C1233 0.929 . S
H1221 C1231 0.929 . S
H1222 C1226 0.929 . S
H1223 C1232 0.929 . S
C1224 H1218 0.930 . S
C1224 C1225 1.367 . S
C1224 C1232 1.378 . S
C1225 C1224 1.367 . S
C1225 C1233 1.433 . S
C1226 H1222 0.929 . S
C1226 C1228 1.378 . S
C1226 C1230 1.350 . S
C1227 C1230 1.463 . S
C1227 C1232 1.350 . S
C1227 N1235 1.427 . S
C1228 H1219 0.930 . S
C1228 C1226 1.378 . S
C1228 C1229 1.367 . S
C1229 C1228 1.367 . S
C1229 C1231 1.433 . S
C1230 C1226 1.350 . S
C1230 C1227 1.463 . S
C1230 N1234 1.427 . S
C1231 H1221 0.929 . S
C1231 C1229 1.433 . S
C1231 N1234 1.384 . S
C1232 H1223 0.929 . S
C1232 C1224 1.378 . S
C1232 C1227 1.350 . S
C1233 H1220 0.929 . S
C1233 C1225 1.433 . S
C1233 N1235 1.384 . S
N1234 C1230 1.427 . S
N1234 C1231 1.384 . S
N1235 C1227 1.427 . S
N1235 C1233 1.384 . S
H1236 C1242 0.930 . S
H1237 C1246 0.930 1_545 S
H1238 C1251 0.929 . S
H1239 C1249 0.929 . S
H1240 C1244 0.929 . S
H1241 C1250 0.929 . S
C1242 H1236 0.930 . S
C1242 C1243 1.367 . S
C1242 C1250 1.378 . S
C1243 C1242 1.367 . S
C1243 C1251 1.433 . S
C1244 H1240 0.929 . S
C1244 C1246 1.378 . S
C1244 C1248 1.350 . S
C1245 C1248 1.463 . S
C1245 C1250 1.350 . S
C1245 N1253 1.427 . S
C1246 H1237 0.930 1_565 S
C1246 C1244 1.378 . S
C1246 C1247 1.367 . S
C1247 C1246 1.367 . S
C1247 C1249 1.433 . S
C1248 C1244 1.350 . S
C1248 C1245 1.463 . S
C1248 N1252 1.427 . S
C1249 H1239 0.929 . S
C1249 C1247 1.433 . S
C1249 N1252 1.384 . S
C1250 H1241 0.929 . S
C1250 C1242 1.378 . S
C1250 C1245 1.350 . S
C1251 H1238 0.929 . S
C1251 C1243 1.433 . S
C1251 N1253 1.384 . S
N1252 C1248 1.427 . S
N1252 C1249 1.384 . S
N1253 C1245 1.427 . S
N1253 C1251 1.384 . S
H1254 C1260 0.930 . S
H1255 C1264 0.930 . S
H1256 C1269 0.929 . S
H1257 C1267 0.929 1_545 S
H1258 C1262 0.929 . S
H1259 C1268 0.929 . S
C1260 H1254 0.930 . S
C1260 C1261 1.367 . S
C1260 C1268 1.378 . S
C1261 C1260 1.367 . S
C1261 C1269 1.433 . S
C1262 H1258 0.929 . S
C1262 C1264 1.378 . S
C1262 C1266 1.350 . S
C1263 C1266 1.463 . S
C1263 C1268 1.350 . S
C1263 N1271 1.427 . S
C1264 H1255 0.930 . S
C1264 C1262 1.378 . S
C1264 C1265 1.367 . S
C1265 C1264 1.367 . S
C1265 C1267 1.433 . S
C1266 C1262 1.350 . S
C1266 C1263 1.463 . S
C1266 N1270 1.427 . S
C1267 H1257 0.929 1_565 S
C1267 C1265 1.433 . S
C1267 N1270 1.384 . S
C1268 H1259 0.929 . S
C1268 C1260 1.378 . S
C1268 C1263 1.350 . S
C1269 H1256 0.929 . S
C1269 C1261 1.433 . S
C1269 N1271 1.384 . S
N1270 C1266 1.427 . S
N1270 C1267 1.384 . S
N1271 C1263 1.427 . S
N1271 C1269 1.384 . S
H1272 C1278 0.930 . S
H1273 C1282 0.930 . S
H1274 C1287 0.929 . S
H1275 C1285 0.929 . S
H1276 C1280 0.929 . S
H1277 C1286 0.929 . S
C1278 H1272 0.930 . S
C1278 C1279 1.367 . S
C1278 C1286 1.378 . S
C1279 C1278 1.367 . S
C1279 C1287 1.433 . S
C1280 H1276 0.929 . S
C1280 C1282 1.378 . S
C1280 C1284 1.350 . S
C1281 C1284 1.463 . S
C1281 C1286 1.350 . S
C1281 N1289 1.427 . S
C1282 H1273 0.930 . S
C1282 C1280 1.378 . S
C1282 C1283 1.367 . S
C1283 C1282 1.367 . S
C1283 C1285 1.433 . S
C1284 C1280 1.350 . S
C1284 C1281 1.463 . S
C1284 N1288 1.427 . S
C1285 H1275 0.929 . S
C1285 C1283 1.433 . S
C1285 N1288 1.384 . S
C1286 H1277 0.929 . S
C1286 C1278 1.378 . S
C1286 C1281 1.350 . S
C1287 H1274 0.929 . S
C1287 C1279 1.433 . S
C1287 N1289 1.384 . S
N1288 C1284 1.427 . S
N1288 C1285 1.384 . S
N1289 C1281 1.427 . S
N1289 C1287 1.384 . S
H1290 C1296 0.930 . S
H1291 C1300 0.930 . S
H1292 C1305 0.929 . S
H1293 C1303 0.929 . S
H1294 C1298 0.929 . S
H1295 C1304 0.929 . S
C1296 H1290 0.930 . S
C1296 C1297 1.367 . S
C1296 C1304 1.378 . S
C1297 C1296 1.367 . S
C1297 C1305 1.433 . S
C1298 H1294 0.929 . S
C1298 C1300 1.378 . S
C1298 C1302 1.350 . S
C1299 C1302 1.463 . S
C1299 C1304 1.350 . S
C1299 N1307 1.427 . S
C1300 H1291 0.930 . S
C1300 C1298 1.378 . S
C1300 C1301 1.367 . S
C1301 C1300 1.367 . S
C1301 C1303 1.433 . S
C1302 C1298 1.350 . S
C1302 C1299 1.463 . S
C1302 N1306 1.427 . S
C1303 H1293 0.929 . S
C1303 C1301 1.433 . S
C1303 N1306 1.384 . S
C1304 H1295 0.929 . S
C1304 C1296 1.378 . S
C1304 C1299 1.350 . S
C1305 H1292 0.929 . S
C1305 C1297 1.433 . S
C1305 N1307 1.384 . S
N1306 C1302 1.427 . S
N1306 C1303 1.384 . S
N1307 C1299 1.427 . S
N1307 C1305 1.384 . S
H1308 C1314 0.930 . S
H1309 C1318 0.930 . S
H1310 C1323 0.929 . S
H1311 C1321 0.929 . S
H1312 C1316 0.929 . S
H1313 C1322 0.929 . S
C1314 H1308 0.930 . S
C1314 C1315 1.367 . S
C1314 C1322 1.378 . S
C1315 C1314 1.367 . S
C1315 C1323 1.433 . S
C1316 H1312 0.929 . S
C1316 C1318 1.378 . S
C1316 C1320 1.350 . S
C1317 C1320 1.463 . S
C1317 C1322 1.350 . S
C1317 N1325 1.427 . S
C1318 H1309 0.930 . S
C1318 C1316 1.378 . S
C1318 C1319 1.367 . S
C1319 C1318 1.367 . S
C1319 C1321 1.433 . S
C1320 C1316 1.350 . S
C1320 C1317 1.463 . S
C1320 N1324 1.427 . S
C1321 H1311 0.929 . S
C1321 C1319 1.433 . S
C1321 N1324 1.384 . S
C1322 H1313 0.929 . S
C1322 C1314 1.378 . S
C1322 C1317 1.350 . S
C1323 H1310 0.929 . S
C1323 C1315 1.433 . S
C1323 N1325 1.384 . S
N1324 C1320 1.427 . S
N1324 C1321 1.384 . S
N1325 C1317 1.427 . S
N1325 C1323 1.384 . S
H1326 C1332 0.930 . S
H1327 C1336 0.930 . S
H1328 C1341 0.929 . S
H1329 C1339 0.929 . S
H1330 C1334 0.929 . S
H1331 C1340 0.929 . S
C1332 H1326 0.930 . S
C1332 C1333 1.367 . S
C1332 C1340 1.378 . S
C1333 C1332 1.367 . S
C1333 C1341 1.433 . S
C1334 H1330 0.929 . S
C1334 C1336 1.378 . S
C1334 C1338 1.350 . S
C1335 C1338 1.463 . S
C1335 C1340 1.350 . S
C1335 N1343 1.427 . S
C1336 H1327 0.930 . S
C1336 C1334 1.378 . S
C1336 C1337 1.367 . S
C1337 C1336 1.367 . S
C1337 C1339 1.433 . S
C1338 C1334 1.350 . S
C1338 C1335 1.463 . S
C1338 N1342 1.427 . S
C1339 H1329 0.929 . S
C1339 C1337 1.433 . S
C1339 N1342 1.384 . S
C1340 H1331 0.929 . S
C1340 C1332 1.378 . S
C1340 C1335 1.350 . S
C1341 H1328 0.929 . S
C1341 C1333 1.433 . S
C1341 N1343 1.384 . S
N1342 C1338 1.427 . S
N1342 C1339 1.384 . S
N1343 C1335 1.427 . S
N1343 C1341 1.384 . S
H1344 C1350 0.930 . S
H1345 C1354 0.930 . S
H1346 C1359 0.929 . S
H1347 C1357 0.929 . S
H1348 C1352 0.929 . S
H1349 C1358 0.929 . S
C1350 H1344 0.930 . S
C1350 C1351 1.367 . S
C1350 C1358 1.378 . S
C1351 C1350 1.367 . S
C1351 C1359 1.433 . S
C1352 H1348 0.929 . S
C1352 C1354 1.378 . S
C1352 C1356 1.350 . S
C1353 C1356 1.463 . S
C1353 C1358 1.350 . S
C1353 N1361 1.427 . S
C1354 H1345 0.930 . S
C1354 C1352 1.378 . S
C1354 C1355 1.367 . S
C1355 C1354 1.367 . S
C1355 C1357 1.433 . S
C1356 C1352 1.350 . S
C1356 C1353 1.463 . S
C1356 N1360 1.427 . S
C1357 H1347 0.929 . S
C1357 C1355 1.433 . S
C1357 N1360 1.384 . S
C1358 H1349 0.929 . S
C1358 C1350 1.378 . S
C1358 C1353 1.350 . S
C1359 H1346 0.929 . S
C1359 C1351 1.433 . S
C1359 N1361 1.384 . S
N1360 C1356 1.427 . S
N1360 C1357 1.384 . S
N1361 C1353 1.427 . S
N1361 C1359 1.384 . S
H1362 C1368 0.930 . S
H1363 C1372 0.930 . S
H1364 C1377 0.929 . S
H1365 C1375 0.929 . S
H1366 C1370 0.929 . S
H1367 C1376 0.929 . S
C1368 H1362 0.930 . S
C1368 C1369 1.367 . S
C1368 C1376 1.378 . S
C1369 C1368 1.367 . S
C1369 C1377 1.433 . S
C1370 H1366 0.929 . S
C1370 C1372 1.378 . S
C1370 C1374 1.350 . S
C1371 C1374 1.463 . S
C1371 C1376 1.350 . S
C1371 N1379 1.427 . S
C1372 H1363 0.930 . S
C1372 C1370 1.378 . S
C1372 C1373 1.367 . S
C1373 C1372 1.367 . S
C1373 C1375 1.433 1_565 S
C1374 C1370 1.350 . S
C1374 C1371 1.463 . S
C1374 N1378 1.427 . S
C1375 H1365 0.929 . S
C1375 C1373 1.433 1_545 S
C1375 N1378 1.384 1_545 S
C1376 H1367 0.929 . S
C1376 C1368 1.378 . S
C1376 C1371 1.350 . S
C1377 H1364 0.929 . S
C1377 C1369 1.433 . S
C1377 N1379 1.384 . S
N1378 C1374 1.427 . S
N1378 C1375 1.384 1_565 S
N1379 C1371 1.427 . S
N1379 C1377 1.384 . S
H1380 C1386 0.930 . S
H1381 C1390 0.930 . S
H1382 C1395 0.929 . S
H1383 C1393 0.929 . S
H1384 C1388 0.929 . S
H1385 C1394 0.929 . S
C1386 H1380 0.930 . S
C1386 C1387 1.367 1_545 S
C1386 C1394 1.378 1_545 S
C1387 C1386 1.367 1_565 S
C1387 C1395 1.433 . S
C1388 H1384 0.929 . S
C1388 C1390 1.378 . S
C1388 C1392 1.350 . S
C1389 C1392 1.463 . S
C1389 C1394 1.350 . S
C1389 N1397 1.427 . S
C1390 H1381 0.930 . S
C1390 C1388 1.378 . S
C1390 C1391 1.367 . S
C1391 C1390 1.367 . S
C1391 C1393 1.433 . S
C1392 C1388 1.350 . S
C1392 C1389 1.463 . S
C1392 N1396 1.427 . S
C1393 H1383 0.929 . S
C1393 C1391 1.433 . S
C1393 N1396 1.384 . S
C1394 H1385 0.929 . S
C1394 C1386 1.378 1_565 S
C1394 C1389 1.350 . S
C1395 H1382 0.929 . S
C1395 C1387 1.433 . S
C1395 N1397 1.384 . S
N1396 C1392 1.427 . S
N1396 C1393 1.384 . S
N1397 C1389 1.427 . S
N1397 C1395 1.384 . S
H1398 C1404 0.930 . S
H1399 C1408 0.930 . S
H1400 C1413 0.929 . S
H1401 C1411 0.929 . S
H1402 C1406 0.929 . S
H1403 C1412 0.929 . S
C1404 H1398 0.930 . S
C1404 C1405 1.367 . S
C1404 C1412 1.378 . S
C1405 C1404 1.367 . S
C1405 C1413 1.433 . S
C1406 H1402 0.929 . S
C1406 C1408 1.378 . S
C1406 C1410 1.350 . S
C1407 C1410 1.463 . S
C1407 C1412 1.350 . S
C1407 N1415 1.427 . S
C1408 H1399 0.930 . S
C1408 C1406 1.378 . S
C1408 C1409 1.367 . S
C1409 C1408 1.367 . S
C1409 C1411 1.433 . S
C1410 C1406 1.350 . S
C1410 C1407 1.463 . S
C1410 N1414 1.427 . S
C1411 H1401 0.929 . S
C1411 C1409 1.433 . S
C1411 N1414 1.384 . S
C1412 H1403 0.929 . S
C1412 C1404 1.378 . S
C1412 C1407 1.350 . S
C1413 H1400 0.929 . S
C1413 C1405 1.433 . S
C1413 N1415 1.384 . S
N1414 C1410 1.427 . S
N1414 C1411 1.384 . S
N1415 C1407 1.427 . S
N1415 C1413 1.384 . S
H1416 C1422 0.930 . S
H1417 C1426 0.930 . S
H1418 C1431 0.929 . S
H1419 C1429 0.929 . S
H1420 C1424 0.929 . S
H1421 C1430 0.929 . S
C1422 H1416 0.930 . S
C1422 C1423 1.367 . S
C1422 C1430 1.378 . S
C1423 C1422 1.367 . S
C1423 C1431 1.433 . S
C1424 H1420 0.929 . S
C1424 C1426 1.378 . S
C1424 C1428 1.350 . S
C1425 C1428 1.463 . S
C1425 C1430 1.350 . S
C1425 N1433 1.427 . S
C1426 H1417 0.930 . S
C1426 C1424 1.378 . S
C1426 C1427 1.367 . S
C1427 C1426 1.367 . S
C1427 C1429 1.433 . S
C1428 C1424 1.350 . S
C1428 C1425 1.463 . S
C1428 N1432 1.427 . S
C1429 H1419 0.929 . S
C1429 C1427 1.433 . S
C1429 N1432 1.384 . S
C1430 H1421 0.929 . S
C1430 C1422 1.378 . S
C1430 C1425 1.350 . S
C1431 H1418 0.929 . S
C1431 C1423 1.433 . S
C1431 N1433 1.384 . S
N1432 C1428 1.427 . S
N1432 C1429 1.384 . S
N1433 C1425 1.427 . S
N1433 C1431 1.384 . S
H1434 C1440 0.930 . S
H1435 C1444 0.930 . S
H1436 C1449 0.929 . S
H1437 C1447 0.929 . S
H1438 C1442 0.929 . S
H1439 C1448 0.929 . S
C1440 H1434 0.930 . S
C1440 C1441 1.367 . S
C1440 C1448 1.378 . S
C1441 C1440 1.367 . S
C1441 C1449 1.433 . S
C1442 H1438 0.929 . S
C1442 C1444 1.378 . S
C1442 C1446 1.350 . S
C1443 C1446 1.463 . S
C1443 C1448 1.350 . S
C1443 N1451 1.427 . S
C1444 H1435 0.930 . S
C1444 C1442 1.378 . S
C1444 C1445 1.367 . S
C1445 C1444 1.367 . S
C1445 C1447 1.433 . S
C1446 C1442 1.350 . S
C1446 C1443 1.463 . S
C1446 N1450 1.427 . S
C1447 H1437 0.929 . S
C1447 C1445 1.433 . S
C1447 N1450 1.384 . S
C1448 H1439 0.929 . S
C1448 C1440 1.378 . S
C1448 C1443 1.350 . S
C1449 H1436 0.929 . S
C1449 C1441 1.433 . S
C1449 N1451 1.384 . S
N1450 C1446 1.427 . S
N1450 C1447 1.384 . S
N1451 C1443 1.427 . S
N1451 C1449 1.384 . S
H1452 C1458 0.930 . S
H1453 C1462 0.930 . S
H1454 C1467 0.929 . S
H1455 C1465 0.929 . S
H1456 C1460 0.929 . S
H1457 C1466 0.929 . S
C1458 H1452 0.930 . S
C1458 C1459 1.367 . S
C1458 C1466 1.378 . S
C1459 C1458 1.367 . S
C1459 C1467 1.433 . S
C1460 H1456 0.929 . S
C1460 C1462 1.378 . S
C1460 C1464 1.350 . S
C1461 C1464 1.463 . S
C1461 C1466 1.350 . S
C1461 N1469 1.427 . S
C1462 H1453 0.930 . S
C1462 C1460 1.378 . S
C1462 C1463 1.367 . S
C1463 C1462 1.367 . S
C1463 C1465 1.433 . S
C1464 C1460 1.350 . S
C1464 C1461 1.463 . S
C1464 N1468 1.427 . S
C1465 H1455 0.929 . S
C1465 C1463 1.433 . S
C1465 N1468 1.384 . S
C1466 H1457 0.929 . S
C1466 C1458 1.378 . S
C1466 C1461 1.350 . S
C1467 H1454 0.929 . S
C1467 C1459 1.433 . S
C1467 N1469 1.384 . S
N1468 C1464 1.427 . S
N1468 C1465 1.384 . S
N1469 C1461 1.427 . S
N1469 C1467 1.384 . S
H1470 C1476 0.930 . S
H1471 C1480 0.930 . S
H1472 C1485 0.929 . S
H1473 C1483 0.929 . S
H1474 C1478 0.929 . S
H1475 C1484 0.929 . S
C1476 H1470 0.930 . S
C1476 C1477 1.367 . S
C1476 C1484 1.378 . S
C1477 C1476 1.367 . S
C1477 C1485 1.433 . S
C1478 H1474 0.929 . S
C1478 C1480 1.378 . S
C1478 C1482 1.350 . S
C1479 C1482 1.463 . S
C1479 C1484 1.350 . S
C1479 N1487 1.427 . S
C1480 H1471 0.930 . S
C1480 C1478 1.378 . S
C1480 C1481 1.367 . S
C1481 C1480 1.367 . S
C1481 C1483 1.433 . S
C1482 C1478 1.350 . S
C1482 C1479 1.463 . S
C1482 N1486 1.427 . S
C1483 H1473 0.929 . S
C1483 C1481 1.433 . S
C1483 N1486 1.384 . S
C1484 H1475 0.929 . S
C1484 C1476 1.378 . S
C1484 C1479 1.350 . S
C1485 H1472 0.929 . S
C1485 C1477 1.433 . S
C1485 N1487 1.384 . S
N1486 C1482 1.427 . S
N1486 C1483 1.384 . S
N1487 C1479 1.427 . S
N1487 C1485 1.384 . S
H1488 C1494 0.930 . S
H1489 C1498 0.930 . S
H1490 C1503 0.929 . S
H1491 C1501 0.929 . S
H1492 C1496 0.929 . S
H1493 C1502 0.929 . S
C1494 H1488 0.930 . S
C1494 C1495 1.367 . S
C1494 C1502 1.378 . S
C1495 C1494 1.367 . S
C1495 C1503 1.433 . S
C1496 H1492 0.929 . S
C1496 C1498 1.378 . S
C1496 C1500 1.350 . S
C1497 C1500 1.463 . S
C1497 C1502 1.350 . S
C1497 N1505 1.427 . S
C1498 H1489 0.930 . S
C1498 C1496 1.378 . S
C1498 C1499 1.367 . S
C1499 C1498 1.367 . S
C1499 C1501 1.433 . S
C1500 C1496 1.350 . S
C1500 C1497 1.463 . S
C1500 N1504 1.427 . S
C1501 H1491 0.929 . S
C1501 C1499 1.433 . S
C1501 N1504 1.384 . S
C1502 H1493 0.929 . S
C1502 C1494 1.378 . S
C1502 C1497 1.350 . S
C1503 H1490 0.929 . S
C1503 C1495 1.433 . S
C1503 N1505 1.384 . S
N1504 C1500 1.427 . S
N1504 C1501 1.384 . S
N1505 C1497 1.427 . S
N1505 C1503 1.384 . S
H1506 C1512 0.930 . S
H1507 C1516 0.930 . S
H1508 C1521 0.929 . S
H1509 C1519 0.929 . S
H1510 C1514 0.929 . S
H1511 C1520 0.929 . S
C1512 H1506 0.930 . S
C1512 C1513 1.367 1_545 S
C1512 C1520 1.378 1_545 S
C1513 C1512 1.367 1_565 S
C1513 C1521 1.433 . S
C1514 H1510 0.929 . S
C1514 C1516 1.378 . S
C1514 C1518 1.350 . S
C1515 C1518 1.463 . S
C1515 C1520 1.350 . S
C1515 N1523 1.427 . S
C1516 H1507 0.930 . S
C1516 C1514 1.378 . S
C1516 C1517 1.367 . S
C1517 C1516 1.367 . S
C1517 C1519 1.433 . S
C1518 C1514 1.350 . S
C1518 C1515 1.463 . S
C1518 N1522 1.427 . S
C1519 H1509 0.929 . S
C1519 C1517 1.433 . S
C1519 N1522 1.384 . S
C1520 H1511 0.929 . S
C1520 C1512 1.378 1_565 S
C1520 C1515 1.350 . S
C1521 H1508 0.929 . S
C1521 C1513 1.433 . S
C1521 N1523 1.384 . S
N1522 C1518 1.427 . S
N1522 C1519 1.384 . S
N1523 C1515 1.427 . S
N1523 C1521 1.384 . S
H1524 C1530 0.930 . S
H1525 C1534 0.930 . S
H1526 C1539 0.929 . S
H1527 C1537 0.929 . S
H1528 C1532 0.929 . S
H1529 C1538 0.929 . S
C1530 H1524 0.930 . S
C1530 C1531 1.367 . S
C1530 C1538 1.378 . S
C1531 C1530 1.367 . S
C1531 C1539 1.433 1_565 S
C1532 H1528 0.929 . S
C1532 C1534 1.378 . S
C1532 C1536 1.350 . S
C1533 C1536 1.463 . S
C1533 C1538 1.350 . S
C1533 N1541 1.427 . S
C1534 H1525 0.930 . S
C1534 C1532 1.378 . S
C1534 C1535 1.367 . S
C1535 C1534 1.367 . S
C1535 C1537 1.433 . S
C1536 C1532 1.350 . S
C1536 C1533 1.463 . S
C1536 N1540 1.427 . S
C1537 H1527 0.929 . S
C1537 C1535 1.433 . S
C1537 N1540 1.384 . S
C1538 H1529 0.929 . S
C1538 C1530 1.378 . S
C1538 C1533 1.350 . S
C1539 H1526 0.929 . S
C1539 C1531 1.433 1_545 S
C1539 N1541 1.384 1_545 S
N1540 C1536 1.427 . S
N1540 C1537 1.384 . S
N1541 C1533 1.427 . S
N1541 C1539 1.384 1_565 S
H1542 C1548 0.930 . S
H1543 C1552 0.930 . S
H1544 C1557 0.929 . S
H1545 C1555 0.929 . S
H1546 C1550 0.929 . S
H1547 C1556 0.929 . S
C1548 H1542 0.930 . S
C1548 C1549 1.367 . S
C1548 C1556 1.378 . S
C1549 C1548 1.367 . S
C1549 C1557 1.433 . S
C1550 H1546 0.929 . S
C1550 C1552 1.378 . S
C1550 C1554 1.350 . S
C1551 C1554 1.463 . S
C1551 C1556 1.350 . S
C1551 N1559 1.427 . S
C1552 H1543 0.930 . S
C1552 C1550 1.378 . S
C1552 C1553 1.367 . S
C1553 C1552 1.367 . S
C1553 C1555 1.433 . S
C1554 C1550 1.350 . S
C1554 C1551 1.463 . S
C1554 N1558 1.427 . S
C1555 H1545 0.929 . S
C1555 C1553 1.433 . S
C1555 N1558 1.384 . S
C1556 H1547 0.929 . S
C1556 C1548 1.378 . S
C1556 C1551 1.350 . S
C1557 H1544 0.929 . S
C1557 C1549 1.433 . S
C1557 N1559 1.384 . S
N1558 C1554 1.427 . S
N1558 C1555 1.384 . S
N1559 C1551 1.427 . S
N1559 C1557 1.384 . S
H1560 C1566 0.930 . S
H1561 C1570 0.930 . S
H1562 C1575 0.929 . S
H1563 C1573 0.929 . S
H1564 C1568 0.929 . S
H1565 C1574 0.929 . S
C1566 H1560 0.930 . S
C1566 C1567 1.367 . S
C1566 C1574 1.378 . S
C1567 C1566 1.367 . S
C1567 C1575 1.433 . S
C1568 H1564 0.929 . S
C1568 C1570 1.378 . S
C1568 C1572 1.350 . S
C1569 C1572 1.463 . S
C1569 C1574 1.350 . S
C1569 N1577 1.427 . S
C1570 H1561 0.930 . S
C1570 C1568 1.378 . S
C1570 C1571 1.367 . S
C1571 C1570 1.367 . S
C1571 C1573 1.433 . S
C1572 C1568 1.350 . S
C1572 C1569 1.463 . S
C1572 N1576 1.427 . S
C1573 H1563 0.929 . S
C1573 C1571 1.433 . S
C1573 N1576 1.384 . S
C1574 H1565 0.929 . S
C1574 C1566 1.378 . S
C1574 C1569 1.350 . S
C1575 H1562 0.929 . S
C1575 C1567 1.433 . S
C1575 N1577 1.384 . S
N1576 C1572 1.427 . S
N1576 C1573 1.384 . S
N1577 C1569 1.427 . S
N1577 C1575 1.384 . S
H1578 C1584 0.930 . S
H1579 C1588 0.930 . S
H1580 C1593 0.929 . S
H1581 C1591 0.929 . S
H1582 C1586 0.929 . S
H1583 C1592 0.929 . S
C1584 H1578 0.930 . S
C1584 C1585 1.367 . S
C1584 C1592 1.378 . S
C1585 C1584 1.367 . S
C1585 C1593 1.433 . S
C1586 H1582 0.929 . S
C1586 C1588 1.378 . S
C1586 C1590 1.350 . S
C1587 C1590 1.463 . S
C1587 C1592 1.350 . S
C1587 N1595 1.427 . S
C1588 H1579 0.930 . S
C1588 C1586 1.378 . S
C1588 C1589 1.367 . S
C1589 C1588 1.367 . S
C1589 C1591 1.433 . S
C1590 C1586 1.350 . S
C1590 C1587 1.463 . S
C1590 N1594 1.427 . S
C1591 H1581 0.929 . S
C1591 C1589 1.433 . S
C1591 N1594 1.384 . S
C1592 H1583 0.929 . S
C1592 C1584 1.378 . S
C1592 C1587 1.350 . S
C1593 H1580 0.929 . S
C1593 C1585 1.433 . S
C1593 N1595 1.384 . S
N1594 C1590 1.427 . S
N1594 C1591 1.384 . S
N1595 C1587 1.427 . S
N1595 C1593 1.384 . S
H1596 C1602 0.930 . S
H1597 C1606 0.930 . S
H1598 C1611 0.929 . S
H1599 C1609 0.929 . S
H1600 C1604 0.929 . S
H1601 C1610 0.929 . S
C1602 H1596 0.930 . S
C1602 C1603 1.367 . S
C1602 C1610 1.378 . S
C1603 C1602 1.367 . S
C1603 C1611 1.433 . S
C1604 H1600 0.929 . S
C1604 C1606 1.378 . S
C1604 C1608 1.350 . S
C1605 C1608 1.463 . S
C1605 C1610 1.350 . S
C1605 N1613 1.427 . S
C1606 H1597 0.930 . S
C1606 C1604 1.378 . S
C1606 C1607 1.367 . S
C1607 C1606 1.367 . S
C1607 C1609 1.433 . S
C1608 C1604 1.350 . S
C1608 C1605 1.463 . S
C1608 N1612 1.427 . S
C1609 H1599 0.929 . S
C1609 C1607 1.433 . S
C1609 N1612 1.384 . S
C1610 H1601 0.929 . S
C1610 C1602 1.378 . S
C1610 C1605 1.350 . S
C1611 H1598 0.929 . S
C1611 C1603 1.433 . S
C1611 N1613 1.384 . S
N1612 C1608 1.427 . S
N1612 C1609 1.384 . S
N1613 C1605 1.427 . S
N1613 C1611 1.384 . S
H1614 C1620 0.930 . S
H1615 C1624 0.930 . S
H1616 C1629 0.929 . S
H1617 C1627 0.929 . S
H1618 C1622 0.929 . S
H1619 C1628 0.929 . S
C1620 H1614 0.930 . S
C1620 C1621 1.367 . S
C1620 C1628 1.378 . S
C1621 C1620 1.367 . S
C1621 C1629 1.433 . S
C1622 H1618 0.929 . S
C1622 C1624 1.378 . S
C1622 C1626 1.350 . S
C1623 C1626 1.463 . S
C1623 C1628 1.350 . S
C1623 N1631 1.427 . S
C1624 H1615 0.930 . S
C1624 C1622 1.378 . S
C1624 C1625 1.367 . S
C1625 C1624 1.367 . S
C1625 C1627 1.433 . S
C1626 C1622 1.350 . S
C1626 C1623 1.463 . S
C1626 N1630 1.427 . S
C1627 H1617 0.929 . S
C1627 C1625 1.433 . S
C1627 N1630 1.384 . S
C1628 H1619 0.929 . S
C1628 C1620 1.378 . S
C1628 C1623 1.350 . S
C1629 H1616 0.929 . S
C1629 C1621 1.433 . S
C1629 N1631 1.384 . S
N1630 C1626 1.427 . S
N1630 C1627 1.384 . S
N1631 C1623 1.427 . S
N1631 C1629 1.384 . S
H1632 C1638 0.930 1_556 S
H1633 C1642 0.930 . S
H1634 C1647 0.929 . S
H1635 C1645 0.929 1_556 S
H1636 C1640 0.929 . S
H1637 C1646 0.929 1_556 S
C1638 H1632 0.930 1_554 S
C1638 C1639 1.367 . S
C1638 C1646 1.378 . S
C1639 C1638 1.367 . S
C1639 C1647 1.433 . S
C1640 H1636 0.929 . S
C1640 C1642 1.378 . S
C1640 C1644 1.350 . S
C1641 C1644 1.463 . S
C1641 C1646 1.350 . S
C1641 N1649 1.427 . S
C1642 H1633 0.930 . S
C1642 C1640 1.378 . S
C1642 C1643 1.367 . S
C1643 C1642 1.367 . S
C1643 C1645 1.433 . S
C1644 C1640 1.350 . S
C1644 C1641 1.463 . S
C1644 N1648 1.427 . S
C1645 H1635 0.929 1_554 S
C1645 C1643 1.433 . S
C1645 N1648 1.384 . S
C1646 H1637 0.929 1_554 S
C1646 C1638 1.378 . S
C1646 C1641 1.350 . S
C1647 H1634 0.929 . S
C1647 C1639 1.433 . S
C1647 N1649 1.384 . S
N1648 C1644 1.427 . S
N1648 C1645 1.384 . S
N1649 C1641 1.427 . S
N1649 C1647 1.384 . S
H1650 C1656 0.930 . S
H1651 C1660 0.930 . S
H1652 C1665 0.929 . S
H1653 C1663 0.929 . S
H1654 C1658 0.929 . S
H1655 C1664 0.929 . S
C1656 H1650 0.930 . S
C1656 C1657 1.367 . S
C1656 C1664 1.378 . S
C1657 C1656 1.367 . S
C1657 C1665 1.433 . S
C1658 H1654 0.929 . S
C1658 C1660 1.378 . S
C1658 C1662 1.350 . S
C1659 C1662 1.463 . S
C1659 C1664 1.350 . S
C1659 N1667 1.427 . S
C1660 H1651 0.930 . S
C1660 C1658 1.378 . S
C1660 C1661 1.367 . S
C1661 C1660 1.367 . S
C1661 C1663 1.433 . S
C1662 C1658 1.350 . S
C1662 C1659 1.463 . S
C1662 N1666 1.427 . S
C1663 H1653 0.929 . S
C1663 C1661 1.433 . S
C1663 N1666 1.384 . S
C1664 H1655 0.929 . S
C1664 C1656 1.378 . S
C1664 C1659 1.350 . S
C1665 H1652 0.929 . S
C1665 C1657 1.433 . S
C1665 N1667 1.384 . S
N1666 C1662 1.427 . S
N1666 C1663 1.384 . S
N1667 C1659 1.427 . S
N1667 C1665 1.384 . S
H1668 C1674 0.930 1_556 S
H1669 C1678 0.930 . S
H1670 C1683 0.929 . S
H1671 C1681 0.929 1_556 S
H1672 C1676 0.929 . S
H1673 C1682 0.929 1_556 S
C1674 H1668 0.930 1_554 S
C1674 C1675 1.367 . S
C1674 C1682 1.378 . S
C1675 C1674 1.367 . S
C1675 C1683 1.433 . S
C1676 H1672 0.929 . S
C1676 C1678 1.378 . S
C1676 C1680 1.350 . S
C1677 C1680 1.463 . S
C1677 C1682 1.350 . S
C1677 N1685 1.427 . S
C1678 H1669 0.930 . S
C1678 C1676 1.378 . S
C1678 C1679 1.367 . S
C1679 C1678 1.367 . S
C1679 C1681 1.433 . S
C1680 C1676 1.350 . S
C1680 C1677 1.463 . S
C1680 N1684 1.427 . S
C1681 H1671 0.929 1_554 S
C1681 C1679 1.433 . S
C1681 N1684 1.384 . S
C1682 H1673 0.929 1_554 S
C1682 C1674 1.378 . S
C1682 C1677 1.350 . S
C1683 H1670 0.929 . S
C1683 C1675 1.433 . S
C1683 N1685 1.384 . S
N1684 C1680 1.427 . S
N1684 C1681 1.384 . S
N1685 C1677 1.427 . S
N1685 C1683 1.384 . S
H1686 C1692 0.930 . S
H1687 C1696 0.930 . S
H1688 C1701 0.929 . S
H1689 C1699 0.929 . S
H1690 C1694 0.929 . S
H1691 C1700 0.929 . S
C1692 H1686 0.930 . S
C1692 C1693 1.367 . S
C1692 C1700 1.378 . S
C1693 C1692 1.367 . S
C1693 C1701 1.433 . S
C1694 H1690 0.929 . S
C1694 C1696 1.378 . S
C1694 C1698 1.350 . S
C1695 C1698 1.463 . S
C1695 C1700 1.350 . S
C1695 N1703 1.427 . S
C1696 H1687 0.930 . S
C1696 C1694 1.378 . S
C1696 C1697 1.367 . S
C1697 C1696 1.367 . S
C1697 C1699 1.433 . S
C1698 C1694 1.350 . S
C1698 C1695 1.463 . S
C1698 N1702 1.427 . S
C1699 H1689 0.929 . S
C1699 C1697 1.433 . S
C1699 N1702 1.384 . S
C1700 H1691 0.929 . S
C1700 C1692 1.378 . S
C1700 C1695 1.350 . S
C1701 H1688 0.929 . S
C1701 C1693 1.433 . S
C1701 N1703 1.384 . S
N1702 C1698 1.427 . S
N1702 C1699 1.384 . S
N1703 C1695 1.427 . S
N1703 C1701 1.384 . S
H1704 C1710 0.930 . S
H1705 C1714 0.930 . S
H1706 C1719 0.929 . S
H1707 C1717 0.929 . S
H1708 C1712 0.929 . S
H1709 C1718 0.929 . S
C1710 H1704 0.930 . S
C1710 C1711 1.367 . S
C1710 C1718 1.378 . S
C1711 C1710 1.367 . S
C1711 C1719 1.433 . S
C1712 H1708 0.929 . S
C1712 C1714 1.378 . S
C1712 C1716 1.350 . S
C1713 C1716 1.463 . S
C1713 C1718 1.350 . S
C1713 N1721 1.427 . S
C1714 H1705 0.930 . S
C1714 C1712 1.378 . S
C1714 C1715 1.367 . S
C1715 C1714 1.367 . S
C1715 C1717 1.433 . S
C1716 C1712 1.350 . S
C1716 C1713 1.463 . S
C1716 N1720 1.427 . S
C1717 H1707 0.929 . S
C1717 C1715 1.433 . S
C1717 N1720 1.384 . S
C1718 H1709 0.929 . S
C1718 C1710 1.378 . S
C1718 C1713 1.350 . S
C1719 H1706 0.929 . S
C1719 C1711 1.433 . S
C1719 N1721 1.384 . S
N1720 C1716 1.427 . S
N1720 C1717 1.384 . S
N1721 C1713 1.427 . S
N1721 C1719 1.384 . S
H1722 C1728 0.930 . S
H1723 C1732 0.930 . S
H1724 C1737 0.929 . S
H1725 C1735 0.929 . S
H1726 C1730 0.929 . S
H1727 C1736 0.929 . S
C1728 H1722 0.930 . S
C1728 C1729 1.367 . S
C1728 C1736 1.378 . S
C1729 C1728 1.367 . S
C1729 C1737 1.433 . S
C1730 H1726 0.929 . S
C1730 C1732 1.378 . S
C1730 C1734 1.350 . S
C1731 C1734 1.463 . S
C1731 C1736 1.350 . S
C1731 N1739 1.427 . S
C1732 H1723 0.930 . S
C1732 C1730 1.378 . S
C1732 C1733 1.367 . S
C1733 C1732 1.367 . S
C1733 C1735 1.433 . S
C1734 C1730 1.350 . S
C1734 C1731 1.463 . S
C1734 N1738 1.427 . S
C1735 H1725 0.929 . S
C1735 C1733 1.433 . S
C1735 N1738 1.384 . S
C1736 H1727 0.929 . S
C1736 C1728 1.378 . S
C1736 C1731 1.350 . S
C1737 H1724 0.929 . S
C1737 C1729 1.433 . S
C1737 N1739 1.384 . S
N1738 C1734 1.427 . S
N1738 C1735 1.384 . S
N1739 C1731 1.427 . S
N1739 C1737 1.384 . S
H1740 C1746 0.930 . S
H1741 C1750 0.930 . S
H1742 C1755 0.929 . S
H1743 C1753 0.929 . S
H1744 C1748 0.929 . S
H1745 C1754 0.929 . S
C1746 H1740 0.930 . S
C1746 C1747 1.367 . S
C1746 C1754 1.378 . S
C1747 C1746 1.367 . S
C1747 C1755 1.433 . S
C1748 H1744 0.929 . S
C1748 C1750 1.378 . S
C1748 C1752 1.350 . S
C1749 C1752 1.463 . S
C1749 C1754 1.350 . S
C1749 N1757 1.427 . S
C1750 H1741 0.930 . S
C1750 C1748 1.378 . S
C1750 C1751 1.367 . S
C1751 C1750 1.367 . S
C1751 C1753 1.433 . S
C1752 C1748 1.350 . S
C1752 C1749 1.463 . S
C1752 N1756 1.427 . S
C1753 H1743 0.929 . S
C1753 C1751 1.433 . S
C1753 N1756 1.384 . S
C1754 H1745 0.929 . S
C1754 C1746 1.378 . S
C1754 C1749 1.350 . S
C1755 H1742 0.929 . S
C1755 C1747 1.433 . S
C1755 N1757 1.384 . S
N1756 C1752 1.427 . S
N1756 C1753 1.384 . S
N1757 C1749 1.427 . S
N1757 C1755 1.384 . S
H1758 C1764 0.930 . S
H1759 C1768 0.930 . S
H1760 C1773 0.929 . S
H1761 C1771 0.929 . S
H1762 C1766 0.929 . S
H1763 C1772 0.929 . S
C1764 H1758 0.930 . S
C1764 C1765 1.367 . S
C1764 C1772 1.378 . S
C1765 C1764 1.367 . S
C1765 C1773 1.433 . S
C1766 H1762 0.929 . S
C1766 C1768 1.378 . S
C1766 C1770 1.350 . S
C1767 C1770 1.463 . S
C1767 C1772 1.350 . S
C1767 N1775 1.427 . S
C1768 H1759 0.930 . S
C1768 C1766 1.378 . S
C1768 C1769 1.367 . S
C1769 C1768 1.367 . S
C1769 C1771 1.433 . S
C1770 C1766 1.350 . S
C1770 C1767 1.463 . S
C1770 N1774 1.427 . S
C1771 H1761 0.929 . S
C1771 C1769 1.433 . S
C1771 N1774 1.384 . S
C1772 H1763 0.929 . S
C1772 C1764 1.378 . S
C1772 C1767 1.350 . S
C1773 H1760 0.929 . S
C1773 C1765 1.433 . S
C1773 N1775 1.384 . S
N1774 C1770 1.427 . S
N1774 C1771 1.384 . S
N1775 C1767 1.427 . S
N1775 C1773 1.384 . S
H1776 C1782 0.930 . S
H1777 C1786 0.930 . S
H1778 C1791 0.929 . S
H1779 C1789 0.929 . S
H1780 C1784 0.929 . S
H1781 C1790 0.929 . S
C1782 H1776 0.930 . S
C1782 C1783 1.367 . S
C1782 C1790 1.378 . S
C1783 C1782 1.367 . S
C1783 C1791 1.433 . S
C1784 H1780 0.929 . S
C1784 C1786 1.378 . S
C1784 C1788 1.350 . S
C1785 C1788 1.463 . S
C1785 C1790 1.350 . S
C1785 N1793 1.427 . S
C1786 H1777 0.930 . S
C1786 C1784 1.378 . S
C1786 C1787 1.367 . S
C1787 C1786 1.367 . S
C1787 C1789 1.433 . S
C1788 C1784 1.350 . S
C1788 C1785 1.463 . S
C1788 N1792 1.427 . S
C1789 H1779 0.929 . S
C1789 C1787 1.433 . S
C1789 N1792 1.384 . S
C1790 H1781 0.929 . S
C1790 C1782 1.378 . S
C1790 C1785 1.350 . S
C1791 H1778 0.929 . S
C1791 C1783 1.433 . S
C1791 N1793 1.384 . S
N1792 C1788 1.427 . S
N1792 C1789 1.384 . S
N1793 C1785 1.427 . S
N1793 C1791 1.384 . S
H1794 C1800 0.930 . S
H1795 C1804 0.930 . S
H1796 C1809 0.929 . S
H1797 C1807 0.929 . S
H1798 C1802 0.929 . S
H1799 C1808 0.929 . S
C1800 H1794 0.930 . S
C1800 C1801 1.367 . S
C1800 C1808 1.378 . S
C1801 C1800 1.367 . S
C1801 C1809 1.433 . S
C1802 H1798 0.929 . S
C1802 C1804 1.378 . S
C1802 C1806 1.350 . S
C1803 C1806 1.463 . S
C1803 C1808 1.350 . S
C1803 N1811 1.427 . S
C1804 H1795 0.930 . S
C1804 C1802 1.378 . S
C1804 C1805 1.367 . S
C1805 C1804 1.367 . S
C1805 C1807 1.433 . S
C1806 C1802 1.350 . S
C1806 C1803 1.463 . S
C1806 N1810 1.427 . S
C1807 H1797 0.929 . S
C1807 C1805 1.433 . S
C1807 N1810 1.384 . S
C1808 H1799 0.929 . S
C1808 C1800 1.378 . S
C1808 C1803 1.350 . S
C1809 H1796 0.929 . S
C1809 C1801 1.433 . S
C1809 N1811 1.384 . S
N1810 C1806 1.427 . S
N1810 C1807 1.384 . S
N1811 C1803 1.427 . S
N1811 C1809 1.384 . S
H1812 C1818 0.930 . S
H1813 C1822 0.930 . S
H1814 C1827 0.929 . S
H1815 C1825 0.942 . S
H1816 C1820 0.929 . S
H1817 C1826 0.929 . S
C1818 H1812 0.930 . S
C1818 C1819 1.367 . S
C1818 C1826 1.378 . S
C1819 C1818 1.367 . S
C1819 C1827 1.433 . S
C1820 H1816 0.929 . S
C1820 C1822 1.378 . S
C1820 C1824 1.350 . S
C1821 C1824 1.463 . S
C1821 C1826 1.350 . S
C1821 N1829 1.427 . S
C1822 H1813 0.930 . S
C1822 C1820 1.378 . S
C1822 C1823 1.367 . S
C1823 C1822 1.367 . S
C1823 C1825 1.426 1_565 S
C1824 C1820 1.350 . S
C1824 C1821 1.463 . S
C1824 N1828 1.427 . S
C1825 H1815 0.942 . S
C1825 C1823 1.426 1_545 S
C1825 N1828 1.378 1_545 S
C1826 H1817 0.929 . S
C1826 C1818 1.378 . S
C1826 C1821 1.350 . S
C1827 H1814 0.929 . S
C1827 C1819 1.433 . S
C1827 N1829 1.384 . S
N1828 C1824 1.427 . S
N1828 C1825 1.378 1_565 S
N1829 C1821 1.427 . S
N1829 C1827 1.384 . S
H1830 C1836 0.930 . S
H1831 C1840 0.930 . S
H1832 C1845 0.929 . S
H1833 C1843 0.929 . S
H1834 C1838 0.928 1_545 S
H1835 C1844 0.929 . S
C1836 H1830 0.930 . S
C1836 C1837 1.367 . S
C1836 C1844 1.378 . S
C1837 C1836 1.367 . S
C1837 C1845 1.433 . S
C1838 H1834 0.928 1_565 S
C1838 C1840 1.378 1_565 S
C1838 C1842 1.350 . S
C1839 C1842 1.463 . S
C1839 C1844 1.350 . S
C1839 N1847 1.427 . S
C1840 H1831 0.930 . S
C1840 C1838 1.378 1_545 S
C1840 C1841 1.367 1_545 S
C1841 C1840 1.367 1_565 S
C1841 C1843 1.433 . S
C1842 C1838 1.350 . S
C1842 C1839 1.463 . S
C1842 N1846 1.427 . S
C1843 H1833 0.929 . S
C1843 C1841 1.433 . S
C1843 N1846 1.384 . S
C1844 H1835 0.929 . S
C1844 C1836 1.378 . S
C1844 C1839 1.350 . S
C1845 H1832 0.929 . S
C1845 C1837 1.433 . S
C1845 N1847 1.384 . S
N1846 C1842 1.427 . S
N1846 C1843 1.384 . S
N1847 C1839 1.427 . S
N1847 C1845 1.384 . S
H1848 C1854 0.930 . S
H1849 C1858 0.930 . S
H1850 C1863 0.929 . S
H1851 C1861 0.929 . S
H1852 C1856 0.929 . S
H1853 C1862 0.929 . S
C1854 H1848 0.930 . S
C1854 C1855 1.367 . S
C1854 C1862 1.378 . S
C1855 C1854 1.367 . S
C1855 C1863 1.433 1_554 S
C1856 H1852 0.929 . S
C1856 C1858 1.378 . S
C1856 C1860 1.350 1_556 S
C1857 C1860 1.463 . S
C1857 C1862 1.350 . S
C1857 N1865 1.427 1_554 S
C1858 H1849 0.930 . S
C1858 C1856 1.378 . S
C1858 C1859 1.367 1_556 S
C1859 C1858 1.367 1_554 S
C1859 C1861 1.433 . S
C1860 C1856 1.350 1_554 S
C1860 C1857 1.463 . S
C1860 N1864 1.427 . S
C1861 H1851 0.929 . S
C1861 C1859 1.433 . S
C1861 N1864 1.384 . S
C1862 H1853 0.929 . S
C1862 C1854 1.378 . S
C1862 C1857 1.350 . S
C1863 H1850 0.929 . S
C1863 C1855 1.433 1_556 S
C1863 N1865 1.384 . S
N1864 C1860 1.427 . S
N1864 C1861 1.384 . S
N1865 C1857 1.427 1_556 S
N1865 C1863 1.384 . S
H1866 C1872 0.930 . S
H1867 C1876 0.930 . S
H1868 C1881 0.929 . S
H1869 C1879 0.929 . S
H1870 C1874 0.929 . S
H1871 C1880 0.929 . S
C1872 H1866 0.930 . S
C1872 C1873 1.367 . S
C1872 C1880 1.378 . S
C1873 C1872 1.367 . S
C1873 C1881 1.433 . S
C1874 H1870 0.929 . S
C1874 C1876 1.378 . S
C1874 C1878 1.350 . S
C1875 C1878 1.463 . S
C1875 C1880 1.350 . S
C1875 N1883 1.427 . S
C1876 H1867 0.930 . S
C1876 C1874 1.378 . S
C1876 C1877 1.367 . S
C1877 C1876 1.367 . S
C1877 C1879 1.433 . S
C1878 C1874 1.350 . S
C1878 C1875 1.463 . S
C1878 N1882 1.427 . S
C1879 H1869 0.929 . S
C1879 C1877 1.433 . S
C1879 N1882 1.384 . S
C1880 H1871 0.929 . S
C1880 C1872 1.378 . S
C1880 C1875 1.350 . S
C1881 H1868 0.929 . S
C1881 C1873 1.433 . S
C1881 N1883 1.384 . S
N1882 C1878 1.427 . S
N1882 C1879 1.384 . S
N1883 C1875 1.427 . S
N1883 C1881 1.384 . S
H1884 C1890 0.930 1_556 S
H1885 C1894 0.930 . S
H1886 C1899 0.929 . S
H1887 C1897 0.929 1_556 S
H1888 C1892 0.929 . S
H1889 C1898 0.929 1_556 S
C1890 H1884 0.930 1_554 S
C1890 C1891 1.367 . S
C1890 C1898 1.378 . S
C1891 C1890 1.367 . S
C1891 C1899 1.433 . S
C1892 H1888 0.929 . S
C1892 C1894 1.378 . S
C1892 C1896 1.350 . S
C1893 C1896 1.463 . S
C1893 C1898 1.350 . S
C1893 N1901 1.427 . S
C1894 H1885 0.930 . S
C1894 C1892 1.378 . S
C1894 C1895 1.367 . S
C1895 C1894 1.367 . S
C1895 C1897 1.433 . S
C1896 C1892 1.350 . S
C1896 C1893 1.463 . S
C1896 N1900 1.427 . S
C1897 H1887 0.929 1_554 S
C1897 C1895 1.433 . S
C1897 N1900 1.384 . S
C1898 H1889 0.929 1_554 S
C1898 C1890 1.378 . S
C1898 C1893 1.350 . S
C1899 H1886 0.929 . S
C1899 C1891 1.433 . S
C1899 N1901 1.384 . S
N1900 C1896 1.427 . S
N1900 C1897 1.384 . S
N1901 C1893 1.427 . S
N1901 C1899 1.384 . S
H1902 C1908 0.930 . S
H1903 C1912 0.930 . S
H1904 C1917 0.929 . S
H1905 C1915 0.929 . S
H1906 C1910 0.929 . S
H1907 C1916 0.929 . S
C1908 H1902 0.930 . S
C1908 C1909 1.367 . S
C1908 C1916 1.378 . S
C1909 C1908 1.367 . S
C1909 C1917 1.433 . S
C1910 H1906 0.929 . S
C1910 C1912 1.378 . S
C1910 C1914 1.350 . S
C1911 C1914 1.463 . S
C1911 C1916 1.350 . S
C1911 N1919 1.427 . S
C1912 H1903 0.930 . S
C1912 C1910 1.378 . S
C1912 C1913 1.367 . S
C1913 C1912 1.367 . S
C1913 C1915 1.433 . S
C1914 C1910 1.350 . S
C1914 C1911 1.463 . S
C1914 N1918 1.427 . S
C1915 H1905 0.929 . S
C1915 C1913 1.433 . S
C1915 N1918 1.384 . S
C1916 H1907 0.929 . S
C1916 C1908 1.378 . S
C1916 C1911 1.350 . S
C1917 H1904 0.929 . S
C1917 C1909 1.433 . S
C1917 N1919 1.384 . S
N1918 C1914 1.427 . S
N1918 C1915 1.384 . S
N1919 C1911 1.427 . S
N1919 C1917 1.384 . S
H1920 C1926 0.930 . S
H1921 C1930 0.930 . S
H1922 C1935 0.929 . S
H1923 C1933 0.929 . S
H1924 C1928 0.938 . S
H1925 C1934 0.927 . S
C1926 H1920 0.930 . S
C1926 C1927 1.367 . S
C1926 C1934 1.379 1_455 S
C1927 C1926 1.367 . S
C1927 C1935 1.433 . S
C1928 H1924 0.938 . S
C1928 C1930 1.371 1_455 S
C1928 C1932 1.347 1_455 S
C1929 C1932 1.463 1_455 S
C1929 C1934 1.350 1_455 S
C1929 N1937 1.427 . S
C1930 H1921 0.930 . S
C1930 C1928 1.371 1_655 S
C1930 C1931 1.367 . S
C1931 C1930 1.367 . S
C1931 C1933 1.433 . S
C1932 C1928 1.347 1_655 S
C1932 C1929 1.463 1_655 S
C1932 N1936 1.427 . S
C1933 H1923 0.929 . S
C1933 C1931 1.433 . S
C1933 N1936 1.384 . S
C1934 H1925 0.927 . S
C1934 C1926 1.379 1_655 S
C1934 C1929 1.350 1_655 S
C1935 H1922 0.929 . S
C1935 C1927 1.433 . S
C1935 N1937 1.384 . S
N1936 C1932 1.427 . S
N1936 C1933 1.384 . S
N1937 C1929 1.427 . S
N1937 C1935 1.384 . S
H1938 C1944 0.930 . S
H1939 C1948 0.930 . S
H1940 C1953 0.929 . S
H1941 C1951 0.929 . S
H1942 C1946 0.929 . S
H1943 C1952 0.929 . S
C1944 H1938 0.930 . S
C1944 C1945 1.367 . S
C1944 C1952 1.378 . S
C1945 C1944 1.367 . S
C1945 C1953 1.433 . S
C1946 H1942 0.929 . S
C1946 C1948 1.378 . S
C1946 C1950 1.350 . S
C1947 C1950 1.463 . S
C1947 C1952 1.350 . S
C1947 N1955 1.427 . S
C1948 H1939 0.930 . S
C1948 C1946 1.378 . S
C1948 C1949 1.367 . S
C1949 C1948 1.367 . S
C1949 C1951 1.433 . S
C1950 C1946 1.350 . S
C1950 C1947 1.463 . S
C1950 N1954 1.427 . S
C1951 H1941 0.929 . S
C1951 C1949 1.433 . S
C1951 N1954 1.384 . S
C1952 H1943 0.929 . S
C1952 C1944 1.378 . S
C1952 C1947 1.350 . S
C1953 H1940 0.929 . S
C1953 C1945 1.433 . S
C1953 N1955 1.384 . S
N1954 C1950 1.427 . S
N1954 C1951 1.384 . S
N1955 C1947 1.427 . S
N1955 C1953 1.384 . S
H1956 C1962 0.930 . S
H1957 C1966 0.930 . S
H1958 C1971 0.929 . S
H1959 C1969 0.929 . S
H1960 C1964 0.929 . S
H1961 C1970 0.929 . S
C1962 H1956 0.930 . S
C1962 C1963 1.367 . S
C1962 C1970 1.378 . S
C1963 C1962 1.367 . S
C1963 C1971 1.433 . S
C1964 H1960 0.929 . S
C1964 C1966 1.378 . S
C1964 C1968 1.350 . S
C1965 C1968 1.463 1_455 S
C1965 C1970 1.350 . S
C1965 N1973 1.427 . S
C1966 H1957 0.930 . S
C1966 C1964 1.378 . S
C1966 C1967 1.367 . S
C1967 C1966 1.367 . S
C1967 C1969 1.433 . S
C1968 C1964 1.350 . S
C1968 C1965 1.463 1_655 S
C1968 N1972 1.427 . S
C1969 H1959 0.929 . S
C1969 C1967 1.433 . S
C1969 N1972 1.384 . S
C1970 H1961 0.929 . S
C1970 C1962 1.378 . S
C1970 C1965 1.350 . S
C1971 H1958 0.929 . S
C1971 C1963 1.433 . S
C1971 N1973 1.384 . S
N1972 C1968 1.427 . S
N1972 C1969 1.384 . S
N1973 C1965 1.427 . S
N1973 C1971 1.384 . S
H1974 C1980 0.930 . S
H1975 C1984 0.930 . S
H1976 C1989 0.929 . S
H1977 C1987 0.929 . S
H1978 C1982 0.929 . S
H1979 C1988 0.929 . S
C1980 H1974 0.930 . S
C1980 C1981 1.367 . S
C1980 C1988 1.378 . S
C1981 C1980 1.367 . S
C1981 C1989 1.433 . S
C1982 H1978 0.929 . S
C1982 C1984 1.378 . S
C1982 C1986 1.350 . S
C1983 C1986 1.463 . S
C1983 C1988 1.350 . S
C1983 N1991 1.427 . S
C1984 H1975 0.930 . S
C1984 C1982 1.378 . S
C1984 C1985 1.367 . S
C1985 C1984 1.367 . S
C1985 C1987 1.433 . S
C1986 C1982 1.350 . S
C1986 C1983 1.463 . S
C1986 N1990 1.427 . S
C1987 H1977 0.929 . S
C1987 C1985 1.433 . S
C1987 N1990 1.384 . S
C1988 H1979 0.929 . S
C1988 C1980 1.378 . S
C1988 C1983 1.350 . S
C1989 H1976 0.929 . S
C1989 C1981 1.433 . S
C1989 N1991 1.384 . S
N1990 C1986 1.427 . S
N1990 C1987 1.384 . S
N1991 C1983 1.427 . S
N1991 C1989 1.384 . S
H1992 C1998 0.930 . S
H1993 C2002 0.930 . S
H1994 C2007 0.929 . S
H1995 C2005 0.929 . S
H1996 C2000 0.929 . S
H1997 C2006 0.929 . S
C1998 H1992 0.930 . S
C1998 C1999 1.367 . S
C1998 C2006 1.378 . S
C1999 C1998 1.367 . S
C1999 C2007 1.433 1_554 S
C2000 H1996 0.929 . S
C2000 C2002 1.378 . S
C2000 C2004 1.350 1_556 S
C2001 C2004 1.463 . S
C2001 C2006 1.350 . S
C2001 N2009 1.427 1_554 S
C2002 H1993 0.930 . S
C2002 C2000 1.378 . S
C2002 C2003 1.367 1_556 S
C2003 C2002 1.367 1_554 S
C2003 C2005 1.433 . S
C2004 C2000 1.350 1_554 S
C2004 C2001 1.463 . S
C2004 N2008 1.427 . S
C2005 H1995 0.929 . S
C2005 C2003 1.433 . S
C2005 N2008 1.384 . S
C2006 H1997 0.929 . S
C2006 C1998 1.378 . S
C2006 C2001 1.350 . S
C2007 H1994 0.929 . S
C2007 C1999 1.433 1_556 S
C2007 N2009 1.384 . S
N2008 C2004 1.427 . S
N2008 C2005 1.384 . S
N2009 C2001 1.427 1_556 S
N2009 C2007 1.384 . S
H2010 C2016 0.930 . S
H2011 C2020 0.930 . S
H2012 C2025 0.929 . S
H2013 C2023 0.929 . S
H2014 C2018 0.929 . S
H2015 C2024 0.929 . S
C2016 H2010 0.930 . S
C2016 C2017 1.367 . S
C2016 C2024 1.378 . S
C2017 C2016 1.367 . S
C2017 C2025 1.433 . S
C2018 H2014 0.929 . S
C2018 C2020 1.378 . S
C2018 C2022 1.350 . S
C2019 C2022 1.463 1_655 S
C2019 C2024 1.350 . S
C2019 N2027 1.427 . S
C2020 H2011 0.930 . S
C2020 C2018 1.378 . S
C2020 C2021 1.367 . S
C2021 C2020 1.367 . S
C2021 C2023 1.433 . S
C2022 C2018 1.350 . S
C2022 C2019 1.463 1_455 S
C2022 N2026 1.427 . S
C2023 H2013 0.929 . S
C2023 C2021 1.433 . S
C2023 N2026 1.384 . S
C2024 H2015 0.929 . S
C2024 C2016 1.378 . S
C2024 C2019 1.350 . S
C2025 H2012 0.929 . S
C2025 C2017 1.433 . S
C2025 N2027 1.384 . S
N2026 C2022 1.427 . S
N2026 C2023 1.384 . S
N2027 C2019 1.427 . S
N2027 C2025 1.384 . S
H2028 C2034 0.930 . S
H2029 C2038 0.930 . S
H2030 C2043 0.929 . S
H2031 C2041 0.929 . S
H2032 C2036 0.929 . S
H2033 C2042 0.929 . S
C2034 H2028 0.930 . S
C2034 C2035 1.367 . S
C2034 C2042 1.378 . S
C2035 C2034 1.367 . S
C2035 C2043 1.433 . S
C2036 H2032 0.929 . S
C2036 C2038 1.378 . S
C2036 C2040 1.350 . S
C2037 C2040 1.463 . S
C2037 C2042 1.350 . S
C2037 N2045 1.427 . S
C2038 H2029 0.930 . S
C2038 C2036 1.378 . S
C2038 C2039 1.367 . S
C2039 C2038 1.367 . S
C2039 C2041 1.433 . S
C2040 C2036 1.350 . S
C2040 C2037 1.463 . S
C2040 N2044 1.427 . S
C2041 H2031 0.929 . S
C2041 C2039 1.433 . S
C2041 N2044 1.384 . S
C2042 H2033 0.929 . S
C2042 C2034 1.378 . S
C2042 C2037 1.350 . S
C2043 H2030 0.929 . S
C2043 C2035 1.433 . S
C2043 N2045 1.384 . S
N2044 C2040 1.427 . S
N2044 C2041 1.384 . S
N2045 C2037 1.427 . S
N2045 C2043 1.384 . S
H2046 C2052 0.930 . S
H2047 C2056 0.930 . S
H2048 C2061 0.929 . S
H2049 C2059 0.929 . S
H2050 C2054 0.929 . S
H2051 C2060 0.929 . S
C2052 H2046 0.930 . S
C2052 C2053 1.367 . S
C2052 C2060 1.378 . S
C2053 C2052 1.367 . S
C2053 C2061 1.433 . S
C2054 H2050 0.929 . S
C2054 C2056 1.378 1_545 S
C2054 C2058 1.350 . S
C2055 C2058 1.463 1_655 S
C2055 C2060 1.350 . S
C2055 N2063 1.453 . S
C2056 H2047 0.930 . S
C2056 C2054 1.378 1_565 S
C2056 C2057 1.367 . S
C2057 C2056 1.367 . S
C2057 C2059 1.433 . S
C2058 C2054 1.350 . S
C2058 C2055 1.463 1_455 S
C2058 N2062 1.457 1_545 S
C2059 H2049 0.929 . S
C2059 C2057 1.433 . S
C2059 N2062 1.445 . S
C2060 H2051 0.929 . S
C2060 C2052 1.378 . S
C2060 C2055 1.350 . S
C2061 H2048 0.929 . S
C2061 C2053 1.433 . S
C2061 N2063 1.437 . S
N2062 C2058 1.457 1_565 S
N2062 C2059 1.445 . S
N2063 C2055 1.453 . S
N2063 C2061 1.437 . S
H2064 C2070 0.930 . S
H2065 C2074 0.930 . S
H2066 C2079 0.929 . S
H2067 C2077 0.929 . S
H2068 C2072 0.929 . S
H2069 C2078 0.929 . S
C2070 H2064 0.930 . S
C2070 C2071 1.367 . S
C2070 C2078 1.378 . S
C2071 C2070 1.367 . S
C2071 C2079 1.433 . S
C2072 H2068 0.929 . S
C2072 C2074 1.378 . S
C2072 C2076 1.350 . S
C2073 C2076 1.463 . S
C2073 C2078 1.350 . S
C2073 N2081 1.427 . S
C2074 H2065 0.930 . S
C2074 C2072 1.378 . S
C2074 C2075 1.367 . S
C2075 C2074 1.367 . S
C2075 C2077 1.433 . S
C2076 C2072 1.350 . S
C2076 C2073 1.463 . S
C2076 N2080 1.427 . S
C2077 H2067 0.929 . S
C2077 C2075 1.433 . S
C2077 N2080 1.384 . S
C2078 H2069 0.929 . S
C2078 C2070 1.378 . S
C2078 C2073 1.350 . S
C2079 H2066 0.929 . S
C2079 C2071 1.433 . S
C2079 N2081 1.384 . S
N2080 C2076 1.427 . S
N2080 C2077 1.384 . S
N2081 C2073 1.427 . S
N2081 C2079 1.384 . S
H2082 C2088 0.930 . S
H2083 C2092 0.930 . S
H2084 C2097 0.929 . S
H2085 C2095 0.929 . S
H2086 C2090 0.929 1_545 S
H2087 C2096 0.929 . S
C2088 H2082 0.930 . S
C2088 C2089 1.367 . S
C2088 C2096 1.378 . S
C2089 C2088 1.367 . S
C2089 C2097 1.433 . S
C2090 H2086 0.929 1_565 S
C2090 C2092 1.378 . S
C2090 C2094 1.350 1_565 S
C2091 C2094 1.463 . S
C2091 C2096 1.350 . S
C2091 N2099 1.427 . S
C2092 H2083 0.930 . S
C2092 C2090 1.378 . S
C2092 C2093 1.367 . S
C2093 C2092 1.367 . S
C2093 C2095 1.433 . S
C2094 C2090 1.350 1_545 S
C2094 C2091 1.463 . S
C2094 N2098 1.427 1_545 S
C2095 H2085 0.929 . S
C2095 C2093 1.433 . S
C2095 N2098 1.384 . S
C2096 H2087 0.929 . S
C2096 C2088 1.378 . S
C2096 C2091 1.350 . S
C2097 H2084 0.929 . S
C2097 C2089 1.433 . S
C2097 N2099 1.384 . S
N2098 C2094 1.427 1_565 S
N2098 C2095 1.384 . S
N2099 C2091 1.427 . S
N2099 C2097 1.384 . S
H2100 C2106 0.930 . S
H2101 C2110 0.930 . S
H2102 C2115 0.929 . S
H2103 C2113 0.929 . S
H2104 C2108 0.929 . S
H2105 C2114 0.929 . S
C2106 H2100 0.930 . S
C2106 C2107 1.367 . S
C2106 C2114 1.378 . S
C2107 C2106 1.367 . S
C2107 C2115 1.433 . S
C2108 H2104 0.929 . S
C2108 C2110 1.378 . S
C2108 C2112 1.350 . S
C2109 C2112 1.463 . S
C2109 C2114 1.350 . S
C2109 N2117 1.427 . S
C2110 H2101 0.930 . S
C2110 C2108 1.378 . S
C2110 C2111 1.367 . S
C2111 C2110 1.367 . S
C2111 C2113 1.433 . S
C2112 C2108 1.350 . S
C2112 C2109 1.463 . S
C2112 N2116 1.427 . S
C2113 H2103 0.929 . S
C2113 C2111 1.433 . S
C2113 N2116 1.384 . S
C2114 H2105 0.929 . S
C2114 C2106 1.378 . S
C2114 C2109 1.350 . S
C2115 H2102 0.929 . S
C2115 C2107 1.433 . S
C2115 N2117 1.384 . S
N2116 C2112 1.427 . S
N2116 C2113 1.384 . S
N2117 C2109 1.427 . S
N2117 C2115 1.384 . S
H2118 C2124 0.930 . S
H2119 C2128 0.930 . S
H2120 C2133 0.929 . S
H2121 C2131 0.929 . S
H2122 C2126 0.929 1_545 S
H2123 C2132 0.929 . S
C2124 H2118 0.930 . S
C2124 C2125 1.367 . S
C2124 C2132 1.378 . S
C2125 C2124 1.367 . S
C2125 C2133 1.433 . S
C2126 H2122 0.929 1_565 S
C2126 C2128 1.378 . S
C2126 C2130 1.350 1_565 S
C2127 C2130 1.463 . S
C2127 C2132 1.350 . S
C2127 N2135 1.427 . S
C2128 H2119 0.930 . S
C2128 C2126 1.378 . S
C2128 C2129 1.367 . S
C2129 C2128 1.367 . S
C2129 C2131 1.433 . S
C2130 C2126 1.350 1_545 S
C2130 C2127 1.463 . S
C2130 N2134 1.427 1_545 S
C2131 H2121 0.929 . S
C2131 C2129 1.433 . S
C2131 N2134 1.384 . S
C2132 H2123 0.929 . S
C2132 C2124 1.378 . S
C2132 C2127 1.350 . S
C2133 H2120 0.929 . S
C2133 C2125 1.433 . S
C2133 N2135 1.384 . S
N2134 C2130 1.427 1_565 S
N2134 C2131 1.384 . S
N2135 C2127 1.427 . S
N2135 C2133 1.384 . S
H2136 C2142 0.930 . S
H2137 C2146 0.930 . S
H2138 C2151 0.929 . S
H2139 C2149 0.929 . S
H2140 C2144 0.929 . S
H2141 C2150 0.929 . S
C2142 H2136 0.930 . S
C2142 C2143 1.367 . S
C2142 C2150 1.378 . S
C2143 C2142 1.367 . S
C2143 C2151 1.433 . S
C2144 H2140 0.929 . S
C2144 C2146 1.378 . S
C2144 C2148 1.350 . S
C2145 C2148 1.463 . S
C2145 C2150 1.350 . S
C2145 N2153 1.427 . S
C2146 H2137 0.930 . S
C2146 C2144 1.378 . S
C2146 C2147 1.367 . S
C2147 C2146 1.367 . S
C2147 C2149 1.433 . S
C2148 C2144 1.350 . S
C2148 C2145 1.463 . S
C2148 N2152 1.427 . S
C2149 H2139 0.929 . S
C2149 C2147 1.433 . S
C2149 N2152 1.384 . S
C2150 H2141 0.929 . S
C2150 C2142 1.378 . S
C2150 C2145 1.350 . S
C2151 H2138 0.929 . S
C2151 C2143 1.433 . S
C2151 N2153 1.384 . S
N2152 C2148 1.427 . S
N2152 C2149 1.384 . S
N2153 C2145 1.427 . S
N2153 C2151 1.384 . S
H2154 C2160 0.930 . S
H2155 C2164 0.930 . S
H2156 C2169 0.929 . S
H2157 C2167 0.929 . S
H2158 C2162 0.929 . S
H2159 C2168 0.929 . S
C2160 H2154 0.930 . S
C2160 C2161 1.367 . S
C2160 C2168 1.378 . S
C2161 C2160 1.367 . S
C2161 C2169 1.433 . S
C2162 H2158 0.929 . S
C2162 C2164 1.378 . S
C2162 C2166 1.350 . S
C2163 C2166 1.463 . S
C2163 C2168 1.350 . S
C2163 N2171 1.427 . S
C2164 H2155 0.930 . S
C2164 C2162 1.378 . S
C2164 C2165 1.367 . S
C2165 C2164 1.367 . S
C2165 C2167 1.433 . S
C2166 C2162 1.350 . S
C2166 C2163 1.463 . S
C2166 N2170 1.427 . S
C2167 H2157 0.929 . S
C2167 C2165 1.433 . S
C2167 N2170 1.384 . S
C2168 H2159 0.929 . S
C2168 C2160 1.378 . S
C2168 C2163 1.350 . S
C2169 H2156 0.929 . S
C2169 C2161 1.433 . S
C2169 N2171 1.384 . S
N2170 C2166 1.427 . S
N2170 C2167 1.384 . S
N2171 C2163 1.427 . S
N2171 C2169 1.384 . S
H2172 C2178 0.930 . S
H2173 C2182 0.930 . S
H2174 C2187 0.929 . S
H2175 C2185 0.929 . S
H2176 C2180 0.929 . S
H2177 C2186 0.929 . S
C2178 H2172 0.930 . S
C2178 C2179 1.367 . S
C2178 C2186 1.378 . S
C2179 C2178 1.367 . S
C2179 C2187 1.433 . S
C2180 H2176 0.929 . S
C2180 C2182 1.378 . S
C2180 C2184 1.350 . S
C2181 C2184 1.463 . S
C2181 C2186 1.350 . S
C2181 N2189 1.427 . S
C2182 H2173 0.930 . S
C2182 C2180 1.378 . S
C2182 C2183 1.367 . S
C2183 C2182 1.367 . S
C2183 C2185 1.433 . S
C2184 C2180 1.350 . S
C2184 C2181 1.463 . S
C2184 N2188 1.427 . S
C2185 H2175 0.929 . S
C2185 C2183 1.433 . S
C2185 N2188 1.384 . S
C2186 H2177 0.929 . S
C2186 C2178 1.378 . S
C2186 C2181 1.350 . S
C2187 H2174 0.929 . S
C2187 C2179 1.433 . S
C2187 N2189 1.384 . S
N2188 C2184 1.427 . S
N2188 C2185 1.384 . S
N2189 C2181 1.427 . S
N2189 C2187 1.384 . S
H2190 C2196 0.930 . S
H2191 C2200 0.930 1_556 S
H2192 C2205 0.904 1_556 S
H2193 C2203 0.929 . S
H2194 C2198 0.929 1_546 S
H2195 C2204 0.929 . S
C2196 H2190 0.930 . S
C2196 C2197 1.367 . S
C2196 C2204 1.378 . S
C2197 C2196 1.367 . S
C2197 C2205 1.459 . S
C2198 H2194 0.929 1_564 S
C2198 C2200 1.378 . S
C2198 C2202 1.350 1_565 S
C2199 C2202 1.463 . S
C2199 C2204 1.350 . S
C2199 N2207 1.427 . S
C2200 H2191 0.930 1_554 S
C2200 C2198 1.378 . S
C2200 C2201 1.367 . S
C2201 C2200 1.367 . S
C2201 C2203 1.433 . S
C2202 C2198 1.350 1_545 S
C2202 C2199 1.463 . S
C2202 N2206 1.427 1_545 S
C2203 H2193 0.929 . S
C2203 C2201 1.433 . S
C2203 N2206 1.384 . S
C2204 H2195 0.929 . S
C2204 C2196 1.378 . S
C2204 C2199 1.350 . S
C2205 H2192 0.904 1_554 S
C2205 C2197 1.459 . S
C2205 N2207 1.384 . S
N2206 C2202 1.427 1_565 S
N2206 C2203 1.384 . S
N2207 C2199 1.427 . S
N2207 C2205 1.384 . S
H2208 C2214 0.930 . S
H2209 C2218 0.930 . S
H2210 C2223 0.929 . S
H2211 C2221 0.929 . S
H2212 C2216 0.972 . S
H2213 C2222 0.968 . S
C2214 H2208 0.930 . S
C2214 C2215 1.367 . S
C2214 C2222 1.352 1_655 S
C2215 C2214 1.367 . S
C2215 C2223 1.433 . S
C2216 H2212 0.972 . S
C2216 C2218 1.350 1_655 S
C2216 C2220 1.335 1_655 S
C2217 C2220 1.463 1_655 S
C2217 C2222 1.336 1_645 S
C2217 N2225 1.427 . S
C2218 H2209 0.930 . S
C2218 C2216 1.350 1_455 S
C2218 C2219 1.367 . S
C2219 C2218 1.367 . S
C2219 C2221 1.433 . S
C2220 C2216 1.335 1_455 S
C2220 C2217 1.463 1_455 S
C2220 N2224 1.427 . S
C2221 H2211 0.929 . S
C2221 C2219 1.433 . S
C2221 N2224 1.384 . S
C2222 H2213 0.968 . S
C2222 C2214 1.352 1_455 S
C2222 C2217 1.336 1_465 S
C2223 H2210 0.929 . S
C2223 C2215 1.433 . S
C2223 N2225 1.384 1_565 S
N2224 C2220 1.427 . S
N2224 C2221 1.384 . S
N2225 C2217 1.427 . S
N2225 C2223 1.384 1_545 S
H2226 C2232 0.930 . S
H2227 C2236 0.930 1_556 S
H2228 C2241 0.929 . S
H2229 C2239 0.929 . S
H2230 C2234 0.929 1_556 S
H2231 C2240 0.929 . S
C2232 H2226 0.930 . S
C2232 C2233 1.367 . S
C2232 C2240 1.378 . S
C2233 C2232 1.367 . S
C2233 C2241 1.433 1_554 S
C2234 H2230 0.929 1_554 S
C2234 C2236 1.378 . S
C2234 C2238 1.350 . S
C2235 C2238 1.463 . S
C2235 C2240 1.350 . S
C2235 N2243 1.427 1_554 S
C2236 H2227 0.930 1_554 S
C2236 C2234 1.378 . S
C2236 C2237 1.367 . S
C2237 C2236 1.367 . S
C2237 C2239 1.433 . S
C2238 C2234 1.350 . S
C2238 C2235 1.463 . S
C2238 N2242 1.427 . S
C2239 H2229 0.929 . S
C2239 C2237 1.433 . S
C2239 N2242 1.384 . S
C2240 H2231 0.929 . S
C2240 C2232 1.378 . S
C2240 C2235 1.350 . S
C2241 H2228 0.929 . S
C2241 C2233 1.433 1_556 S
C2241 N2243 1.384 . S
N2242 C2238 1.427 . S
N2242 C2239 1.384 . S
N2243 C2235 1.427 1_556 S
N2243 C2241 1.384 . S
H2244 C2250 0.930 . S
H2245 C2254 0.930 . S
H2246 C2259 0.929 . S
H2247 C2257 0.929 . S
H2248 C2252 0.929 . S
H2249 C2258 0.929 . S
C2250 H2244 0.930 . S
C2250 C2251 1.367 . S
C2250 C2258 1.378 . S
C2251 C2250 1.367 . S
C2251 C2259 1.433 . S
C2252 H2248 0.929 . S
C2252 C2254 1.378 . S
C2252 C2256 1.350 . S
C2253 C2256 1.463 1_655 S
C2253 C2258 1.350 . S
C2253 N2261 1.427 . S
C2254 H2245 0.930 . S
C2254 C2252 1.378 . S
C2254 C2255 1.367 . S
C2255 C2254 1.367 . S
C2255 C2257 1.433 . S
C2256 C2252 1.350 . S
C2256 C2253 1.463 1_455 S
C2256 N2260 1.427 . S
C2257 H2247 0.929 . S
C2257 C2255 1.433 . S
C2257 N2260 1.384 . S
C2258 H2249 0.929 . S
C2258 C2250 1.378 . S
C2258 C2253 1.350 . S
C2259 H2246 0.929 . S
C2259 C2251 1.433 . S
C2259 N2261 1.384 . S
N2260 C2256 1.427 . S
N2260 C2257 1.384 . S
N2261 C2253 1.427 . S
N2261 C2259 1.384 . S
H2262 C2268 0.930 . S
H2263 C2272 0.930 . S
H2264 C2277 0.929 . S
H2265 C2275 0.929 . S
H2266 C2270 0.929 . S
H2267 C2276 0.929 . S
C2268 H2262 0.930 . S
C2268 C2269 1.367 . S
C2268 C2276 1.378 . S
C2269 C2268 1.367 . S
C2269 C2277 1.433 . S
C2270 H2266 0.929 . S
C2270 C2272 1.378 1_545 S
C2270 C2274 1.350 . S
C2271 C2274 1.463 . S
C2271 C2276 1.350 . S
C2271 N2279 1.427 . S
C2272 H2263 0.930 . S
C2272 C2270 1.378 1_565 S
C2272 C2273 1.367 . S
C2273 C2272 1.367 . S
C2273 C2275 1.433 . S
C2274 C2270 1.350 . S
C2274 C2271 1.463 . S
C2274 N2278 1.427 1_545 S
C2275 H2265 0.929 . S
C2275 C2273 1.433 . S
C2275 N2278 1.384 . S
C2276 H2267 0.929 . S
C2276 C2268 1.378 . S
C2276 C2271 1.350 . S
C2277 H2264 0.929 . S
C2277 C2269 1.433 . S
C2277 N2279 1.384 . S
N2278 C2274 1.427 1_565 S
N2278 C2275 1.384 . S
N2279 C2271 1.427 . S
N2279 C2277 1.384 . S
H2280 C2286 0.930 . S
H2281 C2290 0.930 . S
H2282 C2295 0.929 . S
H2283 C2293 0.929 1_556 S
H2284 C2288 0.929 . S
H2285 C2294 0.929 . S
C2286 H2280 0.930 . S
C2286 C2287 1.367 1_556 S
C2286 C2294 1.378 . S
C2287 C2286 1.367 1_554 S
C2287 C2295 1.433 . S
C2288 H2284 0.929 . S
C2288 C2290 1.378 . S
C2288 C2292 1.350 . S
C2289 C2292 1.463 . S
C2289 C2294 1.350 1_554 S
C2289 N2297 1.427 . S
C2290 H2281 0.930 . S
C2290 C2288 1.378 . S
C2290 C2291 1.367 . S
C2291 C2290 1.367 . S
C2291 C2293 1.433 . S
C2292 C2288 1.350 . S
C2292 C2289 1.463 . S
C2292 N2296 1.427 . S
C2293 H2283 0.929 1_554 S
C2293 C2291 1.433 . S
C2293 N2296 1.384 . S
C2294 H2285 0.929 . S
C2294 C2286 1.378 . S
C2294 C2289 1.350 1_556 S
C2295 H2282 0.929 . S
C2295 C2287 1.433 . S
C2295 N2297 1.384 . S
N2296 C2292 1.427 . S
N2296 C2293 1.384 . S
N2297 C2289 1.427 . S
N2297 C2295 1.384 . S
H2298 C2304 0.930 . S
H2299 C2308 0.930 . S
H2300 C2313 0.929 . S
H2301 C2311 0.929 . S
H2302 C2306 0.929 . S
H2303 C2312 0.929 . S
C2304 H2298 0.930 . S
C2304 C2305 1.367 . S
C2304 C2312 1.378 . S
C2305 C2304 1.367 . S
C2305 C2313 1.433 . S
C2306 H2302 0.929 . S
C2306 C2308 1.378 . S
C2306 C2310 1.350 . S
C2307 C2310 1.463 1_655 S
C2307 C2312 1.350 . S
C2307 N2315 1.427 . S
C2308 H2299 0.930 . S
C2308 C2306 1.378 . S
C2308 C2309 1.367 . S
C2309 C2308 1.367 . S
C2309 C2311 1.433 . S
C2310 C2306 1.350 . S
C2310 C2307 1.463 1_455 S
C2310 N2314 1.427 . S
C2311 H2301 0.929 . S
C2311 C2309 1.433 . S
C2311 N2314 1.384 . S
C2312 H2303 0.929 . S
C2312 C2304 1.378 . S
C2312 C2307 1.350 . S
C2313 H2300 0.929 . S
C2313 C2305 1.433 . S
C2313 N2315 1.384 . S
N2314 C2310 1.427 . S
N2314 C2311 1.384 . S
N2315 C2307 1.427 . S
N2315 C2313 1.384 . S
H2316 C2322 0.930 . S
H2317 C2326 0.930 . S
H2318 C2331 0.929 . S
H2319 C2329 0.929 . S
H2320 C2324 0.929 . S
H2321 C2330 0.929 . S
C2322 H2316 0.930 . S
C2322 C2323 1.367 . S
C2322 C2330 1.378 . S
C2323 C2322 1.367 . S
C2323 C2331 1.433 . S
C2324 H2320 0.929 . S
C2324 C2326 1.378 . S
C2324 C2328 1.350 . S
C2325 C2328 1.463 . S
C2325 C2330 1.350 1_545 S
C2325 N2333 1.427 . S
C2326 H2317 0.930 . S
C2326 C2324 1.378 . S
C2326 C2327 1.367 . S
C2327 C2326 1.367 . S
C2327 C2329 1.433 . S
C2328 C2324 1.350 . S
C2328 C2325 1.463 . S
C2328 N2332 1.427 . S
C2329 H2319 0.929 . S
C2329 C2327 1.433 . S
C2329 N2332 1.384 . S
C2330 H2321 0.929 . S
C2330 C2322 1.378 . S
C2330 C2325 1.350 1_565 S
C2331 H2318 0.929 . S
C2331 C2323 1.433 . S
C2331 N2333 1.384 1_565 S
N2332 C2328 1.427 . S
N2332 C2329 1.384 . S
N2333 C2325 1.427 . S
N2333 C2331 1.384 1_545 S
H2334 C2340 0.930 . S
H2335 C2344 0.930 . S
H2336 C2349 0.929 . S
H2337 C2347 0.929 . S
H2338 C2342 0.929 . S
H2339 C2348 0.929 . S
C2340 H2334 0.930 . S
C2340 C2341 1.367 . S
C2340 C2348 1.378 . S
C2341 C2340 1.367 . S
C2341 C2349 1.433 . S
C2342 H2338 0.929 . S
C2342 C2344 1.378 . S
C2342 C2346 1.350 . S
C2343 C2346 1.463 1_455 S
C2343 C2348 1.350 . S
C2343 N2351 1.429 1_455 S
C2344 H2335 0.930 . S
C2344 C2342 1.378 . S
C2344 C2345 1.367 . S
C2345 C2344 1.367 . S
C2345 C2347 1.433 . S
C2346 C2342 1.350 . S
C2346 C2343 1.463 1_655 S
C2346 N2350 1.431 1_655 S
C2347 H2337 0.929 . S
C2347 C2345 1.433 . S
C2347 N2350 1.389 1_655 S
C2348 H2339 0.929 . S
C2348 C2340 1.378 . S
C2348 C2343 1.350 . S
C2349 H2336 0.929 . S
C2349 C2341 1.433 . S
C2349 N2351 1.387 1_455 S
N2350 C2346 1.431 1_455 S
N2350 C2347 1.389 1_455 S
N2351 C2343 1.429 1_655 S
N2351 C2349 1.387 1_655 S
H2352 C2358 0.930 . S
H2353 C2362 0.930 . S
H2354 C2367 0.929 . S
H2355 C2365 0.929 . S
H2356 C2360 0.929 . S
H2357 C2366 0.929 . S
C2358 H2352 0.930 . S
C2358 C2359 1.367 . S
C2358 C2366 1.378 . S
C2359 C2358 1.367 . S
C2359 C2367 1.433 . S
C2360 H2356 0.929 . S
C2360 C2362 1.378 . S
C2360 C2364 1.350 . S
C2361 C2364 1.463 . S
C2361 C2366 1.350 . S
C2361 N2369 1.427 . S
C2362 H2353 0.930 . S
C2362 C2360 1.378 . S
C2362 C2363 1.367 . S
C2363 C2362 1.367 . S
C2363 C2365 1.433 . S
C2364 C2360 1.350 . S
C2364 C2361 1.463 . S
C2364 N2368 1.427 . S
C2365 H2355 0.929 . S
C2365 C2363 1.433 . S
C2365 N2368 1.384 . S
C2366 H2357 0.929 . S
C2366 C2358 1.378 . S
C2366 C2361 1.350 . S
C2367 H2354 0.929 . S
C2367 C2359 1.433 . S
C2367 N2369 1.384 . S
N2368 C2364 1.427 . S
N2368 C2365 1.384 . S
N2369 C2361 1.427 . S
N2369 C2367 1.384 . S
H2370 C2376 0.930 . S
H2371 C2380 0.930 . S
H2372 C2385 0.929 . S
H2373 C2383 0.929 . S
H2374 C2378 0.929 . S
H2375 C2384 0.929 . S
C2376 H2370 0.930 . S
C2376 C2377 1.367 . S
C2376 C2384 1.378 . S
C2377 C2376 1.367 . S
C2377 C2385 1.433 . S
C2378 H2374 0.929 . S
C2378 C2380 1.378 . S
C2378 C2382 1.350 . S
C2379 C2382 1.463 . S
C2379 C2384 1.350 . S
C2379 N2387 1.427 . S
C2380 H2371 0.930 . S
C2380 C2378 1.378 . S
C2380 C2381 1.367 . S
C2381 C2380 1.367 . S
C2381 C2383 1.433 . S
C2382 C2378 1.350 . S
C2382 C2379 1.463 . S
C2382 N2386 1.427 . S
C2383 H2373 0.929 . S
C2383 C2381 1.433 . S
C2383 N2386 1.384 . S
C2384 H2375 0.929 . S
C2384 C2376 1.378 . S
C2384 C2379 1.350 . S
C2385 H2372 0.929 . S
C2385 C2377 1.433 . S
C2385 N2387 1.384 . S
N2386 C2382 1.427 . S
N2386 C2383 1.384 . S
N2387 C2379 1.427 . S
N2387 C2385 1.384 . S
H2388 C2394 0.930 . S
H2389 C2398 0.930 . S
H2390 C2403 0.929 . S
H2391 C2401 0.929 . S
H2392 C2396 0.929 . S
H2393 C2402 0.929 . S
C2394 H2388 0.930 . S
C2394 C2395 1.367 . S
C2394 C2402 1.378 . S
C2395 C2394 1.367 . S
C2395 C2403 1.433 . S
C2396 H2392 0.929 . S
C2396 C2398 1.378 . S
C2396 C2400 1.350 . S
C2397 C2400 1.463 . S
C2397 C2402 1.350 . S
C2397 N2405 1.427 . S
C2398 H2389 0.930 . S
C2398 C2396 1.378 . S
C2398 C2399 1.367 . S
C2399 C2398 1.367 . S
C2399 C2401 1.433 . S
C2400 C2396 1.350 . S
C2400 C2397 1.463 . S
C2400 N2404 1.427 . S
C2401 H2391 0.929 . S
C2401 C2399 1.433 . S
C2401 N2404 1.384 . S
C2402 H2393 0.929 . S
C2402 C2394 1.378 . S
C2402 C2397 1.350 . S
C2403 H2390 0.929 . S
C2403 C2395 1.433 . S
C2403 N2405 1.384 . S
N2404 C2400 1.427 . S
N2404 C2401 1.384 . S
N2405 C2397 1.427 . S
N2405 C2403 1.384 . S
H2406 C2412 0.930 . S
H2407 C2416 0.930 . S
H2408 C2421 0.929 . S
H2409 C2419 0.929 . S
H2410 C2414 0.929 . S
H2411 C2420 0.929 . S
C2412 H2406 0.930 . S
C2412 C2413 1.367 . S
C2412 C2420 1.378 . S
C2413 C2412 1.367 . S
C2413 C2421 1.433 . S
C2414 H2410 0.929 . S
C2414 C2416 1.378 . S
C2414 C2418 1.350 . S
C2415 C2418 1.463 . S
C2415 C2420 1.350 . S
C2415 N2423 1.427 . S
C2416 H2407 0.930 . S
C2416 C2414 1.378 . S
C2416 C2417 1.367 . S
C2417 C2416 1.367 . S
C2417 C2419 1.433 . S
C2418 C2414 1.350 . S
C2418 C2415 1.463 . S
C2418 N2422 1.427 . S
C2419 H2409 0.929 . S
C2419 C2417 1.433 . S
C2419 N2422 1.384 . S
C2420 H2411 0.929 . S
C2420 C2412 1.378 . S
C2420 C2415 1.350 . S
C2421 H2408 0.929 . S
C2421 C2413 1.433 . S
C2421 N2423 1.384 . S
N2422 C2418 1.427 . S
N2422 C2419 1.384 . S
N2423 C2415 1.427 . S
N2423 C2421 1.384 . S
H2424 C2430 0.930 . S
H2425 C2434 0.930 . S
H2426 C2439 0.929 . S
H2427 C2437 0.929 . S
H2428 C2432 0.929 1_545 S
H2429 C2438 0.929 . S
C2430 H2424 0.930 . S
C2430 C2431 1.367 . S
C2430 C2438 1.378 . S
C2431 C2430 1.367 . S
C2431 C2439 1.433 . S
C2432 H2428 0.929 1_565 S
C2432 C2434 1.378 . S
C2432 C2436 1.350 1_565 S
C2433 C2436 1.463 . S
C2433 C2438 1.350 . S
C2433 N2441 1.427 . S
C2434 H2425 0.930 . S
C2434 C2432 1.378 . S
C2434 C2435 1.367 . S
C2435 C2434 1.367 . S
C2435 C2437 1.433 . S
C2436 C2432 1.350 1_545 S
C2436 C2433 1.463 . S
C2436 N2440 1.427 1_545 S
C2437 H2427 0.929 . S
C2437 C2435 1.433 . S
C2437 N2440 1.384 . S
C2438 H2429 0.929 . S
C2438 C2430 1.378 . S
C2438 C2433 1.350 . S
C2439 H2426 0.929 . S
C2439 C2431 1.433 . S
C2439 N2441 1.384 . S
N2440 C2436 1.427 1_565 S
N2440 C2437 1.384 . S
N2441 C2433 1.427 . S
N2441 C2439 1.384 . S
H2442 C2448 0.930 . S
H2443 C2452 0.930 . S
H2444 C2457 0.929 . S
H2445 C2455 0.929 . S
H2446 C2450 0.929 . S
H2447 C2456 0.929 . S
C2448 H2442 0.930 . S
C2448 C2449 1.367 . S
C2448 C2456 1.378 . S
C2449 C2448 1.367 . S
C2449 C2457 1.433 . S
C2450 H2446 0.929 . S
C2450 C2452 1.378 . S
C2450 C2454 1.350 . S
C2451 C2454 1.463 . S
C2451 C2456 1.350 . S
C2451 N2459 1.427 . S
C2452 H2443 0.930 . S
C2452 C2450 1.378 . S
C2452 C2453 1.367 . S
C2453 C2452 1.367 . S
C2453 C2455 1.433 . S
C2454 C2450 1.350 . S
C2454 C2451 1.463 . S
C2454 N2458 1.427 . S
C2455 H2445 0.929 . S
C2455 C2453 1.433 . S
C2455 N2458 1.384 . S
C2456 H2447 0.929 . S
C2456 C2448 1.378 . S
C2456 C2451 1.350 . S
C2457 H2444 0.929 . S
C2457 C2449 1.433 . S
C2457 N2459 1.384 . S
N2458 C2454 1.427 . S
N2458 C2455 1.384 . S
N2459 C2451 1.427 . S
N2459 C2457 1.384 . S
H2460 C2466 0.930 . S
H2461 C2470 0.930 . S
H2462 C2475 0.929 . S
H2463 C2473 0.929 . S
H2464 C2468 0.929 . S
H2465 C2474 0.929 . S
C2466 H2460 0.930 . S
C2466 C2467 1.367 . S
C2466 C2474 1.378 . S
C2467 C2466 1.367 . S
C2467 C2475 1.433 . S
C2468 H2464 0.929 . S
C2468 C2470 1.378 . S
C2468 C2472 1.350 . S
C2469 C2472 1.463 . S
C2469 C2474 1.350 . S
C2469 N2477 1.427 . S
C2470 H2461 0.930 . S
C2470 C2468 1.378 . S
C2470 C2471 1.367 . S
C2471 C2470 1.367 . S
C2471 C2473 1.433 . S
C2472 C2468 1.350 . S
C2472 C2469 1.463 . S
C2472 N2476 1.427 . S
C2473 H2463 0.929 . S
C2473 C2471 1.433 . S
C2473 N2476 1.384 . S
C2474 H2465 0.929 . S
C2474 C2466 1.378 . S
C2474 C2469 1.350 . S
C2475 H2462 0.929 . S
C2475 C2467 1.433 . S
C2475 N2477 1.384 . S
N2476 C2472 1.427 . S
N2476 C2473 1.384 . S
N2477 C2469 1.427 . S
N2477 C2475 1.384 . S
H2478 C2484 0.930 . S
H2479 C2488 0.930 . S
H2480 C2493 0.929 . S
H2481 C2491 0.929 . S
H2482 C2486 0.929 . S
H2483 C2492 0.929 . S
C2484 H2478 0.930 . S
C2484 C2485 1.367 . S
C2484 C2492 1.378 . S
C2485 C2484 1.367 . S
C2485 C2493 1.433 . S
C2486 H2482 0.929 . S
C2486 C2488 1.378 . S
C2486 C2490 1.350 . S
C2487 C2490 1.463 . S
C2487 C2492 1.350 . S
C2487 N2495 1.427 . S
C2488 H2479 0.930 . S
C2488 C2486 1.378 . S
C2488 C2489 1.367 . S
C2489 C2488 1.367 . S
C2489 C2491 1.433 . S
C2490 C2486 1.350 . S
C2490 C2487 1.463 . S
C2490 N2494 1.427 . S
C2491 H2481 0.929 . S
C2491 C2489 1.433 . S
C2491 N2494 1.384 . S
C2492 H2483 0.929 . S
C2492 C2484 1.378 . S
C2492 C2487 1.350 . S
C2493 H2480 0.929 . S
C2493 C2485 1.433 . S
C2493 N2495 1.384 . S
N2494 C2490 1.427 . S
N2494 C2491 1.384 . S
N2495 C2487 1.427 . S
N2495 C2493 1.384 . S
C1063 N80 1.539 . S
C1067 N14 1.534 . S
C1081 N38 1.555 . S
C1085 N113 1.549 . S
C1099 N212 1.555 . S
C1103 N146 1.559 . S
C1117 N245 1.527 . S
C1121 N179 1.526 . S
C1135 N278 1.542 . S
C1139 N344 1.544 . S
C1153 N302 1.555 . S
C1157 N377 1.548 . S
C1171 N476 1.555 . S
C1175 N410 1.560 . S
C1189 N509 1.527 . S
C1193 N443 1.527 . S
C1207 N608 1.537 . S
C1211 N542 1.534 . S
C1225 N641 1.539 . S
C1229 N566 1.545 . S
C1243 N674 1.554 . S
C1247 N740 1.559 . S
C1261 N773 1.538 . S
C1265 N707 1.532 . S
C1279 N806 1.539 . S
C1283 N872 1.544 . S
C1297 N830 1.544 . S
C1301 N905 1.538 . S
C1315 N1004 1.555 . S
C1319 N938 1.557 . S
C1333 N971 1.536 . S
C1337 N1037 1.531 . S
C1351 N5 1.483 . S
C1355 N335 1.480 . S
C1369 N368 1.500 . S
C1373 N47 1.501 1_565 S
C1387 N71 1.477 1_565 S
C1391 N269 1.481 . S
C1405 N104 1.494 . S
C1409 N311 1.495 . S
C1423 N137 1.468 . S
C1427 N467 1.472 . S
C1441 N500 1.506 . S
C1445 N170 1.509 . S
C1459 N401 1.468 . S
C1463 N203 1.472 . S
C1477 N236 1.504 . S
C1481 N434 1.508 . S
C1495 N863 1.483 . S
C1499 N533 1.478 . S
C1513 N575 1.497 1_565 S
C1517 N896 1.498 . S
C1531 N599 1.479 1_565 S
C1535 N797 1.483 . S
C1549 N839 1.499 . S
C1553 N632 1.497 . S
C1567 N665 1.471 . S
C1571 N995 1.466 . S
C1585 N698 1.505 . S
C1589 N1028 1.510 . S
C1603 N731 1.468 . S
C1607 N929 1.469 . S
C1621 N764 1.507 . S
C1625 N962 1.508 . S
C1639 C17 1.554 . S
C1643 C50 1.542 . S
C1657 C83 1.544 . S
C1661 C116 1.542 . S
C1675 C182 1.543 . S
C1679 C149 1.542 . S
C1693 C215 1.546 . S
C1697 C248 1.548 . S
C1711 C281 1.551 . S
C1715 C314 1.538 . S
C1729 C380 1.547 . S
C1733 C347 1.547 . S
C1747 C446 1.540 . S
C1751 C413 1.540 . S
C1765 C479 1.543 . S
C1769 C512 1.543 . S
C1783 C545 1.553 . S
C1787 C578 1.541 . S
C1801 C644 1.541 . S
C1805 C611 1.541 . S
C1819 C677 1.540 . S
C1823 C710 1.539 . S
C1837 C776 1.550 . S
C1841 C743 1.550 . S
C1855 C809 1.551 . S
C1859 C842 1.538 . S
C1873 C908 1.541 . S
C1877 C875 1.543 . S
C1891 C974 1.542 . S
C1895 C941 1.541 . S
C1909 C1007 1.543 . S
C1913 C1040 1.543 . S
C1927 C28 1.530 . S
C1931 C160 1.530 . S
C1945 C985 1.548 . S
C1949 C41 1.561 . S
C1963 C94 1.537 . S
C1967 C490 1.537 . S
C1981 C127 1.548 . S
C1985 C787 1.548 . S
C1999 C193 1.553 . S
C2003 C833 1.564 . S
C2017 C226 1.537 . S
C2021 C358 1.537 . S
C2035 C655 1.547 . S
C2039 C259 1.548 . S
C2053 C424 1.539 . S
C2057 C292 1.539 . S
C2071 C721 1.558 . S
C2075 C305 1.568 . S
C2089 C1051 1.550 . S
C2093 C391 1.550 . S
C2107 C569 1.567 . S
C2111 C457 1.556 . S
C2125 C523 1.549 . S
C2129 C919 1.549 . S
C2143 C556 1.537 . S
C2147 C688 1.537 . S
C2161 C622 1.532 . S
C2165 C1018 1.532 . S
C2179 C886 1.539 . S
C2183 C754 1.539 . S
C2197 C952 1.534 . S
C2201 C820 1.534 . S
C2215 C140 0.545 . S
C2219 C8 0.545 . S
C2233 C61 0.529 . S
C2237 C965 0.529 . S
C2251 C470 0.544 . S
C2255 C74 0.544 . S
C2269 C107 0.545 . S
C2273 C767 0.545 . S
C2287 C853 0.540 . S
C2291 C173 0.540 . S
C2305 C206 0.542 . S
C2309 C338 0.542 . S
C2323 C239 0.544 . S
C2327 C635 0.544 . S
C2341 C272 0.545 . S
C2345 C404 0.546 . S
C2359 C325 0.531 . S
C2363 C701 0.536 . S
C2377 C1031 0.532 . S
C2381 C371 0.532 . S
C2395 C589 0.529 . S
C2399 C437 0.530 . S
C2413 C503 0.532 . S
C2417 C899 0.532 . S
C2431 C536 0.550 . S
C2435 C668 0.550 . S
C2449 C602 0.543 . S
C2453 C998 0.543 . S
C2467 C734 0.542 . S
C2471 C866 0.542 . S
C2485 C800 0.545 . S
C2489 C932 0.545 . S
