# Generated by pormake.
# Topology smi, (6)-cn, num edge types: 1
# Building blocks:
#     Node 0, Type 0, BuildingBlock: IZENUY_clean_sbu_0, # of connection points: 6
#     Node 1, Type 0, BuildingBlock: IZENUY_clean_sbu_0, # of connection points: 6
#     Node 2, Type 0, BuildingBlock: IZENUY_clean_sbu_0, # of connection points: 6
#     Node 3, Type 0, BuildingBlock: IZENUY_clean_sbu_0, # of connection points: 6
#     Node 4, Type 0, BuildingBlock: IZENUY_clean_sbu_0, # of connection points: 6
#     Node 5, Type 0, BuildingBlock: IZENUY_clean_sbu_0, # of connection points: 6
#     Edge 6, Type (0, 0), BuildingBlock: AJUNOK_clean_linker_0, # of connection points: 2
#     Edge 7, Type (0, 0), BuildingBlock: AJUNOK_clean_linker_0, # of connection points: 2
#     Edge 8, Type (0, 0), BuildingBlock: AJUNOK_clean_linker_0, # of connection points: 2
#     Edge 9, Type (0, 0), BuildingBlock: AJUNOK_clean_linker_0, # of connection points: 2
#     Edge 10, Type (0, 0), BuildingBlock: AJUNOK_clean_linker_0, # of connection points: 2
#     Edge 11, Type (0, 0), BuildingBlock: AJUNOK_clean_linker_0, # of connection points: 2
#     Edge 12, Type (0, 0), BuildingBlock: AJUNOK_clean_linker_0, # of connection points: 2
#     Edge 13, Type (0, 0), BuildingBlock: AJUNOK_clean_linker_0, # of connection points: 2
#     Edge 14, Type (0, 0), BuildingBlock: AJUNOK_clean_linker_0, # of connection points: 2
#     Edge 15, Type (0, 0), BuildingBlock: AJUNOK_clean_linker_0, # of connection points: 2
#     Edge 16, Type (0, 0), BuildingBlock: AJUNOK_clean_linker_0, # of connection points: 2
#     Edge 17, Type (0, 0), BuildingBlock: AJUNOK_clean_linker_0, # of connection points: 2
#     Edge 18, Type (0, 0), BuildingBlock: AJUNOK_clean_linker_0, # of connection points: 2
#     Edge 19, Type (0, 0), BuildingBlock: AJUNOK_clean_linker_0, # of connection points: 2
#     Edge 20, Type (0, 0), BuildingBlock: AJUNOK_clean_linker_0, # of connection points: 2
#     Edge 21, Type (0, 0), BuildingBlock: AJUNOK_clean_linker_0, # of connection points: 2
#     Edge 22, Type (0, 0), BuildingBlock: AJUNOK_clean_linker_0, # of connection points: 2
#     Edge 23, Type (0, 0), BuildingBlock: AJUNOK_clean_linker_0, # of connection points: 2
# Relax obj value: 0.337
# Max RMSD: 0.277
# Mean RMSD: 0.276
data_MOF--net-smi--node1-IZENUY_clean_sbu_0--edge1-AJUNOK_clean_linker_0
_symmetry_space_group_name_H-M    P1
_symmetry_Int_Tables_number       1
_symmetry_cell_setting            triclinic
loop_
_symmetry_equiv_pos_as_xyz
'x, y, z'
_cell_length_a     19.978686
_cell_length_b     19.982889
_cell_length_c     29.995483
_cell_angle_alpha  89.974111
_cell_angle_beta   89.992436
_cell_angle_gamma 120.09811
loop_
_atom_site_label
_atom_site_type_symbol
_atom_site_fract_x
_atom_site_fract_y
_atom_site_fract_z
_atom_type_partial_charge
Fe0 Fe 0.09998 0.58186 0.13518 0.0
Fe1 Fe 0.25294 0.62395 0.08919 0.0
O2 O 0.15052 0.57223 0.08926 0.0
Fe3 Fe 0.10042 0.51171 0.04332 0.0
O4 O 0.04993 0.56321 0.0326 0.0
O5 O 0.0196 0.57639 0.10124 0.0
O6 O 0.14802 0.68686 0.13035 0.0
C7 C 0.22019 0.72912 0.13436 0.0
C8 C 1.01048 0.42572 0.1187 0.0
O9 O 0.26418 0.70281 0.12522 0.0
C10 C 0.22088 0.48547 0.04518 0.0
O11 O 0.17098 0.5868 0.17614 0.0
O12 O 0.25502 0.5699 0.13699 0.0
O13 O 0.01922 0.43679 0.07686 0.0
O14 O 0.04926 0.47967 0.1455 0.0
C15 C 0.22214 0.64909 1.00462 0.0
O16 O 0.26442 0.55639 0.05329 0.0
O17 O 0.14857 0.45503 0.04893 0.0
C18 C 0.22245 0.56723 0.17366 0.0
O19 O 0.25411 0.67967 0.04131 0.0
O20 O 0.17192 0.57747 1.00233 0.0
C21 C 1.01221 0.57994 0.05933 0.0
Fe22 Fe 0.59129 0.08813 0.21024 0.0
Fe23 Fe 0.6345 0.24131 0.25598 0.0
O24 O 0.5833 0.13913 0.25644 0.0
Fe25 Fe 0.52486 0.08935 0.30314 0.0
O26 O 0.57809 0.04044 0.31291 0.0
O27 O 0.58548 1.00726 0.24407 0.0
O28 O 0.69631 0.13537 0.21435 0.0
C29 C 0.73908 0.20763 0.21096 0.0
C30 C 0.43622 0.999 0.22856 0.0
O31 O 0.71296 0.25195 0.21976 0.0
C32 C 0.4966 0.20853 0.30139 0.0
O33 O 0.59655 0.15933 0.1691 0.0
O34 O 0.57936 0.2425 0.20862 0.0
O35 O 0.44942 1.00727 0.27026 0.0
O36 O 0.48871 0.03851 0.20102 0.0
C37 C 0.66257 0.21304 0.34043 0.0
O38 O 0.56705 0.25271 0.29213 0.0
O39 O 0.46691 0.1362 0.29852 0.0
C40 C 0.5773 0.21106 0.17173 0.0
O41 O 0.69154 0.24379 0.30331 0.0
O42 O 0.59137 0.16173 0.34352 0.0
C43 C 0.59192 1.00105 0.28586 0.0
Fe44 Fe 0.39954 0.62417 0.42291 0.0
Fe45 Fe 0.44058 0.51309 0.4691 0.0
O46 O 0.45071 0.57321 0.42303 0.0
Fe47 Fe 0.51119 0.5834 0.37717 0.0
O48 O 0.56808 0.6884 0.38235 0.0
O49 O 0.46716 0.70322 0.38693 0.0
O50 O 0.45398 0.68025 0.47057 0.0
C51 C 0.4556 0.65033 0.50741 0.0
C52 C 0.37385 0.56831 0.33842 0.0
O53 O 0.43461 0.57882 0.51 0.0
C54 C 0.44473 0.42734 0.3937 0.0
O55 O 0.32044 0.55638 0.45881 0.0
O56 O 0.33563 0.45569 0.46363 0.0
O57 O 0.44524 0.5886 0.33601 0.0
O58 O 0.34369 0.56968 0.37522 0.0
C59 C 0.59712 0.58162 0.45305 0.0
O60 O 0.44719 0.43847 0.43555 0.0
O61 O 0.45965 0.48117 0.3668 0.0
C62 C 0.29336 0.4856 0.4671 0.0
O63 O 0.54267 0.56526 0.47973 0.0
O64 O 0.58611 0.57786 0.41114 0.0
C65 C 0.53791 0.73035 0.37854 0.0
Fe66 Fe 0.78281 0.39111 0.58905 0.0
Fe67 Fe 0.93574 0.50365 0.54369 0.0
O68 O 0.88517 0.44232 0.58929 0.0
Fe69 Fe 0.93491 0.43114 0.6351 0.0
O70 O 0.88632 0.32624 0.62928 0.0
O71 O 0.77081 0.31182 0.62493 0.0
O72 O 0.78166 0.33571 0.54115 0.0
C73 C 0.81406 0.3665 0.50456 0.0
C74 C 0.81275 0.44645 0.67369 0.0
O75 O 0.86462 0.43812 0.5024 0.0
C76 C 0.02413 0.58809 0.6198 0.0
O77 O 0.77166 0.45894 0.55325 0.0
O78 O 0.88749 0.56021 0.54937 0.0
O79 O 0.86346 0.42571 0.67615 0.0
O80 O 0.78123 0.44514 0.63689 0.0
C81 C 0.02367 0.43483 0.55931 0.0
O82 O 1.01628 0.57814 0.57784 0.0
O83 O 0.98615 0.53306 0.64618 0.0
C84 C 0.81527 0.5299 0.54541 0.0
O85 O 0.9866 0.45263 0.53275 0.0
O86 O 1.01554 0.43697 0.60124 0.0
C87 C 0.81412 0.28446 0.63334 0.0
Fe88 Fe 0.44394 0.92593 0.70941 0.0
Fe89 Fe 0.40117 0.77335 0.75583 0.0
O90 O 0.45212 0.87559 0.75591 0.0
Fe91 Fe 0.51044 0.9262 0.80244 0.0
O92 O 0.45708 0.97539 0.81162 0.0
O93 O 0.45082 1.00775 0.74245 0.0
O94 O 0.33893 0.87892 0.71401 0.0
C95 C 0.29616 0.80656 0.71097 0.0
C96 C 0.59925 0.01417 0.72729 0.0
O97 O 0.32251 0.76236 0.71966 0.0
C98 C 0.5391 0.80708 0.80158 0.0
O99 O 0.43783 0.85408 0.66875 0.0
O100 O 0.45621 0.77174 0.7084 0.0
O101 O 0.58586 1.00756 0.76901 0.0
O102 O 0.54645 0.97492 0.69988 0.0
C103 C 0.37308 0.80242 0.84019 0.0
O104 O 0.46885 0.76254 0.79209 0.0
O105 O 0.56853 0.87937 0.79851 0.0
C106 C 0.45841 0.80347 0.67153 0.0
O107 O 0.34421 0.77107 0.8032 0.0
O108 O 0.44403 0.85444 0.84314 0.0
C109 C 0.4451 0.01553 0.7841 0.0
Fe110 Fe 0.6372 0.39168 0.92286 0.0
Fe111 Fe 0.59562 0.50242 0.96916 0.0
O112 O 0.5859 0.44265 0.923 0.0
Fe113 Fe 0.52584 0.43307 0.87704 0.0
O114 O 0.46902 0.32795 0.88165 0.0
O115 O 0.56975 0.31285 0.88669 0.0
O116 O 0.58272 0.33524 0.9706 0.0
C117 C 0.58091 0.36525 0.00739 0.0
C118 C 0.66345 0.44891 0.83852 0.0
O119 O 0.60168 0.43664 0.00992 0.0
C120 C 0.59183 0.58888 0.89402 0.0
O121 O 0.71607 0.45943 0.95884 0.0
O122 O 0.7006 0.55998 0.9638 0.0
O123 O 0.59219 0.42874 0.83605 0.0
O124 O 0.69341 0.4464 0.87518 0.0
C125 C 0.43918 0.43389 0.95281 0.0
O126 O 0.58897 0.57726 0.93582 0.0
O127 O 0.57733 0.5354 0.86701 0.0
C128 C 0.74296 0.53015 0.96722 0.0
O129 O 0.49335 0.44995 0.97966 0.0
O130 O 0.45058 0.43803 0.91093 0.0
C131 C 0.49926 0.28607 0.87764 0.0
C132 C 0.33055 0.56734 0.21543 0.0
C133 C 0.25517 0.55603 0.21533 0.0
C134 C 0.36709 0.56789 0.25528 0.0
C135 C 0.32968 0.55685 0.29666 0.0
H136 H 0.36312 0.57924 0.18471 0.0
H137 H 0.42626 0.57985 0.25356 0.0
S138 S 0.12717 0.51253 0.31378 0.0
N139 N 0.14092 0.52474 0.25944 0.0
N140 N 0.20934 0.5254 0.33449 0.0
C141 C 0.2523 0.54037 0.29676 0.0
C142 C 0.21519 0.5401 0.25609 0.0
C143 C 0.67303 0.21738 0.42345 0.0
C144 C 0.70775 0.24685 0.38177 0.0
C145 C 0.70944 0.25438 0.46312 0.0
C146 C 0.78214 0.32252 0.46276 0.0
H147 H 0.61584 0.16671 0.42559 0.0
H148 H 0.67868 0.23096 0.49413 0.0
S149 S 0.90381 0.41638 0.36306 0.0
N150 N 0.82362 0.34309 0.34295 0.0
N151 N 0.89184 0.41281 0.41762 0.0
C152 C 0.81997 0.34971 0.42158 0.0
C153 C 0.78297 0.31183 0.38108 0.0
C154 C 0.45799 0.69485 0.63026 0.0
C155 C 0.46979 0.7704 0.6301 0.0
C156 C 0.45704 0.65785 0.59053 0.0
C157 C 0.46817 0.69501 0.54904 0.0
H158 H 0.4458 0.66247 0.66107 0.0
H159 H 0.44451 0.59853 0.59241 0.0
S160 S 0.51518 0.89816 0.53139 0.0
N161 N 0.5024 0.88469 0.58572 0.0
N162 N 0.50149 0.81557 0.51091 0.0
C163 C 0.48576 0.7727 0.54873 0.0
C164 C 0.48625 0.81021 0.58927 0.0
C165 C 0.77198 0.44978 0.79674 0.0
C166 C 0.70743 0.46028 0.79683 0.0
C167 C 0.8077 0.44883 0.75685 0.0
C168 C 0.78052 0.45859 0.71543 0.0
H169 H 0.79318 0.43874 0.8275 0.0
H170 H 0.8553 0.43753 0.75858 0.0
S171 S 0.62128 0.50111 0.69825 0.0
N172 N 0.62351 0.48998 0.75265 0.0
N173 N 0.6907 0.4885 0.67754 0.0
C174 C 0.71934 0.47456 0.71531 0.0
C175 C 0.6828 0.47527 0.75602 0.0
C176 C 0.32702 0.76095 0.96304 0.0
C177 C 0.25407 0.69317 0.96282 0.0
C178 C 0.36327 0.79791 0.92329 0.0
C179 C 0.32816 0.76871 0.88166 0.0
H180 H 0.35806 0.78407 0.99398 0.0
H181 H 0.42065 0.8483 0.92532 0.0
S182 S 0.13154 0.59997 0.86338 0.0
N183 N 0.14384 0.60339 0.9179 0.0
N184 N 0.21181 0.67299 0.8431 0.0
C185 C 0.25277 0.70401 0.88114 0.0
C186 C 0.21592 0.66621 0.92172 0.0
C187 C 0.57433 0.21676 0.08853 0.0
C188 C 0.56654 0.24476 0.13012 0.0
C189 C 0.57537 0.25397 0.0488 0.0
C190 C 0.56871 0.3208 0.04905 0.0
H191 H 0.58251 0.16719 0.08653 0.0
H192 H 0.58472 0.23186 0.0179 0.0
S193 S 0.53463 0.41071 0.14831 0.0
N194 N 0.54279 0.33835 0.16857 0.0
N195 N 0.54512 0.40837 0.09387 0.0
C196 C 0.55582 0.34655 0.09008 0.0
C197 C 0.5545 0.3085 0.1306 0.0
C198 C 0.32515 0.45458 0.9503 0.0
C199 C 0.36634 0.42426 0.97228 0.0
C200 C 0.27068 0.46653 0.97334 0.0
C201 C 0.25488 0.44764 0.01886 0.0
H202 H 0.33982 0.47548 0.91636 0.0
H203 H 0.24538 0.49648 0.95641 0.0
S204 S 0.33756 0.35561 0.08971 0.0
N205 N 0.37961 0.36618 0.04075 0.0
N206 N 0.27836 0.3902 0.08369 0.0
C207 C 0.29044 0.41127 0.04006 0.0
C208 C 0.34569 0.39892 0.01677 0.0
C209 C 0.9484 0.33945 0.18442 0.0
C210 C 0.94632 0.35335 0.13833 0.0
C211 C 0.88207 0.28526 0.20746 0.0
C212 C 0.8116 0.24135 0.18518 0.0
H213 H 1.00039 0.37473 0.20365 0.0
H214 H 0.88466 0.28175 0.24342 0.0
S215 S 0.77619 0.24747 0.06432 0.0
N216 N 0.86852 0.31276 0.07082 0.0
N217 N 0.7444 0.20959 0.11417 0.0
C218 C 0.81003 0.24933 0.13864 0.0
C219 C 0.8774 0.30533 0.11512 0.0
C220 C 0.55723 0.79912 0.30663 0.0
C221 C 0.57602 0.8022 0.35215 0.0
C222 C 0.56986 0.86573 0.28348 0.0
C223 C 0.60083 0.93743 0.30537 0.0
H224 H 0.5269 0.74377 0.28977 0.0
H225 H 0.54902 0.85952 0.24955 0.0
S226 S 0.66868 0.97705 0.42299 0.0
N227 N 0.63345 0.88308 0.417 0.0
N228 N 0.65899 1.00875 0.3739 0.0
C229 C 0.62598 0.94203 0.34992 0.0
C230 C 0.61281 0.87421 0.3733 0.0
C231 C 0.76739 0.55161 0.47362 0.0
C232 C 0.78145 0.56828 0.51945 0.0
C233 C 0.71283 0.56346 0.45057 0.0
C234 C 0.66988 0.59148 0.47285 0.0
H235 H 0.79411 0.52333 0.45636 0.0
H236 H 0.69957 0.54421 0.41629 0.0
S237 S 0.69342 0.65358 0.59145 0.0
N238 N 0.75419 0.62098 0.58506 0.0
N239 N 0.65301 0.64507 0.54217 0.0
C240 C 0.68881 0.61473 0.51778 0.0
C241 C 0.74403 0.60237 0.54106 0.0
C242 C 0.22433 0.76017 0.63965 0.0
C243 C 0.22303 0.77241 0.68582 0.0
C244 C 0.15742 0.70545 0.61692 0.0
C245 C 0.08727 0.66059 0.63985 0.0
H246 H 0.2788 0.78844 0.62175 0.0
H247 H 0.16248 0.6937 0.58221 0.0
S248 S 0.05208 0.67918 0.75982 0.0
N249 N 0.14508 0.74146 0.75263 0.0
N250 N 0.01885 0.64018 0.7104 0.0
C251 C 0.08414 0.67774 0.68529 0.0
C252 C 0.15225 0.73302 0.70823 0.0
C253 C 0.42649 0.14284 0.87082 0.0
C254 C 0.46216 0.21545 0.85008 0.0
C255 C 0.41412 0.07667 0.84751 0.0
C256 C 0.43832 0.0809 0.80279 0.0
H257 H 0.41322 0.13805 0.90611 0.0
H258 H 0.39033 0.02264 0.86571 0.0
S259 S 0.5294 0.25772 0.73274 0.0
N260 N 0.51607 0.28743 0.78157 0.0
N261 N 0.49425 0.16361 0.73792 0.0
C262 C 0.46884 0.15243 0.78078 0.0
C263 C 0.48081 0.21967 0.80451 0.0
C264 C 0.60568 0.73074 0.80573 0.0
C265 C 0.57735 0.77325 0.82776 0.0
C266 C 0.61764 0.67653 0.82879 0.0
C267 C 0.59984 0.66126 0.87463 0.0
H268 H 0.6134 0.73538 0.76988 0.0
H269 H 0.63576 0.64232 0.8097 0.0
S270 S 0.53027 0.76299 0.94805 0.0
N271 N 0.53806 0.80206 0.89839 0.0
N272 N 0.55876 0.69893 0.94172 0.0
C273 C 0.57705 0.70784 0.89767 0.0
C274 C 0.5658 0.76382 0.87415 0.0
C275 C 0.87847 0.56208 0.06197 0.0
C276 C 0.94959 0.59031 0.0397 0.0
C277 C 0.8122 0.55086 0.03901 0.0
C278 C 0.81512 0.56838 0.99329 0.0
H279 H 0.87224 0.54218 0.09613 0.0
H280 H 0.75704 0.52231 0.0562 0.0
S281 S 0.98915 0.65521 0.92157 0.0
N282 N 0.02068 0.64541 0.97068 0.0
N283 N 0.89565 0.62251 0.9279 0.0
C284 C 0.88685 0.60283 0.97176 0.0
C285 C 0.9543 0.61454 0.99496 0.0
C286 C 0.34465 0.93832 0.16486 0.0
C287 C 0.36375 0.93396 0.20975 0.0
C288 C 0.2911 0.87227 0.14131 0.0
C289 C 0.25342 0.79964 0.162 0.0
H290 H 0.37553 0.99236 0.1467 0.0
H291 H 0.28343 0.87717 0.10593 0.0
S292 S 0.27525 0.75714 0.27978 0.0
N293 N 0.33496 0.8512 0.27474 0.0
N294 N 0.23321 0.72755 0.23068 0.0
C295 C 0.2667 0.79532 0.20774 0.0
C296 C 0.32181 0.86246 0.23169 0.0
C297 C 0.43141 0.28616 0.30518 0.0
C298 C 0.4585 0.2427 0.32736 0.0
C299 C 0.41967 0.34049 0.32821 0.0
C300 C 0.43655 0.355 0.37417 0.0
H301 H 0.42451 0.28211 0.26927 0.0
H302 H 0.40244 0.37535 0.30904 0.0
S303 S 0.50289 0.25077 0.44793 0.0
N304 N 0.49571 0.21224 0.3982 0.0
N305 N 0.47549 0.31566 0.44149 0.0
C306 C 0.45815 0.30754 0.39732 0.0
C307 C 0.46912 0.25139 0.37382 0.0
C308 C 0.15719 0.45202 0.56188 0.0
C309 C 0.08629 0.42457 0.53952 0.0
C310 C 0.22358 0.46359 0.53887 0.0
C311 C 0.22098 0.4472 0.493 0.0
H312 H 0.16319 0.47106 0.5962 0.0
H313 H 0.2786 0.49151 0.55619 0.0
S314 S 0.04757 0.36277 0.4209 0.0
N315 N 1.01572 0.37143 0.47016 0.0
N316 N 0.14096 0.39499 0.42732 0.0
C317 C 0.14944 0.41354 0.47133 0.0
C318 C 0.08188 0.40147 0.49457 0.0
C319 C 0.70811 0.1516 0.72904 0.0
C320 C 0.67179 0.07863 0.70837 0.0
C321 C 0.76122 0.21814 0.70549 0.0
C322 C 0.78056 0.21379 0.66081 0.0
H323 H 0.6904 0.15844 0.76207 0.0
H324 H 0.78276 0.27406 0.72122 0.0
S325 S 0.71091 0.03576 0.59385 0.0
N326 N 0.66658 1.00516 0.64234 0.0
N327 N 0.76567 0.13063 0.59842 0.0
C328 C 0.74999 0.14084 0.64113 0.0
C329 C 0.69596 0.0731 0.66493 0.0
loop_
_geom_bond_atom_site_label_1
_geom_bond_atom_site_label_2
_geom_bond_distance
_geom_bond_site_symmetry_2
_ccdc_geom_bond_type
Fe0 O2 1.918 . S
Fe0 O5 1.997 . S
Fe0 O6 2.002 . S
Fe0 O11 1.976 . S
Fe0 O14 1.996 . S
Fe1 O2 1.918 . S
Fe1 O9 1.997 . S
Fe1 O12 1.996 . S
Fe1 O16 1.976 . S
Fe1 O19 2.002 . S
O2 Fe0 1.918 . S
O2 Fe1 1.918 . S
O2 Fe3 1.918 . S
Fe3 O2 1.918 . S
Fe3 O4 2.002 . S
Fe3 O13 1.976 . S
Fe3 O17 1.996 . S
Fe3 O20 1.997 1_554 S
O4 Fe3 2.002 . S
O4 C21 1.295 . S
O5 Fe0 1.997 . S
O5 C21 1.235 . S
O6 Fe0 2.002 . S
O6 C7 1.295 . S
C7 O6 1.295 . S
C7 O9 1.235 . S
C8 O13 1.287 . S
C8 O14 1.255 . S
O9 Fe1 1.997 . S
O9 C7 1.235 . S
C10 O16 1.287 . S
C10 O17 1.255 . S
O11 Fe0 1.976 . S
O11 C18 1.287 . S
O12 Fe1 1.996 . S
O12 C18 1.255 . S
O13 Fe3 1.976 . S
O13 C8 1.287 . S
O14 Fe0 1.996 . S
O14 C8 1.255 . S
C15 O19 1.295 1_556 S
C15 O20 1.235 . S
O16 Fe1 1.976 . S
O16 C10 1.287 . S
O17 Fe3 1.996 . S
O17 C10 1.255 . S
C18 O11 1.287 . S
C18 O12 1.255 . S
O19 Fe1 2.002 . S
O19 C15 1.295 1_554 S
O20 Fe3 1.997 1_556 S
O20 C15 1.235 . S
C21 O4 1.295 . S
C21 O5 1.235 . S
Fe22 O24 1.918 . S
Fe22 O27 1.997 . S
Fe22 O28 2.002 . S
Fe22 O33 1.976 . S
Fe22 O36 1.996 . S
Fe23 O24 1.918 . S
Fe23 O31 1.997 . S
Fe23 O34 1.996 . S
Fe23 O38 1.976 . S
Fe23 O41 2.002 . S
O24 Fe22 1.918 . S
O24 Fe23 1.918 . S
O24 Fe25 1.918 . S
Fe25 O24 1.918 . S
Fe25 O26 2.002 . S
Fe25 O35 1.976 . S
Fe25 O39 1.996 . S
Fe25 O42 1.997 . S
O26 Fe25 2.002 . S
O26 C43 1.295 . S
O27 Fe22 1.997 . S
O27 C43 1.235 . S
O28 Fe22 2.002 . S
O28 C29 1.295 . S
C29 O28 1.295 . S
C29 O31 1.235 . S
C30 O35 1.287 . S
C30 O36 1.255 . S
O31 Fe23 1.997 . S
O31 C29 1.235 . S
C32 O38 1.287 . S
C32 O39 1.255 . S
O33 Fe22 1.976 . S
O33 C40 1.287 . S
O34 Fe23 1.996 . S
O34 C40 1.255 . S
O35 Fe25 1.976 . S
O35 C30 1.287 . S
O36 Fe22 1.996 . S
O36 C30 1.255 . S
C37 O41 1.295 . S
C37 O42 1.235 . S
O38 Fe23 1.976 . S
O38 C32 1.287 . S
O39 Fe25 1.996 . S
O39 C32 1.255 . S
C40 O33 1.287 . S
C40 O34 1.255 . S
O41 Fe23 2.002 . S
O41 C37 1.295 . S
O42 Fe25 1.997 . S
O42 C37 1.235 . S
C43 O26 1.295 . S
C43 O27 1.235 . S
Fe44 O46 1.918 . S
Fe44 O49 1.997 . S
Fe44 O50 2.002 . S
Fe44 O55 1.976 . S
Fe44 O58 1.996 . S
Fe45 O46 1.918 . S
Fe45 O53 1.997 . S
Fe45 O56 1.996 . S
Fe45 O60 1.976 . S
Fe45 O63 2.002 . S
O46 Fe44 1.918 . S
O46 Fe45 1.918 . S
O46 Fe47 1.918 . S
Fe47 O46 1.918 . S
Fe47 O48 2.002 . S
Fe47 O57 1.976 . S
Fe47 O61 1.996 . S
Fe47 O64 1.997 . S
O48 Fe47 2.002 . S
O48 C65 1.295 . S
O49 Fe44 1.997 . S
O49 C65 1.235 . S
O50 Fe44 2.002 . S
O50 C51 1.295 . S
C51 O50 1.295 . S
C51 O53 1.235 . S
C52 O57 1.287 . S
C52 O58 1.255 . S
O53 Fe45 1.997 . S
O53 C51 1.235 . S
C54 O60 1.287 . S
C54 O61 1.255 . S
O55 Fe44 1.976 . S
O55 C62 1.287 . S
O56 Fe45 1.996 . S
O56 C62 1.255 . S
O57 Fe47 1.976 . S
O57 C52 1.287 . S
O58 Fe44 1.996 . S
O58 C52 1.255 . S
C59 O63 1.295 . S
C59 O64 1.235 . S
O60 Fe45 1.976 . S
O60 C54 1.287 . S
O61 Fe47 1.996 . S
O61 C54 1.255 . S
C62 O55 1.287 . S
C62 O56 1.255 . S
O63 Fe45 2.002 . S
O63 C59 1.295 . S
O64 Fe47 1.997 . S
O64 C59 1.235 . S
C65 O48 1.295 . S
C65 O49 1.235 . S
Fe66 O68 1.918 . S
Fe66 O71 1.997 . S
Fe66 O72 2.002 . S
Fe66 O77 1.976 . S
Fe66 O80 1.996 . S
Fe67 O68 1.918 . S
Fe67 O75 1.997 . S
Fe67 O78 1.996 . S
Fe67 O82 1.976 . S
Fe67 O85 2.002 . S
O68 Fe66 1.918 . S
O68 Fe67 1.918 . S
O68 Fe69 1.918 . S
Fe69 O68 1.918 . S
Fe69 O70 2.002 . S
Fe69 O79 1.976 . S
Fe69 O83 1.996 . S
Fe69 O86 1.997 . S
O70 Fe69 2.002 . S
O70 C87 1.295 . S
O71 Fe66 1.997 . S
O71 C87 1.235 . S
O72 Fe66 2.002 . S
O72 C73 1.295 . S
C73 O72 1.295 . S
C73 O75 1.235 . S
C74 O79 1.287 . S
C74 O80 1.255 . S
O75 Fe67 1.997 . S
O75 C73 1.235 . S
C76 O82 1.287 . S
C76 O83 1.255 . S
O77 Fe66 1.976 . S
O77 C84 1.287 . S
O78 Fe67 1.996 . S
O78 C84 1.255 . S
O79 Fe69 1.976 . S
O79 C74 1.287 . S
O80 Fe66 1.996 . S
O80 C74 1.255 . S
C81 O85 1.295 . S
C81 O86 1.235 . S
O82 Fe67 1.976 . S
O82 C76 1.287 . S
O83 Fe69 1.996 . S
O83 C76 1.255 . S
C84 O77 1.287 . S
C84 O78 1.255 . S
O85 Fe67 2.002 . S
O85 C81 1.295 . S
O86 Fe69 1.997 . S
O86 C81 1.235 . S
C87 O70 1.295 . S
C87 O71 1.235 . S
Fe88 O90 1.918 . S
Fe88 O93 1.997 . S
Fe88 O94 2.002 . S
Fe88 O99 1.976 . S
Fe88 O102 1.996 . S
Fe89 O90 1.918 . S
Fe89 O97 1.997 . S
Fe89 O100 1.996 . S
Fe89 O104 1.976 . S
Fe89 O107 2.002 . S
O90 Fe88 1.918 . S
O90 Fe89 1.918 . S
O90 Fe91 1.918 . S
Fe91 O90 1.918 . S
Fe91 O92 2.002 . S
Fe91 O101 1.976 . S
Fe91 O105 1.996 . S
Fe91 O108 1.997 . S
O92 Fe91 2.002 . S
O92 C109 1.295 . S
O93 Fe88 1.997 . S
O93 C109 1.235 . S
O94 Fe88 2.002 . S
O94 C95 1.295 . S
C95 O94 1.295 . S
C95 O97 1.235 . S
C96 O101 1.287 . S
C96 O102 1.255 . S
O97 Fe89 1.997 . S
O97 C95 1.235 . S
C98 O104 1.287 . S
C98 O105 1.255 . S
O99 Fe88 1.976 . S
O99 C106 1.287 . S
O100 Fe89 1.996 . S
O100 C106 1.255 . S
O101 Fe91 1.976 . S
O101 C96 1.287 . S
O102 Fe88 1.996 . S
O102 C96 1.255 . S
C103 O107 1.295 . S
C103 O108 1.235 . S
O104 Fe89 1.976 . S
O104 C98 1.287 . S
O105 Fe91 1.996 . S
O105 C98 1.255 . S
C106 O99 1.287 . S
C106 O100 1.255 . S
O107 Fe89 2.002 . S
O107 C103 1.295 . S
O108 Fe91 1.997 . S
O108 C103 1.235 . S
C109 O92 1.295 . S
C109 O93 1.235 . S
Fe110 O112 1.918 . S
Fe110 O115 1.997 . S
Fe110 O116 2.002 . S
Fe110 O121 1.976 . S
Fe110 O124 1.996 . S
Fe111 O112 1.918 . S
Fe111 O119 1.997 1_556 S
Fe111 O122 1.996 . S
Fe111 O126 1.976 . S
Fe111 O129 2.002 . S
O112 Fe110 1.918 . S
O112 Fe111 1.918 . S
O112 Fe113 1.918 . S
Fe113 O112 1.918 . S
Fe113 O114 2.002 . S
Fe113 O123 1.976 . S
Fe113 O127 1.996 . S
Fe113 O130 1.997 . S
O114 Fe113 2.002 . S
O114 C131 1.295 . S
O115 Fe110 1.997 . S
O115 C131 1.235 . S
O116 Fe110 2.002 . S
O116 C117 1.295 1_556 S
C117 O116 1.295 1_554 S
C117 O119 1.235 . S
C118 O123 1.287 . S
C118 O124 1.255 . S
O119 Fe111 1.997 1_554 S
O119 C117 1.235 . S
C120 O126 1.287 . S
C120 O127 1.255 . S
O121 Fe110 1.976 . S
O121 C128 1.287 . S
O122 Fe111 1.996 . S
O122 C128 1.255 . S
O123 Fe113 1.976 . S
O123 C118 1.287 . S
O124 Fe110 1.996 . S
O124 C118 1.255 . S
C125 O129 1.295 . S
C125 O130 1.235 . S
O126 Fe111 1.976 . S
O126 C120 1.287 . S
O127 Fe113 1.996 . S
O127 C120 1.255 . S
C128 O121 1.287 . S
C128 O122 1.255 . S
O129 Fe111 2.002 . S
O129 C125 1.295 . S
O130 Fe113 1.997 . S
O130 C125 1.235 . S
C131 O114 1.295 . S
C131 O115 1.235 . S
C132 C133 1.369 . S
C132 C134 1.419 . S
C132 H136 0.930 . S
C133 C132 1.369 . S
C133 C142 1.429 . S
C134 C132 1.419 . S
C134 C135 1.363 . S
C134 H137 0.929 . S
C135 C134 1.363 . S
C135 C141 1.428 . S
H136 C132 0.930 . S
H137 C134 0.929 . S
S138 N139 1.613 . S
S138 N140 1.610 . S
N139 S138 1.613 . S
N139 C142 1.350 . S
N140 S138 1.610 . S
N140 C141 1.351 . S
C141 C135 1.428 . S
C141 N140 1.351 . S
C141 C142 1.434 . S
C142 C133 1.429 . S
C142 N139 1.350 . S
C142 C141 1.434 . S
C143 C144 1.369 . S
C143 C145 1.419 . S
C143 H147 0.930 . S
C144 C143 1.369 . S
C144 C153 1.429 . S
C145 C143 1.419 . S
C145 C146 1.363 . S
C145 H148 0.929 . S
C146 C145 1.363 . S
C146 C152 1.428 . S
H147 C143 0.930 . S
H148 C145 0.929 . S
S149 N150 1.613 . S
S149 N151 1.610 . S
N150 S149 1.613 . S
N150 C153 1.350 . S
N151 S149 1.610 . S
N151 C152 1.351 . S
C152 C146 1.428 . S
C152 N151 1.351 . S
C152 C153 1.434 . S
C153 C144 1.429 . S
C153 N150 1.350 . S
C153 C152 1.434 . S
C154 C155 1.369 . S
C154 C156 1.419 . S
C154 H158 0.930 . S
C155 C154 1.369 . S
C155 C164 1.429 . S
C156 C154 1.419 . S
C156 C157 1.363 . S
C156 H159 0.929 . S
C157 C156 1.363 . S
C157 C163 1.428 . S
H158 C154 0.930 . S
H159 C156 0.929 . S
S160 N161 1.613 . S
S160 N162 1.610 . S
N161 S160 1.613 . S
N161 C164 1.350 . S
N162 S160 1.610 . S
N162 C163 1.351 . S
C163 C157 1.428 . S
C163 N162 1.351 . S
C163 C164 1.434 . S
C164 C155 1.429 . S
C164 N161 1.350 . S
C164 C163 1.434 . S
C165 C166 1.369 . S
C165 C167 1.419 . S
C165 H169 0.930 . S
C166 C165 1.369 . S
C166 C175 1.429 . S
C167 C165 1.419 . S
C167 C168 1.363 . S
C167 H170 0.929 . S
C168 C167 1.363 . S
C168 C174 1.428 . S
H169 C165 0.930 . S
H170 C167 0.929 . S
S171 N172 1.613 . S
S171 N173 1.610 . S
N172 S171 1.613 . S
N172 C175 1.350 . S
N173 S171 1.610 . S
N173 C174 1.351 . S
C174 C168 1.428 . S
C174 N173 1.351 . S
C174 C175 1.434 . S
C175 C166 1.429 . S
C175 N172 1.350 . S
C175 C174 1.434 . S
C176 C177 1.369 . S
C176 C178 1.419 . S
C176 H180 0.930 . S
C177 C176 1.369 . S
C177 C186 1.429 . S
C178 C176 1.419 . S
C178 C179 1.363 . S
C178 H181 0.929 . S
C179 C178 1.363 . S
C179 C185 1.428 . S
H180 C176 0.930 . S
H181 C178 0.929 . S
S182 N183 1.613 . S
S182 N184 1.610 . S
N183 S182 1.613 . S
N183 C186 1.350 . S
N184 S182 1.610 . S
N184 C185 1.351 . S
C185 C179 1.428 . S
C185 N184 1.351 . S
C185 C186 1.434 . S
C186 C177 1.429 . S
C186 N183 1.350 . S
C186 C185 1.434 . S
C187 C188 1.369 . S
C187 C189 1.419 . S
C187 H191 0.930 . S
C188 C187 1.369 . S
C188 C197 1.429 . S
C189 C187 1.419 . S
C189 C190 1.363 . S
C189 H192 0.929 . S
C190 C189 1.363 . S
C190 C196 1.428 . S
H191 C187 0.930 . S
H192 C189 0.929 . S
S193 N194 1.613 . S
S193 N195 1.610 . S
N194 S193 1.613 . S
N194 C197 1.350 . S
N195 S193 1.610 . S
N195 C196 1.351 . S
C196 C190 1.428 . S
C196 N195 1.351 . S
C196 C197 1.434 . S
C197 C188 1.429 . S
C197 N194 1.350 . S
C197 C196 1.434 . S
C198 C199 1.369 . S
C198 C200 1.419 . S
C198 H202 0.930 . S
C199 C198 1.369 . S
C199 C208 1.429 1_556 S
C200 C198 1.419 . S
C200 C201 1.363 1_556 S
C200 H203 0.929 . S
C201 C200 1.363 1_554 S
C201 C207 1.428 . S
H202 C198 0.930 . S
H203 C200 0.929 . S
S204 N205 1.613 . S
S204 N206 1.610 . S
N205 S204 1.613 . S
N205 C208 1.350 . S
N206 S204 1.610 . S
N206 C207 1.351 . S
C207 C201 1.428 . S
C207 N206 1.351 . S
C207 C208 1.434 . S
C208 C199 1.429 1_554 S
C208 N205 1.350 . S
C208 C207 1.434 . S
C209 C210 1.369 . S
C209 C211 1.419 . S
C209 H213 0.930 . S
C210 C209 1.369 . S
C210 C219 1.429 . S
C211 C209 1.419 . S
C211 C212 1.363 . S
C211 H214 0.929 . S
C212 C211 1.363 . S
C212 C218 1.428 . S
H213 C209 0.930 . S
H214 C211 0.929 . S
S215 N216 1.613 . S
S215 N217 1.610 . S
N216 S215 1.613 . S
N216 C219 1.350 . S
N217 S215 1.610 . S
N217 C218 1.351 . S
C218 C212 1.428 . S
C218 N217 1.351 . S
C218 C219 1.434 . S
C219 C210 1.429 . S
C219 N216 1.350 . S
C219 C218 1.434 . S
C220 C221 1.369 . S
C220 C222 1.419 . S
C220 H224 0.930 . S
C221 C220 1.369 . S
C221 C230 1.429 . S
C222 C220 1.419 . S
C222 C223 1.363 . S
C222 H225 0.929 . S
C223 C222 1.363 . S
C223 C229 1.428 . S
H224 C220 0.930 . S
H225 C222 0.929 . S
S226 N227 1.613 . S
S226 N228 1.610 . S
N227 S226 1.613 . S
N227 C230 1.350 . S
N228 S226 1.610 . S
N228 C229 1.351 . S
C229 C223 1.428 . S
C229 N228 1.351 . S
C229 C230 1.434 . S
C230 C221 1.429 . S
C230 N227 1.350 . S
C230 C229 1.434 . S
C231 C232 1.369 . S
C231 C233 1.419 . S
C231 H235 0.930 . S
C232 C231 1.369 . S
C232 C241 1.429 . S
C233 C231 1.419 . S
C233 C234 1.363 . S
C233 H236 0.929 . S
C234 C233 1.363 . S
C234 C240 1.428 . S
H235 C231 0.930 . S
H236 C233 0.929 . S
S237 N238 1.613 . S
S237 N239 1.610 . S
N238 S237 1.613 . S
N238 C241 1.350 . S
N239 S237 1.610 . S
N239 C240 1.351 . S
C240 C234 1.428 . S
C240 N239 1.351 . S
C240 C241 1.434 . S
C241 C232 1.429 . S
C241 N238 1.350 . S
C241 C240 1.434 . S
C242 C243 1.369 . S
C242 C244 1.419 . S
C242 H246 0.930 . S
C243 C242 1.369 . S
C243 C252 1.429 . S
C244 C242 1.419 . S
C244 C245 1.363 . S
C244 H247 0.929 . S
C245 C244 1.363 . S
C245 C251 1.428 . S
H246 C242 0.930 . S
H247 C244 0.929 . S
S248 N249 1.613 . S
S248 N250 1.610 . S
N249 S248 1.613 . S
N249 C252 1.350 . S
N250 S248 1.610 . S
N250 C251 1.351 . S
C251 C245 1.428 . S
C251 N250 1.351 . S
C251 C252 1.434 . S
C252 C243 1.429 . S
C252 N249 1.350 . S
C252 C251 1.434 . S
C253 C254 1.369 . S
C253 C255 1.419 . S
C253 H257 0.930 . S
C254 C253 1.369 . S
C254 C263 1.429 . S
C255 C253 1.419 . S
C255 C256 1.363 . S
C255 H258 0.929 . S
C256 C255 1.363 . S
C256 C262 1.428 . S
H257 C253 0.930 . S
H258 C255 0.929 . S
S259 N260 1.613 . S
S259 N261 1.610 . S
N260 S259 1.613 . S
N260 C263 1.350 . S
N261 S259 1.610 . S
N261 C262 1.351 . S
C262 C256 1.428 . S
C262 N261 1.351 . S
C262 C263 1.434 . S
C263 C254 1.429 . S
C263 N260 1.350 . S
C263 C262 1.434 . S
C264 C265 1.369 . S
C264 C266 1.419 . S
C264 H268 0.930 . S
C265 C264 1.369 . S
C265 C274 1.429 . S
C266 C264 1.419 . S
C266 C267 1.363 . S
C266 H269 0.929 . S
C267 C266 1.363 . S
C267 C273 1.428 . S
H268 C264 0.930 . S
H269 C266 0.929 . S
S270 N271 1.613 . S
S270 N272 1.610 . S
N271 S270 1.613 . S
N271 C274 1.350 . S
N272 S270 1.610 . S
N272 C273 1.351 . S
C273 C267 1.428 . S
C273 N272 1.351 . S
C273 C274 1.434 . S
C274 C265 1.429 . S
C274 N271 1.350 . S
C274 C273 1.434 . S
C275 C276 1.369 . S
C275 C277 1.419 . S
C275 H279 0.930 . S
C276 C275 1.369 . S
C276 C285 1.429 1_554 S
C277 C275 1.419 . S
C277 C278 1.363 1_554 S
C277 H280 0.929 . S
C278 C277 1.363 1_556 S
C278 C284 1.428 . S
H279 C275 0.930 . S
H280 C277 0.929 . S
S281 N282 1.613 . S
S281 N283 1.610 . S
N282 S281 1.613 . S
N282 C285 1.350 . S
N283 S281 1.610 . S
N283 C284 1.351 . S
C284 C278 1.428 . S
C284 N283 1.351 . S
C284 C285 1.434 . S
C285 C276 1.429 1_556 S
C285 N282 1.350 . S
C285 C284 1.434 . S
C286 C287 1.369 . S
C286 C288 1.419 . S
C286 H290 0.930 . S
C287 C286 1.369 . S
C287 C296 1.429 . S
C288 C286 1.419 . S
C288 C289 1.363 . S
C288 H291 0.929 . S
C289 C288 1.363 . S
C289 C295 1.428 . S
H290 C286 0.930 . S
H291 C288 0.929 . S
S292 N293 1.613 . S
S292 N294 1.610 . S
N293 S292 1.613 . S
N293 C296 1.350 . S
N294 S292 1.610 . S
N294 C295 1.351 . S
C295 C289 1.428 . S
C295 N294 1.351 . S
C295 C296 1.434 . S
C296 C287 1.429 . S
C296 N293 1.350 . S
C296 C295 1.434 . S
C297 C298 1.369 . S
C297 C299 1.419 . S
C297 H301 0.930 . S
C298 C297 1.369 . S
C298 C307 1.429 . S
C299 C297 1.419 . S
C299 C300 1.363 . S
C299 H302 0.929 . S
C300 C299 1.363 . S
C300 C306 1.428 . S
H301 C297 0.930 . S
H302 C299 0.929 . S
S303 N304 1.613 . S
S303 N305 1.610 . S
N304 S303 1.613 . S
N304 C307 1.350 . S
N305 S303 1.610 . S
N305 C306 1.351 . S
C306 C300 1.428 . S
C306 N305 1.351 . S
C306 C307 1.434 . S
C307 C298 1.429 . S
C307 N304 1.350 . S
C307 C306 1.434 . S
C308 C309 1.369 . S
C308 C310 1.419 . S
C308 H312 0.930 . S
C309 C308 1.369 . S
C309 C318 1.429 . S
C310 C308 1.419 . S
C310 C311 1.363 . S
C310 H313 0.929 . S
C311 C310 1.363 . S
C311 C317 1.428 . S
H312 C308 0.930 . S
H313 C310 0.929 . S
S314 N315 1.613 . S
S314 N316 1.610 1_655 S
N315 S314 1.613 . S
N315 C318 1.350 1_655 S
N316 S314 1.610 1_455 S
N316 C317 1.351 . S
C317 C311 1.428 . S
C317 N316 1.351 . S
C317 C318 1.434 . S
C318 C309 1.429 . S
C318 N315 1.350 1_455 S
C318 C317 1.434 . S
C319 C320 1.369 . S
C319 C321 1.419 . S
C319 H323 0.930 . S
C320 C319 1.369 . S
C320 C329 1.429 . S
C321 C319 1.419 . S
C321 C322 1.363 . S
C321 H324 0.929 . S
C322 C321 1.363 . S
C322 C328 1.428 . S
H323 C319 0.930 . S
H324 C321 0.929 . S
S325 N326 1.613 . S
S325 N327 1.610 1_565 S
N326 S325 1.613 . S
N326 C329 1.350 1_565 S
N327 S325 1.610 1_545 S
N327 C328 1.351 . S
C328 C322 1.428 . S
C328 N327 1.351 . S
C328 C329 1.434 . S
C329 C320 1.429 . S
C329 N326 1.350 1_545 S
C329 C328 1.434 . S
C133 C18 0.984 . S
C135 C52 0.985 . S
C144 C37 1.102 . S
C146 C73 1.102 . S
C155 C106 1.047 . S
C157 C51 1.040 . S
C166 C118 0.985 . S
C168 C74 0.985 . S
C177 C15 1.099 . S
C179 C103 1.098 . S
C188 C40 1.047 . S
C190 C117 1.039 . S
C199 C125 1.434 . S
C201 C10 1.460 . S
C210 C8 1.459 1_655 S
C212 C29 1.429 . S
C221 C65 1.447 . S
C223 C43 1.459 1_565 S
C232 C84 1.457 . S
C234 C59 1.432 . S
C243 C95 1.425 . S
C245 C76 1.453 1_455 S
C254 C131 1.446 . S
C256 C109 1.461 1_545 S
C265 C98 1.425 . S
C267 C120 1.424 . S
C276 C21 1.428 1_655 S
C278 C128 1.451 . S
C287 C30 1.453 1_565 S
C289 C7 1.420 . S
C298 C32 1.432 . S
C300 C54 1.425 . S
C309 C81 1.433 1_455 S
C311 C62 1.453 . S
C320 C96 1.448 1_545 S
C322 C87 1.426 . S
