# Generated by pormake.
# Topology whw, (6)-cn, num edge types: 1
# Building blocks:
#     Node 0, Type 0, BuildingBlock: PAMTOO_clean_sbu_0, # of connection points: 6
#     Node 1, Type 0, BuildingBlock: PAMTOO_clean_sbu_0, # of connection points: 6
#     Node 2, Type 0, BuildingBlock: PAMTOO_clean_sbu_0, # of connection points: 6
#     Node 3, Type 0, BuildingBlock: PAMTOO_clean_sbu_0, # of connection points: 6
#     Node 4, Type 0, BuildingBlock: PAMTOO_clean_sbu_0, # of connection points: 6
#     Node 5, Type 0, BuildingBlock: PAMTOO_clean_sbu_0, # of connection points: 6
#     Node 6, Type 0, BuildingBlock: PAMTOO_clean_sbu_0, # of connection points: 6
#     Node 7, Type 0, BuildingBlock: PAMTOO_clean_sbu_0, # of connection points: 6
#     Node 8, Type 0, BuildingBlock: PAMTOO_clean_sbu_0, # of connection points: 6
#     Node 9, Type 0, BuildingBlock: PAMTOO_clean_sbu_0, # of connection points: 6
#     Node 10, Type 0, BuildingBlock: PAMTOO_clean_sbu_0, # of connection points: 6
#     Node 11, Type 0, BuildingBlock: PAMTOO_clean_sbu_0, # of connection points: 6
#     Node 12, Type 0, BuildingBlock: PAMTOO_clean_sbu_0, # of connection points: 6
#     Node 13, Type 0, BuildingBlock: PAMTOO_clean_sbu_0, # of connection points: 6
#     Node 14, Type 0, BuildingBlock: PAMTOO_clean_sbu_0, # of connection points: 6
#     Node 15, Type 0, BuildingBlock: PAMTOO_clean_sbu_0, # of connection points: 6
#     Edge 16, Type (0, 0), BuildingBlock: UVAHIK_clean_linker_0, # of connection points: 2
#     Edge 17, Type (0, 0), BuildingBlock: UVAHIK_clean_linker_0, # of connection points: 2
#     Edge 18, Type (0, 0), BuildingBlock: UVAHIK_clean_linker_0, # of connection points: 2
#     Edge 19, Type (0, 0), BuildingBlock: UVAHIK_clean_linker_0, # of connection points: 2
#     Edge 20, Type (0, 0), BuildingBlock: UVAHIK_clean_linker_0, # of connection points: 2
#     Edge 21, Type (0, 0), BuildingBlock: UVAHIK_clean_linker_0, # of connection points: 2
#     Edge 22, Type (0, 0), BuildingBlock: UVAHIK_clean_linker_0, # of connection points: 2
#     Edge 23, Type (0, 0), BuildingBlock: UVAHIK_clean_linker_0, # of connection points: 2
#     Edge 24, Type (0, 0), BuildingBlock: UVAHIK_clean_linker_0, # of connection points: 2
#     Edge 25, Type (0, 0), BuildingBlock: UVAHIK_clean_linker_0, # of connection points: 2
#     Edge 26, Type (0, 0), BuildingBlock: UVAHIK_clean_linker_0, # of connection points: 2
#     Edge 27, Type (0, 0), BuildingBlock: UVAHIK_clean_linker_0, # of connection points: 2
#     Edge 28, Type (0, 0), BuildingBlock: UVAHIK_clean_linker_0, # of connection points: 2
#     Edge 29, Type (0, 0), BuildingBlock: UVAHIK_clean_linker_0, # of connection points: 2
#     Edge 30, Type (0, 0), BuildingBlock: UVAHIK_clean_linker_0, # of connection points: 2
#     Edge 31, Type (0, 0), BuildingBlock: UVAHIK_clean_linker_0, # of connection points: 2
#     Edge 32, Type (0, 0), BuildingBlock: UVAHIK_clean_linker_0, # of connection points: 2
#     Edge 33, Type (0, 0), BuildingBlock: UVAHIK_clean_linker_0, # of connection points: 2
#     Edge 34, Type (0, 0), BuildingBlock: UVAHIK_clean_linker_0, # of connection points: 2
#     Edge 35, Type (0, 0), BuildingBlock: UVAHIK_clean_linker_0, # of connection points: 2
#     Edge 36, Type (0, 0), BuildingBlock: UVAHIK_clean_linker_0, # of connection points: 2
#     Edge 37, Type (0, 0), BuildingBlock: UVAHIK_clean_linker_0, # of connection points: 2
#     Edge 38, Type (0, 0), BuildingBlock: UVAHIK_clean_linker_0, # of connection points: 2
#     Edge 39, Type (0, 0), BuildingBlock: UVAHIK_clean_linker_0, # of connection points: 2
#     Edge 40, Type (0, 0), BuildingBlock: UVAHIK_clean_linker_0, # of connection points: 2
#     Edge 41, Type (0, 0), BuildingBlock: UVAHIK_clean_linker_0, # of connection points: 2
#     Edge 42, Type (0, 0), BuildingBlock: UVAHIK_clean_linker_0, # of connection points: 2
#     Edge 43, Type (0, 0), BuildingBlock: UVAHIK_clean_linker_0, # of connection points: 2
#     Edge 44, Type (0, 0), BuildingBlock: UVAHIK_clean_linker_0, # of connection points: 2
#     Edge 45, Type (0, 0), BuildingBlock: UVAHIK_clean_linker_0, # of connection points: 2
#     Edge 46, Type (0, 0), BuildingBlock: UVAHIK_clean_linker_0, # of connection points: 2
#     Edge 47, Type (0, 0), BuildingBlock: UVAHIK_clean_linker_0, # of connection points: 2
#     Edge 48, Type (0, 0), BuildingBlock: UVAHIK_clean_linker_0, # of connection points: 2
#     Edge 49, Type (0, 0), BuildingBlock: UVAHIK_clean_linker_0, # of connection points: 2
#     Edge 50, Type (0, 0), BuildingBlock: UVAHIK_clean_linker_0, # of connection points: 2
#     Edge 51, Type (0, 0), BuildingBlock: UVAHIK_clean_linker_0, # of connection points: 2
#     Edge 52, Type (0, 0), BuildingBlock: UVAHIK_clean_linker_0, # of connection points: 2
#     Edge 53, Type (0, 0), BuildingBlock: UVAHIK_clean_linker_0, # of connection points: 2
#     Edge 54, Type (0, 0), BuildingBlock: UVAHIK_clean_linker_0, # of connection points: 2
#     Edge 55, Type (0, 0), BuildingBlock: UVAHIK_clean_linker_0, # of connection points: 2
#     Edge 56, Type (0, 0), BuildingBlock: UVAHIK_clean_linker_0, # of connection points: 2
#     Edge 57, Type (0, 0), BuildingBlock: UVAHIK_clean_linker_0, # of connection points: 2
#     Edge 58, Type (0, 0), BuildingBlock: UVAHIK_clean_linker_0, # of connection points: 2
#     Edge 59, Type (0, 0), BuildingBlock: UVAHIK_clean_linker_0, # of connection points: 2
#     Edge 60, Type (0, 0), BuildingBlock: UVAHIK_clean_linker_0, # of connection points: 2
#     Edge 61, Type (0, 0), BuildingBlock: UVAHIK_clean_linker_0, # of connection points: 2
#     Edge 62, Type (0, 0), BuildingBlock: UVAHIK_clean_linker_0, # of connection points: 2
#     Edge 63, Type (0, 0), BuildingBlock: UVAHIK_clean_linker_0, # of connection points: 2
# Relax obj value: 0.665
# Max RMSD: 0.192
# Mean RMSD: 0.192
data_MOF--net-whw--node1-PAMTOO_clean_sbu_0--edge1-UVAHIK_clean_linker_0
_symmetry_space_group_name_H-M    P1
_symmetry_Int_Tables_number       1
_symmetry_cell_setting            triclinic
loop_
_symmetry_equiv_pos_as_xyz
'x, y, z'
_cell_length_a     63.017897
_cell_length_b     62.532114
_cell_length_c     36.702041
_cell_angle_alpha  89.692386
_cell_angle_beta   90.046592
_cell_angle_gamma 90.570612
loop_
_atom_site_label
_atom_site_type_symbol
_atom_site_fract_x
_atom_site_fract_y
_atom_site_fract_z
_atom_type_partial_charge
Dy0 Dy -0.00237 0.12914 0.21516 0.0
Dy1 Dy 0.04634 0.13923 0.1899 0.0
C2 C 0.01854 0.17377 0.22882 0.0
O3 O -0.0057 0.13972 0.15581 0.0
O4 O 0.02718 0.15452 0.14358 0.0
O5 O 0.96951 0.13661 0.24563 0.0
O6 O 0.96889 0.11055 0.20692 0.0
O7 O 0.03802 0.10661 0.16755 0.0
O8 O 0.01211 0.0967 0.20743 0.0
O9 O 0.04836 0.13674 0.25239 0.0
O10 O 0.0138 0.1316 0.27084 0.0
O11 O 0.07845 0.12991 0.19998 0.0
O12 O 0.07184 0.15381 0.15847 0.0
C13 C 0.00704 0.15112 0.1343 0.0
O14 O 0.00283 0.16434 0.21166 0.0
O15 O 0.03791 0.16718 0.22364 0.0
C16 C 0.94807 0.10644 0.25994 0.0
C17 C 0.92505 0.08217 0.31183 0.0
C18 C 0.94229 0.09523 0.32252 0.0
C19 C 0.95375 0.1071 0.29687 0.0
C20 C 0.93146 0.09285 0.24885 0.0
C21 C 0.92009 0.08074 0.27452 0.0
C22 C 0.95886 0.12025 0.233 0.0
C23 C 0.02562 0.09175 0.18168 0.0
C24 C 0.03404 0.13517 0.27885 0.0
C25 C 0.1001 0.12933 0.14909 0.0
C26 C 0.12409 0.09958 0.10957 0.0
C27 C 0.13145 0.10726 0.14323 0.0
C28 C 0.11955 0.12205 0.16276 0.0
C29 C 0.093 0.12224 0.11503 0.0
C30 C 0.10499 0.10769 1.09529 0.0
C31 C 0.0861 0.14138 0.17325 0.0
H32 H 0.9464 0.0972 0.35095 0.0
H33 H 0.96663 0.11729 0.30619 0.0
H34 H 0.92698 0.09196 0.22038 0.0
H35 H 0.90713 0.07067 0.26522 0.0
H36 H 0.14599 0.10133 0.15511 0.0
H37 H 0.12509 0.1271 0.18935 0.0
H38 H 0.07789 0.12741 0.10415 0.0
H39 H 0.09911 0.10261 1.06896 0.0
Dy40 Dy 0.10428 0.73487 0.48089 0.0
Dy41 Dy 0.09303 0.78371 0.45422 0.0
C42 C 0.05921 0.75259 0.4877 0.0
O43 O 0.09717 0.73156 0.42003 0.0
O44 O 0.08123 0.76367 0.40621 0.0
O45 O 0.09507 0.7063 0.51001 0.0
O46 O 0.12334 0.70638 0.47636 0.0
O47 O 0.12592 0.77648 0.4334 0.0
O48 O 0.13623 0.75054 0.47333 0.0
O49 O 0.0944 0.78621 0.51644 0.0
O50 O 0.09926 0.75154 0.5359 0.0
O51 O 0.10223 0.81649 0.46199 0.0
O52 O 0.07728 0.80853 0.42324 0.0
C53 C 0.08631 0.74383 0.39715 0.0
O54 O 0.07012 0.739 0.46872 0.0
O55 O 0.06473 0.77276 0.48578 0.0
C56 C 0.12294 0.68314 0.52764 0.0
C57 C 0.14126 0.65539 0.57951 0.0
C58 C 0.12701 0.67137 0.59034 0.0
C59 C 0.11802 0.68513 0.56474 0.0
C60 C 0.13767 0.66773 0.51682 0.0
C61 C 0.14682 0.65403 0.54251 0.0
C62 C 0.11171 0.6957 0.49967 0.0
C63 C 0.14084 0.76443 0.44748 0.0
C64 C 0.09526 0.77189 0.5432 0.0
C65 C 0.10146 0.83693 0.40913 0.0
C66 C 0.12998 0.8598 0.36405 0.0
C67 C 0.12403 0.86806 0.39804 0.0
C68 C 0.10987 0.8567 0.42035 0.0
C69 C 0.1068 0.82898 0.37475 0.0
C70 C 0.12074 0.84041 0.35232 0.0
C71 C 0.09013 0.8234 0.4357 0.0
H72 H 0.12201 0.67269 0.61845 0.0
H73 H 0.10669 0.69685 0.57394 0.0
H74 H 0.14169 0.66592 0.48831 0.0
H75 H 0.15791 0.64211 0.53326 0.0
H76 H 0.13085 0.88289 0.40795 0.0
H77 H 0.10618 0.8629 0.4471 0.0
H78 H 0.10076 0.81363 0.36566 0.0
H79 H 0.12446 0.83386 0.32585 0.0
Dy80 Dy 0.49216 0.84643 0.72101 0.0
Dy81 Dy 0.44479 0.83497 0.69688 0.0
C82 C 0.47169 0.80151 0.74575 0.0
O83 O 0.49882 0.82621 0.67128 0.0
O84 O 0.46503 0.82418 0.64813 0.0
O85 O 0.52602 0.84323 0.72692 0.0
O86 O 0.51069 0.87332 0.73993 0.0
O87 O 0.44811 0.87097 0.69473 0.0
O88 O 0.48209 0.86988 0.67779 0.0
O89 O 0.44094 0.83364 0.75809 0.0
O90 O 0.47323 0.84749 0.77558 0.0
O91 O 0.41105 0.83562 0.70662 0.0
O92 O 0.42276 0.82517 0.65464 0.0
C93 C 0.48569 0.8206 0.64486 0.0
O94 O 0.48784 0.81491 0.74737 0.0
O95 O 0.45517 0.80456 0.72421 0.0
C96 C 0.54294 0.86592 0.76957 0.0
C97 C 0.57129 0.87295 0.8276 0.0
C98 C 0.55534 0.85706 0.83021 0.0
C99 C 0.54121 0.85361 0.80142 0.0
C100 C 0.55875 0.88175 0.7668 0.0
C101 C 0.57283 0.88526 0.79556 0.0
C102 C 0.52847 0.86276 0.73885 0.0
C103 C 0.46429 0.88029 0.67885 0.0
C104 C 0.45404 0.83971 0.7842 0.0
C105 C 0.39208 0.84628 0.65517 0.0
C106 C 0.36585 0.87586 0.6192 0.0
C107 C 0.38593 0.88214 0.63218 0.0
C108 C 0.39893 0.86746 0.64977 0.0
C109 C 0.37176 0.84007 0.64363 0.0
C110 C 0.35871 0.85476 0.6257 0.0
C111 C 0.40617 0.83094 0.67319 0.0
H112 H 0.55393 0.84709 0.85433 0.0
H113 H 0.52903 0.84133 0.80394 0.0
H114 H 0.56018 0.89145 0.74234 0.0
H115 H 0.58473 0.89777 0.79286 0.0
H116 H 0.39182 0.89829 0.62792 0.0
H117 H 0.41449 0.87259 0.65862 0.0
H118 H 0.36618 0.8238 0.6478 0.0
H119 H 0.34344 0.84935 0.61556 0.0
Dy120 Dy 0.38316 0.23891 0.96659 0.0
Dy121 Dy 0.39434 0.19085 0.94282 0.0
C122 C 0.427 0.21843 0.99262 0.0
O123 O 0.40423 0.24483 0.9172 0.0
O124 O 0.40353 0.21114 0.89279 0.0
O125 O 0.38769 0.27305 0.97054 0.0
O126 O 0.35745 0.25837 0.98558 0.0
O127 O 0.35879 0.1929 0.93589 0.0
O128 O 0.35833 0.22856 0.92615 0.0
O129 O 0.3941 0.18746 1.00425 0.0
O130 O 0.38139 0.22017 1.0215 0.0
O131 O 0.39299 0.15706 0.95429 0.0
O132 O 0.40659 0.16828 0.90369 0.0
C133 C 0.40847 0.23176 0.89004 0.0
O134 O 0.41349 0.23417 0.99517 0.0
O135 O 0.42444 0.20247 0.96955 0.0
C136 C 0.36645 0.29095 1.01359 0.0
C137 C 0.361 0.31972 1.0714 0.0
C138 C 0.37625 0.30342 1.07371 0.0
C139 C 0.37891 0.28909 1.04504 0.0
C140 C 0.35134 0.30716 1.01105 0.0
C141 C 0.34861 0.32144 1.0397 0.0
C142 C 0.36859 0.27605 0.98325 0.0
C143 C 0.34895 0.20987 0.9238 0.0
C144 C 0.38839 0.20071 1.03022 0.0
C145 C 0.38589 0.13662 0.90311 0.0
C146 C 0.35703 0.10748 0.8715 0.0
C147 C 0.3751 0.10009 0.89007 0.0
C148 C 0.38938 0.11458 0.9059 0.0
C149 C 0.36784 0.14406 0.88491 0.0
C150 C 0.35356 0.12965 0.86921 0.0
C151 C 0.39981 0.15174 0.92226 0.0
H152 H 0.38627 0.30186 0.09755 0.0
H153 H 0.39064 0.27659 1.04738 0.0
H154 H 0.34152 0.30868 0.98693 0.0
H155 H 0.33657 0.3336 1.03726 0.0
H156 H 0.37818 0.08312 0.89232 0.0
H157 H 0.40306 0.1086 0.92052 0.0
H158 H 0.36476 0.16104 0.88289 0.0
H159 H 0.34008 0.13593 0.85443 0.0
Dy160 Dy 0.98151 0.85194 0.97508 0.0
Dy161 Dy 0.02513 0.83009 0.9981 0.0
C162 C -0.0137 0.8037 0.96146 0.0
O163 O 0.97704 0.84132 1.03523 0.0
O164 O 0.00335 0.81644 1.04097 0.0
O165 O 0.95177 0.85348 0.94657 0.0
O166 O 0.96054 0.87867 0.98421 0.0
O167 O 0.02405 0.86277 1.0252 0.0
O168 O 0.00498 0.87866 0.98104 0.0
O169 O 0.03024 0.83547 0.93782 0.0
O170 O -0.0028 0.84563 0.91893 0.0
O171 O 0.05845 0.82906 0.9863 0.0
O172 O 0.04581 0.81018 1.03097 0.0
C173 C -0.01404 0.82528 1.05356 0.0
O174 O 0.97362 0.8176 0.9758 0.0
O175 O 0.00706 0.80609 0.96392 0.0
C176 C 0.94067 0.88829 0.93213 0.0
C177 C 0.92315 0.91425 0.87699 0.0
C178 C 0.94022 0.90055 0.86943 0.0
C179 C 0.94897 0.88784 0.89675 0.0
C180 C 0.92483 0.90301 0.94062 0.0
C181 C 0.91624 0.91603 0.91334 0.0
C182 C 0.94718 0.87231 0.95929 0.0
C183 C 0.01689 0.88037 1.01002 0.0
C184 C 0.01675 0.83916 0.91115 0.0
C185 C 0.07983 0.8269 1.03767 0.0
C186 C 0.10967 0.85251 1.07517 0.0
C187 C 0.11403 0.84527 1.03981 0.0
C188 C 0.09927 0.83251 1.02134 0.0
C189 C 0.07588 0.8332 1.07362 0.0
C190 C 0.09074 0.84569 1.09228 0.0
C191 C 0.06289 0.81759 1.01492 0.0
H192 H 0.94593 0.89834 0.84193 0.0
H193 H 0.96142 0.87677 0.8897 0.0
H194 H 0.91847 0.90378 0.96799 0.0
H195 H 0.9035 0.92672 0.92044 0.0
H196 H 0.12838 0.85021 1.02578 0.0
H197 H 0.10257 0.82794 0.99348 0.0
H198 H 0.061 0.8292 1.08688 0.0
H199 H 0.08715 0.85037 0.11994 0.0
Dy200 Dy 0.38258 0.73357 0.22521 0.0
Dy201 Dy 0.39362 0.78161 0.24892 0.0
C202 C 0.4267 0.75494 0.2 0.0
O203 O 0.40299 0.72713 0.27488 0.0
O204 O 0.40567 0.76133 0.2971 0.0
O205 O 0.3863 0.69951 0.22005 0.0
O206 O 0.35625 0.71443 0.20601 0.0
O207 O 0.35798 0.77782 0.25247 0.0
O208 O 0.3595 0.74333 0.26863 0.0
O209 O 0.39366 0.78559 0.18765 0.0
O210 O 0.38109 0.75256 0.17043 0.0
O211 O 0.39509 0.81551 0.23771 0.0
O212 O 0.40125 0.80396 0.29201 0.0
C213 C 0.40902 0.74048 0.30077 0.0
O214 O 0.41348 0.73861 0.19821 0.0
O215 O 0.42384 0.77123 0.22215 0.0
C216 C 0.36445 0.68207 0.17688 0.0
C217 C 0.35892 0.65314 0.11916 0.0
C218 C 0.37415 0.66975 0.11676 0.0
C219 C 0.37686 0.68416 0.1454 0.0
C220 C 0.34926 0.66564 0.1794 0.0
C221 C 0.34649 0.65128 0.15079 0.0
C222 C 0.36705 0.6967 0.20758 0.0
C223 C 0.34913 0.76127 0.26845 0.0
C224 C 0.3881 0.77216 0.16167 0.0
C225 C 0.38215 0.83586 0.2859 0.0
C226 C 0.35242 0.86359 0.3172 0.0
C227 C 0.34576 0.84415 0.30175 0.0
C228 C 0.3605 0.83044 0.28625 0.0
C229 C 0.3888 0.85564 0.29978 0.0
C230 C 0.37403 0.86946 0.31529 0.0
C231 C 0.39766 0.82066 0.27167 0.0
H232 H 0.38419 0.67144 1.09296 0.0
H233 H 0.38867 0.69681 0.14308 0.0
H234 H 0.3395 0.66392 0.20357 0.0
H235 H 0.33446 0.63886 0.15329 0.0
H236 H 0.32923 0.83924 0.30269 0.0
H237 H 0.35502 0.81539 0.27529 0.0
H238 H 0.40545 0.86012 0.29954 0.0
H239 H 0.37966 0.8842 0.32745 0.0
Dy240 Dy 0.49334 0.12734 0.46978 0.0
Dy241 Dy 0.44639 0.14165 0.49357 0.0
C242 C 0.47501 0.17268 0.44221 0.0
O243 O 0.49691 0.13943 0.52842 0.0
O244 O 0.46625 0.1581 0.5372 0.0
O245 O 0.52729 0.13244 0.47133 0.0
O246 O 0.51421 0.1026 0.45105 0.0
O247 O 0.4517 0.10971 0.52165 0.0
O248 O 0.47652 0.09666 0.48336 0.0
O249 O 0.44329 0.1362 0.43216 0.0
O250 O 0.47751 0.13036 0.41341 0.0
O251 O 0.4134 0.13541 0.48291 0.0
O252 O 0.42237 0.15797 0.52491 0.0
C253 C 0.48565 0.15309 0.54778 0.0
O254 O 0.49103 0.15943 0.44425 0.0
O255 O 0.45734 0.16994 0.46087 0.0
C256 C 0.54749 0.11332 0.42848 0.0
C257 C 0.57797 0.10992 0.37296 0.0
C258 C 0.56091 0.12418 0.36934 0.0
C259 C 0.54572 0.12582 0.39688 0.0
C260 C 0.56461 0.09939 0.43254 0.0
C261 C 0.57975 0.09769 0.40502 0.0
C262 C 0.53134 0.11388 0.45703 0.0
C263 C 0.46291 0.0936 0.50976 0.0
C264 C 0.45727 0.13403 0.40551 0.0
C265 C 0.39127 0.13666 0.53329 0.0
C266 C 0.36203 0.11137 0.57299 0.0
C267 C 0.35578 0.12176 0.54071 0.0
C268 C 0.37029 0.1343 0.52108 0.0
C269 C 0.39757 0.12656 0.56563 0.0
C270 C 0.38304 0.11419 0.58546 0.0
C271 C 0.40687 0.14729 0.50955 0.0
H272 H 0.55927 0.13406 0.3452 0.0
H273 H 0.53254 0.13664 0.3934 0.0
H274 H 0.56608 0.08956 0.45681 0.0
H275 H 0.59253 0.0864 0.40846 0.0
H276 H 0.33983 0.11983 0.53017 0.0
H277 H 0.3653 0.14168 0.49573 0.0
H278 H 0.41379 0.12789 0.5752 0.0
H279 H 0.3883 0.10688 0.61066 0.0
Dy280 Dy 0.10192 0.23826 0.72127 0.0
Dy281 Dy 0.0892 0.18931 0.74449 0.0
C282 C 0.05717 0.2203 0.70685 0.0
O283 O 0.09263 0.24059 0.78154 0.0
O284 O 0.07438 0.20886 0.79031 0.0
O285 O 0.09377 0.26776 0.69463 0.0
O286 O 0.12252 0.26603 0.72697 0.0
O287 O 0.12149 0.19634 0.76908 0.0
O288 O 0.1331 0.22164 0.72889 0.0
O289 O 0.09411 0.1875 0.68273 0.0
O290 O 0.09885 0.22256 0.66501 0.0
O291 O 0.0965 0.15651 0.73413 0.0
O292 O 0.07273 0.16421 0.77462 0.0
C293 C 0.07965 0.22838 0.80147 0.0
O294 O 0.06715 0.23407 0.72736 0.0
O295 O 0.06271 0.20025 0.709 0.0
C296 C 0.12284 0.28923 0.67575 0.0
C297 C 0.14177 0.31489 0.621 0.0
C298 C 0.12889 0.29716 0.61183 0.0
C299 C 0.11966 0.2844 0.63886 0.0
C300 C 0.13628 0.30634 0.68517 0.0
C301 C 0.14575 0.31902 0.65806 0.0
C302 C 0.11125 0.27747 0.70447 0.0
C303 C 0.13705 0.20789 0.75512 0.0
C304 C 0.09582 0.20214 0.65656 0.0
C305 C 0.0947 0.13375 0.784 0.0
C306 C 0.12183 0.1067 0.82378 0.0
C307 C 0.11458 0.10074 0.78904 0.0
C308 C 0.10109 0.11414 0.76941 0.0
C309 C 0.10123 0.13943 0.81916 0.0
C310 C 0.11448 0.12592 0.83901 0.0
C311 C 0.08422 0.14921 0.75993 0.0
H312 H 0.12506 0.29363 0.58373 0.0
H313 H 0.10943 0.27121 0.63082 0.0
H314 H 0.13902 0.31023 0.71353 0.0
H315 H 0.1558 0.33231 0.66616 0.0
H316 H 0.11996 0.08617 0.77639 0.0
H317 H 0.09643 0.10964 0.74205 0.0
H318 H 0.0967 0.15459 0.83083 0.0
H319 H 0.11923 0.13074 0.86613 0.0
Dy320 Dy 0.88411 0.23393 0.72145 0.0
Dy321 Dy 0.89536 0.28228 0.74294 0.0
C322 C 0.92795 0.25478 0.69415 0.0
O323 O 0.90582 0.22894 0.77003 0.0
O324 O 0.90431 0.26267 0.79392 0.0
O325 O 0.8883 0.19979 0.71908 0.0
O326 O 0.8582 0.21389 0.70327 0.0
O327 O 0.8598 0.27946 0.74913 0.0
O328 O 0.86019 0.24442 0.76321 0.0
O329 O 0.89487 0.28508 0.6814 0.0
O330 O 0.8822 0.25181 0.66581 0.0
O331 O 0.89265 0.31592 0.73119 0.0
O332 O 0.90853 0.30564 0.78031 0.0
C333 C 0.90975 0.24227 0.79703 0.0
O334 O 0.91441 0.23874 0.69243 0.0
O335 O 0.92532 0.27119 0.71612 0.0
C336 C 0.86728 0.18128 0.67608 0.0
C337 C 0.86236 0.15208 0.61861 0.0
C338 C 0.87703 0.16918 0.61587 0.0
C339 C 0.87942 0.18372 0.64437 0.0
C340 C 0.85275 0.16427 0.67908 0.0
C341 C 0.85029 0.14976 0.65059 0.0
C342 C 0.86923 0.19638 0.70622 0.0
C343 C 0.85041 0.26275 0.76372 0.0
C344 C 0.88897 0.27133 0.65614 0.0
C345 C 0.88661 0.33643 0.78294 0.0
C346 C 0.85612 0.36227 0.81713 0.0
C347 C 0.8642 0.36792 0.78269 0.0
C348 C 0.87934 0.35514 0.76582 0.0
C349 C 0.87893 0.33101 0.81766 0.0
C350 C 0.86399 0.34387 0.83465 0.0
C351 C 0.90026 0.32169 0.76258 0.0
H352 H 0.8868 0.17122 0.59182 0.0
H353 H 0.8907 0.19683 0.64169 0.0
H354 H 0.8432 0.16228 0.70343 0.0
H355 H 0.83871 0.13695 0.65337 0.0
H356 H 0.8585 0.38194 0.76842 0.0
H357 H 0.88494 0.35951 0.73886 0.0
H358 H 0.88412 0.31664 0.83149 0.0
H359 H 0.85864 0.33935 0.86167 0.0
Dy360 Dy 0.60031 0.73488 0.22793 0.0
Dy361 Dy 0.58764 0.68603 0.2504 0.0
C362 C 0.55514 0.71764 0.21468 0.0
O363 O 0.59155 0.73694 0.28832 0.0
O364 O 0.57206 0.70595 0.29527 0.0
O365 O 0.59333 0.76417 0.1995 0.0
O366 O 0.62036 0.76277 0.23599 0.0
O367 O 0.62075 0.69161 0.27255 0.0
O368 O 0.63168 0.71868 0.23504 0.0
O369 O 0.59429 0.68384 0.18904 0.0
O370 O 0.59608 0.71919 0.1718 0.0
O371 O 0.58787 0.65282 0.23559 0.0
O372 O 0.57549 0.66189 0.28799 0.0
C373 C 0.57801 0.72504 0.30754 0.0
O374 O 0.5655 0.73155 0.23439 0.0
O375 O 0.56065 0.69756 0.21655 0.0
C376 C 0.62343 0.78528 0.1844 0.0
C377 C 0.64581 0.80984 0.13214 0.0
C378 C 0.63322 0.79218 0.12155 0.0
C379 C 0.62227 0.77996 0.14739 0.0
C380 C 0.63665 0.80224 0.19537 0.0
C381 C 0.64783 0.81437 0.1695 0.0
C382 C 0.61028 0.77397 0.21156 0.0
C383 C 0.63595 0.70411 0.2598 0.0
C384 C 0.59434 0.69867 0.16302 0.0
C385 C 0.59585 0.63045 0.28458 0.0
C386 C 0.6231 0.60082 0.31814 0.0
C387 C 0.63145 0.6182 0.2982 0.0
C388 C 0.61796 0.63293 0.28178 0.0
C389 C 0.58739 0.61283 0.30344 0.0
C390 C 0.6009 0.59813 0.32017 0.0
C391 C 0.58178 0.6462 0.26754 0.0
H392 H 0.63086 0.78835 1.09309 0.0
H393 H 0.61232 0.76682 0.13822 0.0
H394 H 0.6379 0.80645 0.2239 0.0
H395 H 0.65759 0.82763 0.1787 0.0
H396 H 0.64844 0.62066 0.29584 0.0
H397 H 0.62484 0.64639 0.26712 0.0
H398 H 0.57036 0.61067 0.30578 0.0
H399 H 0.59393 0.58515 0.3359 0.0
Dy400 Dy 0.60298 0.23782 0.96597 0.0
Dy401 Dy 0.59181 0.28675 0.94303 0.0
C402 C 0.55833 0.25553 0.97846 0.0
O403 O 0.59349 0.2352 0.90594 0.0
O404 O 0.57727 0.26756 0.89587 0.0
O405 O 0.59573 0.20866 0.99501 0.0
O406 O 0.62236 0.2099 0.95763 0.0
O407 O 0.62416 0.27993 0.91918 0.0
O408 O 0.63463 0.25415 0.95899 0.0
O409 O 0.59661 0.28855 1.00498 0.0
O410 O 0.59904 0.25328 1.02223 0.0
O411 O 0.59987 0.31953 0.95354 0.0
O412 O 0.57583 0.31195 0.91313 0.0
C413 C 0.5816 0.24779 0.88521 0.0
O414 O 0.56833 0.24158 0.95872 0.0
O415 O 0.56466 0.27549 0.97718 0.0
C416 C 0.62604 0.18852 1.01027 0.0
C417 C 0.6501 0.16663 1.06323 0.0
C418 C 0.63742 0.18415 1.07293 0.0
C419 C 0.62567 0.19506 1.04673 0.0
C420 C 0.6392 0.17162 1.00008 0.0
C421 C 0.65121 0.1608 1.02629 0.0
C422 C 0.61251 0.19893 0.98288 0.0
C423 C 0.6392 0.26792 0.93299 0.0
C424 C 0.597 0.27373 1.03099 0.0
C425 C 0.59873 0.34206 0.90335 0.0
C426 C 0.62677 0.36842 0.86315 0.0
C427 C 0.61951 0.37487 0.89752 0.0
C428 C 0.60557 0.36179 0.91739 0.0
C429 C 0.6053 0.33591 0.86853 0.0
C430 C 0.61901 0.34907 0.84848 0.0
C431 C 0.58778 0.32688 0.92768 0.0
H432 H 0.6357 0.18891 0.10107 0.0
H433 H 0.61582 0.20822 1.05528 0.0
H434 H 0.63987 0.16653 0.97193 0.0
H435 H 0.66097 0.1476 1.01772 0.0
H436 H 0.62519 0.38958 0.9097 0.0
H437 H 0.6009 0.36663 0.94451 0.0
H438 H 0.60045 0.32063 0.85731 0.0
H439 H 0.62377 0.34388 0.82162 0.0
Dy440 Dy 0.87908 0.73908 0.47971 0.0
Dy441 Dy 0.89034 0.69143 0.45453 0.0
C442 C 0.9246 0.72024 0.49981 0.0
O443 O 0.89748 0.74553 0.42772 0.0
O444 O 0.89686 0.71178 0.40344 0.0
O445 O 0.88238 0.77335 0.4815 0.0
O446 O 0.85408 0.75777 0.50361 0.0
O447 O 0.85464 0.69329 0.45059 0.0
O448 O 0.85401 0.72871 0.43959 0.0
O449 O 0.89361 0.68812 0.51567 0.0
O450 O 0.88052 0.72031 0.53467 0.0
O451 O 0.88562 0.65766 0.46324 0.0
O452 O 0.90472 0.66879 0.4178 0.0
C453 C 0.90088 0.73257 0.40007 0.0
O454 O 0.91141 0.73628 0.50195 0.0
O455 O 0.92082 0.70317 0.47966 0.0
C456 C 0.86348 0.79178 0.52676 0.0
C457 C 0.86236 0.82398 0.57989 0.0
C458 C 0.87672 0.80693 0.58308 0.0
C459 C 0.87727 0.79092 0.55666 0.0
C460 C 0.84907 0.80859 0.5236 0.0
C461 C 0.84849 0.82457 0.54993 0.0
C462 C 0.86416 0.77584 0.49779 0.0
C463 C 0.84475 0.70997 0.4376 0.0
C464 C 0.88873 0.7012 0.54238 0.0
C465 C 0.88216 0.63847 0.40936 0.0
C466 C 0.85325 0.61332 0.36893 0.0
C467 C 0.86129 0.6058 0.4023 0.0
C468 C 0.87565 0.61828 0.4223 0.0
C469 C 0.87439 0.6459 0.37587 0.0
C470 C 0.86026 0.63339 0.35575 0.0
C471 C 0.89496 0.65249 0.43299 0.0
H472 H 0.88776 0.80616 0.60566 0.0
H473 H 0.88856 0.77803 0.55933 0.0
H474 H 0.83831 0.80942 0.50059 0.0
H475 H 0.83707 0.83729 0.54698 0.0
H476 H 0.85622 0.59049 0.41331 0.0
H477 H 0.88124 0.61241 0.44839 0.0
H478 H 0.87894 0.66152 0.36543 0.0
H479 H 0.85493 0.63948 0.32966 0.0
Dy480 Dy 0.49579 0.62598 0.71949 0.0
Dy481 Dy 0.54402 0.63953 0.69706 0.0
C482 C 0.51249 0.67162 0.73273 0.0
O483 O 0.49326 0.63526 0.6592 0.0
O484 O 0.52441 0.65415 0.6507 0.0
O485 O 0.46662 0.63249 0.7476 0.0
O486 O 0.46846 0.60531 0.71132 0.0
O487 O 0.53756 0.60698 0.67248 0.0
O488 O 0.51246 0.59474 0.71196 0.0
O489 O 0.54609 0.63446 0.75902 0.0
O490 O 0.51119 0.63003 0.77592 0.0
O491 O 0.57685 0.63322 0.70758 0.0
O492 O 0.56835 0.65621 0.66582 0.0
C493 C 0.50519 0.64843 0.63921 0.0
O494 O 0.49895 0.66108 0.71259 0.0
O495 O 0.53247 0.66625 0.73144 0.0
C496 C 0.44645 0.60167 0.76298 0.0
C497 C 0.42308 0.57833 0.81558 0.0
C498 C 0.44036 0.59144 0.82592 0.0
C499 C 0.45199 0.60286 0.79992 0.0
C500 C 0.42988 0.58794 0.75223 0.0
C501 C 0.41834 0.57629 0.77827 0.0
C502 C 0.45722 0.61521 0.73567 0.0
C503 C 0.52608 0.59111 0.68575 0.0
C504 C 0.53141 0.63309 0.78489 0.0
C505 C 0.59789 0.63381 0.65612 0.0
C506 C 0.62566 0.60671 0.61872 0.0
C507 C 0.63372 0.62354 0.64005 0.0
C508 C 0.61989 0.6369 0.65892 0.0
C509 C 0.58981 0.61747 0.63394 0.0
C510 C 0.60357 0.604 0.61548 0.0
C511 C 0.58358 0.64509 0.68065 0.0
H512 H 0.44432 0.59384 0.85432 0.0
H513 H 0.46486 0.61317 0.80892 0.0
H514 H 0.42553 0.58665 0.72376 0.0
H515 H 0.40537 0.56614 0.76924 0.0
H516 H 0.65068 0.62603 0.6428 0.0
H517 H 0.62635 0.64922 0.67649 0.0
H518 H 0.57287 0.61474 0.63175 0.0
H519 H 0.5969 0.59149 0.59853 0.0
Dy520 Dy -0.00679 0.34272 0.21812 0.0
Dy521 Dy 0.94427 0.33479 0.19238 0.0
C522 C 0.97025 0.29879 0.23166 0.0
O523 O -0.00381 0.33329 0.15847 0.0
O524 O 0.9632 0.31875 0.1467 0.0
O525 O 0.0213 0.33269 0.24662 0.0
O526 O 0.02237 0.36115 0.21282 0.0
O527 O 0.95416 0.36681 0.16918 0.0
O528 O 0.97987 0.3758 0.20994 0.0
O529 O 0.94207 0.33809 0.25477 0.0
O530 O 0.97688 0.33992 0.27352 0.0
O531 O 0.91256 0.34584 0.20069 0.0
O532 O 0.91839 0.32063 0.16153 0.0
C533 C -0.01665 0.32199 0.13721 0.0
O534 O -0.0134 0.30768 0.21524 0.0
O535 O 0.95131 0.30654 0.22664 0.0
C536 C 0.04464 0.3606 0.26481 0.0
C537 C 0.07085 0.3795 0.31841 0.0
C538 C 0.0539 0.36581 0.32835 0.0
C539 C 0.04088 0.35658 0.30191 0.0
C540 C 0.0611 0.37471 0.25473 0.0
C541 C 0.07404 0.38415 0.28126 0.0
C542 C 0.03242 0.34934 0.2364 0.0
C543 C 0.9668 0.38126 0.18362 0.0
C544 C 0.95643 0.33799 0.28133 0.0
C545 C 0.89049 0.34538 0.14995 0.0
C546 C 0.86563 0.37251 0.10605 0.0
C547 C 0.85952 0.36782 0.14204 0.0
C548 C 0.87182 0.35433 0.16371 0.0
C549 C 0.89644 0.3496 0.11384 0.0
C550 C 0.88402 0.36287 1.092 0.0
C551 C 0.90453 0.33387 0.1751 0.0
H552 H 0.05114 0.36145 0.35655 0.0
H553 H 0.02827 0.3458 0.31055 0.0
H554 H 0.06423 0.37808 0.22623 0.0
H555 H 0.08675 0.39479 0.27262 0.0
H556 H 0.84559 0.37503 0.15385 0.0
H557 H 0.86712 0.35144 0.19172 0.0
H558 H 0.91089 0.34304 0.10271 0.0
H559 H 0.88893 0.36565 1.06409 0.0
Dy560 Dy 0.49664 0.34565 0.4715 0.0
Dy561 Dy 0.54513 0.33414 0.49536 0.0
C562 C 0.51477 0.30065 0.4583 0.0
O563 O 0.49341 0.33518 0.531 0.0
O564 O 0.52574 0.31954 0.54237 0.0
O565 O 0.46798 0.33869 0.4417 0.0
O566 O 0.46876 0.36491 0.48016 0.0
O567 O 0.53805 0.36639 0.5197 0.0
O568 O 0.51263 0.37757 0.48016 0.0
O569 O 0.54714 0.33869 0.43322 0.0
O570 O 0.51236 0.34231 0.41548 0.0
O571 O 0.57759 0.34275 0.4852 0.0
O572 O 0.57015 0.31823 0.52543 0.0
C573 C 0.50588 0.32352 0.55224 0.0
O574 O 0.50039 0.31055 0.47728 0.0
O575 O 0.53459 0.30673 0.46138 0.0
C576 C 0.44714 0.36898 0.4281 0.0
C577 C 0.42346 0.39261 0.37686 0.0
C578 C 0.44084 0.38023 0.36576 0.0
C579 C 0.45263 0.36867 0.3911 0.0
C580 C 0.43046 0.38199 0.43963 0.0
C581 C 0.41876 0.3938 0.41427 0.0
C582 C 0.45803 0.3552 0.45465 0.0
C583 C 0.52622 0.38174 0.50637 0.0
C584 C 0.53262 0.33966 0.40703 0.0
C585 C 0.5996 0.34176 0.53565 0.0
C586 C 0.62489 0.37055 0.57598 0.0
C587 C 0.63165 0.36342 0.54171 0.0
C588 C 0.61912 0.3491 0.52179 0.0
C589 C 0.59314 0.34819 0.57038 0.0
C590 C 0.60578 0.36226 0.59051 0.0
C591 C 0.58489 0.33057 0.51111 0.0
H592 H 0.44478 0.37849 0.33723 0.0
H593 H 0.46557 0.35891 0.38149 0.0
H594 H 0.42614 0.3826 0.46817 0.0
H595 H 0.40571 0.40336 0.42389 0.0
H596 H 0.64618 0.3695 0.52962 0.0
H597 H 0.62419 0.34456 0.49472 0.0
H598 H 0.57802 0.34296 0.58145 0.0
H599 H 0.60035 0.3669 0.61728 0.0
Dy600 Dy 0.00947 0.6246 0.97202 0.0
Dy601 Dy 0.96406 0.64292 0.99609 0.0
C602 C 0.00078 0.67243 0.96041 0.0
O603 O 0.01378 0.63475 1.03215 0.0
O604 O -0.01506 0.65643 1.04039 0.0
O605 O 0.03897 0.62731 0.94306 0.0
O606 O 0.03326 0.59996 0.97835 0.0
O607 O 0.96704 0.61007 1.02247 0.0
O608 O -0.01079 0.59546 0.98116 0.0
O609 O 0.95913 0.63794 0.93575 0.0
O610 O -0.00734 0.62999 0.91642 0.0
O611 O 0.93062 0.64093 0.9856 0.0
O612 O 0.94228 0.66194 1.028 0.0
C613 C 0.00338 0.64915 1.05177 0.0
O614 O 0.01419 0.65947 0.97554 0.0
O615 O 0.98026 0.66833 0.96184 0.0
C616 C 0.05516 0.59493 0.92658 0.0
C617 C 0.07819 0.57329 0.87243 0.0
C618 C 0.06112 0.58664 0.86298 0.0
C619 C 0.04965 0.59721 0.88975 0.0
C620 C 0.07123 0.58068 0.93641 0.0
C621 C 0.08259 0.56983 0.9096 0.0
C622 C 0.04586 0.60885 0.9544 0.0
C623 C 0.9763 0.59313 1.00886 0.0
C624 C 0.9727 0.63529 0.90894 0.0
C625 C 0.90938 0.64324 1.03707 0.0
C626 C 0.88093 0.61776 1.07824 0.0
C627 C 0.87644 0.62278 1.04171 0.0
C628 C 0.89047 0.6355 1.02143 0.0
C629 C 0.91347 0.63908 1.07397 0.0
C630 C 0.89928 0.62665 1.09443 0.0
C631 C 0.92562 0.65289 1.01312 0.0
H632 H 0.05736 0.59007 0.83479 0.0
H633 H 0.03719 0.60803 0.88146 0.0
H634 H 0.0756 0.57859 0.96477 0.0
H635 H 0.09531 0.55938 0.91799 0.0
H636 H 0.86256 0.61619 1.02827 0.0
H637 H 0.88706 0.63843 0.9929 0.0
H638 H 0.92793 0.6448 1.08676 0.0
H639 H 0.90293 0.62369 0.12283 0.0
C640 C 0.12518 0.06781 1.06859 0.0
C641 C 0.13612 0.08329 1.08894 0.0
C642 C 0.13582 0.05548 1.04314 0.0
C643 C 0.18383 0.0639 0.98618 0.0
H644 H 0.14526 0.03161 0.92529 0.0
C645 C 0.15276 0.10295 0.86591 0.0
C646 C 0.13716 0.09324 0.84416 0.0
C647 C 0.16484 0.09081 0.88993 0.0
C648 C 0.1568 0.04035 0.94129 0.0
H649 H 0.16745 0.09531 0.10314 0.0
H650 H 0.18625 0.07287 1.06058 0.0
H651 H 0.14525 0.02558 0.98989 0.0
H652 H 0.12419 0.06269 0.8267 0.0
H653 H 0.14607 0.04133 0.86704 0.0
H654 H 0.19662 0.07735 0.93735 0.0
C655 C 0.16919 0.07116 1.06218 0.0
C656 C 0.15642 0.03719 0.97898 0.0
C657 C 0.1584 0.08394 1.08713 0.0
C658 C 0.13576 0.07078 0.84368 0.0
C659 C 0.14824 0.0585 0.86726 0.0
C660 C 0.18511 0.0661 0.94838 0.0
C661 C 0.15788 0.05802 1.03761 0.0
C662 C 0.16744 0.05145 1.00197 0.0
C663 C 0.16196 0.06844 0.89255 0.0
C664 C 0.16932 0.05692 0.92609 0.0
H665 H 0.1081 0.06609 1.07066 0.0
H666 H 0.12609 0.04548 1.02582 0.0
H667 H 0.19398 0.07417 1.00229 0.0
H668 H 0.15498 0.12015 0.86578 0.0
H669 H 0.1751 0.09951 0.90835 0.0
C670 C 0.15975 0.85943 0.31917 0.0
C671 C 0.14558 0.87119 0.34039 0.0
C672 C 0.17099 0.86923 0.29096 0.0
C673 C 0.16104 0.91596 0.23049 0.0
H674 H 0.18861 0.87493 0.16855 0.0
C675 C 0.14654 0.86549 1.0914 0.0
C676 C 0.12439 0.86748 1.09414 0.0
C677 C 0.16003 0.87785 0.11335 0.0
C678 C 0.18116 0.88712 0.18476 0.0
H679 H 0.13507 0.90322 0.35301 0.0
H680 H 0.1557 0.92064 0.30549 0.0
H681 H 0.19772 0.87647 0.23196 0.0
H682 H 0.09926 0.88612 0.11825 0.0
H683 H 0.122 0.90602 0.15811 0.0
H684 H 0.14589 0.92788 0.18269 0.0
C685 C 0.15709 0.90352 0.3086 0.0
C686 C 0.18608 0.88763 0.22186 0.0
C687 C 0.14538 0.89354 0.33641 0.0
C688 C 0.11619 0.88345 0.11663 0.0
C689 C 0.12953 0.89541 0.13903 0.0
C690 C 0.15709 0.91633 0.19306 0.0
C691 C 0.16865 0.89126 0.2834 0.0
C692 C 0.17355 0.89965 0.24588 0.0
C693 C 0.15165 0.89207 0.13921 0.0
C694 C 0.1646 0.89976 0.17088 0.0
H695 H 0.16115 0.8423 0.32278 0.0
H696 H 0.17987 0.85881 0.27338 0.0
H697 H 0.15205 0.92682 0.24709 0.0
H698 H 0.15346 0.8536 1.07381 0.0
H699 H 0.17693 0.87527 0.11135 0.0
C700 C 0.3376 0.89853 0.33883 0.0
C701 C 0.33761 0.87608 0.33984 0.0
C702 C 0.32696 0.91006 0.36572 0.0
C703 C 0.32581 0.92702 0.4418 0.0
H704 H 0.29409 0.89317 0.5119 0.0
C705 C 0.3644 0.90161 0.56732 0.0
C706 C 0.3537 0.89036 0.59499 0.0
C707 C 0.35316 0.91202 0.53999 0.0
C708 C 0.30259 0.9035 0.49307 0.0
H709 H 0.32498 0.84811 0.36771 0.0
H710 H 0.30758 0.86762 0.41482 0.0
H711 H 0.28681 0.88914 0.44782 0.0
H712 H 0.3228 0.88324 0.61813 0.0
H713 H 0.30294 0.90184 0.57053 0.0
H714 H 0.34103 0.94195 0.48711 0.0
C715 C 0.31501 0.87683 0.39324 0.0
C716 C 0.29866 0.90083 0.45591 0.0
C717 C 0.32525 0.86542 0.3661 0.0
C718 C 0.33145 0.89141 0.59661 0.0
C719 C 0.3201 0.90209 0.5693 0.0
C720 C 0.329 0.93044 0.47897 0.0
C721 C 0.3167 0.89933 0.39477 0.0
C722 C 0.31227 0.91039 0.42998 0.0
C723 C 0.33079 0.91157 0.53951 0.0
C724 C 0.31951 0.91664 0.50475 0.0
H725 H 0.34665 0.90714 0.31829 0.0
H726 H 0.32803 0.92734 0.36496 0.0
H727 H 0.33605 0.93563 0.42305 0.0
H728 H 0.38152 0.90101 0.56502 0.0
H729 H 0.36226 0.91869 0.51761 0.0
C730 C 0.35193 0.07681 0.82902 0.0
C731 C 0.34299 0.09259 0.85112 0.0
C732 C 0.33981 0.06701 0.8019 0.0
C733 C 0.30127 0.08834 0.74148 0.0
H734 H 0.31986 0.03979 0.68526 0.0
C735 C 0.35364 0.07992 0.61322 0.0
C736 C 0.34672 0.09819 0.59446 0.0
C737 C 0.34076 0.07011 0.63938 0.0
C738 C 0.31424 0.05339 0.7005 0.0
H739 H 0.31357 0.10783 0.86641 0.0
H740 H 0.29242 0.09085 0.81867 0.0
H741 H 0.3193 0.0375 0.7516 0.0
H742 H 0.31959 0.11858 0.58469 0.0
H743 H 0.29678 0.10089 0.62919 0.0
H744 H 0.29851 0.10519 0.69145 0.0
C745 C 0.30887 0.08635 0.82181 0.0
C746 C 0.31378 0.05199 0.73854 0.0
C747 C 0.32103 0.09619 0.84894 0.0
C748 C 0.3256 0.10473 0.59904 0.0
C749 C 0.31254 0.09465 0.62482 0.0
C750 C 0.30195 0.08981 0.70363 0.0
C751 C 0.31855 0.0729 0.79627 0.0
C752 C 0.30924 0.07018 0.75937 0.0
C753 C 0.32048 0.07817 0.64712 0.0
C754 C 0.31045 0.07307 0.68295 0.0
H755 H 0.36877 0.07358 0.83006 0.0
H756 H 0.34789 0.05678 0.78279 0.0
H757 H 0.29737 0.10264 0.75649 0.0
H758 H 0.36954 0.07392 0.60929 0.0
H759 H 0.34762 0.05745 0.65565 0.0
C760 C 0.91285 0.72916 0.33305 0.0
C761 C 0.90927 0.74193 0.36408 0.0
C762 C 0.92057 0.73807 0.2998 0.0
C763 C 0.92945 0.79142 0.24941 0.0
H764 H 0.96321 0.75694 0.18473 0.0
C765 C 0.95735 0.82394 0.10432 0.0
C766 C 0.97651 0.81648 1.08919 0.0
C767 C 0.94885 0.81513 0.13717 0.0
C768 C 0.95399 0.7671 0.20231 0.0
H769 H 0.91144 0.77466 0.38298 0.0
H770 H 0.92493 0.78992 0.3262 0.0
H771 H 0.94999 0.74168 0.24149 0.0
H772 H 0.00155 0.79355 0.09859 0.0
H773 H -0.01273 0.77877 0.15486 0.0
H774 H 0.93389 0.817 0.21055 0.0
C775 C 0.92149 0.77294 0.327 0.0
C776 C 0.94601 0.75808 0.23521 0.0
C777 C 0.91379 0.76404 0.36017 0.0
C778 C -0.01325 0.79991 0.10861 0.0
C779 C 0.97832 0.79116 0.14128 0.0
C780 C 0.93742 0.80045 0.21646 0.0
C781 C 0.9251 0.76024 0.29581 0.0
C782 C 0.93356 0.76999 0.25981 0.0
C783 C 0.95908 0.79841 0.15651 0.0
C784 C 0.95001 0.78858 0.192 0.0
H785 H 0.90961 0.71214 0.33431 0.0
H786 H 0.92266 0.72743 0.27697 0.0
H787 H 0.91979 0.8014 0.2666 0.0
H788 H 0.94874 0.83655 1.09063 0.0
H789 H 0.93395 0.82131 0.14701 0.0
C790 C 0.93071 0.21378 0.83256 0.0
C791 C 0.92043 0.23382 0.83186 0.0
C792 C 0.94058 0.20569 0.86456 0.0
C793 C 0.9415 0.21039 0.96758 0.0
H794 H -0.00602 0.17887 0.96114 0.0
C795 C 0.97567 0.1616 1.09312 0.0
C796 C -0.00215 0.16091 0.09918 0.0
C797 C 0.96683 0.17095 1.06124 0.0
C798 C 0.97936 0.18766 0.96383 0.0
H799 H 0.91281 0.26071 0.86621 0.0
H800 H 0.92942 0.24651 0.92179 0.0
H801 H 0.97794 0.19397 0.906 0.0
H802 H 0.02784 0.16993 1.07447 0.0
H803 H 0.01259 0.18569 1.01894 0.0
H804 H 0.94275 0.20387 1.0253 0.0
C805 C 0.92998 0.23699 0.89726 0.0
C806 C 0.96994 0.19628 0.93175 0.0
C807 C 0.92044 0.24529 0.865 0.0
C808 C 0.01075 0.16994 1.07142 0.0
C809 C 0.00189 0.17899 1.03914 0.0
C810 C 0.9507 0.20144 0.99955 0.0
C811 C 0.94039 0.21699 0.89788 0.0
C812 C 0.95075 0.20789 0.93273 0.0
C813 C 0.97966 0.17986 1.03328 0.0
C814 C 0.96989 0.18981 0.99858 0.0
H815 H 0.93126 0.20422 0.80807 0.0
H816 H 0.94809 0.19022 0.86325 0.0
H817 H 0.92676 0.219 0.9702 0.0
H818 H 0.96492 0.15501 0.11336 0.0
H819 H 0.94973 0.17086 1.05833 0.0
C820 C 0.57423 0.21697 0.84043 0.0
C821 C 0.572 0.23875 0.84981 0.0
C822 C 0.56493 0.2082 0.80845 0.0
C823 C 0.52495 0.21999 0.73122 0.0
H824 H 0.54872 0.16871 0.69001 0.0
C825 C 0.48336 0.17614 0.60606 0.0
C826 C 0.49524 0.16301 0.58248 0.0
C827 C 0.4924 0.18539 0.63799 0.0
C828 C 0.54175 0.18318 0.70042 0.0
H829 H 0.55769 0.26813 0.83093 0.0
H830 H 0.54211 0.25326 0.77537 0.0
H831 H 0.56485 0.18462 0.74339 0.0
H832 H 0.52666 0.14997 0.57542 0.0
H833 H 0.54234 0.16614 0.62946 0.0
H834 H 0.50229 0.21892 0.68733 0.0
C835 C 0.55077 0.24258 0.7931 0.0
C836 C 0.551 0.19231 0.73216 0.0
C837 C 0.55999 0.25134 0.82531 0.0
C838 C 0.51665 0.15972 0.59246 0.0
C839 C 0.52573 0.16906 0.62419 0.0
C840 C 0.51575 0.2109 0.69929 0.0
C841 C 0.55293 0.2207 0.78366 0.0
C842 C 0.54288 0.21097 0.74872 0.0
C843 C 0.5139 0.18215 0.64808 0.0
C844 C 0.52385 0.19217 0.68287 0.0
H845 H 0.58305 0.20641 0.85818 0.0
H846 H 0.56697 0.19129 0.80375 0.0
H847 H 0.51763 0.2341 0.74234 0.0
H848 H 0.46685 0.17925 0.6 0.0
H849 H 0.4822 0.1949 0.65502 0.0
C850 C 0.5167 0.80696 0.6058 0.0
C851 C 0.49466 0.81018 0.61025 0.0
C852 C 0.52526 0.79755 0.57392 0.0
C853 C 0.51052 0.76561 0.48818 0.0
H854 H 0.56732 0.78175 0.45795 0.0
C855 C 0.5532 0.72277 0.3638 0.0
C856 C 0.5685 0.73409 0.34283 0.0
C857 C 0.54411 0.73157 0.39591 0.0
C858 C 0.55134 0.77699 0.46536 0.0
H859 H 0.46458 0.80539 0.58275 0.0
H860 H 0.47928 0.78925 0.52766 0.0
H861 H 0.55196 0.79771 0.51192 0.0
H862 H 0.58574 0.76421 0.3408 0.0
H863 H 0.57014 0.77939 0.39547 0.0
H864 H 0.50982 0.74516 0.44108 0.0
C865 C 0.49016 0.79384 0.54912 0.0
C866 C 0.54247 0.7861 0.49725 0.0
C867 C 0.48159 0.80335 0.58106 0.0
C868 C 0.57424 0.75464 0.35572 0.0
C869 C 0.56521 0.76342 0.38775 0.0
C870 C 0.51944 0.75643 0.45627 0.0
C871 C 0.51228 0.79074 0.54452 0.0
C872 C 0.52179 0.78073 0.50968 0.0
C873 C 0.54987 0.75219 0.40888 0.0
C874 C 0.54012 0.76189 0.44381 0.0
H875 H 0.52758 0.81176 0.62718 0.0
H876 H 0.54225 0.79538 0.57273 0.0
H877 H 0.49473 0.76054 0.49617 0.0
H878 H 0.54811 0.70696 0.35537 0.0
H879 H 0.53269 0.72192 0.41082 0.0
C880 C 0.63289 0.5652 0.34537 0.0
C881 C 0.63728 0.58711 0.34037 0.0
C882 C 0.64324 0.55364 0.37273 0.0
C883 C 0.6459 0.54633 0.45326 0.0
H884 H 0.69584 0.56876 0.50204 0.0
C885 C 0.63598 0.57049 0.59656 0.0
C886 C 0.63994 0.59262 0.598 0.0
C887 C 0.64597 0.55796 0.5704 0.0
C888 C 0.68199 0.56191 0.48886 0.0
H889 H 0.65763 0.61341 0.35747 0.0
H890 H 0.67518 0.59368 0.40497 0.0
H891 H 0.69512 0.56687 0.43569 0.0
H892 H 0.65923 0.61856 0.57638 0.0
H893 H 0.67612 0.59708 0.53016 0.0
H894 H 0.63193 0.54316 0.50566 0.0
C895 C 0.66408 0.58508 0.38777 0.0
C896 C 0.68156 0.56083 0.45082 0.0
C897 C 0.65383 0.59656 0.36046 0.0
C898 C 0.65581 0.60155 0.57574 0.0
C899 C 0.66564 0.58909 0.54936 0.0
C900 C 0.64635 0.54733 0.49115 0.0
C901 C 0.65798 0.56387 0.39581 0.0
C902 C 0.66269 0.55509 0.43266 0.0
C903 C 0.6598 0.56746 0.54485 0.0
C904 C 0.66359 0.55711 0.50909 0.0
H905 H 0.62061 0.55732 0.32958 0.0
H906 H 0.6385 0.53718 0.37765 0.0
H907 H 0.63115 0.54147 0.44046 0.0
H908 H 0.62416 0.56312 0.61415 0.0
H909 H 0.64149 0.54125 0.56822 0.0
C910 C 0.6414 0.404 0.8416 0.0
C911 C 0.64246 0.38156 0.84242 0.0
C912 C 0.65392 0.41584 0.81712 0.0
C913 C 0.68929 0.40636 0.73486 0.0
H914 H 0.64924 0.44577 0.69288 0.0
C915 C 0.62695 0.40193 0.61776 0.0
C916 C 0.63742 0.38667 0.59671 0.0
C917 C 0.63814 0.41444 0.6426 0.0
C918 C 0.66046 0.43447 0.70397 0.0
H919 H 0.65989 0.35431 0.82251 0.0
H920 H 0.6801 0.37411 0.77848 0.0
H921 H 0.65072 0.44154 0.75781 0.0
H922 H 0.66839 0.375 0.58103 0.0
H923 H 0.68813 0.3977 0.62269 0.0
H924 H 0.69663 0.39679 0.68104 0.0
C925 C 0.67003 0.38317 0.79639 0.0
C926 C 0.66169 0.43234 0.7418 0.0
C927 C 0.65792 0.3715 0.82131 0.0
C928 C 0.65972 0.38624 0.59752 0.0
C929 C 0.67105 0.39918 0.6219 0.0
C930 C 0.68714 0.40753 0.69704 0.0
C931 C 0.6673 0.40543 0.79217 0.0
C932 C 0.67422 0.41615 0.75744 0.0
C933 C 0.6603 0.41233 0.64678 0.0
C934 C 0.67067 0.41962 0.68142 0.0
H935 H 0.62999 0.41237 0.85815 0.0
H936 H 0.65196 0.43299 0.81629 0.0
H937 H 0.70086 0.39542 0.74596 0.0
H938 H 0.60986 0.40345 0.61655 0.0
H939 H 0.62882 0.42431 0.66045 0.0
C940 C 0.86327 0.4008 1.05783 0.0
C941 C 0.853 0.38726 1.08293 0.0
C942 C 0.8517 0.41188 1.03167 0.0
C943 C 0.80101 0.40343 0.98308 0.0
H944 H 0.83483 0.43699 0.91572 0.0
C945 C 0.8246 0.36592 0.85785 0.0
C946 C 0.8401 0.37564 0.83576 0.0
C947 C 0.81309 0.37798 0.88257 0.0
C948 C 0.82455 0.42786 0.93361 0.0
H949 H 0.82218 0.37712 0.10341 0.0
H950 H 0.80188 0.39739 1.0591 0.0
H951 H 0.83928 0.4421 0.97995 0.0
H952 H 0.85278 0.4062 0.81731 0.0
H953 H 0.8317 0.42745 0.8585 0.0
H954 H 0.78513 0.39037 0.93691 0.0
C955 C 0.819 0.39862 1.05822 0.0
C956 C 0.82748 0.43057 0.97101 0.0
C957 C 0.83069 0.3871 1.08403 0.0
C958 C 0.8414 0.39808 0.83476 0.0
C959 C 0.82943 0.41029 0.85896 0.0
C960 C 0.79722 0.40161 0.94572 0.0
C961 C 0.82937 0.4101 1.03016 0.0
C962 C 0.81804 0.41611 0.99578 0.0
C963 C 0.81652 0.40026 0.88555 0.0
C964 C 0.81125 0.41131 0.92058 0.0
H965 H 0.88043 0.40203 1.05715 0.0
H966 H 0.86068 0.4204 1.01102 0.0
H967 H 0.79224 0.39282 1.00103 0.0
H968 H 0.8224 0.34871 0.85796 0.0
H969 H 0.80314 0.36917 0.90146 0.0
C970 C 0.8412 0.57801 0.34303 0.0
C971 C 0.83844 0.60016 0.34662 0.0
C972 C 0.83089 0.56682 0.31512 0.0
C973 C 0.80332 0.58055 0.22546 0.0
H974 H 0.84773 0.54347 0.19176 0.0
C975 C 0.87581 0.58885 0.12487 0.0
C976 C 0.86694 0.60294 0.09935 0.0
C977 C 0.8629 0.57684 0.14811 0.0
C978 C 0.83534 0.55411 0.20063 0.0
H979 H 0.81944 0.62693 0.32878 0.0
H980 H 0.80301 0.60849 0.27929 0.0
H981 H 0.83881 0.5436 0.25512 0.0
H982 H 0.83731 0.61357 1.07545 0.0
H983 H 0.81472 0.59176 0.11467 0.0
H984 H 0.80201 0.59318 0.17166 0.0
C985 C 0.81305 0.59915 0.29694 0.0
C986 C 0.82983 0.55399 0.23746 0.0
C987 C 0.82288 0.61011 0.32535 0.0
C988 C 0.84474 0.60311 1.09517 0.0
C989 C 0.83173 0.59069 0.11803 0.0
C990 C 0.80963 0.58153 0.18902 0.0
C991 C 0.81835 0.57774 0.28923 0.0
C992 C 0.81562 0.56929 0.25116 0.0
C993 C 0.8406 0.57818 0.14613 0.0
C994 C 0.82743 0.57005 0.17726 0.0
H995 H 0.85257 0.56958 0.35977 0.0
H996 H 0.83431 0.55001 0.31237 0.0
H997 H 0.79048 0.59075 0.23382 0.0
H998 H 0.89285 0.58762 0.12791 0.0
H999 H 0.87072 0.5677 0.16921 0.0
C1000 C 0.47446 0.31339 0.59388 0.0
C1001 C 0.49662 0.31392 0.58755 0.0
C1002 C 0.46555 0.30413 0.6259 0.0
C1003 C 0.47798 0.28769 0.72326 0.0
H1004 H 0.42511 0.25574 0.71715 0.0
C1005 C 0.42915 0.26097 0.85464 0.0
C1006 C 0.41903 0.24065 0.8553 0.0
C1007 C 0.43901 0.2693 0.82265 0.0
C1008 C 0.43992 0.26453 0.7197 0.0
H1009 H 0.52651 0.30475 0.61191 0.0
H1010 H 0.51114 0.2892 0.66774 0.0
H1011 H 0.44116 0.27092 0.66192 0.0
H1012 H 0.41163 0.21353 0.82095 0.0
H1013 H 0.42815 0.22813 0.76546 0.0
H1014 H 0.47655 0.28154 0.78115 0.0
C1015 C 0.50052 0.29593 0.64762 0.0
C1016 C 0.44916 0.2735 0.68766 0.0
C1017 C 0.50944 0.30486 0.61519 0.0
C1018 C 0.41914 0.22917 0.82218 0.0
C1019 C 0.42863 0.23769 0.78996 0.0
C1020 C 0.46852 0.27907 0.75541 0.0
C1021 C 0.4783 0.2952 0.65373 0.0
C1022 C 0.46845 0.28531 0.68853 0.0
C1023 C 0.43891 0.25795 0.78936 0.0
C1024 C 0.44924 0.26722 0.7545 0.0
H1025 H 0.46378 0.32 0.57373 0.0
H1026 H 0.44847 0.3043 0.62902 0.0
H1027 H 0.49269 0.29664 0.72583 0.0
H1028 H 0.42963 0.27053 0.87913 0.0
H1029 H 0.44644 0.28496 0.82394 0.0
C1030 C 0.47548 0.65227 0.59134 0.0
C1031 C 0.49607 0.65783 0.60372 0.0
C1032 C 0.46664 0.66128 0.55917 0.0
C1033 C 0.47359 0.70691 0.48947 0.0
H1034 H 0.43209 0.67417 0.43481 0.0
C1035 C 0.42663 0.74479 0.3642 0.0
C1036 C 0.41962 0.73154 0.33535 0.0
C1037 C 0.43617 0.73623 0.39626 0.0
C1038 C 0.44376 0.68371 0.44921 0.0
H1039 H 0.5232 0.67786 0.59017 0.0
H1040 H 0.50811 0.69325 0.53449 0.0
H1041 H 0.44812 0.65882 0.48906 0.0
H1042 H 0.41779 0.6983 0.31912 0.0
H1043 H 0.43427 0.68364 0.37377 0.0
H1044 H 0.46943 0.73167 0.44906 0.0
C1045 C 0.4985 0.68199 0.5499 0.0
C1046 C 0.45291 0.67485 0.48124 0.0
C1047 C 0.50737 0.67292 0.58213 0.0
C1048 C 0.42273 0.70932 0.34022 0.0
C1049 C 0.43219 0.70078 0.37223 0.0
C1050 C 0.46436 0.71581 0.45743 0.0
C1051 C 0.47785 0.67642 0.53744 0.0
C1052 C 0.46809 0.68616 0.5024 0.0
C1053 C 0.43915 0.71394 0.4013 0.0
C1054 C 0.44918 0.70445 0.43629 0.0
H1055 H 0.46594 0.64094 0.60677 0.0
H1056 H 0.45066 0.65652 0.5518 0.0
H1057 H 0.48492 0.71659 0.50438 0.0
H1058 H 0.42465 0.76193 0.36217 0.0
H1059 H 0.44088 0.74726 0.41748 0.0
C1060 C 0.06845 0.74688 0.33401 0.0
C1061 C 0.07869 0.73439 0.36087 0.0
C1062 C 0.06097 0.73785 0.30085 0.0
C1063 C 0.06336 0.68693 0.24217 0.0
H1064 H 0.01714 0.71389 0.19065 0.0
C1065 C 0.03359 0.65425 0.09895 0.0
C1066 C 0.01254 0.65801 1.08743 0.0
C1067 C 0.0419 0.66336 0.13154 0.0
C1068 C 0.0299 0.70574 0.2045 0.0
H1069 H 0.08862 0.702 0.37251 0.0
H1070 H 0.07539 0.68637 0.31619 0.0
H1071 H 0.03012 0.72921 0.24702 0.0
H1072 H -0.01613 0.67446 0.10311 0.0
H1073 H -0.00224 0.68948 0.15923 0.0
H1074 H 0.0626 0.66302 0.20026 0.0
C1075 C 0.07346 0.70338 0.31992 0.0
C1076 C 0.03775 0.71494 0.2372 0.0
C1077 C 0.08106 0.71244 0.35289 0.0
C1078 C 0.00018 0.67108 0.1103 0.0
C1079 C 0.00837 0.68001 0.14288 0.0
C1080 C 0.05541 0.67765 0.20955 0.0
C1081 C 0.06316 0.71579 0.29286 0.0
C1082 C 0.05472 0.70583 0.25709 0.0
C1083 C 0.02953 0.67659 0.15443 0.0
C1084 C 0.0384 0.68674 0.18974 0.0
H1085 H 0.06622 0.7638 0.3385 0.0
H1086 H 0.05363 0.74845 0.28129 0.0
H1087 H 0.07657 0.67919 0.25543 0.0
H1088 H 0.04386 0.64447 1.08245 0.0
H1089 H 0.05829 0.66023 0.13828 0.0
C1090 C 0.07315 0.25899 0.84681 0.0
C1091 C 0.06988 0.23745 0.8365 0.0
C1092 C 0.06362 0.26773 0.87844 0.0
C1093 C 0.02109 0.25665 0.95207 0.0
H1094 H 0.04731 0.30587 0.99775 0.0
C1095 C 0.97992 0.3007 1.07686 0.0
C1096 C -0.00755 0.31226 0.10217 0.0
C1097 C -0.01116 0.29155 1.04487 0.0
C1098 C 0.03962 0.29198 0.98604 0.0
H1099 H 0.05347 0.20844 0.85327 0.0
H1100 H 0.03746 0.22323 0.90818 0.0
H1101 H 0.06361 0.29013 0.94472 0.0
H1102 H 0.02485 0.32255 0.11228 0.0
H1103 H 0.04018 0.30663 1.05827 0.0
H1104 H -0.00255 0.25816 0.99433 0.0
C1105 C 0.04714 0.23377 0.89149 0.0
C1106 C 0.049 0.28296 0.95453 0.0
C1107 C 0.05661 0.22506 0.85967 0.0
C1108 C 0.01433 0.31408 1.09388 0.0
C1109 C 0.02324 0.3049 1.06215 0.0
C1110 C 0.01174 0.26564 0.98377 0.0
C1111 C 0.05033 0.25541 0.90186 0.0
C1112 C 0.04004 0.26504 0.93644 0.0
C1113 C 0.01081 0.29339 1.03652 0.0
C1114 C 0.02074 0.28359 1.00179 0.0
H1115 H 0.08297 0.26939 0.83006 0.0
H1116 H 0.06651 0.28448 0.88397 0.0
H1117 H 0.01312 0.24314 0.93965 0.0
H1118 H 0.96307 0.29873 1.08165 0.0
H1119 H 0.97826 0.28323 1.02643 0.0
C1120 C -0.00545 0.28037 0.2749 0.0
C1121 C 0.97388 0.28591 0.2649 0.0
C1122 C -0.00145 0.27127 0.30887 0.0
C1123 C 0.97115 0.237 0.37414 0.0
H1124 H 0.03128 0.22655 0.37682 0.0
C1125 C -0.00703 0.18785 0.27428 0.0
C1126 C 0.014 0.18485 0.2634 0.0
C1127 C -0.01163 0.19506 0.30919 0.0
C1128 C 0.01431 0.22887 0.37737 0.0
H1129 H 0.94115 0.28677 0.28343 0.0
H1130 H 0.94812 0.27097 0.34268 0.0
H1131 H 0.0186 0.2628 0.37704 0.0
H1132 H 0.04681 0.18638 0.2814 0.0
H1133 H 0.03891 0.19856 0.34229 0.0
H1134 H 0.96698 0.2031 0.37581 0.0
C1135 C 0.96131 0.27336 0.32419 0.0
C1136 C 0.007 0.2499 0.3774 0.0
C1137 C 0.95727 0.28221 0.28986 0.0
C1138 C 0.03037 0.18903 0.28853 0.0
C1139 C 0.02578 0.19584 0.32384 0.0
C1140 C 0.97853 0.21604 0.37667 0.0
C1141 C 0.982 0.26748 0.33417 0.0
C1142 C -0.01411 0.25354 0.36665 0.0
C1143 C 0.0047 0.19955 0.33463 0.0
C1144 C -6e-05 0.21236 0.36805 0.0
H1145 H 0.00776 0.28322 0.25657 0.0
H1146 H 0.0147 0.26651 0.31434 0.0
H1147 H 0.95427 0.23925 0.37078 0.0
H1148 H 0.97991 0.18447 0.2559 0.0
H1149 H 0.97185 0.19787 0.31521 0.0
C1150 C 0.93589 0.72887 0.56297 0.0
C1151 C 0.93991 0.71815 0.53006 0.0
C1152 C 0.94754 0.72436 0.59426 0.0
C1153 C -0.00397 0.69378 0.62374 0.0
H1154 H 0.01224 0.75201 0.64433 0.0
C1155 C 0.04719 0.72279 0.52831 0.0
C1156 C 0.04902 0.7448 0.52159 0.0
C1157 C 0.04067 0.71515 0.56227 0.0
C1158 C 0.00825 0.73551 0.63867 0.0
H1159 H 0.95889 0.69375 0.50474 0.0
H1160 H 0.98108 0.68772 0.55775 0.0
H1161 H 0.97548 0.74271 0.64096 0.0
H1162 H 0.04586 0.77615 0.54578 0.0
H1163 H 0.03513 0.76322 0.60477 0.0
H1164 H 0.02916 0.68732 0.62007 0.0
C1165 C 0.96808 0.69877 0.56035 0.0
C1166 C -0.01321 0.73001 0.63724 0.0
C1167 C 0.95582 0.7027 0.52934 0.0
C1168 C 0.04426 0.75904 0.54977 0.0
C1169 C 0.03817 0.75144 0.58405 0.0
C1170 C 0.01752 0.69953 0.62528 0.0
C1171 C 0.96436 0.70985 0.59322 0.0
C1172 C 0.98085 0.7101 0.62237 0.0
C1173 C 0.03552 0.72931 0.59081 0.0
C1174 C 0.02299 0.72143 0.62318 0.0
H1175 H 0.92311 0.74024 0.56517 0.0
H1176 H 0.94369 0.73281 0.61901 0.0
H1177 H -0.00821 0.67748 0.61682 0.0
H1178 H 0.05091 0.71132 0.5073 0.0
H1179 H 0.03891 0.69803 0.56505 0.0
C1180 C 0.48256 0.68426 0.77077 0.0
C1181 C 0.50443 0.68157 0.7663 0.0
C1182 C 0.4743 0.69033 0.80425 0.0
C1183 C 0.49217 0.72161 0.88236 0.0
H1184 H 0.4326 0.73125 0.86542 0.0
C1185 C 0.47866 0.79265 0.81063 0.0
C1186 C 0.46907 0.78701 0.77732 0.0
C1187 C 0.47443 0.78112 0.84234 0.0
C1188 C 0.44923 0.72886 0.87154 0.0
H1189 H 0.53487 0.68273 0.79394 0.0
H1190 H 0.52061 0.69298 0.85238 0.0
H1191 H 0.44633 0.69508 0.86433 0.0
H1192 H 0.44659 0.76549 0.75175 0.0
H1193 H 0.44137 0.74339 0.80572 0.0
H1194 H 0.49562 0.75513 0.88804 0.0
C1195 C 0.50962 0.69079 0.83004 0.0
C1196 C 0.45719 0.70807 0.87065 0.0
C1197 C 0.51791 0.68508 0.79622 0.0
C1198 C 0.45471 0.7698 0.77672 0.0
C1199 C 0.45125 0.75755 0.8082 0.0
C1200 C 0.48423 0.74229 0.88406 0.0
C1201 C 0.48766 0.69393 0.83461 0.0
C1202 C 0.47929 0.70544 0.86718 0.0
C1203 C 0.46161 0.76267 0.84133 0.0
C1204 C 0.46368 0.74614 0.87053 0.0
H1205 H 0.47167 0.68152 0.74837 0.0
H1206 H 0.45739 0.69301 0.8054 0.0
H1207 H 0.50913 0.7198 0.88532 0.0
H1208 H 0.48913 0.80644 0.81262 0.0
H1209 H 0.48216 0.78609 0.86729 0.0
C1210 C 0.54472 0.26138 1.04164 0.0
C1211 C 0.54771 0.24771 1.01188 0.0
C1212 C 0.53842 0.2532 1.07547 0.0
C1213 C 0.51863 0.20091 0.11666 0.0
H1214 H 0.47382 0.24083 0.13475 0.0
C1215 C 0.45769 0.20056 1.02357 0.0
C1216 C 0.44117 0.21534 1.02426 0.0
C1217 C 0.46956 0.19659 1.05506 0.0
C1218 C 0.48602 0.22904 0.13062 0.0
H1219 H 0.54615 0.21474 0.99419 0.0
H1220 H 0.53359 0.2007 1.0512 0.0
H1221 H 0.50942 0.25358 0.13062 0.0
H1222 H 0.42264 0.23577 1.05974 0.0
H1223 H 0.44239 0.228 0.11435 0.0
H1224 H 0.49448 0.17673 0.11259 0.0
C1225 C 0.53716 0.21763 1.04995 0.0
C1226 C 0.50686 0.23653 0.12809 0.0
C1227 C 0.54385 0.22577 1.01647 0.0
C1228 C 0.43587 0.22493 1.05765 0.0
C1229 C 0.44704 0.22023 1.08935 0.0
C1230 C 0.49766 0.19343 0.1184 0.0
C1231 C 0.53416 0.23119 1.08018 0.0
C1232 C 0.52223 0.22309 0.11281 0.0
C1233 C 0.4648 0.20691 1.08827 0.0
C1234 C 0.48119 0.20843 0.11749 0.0
H1235 H 0.54795 0.27838 1.03927 0.0
H1236 H 0.53671 0.26432 0.0977 0.0
H1237 H 0.53096 0.18961 0.11019 0.0
H1238 H 0.46175 0.19245 0.99856 0.0
H1239 H 0.48321 0.18634 1.05253 0.0
C1240 C 0.9727 0.80185 0.89829 0.0
C1241 C 0.97776 0.7912 0.93101 0.0
C1242 C 0.97059 0.79045 0.86591 0.0
C1243 C 0.97195 0.73644 0.8271 0.0
H1244 H 0.03255 0.74604 0.83383 0.0
C1245 C 0.00963 0.70797 0.93285 0.0
C1246 C 0.00883 0.68573 0.93033 0.0
C1247 C 0.0135 0.72021 0.90157 0.0
C1248 C 0.0158 0.743 0.82926 0.0
H1249 H 0.98019 0.76042 0.9575 0.0
H1250 H 0.97375 0.7402 0.90173 0.0
H1251 H 0.00896 0.77625 0.8311 0.0
H1252 H 0.01492 0.65878 0.89502 0.0
H1253 H 0.01756 0.68013 0.83941 0.0
H1254 H 0.97873 0.70316 0.82922 0.0
C1255 C 0.97308 0.75748 0.90043 0.0
C1256 C 0.0021 0.76041 0.8278 0.0
C1257 C 0.97685 0.76893 0.93238 0.0
C1258 C 0.01409 0.67593 0.89716 0.0
C1259 C 0.0164 0.6881 0.86545 0.0
C1260 C -0.01432 0.71903 0.8268 0.0
C1261 C 0.97207 0.76817 0.86648 0.0
C1262 C 0.98034 0.75684 0.83441 0.0
C1263 C 0.01489 0.71035 0.86714 0.0
C1264 C 0.00723 0.7225 0.83527 0.0
H1265 H 0.97212 0.81906 0.89699 0.0
H1266 H 0.96974 0.79906 0.84026 0.0
H1267 H 0.95509 0.73337 0.8301 0.0
H1268 H 0.00621 0.71584 0.95838 0.0
H1269 H 0.01278 0.73744 0.90375 0.0
C1270 C 0.54182 0.74738 0.17602 0.0
C1271 C 0.54509 0.72543 0.18085 0.0
C1272 C 0.53573 0.7555 0.14228 0.0
C1273 C 0.50563 0.73665 1.06359 0.0
H1274 H 0.49461 0.79644 1.07947 0.0
C1275 C 0.43529 0.74824 0.13507 0.0
C1276 C 0.44083 0.75801 0.16828 0.0
C1277 C 0.4464 0.75288 0.10323 0.0
C1278 C 0.4974 0.77975 1.0736 0.0
H1279 H 0.54496 0.69473 0.15357 0.0
H1280 H 0.53462 0.70875 1.0947 0.0
H1281 H 0.53081 0.78346 1.08154 0.0
H1282 H 0.46174 0.78121 0.19353 0.0
H1283 H 0.48313 0.7872 0.13934 0.0
H1284 H 0.47248 0.73242 1.05719 0.0
C1285 C 0.53639 0.71989 0.11695 0.0
C1286 C 0.51821 0.77221 1.07506 0.0
C1287 C 0.54213 0.71173 0.15103 0.0
C1288 C 0.45751 0.77294 0.16865 0.0
C1289 C 0.46934 0.77684 0.13703 0.0
C1290 C 0.48494 0.74418 1.06131 0.0
C1291 C 0.53271 0.74192 0.11201 0.0
C1292 C 0.52131 0.75002 1.07896 0.0
C1293 C 0.46434 0.76633 0.10399 0.0
C1294 C 0.4806 0.76477 1.07462 0.0
H1295 H 0.54414 0.75843 0.19835 0.0
H1296 H 0.53261 0.77245 0.14082 0.0
H1297 H 0.50784 0.71961 1.06092 0.0
H1298 H 0.4219 0.7373 0.13323 0.0
H1299 H 0.44153 0.74498 1.07837 0.0
C1300 C 0.45962 0.20319 0.40676 0.0
C1301 C 0.47433 0.18665 0.40968 0.0
C1302 C 0.45763 0.21462 0.37413 0.0
C1303 C 0.49397 0.22978 0.3022 0.0
H1304 H 0.4551 0.27596 0.31743 0.0
C1305 C 0.52313 0.28665 0.3963 0.0
C1306 C 0.50818 0.29044 0.42384 0.0
C1307 C 0.5166 0.28083 0.36136 0.0
C1308 C 0.46629 0.26327 0.31257 0.0
H1309 H 0.49686 0.16758 0.37928 0.0
H1310 H 0.49266 0.1866 0.32252 0.0
H1311 H 0.44164 0.23949 0.31341 0.0
H1312 H 0.47459 0.29088 0.43624 0.0
H1313 H 0.4632 0.27916 0.3772 0.0
H1314 H 0.51873 0.25289 0.30445 0.0
C1315 C 0.48339 0.19168 0.34567 0.0
C1316 C 0.4585 0.24231 0.3099 0.0
C1317 C 0.48602 0.18091 0.37862 0.0
C1318 C 0.48657 0.28789 0.4158 0.0
C1319 C 0.48004 0.28168 0.38114 0.0
C1320 C 0.50172 0.25064 0.30538 0.0
C1321 C 0.46997 0.20942 0.34323 0.0
C1322 C 0.47295 0.22539 0.3132 0.0
C1323 C 0.49492 0.27784 0.35315 0.0
C1324 C 0.48814 0.26637 0.31924 0.0
H1325 H 0.44992 0.20754 0.42986 0.0
H1326 H 0.44718 0.22824 0.37408 0.0
H1327 H 0.50552 0.21723 0.29933 0.0
H1328 H 0.53995 0.28893 0.40125 0.0
H1329 H 0.52875 0.27855 0.34101 0.0
C1330 C 0.04526 0.21427 0.64259 0.0
C1331 C 0.04805 0.22813 0.67223 0.0
C1332 C 0.04016 0.22226 0.60811 0.0
C1333 C 0.0201 0.27394 0.56676 0.0
H1334 H 0.97625 0.23158 0.55219 0.0
C1335 C 0.9587 0.27285 0.66287 0.0
C1336 C 0.94255 0.25732 0.66292 0.0
C1337 C 0.97077 0.27652 0.63146 0.0
C1338 C -0.01192 0.24406 0.55555 0.0
H1339 H 0.04763 0.2613 0.68885 0.0
H1340 H 0.03687 0.27505 0.63072 0.0
H1341 H 0.01247 0.2212 0.55073 0.0
H1342 H 0.92516 0.23478 0.6289 0.0
H1343 H 0.94509 0.24207 0.57422 0.0
H1344 H -0.00467 0.29667 0.57437 0.0
C1345 C 0.03967 0.25806 0.63261 0.0
C1346 C 0.00928 0.23797 0.55485 0.0
C1347 C 0.04535 0.25011 0.66672 0.0
C1348 C 0.93799 0.24639 0.63037 0.0
C1349 C 0.94935 0.25073 0.59864 0.0
C1350 C -0.00114 0.28021 0.56789 0.0
C1351 C 0.03648 0.24426 0.60265 0.0
C1352 C 0.02458 0.25196 0.56974 0.0
C1353 C 0.96657 0.26513 0.59897 0.0
C1354 C 0.98296 0.26428 0.56969 0.0
H1355 H 0.0476 0.19722 0.64569 0.0
H1356 H 0.03855 0.21093 0.58611 0.0
H1357 H 0.03225 0.28586 0.57224 0.0
H1358 H 0.96225 0.28191 0.68723 0.0
H1359 H -0.01595 0.28754 0.63352 0.0
C1360 C 0.04228 0.06286 0.14262 0.0
C1361 C 0.02617 0.06927 0.16678 0.0
C1362 C 0.04221 0.04223 0.12718 0.0
C1363 C 0.00593 -0.00362 0.10484 0.0
H1364 H 0.05786 0.96472 1.09103 0.0
C1365 C 0.0083 0.91975 1.01506 0.0
C1366 C 0.02001 0.90202 1.02745 0.0
C1367 C 0.00969 0.93971 1.03254 0.0
C1368 C 0.04315 0.97324 1.09476 0.0
H1369 H -0.00269 0.05841 0.19343 0.0
H1370 H -0.00293 0.02272 0.16644 0.0
H1371 H 0.05902 -0.0003 0.1208 0.0
H1372 H 0.0428 0.89199 1.06815 0.0
H1373 H 0.04555 0.92692 0.09824 0.0
H1374 H -0.00995 0.97007 1.07868 0.0
C1375 C 0.00984 0.03368 0.15932 0.0
C1376 C 0.04384 -0.00651 0.11164 0.0
C1377 C 0.01006 0.05421 0.17512 0.0
C1378 C 0.03356 0.90516 1.0576 0.0
C1379 C 0.03516 0.9253 1.07487 0.0
C1380 C 0.00528 0.9763 1.08755 0.0
C1381 C 0.02585 0.0273 0.13489 0.0
C1382 C 0.02522 0.00546 0.11706 0.0
C1383 C 0.02302 0.94288 1.06294 0.0
C1384 C 0.02387 0.96432 1.08211 0.0
H1385 H 0.05498 0.07388 0.13532 0.0
H1386 H 0.05475 0.03818 0.10837 0.0
H1387 H -0.00877 0.00499 0.10805 0.0
H1388 H -0.00238 0.91817 0.99208 0.0
H1389 H 0.00029 0.95276 1.022 0.0
C1390 C 0.17806 0.7497 0.4397 0.0
C1391 C 0.16295 0.76553 0.43175 0.0
C1392 C 0.19814 0.74983 0.42272 0.0
C1393 C 0.23696 0.78465 0.37159 0.0
H1394 H 0.25963 0.73071 0.33896 0.0
C1395 C 0.31489 0.78076 0.284 0.0
C1396 C 0.3279 0.76264 0.28724 0.0
C1397 C 0.29494 0.78156 0.30151 0.0
C1398 C 0.2539 0.74598 0.34832 0.0
H1399 H 0.15776 0.79425 0.3997 0.0
H1400 H 0.19266 0.79464 0.37068 0.0
H1401 H 0.22563 0.73138 0.37021 0.0
H1402 H 0.32985 0.73129 0.31244 0.0
H1403 H 0.29589 0.73288 0.34343 0.0
H1404 H 0.26535 0.79926 0.3503 0.0
C1405 C 0.18902 0.78205 0.39012 0.0
C1406 C 0.23416 0.74634 0.36632 0.0
C1407 C 0.16885 0.78178 0.40678 0.0
C1408 C 0.32036 0.74549 0.30886 0.0
C1409 C 0.30058 0.74636 0.32657 0.0
C1410 C 0.25685 0.78428 0.35391 0.0
C1411 C 0.20397 0.76593 0.39742 0.0
C1412 C 0.22529 0.76566 0.37833 0.0
C1413 C 0.28732 0.76433 0.32314 0.0
C1414 C 0.26579 0.76491 0.3419 0.0
H1415 H 0.17424 0.73686 0.45858 0.0
H1416 H 0.20917 0.73726 0.42956 0.0
H1417 H 0.23091 0.79987 0.38064 0.0
H1418 H 0.31999 0.79428 0.26755 0.0
H1419 H 0.28537 0.79565 0.29747 0.0
C1420 C 0.47619 0.05586 0.5188 0.0
C1421 C 0.4612 0.0717 0.52712 0.0
C1422 C 0.47556 0.03564 0.53577 0.0
C1423 C 0.44075 -0.0031 0.58614 0.0
H1424 H 0.49421 0.97254 0.61665 0.0
C1425 C 0.44473 0.91514 0.66619 0.0
C1426 C 0.46273 0.9022 0.6617 0.0
C1427 C 0.44382 0.93583 0.65058 0.0
C1428 C 0.47907 0.97873 0.60784 0.0
H1429 H 0.43343 0.07806 0.55996 0.0
H1430 H 0.43212 0.0426 0.58918 0.0
H1431 H 0.49373 0.00767 0.58815 0.0
H1432 H 0.49366 0.90112 0.63608 0.0
H1433 H 0.49187 0.93636 0.60825 0.0
H1434 H 0.4261 0.96775 0.60511 0.0
C1435 C 0.44447 0.04596 0.56942 0.0
C1436 C 0.47881 -0.00086 0.5915 0.0
C1437 C 0.44527 0.0664 0.55271 0.0
C1438 C 0.47958 0.91054 0.64061 0.0
C1439 C 0.4786 0.93105 0.62477 0.0
C1440 C 0.44101 0.97629 0.60215 0.0
C1441 C 0.45978 0.03029 0.56153 0.0
C1442 C 0.45969 0.0086 0.58013 0.0
C1443 C 0.46081 0.9443 0.62965 0.0
C1444 C 0.46022 0.96668 0.61315 0.0
H1445 H 0.48875 0.05913 0.49937 0.0
H1446 H 0.48747 0.02407 0.52843 0.0
H1447 H 0.42569 0.00344 0.57759 0.0
H1448 H 0.43141 0.90941 0.68224 0.0
H1449 H 0.42986 0.94531 0.6556 0.0
C1450 C 0.31793 0.18863 0.8965 0.0
C1451 C 0.32721 0.20834 0.90659 0.0
C1452 C 0.29775 0.18772 0.87961 0.0
C1453 C 0.25724 0.22297 0.83223 0.0
H1454 H 0.22019 0.1738 0.84539 0.0
C1455 C 0.17651 0.21701 0.7543 0.0
C1456 C 0.15918 0.20628 0.7707 0.0
C1457 C 0.19699 0.21636 0.7698 0.0
C1458 C 0.23011 0.18785 0.84155 0.0
H1459 H 0.32182 0.24252 0.90726 0.0
H1460 H 0.28691 0.24095 0.87944 0.0
H1461 H 0.25477 0.17461 0.8749 0.0
H1462 H 0.15033 0.18631 0.81678 0.0
H1463 H 0.18555 0.18564 0.8442 0.0
H1464 H 0.23235 0.23664 0.80024 0.0
C1465 C 0.2953 0.22609 0.88324 0.0
C1466 C 0.25033 0.18817 0.85822 0.0
C1467 C 0.31547 0.22701 0.89968 0.0
C1468 C 0.16316 0.19471 0.80304 0.0
C1469 C 0.1836 0.19423 0.81877 0.0
C1470 C 0.237 0.22274 0.81586 0.0
C1471 C 0.28601 0.20647 0.87249 0.0
C1472 C 0.26434 0.20578 0.85405 0.0
C1473 C 0.20098 0.20515 0.80264 0.0
C1474 C 0.22293 0.20519 0.82012 0.0
H1475 H 0.32637 0.17388 0.90119 0.0
H1476 H 0.29159 0.17224 0.87159 0.0
H1477 H 0.26737 0.23676 0.82738 0.0
H1478 H 0.17428 0.22603 0.72934 0.0
H1479 H 0.20972 0.22463 0.75568 0.0
C1480 C 0.66764 0.28511 0.89266 0.0
C1481 C 0.66137 0.26891 0.91744 0.0
C1482 C 0.68805 0.28527 0.87676 0.0
C1483 C 0.73325 0.24924 0.85462 0.0
H1484 H 0.76564 0.30171 0.84185 0.0
C1485 C 0.8205 0.24708 0.80197 0.0
C1486 C 0.82892 0.26437 0.78166 0.0
C1487 C 0.8004 0.2482 0.81858 0.0
C1488 C 0.75682 0.28685 0.84453 0.0
H1489 H 0.67223 0.24016 0.94465 0.0
H1490 H 0.70744 0.24034 0.91688 0.0
H1491 H 0.73056 0.3027 0.86991 0.0
H1492 H 0.82227 0.29658 0.76329 0.0
H1493 H 0.78709 0.29837 0.79108 0.0
H1494 H 0.75899 0.23336 0.82852 0.0
C1495 C 0.69658 0.25298 0.90963 0.0
C1496 C 0.73655 0.28745 0.8609 0.0
C1497 C 0.67631 0.25298 0.92588 0.0
C1498 C 0.81647 0.28291 0.77869 0.0
C1499 C 0.79619 0.28396 0.79501 0.0
C1500 C 0.75335 0.24866 0.83786 0.0
C1501 C 0.70283 0.26906 0.88461 0.0
C1502 C 0.72444 0.26862 0.86651 0.0
C1503 C 0.78766 0.26657 0.81526 0.0
C1504 C 0.76572 0.26742 0.83267 0.0
H1505 H 0.65669 0.29765 0.88527 0.0
H1506 H 0.69205 0.29787 0.85753 0.0
H1507 H 0.72441 0.23441 0.85768 0.0
H1508 H 0.82954 0.23256 0.80533 0.0
H1509 H 0.79505 0.23457 0.83447 0.0
C1510 C 0.81148 0.68872 0.4198 0.0
C1511 C 0.82341 0.70793 0.41912 0.0
C1512 C 0.79152 0.68722 0.4023 0.0
C1513 C 0.75867 0.71292 0.32934 0.0
H1514 H 0.71105 0.68463 0.37644 0.0
C1515 C 0.67311 0.71921 0.26917 0.0
C1516 C 0.65806 0.7028 0.27551 0.0
C1517 C 0.69325 0.71893 0.2859 0.0
C1518 C 0.72415 0.69231 0.36233 0.0
H1519 H 0.82329 0.74056 0.39876 0.0
H1520 H 0.78903 0.73785 0.36823 0.0
H1521 H 0.74564 0.68541 0.40638 0.0
H1522 H 0.65304 0.67285 0.30435 0.0
H1523 H 0.68818 0.67188 0.33227 0.0
H1524 H 0.73759 0.71949 0.28499 0.0
C1525 C 0.79501 0.72388 0.38227 0.0
C1526 C 0.74413 0.69281 0.37977 0.0
C1527 C 0.81474 0.72546 0.40011 0.0
C1528 C 0.66406 0.68585 0.29871 0.0
C1529 C 0.68433 0.68543 0.31514 0.0
C1530 C 0.73881 0.7122 0.31169 0.0
C1531 C 0.78297 0.70476 0.38302 0.0
C1532 C 0.76172 0.70333 0.36378 0.0
C1533 C 0.69934 0.70208 0.30938 0.0
C1534 C 0.72099 0.70209 0.32792 0.0
H1535 H 0.81752 0.67482 0.43399 0.0
H1536 H 0.78292 0.67215 0.40338 0.0
H1537 H 0.7718 0.72086 0.31565 0.0
H1538 H 0.66916 0.7327 0.25191 0.0
H1539 H 0.70383 0.73237 0.28095 0.0
C1540 C 0.51268 0.55287 0.67802 0.0
C1541 C 0.52742 0.56916 0.66898 0.0
C1542 C 0.51301 0.53284 0.66052 0.0
C1543 C 0.54735 0.49681 0.60433 0.0
H1544 H 0.49397 0.46892 0.58047 0.0
C1545 C 0.54289 0.40898 0.54928 0.0
C1546 C 0.52741 0.4038 0.52288 0.0
C1547 C 0.54331 0.42915 0.56632 0.0
C1548 C 0.50908 0.47646 0.58662 0.0
H1549 H 0.55435 0.57654 0.63425 0.0
H1550 H 0.55503 0.54181 0.60413 0.0
H1551 H 0.49399 0.50339 0.61134 0.0
H1552 H 0.50024 0.4164 0.49391 0.0
H1553 H 0.50098 0.45137 0.52337 0.0
H1554 H 0.56243 0.46993 0.57934 0.0
C1555 C 0.54318 0.54443 0.62493 0.0
C1556 C 0.5091 0.49625 0.60486 0.0
C1557 C 0.54274 0.56453 0.64223 0.0
C1558 C 0.51247 0.41964 0.51393 0.0
C1559 C 0.51279 0.43976 0.53119 0.0
C1560 C 0.54733 0.47691 0.58635 0.0
C1561 C 0.52819 0.52824 0.63347 0.0
C1562 C 0.52823 0.50686 0.61407 0.0
C1563 C 0.52815 0.44489 0.55788 0.0
C1564 C 0.5282 0.46634 0.57706 0.0
H1565 H 0.50057 0.55567 0.69831 0.0
H1566 H 0.50135 0.52086 0.66844 0.0
H1567 H 0.56246 0.50418 0.61104 0.0
H1568 H 0.55466 0.39733 0.55718 0.0
H1569 H 0.55529 0.43218 0.58686 0.0
C1570 C -0.01345 0.55414 1.01591 0.0
C1571 C 0.97366 0.57135 1.02649 0.0
C1572 C -0.01467 0.53413 1.03371 0.0
C1573 C 0.95074 0.49969 1.09365 0.0
H1574 H 0.00279 0.46875 0.11126 0.0
C1575 C 0.95108 0.41038 0.14353 0.0
C1576 C 0.96681 0.4038 0.16846 0.0
C1577 C 0.9515 0.43101 0.12778 0.0
C1578 C -0.01195 0.47714 0.10687 0.0
H1579 H 0.94903 0.58038 1.06442 0.0
H1580 H 0.94668 0.5455 1.09507 0.0
H1581 H 0.00412 0.5037 1.0813 0.0
H1582 H -0.0046 0.41438 0.19612 0.0
H1583 H -0.00379 0.45017 0.16865 0.0
H1584 H 0.93468 0.47308 0.11924 0.0
C1585 C 0.95781 0.5475 1.07283 0.0
C1586 C -0.01121 0.49723 1.08919 0.0
C1587 C 0.95919 0.56764 1.05522 0.0
C1588 C 0.98293 0.41872 0.17722 0.0
C1589 C -0.01651 0.4393 0.16113 0.0
C1590 C 0.94998 0.47947 0.11098 0.0
C1591 C 0.97104 0.5304 1.06267 0.0
C1592 C 0.97015 0.50891 1.08215 0.0
C1593 C 0.96781 0.44584 0.13598 0.0
C1594 C 0.96862 0.46776 0.11794 0.0
H1595 H -0.00205 0.55617 0.99408 0.0
H1596 H -0.00441 0.52148 1.02449 0.0
H1597 H 0.93598 0.50793 1.08868 0.0
H1598 H 0.93839 0.3995 0.13585 0.0
H1599 H 0.93923 0.43513 0.10838 0.0
C1600 C 0.06165 0.14715 0.32692 0.0
C1601 C 0.04074 0.14029 0.31837 0.0
C1602 C 0.06756 0.15393 0.36253 0.0
C1603 C 0.0502 0.15286 0.46262 0.0
H1604 H 0.09348 0.1967 0.47429 0.0
C1605 C 0.085 0.17414 0.60844 0.0
C1606 C 0.09155 0.1953 0.61681 0.0
C1607 C 0.07894 0.16791 0.57265 0.0
C1608 C 0.08127 0.1845 0.47201 0.0
H1609 H 0.00976 0.1357 0.34285 0.0
H1610 H 0.01998 0.147 0.40433 0.0
H1611 H 0.08275 0.18537 0.41328 0.0
H1612 H 0.09651 0.22636 0.5917 0.0
H1613 H 0.08643 0.21557 0.52975 0.0
H1614 H 0.04863 0.15205 0.52128 0.0
C1615 C 0.03207 0.147 0.38342 0.0
C1616 C 0.07517 0.17771 0.43642 0.0
C1617 C 0.02611 0.1404 0.34765 0.0
C1618 C 0.09198 0.20984 0.58708 0.0
C1619 C 0.08608 0.20355 0.55107 0.0
C1620 C 0.05647 0.15947 0.49818 0.0
C1621 C 0.05296 0.15413 0.39189 0.0
C1622 C 0.05946 0.16166 0.43062 0.0
C1623 C 0.07918 0.18241 0.54285 0.0
C1624 C 0.07223 0.17547 0.50401 0.0
H1625 H 0.07359 0.1477 0.30573 0.0
H1626 H 0.08384 0.15892 0.36699 0.0
H1627 H 0.0382 0.14044 0.46037 0.0
H1628 H 0.08412 0.16222 0.62991 0.0
H1629 H 0.07417 0.15144 0.56844 0.0
C1630 C 0.08165 0.79985 0.58893 0.0
C1631 C 0.08886 0.77886 0.58201 0.0
C1632 C 0.07358 0.80606 0.62348 0.0
C1633 C 0.07007 0.78933 0.72424 0.0
H1634 H 0.02786 0.83382 0.72928 0.0
C1635 C 0.04483 0.82604 0.86589 0.0
C1636 C 0.02406 0.83376 0.87206 0.0
C1637 C 0.05188 0.81931 0.83108 0.0
C1638 C 0.03954 0.82126 0.72885 0.0
H1639 H 0.09269 0.74808 0.60835 0.0
H1640 H 0.07904 0.75877 0.66804 0.0
H1641 H 0.04131 0.82231 0.67018 0.0
H1642 H -0.00543 0.84 0.84384 0.0
H1643 H 0.00679 0.82857 0.78332 0.0
H1644 H 0.06814 0.78809 0.78282 0.0
C1645 C 0.0798 0.77074 0.64667 0.0
C1646 C 0.04761 0.81471 0.69438 0.0
C1647 C 0.08779 0.76448 0.61193 0.0
C1648 C 0.01073 0.83453 0.84098 0.0
C1649 C 0.01787 0.82786 0.80582 0.0
C1650 C 0.06214 0.79599 0.75869 0.0
C1651 C 0.07227 0.7917 0.65343 0.0
C1652 C 0.06321 0.79859 0.69097 0.0
C1653 C 0.03866 0.81988 0.79991 0.0
C1654 C 0.04671 0.81226 0.76214 0.0
H1655 H 0.08183 0.81164 0.56722 0.0
H1656 H 0.06847 0.82241 0.62659 0.0
H1657 H 0.08202 0.77703 0.72396 0.0
H1658 H 0.05591 0.82492 0.88837 0.0
H1659 H 0.06804 0.81381 0.82873 0.0
C1660 C 0.40178 0.79938 0.11411 0.0
C1661 C 0.39286 0.77896 0.12188 0.0
C1662 C 0.4084 0.80557 1.07854 0.0
C1663 C 0.40586 0.78969 0.97716 0.0
H1664 H 0.44873 0.8341 0.96697 0.0
C1665 C 0.42733 0.82525 0.83154 0.0
C1666 C 0.4474 0.83469 0.82394 0.0
C1667 C 0.42128 0.81848 0.8671 0.0
C1668 C 0.43684 0.82154 0.96868 0.0
H1669 H 0.38439 0.74912 1.09579 0.0
H1670 H 0.39582 0.75968 1.0343 0.0
H1671 H 0.43781 0.82209 1.02727 0.0
H1672 H 0.47678 0.84393 0.85032 0.0
H1673 H 0.46648 0.83222 0.91182 0.0
H1674 H 0.40542 0.78861 0.91858 0.0
C1675 C 0.39745 0.7713 1.05586 0.0
C1676 C 0.43018 0.81471 1.00406 0.0
C1677 C 0.39074 0.7651 1.09167 0.0
C1678 C 0.46107 0.83716 0.85431 0.0
C1679 C 0.45501 0.83029 0.89012 0.0
C1680 C 0.41256 0.79648 0.94178 0.0
C1681 C 0.40666 0.79173 1.04822 0.0
C1682 C 0.41433 0.79868 1.00951 0.0
C1683 C 0.43493 0.82058 0.8976 0.0
C1684 C 0.42814 0.81277 0.93632 0.0
H1685 H 0.40399 0.81079 0.13589 0.0
H1686 H 0.41481 0.82156 1.07506 0.0
H1687 H 0.39364 0.77746 0.97886 0.0
H1688 H 0.41608 0.82275 0.80963 0.0
H1689 H 0.40556 0.81168 0.87044 0.0
C1690 C 0.42926 0.1463 0.35877 0.0
C1691 C 0.4501 0.13914 0.36616 0.0
C1692 C 0.42277 0.1531 0.32345 0.0
C1693 C 0.43904 0.15354 0.22221 0.0
H1694 H 0.39287 0.19362 0.21292 0.0
C1695 C 0.40282 0.17404 1.07745 0.0
C1696 C 0.39326 0.19401 1.06994 0.0
C1697 C 0.40962 0.16803 0.11293 0.0
C1698 C 0.40591 0.18253 0.21446 0.0
H1699 H 0.48031 0.13396 0.3398 0.0
H1700 H 0.46926 0.1457 0.27893 0.0
H1701 H 0.40499 0.18252 0.27311 0.0
H1702 H 0.38377 0.22324 0.0964 0.0
H1703 H 0.39538 0.21289 0.15791 0.0
H1704 H 0.44037 0.15399 0.16362 0.0
C1705 C 0.45757 0.1458 0.30048 0.0
C1706 C 0.41282 0.17579 0.24968 0.0
C1707 C 0.46406 0.13895 0.33594 0.0
C1708 C 0.39064 0.20759 0.10033 0.0
C1709 C 0.39745 0.20154 0.1361 0.0
C1710 C 0.43213 0.16027 0.18702 0.0
C1711 C 0.43672 0.15323 0.29315 0.0
C1712 C 0.42952 0.16095 0.25473 0.0
C1713 C 0.40735 0.1816 0.14342 0.0
C1714 C 0.41522 0.17485 0.18195 0.0
H1715 H 0.41778 0.147 0.38064 0.0
H1716 H 0.40652 0.15813 0.32009 0.0
H1717 H 0.45178 0.14211 0.22365 0.0
H1718 H 0.40546 0.16287 1.05552 0.0
H1719 H 0.4166 0.15241 0.11626 0.0
C1720 C 0.8634 0.83578 0.64486 0.0
C1721 C 0.86178 0.84103 0.60777 0.0
C1722 C 0.86335 0.85175 0.67117 0.0
C1723 C 0.8763 0.90833 0.68407 0.0
H1724 H 0.85411 0.89473 0.77985 0.0
C1725 C 0.92036 0.92778 0.81255 0.0
C1726 C 0.9106 0.92336 0.84623 0.0
C1727 C 0.90838 0.92805 0.78057 0.0
C1728 C 0.85998 0.89943 0.75327 0.0
H1729 H 0.85863 0.86722 0.56915 0.0
H1730 H 0.8583 0.89522 0.61539 0.0
H1731 H 0.84349 0.8733 0.72853 0.0
H1732 H 0.88 0.92057 0.87331 0.0
H1733 H 0.85917 0.92293 0.81818 0.0
H1734 H 0.89295 0.93442 0.7089 0.0
C1735 C 0.85969 0.8787 0.624 0.0
C1736 C 0.85411 0.88676 0.72379 0.0
C1737 C 0.85974 0.86265 0.59759 0.0
C1738 C 0.88829 0.92347 0.84793 0.0
C1739 C 0.87625 0.92446 0.81602 0.0
C1740 C 0.88194 0.92129 0.71356 0.0
C1741 C 0.86158 0.87341 0.6611 0.0
C1742 C 0.86328 0.89019 0.68942 0.0
C1743 C 0.88627 0.92458 0.78177 0.0
C1744 C 0.87498 0.91613 0.74902 0.0
H1745 H 0.86473 0.81928 0.65362 0.0
H1746 H 0.86528 0.84711 0.69944 0.0
H1747 H 0.88344 0.91159 0.65778 0.0
H1748 H 0.93747 0.92893 0.81037 0.0
H1749 H 0.91686 0.92868 0.75496 0.0
C1750 C 0.85981 0.14436 0.55198 0.0
C1751 C 0.85961 0.13685 0.58806 0.0
C1752 C 0.85853 0.1301 0.52303 0.0
C1753 C 0.87125 0.07478 0.50046 0.0
H1754 H 0.85121 0.09498 0.40681 0.0
C1755 C 0.91944 0.06609 0.3739 0.0
C1756 C 0.91101 0.07243 0.34013 0.0
C1757 C 0.90626 0.06357 0.40415 0.0
C1758 C 0.85647 0.08843 0.43257 0.0
H1759 H 0.8571 0.10846 0.62211 0.0
H1760 H 0.85443 0.08348 0.57132 0.0
H1761 H 0.83915 0.11203 0.46159 0.0
H1762 H 0.88163 0.07713 0.31024 0.0
H1763 H 0.85862 0.07113 0.36222 0.0
H1764 H 0.88853 0.05108 0.47145 0.0
C1765 C 0.85585 0.10043 0.56549 0.0
C1766 C 0.84977 0.09859 0.46416 0.0
C1767 C 0.85723 0.11476 0.59457 0.0
C1768 C 0.88882 0.07267 0.33594 0.0
C1769 C 0.87557 0.06954 0.36604 0.0
C1770 C 0.87759 0.06424 0.46883 0.0
C1771 C 0.85682 0.10793 0.52934 0.0
C1772 C 0.85837 0.09297 0.49814 0.0
C1773 C 0.88424 0.0668 0.40111 0.0
C1774 C 0.87164 0.07204 0.43427 0.0
H1775 H 0.86124 0.16129 0.54602 0.0
H1776 H 0.85977 0.13652 0.49564 0.0
H1777 H 0.87795 0.06974 0.52625 0.0
H1778 H 0.93642 0.06481 0.37776 0.0
H1779 H 0.91378 0.06118 0.43034 0.0
C1780 C 0.66634 0.16253 0.12526 0.0
C1781 C 0.65978 0.15321 1.09233 0.0
C1782 C 0.66869 0.15 0.15651 0.0
C1783 C 0.64293 0.10059 0.18892 0.0
H1784 H 0.66113 0.12484 0.28081 0.0
C1785 C 0.58642 0.10709 0.30667 0.0
C1786 C 0.59347 0.10737 0.34293 0.0
C1787 C 0.60085 0.10539 0.27816 0.0
C1788 C 0.65622 0.11738 0.25557 0.0
H1789 H 0.65463 0.1229 1.06489 0.0
H1790 H 0.66037 0.101 0.11856 0.0
H1791 H 0.68033 0.13394 0.22541 0.0
H1792 H 0.62123 0.10548 0.37778 0.0
H1793 H 0.64653 0.10214 0.32772 0.0
H1794 H 0.6189 0.084 0.2191 0.0
C1795 C 0.66222 0.11816 0.121 0.0
C1796 C 0.66707 0.12286 0.22358 0.0
C1797 C 0.65924 0.13077 1.0899 0.0
C1798 C 0.61529 0.10524 0.35009 0.0
C1799 C 0.6298 0.10345 0.32143 0.0
C1800 C 0.63244 0.09475 0.22091 0.0
C1801 C 0.66508 0.12775 0.15531 0.0
C1802 C 0.65947 0.11591 0.18948 0.0
C1803 C 0.62274 0.10372 0.28509 0.0
C1804 C 0.6379 0.1044 0.25411 0.0
H1805 H 0.66789 0.17973 0.12773 0.0
H1806 H 0.67123 0.15822 0.18202 0.0
H1807 H 0.63652 0.09455 0.1636 0.0
H1808 H 0.5697 0.10831 0.30022 0.0
H1809 H 0.59481 0.10613 0.25056 0.0
C1810 C 0.60804 0.88028 0.85161 0.0
C1811 C 0.58631 0.87656 0.85815 0.0
C1812 C 0.62231 0.88222 0.88065 0.0
C1813 C 0.62447 0.88697 0.98217 0.0
H1814 H 0.67331 0.85026 0.97309 0.0
C1815 C 0.65331 0.84699 0.10877 0.0
C1816 C 0.65438 0.82472 0.10388 0.0
C1817 C 0.65541 0.86087 1.07899 0.0
C1818 C 0.65979 0.86065 0.97619 0.0
H1819 H 0.56237 0.87323 0.90023 0.0
H1820 H 0.58712 0.87566 0.95056 0.0
H1821 H 0.654 0.86098 0.91884 0.0
H1822 H 0.66223 0.79995 1.06518 0.0
H1823 H 0.66422 0.82364 1.01322 0.0
H1824 H 0.62851 0.88473 1.03945 0.0
C1825 C 0.59326 0.87751 0.92317 0.0
C1826 C 0.64886 0.86707 0.9449 0.0
C1827 C 0.57905 0.87569 0.89425 0.0
C1828 C 0.6604 0.81695 1.06962 0.0
C1829 C 0.66196 0.83073 1.03974 0.0
C1830 C 0.63507 0.88018 1.01343 0.0
C1831 C 0.61513 0.88045 0.9168 0.0
C1832 C 0.63024 0.87914 0.94783 0.0
C1833 C 0.658 0.85273 1.0436 0.0
C1834 C 0.652 0.86571 1.01101 0.0
H1835 H 0.61415 0.88097 0.82405 0.0
H1836 H 0.639 0.88461 0.87477 0.0
H1837 H 0.61066 0.89698 0.98524 0.0
H1838 H 0.649 0.85369 0.13483 0.0
H1839 H 0.6532 0.87781 1.08338 0.0
C1840 C 0.52281 0.64197 0.85242 0.0
C1841 C 0.53788 0.63751 0.82488 0.0
C1842 C 0.52898 0.64851 0.88818 0.0
C1843 C 0.57461 0.64808 0.95628 0.0
H1844 H 0.54517 0.69411 1.00437 0.0
C1845 C 0.58934 0.67016 0.11256 0.0
C1846 C 0.59012 0.69194 0.12309 0.0
C1847 C 0.58359 0.66373 1.07661 0.0
C1848 C 0.55372 0.68122 0.99161 0.0
H1849 H 0.57181 0.63624 0.81586 0.0
H1850 H 0.58238 0.64644 0.87771 0.0
H1851 H 0.53389 0.68237 0.94346 0.0
H1852 H 0.58504 0.72383 0.10167 0.0
H1853 H 0.5745 0.71271 1.04007 0.0
H1854 H 0.59411 0.64656 1.0047 0.0
C1855 C 0.56561 0.64525 0.87155 0.0
C1856 C 0.54707 0.67429 0.95632 0.0
C1857 C 0.55945 0.63928 0.83558 0.0
C1858 C 0.58494 0.70692 1.09541 0.0
C1859 C 0.57863 0.70045 1.0597 0.0
C1860 C 0.58091 0.65463 0.99191 0.0
C1861 C 0.55058 0.65036 0.89879 0.0
C1862 C 0.55742 0.65761 0.9375 0.0
C1863 C 0.57775 0.67865 1.04925 0.0
C1864 C 0.57076 0.67149 1.01056 0.0
H1865 H 0.50604 0.64113 0.84602 0.0
H1866 H 0.51665 0.65206 0.9077 0.0
H1867 H 0.58316 0.63517 0.94358 0.0
H1868 H 0.59297 0.65785 0.13238 0.0
H1869 H 0.58316 0.6468 1.07056 0.0
C1870 C 0.56091 0.33359 0.35703 0.0
C1871 C 0.5393 0.33519 0.36724 0.0
C1872 C 0.5672 0.3275 0.32128 0.0
C1873 C 0.5489 0.29785 0.23665 0.0
H1874 H 0.59633 0.32607 0.18872 0.0
C1875 C 0.58726 0.26536 0.09846 0.0
C1876 C 0.59263 0.28039 1.07081 0.0
C1877 C 0.58082 0.2718 0.13403 0.0
C1878 C 0.58302 0.31787 0.20139 0.0
H1879 H 0.50754 0.33114 0.34555 0.0
H1880 H 0.51839 0.32006 0.28423 0.0
H1881 H 0.58514 0.33757 0.24947 0.0
H1882 H 0.59565 0.31451 1.06136 0.0
H1883 H 0.58559 0.32551 0.1229 0.0
H1884 H 0.54713 0.2778 0.18882 0.0
C1885 C 0.53063 0.32383 0.30395 0.0
C1886 C 0.57659 0.32448 0.2368 0.0
C1887 C 0.52433 0.33047 0.33948 0.0
C1888 C 0.59188 0.30217 1.08119 0.0
C1889 C 0.58599 0.30858 0.11698 0.0
C1890 C 0.55569 0.29087 0.20157 0.0
C1891 C 0.55227 0.32213 0.29383 0.0
C1892 C 0.55925 0.31479 0.25539 0.0
C1893 C 0.57997 0.29362 0.14431 0.0
C1894 C 0.57286 0.30078 0.1828 0.0
H1895 H 0.57318 0.33682 0.37697 0.0
H1896 H 0.584 0.32644 0.31546 0.0
H1897 H 0.53563 0.28964 0.24941 0.0
H1898 H 0.58731 0.24845 1.09228 0.0
H1899 H 0.57654 0.25952 0.15366 0.0
C1900 C 0.9278 0.33358 0.33146 0.0
C1901 C 0.94936 0.33287 0.32068 0.0
C1902 C 0.92103 0.3271 0.36692 0.0
C1903 C 0.93588 0.29286 0.44866 0.0
H1904 H 0.89374 0.32555 0.50047 0.0
C1905 C 0.89489 0.26264 0.58754 0.0
C1906 C 0.893 0.27771 0.61602 0.0
C1907 C 0.90158 0.2688 0.55174 0.0
C1908 C 0.90551 0.31607 0.48664 0.0
H1909 H 0.98043 0.32394 0.34063 0.0
H1910 H 0.96866 0.31224 0.40137 0.0
H1911 H 0.90559 0.33715 0.43985 0.0
H1912 H 0.8964 0.31162 0.62687 0.0
H1913 H 0.90675 0.32223 0.56518 0.0
H1914 H 0.93545 0.27154 0.49534 0.0
C1915 C 0.9569 0.31821 0.38247 0.0
C1916 C 0.91231 0.32275 0.45134 0.0
C1917 C 0.96376 0.32523 0.34733 0.0
C1918 C 0.89739 0.29928 0.60636 0.0
C1919 C 0.90346 0.30548 0.5705 0.0
C1920 C 0.92867 0.28587 0.48366 0.0
C1921 C 0.93533 0.31898 0.39328 0.0
C1922 C 0.92781 0.31145 0.43144 0.0
C1923 C 0.90606 0.29042 0.54228 0.0
C1924 C 0.91339 0.29739 0.50374 0.0
H1925 H 0.91596 0.33905 0.31225 0.0
H1926 H 0.9043 0.32797 0.37334 0.0
H1927 H 0.94767 0.28341 0.43479 0.0
H1928 H 0.89194 0.24587 0.59318 0.0
H1929 H 0.90316 0.2565 0.5313 0.0
C1930 C 0.97848 0.64262 0.83938 0.0
C1931 C 0.96491 0.64057 0.86998 0.0
C1932 C 0.97082 0.64952 0.80455 0.0
C1933 C 0.92241 0.67582 0.75789 0.0
H1934 H 0.94972 0.65844 0.66868 0.0
C1935 C 0.89344 0.70789 0.61226 0.0
C1936 C 0.89587 0.69478 0.58122 0.0
C1937 C 0.90199 0.70207 0.64703 0.0
C1938 C 0.94154 0.66345 0.69305 0.0
H1939 H 0.932 0.64438 0.88573 0.0
H1940 H 0.91893 0.65559 0.82653 0.0
H1941 H 0.96379 0.64669 0.72728 0.0
H1942 H 0.90994 0.66487 0.56446 0.0
H1943 H 0.92419 0.65488 0.6235 0.0
H1944 H 0.89996 0.69228 0.72364 0.0
C1945 C 0.9357 0.65237 0.82904 0.0
C1946 C 0.94996 0.6568 0.72734 0.0
C1947 C 0.94331 0.64555 0.8636 0.0
C1948 C 0.90726 0.67561 0.587 0.0
C1949 C 0.91586 0.66988 0.62144 0.0
C1950 C 0.91403 0.68251 0.72362 0.0
C1951 C 0.94917 0.65478 0.7984 0.0
C1952 C 0.94054 0.66259 0.7609 0.0
C1953 C 0.91361 0.68291 0.6526 0.0
C1954 C 0.92319 0.67636 0.69006 0.0
H1955 H -0.00478 0.63931 0.84241 0.0
H1956 H 0.98216 0.65117 0.78257 0.0
H1957 H 0.91453 0.68131 0.78224 0.0
H1958 H 0.88523 0.72295 0.60961 0.0
H1959 H 0.89983 0.71299 0.66946 0.0
C1960 C 0.38683 0.40048 0.3536 0.0
C1961 C 0.40896 0.40176 0.34892 0.0
C1962 C 0.37326 0.40294 0.32377 0.0
C1963 C 0.37427 0.40827 0.221 0.0
H1964 H 0.33763 0.35836 0.22903 0.0
C1965 C 0.35474 0.35669 1.09567 0.0
C1966 C 0.35798 0.33475 0.10207 0.0
C1967 C 0.35306 0.3709 0.12481 0.0
C1968 C 0.34774 0.37239 0.22624 0.0
H1969 H 0.43385 0.41053 0.31075 0.0
H1970 H 0.41069 0.41308 0.25865 0.0
H1971 H 0.34951 0.3761 0.28357 0.0
H1972 H 0.36085 0.3104 0.14401 0.0
H1973 H 0.35886 0.33505 0.19448 0.0
H1974 H 0.37436 0.40279 0.16358 0.0
C1975 C 0.40346 0.41036 0.28502 0.0
C1976 C 0.35432 0.38293 0.25769 0.0
C1977 C 0.41694 0.40847 0.31497 0.0
C1978 C 0.35875 0.32724 0.13813 0.0
C1979 C 0.35718 0.3414 0.16714 0.0
C1980 C 0.36805 0.39739 0.18951 0.0
C1981 C 0.38157 0.40606 0.28853 0.0
C1982 C 0.36888 0.40014 0.25567 0.0
C1983 C 0.3546 0.36345 0.16091 0.0
C1984 C 0.35586 0.37848 0.19209 0.0
H1985 H 0.37997 0.39568 0.37944 0.0
H1986 H 0.3564 0.40052 0.32794 0.0
H1987 H 0.38473 0.42201 0.21817 0.0
H1988 H 0.35416 0.36299 1.06815 0.0
H1989 H 0.35097 0.38775 0.11905 0.0
C1990 C 0.35703 0.64498 1.05258 0.0
C1991 C 0.35614 0.63778 1.08881 0.0
C1992 C 0.35584 0.63051 1.02392 0.0
C1993 C 0.36771 0.57472 1.00331 0.0
H1994 H 0.34917 0.59426 0.90834 0.0
C1995 C 0.41684 0.56345 0.87832 0.0
C1996 C 0.40873 0.56928 0.84405 0.0
C1997 C 0.40342 0.56168 0.90839 0.0
C1998 C 0.35399 0.58791 0.9345 0.0
H1999 H 0.35251 0.60971 0.12339 0.0
H2000 H 0.34999 0.58439 1.0731 0.0
H2001 H 0.3369 0.61226 0.96213 0.0
H2002 H 0.37963 0.57389 0.81332 0.0
H2003 H 0.35619 0.56924 0.86511 0.0
H2004 H 0.38481 0.55034 0.97568 0.0
C2005 C 0.35187 0.60126 1.06694 0.0
C2006 C 0.34718 0.59861 0.96551 0.0
C2007 C 0.35316 0.61579 1.09572 0.0
C2008 C 0.38658 0.56978 0.83938 0.0
C2009 C 0.37308 0.56743 0.86935 0.0
C2010 C 0.37417 0.56369 0.97228 0.0
C2011 C 0.35355 0.60843 1.03068 0.0
C2012 C 0.35524 0.59316 0.99996 0.0
C2013 C 0.38147 0.56518 0.9047 0.0
C2014 C 0.36873 0.57119 0.93728 0.0
H2015 H 0.35896 0.66184 1.04631 0.0
H2016 H 0.35761 0.63666 0.99644 0.0
H2017 H 0.37399 0.56984 1.02949 0.0
H2018 H 0.43377 0.56201 0.88261 0.0
H2019 H 0.41071 0.55965 0.93487 0.0
C2020 C 0.14964 0.61746 0.59719 0.0
C2021 C 0.14866 0.63924 0.60645 0.0
C2022 C 0.15243 0.60186 0.62419 0.0
C2023 C 0.15935 0.59529 0.7258 0.0
H2024 H 0.11749 0.55033 0.71189 0.0
C2025 C 0.11489 0.56574 0.84912 0.0
C2026 C 0.09279 0.56559 0.84349 0.0
C2027 C 0.12882 0.56425 0.81962 0.0
C2028 C 0.12919 0.56283 0.71644 0.0
H2029 H 0.1524 0.66178 0.65071 0.0
H2030 H 0.15584 0.63493 0.69769 0.0
H2031 H 0.13042 0.57026 0.6598 0.0
H2032 H 0.06819 0.56021 0.80313 0.0
H2033 H 0.09198 0.55943 0.75189 0.0
H2034 H 0.15614 0.58986 0.78269 0.0
C2035 C 0.15484 0.62958 0.66975 0.0
C2036 C 0.137 0.57408 0.68624 0.0
C2037 C 0.15244 0.64512 0.64275 0.0
C2038 C 0.08508 0.5613 0.80834 0.0
C2039 C 0.09894 0.56042 0.77878 0.0
C2040 C 0.15103 0.58453 0.75607 0.0
C2041 C 0.15395 0.60765 0.66111 0.0
C2042 C 0.15112 0.59147 0.69081 0.0
C2043 C 0.12098 0.56321 0.78373 0.0
C2044 C 0.13473 0.56914 0.75198 0.0
H2045 H 0.14688 0.61229 0.56947 0.0
H2046 H 0.15225 0.58521 0.61624 0.0
H2047 H 0.17099 0.60786 0.73031 0.0
H2048 H 0.12156 0.56874 0.87581 0.0
H2049 H 0.14568 0.56549 0.82488 0.0
C2050 C 0.10796 0.38778 0.33998 0.0
C2051 C 0.08599 0.38722 0.34671 0.0
C2052 C 0.12237 0.39069 0.3686 0.0
C2053 C 0.12466 0.3977 0.47085 0.0
H2054 H 0.16867 0.3553 0.46217 0.0
C2055 C 0.14879 0.35219 0.59745 0.0
C2056 C 0.14911 0.32994 0.59194 0.0
C2057 C 0.15095 0.36632 0.56799 0.0
C2058 C 0.15639 0.36713 0.46526 0.0
H2059 H 0.06196 0.3921 0.38802 0.0
H2060 H 0.08663 0.39554 0.43783 0.0
H2061 H 0.15162 0.36868 0.40794 0.0
H2062 H 0.15498 0.30532 0.55192 0.0
H2063 H 0.15706 0.32944 0.5007 0.0
H2064 H 0.12743 0.39408 0.52825 0.0
C2065 C 0.09311 0.39412 0.41068 0.0
C2066 C 0.1468 0.37523 0.43383 0.0
C2067 C 0.07878 0.39169 0.38202 0.0
C2068 C 0.15385 0.32231 0.557 0.0
C2069 C 0.15549 0.33636 0.5275 0.0
C2070 C 0.13371 0.38905 0.5023 0.0
C2071 C 0.11514 0.39266 0.40471 0.0
C2072 C 0.12977 0.38955 0.43633 0.0
C2073 C 0.15296 0.35854 0.53224 0.0
C2074 C 0.14869 0.37254 0.49995 0.0
H2075 H 0.11417 0.38455 0.31309 0.0
H2076 H 0.13916 0.39017 0.36258 0.0
H2077 H 0.11239 0.40955 0.47392 0.0
H2078 H 0.14536 0.35875 0.62401 0.0
H2079 H 0.14972 0.38329 0.57312 0.0
loop_
_geom_bond_atom_site_label_1
_geom_bond_atom_site_label_2
_geom_bond_distance
_geom_bond_site_symmetry_2
_ccdc_geom_bond_type
Dy0 O3 2.307 . S
Dy0 O5 2.395 . S
Dy0 O6 2.379 . S
Dy0 O8 2.350 . S
Dy0 O10 2.298 1_655 S
Dy0 O14 2.275 1_655 S
Dy0 C22 2.738 . S
Dy1 O4 2.298 . S
Dy1 O7 2.275 . S
Dy1 O9 2.307 . S
Dy1 O11 2.395 . S
Dy1 O12 2.379 . S
Dy1 O15 2.339 . S
Dy1 C31 2.738 . S
C2 O14 1.254 . S
C2 O15 1.257 . S
O3 Dy0 2.307 . S
O3 C13 1.266 . S
O4 Dy1 2.298 . S
O4 C13 1.236 1_455 S
O5 Dy0 2.395 . S
O5 C22 1.255 . S
O6 Dy0 2.379 . S
O6 C22 1.249 . S
O7 Dy1 2.275 . S
O7 C23 1.254 . S
O8 Dy0 2.350 . S
O8 C23 1.216 1_655 S
O9 Dy1 2.307 . S
O9 C24 1.266 . S
O10 Dy0 2.298 1_455 S
O10 C24 1.236 . S
O11 Dy1 2.395 . S
O11 C31 1.255 . S
O12 Dy1 2.379 . S
O12 C31 1.249 . S
C13 O3 1.266 . S
C13 O4 1.236 1_655 S
O14 Dy0 2.275 1_455 S
O14 C2 1.254 . S
O15 Dy1 2.339 . S
O15 C2 1.257 . S
C16 C19 1.344 . S
C16 C20 1.328 . S
C16 C22 1.516 . S
C17 C18 1.304 . S
C17 C21 1.323 . S
C18 C17 1.304 . S
C18 C19 1.371 . S
C18 H32 0.930 . S
C19 C16 1.344 . S
C19 C18 1.371 . S
C19 H33 0.931 . S
C20 C16 1.328 . S
C20 C21 1.433 . S
C20 H34 0.931 . S
C21 C17 1.323 . S
C21 C20 1.433 . S
C21 H35 0.933 . S
C22 Dy0 2.738 . S
C22 O5 1.255 . S
C22 O6 1.249 . S
C22 C16 1.516 . S
C23 O7 1.254 . S
C23 O8 1.216 1_455 S
C24 O9 1.266 . S
C24 O10 1.236 . S
C25 C28 1.344 1_554 S
C25 C29 1.328 1_554 S
C25 C31 1.516 . S
C26 C27 1.304 . S
C26 C30 1.323 . S
C27 C26 1.304 . S
C27 C28 1.371 . S
C27 H36 0.930 . S
C28 C25 1.344 1_556 S
C28 C27 1.371 . S
C28 H37 0.931 . S
C29 C25 1.328 1_556 S
C29 C30 1.433 . S
C29 H38 0.931 1_556 S
C30 C26 1.323 . S
C30 C29 1.433 . S
C30 H39 0.933 . S
C31 Dy1 2.738 . S
C31 O11 1.255 . S
C31 O12 1.249 . S
C31 C25 1.516 . S
H32 C18 0.930 . S
H33 C19 0.931 . S
H34 C20 0.931 . S
H35 C21 0.933 . S
H36 C27 0.930 . S
H37 C28 0.931 . S
H38 C29 0.931 1_554 S
H39 C30 0.933 . S
Dy40 O43 2.307 . S
Dy40 O45 2.395 . S
Dy40 O46 2.379 . S
Dy40 O48 2.339 . S
Dy40 O50 2.298 . S
Dy40 O54 2.275 . S
Dy40 C62 2.738 . S
Dy41 O44 2.298 . S
Dy41 O47 2.275 . S
Dy41 O49 2.307 . S
Dy41 O51 2.395 . S
Dy41 O52 2.379 . S
Dy41 O55 2.339 . S
Dy41 C71 2.738 . S
C42 O54 1.254 . S
C42 O55 1.257 . S
O43 Dy40 2.307 . S
O43 C53 1.266 . S
O44 Dy41 2.298 . S
O44 C53 1.236 . S
O45 Dy40 2.395 . S
O45 C62 1.255 . S
O46 Dy40 2.379 . S
O46 C62 1.249 . S
O47 Dy41 2.275 . S
O47 C63 1.254 . S
O48 Dy40 2.339 . S
O48 C63 1.257 . S
O49 Dy41 2.307 . S
O49 C64 1.266 . S
O50 Dy40 2.298 . S
O50 C64 1.236 . S
O51 Dy41 2.395 . S
O51 C71 1.255 . S
O52 Dy41 2.379 . S
O52 C71 1.249 . S
C53 O43 1.266 . S
C53 O44 1.236 . S
O54 Dy40 2.275 . S
O54 C42 1.254 . S
O55 Dy41 2.339 . S
O55 C42 1.257 . S
C56 C59 1.344 . S
C56 C60 1.328 . S
C56 C62 1.516 . S
C57 C58 1.304 . S
C57 C61 1.323 . S
C58 C57 1.304 . S
C58 C59 1.371 . S
C58 H72 0.930 . S
C59 C56 1.344 . S
C59 C58 1.371 . S
C59 H73 0.931 . S
C60 C56 1.328 . S
C60 C61 1.433 . S
C60 H74 0.931 . S
C61 C57 1.323 . S
C61 C60 1.433 . S
C61 H75 0.933 . S
C62 Dy40 2.738 . S
C62 O45 1.255 . S
C62 O46 1.249 . S
C62 C56 1.516 . S
C63 O47 1.254 . S
C63 O48 1.257 . S
C64 O49 1.266 . S
C64 O50 1.236 . S
C65 C68 1.344 . S
C65 C69 1.328 . S
C65 C71 1.516 . S
C66 C67 1.304 . S
C66 C70 1.323 . S
C67 C66 1.304 . S
C67 C68 1.371 . S
C67 H76 0.930 . S
C68 C65 1.344 . S
C68 C67 1.371 . S
C68 H77 0.931 . S
C69 C65 1.328 . S
C69 C70 1.433 . S
C69 H78 0.931 . S
C70 C66 1.323 . S
C70 C69 1.433 . S
C70 H79 0.933 . S
C71 Dy41 2.738 . S
C71 O51 1.255 . S
C71 O52 1.249 . S
C71 C65 1.516 . S
H72 C58 0.930 . S
H73 C59 0.931 . S
H74 C60 0.931 . S
H75 C61 0.933 . S
H76 C67 0.930 . S
H77 C68 0.931 . S
H78 C69 0.931 . S
H79 C70 0.933 . S
Dy80 O83 2.307 . S
Dy80 O85 2.395 . S
Dy80 O86 2.379 . S
Dy80 O88 2.339 . S
Dy80 O90 2.298 . S
Dy80 O94 2.275 . S
Dy80 C102 2.738 . S
Dy81 O84 2.298 . S
Dy81 O87 2.275 . S
Dy81 O89 2.307 . S
Dy81 O91 2.395 . S
Dy81 O92 2.379 . S
Dy81 O95 2.339 . S
Dy81 C111 2.738 . S
C82 O94 1.254 . S
C82 O95 1.257 . S
O83 Dy80 2.307 . S
O83 C93 1.266 . S
O84 Dy81 2.298 . S
O84 C93 1.236 . S
O85 Dy80 2.395 . S
O85 C102 1.255 . S
O86 Dy80 2.379 . S
O86 C102 1.249 . S
O87 Dy81 2.275 . S
O87 C103 1.254 . S
O88 Dy80 2.339 . S
O88 C103 1.257 . S
O89 Dy81 2.307 . S
O89 C104 1.266 . S
O90 Dy80 2.298 . S
O90 C104 1.236 . S
O91 Dy81 2.395 . S
O91 C111 1.255 . S
O92 Dy81 2.379 . S
O92 C111 1.249 . S
C93 O83 1.266 . S
C93 O84 1.236 . S
O94 Dy80 2.275 . S
O94 C82 1.254 . S
O95 Dy81 2.339 . S
O95 C82 1.257 . S
C96 C99 1.344 . S
C96 C100 1.328 . S
C96 C102 1.516 . S
C97 C98 1.304 . S
C97 C101 1.323 . S
C98 C97 1.304 . S
C98 C99 1.371 . S
C98 H112 0.930 . S
C99 C96 1.344 . S
C99 C98 1.371 . S
C99 H113 0.931 . S
C100 C96 1.328 . S
C100 C101 1.433 . S
C100 H114 0.931 . S
C101 C97 1.323 . S
C101 C100 1.433 . S
C101 H115 0.933 . S
C102 Dy80 2.738 . S
C102 O85 1.255 . S
C102 O86 1.249 . S
C102 C96 1.516 . S
C103 O87 1.254 . S
C103 O88 1.257 . S
C104 O89 1.266 . S
C104 O90 1.236 . S
C105 C108 1.344 . S
C105 C109 1.328 . S
C105 C111 1.516 . S
C106 C107 1.304 . S
C106 C110 1.323 . S
C107 C106 1.304 . S
C107 C108 1.371 . S
C107 H116 0.930 . S
C108 C105 1.344 . S
C108 C107 1.371 . S
C108 H117 0.931 . S
C109 C105 1.328 . S
C109 C110 1.433 . S
C109 H118 0.931 . S
C110 C106 1.323 . S
C110 C109 1.433 . S
C110 H119 0.933 . S
C111 Dy81 2.738 . S
C111 O91 1.255 . S
C111 O92 1.249 . S
C111 C105 1.516 . S
H112 C98 0.930 . S
H113 C99 0.931 . S
H114 C100 0.931 . S
H115 C101 0.933 . S
H116 C107 0.930 . S
H117 C108 0.931 . S
H118 C109 0.931 . S
H119 C110 0.933 . S
Dy120 O123 2.307 . S
Dy120 O125 2.395 . S
Dy120 O126 2.379 . S
Dy120 O128 2.339 . S
Dy120 O130 2.298 . S
Dy120 O134 2.275 . S
Dy120 C142 2.738 . S
Dy121 O124 2.298 . S
Dy121 O127 2.275 . S
Dy121 O129 2.307 . S
Dy121 O131 2.395 . S
Dy121 O132 2.379 . S
Dy121 O135 2.339 . S
Dy121 C151 2.738 . S
C122 O134 1.254 . S
C122 O135 1.257 . S
O123 Dy120 2.307 . S
O123 C133 1.266 . S
O124 Dy121 2.298 . S
O124 C133 1.236 . S
O125 Dy120 2.395 . S
O125 C142 1.255 . S
O126 Dy120 2.379 . S
O126 C142 1.249 . S
O127 Dy121 2.275 . S
O127 C143 1.254 . S
O128 Dy120 2.339 . S
O128 C143 1.257 . S
O129 Dy121 2.307 . S
O129 C144 1.266 . S
O130 Dy120 2.298 . S
O130 C144 1.236 . S
O131 Dy121 2.395 . S
O131 C151 1.255 . S
O132 Dy121 2.379 . S
O132 C151 1.249 . S
C133 O123 1.266 . S
C133 O124 1.236 . S
O134 Dy120 2.275 . S
O134 C122 1.254 . S
O135 Dy121 2.339 . S
O135 C122 1.257 . S
C136 C139 1.333 1_556 S
C136 C140 1.328 . S
C136 C142 1.516 . S
C137 C138 1.304 . S
C137 C141 1.323 . S
C138 C137 1.304 . S
C138 C139 1.387 . S
C138 H152 0.930 . S
C139 C136 1.333 1_554 S
C139 C138 1.387 . S
C139 H153 0.926 1_554 S
C140 C136 1.328 . S
C140 C141 1.433 1_556 S
C140 H154 0.931 . S
C141 C137 1.323 . S
C141 C140 1.433 1_554 S
C141 H155 0.933 . S
C142 Dy120 2.738 . S
C142 O125 1.255 . S
C142 O126 1.249 . S
C142 C136 1.516 . S
C143 O127 1.254 . S
C143 O128 1.257 . S
C144 O129 1.266 . S
C144 O130 1.236 . S
C145 C148 1.344 . S
C145 C149 1.328 . S
C145 C151 1.516 . S
C146 C147 1.304 . S
C146 C150 1.323 . S
C147 C146 1.304 . S
C147 C148 1.371 . S
C147 H156 0.930 . S
C148 C145 1.344 . S
C148 C147 1.371 . S
C148 H157 0.931 . S
C149 C145 1.328 . S
C149 C150 1.433 . S
C149 H158 0.931 . S
C150 C146 1.323 . S
C150 C149 1.433 . S
C150 H159 0.933 . S
C151 Dy121 2.738 . S
C151 O131 1.255 . S
C151 O132 1.249 . S
C151 C145 1.516 . S
H152 C138 0.930 . S
H153 C139 0.926 1_556 S
H154 C140 0.931 . S
H155 C141 0.933 . S
H156 C147 0.930 . S
H157 C148 0.931 . S
H158 C149 0.931 . S
H159 C150 0.933 . S
Dy160 O163 2.307 . S
Dy160 O165 2.395 . S
Dy160 O166 2.379 . S
Dy160 O168 2.350 . S
Dy160 O170 2.298 1_655 S
Dy160 O174 2.275 1_655 S
Dy160 C182 2.738 . S
Dy161 O164 2.298 . S
Dy161 O167 2.275 . S
Dy161 O169 2.307 . S
Dy161 O171 2.395 . S
Dy161 O172 2.379 . S
Dy161 O175 2.339 . S
Dy161 C191 2.738 . S
C162 O174 1.254 . S
C162 O175 1.257 . S
O163 Dy160 2.307 . S
O163 C173 1.266 . S
O164 Dy161 2.298 . S
O164 C173 1.236 1_455 S
O165 Dy160 2.395 . S
O165 C182 1.255 . S
O166 Dy160 2.379 . S
O166 C182 1.249 . S
O167 Dy161 2.275 . S
O167 C183 1.254 . S
O168 Dy160 2.350 . S
O168 C183 1.216 1_655 S
O169 Dy161 2.307 . S
O169 C184 1.266 . S
O170 Dy160 2.298 1_455 S
O170 C184 1.236 . S
O171 Dy161 2.395 . S
O171 C191 1.255 . S
O172 Dy161 2.379 . S
O172 C191 1.249 . S
C173 O163 1.266 . S
C173 O164 1.236 1_655 S
O174 Dy160 2.275 1_455 S
O174 C162 1.254 . S
O175 Dy161 2.339 . S
O175 C162 1.257 . S
C176 C179 1.344 . S
C176 C180 1.328 . S
C176 C182 1.516 . S
C177 C178 1.304 . S
C177 C181 1.323 . S
C178 C177 1.304 . S
C178 C179 1.371 . S
C178 H192 0.930 . S
C179 C176 1.344 . S
C179 C178 1.371 . S
C179 H193 0.931 . S
C180 C176 1.328 . S
C180 C181 1.433 . S
C180 H194 0.931 . S
C181 C177 1.323 . S
C181 C180 1.433 . S
C181 H195 0.933 . S
C182 Dy160 2.738 . S
C182 O165 1.255 . S
C182 O166 1.249 . S
C182 C176 1.516 . S
C183 O167 1.254 . S
C183 O168 1.216 1_455 S
C184 O169 1.266 . S
C184 O170 1.236 . S
C185 C188 1.344 1_556 S
C185 C189 1.328 1_556 S
C185 C191 1.516 . S
C186 C187 1.304 . S
C186 C190 1.323 . S
C187 C186 1.304 . S
C187 C188 1.371 . S
C187 H196 0.930 . S
C188 C185 1.344 1_554 S
C188 C187 1.371 . S
C188 H197 0.931 . S
C189 C185 1.328 1_554 S
C189 C190 1.433 . S
C189 H198 0.931 1_554 S
C190 C186 1.323 . S
C190 C189 1.433 . S
C190 H199 0.933 . S
C191 Dy161 2.738 . S
C191 O171 1.255 . S
C191 O172 1.249 . S
C191 C185 1.516 . S
H192 C178 0.930 . S
H193 C179 0.931 . S
H194 C180 0.931 . S
H195 C181 0.933 . S
H196 C187 0.930 . S
H197 C188 0.931 . S
H198 C189 0.931 1_556 S
H199 C190 0.933 . S
Dy200 O203 2.307 . S
Dy200 O205 2.395 . S
Dy200 O206 2.379 . S
Dy200 O208 2.339 . S
Dy200 O210 2.298 . S
Dy200 O214 2.275 . S
Dy200 C222 2.738 . S
Dy201 O204 2.298 . S
Dy201 O207 2.275 . S
Dy201 O209 2.307 . S
Dy201 O211 2.395 . S
Dy201 O212 2.379 . S
Dy201 O215 2.339 . S
Dy201 C231 2.738 . S
C202 O214 1.254 . S
C202 O215 1.257 . S
O203 Dy200 2.307 . S
O203 C213 1.266 . S
O204 Dy201 2.298 . S
O204 C213 1.236 . S
O205 Dy200 2.395 . S
O205 C222 1.255 . S
O206 Dy200 2.379 . S
O206 C222 1.249 . S
O207 Dy201 2.275 . S
O207 C223 1.254 . S
O208 Dy200 2.339 . S
O208 C223 1.257 . S
O209 Dy201 2.307 . S
O209 C224 1.266 . S
O210 Dy200 2.298 . S
O210 C224 1.236 . S
O211 Dy201 2.395 . S
O211 C231 1.255 . S
O212 Dy201 2.379 . S
O212 C231 1.249 . S
C213 O203 1.266 . S
C213 O204 1.236 . S
O214 Dy200 2.275 . S
O214 C202 1.254 . S
O215 Dy201 2.339 . S
O215 C202 1.257 . S
C216 C219 1.333 1_554 S
C216 C220 1.328 . S
C216 C222 1.516 . S
C217 C218 1.304 . S
C217 C221 1.323 . S
C218 C217 1.304 . S
C218 C219 1.387 . S
C218 H232 0.930 . S
C219 C216 1.333 1_556 S
C219 C218 1.387 . S
C219 H233 0.926 1_556 S
C220 C216 1.328 . S
C220 C221 1.433 1_554 S
C220 H234 0.931 . S
C221 C217 1.323 . S
C221 C220 1.433 1_556 S
C221 H235 0.933 . S
C222 Dy200 2.738 . S
C222 O205 1.255 . S
C222 O206 1.249 . S
C222 C216 1.516 . S
C223 O207 1.254 . S
C223 O208 1.257 . S
C224 O209 1.266 . S
C224 O210 1.236 . S
C225 C228 1.344 . S
C225 C229 1.328 . S
C225 C231 1.516 . S
C226 C227 1.304 . S
C226 C230 1.323 . S
C227 C226 1.304 . S
C227 C228 1.371 . S
C227 H236 0.930 . S
C228 C225 1.344 . S
C228 C227 1.371 . S
C228 H237 0.931 . S
C229 C225 1.328 . S
C229 C230 1.433 . S
C229 H238 0.931 . S
C230 C226 1.323 . S
C230 C229 1.433 . S
C230 H239 0.933 . S
C231 Dy201 2.738 . S
C231 O211 1.255 . S
C231 O212 1.249 . S
C231 C225 1.516 . S
H232 C218 0.930 . S
H233 C219 0.926 1_554 S
H234 C220 0.931 . S
H235 C221 0.933 . S
H236 C227 0.930 . S
H237 C228 0.931 . S
H238 C229 0.931 . S
H239 C230 0.933 . S
Dy240 O243 2.307 . S
Dy240 O245 2.395 . S
Dy240 O246 2.379 . S
Dy240 O248 2.339 . S
Dy240 O250 2.298 . S
Dy240 O254 2.275 . S
Dy240 C262 2.738 . S
Dy241 O244 2.298 . S
Dy241 O247 2.275 . S
Dy241 O249 2.307 . S
Dy241 O251 2.395 . S
Dy241 O252 2.379 . S
Dy241 O255 2.339 . S
Dy241 C271 2.738 . S
C242 O254 1.254 . S
C242 O255 1.257 . S
O243 Dy240 2.307 . S
O243 C253 1.266 . S
O244 Dy241 2.298 . S
O244 C253 1.236 . S
O245 Dy240 2.395 . S
O245 C262 1.255 . S
O246 Dy240 2.379 . S
O246 C262 1.249 . S
O247 Dy241 2.275 . S
O247 C263 1.254 . S
O248 Dy240 2.339 . S
O248 C263 1.257 . S
O249 Dy241 2.307 . S
O249 C264 1.266 . S
O250 Dy240 2.298 . S
O250 C264 1.236 . S
O251 Dy241 2.395 . S
O251 C271 1.255 . S
O252 Dy241 2.379 . S
O252 C271 1.249 . S
C253 O243 1.266 . S
C253 O244 1.236 . S
O254 Dy240 2.275 . S
O254 C242 1.254 . S
O255 Dy241 2.339 . S
O255 C242 1.257 . S
C256 C259 1.344 . S
C256 C260 1.328 . S
C256 C262 1.516 . S
C257 C258 1.304 . S
C257 C261 1.323 . S
C258 C257 1.304 . S
C258 C259 1.371 . S
C258 H272 0.930 . S
C259 C256 1.344 . S
C259 C258 1.371 . S
C259 H273 0.931 . S
C260 C256 1.328 . S
C260 C261 1.433 . S
C260 H274 0.931 . S
C261 C257 1.323 . S
C261 C260 1.433 . S
C261 H275 0.933 . S
C262 Dy240 2.738 . S
C262 O245 1.255 . S
C262 O246 1.249 . S
C262 C256 1.516 . S
C263 O247 1.254 . S
C263 O248 1.257 . S
C264 O249 1.266 . S
C264 O250 1.236 . S
C265 C268 1.344 . S
C265 C269 1.328 . S
C265 C271 1.516 . S
C266 C267 1.304 . S
C266 C270 1.323 . S
C267 C266 1.304 . S
C267 C268 1.371 . S
C267 H276 0.930 . S
C268 C265 1.344 . S
C268 C267 1.371 . S
C268 H277 0.931 . S
C269 C265 1.328 . S
C269 C270 1.433 . S
C269 H278 0.931 . S
C270 C266 1.323 . S
C270 C269 1.433 . S
C270 H279 0.933 . S
C271 Dy241 2.738 . S
C271 O251 1.255 . S
C271 O252 1.249 . S
C271 C265 1.516 . S
H272 C258 0.930 . S
H273 C259 0.931 . S
H274 C260 0.931 . S
H275 C261 0.933 . S
H276 C267 0.930 . S
H277 C268 0.931 . S
H278 C269 0.931 . S
H279 C270 0.933 . S
Dy280 O283 2.307 . S
Dy280 O285 2.395 . S
Dy280 O286 2.379 . S
Dy280 O288 2.339 . S
Dy280 O290 2.298 . S
Dy280 O294 2.275 . S
Dy280 C302 2.738 . S
Dy281 O284 2.298 . S
Dy281 O287 2.275 . S
Dy281 O289 2.307 . S
Dy281 O291 2.395 . S
Dy281 O292 2.379 . S
Dy281 O295 2.339 . S
Dy281 C311 2.738 . S
C282 O294 1.254 . S
C282 O295 1.257 . S
O283 Dy280 2.307 . S
O283 C293 1.266 . S
O284 Dy281 2.298 . S
O284 C293 1.236 . S
O285 Dy280 2.395 . S
O285 C302 1.255 . S
O286 Dy280 2.379 . S
O286 C302 1.249 . S
O287 Dy281 2.275 . S
O287 C303 1.254 . S
O288 Dy280 2.339 . S
O288 C303 1.257 . S
O289 Dy281 2.307 . S
O289 C304 1.266 . S
O290 Dy280 2.298 . S
O290 C304 1.236 . S
O291 Dy281 2.395 . S
O291 C311 1.255 . S
O292 Dy281 2.379 . S
O292 C311 1.249 . S
C293 O283 1.266 . S
C293 O284 1.236 . S
O294 Dy280 2.275 . S
O294 C282 1.254 . S
O295 Dy281 2.339 . S
O295 C282 1.257 . S
C296 C299 1.344 . S
C296 C300 1.328 . S
C296 C302 1.516 . S
C297 C298 1.304 . S
C297 C301 1.323 . S
C298 C297 1.304 . S
C298 C299 1.371 . S
C298 H312 0.930 . S
C299 C296 1.344 . S
C299 C298 1.371 . S
C299 H313 0.931 . S
C300 C296 1.328 . S
C300 C301 1.433 . S
C300 H314 0.931 . S
C301 C297 1.323 . S
C301 C300 1.433 . S
C301 H315 0.933 . S
C302 Dy280 2.738 . S
C302 O285 1.255 . S
C302 O286 1.249 . S
C302 C296 1.516 . S
C303 O287 1.254 . S
C303 O288 1.257 . S
C304 O289 1.266 . S
C304 O290 1.236 . S
C305 C308 1.344 . S
C305 C309 1.328 . S
C305 C311 1.516 . S
C306 C307 1.304 . S
C306 C310 1.323 . S
C307 C306 1.304 . S
C307 C308 1.371 . S
C307 H316 0.930 . S
C308 C305 1.344 . S
C308 C307 1.371 . S
C308 H317 0.931 . S
C309 C305 1.328 . S
C309 C310 1.433 . S
C309 H318 0.931 . S
C310 C306 1.323 . S
C310 C309 1.433 . S
C310 H319 0.933 . S
C311 Dy281 2.738 . S
C311 O291 1.255 . S
C311 O292 1.249 . S
C311 C305 1.516 . S
H312 C298 0.930 . S
H313 C299 0.931 . S
H314 C300 0.931 . S
H315 C301 0.933 . S
H316 C307 0.930 . S
H317 C308 0.931 . S
H318 C309 0.931 . S
H319 C310 0.933 . S
Dy320 O323 2.307 . S
Dy320 O325 2.395 . S
Dy320 O326 2.379 . S
Dy320 O328 2.339 . S
Dy320 O330 2.298 . S
Dy320 O334 2.275 . S
Dy320 C342 2.738 . S
Dy321 O324 2.298 . S
Dy321 O327 2.275 . S
Dy321 O329 2.307 . S
Dy321 O331 2.395 . S
Dy321 O332 2.379 . S
Dy321 O335 2.339 . S
Dy321 C351 2.738 . S
C322 O334 1.254 . S
C322 O335 1.257 . S
O323 Dy320 2.307 . S
O323 C333 1.266 . S
O324 Dy321 2.298 . S
O324 C333 1.236 . S
O325 Dy320 2.395 . S
O325 C342 1.255 . S
O326 Dy320 2.379 . S
O326 C342 1.249 . S
O327 Dy321 2.275 . S
O327 C343 1.254 . S
O328 Dy320 2.339 . S
O328 C343 1.257 . S
O329 Dy321 2.307 . S
O329 C344 1.266 . S
O330 Dy320 2.298 . S
O330 C344 1.236 . S
O331 Dy321 2.395 . S
O331 C351 1.255 . S
O332 Dy321 2.379 . S
O332 C351 1.249 . S
C333 O323 1.266 . S
C333 O324 1.236 . S
O334 Dy320 2.275 . S
O334 C322 1.254 . S
O335 Dy321 2.339 . S
O335 C322 1.257 . S
C336 C339 1.344 . S
C336 C340 1.328 . S
C336 C342 1.516 . S
C337 C338 1.304 . S
C337 C341 1.323 . S
C338 C337 1.304 . S
C338 C339 1.371 . S
C338 H352 0.930 . S
C339 C336 1.344 . S
C339 C338 1.371 . S
C339 H353 0.931 . S
C340 C336 1.328 . S
C340 C341 1.433 . S
C340 H354 0.931 . S
C341 C337 1.323 . S
C341 C340 1.433 . S
C341 H355 0.933 . S
C342 Dy320 2.738 . S
C342 O325 1.255 . S
C342 O326 1.249 . S
C342 C336 1.516 . S
C343 O327 1.254 . S
C343 O328 1.257 . S
C344 O329 1.266 . S
C344 O330 1.236 . S
C345 C348 1.344 . S
C345 C349 1.328 . S
C345 C351 1.516 . S
C346 C347 1.304 . S
C346 C350 1.323 . S
C347 C346 1.304 . S
C347 C348 1.371 . S
C347 H356 0.930 . S
C348 C345 1.344 . S
C348 C347 1.371 . S
C348 H357 0.931 . S
C349 C345 1.328 . S
C349 C350 1.433 . S
C349 H358 0.931 . S
C350 C346 1.323 . S
C350 C349 1.433 . S
C350 H359 0.933 . S
C351 Dy321 2.738 . S
C351 O331 1.255 . S
C351 O332 1.249 . S
C351 C345 1.516 . S
H352 C338 0.930 . S
H353 C339 0.931 . S
H354 C340 0.931 . S
H355 C341 0.933 . S
H356 C347 0.930 . S
H357 C348 0.931 . S
H358 C349 0.931 . S
H359 C350 0.933 . S
Dy360 O363 2.307 . S
Dy360 O365 2.395 . S
Dy360 O366 2.379 . S
Dy360 O368 2.339 . S
Dy360 O370 2.298 . S
Dy360 O374 2.275 . S
Dy360 C382 2.738 . S
Dy361 O364 2.298 . S
Dy361 O367 2.275 . S
Dy361 O369 2.307 . S
Dy361 O371 2.395 . S
Dy361 O372 2.379 . S
Dy361 O375 2.339 . S
Dy361 C391 2.738 . S
C362 O374 1.254 . S
C362 O375 1.257 . S
O363 Dy360 2.307 . S
O363 C373 1.266 . S
O364 Dy361 2.298 . S
O364 C373 1.236 . S
O365 Dy360 2.395 . S
O365 C382 1.255 . S
O366 Dy360 2.379 . S
O366 C382 1.249 . S
O367 Dy361 2.275 . S
O367 C383 1.254 . S
O368 Dy360 2.339 . S
O368 C383 1.257 . S
O369 Dy361 2.307 . S
O369 C384 1.266 . S
O370 Dy360 2.298 . S
O370 C384 1.236 . S
O371 Dy361 2.395 . S
O371 C391 1.255 . S
O372 Dy361 2.379 . S
O372 C391 1.249 . S
C373 O363 1.266 . S
C373 O364 1.236 . S
O374 Dy360 2.275 . S
O374 C362 1.254 . S
O375 Dy361 2.339 . S
O375 C362 1.257 . S
C376 C379 1.333 1_554 S
C376 C380 1.328 . S
C376 C382 1.516 . S
C377 C378 1.304 . S
C377 C381 1.323 . S
C378 C377 1.304 . S
C378 C379 1.387 . S
C378 H392 0.930 . S
C379 C376 1.333 1_556 S
C379 C378 1.387 . S
C379 H393 0.926 1_556 S
C380 C376 1.328 . S
C380 C381 1.433 1_554 S
C380 H394 0.931 . S
C381 C377 1.323 . S
C381 C380 1.433 1_556 S
C381 H395 0.933 . S
C382 Dy360 2.738 . S
C382 O365 1.255 . S
C382 O366 1.249 . S
C382 C376 1.516 . S
C383 O367 1.254 . S
C383 O368 1.257 . S
C384 O369 1.266 . S
C384 O370 1.236 . S
C385 C388 1.344 . S
C385 C389 1.328 . S
C385 C391 1.516 . S
C386 C387 1.304 . S
C386 C390 1.323 . S
C387 C386 1.304 . S
C387 C388 1.371 . S
C387 H396 0.930 . S
C388 C385 1.344 . S
C388 C387 1.371 . S
C388 H397 0.931 . S
C389 C385 1.328 . S
C389 C390 1.433 . S
C389 H398 0.931 . S
C390 C386 1.323 . S
C390 C389 1.433 . S
C390 H399 0.933 . S
C391 Dy361 2.738 . S
C391 O371 1.255 . S
C391 O372 1.249 . S
C391 C385 1.516 . S
H392 C378 0.930 . S
H393 C379 0.926 1_554 S
H394 C380 0.931 . S
H395 C381 0.933 . S
H396 C387 0.930 . S
H397 C388 0.931 . S
H398 C389 0.931 . S
H399 C390 0.933 . S
Dy400 O403 2.307 . S
Dy400 O405 2.395 . S
Dy400 O406 2.379 . S
Dy400 O408 2.339 . S
Dy400 O410 2.298 . S
Dy400 O414 2.275 . S
Dy400 C422 2.738 . S
Dy401 O404 2.298 . S
Dy401 O407 2.275 . S
Dy401 O409 2.307 . S
Dy401 O411 2.395 . S
Dy401 O412 2.379 . S
Dy401 O415 2.339 . S
Dy401 C431 2.738 . S
C402 O414 1.254 . S
C402 O415 1.257 . S
O403 Dy400 2.307 . S
O403 C413 1.266 . S
O404 Dy401 2.298 . S
O404 C413 1.236 . S
O405 Dy400 2.395 . S
O405 C422 1.255 . S
O406 Dy400 2.379 . S
O406 C422 1.249 . S
O407 Dy401 2.275 . S
O407 C423 1.254 . S
O408 Dy400 2.339 . S
O408 C423 1.257 . S
O409 Dy401 2.307 . S
O409 C424 1.266 . S
O410 Dy400 2.298 . S
O410 C424 1.236 . S
O411 Dy401 2.395 . S
O411 C431 1.255 . S
O412 Dy401 2.379 . S
O412 C431 1.249 . S
C413 O403 1.266 . S
C413 O404 1.236 . S
O414 Dy400 2.275 . S
O414 C402 1.254 . S
O415 Dy401 2.339 . S
O415 C402 1.257 . S
C416 C419 1.333 1_556 S
C416 C420 1.328 . S
C416 C422 1.516 . S
C417 C418 1.304 . S
C417 C421 1.323 . S
C418 C417 1.304 . S
C418 C419 1.387 . S
C418 H432 0.930 . S
C419 C416 1.333 1_554 S
C419 C418 1.387 . S
C419 H433 0.926 1_554 S
C420 C416 1.328 . S
C420 C421 1.433 1_556 S
C420 H434 0.931 . S
C421 C417 1.323 . S
C421 C420 1.433 1_554 S
C421 H435 0.933 . S
C422 Dy400 2.738 . S
C422 O405 1.255 . S
C422 O406 1.249 . S
C422 C416 1.516 . S
C423 O407 1.254 . S
C423 O408 1.257 . S
C424 O409 1.266 . S
C424 O410 1.236 . S
C425 C428 1.344 . S
C425 C429 1.328 . S
C425 C431 1.516 . S
C426 C427 1.304 . S
C426 C430 1.323 . S
C427 C426 1.304 . S
C427 C428 1.371 . S
C427 H436 0.930 . S
C428 C425 1.344 . S
C428 C427 1.371 . S
C428 H437 0.931 . S
C429 C425 1.328 . S
C429 C430 1.433 . S
C429 H438 0.931 . S
C430 C426 1.323 . S
C430 C429 1.433 . S
C430 H439 0.933 . S
C431 Dy401 2.738 . S
C431 O411 1.255 . S
C431 O412 1.249 . S
C431 C425 1.516 . S
H432 C418 0.930 . S
H433 C419 0.926 1_556 S
H434 C420 0.931 . S
H435 C421 0.933 . S
H436 C427 0.930 . S
H437 C428 0.931 . S
H438 C429 0.931 . S
H439 C430 0.933 . S
Dy440 O443 2.307 . S
Dy440 O445 2.395 . S
Dy440 O446 2.379 . S
Dy440 O448 2.339 . S
Dy440 O450 2.298 . S
Dy440 O454 2.275 . S
Dy440 C462 2.738 . S
Dy441 O444 2.298 . S
Dy441 O447 2.275 . S
Dy441 O449 2.307 . S
Dy441 O451 2.395 . S
Dy441 O452 2.379 . S
Dy441 O455 2.339 . S
Dy441 C471 2.738 . S
C442 O454 1.254 . S
C442 O455 1.257 . S
O443 Dy440 2.307 . S
O443 C453 1.266 . S
O444 Dy441 2.298 . S
O444 C453 1.236 . S
O445 Dy440 2.395 . S
O445 C462 1.255 . S
O446 Dy440 2.379 . S
O446 C462 1.249 . S
O447 Dy441 2.275 . S
O447 C463 1.254 . S
O448 Dy440 2.339 . S
O448 C463 1.257 . S
O449 Dy441 2.307 . S
O449 C464 1.266 . S
O450 Dy440 2.298 . S
O450 C464 1.236 . S
O451 Dy441 2.395 . S
O451 C471 1.255 . S
O452 Dy441 2.379 . S
O452 C471 1.249 . S
C453 O443 1.266 . S
C453 O444 1.236 . S
O454 Dy440 2.275 . S
O454 C442 1.254 . S
O455 Dy441 2.339 . S
O455 C442 1.257 . S
C456 C459 1.344 . S
C456 C460 1.328 . S
C456 C462 1.516 . S
C457 C458 1.304 . S
C457 C461 1.323 . S
C458 C457 1.304 . S
C458 C459 1.371 . S
C458 H472 0.930 . S
C459 C456 1.344 . S
C459 C458 1.371 . S
C459 H473 0.931 . S
C460 C456 1.328 . S
C460 C461 1.433 . S
C460 H474 0.931 . S
C461 C457 1.323 . S
C461 C460 1.433 . S
C461 H475 0.933 . S
C462 Dy440 2.738 . S
C462 O445 1.255 . S
C462 O446 1.249 . S
C462 C456 1.516 . S
C463 O447 1.254 . S
C463 O448 1.257 . S
C464 O449 1.266 . S
C464 O450 1.236 . S
C465 C468 1.344 . S
C465 C469 1.328 . S
C465 C471 1.516 . S
C466 C467 1.304 . S
C466 C470 1.323 . S
C467 C466 1.304 . S
C467 C468 1.371 . S
C467 H476 0.930 . S
C468 C465 1.344 . S
C468 C467 1.371 . S
C468 H477 0.931 . S
C469 C465 1.328 . S
C469 C470 1.433 . S
C469 H478 0.931 . S
C470 C466 1.323 . S
C470 C469 1.433 . S
C470 H479 0.933 . S
C471 Dy441 2.738 . S
C471 O451 1.255 . S
C471 O452 1.249 . S
C471 C465 1.516 . S
H472 C458 0.930 . S
H473 C459 0.931 . S
H474 C460 0.931 . S
H475 C461 0.933 . S
H476 C467 0.930 . S
H477 C468 0.931 . S
H478 C469 0.931 . S
H479 C470 0.933 . S
Dy480 O483 2.307 . S
Dy480 O485 2.395 . S
Dy480 O486 2.379 . S
Dy480 O488 2.339 . S
Dy480 O490 2.298 . S
Dy480 O494 2.275 . S
Dy480 C502 2.738 . S
Dy481 O484 2.298 . S
Dy481 O487 2.275 . S
Dy481 O489 2.307 . S
Dy481 O491 2.395 . S
Dy481 O492 2.379 . S
Dy481 O495 2.339 . S
Dy481 C511 2.738 . S
C482 O494 1.254 . S
C482 O495 1.257 . S
O483 Dy480 2.307 . S
O483 C493 1.266 . S
O484 Dy481 2.298 . S
O484 C493 1.236 . S
O485 Dy480 2.395 . S
O485 C502 1.255 . S
O486 Dy480 2.379 . S
O486 C502 1.249 . S
O487 Dy481 2.275 . S
O487 C503 1.254 . S
O488 Dy480 2.339 . S
O488 C503 1.257 . S
O489 Dy481 2.307 . S
O489 C504 1.266 . S
O490 Dy480 2.298 . S
O490 C504 1.236 . S
O491 Dy481 2.395 . S
O491 C511 1.255 . S
O492 Dy481 2.379 . S
O492 C511 1.249 . S
C493 O483 1.266 . S
C493 O484 1.236 . S
O494 Dy480 2.275 . S
O494 C482 1.254 . S
O495 Dy481 2.339 . S
O495 C482 1.257 . S
C496 C499 1.344 . S
C496 C500 1.328 . S
C496 C502 1.516 . S
C497 C498 1.304 . S
C497 C501 1.323 . S
C498 C497 1.304 . S
C498 C499 1.371 . S
C498 H512 0.930 . S
C499 C496 1.344 . S
C499 C498 1.371 . S
C499 H513 0.931 . S
C500 C496 1.328 . S
C500 C501 1.433 . S
C500 H514 0.931 . S
C501 C497 1.323 . S
C501 C500 1.433 . S
C501 H515 0.933 . S
C502 Dy480 2.738 . S
C502 O485 1.255 . S
C502 O486 1.249 . S
C502 C496 1.516 . S
C503 O487 1.254 . S
C503 O488 1.257 . S
C504 O489 1.266 . S
C504 O490 1.236 . S
C505 C508 1.344 . S
C505 C509 1.328 . S
C505 C511 1.516 . S
C506 C507 1.304 . S
C506 C510 1.323 . S
C507 C506 1.304 . S
C507 C508 1.371 . S
C507 H516 0.930 . S
C508 C505 1.344 . S
C508 C507 1.371 . S
C508 H517 0.931 . S
C509 C505 1.328 . S
C509 C510 1.433 . S
C509 H518 0.931 . S
C510 C506 1.323 . S
C510 C509 1.433 . S
C510 H519 0.933 . S
C511 Dy481 2.738 . S
C511 O491 1.255 . S
C511 O492 1.249 . S
C511 C505 1.516 . S
H512 C498 0.930 . S
H513 C499 0.931 . S
H514 C500 0.931 . S
H515 C501 0.933 . S
H516 C507 0.930 . S
H517 C508 0.931 . S
H518 C509 0.931 . S
H519 C510 0.933 . S
Dy520 O523 2.307 . S
Dy520 O525 2.395 . S
Dy520 O526 2.379 . S
Dy520 O528 2.339 . S
Dy520 O530 2.298 . S
Dy520 O534 2.275 . S
Dy520 C542 2.738 . S
Dy521 O524 2.298 1_655 S
Dy521 O527 2.275 . S
Dy521 O529 2.307 . S
Dy521 O531 2.395 . S
Dy521 O532 2.379 . S
Dy521 O535 2.339 . S
Dy521 C551 2.738 . S
C522 O534 1.254 . S
C522 O535 1.257 1_455 S
O523 Dy520 2.307 . S
O523 C533 1.266 . S
O524 Dy521 2.298 1_455 S
O524 C533 1.236 . S
O525 Dy520 2.395 . S
O525 C542 1.255 . S
O526 Dy520 2.379 . S
O526 C542 1.249 . S
O527 Dy521 2.275 . S
O527 C543 1.254 1_655 S
O528 Dy520 2.339 . S
O528 C543 1.257 . S
O529 Dy521 2.307 . S
O529 C544 1.266 . S
O530 Dy520 2.298 . S
O530 C544 1.236 1_455 S
O531 Dy521 2.395 . S
O531 C551 1.255 . S
O532 Dy521 2.379 . S
O532 C551 1.249 . S
C533 O523 1.266 . S
C533 O524 1.236 . S
O534 Dy520 2.275 . S
O534 C522 1.254 . S
O535 Dy521 2.339 . S
O535 C522 1.257 1_655 S
C536 C539 1.344 . S
C536 C540 1.328 . S
C536 C542 1.516 . S
C537 C538 1.304 . S
C537 C541 1.323 . S
C538 C537 1.304 . S
C538 C539 1.371 . S
C538 H552 0.930 . S
C539 C536 1.344 . S
C539 C538 1.371 . S
C539 H553 0.931 . S
C540 C536 1.328 . S
C540 C541 1.433 . S
C540 H554 0.931 . S
C541 C537 1.323 . S
C541 C540 1.433 . S
C541 H555 0.933 . S
C542 Dy520 2.738 . S
C542 O525 1.255 . S
C542 O526 1.249 . S
C542 C536 1.516 . S
C543 O527 1.254 1_455 S
C543 O528 1.257 . S
C544 O529 1.266 . S
C544 O530 1.236 1_655 S
C545 C548 1.344 1_554 S
C545 C549 1.328 1_554 S
C545 C551 1.516 . S
C546 C547 1.304 . S
C546 C550 1.323 . S
C547 C546 1.304 . S
C547 C548 1.371 . S
C547 H556 0.930 . S
C548 C545 1.344 1_556 S
C548 C547 1.371 . S
C548 H557 0.931 . S
C549 C545 1.328 1_556 S
C549 C550 1.433 . S
C549 H558 0.931 1_556 S
C550 C546 1.323 . S
C550 C549 1.433 . S
C550 H559 0.933 . S
C551 Dy521 2.738 . S
C551 O531 1.255 . S
C551 O532 1.249 . S
C551 C545 1.516 . S
H552 C538 0.930 . S
H553 C539 0.931 . S
H554 C540 0.931 . S
H555 C541 0.933 . S
H556 C547 0.930 . S
H557 C548 0.931 . S
H558 C549 0.931 1_554 S
H559 C550 0.933 . S
Dy560 O563 2.307 . S
Dy560 O565 2.395 . S
Dy560 O566 2.379 . S
Dy560 O568 2.339 . S
Dy560 O570 2.298 . S
Dy560 O574 2.275 . S
Dy560 C582 2.738 . S
Dy561 O564 2.298 . S
Dy561 O567 2.275 . S
Dy561 O569 2.307 . S
Dy561 O571 2.395 . S
Dy561 O572 2.379 . S
Dy561 O575 2.339 . S
Dy561 C591 2.738 . S
C562 O574 1.254 . S
C562 O575 1.257 . S
O563 Dy560 2.307 . S
O563 C573 1.266 . S
O564 Dy561 2.298 . S
O564 C573 1.236 . S
O565 Dy560 2.395 . S
O565 C582 1.255 . S
O566 Dy560 2.379 . S
O566 C582 1.249 . S
O567 Dy561 2.275 . S
O567 C583 1.254 . S
O568 Dy560 2.339 . S
O568 C583 1.257 . S
O569 Dy561 2.307 . S
O569 C584 1.266 . S
O570 Dy560 2.298 . S
O570 C584 1.236 . S
O571 Dy561 2.395 . S
O571 C591 1.255 . S
O572 Dy561 2.379 . S
O572 C591 1.249 . S
C573 O563 1.266 . S
C573 O564 1.236 . S
O574 Dy560 2.275 . S
O574 C562 1.254 . S
O575 Dy561 2.339 . S
O575 C562 1.257 . S
C576 C579 1.344 . S
C576 C580 1.328 . S
C576 C582 1.516 . S
C577 C578 1.304 . S
C577 C581 1.323 . S
C578 C577 1.304 . S
C578 C579 1.371 . S
C578 H592 0.930 . S
C579 C576 1.344 . S
C579 C578 1.371 . S
C579 H593 0.931 . S
C580 C576 1.328 . S
C580 C581 1.433 . S
C580 H594 0.931 . S
C581 C577 1.323 . S
C581 C580 1.433 . S
C581 H595 0.933 . S
C582 Dy560 2.738 . S
C582 O565 1.255 . S
C582 O566 1.249 . S
C582 C576 1.516 . S
C583 O567 1.254 . S
C583 O568 1.257 . S
C584 O569 1.266 . S
C584 O570 1.236 . S
C585 C588 1.344 . S
C585 C589 1.328 . S
C585 C591 1.516 . S
C586 C587 1.304 . S
C586 C590 1.323 . S
C587 C586 1.304 . S
C587 C588 1.371 . S
C587 H596 0.930 . S
C588 C585 1.344 . S
C588 C587 1.371 . S
C588 H597 0.931 . S
C589 C585 1.328 . S
C589 C590 1.433 . S
C589 H598 0.931 . S
C590 C586 1.323 . S
C590 C589 1.433 . S
C590 H599 0.933 . S
C591 Dy561 2.738 . S
C591 O571 1.255 . S
C591 O572 1.249 . S
C591 C585 1.516 . S
H592 C578 0.930 . S
H593 C579 0.931 . S
H594 C580 0.931 . S
H595 C581 0.933 . S
H596 C587 0.930 . S
H597 C588 0.931 . S
H598 C589 0.931 . S
H599 C590 0.933 . S
Dy600 O603 2.307 . S
Dy600 O605 2.395 . S
Dy600 O606 2.379 . S
Dy600 O608 2.339 . S
Dy600 O610 2.298 . S
Dy600 O614 2.275 . S
Dy600 C622 2.738 . S
Dy601 O604 2.298 1_655 S
Dy601 O607 2.275 . S
Dy601 O609 2.307 . S
Dy601 O611 2.395 . S
Dy601 O612 2.379 . S
Dy601 O615 2.339 . S
Dy601 C631 2.738 . S
C602 O614 1.254 . S
C602 O615 1.257 1_455 S
O603 Dy600 2.307 . S
O603 C613 1.266 . S
O604 Dy601 2.298 1_455 S
O604 C613 1.236 . S
O605 Dy600 2.395 . S
O605 C622 1.255 . S
O606 Dy600 2.379 . S
O606 C622 1.249 . S
O607 Dy601 2.275 . S
O607 C623 1.254 1_655 S
O608 Dy600 2.339 . S
O608 C623 1.257 . S
O609 Dy601 2.307 . S
O609 C624 1.266 . S
O610 Dy600 2.298 . S
O610 C624 1.236 1_455 S
O611 Dy601 2.395 . S
O611 C631 1.255 . S
O612 Dy601 2.379 . S
O612 C631 1.249 . S
C613 O603 1.266 . S
C613 O604 1.236 . S
O614 Dy600 2.275 . S
O614 C602 1.254 . S
O615 Dy601 2.339 . S
O615 C602 1.257 1_655 S
C616 C619 1.344 . S
C616 C620 1.328 . S
C616 C622 1.516 . S
C617 C618 1.304 . S
C617 C621 1.323 . S
C618 C617 1.304 . S
C618 C619 1.371 . S
C618 H632 0.930 . S
C619 C616 1.344 . S
C619 C618 1.371 . S
C619 H633 0.931 . S
C620 C616 1.328 . S
C620 C621 1.433 . S
C620 H634 0.931 . S
C621 C617 1.323 . S
C621 C620 1.433 . S
C621 H635 0.933 . S
C622 Dy600 2.738 . S
C622 O605 1.255 . S
C622 O606 1.249 . S
C622 C616 1.516 . S
C623 O607 1.254 1_455 S
C623 O608 1.257 . S
C624 O609 1.266 . S
C624 O610 1.236 1_655 S
C625 C628 1.344 1_556 S
C625 C629 1.328 1_556 S
C625 C631 1.516 . S
C626 C627 1.304 . S
C626 C630 1.323 . S
C627 C626 1.304 . S
C627 C628 1.371 . S
C627 H636 0.930 . S
C628 C625 1.344 1_554 S
C628 C627 1.371 . S
C628 H637 0.931 . S
C629 C625 1.328 1_554 S
C629 C630 1.433 . S
C629 H638 0.931 1_554 S
C630 C626 1.323 . S
C630 C629 1.433 . S
C630 H639 0.933 . S
C631 Dy601 2.738 . S
C631 O611 1.255 . S
C631 O612 1.249 . S
C631 C625 1.516 . S
H632 C618 0.930 . S
H633 C619 0.931 . S
H634 C620 0.931 . S
H635 C621 0.933 . S
H636 C627 0.930 . S
H637 C628 0.931 . S
H638 C629 0.931 1_556 S
H639 C630 0.933 . S
C640 C641 1.349 . S
C640 C642 1.327 . S
C640 H665 0.950 . S
C641 C640 1.349 . S
C641 C657 1.349 . S
C642 C640 1.327 . S
C642 C661 1.429 . S
C642 H666 0.950 . S
C643 C660 1.574 . S
C643 C662 1.368 . S
C643 H667 0.949 . S
H644 C648 0.949 . S
C645 C646 1.349 . S
C645 C647 1.327 . S
C645 H668 0.950 . S
C646 C645 1.349 . S
C646 C658 1.349 . S
C647 C645 1.327 . S
C647 C663 1.429 . S
C647 H669 0.950 . S
C648 H644 0.949 . S
C648 C656 1.574 . S
C648 C664 1.368 . S
H649 C657 0.950 1_554 S
H650 C655 0.950 . S
H651 C656 0.949 . S
H652 C658 0.950 . S
H653 C659 0.950 . S
H654 C660 0.949 . S
C655 H650 0.950 . S
C655 C657 1.327 . S
C655 C661 1.429 . S
C656 C648 1.574 . S
C656 H651 0.949 . S
C656 C662 1.368 . S
C657 C641 1.349 . S
C657 H649 0.950 1_556 S
C657 C655 1.327 . S
C658 C646 1.349 . S
C658 H652 0.950 . S
C658 C659 1.327 . S
C659 H653 0.950 . S
C659 C658 1.327 . S
C659 C663 1.429 . S
C660 C643 1.574 . S
C660 H654 0.949 . S
C660 C664 1.368 . S
C661 C642 1.429 . S
C661 C655 1.429 . S
C661 C662 1.523 . S
C662 C643 1.368 . S
C662 C656 1.368 . S
C662 C661 1.523 . S
C663 C647 1.429 . S
C663 C659 1.429 . S
C663 C664 1.523 . S
C664 C648 1.368 . S
C664 C660 1.368 . S
C664 C663 1.523 . S
H665 C640 0.950 . S
H666 C642 0.950 . S
H667 C643 0.949 . S
H668 C645 0.950 . S
H669 C647 0.950 . S
C670 C671 1.349 . S
C670 C672 1.327 . S
C670 H695 0.950 . S
C671 C670 1.349 . S
C671 C687 1.349 . S
C672 C670 1.327 . S
C672 C691 1.429 . S
C672 H696 0.950 . S
C673 C690 1.574 . S
C673 C692 1.368 . S
C673 H697 0.949 . S
H674 C678 0.949 . S
C675 C676 1.349 . S
C675 C677 1.327 . S
C675 H698 0.950 . S
C676 C675 1.349 . S
C676 C688 1.349 . S
C677 C675 1.327 . S
C677 C693 1.429 . S
C677 H699 0.950 . S
C678 H674 0.949 . S
C678 C686 1.574 . S
C678 C694 1.368 . S
H679 C687 0.950 . S
H680 C685 0.950 . S
H681 C686 0.949 . S
H682 C688 0.950 . S
H683 C689 0.950 . S
H684 C690 0.949 . S
C685 H680 0.950 . S
C685 C687 1.327 . S
C685 C691 1.429 . S
C686 C678 1.574 . S
C686 H681 0.949 . S
C686 C692 1.368 . S
C687 C671 1.349 . S
C687 H679 0.950 . S
C687 C685 1.327 . S
C688 C676 1.349 . S
C688 H682 0.950 . S
C688 C689 1.327 . S
C689 H683 0.950 . S
C689 C688 1.327 . S
C689 C693 1.429 . S
C690 C673 1.574 . S
C690 H684 0.949 . S
C690 C694 1.368 . S
C691 C672 1.429 . S
C691 C685 1.429 . S
C691 C692 1.523 . S
C692 C673 1.368 . S
C692 C686 1.368 . S
C692 C691 1.523 . S
C693 C677 1.429 . S
C693 C689 1.429 . S
C693 C694 1.523 . S
C694 C678 1.368 . S
C694 C690 1.368 . S
C694 C693 1.523 . S
H695 C670 0.950 . S
H696 C672 0.950 . S
H697 C673 0.949 . S
H698 C675 0.950 . S
H699 C677 0.950 . S
C700 C701 1.349 . S
C700 C702 1.327 . S
C700 H725 0.950 . S
C701 C700 1.349 . S
C701 C717 1.349 . S
C702 C700 1.327 . S
C702 C721 1.429 . S
C702 H726 0.950 . S
C703 C720 1.574 . S
C703 C722 1.368 . S
C703 H727 0.949 . S
H704 C708 0.949 . S
C705 C706 1.349 . S
C705 C707 1.327 . S
C705 H728 0.950 . S
C706 C705 1.349 . S
C706 C718 1.349 . S
C707 C705 1.327 . S
C707 C723 1.429 . S
C707 H729 0.950 . S
C708 H704 0.949 . S
C708 C716 1.574 . S
C708 C724 1.368 . S
H709 C717 0.950 . S
H710 C715 0.950 . S
H711 C716 0.949 . S
H712 C718 0.950 . S
H713 C719 0.950 . S
H714 C720 0.949 . S
C715 H710 0.950 . S
C715 C717 1.327 . S
C715 C721 1.429 . S
C716 C708 1.574 . S
C716 H711 0.949 . S
C716 C722 1.368 . S
C717 C701 1.349 . S
C717 H709 0.950 . S
C717 C715 1.327 . S
C718 C706 1.349 . S
C718 H712 0.950 . S
C718 C719 1.327 . S
C719 H713 0.950 . S
C719 C718 1.327 . S
C719 C723 1.429 . S
C720 C703 1.574 . S
C720 H714 0.949 . S
C720 C724 1.368 . S
C721 C702 1.429 . S
C721 C715 1.429 . S
C721 C722 1.523 . S
C722 C703 1.368 . S
C722 C716 1.368 . S
C722 C721 1.523 . S
C723 C707 1.429 . S
C723 C719 1.429 . S
C723 C724 1.523 . S
C724 C708 1.368 . S
C724 C720 1.368 . S
C724 C723 1.523 . S
H725 C700 0.950 . S
H726 C702 0.950 . S
H727 C703 0.949 . S
H728 C705 0.950 . S
H729 C707 0.950 . S
C730 C731 1.349 . S
C730 C732 1.327 . S
C730 H755 0.950 . S
C731 C730 1.349 . S
C731 C747 1.349 . S
C732 C730 1.327 . S
C732 C751 1.429 . S
C732 H756 0.950 . S
C733 C750 1.574 . S
C733 C752 1.368 . S
C733 H757 0.949 . S
H734 C738 0.949 . S
C735 C736 1.349 . S
C735 C737 1.327 . S
C735 H758 0.950 . S
C736 C735 1.349 . S
C736 C748 1.349 . S
C737 C735 1.327 . S
C737 C753 1.429 . S
C737 H759 0.950 . S
C738 H734 0.949 . S
C738 C746 1.574 . S
C738 C754 1.368 . S
H739 C747 0.950 . S
H740 C745 0.950 . S
H741 C746 0.949 . S
H742 C748 0.950 . S
H743 C749 0.950 . S
H744 C750 0.949 . S
C745 H740 0.950 . S
C745 C747 1.327 . S
C745 C751 1.429 . S
C746 C738 1.574 . S
C746 H741 0.949 . S
C746 C752 1.368 . S
C747 C731 1.349 . S
C747 H739 0.950 . S
C747 C745 1.327 . S
C748 C736 1.349 . S
C748 H742 0.950 . S
C748 C749 1.327 . S
C749 H743 0.950 . S
C749 C748 1.327 . S
C749 C753 1.429 . S
C750 C733 1.574 . S
C750 H744 0.949 . S
C750 C754 1.368 . S
C751 C732 1.429 . S
C751 C745 1.429 . S
C751 C752 1.523 . S
C752 C733 1.368 . S
C752 C746 1.368 . S
C752 C751 1.523 . S
C753 C737 1.429 . S
C753 C749 1.429 . S
C753 C754 1.523 . S
C754 C738 1.368 . S
C754 C750 1.368 . S
C754 C753 1.523 . S
H755 C730 0.950 . S
H756 C732 0.950 . S
H757 C733 0.949 . S
H758 C735 0.950 . S
H759 C737 0.950 . S
C760 C761 1.349 . S
C760 C762 1.327 . S
C760 H785 0.950 . S
C761 C760 1.349 . S
C761 C777 1.349 . S
C762 C760 1.327 . S
C762 C781 1.429 . S
C762 H786 0.950 . S
C763 C780 1.574 . S
C763 C782 1.368 . S
C763 H787 0.949 . S
H764 C768 0.949 . S
C765 C766 1.349 . S
C765 C767 1.327 . S
C765 H788 0.950 . S
C766 C765 1.349 . S
C766 C778 1.349 . S
C767 C765 1.327 . S
C767 C783 1.429 . S
C767 H789 0.950 . S
C768 H764 0.949 . S
C768 C776 1.574 . S
C768 C784 1.368 . S
H769 C777 0.950 . S
H770 C775 0.950 . S
H771 C776 0.949 . S
H772 C778 0.950 . S
H773 C779 0.950 . S
H774 C780 0.949 . S
C775 H770 0.950 . S
C775 C777 1.327 . S
C775 C781 1.429 . S
C776 C768 1.574 . S
C776 H771 0.949 . S
C776 C782 1.368 . S
C777 C761 1.349 . S
C777 H769 0.950 . S
C777 C775 1.327 . S
C778 C766 1.349 . S
C778 H772 0.950 . S
C778 C779 1.327 . S
C779 H773 0.950 . S
C779 C778 1.327 . S
C779 C783 1.429 . S
C780 C763 1.574 . S
C780 H774 0.949 . S
C780 C784 1.368 . S
C781 C762 1.429 . S
C781 C775 1.429 . S
C781 C782 1.523 . S
C782 C763 1.368 . S
C782 C776 1.368 . S
C782 C781 1.523 . S
C783 C767 1.429 . S
C783 C779 1.429 . S
C783 C784 1.523 . S
C784 C768 1.368 . S
C784 C780 1.368 . S
C784 C783 1.523 . S
H785 C760 0.950 . S
H786 C762 0.950 . S
H787 C763 0.949 . S
H788 C765 0.950 . S
H789 C767 0.950 . S
C790 C791 1.349 . S
C790 C792 1.327 . S
C790 H815 0.950 . S
C791 C790 1.349 . S
C791 C807 1.349 . S
C792 C790 1.327 . S
C792 C811 1.429 . S
C792 H816 0.950 . S
C793 C810 1.574 . S
C793 C812 1.368 . S
C793 H817 0.949 . S
H794 C798 0.949 . S
C795 C796 1.349 . S
C795 C797 1.327 . S
C795 H818 0.950 1_556 S
C796 C795 1.349 . S
C796 C808 1.349 . S
C797 C795 1.327 . S
C797 C813 1.429 . S
C797 H819 0.950 . S
C798 H794 0.949 . S
C798 C806 1.574 . S
C798 C814 1.368 . S
H799 C807 0.950 . S
H800 C805 0.950 . S
H801 C806 0.949 . S
H802 C808 0.950 . S
H803 C809 0.950 . S
H804 C810 0.949 . S
C805 H800 0.950 . S
C805 C807 1.327 . S
C805 C811 1.429 . S
C806 C798 1.574 . S
C806 H801 0.949 . S
C806 C812 1.368 . S
C807 C791 1.349 . S
C807 H799 0.950 . S
C807 C805 1.327 . S
C808 C796 1.349 . S
C808 H802 0.950 . S
C808 C809 1.327 . S
C809 H803 0.950 . S
C809 C808 1.327 . S
C809 C813 1.429 . S
C810 C793 1.574 . S
C810 H804 0.949 . S
C810 C814 1.368 . S
C811 C792 1.429 . S
C811 C805 1.429 . S
C811 C812 1.523 . S
C812 C793 1.368 . S
C812 C806 1.368 . S
C812 C811 1.523 . S
C813 C797 1.429 . S
C813 C809 1.429 . S
C813 C814 1.523 . S
C814 C798 1.368 . S
C814 C810 1.368 . S
C814 C813 1.523 . S
H815 C790 0.950 . S
H816 C792 0.950 . S
H817 C793 0.949 . S
H818 C795 0.950 1_554 S
H819 C797 0.950 . S
C820 C821 1.349 . S
C820 C822 1.327 . S
C820 H845 0.950 . S
C821 C820 1.349 . S
C821 C837 1.349 . S
C822 C820 1.327 . S
C822 C841 1.429 . S
C822 H846 0.950 . S
C823 C840 1.574 . S
C823 C842 1.368 . S
C823 H847 0.949 . S
H824 C828 0.949 . S
C825 C826 1.349 . S
C825 C827 1.327 . S
C825 H848 0.950 . S
C826 C825 1.349 . S
C826 C838 1.349 . S
C827 C825 1.327 . S
C827 C843 1.429 . S
C827 H849 0.950 . S
C828 H824 0.949 . S
C828 C836 1.574 . S
C828 C844 1.368 . S
H829 C837 0.950 . S
H830 C835 0.950 . S
H831 C836 0.949 . S
H832 C838 0.950 . S
H833 C839 0.950 . S
H834 C840 0.949 . S
C835 H830 0.950 . S
C835 C837 1.327 . S
C835 C841 1.429 . S
C836 C828 1.574 . S
C836 H831 0.949 . S
C836 C842 1.368 . S
C837 C821 1.349 . S
C837 H829 0.950 . S
C837 C835 1.327 . S
C838 C826 1.349 . S
C838 H832 0.950 . S
C838 C839 1.327 . S
C839 H833 0.950 . S
C839 C838 1.327 . S
C839 C843 1.429 . S
C840 C823 1.574 . S
C840 H834 0.949 . S
C840 C844 1.368 . S
C841 C822 1.429 . S
C841 C835 1.429 . S
C841 C842 1.523 . S
C842 C823 1.368 . S
C842 C836 1.368 . S
C842 C841 1.523 . S
C843 C827 1.429 . S
C843 C839 1.429 . S
C843 C844 1.523 . S
C844 C828 1.368 . S
C844 C840 1.368 . S
C844 C843 1.523 . S
H845 C820 0.950 . S
H846 C822 0.950 . S
H847 C823 0.949 . S
H848 C825 0.950 . S
H849 C827 0.950 . S
C850 C851 1.349 . S
C850 C852 1.327 . S
C850 H875 0.950 . S
C851 C850 1.349 . S
C851 C867 1.349 . S
C852 C850 1.327 . S
C852 C871 1.429 . S
C852 H876 0.950 . S
C853 C870 1.574 . S
C853 C872 1.368 . S
C853 H877 0.949 . S
H854 C858 0.949 . S
C855 C856 1.349 . S
C855 C857 1.327 . S
C855 H878 0.950 . S
C856 C855 1.349 . S
C856 C868 1.349 . S
C857 C855 1.327 . S
C857 C873 1.429 . S
C857 H879 0.950 . S
C858 H854 0.949 . S
C858 C866 1.574 . S
C858 C874 1.368 . S
H859 C867 0.950 . S
H860 C865 0.950 . S
H861 C866 0.949 . S
H862 C868 0.950 . S
H863 C869 0.950 . S
H864 C870 0.949 . S
C865 H860 0.950 . S
C865 C867 1.327 . S
C865 C871 1.429 . S
C866 C858 1.574 . S
C866 H861 0.949 . S
C866 C872 1.368 . S
C867 C851 1.349 . S
C867 H859 0.950 . S
C867 C865 1.327 . S
C868 C856 1.349 . S
C868 H862 0.950 . S
C868 C869 1.327 . S
C869 H863 0.950 . S
C869 C868 1.327 . S
C869 C873 1.429 . S
C870 C853 1.574 . S
C870 H864 0.949 . S
C870 C874 1.368 . S
C871 C852 1.429 . S
C871 C865 1.429 . S
C871 C872 1.523 . S
C872 C853 1.368 . S
C872 C866 1.368 . S
C872 C871 1.523 . S
C873 C857 1.429 . S
C873 C869 1.429 . S
C873 C874 1.523 . S
C874 C858 1.368 . S
C874 C870 1.368 . S
C874 C873 1.523 . S
H875 C850 0.950 . S
H876 C852 0.950 . S
H877 C853 0.949 . S
H878 C855 0.950 . S
H879 C857 0.950 . S
C880 C881 1.349 . S
C880 C882 1.327 . S
C880 H905 0.950 . S
C881 C880 1.349 . S
C881 C897 1.349 . S
C882 C880 1.327 . S
C882 C901 1.429 . S
C882 H906 0.950 . S
C883 C900 1.574 . S
C883 C902 1.368 . S
C883 H907 0.949 . S
H884 C888 0.949 . S
C885 C886 1.349 . S
C885 C887 1.327 . S
C885 H908 0.950 . S
C886 C885 1.349 . S
C886 C898 1.349 . S
C887 C885 1.327 . S
C887 C903 1.429 . S
C887 H909 0.950 . S
C888 H884 0.949 . S
C888 C896 1.574 . S
C888 C904 1.368 . S
H889 C897 0.950 . S
H890 C895 0.950 . S
H891 C896 0.949 . S
H892 C898 0.950 . S
H893 C899 0.950 . S
H894 C900 0.949 . S
C895 H890 0.950 . S
C895 C897 1.327 . S
C895 C901 1.429 . S
C896 C888 1.574 . S
C896 H891 0.949 . S
C896 C902 1.368 . S
C897 C881 1.349 . S
C897 H889 0.950 . S
C897 C895 1.327 . S
C898 C886 1.349 . S
C898 H892 0.950 . S
C898 C899 1.327 . S
C899 H893 0.950 . S
C899 C898 1.327 . S
C899 C903 1.429 . S
C900 C883 1.574 . S
C900 H894 0.949 . S
C900 C904 1.368 . S
C901 C882 1.429 . S
C901 C895 1.429 . S
C901 C902 1.523 . S
C902 C883 1.368 . S
C902 C896 1.368 . S
C902 C901 1.523 . S
C903 C887 1.429 . S
C903 C899 1.429 . S
C903 C904 1.523 . S
C904 C888 1.368 . S
C904 C900 1.368 . S
C904 C903 1.523 . S
H905 C880 0.950 . S
H906 C882 0.950 . S
H907 C883 0.949 . S
H908 C885 0.950 . S
H909 C887 0.950 . S
C910 C911 1.349 . S
C910 C912 1.327 . S
C910 H935 0.950 . S
C911 C910 1.349 . S
C911 C927 1.349 . S
C912 C910 1.327 . S
C912 C931 1.429 . S
C912 H936 0.950 . S
C913 C930 1.574 . S
C913 C932 1.368 . S
C913 H937 0.949 . S
H914 C918 0.949 . S
C915 C916 1.349 . S
C915 C917 1.327 . S
C915 H938 0.950 . S
C916 C915 1.349 . S
C916 C928 1.349 . S
C917 C915 1.327 . S
C917 C933 1.429 . S
C917 H939 0.950 . S
C918 H914 0.949 . S
C918 C926 1.574 . S
C918 C934 1.368 . S
H919 C927 0.950 . S
H920 C925 0.950 . S
H921 C926 0.949 . S
H922 C928 0.950 . S
H923 C929 0.950 . S
H924 C930 0.949 . S
C925 H920 0.950 . S
C925 C927 1.327 . S
C925 C931 1.429 . S
C926 C918 1.574 . S
C926 H921 0.949 . S
C926 C932 1.368 . S
C927 C911 1.349 . S
C927 H919 0.950 . S
C927 C925 1.327 . S
C928 C916 1.349 . S
C928 H922 0.950 . S
C928 C929 1.327 . S
C929 H923 0.950 . S
C929 C928 1.327 . S
C929 C933 1.429 . S
C930 C913 1.574 . S
C930 H924 0.949 . S
C930 C934 1.368 . S
C931 C912 1.429 . S
C931 C925 1.429 . S
C931 C932 1.523 . S
C932 C913 1.368 . S
C932 C926 1.368 . S
C932 C931 1.523 . S
C933 C917 1.429 . S
C933 C929 1.429 . S
C933 C934 1.523 . S
C934 C918 1.368 . S
C934 C930 1.368 . S
C934 C933 1.523 . S
H935 C910 0.950 . S
H936 C912 0.950 . S
H937 C913 0.949 . S
H938 C915 0.950 . S
H939 C917 0.950 . S
C940 C941 1.349 . S
C940 C942 1.327 . S
C940 H965 0.950 . S
C941 C940 1.349 . S
C941 C957 1.349 . S
C942 C940 1.327 . S
C942 C961 1.429 . S
C942 H966 0.950 . S
C943 C960 1.574 . S
C943 C962 1.368 . S
C943 H967 0.949 . S
H944 C948 0.949 . S
C945 C946 1.349 . S
C945 C947 1.327 . S
C945 H968 0.950 . S
C946 C945 1.349 . S
C946 C958 1.349 . S
C947 C945 1.327 . S
C947 C963 1.429 . S
C947 H969 0.950 . S
C948 H944 0.949 . S
C948 C956 1.574 . S
C948 C964 1.368 . S
H949 C957 0.920 1_554 S
H950 C955 0.950 . S
H951 C956 0.949 . S
H952 C958 0.950 . S
H953 C959 0.950 . S
H954 C960 0.949 . S
C955 H950 0.950 . S
C955 C957 1.327 . S
C955 C961 1.429 . S
C956 C948 1.574 . S
C956 H951 0.949 . S
C956 C962 1.368 . S
C957 C941 1.349 . S
C957 H949 0.920 1_556 S
C957 C955 1.327 . S
C958 C946 1.349 . S
C958 H952 0.950 . S
C958 C959 1.327 . S
C959 H953 0.950 . S
C959 C958 1.327 . S
C959 C963 1.429 . S
C960 C943 1.574 . S
C960 H954 0.949 . S
C960 C964 1.368 . S
C961 C942 1.429 . S
C961 C955 1.429 . S
C961 C962 1.523 . S
C962 C943 1.368 . S
C962 C956 1.368 . S
C962 C961 1.523 . S
C963 C947 1.429 . S
C963 C959 1.429 . S
C963 C964 1.523 . S
C964 C948 1.368 . S
C964 C960 1.368 . S
C964 C963 1.523 . S
H965 C940 0.950 . S
H966 C942 0.950 . S
H967 C943 0.949 . S
H968 C945 0.950 . S
H969 C947 0.950 . S
C970 C971 1.349 . S
C970 C972 1.327 . S
C970 H995 0.950 . S
C971 C970 1.349 . S
C971 C987 1.349 . S
C972 C970 1.327 . S
C972 C991 1.429 . S
C972 H996 0.950 . S
C973 C990 1.574 . S
C973 C992 1.368 . S
C973 H997 0.949 . S
H974 C978 0.949 . S
C975 C976 1.349 . S
C975 C977 1.327 . S
C975 H998 0.950 . S
C976 C975 1.349 . S
C976 C988 1.349 . S
C977 C975 1.327 . S
C977 C993 1.429 . S
C977 H999 0.950 . S
C978 H974 0.949 . S
C978 C986 1.574 . S
C978 C994 1.368 . S
H979 C987 0.950 . S
H980 C985 0.950 . S
H981 C986 0.949 . S
H982 C988 0.950 . S
H983 C989 0.950 . S
H984 C990 0.949 . S
C985 H980 0.950 . S
C985 C987 1.327 . S
C985 C991 1.429 . S
C986 C978 1.574 . S
C986 H981 0.949 . S
C986 C992 1.368 . S
C987 C971 1.349 . S
C987 H979 0.950 . S
C987 C985 1.327 . S
C988 C976 1.349 . S
C988 H982 0.950 . S
C988 C989 1.327 . S
C989 H983 0.950 . S
C989 C988 1.327 . S
C989 C993 1.429 . S
C990 C973 1.574 . S
C990 H984 0.949 . S
C990 C994 1.368 . S
C991 C972 1.429 . S
C991 C985 1.429 . S
C991 C992 1.523 . S
C992 C973 1.368 . S
C992 C986 1.368 . S
C992 C991 1.523 . S
C993 C977 1.429 . S
C993 C989 1.429 . S
C993 C994 1.523 . S
C994 C978 1.368 . S
C994 C990 1.368 . S
C994 C993 1.523 . S
H995 C970 0.950 . S
H996 C972 0.950 . S
H997 C973 0.949 . S
H998 C975 0.950 . S
H999 C977 0.950 . S
C1000 C1001 1.349 . S
C1000 C1002 1.327 . S
C1000 H1025 0.950 . S
C1001 C1000 1.349 . S
C1001 C1017 1.349 . S
C1002 C1000 1.327 . S
C1002 C1021 1.429 . S
C1002 H1026 0.950 . S
C1003 C1020 1.574 . S
C1003 C1022 1.368 . S
C1003 H1027 0.949 . S
H1004 C1008 0.949 . S
C1005 C1006 1.349 . S
C1005 C1007 1.327 . S
C1005 H1028 0.950 . S
C1006 C1005 1.349 . S
C1006 C1018 1.349 . S
C1007 C1005 1.327 . S
C1007 C1023 1.429 . S
C1007 H1029 0.950 . S
C1008 H1004 0.949 . S
C1008 C1016 1.574 . S
C1008 C1024 1.368 . S
H1009 C1017 0.950 . S
H1010 C1015 0.950 . S
H1011 C1016 0.949 . S
H1012 C1018 0.950 . S
H1013 C1019 0.950 . S
H1014 C1020 0.949 . S
C1015 H1010 0.950 . S
C1015 C1017 1.327 . S
C1015 C1021 1.429 . S
C1016 C1008 1.574 . S
C1016 H1011 0.949 . S
C1016 C1022 1.368 . S
C1017 C1001 1.349 . S
C1017 H1009 0.950 . S
C1017 C1015 1.327 . S
C1018 C1006 1.349 . S
C1018 H1012 0.950 . S
C1018 C1019 1.327 . S
C1019 H1013 0.950 . S
C1019 C1018 1.327 . S
C1019 C1023 1.429 . S
C1020 C1003 1.574 . S
C1020 H1014 0.949 . S
C1020 C1024 1.368 . S
C1021 C1002 1.429 . S
C1021 C1015 1.429 . S
C1021 C1022 1.523 . S
C1022 C1003 1.368 . S
C1022 C1016 1.368 . S
C1022 C1021 1.523 . S
C1023 C1007 1.429 . S
C1023 C1019 1.429 . S
C1023 C1024 1.523 . S
C1024 C1008 1.368 . S
C1024 C1020 1.368 . S
C1024 C1023 1.523 . S
H1025 C1000 0.950 . S
H1026 C1002 0.950 . S
H1027 C1003 0.949 . S
H1028 C1005 0.950 . S
H1029 C1007 0.950 . S
C1030 C1031 1.349 . S
C1030 C1032 1.327 . S
C1030 H1055 0.950 . S
C1031 C1030 1.349 . S
C1031 C1047 1.349 . S
C1032 C1030 1.327 . S
C1032 C1051 1.429 . S
C1032 H1056 0.950 . S
C1033 C1050 1.574 . S
C1033 C1052 1.368 . S
C1033 H1057 0.949 . S
H1034 C1038 0.949 . S
C1035 C1036 1.349 . S
C1035 C1037 1.327 . S
C1035 H1058 0.950 . S
C1036 C1035 1.349 . S
C1036 C1048 1.349 . S
C1037 C1035 1.327 . S
C1037 C1053 1.429 . S
C1037 H1059 0.950 . S
C1038 H1034 0.949 . S
C1038 C1046 1.574 . S
C1038 C1054 1.368 . S
H1039 C1047 0.950 . S
H1040 C1045 0.950 . S
H1041 C1046 0.949 . S
H1042 C1048 0.950 . S
H1043 C1049 0.950 . S
H1044 C1050 0.949 . S
C1045 H1040 0.950 . S
C1045 C1047 1.327 . S
C1045 C1051 1.429 . S
C1046 C1038 1.574 . S
C1046 H1041 0.949 . S
C1046 C1052 1.368 . S
C1047 C1031 1.349 . S
C1047 H1039 0.950 . S
C1047 C1045 1.327 . S
C1048 C1036 1.349 . S
C1048 H1042 0.950 . S
C1048 C1049 1.327 . S
C1049 H1043 0.950 . S
C1049 C1048 1.327 . S
C1049 C1053 1.429 . S
C1050 C1033 1.574 . S
C1050 H1044 0.949 . S
C1050 C1054 1.368 . S
C1051 C1032 1.429 . S
C1051 C1045 1.429 . S
C1051 C1052 1.523 . S
C1052 C1033 1.368 . S
C1052 C1046 1.368 . S
C1052 C1051 1.523 . S
C1053 C1037 1.429 . S
C1053 C1049 1.429 . S
C1053 C1054 1.523 . S
C1054 C1038 1.368 . S
C1054 C1050 1.368 . S
C1054 C1053 1.523 . S
H1055 C1030 0.950 . S
H1056 C1032 0.950 . S
H1057 C1033 0.949 . S
H1058 C1035 0.950 . S
H1059 C1037 0.950 . S
C1060 C1061 1.349 . S
C1060 C1062 1.327 . S
C1060 H1085 0.950 . S
C1061 C1060 1.349 . S
C1061 C1077 1.349 . S
C1062 C1060 1.327 . S
C1062 C1081 1.429 . S
C1062 H1086 0.950 . S
C1063 C1080 1.574 . S
C1063 C1082 1.368 . S
C1063 H1087 0.949 . S
H1064 C1068 0.949 . S
C1065 C1066 1.349 . S
C1065 C1067 1.327 . S
C1065 H1088 0.950 . S
C1066 C1065 1.349 . S
C1066 C1078 1.349 . S
C1067 C1065 1.327 . S
C1067 C1083 1.429 . S
C1067 H1089 0.950 . S
C1068 H1064 0.949 . S
C1068 C1076 1.574 . S
C1068 C1084 1.368 . S
H1069 C1077 0.950 . S
H1070 C1075 0.950 . S
H1071 C1076 0.949 . S
H1072 C1078 0.950 . S
H1073 C1079 0.950 . S
H1074 C1080 0.949 . S
C1075 H1070 0.950 . S
C1075 C1077 1.327 . S
C1075 C1081 1.429 . S
C1076 C1068 1.574 . S
C1076 H1071 0.949 . S
C1076 C1082 1.368 . S
C1077 C1061 1.349 . S
C1077 H1069 0.950 . S
C1077 C1075 1.327 . S
C1078 C1066 1.349 . S
C1078 H1072 0.950 . S
C1078 C1079 1.327 . S
C1079 H1073 0.950 . S
C1079 C1078 1.327 . S
C1079 C1083 1.429 . S
C1080 C1063 1.574 . S
C1080 H1074 0.949 . S
C1080 C1084 1.368 . S
C1081 C1062 1.429 . S
C1081 C1075 1.429 . S
C1081 C1082 1.523 . S
C1082 C1063 1.368 . S
C1082 C1076 1.368 . S
C1082 C1081 1.523 . S
C1083 C1067 1.429 . S
C1083 C1079 1.429 . S
C1083 C1084 1.523 . S
C1084 C1068 1.368 . S
C1084 C1080 1.368 . S
C1084 C1083 1.523 . S
H1085 C1060 0.950 . S
H1086 C1062 0.950 . S
H1087 C1063 0.949 . S
H1088 C1065 0.950 . S
H1089 C1067 0.950 . S
C1090 C1091 1.349 . S
C1090 C1092 1.327 . S
C1090 H1115 0.950 . S
C1091 C1090 1.349 . S
C1091 C1107 1.349 . S
C1092 C1090 1.327 . S
C1092 C1111 1.429 . S
C1092 H1116 0.950 . S
C1093 C1110 1.574 . S
C1093 C1112 1.368 . S
C1093 H1117 0.949 . S
H1094 C1098 0.949 . S
C1095 C1096 1.349 . S
C1095 C1097 1.327 . S
C1095 H1118 0.950 . S
C1096 C1095 1.349 . S
C1096 C1108 1.349 . S
C1097 C1095 1.327 . S
C1097 C1113 1.429 . S
C1097 H1119 0.950 . S
C1098 H1094 0.949 . S
C1098 C1106 1.574 . S
C1098 C1114 1.368 . S
H1099 C1107 0.950 . S
H1100 C1105 0.950 . S
H1101 C1106 0.949 . S
H1102 C1108 0.950 . S
H1103 C1109 0.950 . S
H1104 C1110 0.949 . S
C1105 H1100 0.950 . S
C1105 C1107 1.327 . S
C1105 C1111 1.429 . S
C1106 C1098 1.574 . S
C1106 H1101 0.949 . S
C1106 C1112 1.368 . S
C1107 C1091 1.349 . S
C1107 H1099 0.950 . S
C1107 C1105 1.327 . S
C1108 C1096 1.349 . S
C1108 H1102 0.950 . S
C1108 C1109 1.327 . S
C1109 H1103 0.950 . S
C1109 C1108 1.327 . S
C1109 C1113 1.429 . S
C1110 C1093 1.574 . S
C1110 H1104 0.949 . S
C1110 C1114 1.368 . S
C1111 C1092 1.429 . S
C1111 C1105 1.429 . S
C1111 C1112 1.523 . S
C1112 C1093 1.368 . S
C1112 C1106 1.368 . S
C1112 C1111 1.523 . S
C1113 C1097 1.429 . S
C1113 C1109 1.429 . S
C1113 C1114 1.523 . S
C1114 C1098 1.368 . S
C1114 C1110 1.368 . S
C1114 C1113 1.523 . S
H1115 C1090 0.950 . S
H1116 C1092 0.950 . S
H1117 C1093 0.949 . S
H1118 C1095 0.950 . S
H1119 C1097 0.950 . S
C1120 C1121 1.349 . S
C1120 C1122 1.327 . S
C1120 H1145 0.950 . S
C1121 C1120 1.349 . S
C1121 C1137 1.349 1_455 S
C1122 C1120 1.327 . S
C1122 C1141 1.429 . S
C1122 H1146 0.950 . S
C1123 C1140 1.570 1_655 S
C1123 C1142 1.343 1_655 S
C1123 H1147 0.977 . S
H1124 C1128 0.949 . S
C1125 C1126 1.349 . S
C1125 C1127 1.327 . S
C1125 H1148 0.942 1_455 S
C1126 C1125 1.349 . S
C1126 C1138 1.349 . S
C1127 C1125 1.327 . S
C1127 C1143 1.429 . S
C1127 H1149 0.950 1_455 S
C1128 H1124 0.949 . S
C1128 C1136 1.574 . S
C1128 C1144 1.368 . S
H1129 C1137 0.950 . S
H1130 C1135 0.950 . S
H1131 C1136 0.949 . S
H1132 C1138 0.950 . S
H1133 C1139 0.950 . S
H1134 C1140 0.928 1_655 S
C1135 H1130 0.950 . S
C1135 C1137 1.327 . S
C1135 C1141 1.429 1_655 S
C1136 C1128 1.574 . S
C1136 H1131 0.949 . S
C1136 C1142 1.368 . S
C1137 C1121 1.349 1_655 S
C1137 H1129 0.950 . S
C1137 C1135 1.327 . S
C1138 C1126 1.349 . S
C1138 H1132 0.950 . S
C1138 C1139 1.327 . S
C1139 H1133 0.950 . S
C1139 C1138 1.327 . S
C1139 C1143 1.429 . S
C1140 C1123 1.570 1_455 S
C1140 H1134 0.928 1_455 S
C1140 C1144 1.397 . S
C1141 C1122 1.429 . S
C1141 C1135 1.429 1_455 S
C1141 C1142 1.523 . S
C1142 C1123 1.343 1_455 S
C1142 C1136 1.368 . S
C1142 C1141 1.523 . S
C1143 C1127 1.429 . S
C1143 C1139 1.429 . S
C1143 C1144 1.523 . S
C1144 C1128 1.368 . S
C1144 C1140 1.397 . S
C1144 C1143 1.523 . S
H1145 C1120 0.950 . S
H1146 C1122 0.950 . S
H1147 C1123 0.977 . S
H1148 C1125 0.942 1_655 S
H1149 C1127 0.950 1_655 S
C1150 C1151 1.349 . S
C1150 C1152 1.327 . S
C1150 H1175 0.950 . S
C1151 C1150 1.349 . S
C1151 C1167 1.349 . S
C1152 C1150 1.327 . S
C1152 C1171 1.429 . S
C1152 H1176 0.950 . S
C1153 C1170 1.573 1_655 S
C1153 C1172 1.368 . S
C1153 H1177 0.949 . S
H1154 C1158 0.949 . S
C1155 C1156 1.349 . S
C1155 C1157 1.327 . S
C1155 H1178 0.950 . S
C1156 C1155 1.349 . S
C1156 C1168 1.349 . S
C1157 C1155 1.327 . S
C1157 C1173 1.429 . S
C1157 H1179 0.950 . S
C1158 H1154 0.949 . S
C1158 C1166 1.574 1_455 S
C1158 C1174 1.368 . S
H1159 C1167 0.950 . S
H1160 C1165 0.950 . S
H1161 C1166 0.949 . S
H1162 C1168 0.950 . S
H1163 C1169 0.950 . S
H1164 C1170 0.949 . S
C1165 H1160 0.950 . S
C1165 C1167 1.327 . S
C1165 C1171 1.429 . S
C1166 C1158 1.574 1_655 S
C1166 H1161 0.949 . S
C1166 C1172 1.368 . S
C1167 C1151 1.349 . S
C1167 H1159 0.950 . S
C1167 C1165 1.327 . S
C1168 C1156 1.349 . S
C1168 H1162 0.950 . S
C1168 C1169 1.327 . S
C1169 H1163 0.950 . S
C1169 C1168 1.327 . S
C1169 C1173 1.429 . S
C1170 C1153 1.573 1_455 S
C1170 H1164 0.949 . S
C1170 C1174 1.368 . S
C1171 C1152 1.429 . S
C1171 C1165 1.429 . S
C1171 C1172 1.523 . S
C1172 C1153 1.368 . S
C1172 C1166 1.368 . S
C1172 C1171 1.523 . S
C1173 C1157 1.429 . S
C1173 C1169 1.429 . S
C1173 C1174 1.523 . S
C1174 C1158 1.368 . S
C1174 C1170 1.368 . S
C1174 C1173 1.523 . S
H1175 C1150 0.950 . S
H1176 C1152 0.950 . S
H1177 C1153 0.949 . S
H1178 C1155 0.950 . S
H1179 C1157 0.950 . S
C1180 C1181 1.349 . S
C1180 C1182 1.327 . S
C1180 H1205 0.950 . S
C1181 C1180 1.349 . S
C1181 C1197 1.349 . S
C1182 C1180 1.327 . S
C1182 C1201 1.429 . S
C1182 H1206 0.950 . S
C1183 C1200 1.574 . S
C1183 C1202 1.368 . S
C1183 H1207 0.949 . S
H1184 C1188 0.949 . S
C1185 C1186 1.349 . S
C1185 C1187 1.327 . S
C1185 H1208 0.950 . S
C1186 C1185 1.349 . S
C1186 C1198 1.349 . S
C1187 C1185 1.327 . S
C1187 C1203 1.429 . S
C1187 H1209 0.950 . S
C1188 H1184 0.949 . S
C1188 C1196 1.574 . S
C1188 C1204 1.368 . S
H1189 C1197 0.950 . S
H1190 C1195 0.950 . S
H1191 C1196 0.949 . S
H1192 C1198 0.950 . S
H1193 C1199 0.950 . S
H1194 C1200 0.949 . S
C1195 H1190 0.950 . S
C1195 C1197 1.327 . S
C1195 C1201 1.429 . S
C1196 C1188 1.574 . S
C1196 H1191 0.949 . S
C1196 C1202 1.368 . S
C1197 C1181 1.349 . S
C1197 H1189 0.950 . S
C1197 C1195 1.327 . S
C1198 C1186 1.349 . S
C1198 H1192 0.950 . S
C1198 C1199 1.327 . S
C1199 H1193 0.950 . S
C1199 C1198 1.327 . S
C1199 C1203 1.429 . S
C1200 C1183 1.574 . S
C1200 H1194 0.949 . S
C1200 C1204 1.368 . S
C1201 C1182 1.429 . S
C1201 C1195 1.429 . S
C1201 C1202 1.523 . S
C1202 C1183 1.368 . S
C1202 C1196 1.368 . S
C1202 C1201 1.523 . S
C1203 C1187 1.429 . S
C1203 C1199 1.429 . S
C1203 C1204 1.523 . S
C1204 C1188 1.368 . S
C1204 C1200 1.368 . S
C1204 C1203 1.523 . S
H1205 C1180 0.950 . S
H1206 C1182 0.950 . S
H1207 C1183 0.949 . S
H1208 C1185 0.950 . S
H1209 C1187 0.950 . S
C1210 C1211 1.349 . S
C1210 C1212 1.327 . S
C1210 H1235 0.950 . S
C1211 C1210 1.349 . S
C1211 C1227 1.349 . S
C1212 C1210 1.327 . S
C1212 C1231 1.429 . S
C1212 H1236 0.950 . S
C1213 C1230 1.574 . S
C1213 C1232 1.368 . S
C1213 H1237 0.949 . S
H1214 C1218 0.949 . S
C1215 C1216 1.349 . S
C1215 C1217 1.327 . S
C1215 H1238 0.950 . S
C1216 C1215 1.349 . S
C1216 C1228 1.349 . S
C1217 C1215 1.327 . S
C1217 C1233 1.429 . S
C1217 H1239 0.950 . S
C1218 H1214 0.949 . S
C1218 C1226 1.574 . S
C1218 C1234 1.368 . S
H1219 C1227 0.950 . S
H1220 C1225 0.950 . S
H1221 C1226 0.949 . S
H1222 C1228 0.950 . S
H1223 C1229 0.950 . S
H1224 C1230 0.949 . S
C1225 H1220 0.950 . S
C1225 C1227 1.327 . S
C1225 C1231 1.429 . S
C1226 C1218 1.574 . S
C1226 H1221 0.949 . S
C1226 C1232 1.368 . S
C1227 C1211 1.349 . S
C1227 H1219 0.950 . S
C1227 C1225 1.327 . S
C1228 C1216 1.349 . S
C1228 H1222 0.950 . S
C1228 C1229 1.327 . S
C1229 H1223 0.950 . S
C1229 C1228 1.327 . S
C1229 C1233 1.429 . S
C1230 C1213 1.574 . S
C1230 H1224 0.949 . S
C1230 C1234 1.368 . S
C1231 C1212 1.429 . S
C1231 C1225 1.429 . S
C1231 C1232 1.523 . S
C1232 C1213 1.368 . S
C1232 C1226 1.368 . S
C1232 C1231 1.523 . S
C1233 C1217 1.429 . S
C1233 C1229 1.429 . S
C1233 C1234 1.523 . S
C1234 C1218 1.368 . S
C1234 C1230 1.368 . S
C1234 C1233 1.523 . S
H1235 C1210 0.950 . S
H1236 C1212 0.950 . S
H1237 C1213 0.949 . S
H1238 C1215 0.950 . S
H1239 C1217 0.950 . S
C1240 C1241 1.349 . S
C1240 C1242 1.327 . S
C1240 H1265 0.950 . S
C1241 C1240 1.349 . S
C1241 C1257 1.349 . S
C1242 C1240 1.327 . S
C1242 C1261 1.429 . S
C1242 H1266 0.950 . S
C1243 C1260 1.570 1_455 S
C1243 C1262 1.397 . S
C1243 H1267 0.928 1_455 S
H1244 C1248 0.949 . S
C1245 C1246 1.349 1_655 S
C1245 C1247 1.327 . S
C1245 H1268 0.950 . S
C1246 C1245 1.349 1_455 S
C1246 C1258 1.349 . S
C1247 C1245 1.327 . S
C1247 C1263 1.429 1_655 S
C1247 H1269 0.950 . S
C1248 H1244 0.949 . S
C1248 C1256 1.574 . S
C1248 C1264 1.368 . S
H1249 C1257 0.942 1_655 S
H1250 C1255 0.950 1_655 S
H1251 C1256 0.949 . S
H1252 C1258 0.950 . S
H1253 C1259 0.950 . S
H1254 C1260 0.977 . S
C1255 H1250 0.950 1_455 S
C1255 C1257 1.327 . S
C1255 C1261 1.429 . S
C1256 C1248 1.574 . S
C1256 H1251 0.949 . S
C1256 C1262 1.368 . S
C1257 C1241 1.349 . S
C1257 H1249 0.942 1_455 S
C1257 C1255 1.327 . S
C1258 C1246 1.349 . S
C1258 H1252 0.950 . S
C1258 C1259 1.327 . S
C1259 H1253 0.950 . S
C1259 C1258 1.327 . S
C1259 C1263 1.429 . S
C1260 C1243 1.570 1_655 S
C1260 H1254 0.977 . S
C1260 C1264 1.343 1_655 S
C1261 C1242 1.429 . S
C1261 C1255 1.429 . S
C1261 C1262 1.523 . S
C1262 C1243 1.397 . S
C1262 C1256 1.368 . S
C1262 C1261 1.523 . S
C1263 C1247 1.429 1_455 S
C1263 C1259 1.429 . S
C1263 C1264 1.523 . S
C1264 C1248 1.368 . S
C1264 C1260 1.343 1_455 S
C1264 C1263 1.523 . S
H1265 C1240 0.950 . S
H1266 C1242 0.950 . S
H1267 C1243 0.928 1_655 S
H1268 C1245 0.950 . S
H1269 C1247 0.950 . S
C1270 C1271 1.349 . S
C1270 C1272 1.327 . S
C1270 H1295 0.950 . S
C1271 C1270 1.349 . S
C1271 C1287 1.349 . S
C1272 C1270 1.327 . S
C1272 C1291 1.429 . S
C1272 H1296 0.950 . S
C1273 C1290 1.574 . S
C1273 C1292 1.368 . S
C1273 H1297 0.949 . S
H1274 C1278 0.949 . S
C1275 C1276 1.349 . S
C1275 C1277 1.327 . S
C1275 H1298 0.950 . S
C1276 C1275 1.349 . S
C1276 C1288 1.349 . S
C1277 C1275 1.327 . S
C1277 C1293 1.429 . S
C1277 H1299 0.950 . S
C1278 H1274 0.949 . S
C1278 C1286 1.574 . S
C1278 C1294 1.368 . S
H1279 C1287 0.950 . S
H1280 C1285 0.950 . S
H1281 C1286 0.949 . S
H1282 C1288 0.950 . S
H1283 C1289 0.950 . S
H1284 C1290 0.949 . S
C1285 H1280 0.950 . S
C1285 C1287 1.327 . S
C1285 C1291 1.429 . S
C1286 C1278 1.574 . S
C1286 H1281 0.949 . S
C1286 C1292 1.368 . S
C1287 C1271 1.349 . S
C1287 H1279 0.950 . S
C1287 C1285 1.327 . S
C1288 C1276 1.349 . S
C1288 H1282 0.950 . S
C1288 C1289 1.327 . S
C1289 H1283 0.950 . S
C1289 C1288 1.327 . S
C1289 C1293 1.429 . S
C1290 C1273 1.574 . S
C1290 H1284 0.949 . S
C1290 C1294 1.368 . S
C1291 C1272 1.429 . S
C1291 C1285 1.429 . S
C1291 C1292 1.523 . S
C1292 C1273 1.368 . S
C1292 C1286 1.368 . S
C1292 C1291 1.523 . S
C1293 C1277 1.429 . S
C1293 C1289 1.429 . S
C1293 C1294 1.523 . S
C1294 C1278 1.368 . S
C1294 C1290 1.368 . S
C1294 C1293 1.523 . S
H1295 C1270 0.950 . S
H1296 C1272 0.950 . S
H1297 C1273 0.949 . S
H1298 C1275 0.950 . S
H1299 C1277 0.950 . S
C1300 C1301 1.349 . S
C1300 C1302 1.327 . S
C1300 H1325 0.950 . S
C1301 C1300 1.349 . S
C1301 C1317 1.349 . S
C1302 C1300 1.327 . S
C1302 C1321 1.429 . S
C1302 H1326 0.950 . S
C1303 C1320 1.574 . S
C1303 C1322 1.368 . S
C1303 H1327 0.949 . S
H1304 C1308 0.949 . S
C1305 C1306 1.349 . S
C1305 C1307 1.327 . S
C1305 H1328 0.950 . S
C1306 C1305 1.349 . S
C1306 C1318 1.349 . S
C1307 C1305 1.327 . S
C1307 C1323 1.429 . S
C1307 H1329 0.950 . S
C1308 H1304 0.949 . S
C1308 C1316 1.574 . S
C1308 C1324 1.368 . S
H1309 C1317 0.950 . S
H1310 C1315 0.950 . S
H1311 C1316 0.949 . S
H1312 C1318 0.950 . S
H1313 C1319 0.950 . S
H1314 C1320 0.949 . S
C1315 H1310 0.950 . S
C1315 C1317 1.327 . S
C1315 C1321 1.429 . S
C1316 C1308 1.574 . S
C1316 H1311 0.949 . S
C1316 C1322 1.368 . S
C1317 C1301 1.349 . S
C1317 H1309 0.950 . S
C1317 C1315 1.327 . S
C1318 C1306 1.349 . S
C1318 H1312 0.950 . S
C1318 C1319 1.327 . S
C1319 H1313 0.950 . S
C1319 C1318 1.327 . S
C1319 C1323 1.429 . S
C1320 C1303 1.574 . S
C1320 H1314 0.949 . S
C1320 C1324 1.368 . S
C1321 C1302 1.429 . S
C1321 C1315 1.429 . S
C1321 C1322 1.523 . S
C1322 C1303 1.368 . S
C1322 C1316 1.368 . S
C1322 C1321 1.523 . S
C1323 C1307 1.429 . S
C1323 C1319 1.429 . S
C1323 C1324 1.523 . S
C1324 C1308 1.368 . S
C1324 C1320 1.368 . S
C1324 C1323 1.523 . S
H1325 C1300 0.950 . S
H1326 C1302 0.950 . S
H1327 C1303 0.949 . S
H1328 C1305 0.950 . S
H1329 C1307 0.950 . S
C1330 C1331 1.349 . S
C1330 C1332 1.327 . S
C1330 H1355 0.950 . S
C1331 C1330 1.349 . S
C1331 C1347 1.349 . S
C1332 C1330 1.327 . S
C1332 C1351 1.429 . S
C1332 H1356 0.950 . S
C1333 C1350 1.573 1_455 S
C1333 C1352 1.368 . S
C1333 H1357 0.949 . S
H1334 C1338 0.949 . S
C1335 C1336 1.349 . S
C1335 C1337 1.327 . S
C1335 H1358 0.950 . S
C1336 C1335 1.349 . S
C1336 C1348 1.349 . S
C1337 C1335 1.327 . S
C1337 C1353 1.429 . S
C1337 H1359 0.950 . S
C1338 H1334 0.949 . S
C1338 C1346 1.574 1_655 S
C1338 C1354 1.368 . S
H1339 C1347 0.950 . S
H1340 C1345 0.950 . S
H1341 C1346 0.949 . S
H1342 C1348 0.950 . S
H1343 C1349 0.950 . S
H1344 C1350 0.949 . S
C1345 H1340 0.950 . S
C1345 C1347 1.327 . S
C1345 C1351 1.429 . S
C1346 C1338 1.574 1_455 S
C1346 H1341 0.949 . S
C1346 C1352 1.368 . S
C1347 C1331 1.349 . S
C1347 H1339 0.950 . S
C1347 C1345 1.327 . S
C1348 C1336 1.349 . S
C1348 H1342 0.950 . S
C1348 C1349 1.327 . S
C1349 H1343 0.950 . S
C1349 C1348 1.327 . S
C1349 C1353 1.429 . S
C1350 C1333 1.573 1_655 S
C1350 H1344 0.949 . S
C1350 C1354 1.368 . S
C1351 C1332 1.429 . S
C1351 C1345 1.429 . S
C1351 C1352 1.523 . S
C1352 C1333 1.368 . S
C1352 C1346 1.368 . S
C1352 C1351 1.523 . S
C1353 C1337 1.429 . S
C1353 C1349 1.429 . S
C1353 C1354 1.523 . S
C1354 C1338 1.368 . S
C1354 C1350 1.368 . S
C1354 C1353 1.523 . S
H1355 C1330 0.950 . S
H1356 C1332 0.950 . S
H1357 C1333 0.949 . S
H1358 C1335 0.950 . S
H1359 C1337 0.950 . S
C1360 C1361 1.349 . S
C1360 C1362 1.327 . S
C1360 H1385 0.950 . S
C1361 C1360 1.349 . S
C1361 C1377 1.349 . S
C1362 C1360 1.327 . S
C1362 C1381 1.429 . S
C1362 H1386 0.950 . S
C1363 C1380 1.574 1_544 S
C1363 C1382 1.368 . S
C1363 H1387 0.949 1_455 S
H1364 C1368 0.949 . S
C1365 C1366 1.349 . S
C1365 C1367 1.327 . S
C1365 H1388 0.950 1_455 S
C1366 C1365 1.349 . S
C1366 C1378 1.349 . S
C1367 C1365 1.327 . S
C1367 C1383 1.429 . S
C1367 H1389 0.950 1_455 S
C1368 H1364 0.949 . S
C1368 C1376 1.574 1_566 S
C1368 C1384 1.368 . S
H1369 C1377 0.950 1_655 S
H1370 C1375 0.950 1_655 S
H1371 C1376 0.949 . S
H1372 C1378 0.950 . S
H1373 C1379 0.950 . S
H1374 C1380 0.949 1_655 S
C1375 H1370 0.950 1_455 S
C1375 C1377 1.327 . S
C1375 C1381 1.429 . S
C1376 C1368 1.574 1_544 S
C1376 H1371 0.949 . S
C1376 C1382 1.368 . S
C1377 C1361 1.349 . S
C1377 H1369 0.950 1_455 S
C1377 C1375 1.327 . S
C1378 C1366 1.349 . S
C1378 H1372 0.950 . S
C1378 C1379 1.327 . S
C1379 H1373 0.950 . S
C1379 C1378 1.327 . S
C1379 C1383 1.429 . S
C1380 C1363 1.574 1_566 S
C1380 H1374 0.949 1_455 S
C1380 C1384 1.368 . S
C1381 C1362 1.429 . S
C1381 C1375 1.429 . S
C1381 C1382 1.523 . S
C1382 C1363 1.368 . S
C1382 C1376 1.368 . S
C1382 C1381 1.523 . S
C1383 C1367 1.429 . S
C1383 C1379 1.429 . S
C1383 C1384 1.523 . S
C1384 C1368 1.368 . S
C1384 C1380 1.368 . S
C1384 C1383 1.523 . S
H1385 C1360 0.950 . S
H1386 C1362 0.950 . S
H1387 C1363 0.949 1_655 S
H1388 C1365 0.950 1_655 S
H1389 C1367 0.950 1_655 S
C1390 C1391 1.349 . S
C1390 C1392 1.327 . S
C1390 H1415 0.950 . S
C1391 C1390 1.349 . S
C1391 C1407 1.349 . S
C1392 C1390 1.327 . S
C1392 C1411 1.429 . S
C1392 H1416 0.950 . S
C1393 C1410 1.574 . S
C1393 C1412 1.368 . S
C1393 H1417 0.949 . S
H1394 C1398 0.949 . S
C1395 C1396 1.349 . S
C1395 C1397 1.327 . S
C1395 H1418 0.950 . S
C1396 C1395 1.349 . S
C1396 C1408 1.349 . S
C1397 C1395 1.327 . S
C1397 C1413 1.429 . S
C1397 H1419 0.950 . S
C1398 H1394 0.949 . S
C1398 C1406 1.574 . S
C1398 C1414 1.368 . S
H1399 C1407 0.950 . S
H1400 C1405 0.950 . S
H1401 C1406 0.949 . S
H1402 C1408 0.950 . S
H1403 C1409 0.950 . S
H1404 C1410 0.949 . S
C1405 H1400 0.950 . S
C1405 C1407 1.327 . S
C1405 C1411 1.429 . S
C1406 C1398 1.574 . S
C1406 H1401 0.949 . S
C1406 C1412 1.368 . S
C1407 C1391 1.349 . S
C1407 H1399 0.950 . S
C1407 C1405 1.327 . S
C1408 C1396 1.349 . S
C1408 H1402 0.950 . S
C1408 C1409 1.327 . S
C1409 H1403 0.950 . S
C1409 C1408 1.327 . S
C1409 C1413 1.429 . S
C1410 C1393 1.574 . S
C1410 H1404 0.949 . S
C1410 C1414 1.368 . S
C1411 C1392 1.429 . S
C1411 C1405 1.429 . S
C1411 C1412 1.523 . S
C1412 C1393 1.368 . S
C1412 C1406 1.368 . S
C1412 C1411 1.523 . S
C1413 C1397 1.429 . S
C1413 C1409 1.429 . S
C1413 C1414 1.523 . S
C1414 C1398 1.368 . S
C1414 C1410 1.368 . S
C1414 C1413 1.523 . S
H1415 C1390 0.950 . S
H1416 C1392 0.950 . S
H1417 C1393 0.949 . S
H1418 C1395 0.950 . S
H1419 C1397 0.950 . S
C1420 C1421 1.349 . S
C1420 C1422 1.327 . S
C1420 H1445 0.950 . S
C1421 C1420 1.349 . S
C1421 C1437 1.349 . S
C1422 C1420 1.327 . S
C1422 C1441 1.429 . S
C1422 H1446 0.950 . S
C1423 C1440 1.574 1_545 S
C1423 C1442 1.368 . S
C1423 H1447 0.949 . S
H1424 C1428 0.949 . S
C1425 C1426 1.349 . S
C1425 C1427 1.327 . S
C1425 H1448 0.950 . S
C1426 C1425 1.349 . S
C1426 C1438 1.349 . S
C1427 C1425 1.327 . S
C1427 C1443 1.429 . S
C1427 H1449 0.950 . S
C1428 H1424 0.949 . S
C1428 C1436 1.574 1_565 S
C1428 C1444 1.368 . S
H1429 C1437 0.950 . S
H1430 C1435 0.950 . S
H1431 C1436 0.949 . S
H1432 C1438 0.950 . S
H1433 C1439 0.950 . S
H1434 C1440 0.949 . S
C1435 H1430 0.950 . S
C1435 C1437 1.327 . S
C1435 C1441 1.429 . S
C1436 C1428 1.574 1_545 S
C1436 H1431 0.949 . S
C1436 C1442 1.368 . S
C1437 C1421 1.349 . S
C1437 H1429 0.950 . S
C1437 C1435 1.327 . S
C1438 C1426 1.349 . S
C1438 H1432 0.950 . S
C1438 C1439 1.327 . S
C1439 H1433 0.950 . S
C1439 C1438 1.327 . S
C1439 C1443 1.429 . S
C1440 C1423 1.574 1_565 S
C1440 H1434 0.949 . S
C1440 C1444 1.368 . S
C1441 C1422 1.429 . S
C1441 C1435 1.429 . S
C1441 C1442 1.523 . S
C1442 C1423 1.368 . S
C1442 C1436 1.368 . S
C1442 C1441 1.523 . S
C1443 C1427 1.429 . S
C1443 C1439 1.429 . S
C1443 C1444 1.523 . S
C1444 C1428 1.368 . S
C1444 C1440 1.368 . S
C1444 C1443 1.523 . S
H1445 C1420 0.950 . S
H1446 C1422 0.950 . S
H1447 C1423 0.949 . S
H1448 C1425 0.950 . S
H1449 C1427 0.950 . S
C1450 C1451 1.349 . S
C1450 C1452 1.327 . S
C1450 H1475 0.950 . S
C1451 C1450 1.349 . S
C1451 C1467 1.349 . S
C1452 C1450 1.327 . S
C1452 C1471 1.429 . S
C1452 H1476 0.950 . S
C1453 C1470 1.574 . S
C1453 C1472 1.368 . S
C1453 H1477 0.949 . S
H1454 C1458 0.949 . S
C1455 C1456 1.349 . S
C1455 C1457 1.327 . S
C1455 H1478 0.950 . S
C1456 C1455 1.349 . S
C1456 C1468 1.349 . S
C1457 C1455 1.327 . S
C1457 C1473 1.429 . S
C1457 H1479 0.950 . S
C1458 H1454 0.949 . S
C1458 C1466 1.574 . S
C1458 C1474 1.368 . S
H1459 C1467 0.950 . S
H1460 C1465 0.950 . S
H1461 C1466 0.949 . S
H1462 C1468 0.950 . S
H1463 C1469 0.950 . S
H1464 C1470 0.949 . S
C1465 H1460 0.950 . S
C1465 C1467 1.327 . S
C1465 C1471 1.429 . S
C1466 C1458 1.574 . S
C1466 H1461 0.949 . S
C1466 C1472 1.368 . S
C1467 C1451 1.349 . S
C1467 H1459 0.950 . S
C1467 C1465 1.327 . S
C1468 C1456 1.349 . S
C1468 H1462 0.950 . S
C1468 C1469 1.327 . S
C1469 H1463 0.950 . S
C1469 C1468 1.327 . S
C1469 C1473 1.429 . S
C1470 C1453 1.574 . S
C1470 H1464 0.949 . S
C1470 C1474 1.368 . S
C1471 C1452 1.429 . S
C1471 C1465 1.429 . S
C1471 C1472 1.523 . S
C1472 C1453 1.368 . S
C1472 C1466 1.368 . S
C1472 C1471 1.523 . S
C1473 C1457 1.429 . S
C1473 C1469 1.429 . S
C1473 C1474 1.523 . S
C1474 C1458 1.368 . S
C1474 C1470 1.368 . S
C1474 C1473 1.523 . S
H1475 C1450 0.950 . S
H1476 C1452 0.950 . S
H1477 C1453 0.949 . S
H1478 C1455 0.950 . S
H1479 C1457 0.950 . S
C1480 C1481 1.349 . S
C1480 C1482 1.327 . S
C1480 H1505 0.950 . S
C1481 C1480 1.349 . S
C1481 C1497 1.349 . S
C1482 C1480 1.327 . S
C1482 C1501 1.429 . S
C1482 H1506 0.950 . S
C1483 C1500 1.574 . S
C1483 C1502 1.368 . S
C1483 H1507 0.949 . S
H1484 C1488 0.949 . S
C1485 C1486 1.349 . S
C1485 C1487 1.327 . S
C1485 H1508 0.950 . S
C1486 C1485 1.349 . S
C1486 C1498 1.349 . S
C1487 C1485 1.327 . S
C1487 C1503 1.429 . S
C1487 H1509 0.950 . S
C1488 H1484 0.949 . S
C1488 C1496 1.574 . S
C1488 C1504 1.368 . S
H1489 C1497 0.950 . S
H1490 C1495 0.950 . S
H1491 C1496 0.949 . S
H1492 C1498 0.950 . S
H1493 C1499 0.950 . S
H1494 C1500 0.949 . S
C1495 H1490 0.950 . S
C1495 C1497 1.327 . S
C1495 C1501 1.429 . S
C1496 C1488 1.574 . S
C1496 H1491 0.949 . S
C1496 C1502 1.368 . S
C1497 C1481 1.349 . S
C1497 H1489 0.950 . S
C1497 C1495 1.327 . S
C1498 C1486 1.349 . S
C1498 H1492 0.950 . S
C1498 C1499 1.327 . S
C1499 H1493 0.950 . S
C1499 C1498 1.327 . S
C1499 C1503 1.429 . S
C1500 C1483 1.574 . S
C1500 H1494 0.949 . S
C1500 C1504 1.368 . S
C1501 C1482 1.429 . S
C1501 C1495 1.429 . S
C1501 C1502 1.523 . S
C1502 C1483 1.368 . S
C1502 C1496 1.368 . S
C1502 C1501 1.523 . S
C1503 C1487 1.429 . S
C1503 C1499 1.429 . S
C1503 C1504 1.523 . S
C1504 C1488 1.368 . S
C1504 C1500 1.368 . S
C1504 C1503 1.523 . S
H1505 C1480 0.950 . S
H1506 C1482 0.950 . S
H1507 C1483 0.949 . S
H1508 C1485 0.950 . S
H1509 C1487 0.950 . S
C1510 C1511 1.349 . S
C1510 C1512 1.327 . S
C1510 H1535 0.950 . S
C1511 C1510 1.349 . S
C1511 C1527 1.349 . S
C1512 C1510 1.327 . S
C1512 C1531 1.429 . S
C1512 H1536 0.950 . S
C1513 C1530 1.574 . S
C1513 C1532 1.368 . S
C1513 H1537 0.949 . S
H1514 C1518 0.949 . S
C1515 C1516 1.349 . S
C1515 C1517 1.327 . S
C1515 H1538 0.950 . S
C1516 C1515 1.349 . S
C1516 C1528 1.349 . S
C1517 C1515 1.327 . S
C1517 C1533 1.429 . S
C1517 H1539 0.950 . S
C1518 H1514 0.949 . S
C1518 C1526 1.574 . S
C1518 C1534 1.368 . S
H1519 C1527 0.950 . S
H1520 C1525 0.950 . S
H1521 C1526 0.949 . S
H1522 C1528 0.950 . S
H1523 C1529 0.950 . S
H1524 C1530 0.949 . S
C1525 H1520 0.950 . S
C1525 C1527 1.327 . S
C1525 C1531 1.429 . S
C1526 C1518 1.574 . S
C1526 H1521 0.949 . S
C1526 C1532 1.368 . S
C1527 C1511 1.349 . S
C1527 H1519 0.950 . S
C1527 C1525 1.327 . S
C1528 C1516 1.349 . S
C1528 H1522 0.950 . S
C1528 C1529 1.327 . S
C1529 H1523 0.950 . S
C1529 C1528 1.327 . S
C1529 C1533 1.429 . S
C1530 C1513 1.574 . S
C1530 H1524 0.949 . S
C1530 C1534 1.368 . S
C1531 C1512 1.429 . S
C1531 C1525 1.429 . S
C1531 C1532 1.523 . S
C1532 C1513 1.368 . S
C1532 C1526 1.368 . S
C1532 C1531 1.523 . S
C1533 C1517 1.429 . S
C1533 C1529 1.429 . S
C1533 C1534 1.523 . S
C1534 C1518 1.368 . S
C1534 C1530 1.368 . S
C1534 C1533 1.523 . S
H1535 C1510 0.950 . S
H1536 C1512 0.950 . S
H1537 C1513 0.949 . S
H1538 C1515 0.950 . S
H1539 C1517 0.950 . S
C1540 C1541 1.349 . S
C1540 C1542 1.327 . S
C1540 H1565 0.950 . S
C1541 C1540 1.349 . S
C1541 C1557 1.349 . S
C1542 C1540 1.327 . S
C1542 C1561 1.429 . S
C1542 H1566 0.950 . S
C1543 C1560 1.574 . S
C1543 C1562 1.368 . S
C1543 H1567 0.949 . S
H1544 C1548 0.949 . S
C1545 C1546 1.349 . S
C1545 C1547 1.327 . S
C1545 H1568 0.950 . S
C1546 C1545 1.349 . S
C1546 C1558 1.349 . S
C1547 C1545 1.327 . S
C1547 C1563 1.429 . S
C1547 H1569 0.950 . S
C1548 H1544 0.949 . S
C1548 C1556 1.574 . S
C1548 C1564 1.368 . S
H1549 C1557 0.950 . S
H1550 C1555 0.950 . S
H1551 C1556 0.949 . S
H1552 C1558 0.950 . S
H1553 C1559 0.950 . S
H1554 C1560 0.949 . S
C1555 H1550 0.950 . S
C1555 C1557 1.327 . S
C1555 C1561 1.429 . S
C1556 C1548 1.574 . S
C1556 H1551 0.949 . S
C1556 C1562 1.368 . S
C1557 C1541 1.349 . S
C1557 H1549 0.950 . S
C1557 C1555 1.327 . S
C1558 C1546 1.349 . S
C1558 H1552 0.950 . S
C1558 C1559 1.327 . S
C1559 H1553 0.950 . S
C1559 C1558 1.327 . S
C1559 C1563 1.429 . S
C1560 C1543 1.574 . S
C1560 H1554 0.949 . S
C1560 C1564 1.368 . S
C1561 C1542 1.429 . S
C1561 C1555 1.429 . S
C1561 C1562 1.523 . S
C1562 C1543 1.368 . S
C1562 C1556 1.368 . S
C1562 C1561 1.523 . S
C1563 C1547 1.429 . S
C1563 C1559 1.429 . S
C1563 C1564 1.523 . S
C1564 C1548 1.368 . S
C1564 C1560 1.368 . S
C1564 C1563 1.523 . S
H1565 C1540 0.950 . S
H1566 C1542 0.950 . S
H1567 C1543 0.949 . S
H1568 C1545 0.950 . S
H1569 C1547 0.950 . S
C1570 C1571 1.349 . S
C1570 C1572 1.327 . S
C1570 H1595 0.950 . S
C1571 C1570 1.349 . S
C1571 C1587 1.349 1_455 S
C1572 C1570 1.327 . S
C1572 C1591 1.429 . S
C1572 H1596 0.950 . S
C1573 C1590 1.591 . S
C1573 C1592 1.351 1_654 S
C1573 H1597 0.949 . S
H1574 C1578 0.949 . S
C1575 C1576 1.349 1_655 S
C1575 C1577 1.327 . S
C1575 H1598 0.950 . S
C1576 C1575 1.349 1_455 S
C1576 C1588 1.349 . S
C1577 C1575 1.327 . S
C1577 C1593 1.429 1_655 S
C1577 H1599 0.950 . S
C1578 H1574 0.949 . S
C1578 C1586 1.591 . S
C1578 C1594 1.351 1_556 S
H1579 C1587 0.950 . S
H1580 C1585 0.950 . S
H1581 C1586 0.949 . S
H1582 C1588 0.950 . S
H1583 C1589 0.950 . S
H1584 C1590 0.949 . S
C1585 H1580 0.950 . S
C1585 C1587 1.327 . S
C1585 C1591 1.429 1_655 S
C1586 C1578 1.591 . S
C1586 H1581 0.949 . S
C1586 C1592 1.368 . S
C1587 C1571 1.349 1_655 S
C1587 H1579 0.950 . S
C1587 C1585 1.327 . S
C1588 C1576 1.349 . S
C1588 H1582 0.950 . S
C1588 C1589 1.327 . S
C1589 H1583 0.950 . S
C1589 C1588 1.327 . S
C1589 C1593 1.429 . S
C1590 C1573 1.591 . S
C1590 H1584 0.949 . S
C1590 C1594 1.368 1_655 S
C1591 C1572 1.429 . S
C1591 C1585 1.429 1_455 S
C1591 C1592 1.523 . S
C1592 C1573 1.351 1_456 S
C1592 C1586 1.368 . S
C1592 C1591 1.523 . S
C1593 C1577 1.429 1_455 S
C1593 C1589 1.429 . S
C1593 C1594 1.523 . S
C1594 C1578 1.351 1_554 S
C1594 C1590 1.368 1_455 S
C1594 C1593 1.523 . S
H1595 C1570 0.950 . S
H1596 C1572 0.950 . S
H1597 C1573 0.949 . S
H1598 C1575 0.950 . S
H1599 C1577 0.950 . S
C1600 C1601 1.349 . S
C1600 C1602 1.327 . S
C1600 H1625 0.950 . S
C1601 C1600 1.349 . S
C1601 C1617 1.349 . S
C1602 C1600 1.327 . S
C1602 C1621 1.429 . S
C1602 H1626 0.950 . S
C1603 C1620 1.574 . S
C1603 C1622 1.368 . S
C1603 H1627 0.949 . S
H1604 C1608 0.949 . S
C1605 C1606 1.349 . S
C1605 C1607 1.327 . S
C1605 H1628 0.950 . S
C1606 C1605 1.349 . S
C1606 C1618 1.349 . S
C1607 C1605 1.327 . S
C1607 C1623 1.429 . S
C1607 H1629 0.950 . S
C1608 H1604 0.949 . S
C1608 C1616 1.574 . S
C1608 C1624 1.368 . S
H1609 C1617 0.950 . S
H1610 C1615 0.950 . S
H1611 C1616 0.949 . S
H1612 C1618 0.950 . S
H1613 C1619 0.950 . S
H1614 C1620 0.949 . S
C1615 H1610 0.950 . S
C1615 C1617 1.327 . S
C1615 C1621 1.429 . S
C1616 C1608 1.574 . S
C1616 H1611 0.949 . S
C1616 C1622 1.368 . S
C1617 C1601 1.349 . S
C1617 H1609 0.950 . S
C1617 C1615 1.327 . S
C1618 C1606 1.349 . S
C1618 H1612 0.950 . S
C1618 C1619 1.327 . S
C1619 H1613 0.950 . S
C1619 C1618 1.327 . S
C1619 C1623 1.429 . S
C1620 C1603 1.574 . S
C1620 H1614 0.949 . S
C1620 C1624 1.368 . S
C1621 C1602 1.429 . S
C1621 C1615 1.429 . S
C1621 C1622 1.523 . S
C1622 C1603 1.368 . S
C1622 C1616 1.368 . S
C1622 C1621 1.523 . S
C1623 C1607 1.429 . S
C1623 C1619 1.429 . S
C1623 C1624 1.523 . S
C1624 C1608 1.368 . S
C1624 C1620 1.368 . S
C1624 C1623 1.523 . S
H1625 C1600 0.950 . S
H1626 C1602 0.950 . S
H1627 C1603 0.949 . S
H1628 C1605 0.950 . S
H1629 C1607 0.950 . S
C1630 C1631 1.349 . S
C1630 C1632 1.327 . S
C1630 H1655 0.950 . S
C1631 C1630 1.349 . S
C1631 C1647 1.349 . S
C1632 C1630 1.327 . S
C1632 C1651 1.429 . S
C1632 H1656 0.950 . S
C1633 C1650 1.574 . S
C1633 C1652 1.368 . S
C1633 H1657 0.949 . S
H1634 C1638 0.949 . S
C1635 C1636 1.349 . S
C1635 C1637 1.327 . S
C1635 H1658 0.950 . S
C1636 C1635 1.349 . S
C1636 C1648 1.349 . S
C1637 C1635 1.327 . S
C1637 C1653 1.429 . S
C1637 H1659 0.950 . S
C1638 H1634 0.949 . S
C1638 C1646 1.574 . S
C1638 C1654 1.368 . S
H1639 C1647 0.950 . S
H1640 C1645 0.950 . S
H1641 C1646 0.949 . S
H1642 C1648 0.950 . S
H1643 C1649 0.950 . S
H1644 C1650 0.949 . S
C1645 H1640 0.950 . S
C1645 C1647 1.327 . S
C1645 C1651 1.429 . S
C1646 C1638 1.574 . S
C1646 H1641 0.949 . S
C1646 C1652 1.368 . S
C1647 C1631 1.349 . S
C1647 H1639 0.950 . S
C1647 C1645 1.327 . S
C1648 C1636 1.349 . S
C1648 H1642 0.950 . S
C1648 C1649 1.327 . S
C1649 H1643 0.950 . S
C1649 C1648 1.327 . S
C1649 C1653 1.429 . S
C1650 C1633 1.574 . S
C1650 H1644 0.949 . S
C1650 C1654 1.368 . S
C1651 C1632 1.429 . S
C1651 C1645 1.429 . S
C1651 C1652 1.523 . S
C1652 C1633 1.368 . S
C1652 C1646 1.368 . S
C1652 C1651 1.523 . S
C1653 C1637 1.429 . S
C1653 C1649 1.429 . S
C1653 C1654 1.523 . S
C1654 C1638 1.368 . S
C1654 C1650 1.368 . S
C1654 C1653 1.523 . S
H1655 C1630 0.950 . S
H1656 C1632 0.950 . S
H1657 C1633 0.949 . S
H1658 C1635 0.950 . S
H1659 C1637 0.950 . S
C1660 C1661 1.349 . S
C1660 C1662 1.327 . S
C1660 H1685 0.937 1_556 S
C1661 C1660 1.349 . S
C1661 C1677 1.349 . S
C1662 C1660 1.327 . S
C1662 C1681 1.429 . S
C1662 H1686 0.950 . S
C1663 C1680 1.574 . S
C1663 C1682 1.368 . S
C1663 H1687 0.949 . S
H1664 C1668 0.949 . S
C1665 C1666 1.349 . S
C1665 C1667 1.327 . S
C1665 H1688 0.950 . S
C1666 C1665 1.349 . S
C1666 C1678 1.349 . S
C1667 C1665 1.327 . S
C1667 C1683 1.429 . S
C1667 H1689 0.950 . S
C1668 H1664 0.949 . S
C1668 C1676 1.574 . S
C1668 C1684 1.368 . S
H1669 C1677 0.950 . S
H1670 C1675 0.950 . S
H1671 C1676 0.949 . S
H1672 C1678 0.950 . S
H1673 C1679 0.950 . S
H1674 C1680 0.949 . S
C1675 H1670 0.950 . S
C1675 C1677 1.327 . S
C1675 C1681 1.429 . S
C1676 C1668 1.574 . S
C1676 H1671 0.949 . S
C1676 C1682 1.368 . S
C1677 C1661 1.349 . S
C1677 H1669 0.950 . S
C1677 C1675 1.327 . S
C1678 C1666 1.349 . S
C1678 H1672 0.950 . S
C1678 C1679 1.327 . S
C1679 H1673 0.950 . S
C1679 C1678 1.327 . S
C1679 C1683 1.429 . S
C1680 C1663 1.574 . S
C1680 H1674 0.949 . S
C1680 C1684 1.368 . S
C1681 C1662 1.429 . S
C1681 C1675 1.429 . S
C1681 C1682 1.523 . S
C1682 C1663 1.368 . S
C1682 C1676 1.368 . S
C1682 C1681 1.523 . S
C1683 C1667 1.429 . S
C1683 C1679 1.429 . S
C1683 C1684 1.523 . S
C1684 C1668 1.368 . S
C1684 C1680 1.368 . S
C1684 C1683 1.523 . S
H1685 C1660 0.937 1_554 S
H1686 C1662 0.950 . S
H1687 C1663 0.949 . S
H1688 C1665 0.950 . S
H1689 C1667 0.950 . S
C1690 C1691 1.349 . S
C1690 C1692 1.327 . S
C1690 H1715 0.950 . S
C1691 C1690 1.349 . S
C1691 C1707 1.349 . S
C1692 C1690 1.327 . S
C1692 C1711 1.429 . S
C1692 H1716 0.950 . S
C1693 C1710 1.574 . S
C1693 C1712 1.368 . S
C1693 H1717 0.949 . S
H1694 C1698 0.949 . S
C1695 C1696 1.349 . S
C1695 C1697 1.327 . S
C1695 H1718 0.950 1_554 S
C1696 C1695 1.349 . S
C1696 C1708 1.349 . S
C1697 C1695 1.327 . S
C1697 C1713 1.429 . S
C1697 H1719 0.950 . S
C1698 H1694 0.949 . S
C1698 C1706 1.574 . S
C1698 C1714 1.368 . S
H1699 C1707 0.950 . S
H1700 C1705 0.950 . S
H1701 C1706 0.949 . S
H1702 C1708 0.950 . S
H1703 C1709 0.950 . S
H1704 C1710 0.949 . S
C1705 H1700 0.950 . S
C1705 C1707 1.327 . S
C1705 C1711 1.429 . S
C1706 C1698 1.574 . S
C1706 H1701 0.949 . S
C1706 C1712 1.368 . S
C1707 C1691 1.349 . S
C1707 H1699 0.950 . S
C1707 C1705 1.327 . S
C1708 C1696 1.349 . S
C1708 H1702 0.950 . S
C1708 C1709 1.327 . S
C1709 H1703 0.950 . S
C1709 C1708 1.327 . S
C1709 C1713 1.429 . S
C1710 C1693 1.574 . S
C1710 H1704 0.949 . S
C1710 C1714 1.368 . S
C1711 C1692 1.429 . S
C1711 C1705 1.429 . S
C1711 C1712 1.523 . S
C1712 C1693 1.368 . S
C1712 C1706 1.368 . S
C1712 C1711 1.523 . S
C1713 C1697 1.429 . S
C1713 C1709 1.429 . S
C1713 C1714 1.523 . S
C1714 C1698 1.368 . S
C1714 C1710 1.368 . S
C1714 C1713 1.523 . S
H1715 C1690 0.950 . S
H1716 C1692 0.950 . S
H1717 C1693 0.949 . S
H1718 C1695 0.950 1_556 S
H1719 C1697 0.950 . S
C1720 C1721 1.349 . S
C1720 C1722 1.327 . S
C1720 H1745 0.950 . S
C1721 C1720 1.349 . S
C1721 C1737 1.349 . S
C1722 C1720 1.327 . S
C1722 C1741 1.429 . S
C1722 H1746 0.950 . S
C1723 C1740 1.574 . S
C1723 C1742 1.368 . S
C1723 H1747 0.949 . S
H1724 C1728 0.949 . S
C1725 C1726 1.349 . S
C1725 C1727 1.327 . S
C1725 H1748 0.950 . S
C1726 C1725 1.349 . S
C1726 C1738 1.349 . S
C1727 C1725 1.327 . S
C1727 C1743 1.429 . S
C1727 H1749 0.950 . S
C1728 H1724 0.949 . S
C1728 C1736 1.574 . S
C1728 C1744 1.368 . S
H1729 C1737 0.950 . S
H1730 C1735 0.950 . S
H1731 C1736 0.949 . S
H1732 C1738 0.950 . S
H1733 C1739 0.950 . S
H1734 C1740 0.949 . S
C1735 H1730 0.950 . S
C1735 C1737 1.327 . S
C1735 C1741 1.429 . S
C1736 C1728 1.574 . S
C1736 H1731 0.949 . S
C1736 C1742 1.368 . S
C1737 C1721 1.349 . S
C1737 H1729 0.950 . S
C1737 C1735 1.327 . S
C1738 C1726 1.349 . S
C1738 H1732 0.950 . S
C1738 C1739 1.327 . S
C1739 H1733 0.950 . S
C1739 C1738 1.327 . S
C1739 C1743 1.429 . S
C1740 C1723 1.574 . S
C1740 H1734 0.949 . S
C1740 C1744 1.368 . S
C1741 C1722 1.429 . S
C1741 C1735 1.429 . S
C1741 C1742 1.523 . S
C1742 C1723 1.368 . S
C1742 C1736 1.368 . S
C1742 C1741 1.523 . S
C1743 C1727 1.429 . S
C1743 C1739 1.429 . S
C1743 C1744 1.523 . S
C1744 C1728 1.368 . S
C1744 C1740 1.368 . S
C1744 C1743 1.523 . S
H1745 C1720 0.950 . S
H1746 C1722 0.950 . S
H1747 C1723 0.949 . S
H1748 C1725 0.950 . S
H1749 C1727 0.950 . S
C1750 C1751 1.349 . S
C1750 C1752 1.327 . S
C1750 H1775 0.950 . S
C1751 C1750 1.349 . S
C1751 C1767 1.349 . S
C1752 C1750 1.327 . S
C1752 C1771 1.429 . S
C1752 H1776 0.950 . S
C1753 C1770 1.574 . S
C1753 C1772 1.368 . S
C1753 H1777 0.949 . S
H1754 C1758 0.949 . S
C1755 C1756 1.349 . S
C1755 C1757 1.327 . S
C1755 H1778 0.950 . S
C1756 C1755 1.349 . S
C1756 C1768 1.349 . S
C1757 C1755 1.327 . S
C1757 C1773 1.429 . S
C1757 H1779 0.950 . S
C1758 H1754 0.949 . S
C1758 C1766 1.574 . S
C1758 C1774 1.368 . S
H1759 C1767 0.950 . S
H1760 C1765 0.950 . S
H1761 C1766 0.949 . S
H1762 C1768 0.950 . S
H1763 C1769 0.950 . S
H1764 C1770 0.949 . S
C1765 H1760 0.950 . S
C1765 C1767 1.327 . S
C1765 C1771 1.429 . S
C1766 C1758 1.574 . S
C1766 H1761 0.949 . S
C1766 C1772 1.368 . S
C1767 C1751 1.349 . S
C1767 H1759 0.950 . S
C1767 C1765 1.327 . S
C1768 C1756 1.349 . S
C1768 H1762 0.950 . S
C1768 C1769 1.327 . S
C1769 H1763 0.950 . S
C1769 C1768 1.327 . S
C1769 C1773 1.429 . S
C1770 C1753 1.574 . S
C1770 H1764 0.949 . S
C1770 C1774 1.368 . S
C1771 C1752 1.429 . S
C1771 C1765 1.429 . S
C1771 C1772 1.523 . S
C1772 C1753 1.368 . S
C1772 C1766 1.368 . S
C1772 C1771 1.523 . S
C1773 C1757 1.429 . S
C1773 C1769 1.429 . S
C1773 C1774 1.523 . S
C1774 C1758 1.368 . S
C1774 C1770 1.368 . S
C1774 C1773 1.523 . S
H1775 C1750 0.950 . S
H1776 C1752 0.950 . S
H1777 C1753 0.949 . S
H1778 C1755 0.950 . S
H1779 C1757 0.950 . S
C1780 C1781 1.349 . S
C1780 C1782 1.327 . S
C1780 H1805 0.950 . S
C1781 C1780 1.349 . S
C1781 C1797 1.349 . S
C1782 C1780 1.327 . S
C1782 C1801 1.429 . S
C1782 H1806 0.950 . S
C1783 C1800 1.574 . S
C1783 C1802 1.368 . S
C1783 H1807 0.949 . S
H1784 C1788 0.949 . S
C1785 C1786 1.349 . S
C1785 C1787 1.327 . S
C1785 H1808 0.950 . S
C1786 C1785 1.349 . S
C1786 C1798 1.349 . S
C1787 C1785 1.327 . S
C1787 C1803 1.429 . S
C1787 H1809 0.950 . S
C1788 H1784 0.949 . S
C1788 C1796 1.574 . S
C1788 C1804 1.368 . S
H1789 C1797 0.950 . S
H1790 C1795 0.950 . S
H1791 C1796 0.949 . S
H1792 C1798 0.950 . S
H1793 C1799 0.950 . S
H1794 C1800 0.949 . S
C1795 H1790 0.950 . S
C1795 C1797 1.327 . S
C1795 C1801 1.429 . S
C1796 C1788 1.574 . S
C1796 H1791 0.949 . S
C1796 C1802 1.368 . S
C1797 C1781 1.349 . S
C1797 H1789 0.950 . S
C1797 C1795 1.327 . S
C1798 C1786 1.349 . S
C1798 H1792 0.950 . S
C1798 C1799 1.327 . S
C1799 H1793 0.950 . S
C1799 C1798 1.327 . S
C1799 C1803 1.429 . S
C1800 C1783 1.574 . S
C1800 H1794 0.949 . S
C1800 C1804 1.368 . S
C1801 C1782 1.429 . S
C1801 C1795 1.429 . S
C1801 C1802 1.523 . S
C1802 C1783 1.368 . S
C1802 C1796 1.368 . S
C1802 C1801 1.523 . S
C1803 C1787 1.429 . S
C1803 C1799 1.429 . S
C1803 C1804 1.523 . S
C1804 C1788 1.368 . S
C1804 C1800 1.368 . S
C1804 C1803 1.523 . S
H1805 C1780 0.950 . S
H1806 C1782 0.950 . S
H1807 C1783 0.949 . S
H1808 C1785 0.950 . S
H1809 C1787 0.950 . S
C1810 C1811 1.349 . S
C1810 C1812 1.327 . S
C1810 H1835 0.950 . S
C1811 C1810 1.349 . S
C1811 C1827 1.349 . S
C1812 C1810 1.327 . S
C1812 C1831 1.429 . S
C1812 H1836 0.950 . S
C1813 C1830 1.574 . S
C1813 C1832 1.368 . S
C1813 H1837 0.949 . S
H1814 C1818 0.949 . S
C1815 C1816 1.349 . S
C1815 C1817 1.327 . S
C1815 H1838 0.950 . S
C1816 C1815 1.349 . S
C1816 C1828 1.349 . S
C1817 C1815 1.327 . S
C1817 C1833 1.429 . S
C1817 H1839 0.950 . S
C1818 H1814 0.949 . S
C1818 C1826 1.574 . S
C1818 C1834 1.368 . S
H1819 C1827 0.950 . S
H1820 C1825 0.950 . S
H1821 C1826 0.949 . S
H1822 C1828 0.950 . S
H1823 C1829 0.950 . S
H1824 C1830 0.949 . S
C1825 H1820 0.950 . S
C1825 C1827 1.327 . S
C1825 C1831 1.429 . S
C1826 C1818 1.574 . S
C1826 H1821 0.949 . S
C1826 C1832 1.368 . S
C1827 C1811 1.349 . S
C1827 H1819 0.950 . S
C1827 C1825 1.327 . S
C1828 C1816 1.349 . S
C1828 H1822 0.950 . S
C1828 C1829 1.327 . S
C1829 H1823 0.950 . S
C1829 C1828 1.327 . S
C1829 C1833 1.429 . S
C1830 C1813 1.574 . S
C1830 H1824 0.949 . S
C1830 C1834 1.368 . S
C1831 C1812 1.429 . S
C1831 C1825 1.429 . S
C1831 C1832 1.523 . S
C1832 C1813 1.368 . S
C1832 C1826 1.368 . S
C1832 C1831 1.523 . S
C1833 C1817 1.429 . S
C1833 C1829 1.429 . S
C1833 C1834 1.523 . S
C1834 C1818 1.368 . S
C1834 C1830 1.368 . S
C1834 C1833 1.523 . S
H1835 C1810 0.950 . S
H1836 C1812 0.950 . S
H1837 C1813 0.949 . S
H1838 C1815 0.950 . S
H1839 C1817 0.950 . S
C1840 C1841 1.349 . S
C1840 C1842 1.327 . S
C1840 H1865 0.950 . S
C1841 C1840 1.349 . S
C1841 C1857 1.349 . S
C1842 C1840 1.327 . S
C1842 C1861 1.429 . S
C1842 H1866 0.950 . S
C1843 C1860 1.574 . S
C1843 C1862 1.368 . S
C1843 H1867 0.949 . S
H1844 C1848 0.949 . S
C1845 C1846 1.349 . S
C1845 C1847 1.327 . S
C1845 H1868 0.950 . S
C1846 C1845 1.349 . S
C1846 C1858 1.349 . S
C1847 C1845 1.327 . S
C1847 C1863 1.429 . S
C1847 H1869 0.950 . S
C1848 H1844 0.949 . S
C1848 C1856 1.574 . S
C1848 C1864 1.368 . S
H1849 C1857 0.950 . S
H1850 C1855 0.950 . S
H1851 C1856 0.949 . S
H1852 C1858 0.950 . S
H1853 C1859 0.950 . S
H1854 C1860 0.949 . S
C1855 H1850 0.950 . S
C1855 C1857 1.327 . S
C1855 C1861 1.429 . S
C1856 C1848 1.574 . S
C1856 H1851 0.949 . S
C1856 C1862 1.368 . S
C1857 C1841 1.349 . S
C1857 H1849 0.950 . S
C1857 C1855 1.327 . S
C1858 C1846 1.349 . S
C1858 H1852 0.950 . S
C1858 C1859 1.327 . S
C1859 H1853 0.950 . S
C1859 C1858 1.327 . S
C1859 C1863 1.429 . S
C1860 C1843 1.574 . S
C1860 H1854 0.949 . S
C1860 C1864 1.368 . S
C1861 C1842 1.429 . S
C1861 C1855 1.429 . S
C1861 C1862 1.523 . S
C1862 C1843 1.368 . S
C1862 C1856 1.368 . S
C1862 C1861 1.523 . S
C1863 C1847 1.429 . S
C1863 C1859 1.429 . S
C1863 C1864 1.523 . S
C1864 C1848 1.368 . S
C1864 C1860 1.368 . S
C1864 C1863 1.523 . S
H1865 C1840 0.950 . S
H1866 C1842 0.950 . S
H1867 C1843 0.949 . S
H1868 C1845 0.950 . S
H1869 C1847 0.950 . S
C1870 C1871 1.349 . S
C1870 C1872 1.327 . S
C1870 H1895 0.950 . S
C1871 C1870 1.349 . S
C1871 C1887 1.349 . S
C1872 C1870 1.327 . S
C1872 C1891 1.429 . S
C1872 H1896 0.950 . S
C1873 C1890 1.574 . S
C1873 C1892 1.368 . S
C1873 H1897 0.949 . S
H1874 C1878 0.949 . S
C1875 C1876 1.349 . S
C1875 C1877 1.327 . S
C1875 H1898 0.950 . S
C1876 C1875 1.349 . S
C1876 C1888 1.349 . S
C1877 C1875 1.327 . S
C1877 C1893 1.429 . S
C1877 H1899 0.950 . S
C1878 H1874 0.949 . S
C1878 C1886 1.574 . S
C1878 C1894 1.368 . S
H1879 C1887 0.950 . S
H1880 C1885 0.950 . S
H1881 C1886 0.949 . S
H1882 C1888 0.950 . S
H1883 C1889 0.950 . S
H1884 C1890 0.949 . S
C1885 H1880 0.950 . S
C1885 C1887 1.327 . S
C1885 C1891 1.429 . S
C1886 C1878 1.574 . S
C1886 H1881 0.949 . S
C1886 C1892 1.368 . S
C1887 C1871 1.349 . S
C1887 H1879 0.950 . S
C1887 C1885 1.327 . S
C1888 C1876 1.349 . S
C1888 H1882 0.950 . S
C1888 C1889 1.327 . S
C1889 H1883 0.950 . S
C1889 C1888 1.327 . S
C1889 C1893 1.429 . S
C1890 C1873 1.574 . S
C1890 H1884 0.949 . S
C1890 C1894 1.368 . S
C1891 C1872 1.429 . S
C1891 C1885 1.429 . S
C1891 C1892 1.523 . S
C1892 C1873 1.368 . S
C1892 C1886 1.368 . S
C1892 C1891 1.523 . S
C1893 C1877 1.429 . S
C1893 C1889 1.429 . S
C1893 C1894 1.523 . S
C1894 C1878 1.368 . S
C1894 C1890 1.368 . S
C1894 C1893 1.523 . S
H1895 C1870 0.950 . S
H1896 C1872 0.950 . S
H1897 C1873 0.949 . S
H1898 C1875 0.950 . S
H1899 C1877 0.950 . S
C1900 C1901 1.349 . S
C1900 C1902 1.327 . S
C1900 H1925 0.950 . S
C1901 C1900 1.349 . S
C1901 C1917 1.349 . S
C1902 C1900 1.327 . S
C1902 C1921 1.429 . S
C1902 H1926 0.950 . S
C1903 C1920 1.574 . S
C1903 C1922 1.368 . S
C1903 H1927 0.949 . S
H1904 C1908 0.949 . S
C1905 C1906 1.349 . S
C1905 C1907 1.327 . S
C1905 H1928 0.950 . S
C1906 C1905 1.349 . S
C1906 C1918 1.349 . S
C1907 C1905 1.327 . S
C1907 C1923 1.429 . S
C1907 H1929 0.950 . S
C1908 H1904 0.949 . S
C1908 C1916 1.574 . S
C1908 C1924 1.368 . S
H1909 C1917 0.950 . S
H1910 C1915 0.950 . S
H1911 C1916 0.949 . S
H1912 C1918 0.950 . S
H1913 C1919 0.950 . S
H1914 C1920 0.949 . S
C1915 H1910 0.950 . S
C1915 C1917 1.327 . S
C1915 C1921 1.429 . S
C1916 C1908 1.574 . S
C1916 H1911 0.949 . S
C1916 C1922 1.368 . S
C1917 C1901 1.349 . S
C1917 H1909 0.950 . S
C1917 C1915 1.327 . S
C1918 C1906 1.349 . S
C1918 H1912 0.950 . S
C1918 C1919 1.327 . S
C1919 H1913 0.950 . S
C1919 C1918 1.327 . S
C1919 C1923 1.429 . S
C1920 C1903 1.574 . S
C1920 H1914 0.949 . S
C1920 C1924 1.368 . S
C1921 C1902 1.429 . S
C1921 C1915 1.429 . S
C1921 C1922 1.523 . S
C1922 C1903 1.368 . S
C1922 C1916 1.368 . S
C1922 C1921 1.523 . S
C1923 C1907 1.429 . S
C1923 C1919 1.429 . S
C1923 C1924 1.523 . S
C1924 C1908 1.368 . S
C1924 C1920 1.368 . S
C1924 C1923 1.523 . S
H1925 C1900 0.950 . S
H1926 C1902 0.950 . S
H1927 C1903 0.949 . S
H1928 C1905 0.950 . S
H1929 C1907 0.950 . S
C1930 C1931 1.349 . S
C1930 C1932 1.327 . S
C1930 H1955 0.950 . S
C1931 C1930 1.349 . S
C1931 C1947 1.349 . S
C1932 C1930 1.327 . S
C1932 C1951 1.429 . S
C1932 H1956 0.950 . S
C1933 C1950 1.574 . S
C1933 C1952 1.368 . S
C1933 H1957 0.949 . S
H1934 C1938 0.949 . S
C1935 C1936 1.349 . S
C1935 C1937 1.327 . S
C1935 H1958 0.950 . S
C1936 C1935 1.349 . S
C1936 C1948 1.349 . S
C1937 C1935 1.327 . S
C1937 C1953 1.429 . S
C1937 H1959 0.950 . S
C1938 H1934 0.949 . S
C1938 C1946 1.574 . S
C1938 C1954 1.368 . S
H1939 C1947 0.950 . S
H1940 C1945 0.950 . S
H1941 C1946 0.949 . S
H1942 C1948 0.950 . S
H1943 C1949 0.950 . S
H1944 C1950 0.949 . S
C1945 H1940 0.950 . S
C1945 C1947 1.327 . S
C1945 C1951 1.429 . S
C1946 C1938 1.574 . S
C1946 H1941 0.949 . S
C1946 C1952 1.368 . S
C1947 C1931 1.349 . S
C1947 H1939 0.950 . S
C1947 C1945 1.327 . S
C1948 C1936 1.349 . S
C1948 H1942 0.950 . S
C1948 C1949 1.327 . S
C1949 H1943 0.950 . S
C1949 C1948 1.327 . S
C1949 C1953 1.429 . S
C1950 C1933 1.574 . S
C1950 H1944 0.949 . S
C1950 C1954 1.368 . S
C1951 C1932 1.429 . S
C1951 C1945 1.429 . S
C1951 C1952 1.523 . S
C1952 C1933 1.368 . S
C1952 C1946 1.368 . S
C1952 C1951 1.523 . S
C1953 C1937 1.429 . S
C1953 C1949 1.429 . S
C1953 C1954 1.523 . S
C1954 C1938 1.368 . S
C1954 C1950 1.368 . S
C1954 C1953 1.523 . S
H1955 C1930 0.950 . S
H1956 C1932 0.950 . S
H1957 C1933 0.949 . S
H1958 C1935 0.950 . S
H1959 C1937 0.950 . S
C1960 C1961 1.349 . S
C1960 C1962 1.327 . S
C1960 H1985 0.950 . S
C1961 C1960 1.349 . S
C1961 C1977 1.349 . S
C1962 C1960 1.327 . S
C1962 C1981 1.429 . S
C1962 H1986 0.950 . S
C1963 C1980 1.574 . S
C1963 C1982 1.368 . S
C1963 H1987 0.949 . S
H1964 C1968 0.949 . S
C1965 C1966 1.349 . S
C1965 C1967 1.327 . S
C1965 H1988 0.950 . S
C1966 C1965 1.349 . S
C1966 C1978 1.349 . S
C1967 C1965 1.327 . S
C1967 C1983 1.429 . S
C1967 H1989 0.950 . S
C1968 H1964 0.949 . S
C1968 C1976 1.574 . S
C1968 C1984 1.368 . S
H1969 C1977 0.950 . S
H1970 C1975 0.950 . S
H1971 C1976 0.949 . S
H1972 C1978 0.950 . S
H1973 C1979 0.950 . S
H1974 C1980 0.949 . S
C1975 H1970 0.950 . S
C1975 C1977 1.327 . S
C1975 C1981 1.429 . S
C1976 C1968 1.574 . S
C1976 H1971 0.949 . S
C1976 C1982 1.368 . S
C1977 C1961 1.349 . S
C1977 H1969 0.950 . S
C1977 C1975 1.327 . S
C1978 C1966 1.349 . S
C1978 H1972 0.950 . S
C1978 C1979 1.327 . S
C1979 H1973 0.950 . S
C1979 C1978 1.327 . S
C1979 C1983 1.429 . S
C1980 C1963 1.574 . S
C1980 H1974 0.949 . S
C1980 C1984 1.368 . S
C1981 C1962 1.429 . S
C1981 C1975 1.429 . S
C1981 C1982 1.523 . S
C1982 C1963 1.368 . S
C1982 C1976 1.368 . S
C1982 C1981 1.523 . S
C1983 C1967 1.429 . S
C1983 C1979 1.429 . S
C1983 C1984 1.523 . S
C1984 C1968 1.368 . S
C1984 C1980 1.368 . S
C1984 C1983 1.523 . S
H1985 C1960 0.950 . S
H1986 C1962 0.950 . S
H1987 C1963 0.949 . S
H1988 C1965 0.950 . S
H1989 C1967 0.950 . S
C1990 C1991 1.349 . S
C1990 C1992 1.327 . S
C1990 H2015 0.950 . S
C1991 C1990 1.349 . S
C1991 C2007 1.349 . S
C1992 C1990 1.327 . S
C1992 C2011 1.429 . S
C1992 H2016 0.950 . S
C1993 C2010 1.574 . S
C1993 C2012 1.368 . S
C1993 H2017 0.949 . S
H1994 C1998 0.949 . S
C1995 C1996 1.349 . S
C1995 C1997 1.327 . S
C1995 H2018 0.950 . S
C1996 C1995 1.349 . S
C1996 C2008 1.349 . S
C1997 C1995 1.327 . S
C1997 C2013 1.429 . S
C1997 H2019 0.950 . S
C1998 H1994 0.949 . S
C1998 C2006 1.574 . S
C1998 C2014 1.368 . S
H1999 C2007 0.950 . S
H2000 C2005 0.950 . S
H2001 C2006 0.949 . S
H2002 C2008 0.950 . S
H2003 C2009 0.950 . S
H2004 C2010 0.949 . S
C2005 H2000 0.950 . S
C2005 C2007 1.327 . S
C2005 C2011 1.429 . S
C2006 C1998 1.574 . S
C2006 H2001 0.949 . S
C2006 C2012 1.368 . S
C2007 C1991 1.349 . S
C2007 H1999 0.950 . S
C2007 C2005 1.327 . S
C2008 C1996 1.349 . S
C2008 H2002 0.950 . S
C2008 C2009 1.327 . S
C2009 H2003 0.950 . S
C2009 C2008 1.327 . S
C2009 C2013 1.429 . S
C2010 C1993 1.574 . S
C2010 H2004 0.949 . S
C2010 C2014 1.368 . S
C2011 C1992 1.429 . S
C2011 C2005 1.429 . S
C2011 C2012 1.523 . S
C2012 C1993 1.368 . S
C2012 C2006 1.368 . S
C2012 C2011 1.523 . S
C2013 C1997 1.429 . S
C2013 C2009 1.429 . S
C2013 C2014 1.523 . S
C2014 C1998 1.368 . S
C2014 C2010 1.368 . S
C2014 C2013 1.523 . S
H2015 C1990 0.950 . S
H2016 C1992 0.950 . S
H2017 C1993 0.949 . S
H2018 C1995 0.950 . S
H2019 C1997 0.950 . S
C2020 C2021 1.349 . S
C2020 C2022 1.327 . S
C2020 H2045 0.950 . S
C2021 C2020 1.349 . S
C2021 C2037 1.349 . S
C2022 C2020 1.327 . S
C2022 C2041 1.429 . S
C2022 H2046 0.950 . S
C2023 C2040 1.574 . S
C2023 C2042 1.368 . S
C2023 H2047 0.949 . S
H2024 C2028 0.949 . S
C2025 C2026 1.349 . S
C2025 C2027 1.327 . S
C2025 H2048 0.950 . S
C2026 C2025 1.349 . S
C2026 C2038 1.349 . S
C2027 C2025 1.327 . S
C2027 C2043 1.429 . S
C2027 H2049 0.950 . S
C2028 H2024 0.949 . S
C2028 C2036 1.574 . S
C2028 C2044 1.368 . S
H2029 C2037 0.950 . S
H2030 C2035 0.950 . S
H2031 C2036 0.949 . S
H2032 C2038 0.950 . S
H2033 C2039 0.950 . S
H2034 C2040 0.949 . S
C2035 H2030 0.950 . S
C2035 C2037 1.327 . S
C2035 C2041 1.429 . S
C2036 C2028 1.574 . S
C2036 H2031 0.949 . S
C2036 C2042 1.368 . S
C2037 C2021 1.349 . S
C2037 H2029 0.950 . S
C2037 C2035 1.327 . S
C2038 C2026 1.349 . S
C2038 H2032 0.950 . S
C2038 C2039 1.327 . S
C2039 H2033 0.950 . S
C2039 C2038 1.327 . S
C2039 C2043 1.429 . S
C2040 C2023 1.574 . S
C2040 H2034 0.949 . S
C2040 C2044 1.368 . S
C2041 C2022 1.429 . S
C2041 C2035 1.429 . S
C2041 C2042 1.523 . S
C2042 C2023 1.368 . S
C2042 C2036 1.368 . S
C2042 C2041 1.523 . S
C2043 C2027 1.429 . S
C2043 C2039 1.429 . S
C2043 C2044 1.523 . S
C2044 C2028 1.368 . S
C2044 C2040 1.368 . S
C2044 C2043 1.523 . S
H2045 C2020 0.950 . S
H2046 C2022 0.950 . S
H2047 C2023 0.949 . S
H2048 C2025 0.950 . S
H2049 C2027 0.950 . S
C2050 C2051 1.349 . S
C2050 C2052 1.327 . S
C2050 H2075 0.950 . S
C2051 C2050 1.349 . S
C2051 C2067 1.349 . S
C2052 C2050 1.327 . S
C2052 C2071 1.429 . S
C2052 H2076 0.950 . S
C2053 C2070 1.574 . S
C2053 C2072 1.368 . S
C2053 H2077 0.949 . S
H2054 C2058 0.949 . S
C2055 C2056 1.349 . S
C2055 C2057 1.327 . S
C2055 H2078 0.950 . S
C2056 C2055 1.349 . S
C2056 C2068 1.349 . S
C2057 C2055 1.327 . S
C2057 C2073 1.429 . S
C2057 H2079 0.950 . S
C2058 H2054 0.949 . S
C2058 C2066 1.574 . S
C2058 C2074 1.368 . S
H2059 C2067 0.950 . S
H2060 C2065 0.950 . S
H2061 C2066 0.949 . S
H2062 C2068 0.950 . S
H2063 C2069 0.950 . S
H2064 C2070 0.949 . S
C2065 H2060 0.950 . S
C2065 C2067 1.327 . S
C2065 C2071 1.429 . S
C2066 C2058 1.574 . S
C2066 H2061 0.949 . S
C2066 C2072 1.368 . S
C2067 C2051 1.349 . S
C2067 H2059 0.950 . S
C2067 C2065 1.327 . S
C2068 C2056 1.349 . S
C2068 H2062 0.950 . S
C2068 C2069 1.327 . S
C2069 H2063 0.950 . S
C2069 C2068 1.327 . S
C2069 C2073 1.429 . S
C2070 C2053 1.574 . S
C2070 H2064 0.949 . S
C2070 C2074 1.368 . S
C2071 C2052 1.429 . S
C2071 C2065 1.429 . S
C2071 C2072 1.523 . S
C2072 C2053 1.368 . S
C2072 C2066 1.368 . S
C2072 C2071 1.523 . S
C2073 C2057 1.429 . S
C2073 C2069 1.429 . S
C2073 C2074 1.523 . S
C2074 C2058 1.368 . S
C2074 C2070 1.368 . S
C2074 C2073 1.523 . S
H2075 C2050 0.950 . S
H2076 C2052 0.950 . S
H2077 C2053 0.949 . S
H2078 C2055 0.950 . S
H2079 C2057 0.950 . S
C641 C26 1.798 . S
C646 C306 1.798 . S
C671 C66 1.798 . S
C676 C186 1.798 . S
C701 C226 1.798 . S
C706 C106 1.798 . S
C731 C146 1.798 . S
C736 C266 1.798 . S
C761 C453 4.087 . S
C766 C173 4.087 1_554 S
C791 C333 4.087 . S
C796 C13 4.087 1_556 S
C821 C413 4.087 . S
C826 C253 4.087 . S
C851 C93 4.087 . S
C856 C373 4.087 . S
C881 C386 1.798 . S
C886 C506 1.798 . S
C911 C426 1.798 . S
C916 C586 1.798 . S
C941 C546 1.798 . S
C946 C346 1.798 . S
C971 C466 1.798 . S
C976 C626 1.798 . S
C1001 C573 4.087 . S
C1006 C133 4.087 . S
C1031 C493 4.087 . S
C1036 C213 4.087 . S
C1061 C53 4.087 . S
C1066 C613 4.087 1_554 S
C1091 C293 4.087 . S
C1096 C533 4.087 1_556 S
C1121 C522 0.403 . S
C1126 C2 0.403 . S
C1151 C442 0.403 . S
C1156 C42 0.403 . S
C1181 C482 0.403 . S
C1186 C82 0.403 . S
C1211 C402 0.403 . S
C1216 C122 0.403 . S
C1241 C162 0.403 . S
C1246 C602 0.403 . S
C1271 C362 0.403 . S
C1276 C202 0.403 . S
C1301 C242 0.403 . S
C1306 C562 0.403 . S
C1331 C282 0.403 . S
C1336 C322 0.403 . S
C1361 C23 1.093 . S
C1366 C183 1.093 . S
C1391 C63 1.092 . S
C1396 C223 1.092 . S
C1421 C263 1.093 . S
C1426 C103 1.093 . S
C1451 C143 1.092 . S
C1456 C303 1.092 . S
C1481 C423 1.091 . S
C1486 C343 1.091 . S
C1511 C463 1.091 . S
C1516 C383 1.091 . S
C1541 C503 1.093 . S
C1546 C583 1.093 . S
C1571 C623 1.093 . S
C1576 C543 1.093 . S
C1601 C24 4.469 . S
C1606 C304 4.469 . S
C1631 C64 4.469 . S
C1636 C184 4.469 . S
C1661 C224 4.469 1_556 S
C1666 C104 4.469 . S
C1691 C264 4.469 . S
C1696 C144 4.469 1_554 S
C1721 C457 0.883 . S
C1726 C177 0.883 . S
C1751 C337 0.883 . S
C1756 C17 0.883 . S
C1781 C417 0.883 . S
C1786 C257 0.883 . S
C1811 C97 0.883 . S
C1816 C377 0.883 . S
C1841 C504 4.469 . S
C1846 C384 4.469 1_556 S
C1871 C584 4.469 . S
C1876 C424 4.469 1_554 S
C1901 C544 4.469 . S
C1906 C344 4.469 . S
C1931 C624 4.469 . S
C1936 C464 4.469 . S
C1961 C577 0.883 . S
C1966 C137 0.883 . S
C1991 C217 0.883 . S
C1996 C497 0.883 . S
C2021 C57 0.883 . S
C2026 C617 0.883 . S
C2051 C537 0.883 . S
C2056 C297 0.883 . S
