# Generated by pormake.
# Topology pbg, (3)-cn, num edge types: 1
# Building blocks:
#     Node 0, Type 0, BuildingBlock: OLANEW_clean_sbu_2, # of connection points: 3
#     Node 1, Type 0, BuildingBlock: OLANEW_clean_sbu_2, # of connection points: 3
#     Node 2, Type 0, BuildingBlock: OLANEW_clean_sbu_2, # of connection points: 3
#     Node 3, Type 0, BuildingBlock: OLANEW_clean_sbu_2, # of connection points: 3
#     Node 4, Type 0, BuildingBlock: OLANEW_clean_sbu_2, # of connection points: 3
#     Node 5, Type 0, BuildingBlock: OLANEW_clean_sbu_2, # of connection points: 3
#     Node 6, Type 0, BuildingBlock: OLANEW_clean_sbu_2, # of connection points: 3
#     Node 7, Type 0, BuildingBlock: OLANEW_clean_sbu_2, # of connection points: 3
#     Node 8, Type 0, BuildingBlock: OLANEW_clean_sbu_2, # of connection points: 3
#     Node 9, Type 0, BuildingBlock: OLANEW_clean_sbu_2, # of connection points: 3
#     Node 10, Type 0, BuildingBlock: OLANEW_clean_sbu_2, # of connection points: 3
#     Node 11, Type 0, BuildingBlock: OLANEW_clean_sbu_2, # of connection points: 3
#     Node 12, Type 0, BuildingBlock: OLANEW_clean_sbu_2, # of connection points: 3
#     Node 13, Type 0, BuildingBlock: OLANEW_clean_sbu_2, # of connection points: 3
#     Node 14, Type 0, BuildingBlock: OLANEW_clean_sbu_2, # of connection points: 3
#     Node 15, Type 0, BuildingBlock: OLANEW_clean_sbu_2, # of connection points: 3
#     Node 16, Type 0, BuildingBlock: OLANEW_clean_sbu_2, # of connection points: 3
#     Node 17, Type 0, BuildingBlock: OLANEW_clean_sbu_2, # of connection points: 3
#     Node 18, Type 0, BuildingBlock: OLANEW_clean_sbu_2, # of connection points: 3
#     Node 19, Type 0, BuildingBlock: OLANEW_clean_sbu_2, # of connection points: 3
#     Node 20, Type 0, BuildingBlock: OLANEW_clean_sbu_2, # of connection points: 3
#     Node 21, Type 0, BuildingBlock: OLANEW_clean_sbu_2, # of connection points: 3
#     Node 22, Type 0, BuildingBlock: OLANEW_clean_sbu_2, # of connection points: 3
#     Node 23, Type 0, BuildingBlock: OLANEW_clean_sbu_2, # of connection points: 3
#     Node 24, Type 0, BuildingBlock: OLANEW_clean_sbu_2, # of connection points: 3
#     Node 25, Type 0, BuildingBlock: OLANEW_clean_sbu_2, # of connection points: 3
#     Node 26, Type 0, BuildingBlock: OLANEW_clean_sbu_2, # of connection points: 3
#     Node 27, Type 0, BuildingBlock: OLANEW_clean_sbu_2, # of connection points: 3
#     Node 28, Type 0, BuildingBlock: OLANEW_clean_sbu_2, # of connection points: 3
#     Node 29, Type 0, BuildingBlock: OLANEW_clean_sbu_2, # of connection points: 3
#     Node 30, Type 0, BuildingBlock: OLANEW_clean_sbu_2, # of connection points: 3
#     Node 31, Type 0, BuildingBlock: OLANEW_clean_sbu_2, # of connection points: 3
#     Node 32, Type 0, BuildingBlock: OLANEW_clean_sbu_2, # of connection points: 3
#     Node 33, Type 0, BuildingBlock: OLANEW_clean_sbu_2, # of connection points: 3
#     Node 34, Type 0, BuildingBlock: OLANEW_clean_sbu_2, # of connection points: 3
#     Node 35, Type 0, BuildingBlock: OLANEW_clean_sbu_2, # of connection points: 3
#     Node 36, Type 0, BuildingBlock: OLANEW_clean_sbu_2, # of connection points: 3
#     Node 37, Type 0, BuildingBlock: OLANEW_clean_sbu_2, # of connection points: 3
#     Node 38, Type 0, BuildingBlock: OLANEW_clean_sbu_2, # of connection points: 3
#     Node 39, Type 0, BuildingBlock: OLANEW_clean_sbu_2, # of connection points: 3
#     Node 40, Type 0, BuildingBlock: OLANEW_clean_sbu_2, # of connection points: 3
#     Node 41, Type 0, BuildingBlock: OLANEW_clean_sbu_2, # of connection points: 3
#     Node 42, Type 0, BuildingBlock: OLANEW_clean_sbu_2, # of connection points: 3
#     Node 43, Type 0, BuildingBlock: OLANEW_clean_sbu_2, # of connection points: 3
#     Node 44, Type 0, BuildingBlock: OLANEW_clean_sbu_2, # of connection points: 3
#     Node 45, Type 0, BuildingBlock: OLANEW_clean_sbu_2, # of connection points: 3
#     Node 46, Type 0, BuildingBlock: OLANEW_clean_sbu_2, # of connection points: 3
#     Node 47, Type 0, BuildingBlock: OLANEW_clean_sbu_2, # of connection points: 3
#     Node 48, Type 0, BuildingBlock: OLANEW_clean_sbu_2, # of connection points: 3
#     Node 49, Type 0, BuildingBlock: OLANEW_clean_sbu_2, # of connection points: 3
#     Node 50, Type 0, BuildingBlock: OLANEW_clean_sbu_2, # of connection points: 3
#     Node 51, Type 0, BuildingBlock: OLANEW_clean_sbu_2, # of connection points: 3
#     Node 52, Type 0, BuildingBlock: OLANEW_clean_sbu_2, # of connection points: 3
#     Node 53, Type 0, BuildingBlock: OLANEW_clean_sbu_2, # of connection points: 3
#     Node 54, Type 0, BuildingBlock: OLANEW_clean_sbu_2, # of connection points: 3
#     Node 55, Type 0, BuildingBlock: OLANEW_clean_sbu_2, # of connection points: 3
#     Node 56, Type 0, BuildingBlock: OLANEW_clean_sbu_2, # of connection points: 3
#     Node 57, Type 0, BuildingBlock: OLANEW_clean_sbu_2, # of connection points: 3
#     Node 58, Type 0, BuildingBlock: OLANEW_clean_sbu_2, # of connection points: 3
#     Node 59, Type 0, BuildingBlock: OLANEW_clean_sbu_2, # of connection points: 3
#     Node 60, Type 0, BuildingBlock: OLANEW_clean_sbu_2, # of connection points: 3
#     Node 61, Type 0, BuildingBlock: OLANEW_clean_sbu_2, # of connection points: 3
#     Node 62, Type 0, BuildingBlock: OLANEW_clean_sbu_2, # of connection points: 3
#     Node 63, Type 0, BuildingBlock: OLANEW_clean_sbu_2, # of connection points: 3
#     Node 64, Type 0, BuildingBlock: OLANEW_clean_sbu_2, # of connection points: 3
#     Node 65, Type 0, BuildingBlock: OLANEW_clean_sbu_2, # of connection points: 3
#     Node 66, Type 0, BuildingBlock: OLANEW_clean_sbu_2, # of connection points: 3
#     Node 67, Type 0, BuildingBlock: OLANEW_clean_sbu_2, # of connection points: 3
#     Node 68, Type 0, BuildingBlock: OLANEW_clean_sbu_2, # of connection points: 3
#     Node 69, Type 0, BuildingBlock: OLANEW_clean_sbu_2, # of connection points: 3
#     Node 70, Type 0, BuildingBlock: OLANEW_clean_sbu_2, # of connection points: 3
#     Node 71, Type 0, BuildingBlock: OLANEW_clean_sbu_2, # of connection points: 3
#     Node 72, Type 0, BuildingBlock: OLANEW_clean_sbu_2, # of connection points: 3
#     Node 73, Type 0, BuildingBlock: OLANEW_clean_sbu_2, # of connection points: 3
#     Node 74, Type 0, BuildingBlock: OLANEW_clean_sbu_2, # of connection points: 3
#     Node 75, Type 0, BuildingBlock: OLANEW_clean_sbu_2, # of connection points: 3
#     Node 76, Type 0, BuildingBlock: OLANEW_clean_sbu_2, # of connection points: 3
#     Node 77, Type 0, BuildingBlock: OLANEW_clean_sbu_2, # of connection points: 3
#     Node 78, Type 0, BuildingBlock: OLANEW_clean_sbu_2, # of connection points: 3
#     Node 79, Type 0, BuildingBlock: OLANEW_clean_sbu_2, # of connection points: 3
#     Node 80, Type 0, BuildingBlock: OLANEW_clean_sbu_2, # of connection points: 3
#     Node 81, Type 0, BuildingBlock: OLANEW_clean_sbu_2, # of connection points: 3
#     Node 82, Type 0, BuildingBlock: OLANEW_clean_sbu_2, # of connection points: 3
#     Node 83, Type 0, BuildingBlock: OLANEW_clean_sbu_2, # of connection points: 3
#     Node 84, Type 0, BuildingBlock: OLANEW_clean_sbu_2, # of connection points: 3
#     Node 85, Type 0, BuildingBlock: OLANEW_clean_sbu_2, # of connection points: 3
#     Node 86, Type 0, BuildingBlock: OLANEW_clean_sbu_2, # of connection points: 3
#     Node 87, Type 0, BuildingBlock: OLANEW_clean_sbu_2, # of connection points: 3
#     Node 88, Type 0, BuildingBlock: OLANEW_clean_sbu_2, # of connection points: 3
#     Node 89, Type 0, BuildingBlock: OLANEW_clean_sbu_2, # of connection points: 3
#     Node 90, Type 0, BuildingBlock: OLANEW_clean_sbu_2, # of connection points: 3
#     Node 91, Type 0, BuildingBlock: OLANEW_clean_sbu_2, # of connection points: 3
#     Node 92, Type 0, BuildingBlock: OLANEW_clean_sbu_2, # of connection points: 3
#     Node 93, Type 0, BuildingBlock: OLANEW_clean_sbu_2, # of connection points: 3
#     Node 94, Type 0, BuildingBlock: OLANEW_clean_sbu_2, # of connection points: 3
#     Node 95, Type 0, BuildingBlock: OLANEW_clean_sbu_2, # of connection points: 3
#     Edge 96, Type (0, 0), BuildingBlock: UVAHIK_clean_linker_0, # of connection points: 2
#     Edge 97, Type (0, 0), BuildingBlock: UVAHIK_clean_linker_0, # of connection points: 2
#     Edge 98, Type (0, 0), BuildingBlock: UVAHIK_clean_linker_0, # of connection points: 2
#     Edge 99, Type (0, 0), BuildingBlock: UVAHIK_clean_linker_0, # of connection points: 2
#     Edge 100, Type (0, 0), BuildingBlock: UVAHIK_clean_linker_0, # of connection points: 2
#     Edge 101, Type (0, 0), BuildingBlock: UVAHIK_clean_linker_0, # of connection points: 2
#     Edge 102, Type (0, 0), BuildingBlock: UVAHIK_clean_linker_0, # of connection points: 2
#     Edge 103, Type (0, 0), BuildingBlock: UVAHIK_clean_linker_0, # of connection points: 2
#     Edge 104, Type (0, 0), BuildingBlock: UVAHIK_clean_linker_0, # of connection points: 2
#     Edge 105, Type (0, 0), BuildingBlock: UVAHIK_clean_linker_0, # of connection points: 2
#     Edge 106, Type (0, 0), BuildingBlock: UVAHIK_clean_linker_0, # of connection points: 2
#     Edge 107, Type (0, 0), BuildingBlock: UVAHIK_clean_linker_0, # of connection points: 2
#     Edge 108, Type (0, 0), BuildingBlock: UVAHIK_clean_linker_0, # of connection points: 2
#     Edge 109, Type (0, 0), BuildingBlock: UVAHIK_clean_linker_0, # of connection points: 2
#     Edge 110, Type (0, 0), BuildingBlock: UVAHIK_clean_linker_0, # of connection points: 2
#     Edge 111, Type (0, 0), BuildingBlock: UVAHIK_clean_linker_0, # of connection points: 2
#     Edge 112, Type (0, 0), BuildingBlock: UVAHIK_clean_linker_0, # of connection points: 2
#     Edge 113, Type (0, 0), BuildingBlock: UVAHIK_clean_linker_0, # of connection points: 2
#     Edge 114, Type (0, 0), BuildingBlock: UVAHIK_clean_linker_0, # of connection points: 2
#     Edge 115, Type (0, 0), BuildingBlock: UVAHIK_clean_linker_0, # of connection points: 2
#     Edge 116, Type (0, 0), BuildingBlock: UVAHIK_clean_linker_0, # of connection points: 2
#     Edge 117, Type (0, 0), BuildingBlock: UVAHIK_clean_linker_0, # of connection points: 2
#     Edge 118, Type (0, 0), BuildingBlock: UVAHIK_clean_linker_0, # of connection points: 2
#     Edge 119, Type (0, 0), BuildingBlock: UVAHIK_clean_linker_0, # of connection points: 2
#     Edge 120, Type (0, 0), BuildingBlock: UVAHIK_clean_linker_0, # of connection points: 2
#     Edge 121, Type (0, 0), BuildingBlock: UVAHIK_clean_linker_0, # of connection points: 2
#     Edge 122, Type (0, 0), BuildingBlock: UVAHIK_clean_linker_0, # of connection points: 2
#     Edge 123, Type (0, 0), BuildingBlock: UVAHIK_clean_linker_0, # of connection points: 2
#     Edge 124, Type (0, 0), BuildingBlock: UVAHIK_clean_linker_0, # of connection points: 2
#     Edge 125, Type (0, 0), BuildingBlock: UVAHIK_clean_linker_0, # of connection points: 2
#     Edge 126, Type (0, 0), BuildingBlock: UVAHIK_clean_linker_0, # of connection points: 2
#     Edge 127, Type (0, 0), BuildingBlock: UVAHIK_clean_linker_0, # of connection points: 2
#     Edge 128, Type (0, 0), BuildingBlock: UVAHIK_clean_linker_0, # of connection points: 2
#     Edge 129, Type (0, 0), BuildingBlock: UVAHIK_clean_linker_0, # of connection points: 2
#     Edge 130, Type (0, 0), BuildingBlock: UVAHIK_clean_linker_0, # of connection points: 2
#     Edge 131, Type (0, 0), BuildingBlock: UVAHIK_clean_linker_0, # of connection points: 2
#     Edge 132, Type (0, 0), BuildingBlock: UVAHIK_clean_linker_0, # of connection points: 2
#     Edge 133, Type (0, 0), BuildingBlock: UVAHIK_clean_linker_0, # of connection points: 2
#     Edge 134, Type (0, 0), BuildingBlock: UVAHIK_clean_linker_0, # of connection points: 2
#     Edge 135, Type (0, 0), BuildingBlock: UVAHIK_clean_linker_0, # of connection points: 2
#     Edge 136, Type (0, 0), BuildingBlock: UVAHIK_clean_linker_0, # of connection points: 2
#     Edge 137, Type (0, 0), BuildingBlock: UVAHIK_clean_linker_0, # of connection points: 2
#     Edge 138, Type (0, 0), BuildingBlock: UVAHIK_clean_linker_0, # of connection points: 2
#     Edge 139, Type (0, 0), BuildingBlock: UVAHIK_clean_linker_0, # of connection points: 2
#     Edge 140, Type (0, 0), BuildingBlock: UVAHIK_clean_linker_0, # of connection points: 2
#     Edge 141, Type (0, 0), BuildingBlock: UVAHIK_clean_linker_0, # of connection points: 2
#     Edge 142, Type (0, 0), BuildingBlock: UVAHIK_clean_linker_0, # of connection points: 2
#     Edge 143, Type (0, 0), BuildingBlock: UVAHIK_clean_linker_0, # of connection points: 2
#     Edge 144, Type (0, 0), BuildingBlock: UVAHIK_clean_linker_0, # of connection points: 2
#     Edge 145, Type (0, 0), BuildingBlock: UVAHIK_clean_linker_0, # of connection points: 2
#     Edge 146, Type (0, 0), BuildingBlock: UVAHIK_clean_linker_0, # of connection points: 2
#     Edge 147, Type (0, 0), BuildingBlock: UVAHIK_clean_linker_0, # of connection points: 2
#     Edge 148, Type (0, 0), BuildingBlock: UVAHIK_clean_linker_0, # of connection points: 2
#     Edge 149, Type (0, 0), BuildingBlock: UVAHIK_clean_linker_0, # of connection points: 2
#     Edge 150, Type (0, 0), BuildingBlock: UVAHIK_clean_linker_0, # of connection points: 2
#     Edge 151, Type (0, 0), BuildingBlock: UVAHIK_clean_linker_0, # of connection points: 2
#     Edge 152, Type (0, 0), BuildingBlock: UVAHIK_clean_linker_0, # of connection points: 2
#     Edge 153, Type (0, 0), BuildingBlock: UVAHIK_clean_linker_0, # of connection points: 2
#     Edge 154, Type (0, 0), BuildingBlock: UVAHIK_clean_linker_0, # of connection points: 2
#     Edge 155, Type (0, 0), BuildingBlock: UVAHIK_clean_linker_0, # of connection points: 2
#     Edge 156, Type (0, 0), BuildingBlock: UVAHIK_clean_linker_0, # of connection points: 2
#     Edge 157, Type (0, 0), BuildingBlock: UVAHIK_clean_linker_0, # of connection points: 2
#     Edge 158, Type (0, 0), BuildingBlock: UVAHIK_clean_linker_0, # of connection points: 2
#     Edge 159, Type (0, 0), BuildingBlock: UVAHIK_clean_linker_0, # of connection points: 2
#     Edge 160, Type (0, 0), BuildingBlock: UVAHIK_clean_linker_0, # of connection points: 2
#     Edge 161, Type (0, 0), BuildingBlock: UVAHIK_clean_linker_0, # of connection points: 2
#     Edge 162, Type (0, 0), BuildingBlock: UVAHIK_clean_linker_0, # of connection points: 2
#     Edge 163, Type (0, 0), BuildingBlock: UVAHIK_clean_linker_0, # of connection points: 2
#     Edge 164, Type (0, 0), BuildingBlock: UVAHIK_clean_linker_0, # of connection points: 2
#     Edge 165, Type (0, 0), BuildingBlock: UVAHIK_clean_linker_0, # of connection points: 2
#     Edge 166, Type (0, 0), BuildingBlock: UVAHIK_clean_linker_0, # of connection points: 2
#     Edge 167, Type (0, 0), BuildingBlock: UVAHIK_clean_linker_0, # of connection points: 2
#     Edge 168, Type (0, 0), BuildingBlock: UVAHIK_clean_linker_0, # of connection points: 2
#     Edge 169, Type (0, 0), BuildingBlock: UVAHIK_clean_linker_0, # of connection points: 2
#     Edge 170, Type (0, 0), BuildingBlock: UVAHIK_clean_linker_0, # of connection points: 2
#     Edge 171, Type (0, 0), BuildingBlock: UVAHIK_clean_linker_0, # of connection points: 2
#     Edge 172, Type (0, 0), BuildingBlock: UVAHIK_clean_linker_0, # of connection points: 2
#     Edge 173, Type (0, 0), BuildingBlock: UVAHIK_clean_linker_0, # of connection points: 2
#     Edge 174, Type (0, 0), BuildingBlock: UVAHIK_clean_linker_0, # of connection points: 2
#     Edge 175, Type (0, 0), BuildingBlock: UVAHIK_clean_linker_0, # of connection points: 2
#     Edge 176, Type (0, 0), BuildingBlock: UVAHIK_clean_linker_0, # of connection points: 2
#     Edge 177, Type (0, 0), BuildingBlock: UVAHIK_clean_linker_0, # of connection points: 2
#     Edge 178, Type (0, 0), BuildingBlock: UVAHIK_clean_linker_0, # of connection points: 2
#     Edge 179, Type (0, 0), BuildingBlock: UVAHIK_clean_linker_0, # of connection points: 2
#     Edge 180, Type (0, 0), BuildingBlock: UVAHIK_clean_linker_0, # of connection points: 2
#     Edge 181, Type (0, 0), BuildingBlock: UVAHIK_clean_linker_0, # of connection points: 2
#     Edge 182, Type (0, 0), BuildingBlock: UVAHIK_clean_linker_0, # of connection points: 2
#     Edge 183, Type (0, 0), BuildingBlock: UVAHIK_clean_linker_0, # of connection points: 2
#     Edge 184, Type (0, 0), BuildingBlock: UVAHIK_clean_linker_0, # of connection points: 2
#     Edge 185, Type (0, 0), BuildingBlock: UVAHIK_clean_linker_0, # of connection points: 2
#     Edge 186, Type (0, 0), BuildingBlock: UVAHIK_clean_linker_0, # of connection points: 2
#     Edge 187, Type (0, 0), BuildingBlock: UVAHIK_clean_linker_0, # of connection points: 2
#     Edge 188, Type (0, 0), BuildingBlock: UVAHIK_clean_linker_0, # of connection points: 2
#     Edge 189, Type (0, 0), BuildingBlock: UVAHIK_clean_linker_0, # of connection points: 2
#     Edge 190, Type (0, 0), BuildingBlock: UVAHIK_clean_linker_0, # of connection points: 2
#     Edge 191, Type (0, 0), BuildingBlock: UVAHIK_clean_linker_0, # of connection points: 2
#     Edge 192, Type (0, 0), BuildingBlock: UVAHIK_clean_linker_0, # of connection points: 2
#     Edge 193, Type (0, 0), BuildingBlock: UVAHIK_clean_linker_0, # of connection points: 2
#     Edge 194, Type (0, 0), BuildingBlock: UVAHIK_clean_linker_0, # of connection points: 2
#     Edge 195, Type (0, 0), BuildingBlock: UVAHIK_clean_linker_0, # of connection points: 2
#     Edge 196, Type (0, 0), BuildingBlock: UVAHIK_clean_linker_0, # of connection points: 2
#     Edge 197, Type (0, 0), BuildingBlock: UVAHIK_clean_linker_0, # of connection points: 2
#     Edge 198, Type (0, 0), BuildingBlock: UVAHIK_clean_linker_0, # of connection points: 2
#     Edge 199, Type (0, 0), BuildingBlock: UVAHIK_clean_linker_0, # of connection points: 2
#     Edge 200, Type (0, 0), BuildingBlock: UVAHIK_clean_linker_0, # of connection points: 2
#     Edge 201, Type (0, 0), BuildingBlock: UVAHIK_clean_linker_0, # of connection points: 2
#     Edge 202, Type (0, 0), BuildingBlock: UVAHIK_clean_linker_0, # of connection points: 2
#     Edge 203, Type (0, 0), BuildingBlock: UVAHIK_clean_linker_0, # of connection points: 2
#     Edge 204, Type (0, 0), BuildingBlock: UVAHIK_clean_linker_0, # of connection points: 2
#     Edge 205, Type (0, 0), BuildingBlock: UVAHIK_clean_linker_0, # of connection points: 2
#     Edge 206, Type (0, 0), BuildingBlock: UVAHIK_clean_linker_0, # of connection points: 2
#     Edge 207, Type (0, 0), BuildingBlock: UVAHIK_clean_linker_0, # of connection points: 2
#     Edge 208, Type (0, 0), BuildingBlock: UVAHIK_clean_linker_0, # of connection points: 2
#     Edge 209, Type (0, 0), BuildingBlock: UVAHIK_clean_linker_0, # of connection points: 2
#     Edge 210, Type (0, 0), BuildingBlock: UVAHIK_clean_linker_0, # of connection points: 2
#     Edge 211, Type (0, 0), BuildingBlock: UVAHIK_clean_linker_0, # of connection points: 2
#     Edge 212, Type (0, 0), BuildingBlock: UVAHIK_clean_linker_0, # of connection points: 2
#     Edge 213, Type (0, 0), BuildingBlock: UVAHIK_clean_linker_0, # of connection points: 2
#     Edge 214, Type (0, 0), BuildingBlock: UVAHIK_clean_linker_0, # of connection points: 2
#     Edge 215, Type (0, 0), BuildingBlock: UVAHIK_clean_linker_0, # of connection points: 2
#     Edge 216, Type (0, 0), BuildingBlock: UVAHIK_clean_linker_0, # of connection points: 2
#     Edge 217, Type (0, 0), BuildingBlock: UVAHIK_clean_linker_0, # of connection points: 2
#     Edge 218, Type (0, 0), BuildingBlock: UVAHIK_clean_linker_0, # of connection points: 2
#     Edge 219, Type (0, 0), BuildingBlock: UVAHIK_clean_linker_0, # of connection points: 2
#     Edge 220, Type (0, 0), BuildingBlock: UVAHIK_clean_linker_0, # of connection points: 2
#     Edge 221, Type (0, 0), BuildingBlock: UVAHIK_clean_linker_0, # of connection points: 2
#     Edge 222, Type (0, 0), BuildingBlock: UVAHIK_clean_linker_0, # of connection points: 2
#     Edge 223, Type (0, 0), BuildingBlock: UVAHIK_clean_linker_0, # of connection points: 2
#     Edge 224, Type (0, 0), BuildingBlock: UVAHIK_clean_linker_0, # of connection points: 2
#     Edge 225, Type (0, 0), BuildingBlock: UVAHIK_clean_linker_0, # of connection points: 2
#     Edge 226, Type (0, 0), BuildingBlock: UVAHIK_clean_linker_0, # of connection points: 2
#     Edge 227, Type (0, 0), BuildingBlock: UVAHIK_clean_linker_0, # of connection points: 2
#     Edge 228, Type (0, 0), BuildingBlock: UVAHIK_clean_linker_0, # of connection points: 2
#     Edge 229, Type (0, 0), BuildingBlock: UVAHIK_clean_linker_0, # of connection points: 2
#     Edge 230, Type (0, 0), BuildingBlock: UVAHIK_clean_linker_0, # of connection points: 2
#     Edge 231, Type (0, 0), BuildingBlock: UVAHIK_clean_linker_0, # of connection points: 2
#     Edge 232, Type (0, 0), BuildingBlock: UVAHIK_clean_linker_0, # of connection points: 2
#     Edge 233, Type (0, 0), BuildingBlock: UVAHIK_clean_linker_0, # of connection points: 2
#     Edge 234, Type (0, 0), BuildingBlock: UVAHIK_clean_linker_0, # of connection points: 2
#     Edge 235, Type (0, 0), BuildingBlock: UVAHIK_clean_linker_0, # of connection points: 2
#     Edge 236, Type (0, 0), BuildingBlock: UVAHIK_clean_linker_0, # of connection points: 2
#     Edge 237, Type (0, 0), BuildingBlock: UVAHIK_clean_linker_0, # of connection points: 2
#     Edge 238, Type (0, 0), BuildingBlock: UVAHIK_clean_linker_0, # of connection points: 2
#     Edge 239, Type (0, 0), BuildingBlock: UVAHIK_clean_linker_0, # of connection points: 2
# Relax obj value: 0.019
# Max RMSD: 0.102
# Mean RMSD: 0.085
data_MOF--net-pbg--node1-OLANEW_clean_sbu_2--edge1-UVAHIK_clean_linker_0
_symmetry_space_group_name_H-M    P1
_symmetry_Int_Tables_number       1
_symmetry_cell_setting            triclinic
loop_
_symmetry_equiv_pos_as_xyz
'x, y, z'
_cell_length_a     138.3167
_cell_length_b     134.67455
_cell_length_c     136.62634
_cell_angle_alpha  88.566298
_cell_angle_beta   90.03245
_cell_angle_gamma 89.944719
loop_
_atom_site_label
_atom_site_type_symbol
_atom_site_fract_x
_atom_site_fract_y
_atom_site_fract_z
_atom_type_partial_charge
O0 O 0.14974 0.14226 0.3346 0.0
Cd1 Cd 0.13223 0.14403 0.33277 0.0
O2 O 0.15027 0.15845 0.33448 0.0
Cd3 Cd 0.15558 0.17376 0.33345 0.0
O4 O 0.15524 0.18997 0.33202 0.0
C5 C 0.14786 0.19371 0.32777 0.0
O6 O 0.1412 0.18772 0.32445 0.0
C7 C 0.15474 0.15018 0.33471 0.0
C8 C 0.12113 0.1363 0.34817 0.0
O9 O 0.12366 0.13086 0.34104 0.0
O10 O 0.12405 0.14533 0.34813 0.0
O11 O 0.07385 0.90102 0.57028 0.0
Cd12 Cd 0.07486 0.88299 0.56917 0.0
O13 O 0.05954 0.89935 0.57694 0.0
Cd14 Cd 0.04526 0.90437 0.58161 0.0
O15 O 0.02973 0.90644 0.58344 0.0
C16 C 0.02568 0.91478 0.58172 0.0
O17 O 0.03105 0.92244 0.57911 0.0
C18 C 0.0663 0.90496 0.57379 0.0
C19 C 0.07974 0.8735 0.58684 0.0
O20 O 0.08628 0.87626 0.58071 0.0
O21 O 0.07089 0.87533 0.58464 0.0
O22 O 0.30982 0.79342 0.85867 0.0
Cd23 Cd 0.30274 0.80834 0.86556 0.0
O24 O 0.30949 0.79976 0.84368 0.0
Cd25 Cd 0.30082 0.81268 0.84737 0.0
O26 O 0.28823 0.82243 0.84658 0.0
C27 C 0.28224 0.82298 0.8536 0.0
O28 O 0.28397 0.81798 0.8618 0.0
C29 C 0.3118 0.79274 0.84962 0.0
C30 C 0.31699 0.82235 0.86948 0.0
O31 O 0.31434 0.81595 0.87604 0.0
O32 O 0.31285 0.82216 0.8611 0.0
O33 O 0.37722 0.03465 0.04396 0.0
Cd34 Cd 0.37239 0.05105 0.0376 0.0
O35 O 0.39222 0.03979 0.04451 0.0
Cd36 Cd 0.40789 0.03839 0.04632 0.0
O37 O 0.4236 0.04003 0.0461 0.0
C38 C 0.42927 0.03369 0.05009 0.0
O39 O 0.42561 0.02579 0.05455 0.0
C40 C 0.38604 0.03291 0.04595 0.0
C41 C 0.36833 0.06414 0.05257 0.0
O42 O 0.36171 0.05863 0.04902 0.0
O43 O 0.37688 0.06344 0.04903 0.0
O44 O 0.15433 0.83407 0.1402 0.0
Cd45 Cd 0.13678 0.83256 0.14183 0.0
O46 O 0.1537 0.81795 0.13915 0.0
Cd47 Cd 0.15818 0.80246 0.13767 0.0
O48 O 0.1575 0.78625 0.13808 0.0
C49 C 0.14952 0.78249 0.14092 0.0
O50 O 0.14245 0.78849 0.1433 0.0
C51 C 0.15874 0.82584 0.13949 0.0
C52 C 0.12581 0.84314 0.128 0.0
O53 O 0.12778 0.84684 0.13632 0.0
O54 O 0.12923 0.83453 0.12614 0.0
O55 O 0.3882 0.93501 0.41427 0.0
Cd56 Cd 0.38809 0.91755 0.41963 0.0
O57 O 0.40339 0.93299 0.41041 0.0
Cd58 Cd 0.41826 0.9366 0.40613 0.0
O59 O 0.43384 0.93555 0.40374 0.0
C60 C 0.43927 0.94309 0.40257 0.0
O61 O 0.43541 0.95201 0.40261 0.0
C62 C 0.39605 0.93866 0.41095 0.0
C63 C 0.37705 0.90546 0.40769 0.0
O64 O 0.3733 0.90962 0.41513 0.0
O65 O 0.386 0.90711 0.40585 0.0
O66 O 0.30805 0.17192 0.639 0.0
Cd67 Cd 0.29901 0.1576 0.63328 0.0
O68 O 0.30914 0.1661 0.65414 0.0
Cd69 Cd 0.29815 0.15483 0.65157 0.0
O70 O 0.28315 0.14989 0.65052 0.0
C71 C 0.27707 0.1551 0.65512 0.0
O72 O 0.28026 0.16261 0.66017 0.0
C73 C 0.31136 0.17263 0.64764 0.0
C74 C 0.31197 0.14403 0.6255 0.0
O75 O 0.30807 0.15084 0.62008 0.0
O76 O 0.30959 0.14352 0.63456 0.0
O77 O 0.04986 0.04646 0.85615 0.0
Cd78 Cd 0.04131 0.06016 0.84789 0.0
O79 O 0.03961 0.04508 0.86841 0.0
Cd80 Cd 0.02967 0.05666 0.86321 0.0
O81 O 0.01609 0.06494 0.86334 0.0
C82 C 0.00838 0.05983 0.86396 0.0
O83 O 0.00904 0.05009 0.86398 0.0
C84 C 0.04727 0.04226 0.86416 0.0
C85 C 0.05415 0.07556 0.84345 0.0
O86 O 0.04876 0.07586 0.85106 0.0
O87 O 0.05338 0.06807 0.83791 0.0
O88 O 0.3404 0.15722 0.14588 0.0
Cd89 Cd 0.34632 0.14034 0.14914 0.0
O90 O 0.33973 0.15864 0.16176 0.0
Cd91 Cd 0.33627 0.16501 0.17594 0.0
O92 O 0.33335 0.16653 0.19155 0.0
C93 C 0.32608 0.17129 0.19466 0.0
O94 O 0.32029 0.17575 0.18832 0.0
C95 C 0.33849 0.16246 0.15324 0.0
C96 C 0.3492 0.12936 0.13234 0.0
O97 O 0.34099 0.12937 0.13669 0.0
O98 O 0.35601 0.13465 0.13586 0.0
O99 O 0.04394 0.09169 0.44724 0.0
Cd100 Cd 0.03594 0.09676 0.43196 0.0
O101 O 0.04619 0.07628 0.44277 0.0
Cd102 Cd 0.03641 0.07813 0.43033 0.0
O103 O 0.02197 0.07875 0.42389 0.0
C104 C 0.01541 0.08216 0.42937 0.0
O105 O 0.01783 0.08529 0.43807 0.0
C106 C 0.04748 0.0831 0.44891 0.0
C107 C 0.04973 0.10289 0.4182 0.0
O108 O 0.04596 0.10906 0.42409 0.0
O109 O 0.04688 0.09384 0.41873 0.0
O110 O 0.11637 0.81284 0.70234 0.0
Cd111 Cd 0.11049 0.80297 0.68877 0.0
O112 O 0.13103 0.81433 0.69623 0.0
Cd113 Cd 0.12849 0.80351 0.68489 0.0
O114 O 0.12849 0.78967 0.67691 0.0
C115 C 0.12397 0.78223 0.68054 0.0
O116 O 0.11913 0.78328 0.68872 0.0
C117 C 0.12486 0.81641 0.70277 0.0
C118 C 0.10527 0.81496 0.67265 0.0
O119 O 0.09907 0.81257 0.67927 0.0
O120 O 0.11391 0.81166 0.67365 0.0
O121 O 0.41803 0.90878 0.89332 0.0
Cd122 Cd 0.40082 0.91285 0.89234 0.0
O123 O 0.41681 0.91068 0.90912 0.0
Cd124 Cd 0.42121 0.91087 0.92451 0.0
O125 O 0.42222 0.91204 0.94041 0.0
C126 C 0.41685 0.91837 0.94451 0.0
O127 O 0.41114 0.92399 0.93903 0.0
C128 C 0.42203 0.9089 0.90169 0.0
C129 C 0.38888 0.89673 0.88856 0.0
O130 O 0.39229 0.90218 0.88156 0.0
O131 O 0.39125 0.89882 0.89735 0.0
O132 O 0.30922 0.81231 0.33781 0.0
Cd133 Cd 0.30815 0.83035 0.33551 0.0
O134 O 0.31007 0.81184 0.32187 0.0
Cd135 Cd 0.31016 0.80605 0.30703 0.0
O136 O 0.30982 0.80532 0.29107 0.0
C137 C 0.31592 0.81045 0.28617 0.0
O138 O 0.32238 0.81564 0.29089 0.0
C139 C 0.30985 0.80723 0.33011 0.0
C140 C 0.31998 0.84105 0.34797 0.0
O141 O 0.31129 0.83879 0.3504 0.0
O142 O 0.32311 0.83811 0.3397 0.0
O143 O 0.41356 0.06812 0.57924 0.0
Cd144 Cd 0.39626 0.06444 0.57846 0.0
O145 O 0.41372 0.06597 0.56345 0.0
Cd146 Cd 0.41932 0.06531 0.54848 0.0
O147 O 0.42101 0.06387 0.53266 0.0
C148 C 0.41664 0.05679 0.52857 0.0
O149 O 0.41155 0.05055 0.53404 0.0
C150 C 0.4183 0.06772 0.5713 0.0
C151 C 0.38413 0.07858 0.58658 0.0
O152 O 0.38757 0.07139 0.59182 0.0
O153 O 0.38659 0.0792 0.57754 0.0
O154 O 0.14144 0.15848 0.79094 0.0
Cd155 Cd 0.13754 0.16318 0.80766 0.0
O156 O 0.15706 0.15787 0.79388 0.0
Cd157 Cd 0.15554 0.16539 0.80775 0.0
O158 O 0.15569 0.17895 0.81616 0.0
C159 C 0.15349 0.18682 0.81133 0.0
O160 O 0.15096 0.18607 0.8021 0.0
C161 C 0.14998 0.1565 0.78813 0.0
C162 C 0.12409 0.14993 0.81571 0.0
O163 O 0.13315 0.14789 0.81575 0.0
O164 O 0.12139 0.15831 0.812 0.0
O165 O 0.04978 0.89447 0.032 0.0
Cd166 Cd 0.04234 0.89443 0.04821 0.0
O167 O 0.03723 0.88811 0.0245 0.0
Cd168 Cd 0.02768 0.88807 0.03722 0.0
O169 O 0.01382 0.88891 0.0448 0.0
C170 C 0.0079 0.88178 0.04388 0.0
O171 O 0.01058 0.87403 0.03888 0.0
C172 C 0.04586 0.89133 0.02425 0.0
C173 C 0.05545 0.88689 0.06202 0.0
O174 O 0.05548 0.89611 0.05947 0.0
O175 O 0.04911 0.88126 0.05815 0.0
O176 O 0.18985 0.35674 0.14614 0.0
Cd177 Cd 0.17633 0.36623 0.15269 0.0
O178 O 0.18249 0.34239 0.14832 0.0
Cd179 Cd 0.17067 0.34851 0.1569 0.0
O180 O 0.16221 0.3498 0.17032 0.0
C181 C 0.16699 0.35051 0.17823 0.0
O182 O 0.17647 0.35095 0.17775 0.0
C183 C 0.18971 0.34738 0.14519 0.0
C184 C 0.16451 0.37384 0.13771 0.0
O185 O 0.17188 0.37867 0.14067 0.0
O186 O 0.16269 0.3654 0.14185 0.0
O187 O 0.68181 0.13246 0.8376 0.0
Cd188 Cd 0.66525 0.12888 0.83251 0.0
O189 O 0.68826 0.13117 0.82296 0.0
Cd190 Cd 0.67483 0.12804 0.81519 0.0
O191 O 0.66575 0.12737 0.80211 0.0
C192 C 0.66973 0.12405 0.79447 0.0
O193 O 0.67871 0.12087 0.79506 0.0
C194 C 0.68918 0.13279 0.83204 0.0
C195 C 0.65569 0.11749 0.84684 0.0
O196 O 0.65639 0.12693 0.8475 0.0
O197 O 0.65945 0.11341 0.83937 0.0
O198 O 0.08975 0.42105 0.0339 0.0
Cd199 Cd 0.09078 0.42805 0.05024 0.0
O200 O 0.08772 0.43581 0.02693 0.0
Cd201 Cd 0.08874 0.44441 0.04023 0.0
O202 O 0.08775 0.45766 0.04906 0.0
C203 C 0.0882 0.46588 0.04431 0.0
O204 O 0.08945 0.46574 0.03478 0.0
C205 C 0.08837 0.42644 0.02624 0.0
C206 C 0.10322 0.41778 0.06304 0.0
O207 O 0.09435 0.4152 0.06217 0.0
O208 O 0.10624 0.42514 0.05775 0.0
O209 O 0.80809 0.85665 0.29416 0.0
Cd210 Cd 0.79958 0.86422 0.30778 0.0
O211 O 0.80634 0.84158 0.30048 0.0
Cd212 Cd 0.79636 0.84612 0.3119 0.0
O213 O 0.78308 0.8475 0.32038 0.0
C214 C 0.77548 0.85016 0.31579 0.0
O215 O 0.77609 0.85236 0.30639 0.0
C216 C 0.80978 0.84737 0.29387 0.0
C217 C 0.81267 0.86793 0.32279 0.0
O218 O 0.80824 0.8596 0.32238 0.0
O219 O 0.81078 0.87458 0.31618 0.0
O220 O 0.92503 0.09022 0.05527 0.0
Cd221 Cd 0.92917 0.08819 0.07258 0.0
O222 O 0.92529 0.07405 0.05422 0.0
Cd223 Cd 0.92343 0.05947 0.04777 0.0
O224 O 0.92254 0.04353 0.04532 0.0
C225 C 0.93021 0.03834 0.04582 0.0
O226 O 0.93849 0.0428 0.04743 0.0
C227 C 0.92405 0.08255 0.05014 0.0
C228 C 0.91727 0.09981 0.0841 0.0
O229 O 0.92533 0.10317 0.0808 0.0
O230 O 0.91487 0.09092 0.08199 0.0
O231 O 0.34208 0.68167 0.65638 0.0
Cd232 Cd 0.34236 0.68443 0.63868 0.0
O233 O 0.3279 0.6747 0.65484 0.0
Cd234 Cd 0.31474 0.66691 0.65943 0.0
O235 O 0.29991 0.66145 0.66041 0.0
C236 C 0.29498 0.6618 0.65256 0.0
O237 O 0.29911 0.66515 0.64447 0.0
C238 C 0.3348 0.67742 0.6603 0.0
C239 C 0.35409 0.67035 0.63 0.0
O240 O 0.35755 0.67867 0.6327 0.0
O241 O 0.34505 0.66874 0.63131 0.0
O242 O 0.09384 0.55482 0.4455 0.0
Cd243 Cd 0.09502 0.54905 0.4287 0.0
O244 O 0.08857 0.54031 0.45099 0.0
Cd245 Cd 0.08932 0.53249 0.43719 0.0
O246 O 0.08816 0.51943 0.42807 0.0
C247 C 0.08896 0.51112 0.43262 0.0
O248 O 0.09066 0.51106 0.44208 0.0
C249 C 0.09085 0.54928 0.45254 0.0
C250 C 0.10465 0.56243 0.41618 0.0
O251 O 0.09555 0.56321 0.41771 0.0
O252 O 0.10922 0.55537 0.42063 0.0
O253 O 0.3999 0.40595 0.93281 0.0
Cd254 Cd 0.40307 0.4136 0.9167 0.0
O255 O 0.38692 0.41487 0.93565 0.0
Cd256 Cd 0.38953 0.42485 0.9231 0.0
O257 O 0.39378 0.43852 0.91531 0.0
C258 C 0.4026 0.44114 0.91552 0.0
O259 O 0.40891 0.43526 0.91993 0.0
C260 C 0.3927 0.40794 0.93822 0.0
C261 C 0.39188 0.40481 0.90229 0.0
O262 O 0.40002 0.40107 0.90495 0.0
O263 O 0.38905 0.41276 0.90639 0.0
O264 O 0.83117 0.78663 0.63805 0.0
Cd265 Cd 0.83198 0.80464 0.63985 0.0
O266 O 0.81593 0.78892 0.63451 0.0
Cd267 Cd 0.80066 0.78574 0.63174 0.0
O268 O 0.78517 0.78828 0.62973 0.0
C269 C 0.77875 0.78194 0.63217 0.0
O270 O 0.78144 0.77326 0.63586 0.0
C271 C 0.82299 0.78299 0.63592 0.0
C272 C 0.84346 0.8148 0.62613 0.0
O273 O 0.84701 0.81157 0.63428 0.0
O274 O 0.83452 0.81303 0.62439 0.0
O275 O 0.91098 0.09529 0.40709 0.0
Cd276 Cd 0.8938 0.09944 0.40626 0.0
O277 O 0.90763 0.07946 0.40883 0.0
Cd278 Cd 0.91047 0.06349 0.41016 0.0
O279 O 0.91081 0.04729 0.41148 0.0
C280 C 0.91772 0.04265 0.41569 0.0
O281 O 0.92495 0.04772 0.41929 0.0
C282 C 0.91387 0.08639 0.40828 0.0
C283 C 0.88924 0.1102 0.38919 0.0
O284 O 0.89253 0.11453 0.39674 0.0
O285 O 0.8881 0.10075 0.3897 0.0
O286 O 0.68356 0.15412 0.15679 0.0
Cd287 Cd 0.6667 0.15963 0.15686 0.0
O288 O 0.68716 0.16148 0.14269 0.0
Cd289 Cd 0.67354 0.1696 0.14151 0.0
O290 O 0.6645 0.1829 0.14079 0.0
C291 C 0.65727 0.1842 0.14636 0.0
O292 O 0.65472 0.17705 0.15255 0.0
C293 C 0.6896 0.15596 0.14997 0.0
C294 C 0.65476 0.14832 0.14501 0.0
O295 O 0.65858 0.15641 0.14176 0.0
O296 O 0.65662 0.14553 0.15385 0.0
O297 O 0.55743 0.91959 0.89082 0.0
Cd298 Cd 0.5474 0.90552 0.88616 0.0
O299 O 0.55826 0.91438 0.90618 0.0
Cd300 Cd 0.54656 0.90373 0.90433 0.0
O301 O 0.53116 0.90021 0.90357 0.0
C302 C 0.52587 0.90691 0.89961 0.0
O303 O 0.53002 0.91499 0.89603 0.0
C304 C 0.56083 0.92047 0.89941 0.0
C305 C 0.55825 0.89196 0.87565 0.0
O306 O 0.55303 0.89853 0.87123 0.0
O307 O 0.55827 0.89174 0.88503 0.0
O308 O 0.80873 0.20341 0.8584 0.0
Cd309 Cd 0.80362 0.18605 0.85969 0.0
O310 O 0.79707 0.20937 0.86748 0.0
Cd311 Cd 0.7897 0.19505 0.86885 0.0
O312 O 0.77869 0.18352 0.86756 0.0
C313 C 0.77759 0.17932 0.85941 0.0
O314 O 0.78342 0.18171 0.85214 0.0
C315 C 0.8047 0.21074 0.86245 0.0
C316 C 0.81792 0.1745 0.8688 0.0
O317 O 0.81836 0.17675 0.85964 0.0
O318 O 0.81065 0.17761 0.87366 0.0
O319 O 0.55907 0.05577 0.59092 0.0
Cd320 Cd 0.54961 0.07024 0.59564 0.0
O321 O 0.55441 0.05708 0.57554 0.0
Cd322 Cd 0.54274 0.0676 0.57828 0.0
O323 O 0.52745 0.07178 0.57837 0.0
C324 C 0.52167 0.0654 0.5821 0.0
O325 O 0.52526 0.05717 0.58599 0.0
C326 C 0.55965 0.05295 0.58212 0.0
C327 C 0.56125 0.08339 0.60585 0.0
O328 O 0.55597 0.07698 0.61042 0.0
O329 O 0.56094 0.08365 0.59647 0.0
O330 O 0.6808 0.8178 0.35795 0.0
Cd331 Cd 0.66627 0.80838 0.36244 0.0
O332 O 0.67593 0.82126 0.34292 0.0
Cd333 Cd 0.66375 0.81104 0.34427 0.0
O334 O 0.65706 0.79641 0.34339 0.0
C335 C 0.66283 0.78912 0.3445 0.0
O336 O 0.67196 0.79093 0.34641 0.0
C337 C 0.68215 0.82217 0.3497 0.0
C338 C 0.65159 0.82087 0.36886 0.0
O339 O 0.65796 0.81733 0.37481 0.0
O340 O 0.65213 0.81846 0.35986 0.0
O341 O 0.90315 0.88416 0.07347 0.0
Cd342 Cd 0.88636 0.88632 0.07854 0.0
O343 O 0.90313 0.90003 0.06969 0.0
Cd344 Cd 0.90867 0.91414 0.06376 0.0
O345 O 0.91163 0.92939 0.05888 0.0
C346 C 0.92018 0.93282 0.05838 0.0
O347 O 0.92748 0.92697 0.06071 0.0
C348 C 0.90765 0.89181 0.07032 0.0
C349 C 0.8807 0.87209 0.09253 0.0
O350 O 0.87892 0.87092 0.08342 0.0
O351 O 0.88517 0.87997 0.095 0.0
O352 O 0.6356 0.80144 0.8139 0.0
Cd353 Cd 0.632 0.81804 0.80714 0.0
O354 O 0.65065 0.80216 0.80872 0.0
Cd355 Cd 0.64831 0.81552 0.79964 0.0
O356 O 0.64647 0.8235 0.78565 0.0
C357 C 0.6535 0.82822 0.78178 0.0
O358 O 0.66168 0.82876 0.78663 0.0
C359 C 0.644 0.79762 0.81345 0.0
C360 C 0.61958 0.82883 0.81894 0.0
O361 O 0.62869 0.82852 0.82064 0.0
O362 O 0.61632 0.82399 0.81169 0.0
O363 O 0.92202 0.90064 0.55933 0.0
Cd364 Cd 0.90673 0.89621 0.55155 0.0
O365 O 0.9216 0.9162 0.55403 0.0
Cd366 Cd 0.90945 0.91365 0.5442 0.0
O367 O 0.90333 0.91109 0.52975 0.0
C368 C 0.90584 0.9032 0.52551 0.0
O369 O 0.91144 0.89681 0.53023 0.0
C370 C 0.92566 0.90932 0.55908 0.0
C371 C 0.89646 0.88241 0.56303 0.0
O372 O 0.90233 0.87957 0.5564 0.0
O373 O 0.89542 0.89176 0.56419 0.0
O374 O 0.84638 0.19676 0.2985 0.0
Cd375 Cd 0.85283 0.1821 0.29054 0.0
O376 O 0.83297 0.18955 0.30357 0.0
Cd377 Cd 0.83527 0.17732 0.29369 0.0
O378 O 0.83525 0.17196 0.27875 0.0
C379 C 0.83486 0.17886 0.27224 0.0
O380 O 0.83475 0.18812 0.27505 0.0
C381 C 0.83859 0.19702 0.30343 0.0
C382 C 0.86021 0.169 0.30482 0.0
O383 O 0.86534 0.17617 0.30133 0.0
O384 O 0.85166 0.16788 0.30142 0.0
O385 O 0.57552 0.08279 0.05939 0.0
Cd386 Cd 0.57098 0.08735 0.07598 0.0
O387 O 0.56094 0.07676 0.05798 0.0
Cd388 Cd 0.54809 0.07045 0.05114 0.0
O389 O 0.53357 0.06497 0.04801 0.0
C390 C 0.53077 0.05679 0.0519 0.0
O391 O 0.53683 0.05165 0.05744 0.0
C392 C 0.5692 0.07853 0.05422 0.0
C393 C 0.58595 0.09623 0.08625 0.0
O394 O 0.58445 0.08685 0.08704 0.0
O395 O 0.58043 0.10137 0.08055 0.0
O396 O 0.64288 0.17143 0.66473 0.0
Cd397 Cd 0.64103 0.15428 0.67076 0.0
O398 O 0.63165 0.17743 0.67434 0.0
Cd399 Cd 0.62986 0.16359 0.68283 0.0
O400 O 0.63057 0.15428 0.69615 0.0
C401 C 0.63805 0.14905 0.69794 0.0
O402 O 0.645 0.14886 0.69139 0.0
C403 C 0.63785 0.17873 0.66756 0.0
C404 C 0.62759 0.14371 0.65989 0.0
O405 O 0.62511 0.14789 0.66783 0.0
O406 O 0.6364 0.14455 0.65708 0.0
O407 O 0.57401 0.90147 0.43311 0.0
Cd408 Cd 0.56658 0.89819 0.41728 0.0
O409 O 0.56706 0.91605 0.43469 0.0
Cd410 Cd 0.55744 0.91493 0.42208 0.0
O411 O 0.54363 0.91715 0.41455 0.0
C412 C 0.54089 0.926 0.41261 0.0
O413 O 0.54672 0.93337 0.41465 0.0
C414 C 0.57288 0.90939 0.43785 0.0
C415 C 0.57888 0.88593 0.40679 0.0
O416 O 0.57968 0.89541 0.40621 0.0
O417 O 0.57213 0.88225 0.41217 0.0
O418 O 0.84319 0.77173 0.17658 0.0
Cd419 Cd 0.84282 0.78892 0.18189 0.0
O420 O 0.84658 0.76547 0.1912 0.0
Cd421 Cd 0.84653 0.7799 0.19811 0.0
O422 O 0.8435 0.79222 0.20773 0.0
C423 C 0.84976 0.79513 0.21382 0.0
O424 O 0.85833 0.79091 0.21401 0.0
C425 C 0.84486 0.76423 0.18217 0.0
C426 C 0.84916 0.80205 0.16719 0.0
O427 O 0.85496 0.79885 0.17388 0.0
O428 O 0.84038 0.79904 0.16746 0.0
O429 O 0.9232 0.10539 0.91172 0.0
Cd430 Cd 0.91207 0.11144 0.92414 0.0
O431 O 0.91836 0.08984 0.91257 0.0
Cd432 Cd 0.9094 0.09248 0.92539 0.0
O433 O 0.90671 0.09257 0.94113 0.0
C434 C 0.91303 0.09679 0.94634 0.0
O435 O 0.92038 0.10119 0.94195 0.0
C436 C 0.92368 0.09655 0.90869 0.0
C437 C 0.89637 0.12133 0.91557 0.0
O438 O 0.90448 0.12573 0.91677 0.0
O439 O 0.89564 0.11224 0.91846 0.0
O440 O 0.78729 0.65941 0.78295 0.0
Cd441 Cd 0.78206 0.65589 0.79979 0.0
O442 O 0.7755 0.67015 0.78034 0.0
Cd443 Cd 0.76804 0.66721 0.79422 0.0
O444 O 0.75595 0.66471 0.80428 0.0
C445 C 0.7495 0.67143 0.80464 0.0
O446 O 0.75067 0.67964 0.79938 0.0
C447 C 0.78306 0.66575 0.77737 0.0
C448 C 0.79426 0.64267 0.80988 0.0
O449 O 0.78666 0.63958 0.80554 0.0
O450 O 0.79613 0.65199 0.80938 0.0
O451 O 0.29832 0.83798 0.18037 0.0
Cd452 Cd 0.29261 0.84487 0.16467 0.0
O453 O 0.28622 0.82749 0.18224 0.0
Cd454 Cd 0.27834 0.83182 0.16894 0.0
O455 O 0.26513 0.83263 0.16015 0.0
C456 C 0.25991 0.82487 0.16025 0.0
O457 O 0.263 0.81693 0.1651 0.0
C458 C 0.29408 0.83117 0.18534 0.0
C459 C 0.307 0.85638 0.15561 0.0
O460 O 0.30117 0.86014 0.1618 0.0
O461 O 0.30597 0.84719 0.15363 0.0
O462 O 0.86903 0.55656 0.88714 0.0
Cd463 Cd 0.86343 0.57348 0.88996 0.0
O464 O 0.87549 0.55735 0.9017 0.0
Cd465 Cd 0.8825 0.55218 0.9153 0.0
O466 O 0.88873 0.5497 0.92987 0.0
C467 C 0.89371 0.55659 0.93359 0.0
O468 O 0.89511 0.56484 0.92846 0.0
C469 C 0.87382 0.55241 0.89406 0.0
C470 C 0.85301 0.58229 0.87456 0.0
O471 O 0.86213 0.58374 0.87541 0.0
O472 O 0.84887 0.57652 0.88087 0.0
O473 O 0.17043 0.14775 0.63476 0.0
Cd474 Cd 0.15285 0.14928 0.63395 0.0
O475 O 0.16856 0.14409 0.65031 0.0
Cd476 Cd 0.17252 0.14182 0.66571 0.0
O477 O 0.17221 0.14103 0.68169 0.0
C478 C 0.16395 0.14046 0.68573 0.0
O479 O 0.15621 0.14021 0.68015 0.0
C480 C 0.17417 0.14565 0.64305 0.0
C481 C 0.14361 0.13344 0.62515 0.0
O482 O 0.14633 0.14108 0.62009 0.0
O483 O 0.1454 0.13323 0.63436 0.0
O484 O 0.09715 0.92553 0.9338 0.0
Cd485 Cd 0.10342 0.93601 0.92037 0.0
O486 O 0.08325 0.92258 0.92659 0.0
Cd487 Cd 0.08593 0.9331 0.91453 0.0
O488 O 0.08484 0.94625 0.90494 0.0
C489 C 0.08848 0.95439 0.90766 0.0
O490 O 0.09325 0.95454 0.91598 0.0
C491 C 0.08897 0.92121 0.93379 0.0
C492 C 0.11133 0.92507 0.90524 0.0
O493 O 0.11646 0.92748 0.91263 0.0
O494 O 0.10246 0.9278 0.90503 0.0
O495 O 0.66318 0.32926 0.3333 0.0
Cd496 Cd 0.64569 0.33126 0.33436 0.0
O497 O 0.66243 0.33705 0.31909 0.0
Cd498 Cd 0.66754 0.34206 0.30466 0.0
O499 O 0.66798 0.34443 0.28881 0.0
C500 C 0.67532 0.34225 0.2837 0.0
O501 O 0.68312 0.3388 0.2881 0.0
C502 C 0.66745 0.33267 0.32571 0.0
C503 C 0.64063 0.34675 0.34647 0.0
O504 O 0.64135 0.33782 0.34986 0.0
O505 O 0.64231 0.34834 0.33734 0.0
O506 O 0.8817 0.43046 0.57459 0.0
Cd507 Cd 0.88103 0.41268 0.57145 0.0
O508 O 0.87002 0.43414 0.56419 0.0
Cd509 Cd 0.87093 0.41967 0.55739 0.0
O510 O 0.87657 0.41071 0.54556 0.0
C511 C 0.88567 0.41072 0.54429 0.0
O512 O 0.89113 0.4155 0.55048 0.0
C513 C 0.87592 0.4368 0.57077 0.0
C514 C 0.86799 0.40334 0.58428 0.0
O515 O 0.87692 0.40431 0.58657 0.0
O516 O 0.86525 0.40669 0.57586 0.0
O517 O 0.59121 0.55217 0.04406 0.0
Cd518 Cd 0.59601 0.54536 0.0601 0.0
O519 O 0.59504 0.53848 0.03651 0.0
Cd520 Cd 0.5975 0.52983 0.05 0.0
O521 O 0.59494 0.51769 0.06055 0.0
C522 C 0.59311 0.50931 0.05689 0.0
O523 O 0.59328 0.50855 0.04732 0.0
C524 C 0.59211 0.54743 0.03618 0.0
C525 C 0.60477 0.56004 0.07103 0.0
O526 O 0.60964 0.55497 0.06494 0.0
O527 O 0.59575 0.55808 0.07206 0.0
O528 O 0.64985 0.64125 0.82896 0.0
Cd529 Cd 0.63282 0.63757 0.82593 0.0
O530 O 0.64561 0.65666 0.83133 0.0
Cd531 Cd 0.64755 0.67243 0.83431 0.0
O532 O 0.64752 0.68859 0.83524 0.0
C533 C 0.65521 0.69361 0.83392 0.0
O534 O 0.66334 0.68893 0.83219 0.0
C535 C 0.65225 0.65017 0.83057 0.0
C536 C 0.62196 0.63171 0.84224 0.0
O537 O 0.62633 0.62529 0.83706 0.0
O538 O 0.62293 0.64092 0.83985 0.0
O539 O 0.54919 0.41895 0.10485 0.0
Cd540 Cd 0.54022 0.40358 0.10806 0.0
O541 O 0.53636 0.42862 0.10496 0.0
Cd542 Cd 0.52623 0.41639 0.10746 0.0
O543 O 0.5138 0.40646 0.10672 0.0
C544 C 0.50543 0.41037 0.10672 0.0
O545 O 0.5047 0.42005 0.10749 0.0
C546 C 0.54545 0.42756 0.10406 0.0
C547 C 0.55226 0.3893 0.11678 0.0
O548 O 0.55186 0.39045 0.10744 0.0
O549 O 0.54688 0.39483 0.12199 0.0
O550 O 0.80823 0.29939 0.32973 0.0
Cd551 Cd 0.8019 0.31621 0.33128 0.0
O552 O 0.79551 0.29248 0.33676 0.0
Cd553 Cd 0.78699 0.30611 0.33707 0.0
O554 O 0.77354 0.31429 0.33461 0.0
C555 C 0.76897 0.31238 0.32681 0.0
O556 O 0.77284 0.30616 0.32066 0.0
C557 C 0.80387 0.29168 0.33299 0.0
C558 C 0.81581 0.3284 0.33958 0.0
O559 O 0.80988 0.32339 0.34496 0.0
O560 O 0.8151 0.32771 0.33027 0.0
O561 O 0.90456 0.54316 0.5843 0.0
Cd562 Cd 0.9127 0.55925 0.58498 0.0
O563 O 0.90929 0.54067 0.56919 0.0
Cd564 Cd 0.91872 0.55362 0.56802 0.0
O565 O 0.93215 0.56129 0.5642 0.0
C566 C 0.93564 0.55974 0.55577 0.0
O567 O 0.93079 0.55411 0.54977 0.0
C568 C 0.90455 0.53786 0.57673 0.0
C569 C 0.89975 0.57424 0.58986 0.0
O570 O 0.90124 0.57206 0.58091 0.0
O571 O 0.90443 0.56936 0.5965 0.0
O572 O 0.65937 0.33016 0.63345 0.0
Cd573 Cd 0.64273 0.32466 0.63092 0.0
O574 O 0.66197 0.31422 0.63441 0.0
Cd575 Cd 0.66869 0.29971 0.63721 0.0
O576 O 0.66764 0.28367 0.63987 0.0
C577 C 0.65987 0.28074 0.64398 0.0
O578 O 0.65345 0.28742 0.64647 0.0
C579 C 0.66527 0.32302 0.63477 0.0
C580 C 0.63077 0.33767 0.62034 0.0
O581 O 0.6312 0.33792 0.6297 0.0
O582 O 0.63619 0.33144 0.61599 0.0
O583 O 0.89888 0.44378 0.90125 0.0
Cd584 Cd 0.9043 0.42678 0.90495 0.0
O585 O 0.91151 0.44755 0.89213 0.0
Cd586 Cd 0.91908 0.43371 0.8957 0.0
O587 O 0.93082 0.42437 0.9014 0.0
C588 C 0.93615 0.41946 0.8957 0.0
O589 O 0.93417 0.4196 0.88629 0.0
C590 C 0.9034 0.44996 0.89576 0.0
C591 C 0.89607 0.413 0.89247 0.0
O592 O 0.89168 0.41569 0.90024 0.0
O593 O 0.90436 0.41685 0.89059 0.0
O594 O 0.80659 0.6679 0.14719 0.0
Cd595 Cd 0.79726 0.65327 0.14281 0.0
O596 O 0.80749 0.66377 0.16285 0.0
Cd597 Cd 0.79625 0.65257 0.1613 0.0
O598 O 0.78093 0.64901 0.1597 0.0
C599 C 0.77599 0.65568 0.15524 0.0
O600 O 0.78045 0.66365 0.15182 0.0
C601 C 0.80987 0.66951 0.15571 0.0
C602 C 0.80967 0.63948 0.13456 0.0
O603 O 0.80536 0.64608 0.12923 0.0
O604 O 0.80796 0.63929 0.14378 0.0
O605 O 0.55987 0.55578 0.3709 0.0
Cd606 Cd 0.55294 0.57248 0.37083 0.0
O607 O 0.55173 0.55072 0.35812 0.0
Cd608 Cd 0.54286 0.56413 0.35761 0.0
O609 O 0.53052 0.57344 0.36135 0.0
C610 C 0.52854 0.57408 0.37039 0.0
O611 O 0.53412 0.56948 0.37684 0.0
C612 C 0.558 0.54908 0.36478 0.0
C613 C 0.56446 0.58636 0.3609 0.0
O614 O 0.56592 0.58419 0.36997 0.0
O615 O 0.55756 0.58192 0.35652 0.0
O616 O 0.81313 0.67281 0.62385 0.0
Cd617 Cd 0.80999 0.65502 0.62252 0.0
O618 O 0.81223 0.67084 0.63976 0.0
Cd619 Cd 0.81284 0.67466 0.65524 0.0
O620 O 0.81226 0.67487 0.67122 0.0
C621 C 0.80603 0.68015 0.67553 0.0
O622 O 0.80014 0.68575 0.67023 0.0
C623 C 0.81332 0.67657 0.63229 0.0
C624 C 0.82602 0.64393 0.61693 0.0
O625 O 0.8203 0.64783 0.61052 0.0
O626 O 0.82423 0.6454 0.62599 0.0
O627 O 0.54724 0.59092 0.94426 0.0
Cd628 Cd 0.53852 0.59616 0.92946 0.0
O629 O 0.54782 0.57526 0.94006 0.0
Cd630 Cd 0.53722 0.57751 0.92837 0.0
O631 O 0.52284 0.57893 0.92185 0.0
C632 C 0.51677 0.58416 0.92644 0.0
O633 O 0.51959 0.58854 0.93445 0.0
C634 C 0.55021 0.58208 0.94587 0.0
C635 C 0.55175 0.60198 0.91504 0.0
O636 O 0.54816 0.60831 0.92088 0.0
O637 O 0.54896 0.59293 0.91593 0.0
O638 O 0.64224 0.31884 0.18525 0.0
Cd639 Cd 0.634 0.3099 0.17231 0.0
O640 O 0.65686 0.31418 0.18102 0.0
Cd641 Cd 0.65144 0.30452 0.16967 0.0
O642 O 0.64778 0.29083 0.1623 0.0
C643 C 0.64149 0.28508 0.16617 0.0
O644 O 0.63705 0.28785 0.17415 0.0
C645 C 0.65134 0.31905 0.18658 0.0
C646 C 0.6203 0.32193 0.16287 0.0
O647 O 0.6182 0.31701 0.17073 0.0
O648 O 0.62887 0.32112 0.15943 0.0
O649 O 0.91448 0.40228 0.395 0.0
Cd650 Cd 0.89716 0.40578 0.39383 0.0
O651 O 0.91229 0.39741 0.41021 0.0
Cd652 Cd 0.91571 0.39343 0.42546 0.0
O653 O 0.91331 0.39157 0.44122 0.0
C654 C 0.9197 0.39347 0.44758 0.0
O655 O 0.92832 0.39637 0.44466 0.0
C656 C 0.91802 0.39916 0.40309 0.0
C657 C 0.88619 0.39148 0.3845 0.0
O658 O 0.89025 0.39857 0.37961 0.0
O659 O 0.8875 0.39104 0.39379 0.0
O660 O 0.83998 0.3113 0.82666 0.0
Cd661 Cd 0.84453 0.32659 0.81776 0.0
O662 O 0.82841 0.30813 0.81611 0.0
Cd663 Cd 0.83146 0.3202 0.80559 0.0
O664 O 0.83087 0.32686 0.79084 0.0
C665 C 0.83093 0.32074 0.7839 0.0
O666 O 0.8317 0.31121 0.78608 0.0
C667 C 0.83299 0.30588 0.82394 0.0
C668 C 0.85303 0.34046 0.82995 0.0
O669 O 0.84383 0.33996 0.829 0.0
O670 O 0.85823 0.33438 0.82515 0.0
O671 O 0.91108 0.56642 0.08637 0.0
Cd672 Cd 0.8941 0.56164 0.08488 0.0
O673 O 0.91199 0.56566 0.07045 0.0
Cd674 Cd 0.91817 0.56517 0.05571 0.0
O675 O 0.91924 0.56388 0.03983 0.0
C676 C 0.91651 0.55582 0.03604 0.0
O677 O 0.91358 0.5485 0.04184 0.0
C678 C 0.91611 0.56716 0.07861 0.0
C679 C 0.88119 0.57489 0.09324 0.0
O680 O 0.88488 0.56771 0.09832 0.0
O681 O 0.88372 0.57589 0.08424 0.0
O682 O 0.64083 0.66481 0.28425 0.0
Cd683 Cd 0.63395 0.67273 0.29857 0.0
O684 O 0.6555 0.66324 0.29031 0.0
Cd685 Cd 0.65158 0.67163 0.30319 0.0
O686 O 0.64909 0.68464 0.31207 0.0
C687 C 0.64766 0.69274 0.30733 0.0
O688 O 0.6475 0.69262 0.29771 0.0
C689 C 0.64951 0.66184 0.28341 0.0
C690 C 0.6226 0.65931 0.30932 0.0
O691 O 0.61905 0.66442 0.30215 0.0
O692 O 0.63153 0.6606 0.31148 0.0
O693 O 0.55068 0.39957 0.53577 0.0
Cd694 Cd 0.54317 0.39726 0.55183 0.0
O695 O 0.5407 0.38951 0.52834 0.0
Cd696 Cd 0.53101 0.38739 0.5408 0.0
O697 O 0.51656 0.38648 0.54721 0.0
C698 C 0.5098 0.38961 0.54164 0.0
O699 O 0.51203 0.39315 0.53288 0.0
C700 C 0.54806 0.39515 0.52809 0.0
C701 C 0.5565 0.38835 0.56459 0.0
O702 O 0.55609 0.39782 0.56349 0.0
O703 O 0.55048 0.38312 0.5598 0.0
O704 O 0.68447 0.83166 0.64539 0.0
Cd705 Cd 0.6717 0.8419 0.65236 0.0
O706 O 0.67875 0.81766 0.65164 0.0
Cd707 Cd 0.66758 0.82505 0.66008 0.0
O708 O 0.66096 0.83011 0.67358 0.0
C709 C 0.66629 0.83499 0.6793 0.0
O710 O 0.67515 0.83718 0.67653 0.0
C711 C 0.68501 0.82227 0.64645 0.0
C712 C 0.66262 0.85408 0.63831 0.0
O713 O 0.67031 0.85691 0.64268 0.0
O714 O 0.65924 0.84547 0.64057 0.0
O715 O 0.17192 0.64932 0.33523 0.0
Cd716 Cd 0.15885 0.63866 0.32955 0.0
O717 O 0.17048 0.65957 0.32252 0.0
Cd718 Cd 0.15908 0.65153 0.31501 0.0
O719 O 0.15127 0.64775 0.30172 0.0
C720 C 0.15337 0.63998 0.29706 0.0
O721 O 0.15986 0.63381 0.30073 0.0
C722 C 0.1746 0.65711 0.33054 0.0
C723 C 0.15076 0.62695 0.34458 0.0
O724 O 0.15822 0.62403 0.33989 0.0
O725 O 0.14715 0.63544 0.34221 0.0
O726 O 0.60272 0.92652 0.54038 0.0
Cd727 Cd 0.60352 0.93273 0.55703 0.0
O728 O 0.61435 0.93621 0.53473 0.0
Cd729 Cd 0.6148 0.94487 0.54802 0.0
O730 O 0.61087 0.9583 0.55574 0.0
C731 C 0.60778 0.96533 0.5502 0.0
O732 O 0.60743 0.96395 0.54072 0.0
C733 C 0.60823 0.92933 0.53339 0.0
C734 C 0.61341 0.91966 0.56968 0.0
O735 O 0.60432 0.91871 0.56816 0.0
O736 O 0.61784 0.9268 0.5652 0.0
O737 O 0.32501 0.34146 0.80588 0.0
Cd738 Cd 0.31718 0.34695 0.82087 0.0
O739 O 0.32199 0.35496 0.79702 0.0
Cd740 Cd 0.31313 0.36084 0.80874 0.0
O741 O 0.30016 0.36079 0.81783 0.0
C742 C 0.29217 0.36266 0.81358 0.0
O743 O 0.29224 0.36517 0.80422 0.0
C744 C 0.32577 0.34637 0.79784 0.0
C745 C 0.32993 0.35651 0.83332 0.0
O746 O 0.32916 0.34702 0.83351 0.0
O747 O 0.32469 0.36149 0.82721 0.0
O748 O 0.42794 0.58463 0.56329 0.0
Cd749 Cd 0.42832 0.58213 0.58103 0.0
O750 O 0.42448 0.56889 0.56187 0.0
Cd751 Cd 0.42212 0.55481 0.55462 0.0
O752 O 0.42035 0.5392 0.55112 0.0
C753 C 0.42779 0.53381 0.54993 0.0
O754 O 0.43639 0.5379 0.55046 0.0
C755 C 0.42602 0.57737 0.55786 0.0
C756 C 0.41643 0.59596 0.58988 0.0
O757 O 0.4254 0.5978 0.58832 0.0
O758 O 0.41313 0.58751 0.58735 0.0
O759 O 0.83905 0.17221 0.16418 0.0
Cd760 Cd 0.839 0.17454 0.1464 0.0
O761 O 0.82467 0.16567 0.16283 0.0
Cd762 Cd 0.81107 0.15859 0.16726 0.0
O763 O 0.79602 0.15371 0.16742 0.0
C764 C 0.79169 0.15372 0.15921 0.0
O765 O 0.79652 0.15642 0.15131 0.0
C766 C 0.83163 0.16837 0.16824 0.0
C767 C 0.85213 0.16212 0.13728 0.0
O768 O 0.85461 0.17082 0.13991 0.0
O769 O 0.84344 0.15928 0.13901 0.0
O770 O 0.60416 0.05042 0.95405 0.0
Cd771 Cd 0.61188 0.04268 0.94003 0.0
O772 O 0.59316 0.03871 0.95562 0.0
Cd773 Cd 0.59766 0.03021 0.94301 0.0
O774 O 0.5979 0.01741 0.9335 0.0
C775 C 0.59915 0.00896 0.93765 0.0
O776 O 0.60069 0.00852 0.94715 0.0
C777 C 0.59695 0.04669 0.95858 0.0
C778 C 0.61696 0.05607 0.92499 0.0
O779 O 0.60914 0.05101 0.92452 0.0
O780 O 0.6223 0.05489 0.93259 0.0
O781 O 0.90539 0.88319 0.41841 0.0
Cd782 Cd 0.90857 0.88069 0.40106 0.0
O783 O 0.90582 0.89928 0.41577 0.0
Cd784 Cd 0.90626 0.91505 0.4193 0.0
O785 O 0.90659 0.93124 0.41996 0.0
C786 C 0.91385 0.93575 0.42343 0.0
O787 O 0.92117 0.93052 0.4269 0.0
C788 C 0.90482 0.89191 0.4217 0.0
C789 C 0.89174 0.87953 0.38992 0.0
O790 O 0.89542 0.87176 0.39406 0.0
O791 O 0.89599 0.88787 0.39111 0.0
O792 O 0.30761 0.26967 0.14125 0.0
Cd793 Cd 0.3035 0.28725 0.13905 0.0
O794 O 0.2994 0.26473 0.12847 0.0
Cd795 Cd 0.29242 0.27918 0.12618 0.0
O796 O 0.28118 0.29061 0.12572 0.0
C797 C 0.27251 0.28751 0.12537 0.0
O798 O 0.27096 0.27789 0.12513 0.0
C799 C 0.30509 0.26278 0.13558 0.0
C800 C 0.31761 0.29678 0.12766 0.0
O801 O 0.31878 0.29534 0.13689 0.0
O802 O 0.3097 0.29385 0.1238 0.0
O803 O 0.4105 0.59691 0.91117 0.0
Cd804 Cd 0.39301 0.59925 0.91068 0.0
O805 O 0.40919 0.58159 0.90635 0.0
Cd806 Cd 0.41354 0.56634 0.90335 0.0
O807 O 0.41346 0.5503 0.9014 0.0
C808 C 0.42089 0.54488 0.90278 0.0
O809 O 0.42908 0.54905 0.90529 0.0
C810 C 0.4145 0.58875 0.909 0.0
C811 C 0.38696 0.60861 0.89334 0.0
O812 O 0.39016 0.61363 0.90049 0.0
O813 O 0.38662 0.59913 0.89437 0.0
O814 O 0.18698 0.6592 0.65914 0.0
Cd815 Cd 0.16984 0.66337 0.66044 0.0
O816 O 0.18926 0.66801 0.64554 0.0
Cd817 Cd 0.17521 0.67536 0.64597 0.0
O818 O 0.16489 0.68758 0.64691 0.0
C819 C 0.15765 0.68737 0.65263 0.0
O820 O 0.15595 0.6793 0.65796 0.0
C821 C 0.19246 0.66203 0.65214 0.0
C822 C 0.15861 0.65206 0.64791 0.0
O823 O 0.16086 0.64877 0.6565 0.0
O824 O 0.16163 0.66071 0.64527 0.0
O825 O 0.05357 0.41723 0.38721 0.0
Cd826 Cd 0.0454 0.40196 0.38251 0.0
O827 O 0.05245 0.4134 0.40292 0.0
Cd828 Cd 0.0417 0.40175 0.40084 0.0
O829 O 0.02666 0.39681 0.40176 0.0
C830 C 0.02162 0.40097 0.40827 0.0
O831 O 0.02584 0.40739 0.41397 0.0
C832 C 0.05561 0.41907 0.39606 0.0
C833 C 0.05791 0.38998 0.37192 0.0
O834 O 0.05206 0.396 0.36754 0.0
O835 O 0.05777 0.38956 0.3813 0.0
O836 O 0.31903 0.69584 0.34008 0.0
Cd837 Cd 0.31763 0.6778 0.34202 0.0
O838 O 0.3035 0.69532 0.34277 0.0
Cd839 Cd 0.28863 0.70008 0.34545 0.0
O840 O 0.27315 0.6981 0.34796 0.0
C841 C 0.26692 0.70148 0.3419 0.0
O842 O 0.26986 0.70671 0.33422 0.0
C843 C 0.31105 0.70042 0.34091 0.0
C844 C 0.33268 0.66854 0.35228 0.0
O845 O 0.33273 0.66911 0.3429 0.0
O846 O 0.32561 0.67253 0.35681 0.0
O847 O 0.05257 0.55968 0.08954 0.0
Cd848 Cd 0.04429 0.57482 0.0944 0.0
O849 O 0.05067 0.56324 0.07385 0.0
Cd850 Cd 0.03965 0.57451 0.0764 0.0
O851 O 0.02444 0.57888 0.07707 0.0
C852 C 0.01948 0.57584 0.08438 0.0
O853 O 0.02383 0.57081 0.09147 0.0
C854 C 0.05428 0.55776 0.08064 0.0
C855 C 0.05699 0.58697 0.10451 0.0
O856 O 0.05133 0.58094 0.10911 0.0
O857 O 0.05655 0.58733 0.09513 0.0
O858 O 0.20365 0.31205 0.85147 0.0
Cd859 Cd 0.1901 0.30069 0.85434 0.0
O860 O 0.19835 0.31677 0.83689 0.0
Cd861 Cd 0.18695 0.30559 0.83703 0.0
O862 O 0.17934 0.29141 0.83678 0.0
C863 C 0.18465 0.28371 0.83643 0.0
O864 O 0.19409 0.28483 0.83635 0.0
C865 C 0.20448 0.31751 0.84378 0.0
C866 C 0.1745 0.31071 0.86242 0.0
O867 O 0.17581 0.31069 0.85314 0.0
O868 O 0.18051 0.30591 0.86789 0.0
O869 O 0.4045 0.37751 0.56872 0.0
Cd870 Cd 0.38737 0.3787 0.57285 0.0
O871 O 0.4042 0.39375 0.56828 0.0
Cd872 Cd 0.40989 0.40871 0.56553 0.0
O873 O 0.41413 0.42419 0.56326 0.0
C874 C 0.41379 0.42824 0.55476 0.0
O875 O 0.41101 0.42292 0.54734 0.0
C876 C 0.40894 0.3857 0.56753 0.0
C877 C 0.3824 0.3661 0.58852 0.0
O878 O 0.38096 0.36352 0.57967 0.0
O879 O 0.38619 0.37462 0.58995 0.0
O880 O 0.14041 0.30482 0.31131 0.0
Cd881 Cd 0.13981 0.32232 0.30606 0.0
O882 O 0.1292 0.30022 0.30094 0.0
Cd883 Cd 0.12893 0.31441 0.29286 0.0
O884 O 0.13106 0.32331 0.27942 0.0
C885 C 0.13195 0.31825 0.27174 0.0
O886 O 0.13135 0.30853 0.27254 0.0
C887 C 0.13498 0.29811 0.30794 0.0
C888 C 0.12628 0.33294 0.3168 0.0
O889 O 0.12403 0.32926 0.30854 0.0
O890 O 0.13493 0.3316 0.31996 0.0
O891 O 0.4224 0.35239 0.06713 0.0
Cd892 Cd 0.41003 0.34475 0.05698 0.0
O893 O 0.41557 0.36715 0.06696 0.0
Cd894 Cd 0.40502 0.3634 0.05576 0.0
O895 O 0.39893 0.36574 0.04113 0.0
C896 C 0.39961 0.3746 0.03775 0.0
O897 O 0.40343 0.38137 0.04333 0.0
C898 C 0.42224 0.36132 0.06996 0.0
C899 C 0.39472 0.33742 0.0683 0.0
O900 O 0.40252 0.33241 0.06732 0.0
O901 O 0.39411 0.34592 0.06389 0.0
O902 O 0.3383 0.69446 0.80651 0.0
Cd903 Cd 0.34222 0.67925 0.79797 0.0
O904 O 0.33863 0.70372 0.79302 0.0
Cd905 Cd 0.34062 0.69146 0.78307 0.0
O906 O 0.34103 0.68393 0.76913 0.0
C907 C 0.33317 0.68297 0.76441 0.0
O908 O 0.32507 0.686 0.76837 0.0
C909 C 0.3377 0.70294 0.80226 0.0
C910 C 0.35038 0.66558 0.81121 0.0
O911 O 0.35555 0.67227 0.80693 0.0
O912 O 0.34136 0.66521 0.80909 0.0
O913 O 0.08672 0.58344 0.55698 0.0
Cd914 Cd 0.08243 0.5875 0.57377 0.0
O915 O 0.07114 0.58441 0.55478 0.0
Cd916 Cd 0.0568 0.58314 0.54817 0.0
O917 O 0.04105 0.58256 0.54743 0.0
C918 C 0.03639 0.57907 0.54028 0.0
O919 O 0.04116 0.57572 0.53273 0.0
C920 C 0.0795 0.58281 0.55127 0.0
C921 C 0.09682 0.59707 0.5842 0.0
O922 O 0.09597 0.58759 0.58469 0.0
O923 O 0.09097 0.60199 0.57864 0.0
O924 O 0.14148 0.67227 0.16141 0.0
Cd925 Cd 0.14055 0.65508 0.16761 0.0
O926 O 0.12864 0.6773 0.1694 0.0
Cd927 Cd 0.12748 0.66361 0.1782 0.0
O928 O 0.12852 0.65435 0.1915 0.0
C929 C 0.13674 0.65385 0.19564 0.0
O930 O 0.14411 0.65837 0.19142 0.0
C931 C 0.13543 0.67907 0.16334 0.0
C932 C 0.12694 0.64411 0.15734 0.0
O933 O 0.13559 0.6452 0.15413 0.0
O934 O 0.12473 0.64816 0.16542 0.0
O935 O 0.08099 0.37998 0.92732 0.0
Cd936 Cd 0.07779 0.3718 0.91189 0.0
O937 O 0.0654 0.38236 0.9279 0.0
Cd938 Cd 0.05119 0.38765 0.93249 0.0
O939 O 0.03578 0.39101 0.93117 0.0
C940 C 0.03186 0.38881 0.92309 0.0
O941 O 0.03722 0.38476 0.91632 0.0
C942 C 0.07369 0.38331 0.93182 0.0
C943 C 0.09413 0.36279 0.9042 0.0
O944 O 0.09165 0.37158 0.90138 0.0
O945 O 0.08892 0.35832 0.91069 0.0
O946 O 0.34934 0.27098 0.67771 0.0
Cd947 Cd 0.3507 0.28765 0.68422 0.0
O948 O 0.35483 0.26316 0.69091 0.0
Cd949 Cd 0.35668 0.27689 0.69885 0.0
O950 O 0.35539 0.28855 0.70959 0.0
C951 C 0.34699 0.29011 0.71297 0.0
O952 O 0.33971 0.28493 0.70961 0.0
C953 C 0.35153 0.26292 0.68223 0.0
C954 C 0.35572 0.30118 0.66934 0.0
O955 O 0.36217 0.29749 0.6751 0.0
O956 O 0.34691 0.29857 0.67069 0.0
O957 O 0.43024 0.59748 0.40903 0.0
Cd958 Cd 0.41449 0.59676 0.41708 0.0
O959 O 0.4384 0.59581 0.4228 0.0
Cd960 Cd 0.42612 0.59482 0.43278 0.0
O961 O 0.4214 0.59277 0.44794 0.0
C962 C 0.42568 0.59818 0.45407 0.0
O963 O 0.43194 0.60481 0.45081 0.0
C964 C 0.43827 0.59686 0.41353 0.0
C965 C 0.40118 0.60862 0.40687 0.0
O966 O 0.40569 0.61193 0.41431 0.0
O967 O 0.40289 0.59969 0.40434 0.0
O968 O 0.29611 0.1503 0.29885 0.0
Cd969 Cd 0.2892 0.14383 0.3142 0.0
O970 O 0.2842 0.16066 0.29537 0.0
Cd971 Cd 0.27533 0.15693 0.30817 0.0
O972 O 0.26178 0.15559 0.31633 0.0
C973 C 0.25674 0.14776 0.31554 0.0
O974 O 0.26014 0.14047 0.31033 0.0
C975 C 0.29231 0.15685 0.29319 0.0
C976 C 0.30247 0.13127 0.32374 0.0
O977 O 0.29671 0.12799 0.31722 0.0
O978 O 0.30188 0.14047 0.32585 0.0
O979 O 0.79529 0.35221 0.68377 0.0
Cd980 Cd 0.78678 0.3556 0.66834 0.0
O981 O 0.79371 0.336 0.68285 0.0
Cd982 Cd 0.78376 0.33685 0.67043 0.0
O983 O 0.77019 0.33544 0.66235 0.0
C984 C 0.76366 0.34198 0.66335 0.0
O985 O 0.76546 0.34966 0.66881 0.0
C986 C 0.79703 0.34352 0.68719 0.0
C987 C 0.79948 0.36308 0.65409 0.0
O988 O 0.79503 0.36888 0.65987 0.0
O989 O 0.79786 0.35373 0.655 0.0
O990 O 0.39613 0.04453 0.37323 0.0
Cd991 Cd 0.39786 0.06159 0.36686 0.0
O992 O 0.40073 0.04923 0.38775 0.0
Cd993 Cd 0.40358 0.04736 0.40348 0.0
O994 O 0.40572 0.04657 0.41934 0.0
C995 C 0.41101 0.05297 0.42343 0.0
O996 O 0.4152 0.0599 0.41798 0.0
C997 C 0.39818 0.04233 0.38209 0.0
C998 C 0.38057 0.07109 0.36172 0.0
O999 O 0.38492 0.06545 0.35572 0.0
O1000 O 0.38429 0.07209 0.37024 0.0
O1001 O 0.67062 0.6586 0.1333 0.0
Cd1002 Cd 0.65371 0.66027 0.12839 0.0
O1003 O 0.66652 0.65211 0.14755 0.0
Cd1004 Cd 0.66869 0.64722 0.16279 0.0
O1005 O 0.66712 0.64479 0.17856 0.0
C1006 C 0.67426 0.64445 0.18441 0.0
O1007 O 0.68306 0.64536 0.18088 0.0
C1008 C 0.67308 0.65505 0.14164 0.0
C1009 C 0.64655 0.64322 0.11984 0.0
O1010 O 0.65127 0.64974 0.11479 0.0
O1011 O 0.64524 0.64474 0.12897 0.0
O1012 O 0.59686 0.43218 0.43589 0.0
Cd1013 Cd 0.60304 0.44017 0.42087 0.0
O1014 O 0.58311 0.42785 0.42908 0.0
Cd1015 Cd 0.58554 0.43694 0.4159 0.0
O1016 O 0.58518 0.44891 0.40486 0.0
C1017 C 0.57695 0.45272 0.40301 0.0
O1018 O 0.56932 0.44904 0.40752 0.0
C1019 C 0.58879 0.42766 0.43641 0.0
C1020 C 0.60991 0.4259 0.40811 0.0
O1021 O 0.61557 0.42989 0.41432 0.0
O1022 O 0.60108 0.42876 0.40786 0.0
O1023 O 0.18569 0.86203 0.82052 0.0
Cd1024 Cd 0.17028 0.86642 0.81277 0.0
O1025 O 0.18191 0.84622 0.8222 0.0
Cd1026 Cd 0.16885 0.84788 0.81335 0.0
O1027 O 0.15979 0.84769 0.80027 0.0
C1028 C 0.16348 0.85119 0.7924 0.0
O1029 O 0.17219 0.85506 0.79271 0.0
C1030 C 0.18776 0.85331 0.82364 0.0
C1031 C 0.15842 0.87544 0.82643 0.0
O1032 O 0.15843 0.86598 0.82554 0.0
O1033 O 0.1639 0.88062 0.82073 0.0
O1034 O 0.40253 0.93593 0.0998 0.0
Cd1035 Cd 0.40473 0.91997 0.10847 0.0
O1036 O 0.40302 0.92865 0.08562 0.0
Cd1037 Cd 0.40382 0.92866 0.06961 0.0
O1038 O 0.40503 0.92861 0.05366 0.0
C1039 C 0.41109 0.92288 0.04966 0.0
O1040 O 0.41652 0.91708 0.05525 0.0
C1041 C 0.40226 0.93653 0.0905 0.0
C1042 C 0.38755 0.91114 0.11494 0.0
O1043 O 0.39191 0.91758 0.12009 0.0
O1044 O 0.39124 0.90898 0.10665 0.0
O1045 O 0.07386 0.05252 0.55162 0.0
Cd1046 Cd 0.07545 0.04551 0.5682 0.0
O1047 O 0.07722 0.03844 0.54455 0.0
Cd1048 Cd 0.07736 0.02931 0.55797 0.0
O1049 O 0.07481 0.01504 0.56545 0.0
C1050 C 0.06693 0.01072 0.56341 0.0
O1051 O 0.06075 0.01531 0.55755 0.0
C1052 C 0.07531 0.04766 0.5439 0.0
C1053 C 0.08652 0.05831 0.57935 0.0
O1054 O 0.09048 0.05122 0.57472 0.0
O1055 O 0.07731 0.05923 0.57884 0.0
C1056 C 0.13863 0.20858 0.32161 0.0
C1057 C 0.14664 0.20462 0.32669 0.0
C1058 C 0.13734 0.21884 0.32064 0.0
C1059 C 0.15051 0.24264 0.32156 0.0
H1060 H 0.12463 0.25365 0.32287 0.0
C1061 C 0.14321 0.28489 0.31822 0.0
C1062 C 0.13576 0.28772 0.31171 0.0
C1063 C 0.14441 0.27493 0.32112 0.0
C1064 C 0.13189 0.25068 0.32245 0.0
H1065 H 0.15959 0.20835 0.33477 0.0
H1066 H 0.15728 0.2263 0.33316 0.0
H1067 H 0.1271 0.23591 0.3259 0.0
H1068 H 0.12356 0.28233 0.30339 0.0
H1069 H 0.12565 0.265 0.30846 0.0
H1070 H 0.15527 0.25742 0.31804 0.0
C1071 C 0.15205 0.22145 0.32982 0.0
C1072 C 0.13331 0.24051 0.32416 0.0
C1073 C 0.15336 0.21116 0.33078 0.0
C1074 C 0.12937 0.28041 0.30841 0.0
C1075 C 0.13054 0.27047 0.31136 0.0
C1076 C 0.14909 0.25282 0.31989 0.0
C1077 C 0.14401 0.22541 0.32475 0.0
C1078 C 0.14262 0.23633 0.32359 0.0
C1079 C 0.13815 0.2676 0.31763 0.0
C1080 C 0.13975 0.25693 0.32017 0.0
H1081 H 0.13334 0.20376 0.31833 0.0
H1082 H 0.13117 0.22162 0.31653 0.0
H1083 H 0.15775 0.23966 0.32095 0.0
H1084 H 0.14825 0.29033 0.32092 0.0
H1085 H 0.15028 0.27295 0.32605 0.0
C1086 C 0.00928 0.90722 0.58411 0.0
C1087 C 0.015 0.91559 0.58184 0.0
C1088 C -0.00078 0.90773 0.58341 0.0
C1089 C 0.98022 0.92173 0.57036 0.0
H1090 H 0.96311 0.90695 0.58783 0.0
C1091 C 0.93923 0.92072 0.56346 0.0
C1092 C 0.93499 0.91123 0.56403 0.0
C1093 C 0.94851 0.92227 0.56715 0.0
C1094 C 0.9678 0.91109 0.58287 0.0
H1095 H 0.0146 0.93118 0.57747 0.0
H1096 H -0.00299 0.93208 0.57632 0.0
H1097 H 0.98034 0.90791 0.59161 0.0
H1098 H 0.93703 0.89605 0.56934 0.0
H1099 H 0.95325 0.89874 0.57566 0.0
H1100 H 0.96777 0.92471 0.56149 0.0
C1101 C 0.00033 0.92508 0.5785 0.0
C1102 C 0.97766 0.91164 0.58504 0.0
C1103 C 0.01041 0.92458 0.5792 0.0
C1104 C 0.94007 0.90345 0.56876 0.0
C1105 C 0.94937 0.90501 0.57244 0.0
C1106 C 0.97037 0.92118 0.5682 0.0
C1107 C -0.00537 0.91661 0.58042 0.0
C1108 C 0.98401 0.91683 0.57871 0.0
C1109 C 0.95378 0.91438 0.57149 0.0
C1110 C 0.96406 0.91572 0.57435 0.0
H1111 H 0.01258 0.90018 0.58619 0.0
H1112 H -0.00493 0.90103 0.58484 0.0
H1113 H 0.98492 0.92565 0.56524 0.0
H1114 H 0.93549 0.9269 0.55993 0.0
H1115 H 0.95165 0.92962 0.56645 0.0
C1116 C 0.33556 0.72134 0.8033 0.0
C1117 C 0.33602 0.71196 0.80802 0.0
C1118 C 0.33403 0.72989 0.80865 0.0
C1119 C 0.32408 0.73849 0.83189 0.0
H1120 H 0.33773 0.76275 0.82473 0.0
C1121 C 0.31771 0.7752 0.85202 0.0
C1122 C 0.31631 0.78361 0.84587 0.0
C1123 C 0.32124 0.76635 0.84822 0.0
C1124 C 0.33384 0.75604 0.8268 0.0
H1125 H 0.33526 0.70422 0.82213 0.0
H1126 H 0.33262 0.7192 0.8315 0.0
H1127 H 0.34168 0.74738 0.81656 0.0
H1128 H 0.31781 0.7894 0.83097 0.0
H1129 H 0.32389 0.77401 0.82439 0.0
H1130 H 0.3161 0.74721 0.84199 0.0
C1131 C 0.33338 0.7199 0.82362 0.0
C1132 C 0.33609 0.74724 0.82211 0.0
C1133 C 0.33492 0.71133 0.81825 0.0
C1134 C 0.31879 0.78307 0.83592 0.0
C1135 C 0.32234 0.77425 0.83215 0.0
C1136 C 0.32182 0.74731 0.83658 0.0
C1137 C 0.33293 0.72928 0.81888 0.0
C1138 C 0.33111 0.73841 0.82447 0.0
C1139 C 0.32348 0.76575 0.83822 0.0
C1140 C 0.32656 0.75622 0.83396 0.0
H1141 H 0.33634 0.72211 0.79543 0.0
H1142 H 0.33356 0.73697 0.80475 0.0
H1143 H 0.32005 0.73184 0.83381 0.0
H1144 H 0.31589 0.77538 0.85972 0.0
H1145 H 0.32214 0.75996 0.8531 0.0
C1146 C 0.51748 0.04453 0.05526 0.0
C1147 C 0.52064 0.05344 0.05075 0.0
C1148 C 0.5078 0.04164 0.05465 0.0
C1149 C 0.48514 0.04624 0.04073 0.0
H1150 H 0.47284 0.03611 0.06444 0.0
C1151 C 0.44373 0.04366 0.04483 0.0
C1152 C 0.43987 0.03527 0.04975 0.0
C1153 C 0.4537 0.04525 0.04459 0.0
C1154 C 0.47619 0.03879 0.05772 0.0
H1155 H 0.51613 0.06621 0.04188 0.0
H1156 H 0.49923 0.06123 0.04092 0.0
H1157 H 0.49005 0.03994 0.06455 0.0
H1158 H 0.44349 0.02192 0.05819 0.0
H1159 H 0.46092 0.02469 0.05772 0.0
H1160 H 0.47124 0.04521 0.03394 0.0
C1161 C 0.50426 0.05641 0.04483 0.0
C1162 C 0.48606 0.04099 0.05778 0.0
C1163 C 0.51394 0.05929 0.04543 0.0
C1164 C 0.44622 0.02847 0.05436 0.0
C1165 C 0.45621 0.03008 0.05413 0.0
C1166 C 0.47527 0.04405 0.04067 0.0
C1167 C 0.50105 0.0476 0.04952 0.0
C1168 C 0.49064 0.04482 0.04931 0.0
C1169 C 0.46006 0.0385 0.04926 0.0
C1170 C 0.47065 0.04038 0.04919 0.0
H1171 H 0.52246 0.03981 0.05937 0.0
H1172 H 0.50559 0.03474 0.05822 0.0
H1173 H 0.48848 0.04902 0.03403 0.0
H1174 H 0.43905 0.04905 0.04121 0.0
H1175 H 0.45642 0.05188 0.04089 0.0
C1176 C 0.15559 0.76505 0.13898 0.0
C1177 C 0.14819 0.77159 0.1417 0.0
C1178 C 0.15431 0.75476 0.13993 0.0
C1179 C 0.13531 0.73545 0.14309 0.0
H1180 H 0.15625 0.71947 0.15392 0.0
C1181 C 0.12961 0.69654 0.16062 0.0
C1182 C 0.1366 0.68919 0.15899 0.0
C1183 C 0.13103 0.70629 0.15718 0.0
C1184 C 0.15038 0.7238 0.15074 0.0
H1185 H 0.13362 0.77244 0.14751 0.0
H1186 H 0.13145 0.75459 0.14931 0.0
H1187 H 0.15881 0.73711 0.15043 0.0
H1188 H 0.15048 0.68627 0.15222 0.0
H1189 H 0.15296 0.70331 0.14623 0.0
H1190 H 0.12681 0.72216 0.14366 0.0
C1191 C 0.13819 0.75736 0.14628 0.0
C1192 C 0.15185 0.73391 0.14874 0.0
C1193 C 0.13946 0.76762 0.14531 0.0
C1194 C 0.14495 0.69175 0.15362 0.0
C1195 C 0.1464 0.70152 0.15023 0.0
C1196 C 0.13383 0.72535 0.14513 0.0
C1197 C 0.1456 0.7508 0.14363 0.0
C1198 C 0.14428 0.73989 0.14503 0.0
C1199 C 0.13951 0.70892 0.15207 0.0
C1200 C 0.14131 0.71944 0.14912 0.0
H1201 H 0.16239 0.76787 0.13614 0.0
H1202 H 0.16012 0.74992 0.13773 0.0
H1203 H 0.12938 0.73979 0.14005 0.0
H1204 H 0.12309 0.69483 0.16472 0.0
H1205 H 0.12563 0.71183 0.1588 0.0
C1206 C 0.45395 0.93223 0.40178 0.0
C1207 C 0.44987 0.9418 0.40165 0.0
C1208 C 0.46397 0.93097 0.40142 0.0
C1209 C 0.4866 0.94395 0.40705 0.0
H1210 H 0.49841 0.92247 0.3929 0.0
C1211 C 0.5278 0.93789 0.40744 0.0
C1212 C 0.53092 0.92806 0.40913 0.0
C1213 C 0.51815 0.93994 0.40513 0.0
C1214 C 0.49521 0.92847 0.39693 0.0
H1215 H 0.45312 0.95755 0.40077 0.0
H1216 H 0.47063 0.95534 0.40008 0.0
H1217 H 0.48105 0.92545 0.39142 0.0
H1218 H 0.52641 0.91263 0.40932 0.0
H1219 H 0.50956 0.9162 0.40539 0.0
H1220 H 0.50069 0.94686 0.41272 0.0
C1221 C 0.46607 0.94881 0.40058 0.0
C1222 C 0.48527 0.93018 0.39608 0.0
C1223 C 0.45603 0.95008 0.40093 0.0
C1224 C 0.52425 0.92029 0.40807 0.0
C1225 C 0.51459 0.92234 0.40577 0.0
C1226 C 0.49653 0.94224 0.4079 0.0
C1227 C 0.47016 0.93924 0.40093 0.0
C1228 C 0.48082 0.93786 0.40123 0.0
C1229 C 0.51138 0.9322 0.40445 0.0
C1230 C 0.50094 0.93441 0.40295 0.0
H1231 H 0.44942 0.92569 0.40232 0.0
H1232 H 0.46688 0.9235 0.40183 0.0
H1233 H 0.48339 0.94983 0.41124 0.0
H1234 H 0.53276 0.94405 0.40812 0.0
H1235 H 0.51595 0.9476 0.40399 0.0
C1236 C 0.34673 0.25293 0.66777 0.0
C1237 C 0.34963 0.25327 0.67762 0.0
C1238 C 0.34406 0.24394 0.66368 0.0
C1239 C 0.34465 0.21648 0.66775 0.0
H1240 H 0.32158 0.2174 0.6516 0.0
C1241 C 0.32126 0.18204 0.65969 0.0
C1242 C 0.31738 0.18128 0.65022 0.0
C1243 C 0.32636 0.19053 0.66231 0.0
C1244 C 0.32812 0.21702 0.65597 0.0
H1245 H 0.35231 0.24435 0.69079 0.0
H1246 H 0.34745 0.22872 0.68372 0.0
H1247 H 0.32846 0.23277 0.65743 0.0
H1248 H 0.31609 0.18871 0.636 0.0
H1249 H 0.32497 0.20351 0.6406 0.0
H1250 H 0.34407 0.20066 0.66649 0.0
C1251 C 0.34739 0.23537 0.6791 0.0
C1252 C 0.33208 0.22584 0.65931 0.0
C1253 C 0.35013 0.24436 0.68318 0.0
C1254 C 0.31894 0.18907 0.64336 0.0
C1255 C 0.32399 0.19757 0.64601 0.0
C1256 C 0.34064 0.20764 0.66445 0.0
C1257 C 0.34415 0.23508 0.66935 0.0
C1258 C 0.34035 0.22569 0.66531 0.0
C1259 C 0.32763 0.19846 0.65555 0.0
C1260 C 0.33228 0.20782 0.65859 0.0
H1261 H 0.34636 0.25965 0.66326 0.0
H1262 H 0.34179 0.24396 0.65609 0.0
H1263 H 0.35111 0.2161 0.67223 0.0
H1264 H 0.32021 0.17617 0.66514 0.0
H1265 H 0.329 0.19103 0.66974 0.0
C1266 C 0.93748 0.10113 0.89758 0.0
C1267 C 0.93099 0.09392 0.90126 0.0
C1268 C 0.94512 0.09844 0.89151 0.0
C1269 C 0.95466 0.07818 0.87629 0.0
H1270 H 0.97962 0.08837 0.88416 0.0
C1271 C -0.00939 0.05885 0.86729 0.0
C1272 C -0.00108 0.06466 0.86567 0.0
C1273 C 0.98188 0.06327 0.86989 0.0
C1274 C 0.97271 0.0856 0.8817 0.0
H1275 H 0.92718 0.07831 0.90102 0.0
H1276 H 0.94053 0.07361 0.89049 0.0
H1277 H 0.96501 0.09462 0.89173 0.0
H1278 H 0.00445 0.07973 0.86502 0.0
H1279 H -0.01086 0.08747 0.86942 0.0
H1280 H 0.96242 0.06899 0.86642 0.0
C1281 C 0.93968 0.08136 0.89225 0.0
C1282 C 0.96431 0.08918 0.88606 0.0
C1283 C 0.93205 0.08404 0.89834 0.0
C1284 C -0.0018 0.07503 0.86629 0.0
C1285 C -0.01056 0.07946 0.86886 0.0
C1286 C 0.96307 0.07461 0.87191 0.0
C1287 C 0.94644 0.08848 0.88895 0.0
C1288 C 0.95521 0.08539 0.88354 0.0
C1289 C 0.98122 0.07361 0.87088 0.0
C1290 C 0.97221 0.07815 0.8747 0.0
H1291 H 0.93685 0.10882 0.89963 0.0
H1292 H 0.95012 0.10412 0.88896 0.0
H1293 H 0.94774 0.07522 0.87409 0.0
H1294 H -0.00909 0.05084 0.86687 0.0
H1295 H 0.97574 0.05852 0.8715 0.0
C1296 C 0.31556 0.17605 0.20875 0.0
C1297 C 0.32383 0.17121 0.20527 0.0
C1298 C 0.3131 0.1754 0.21868 0.0
C1299 C 0.31656 0.15919 0.24046 0.0
H1300 H 0.30589 0.18143 0.25437 0.0
C1301 C 0.30597 0.15549 0.28119 0.0
C1302 C 0.29706 0.15969 0.2838 0.0
C1303 C 0.31008 0.15763 0.27203 0.0
C1304 C 0.3088 0.17513 0.25057 0.0
H1305 H 0.33619 0.16215 0.20956 0.0
H1306 H 0.33192 0.16107 0.22685 0.0
H1307 H 0.3115 0.18387 0.23754 0.0
H1308 H 0.28562 0.16969 0.2789 0.0
H1309 H 0.2927 0.1733 0.26292 0.0
H1310 H 0.31369 0.15039 0.25337 0.0
C1311 C 0.32726 0.16526 0.22189 0.0
C1312 C 0.31201 0.17653 0.24092 0.0
C1313 C 0.32973 0.16593 0.21198 0.0
C1314 C 0.2925 0.16631 0.27714 0.0
C1315 C 0.29659 0.16844 0.26798 0.0
C1316 C 0.31333 0.15778 0.25008 0.0
C1317 C 0.31885 0.16987 0.22533 0.0
C1318 C 0.31586 0.16856 0.23574 0.0
C1319 C 0.30537 0.16402 0.26526 0.0
C1320 C 0.30933 0.16571 0.25523 0.0
H1321 H 0.31086 0.18019 0.20379 0.0
H1322 H 0.30652 0.17896 0.22108 0.0
H1323 H 0.31934 0.15285 0.23662 0.0
H1324 H 0.30972 0.1504 0.28616 0.0
H1325 H 0.31692 0.15422 0.27022 0.0
C1326 C 0.05311 0.08801 0.46556 0.0
C1327 C 0.05258 0.08086 0.45825 0.0
C1328 C 0.05712 0.0856 0.47471 0.0
C1329 C 0.07232 0.06706 0.48803 0.0
H1330 H 0.05697 0.0744 0.51047 0.0
C1331 C 0.0756 0.04709 0.5256 0.0
C1332 C 0.07444 0.0526 0.53412 0.0
C1333 C 0.07421 0.05155 0.51637 0.0
C1334 C 0.06145 0.07244 0.50432 0.0
H1335 H 0.05621 0.06569 0.4547 0.0
H1336 H 0.06315 0.06149 0.47066 0.0
H1337 H 0.05239 0.08046 0.49419 0.0
H1338 H 0.07122 0.06722 0.5396 0.0
H1339 H 0.06889 0.07503 0.52346 0.0
H1340 H 0.08127 0.05888 0.49816 0.0
C1341 C 0.06052 0.06897 0.4693 0.0
C1342 C 0.05882 0.07591 0.49497 0.0
C1343 C 0.05648 0.07137 0.46017 0.0
C1344 C 0.07211 0.06275 0.53319 0.0
C1345 C 0.07074 0.06721 0.52394 0.0
C1346 C 0.07497 0.0636 0.49739 0.0
C1347 C 0.06072 0.07601 0.47673 0.0
C1348 C 0.06412 0.07312 0.48671 0.0
C1349 C 0.07166 0.06163 0.51543 0.0
C1350 C 0.06946 0.0661 0.50562 0.0
H1351 H 0.05021 0.09541 0.46431 0.0
H1352 H 0.05728 0.09121 0.48024 0.0
H1353 H 0.07663 0.0649 0.48182 0.0
H1354 H 0.07738 0.03926 0.52604 0.0
H1355 H 0.07485 0.04699 0.50998 0.0
C1356 C 0.12212 0.82257 0.71971 0.0
C1357 C 0.12781 0.82243 0.71119 0.0
C1358 C 0.12543 0.82734 0.72805 0.0
C1359 C 0.14833 0.83522 0.73939 0.0
H1360 H 0.13134 0.84787 0.7579 0.0
C1361 C 0.16319 0.85287 0.77412 0.0
C1362 C 0.15852 0.85005 0.78289 0.0
C1363 C 0.15898 0.85091 0.76508 0.0
C1364 C 0.13615 0.84434 0.7528 0.0
H1365 H 0.14115 0.82768 0.70454 0.0
H1366 H 0.14678 0.83623 0.71896 0.0
H1367 H 0.1248 0.8421 0.74242 0.0
H1368 H 0.14553 0.84336 0.78903 0.0
H1369 H 0.13818 0.83994 0.77321 0.0
H1370 H 0.15965 0.8374 0.74976 0.0
C1371 C 0.1399 0.83241 0.71932 0.0
C1372 C 0.13242 0.84101 0.74394 0.0
C1373 C 0.13665 0.82756 0.71103 0.0
C1374 C 0.14934 0.8456 0.78241 0.0
C1375 C 0.1451 0.84369 0.77336 0.0
C1376 C 0.15206 0.83861 0.74818 0.0
C1377 C 0.13446 0.83215 0.72802 0.0
C1378 C 0.13845 0.83632 0.73716 0.0
C1379 C 0.14998 0.84613 0.7646 0.0
C1380 C 0.14601 0.84312 0.75503 0.0
H1381 H 0.11528 0.81867 0.72008 0.0
H1382 H 0.12108 0.8269 0.73463 0.0
H1383 H 0.15316 0.83146 0.73447 0.0
H1384 H 0.17024 0.85636 0.77422 0.0
H1385 H 0.16285 0.853 0.75846 0.0
C1386 C 0.42262 0.91304 0.96126 0.0
C1387 C 0.41675 0.91921 0.9553 0.0
C1388 C 0.42227 0.91365 0.97146 0.0
C1389 C 0.4064 0.92191 -0.00861 0.0
H1390 H 0.4298 0.92043 0.00701 0.0
C1391 C 0.40627 0.929 0.03286 0.0
C1392 C 0.41196 0.92269 0.03886 0.0
C1393 C 0.40703 0.92874 0.02267 0.0
C1394 C 0.42319 0.92075 0.00276 0.0
H1395 H 0.40603 0.93098 0.95539 0.0
H1396 H 0.40548 0.9321 0.97314 0.0
H1397 H 0.43086 0.91969 -0.01078 0.0
H1398 H 0.42293 0.91116 0.03884 0.0
H1399 H 0.42416 0.91063 0.02106 0.0
H1400 H 0.39872 0.92292 0.00491 0.0
C1401 C 0.41025 0.92669 0.96994 0.0
C1402 C 0.4238 0.92033 -0.00744 0.0
C1403 C 0.41061 0.92608 0.95976 0.0
C1404 C 0.41845 0.91614 0.03444 0.0
C1405 C 0.41921 0.91588 0.02424 0.0
C1406 C 0.40579 0.92232 0.00158 0.0
C1407 C 0.41603 0.92044 0.97592 0.0
C1408 C 0.41541 0.92091 0.98676 0.0
C1409 C 0.41349 0.92215 0.01824 0.0
C1410 C 0.41417 0.92176 0.00739 0.0
H1411 H 0.42742 0.90766 0.95806 0.0
H1412 H 0.42674 0.90867 0.97586 0.0
H1413 H 0.39979 0.92221 0.98715 0.0
H1414 H 0.40122 0.93417 0.03603 0.0
H1415 H 0.40261 0.93377 0.01827 0.0
C1416 C 0.30633 0.83218 0.19888 0.0
C1417 C 0.29798 0.82782 0.19499 0.0
C1418 C 0.30956 0.82948 0.20828 0.0
C1419 C 0.30701 0.81025 0.2281 0.0
H1420 H 0.31421 0.83175 0.24498 0.0
C1421 C 0.308 0.80618 0.27029 0.0
C1422 C 0.31529 0.81121 0.27535 0.0
C1423 C 0.30699 0.8075 0.26015 0.0
C1424 C 0.31238 0.82563 0.24033 0.0
H1425 H 0.28665 0.81698 0.19785 0.0
H1426 H 0.29222 0.81239 0.21422 0.0
H1427 H 0.31058 0.83531 0.22782 0.0
H1428 H 0.32745 0.82127 0.27367 0.0
H1429 H 0.32572 0.82351 0.256 0.0
H1430 H 0.30861 0.8006 0.2407 0.0
C1431 C 0.29634 0.81781 0.20999 0.0
C1432 C 0.3103 0.82767 0.23048 0.0
C1433 C 0.29311 0.8205 0.2006 0.0
C1434 C 0.32172 0.81734 0.27001 0.0
C1435 C 0.3207 0.81867 0.25989 0.0
C1436 C 0.30908 0.8082 0.23797 0.0
C1437 C 0.30453 0.82236 0.214 0.0
C1438 C 0.30747 0.82003 0.22427 0.0
C1439 C 0.31324 0.81388 0.25486 0.0
C1440 C 0.31167 0.81589 0.24422 0.0
H1441 H 0.31028 0.83781 0.19474 0.0
H1442 H 0.31597 0.83303 0.2111 0.0
H1443 H 0.305 0.80417 0.22348 0.0
H1444 H 0.30293 0.8014 0.27417 0.0
H1445 H 0.3011 0.80378 0.25652 0.0
C1446 C 0.41179 0.0481 0.51334 0.0
C1447 C 0.41685 0.05582 0.5178 0.0
C1448 C 0.4116 0.0474 0.50316 0.0
C1449 C 0.42413 0.05575 0.4805 0.0
H1450 H 0.39963 0.04964 0.46823 0.0
C1451 C 0.41781 0.06009 0.43876 0.0
C1452 C 0.4122 0.05282 0.43421 0.0
C1453 C 0.41872 0.06012 0.44895 0.0
C1454 C 0.40656 0.05122 0.47154 0.0
H1455 H 0.42584 0.06878 0.51503 0.0
H1456 H 0.42545 0.0676 0.49724 0.0
H1457 H 0.40065 0.05029 0.48599 0.0
H1458 H 0.40329 0.03977 0.43682 0.0
H1459 H 0.40495 0.03978 0.45459 0.0
H1460 H 0.43002 0.05674 0.46601 0.0
C1461 C 0.42169 0.06203 0.50164 0.0
C1462 C 0.40715 0.0516 0.48173 0.0
C1463 C 0.42187 0.06273 0.51184 0.0
C1464 C 0.40763 0.04551 0.44009 0.0
C1465 C 0.40854 0.04554 0.45028 0.0
C1466 C 0.42355 0.05537 0.47029 0.0
C1467 C 0.41648 0.0544 0.49718 0.0
C1468 C 0.41593 0.05388 0.48633 0.0
C1469 C 0.41404 0.05289 0.45483 0.0
C1470 C 0.41474 0.05312 0.46569 0.0
H1471 H 0.40788 0.04261 0.51771 0.0
H1472 H 0.40764 0.04134 0.49997 0.0
H1473 H 0.43104 0.0574 0.48382 0.0
H1474 H 0.42142 0.06584 0.43445 0.0
H1475 H 0.42292 0.06595 0.45222 0.0
C1476 C 0.17118 0.14089 0.70257 0.0
C1477 C 0.16297 0.14053 0.69652 0.0
C1478 C 0.17019 0.1414 0.71274 0.0
C1479 C 0.15262 0.13745 0.73301 0.0
H1480 H 0.1689 0.15615 0.74648 0.0
C1481 C 0.14398 0.15166 0.77159 0.0
C1482 C 0.15173 0.15307 0.77807 0.0
C1483 C 0.14569 0.14905 0.7619 0.0
C1484 C 0.16439 0.15078 0.74286 0.0
H1485 H 0.14729 0.14025 0.69642 0.0
H1486 H 0.14556 0.14128 0.71408 0.0
H1487 H 0.17133 0.15354 0.72908 0.0
H1488 H 0.16736 0.15253 0.77951 0.0
H1489 H 0.17031 0.14793 0.76263 0.0
H1490 H 0.14555 0.13486 0.74679 0.0
C1491 C 0.15277 0.14103 0.71101 0.0
C1492 C 0.16579 0.14928 0.73288 0.0
C1493 C 0.15376 0.14051 0.70087 0.0
C1494 C 0.16122 0.15155 0.7747 0.0
C1495 C 0.16292 0.14897 0.76502 0.0
C1496 C 0.1512 0.13897 0.74299 0.0
C1497 C 0.16097 0.14156 0.71707 0.0
C1498 C 0.15986 0.14267 0.72781 0.0
C1499 C 0.15518 0.14781 0.75847 0.0
C1500 C 0.15701 0.14573 0.74801 0.0
H1501 H 0.17838 0.14087 0.69946 0.0
H1502 H 0.17665 0.14166 0.7172 0.0
H1503 H 0.14802 0.13219 0.72936 0.0
H1504 H 0.13659 0.15276 0.77393 0.0
H1505 H 0.13958 0.14831 0.75702 0.0
C1506 C 0.09091 0.91557 0.95131 0.0
C1507 C 0.08575 0.91527 0.94245 0.0
C1508 C 0.08719 0.91104 0.95982 0.0
C1509 C 0.06373 0.90368 0.97039 0.0
H1510 H 0.07949 0.89191 -0.00889 0.0
C1511 C 0.04669 0.88883 0.00616 0.0
C1512 C 0.05116 0.89187 0.01483 0.0
C1513 C 0.05134 0.8901 -0.00285 0.0
C1514 C 0.07501 0.8952 0.98539 0.0
H1515 H 0.07297 0.90941 0.93544 0.0
H1516 H 0.0666 0.90133 0.95021 0.0
H1517 H 0.08695 0.89674 0.97549 0.0
H1518 H 0.0642 0.89826 0.02085 0.0
H1519 H 0.07228 0.90055 0.0051 0.0
H1520 H 0.05184 0.90231 0.9803 0.0
C1521 C 0.07339 0.90529 0.95065 0.0
C1522 C 0.07928 0.89798 0.97645 0.0
C1523 C 0.07707 0.90988 0.94217 0.0
C1524 C 0.06054 0.89586 0.01432 0.0
C1525 C 0.0652 0.89711 0.00529 0.0
C1526 C 0.05947 0.90088 0.97929 0.0
C1527 C 0.07826 0.90606 0.95964 0.0
C1528 C 0.0737 0.90235 0.96888 0.0
C1529 C 0.06057 0.89442 -0.00341 0.0
C1530 C 0.06507 0.89671 0.98693 0.0
H1531 H 0.09762 0.91967 0.95178 0.0
H1532 H 0.0911 0.91185 0.96662 0.0
H1533 H 0.05924 0.90721 0.96482 0.0
H1534 H 0.03949 0.88566 0.00629 0.0
H1535 H 0.04765 0.88781 -0.00942 0.0
C1536 C 0.26574 0.30481 0.12606 0.0
C1537 C 0.26425 0.29451 0.12564 0.0
C1538 C 0.25788 0.31132 0.12673 0.0
C1539 C 0.23123 0.31279 0.12328 0.0
H1540 H 0.23289 0.33393 0.14195 0.0
C1541 C 0.19775 0.33191 0.13939 0.0
C1542 C 0.19813 0.34218 0.14098 0.0
C1543 C 0.20592 0.32683 0.13618 0.0
C1544 C 0.23236 0.32817 0.13659 0.0
H1545 H 0.25331 0.28298 0.12545 0.0
H1546 H 0.23967 0.29425 0.12676 0.0
H1547 H 0.24706 0.32372 0.13883 0.0
H1548 H 0.20735 0.3552 0.14014 0.0
H1549 H 0.22162 0.3463 0.13454 0.0
H1550 H 0.21643 0.31708 0.12126 0.0
C1551 C 0.24689 0.29736 0.12641 0.0
C1552 C 0.24048 0.32231 0.13479 0.0
C1553 C 0.25473 0.29087 0.12574 0.0
C1554 C 0.20681 0.34729 0.13901 0.0
C1555 C 0.215 0.34219 0.13585 0.0
C1556 C 0.22309 0.31862 0.12511 0.0
C1557 C 0.24836 0.30765 0.12698 0.0
C1558 C 0.23998 0.31444 0.12824 0.0
C1559 C 0.21468 0.33188 0.13452 0.0
C1560 C 0.22352 0.32627 0.1319 0.0
H1561 H 0.27299 0.30786 0.12596 0.0
H1562 H 0.25927 0.31922 0.12704 0.0
H1563 H 0.23063 0.30692 0.11804 0.0
H1564 H 0.19119 0.32774 0.14082 0.0
H1565 H 0.20545 0.31887 0.13532 0.0
C1566 C 0.76252 0.17069 0.86531 0.0
C1567 C 0.76933 0.17254 0.85785 0.0
C1568 C 0.75429 0.16498 0.86354 0.0
C1569 C 0.74361 0.14721 0.84623 0.0
H1570 H 0.71925 0.15798 0.85516 0.0
C1571 C 0.70686 0.13626 0.8298 0.0
C1572 C 0.69877 0.13556 0.836 0.0
C1573 C 0.71574 0.13956 0.83333 0.0
C1574 C 0.72599 0.15476 0.85275 0.0
H1575 H 0.77297 0.16955 0.84276 0.0
H1576 H 0.75861 0.15969 0.83965 0.0
H1577 H 0.73434 0.16585 0.85983 0.0
H1578 H 0.69378 0.13748 0.85089 0.0
H1579 H 0.70932 0.14317 0.85707 0.0
H1580 H 0.73523 0.13623 0.83899 0.0
C1581 C 0.75966 0.16257 0.84691 0.0
C1582 C 0.73466 0.15928 0.85543 0.0
C1583 C 0.76788 0.16828 0.84867 0.0
C1584 C 0.69985 0.13797 0.8459 0.0
C1585 C 0.70874 0.14129 0.84943 0.0
C1586 C 0.73494 0.14268 0.84356 0.0
C1587 C 0.75269 0.16098 0.85427 0.0
C1588 C 0.74356 0.15564 0.85209 0.0
C1589 C 0.71676 0.14224 0.84315 0.0
C1590 C 0.72602 0.1465 0.84666 0.0
H1591 H 0.76344 0.17382 0.87248 0.0
H1592 H 0.74913 0.16378 0.86941 0.0
H1593 H 0.75036 0.14413 0.84366 0.0
H1594 H 0.7063 0.13446 0.82214 0.0
H1595 H 0.72173 0.14032 0.82826 0.0
C1596 C 0.0623 0.54159 0.08531 0.0
C1597 C 0.06 0.54888 0.07812 0.0
C1598 C 0.06695 0.53281 0.08273 0.0
C1599 C 0.08125 0.52126 0.0632 0.0
H1600 H 0.06931 0.49674 0.07245 0.0
C1601 C 0.08653 0.48437 0.04369 0.0
C1602 C 0.08677 0.47544 0.04923 0.0
C1603 C 0.08462 0.49337 0.04816 0.0
C1604 C 0.07287 0.50349 0.06994 0.0
H1605 H 0.06112 0.5528 0.06266 0.0
H1606 H 0.06924 0.53751 0.0582 0.0
H1607 H 0.0637 0.51254 0.07866 0.0
H1608 H 0.08547 0.469 0.06389 0.0
H1609 H 0.08226 0.48477 0.07173 0.0
H1610 H 0.09034 0.51225 0.05438 0.0
C1611 C 0.06747 0.5386 0.06582 0.0
C1612 C 0.06964 0.51255 0.0735 0.0
C1613 C 0.06276 0.54733 0.06837 0.0
C1614 C 0.08529 0.47575 0.0594 0.0
C1615 C 0.0834 0.48478 0.06388 0.0
C1616 C 0.08453 0.5122 0.05969 0.0
C1617 C 0.06947 0.53117 0.07294 0.0
C1618 C 0.07366 0.52154 0.07 0.0
C1619 C 0.08294 0.49368 0.05829 0.0
C1620 C 0.08023 0.50321 0.06285 0.0
H1621 H 0.06029 0.54255 0.09288 0.0
H1622 H 0.06848 0.52724 0.08839 0.0
H1623 H 0.08459 0.52806 0.06049 0.0
H1624 H 0.08762 0.48441 0.03584 0.0
H1625 H 0.08417 0.50004 0.04359 0.0
C1626 C 0.75745 0.85174 0.31529 0.0
C1627 C 0.76593 0.84984 0.3207 0.0
C1628 C 0.74838 0.85053 0.31964 0.0
C1629 C 0.73661 0.83666 0.33986 0.0
H1630 H 0.71448 0.85298 0.33266 0.0
C1631 C 0.69862 0.82781 0.35484 0.0
C1632 C 0.69125 0.82766 0.34775 0.0
C1633 C 0.70762 0.83203 0.35261 0.0
C1634 C 0.7206 0.84835 0.33473 0.0
H1635 H 0.77154 0.84564 0.33504 0.0
H1636 H 0.75569 0.84365 0.34267 0.0
H1637 H 0.73058 0.85774 0.3269 0.0
H1638 H 0.68742 0.83226 0.33291 0.0
H1639 H 0.70311 0.83955 0.32903 0.0
H1640 H 0.72664 0.82717 0.34751 0.0
C1641 C 0.75606 0.8459 0.33502 0.0
C1642 C 0.72981 0.85106 0.33142 0.0
C1643 C 0.76514 0.84709 0.33066 0.0
C1644 C 0.69294 0.83223 0.33854 0.0
C1645 C 0.70192 0.83646 0.33633 0.0
C1646 C 0.72742 0.83397 0.34319 0.0
C1647 C 0.74756 0.84742 0.32951 0.0
C1648 C 0.73791 0.84515 0.33381 0.0
C1649 C 0.70943 0.83622 0.34327 0.0
C1650 C 0.71928 0.83968 0.34052 0.0
H1651 H 0.75779 0.85388 0.30761 0.0
H1652 H 0.742 0.85165 0.31515 0.0
H1653 H 0.74265 0.83184 0.34172 0.0
H1654 H 0.69756 0.82441 0.36202 0.0
H1655 H 0.71321 0.83185 0.35816 0.0
C1656 C 0.93119 0.9474 0.05549 0.0
C1657 C 0.92181 0.94338 0.0556 0.0
C1658 C 0.93264 0.95748 0.05329 0.0
C1659 C 0.92088 0.97976 0.04206 0.0
H1660 H 0.93845 -0.00587 0.05868 0.0
C1661 C 0.92084 0.02253 0.04428 0.0
C1662 C 0.92976 0.02738 0.04534 0.0
C1663 C 0.92035 0.01216 0.04451 0.0
C1664 C 0.93363 -0.00979 0.05386 0.0
H1665 H 0.90662 0.94679 0.05328 0.0
H1666 H 0.90916 0.96436 0.04956 0.0
H1667 H 0.93678 0.97622 0.06091 0.0
H1668 H 0.9452 0.02513 0.04713 0.0
H1669 H 0.94434 0.00705 0.04744 0.0
H1670 H 0.91762 -0.0062 0.03512 0.0
C1671 C 0.91541 0.9597 0.05106 0.0
C1672 C 0.93267 0.97993 0.05515 0.0
C1673 C 0.91395 0.94963 0.05327 0.0
C1674 C 0.9382 0.02163 0.04636 0.0
C1675 C 0.93771 0.01126 0.04659 0.0
C1676 C 0.92183 -0.00996 0.04078 0.0
C1677 C 0.92476 0.96377 0.05113 0.0
C1678 C 0.92621 0.9746 0.04933 0.0
C1679 C 0.92876 0.0064 0.0458 0.0
C1680 C 0.92815 -0.0046 0.04673 0.0
H1681 H 0.9374 0.94278 0.05721 0.0
H1682 H 0.93995 0.96036 0.05329 0.0
H1683 H 0.91595 0.97584 0.03736 0.0
H1684 H 0.91419 0.02673 0.04348 0.0
H1685 H 0.91333 0.00865 0.04398 0.0
C1686 C 0.27901 0.66055 0.6441 0.0
C1687 C 0.28461 0.65908 0.65259 0.0
C1688 C 0.26909 0.65864 0.64423 0.0
C1689 C 0.24855 0.65704 0.66132 0.0
H1690 H 0.235 0.64775 0.63844 0.0
C1691 C 0.20697 0.65419 0.6602 0.0
C1692 C 0.20272 0.65891 0.65197 0.0
C1693 C 0.2169 0.65222 0.66041 0.0
C1694 C 0.23869 0.65034 0.64488 0.0
H1695 H 0.28426 0.65408 0.6678 0.0
H1696 H 0.26695 0.65059 0.66799 0.0
H1697 H 0.25265 0.64779 0.63867 0.0
H1698 H 0.20549 0.66482 0.63732 0.0
H1699 H 0.22277 0.66136 0.63768 0.0
H1700 H 0.23459 0.65973 0.66745 0.0
C1701 C 0.2702 0.6534 0.66127 0.0
C1702 C 0.24879 0.65039 0.64501 0.0
C1703 C 0.28013 0.65536 0.66115 0.0
C1704 C 0.20854 0.66121 0.64379 0.0
C1705 C 0.21843 0.65917 0.64397 0.0
C1706 C 0.23845 0.65692 0.6612 0.0
C1707 C 0.26453 0.65516 0.65285 0.0
C1708 C 0.25385 0.65397 0.65314 0.0
C1709 C 0.22275 0.65484 0.65235 0.0
C1710 C 0.23342 0.65378 0.6529 0.0
H1711 H 0.28223 0.66342 0.63738 0.0
H1712 H 0.26495 0.66023 0.63765 0.0
H1713 H 0.25218 0.65996 0.66765 0.0
H1714 H 0.20269 0.6523 0.66662 0.0
H1715 H 0.22002 0.64879 0.66693 0.0
C1716 C 0.06289 0.43558 0.39133 0.0
C1717 C 0.06117 0.42809 0.39847 0.0
C1718 C 0.06739 0.44446 0.39385 0.0
C1719 C 0.08236 0.45602 0.41288 0.0
H1720 H 0.06933 0.48037 0.40477 0.0
C1721 C 0.08773 0.4926 0.4329 0.0
C1722 C 0.08747 0.50164 0.42755 0.0
C1723 C 0.08579 0.48366 0.42834 0.0
C1724 C 0.07319 0.47368 0.40695 0.0
H1725 H 0.06318 0.4239 0.41378 0.0
H1726 H 0.07105 0.43934 0.41814 0.0
H1727 H 0.06383 0.46456 0.39851 0.0
H1728 H 0.08525 0.50835 0.41313 0.0
H1729 H 0.08198 0.49269 0.40511 0.0
H1730 H 0.09164 0.46509 0.42142 0.0
C1731 C 0.06894 0.43835 0.41059 0.0
C1732 C 0.07002 0.46461 0.40337 0.0
C1733 C 0.06437 0.42953 0.4081 0.0
C1734 C 0.08546 0.50152 0.41747 0.0
C1735 C 0.08354 0.49254 0.41289 0.0
C1736 C 0.08557 0.46509 0.41642 0.0
C1737 C 0.07036 0.44598 0.40354 0.0
C1738 C 0.07443 0.45566 0.40646 0.0
C1739 C 0.08358 0.48351 0.4183 0.0
C1740 C 0.08088 0.47401 0.41368 0.0
H1741 H 0.06053 0.43471 0.38384 0.0
H1742 H 0.06847 0.45018 0.38824 0.0
H1743 H 0.086 0.44926 0.41527 0.0
H1744 H 0.08923 0.49241 0.44068 0.0
H1745 H 0.08573 0.47688 0.43278 0.0
C1746 C 0.41519 0.45426 0.91268 0.0
C1747 C 0.40554 0.45112 0.91183 0.0
C1748 C 0.4178 0.46401 0.91015 0.0
C1749 C 0.40943 0.48693 0.89701 0.0
H1750 H 0.42549 0.50017 0.91595 0.0
C1751 C 0.41125 0.52953 0.89969 0.0
C1752 C 0.42012 0.53394 0.90211 0.0
C1753 C 0.41032 0.5192 0.89964 0.0
C1754 C 0.42114 0.49656 0.91049 0.0
H1755 H 0.39115 0.45566 0.90725 0.0
H1756 H 0.39568 0.47268 0.90293 0.0
H1757 H 0.42237 0.48245 0.91792 0.0
H1758 H 0.43505 0.53095 0.90607 0.0
H1759 H 0.43343 0.5129 0.90591 0.0
H1760 H 0.40805 0.50111 0.8897 0.0
C1761 C 0.40125 0.46759 0.90548 0.0
C1762 C 0.41935 0.48639 0.91162 0.0
C1763 C 0.39864 0.45784 0.90801 0.0
C1764 C 0.4281 0.52779 0.90423 0.0
C1765 C 0.42717 0.51745 0.90418 0.0
C1766 C 0.41123 0.49711 0.89588 0.0
C1767 C 0.41082 0.47085 0.9067 0.0
C1768 C 0.41336 0.48148 0.90498 0.0
C1769 C 0.41823 0.51303 0.90201 0.0
C1770 C 0.41699 0.50207 0.90269 0.0
H1771 H 0.4207 0.44926 0.91553 0.0
H1772 H 0.42526 0.46625 0.91103 0.0
H1773 H 0.40491 0.48333 0.89168 0.0
H1774 H 0.40495 0.53404 0.89802 0.0
H1775 H 0.40331 0.51606 0.89806 0.0
C1776 C 0.8106 0.69253 0.64102 0.0
C1777 C 0.81469 0.6874 0.63321 0.0
C1778 C 0.81148 0.70285 0.64149 0.0
C1779 C 0.81596 0.72515 0.62585 0.0
H1780 H 0.82111 0.73777 0.6505 0.0
C1781 C 0.81448 0.7678 0.62992 0.0
C1782 C 0.82177 0.77208 0.63559 0.0
C1783 C 0.81343 0.75747 0.62973 0.0
C1784 C 0.81972 0.73436 0.64355 0.0
H1785 H 0.82288 0.68906 0.61974 0.0
H1786 H 0.8245 0.70705 0.6206 0.0
H1787 H 0.81995 0.71972 0.65003 0.0
H1788 H 0.8338 0.76888 0.64536 0.0
H1789 H 0.83205 0.75089 0.64494 0.0
H1790 H 0.81591 0.73977 0.61933 0.0
C1791 C 0.82055 0.70312 0.62633 0.0
C1792 C 0.81896 0.72402 0.6433 0.0
C1793 C 0.81966 0.69281 0.62587 0.0
C1794 C 0.82807 0.76581 0.64096 0.0
C1795 C 0.82701 0.7555 0.64078 0.0
C1796 C 0.8167 0.73549 0.6261 0.0
C1797 C 0.81641 0.70828 0.63412 0.0
C1798 C 0.81711 0.71929 0.63443 0.0
C1799 C 0.81967 0.7512 0.63518 0.0
C1800 C 0.81863 0.74022 0.63495 0.0
H1801 H 0.80639 0.68865 0.64657 0.0
H1802 H 0.80806 0.70661 0.64748 0.0
H1803 H 0.8144 0.72176 0.61892 0.0
H1804 H 0.80971 0.77238 0.62546 0.0
H1805 H 0.80768 0.7544 0.62535 0.0
C1806 C 0.00226 0.07794 0.41748 0.0
C1807 C 0.00513 0.08215 0.42633 0.0
C1808 C -0.00753 0.07756 0.4149 0.0
C1809 C 0.96802 0.07858 0.42584 0.0
H1810 H 0.95967 0.08457 0.39926 0.0
C1811 C 0.92786 0.07639 0.41491 0.0
C1812 C 0.92435 0.08435 0.40909 0.0
C1813 C 0.9378 0.07506 0.41627 0.0
C1814 C 0.96188 0.08289 0.40672 0.0
H1815 H -1e-05 0.08945 0.43932 0.0
H1816 H 0.98301 0.08893 0.43478 0.0
H1817 H 0.97688 0.08468 0.4032 0.0
H1818 H 0.9285 0.09712 0.40009 0.0
H1819 H 0.94582 0.09492 0.40258 0.0
H1820 H 0.95305 0.07715 0.42947 0.0
C1821 C 0.98827 0.08573 0.4299 0.0
C1822 C 0.97175 0.08286 0.40896 0.0
C1823 C -0.00197 0.0861 0.43247 0.0
C1824 C 0.93099 0.09087 0.40457 0.0
C1825 C 0.94092 0.08956 0.40593 0.0
C1826 C 0.95817 0.07862 0.42361 0.0
C1827 C 0.98536 0.08138 0.42114 0.0
C1828 C 0.97493 0.08085 0.41858 0.0
C1829 C 0.94445 0.08171 0.41191 0.0
C1830 C 0.95497 0.0809 0.41405 0.0
H1831 H 0.00755 0.07481 0.41259 0.0
H1832 H -0.00954 0.07409 0.40813 0.0
H1833 H 0.97023 0.07684 0.4333 0.0
H1834 H 0.92295 0.07144 0.41878 0.0
H1835 H 0.94028 0.06891 0.42088 0.0
C1836 C 0.65592 0.20193 0.14059 0.0
C1837 C 0.65257 0.19407 0.14664 0.0
C1838 C 0.65233 0.21154 0.14163 0.0
C1839 C 0.64151 0.22711 0.16034 0.0
H1840 H 0.6393 0.24628 0.1388 0.0
C1841 C 0.63378 0.26827 0.1673 0.0
C1842 C 0.64003 0.27497 0.16243 0.0
C1843 C 0.63325 0.25837 0.1645 0.0
C1844 C 0.63989 0.24101 0.14489 0.0
H1845 H 0.64239 0.19004 0.15813 0.0
H1846 H 0.63603 0.20681 0.15987 0.0
H1847 H 0.64191 0.22875 0.1354 0.0
H1848 H 0.65023 0.27665 0.15045 0.0
H1849 H 0.64937 0.25939 0.14563 0.0
H1850 H 0.63976 0.23935 0.16984 0.0
C1851 C 0.64158 0.20556 0.15444 0.0
C1852 C 0.64139 0.23097 0.14295 0.0
C1853 C 0.64519 0.19594 0.15341 0.0
C1854 C 0.64537 0.27168 0.15438 0.0
C1855 C 0.64483 0.26178 0.15157 0.0
C1856 C 0.63999 0.23712 0.16228 0.0
C1857 C 0.64527 0.21352 0.14872 0.0
C1858 C 0.64243 0.22394 0.15066 0.0
C1859 C 0.63894 0.25497 0.15675 0.0
C1860 C 0.63937 0.24422 0.15459 0.0
H1861 H 0.66159 0.20076 0.13527 0.0
H1862 H 0.65542 0.21749 0.13717 0.0
H1863 H 0.64242 0.22193 0.16647 0.0
H1864 H 0.6295 0.27058 0.17349 0.0
H1865 H 0.62854 0.25333 0.16854 0.0
C1866 C 0.51057 0.89788 0.90421 0.0
C1867 C 0.5152 0.90604 0.89963 0.0
C1868 C 0.50046 0.89747 0.90473 0.0
C1869 C 0.47909 0.91387 0.90386 0.0
H1870 H 0.46478 0.8896 0.89962 0.0
C1871 C 0.43796 0.91194 0.90985 0.0
C1872 C 0.43257 0.90727 0.90257 0.0
C1873 C 0.44802 0.91104 0.91013 0.0
C1874 C 0.46868 0.89644 0.9008 0.0
H1875 H 0.51283 0.92001 0.89173 0.0
H1876 H 0.49528 0.91924 0.89255 0.0
H1877 H 0.48242 0.88953 0.89843 0.0
H1878 H 0.43349 0.89795 0.8899 0.0
H1879 H 0.45108 0.89645 0.89032 0.0
H1880 H 0.4654 0.92086 0.90598 0.0
C1881 C 0.49944 0.91324 0.8959 0.0
C1882 C 0.47878 0.89637 0.9002 0.0
C1883 C 0.50951 0.91365 0.89538 0.0
C1884 C 0.43745 0.90158 0.89564 0.0
C1885 C 0.44752 0.90066 0.89593 0.0
C1886 C 0.46901 0.91393 0.90447 0.0
C1887 C 0.4948 0.90522 0.9007 0.0
C1888 C 0.48409 0.90512 0.90163 0.0
C1889 C 0.45293 0.9055 0.9031 0.0
C1890 C 0.46368 0.90523 0.90289 0.0
H1891 H 0.51474 0.89189 0.90757 0.0
H1892 H 0.4971 0.89121 0.90852 0.0
H1893 H 0.48296 0.9207 0.90513 0.0
H1894 H 0.43447 0.91666 0.91507 0.0
H1895 H 0.45197 0.91482 0.91578 0.0
C1896 C 0.8166 0.22255 0.85469 0.0
C1897 C 0.80858 0.22091 0.86083 0.0
C1898 C 0.81974 0.2322 0.85243 0.0
C1899 C 0.81047 0.25776 0.85077 0.0
H1900 H 0.83744 0.26438 0.84646 0.0
C1901 C 0.82218 0.29123 0.82684 0.0
C1902 C 0.83023 0.29683 0.82968 0.0
C1903 C 0.81968 0.28251 0.83195 0.0
C1904 C 0.82988 0.2627 0.84775 0.0
H1905 H 0.79784 0.22814 0.86978 0.0
H1906 H 0.80338 0.24497 0.86592 0.0
H1907 H 0.83315 0.24812 0.85346 0.0
H1908 H 0.84191 0.2977 0.84023 0.0
H1909 H 0.8375 0.28242 0.8492 0.0
H1910 H 0.80719 0.2723 0.84504 0.0
C1911 C 0.80714 0.23879 0.86272 0.0
C1912 C 0.82742 0.25334 0.85166 0.0
C1913 C 0.804 0.22913 0.86496 0.0
C1914 C 0.83567 0.29356 0.83784 0.0
C1915 C 0.83317 0.28478 0.84295 0.0
C1916 C 0.81293 0.2671 0.84686 0.0
C1917 C 0.81494 0.24045 0.85628 0.0
C1918 C 0.81767 0.2507 0.85306 0.0
C1919 C 0.82516 0.27915 0.84003 0.0
C1920 C 0.82265 0.26961 0.84513 0.0
H1921 H 0.82031 0.2164 0.85138 0.0
H1922 H 0.8257 0.2332 0.84736 0.0
H1923 H 0.80288 0.25596 0.85166 0.0
H1924 H 0.81782 0.29351 0.82059 0.0
H1925 H 0.81356 0.27827 0.82941 0.0
C1926 C 0.43337 0.07448 0.57874 0.0
C1927 C 0.42893 0.06895 0.5714 0.0
C1928 C 0.44345 0.07498 0.57941 0.0
C1929 C 0.46513 0.06076 0.57298 0.0
H1930 H 0.47885 0.08466 0.57999 0.0
C1931 C 0.50481 0.05946 0.58528 0.0
C1932 C 0.51106 0.06677 0.58138 0.0
C1933 C 0.49482 0.0603 0.58403 0.0
C1934 C 0.47513 0.07795 0.57797 0.0
H1935 H 0.43163 0.05941 0.55916 0.0
H1936 H 0.44916 0.06052 0.56011 0.0
H1937 H 0.46138 0.0853 0.57727 0.0
H1938 H 0.51167 0.08084 0.57333 0.0
H1939 H 0.49419 0.08227 0.5711 0.0
H1940 H 0.47883 0.05341 0.57359 0.0
C1941 C 0.44486 0.0645 0.56535 0.0
C1942 C 0.46512 0.07829 0.57649 0.0
C1943 C 0.43479 0.06401 0.56468 0.0
C1944 C 0.50706 0.07508 0.57643 0.0
C1945 C 0.49704 0.07592 0.57518 0.0
C1946 C 0.47511 0.06041 0.57448 0.0
C1947 C 0.44931 0.06987 0.5728 0.0
C1948 C 0.46 0.06969 0.57402 0.0
C1949 C 0.49082 0.06846 0.57884 0.0
C1950 C 0.48022 0.06898 0.57706 0.0
H1951 H 0.42904 0.07831 0.58407 0.0
H1952 H 0.44664 0.07909 0.58531 0.0
H1953 H 0.46141 0.05397 0.5712 0.0
H1954 H 0.50763 0.05299 0.5892 0.0
H1955 H 0.49022 0.05451 0.58711 0.0
C1956 C 0.64686 0.70257 0.3227 0.0
C1957 C 0.64691 0.70229 0.31243 0.0
C1958 C 0.64681 0.71166 0.32744 0.0
C1959 C 0.64293 0.73887 0.32311 0.0
H1960 H 0.66037 0.74124 0.34514 0.0
C1961 C 0.64985 0.77671 0.34078 0.0
C1962 C 0.65958 0.77882 0.34284 0.0
C1963 C 0.64702 0.76707 0.33849 0.0
C1964 C 0.65548 0.74072 0.33898 0.0
H1965 H 0.64671 0.71134 0.29907 0.0
H1966 H 0.64686 0.72712 0.30726 0.0
H1967 H 0.65767 0.72505 0.33814 0.0
H1968 H 0.67391 0.77239 0.3444 0.0
H1969 H 0.66904 0.75573 0.34021 0.0
H1970 H 0.64119 0.75462 0.32358 0.0
C1971 C 0.64666 0.72035 0.31171 0.0
C1972 C 0.65382 0.73139 0.33505 0.0
C1973 C 0.64665 0.71128 0.307 0.0
C1974 C 0.66635 0.77103 0.34286 0.0
C1975 C 0.66353 0.76143 0.34052 0.0
C1976 C 0.64465 0.7482 0.327 0.0
C1977 C 0.64686 0.72068 0.32199 0.0
C1978 C 0.6477 0.73038 0.32692 0.0
C1979 C 0.65386 0.75934 0.33818 0.0
C1980 C 0.65112 0.74928 0.33484 0.0
H1981 H 0.64699 0.69576 0.3271 0.0
H1982 H 0.64681 0.71163 0.33536 0.0
H1983 H 0.63802 0.73834 0.31697 0.0
H1984 H 0.64445 0.78254 0.34076 0.0
H1985 H 0.63948 0.7657 0.33686 0.0
C1986 C 0.92153 0.88204 0.06393 0.0
C1987 C 0.91792 0.89102 0.06746 0.0
C1988 C 0.93129 0.8811 0.06151 0.0
C1989 C 0.95527 0.8918 0.0664 0.0
H1990 H 0.96265 0.87829 0.04282 0.0
C1991 C -0.00544 0.89135 0.05178 0.0
C1992 C -0.00213 0.88255 0.04758 0.0
C1993 C 0.98488 0.89232 0.05457 0.0
C1994 C 0.96072 0.88197 0.0495 0.0
H1995 H 0.92183 0.90589 0.07169 0.0
H1996 H 0.93882 0.90437 0.06721 0.0
H1997 H 0.94559 0.88024 0.04676 0.0
H1998 H -0.00631 0.86774 0.04334 0.0
H1999 H 0.97689 0.86937 0.04834 0.0
H2000 H 0.97042 0.8935 0.06916 0.0
C2001 C 0.93409 0.89806 0.06626 0.0
C2002 C 0.95094 0.8831 0.05175 0.0
C2003 C 0.9243 0.89901 0.06865 0.0
C2004 C -0.00863 0.87465 0.04649 0.0
C2005 C 0.98171 0.87561 0.0493 0.0
C2006 C 0.96507 0.89065 0.06417 0.0
C2007 C 0.93769 0.8891 0.06266 0.0
C2008 C 0.9481 0.88802 0.06023 0.0
C2009 C 0.97831 0.8845 0.05324 0.0
C2010 C 0.96791 0.8857 0.05569 0.0
H2011 H 0.91679 0.87573 0.06303 0.0
H2012 H 0.93387 0.87405 0.05889 0.0
H2013 H 0.95332 0.8955 0.07307 0.0
H2014 H -0.00062 0.89759 0.0527 0.0
H2015 H 0.9825 0.8993 0.0575 0.0
C2016 C 0.65378 0.83434 0.69261 0.0
C2017 C 0.66305 0.83714 0.68936 0.0
C2018 C 0.65115 0.83537 0.70241 0.0
C2019 C 0.65859 0.8469 0.7258 0.0
H2020 H 0.6462 0.82373 0.73758 0.0
C2021 C 0.66091 0.83645 0.76694 0.0
C2022 C 0.65289 0.83188 0.77148 0.0
C2023 C 0.66077 0.8388 0.75692 0.0
C2024 C 0.64949 0.83035 0.7344 0.0
H2025 H 0.67665 0.84367 0.69378 0.0
H2026 H 0.67215 0.8453 0.71085 0.0
H2027 H 0.64836 0.82479 0.71994 0.0
H2028 H 0.63823 0.82671 0.76915 0.0
H2029 H 0.63799 0.83085 0.75167 0.0
H2030 H 0.66003 0.85226 0.74037 0.0
C2031 C 0.66684 0.84242 0.70583 0.0
C2032 C 0.65073 0.83096 0.72426 0.0
C2033 C 0.66946 0.84142 0.69603 0.0
C2034 C 0.64456 0.83016 0.76587 0.0
C2035 C 0.64443 0.83249 0.75585 0.0
C2036 C 0.65739 0.84626 0.73596 0.0
C2037 C 0.65774 0.83921 0.7092 0.0
C2038 C 0.65546 0.83916 0.71984 0.0
C2039 C 0.65262 0.83662 0.75121 0.0
C2040 C 0.65297 0.83789 0.74038 0.0
H2041 H 0.64863 0.83109 0.68764 0.0
H2042 H 0.64401 0.83298 0.70472 0.0
H2043 H 0.66212 0.85339 0.72262 0.0
H2044 H 0.66743 0.83791 0.77105 0.0
H2045 H 0.66722 0.84191 0.75357 0.0
C2046 C 0.9067 0.88589 0.439 0.0
C2047 C 0.90346 0.89327 0.43232 0.0
C2048 C 0.90552 0.88703 0.44906 0.0
C2049 C 0.90204 0.90601 0.46761 0.0
H2050 H 0.89559 0.88326 0.48431 0.0
C2051 C 0.89859 0.90915 0.50956 0.0
C2052 C 0.90341 0.90171 0.51509 0.0
C2053 C 0.89716 0.9081 0.4995 0.0
C2054 C 0.89743 0.88968 0.47975 0.0
H2055 H 0.89589 0.90733 0.43095 0.0
H2056 H 0.89401 0.90943 0.44855 0.0
H2057 H 0.89585 0.88156 0.46658 0.0
H2058 H 0.91016 0.8872 0.51446 0.0
H2059 H 0.90773 0.88542 0.49696 0.0
H2060 H 0.9038 0.91409 0.48079 0.0
C2061 C 0.89766 0.90287 0.446 0.0
C2062 C 0.89759 0.8887 0.46959 0.0
C2063 C 0.89882 0.90172 0.43591 0.0
C2064 C 0.90644 0.89307 0.51042 0.0
C2065 C 0.90499 0.89202 0.50038 0.0
C2066 C 0.90188 0.90699 0.47777 0.0
C2067 C 0.90102 0.89554 0.45268 0.0
C2068 C 0.90006 0.89681 0.46341 0.0
C2069 C 0.90048 0.89959 0.49477 0.0
C2070 C 0.89973 0.89879 0.48396 0.0
H2071 H 0.91028 0.87928 0.43646 0.0
H2072 H 0.90831 0.8813 0.45401 0.0
H2073 H 0.90406 0.91238 0.46306 0.0
H2074 H 0.89613 0.91589 0.51294 0.0
H2075 H 0.89355 0.91401 0.4954 0.0
C2076 C 0.83981 0.16642 0.18445 0.0
C2077 C 0.83121 0.16736 0.17903 0.0
C2078 C 0.8396 0.16626 0.19468 0.0
C2079 C 0.82475 0.17494 0.21501 0.0
H2080 H 0.84233 0.1589 0.23089 0.0
C2081 C 0.83355 0.18441 0.25472 0.0
C2082 C 0.83423 0.17662 0.26171 0.0
C2083 C 0.8327 0.18243 0.24478 0.0
C2084 C 0.8373 0.16335 0.22657 0.0
H2085 H 0.81567 0.16907 0.18009 0.0
H2086 H 0.81526 0.16849 0.19792 0.0
H2087 H 0.84147 0.15645 0.21326 0.0
H2088 H 0.83464 0.16059 0.26374 0.0
H2089 H 0.83313 0.15713 0.24631 0.0
H2090 H 0.82057 0.18184 0.22828 0.0
C2091 C 0.82217 0.16785 0.19427 0.0
C2092 C 0.83688 0.16201 0.21646 0.0
C2093 C 0.82238 0.16801 0.18404 0.0
C2094 C 0.83413 0.16677 0.25853 0.0
C2095 C 0.8333 0.16478 0.24855 0.0
C2096 C 0.82518 0.17628 0.22509 0.0
C2097 C 0.83079 0.16711 0.19971 0.0
C2098 C 0.83069 0.16789 0.21054 0.0
C2099 C 0.83252 0.1726 0.24158 0.0
C2100 C 0.83157 0.17061 0.23097 0.0
H2101 H 0.84673 0.16597 0.18079 0.0
H2102 H 0.84639 0.16584 0.19863 0.0
H2103 H 0.81997 0.17966 0.21067 0.0
H2104 H 0.83364 0.19209 0.2569 0.0
H2105 H 0.83229 0.18863 0.23959 0.0
C2106 C 0.56687 0.06804 0.03945 0.0
C2107 C 0.57146 0.076 0.04399 0.0
C2108 C 0.56923 0.06563 0.02984 0.0
C2109 C 0.58875 0.06826 0.0116 0.0
H2110 H 0.56883 0.06078 -0.00678 0.0
C2111 C 0.59771 0.05972 0.97142 0.0
C2112 C 0.59326 0.05126 0.96761 0.0
C2113 C 0.59466 0.06352 0.98034 0.0
C2114 C 0.57449 0.06278 -0.00171 0.0
H2115 H 0.58219 0.08761 0.04208 0.0
H2116 H 0.58628 0.08343 0.02532 0.0
H2117 H 0.5643 0.06576 0.00965 0.0
H2118 H 0.58193 0.04035 0.97009 0.0
H2119 H 0.57671 0.04691 0.98564 0.0
H2120 H 0.59895 0.06514 0.00033 0.0
C2121 C 0.58088 0.07902 0.02917 0.0
C2122 C 0.57189 0.06563 0.0077 0.0
C2123 C 0.57852 0.08143 0.03877 0.0
C2124 C 0.58552 0.04688 0.9728 0.0
C2125 C 0.58248 0.05068 0.9817 0.0
C2126 C 0.59135 0.06539 0.0022 0.0
C2127 C 0.57628 0.07108 0.0246 0.0
C2128 C 0.57899 0.06834 0.01449 0.0
C2129 C 0.58709 0.05897 0.98565 0.0
C2130 C 0.58426 0.06255 -0.00455 0.0
H2131 H 0.56169 0.06346 0.04339 0.0
H2132 H 0.5657 0.05933 0.0266 0.0
H2133 H 0.59441 0.07016 0.0167 0.0
H2134 H 0.60367 0.0633 0.9676 0.0
H2135 H 0.59828 0.07001 0.98311 0.0
C2136 C 0.6695 0.12142 0.77641 0.0
C2137 C 0.66472 0.12452 0.78488 0.0
C2138 C 0.66517 0.12259 0.76722 0.0
C2139 C 0.647 0.13796 0.75429 0.0
H2140 H 0.65111 0.11925 0.73357 0.0
C2141 C 0.63262 0.14557 0.71521 0.0
C2142 C 0.63941 0.14419 0.70769 0.0
C2143 C 0.63443 0.1419 0.7247 0.0
C2144 C 0.64992 0.12455 0.73928 0.0
H2145 H 0.65146 0.13093 0.79038 0.0
H2146 H 0.64383 0.13288 0.77432 0.0
H2147 H 0.65649 0.11506 0.75019 0.0
H2148 H 0.6532 0.13749 0.70418 0.0
H2149 H 0.65636 0.13114 0.72072 0.0
H2150 H 0.6406 0.14753 0.74335 0.0
C2151 C 0.65101 0.12968 0.77478 0.0
C2152 C 0.65301 0.12217 0.7488 0.0
C2153 C 0.65536 0.12851 0.78399 0.0
C2154 C 0.64783 0.1387 0.70979 0.0
C2155 C 0.64962 0.135 0.71927 0.0
C2156 C 0.64388 0.14034 0.74478 0.0
C2157 C 0.65593 0.12687 0.76627 0.0
C2158 C 0.65175 0.12892 0.75638 0.0
C2159 C 0.64304 0.13674 0.72688 0.0
C2160 C 0.64547 0.13374 0.73713 0.0
H2161 H 0.67672 0.11831 0.77683 0.0
H2162 H 0.66923 0.12047 0.76083 0.0
H2163 H 0.64603 0.14341 0.7599 0.0
H2164 H 0.62603 0.14972 0.71383 0.0
H2165 H 0.62916 0.14324 0.73037 0.0
C2166 C 0.57697 0.9196 0.45234 0.0
C2167 C 0.57817 0.91081 0.44715 0.0
C2168 C 0.58167 0.92087 0.46127 0.0
C2169 C 0.59256 0.90682 0.48191 0.0
H2170 H 0.60249 0.93271 0.48857 0.0
C2171 C 0.59932 0.91864 0.52163 0.0
C2172 C 0.60692 0.92527 0.52349 0.0
C2173 C 0.59726 0.91585 0.51207 0.0
C2174 C 0.5999 0.92538 0.4868 0.0
H2175 H 0.5854 0.8965 0.44722 0.0
H2176 H 0.59367 0.89876 0.4628 0.0
H2177 H 0.59633 0.93006 0.47216 0.0
H2178 H 0.61868 0.93365 0.51681 0.0
H2179 H 0.61516 0.92866 0.50016 0.0
H2180 H 0.59612 0.90217 0.49658 0.0
C2181 C 0.589 0.90462 0.45999 0.0
C2182 C 0.59625 0.9239 0.47742 0.0
C2183 C 0.58429 0.90336 0.45104 0.0
C2184 C 0.61272 0.92861 0.51564 0.0
C2185 C 0.61067 0.9258 0.50608 0.0
C2186 C 0.59622 0.90831 0.49131 0.0
C2187 C 0.58771 0.91338 0.46523 0.0
C2188 C 0.59237 0.91466 0.47491 0.0
C2189 C 0.60276 0.91959 0.50415 0.0
C2190 C 0.59978 0.91765 0.49391 0.0
H2191 H 0.57229 0.9255 0.44958 0.0
H2192 H 0.5804 0.92765 0.46517 0.0
H2193 H 0.58958 0.89963 0.48023 0.0
H2194 H 0.59471 0.91592 0.52751 0.0
H2195 H 0.59106 0.91113 0.51085 0.0
C2196 C 0.81735 0.833 0.28549 0.0
C2197 C 0.81547 0.84325 0.28573 0.0
C2198 C 0.82233 0.82897 0.27764 0.0
C2199 C 0.82787 0.83378 0.25166 0.0
H2200 H 0.8457 0.81183 0.25576 0.0
C2201 C 0.83771 0.80648 0.22144 0.0
C2202 C 0.8471 0.80251 0.22122 0.0
C2203 C 0.8349 0.81272 0.22895 0.0
C2204 C 0.84086 0.81805 0.25447 0.0
H2205 H 0.81754 0.85734 0.27798 0.0
H2206 H 0.82629 0.8503 0.26426 0.0
H2207 H 0.83918 0.82035 0.26981 0.0
H2208 H 0.86106 0.80233 0.22849 0.0
H2209 H 0.85618 0.8133 0.24155 0.0
H2210 H 0.82954 0.83145 0.23631 0.0
C2211 C 0.82381 0.84537 0.27013 0.0
C2212 C 0.83702 0.82285 0.26254 0.0
C2213 C 0.81884 0.84941 0.27801 0.0
C2214 C 0.85374 0.80522 0.22848 0.0
C2215 C 0.85093 0.81146 0.23599 0.0
C2216 C 0.83171 0.82897 0.24359 0.0
C2217 C 0.82555 0.83509 0.26982 0.0
C2218 C 0.83035 0.83065 0.26124 0.0
C2219 C 0.84143 0.81514 0.23641 0.0
C2220 C 0.83811 0.82093 0.2449 0.0
H2221 H 0.81486 0.82802 0.29131 0.0
H2222 H 0.82341 0.82101 0.27757 0.0
H2223 H 0.8227 0.83972 0.25041 0.0
H2224 H 0.83241 0.80456 0.21596 0.0
H2225 H 0.8275 0.81532 0.2291 0.0
C2226 C 0.91616 0.09202 0.03639 0.0
C2227 C 0.92144 0.08367 0.03967 0.0
C2228 C 0.91407 0.09347 0.02645 0.0
C2229 C 0.91312 0.08069 0.00276 0.0
H2230 H 0.9166 0.10728 -0.00821 0.0
C2231 C 0.90553 0.09031 0.96196 0.0
C2232 C 0.91263 0.09609 0.95716 0.0
C2233 C 0.90565 0.08909 0.97217 0.0
C2234 C 0.91561 0.09981 -0.00526 0.0
H2235 H 0.92896 0.07047 0.03506 0.0
H2236 H 0.92525 0.07292 0.01772 0.0
H2237 H 0.91872 0.10427 0.00931 0.0
H2238 H 0.92526 0.10533 0.95933 0.0
H2239 H 0.92548 0.10317 0.97705 0.0
H2240 H 0.91032 0.07618 -0.01189 0.0
C2241 C 0.92249 0.07822 0.02286 0.0
C2242 C 0.91672 0.0981 0.0048 0.0
C2243 C 0.92457 0.07677 0.03282 0.0
C2244 C 0.91968 0.10083 0.96279 0.0
C2245 C 0.91977 0.09964 0.97297 0.0
C2246 C 0.91199 0.0824 -0.00731 0.0
C2247 C 0.91728 0.08664 0.01956 0.0
C2248 C 0.91559 0.0885 0.00892 0.0
C2249 C 0.91283 0.09366 0.97777 0.0
C2250 C 0.91334 0.09196 -0.01145 0.0
H2251 H 0.91364 0.09747 0.04151 0.0
H2252 H 0.90994 0.09997 0.02417 0.0
H2253 H 0.9121 0.07323 0.00573 0.0
H2254 H 0.89998 0.08658 0.95784 0.0
H2255 H 0.90013 0.08454 0.97566 0.0
C2256 C 0.66577 0.66219 0.82739 0.0
C2257 C 0.6626 0.65288 0.83096 0.0
C2258 C 0.67563 0.66433 0.82676 0.0
C2259 C 0.69888 0.6517 0.82379 0.0
H2260 H 0.70953 0.67779 0.82843 0.0
C2261 C 0.73877 0.66065 0.81525 0.0
C2262 C 0.74039 0.66967 0.81011 0.0
C2263 C 0.72981 0.65868 0.81962 0.0
C2264 C 0.70666 0.67047 0.82707 0.0
H2265 H 0.66727 0.63855 0.83678 0.0
H2266 H 0.68453 0.64229 0.83571 0.0
H2267 H 0.69277 0.67421 0.83287 0.0
H2268 H 0.73397 0.68385 0.80588 0.0
H2269 H 0.71835 0.68036 0.81335 0.0
H2270 H 0.71262 0.64804 0.81771 0.0
C2271 C 0.67938 0.64793 0.83339 0.0
C2272 C 0.69706 0.66843 0.82962 0.0
C2273 C 0.6695 0.64581 0.83404 0.0
C2274 C 0.73297 0.67682 0.80977 0.0
C2275 C 0.72402 0.67484 0.81412 0.0
C2276 C 0.70846 0.65376 0.82122 0.0
C2277 C 0.68256 0.65716 0.82959 0.0
C2278 C 0.69301 0.65907 0.82786 0.0
C2279 C 0.72227 0.66568 0.81895 0.0
C2280 C 0.71242 0.66322 0.82266 0.0
H2281 H 0.66068 0.66763 0.82454 0.0
H2282 H 0.67783 0.67143 0.8236 0.0
H2283 H 0.69595 0.64447 0.8222 0.0
H2284 H 0.74435 0.65501 0.81571 0.0
H2285 H 0.72875 0.6516 0.82341 0.0
C2286 C 0.1745 0.81717 0.14289 0.0
C2287 C 0.16944 0.82558 0.13937 0.0
C2288 C 0.18459 0.81722 0.14338 0.0
C2289 C 0.20504 0.8343 0.14567 0.0
H2290 H 0.22031 0.8111 0.13957 0.0
C2291 C 0.24645 0.83359 0.15114 0.0
C2292 C 0.25017 0.82494 0.15573 0.0
C2293 C 0.23695 0.83382 0.14761 0.0
C2294 C 0.21615 0.81762 0.14136 0.0
H2295 H 0.17101 0.84064 0.13362 0.0
H2296 H 0.18866 0.84072 0.13449 0.0
H2297 H 0.20298 0.8112 0.13623 0.0
H2298 H 0.24692 0.80967 0.15993 0.0
H2299 H 0.23038 0.81011 0.15394 0.0
H2300 H 0.21813 0.84063 0.15105 0.0
C2301 C 0.18481 0.83409 0.13686 0.0
C2302 C 0.20622 0.81768 0.13943 0.0
C2303 C 0.17471 0.83403 0.13633 0.0
C2304 C 0.24429 0.81645 0.15644 0.0
C2305 C 0.23481 0.81669 0.15293 0.0
C2306 C 0.21496 0.83423 0.14762 0.0
C2307 C 0.18986 0.82571 0.14047 0.0
C2308 C 0.20053 0.82596 0.14171 0.0
C2309 C 0.23096 0.82541 0.1486 0.0
C2310 C 0.22061 0.82583 0.14564 0.0
H2311 H 0.17069 0.81071 0.14569 0.0
H2312 H 0.18825 0.81072 0.14641 0.0
H2313 H 0.20085 0.84075 0.14762 0.0
H2314 H 0.25081 0.84025 0.15043 0.0
H2315 H 0.23426 0.84062 0.14419 0.0
C2316 C 0.89149 0.46346 0.89932 0.0
C2317 C 0.89958 0.46015 0.8941 0.0
C2318 C 0.88842 0.47334 0.89841 0.0
C2319 C 0.89763 0.49827 0.89145 0.0
H2320 H 0.87053 0.50555 0.89242 0.0
C2321 C 0.88516 0.53839 0.89831 0.0
C2322 C 0.87694 0.54194 0.89331 0.0
C2323 C 0.88788 0.52842 0.89779 0.0
C2324 C 0.87813 0.50365 0.89203 0.0
H2325 H 0.91056 0.46455 0.88351 0.0
H2326 H 0.9051 0.4817 0.88179 0.0
H2327 H 0.87507 0.48807 0.89217 0.0
H2328 H 0.86534 0.53793 0.8835 0.0
H2329 H 0.87017 0.52056 0.88243 0.0
H2330 H 0.90069 0.51383 0.89114 0.0
C2331 C 0.90125 0.47673 0.88676 0.0
C2332 C 0.88074 0.49362 0.89201 0.0
C2333 C 0.90434 0.46686 0.8877 0.0
C2334 C 0.87166 0.53538 0.88752 0.0
C2335 C 0.87439 0.52541 0.88697 0.0
C2336 C 0.89502 0.50829 0.89144 0.0
C2337 C 0.89336 0.48013 0.89223 0.0
C2338 C 0.89052 0.4908 0.89179 0.0
C2339 C 0.88248 0.52178 0.89217 0.0
C2340 C 0.88524 0.51111 0.89181 0.0
H2341 H 0.88767 0.45849 0.90433 0.0
H2342 H 0.88238 0.47572 0.90281 0.0
H2343 H 0.90524 0.49637 0.8914 0.0
H2344 H 0.8896 0.54333 0.90251 0.0
H2345 H 0.89414 0.52589 0.90191 0.0
C2346 C 0.26295 0.14538 0.64883 0.0
C2347 C 0.26656 0.15317 0.65445 0.0
C2348 C 0.25297 0.14396 0.64786 0.0
C2349 C 0.23006 0.15772 0.64923 0.0
H2350 H 0.21819 0.13164 0.65019 0.0
C2351 C 0.19046 0.15181 0.63801 0.0
C2352 C 0.1848 0.14574 0.64423 0.0
C2353 C 0.20047 0.15227 0.63923 0.0
C2354 C 0.2214 0.13897 0.64996 0.0
H2355 H 0.2625 0.16538 0.66368 0.0
H2356 H 0.24517 0.16287 0.66201 0.0
H2357 H 0.23564 0.13322 0.65271 0.0
H2358 H 0.18526 0.13487 0.65619 0.0
H2359 H 0.20276 0.13581 0.65848 0.0
H2360 H 0.21587 0.1635 0.64657 0.0
C2361 C 0.25003 0.15795 0.65825 0.0
C2362 C 0.2314 0.13986 0.65131 0.0
C2363 C 0.25998 0.15935 0.65924 0.0
C2364 C 0.18939 0.13987 0.6515 0.0
C2365 C 0.19943 0.14029 0.6527 0.0
C2366 C 0.22011 0.15682 0.64783 0.0
C2367 C 0.24641 0.15032 0.65246 0.0
C2368 C 0.23582 0.14926 0.65099 0.0
C2369 C 0.20506 0.14659 0.64665 0.0
C2370 C 0.21566 0.14745 0.64817 0.0
H2371 H 0.26783 0.14048 0.64506 0.0
H2372 H 0.2504 0.13806 0.6433 0.0
H2373 H 0.23326 0.16506 0.64883 0.0
H2374 H 0.18714 0.15637 0.63229 0.0
H2375 H 0.20463 0.15707 0.63435 0.0
C2376 C 0.05016 0.02935 0.87734 0.0
C2377 C 0.05302 0.03395 0.86846 0.0
C2378 C 0.05536 0.0213 0.88127 0.0
C2379 C 0.0718 0.00122 0.87431 0.0
H2380 H 0.07544 -0.00164 0.90239 0.0
C2381 C 0.08049 0.96377 0.8938 0.0
C2382 C 0.0865 0.96375 0.9021 0.0
C2383 C 0.0778 0.97271 0.88915 0.0
C2384 C 0.07462 -0.00091 0.89452 0.0
H2385 H 0.06369 0.03377 0.85682 0.0
H2386 H 0.07279 0.01973 0.86374 0.0
H2387 H 0.06824 0.0135 0.89554 0.0
H2388 H 0.09479 0.97307 0.91173 0.0
H2389 H 0.09017 0.98866 0.90355 0.0
H2390 H 0.07819 0.98679 0.87331 0.0
C2391 C 0.06646 0.02231 0.8676 0.0
C2392 C 0.07037 0.00773 0.89061 0.0
C2393 C 0.06127 0.03038 0.86366 0.0
C2394 C 0.09009 0.97283 0.9054 0.0
C2395 C 0.0874 0.98177 0.90075 0.0
C2396 C 0.07605 -0.00743 0.87823 0.0
C2397 C 0.06354 0.01765 0.87643 0.0
C2398 C 0.06877 0.00882 0.88048 0.0
C2399 C 0.08107 0.98183 0.89269 0.0
C2400 C 0.07737 -0.00865 0.8884 0.0
H2401 H 0.04384 0.03188 0.88123 0.0
H2402 H 0.05282 0.01779 0.88801 0.0
H2403 H 0.07062 0.0018 0.86648 0.0
H2404 H 0.07761 0.9569 0.89106 0.0
H2405 H 0.07284 0.97248 0.88303 0.0
C2406 C 0.75369 0.31312 0.31701 0.0
C2407 C 0.75904 0.31618 0.32515 0.0
C2408 C 0.744 0.31582 0.31593 0.0
C2409 C 0.72512 0.33309 0.32429 0.0
H2410 H 0.70775 0.31138 0.31859 0.0
C2411 C 0.68368 0.33817 0.31943 0.0
C2412 C 0.67795 0.33117 0.32454 0.0
C2413 C 0.69367 0.3368 0.31867 0.0
C2414 C 0.71251 0.31752 0.32018 0.0
H2415 H 0.75852 0.32488 0.33829 0.0
H2416 H 0.74156 0.32959 0.33639 0.0
H2417 H 0.72516 0.30854 0.31871 0.0
H2418 H 0.67818 0.31729 0.33292 0.0
H2419 H 0.6956 0.31487 0.33155 0.0
H2420 H 0.7124 0.342 0.32598 0.0
C2421 C 0.74489 0.32512 0.33084 0.0
C2422 C 0.72248 0.31592 0.32015 0.0
C2423 C 0.7546 0.32238 0.33195 0.0
C2424 C 0.68241 0.32278 0.32889 0.0
C2425 C 0.69237 0.32137 0.32805 0.0
C2426 C 0.71512 0.33471 0.32424 0.0
C2427 C 0.73944 0.32168 0.32293 0.0
C2428 C 0.72889 0.32366 0.32232 0.0
C2429 C 0.69811 0.32837 0.32296 0.0
C2430 C 0.70872 0.32689 0.32232 0.0
H2431 H 0.75691 0.3084 0.31159 0.0
H2432 H 0.74001 0.31319 0.30968 0.0
H2433 H 0.72989 0.3392 0.32592 0.0
H2434 H 0.68048 0.34485 0.31625 0.0
H2435 H 0.69793 0.34232 0.3147 0.0
C2436 C 0.89982 0.52219 0.56851 0.0
C2437 C 0.89943 0.52819 0.57677 0.0
C2438 C 0.89556 0.51281 0.56867 0.0
C2439 C 0.88795 0.4927 0.5857 0.0
H2440 H 0.87651 0.48227 0.56218 0.0
C2441 C 0.88428 0.45078 0.57909 0.0
C2442 C 0.87655 0.44739 0.57339 0.0
C2443 C 0.88553 0.46093 0.58059 0.0
C2444 C 0.87952 0.48508 0.56888 0.0
H2445 H 0.89399 0.52911 0.59162 0.0
H2446 H 0.88642 0.51272 0.59185 0.0
H2447 H 0.88115 0.49965 0.56253 0.0
H2448 H 0.86373 0.45198 0.5653 0.0
H2449 H 0.8658 0.46964 0.5681 0.0
H2450 H 0.88627 0.47812 0.59206 0.0
C2451 C 0.89016 0.51525 0.58529 0.0
C2452 C 0.88231 0.49503 0.56903 0.0
C2453 C 0.89445 0.52467 0.58514 0.0
C2454 C 0.86982 0.45434 0.56964 0.0
C2455 C 0.87104 0.46448 0.5712 0.0
C2456 C 0.88511 0.48274 0.58557 0.0
C2457 C 0.89075 0.50918 0.57709 0.0
C2458 C 0.88677 0.49891 0.57735 0.0
C2459 C 0.87904 0.46792 0.57648 0.0
C2460 C 0.88105 0.47875 0.57708 0.0
H2461 H 0.90361 0.52465 0.56195 0.0
H2462 H 0.8963 0.50828 0.56228 0.0
H2463 H 0.89141 0.49542 0.59222 0.0
H2464 H 0.8896 0.44563 0.58208 0.0
H2465 H 0.89184 0.46329 0.5846 0.0
C2466 C 0.58929 0.50158 0.07337 0.0
C2467 C 0.59012 0.50074 0.06317 0.0
C2468 C 0.58582 0.49363 0.07915 0.0
C2469 C 0.58094 0.46649 0.07878 0.0
H2470 H 0.56168 0.47243 0.09839 0.0
C2471 C 0.56167 0.43524 0.10067 0.0
C2472 C 0.5516 0.43626 0.10154 0.0
C2473 C 0.56736 0.44325 0.09746 0.0
C2474 C 0.56704 0.47064 0.09294 0.0
H2475 H 0.58817 0.49079 0.05107 0.0
H2476 H 0.58201 0.47705 0.06107 0.0
H2477 H 0.56995 0.48598 0.08973 0.0
H2478 H 0.53964 0.44663 0.10003 0.0
H2479 H 0.5495 0.46052 0.09428 0.0
H2480 H 0.57769 0.45118 0.08161 0.0
C2481 C 0.58416 0.48378 0.06466 0.0
C2482 C 0.57187 0.47842 0.08806 0.0
C2483 C 0.58764 0.4917 0.05891 0.0
C2484 C 0.54738 0.44558 0.09945 0.0
C2485 C 0.55305 0.45358 0.09621 0.0
C2486 C 0.57609 0.45873 0.08363 0.0
C2487 C 0.58311 0.48467 0.07484 0.0
C2488 C 0.57874 0.47643 0.08078 0.0
C2489 C 0.56309 0.45247 0.09501 0.0
C2490 C 0.56894 0.46071 0.09064 0.0
H2491 H 0.59118 0.50844 0.07689 0.0
H2492 H 0.5852 0.49452 0.08698 0.0
H2493 H 0.5863 0.4647 0.07332 0.0
H2494 H 0.56517 0.42818 0.10229 0.0
H2495 H 0.57509 0.44219 0.09677 0.0
C2496 C 0.63836 0.78181 0.82174 0.0
C2497 C 0.64593 0.78762 0.81781 0.0
C2498 C 0.64004 0.77201 0.82492 0.0
C2499 C 0.65683 0.75132 0.82072 0.0
H2500 H 0.64374 0.73898 0.84296 0.0
C2501 C 0.66318 0.71023 0.83165 0.0
C2502 C 0.65485 0.70461 0.83374 0.0
C2503 C 0.6627 0.72059 0.83086 0.0
C2504 C 0.64741 0.74231 0.8367 0.0
H2505 H 0.6613 0.78783 0.81462 0.0
H2506 H 0.66423 0.77082 0.82029 0.0
H2507 H 0.64182 0.75678 0.83964 0.0
H2508 H 0.63951 0.7055 0.83694 0.0
H2509 H 0.63865 0.72354 0.83548 0.0
H2510 H 0.66229 0.73687 0.81767 0.0
C2511 C 0.65696 0.77376 0.82072 0.0
C2512 C 0.6463 0.75251 0.83479 0.0
C2513 C 0.65528 0.78354 0.81752 0.0
C2514 C 0.64607 0.7096 0.83531 0.0
C2515 C 0.64559 0.71995 0.83453 0.0
C2516 C 0.65794 0.74115 0.82263 0.0
C2517 C 0.64933 0.76781 0.82427 0.0
C2518 C 0.65093 0.75711 0.82672 0.0
C2519 C 0.65386 0.72556 0.83217 0.0
C2520 C 0.65316 0.7365 0.83058 0.0
H2521 H 0.63107 0.78472 0.82207 0.0
H2522 H 0.63398 0.76761 0.82753 0.0
H2523 H 0.66036 0.75458 0.81434 0.0
H2524 H 0.67007 0.70662 0.83046 0.0
H2525 H 0.66923 0.7247 0.82917 0.0
C2526 C 0.49741 0.39396 0.10397 0.0
C2527 C 0.49669 0.40427 0.10518 0.0
C2528 C 0.48921 0.38835 0.10183 0.0
C2529 C 0.46232 0.38906 0.10175 0.0
H2530 H 0.46496 0.37015 0.08098 0.0
C2531 C 0.43009 0.37502 0.07916 0.0
C2532 C 0.43015 0.36511 0.07615 0.0
C2533 C 0.43799 0.3789 0.08416 0.0
C2534 C 0.46412 0.37527 0.08691 0.0
H2535 H 0.48672 0.41671 0.10537 0.0
H2536 H 0.47248 0.40698 0.10151 0.0
H2537 H 0.47924 0.37855 0.08708 0.0
H2538 H 0.43841 0.3514 0.07642 0.0
H2539 H 0.45218 0.35818 0.08519 0.0
H2540 H 0.44714 0.38596 0.10136 0.0
C2541 C 0.47935 0.40319 0.10234 0.0
C2542 C 0.47231 0.38009 0.09042 0.0
C2543 C 0.48754 0.40879 0.10448 0.0
C2544 C 0.43814 0.35908 0.07858 0.0
C2545 C 0.44606 0.36297 0.08356 0.0
C2546 C 0.45412 0.38426 0.09822 0.0
C2547 C 0.4801 0.39292 0.10085 0.0
C2548 C 0.4715 0.38716 0.09778 0.0
C2549 C 0.44614 0.37298 0.08626 0.0
C2550 C 0.45491 0.37742 0.09066 0.0
H2551 H 0.50434 0.39023 0.10451 0.0
H2552 H 0.49002 0.38043 0.10087 0.0
H2553 H 0.46146 0.39434 0.10754 0.0
H2554 H 0.42405 0.37988 0.07742 0.0
H2555 H 0.43786 0.38667 0.08604 0.0
C2556 C 0.84147 0.21482 0.30746 0.0
C2557 C 0.83585 0.20617 0.30853 0.0
C2558 C 0.83848 0.2237 0.31158 0.0
C2559 C 0.81634 0.23621 0.31974 0.0
H2560 H 0.83434 0.25533 0.33015 0.0
C2561 C 0.80323 0.27317 0.3352 0.0
C2562 C 0.80826 0.28172 0.33199 0.0
C2563 C 0.80698 0.26373 0.33358 0.0
C2564 C 0.82924 0.25008 0.32722 0.0
H2565 H 0.82286 0.19998 0.31516 0.0
H2566 H 0.81772 0.21543 0.32249 0.0
H2567 H 0.84021 0.23908 0.32525 0.0
H2568 H 0.82136 0.28702 0.32485 0.0
H2569 H 0.82786 0.27051 0.32198 0.0
H2570 H 0.8054 0.24722 0.32158 0.0
C2571 C 0.82435 0.21539 0.31828 0.0
C2572 C 0.8326 0.24078 0.32441 0.0
C2573 C 0.82733 0.20652 0.31413 0.0
C2574 C 0.81729 0.2806 0.32741 0.0
C2575 C 0.82105 0.27113 0.32581 0.0
C2576 C 0.81299 0.24548 0.32257 0.0
C2577 C 0.8298 0.22413 0.31691 0.0
C2578 C 0.8262 0.23377 0.32054 0.0
C2579 C 0.81585 0.26259 0.32873 0.0
C2580 C 0.81941 0.25256 0.32626 0.0
H2581 H 0.84807 0.21482 0.30319 0.0
H2582 H 0.8428 0.2303 0.31028 0.0
H2583 H 0.81124 0.23108 0.31662 0.0
H2584 H 0.79629 0.27376 0.33881 0.0
H2585 H 0.80288 0.25729 0.33605 0.0
C2586 C 0.02042 0.5742 0.53307 0.0
C2587 C 0.0257 0.57841 0.54072 0.0
C2588 C 0.01038 0.57318 0.53376 0.0
C2589 C -0.0111 0.58201 0.54735 0.0
H2590 H 0.97782 0.55689 0.53983 0.0
C2591 C 0.95099 0.56873 0.55972 0.0
C2592 C 0.94538 0.56344 0.55304 0.0
C2593 C 0.96048 0.57147 0.5574 0.0
C2594 C 0.98076 0.56401 0.54182 0.0
H2595 H 0.02454 0.58502 0.555 0.0
H2596 H 0.0071 0.58313 0.55623 0.0
H2597 H -0.00503 0.55999 0.53717 0.0
H2598 H 0.94522 0.55722 0.53854 0.0
H2599 H 0.96173 0.56207 0.53449 0.0
H2600 H 0.9747 0.58593 0.55217 0.0
C2601 C 0.01068 0.58073 0.54965 0.0
C2602 C -0.0094 0.56579 0.54029 0.0
C2603 C 0.0207 0.58175 0.54897 0.0
C2604 C 0.94936 0.56123 0.54388 0.0
C2605 C 0.95885 0.56396 0.54157 0.0
C2606 C 0.97906 0.58022 0.54889 0.0
C2607 C 0.0054 0.57636 0.5421 0.0
C2608 C -0.00519 0.57476 0.54313 0.0
C2609 C 0.96457 0.56897 0.54837 0.0
C2610 C 0.9749 0.57116 0.54623 0.0
H2611 H 0.02405 0.57159 0.5266 0.0
H2612 H 0.00651 0.56989 0.52776 0.0
H2613 H -0.00811 0.58906 0.54948 0.0
H2614 H 0.94814 0.57054 0.56684 0.0
H2615 H 0.96473 0.57524 0.56284 0.0
C2616 C 0.64938 0.26703 0.65056 0.0
C2617 C 0.65785 0.27004 0.64565 0.0
C2618 C 0.64726 0.25696 0.65196 0.0
C2619 C 0.65843 0.23204 0.65265 0.0
H2620 H 0.63181 0.22332 0.65047 0.0
C2621 C 0.64751 0.19074 0.65717 0.0
C2622 C 0.63961 0.18885 0.66342 0.0
C2623 C 0.64965 0.20043 0.65397 0.0
C2624 C 0.63927 0.22565 0.65115 0.0
H2625 H 0.67076 0.26481 0.63838 0.0
H2626 H 0.667 0.24719 0.64075 0.0
H2627 H 0.63587 0.24064 0.6469 0.0
H2628 H 0.62756 0.19565 0.67092 0.0
H2629 H 0.63128 0.21252 0.66532 0.0
H2630 H 0.66179 0.21703 0.65696 0.0
C2631 C 0.66205 0.25264 0.64361 0.0
C2632 C 0.6416 0.23558 0.64913 0.0
C2633 C 0.66419 0.26274 0.64222 0.0
C2634 C 0.63371 0.19683 0.66612 0.0
C2635 C 0.63581 0.20651 0.66287 0.0
C2636 C 0.65609 0.22209 0.65463 0.0
C2637 C 0.65353 0.24964 0.64847 0.0
C2638 C 0.65118 0.23893 0.65 0.0
C2639 C 0.64388 0.20844 0.65688 0.0
C2640 C 0.64647 0.21882 0.65404 0.0
H2641 H 0.64436 0.27245 0.65334 0.0
H2642 H 0.64074 0.25493 0.6559 0.0
H2643 H 0.66586 0.23439 0.6535 0.0
H2644 H 0.6522 0.18476 0.65494 0.0
H2645 H 0.65585 0.20168 0.64927 0.0
C2646 C 0.01561 0.39505 0.9284 0.0
C2647 C 0.0215 0.3909 0.92119 0.0
C2648 C 0.00589 0.39718 0.92645 0.0
C2649 C 0.98588 0.39161 0.90928 0.0
H2650 H 0.97555 0.41673 0.91781 0.0
C2651 C 0.95121 0.4095 0.89311 0.0
C2652 C 0.94503 0.41454 0.89947 0.0
C2653 C 0.96003 0.40565 0.89648 0.0
C2654 C 0.97827 0.40961 0.9155 0.0
H2655 H 0.02178 0.38568 0.90629 0.0
H2656 H 0.00493 0.38955 0.90285 0.0
H2657 H -0.00806 0.41191 0.9224 0.0
H2658 H 0.9431 0.41913 0.91446 0.0
H2659 H 0.95846 0.41238 0.92032 0.0
H2660 H 0.97225 0.38944 0.90219 0.0
C2661 C 0.00775 0.391 0.91007 0.0
C2662 C 0.98767 0.40684 0.91814 0.0
C2663 C 0.01744 0.38885 0.91203 0.0
C2664 C 0.94771 0.41534 0.90935 0.0
C2665 C 0.95654 0.41153 0.9127 0.0
C2666 C 0.97648 0.3944 0.90662 0.0
C2667 C 0.00185 0.39523 0.91724 0.0
C2668 C -0.00837 0.39786 0.91497 0.0
C2669 C 0.96287 0.40678 0.90627 0.0
C2670 C 0.97261 0.40348 0.90961 0.0
H2671 H 0.01851 0.39667 0.93555 0.0
H2672 H 0.00152 0.40033 0.93217 0.0
H2673 H -0.01136 0.38456 0.90686 0.0
H2674 H 0.94936 0.40874 0.88546 0.0
H2675 H 0.96478 0.40211 0.89131 0.0
C2676 C 0.84234 0.75258 0.16836 0.0
C2677 C 0.84408 0.75406 0.17836 0.0
C2678 C 0.84056 0.74306 0.16495 0.0
C2679 C 0.8417 0.71614 0.1719 0.0
H2680 H 0.81997 0.71437 0.15408 0.0
C2681 C 0.81939 0.68039 0.16681 0.0
C2682 C 0.81594 0.67836 0.15739 0.0
C2683 C 0.82436 0.6892 0.16855 0.0
C2684 C 0.82616 0.71472 0.15892 0.0
H2685 H 0.8457 0.74662 0.19254 0.0
H2686 H 0.84241 0.73009 0.18663 0.0
H2687 H 0.82601 0.73058 0.15852 0.0
H2688 H 0.81538 0.68383 0.14231 0.0
H2689 H 0.82407 0.69918 0.14536 0.0
H2690 H 0.84158 0.70022 0.17252 0.0
C2691 C 0.84256 0.73625 0.18139 0.0
C2692 C 0.82964 0.72403 0.16146 0.0
C2693 C 0.84439 0.74576 0.18479 0.0
C2694 C 0.81788 0.68518 0.14967 0.0
C2695 C 0.82283 0.694 0.15142 0.0
C2696 C 0.83818 0.70681 0.16938 0.0
C2697 C 0.84042 0.7348 0.17146 0.0
C2698 C 0.83737 0.72487 0.16809 0.0
C2699 C 0.82596 0.69619 0.16091 0.0
C2700 C 0.83028 0.70601 0.16297 0.0
H2701 H 0.84213 0.75881 0.16319 0.0
H2702 H 0.83911 0.74219 0.15722 0.0
H2703 H 0.84775 0.71651 0.1769 0.0
H2704 H 0.81804 0.67529 0.17291 0.0
H2705 H 0.82661 0.69071 0.17596 0.0
C2706 C 0.5125 0.58218 0.36689 0.0
C2707 C 0.51967 0.57918 0.37365 0.0
C2708 C 0.50376 0.58615 0.37015 0.0
C2709 C 0.4919 0.59724 0.39158 0.0
H2710 H 0.46863 0.58506 0.38157 0.0
C2711 C 0.45634 0.59629 0.41309 0.0
C2712 C 0.4475 0.59701 0.40803 0.0
C2713 C 0.46506 0.59587 0.408 0.0
C2714 C 0.47502 0.5887 0.38432 0.0
H2715 H 0.52346 0.5784 0.38906 0.0
H2716 H 0.50826 0.58532 0.3947 0.0
H2717 H 0.4842 0.58137 0.37415 0.0
H2718 H 0.44094 0.59814 0.39362 0.0
H2719 H 0.45623 0.59746 0.3847 0.0
H2720 H 0.48276 0.6044 0.40189 0.0
C2721 C 0.50938 0.58464 0.3869 0.0
C2722 C 0.48395 0.58657 0.38006 0.0
C2723 C 0.51807 0.5806 0.38367 0.0
C2724 C 0.44761 0.59754 0.39774 0.0
C2725 C 0.45637 0.59711 0.39263 0.0
C2726 C 0.48297 0.5994 0.39581 0.0
C2727 C 0.50207 0.5873 0.3802 0.0
C2728 C 0.49251 0.59063 0.38382 0.0
C2729 C 0.46518 0.59617 0.39771 0.0
C2730 C 0.47446 0.59494 0.39239 0.0
H2731 H 0.51353 0.5812 0.35912 0.0
H2732 H 0.49827 0.58822 0.36481 0.0
H2733 H 0.49835 0.60061 0.39452 0.0
H2734 H 0.45653 0.59586 0.42102 0.0
H2735 H 0.47169 0.59498 0.41215 0.0
C2736 C 0.81098 0.67313 0.69197 0.0
C2737 C 0.80504 0.67954 0.68633 0.0
C2738 C 0.80967 0.67214 0.70209 0.0
C2739 C 0.79841 0.6842 0.72335 0.0
H2740 H 0.79849 0.65754 0.73477 0.0
C2741 C 0.78203 0.67495 0.76124 0.0
C2742 C 0.78672 0.66789 0.76734 0.0
C2743 C 0.78519 0.67675 0.75166 0.0
C2744 C 0.79859 0.66505 0.73174 0.0
H2745 H 0.7932 0.69008 0.68695 0.0
H2746 H 0.79087 0.68827 0.70458 0.0
H2747 H 0.80237 0.66007 0.71749 0.0
H2748 H 0.79853 0.6573 0.76816 0.0
H2749 H 0.80409 0.66048 0.75142 0.0
H2750 H 0.79449 0.68916 0.73758 0.0
C2751 C 0.79661 0.68409 0.70119 0.0
C2752 C 0.80081 0.6665 0.72183 0.0
C2753 C 0.79791 0.68508 0.69107 0.0
C2754 C 0.79474 0.66277 0.76366 0.0
C2755 C 0.7979 0.66455 0.75404 0.0
C2756 C 0.79619 0.68275 0.73327 0.0
C2757 C 0.80241 0.67753 0.70681 0.0
C2758 C 0.80064 0.67608 0.71749 0.0
C2759 C 0.79312 0.67152 0.74791 0.0
C2760 C 0.79614 0.67314 0.73755 0.0
H2761 H 0.81658 0.66878 0.68856 0.0
H2762 H 0.81435 0.66712 0.70623 0.0
H2763 H 0.79837 0.69169 0.72028 0.0
H2764 H 0.77582 0.67904 0.76382 0.0
H2765 H 0.78126 0.68206 0.7471 0.0
C2766 C 0.55755 0.58676 0.9619 0.0
C2767 C 0.55609 0.57966 0.95467 0.0
C2768 C 0.56259 0.58426 0.97049 0.0
C2769 C 0.57957 0.56593 0.98141 0.0
H2770 H 0.56754 0.57291 0.00593 0.0
C2771 C 0.58951 0.5466 0.01808 0.0
C2772 C 0.58942 0.55216 0.02665 0.0
C2773 C 0.58644 0.55083 0.00918 0.0
C2774 C 0.57111 0.57105 -0.00084 0.0
H2775 H 0.55904 0.56446 0.95067 0.0
H2776 H 0.56783 0.56013 0.96564 0.0
H2777 H 0.56048 0.5788 -0.00949 0.0
H2778 H 0.5863 0.56664 0.03252 0.0
H2779 H 0.58108 0.57408 0.01693 0.0
H2780 H 0.59016 0.55811 -0.00996 0.0
C2781 C 0.56511 0.56763 0.96465 0.0
C2782 C 0.56704 0.57442 -0.00968 0.0
C2783 C 0.56002 0.5701 0.95609 0.0
C2784 C 0.58641 0.56213 0.02607 0.0
C2785 C 0.58337 0.56638 0.01714 0.0
C2786 C 0.58367 0.56261 -0.00975 0.0
C2787 C 0.56634 0.57464 0.97199 0.0
C2788 C 0.57114 0.57176 0.98135 0.0
C2789 C 0.58324 0.56074 0.00861 0.0
C2790 C 0.5794 0.56499 -0.00077 0.0
H2791 H 0.55464 0.5942 0.96102 0.0
H2792 H 0.56351 0.58985 0.97598 0.0
H2793 H 0.58297 0.56389 0.97461 0.0
H2794 H 0.59176 0.53889 0.01827 0.0
H2795 H 0.58631 0.54622 0.0028 0.0
C2796 C 0.64931 0.32953 0.20135 0.0
C2797 C 0.65541 0.32431 0.19504 0.0
C2798 C 0.65294 0.33348 0.20996 0.0
C2799 C 0.67217 0.32888 0.22787 0.0
H2800 H 0.66293 0.35336 0.23894 0.0
C2801 C 0.68244 0.33951 0.26708 0.0
C2802 C 0.67467 0.34265 0.27287 0.0
C2803 C 0.68143 0.33896 0.25692 0.0
C2804 C 0.66556 0.34649 0.23595 0.0
H2805 H 0.67021 0.31962 0.1926 0.0
H2806 H 0.67653 0.32655 0.20764 0.0
H2807 H 0.65869 0.34942 0.22212 0.0
H2808 H 0.6599 0.34811 0.27247 0.0
H2809 H 0.65811 0.34699 0.25484 0.0
H2810 H 0.67873 0.32574 0.24177 0.0
C2811 C 0.66892 0.32747 0.20596 0.0
C2812 C 0.66314 0.34425 0.22632 0.0
C2813 C 0.6653 0.32354 0.19732 0.0
C2814 C 0.66603 0.34563 0.26824 0.0
C2815 C 0.66502 0.34506 0.2581 0.0
C2816 C 0.67456 0.33111 0.2375 0.0
C2817 C 0.66273 0.33228 0.21249 0.0
C2818 C 0.66625 0.33531 0.22224 0.0
C2819 C 0.67264 0.34153 0.25233 0.0
C2820 C 0.67111 0.33984 0.24173 0.0
H2821 H 0.64166 0.33028 0.1998 0.0
H2822 H 0.64796 0.33706 0.21487 0.0
H2823 H 0.67457 0.32187 0.225 0.0
H2824 H 0.68922 0.33723 0.27042 0.0
H2825 H 0.68749 0.33634 0.25268 0.0
C2826 C 0.89999 0.40712 0.53374 0.0
C2827 C 0.88997 0.40648 0.53538 0.0
C2828 C 0.90397 0.40415 0.52488 0.0
C2829 C 0.89899 0.39001 0.50246 0.0
H2830 H 0.9171 0.40861 0.49048 0.0
C2831 C 0.90776 0.39069 0.46116 0.0
C2832 C 0.91719 0.39312 0.45813 0.0
C2833 C 0.90515 0.39108 0.47102 0.0
C2834 C 0.91219 0.40323 0.49377 0.0
H2835 H 0.87634 0.4018 0.52915 0.0
H2836 H 0.88328 0.39669 0.51366 0.0
H2837 H 0.91127 0.41136 0.50698 0.0
H2838 H 0.93141 0.39749 0.46317 0.0
H2839 H 0.92689 0.39805 0.48041 0.0
H2840 H 0.8998 0.38198 0.48915 0.0
C2841 C 0.88807 0.39942 0.51926 0.0
C2842 C 0.90884 0.40481 0.50325 0.0
C2843 C 0.88408 0.4024 0.52812 0.0
C2844 C 0.92406 0.39564 0.46524 0.0
C2845 C 0.92145 0.39601 0.47512 0.0
C2846 C 0.90237 0.38841 0.49298 0.0
C2847 C 0.89803 0.40046 0.51745 0.0
C2848 C 0.90211 0.39829 0.50766 0.0
C2849 C 0.91193 0.39388 0.47811 0.0
C2850 C 0.90891 0.39508 0.48847 0.0
H2851 H 0.90475 0.41016 0.5392 0.0
H2852 H 0.91169 0.40489 0.52379 0.0
H2853 H 0.89391 0.38478 0.5057 0.0
H2854 H 0.90228 0.38872 0.45588 0.0
H2855 H 0.89773 0.3895 0.47304 0.0
C2856 C 0.80483 0.35033 0.70221 0.0
C2857 C 0.80251 0.34215 0.69646 0.0
C2858 C 0.80936 0.34892 0.7113 0.0
C2859 C 0.82337 0.33077 0.72633 0.0
H2860 H 0.81197 0.34415 0.74833 0.0
C2861 C 0.82897 0.31715 0.76614 0.0
C2862 C 0.82948 0.32413 0.7736 0.0
C2863 C 0.82696 0.32017 0.75651 0.0
C2864 C 0.81538 0.34049 0.74226 0.0
H2865 H 0.80342 0.3261 0.69562 0.0
H2866 H 0.81131 0.32368 0.71144 0.0
H2867 H 0.80624 0.34798 0.73179 0.0
H2868 H 0.82859 0.33982 0.77672 0.0
H2869 H 0.8252 0.34512 0.75983 0.0
H2870 H 0.83242 0.32317 0.73679 0.0
C2871 C 0.80967 0.33118 0.70891 0.0
C2872 C 0.81208 0.34268 0.73277 0.0
C2873 C 0.80509 0.33257 0.69986 0.0
C2874 C 0.8282 0.33425 0.77115 0.0
C2875 C 0.8262 0.33728 0.76148 0.0
C2876 C 0.82671 0.32861 0.7358 0.0
C2877 C 0.81173 0.33932 0.71479 0.0
C2878 C 0.81591 0.33771 0.72473 0.0
C2879 C 0.82545 0.33026 0.75406 0.0
C2880 C 0.82262 0.3333 0.74391 0.0
H2881 H 0.80296 0.35781 0.6998 0.0
H2882 H 0.81094 0.35535 0.71563 0.0
H2883 H 0.82657 0.32693 0.72026 0.0
H2884 H 0.8299 0.3093 0.76777 0.0
H2885 H 0.82629 0.31454 0.75103 0.0
C2886 C 0.9183 0.56302 0.01901 0.0
C2887 C 0.91587 0.55496 0.02527 0.0
C2888 C 0.91696 0.56243 0.00889 0.0
C2889 C 0.90233 0.54921 -0.0091 0.0
H2890 H 0.92024 0.56087 0.97207 0.0
C2891 C 0.89585 0.54682 0.94933 0.0
C2892 C 0.89744 0.55556 0.94374 0.0
C2893 C 0.89892 0.54608 0.95907 0.0
C2894 C 0.91513 0.55765 0.97724 0.0
H2895 H 0.91047 0.53983 0.02576 0.0
H2896 H 0.90821 0.5388 0.00813 0.0
H2897 H 0.92422 0.56078 -0.01052 0.0
H2898 H 0.90372 0.57032 0.94394 0.0
H2899 H 0.90896 0.56908 0.96094 0.0
H2900 H 0.89316 0.54623 0.97872 0.0
C2901 C 0.91101 0.54562 0.01106 0.0
C2902 C 0.91742 0.55759 0.98721 0.0
C2903 C 0.91235 0.5462 0.02116 0.0
C2904 C 0.90237 0.56347 0.94803 0.0
C2905 C 0.90544 0.56274 0.95778 0.0
C2906 C 0.90004 0.54928 0.98094 0.0
C2907 C 0.91315 0.55378 0.00482 0.0
C2908 C 0.91101 0.55343 -0.00583 0.0
C2909 C 0.90366 0.55408 0.96345 0.0
C2910 C 0.90637 0.55356 0.97399 0.0
H2911 H 0.92102 0.56987 0.02194 0.0
H2912 H 0.9186 0.56888 0.00431 0.0
H2913 H 0.89715 0.5461 -0.00393 0.0
H2914 H 0.89212 0.54056 0.94623 0.0
H2915 H 0.89756 0.53925 0.96319 0.0
C2916 C 0.64603 0.65529 0.26678 0.0
C2917 C 0.65275 0.65732 0.27419 0.0
C2918 C 0.64913 0.65189 0.25773 0.0
C2919 C 0.67014 0.65293 0.24152 0.0
H2920 H 0.65561 0.63384 0.22666 0.0
C2921 C 0.68037 0.64395 0.20173 0.0
C2922 C 0.67259 0.64373 0.19511 0.0
C2923 C 0.67868 0.64395 0.21183 0.0
C2924 C 0.65973 0.63921 0.2307 0.0
H2925 H 0.66797 0.65699 0.27802 0.0
H2926 H 0.67338 0.65105 0.26219 0.0
H2927 H 0.65129 0.63673 0.24367 0.0
H2928 H 0.65696 0.64304 0.19393 0.0
H2929 H 0.65404 0.64319 0.21146 0.0
H2930 H 0.67837 0.65568 0.22849 0.0
C2931 C 0.66572 0.65218 0.26338 0.0
C2932 C 0.65726 0.64085 0.24045 0.0
C2933 C 0.66261 0.65553 0.27246 0.0
C2934 C 0.66312 0.64322 0.19882 0.0
C2935 C 0.66144 0.64322 0.20889 0.0
C2936 C 0.67259 0.65132 0.23177 0.0
C2937 C 0.65902 0.65047 0.25587 0.0
C2938 C 0.66231 0.64787 0.24591 0.0
C2939 C 0.66919 0.64372 0.21552 0.0
C2940 C 0.66728 0.64459 0.22618 0.0
H2941 H 0.63838 0.65656 0.26787 0.0
H2942 H 0.64379 0.65075 0.25207 0.0
H2943 H 0.6741 0.65848 0.24549 0.0
H2944 H 0.68775 0.64429 0.19912 0.0
H2945 H 0.68482 0.64421 0.21675 0.0
C2946 C 0.57762 0.41636 0.44579 0.0
C2947 C 0.58575 0.4226 0.44564 0.0
C2948 C 0.57426 0.41219 0.45461 0.0
C2949 C 0.58077 0.40742 0.48075 0.0
H2950 H 0.55293 0.40747 0.48417 0.0
C2951 C 0.56165 0.40284 0.51837 0.0
C2952 C 0.55329 0.3969 0.51875 0.0
C2953 C 0.56619 0.40499 0.50942 0.0
C2954 C 0.56072 0.40728 0.48329 0.0
H2955 H 0.59692 0.42912 0.45459 0.0
H2956 H 0.59091 0.42205 0.47001 0.0
H2957 H 0.55981 0.41298 0.4686 0.0
H2958 H 0.54334 0.38832 0.51005 0.0
H2959 H 0.55125 0.39211 0.49448 0.0
H2960 H 0.5816 0.40197 0.49561 0.0
C2961 C 0.58721 0.42023 0.4633 0.0
C2962 C 0.56467 0.41042 0.47435 0.0
C2963 C 0.59064 0.42433 0.45446 0.0
C2964 C 0.54973 0.39295 0.51002 0.0
C2965 C 0.55424 0.39516 0.50109 0.0
C2966 C 0.5768 0.40434 0.48974 0.0
C2967 C 0.57889 0.41424 0.4635 0.0
C2968 C 0.57475 0.41055 0.47296 0.0
C2969 C 0.56243 0.4013 0.50068 0.0
C2970 C 0.56673 0.40426 0.4911 0.0
H2971 H 0.57375 0.41478 0.43911 0.0
H2972 H 0.56796 0.40743 0.45445 0.0
H2973 H 0.58855 0.4073 0.4799 0.0
H2974 H 0.5646 0.40597 0.52495 0.0
H2975 H 0.57246 0.4098 0.50932 0.0
C2976 C 0.70075 0.82192 0.63735 0.0
C2977 C 0.69334 0.8168 0.64238 0.0
C2978 C 0.70918 0.81697 0.6346 0.0
C2979 C 0.72386 0.7954 0.64211 0.0
H2980 H 0.73822 0.80182 0.61843 0.0
C2981 C 0.76119 0.77797 0.6348 0.0
C2982 C 0.76837 0.78463 0.63151 0.0
C2983 C 0.75146 0.78083 0.63483 0.0
C2984 C 0.73431 0.79998 0.6251 0.0
H2985 H 0.68876 0.80233 0.64796 0.0
H2986 H 0.70341 0.7937 0.64308 0.0
H2987 H 0.72207 0.80875 0.62065 0.0
H2988 H 0.77092 0.79942 0.62537 0.0
H2989 H 0.75403 0.80443 0.62555 0.0
H2990 H 0.73616 0.78687 0.6467 0.0
C2991 C 0.70277 0.80158 0.64142 0.0
C2992 C 0.72506 0.80394 0.62636 0.0
C2993 C 0.69435 0.80652 0.64416 0.0
C2994 C 0.76558 0.7941 0.62797 0.0
C2995 C 0.75587 0.79695 0.628 0.0
C2996 C 0.7331 0.79145 0.64086 0.0
C2997 C 0.71038 0.80679 0.6368 0.0
C2998 C 0.71979 0.80183 0.63496 0.0
C2999 C 0.7487 0.79041 0.63157 0.0
C3000 C 0.73851 0.79383 0.63241 0.0
H3001 H 0.70022 0.82984 0.63585 0.0
H3002 H 0.71492 0.82123 0.63113 0.0
H3003 H 0.72007 0.79374 0.64889 0.0
H3004 H 0.76309 0.7706 0.63752 0.0
H3005 H 0.74611 0.77557 0.6375 0.0
C3006 C 0.18815 0.66007 0.34239 0.0
C3007 C 0.1829 0.66303 0.334 0.0
C3008 C 0.19651 0.6652 0.34506 0.0
C3009 C 0.21031 0.68858 0.34031 0.0
H3010 H 0.23251 0.67217 0.34699 0.0
C3011 C 0.24976 0.70191 0.33598 0.0
C3012 C 0.25662 0.69864 0.34294 0.0
C3013 C 0.24023 0.69845 0.33643 0.0
C3014 C 0.22636 0.67689 0.3453 0.0
H3015 H 0.18214 0.67395 0.32206 0.0
H3016 H 0.19671 0.68274 0.32662 0.0
H3017 H 0.21672 0.66449 0.34514 0.0
H3018 H 0.25873 0.6895 0.35608 0.0
H3019 H 0.24212 0.68351 0.35686 0.0
H3020 H 0.22006 0.70094 0.34017 0.0
C3021 C 0.19434 0.67655 0.33122 0.0
C3022 C 0.21729 0.67248 0.34426 0.0
C3023 C 0.186 0.67144 0.32856 0.0
C3024 C 0.25365 0.69213 0.35057 0.0
C3025 C 0.24414 0.68865 0.35099 0.0
C3026 C 0.2194 0.69299 0.34133 0.0
C3027 C 0.19979 0.67339 0.33941 0.0
C3028 C 0.20918 0.67825 0.34158 0.0
C3029 C 0.23737 0.69163 0.34383 0.0
C3030 C 0.22755 0.68716 0.34367 0.0
H3031 H 0.18595 0.65366 0.34677 0.0
H3032 H 0.20048 0.66265 0.35149 0.0
H3033 H 0.20419 0.69327 0.33841 0.0
H3034 H 0.25179 0.70693 0.33002 0.0
H3035 H 0.23522 0.70082 0.33074 0.0
C3036 C 0.56747 0.04219 0.5697 0.0
C3037 C 0.56617 0.04467 0.57955 0.0
C3038 C 0.57323 0.03411 0.56724 0.0
C3039 C 0.58225 0.01031 0.57706 0.0
H3040 H 0.59907 0.01169 0.55437 0.0
C3041 C 0.60437 0.97637 0.56438 0.0
C3042 C 0.60433 0.9748 0.55425 0.0
C3043 C 0.60078 0.98524 0.56811 0.0
C3044 C 0.59436 0.01116 0.56069 0.0
H3045 H 0.57004 0.04066 0.59453 0.0
H3046 H 0.58009 0.02649 0.59019 0.0
H3047 H 0.59089 0.02664 0.55972 0.0
H3048 H 0.60055 0.98136 0.54008 0.0
H3049 H 0.59421 -0.00333 0.54655 0.0
H3050 H 0.58552 -0.00524 0.57788 0.0
C3051 C 0.5766 0.03081 0.5844 0.0
C3052 C 0.58969 0.01973 0.56376 0.0
C3053 C 0.57088 0.03895 0.58687 0.0
C3054 C 0.60073 0.98232 0.54793 0.0
C3055 C 0.59715 -0.00885 0.55164 0.0
C3056 C 0.5869 0.00171 0.57397 0.0
C3057 C 0.57778 0.02827 0.57456 0.0
C3058 C 0.58344 0.01937 0.57187 0.0
C3059 C 0.59709 -0.00728 0.56177 0.0
C3060 C 0.59288 0.002 0.56563 0.0
H3061 H 0.56395 0.04643 0.56387 0.0
H3062 H 0.57389 0.03228 0.55959 0.0
H3063 H 0.57741 0.00977 0.58328 0.0
H3064 H 0.60712 0.97072 0.56945 0.0
H3065 H 0.60092 0.98625 0.57594 0.0
C3066 C 0.22012 0.32458 0.84977 0.0
C3067 C 0.21282 0.32433 0.84262 0.0
C3068 C 0.22838 0.3304 0.84827 0.0
C3069 C 0.23859 0.35096 0.8329 0.0
H3070 H 0.26296 0.3375 0.83785 0.0
C3071 C 0.27409 0.36207 0.81365 0.0
C3072 C 0.28288 0.36081 0.81869 0.0
C3073 C 0.26538 0.35918 0.81802 0.0
C3074 C 0.25624 0.34147 0.83661 0.0
H3075 H 0.20831 0.33032 0.82844 0.0
H3076 H 0.22273 0.34037 0.8258 0.0
H3077 H 0.24793 0.32957 0.84291 0.0
H3078 H 0.28937 0.35605 0.83249 0.0
H3079 H 0.27413 0.3511 0.84016 0.0
H3080 H 0.24692 0.36275 0.82636 0.0
C3081 C 0.22204 0.33614 0.83261 0.0
C3082 C 0.24761 0.33691 0.83951 0.0
C3083 C 0.2138 0.33032 0.8341 0.0
C3084 C 0.28272 0.35706 0.82838 0.0
C3085 C 0.274 0.35416 0.83276 0.0
C3086 C 0.24723 0.35553 0.83002 0.0
C3087 C 0.22951 0.33612 0.8396 0.0
C3088 C 0.23867 0.3415 0.83751 0.0
C3089 C 0.26525 0.35498 0.82755 0.0
C3090 C 0.25615 0.35075 0.83165 0.0
H3091 H 0.21958 0.32011 0.85645 0.0
H3092 H 0.23395 0.33032 0.85385 0.0
H3093 H 0.23182 0.35476 0.8314 0.0
H3094 H 0.27395 0.36496 0.80618 0.0
H3095 H 0.2588 0.35982 0.81375 0.0
C3096 C 0.41888 0.44463 0.56133 0.0
C3097 C 0.41613 0.4389 0.55333 0.0
C3098 C 0.42076 0.45477 0.56006 0.0
C3099 C 0.41535 0.47615 0.54364 0.0
H3100 H 0.43611 0.48857 0.55795 0.0
C3101 C 0.41762 0.51848 0.54884 0.0
C3102 C 0.4268 0.52297 0.54871 0.0
C3103 C 0.41672 0.50817 0.54841 0.0
C3104 C 0.43036 0.48522 0.5538 0.0
H3105 H 0.41335 0.43931 0.5377 0.0
H3106 H 0.4167 0.45701 0.53548 0.0
H3107 H 0.43411 0.47061 0.55904 0.0
H3108 H 0.4422 0.52015 0.54769 0.0
H3109 H 0.44062 0.50216 0.54683 0.0
H3110 H 0.41162 0.49076 0.53836 0.0
C3111 C 0.41729 0.45367 0.54275 0.0
C3112 C 0.42914 0.47493 0.55452 0.0
C3113 C 0.41542 0.44351 0.54401 0.0
C3114 C 0.43503 0.51693 0.54786 0.0
C3115 C 0.43413 0.50661 0.54742 0.0
C3116 C 0.41656 0.48645 0.54292 0.0
C3117 C 0.41992 0.45942 0.55077 0.0
C3118 C 0.42156 0.47029 0.54954 0.0
C3119 C 0.42497 0.5021 0.54782 0.0
C3120 C 0.42402 0.49111 0.54807 0.0
H3121 H 0.41948 0.44132 0.56861 0.0
H3122 H 0.42264 0.45901 0.56641 0.0
H3123 H 0.40939 0.47282 0.53976 0.0
H3124 H 0.41113 0.52291 0.5495 0.0
H3125 H 0.40956 0.50493 0.54884 0.0
C3126 C 0.70621 0.15383 0.14303 0.0
C3127 C 0.69971 0.15241 0.15085 0.0
C3128 C 0.71601 0.1516 0.14421 0.0
C3129 C 0.73449 0.15057 0.16323 0.0
H3130 H 0.75038 0.13948 0.14284 0.0
C3131 C 0.77602 0.14834 0.16694 0.0
C3132 C 0.78128 0.15129 0.15857 0.0
C3133 C 0.76607 0.1466 0.16635 0.0
C3134 C 0.74605 0.14264 0.14859 0.0
H3135 H 0.69836 0.14711 0.16592 0.0
H3136 H 0.71551 0.14325 0.16797 0.0
H3137 H 0.73282 0.13961 0.14107 0.0
H3138 H 0.78024 0.15453 0.14296 0.0
H3139 H 0.76293 0.15172 0.14197 0.0
H3140 H 0.74768 0.15396 0.17059 0.0
C3141 C 0.713 0.14615 0.16095 0.0
C3142 C 0.736 0.14268 0.14758 0.0
C3143 C 0.70318 0.14831 0.15975 0.0
C3144 C 0.77642 0.15225 0.14956 0.0
C3145 C 0.76648 0.15055 0.14897 0.0
C3146 C 0.74454 0.15058 0.16422 0.0
C3147 C 0.71955 0.14796 0.15325 0.0
C3148 C 0.73012 0.14681 0.15481 0.0
C3149 C 0.76116 0.14781 0.15738 0.0
C3150 C 0.75046 0.14679 0.15682 0.0
H3151 H 0.70378 0.15694 0.13607 0.0
H3152 H 0.72088 0.15315 0.13816 0.0
H3153 H 0.73016 0.15392 0.16887 0.0
H3154 H 0.77956 0.14747 0.17399 0.0
H3155 H 0.76221 0.14437 0.17294 0.0
C3156 C 0.57139 0.92961 0.91105 0.0
C3157 C 0.56727 0.92889 0.90169 0.0
C3158 C 0.5767 0.93799 0.91353 0.0
C3159 C 0.5785 0.96446 0.9073 0.0
H3160 H 0.60111 0.96325 0.92409 0.0
C3161 C 0.59566 6e-05 0.9221 0.0
C3162 C 0.59789 -0.00028 0.93214 0.0
C3163 C 0.59354 -0.00866 0.91718 0.0
C3164 C 0.59478 0.96372 0.91943 0.0
H3165 H 0.56583 0.93627 0.88746 0.0
H3166 H 0.5751 0.95094 0.89182 0.0
H3167 H 0.59445 0.94796 0.91763 0.0
H3168 H 0.60005 -0.01011 0.94479 0.0
H3169 H 0.59621 0.97476 0.93628 0.0
H3170 H 0.57857 0.98014 0.90936 0.0
C3171 C 0.57415 0.94502 0.89726 0.0
C3172 C 0.59098 0.95496 0.91572 0.0
C3173 C 0.56888 0.9366 0.89475 0.0
C3174 C 0.59834 -0.00957 0.93705 0.0
C3175 C 0.59621 0.98173 0.93215 0.0
C3176 C 0.58227 0.97321 0.91104 0.0
C3177 C 0.57798 0.94588 0.90673 0.0
C3178 C 0.58269 0.95522 0.90976 0.0
C3179 C 0.59361 0.98209 0.92219 0.0
C3180 C 0.59034 0.97293 0.91731 0.0
H3181 H 0.57031 0.9238 0.91657 0.0
H3182 H 0.57947 0.93847 0.92092 0.0
H3183 H 0.57204 0.9649 0.90283 0.0
H3184 H 0.59531 0.00709 0.91809 0.0
H3185 H 0.59171 -0.00813 0.90947 0.0
C3186 C 0.92229 0.95179 0.42684 0.0
C3187 C 0.91421 0.94675 0.42317 0.0
C3188 C 0.92276 0.96216 0.42625 0.0
C3189 C 0.91278 0.98368 0.41239 0.0
H3190 H 0.92245 -0.00115 0.43406 0.0
C3191 C 0.90963 0.02631 0.41299 0.0
C3192 C 0.91753 0.03166 0.41661 0.0
C3193 C 0.90938 0.01596 0.41388 0.0
C3194 C 0.91984 -0.00529 0.4279 0.0
H3195 H 0.90023 0.94868 0.41617 0.0
H3196 H 0.90104 0.96674 0.41521 0.0
H3197 H 0.92167 0.98077 0.43557 0.0
H3198 H 0.93138 0.03032 0.42397 0.0
H3199 H 0.931 0.01223 0.42541 0.0
H3200 H 0.91097 -0.00242 0.4047 0.0
C3201 C 0.90706 0.96268 0.41842 0.0
C3202 C 0.91939 0.98435 0.42877 0.0
C3203 C 0.90657 0.95232 0.41903 0.0
C3204 C 0.92518 0.02642 0.42113 0.0
C3205 C 0.92494 0.01605 0.42201 0.0
C3206 C 0.91325 -0.00598 0.41152 0.0
C3207 C 0.91519 0.96772 0.42196 0.0
C3208 C 0.9158 0.97872 0.42104 0.0
C3209 C 0.91704 0.0107 0.41838 0.0
C3210 C 0.91674 -0.00033 0.41927 0.0
H3211 H 0.9283 0.94772 0.43007 0.0
H3212 H 0.92916 0.96581 0.42897 0.0
H3213 H 0.91015 0.97955 0.40623 0.0
H3214 H 0.90359 0.03011 0.40951 0.0
H3215 H 0.90312 0.01208 0.41114 0.0
C3216 C 0.32957 0.17525 0.14323 0.0
C3217 C 0.33476 0.17268 0.15177 0.0
C3218 C 0.32626 0.18495 0.14159 0.0
C3219 C 0.32119 0.20847 0.15417 0.0
H3220 H 0.32271 0.2199 0.12788 0.0
C3221 C 0.31431 0.25014 0.14565 0.0
C3222 C 0.30864 0.25251 0.13736 0.0
C3223 C 0.3175 0.24041 0.14744 0.0
C3224 C 0.32215 0.21678 0.13524 0.0
H3225 H 0.34089 0.1784 0.16509 0.0
H3226 H 0.33509 0.19533 0.16227 0.0
H3227 H 0.32822 0.20293 0.13101 0.0
H3228 H 0.30196 0.24649 0.12442 0.0
H3229 H 0.30753 0.22952 0.12756 0.0
H3230 H 0.31519 0.22238 0.1584 0.0
C3231 C 0.33334 0.18978 0.15696 0.0
C3232 C 0.32529 0.20704 0.13704 0.0
C3233 C 0.33662 0.18005 0.15861 0.0
C3234 C 0.30631 0.24493 0.13087 0.0
C3235 C 0.30955 0.23521 0.13264 0.0
C3236 C 0.31808 0.21822 0.15238 0.0
C3237 C 0.32814 0.19236 0.14841 0.0
C3238 C 0.32483 0.20275 0.14653 0.0
C3239 C 0.31515 0.23283 0.14096 0.0
C3240 C 0.31851 0.22249 0.14289 0.0
H3241 H 0.32802 0.16972 0.13781 0.0
H3242 H 0.32216 0.18663 0.13499 0.0
H3243 H 0.3206 0.20535 0.16153 0.0
H3244 H 0.31625 0.25579 0.1508 0.0
H3245 H 0.3219 0.23884 0.15386 0.0
C3246 C 0.50305 0.57908 0.91559 0.0
C3247 C 0.50658 0.58491 0.92321 0.0
C3248 C 0.49327 0.57947 0.91296 0.0
C3249 C 0.47141 0.5951 0.91484 0.0
H3250 H 0.45737 0.57045 0.91178 0.0
C3251 C 0.43008 0.59375 0.91656 0.0
C3252 C 0.42511 0.58774 0.90998 0.0
C3253 C 0.44012 0.59325 0.91735 0.0
C3254 C 0.46122 0.57741 0.91247 0.0
H3255 H 0.50264 0.59586 0.93389 0.0
H3256 H 0.48566 0.59654 0.92931 0.0
H3257 H 0.47486 0.57004 0.9144 0.0
H3258 H 0.42684 0.57671 0.89882 0.0
H3259 H 0.44443 0.57572 0.90031 0.0
H3260 H 0.45782 0.60247 0.91302 0.0
C3261 C 0.49043 0.59171 0.92532 0.0
C3262 C 0.47123 0.57717 0.91396 0.0
C3263 C 0.50017 0.59127 0.92799 0.0
C3264 C 0.43042 0.58119 0.90419 0.0
C3265 C 0.44051 0.58069 0.90498 0.0
C3266 C 0.46144 0.59534 0.91333 0.0
C3267 C 0.48685 0.58576 0.91783 0.0
C3268 C 0.4764 0.58601 0.91535 0.0
C3269 C 0.44547 0.58677 0.91153 0.0
C3270 C 0.45619 0.58649 0.91232 0.0
H3271 H 0.50781 0.5741 0.91177 0.0
H3272 H 0.49073 0.57486 0.9071 0.0
H3273 H 0.47522 0.60205 0.91568 0.0
H3274 H 0.4262 0.59885 0.92114 0.0
H3275 H 0.44369 0.5979 0.92259 0.0
C3276 C 0.15407 0.70527 0.64872 0.0
C3277 C 0.1518 0.69646 0.65396 0.0
C3278 C 0.14922 0.71411 0.65065 0.0
C3279 C 0.13617 0.72608 0.67053 0.0
H3280 H 0.13057 0.74622 0.65054 0.0
C3281 C 0.12038 0.76401 0.68055 0.0
C3282 C 0.12496 0.77232 0.6762 0.0
C3283 C 0.12206 0.7545 0.67707 0.0
C3284 C 0.13212 0.74068 0.6562 0.0
H3285 H 0.14231 0.68992 0.66498 0.0
H3286 H 0.13377 0.70534 0.66827 0.0
H3287 H 0.13627 0.72987 0.64576 0.0
H3288 H 0.13458 0.77719 0.66449 0.0
H3289 H 0.13759 0.76058 0.65849 0.0
H3290 H 0.13226 0.73692 0.68098 0.0
C3291 C 0.13942 0.70544 0.66279 0.0
C3292 C 0.13538 0.73131 0.65347 0.0
C3293 C 0.14429 0.69659 0.66087 0.0
C3294 C 0.13094 0.77095 0.66803 0.0
C3295 C 0.13263 0.76143 0.66455 0.0
C3296 C 0.1329 0.73543 0.67326 0.0
C3297 C 0.14197 0.71434 0.65784 0.0
C3298 C 0.13759 0.72396 0.66062 0.0
C3299 C 0.12836 0.75307 0.66916 0.0
C3300 C 0.13098 0.74289 0.66614 0.0
H3301 H 0.15981 0.70543 0.64333 0.0
H3302 H 0.15144 0.72083 0.64677 0.0
H3303 H 0.13795 0.72066 0.67624 0.0
H3304 H 0.11567 0.76481 0.68681 0.0
H3305 H 0.11854 0.74823 0.68068 0.0
C3306 C 0.00632 0.39269 0.40278 0.0
C3307 C 0.01105 0.39931 0.40898 0.0
C3308 C -0.00377 0.39178 0.40301 0.0
C3309 C 0.97476 0.40632 0.4089 0.0
H3310 H 0.961 0.38133 0.40732 0.0
C3311 C 0.93465 0.4045 0.39841 0.0
C3312 C 0.92863 0.39839 0.40423 0.0
C3313 C 0.94467 0.4041 0.39949 0.0
C3314 C 0.96476 0.38835 0.40783 0.0
H3315 H 0.00892 0.40986 0.42054 0.0
H3316 H -0.00861 0.40829 0.42089 0.0
H3317 H 0.97869 0.38133 0.40858 0.0
H3318 H 0.92843 0.38667 0.41539 0.0
H3319 H 0.94604 0.386 0.41733 0.0
H3320 H 0.96091 0.41336 0.40806 0.0
C3321 C -0.00454 0.40388 0.4158 0.0
C3322 C 0.97486 0.38835 0.40847 0.0
C3323 C 0.00551 0.40474 0.41562 0.0
C3324 C 0.93287 0.39166 0.41099 0.0
C3325 C 0.94294 0.39118 0.41201 0.0
C3326 C 0.9647 0.40632 0.40817 0.0
C3327 C -0.00931 0.39752 0.40939 0.0
C3328 C 0.97997 0.39735 0.40899 0.0
C3329 C 0.94893 0.39749 0.40634 0.0
C3330 C 0.95959 0.39734 0.40756 0.0
H3331 H 0.01037 0.38838 0.39761 0.0
H3332 H -0.00725 0.38686 0.39794 0.0
H3333 H 0.97849 0.41338 0.40919 0.0
H3334 H 0.93161 0.40974 0.3931 0.0
H3335 H 0.94911 0.40895 0.39492 0.0
C3336 C 0.3141 0.79048 0.32358 0.0
C3337 C 0.30992 0.79624 0.3309 0.0
C3338 C 0.3141 0.78011 0.32444 0.0
C3339 C 0.30195 0.75914 0.33753 0.0
H3340 H 0.3246 0.74435 0.32969 0.0
C3341 C 0.30228 0.71624 0.33652 0.0
C3342 C 0.3107 0.71137 0.3398 0.0
C3343 C 0.3021 0.72658 0.33528 0.0
C3344 C 0.31824 0.74837 0.33199 0.0
H3345 H 0.30269 0.79564 0.34498 0.0
H3346 H 0.30284 0.77759 0.34657 0.0
H3347 H 0.32452 0.76239 0.32796 0.0
H3348 H 0.32558 0.71349 0.34427 0.0
H3349 H 0.32525 0.73153 0.34226 0.0
H3350 H 0.29576 0.74514 0.34181 0.0
C3351 C 0.30591 0.78105 0.34004 0.0
C3352 C 0.31815 0.75871 0.33087 0.0
C3353 C 0.3059 0.79141 0.33917 0.0
C3354 C 0.31897 0.71704 0.34174 0.0
C3355 C 0.3188 0.72737 0.34053 0.0
C3356 C 0.30204 0.74879 0.33866 0.0
C3357 C 0.30998 0.77526 0.33268 0.0
C3358 C 0.31001 0.76423 0.33366 0.0
C3359 C 0.31036 0.73228 0.33727 0.0
C3360 C 0.3102 0.74328 0.33593 0.0
H3361 H 0.31756 0.79396 0.31729 0.0
H3362 H 0.31728 0.77588 0.31862 0.0
H3363 H 0.29551 0.76314 0.33964 0.0
H3364 H 0.2959 0.71207 0.33462 0.0
H3365 H 0.29555 0.73009 0.33256 0.0
C3366 C 0.0034 0.57344 0.09246 0.0
C3367 C 0.00882 0.57688 0.08437 0.0
C3368 C -0.00669 0.5734 0.09211 0.0
C3369 C 0.97203 0.58331 0.07849 0.0
H3370 H 0.95983 0.55928 0.08866 0.0
C3371 C 0.93175 0.57356 0.07145 0.0
C3372 C 0.92661 0.56916 0.07929 0.0
C3373 C 0.94173 0.57514 0.07218 0.0
C3374 C 0.9631 0.56609 0.08589 0.0
H3375 H 0.00787 0.58337 0.06971 0.0
H3376 H -0.00976 0.58319 0.06906 0.0
H3377 H 0.97726 0.56114 0.08991 0.0
H3378 H 0.92784 0.56332 0.09418 0.0
H3379 H 0.94516 0.56617 0.09549 0.0
H3380 H 0.9578 0.58819 0.0744 0.0
C3381 C -0.0062 0.5806 0.07571 0.0
C3382 C 0.9731 0.56717 0.08663 0.0
C3383 C 0.00391 0.58066 0.07607 0.0
C3384 C 0.9316 0.56665 0.08797 0.0
C3385 C 0.94154 0.56821 0.0887 0.0
C3386 C 0.96199 0.58222 0.07775 0.0
C3387 C 0.98838 0.57677 0.08365 0.0
C3388 C 0.9777 0.5758 0.08296 0.0
C3389 C 0.94675 0.57237 0.08078 0.0
C3390 C 0.95741 0.57361 0.08147 0.0
H3391 H 0.00694 0.57055 0.09901 0.0
H3392 H -0.01065 0.57059 0.09843 0.0
H3393 H 0.97533 0.59008 0.07567 0.0
H3394 H 0.92808 0.57591 0.06481 0.0
H3395 H 0.94553 0.57837 0.06595 0.0
C3396 C 0.15735 0.1977 0.82548 0.0
C3397 C 0.1546 0.19673 0.81565 0.0
C3398 C 0.15918 0.20708 0.82924 0.0
C3399 C 0.1562 0.23424 0.82382 0.0
H3400 H 0.17922 0.23642 0.83982 0.0
C3401 C 0.1703 0.27229 0.83639 0.0
C3402 C 0.18035 0.27369 0.83573 0.0
C3403 C 0.1663 0.26283 0.83536 0.0
C3404 C 0.17278 0.23595 0.83533 0.0
H3405 H 0.15128 0.20487 0.80215 0.0
H3406 H 0.15467 0.22112 0.80861 0.0
H3407 H 0.17352 0.22011 0.83524 0.0
H3408 H 0.19408 0.26625 0.8336 0.0
H3409 H 0.18713 0.24989 0.83158 0.0
H3410 H 0.15579 0.25011 0.82345 0.0
C3411 C 0.15527 0.2147 0.8135 0.0
C3412 C 0.16943 0.22657 0.83282 0.0
C3413 C 0.15339 0.20534 0.80976 0.0
C3414 C 0.18631 0.26543 0.83418 0.0
C3415 C 0.18232 0.25601 0.8331 0.0
C3416 C 0.1596 0.24363 0.82628 0.0
C3417 C 0.15833 0.21569 0.82324 0.0
C3418 C 0.16121 0.2256 0.82686 0.0
C3419 C 0.17226 0.25458 0.83362 0.0
C3420 C 0.16805 0.24461 0.83189 0.0
H3421 H 0.15828 0.1912 0.83022 0.0
H3422 H 0.16137 0.20758 0.83682 0.0
H3423 H 0.14975 0.23377 0.81936 0.0
H3424 H 0.16551 0.27849 0.83764 0.0
H3425 H 0.15853 0.26198 0.83592 0.0
C3426 C 0.49222 0.39251 0.5384 0.0
C3427 C 0.49956 0.38908 0.54475 0.0
C3428 C 0.48252 0.39184 0.54115 0.0
C3429 C 0.46652 0.38928 0.56263 0.0
H3430 H 0.44765 0.38146 0.54327 0.0
C3431 C 0.42538 0.39341 0.56851 0.0
C3432 C 0.41937 0.38579 0.5652 0.0
C3433 C 0.43524 0.39346 0.5663 0.0
C3434 C 0.45283 0.38357 0.54879 0.0
H3435 H 0.50246 0.38233 0.55903 0.0
H3436 H 0.48548 0.38111 0.56383 0.0
H3437 H 0.46473 0.38205 0.53895 0.0
H3438 H 0.41902 0.37204 0.5573 0.0
H3439 H 0.43628 0.37207 0.55349 0.0
H3440 H 0.45461 0.39069 0.5725 0.0
C3441 C 0.48725 0.38439 0.55674 0.0
C3442 C 0.46261 0.38402 0.54628 0.0
C3443 C 0.49698 0.38505 0.55398 0.0
C3444 C 0.42347 0.37807 0.55985 0.0
C3445 C 0.43333 0.37813 0.55762 0.0
C3446 C 0.45672 0.38885 0.56514 0.0
C3447 C 0.47991 0.38773 0.55033 0.0
C3448 C 0.46956 0.38695 0.55314 0.0
C3449 C 0.43932 0.38585 0.56078 0.0
C3450 C 0.44976 0.38604 0.55823 0.0
H3451 H 0.49394 0.3957 0.53126 0.0
H3452 H 0.47706 0.39464 0.53611 0.0
H3453 H 0.47168 0.39163 0.56806 0.0
H3454 H 0.42251 0.39923 0.57299 0.0
H3455 H 0.43964 0.39953 0.56882 0.0
C3456 C 0.13482 0.33345 0.26105 0.0
C3457 C 0.13398 0.32308 0.2621 0.0
C3458 C 0.1371 0.33786 0.25195 0.0
C3459 C 0.1379 0.33273 0.22532 0.0
H3460 H 0.15725 0.35353 0.22447 0.0
C3461 C 0.152 0.34876 0.18853 0.0
C3462 C 0.1621 0.3498 0.18787 0.0
C3463 C 0.14755 0.34712 0.19762 0.0
C3464 C 0.15184 0.34772 0.22457 0.0
H3465 H 0.13478 0.30922 0.25437 0.0
H3466 H 0.13888 0.31685 0.23864 0.0
H3467 H 0.15132 0.34726 0.24024 0.0
H3468 H 0.17538 0.35031 0.1963 0.0
H3469 H 0.16767 0.34728 0.21206 0.0
H3470 H 0.13877 0.33281 0.20971 0.0
C3471 C 0.13762 0.32162 0.24477 0.0
C3472 C 0.14835 0.3442 0.23362 0.0
C3473 C 0.13534 0.31723 0.25383 0.0
C3474 C 0.16759 0.34954 0.19653 0.0
C3475 C 0.16315 0.34787 0.2056 0.0
C3476 C 0.14141 0.33621 0.21629 0.0
C3477 C 0.13858 0.33199 0.24371 0.0
C3478 C 0.1415 0.33651 0.23411 0.0
C3479 C 0.15309 0.34646 0.20625 0.0
C3480 C 0.14857 0.34361 0.2158 0.0
H3481 H 0.13379 0.33817 0.26728 0.0
H3482 H 0.13769 0.34587 0.25137 0.0
H3483 H 0.1325 0.32691 0.22542 0.0
H3484 H 0.14756 0.34899 0.182 0.0
H3485 H 0.13978 0.34622 0.19786 0.0
C3486 C 0.39797 0.38696 0.02392 0.0
C3487 C 0.39677 0.37719 0.02755 0.0
C3488 C 0.39589 0.3894 0.01416 0.0
C3489 C 0.39391 0.37829 -0.01009 0.0
H3490 H 0.3835 0.40421 0.98277 0.0
C3491 C 0.39867 0.3963 0.95149 0.0
C3492 C 0.39142 0.40267 0.94778 0.0
C3493 C 0.39793 0.39212 0.96093 0.0
C3494 C 0.38627 0.39687 0.98459 0.0
H3495 H 0.39221 0.36235 0.02383 0.0
H3496 H 0.38846 0.36665 0.00675 0.0
H3497 H 0.38433 0.39905 -8e-05 0.0
H3498 H 0.37744 0.4092 0.95087 0.0
H3499 H 0.37606 0.40176 0.96725 0.0
H3500 H 0.3958 0.37611 0.97456 0.0
C3501 C 0.39114 0.3724 0.01145 0.0
C3502 C 0.38686 0.39396 -0.00554 0.0
C3503 C 0.39324 0.36994 0.02124 0.0
C3504 C 0.38321 0.40441 0.95355 0.0
C3505 C 0.38244 0.40018 0.96296 0.0
C3506 C 0.39328 0.38118 0.98002 0.0
C3507 C 0.39252 0.38214 0.00777 0.0
C3508 C 0.39089 0.38473 -0.00275 0.0
C3509 C 0.38989 0.39416 0.96686 0.0
C3510 C 0.38963 0.3906 0.97726 0.0
H3511 H 0.4007 0.39273 0.02856 0.0
H3512 H 0.3972 0.39694 0.01155 0.0
H3513 H 0.39711 0.37115 -0.0082 0.0
H3514 H 0.4051 0.3948 0.94725 0.0
H3515 H 0.40387 0.38763 0.96372 0.0
C3516 C 0.3432 0.67426 0.67622 0.0
C3517 C 0.33454 0.67576 0.67102 0.0
C3518 C 0.34315 0.67332 0.68641 0.0
C3519 C 0.32722 0.6689 0.70795 0.0
H3520 H 0.34712 0.68352 0.72144 0.0
C3521 C 0.32473 0.67951 0.74863 0.0
C3522 C 0.33329 0.67961 0.75418 0.0
C3523 C 0.32499 0.67746 0.73866 0.0
C3524 C 0.34161 0.67924 0.71781 0.0
H3525 H 0.31905 0.67769 0.67245 0.0
H3526 H 0.31893 0.67603 0.69026 0.0
H3527 H 0.34734 0.68297 0.70369 0.0
H3528 H 0.34878 0.67707 0.75371 0.0
H3529 H 0.34921 0.6734 0.73633 0.0
H3530 H 0.32137 0.66538 0.72215 0.0
C3531 C 0.32575 0.6753 0.68644 0.0
C3532 C 0.34173 0.67893 0.70761 0.0
C3533 C 0.3258 0.6762 0.67622 0.0
C3534 C 0.34206 0.67714 0.74963 0.0
C3535 C 0.34231 0.67509 0.73966 0.0
C3536 C 0.32709 0.66922 0.71818 0.0
C3537 C 0.33444 0.67397 0.69166 0.0
C3538 C 0.3345 0.67382 0.70255 0.0
C3539 C 0.33382 0.67546 0.73401 0.0
C3540 C 0.33424 0.67447 0.72322 0.0
H3541 H 0.35004 0.67387 0.67239 0.0
H3542 H 0.34996 0.67215 0.69019 0.0
H3543 H 0.32162 0.66479 0.70428 0.0
H3544 H 0.31785 0.68135 0.75191 0.0
H3545 H 0.31832 0.67788 0.73451 0.0
C3546 C 0.0926 0.56298 0.46462 0.0
C3547 C 0.08996 0.55317 0.46256 0.0
C3548 C 0.09173 0.56654 0.47412 0.0
C3549 C 0.08979 0.55786 0.49997 0.0
H3550 H 0.07998 0.58437 0.50427 0.0
C3551 C 0.08925 0.57464 0.53835 0.0
C3552 C 0.08091 0.57991 0.54099 0.0
C3553 C 0.09063 0.57174 0.5287 0.0
C3554 C 0.08268 0.57693 0.50319 0.0
H3555 H 0.08423 0.53945 0.4689 0.0
H3556 H 0.08262 0.54567 0.48535 0.0
H3557 H 0.08175 0.57855 0.48758 0.0
H3558 H 0.06778 0.58678 0.5354 0.0
H3559 H 0.07 0.58142 0.51865 0.0
H3560 H 0.09049 0.55611 0.51554 0.0
C3561 C 0.08552 0.55058 0.47968 0.0
C3562 C 0.0838 0.57364 0.49362 0.0
C3563 C 0.08639 0.54703 0.47021 0.0
C3564 C 0.0741 0.58243 0.53371 0.0
C3565 C 0.07547 0.57952 0.52405 0.0
C3566 C 0.08868 0.56114 0.50951 0.0
C3567 C 0.08821 0.56036 0.48177 0.0
C3568 C 0.08731 0.56404 0.4919 0.0
C3569 C 0.08372 0.57407 0.52145 0.0
C3570 C 0.08507 0.5707 0.51125 0.0
H3571 H 0.09539 0.5679 0.4589 0.0
H3572 H 0.09395 0.57408 0.4755 0.0
H3573 H 0.09263 0.55047 0.49891 0.0
H3574 H 0.09468 0.57266 0.54377 0.0
H3575 H 0.09715 0.56771 0.52692 0.0
C3576 C 0.15221 0.63035 0.28162 0.0
C3577 C 0.14954 0.63865 0.28705 0.0
C3578 C 0.14957 0.62973 0.27177 0.0
C3579 C 0.13379 0.64123 0.2524 0.0
H3580 H 0.15448 0.63339 0.23509 0.0
C3581 C 0.12983 0.64496 0.21043 0.0
C3582 C 0.1378 0.64926 0.20555 0.0
C3583 C 0.13066 0.64158 0.22016 0.0
C3584 C 0.14862 0.6356 0.23982 0.0
H3585 H 0.14159 0.65255 0.28652 0.0
H3586 H 0.13717 0.65156 0.26937 0.0
H3587 H 0.15658 0.63153 0.25272 0.0
H3588 H 0.15298 0.653 0.20695 0.0
H3589 H 0.15438 0.6473 0.22389 0.0
H3590 H 0.12607 0.64585 0.23952 0.0
C3591 C 0.14118 0.64546 0.27271 0.0
C3592 C 0.14977 0.63441 0.24994 0.0
C3593 C 0.14378 0.64606 0.28255 0.0
C3594 C 0.1467 0.64973 0.21048 0.0
C3595 C 0.14751 0.64639 0.2202 0.0
C3596 C 0.13266 0.64247 0.24228 0.0
C3597 C 0.14422 0.63739 0.26713 0.0
C3598 C 0.14246 0.63743 0.25637 0.0
C3599 C 0.13947 0.64243 0.22523 0.0
C3600 C 0.14016 0.63989 0.23587 0.0
H3601 H 0.15657 0.62447 0.28488 0.0
H3602 H 0.15188 0.62333 0.26773 0.0
H3603 H 0.12795 0.64348 0.25714 0.0
H3604 H 0.12289 0.64442 0.20682 0.0
H3605 H 0.12436 0.63843 0.22377 0.0
C3606 C 0.08792 0.41155 0.01548 0.0
C3607 C 0.08727 0.42189 0.01653 0.0
C3608 C 0.08659 0.40735 0.00631 0.0
C3609 C 0.08679 0.4136 0.97973 0.0
H3610 H 0.07188 0.38938 0.97772 0.0
C3611 C 0.084 0.39224 0.94375 0.0
C3612 C 0.07499 0.38815 0.94134 0.0
C3613 C 0.0855 0.39642 0.95288 0.0
C3614 C 0.07599 0.3962 0.97815 0.0
H3615 H 0.08474 0.4359 0.00873 0.0
H3616 H 0.08233 0.42858 -0.00715 0.0
H3617 H 0.07455 0.39649 -0.00626 0.0
H3618 H 0.06059 0.38495 0.9468 0.0
H3619 H 0.06308 0.39255 0.9626 0.0
H3620 H 0.08805 0.41344 0.96414 0.0
C3621 C 0.084 0.42372 -0.00094 0.0
C3622 C 0.07763 0.4002 0.98735 0.0
C3623 C 0.08533 0.42792 0.0082 0.0
C3624 C 0.06751 0.38832 0.94828 0.0
C3625 C 0.069 0.39251 0.95743 0.0
C3626 C 0.08515 0.40961 0.97054 0.0
C3627 C 0.0846 0.41338 -0.00201 0.0
C3628 C 0.08304 0.40897 -0.01175 0.0
C3629 C 0.07803 0.39658 0.95985 0.0
C3630 C 0.07971 0.40086 0.96963 0.0
H3631 H 0.08942 0.4067 0.02174 0.0
H3632 H 0.08721 0.39937 0.00572 0.0
H3633 H 0.09107 0.42031 0.98017 0.0
H3634 H 0.08994 0.39217 0.93858 0.0
H3635 H 0.09258 0.39936 0.95454 0.0
C3636 C 0.3532 0.30259 0.7248 0.0
C3637 C 0.34548 0.29705 0.72107 0.0
C3638 C 0.35184 0.30862 0.73288 0.0
C3639 C 0.33619 0.31077 0.75436 0.0
H3640 H 0.34658 0.33742 0.75606 0.0
C3641 C 0.33395 0.33197 0.79009 0.0
C3642 C 0.33025 0.34168 0.78926 0.0
C3643 C 0.33697 0.32699 0.78179 0.0
C3644 C 0.34364 0.32999 0.75567 0.0
H3645 H 0.3302 0.29374 0.7227 0.0
H3646 H 0.32785 0.30422 0.73676 0.0
H3647 H 0.34917 0.32796 0.74118 0.0
H3648 H 0.32735 0.35397 0.77909 0.0
H3649 H 0.33261 0.34522 0.76459 0.0
H3650 H 0.33054 0.31277 0.76873 0.0
C3651 C 0.33498 0.30383 0.73351 0.0
C3652 C 0.34517 0.32456 0.7472 0.0
C3653 C 0.33632 0.29786 0.72542 0.0
C3654 C 0.33014 0.34649 0.77999 0.0
C3655 C 0.33318 0.34149 0.77168 0.0
C3656 C 0.33473 0.31614 0.76283 0.0
C3657 C 0.34274 0.30916 0.73742 0.0
C3658 C 0.34138 0.31492 0.74644 0.0
C3659 C 0.33638 0.33159 0.77247 0.0
C3660 C 0.33839 0.32583 0.76357 0.0
H3661 H 0.36034 0.30214 0.72159 0.0
H3662 H 0.35796 0.31261 0.73577 0.0
H3663 H 0.33328 0.30332 0.75404 0.0
H3664 H 0.33423 0.32807 0.79711 0.0
H3665 H 0.33956 0.31942 0.78265 0.0
C3666 C 0.4313 0.58656 0.54274 0.0
C3667 C 0.4258 0.5789 0.54711 0.0
C3668 C 0.43096 0.58834 0.53264 0.0
C3669 C 0.4159 0.58432 0.51079 0.0
H3670 H 0.43959 0.59099 0.49697 0.0
C3671 C 0.41868 0.58858 0.4684 0.0
C3672 C 0.42448 0.5964 0.46474 0.0
C3673 C 0.41833 0.58638 0.47846 0.0
C3674 C 0.43289 0.58924 0.50074 0.0
H3675 H 0.41525 0.56741 0.54435 0.0
H3676 H 0.4149 0.57028 0.52664 0.0
H3677 H 0.44016 0.58695 0.51442 0.0
H3678 H 0.43414 0.60829 0.46883 0.0
H3679 H 0.43347 0.60451 0.48631 0.0
H3680 H 0.40866 0.58661 0.49703 0.0
C3681 C 0.41951 0.5749 0.53104 0.0
C3682 C 0.43322 0.58692 0.51074 0.0
C3683 C 0.41985 0.57312 0.54117 0.0
C3684 C 0.42965 0.60217 0.47138 0.0
C3685 C 0.42932 0.59996 0.4814 0.0
C3686 C 0.41558 0.58663 0.50075 0.0
C3687 C 0.42508 0.58252 0.52666 0.0
C3688 C 0.42472 0.58453 0.51592 0.0
C3689 C 0.4238 0.59194 0.48505 0.0
C3690 C 0.42407 0.58922 0.49564 0.0
H3691 H 0.43589 0.59121 0.54713 0.0
H3692 H 0.43521 0.59439 0.52953 0.0
H3693 H 0.40921 0.58262 0.51458 0.0
H3694 H 0.4146 0.58399 0.46347 0.0
H3695 H 0.41404 0.58013 0.48104 0.0
C3696 C 0.16986 0.14093 0.33091 0.0
C3697 C 0.16543 0.14957 0.33434 0.0
C3698 C 0.17989 0.14038 0.32994 0.0
C3699 C 0.20294 0.15196 0.33746 0.0
H3700 H 0.2125 0.14028 0.31367 0.0
C3701 C 0.24264 0.15554 0.32403 0.0
C3702 C 0.24676 0.1473 0.31948 0.0
C3703 C 0.2329 0.15544 0.32682 0.0
C3704 C 0.20997 0.14343 0.32043 0.0
H3705 H 0.16819 0.16412 0.34016 0.0
H3706 H 0.18569 0.16333 0.33814 0.0
H3707 H 0.1952 0.14091 0.31668 0.0
H3708 H 0.24401 0.13231 0.31473 0.0
H3709 H 0.2271 0.13211 0.31969 0.0
H3710 H 0.21779 0.15459 0.34111 0.0
C3711 C 0.18138 0.15697 0.33616 0.0
C3712 C 0.20004 0.1438 0.32215 0.0
C3713 C 0.17131 0.15751 0.33715 0.0
C3714 C 0.24105 0.13882 0.31815 0.0
C3715 C 0.23133 0.13872 0.32093 0.0
C3716 C 0.21291 0.15161 0.33572 0.0
C3717 C 0.18577 0.14846 0.33239 0.0
C3718 C 0.19639 0.14806 0.33069 0.0
C3719 C 0.22709 0.14711 0.32512 0.0
C3720 C 0.21654 0.14732 0.32718 0.0
H3721 H 0.16556 0.13462 0.32876 0.0
H3722 H 0.18304 0.13362 0.32721 0.0
H3723 H 0.20038 0.1552 0.34416 0.0
H3724 H 0.24684 0.1622 0.32518 0.0
H3725 H 0.22985 0.16205 0.32997 0.0
C3726 C 0.75154 0.33176 0.65434 0.0
C3727 C 0.75389 0.34055 0.65916 0.0
C3728 C 0.7421 0.3301 0.65108 0.0
C3729 C 0.71696 0.33784 0.65583 0.0
H3730 H 0.71149 0.32492 0.63139 0.0
C3731 C 0.67818 0.33421 0.64096 0.0
C3732 C 0.67554 0.32504 0.63707 0.0
C3733 C 0.6878 0.33619 0.6433 0.0
C3734 C 0.71291 0.32845 0.63828 0.0
H3735 H 0.74823 0.35463 0.664 0.0
H3736 H 0.73184 0.3518 0.65819 0.0
H3737 H 0.72822 0.3284 0.6359 0.0
H3738 H 0.68106 0.31097 0.6321 0.0
H3739 H 0.69784 0.31432 0.63639 0.0
H3740 H 0.70168 0.33788 0.65823 0.0
C3741 C 0.73724 0.3461 0.6571 0.0
C3742 C 0.72249 0.33045 0.64086 0.0
C3743 C 0.74666 0.34775 0.66038 0.0
C3744 C 0.68279 0.31797 0.63536 0.0
C3745 C 0.69244 0.31997 0.63767 0.0
C3746 C 0.7074 0.33586 0.65324 0.0
C3747 C 0.7348 0.33719 0.65255 0.0
C3748 C 0.72463 0.33517 0.64967 0.0
C3749 C 0.69505 0.32908 0.64173 0.0
C3750 C 0.70525 0.33115 0.64444 0.0
H3751 H 0.75693 0.32605 0.65328 0.0
H3752 H 0.74046 0.32312 0.64768 0.0
H3753 H 0.71835 0.3413 0.66276 0.0
H3754 H 0.67277 0.33984 0.64231 0.0
H3755 H 0.68959 0.34335 0.64626 0.0
C3756 C 0.4032 0.95292 0.40117 0.0
C3757 C 0.39653 0.94934 0.40815 0.0
C3758 C 0.40344 0.96303 0.39851 0.0
C3759 C 0.38837 0.98571 0.39842 0.0
H3760 H 0.41285 -0.0007 0.39471 0.0
C3761 C 0.39104 0.02533 0.3814 0.0
C3762 C 0.39767 0.03187 0.3856 0.0
C3763 C 0.39083 0.01531 0.38432 0.0
C3764 C 0.40595 -0.00437 0.3958 0.0
H3765 H 0.38483 0.95353 0.41777 0.0
H3766 H 0.38528 0.97112 0.4132 0.0
H3767 H 0.4127 0.98174 0.39957 0.0
H3768 H 0.40959 0.03292 0.39582 0.0
H3769 H 0.40903 0.01553 0.40118 0.0
H3770 H 0.38161 -0.00037 0.39479 0.0
C3771 C 0.39028 0.96614 0.40971 0.0
C3772 C 0.40587 0.98554 0.39847 0.0
C3773 C 0.39005 0.95606 0.41236 0.0
C3774 C 0.40415 0.02817 0.39273 0.0
C3775 C 0.40396 0.01814 0.39564 0.0
C3776 C 0.38845 -0.00421 0.39573 0.0
C3777 C 0.39696 0.96975 0.40274 0.0
C3778 C 0.39708 0.98046 0.39983 0.0
C3779 C 0.39731 0.01159 0.39146 0.0
C3780 C 0.39724 0.00088 0.39439 0.0
H3781 H 0.40804 0.94791 0.39752 0.0
H3782 H 0.40854 0.96554 0.39298 0.0
H3783 H 0.38147 0.982 0.3993 0.0
H3784 H 0.38603 0.02795 0.37581 0.0
H3785 H 0.38572 0.01043 0.38084 0.0
C3786 C 0.76028 0.64695 0.15889 0.0
C3787 C 0.76536 0.65486 0.15436 0.0
C3788 C 0.75017 0.64657 0.1584 0.0
C3789 C 0.72894 0.66279 0.15385 0.0
H3790 H 0.71542 0.63821 0.14889 0.0
C3791 C 0.6897 0.66204 0.14037 0.0
C3792 C 0.68341 0.65485 0.1444 0.0
C3793 C 0.69953 0.66182 0.14261 0.0
C3794 C 0.71909 0.6451 0.15043 0.0
H3795 H 0.76381 0.6684 0.14554 0.0
H3796 H 0.74629 0.66763 0.14457 0.0
H3797 H 0.73301 0.63809 0.15071 0.0
H3798 H 0.68256 0.64159 0.15367 0.0
H3799 H 0.69981 0.64127 0.1577 0.0
H3800 H 0.71507 0.66983 0.15337 0.0
C3801 C 0.75007 0.66185 0.14868 0.0
C3802 C 0.72916 0.64503 0.15146 0.0
C3803 C 0.76013 0.66224 0.14918 0.0
C3804 C 0.68717 0.64739 0.15068 0.0
C3805 C 0.69707 0.64712 0.15287 0.0
C3806 C 0.7189 0.66285 0.15279 0.0
C3807 C 0.74495 0.65408 0.15338 0.0
C3808 C 0.73421 0.65392 0.153 0.0
C3809 C 0.70334 0.65435 0.14885 0.0
C3810 C 0.71388 0.65405 0.15089 0.0
H3811 H 0.7641 0.64115 0.16295 0.0
H3812 H 0.74644 0.64051 0.16213 0.0
H3813 H 0.73258 0.66972 0.15527 0.0
H3814 H 0.68701 0.66785 0.13546 0.0
H3815 H 0.7042 0.6674 0.13927 0.0
C3816 C 0.56045 0.5316 0.35931 0.0
C3817 C 0.56243 0.53911 0.366 0.0
C3818 C 0.56357 0.52186 0.36118 0.0
C3819 C 0.57936 0.50625 0.3776 0.0
H3820 H 0.55969 0.4863 0.37342 0.0
C3821 C 0.58416 0.46577 0.39176 0.0
C3822 C 0.57603 0.46162 0.3965 0.0
C3823 C 0.58333 0.4746 0.38621 0.0
C3824 C 0.56527 0.49178 0.37465 0.0
H3825 H 0.56969 0.54235 0.37963 0.0
H3826 H 0.57492 0.5254 0.38299 0.0
H3827 H 0.5572 0.50315 0.36715 0.0
H3828 H 0.56062 0.46336 0.39888 0.0
H3829 H 0.55922 0.47878 0.38941 0.0
H3830 H 0.58715 0.495 0.38563 0.0
C3831 C 0.57109 0.52702 0.37623 0.0
C3832 C 0.5639 0.50143 0.37093 0.0
C3833 C 0.56803 0.53676 0.37433 0.0
C3834 C 0.56703 0.46633 0.39533 0.0
C3835 C 0.56621 0.47516 0.38982 0.0
C3836 C 0.5807 0.49661 0.38138 0.0
C3837 C 0.5687 0.51939 0.3698 0.0
C3838 C 0.57082 0.50885 0.37256 0.0
C3839 C 0.57437 0.47948 0.38529 0.0
C3840 C 0.57355 0.48932 0.38017 0.0
H3841 H 0.55623 0.53318 0.35278 0.0
H3842 H 0.56176 0.51621 0.35599 0.0
H3843 H 0.58491 0.51174 0.37886 0.0
H3844 H 0.59119 0.46228 0.39248 0.0
H3845 H 0.58973 0.47765 0.38271 0.0
C3846 C 0.27057 0.83243 0.84289 0.0
C3847 C 0.27294 0.82826 0.85212 0.0
C3848 C 0.26142 0.83649 0.84116 0.0
C3849 C 0.23642 0.83475 0.85027 0.0
H3850 H 0.23238 0.85677 0.8319 0.0
C3851 C 0.20004 0.84153 0.83079 0.0
C3852 C 0.19712 0.85133 0.8286 0.0
C3853 C 0.20912 0.83959 0.83491 0.0
C3854 C 0.23335 0.85071 0.83717 0.0
H3855 H 0.2677 0.82554 0.8669 0.0
H3856 H 0.25177 0.83281 0.86392 0.0
H3857 H 0.24872 0.85242 0.83703 0.0
H3858 H 0.20132 0.86681 0.82933 0.0
H3859 H 0.21709 0.86343 0.83668 0.0
H3860 H 0.22104 0.8331 0.85048 0.0
C3861 C 0.25693 0.83274 0.85796 0.0
C3862 C 0.24275 0.84813 0.84001 0.0
C3863 C 0.26608 0.82863 0.85969 0.0
C3864 C 0.20338 0.85917 0.83087 0.0
C3865 C 0.21244 0.85723 0.83504 0.0
C3866 C 0.22702 0.83737 0.84747 0.0
C3867 C 0.25443 0.83655 0.84862 0.0
C3868 C 0.24441 0.83999 0.84644 0.0
C3869 C 0.21547 0.84741 0.83699 0.0
C3870 C 0.22538 0.84525 0.84073 0.0
H3871 H 0.27568 0.83227 0.83689 0.0
H3872 H 0.25973 0.83923 0.83384 0.0
H3873 H 0.23742 0.82839 0.85517 0.0
H3874 H 0.19542 0.83531 0.82912 0.0
H3875 H 0.21126 0.83193 0.83616 0.0
C3876 C 0.40595 0.95466 0.08946 0.0
C3877 C 0.40139 0.94635 0.08553 0.0
C3878 C 0.4051 0.964 0.08485 0.0
C3879 C 0.39781 0.97641 0.06128 0.0
H3880 H 0.39556 -0.0004 0.07739 0.0
C3881 C 0.38386 0.01453 0.04692 0.0
C3882 C 0.38894 0.023 0.04979 0.0
C3883 C 0.38619 0.00517 0.05088 0.0
C3884 C 0.3963 -0.0068 0.0728 0.0
H3885 H 0.392 0.94135 0.07397 0.0
H3886 H 0.39035 0.95765 0.06599 0.0
H3887 H 0.39785 0.98328 0.08515 0.0
H3888 H 0.40027 0.02836 0.05926 0.0
H3889 H 0.40436 0.01197 0.0662 0.0
H3890 H 0.3959 0.98637 0.04895 0.0
C3891 C 0.3949 0.95693 0.07242 0.0
C3892 C 0.39763 0.98384 0.07723 0.0
C3893 C 0.39584 0.94757 0.07698 0.0
C3894 C 0.3964 0.02193 0.05672 0.0
C3895 C 0.39865 0.01258 0.06078 0.0
C3896 C 0.39635 0.98576 0.05686 0.0
C3897 C 0.39952 0.96528 0.07629 0.0
C3898 C 0.39836 0.9753 0.07154 0.0
C3899 C 0.39353 0.00411 0.05793 0.0
C3900 C 0.39554 -0.00575 0.06257 0.0
H3901 H 0.41028 0.95391 0.09605 0.0
H3902 H 0.40889 0.9702 0.08797 0.0
H3903 H 0.39852 0.97005 0.05664 0.0
H3904 H 0.37804 0.01515 0.04162 0.0
H3905 H 0.38205 -0.00121 0.04863 0.0
C3906 C 0.05705 -0.00482 0.56316 0.0
C3907 C 0.06523 0.00025 0.56653 0.0
C3908 C 0.05598 0.985 0.56507 0.0
C3909 C 0.06464 0.96375 0.58031 0.0
H3910 H 0.05887 0.94856 0.55727 0.0
C3911 C 0.06015 0.92076 0.58093 0.0
C3912 C 0.06528 0.91588 0.57359 0.0
C3913 C 0.05935 0.93113 0.58067 0.0
C3914 C 0.06047 0.9527 0.56377 0.0
H3915 H 0.07844 -0.00127 0.57502 0.0
H3916 H 0.07655 0.98094 0.57835 0.0
H3917 H 0.05873 0.96665 0.55616 0.0
H3918 H 0.07367 0.91797 0.56031 0.0
H3919 H 0.07221 0.93603 0.55982 0.0
H3920 H 0.06657 0.94972 0.58785 0.0
C3921 C 0.07097 0.98485 0.57424 0.0
C3922 C 0.0603 0.96306 0.56317 0.0
C3923 C 0.07207 -0.00497 0.57228 0.0
C3924 C 0.06964 0.92154 0.56604 0.0
C3925 C 0.06875 0.93186 0.56572 0.0
C3926 C 0.06471 0.95336 0.58095 0.0
C3927 C 0.06303 0.97969 0.57043 0.0
C3928 C 0.0625 0.9687 0.57139 0.0
C3929 C 0.06359 0.93677 0.57303 0.0
C3930 C 0.06278 0.94775 0.57263 0.0
H3931 H 0.05161 -0.00102 0.55877 0.0
H3932 H 0.04972 0.98124 0.56216 0.0
H3933 H 0.06631 0.96791 0.58678 0.0
H3934 H 0.05694 0.9166 0.58698 0.0
H3935 H 0.05535 0.93473 0.58641 0.0
C3936 C 0.06069 0.11591 0.41094 0.0
C3937 C 0.05725 0.10609 0.41109 0.0
C3938 C 0.06792 0.1189 0.40436 0.0
C3939 C 0.07923 0.11237 0.38098 0.0
H3940 H 0.10009 0.1292 0.38974 0.0
C3941 C 0.11152 0.12247 0.35599 0.0
C3942 C 0.11467 0.13239 0.35599 0.0
C3943 C 0.10494 0.11895 0.36301 0.0
C3944 C 0.09426 0.12458 0.38715 0.0
H3945 H 0.05868 0.09171 0.40443 0.0
H3946 H 0.07131 0.09693 0.39296 0.0
H3947 H 0.08764 0.12374 0.40131 0.0
H3948 H 0.11349 0.14635 0.36349 0.0
H3949 H 0.10192 0.14025 0.37565 0.0
H3950 H 0.08576 0.11329 0.3668 0.0
C3951 C 0.06837 0.10234 0.39788 0.0
C3952 C 0.08713 0.12145 0.39378 0.0
C3953 C 0.06116 0.09934 0.40449 0.0
C3954 C 0.11124 0.13865 0.3633 0.0
C3955 C 0.10463 0.13514 0.3703 0.0
C3956 C 0.08634 0.11552 0.37434 0.0
C3957 C 0.07185 0.11215 0.39776 0.0
C3958 C 0.07951 0.11534 0.39076 0.0
C3959 C 0.10132 0.12527 0.37018 0.0
C3960 C 0.09393 0.12169 0.37734 0.0
H3961 H 0.05782 0.12131 0.41593 0.0
H3962 H 0.07035 0.12654 0.40437 0.0
H3963 H 0.07338 0.10778 0.37839 0.0
H3964 H 0.11406 0.11743 0.35049 0.0
H3965 H 0.10266 0.11126 0.3628 0.0
C3966 C 0.09295 0.82454 0.6628 0.0
C3967 C 0.10255 0.82134 0.66411 0.0
C3968 C 0.09039 0.83052 0.6547 0.0
C3969 C 0.1006 0.84763 0.63591 0.0
H3970 H 0.07719 0.84169 0.62158 0.0
C3971 C 0.09196 0.86559 0.5981 0.0
C3972 C 0.08231 0.86817 0.59608 0.0
C3973 C 0.09435 0.86024 0.60665 0.0
C3974 C 0.08368 0.84354 0.62558 0.0
H3975 H 0.117 0.82195 0.65795 0.0
H3976 H 0.11251 0.83235 0.64381 0.0
H3977 H 0.08148 0.83166 0.63604 0.0
H3978 H 0.06761 0.86733 0.60155 0.0
H3979 H 0.07179 0.85812 0.61655 0.0
H3980 H 0.10281 0.85951 0.62545 0.0
C3981 C 0.10698 0.8303 0.64909 0.0
C3982 C 0.08614 0.83778 0.63386 0.0
C3983 C 0.10954 0.82429 0.65717 0.0
C3984 C 0.07511 0.86541 0.60287 0.0
C3985 C 0.0775 0.86008 0.61144 0.0
C3986 C 0.09813 0.85341 0.62765 0.0
C3987 C 0.09738 0.83346 0.64775 0.0
C3988 C 0.09465 0.83973 0.63909 0.0
C3989 C 0.08714 0.85737 0.6134 0.0
C3990 C 0.08966 0.8514 0.62235 0.0
H3991 H 0.08739 0.82241 0.66803 0.0
H3992 H 0.08294 0.83292 0.65393 0.0
H3993 H 0.10713 0.84941 0.63987 0.0
H3994 H 0.09768 0.86758 0.593 0.0
H3995 H 0.10183 0.85816 0.60787 0.0
C3996 C 0.37882 0.88224 0.89427 0.0
C3997 C 0.38217 0.88846 0.88659 0.0
C3998 C 0.37215 0.87472 0.89247 0.0
C3999 C 0.36161 0.85988 0.87257 0.0
H4000 H 0.34069 0.85573 0.89111 0.0
C4001 C 0.32799 0.83618 0.86403 0.0
C4002 C 0.32463 0.82971 0.87151 0.0
C4003 C 0.33525 0.84309 0.86592 0.0
C4004 C 0.34655 0.85672 0.88592 0.0
H4005 H 0.38121 0.89159 0.87096 0.0
H4006 H 0.36946 0.87858 0.86785 0.0
H4007 H 0.35301 0.86817 0.89429 0.0
H4008 H 0.32624 0.82543 0.88684 0.0
H4009 H 0.3389 0.83751 0.89013 0.0
H4010 H 0.35504 0.84851 0.86414 0.0
C4011 C 0.3721 0.8794 0.87525 0.0
C4012 C 0.35362 0.86384 0.88775 0.0
C4013 C 0.3788 0.8869 0.87704 0.0
C4014 C 0.32866 0.83032 0.88092 0.0
C4015 C 0.33588 0.83727 0.88282 0.0
C4016 C 0.35451 0.85279 0.87073 0.0
C4017 C 0.36864 0.87326 0.88295 0.0
C4018 C 0.36124 0.86552 0.88109 0.0
C4019 C 0.33926 0.84373 0.87534 0.0
C4020 C 0.34689 0.85115 0.87737 0.0
H4021 H 0.38131 0.88322 0.9017 0.0
H4022 H 0.36976 0.87002 0.89855 0.0
H4023 H 0.36745 0.86086 0.86737 0.0
H4024 H 0.32504 0.83591 0.8567 0.0
H4025 H 0.33762 0.84804 0.86004 0.0
C4026 C 0.34335 0.11742 0.11986 0.0
C4027 C 0.35085 0.12322 0.12365 0.0
C4028 C 0.34501 0.11133 0.11189 0.0
C4029 C 0.36188 0.10727 0.09132 0.0
H4030 H 0.35105 0.08071 0.09204 0.0
C4031 C 0.37345 0.0772 0.06426 0.0
C4032 C 0.36617 0.0711 0.0605 0.0
C4033 C 0.37141 0.08375 0.07176 0.0
C4034 C 0.35403 0.08815 0.09167 0.0
H4035 H 0.36594 0.12727 0.12196 0.0
H4036 H 0.36885 0.11658 0.10813 0.0
H4037 H 0.34775 0.09188 0.1054 0.0
H4038 H 0.35101 0.06713 0.06166 0.0
H4039 H 0.34744 0.0786 0.07471 0.0
H4040 H 0.36822 0.1035 0.07761 0.0
C4041 C 0.36166 0.11682 0.11124 0.0
C4042 C 0.35213 0.09455 0.09932 0.0
C4043 C 0.36 0.12291 0.11921 0.0
C4044 C 0.35679 0.0717 0.06441 0.0
C4045 C 0.35476 0.07824 0.07193 0.0
C4046 C 0.36379 0.10086 0.08367 0.0
C4047 C 0.3542 0.11091 0.10752 0.0
C4048 C 0.35606 0.10418 0.09926 0.0
C4049 C 0.36205 0.08433 0.0757 0.0
C4050 C 0.35991 0.09121 0.08376 0.0
H4051 H 0.3362 0.11752 0.12308 0.0
H4052 H 0.33906 0.10699 0.10912 0.0
H4053 H 0.36489 0.11469 0.09097 0.0
H4054 H 0.38076 0.0769 0.06142 0.0
H4055 H 0.37722 0.08824 0.07459 0.0
C4056 C 0.06154 0.87326 0.0732 0.0
C4057 C 0.06267 0.88282 0.06903 0.0
C4058 C 0.0685 0.8693 0.07961 0.0
C4059 C 0.08947 0.87638 0.09508 0.0
H4060 H 0.09505 0.84821 0.09418 0.0
C4061 C 0.1186 0.8452 0.11126 0.0
C4062 C 0.1194 0.84841 0.12092 0.0
C4063 C 0.11209 0.84979 0.10475 0.0
C4064 C 0.0937 0.85612 0.09445 0.0
H4065 H 0.072 0.89575 0.0683 0.0
H4066 H 0.08429 0.88875 0.07922 0.0
H4067 H 0.08306 0.85543 0.08316 0.0
H4068 H 0.11409 0.85902 0.13132 0.0
H4069 H 0.10254 0.86681 0.1201 0.0
H4070 H 0.1004 0.87713 0.10611 0.0
C4071 C 0.07792 0.88437 0.07776 0.0
C4072 C 0.08667 0.86024 0.08823 0.0
C4073 C 0.07089 0.88837 0.07145 0.0
C4074 C 0.11368 0.85642 0.1239 0.0
C4075 C 0.10708 0.86092 0.11743 0.0
C4076 C 0.09658 0.87227 0.10123 0.0
C4077 C 0.07684 0.87477 0.0819 0.0
C4078 C 0.08441 0.87042 0.08849 0.0
C4079 C 0.10613 0.8576 0.10779 0.0
C4080 C 0.09876 0.86207 0.10104 0.0
H4081 H 0.05524 0.86882 0.07154 0.0
H4082 H 0.0673 0.86197 0.0828 0.0
H4083 H 0.08786 0.88422 0.09558 0.0
H4084 H 0.12296 0.8391 0.10872 0.0
H4085 H 0.11173 0.84717 0.09733 0.0
C4086 C 0.33569 0.84939 0.35174 0.0
C4087 C 0.32611 0.84712 0.35438 0.0
C4088 C 0.34136 0.85544 0.3576 0.0
C4089 C 0.34313 0.86537 0.38259 0.0
H4090 H 0.35939 0.88531 0.36992 0.0
C4091 C 0.36161 0.89661 0.40394 0.0
C4092 C 0.37125 0.89884 0.4015 0.0
C4093 C 0.35619 0.89019 0.39821 0.0
C4094 C 0.35496 0.87971 0.37357 0.0
H4095 H 0.31501 0.84934 0.36532 0.0
H4096 H 0.32485 0.85999 0.37548 0.0
H4097 H 0.34984 0.87417 0.35998 0.0
H4098 H 0.38275 0.89613 0.39111 0.0
H4099 H 0.3733 0.88492 0.38114 0.0
H4100 H 0.3482 0.87099 0.39619 0.0
C4101 C 0.32804 0.85699 0.36894 0.0
C4102 C 0.3495 0.87331 0.36787 0.0
C4103 C 0.32237 0.85092 0.36309 0.0
C4104 C 0.37534 0.89457 0.39318 0.0
C4105 C 0.36991 0.88819 0.38743 0.0
C4106 C 0.34857 0.87179 0.38829 0.0
C4107 C 0.33758 0.85938 0.36623 0.0
C4108 C 0.34351 0.86607 0.37231 0.0
C4109 C 0.36029 0.88589 0.3899 0.0
C4110 C 0.35454 0.87904 0.38384 0.0
H4111 H 0.33881 0.84654 0.3451 0.0
H4112 H 0.34873 0.857 0.35538 0.0
H4113 H 0.33871 0.85979 0.38625 0.0
H4114 H 0.35824 0.89978 0.41029 0.0
H4115 H 0.34876 0.88867 0.40024 0.0
C4116 C 0.32201 0.13799 0.61158 0.0
C4117 C 0.31919 0.13712 0.62145 0.0
C4118 C 0.32907 0.1317 0.60784 0.0
C4119 C 0.34937 0.11542 0.61552 0.0
H4120 H 0.34646 0.10482 0.58956 0.0
C4121 C 0.37441 0.08489 0.60061 0.0
C4122 C 0.37723 0.08575 0.59074 0.0
C4123 C 0.36752 0.09134 0.60442 0.0
C4124 C 0.34744 0.10782 0.59678 0.0
H4125 H 0.32149 0.12887 0.63509 0.0
H4126 H 0.33373 0.11782 0.62853 0.0
H4127 H 0.33391 0.11552 0.59606 0.0
H4128 H 0.37514 0.0942 0.57718 0.0
H4129 H 0.36319 0.10551 0.58384 0.0
H4130 H 0.36289 0.10768 0.61624 0.0
C4131 C 0.33058 0.12346 0.62372 0.0
C4132 C 0.34024 0.11394 0.60051 0.0
C4133 C 0.32352 0.12975 0.62746 0.0
C4134 C 0.37312 0.09331 0.5848 0.0
C4135 C 0.36622 0.09975 0.5886 0.0
C4136 C 0.35657 0.10928 0.6118 0.0
C4137 C 0.33348 0.12439 0.61387 0.0
C4138 C 0.34112 0.11782 0.60993 0.0
C4139 C 0.36328 0.09879 0.59843 0.0
C4140 C 0.35569 0.10541 0.60238 0.0
H4141 H 0.31885 0.14361 0.60676 0.0
H4142 H 0.33122 0.1327 0.60026 0.0
H4143 H 0.35034 0.11841 0.62274 0.0
H4144 H 0.37743 0.07913 0.60538 0.0
H4145 H 0.36535 0.09034 0.61199 0.0
C4146 C 0.10768 0.14575 0.82235 0.0
C4147 C 0.11696 0.14267 0.81959 0.0
C4148 C 0.10087 0.13881 0.82577 0.0
C4149 C 0.09852 0.11233 0.83454 0.0
H4150 H 0.07151 0.11657 0.82801 0.0
C4151 C 0.06927 0.08162 0.83531 0.0
C4152 C 0.06118 0.08354 0.84119 0.0
C4153 C 0.07606 0.08907 0.83331 0.0
C4154 C 0.07903 0.11535 0.82993 0.0
H4155 H 0.1264 0.12995 0.81813 0.0
H4156 H 0.11446 0.11781 0.82358 0.0
H4157 H 0.08344 0.1291 0.82323 0.0
H4158 H 0.05377 0.09476 0.84948 0.0
H4159 H 0.06553 0.10792 0.84566 0.0
H4160 H 0.09405 0.0983 0.84078 0.0
C4161 C 0.11246 0.12559 0.82351 0.0
C4162 C 0.08588 0.12255 0.82726 0.0
C4163 C 0.11932 0.13255 0.82031 0.0
C4164 C 0.05995 0.09308 0.84494 0.0
C4165 C 0.06663 0.1006 0.84275 0.0
C4166 C 0.09169 0.10505 0.83701 0.0
C4167 C 0.10313 0.12861 0.82629 0.0
C4168 C 0.09575 0.12112 0.82948 0.0
C4169 C 0.07477 0.09862 0.83698 0.0
C4170 C 0.08191 0.1065 0.8347 0.0
H4171 H 0.10569 0.15353 0.82195 0.0
H4172 H 0.09386 0.14149 0.82802 0.0
H4173 H 0.10598 0.11103 0.83662 0.0
H4174 H 0.07043 0.07433 0.83236 0.0
H4175 H 0.08227 0.08741 0.8288 0.0
C4176 C 0.16089 0.38665 0.12459 0.0
C4177 C 0.15827 0.37789 0.12974 0.0
C4178 C 0.15502 0.3905 0.11707 0.0
C4179 C 0.13 0.39047 0.10801 0.0
H4180 H 0.14149 0.40033 0.08378 0.0
C4181 C 0.10657 0.40407 0.07533 0.0
C4182 C 0.10971 0.4126 0.07012 0.0
C4183 C 0.11257 0.39939 0.08228 0.0
C4184 C 0.13816 0.39771 0.09054 0.0
H4185 H 0.14743 0.3663 0.13101 0.0
H4186 H 0.13716 0.37306 0.11791 0.0
H4187 H 0.15178 0.39309 0.09658 0.0
H4188 H 0.12165 0.42287 0.06809 0.0
H4189 H 0.13203 0.41485 0.08032 0.0
H4190 H 0.11641 0.39525 0.10209 0.0
C4191 C 0.14374 0.37696 0.11973 0.0
C4192 C 0.14407 0.39355 0.09786 0.0
C4193 C 0.14965 0.37307 0.1272 0.0
C4194 C 0.11902 0.41628 0.07194 0.0
C4195 C 0.125 0.41164 0.07893 0.0
C4196 C 0.1241 0.3947 0.10071 0.0
C4197 C 0.14636 0.38571 0.11458 0.0
C4198 C 0.14006 0.38992 0.1067 0.0
C4199 C 0.12184 0.40316 0.08423 0.0
C4200 C 0.1281 0.39841 0.09189 0.0
H4201 H 0.16748 0.39055 0.12636 0.0
H4202 H 0.15718 0.39732 0.11332 0.0
H4203 H 0.12671 0.38786 0.11479 0.0
H4204 H 0.09945 0.40101 0.07407 0.0
H4205 H 0.10995 0.39278 0.0861 0.0
C4206 C 0.62642 0.07066 0.91855 0.0
C4207 C 0.6199 0.06288 0.91687 0.0
C4208 C 0.62947 0.07689 0.91081 0.0
C4209 C 0.63462 0.07713 0.88512 0.0
H4210 H 0.63165 0.10573 0.88562 0.0
C4211 C 0.64715 0.10203 0.85257 0.0
C4212 C 0.65085 0.11146 0.85458 0.0
C4213 C 0.64269 0.09629 0.85994 0.0
C4214 C 0.6327 0.09778 0.8854 0.0
H4215 H 0.61147 0.05551 0.90582 0.0
H4216 H 0.6171 0.06622 0.89222 0.0
H4217 H 0.62531 0.09543 0.89907 0.0
H4218 H 0.6529 0.12225 0.86589 0.0
H4219 H 0.64563 0.11209 0.87886 0.0
H4220 H 0.64245 0.07935 0.87179 0.0
C4221 C 0.6197 0.06755 0.89955 0.0
C4222 C 0.62899 0.09189 0.89309 0.0
C4223 C 0.61647 0.06147 0.90733 0.0
C4224 C 0.65003 0.11504 0.86411 0.0
C4225 C 0.64578 0.10921 0.87153 0.0
C4226 C 0.63854 0.08301 0.87754 0.0
C4227 C 0.62623 0.0753 0.90124 0.0
C4228 C 0.62991 0.08153 0.893 0.0
C4229 C 0.64203 0.09974 0.86957 0.0
C4230 C 0.63765 0.09344 0.87756 0.0
H4231 H 0.62916 0.07193 0.92584 0.0
H4232 H 0.63454 0.08279 0.91226 0.0
H4233 H 0.63551 0.06914 0.88496 0.0
H4234 H 0.6476 0.09913 0.84526 0.0
H4235 H 0.63972 0.08916 0.85804 0.0
C4236 C 0.82277 0.862 0.337 0.0
C4237 C 0.81998 0.86971 0.33047 0.0
C4238 C 0.83002 0.86352 0.34392 0.0
C4239 C 0.85086 0.87982 0.34882 0.0
H4240 H 0.84953 0.8676 0.37479 0.0
C4241 C 0.87949 0.88722 0.37852 0.0
C4242 C 0.88296 0.87884 0.38377 0.0
C4243 C 0.87142 0.88648 0.37242 0.0
C4244 C 0.85003 0.87101 0.36754 0.0
H4245 H 0.82244 0.88513 0.32626 0.0
H4246 H 0.83496 0.88784 0.33845 0.0
H4247 H 0.83603 0.86573 0.36347 0.0
H4248 H 0.88058 0.86316 0.38686 0.0
H4249 H 0.8665 0.86188 0.37621 0.0
H4250 H 0.86486 0.88507 0.35289 0.0
C4251 C 0.83168 0.88055 0.3381 0.0
C4252 C 0.8423 0.86993 0.36105 0.0
C4253 C 0.82446 0.87902 0.33115 0.0
C4254 C 0.87809 0.86975 0.38291 0.0
C4255 C 0.86999 0.86903 0.37686 0.0
C4256 C 0.85856 0.88093 0.35532 0.0
C4257 C 0.83463 0.87279 0.34451 0.0
C4258 C 0.84266 0.87426 0.35158 0.0
C4259 C 0.86661 0.87737 0.37149 0.0
C4260 C 0.85826 0.87648 0.36473 0.0
H4261 H 0.81948 0.85472 0.33665 0.0
H4262 H 0.83219 0.85733 0.34865 0.0
H4263 H 0.85146 0.88311 0.34153 0.0
H4264 H 0.88307 0.89434 0.37903 0.0
H4265 H 0.86892 0.89306 0.36846 0.0
C4266 C 0.85637 0.14593 0.12971 0.0
C4267 C 0.85907 0.15558 0.1323 0.0
C4268 C 0.86287 0.13982 0.12485 0.0
C4269 C 0.88461 0.1408 0.10936 0.0
H4270 H 0.88686 0.11287 0.11661 0.0
C4271 C 0.9137 0.11566 0.0926 0.0
C4272 C 0.91086 0.10605 0.09005 0.0
C4273 C 0.90757 0.12164 0.09805 0.0
C4274 C 0.88625 0.12063 0.11442 0.0
H4275 H 0.87074 0.16634 0.13191 0.0
H4276 H 0.88208 0.15565 0.12346 0.0
H4277 H 0.87579 0.12342 0.12558 0.0
H4278 H 0.89934 0.09516 0.09126 0.0
H4279 H 0.88859 0.10564 0.10065 0.0
H4280 H 0.89498 0.13802 0.09814 0.0
C4281 C 0.87491 0.15285 0.12511 0.0
C4282 C 0.87991 0.12667 0.11957 0.0
C4283 C 0.86842 0.15895 0.12999 0.0
C4284 C 0.90177 0.10252 0.09313 0.0
C4285 C 0.89562 0.10851 0.09856 0.0
C4286 C 0.89093 0.13476 0.10419 0.0
C4287 C 0.87219 0.14323 0.12245 0.0
C4288 C 0.87902 0.13682 0.11708 0.0
C4289 C 0.89843 0.11815 0.10106 0.0
C4290 C 0.89181 0.1246 0.10665 0.0
H4291 H 0.84921 0.14311 0.13138 0.0
H4292 H 0.86053 0.13248 0.12281 0.0
H4293 H 0.88398 0.14856 0.10716 0.0
H4294 H 0.92068 0.11859 0.09038 0.0
H4295 H 0.91001 0.12898 0.09997 0.0
C4296 C 0.41374 0.61272 0.59694 0.0
C4297 C 0.41005 0.60345 0.59428 0.0
C4298 C 0.40766 0.6199 0.60084 0.0
C4299 C 0.38406 0.62312 0.613 0.0
H4300 H 0.38694 0.65055 0.60418 0.0
C4301 C 0.35659 0.65355 0.62293 0.0
C4302 C 0.36039 0.66276 0.62563 0.0
C4303 C 0.36259 0.6463 0.61902 0.0
C4304 C 0.38611 0.64294 0.60679 0.0
H4305 H 0.39708 0.59442 0.59368 0.0
H4306 H 0.38646 0.60699 0.60041 0.0
H4307 H 0.39756 0.63787 0.59766 0.0
H4308 H 0.37347 0.67161 0.6263 0.0
H4309 H 0.38394 0.65894 0.61954 0.0
H4310 H 0.37259 0.62819 0.62213 0.0
C4311 C 0.39408 0.60866 0.59959 0.0
C4312 C 0.3922 0.63568 0.60306 0.0
C4313 C 0.40016 0.60148 0.59569 0.0
C4314 C 0.3703 0.6646 0.62427 0.0
C4315 C 0.3763 0.65736 0.62035 0.0
C4316 C 0.37796 0.63038 0.61672 0.0
C4317 C 0.39775 0.61797 0.60216 0.0
C4318 C 0.39126 0.62568 0.60613 0.0
C4319 C 0.37252 0.64812 0.61771 0.0
C4320 C 0.37893 0.64038 0.61367 0.0
H4321 H 0.42133 0.61446 0.59598 0.0
H4322 H 0.41073 0.62694 0.60288 0.0
H4323 H 0.38323 0.61551 0.61561 0.0
H4324 H 0.34898 0.65191 0.62387 0.0
H4325 H 0.35944 0.63931 0.61695 0.0
C4326 C 0.11934 0.56763 0.40662 0.0
C4327 C 0.10971 0.56939 0.40936 0.0
C4328 C 0.12402 0.57403 0.39994 0.0
C4329 C 0.12334 0.59939 0.38928 0.0
H4330 H 0.13768 0.58792 0.36796 0.0
C4331 C 0.13741 0.62317 0.35651 0.0
C4332 C 0.14637 0.62063 0.35241 0.0
C4333 C 0.13314 0.61705 0.3637 0.0
C4334 C 0.13384 0.59127 0.37394 0.0
H4335 H 0.09748 0.57933 0.40734 0.0
H4336 H 0.10567 0.59052 0.39572 0.0
H4337 H 0.12998 0.57706 0.38015 0.0
H4338 H 0.15798 0.60979 0.35282 0.0
H4339 H 0.15066 0.59926 0.36553 0.0
H4340 H 0.12727 0.61359 0.38316 0.0
C4341 C 0.1096 0.5842 0.39876 0.0
C4342 C 0.1294 0.58503 0.38092 0.0
C4343 C 0.1049 0.57776 0.40538 0.0
C4344 C 0.15103 0.61192 0.35578 0.0
C4345 C 0.1468 0.60585 0.36303 0.0
C4346 C 0.12785 0.60564 0.38235 0.0
C4347 C 0.11919 0.58236 0.39592 0.0
C4348 C 0.12407 0.58902 0.38864 0.0
C4349 C 0.13777 0.60829 0.36704 0.0
C4350 C 0.13312 0.60166 0.37456 0.0
H4351 H 0.12326 0.56126 0.40955 0.0
H4352 H 0.13144 0.57248 0.39795 0.0
H4353 H 0.11938 0.60268 0.39522 0.0
H4354 H 0.13361 0.62981 0.35404 0.0
H4355 H 0.12612 0.61911 0.36651 0.0
C4356 C 0.34363 0.35611 0.84531 0.0
C4357 C 0.33661 0.36156 0.84004 0.0
C4358 C 0.34986 0.36084 0.85175 0.0
C4359 C 0.35905 0.38582 0.85829 0.0
H4360 H 0.36638 0.37206 0.88245 0.0
C4361 C 0.37787 0.40501 0.89065 0.0
C4362 C 0.38585 0.4 0.89482 0.0
C4363 C 0.37209 0.4004 0.88371 0.0
C4364 C 0.36445 0.37596 0.8757 0.0
H4365 H 0.33057 0.37625 0.83743 0.0
H4366 H 0.34121 0.38446 0.84889 0.0
H4367 H 0.35575 0.3639 0.87092 0.0
H4368 H 0.39403 0.38625 0.89498 0.0
H4369 H 0.38383 0.37815 0.88295 0.0
H4370 H 0.36758 0.39798 0.86328 0.0
C4371 C 0.3421 0.37657 0.84787 0.0
C4372 C 0.35839 0.37127 0.86905 0.0
C4373 C 0.33595 0.37185 0.84134 0.0
C4374 C 0.38793 0.3903 0.89189 0.0
C4375 C 0.38208 0.38565 0.88505 0.0
C4376 C 0.36502 0.39054 0.865 0.0
C4377 C 0.34914 0.37113 0.85318 0.0
C4378 C 0.35562 0.37613 0.86025 0.0
C4379 C 0.37409 0.39065 0.88089 0.0
C4380 C 0.36779 0.38565 0.87375 0.0
H4381 H 0.34437 0.34817 0.84441 0.0
H4382 H 0.35531 0.35642 0.85555 0.0
H4383 H 0.35723 0.38973 0.85152 0.0
H4384 H 0.37608 0.41249 0.89275 0.0
H4385 H 0.36593 0.40439 0.88067 0.0
C4386 C 0.8455 0.82408 0.61013 0.0
C4387 C 0.84939 0.82076 0.61914 0.0
C4388 C 0.8509 0.83022 0.60379 0.0
C4389 C 0.87086 0.84818 0.60393 0.0
H4390 H 0.87078 0.84487 0.57581 0.0
C4391 C 0.88531 0.8783 0.57699 0.0
C4392 C 0.8911 0.87511 0.56923 0.0
C4393 C 0.88037 0.87141 0.58295 0.0
C4394 C 0.87092 0.84585 0.58365 0.0
H4395 H 0.86208 0.82109 0.62846 0.0
H4396 H 0.8715 0.83178 0.6174 0.0
H4397 H 0.86212 0.83299 0.5864 0.0
H4398 H 0.8962 0.86218 0.56159 0.0
H4399 H 0.88756 0.85016 0.572 0.0
H4400 H 0.87967 0.86101 0.6012 0.0
C4401 C 0.86424 0.82971 0.61528 0.0
C4402 C 0.86589 0.8391 0.5897 0.0
C4403 C 0.85886 0.82354 0.62159 0.0
C4404 C 0.89179 0.86488 0.56751 0.0
C4405 C 0.8868 0.858 0.57344 0.0
C4406 C 0.87583 0.85495 0.59788 0.0
C4407 C 0.86029 0.8332 0.60636 0.0
C4408 C 0.8658 0.8402 0.59991 0.0
C4409 C 0.88108 0.86118 0.58126 0.0
C4410 C 0.87589 0.85389 0.58767 0.0
H4411 H 0.83823 0.82207 0.60802 0.0
H4412 H 0.84762 0.83285 0.59701 0.0
H4413 H 0.87084 0.8493 0.61175 0.0
H4414 H 0.88461 0.88612 0.57851 0.0
H4415 H 0.87592 0.87411 0.58884 0.0
C4416 C 0.89023 0.12568 0.37874 0.0
C4417 C 0.88677 0.11595 0.38018 0.0
C4418 C 0.88783 0.13117 0.37028 0.0
C4419 C 0.8777 0.12862 0.34513 0.0
H4420 H 0.87354 0.15697 0.34722 0.0
C4421 C 0.8592 0.15348 0.31527 0.0
C4422 C 0.86392 0.16244 0.31282 0.0
C4423 C 0.86244 0.14753 0.32314 0.0
C4424 C 0.87476 0.14907 0.34652 0.0
H4425 H 0.87803 0.10437 0.37391 0.0
H4426 H 0.87352 0.11406 0.35933 0.0
H4427 H 0.8781 0.14716 0.36171 0.0
H4428 H 0.87578 0.17214 0.31662 0.0
H4429 H 0.88131 0.16182 0.33049 0.0
H4430 H 0.87398 0.13059 0.32996 0.0
C4431 C 0.87833 0.11738 0.36458 0.0
C4432 C 0.87742 0.14344 0.35481 0.0
C4433 C 0.88086 0.11183 0.37298 0.0
C4434 C 0.872 0.16527 0.31832 0.0
C4435 C 0.87514 0.1594 0.32628 0.0
C4436 C 0.87489 0.13425 0.33687 0.0
C4437 C 0.88178 0.12714 0.36311 0.0
C4438 C 0.87896 0.13313 0.35424 0.0
C4439 C 0.87035 0.15051 0.3288 0.0
C4440 C 0.87342 0.14453 0.33749 0.0
H4441 H 0.89488 0.12902 0.38412 0.0
H4442 H 0.89081 0.13857 0.36933 0.0
H4443 H 0.87899 0.12075 0.34434 0.0
H4444 H 0.85296 0.1511 0.31116 0.0
H4445 H 0.85859 0.14073 0.32498 0.0
C4446 C 0.59847 0.09579 0.09953 0.0
C4447 C 0.5937 0.10102 0.09191 0.0
C4448 C 0.60553 0.10045 0.10512 0.0
C4449 C 0.62259 0.12132 0.1048 0.0
H4450 H 0.62081 0.11923 0.13309 0.0
C4451 C 0.6449 0.14644 0.12981 0.0
C4452 C 0.64829 0.14245 0.13876 0.0
C4453 C 0.63861 0.14101 0.12399 0.0
C4454 C 0.62153 0.11977 0.12521 0.0
H4455 H 0.59274 0.11519 0.08405 0.0
H4456 H 0.60514 0.12328 0.09375 0.0
H4457 H 0.60933 0.11029 0.12305 0.0
H4458 H 0.64789 0.12955 0.14857 0.0
H4459 H 0.63713 0.11995 0.13831 0.0
H4460 H 0.63485 0.13069 0.1069 0.0
C4461 C 0.6034 0.11558 0.09539 0.0
C4462 C 0.61493 0.11466 0.11946 0.0
C4463 C 0.59627 0.11096 0.08988 0.0
C4464 C 0.64535 0.13285 0.14173 0.0
C4465 C 0.63913 0.12738 0.13587 0.0
C4466 C 0.62927 0.12635 0.11054 0.0
C4467 C 0.60805 0.1104 0.10312 0.0
C4468 C 0.61533 0.11546 0.1092 0.0
C4469 C 0.63563 0.13141 0.12695 0.0
C4470 C 0.62877 0.12572 0.12082 0.0
H4471 H 0.59665 0.08813 0.10128 0.0
H4472 H 0.60905 0.09627 0.11098 0.0
H4473 H 0.62315 0.12197 0.0969 0.0
H4474 H 0.64699 0.15384 0.12734 0.0
H4475 H 0.63594 0.14444 0.11727 0.0
C4476 C 0.6038 0.83745 0.8217 0.0
C4477 C 0.61304 0.83475 0.82508 0.0
C4478 C 0.59775 0.84332 0.82736 0.0
C4479 C 0.59832 0.86035 0.84847 0.0
H4480 H 0.5705 0.85692 0.84753 0.0
C4481 C 0.57187 0.87976 0.87468 0.0
C4482 C 0.56422 0.88494 0.87009 0.0
C4483 C 0.57773 0.87339 0.86935 0.0
C4484 C 0.57826 0.85797 0.84782 0.0
H4485 H 0.62311 0.83585 0.83716 0.0
H4486 H 0.61245 0.84573 0.84722 0.0
H4487 H 0.5809 0.84605 0.83814 0.0
H4488 H 0.55658 0.88734 0.85636 0.0
H4489 H 0.56671 0.87601 0.84711 0.0
H4490 H 0.5956 0.87211 0.85839 0.0
C4491 C 0.60995 0.84362 0.84005 0.0
C4492 C 0.58423 0.85178 0.8424 0.0
C4493 C 0.61605 0.83789 0.83432 0.0
C4494 C 0.56244 0.88347 0.8601 0.0
C4495 C 0.5682 0.87696 0.85481 0.0
C4496 C 0.59234 0.86641 0.85401 0.0
C4497 C 0.60074 0.84651 0.83662 0.0
C4498 C 0.59435 0.85293 0.84259 0.0
C4499 C 0.57595 0.87194 0.85937 0.0
C4500 C 0.58226 0.86532 0.85368 0.0
H4501 H 0.6013 0.83519 0.81457 0.0
H4502 H 0.5908 0.84552 0.82436 0.0
H4503 H 0.60604 0.86162 0.84867 0.0
H4504 H 0.57344 0.88076 0.88237 0.0
H4505 H 0.58364 0.86955 0.87304 0.0
C4506 C 0.87861 0.1234 0.91257 0.0
C4507 C 0.88814 0.12661 0.91091 0.0
C4508 C 0.87083 0.12852 0.90825 0.0
C4509 C 0.86467 0.15261 0.89543 0.0
H4510 H 0.84159 0.13829 0.888 0.0
C4511 C 0.835 0.16846 0.86952 0.0
C4512 C 0.8257 0.16867 0.87364 0.0
C4513 C 0.84247 0.16325 0.87425 0.0
C4514 C 0.84799 0.14235 0.89009 0.0
H4515 H 0.89703 0.13751 0.90325 0.0
H4516 H 0.88359 0.1461 0.89532 0.0
H4517 H 0.85502 0.12928 0.89569 0.0
H4518 H 0.81685 0.16341 0.88579 0.0
H4519 H 0.8299 0.15399 0.89389 0.0
H4520 H 0.8577 0.16559 0.88935 0.0
C4521 C 0.88201 0.13991 0.90026 0.0
C4522 C 0.85568 0.13723 0.89456 0.0
C4523 C 0.88975 0.13493 0.90475 0.0
C4524 C 0.82396 0.1634 0.88247 0.0
C4525 C 0.83139 0.15799 0.88708 0.0
C4526 C 0.85707 0.15767 0.89076 0.0
C4527 C 0.87241 0.13684 0.902 0.0
C4528 C 0.86414 0.14228 0.8973 0.0
C4529 C 0.84072 0.15797 0.88305 0.0
C4530 C 0.84868 0.15259 0.88807 0.0
H4531 H 0.87715 0.11704 0.91735 0.0
H4532 H 0.86358 0.126 0.90995 0.0
H4533 H 0.87092 0.15684 0.89762 0.0
H4534 H 0.83656 0.17248 0.86274 0.0
H4535 H 0.84962 0.1633 0.871 0.0
C4536 C 0.61169 0.13499 0.65832 0.0
C4537 C 0.62053 0.13799 0.65416 0.0
C4538 C 0.60513 0.12935 0.65299 0.0
C4539 C 0.60367 0.11348 0.63108 0.0
H4540 H 0.57606 0.11687 0.63468 0.0
C4541 C 0.57512 0.09532 0.60631 0.0
C4542 C 0.56768 0.09013 0.61123 0.0
C4543 C 0.58143 0.10139 0.61145 0.0
C4544 C 0.58376 0.11582 0.63364 0.0
H4545 H 0.62933 0.13765 0.64105 0.0
H4546 H 0.61779 0.12817 0.63163 0.0
H4547 H 0.58731 0.12719 0.64367 0.0
H4548 H 0.56092 0.08741 0.62536 0.0
H4549 H 0.57186 0.09819 0.6343 0.0
H4550 H 0.60004 0.10227 0.62085 0.0
C4551 C 0.61601 0.12987 0.63912 0.0
C4552 C 0.59022 0.12169 0.63883 0.0
C4553 C 0.62261 0.13537 0.6445 0.0
C4554 C 0.56659 0.09129 0.62137 0.0
C4555 C 0.57281 0.09749 0.62648 0.0
C4556 C 0.5972 0.10772 0.62579 0.0
C4557 C 0.6072 0.1267 0.64331 0.0
C4558 C 0.60028 0.12058 0.63766 0.0
C4559 C 0.58035 0.10252 0.62158 0.0
C4560 C 0.58718 0.1088 0.62706 0.0
H4561 H 0.6099 0.13684 0.66578 0.0
H4562 H 0.59852 0.12693 0.65655 0.0
H4563 H 0.61134 0.11224 0.63011 0.0
H4564 H 0.57616 0.09456 0.59851 0.0
H4565 H 0.58715 0.10525 0.60749 0.0
C4566 C 0.63637 0.83065 0.36595 0.0
C4567 C 0.64389 0.82759 0.37227 0.0
C4568 C 0.62914 0.83705 0.36918 0.0
C4569 C 0.62422 0.8558 0.38765 0.0
H4570 H 0.59725 0.85047 0.38202 0.0
C4571 C 0.59393 0.88348 0.39694 0.0
C4572 C 0.5858 0.87942 0.40172 0.0
C4573 C 0.60081 0.8773 0.39272 0.0
C4574 C 0.60475 0.85204 0.38366 0.0
H4575 H 0.64971 0.82885 0.38694 0.0
H4576 H 0.6371 0.84003 0.39255 0.0
H4577 H 0.60976 0.8393 0.37605 0.0
H4578 H 0.57837 0.86569 0.40559 0.0
H4579 H 0.59037 0.85491 0.39819 0.0
H4580 H 0.61922 0.86845 0.39536 0.0
C4581 C 0.63684 0.83752 0.38509 0.0
C4582 C 0.61191 0.84569 0.38017 0.0
C4583 C 0.64402 0.83107 0.38188 0.0
C4584 C 0.58456 0.86906 0.40196 0.0
C4585 C 0.59141 0.86288 0.39768 0.0
C4586 C 0.61707 0.86218 0.39106 0.0
C4587 C 0.62932 0.84059 0.37877 0.0
C4588 C 0.62172 0.84747 0.3822 0.0
C4589 C 0.59968 0.86692 0.39314 0.0
C4590 C 0.60726 0.86033 0.38916 0.0
H4591 H 0.63606 0.8281 0.3585 0.0
H4592 H 0.62348 0.83935 0.36413 0.0
H4593 H 0.63172 0.85741 0.38925 0.0
H4594 H 0.5951 0.89143 0.3966 0.0
H4595 H 0.60705 0.88063 0.38916 0.0
C4596 C 0.86118 0.81428 0.16041 0.0
C4597 C 0.85251 0.809 0.15936 0.0
C4598 C 0.86427 0.82096 0.15307 0.0
C4599 C 0.85538 0.83516 0.13108 0.0
H4600 H 0.88278 0.83846 0.126 0.0
C4601 C 0.87064 0.85745 0.09775 0.0
C4602 C 0.87764 0.8646 0.09998 0.0
C4603 C 0.86759 0.85051 0.10488 0.0
C4604 C 0.87511 0.83763 0.12739 0.0
H4605 H 0.84036 0.80642 0.14973 0.0
H4606 H 0.8459 0.81774 0.13676 0.0
H4607 H 0.87744 0.82647 0.13853 0.0
H4608 H 0.88705 0.87001 0.11138 0.0
H4609 H 0.88186 0.85774 0.12377 0.0
H4610 H 0.85311 0.84617 0.11971 0.0
C4611 C 0.8502 0.817 0.14337 0.0
C4612 C 0.87203 0.83081 0.1346 0.0
C4613 C 0.84703 0.81045 0.15078 0.0
C4614 C 0.88163 0.8646 0.10945 0.0
C4615 C 0.8787 0.85756 0.11652 0.0
C4616 C 0.85846 0.84187 0.12377 0.0
C4617 C 0.85883 0.82239 0.14443 0.0
C4618 C 0.86212 0.82952 0.1366 0.0
C4619 C 0.87161 0.8505 0.11432 0.0
C4620 C 0.86835 0.84321 0.1219 0.0
H4621 H 0.86551 0.81337 0.16697 0.0
H4622 H 0.87085 0.8251 0.15425 0.0
H4623 H 0.8477 0.83455 0.13252 0.0
H4624 H 0.86742 0.85728 0.09052 0.0
H4625 H 0.86216 0.8451 0.10299 0.0
C4626 C 0.85124 0.59562 0.86157 0.0
C4627 C 0.84734 0.58743 0.86676 0.0
C4628 C 0.84565 0.60094 0.85471 0.0
C4629 C 0.82001 0.60547 0.84776 0.0
H4630 H 0.83153 0.61824 0.82485 0.0
C4631 C 0.79741 0.62608 0.81798 0.0
C4632 C 0.8006 0.63572 0.81549 0.0
C4633 C 0.80322 0.61968 0.82367 0.0
C4634 C 0.82823 0.61473 0.83124 0.0
H4635 H 0.83466 0.57813 0.86854 0.0
H4636 H 0.82501 0.58714 0.85632 0.0
H4637 H 0.84147 0.60771 0.83562 0.0
H4638 H 0.81247 0.64613 0.81678 0.0
H4639 H 0.82266 0.63488 0.82659 0.0
H4640 H 0.80674 0.61242 0.84326 0.0
C4641 C 0.83228 0.5897 0.85776 0.0
C4642 C 0.83393 0.60873 0.83744 0.0
C4643 C 0.83784 0.58447 0.86472 0.0
C4644 C 0.8098 0.63875 0.8186 0.0
C4645 C 0.81566 0.6323 0.82417 0.0
C4646 C 0.8143 0.61136 0.84149 0.0
C4647 C 0.83606 0.5981 0.85277 0.0
C4648 C 0.82991 0.6041 0.84585 0.0
C4649 C 0.81238 0.62275 0.82685 0.0
C4650 C 0.81837 0.61612 0.83322 0.0
H4651 H 0.85854 0.59812 0.86302 0.0
H4652 H 0.84878 0.60745 0.85115 0.0
H4653 H 0.81668 0.60222 0.85425 0.0
H4654 H 0.79036 0.62353 0.8157 0.0
H4655 H 0.80054 0.61233 0.82558 0.0
C4656 C 0.3202 0.85874 0.1432 0.0
C4657 C 0.31476 0.86244 0.151 0.0
C4658 C 0.32767 0.86439 0.13898 0.0
C4659 C 0.34479 0.88421 0.14446 0.0
H4660 H 0.34757 0.88678 0.11627 0.0
C4661 C 0.37392 0.90956 0.12695 0.0
C4662 C 0.37867 0.90615 0.11859 0.0
C4663 C 0.36576 0.90461 0.13063 0.0
C4664 C 0.34698 0.88604 0.12416 0.0
H4665 H 0.31287 0.87499 0.16046 0.0
H4666 H 0.32597 0.8848 0.15316 0.0
H4667 H 0.33409 0.87729 0.12321 0.0
H4668 H 0.37856 0.89492 0.1075 0.0
H4669 H 0.36453 0.88612 0.11406 0.0
H4670 H 0.35777 0.8927 0.14547 0.0
C4671 C 0.32445 0.87753 0.15032 0.0
C4672 C 0.33923 0.88063 0.12812 0.0
C4673 C 0.31692 0.87193 0.15446 0.0
C4674 C 0.37503 0.89776 0.11393 0.0
C4675 C 0.36694 0.89275 0.11766 0.0
C4676 C 0.35259 0.88953 0.1405 0.0
C4677 C 0.32992 0.87381 0.14255 0.0
C4678 C 0.33806 0.87966 0.13831 0.0
C4679 C 0.36222 0.89607 0.12611 0.0
C4680 C 0.3538 0.89053 0.1303 0.0
H4681 H 0.31872 0.85146 0.14035 0.0
H4682 H 0.33181 0.8613 0.13306 0.0
H4683 H 0.34414 0.88347 0.15234 0.0
H4684 H 0.3765 0.91605 0.13067 0.0
H4685 H 0.36222 0.90751 0.13702 0.0
C4686 C 0.13553 0.11679 0.62608 0.0
C4687 C 0.13831 0.12524 0.62053 0.0
C4688 C 0.13016 0.10924 0.62181 0.0
C4689 C 0.1136 0.10485 0.6013 0.0
H4690 H 0.11926 0.07704 0.60673 0.0
C4691 C 0.08808 0.07368 0.58918 0.0
C4692 C 0.09244 0.06546 0.58482 0.0
C4693 C 0.09372 0.08073 0.59388 0.0
C4694 C 0.11762 0.08478 0.60511 0.0
H4695 H 0.13777 0.13232 0.6061 0.0
H4696 H 0.12843 0.11915 0.59866 0.0
H4697 H 0.1293 0.08983 0.614 0.0
H4698 H 0.1061 0.05808 0.58216 0.0
H4699 H 0.11593 0.0704 0.59036 0.0
H4700 H 0.102 0.09983 0.59233 0.0
C4701 C 0.13032 0.11841 0.60633 0.0
C4702 C 0.12331 0.0921 0.60934 0.0
C4703 C 0.13572 0.12592 0.61059 0.0
C4704 C 0.10252 0.06432 0.58545 0.0
C4705 C 0.10815 0.07136 0.59019 0.0
C4706 C 0.10788 0.09755 0.59712 0.0
C4707 C 0.12742 0.11002 0.61191 0.0
C4708 C 0.12138 0.10221 0.60746 0.0
C4709 C 0.10382 0.0797 0.59436 0.0
C4710 C 0.10983 0.08743 0.59896 0.0
H4711 H 0.13741 0.11603 0.63376 0.0
H4712 H 0.12796 0.10291 0.62632 0.0
H4713 H 0.11186 0.11259 0.59979 0.0
H4714 H 0.08033 0.07476 0.58885 0.0
H4715 H 0.09016 0.087 0.59714 0.0
C4716 C 0.15217 0.8906 0.83458 0.0
C4717 C 0.15253 0.8802 0.83404 0.0
C4718 C 0.14701 0.89511 0.84206 0.0
C4719 C 0.13819 0.89038 0.86705 0.0
H4720 H 0.12268 0.91397 0.86201 0.0
C4721 C 0.12509 0.91583 0.89775 0.0
C4722 C 0.11556 0.91941 0.89714 0.0
C4723 C 0.12913 0.91064 0.89003 0.0
C4724 C 0.12692 0.90734 0.86352 0.0
H4725 H 0.14761 0.86637 0.84082 0.0
H4726 H 0.13861 0.87425 0.85389 0.0
H4727 H 0.13032 0.9056 0.84837 0.0
H4728 H 0.10277 0.9203 0.88795 0.0
H4729 H 0.10985 0.91125 0.87446 0.0
H4730 H 0.13481 0.89212 0.8822 0.0
C4731 C 0.14238 0.87891 0.84856 0.0
C4732 C 0.13136 0.90261 0.85573 0.0
C4733 C 0.14749 0.8744 0.84105 0.0
C4734 C 0.11014 0.91765 0.88865 0.0
C4735 C 0.1142 0.91251 0.8809 0.0
C4736 C 0.1338 0.89515 0.87485 0.0
C4737 C 0.14214 0.88931 0.84919 0.0
C4738 C 0.13709 0.89411 0.85741 0.0
C4739 C 0.12375 0.90897 0.88149 0.0
C4740 C 0.12816 0.90371 0.87318 0.0
H4741 H 0.15597 0.89528 0.8293 0.0
H4742 H 0.14704 0.90313 0.8424 0.0
H4743 H 0.14262 0.88389 0.86859 0.0
H4744 H 0.12945 0.91707 0.90419 0.0
H4745 H 0.13654 0.90809 0.89066 0.0
C4746 C 0.63504 0.353 0.36262 0.0
C4747 C 0.63787 0.35497 0.35288 0.0
C4748 C 0.63227 0.36075 0.36863 0.0
C4749 C 0.6345 0.38772 0.37164 0.0
H4750 H 0.61135 0.38458 0.38742 0.0
C4751 C 0.62321 0.41544 0.40132 0.0
C4752 C 0.61338 0.41808 0.40156 0.0
C4753 C 0.62639 0.40786 0.3953 0.0
C4754 C 0.61781 0.38558 0.38302 0.0
H4755 H 0.64011 0.36661 0.34185 0.0
H4756 H 0.63528 0.38013 0.35237 0.0
H4757 H 0.61658 0.37109 0.37706 0.0
H4758 H 0.59919 0.41489 0.39561 0.0
H4759 H 0.60476 0.40166 0.38514 0.0
H4760 H 0.63567 0.40225 0.37756 0.0
C4761 C 0.63526 0.3726 0.35536 0.0
C4762 C 0.62085 0.37782 0.37717 0.0
C4763 C 0.63796 0.36485 0.34932 0.0
C4764 C 0.60681 0.41303 0.39561 0.0
C4765 C 0.60999 0.40541 0.38965 0.0
C4766 C 0.6315 0.39545 0.37756 0.0
C4767 C 0.63233 0.37062 0.36506 0.0
C4768 C 0.62921 0.37882 0.37139 0.0
C4769 C 0.6198 0.40271 0.38946 0.0
C4770 C 0.62309 0.39448 0.38327 0.0
H4771 H 0.63491 0.34547 0.36559 0.0
H4772 H 0.63014 0.35901 0.37611 0.0
H4773 H 0.64101 0.38866 0.36732 0.0
H4774 H 0.62844 0.41919 0.40582 0.0
H4775 H 0.63398 0.40588 0.39535 0.0
C4776 C 0.86399 0.39571 0.60069 0.0
C4777 C 0.86103 0.39868 0.59122 0.0
C4778 C 0.85736 0.39161 0.60737 0.0
C4779 C 0.83359 0.37925 0.60907 0.0
H4780 H 0.83416 0.3881 0.63586 0.0
C4781 C 0.81089 0.3607 0.64007 0.0
C4782 C 0.80636 0.36706 0.64667 0.0
C4783 C 0.8175 0.36445 0.63318 0.0
C4784 C 0.83387 0.38559 0.6284 0.0
H4785 H 0.8488 0.39957 0.5813 0.0
H4786 H 0.83722 0.39243 0.59296 0.0
H4787 H 0.84578 0.39481 0.62404 0.0
H4788 H 0.80519 0.38235 0.65116 0.0
H4789 H 0.8167 0.38888 0.63913 0.0
H4790 H 0.82159 0.37012 0.61342 0.0
C4791 C 0.84469 0.39321 0.5952 0.0
C4792 C 0.8406 0.38936 0.62165 0.0
C4793 C 0.85132 0.39735 0.58853 0.0
C4794 C 0.80856 0.37724 0.6462 0.0
C4795 C 0.8152 0.38098 0.63934 0.0
C4796 C 0.82689 0.37544 0.61584 0.0
C4797 C 0.84762 0.39036 0.60471 0.0
C4798 C 0.84053 0.38625 0.6119 0.0
C4799 C 0.81977 0.37462 0.63277 0.0
C4800 C 0.82693 0.3786 0.62557 0.0
H4801 H 0.87143 0.39661 0.603 0.0
H4802 H 0.85987 0.38937 0.6146 0.0
H4803 H 0.8334 0.37665 0.60164 0.0
H4804 H 0.80936 0.35281 0.64024 0.0
H4805 H 0.82097 0.35935 0.62828 0.0
C4806 C 0.64601 0.63142 0.10602 0.0
C4807 C 0.64262 0.63429 0.11521 0.0
C4808 C 0.64217 0.62309 0.10153 0.0
C4809 C 0.62732 0.60041 0.1065 0.0
H4810 H 0.62449 0.60117 0.07824 0.0
C4811 C 0.60473 0.57214 0.08467 0.0
C4812 C 0.60937 0.56809 0.07653 0.0
C4813 C 0.60899 0.57994 0.08969 0.0
C4814 C 0.6253 0.60084 0.08613 0.0
H4815 H 0.63253 0.63071 0.12691 0.0
H4816 H 0.62556 0.61641 0.11893 0.0
H4817 H 0.63137 0.6154 0.0864 0.0
H4818 H 0.6221 0.569 0.06729 0.0
H4819 H 0.62942 0.58276 0.07594 0.0
H4820 H 0.6209 0.58593 0.10615 0.0
C4821 C 0.63138 0.6204 0.11528 0.0
C4822 C 0.62929 0.60897 0.09082 0.0
C4823 C 0.63533 0.62864 0.11984 0.0
C4824 C 0.61836 0.57195 0.07354 0.0
C4825 C 0.62253 0.57985 0.07845 0.0
C4826 C 0.62318 0.59234 0.1018 0.0
C4827 C 0.63473 0.61752 0.10604 0.0
C4828 C 0.63041 0.60885 0.10107 0.0
C4829 C 0.61787 0.58393 0.08655 0.0
C4830 C 0.62219 0.59247 0.09157 0.0
H4831 H 0.65168 0.63557 0.10231 0.0
H4832 H 0.6451 0.621 0.09453 0.0
H4833 H 0.6282 0.59996 0.11437 0.0
H4834 H 0.59781 0.5693 0.08716 0.0
H4835 H 0.60523 0.583 0.09588 0.0
C4836 C 0.56169 0.61502 0.90636 0.0
C4837 C 0.55904 0.605 0.90762 0.0
C4838 C 0.56872 0.61784 0.89949 0.0
C4839 C 0.58124 0.60919 0.87731 0.0
H4840 H 0.59988 0.62953 0.8837 0.0
C4841 C 0.61378 0.61842 0.85236 0.0
C4842 C 0.6156 0.62855 0.85046 0.0
C4843 C 0.60723 0.61545 0.85965 0.0
C4844 C 0.59468 0.62389 0.88179 0.0
H4845 H 0.56172 0.59007 0.90267 0.0
H4846 H 0.57408 0.59496 0.89081 0.0
H4847 H 0.58765 0.62454 0.8957 0.0
H4848 H 0.61217 0.6435 0.85489 0.0
H4849 H 0.60075 0.63831 0.86762 0.0
H4850 H 0.5883 0.60853 0.86341 0.0
C4851 C 0.57061 0.60067 0.89501 0.0
C4852 C 0.58765 0.62105 0.88865 0.0
C4853 C 0.56356 0.59786 0.90184 0.0
C4854 C 0.61093 0.63563 0.85618 0.0
C4855 C 0.60441 0.63266 0.8635 0.0
C4856 C 0.58829 0.61201 0.87047 0.0
C4857 C 0.5733 0.61069 0.89375 0.0
C4858 C 0.58083 0.61368 0.88649 0.0
C4859 C 0.6024 0.62254 0.86523 0.0
C4860 C 0.59507 0.61941 0.87262 0.0
H4861 H 0.55832 0.62071 0.91067 0.0
H4862 H 0.5705 0.62564 0.89862 0.0
H4863 H 0.576 0.60361 0.87534 0.0
H4864 H 0.61728 0.61277 0.84811 0.0
H4865 H 0.60594 0.60759 0.86091 0.0
C4866 C 0.56624 0.37753 0.11591 0.0
C4867 C 0.55887 0.38192 0.1214 0.0
C4868 C 0.57269 0.37081 0.12034 0.0
C4869 C 0.58196 0.36263 0.1448 0.0
H4870 H 0.59192 0.34038 0.13038 0.0
C4871 C 0.60447 0.33097 0.16284 0.0
C4872 C 0.61306 0.32845 0.15799 0.0
C4873 C 0.59773 0.33733 0.15834 0.0
C4874 C 0.58923 0.3466 0.13446 0.0
H4875 H 0.55233 0.38253 0.13579 0.0
H4876 H 0.56336 0.37057 0.14346 0.0
H4877 H 0.5802 0.35162 0.12264 0.0
H4878 H 0.62124 0.33051 0.14455 0.0
H4879 H 0.60937 0.34152 0.13663 0.0
H4880 H 0.59088 0.35743 0.15668 0.0
C4881 C 0.56436 0.37252 0.13579 0.0
C4882 C 0.58254 0.35307 0.13003 0.0
C4883 C 0.55798 0.37933 0.13138 0.0
C4884 C 0.6147 0.33232 0.14849 0.0
C4885 C 0.6079 0.33858 0.14393 0.0
C4886 C 0.58855 0.35608 0.14926 0.0
C4887 C 0.57186 0.36823 0.13035 0.0
C4888 C 0.57885 0.3612 0.13512 0.0
C4889 C 0.59938 0.34119 0.14884 0.0
C4890 C 0.59228 0.34803 0.14413 0.0
H4891 H 0.56715 0.37943 0.10821 0.0
H4892 H 0.57846 0.36781 0.11595 0.0
H4893 H 0.57944 0.3689 0.14889 0.0
H4894 H 0.603 0.32811 0.17017 0.0
H4895 H 0.59119 0.33917 0.16226 0.0
C4896 C 0.8246 0.33471 0.35421 0.0
C4897 C 0.82333 0.33469 0.344 0.0
C4898 C 0.83178 0.34055 0.35838 0.0
C4899 C 0.84682 0.36263 0.35357 0.0
H4900 H 0.86264 0.35177 0.3747 0.0
C4901 C 0.87875 0.38457 0.36939 0.0
C4902 C 0.87984 0.38427 0.37962 0.0
C4903 C 0.87232 0.37816 0.36484 0.0
C4904 C 0.85822 0.35495 0.36887 0.0
H4905 H 0.82862 0.34079 0.33017 0.0
H4906 H 0.84115 0.35099 0.33747 0.0
H4907 H 0.85038 0.34139 0.3672 0.0
H4908 H 0.87516 0.37686 0.39308 0.0
H4909 H 0.86384 0.36579 0.38516 0.0
H4910 H 0.85452 0.37623 0.35531 0.0
C4911 C 0.83654 0.34653 0.34224 0.0
C4912 C 0.8512 0.349 0.36457 0.0
C4913 C 0.82939 0.34066 0.33806 0.0
C4914 C 0.87451 0.37727 0.38518 0.0
C4915 C 0.86805 0.37088 0.38063 0.0
C4916 C 0.8538 0.3686 0.35789 0.0
C4917 C 0.83783 0.34653 0.35244 0.0
C4918 C 0.8454 0.35279 0.3569 0.0
C4919 C 0.8668 0.37131 0.37041 0.0
C4920 C 0.85957 0.36485 0.36562 0.0
H4921 H 0.82005 0.3302 0.359 0.0
H4922 H 0.83252 0.34048 0.36628 0.0
H4923 H 0.84237 0.36581 0.34775 0.0
H4924 H 0.88279 0.38984 0.36489 0.0
H4925 H 0.87166 0.37857 0.35694 0.0
C4926 C 0.8402 0.63299 0.62107 0.0
C4927 C 0.83426 0.63765 0.61397 0.0
C4928 C 0.84769 0.62669 0.61828 0.0
C4929 C 0.85543 0.61113 0.59786 0.0
H4930 H 0.88009 0.61086 0.61139 0.0
C4931 C 0.88747 0.5872 0.58514 0.0
C4932 C 0.89273 0.58205 0.59246 0.0
C4933 C 0.88066 0.59439 0.58761 0.0
C4934 C 0.87321 0.61078 0.60759 0.0
H4935 H 0.83167 0.6395 0.59837 0.0
H4936 H 0.84481 0.6286 0.59352 0.0
H4937 H 0.86768 0.62277 0.61595 0.0
H4938 H 0.89502 0.58049 0.60814 0.0
H4939 H 0.88308 0.59298 0.61244 0.0
H4940 H 0.86093 0.59911 0.58955 0.0
C4941 C 0.84358 0.6297 0.60124 0.0
C4942 C 0.8661 0.61761 0.61021 0.0
C4943 C 0.83609 0.636 0.60403 0.0
C4944 C 0.8911 0.58433 0.60231 0.0
C4945 C 0.8843 0.59153 0.60478 0.0
C4946 C 0.86254 0.60431 0.59524 0.0
C4947 C 0.84942 0.62489 0.60834 0.0
C4948 C 0.85711 0.61784 0.6054 0.0
C4949 C 0.87896 0.5966 0.59746 0.0
C4950 C 0.8715 0.60403 0.6001 0.0
H4951 H 0.83898 0.63409 0.6288 0.0
H4952 H 0.85198 0.62302 0.62394 0.0
H4953 H 0.84853 0.61098 0.59412 0.0
H4954 H 0.88857 0.58564 0.57748 0.0
H4955 H 0.87676 0.59825 0.58178 0.0
C4956 C 0.56384 0.37328 0.57274 0.0
C4957 C 0.56393 0.38359 0.57096 0.0
C4958 C 0.57111 0.36871 0.57835 0.0
C4959 C 0.59068 0.37382 0.59614 0.0
H4960 H 0.60035 0.3484 0.5877 0.0
C4961 C 0.62393 0.34416 0.60446 0.0
C4962 C 0.62386 0.344 0.61474 0.0
C4963 C 0.61695 0.34954 0.59917 0.0
C4964 C 0.59783 0.35555 0.59011 0.0
H4965 H 0.57166 0.39723 0.57377 0.0
H4966 H 0.58445 0.38925 0.5834 0.0
H4967 H 0.58753 0.35668 0.57846 0.0
H4968 H 0.61654 0.34954 0.62754 0.0
H4969 H 0.60425 0.35876 0.61832 0.0
H4970 H 0.60119 0.3728 0.60763 0.0
C4971 C 0.57867 0.38469 0.58061 0.0
C4972 C 0.59035 0.36023 0.58489 0.0
C4973 C 0.57136 0.38927 0.57504 0.0
C4974 C 0.61681 0.34954 0.61962 0.0
C4975 C 0.60978 0.35486 0.61432 0.0
C4976 C 0.5982 0.36916 0.60134 0.0
C4977 C 0.57868 0.37434 0.58226 0.0
C4978 C 0.58666 0.36941 0.58785 0.0
C4979 C 0.60969 0.35482 0.60403 0.0
C4980 C 0.60185 0.35995 0.5984 0.0
H4981 H 0.55817 0.3687 0.56975 0.0
H4982 H 0.57078 0.36075 0.57964 0.0
H4983 H 0.58796 0.38084 0.59868 0.0
H4984 H 0.62931 0.34003 0.60048 0.0
H4985 H 0.61721 0.3495 0.59124 0.0
C4986 C 0.86755 0.34956 0.83607 0.0
C4987 C 0.85753 0.34787 0.83636 0.0
C4988 C 0.87176 0.35666 0.84204 0.0
C4989 C 0.86567 0.37862 0.85686 0.0
H4990 H 0.89099 0.37369 0.86821 0.0
C4991 C 0.88201 0.40274 0.88713 0.0
C4992 C 0.89171 0.40565 0.88592 0.0
C4993 C 0.87788 0.39578 0.88097 0.0
C4994 C 0.88395 0.3752 0.86502 0.0
H4995 H 0.84409 0.35219 0.84323 0.0
H4996 H 0.85145 0.36433 0.85383 0.0
H4997 H 0.88367 0.36128 0.85784 0.0
H4998 H 0.90468 0.40349 0.87732 0.0
H4999 H 0.89747 0.39124 0.86661 0.0
H5000 H 0.86591 0.39246 0.86426 0.0
C5001 C 0.85605 0.36038 0.84883 0.0
C5002 C 0.87976 0.36811 0.85905 0.0
C5003 C 0.85183 0.35336 0.84279 0.0
C5004 C 0.89719 0.40141 0.87843 0.0
C5005 C 0.89309 0.39436 0.87234 0.0
C5006 C 0.86983 0.38566 0.86292 0.0
C5007 C 0.86607 0.36216 0.84851 0.0
C5008 C 0.87056 0.36972 0.85488 0.0
C5009 C 0.88338 0.39149 0.87353 0.0
C5010 C 0.87901 0.38403 0.86706 0.0
H5011 H 0.87213 0.34549 0.83115 0.0
H5012 H 0.87947 0.35792 0.84146 0.0
H5013 H 0.85868 0.38023 0.85364 0.0
H5014 H 0.87759 0.40586 0.89283 0.0
H5015 H 0.87041 0.39364 0.88211 0.0
C5016 C 0.8213 0.62524 0.13613 0.0
C5017 C 0.81664 0.63249 0.13024 0.0
C5018 C 0.82818 0.61891 0.13211 0.0
C5019 C 0.84498 0.61711 0.11131 0.0
H5020 H 0.84558 0.5891 0.11858 0.0
C5021 C 0.8696 0.58917 0.09179 0.0
C5022 C 0.87407 0.58171 0.09758 0.0
C5023 C 0.86264 0.5954 0.09582 0.0
C5024 C 0.84559 0.59693 0.11656 0.0
H5025 H 0.81546 0.63869 0.11547 0.0
H5026 H 0.82741 0.62761 0.10846 0.0
H5027 H 0.83321 0.59978 0.12547 0.0
H5028 H 0.87483 0.57503 0.11218 0.0
H5029 H 0.8628 0.58599 0.11923 0.0
H5030 H 0.85738 0.61429 0.10244 0.0
C5031 C 0.82583 0.62689 0.11621 0.0
C5032 C 0.83849 0.60304 0.12051 0.0
C5033 C 0.81893 0.6332 0.12022 0.0
C5034 C 0.8715 0.58068 0.10751 0.0
C5035 C 0.86456 0.58692 0.11153 0.0
C5036 C 0.85209 0.61101 0.10739 0.0
C5037 C 0.83058 0.61972 0.12212 0.0
C5038 C 0.83809 0.6132 0.11791 0.0
C5039 C 0.86001 0.59432 0.10573 0.0
C5040 C 0.85248 0.60084 0.10996 0.0
H5041 H 0.81972 0.62451 0.14388 0.0
H5042 H 0.83178 0.61353 0.13688 0.0
H5043 H 0.84497 0.62494 0.10929 0.0
H5044 H 0.87139 0.59013 0.08411 0.0
H5045 H 0.8592 0.60093 0.0911 0.0
C5046 C 0.57895 0.59749 0.36004 0.0
C5047 C 0.57051 0.59382 0.35567 0.0
C5048 C 0.58464 0.60458 0.35512 0.0
C5049 C 0.58355 0.62418 0.33607 0.0
H5050 H 0.61136 0.62081 0.3348 0.0
C5051 C 0.6074 0.64942 0.31142 0.0
C5052 C 0.6166 0.65202 0.31487 0.0
C5053 C 0.6018 0.64239 0.31653 0.0
C5054 C 0.60362 0.62196 0.3352 0.0
H5055 H 0.56141 0.59474 0.34274 0.0
H5056 H 0.57132 0.6072 0.3342 0.0
H5057 H 0.60156 0.60843 0.34353 0.0
H5058 H 0.6271 0.6494 0.32644 0.0
H5059 H 0.61723 0.63734 0.3355 0.0
H5060 H 0.58556 0.63777 0.32792 0.0
C5061 C 0.57351 0.60459 0.34143 0.0
C5062 C 0.59801 0.61484 0.34018 0.0
C5063 C 0.56787 0.59741 0.3463 0.0
C5064 C 0.62005 0.64751 0.32357 0.0
C5065 C 0.61441 0.64055 0.32873 0.0
C5066 C 0.58916 0.63135 0.33118 0.0
C5067 C 0.58195 0.60823 0.34579 0.0
C5068 C 0.58792 0.61585 0.34062 0.0
C5069 C 0.60522 0.63786 0.32525 0.0
C5070 C 0.59927 0.63031 0.33064 0.0
H5071 H 0.58118 0.59486 0.36725 0.0
H5072 H 0.59107 0.60732 0.35868 0.0
H5073 H 0.57579 0.62521 0.33642 0.0
H5074 H 0.60456 0.65271 0.3047 0.0
H5075 H 0.59484 0.64039 0.31353 0.0
C5076 C 0.66213 0.86952 0.6277 0.0
C5077 C 0.65775 0.86063 0.63096 0.0
C5078 C 0.65748 0.87577 0.62085 0.0
C5079 C 0.63782 0.87623 0.60229 0.0
H5080 H 0.63964 0.90475 0.60516 0.0
C5081 C 0.61399 0.90429 0.5804 0.0
C5082 C 0.61863 0.91277 0.57644 0.0
C5083 C 0.61889 0.89782 0.58684 0.0
C5084 C 0.63914 0.8968 0.60421 0.0
H5085 H 0.64506 0.85132 0.6296 0.0
H5086 H 0.63686 0.86231 0.61784 0.0
H5087 H 0.64787 0.89368 0.61683 0.0
H5088 H 0.63206 0.92107 0.57615 0.0
H5089 H 0.64058 0.90979 0.58745 0.0
H5090 H 0.62892 0.87942 0.58975 0.0
C5091 C 0.64397 0.86438 0.6204 0.0
C5092 C 0.64388 0.89045 0.61088 0.0
C5093 C 0.64865 0.8581 0.6272 0.0
C5094 C 0.62828 0.91461 0.57907 0.0
C5095 C 0.63314 0.90818 0.58558 0.0
C5096 C 0.63302 0.8826 0.59566 0.0
C5097 C 0.64832 0.87331 0.61715 0.0
C5098 C 0.64329 0.88007 0.61001 0.0
C5099 C 0.6285 0.89972 0.58954 0.0
C5100 C 0.63363 0.89295 0.59654 0.0
H5101 H 0.66917 0.87165 0.6304 0.0
H5102 H 0.66114 0.88249 0.61839 0.0
H5103 H 0.63733 0.8683 0.60127 0.0
H5104 H 0.60656 0.90265 0.57852 0.0
H5105 H 0.61509 0.89141 0.58985 0.0
C5106 C 0.3772 0.33702 0.07292 0.0
C5107 C 0.38667 0.33351 0.07436 0.0
C5108 C 0.36957 0.33316 0.07855 0.0
C5109 C 0.36333 0.31173 0.09534 0.0
H5110 H 0.34162 0.32851 0.102 0.0
C5111 C 0.33492 0.3014 0.12493 0.0
C5112 C 0.3253 0.30145 0.12161 0.0
C5113 C 0.34228 0.30543 0.11906 0.0
C5114 C 0.34763 0.32375 0.10014 0.0
H5115 H 0.39564 0.32342 0.08298 0.0
H5116 H 0.3825 0.31705 0.09313 0.0
H5117 H 0.35484 0.3354 0.09216 0.0
H5118 H 0.31579 0.30598 0.10969 0.0
H5119 H 0.32868 0.31334 0.09956 0.0
H5120 H 0.35622 0.30023 0.10373 0.0
C5121 C 0.38082 0.32248 0.08741 0.0
C5122 C 0.35519 0.32766 0.09445 0.0
C5123 C 0.38839 0.32619 0.08164 0.0
C5124 C 0.32315 0.30581 0.11241 0.0
C5125 C 0.33049 0.31005 0.10664 0.0
C5126 C 0.35587 0.30791 0.1012 0.0
C5127 C 0.37127 0.32584 0.0859 0.0
C5128 C 0.36316 0.3217 0.09195 0.0
C5129 C 0.34012 0.30979 0.10988 0.0
C5130 C 0.34796 0.31388 0.10364 0.0
H5131 H 0.37565 0.34262 0.0673 0.0
H5132 H 0.36233 0.33582 0.07701 0.0
H5133 H 0.36917 0.30681 0.09341 0.0
H5134 H 0.3368 0.29806 0.13197 0.0
H5135 H 0.34966 0.30519 0.12172 0.0
C5136 C 0.37743 0.6088 0.87774 0.0
C5137 C 0.38366 0.61364 0.8842 0.0
C5138 C 0.37405 0.61372 0.86928 0.0
C5139 C 0.37967 0.6335 0.8516 0.0
H5140 H 0.35199 0.63576 0.84772 0.0
C5141 C 0.36341 0.66106 0.82319 0.0
C5142 C 0.35462 0.65872 0.81865 0.0
C5143 C 0.36715 0.65492 0.83066 0.0
C5144 C 0.35974 0.63505 0.84854 0.0
H5145 H 0.39143 0.62732 0.88676 0.0
H5146 H 0.38571 0.63581 0.87182 0.0
H5147 H 0.35824 0.62602 0.8616 0.0
H5148 H 0.34304 0.64793 0.81811 0.0
H5149 H 0.34977 0.63696 0.83084 0.0
H5150 H 0.38127 0.64229 0.83848 0.0
C5151 C 0.38339 0.62825 0.87337 0.0
C5152 C 0.3633 0.62951 0.85654 0.0
C5153 C 0.38661 0.62342 0.88193 0.0
C5154 C 0.34979 0.64996 0.82154 0.0
C5155 C 0.35362 0.64372 0.8289 0.0
C5156 C 0.37613 0.63889 0.8435 0.0
C5157 C 0.37702 0.62348 0.86702 0.0
C5158 C 0.37329 0.6288 0.85821 0.0
C5159 C 0.3623 0.64618 0.83366 0.0
C5160 C 0.3661 0.63988 0.84193 0.0
H5161 H 0.37502 0.60128 0.87932 0.0
H5162 H 0.36916 0.60989 0.86446 0.0
H5163 H 0.38742 0.63297 0.8527 0.0
H5164 H 0.36726 0.66781 0.82118 0.0
H5165 H 0.37374 0.65721 0.83426 0.0
C5166 C 0.10918 0.59708 0.59762 0.0
C5167 C 0.10409 0.60224 0.59017 0.0
C5168 C 0.1156 0.6021 0.60365 0.0
C5169 C 0.13035 0.6247 0.60516 0.0
H5170 H 0.12789 0.62053 0.63323 0.0
C5171 C 0.14904 0.65033 0.6325 0.0
C5172 C 0.15272 0.64607 0.64122 0.0
C5173 C 0.14345 0.6447 0.62618 0.0
C5174 C 0.1288 0.62168 0.62541 0.0
H5175 H 0.10196 0.61664 0.58303 0.0
H5176 H 0.11326 0.62537 0.5935 0.0
H5177 H 0.1178 0.61105 0.62222 0.0
H5178 H 0.15351 0.63253 0.65012 0.0
H5179 H 0.14396 0.62263 0.63898 0.0
H5180 H 0.1414 0.63524 0.60829 0.0
C5181 C 0.11226 0.61745 0.59467 0.0
C5182 C 0.12299 0.61625 0.61911 0.0
C5183 C 0.10576 0.61246 0.58871 0.0
C5184 C 0.15073 0.63605 0.64348 0.0
C5185 C 0.14521 0.63038 0.63711 0.0
C5186 C 0.13622 0.63005 0.61145 0.0
C5187 C 0.11716 0.61234 0.60228 0.0
C5188 C 0.12365 0.61777 0.60892 0.0
C5189 C 0.14148 0.63465 0.62839 0.0
C5190 C 0.13546 0.62868 0.62167 0.0
H5191 H 0.10805 0.5892 0.59893 0.0
H5192 H 0.11935 0.59796 0.6094 0.0
H5193 H 0.13109 0.62593 0.59733 0.0
H5194 H 0.1504 0.65806 0.63058 0.0
H5195 H 0.14056 0.64829 0.61963 0.0
C5196 C 0.1104 0.34176 0.31823 0.0
C5197 C 0.11914 0.33859 0.32251 0.0
C5198 C 0.10371 0.3472 0.32359 0.0
C5199 C 0.10161 0.36225 0.346 0.0
H5200 H 0.07412 0.35842 0.34192 0.0
C5201 C 0.0724 0.37885 0.3711 0.0
C5202 C 0.0647 0.3838 0.36633 0.0
C5203 C 0.07897 0.37323 0.36578 0.0
C5204 C 0.08178 0.35961 0.34308 0.0
H5205 H 0.12766 0.33848 0.33584 0.0
H5206 H 0.1159 0.34768 0.34529 0.0
H5207 H 0.08571 0.3487 0.3327 0.0
H5208 H 0.0578 0.38661 0.35227 0.0
H5209 H 0.06923 0.37665 0.34302 0.0
H5210 H 0.09761 0.37302 0.35656 0.0
C5211 C 0.11429 0.34623 0.3377 0.0
C5212 C 0.08843 0.35407 0.33778 0.0
C5213 C 0.12102 0.34089 0.3323 0.0
C5214 C 0.06366 0.38289 0.35616 0.0
C5215 C 0.07016 0.37716 0.35086 0.0
C5216 C 0.09495 0.36769 0.35139 0.0
C5217 C 0.10556 0.34951 0.33341 0.0
C5218 C 0.09845 0.35534 0.33914 0.0
C5219 C 0.07793 0.37233 0.35561 0.0
C5220 C 0.08497 0.36645 0.34997 0.0
H5221 H 0.10876 0.34015 0.31067 0.0
H5222 H 0.09716 0.34974 0.31997 0.0
H5223 H 0.10924 0.36359 0.34713 0.0
H5224 H 0.07341 0.37941 0.37893 0.0
H5225 H 0.08485 0.36952 0.36964 0.0
C5226 C 0.39147 0.61242 0.39179 0.0
C5227 C 0.39428 0.61495 0.40129 0.0
C5228 C 0.38508 0.61847 0.38642 0.0
C5229 C 0.37431 0.6439 0.38569 0.0
H5230 H 0.35607 0.63173 0.36808 0.0
C5231 C 0.3415 0.66429 0.36785 0.0
C5232 C 0.34035 0.6631 0.35773 0.0
C5233 C 0.34844 0.65877 0.37308 0.0
C5234 C 0.36118 0.63522 0.37292 0.0
H5235 H 0.39249 0.62572 0.41267 0.0
H5236 H 0.38103 0.63607 0.4035 0.0
H5237 H 0.36719 0.62128 0.37758 0.0
H5238 H 0.34562 0.65525 0.34512 0.0
H5239 H 0.35761 0.64545 0.35431 0.0
H5240 H 0.36797 0.65783 0.38121 0.0
C5241 C 0.38398 0.62959 0.40004 0.0
C5242 C 0.3676 0.62925 0.37834 0.0
C5243 C 0.3905 0.62361 0.40534 0.0
C5244 C 0.34635 0.65635 0.35291 0.0
C5245 C 0.35317 0.65071 0.35817 0.0
C5246 C 0.36778 0.64985 0.38038 0.0
C5247 C 0.3812 0.62712 0.39048 0.0
C5248 C 0.37429 0.6335 0.38478 0.0
C5249 C 0.35424 0.65183 0.3683 0.0
C5250 C 0.36119 0.64557 0.37392 0.0
H5251 H 0.39433 0.60584 0.38844 0.0
H5252 H 0.3833 0.61642 0.37903 0.0
H5253 H 0.37946 0.64748 0.39041 0.0
H5254 H 0.33699 0.66945 0.37176 0.0
H5255 H 0.3491 0.65973 0.3809 0.0
C5256 C 0.11099 0.6354 0.15632 0.0
C5257 C 0.11972 0.63834 0.15187 0.0
C5258 C 0.10418 0.62993 0.15117 0.0
C5259 C 0.1015 0.61447 0.1291 0.0
H5260 H 0.07416 0.61893 0.13351 0.0
C5261 C 0.07155 0.598 0.10482 0.0
C5262 C 0.06394 0.5932 0.10984 0.0
C5263 C 0.0783 0.60362 0.1099 0.0
C5264 C 0.08178 0.61757 0.13225 0.0
H5265 H 0.12808 0.63798 0.13847 0.0
H5266 H 0.11609 0.62874 0.12937 0.0
H5267 H 0.08605 0.62862 0.14234 0.0
H5268 H 0.05735 0.59065 0.12408 0.0
H5269 H 0.06908 0.60063 0.13292 0.0
H5270 H 0.09715 0.60358 0.11881 0.0
C5271 C 0.11459 0.6304 0.13693 0.0
C5272 C 0.08861 0.62309 0.13734 0.0
C5273 C 0.12146 0.63576 0.14213 0.0
C5274 C 0.06314 0.59425 0.12002 0.0
C5275 C 0.06982 0.59999 0.12507 0.0
C5276 C 0.09467 0.60906 0.12391 0.0
C5277 C 0.10586 0.62738 0.14139 0.0
C5278 C 0.09857 0.62158 0.13587 0.0
C5279 C 0.07751 0.60467 0.12007 0.0
C5280 C 0.08474 0.61053 0.12547 0.0
H5281 H 0.10947 0.63723 0.16384 0.0
H5282 H 0.09764 0.62759 0.15492 0.0
H5283 H 0.10909 0.61296 0.12789 0.0
H5284 H 0.07237 0.59731 0.09698 0.0
H5285 H 0.08412 0.60721 0.10586 0.0
C5286 C 0.10663 0.34935 0.90462 0.0
C5287 C 0.1027 0.35789 0.90002 0.0
C5288 C 0.11463 0.3446 0.9006 0.0
C5289 C 0.12689 0.3405 0.87753 0.0
H5290 H 0.14901 0.33339 0.89368 0.0
C5291 C 0.16131 0.32339 0.86105 0.0
C5292 C 0.16633 0.31621 0.86668 0.0
C5293 C 0.1537 0.32873 0.86511 0.0
C5294 C 0.14284 0.33517 0.88909 0.0
H5295 H 0.10406 0.36815 0.88761 0.0
H5296 H 0.11795 0.35971 0.88048 0.0
H5297 H 0.13543 0.3422 0.90083 0.0
H5298 H 0.16721 0.30885 0.88094 0.0
H5299 H 0.15371 0.31785 0.88793 0.0
H5300 H 0.13406 0.33323 0.86586 0.0
C5301 C 0.11485 0.35675 0.88722 0.0
C5302 C 0.13509 0.34027 0.89318 0.0
C5303 C 0.10694 0.36159 0.89133 0.0
C5304 C 0.16352 0.31439 0.87644 0.0
C5305 C 0.15582 0.31962 0.88046 0.0
C5306 C 0.13457 0.33527 0.87346 0.0
C5307 C 0.11876 0.34821 0.89183 0.0
C5308 C 0.12705 0.34298 0.88744 0.0
C5309 C 0.15082 0.3269 0.87487 0.0
C5310 C 0.14265 0.33253 0.87918 0.0
H5311 H 0.10353 0.34633 0.91134 0.0
H5312 H 0.11747 0.33799 0.90425 0.0
H5313 H 0.12071 0.34241 0.87297 0.0
H5314 H 0.16336 0.32502 0.85352 0.0
H5315 H 0.15016 0.33439 0.86061 0.0
C5316 C 0.3522 0.3095 0.65317 0.0
C5317 C 0.35838 0.30812 0.66124 0.0
C5318 C 0.35483 0.31582 0.64535 0.0
C5319 C 0.37619 0.32887 0.63439 0.0
H5320 H 0.35641 0.34336 0.61983 0.0
C5321 C 0.38393 0.36071 0.6061 0.0
C5322 C 0.37972 0.35947 0.59685 0.0
C5323 C 0.38141 0.35442 0.61398 0.0
C5324 C 0.36199 0.33932 0.62383 0.0
H5325 H 0.37204 0.31246 0.66761 0.0
H5326 H 0.37644 0.32386 0.65424 0.0
H5327 H 0.35181 0.33276 0.63378 0.0
H5328 H 0.36952 0.35076 0.5886 0.0
H5329 H 0.36492 0.33995 0.6025 0.0
H5330 H 0.38638 0.3358 0.62457 0.0
C5331 C 0.36971 0.3198 0.65371 0.0
C5332 C 0.35937 0.33318 0.63179 0.0
C5333 C 0.36717 0.31332 0.66143 0.0
C5334 C 0.3729 0.35187 0.59564 0.0
C5335 C 0.37023 0.34572 0.60358 0.0
C5336 C 0.37882 0.33516 0.62655 0.0
C5337 C 0.36362 0.32109 0.64552 0.0
C5338 C 0.36643 0.32781 0.63715 0.0
C5339 C 0.3745 0.34692 0.6128 0.0
C5340 C 0.37173 0.34038 0.62117 0.0
H5341 H 0.34542 0.30551 0.65278 0.0
H5342 H 0.35002 0.31642 0.63912 0.0
H5343 H 0.38183 0.32472 0.63818 0.0
H5344 H 0.38923 0.36648 0.60723 0.0
H5345 H 0.38477 0.3555 0.62105 0.0
C5346 C 0.31489 0.12779 0.33676 0.0
C5347 C 0.30975 0.12468 0.32851 0.0
C5348 C 0.32198 0.12168 0.34106 0.0
C5349 C 0.33127 0.09563 0.34174 0.0
H5350 H 0.35454 0.10806 0.35145 0.0
C5351 C 0.36686 0.07433 0.35006 0.0
C5352 C 0.37171 0.07658 0.35877 0.0
C5353 C 0.35879 0.07986 0.34701 0.0
C5354 C 0.34804 0.10449 0.34887 0.0
H5355 H 0.30798 0.11272 0.31834 0.0
H5356 H 0.32052 0.10222 0.32562 0.0
H5357 H 0.3415 0.11838 0.34485 0.0
H5358 H 0.37182 0.08633 0.37118 0.0
H5359 H 0.3578 0.09607 0.36575 0.0
H5360 H 0.33804 0.08171 0.34549 0.0
C5361 C 0.31895 0.10925 0.32895 0.0
C5362 C 0.34053 0.1104 0.34511 0.0
C5363 C 0.31178 0.11531 0.32472 0.0
C5364 C 0.36824 0.0844 0.36443 0.0
C5365 C 0.36025 0.09001 0.36131 0.0
C5366 C 0.33884 0.08971 0.3454 0.0
C5367 C 0.32418 0.11237 0.33716 0.0
C5368 C 0.33205 0.10606 0.34146 0.0
C5369 C 0.35549 0.08784 0.35253 0.0
C5370 C 0.34731 0.09408 0.34897 0.0
H5371 H 0.31345 0.13494 0.3399 0.0
H5372 H 0.32572 0.12427 0.34748 0.0
H5373 H 0.3248 0.092 0.33918 0.0
H5374 H 0.36934 0.06834 0.34554 0.0
H5375 H 0.35531 0.07807 0.34018 0.0
loop_
_geom_bond_atom_site_label_1
_geom_bond_atom_site_label_2
_geom_bond_distance
_geom_bond_site_symmetry_2
_ccdc_geom_bond_type
O0 Cd1 2.300 . S
O0 C7 1.275 . S
Cd1 O0 2.300 . S
Cd1 O9 2.381 . S
Cd1 O10 2.378 . S
O2 Cd3 2.385 . S
O2 C7 1.255 . S
Cd3 O2 2.385 . S
Cd3 O4 2.317 . S
O4 Cd3 2.317 . S
O4 C5 1.232 . S
C5 O4 1.232 . S
C5 O6 1.218 . S
O6 C5 1.218 . S
C7 O0 1.275 . S
C7 O2 1.255 . S
C8 O9 1.258 . S
C8 O10 1.256 . S
O9 Cd1 2.381 . S
O9 C8 1.258 . S
O10 Cd1 2.378 . S
O10 C8 1.256 . S
O11 Cd12 2.300 . S
O11 C18 1.275 . S
Cd12 O11 2.300 . S
Cd12 O20 2.381 . S
Cd12 O21 2.378 . S
O13 Cd14 2.385 . S
O13 C18 1.255 . S
Cd14 O13 2.385 . S
Cd14 O15 2.317 . S
O15 Cd14 2.317 . S
O15 C16 1.232 . S
C16 O15 1.232 . S
C16 O17 1.218 . S
O17 C16 1.218 . S
C18 O11 1.275 . S
C18 O13 1.255 . S
C19 O20 1.258 . S
C19 O21 1.256 . S
O20 Cd12 2.381 . S
O20 C19 1.258 . S
O21 Cd12 2.378 . S
O21 C19 1.256 . S
O22 Cd23 2.300 . S
O22 C29 1.275 . S
Cd23 O22 2.300 . S
Cd23 O31 2.381 . S
Cd23 O32 2.378 . S
O24 Cd25 2.385 . S
O24 C29 1.255 . S
Cd25 O24 2.385 . S
Cd25 O26 2.317 . S
O26 Cd25 2.317 . S
O26 C27 1.232 . S
C27 O26 1.232 . S
C27 O28 1.218 . S
O28 C27 1.218 . S
C29 O22 1.275 . S
C29 O24 1.255 . S
C30 O31 1.258 . S
C30 O32 1.256 . S
O31 Cd23 2.381 . S
O31 C30 1.258 . S
O32 Cd23 2.378 . S
O32 C30 1.256 . S
O33 Cd34 2.300 . S
O33 C40 1.275 . S
Cd34 O33 2.300 . S
Cd34 O42 2.381 . S
Cd34 O43 2.378 . S
O35 Cd36 2.385 . S
O35 C40 1.255 . S
Cd36 O35 2.385 . S
Cd36 O37 2.317 . S
O37 Cd36 2.317 . S
O37 C38 1.232 . S
C38 O37 1.232 . S
C38 O39 1.218 . S
O39 C38 1.218 . S
C40 O33 1.275 . S
C40 O35 1.255 . S
C41 O42 1.258 . S
C41 O43 1.256 . S
O42 Cd34 2.381 . S
O42 C41 1.258 . S
O43 Cd34 2.378 . S
O43 C41 1.256 . S
O44 Cd45 2.300 . S
O44 C51 1.275 . S
Cd45 O44 2.300 . S
Cd45 O53 2.381 . S
Cd45 O54 2.378 . S
O46 Cd47 2.385 . S
O46 C51 1.255 . S
Cd47 O46 2.385 . S
Cd47 O48 2.317 . S
O48 Cd47 2.317 . S
O48 C49 1.232 . S
C49 O48 1.232 . S
C49 O50 1.218 . S
O50 C49 1.218 . S
C51 O44 1.275 . S
C51 O46 1.255 . S
C52 O53 1.258 . S
C52 O54 1.256 . S
O53 Cd45 2.381 . S
O53 C52 1.258 . S
O54 Cd45 2.378 . S
O54 C52 1.256 . S
O55 Cd56 2.300 . S
O55 C62 1.275 . S
Cd56 O55 2.300 . S
Cd56 O64 2.381 . S
Cd56 O65 2.378 . S
O57 Cd58 2.385 . S
O57 C62 1.255 . S
Cd58 O57 2.385 . S
Cd58 O59 2.317 . S
O59 Cd58 2.317 . S
O59 C60 1.232 . S
C60 O59 1.232 . S
C60 O61 1.218 . S
O61 C60 1.218 . S
C62 O55 1.275 . S
C62 O57 1.255 . S
C63 O64 1.258 . S
C63 O65 1.256 . S
O64 Cd56 2.381 . S
O64 C63 1.258 . S
O65 Cd56 2.378 . S
O65 C63 1.256 . S
O66 Cd67 2.300 . S
O66 C73 1.275 . S
Cd67 O66 2.300 . S
Cd67 O75 2.381 . S
Cd67 O76 2.378 . S
O68 Cd69 2.385 . S
O68 C73 1.255 . S
Cd69 O68 2.385 . S
Cd69 O70 2.317 . S
O70 Cd69 2.317 . S
O70 C71 1.232 . S
C71 O70 1.232 . S
C71 O72 1.218 . S
O72 C71 1.218 . S
C73 O66 1.275 . S
C73 O68 1.255 . S
C74 O75 1.258 . S
C74 O76 1.256 . S
O75 Cd67 2.381 . S
O75 C74 1.258 . S
O76 Cd67 2.378 . S
O76 C74 1.256 . S
O77 Cd78 2.300 . S
O77 C84 1.275 . S
Cd78 O77 2.300 . S
Cd78 O86 2.381 . S
Cd78 O87 2.378 . S
O79 Cd80 2.385 . S
O79 C84 1.255 . S
Cd80 O79 2.385 . S
Cd80 O81 2.317 . S
O81 Cd80 2.317 . S
O81 C82 1.232 . S
C82 O81 1.232 . S
C82 O83 1.218 . S
O83 C82 1.218 . S
C84 O77 1.275 . S
C84 O79 1.255 . S
C85 O86 1.258 . S
C85 O87 1.256 . S
O86 Cd78 2.381 . S
O86 C85 1.258 . S
O87 Cd78 2.378 . S
O87 C85 1.256 . S
O88 Cd89 2.300 . S
O88 C95 1.275 . S
Cd89 O88 2.300 . S
Cd89 O97 2.381 . S
Cd89 O98 2.378 . S
O90 Cd91 2.385 . S
O90 C95 1.255 . S
Cd91 O90 2.385 . S
Cd91 O92 2.317 . S
O92 Cd91 2.317 . S
O92 C93 1.232 . S
C93 O92 1.232 . S
C93 O94 1.218 . S
O94 C93 1.218 . S
C95 O88 1.275 . S
C95 O90 1.255 . S
C96 O97 1.258 . S
C96 O98 1.256 . S
O97 Cd89 2.381 . S
O97 C96 1.258 . S
O98 Cd89 2.378 . S
O98 C96 1.256 . S
O99 Cd100 2.300 . S
O99 C106 1.275 . S
Cd100 O99 2.300 . S
Cd100 O108 2.381 . S
Cd100 O109 2.378 . S
O101 Cd102 2.385 . S
O101 C106 1.255 . S
Cd102 O101 2.385 . S
Cd102 O103 2.317 . S
O103 Cd102 2.317 . S
O103 C104 1.232 . S
C104 O103 1.232 . S
C104 O105 1.218 . S
O105 C104 1.218 . S
C106 O99 1.275 . S
C106 O101 1.255 . S
C107 O108 1.258 . S
C107 O109 1.256 . S
O108 Cd100 2.381 . S
O108 C107 1.258 . S
O109 Cd100 2.378 . S
O109 C107 1.256 . S
O110 Cd111 2.300 . S
O110 C117 1.275 . S
Cd111 O110 2.300 . S
Cd111 O119 2.381 . S
Cd111 O120 2.378 . S
O112 Cd113 2.385 . S
O112 C117 1.255 . S
Cd113 O112 2.385 . S
Cd113 O114 2.317 . S
O114 Cd113 2.317 . S
O114 C115 1.232 . S
C115 O114 1.232 . S
C115 O116 1.218 . S
O116 C115 1.218 . S
C117 O110 1.275 . S
C117 O112 1.255 . S
C118 O119 1.258 . S
C118 O120 1.256 . S
O119 Cd111 2.381 . S
O119 C118 1.258 . S
O120 Cd111 2.378 . S
O120 C118 1.256 . S
O121 Cd122 2.300 . S
O121 C128 1.275 . S
Cd122 O121 2.300 . S
Cd122 O130 2.381 . S
Cd122 O131 2.378 . S
O123 Cd124 2.385 . S
O123 C128 1.255 . S
Cd124 O123 2.385 . S
Cd124 O125 2.317 . S
O125 Cd124 2.317 . S
O125 C126 1.232 . S
C126 O125 1.232 . S
C126 O127 1.218 . S
O127 C126 1.218 . S
C128 O121 1.275 . S
C128 O123 1.255 . S
C129 O130 1.258 . S
C129 O131 1.256 . S
O130 Cd122 2.381 . S
O130 C129 1.258 . S
O131 Cd122 2.378 . S
O131 C129 1.256 . S
O132 Cd133 2.300 . S
O132 C139 1.275 . S
Cd133 O132 2.300 . S
Cd133 O141 2.381 . S
Cd133 O142 2.378 . S
O134 Cd135 2.385 . S
O134 C139 1.255 . S
Cd135 O134 2.385 . S
Cd135 O136 2.317 . S
O136 Cd135 2.317 . S
O136 C137 1.232 . S
C137 O136 1.232 . S
C137 O138 1.218 . S
O138 C137 1.218 . S
C139 O132 1.275 . S
C139 O134 1.255 . S
C140 O141 1.258 . S
C140 O142 1.256 . S
O141 Cd133 2.381 . S
O141 C140 1.258 . S
O142 Cd133 2.378 . S
O142 C140 1.256 . S
O143 Cd144 2.300 . S
O143 C150 1.275 . S
Cd144 O143 2.300 . S
Cd144 O152 2.381 . S
Cd144 O153 2.378 . S
O145 Cd146 2.385 . S
O145 C150 1.255 . S
Cd146 O145 2.385 . S
Cd146 O147 2.317 . S
O147 Cd146 2.317 . S
O147 C148 1.232 . S
C148 O147 1.232 . S
C148 O149 1.218 . S
O149 C148 1.218 . S
C150 O143 1.275 . S
C150 O145 1.255 . S
C151 O152 1.258 . S
C151 O153 1.256 . S
O152 Cd144 2.381 . S
O152 C151 1.258 . S
O153 Cd144 2.378 . S
O153 C151 1.256 . S
O154 Cd155 2.300 . S
O154 C161 1.275 . S
Cd155 O154 2.300 . S
Cd155 O163 2.381 . S
Cd155 O164 2.378 . S
O156 Cd157 2.385 . S
O156 C161 1.255 . S
Cd157 O156 2.385 . S
Cd157 O158 2.317 . S
O158 Cd157 2.317 . S
O158 C159 1.232 . S
C159 O158 1.232 . S
C159 O160 1.218 . S
O160 C159 1.218 . S
C161 O154 1.275 . S
C161 O156 1.255 . S
C162 O163 1.258 . S
C162 O164 1.256 . S
O163 Cd155 2.381 . S
O163 C162 1.258 . S
O164 Cd155 2.378 . S
O164 C162 1.256 . S
O165 Cd166 2.300 . S
O165 C172 1.275 . S
Cd166 O165 2.300 . S
Cd166 O174 2.381 . S
Cd166 O175 2.378 . S
O167 Cd168 2.385 . S
O167 C172 1.255 . S
Cd168 O167 2.385 . S
Cd168 O169 2.317 . S
O169 Cd168 2.317 . S
O169 C170 1.232 . S
C170 O169 1.232 . S
C170 O171 1.218 . S
O171 C170 1.218 . S
C172 O165 1.275 . S
C172 O167 1.255 . S
C173 O174 1.258 . S
C173 O175 1.256 . S
O174 Cd166 2.381 . S
O174 C173 1.258 . S
O175 Cd166 2.378 . S
O175 C173 1.256 . S
O176 Cd177 2.300 . S
O176 C183 1.275 . S
Cd177 O176 2.300 . S
Cd177 O185 2.381 . S
Cd177 O186 2.378 . S
O178 Cd179 2.385 . S
O178 C183 1.255 . S
Cd179 O178 2.385 . S
Cd179 O180 2.317 . S
O180 Cd179 2.317 . S
O180 C181 1.232 . S
C181 O180 1.232 . S
C181 O182 1.218 . S
O182 C181 1.218 . S
C183 O176 1.275 . S
C183 O178 1.255 . S
C184 O185 1.258 . S
C184 O186 1.256 . S
O185 Cd177 2.381 . S
O185 C184 1.258 . S
O186 Cd177 2.378 . S
O186 C184 1.256 . S
O187 Cd188 2.300 . S
O187 C194 1.275 . S
Cd188 O187 2.300 . S
Cd188 O196 2.381 . S
Cd188 O197 2.378 . S
O189 Cd190 2.385 . S
O189 C194 1.255 . S
Cd190 O189 2.385 . S
Cd190 O191 2.317 . S
O191 Cd190 2.317 . S
O191 C192 1.232 . S
C192 O191 1.232 . S
C192 O193 1.218 . S
O193 C192 1.218 . S
C194 O187 1.275 . S
C194 O189 1.255 . S
C195 O196 1.258 . S
C195 O197 1.256 . S
O196 Cd188 2.381 . S
O196 C195 1.258 . S
O197 Cd188 2.378 . S
O197 C195 1.256 . S
O198 Cd199 2.300 . S
O198 C205 1.275 . S
Cd199 O198 2.300 . S
Cd199 O207 2.381 . S
Cd199 O208 2.378 . S
O200 Cd201 2.385 . S
O200 C205 1.255 . S
Cd201 O200 2.385 . S
Cd201 O202 2.317 . S
O202 Cd201 2.317 . S
O202 C203 1.232 . S
C203 O202 1.232 . S
C203 O204 1.218 . S
O204 C203 1.218 . S
C205 O198 1.275 . S
C205 O200 1.255 . S
C206 O207 1.258 . S
C206 O208 1.256 . S
O207 Cd199 2.381 . S
O207 C206 1.258 . S
O208 Cd199 2.378 . S
O208 C206 1.256 . S
O209 Cd210 2.300 . S
O209 C216 1.275 . S
Cd210 O209 2.300 . S
Cd210 O218 2.381 . S
Cd210 O219 2.378 . S
O211 Cd212 2.385 . S
O211 C216 1.255 . S
Cd212 O211 2.385 . S
Cd212 O213 2.317 . S
O213 Cd212 2.317 . S
O213 C214 1.232 . S
C214 O213 1.232 . S
C214 O215 1.218 . S
O215 C214 1.218 . S
C216 O209 1.275 . S
C216 O211 1.255 . S
C217 O218 1.258 . S
C217 O219 1.256 . S
O218 Cd210 2.381 . S
O218 C217 1.258 . S
O219 Cd210 2.378 . S
O219 C217 1.256 . S
O220 Cd221 2.300 . S
O220 C227 1.275 . S
Cd221 O220 2.300 . S
Cd221 O229 2.381 . S
Cd221 O230 2.378 . S
O222 Cd223 2.385 . S
O222 C227 1.255 . S
Cd223 O222 2.385 . S
Cd223 O224 2.317 . S
O224 Cd223 2.317 . S
O224 C225 1.232 . S
C225 O224 1.232 . S
C225 O226 1.218 . S
O226 C225 1.218 . S
C227 O220 1.275 . S
C227 O222 1.255 . S
C228 O229 1.258 . S
C228 O230 1.256 . S
O229 Cd221 2.381 . S
O229 C228 1.258 . S
O230 Cd221 2.378 . S
O230 C228 1.256 . S
O231 Cd232 2.300 . S
O231 C238 1.275 . S
Cd232 O231 2.300 . S
Cd232 O240 2.381 . S
Cd232 O241 2.378 . S
O233 Cd234 2.385 . S
O233 C238 1.255 . S
Cd234 O233 2.385 . S
Cd234 O235 2.317 . S
O235 Cd234 2.317 . S
O235 C236 1.232 . S
C236 O235 1.232 . S
C236 O237 1.218 . S
O237 C236 1.218 . S
C238 O231 1.275 . S
C238 O233 1.255 . S
C239 O240 1.258 . S
C239 O241 1.256 . S
O240 Cd232 2.381 . S
O240 C239 1.258 . S
O241 Cd232 2.378 . S
O241 C239 1.256 . S
O242 Cd243 2.300 . S
O242 C249 1.275 . S
Cd243 O242 2.300 . S
Cd243 O251 2.381 . S
Cd243 O252 2.378 . S
O244 Cd245 2.385 . S
O244 C249 1.255 . S
Cd245 O244 2.385 . S
Cd245 O246 2.317 . S
O246 Cd245 2.317 . S
O246 C247 1.232 . S
C247 O246 1.232 . S
C247 O248 1.218 . S
O248 C247 1.218 . S
C249 O242 1.275 . S
C249 O244 1.255 . S
C250 O251 1.258 . S
C250 O252 1.256 . S
O251 Cd243 2.381 . S
O251 C250 1.258 . S
O252 Cd243 2.378 . S
O252 C250 1.256 . S
O253 Cd254 2.300 . S
O253 C260 1.275 . S
Cd254 O253 2.300 . S
Cd254 O262 2.381 . S
Cd254 O263 2.378 . S
O255 Cd256 2.385 . S
O255 C260 1.255 . S
Cd256 O255 2.385 . S
Cd256 O257 2.317 . S
O257 Cd256 2.317 . S
O257 C258 1.232 . S
C258 O257 1.232 . S
C258 O259 1.218 . S
O259 C258 1.218 . S
C260 O253 1.275 . S
C260 O255 1.255 . S
C261 O262 1.258 . S
C261 O263 1.256 . S
O262 Cd254 2.381 . S
O262 C261 1.258 . S
O263 Cd254 2.378 . S
O263 C261 1.256 . S
O264 Cd265 2.300 . S
O264 C271 1.275 . S
Cd265 O264 2.300 . S
Cd265 O273 2.381 . S
Cd265 O274 2.378 . S
O266 Cd267 2.385 . S
O266 C271 1.255 . S
Cd267 O266 2.385 . S
Cd267 O268 2.317 . S
O268 Cd267 2.317 . S
O268 C269 1.232 . S
C269 O268 1.232 . S
C269 O270 1.218 . S
O270 C269 1.218 . S
C271 O264 1.275 . S
C271 O266 1.255 . S
C272 O273 1.258 . S
C272 O274 1.256 . S
O273 Cd265 2.381 . S
O273 C272 1.258 . S
O274 Cd265 2.378 . S
O274 C272 1.256 . S
O275 Cd276 2.300 . S
O275 C282 1.275 . S
Cd276 O275 2.300 . S
Cd276 O284 2.381 . S
Cd276 O285 2.378 . S
O277 Cd278 2.385 . S
O277 C282 1.255 . S
Cd278 O277 2.385 . S
Cd278 O279 2.317 . S
O279 Cd278 2.317 . S
O279 C280 1.232 . S
C280 O279 1.232 . S
C280 O281 1.218 . S
O281 C280 1.218 . S
C282 O275 1.275 . S
C282 O277 1.255 . S
C283 O284 1.258 . S
C283 O285 1.256 . S
O284 Cd276 2.381 . S
O284 C283 1.258 . S
O285 Cd276 2.378 . S
O285 C283 1.256 . S
O286 Cd287 2.300 . S
O286 C293 1.275 . S
Cd287 O286 2.300 . S
Cd287 O295 2.381 . S
Cd287 O296 2.378 . S
O288 Cd289 2.385 . S
O288 C293 1.255 . S
Cd289 O288 2.385 . S
Cd289 O290 2.317 . S
O290 Cd289 2.317 . S
O290 C291 1.232 . S
C291 O290 1.232 . S
C291 O292 1.218 . S
O292 C291 1.218 . S
C293 O286 1.275 . S
C293 O288 1.255 . S
C294 O295 1.258 . S
C294 O296 1.256 . S
O295 Cd287 2.381 . S
O295 C294 1.258 . S
O296 Cd287 2.378 . S
O296 C294 1.256 . S
O297 Cd298 2.300 . S
O297 C304 1.275 . S
Cd298 O297 2.300 . S
Cd298 O306 2.381 . S
Cd298 O307 2.378 . S
O299 Cd300 2.385 . S
O299 C304 1.255 . S
Cd300 O299 2.385 . S
Cd300 O301 2.317 . S
O301 Cd300 2.317 . S
O301 C302 1.232 . S
C302 O301 1.232 . S
C302 O303 1.218 . S
O303 C302 1.218 . S
C304 O297 1.275 . S
C304 O299 1.255 . S
C305 O306 1.258 . S
C305 O307 1.256 . S
O306 Cd298 2.381 . S
O306 C305 1.258 . S
O307 Cd298 2.378 . S
O307 C305 1.256 . S
O308 Cd309 2.300 . S
O308 C315 1.275 . S
Cd309 O308 2.300 . S
Cd309 O317 2.381 . S
Cd309 O318 2.378 . S
O310 Cd311 2.385 . S
O310 C315 1.255 . S
Cd311 O310 2.385 . S
Cd311 O312 2.317 . S
O312 Cd311 2.317 . S
O312 C313 1.232 . S
C313 O312 1.232 . S
C313 O314 1.218 . S
O314 C313 1.218 . S
C315 O308 1.275 . S
C315 O310 1.255 . S
C316 O317 1.258 . S
C316 O318 1.256 . S
O317 Cd309 2.381 . S
O317 C316 1.258 . S
O318 Cd309 2.378 . S
O318 C316 1.256 . S
O319 Cd320 2.300 . S
O319 C326 1.275 . S
Cd320 O319 2.300 . S
Cd320 O328 2.381 . S
Cd320 O329 2.378 . S
O321 Cd322 2.385 . S
O321 C326 1.255 . S
Cd322 O321 2.385 . S
Cd322 O323 2.317 . S
O323 Cd322 2.317 . S
O323 C324 1.232 . S
C324 O323 1.232 . S
C324 O325 1.218 . S
O325 C324 1.218 . S
C326 O319 1.275 . S
C326 O321 1.255 . S
C327 O328 1.258 . S
C327 O329 1.256 . S
O328 Cd320 2.381 . S
O328 C327 1.258 . S
O329 Cd320 2.378 . S
O329 C327 1.256 . S
O330 Cd331 2.300 . S
O330 C337 1.275 . S
Cd331 O330 2.300 . S
Cd331 O339 2.381 . S
Cd331 O340 2.378 . S
O332 Cd333 2.385 . S
O332 C337 1.255 . S
Cd333 O332 2.385 . S
Cd333 O334 2.317 . S
O334 Cd333 2.317 . S
O334 C335 1.232 . S
C335 O334 1.232 . S
C335 O336 1.218 . S
O336 C335 1.218 . S
C337 O330 1.275 . S
C337 O332 1.255 . S
C338 O339 1.258 . S
C338 O340 1.256 . S
O339 Cd331 2.381 . S
O339 C338 1.258 . S
O340 Cd331 2.378 . S
O340 C338 1.256 . S
O341 Cd342 2.300 . S
O341 C348 1.275 . S
Cd342 O341 2.300 . S
Cd342 O350 2.381 . S
Cd342 O351 2.378 . S
O343 Cd344 2.385 . S
O343 C348 1.255 . S
Cd344 O343 2.385 . S
Cd344 O345 2.317 . S
O345 Cd344 2.317 . S
O345 C346 1.232 . S
C346 O345 1.232 . S
C346 O347 1.218 . S
O347 C346 1.218 . S
C348 O341 1.275 . S
C348 O343 1.255 . S
C349 O350 1.258 . S
C349 O351 1.256 . S
O350 Cd342 2.381 . S
O350 C349 1.258 . S
O351 Cd342 2.378 . S
O351 C349 1.256 . S
O352 Cd353 2.300 . S
O352 C359 1.275 . S
Cd353 O352 2.300 . S
Cd353 O361 2.381 . S
Cd353 O362 2.378 . S
O354 Cd355 2.385 . S
O354 C359 1.255 . S
Cd355 O354 2.385 . S
Cd355 O356 2.317 . S
O356 Cd355 2.317 . S
O356 C357 1.232 . S
C357 O356 1.232 . S
C357 O358 1.218 . S
O358 C357 1.218 . S
C359 O352 1.275 . S
C359 O354 1.255 . S
C360 O361 1.258 . S
C360 O362 1.256 . S
O361 Cd353 2.381 . S
O361 C360 1.258 . S
O362 Cd353 2.378 . S
O362 C360 1.256 . S
O363 Cd364 2.300 . S
O363 C370 1.275 . S
Cd364 O363 2.300 . S
Cd364 O372 2.381 . S
Cd364 O373 2.378 . S
O365 Cd366 2.385 . S
O365 C370 1.255 . S
Cd366 O365 2.385 . S
Cd366 O367 2.317 . S
O367 Cd366 2.317 . S
O367 C368 1.232 . S
C368 O367 1.232 . S
C368 O369 1.218 . S
O369 C368 1.218 . S
C370 O363 1.275 . S
C370 O365 1.255 . S
C371 O372 1.258 . S
C371 O373 1.256 . S
O372 Cd364 2.381 . S
O372 C371 1.258 . S
O373 Cd364 2.378 . S
O373 C371 1.256 . S
O374 Cd375 2.300 . S
O374 C381 1.275 . S
Cd375 O374 2.300 . S
Cd375 O383 2.381 . S
Cd375 O384 2.378 . S
O376 Cd377 2.385 . S
O376 C381 1.255 . S
Cd377 O376 2.385 . S
Cd377 O378 2.317 . S
O378 Cd377 2.317 . S
O378 C379 1.232 . S
C379 O378 1.232 . S
C379 O380 1.218 . S
O380 C379 1.218 . S
C381 O374 1.275 . S
C381 O376 1.255 . S
C382 O383 1.258 . S
C382 O384 1.256 . S
O383 Cd375 2.381 . S
O383 C382 1.258 . S
O384 Cd375 2.378 . S
O384 C382 1.256 . S
O385 Cd386 2.300 . S
O385 C392 1.275 . S
Cd386 O385 2.300 . S
Cd386 O394 2.381 . S
Cd386 O395 2.378 . S
O387 Cd388 2.385 . S
O387 C392 1.255 . S
Cd388 O387 2.385 . S
Cd388 O389 2.317 . S
O389 Cd388 2.317 . S
O389 C390 1.232 . S
C390 O389 1.232 . S
C390 O391 1.218 . S
O391 C390 1.218 . S
C392 O385 1.275 . S
C392 O387 1.255 . S
C393 O394 1.258 . S
C393 O395 1.256 . S
O394 Cd386 2.381 . S
O394 C393 1.258 . S
O395 Cd386 2.378 . S
O395 C393 1.256 . S
O396 Cd397 2.300 . S
O396 C403 1.275 . S
Cd397 O396 2.300 . S
Cd397 O405 2.381 . S
Cd397 O406 2.378 . S
O398 Cd399 2.385 . S
O398 C403 1.255 . S
Cd399 O398 2.385 . S
Cd399 O400 2.317 . S
O400 Cd399 2.317 . S
O400 C401 1.232 . S
C401 O400 1.232 . S
C401 O402 1.218 . S
O402 C401 1.218 . S
C403 O396 1.275 . S
C403 O398 1.255 . S
C404 O405 1.258 . S
C404 O406 1.256 . S
O405 Cd397 2.381 . S
O405 C404 1.258 . S
O406 Cd397 2.378 . S
O406 C404 1.256 . S
O407 Cd408 2.300 . S
O407 C414 1.275 . S
Cd408 O407 2.300 . S
Cd408 O416 2.381 . S
Cd408 O417 2.378 . S
O409 Cd410 2.385 . S
O409 C414 1.255 . S
Cd410 O409 2.385 . S
Cd410 O411 2.317 . S
O411 Cd410 2.317 . S
O411 C412 1.232 . S
C412 O411 1.232 . S
C412 O413 1.218 . S
O413 C412 1.218 . S
C414 O407 1.275 . S
C414 O409 1.255 . S
C415 O416 1.258 . S
C415 O417 1.256 . S
O416 Cd408 2.381 . S
O416 C415 1.258 . S
O417 Cd408 2.378 . S
O417 C415 1.256 . S
O418 Cd419 2.300 . S
O418 C425 1.275 . S
Cd419 O418 2.300 . S
Cd419 O427 2.381 . S
Cd419 O428 2.378 . S
O420 Cd421 2.385 . S
O420 C425 1.255 . S
Cd421 O420 2.385 . S
Cd421 O422 2.317 . S
O422 Cd421 2.317 . S
O422 C423 1.232 . S
C423 O422 1.232 . S
C423 O424 1.218 . S
O424 C423 1.218 . S
C425 O418 1.275 . S
C425 O420 1.255 . S
C426 O427 1.258 . S
C426 O428 1.256 . S
O427 Cd419 2.381 . S
O427 C426 1.258 . S
O428 Cd419 2.378 . S
O428 C426 1.256 . S
O429 Cd430 2.300 . S
O429 C436 1.275 . S
Cd430 O429 2.300 . S
Cd430 O438 2.381 . S
Cd430 O439 2.378 . S
O431 Cd432 2.385 . S
O431 C436 1.255 . S
Cd432 O431 2.385 . S
Cd432 O433 2.317 . S
O433 Cd432 2.317 . S
O433 C434 1.232 . S
C434 O433 1.232 . S
C434 O435 1.218 . S
O435 C434 1.218 . S
C436 O429 1.275 . S
C436 O431 1.255 . S
C437 O438 1.258 . S
C437 O439 1.256 . S
O438 Cd430 2.381 . S
O438 C437 1.258 . S
O439 Cd430 2.378 . S
O439 C437 1.256 . S
O440 Cd441 2.300 . S
O440 C447 1.275 . S
Cd441 O440 2.300 . S
Cd441 O449 2.381 . S
Cd441 O450 2.378 . S
O442 Cd443 2.385 . S
O442 C447 1.255 . S
Cd443 O442 2.385 . S
Cd443 O444 2.317 . S
O444 Cd443 2.317 . S
O444 C445 1.232 . S
C445 O444 1.232 . S
C445 O446 1.218 . S
O446 C445 1.218 . S
C447 O440 1.275 . S
C447 O442 1.255 . S
C448 O449 1.258 . S
C448 O450 1.256 . S
O449 Cd441 2.381 . S
O449 C448 1.258 . S
O450 Cd441 2.378 . S
O450 C448 1.256 . S
O451 Cd452 2.300 . S
O451 C458 1.275 . S
Cd452 O451 2.300 . S
Cd452 O460 2.381 . S
Cd452 O461 2.378 . S
O453 Cd454 2.385 . S
O453 C458 1.255 . S
Cd454 O453 2.385 . S
Cd454 O455 2.317 . S
O455 Cd454 2.317 . S
O455 C456 1.232 . S
C456 O455 1.232 . S
C456 O457 1.218 . S
O457 C456 1.218 . S
C458 O451 1.275 . S
C458 O453 1.255 . S
C459 O460 1.258 . S
C459 O461 1.256 . S
O460 Cd452 2.381 . S
O460 C459 1.258 . S
O461 Cd452 2.378 . S
O461 C459 1.256 . S
O462 Cd463 2.300 . S
O462 C469 1.275 . S
Cd463 O462 2.300 . S
Cd463 O471 2.381 . S
Cd463 O472 2.378 . S
O464 Cd465 2.385 . S
O464 C469 1.255 . S
Cd465 O464 2.385 . S
Cd465 O466 2.317 . S
O466 Cd465 2.317 . S
O466 C467 1.232 . S
C467 O466 1.232 . S
C467 O468 1.218 . S
O468 C467 1.218 . S
C469 O462 1.275 . S
C469 O464 1.255 . S
C470 O471 1.258 . S
C470 O472 1.256 . S
O471 Cd463 2.381 . S
O471 C470 1.258 . S
O472 Cd463 2.378 . S
O472 C470 1.256 . S
O473 Cd474 2.300 . S
O473 C480 1.275 . S
Cd474 O473 2.300 . S
Cd474 O482 2.381 . S
Cd474 O483 2.378 . S
O475 Cd476 2.385 . S
O475 C480 1.255 . S
Cd476 O475 2.385 . S
Cd476 O477 2.317 . S
O477 Cd476 2.317 . S
O477 C478 1.232 . S
C478 O477 1.232 . S
C478 O479 1.218 . S
O479 C478 1.218 . S
C480 O473 1.275 . S
C480 O475 1.255 . S
C481 O482 1.258 . S
C481 O483 1.256 . S
O482 Cd474 2.381 . S
O482 C481 1.258 . S
O483 Cd474 2.378 . S
O483 C481 1.256 . S
O484 Cd485 2.300 . S
O484 C491 1.275 . S
Cd485 O484 2.300 . S
Cd485 O493 2.381 . S
Cd485 O494 2.378 . S
O486 Cd487 2.385 . S
O486 C491 1.255 . S
Cd487 O486 2.385 . S
Cd487 O488 2.317 . S
O488 Cd487 2.317 . S
O488 C489 1.232 . S
C489 O488 1.232 . S
C489 O490 1.218 . S
O490 C489 1.218 . S
C491 O484 1.275 . S
C491 O486 1.255 . S
C492 O493 1.258 . S
C492 O494 1.256 . S
O493 Cd485 2.381 . S
O493 C492 1.258 . S
O494 Cd485 2.378 . S
O494 C492 1.256 . S
O495 Cd496 2.300 . S
O495 C502 1.275 . S
Cd496 O495 2.300 . S
Cd496 O504 2.381 . S
Cd496 O505 2.378 . S
O497 Cd498 2.385 . S
O497 C502 1.255 . S
Cd498 O497 2.385 . S
Cd498 O499 2.317 . S
O499 Cd498 2.317 . S
O499 C500 1.232 . S
C500 O499 1.232 . S
C500 O501 1.218 . S
O501 C500 1.218 . S
C502 O495 1.275 . S
C502 O497 1.255 . S
C503 O504 1.258 . S
C503 O505 1.256 . S
O504 Cd496 2.381 . S
O504 C503 1.258 . S
O505 Cd496 2.378 . S
O505 C503 1.256 . S
O506 Cd507 2.300 . S
O506 C513 1.275 . S
Cd507 O506 2.300 . S
Cd507 O515 2.381 . S
Cd507 O516 2.378 . S
O508 Cd509 2.385 . S
O508 C513 1.255 . S
Cd509 O508 2.385 . S
Cd509 O510 2.317 . S
O510 Cd509 2.317 . S
O510 C511 1.232 . S
C511 O510 1.232 . S
C511 O512 1.218 . S
O512 C511 1.218 . S
C513 O506 1.275 . S
C513 O508 1.255 . S
C514 O515 1.258 . S
C514 O516 1.256 . S
O515 Cd507 2.381 . S
O515 C514 1.258 . S
O516 Cd507 2.378 . S
O516 C514 1.256 . S
O517 Cd518 2.300 . S
O517 C524 1.275 . S
Cd518 O517 2.300 . S
Cd518 O526 2.381 . S
Cd518 O527 2.378 . S
O519 Cd520 2.385 . S
O519 C524 1.255 . S
Cd520 O519 2.385 . S
Cd520 O521 2.317 . S
O521 Cd520 2.317 . S
O521 C522 1.232 . S
C522 O521 1.232 . S
C522 O523 1.218 . S
O523 C522 1.218 . S
C524 O517 1.275 . S
C524 O519 1.255 . S
C525 O526 1.258 . S
C525 O527 1.256 . S
O526 Cd518 2.381 . S
O526 C525 1.258 . S
O527 Cd518 2.378 . S
O527 C525 1.256 . S
O528 Cd529 2.300 . S
O528 C535 1.275 . S
Cd529 O528 2.300 . S
Cd529 O537 2.381 . S
Cd529 O538 2.378 . S
O530 Cd531 2.385 . S
O530 C535 1.255 . S
Cd531 O530 2.385 . S
Cd531 O532 2.317 . S
O532 Cd531 2.317 . S
O532 C533 1.232 . S
C533 O532 1.232 . S
C533 O534 1.218 . S
O534 C533 1.218 . S
C535 O528 1.275 . S
C535 O530 1.255 . S
C536 O537 1.258 . S
C536 O538 1.256 . S
O537 Cd529 2.381 . S
O537 C536 1.258 . S
O538 Cd529 2.378 . S
O538 C536 1.256 . S
O539 Cd540 2.300 . S
O539 C546 1.275 . S
Cd540 O539 2.300 . S
Cd540 O548 2.381 . S
Cd540 O549 2.378 . S
O541 Cd542 2.385 . S
O541 C546 1.255 . S
Cd542 O541 2.385 . S
Cd542 O543 2.317 . S
O543 Cd542 2.317 . S
O543 C544 1.232 . S
C544 O543 1.232 . S
C544 O545 1.218 . S
O545 C544 1.218 . S
C546 O539 1.275 . S
C546 O541 1.255 . S
C547 O548 1.258 . S
C547 O549 1.256 . S
O548 Cd540 2.381 . S
O548 C547 1.258 . S
O549 Cd540 2.378 . S
O549 C547 1.256 . S
O550 Cd551 2.300 . S
O550 C557 1.275 . S
Cd551 O550 2.300 . S
Cd551 O559 2.381 . S
Cd551 O560 2.378 . S
O552 Cd553 2.385 . S
O552 C557 1.255 . S
Cd553 O552 2.385 . S
Cd553 O554 2.317 . S
O554 Cd553 2.317 . S
O554 C555 1.232 . S
C555 O554 1.232 . S
C555 O556 1.218 . S
O556 C555 1.218 . S
C557 O550 1.275 . S
C557 O552 1.255 . S
C558 O559 1.258 . S
C558 O560 1.256 . S
O559 Cd551 2.381 . S
O559 C558 1.258 . S
O560 Cd551 2.378 . S
O560 C558 1.256 . S
O561 Cd562 2.300 . S
O561 C568 1.275 . S
Cd562 O561 2.300 . S
Cd562 O570 2.381 . S
Cd562 O571 2.378 . S
O563 Cd564 2.385 . S
O563 C568 1.255 . S
Cd564 O563 2.385 . S
Cd564 O565 2.317 . S
O565 Cd564 2.317 . S
O565 C566 1.232 . S
C566 O565 1.232 . S
C566 O567 1.218 . S
O567 C566 1.218 . S
C568 O561 1.275 . S
C568 O563 1.255 . S
C569 O570 1.258 . S
C569 O571 1.256 . S
O570 Cd562 2.381 . S
O570 C569 1.258 . S
O571 Cd562 2.378 . S
O571 C569 1.256 . S
O572 Cd573 2.300 . S
O572 C579 1.275 . S
Cd573 O572 2.300 . S
Cd573 O581 2.381 . S
Cd573 O582 2.378 . S
O574 Cd575 2.385 . S
O574 C579 1.255 . S
Cd575 O574 2.385 . S
Cd575 O576 2.317 . S
O576 Cd575 2.317 . S
O576 C577 1.232 . S
C577 O576 1.232 . S
C577 O578 1.218 . S
O578 C577 1.218 . S
C579 O572 1.275 . S
C579 O574 1.255 . S
C580 O581 1.258 . S
C580 O582 1.256 . S
O581 Cd573 2.381 . S
O581 C580 1.258 . S
O582 Cd573 2.378 . S
O582 C580 1.256 . S
O583 Cd584 2.300 . S
O583 C590 1.275 . S
Cd584 O583 2.300 . S
Cd584 O592 2.381 . S
Cd584 O593 2.378 . S
O585 Cd586 2.385 . S
O585 C590 1.255 . S
Cd586 O585 2.385 . S
Cd586 O587 2.317 . S
O587 Cd586 2.317 . S
O587 C588 1.232 . S
C588 O587 1.232 . S
C588 O589 1.218 . S
O589 C588 1.218 . S
C590 O583 1.275 . S
C590 O585 1.255 . S
C591 O592 1.258 . S
C591 O593 1.256 . S
O592 Cd584 2.381 . S
O592 C591 1.258 . S
O593 Cd584 2.378 . S
O593 C591 1.256 . S
O594 Cd595 2.300 . S
O594 C601 1.275 . S
Cd595 O594 2.300 . S
Cd595 O603 2.381 . S
Cd595 O604 2.378 . S
O596 Cd597 2.385 . S
O596 C601 1.255 . S
Cd597 O596 2.385 . S
Cd597 O598 2.317 . S
O598 Cd597 2.317 . S
O598 C599 1.232 . S
C599 O598 1.232 . S
C599 O600 1.218 . S
O600 C599 1.218 . S
C601 O594 1.275 . S
C601 O596 1.255 . S
C602 O603 1.258 . S
C602 O604 1.256 . S
O603 Cd595 2.381 . S
O603 C602 1.258 . S
O604 Cd595 2.378 . S
O604 C602 1.256 . S
O605 Cd606 2.300 . S
O605 C612 1.275 . S
Cd606 O605 2.300 . S
Cd606 O614 2.381 . S
Cd606 O615 2.378 . S
O607 Cd608 2.385 . S
O607 C612 1.255 . S
Cd608 O607 2.385 . S
Cd608 O609 2.317 . S
O609 Cd608 2.317 . S
O609 C610 1.232 . S
C610 O609 1.232 . S
C610 O611 1.218 . S
O611 C610 1.218 . S
C612 O605 1.275 . S
C612 O607 1.255 . S
C613 O614 1.258 . S
C613 O615 1.256 . S
O614 Cd606 2.381 . S
O614 C613 1.258 . S
O615 Cd606 2.378 . S
O615 C613 1.256 . S
O616 Cd617 2.300 . S
O616 C623 1.275 . S
Cd617 O616 2.300 . S
Cd617 O625 2.381 . S
Cd617 O626 2.378 . S
O618 Cd619 2.385 . S
O618 C623 1.255 . S
Cd619 O618 2.385 . S
Cd619 O620 2.317 . S
O620 Cd619 2.317 . S
O620 C621 1.232 . S
C621 O620 1.232 . S
C621 O622 1.218 . S
O622 C621 1.218 . S
C623 O616 1.275 . S
C623 O618 1.255 . S
C624 O625 1.258 . S
C624 O626 1.256 . S
O625 Cd617 2.381 . S
O625 C624 1.258 . S
O626 Cd617 2.378 . S
O626 C624 1.256 . S
O627 Cd628 2.300 . S
O627 C634 1.275 . S
Cd628 O627 2.300 . S
Cd628 O636 2.381 . S
Cd628 O637 2.378 . S
O629 Cd630 2.385 . S
O629 C634 1.255 . S
Cd630 O629 2.385 . S
Cd630 O631 2.317 . S
O631 Cd630 2.317 . S
O631 C632 1.232 . S
C632 O631 1.232 . S
C632 O633 1.218 . S
O633 C632 1.218 . S
C634 O627 1.275 . S
C634 O629 1.255 . S
C635 O636 1.258 . S
C635 O637 1.256 . S
O636 Cd628 2.381 . S
O636 C635 1.258 . S
O637 Cd628 2.378 . S
O637 C635 1.256 . S
O638 Cd639 2.300 . S
O638 C645 1.275 . S
Cd639 O638 2.300 . S
Cd639 O647 2.381 . S
Cd639 O648 2.378 . S
O640 Cd641 2.385 . S
O640 C645 1.255 . S
Cd641 O640 2.385 . S
Cd641 O642 2.317 . S
O642 Cd641 2.317 . S
O642 C643 1.232 . S
C643 O642 1.232 . S
C643 O644 1.218 . S
O644 C643 1.218 . S
C645 O638 1.275 . S
C645 O640 1.255 . S
C646 O647 1.258 . S
C646 O648 1.256 . S
O647 Cd639 2.381 . S
O647 C646 1.258 . S
O648 Cd639 2.378 . S
O648 C646 1.256 . S
O649 Cd650 2.300 . S
O649 C656 1.275 . S
Cd650 O649 2.300 . S
Cd650 O658 2.381 . S
Cd650 O659 2.378 . S
O651 Cd652 2.385 . S
O651 C656 1.255 . S
Cd652 O651 2.385 . S
Cd652 O653 2.317 . S
O653 Cd652 2.317 . S
O653 C654 1.232 . S
C654 O653 1.232 . S
C654 O655 1.218 . S
O655 C654 1.218 . S
C656 O649 1.275 . S
C656 O651 1.255 . S
C657 O658 1.258 . S
C657 O659 1.256 . S
O658 Cd650 2.381 . S
O658 C657 1.258 . S
O659 Cd650 2.378 . S
O659 C657 1.256 . S
O660 Cd661 2.300 . S
O660 C667 1.275 . S
Cd661 O660 2.300 . S
Cd661 O669 2.381 . S
Cd661 O670 2.378 . S
O662 Cd663 2.385 . S
O662 C667 1.255 . S
Cd663 O662 2.385 . S
Cd663 O664 2.317 . S
O664 Cd663 2.317 . S
O664 C665 1.232 . S
C665 O664 1.232 . S
C665 O666 1.218 . S
O666 C665 1.218 . S
C667 O660 1.275 . S
C667 O662 1.255 . S
C668 O669 1.258 . S
C668 O670 1.256 . S
O669 Cd661 2.381 . S
O669 C668 1.258 . S
O670 Cd661 2.378 . S
O670 C668 1.256 . S
O671 Cd672 2.300 . S
O671 C678 1.275 . S
Cd672 O671 2.300 . S
Cd672 O680 2.381 . S
Cd672 O681 2.378 . S
O673 Cd674 2.385 . S
O673 C678 1.255 . S
Cd674 O673 2.385 . S
Cd674 O675 2.317 . S
O675 Cd674 2.317 . S
O675 C676 1.232 . S
C676 O675 1.232 . S
C676 O677 1.218 . S
O677 C676 1.218 . S
C678 O671 1.275 . S
C678 O673 1.255 . S
C679 O680 1.258 . S
C679 O681 1.256 . S
O680 Cd672 2.381 . S
O680 C679 1.258 . S
O681 Cd672 2.378 . S
O681 C679 1.256 . S
O682 Cd683 2.300 . S
O682 C689 1.275 . S
Cd683 O682 2.300 . S
Cd683 O691 2.381 . S
Cd683 O692 2.378 . S
O684 Cd685 2.385 . S
O684 C689 1.255 . S
Cd685 O684 2.385 . S
Cd685 O686 2.317 . S
O686 Cd685 2.317 . S
O686 C687 1.232 . S
C687 O686 1.232 . S
C687 O688 1.218 . S
O688 C687 1.218 . S
C689 O682 1.275 . S
C689 O684 1.255 . S
C690 O691 1.258 . S
C690 O692 1.256 . S
O691 Cd683 2.381 . S
O691 C690 1.258 . S
O692 Cd683 2.378 . S
O692 C690 1.256 . S
O693 Cd694 2.300 . S
O693 C700 1.275 . S
Cd694 O693 2.300 . S
Cd694 O702 2.381 . S
Cd694 O703 2.378 . S
O695 Cd696 2.385 . S
O695 C700 1.255 . S
Cd696 O695 2.385 . S
Cd696 O697 2.317 . S
O697 Cd696 2.317 . S
O697 C698 1.232 . S
C698 O697 1.232 . S
C698 O699 1.218 . S
O699 C698 1.218 . S
C700 O693 1.275 . S
C700 O695 1.255 . S
C701 O702 1.258 . S
C701 O703 1.256 . S
O702 Cd694 2.381 . S
O702 C701 1.258 . S
O703 Cd694 2.378 . S
O703 C701 1.256 . S
O704 Cd705 2.300 . S
O704 C711 1.275 . S
Cd705 O704 2.300 . S
Cd705 O713 2.381 . S
Cd705 O714 2.378 . S
O706 Cd707 2.385 . S
O706 C711 1.255 . S
Cd707 O706 2.385 . S
Cd707 O708 2.317 . S
O708 Cd707 2.317 . S
O708 C709 1.232 . S
C709 O708 1.232 . S
C709 O710 1.218 . S
O710 C709 1.218 . S
C711 O704 1.275 . S
C711 O706 1.255 . S
C712 O713 1.258 . S
C712 O714 1.256 . S
O713 Cd705 2.381 . S
O713 C712 1.258 . S
O714 Cd705 2.378 . S
O714 C712 1.256 . S
O715 Cd716 2.300 . S
O715 C722 1.275 . S
Cd716 O715 2.300 . S
Cd716 O724 2.381 . S
Cd716 O725 2.378 . S
O717 Cd718 2.385 . S
O717 C722 1.255 . S
Cd718 O717 2.385 . S
Cd718 O719 2.317 . S
O719 Cd718 2.317 . S
O719 C720 1.232 . S
C720 O719 1.232 . S
C720 O721 1.218 . S
O721 C720 1.218 . S
C722 O715 1.275 . S
C722 O717 1.255 . S
C723 O724 1.258 . S
C723 O725 1.256 . S
O724 Cd716 2.381 . S
O724 C723 1.258 . S
O725 Cd716 2.378 . S
O725 C723 1.256 . S
O726 Cd727 2.300 . S
O726 C733 1.275 . S
Cd727 O726 2.300 . S
Cd727 O735 2.381 . S
Cd727 O736 2.378 . S
O728 Cd729 2.385 . S
O728 C733 1.255 . S
Cd729 O728 2.385 . S
Cd729 O730 2.317 . S
O730 Cd729 2.317 . S
O730 C731 1.232 . S
C731 O730 1.232 . S
C731 O732 1.218 . S
O732 C731 1.218 . S
C733 O726 1.275 . S
C733 O728 1.255 . S
C734 O735 1.258 . S
C734 O736 1.256 . S
O735 Cd727 2.381 . S
O735 C734 1.258 . S
O736 Cd727 2.378 . S
O736 C734 1.256 . S
O737 Cd738 2.300 . S
O737 C744 1.275 . S
Cd738 O737 2.300 . S
Cd738 O746 2.381 . S
Cd738 O747 2.378 . S
O739 Cd740 2.385 . S
O739 C744 1.255 . S
Cd740 O739 2.385 . S
Cd740 O741 2.317 . S
O741 Cd740 2.317 . S
O741 C742 1.232 . S
C742 O741 1.232 . S
C742 O743 1.218 . S
O743 C742 1.218 . S
C744 O737 1.275 . S
C744 O739 1.255 . S
C745 O746 1.258 . S
C745 O747 1.256 . S
O746 Cd738 2.381 . S
O746 C745 1.258 . S
O747 Cd738 2.378 . S
O747 C745 1.256 . S
O748 Cd749 2.300 . S
O748 C755 1.275 . S
Cd749 O748 2.300 . S
Cd749 O757 2.381 . S
Cd749 O758 2.378 . S
O750 Cd751 2.385 . S
O750 C755 1.255 . S
Cd751 O750 2.385 . S
Cd751 O752 2.317 . S
O752 Cd751 2.317 . S
O752 C753 1.232 . S
C753 O752 1.232 . S
C753 O754 1.218 . S
O754 C753 1.218 . S
C755 O748 1.275 . S
C755 O750 1.255 . S
C756 O757 1.258 . S
C756 O758 1.256 . S
O757 Cd749 2.381 . S
O757 C756 1.258 . S
O758 Cd749 2.378 . S
O758 C756 1.256 . S
O759 Cd760 2.300 . S
O759 C766 1.275 . S
Cd760 O759 2.300 . S
Cd760 O768 2.381 . S
Cd760 O769 2.378 . S
O761 Cd762 2.385 . S
O761 C766 1.255 . S
Cd762 O761 2.385 . S
Cd762 O763 2.317 . S
O763 Cd762 2.317 . S
O763 C764 1.232 . S
C764 O763 1.232 . S
C764 O765 1.218 . S
O765 C764 1.218 . S
C766 O759 1.275 . S
C766 O761 1.255 . S
C767 O768 1.258 . S
C767 O769 1.256 . S
O768 Cd760 2.381 . S
O768 C767 1.258 . S
O769 Cd760 2.378 . S
O769 C767 1.256 . S
O770 Cd771 2.300 . S
O770 C777 1.275 . S
Cd771 O770 2.300 . S
Cd771 O779 2.381 . S
Cd771 O780 2.378 . S
O772 Cd773 2.385 . S
O772 C777 1.255 . S
Cd773 O772 2.385 . S
Cd773 O774 2.317 . S
O774 Cd773 2.317 . S
O774 C775 1.232 . S
C775 O774 1.232 . S
C775 O776 1.218 . S
O776 C775 1.218 . S
C777 O770 1.275 . S
C777 O772 1.255 . S
C778 O779 1.258 . S
C778 O780 1.256 . S
O779 Cd771 2.381 . S
O779 C778 1.258 . S
O780 Cd771 2.378 . S
O780 C778 1.256 . S
O781 Cd782 2.300 . S
O781 C788 1.275 . S
Cd782 O781 2.300 . S
Cd782 O790 2.381 . S
Cd782 O791 2.378 . S
O783 Cd784 2.385 . S
O783 C788 1.255 . S
Cd784 O783 2.385 . S
Cd784 O785 2.317 . S
O785 Cd784 2.317 . S
O785 C786 1.232 . S
C786 O785 1.232 . S
C786 O787 1.218 . S
O787 C786 1.218 . S
C788 O781 1.275 . S
C788 O783 1.255 . S
C789 O790 1.258 . S
C789 O791 1.256 . S
O790 Cd782 2.381 . S
O790 C789 1.258 . S
O791 Cd782 2.378 . S
O791 C789 1.256 . S
O792 Cd793 2.300 . S
O792 C799 1.275 . S
Cd793 O792 2.300 . S
Cd793 O801 2.381 . S
Cd793 O802 2.378 . S
O794 Cd795 2.385 . S
O794 C799 1.255 . S
Cd795 O794 2.385 . S
Cd795 O796 2.317 . S
O796 Cd795 2.317 . S
O796 C797 1.232 . S
C797 O796 1.232 . S
C797 O798 1.218 . S
O798 C797 1.218 . S
C799 O792 1.275 . S
C799 O794 1.255 . S
C800 O801 1.258 . S
C800 O802 1.256 . S
O801 Cd793 2.381 . S
O801 C800 1.258 . S
O802 Cd793 2.378 . S
O802 C800 1.256 . S
O803 Cd804 2.300 . S
O803 C810 1.275 . S
Cd804 O803 2.300 . S
Cd804 O812 2.381 . S
Cd804 O813 2.378 . S
O805 Cd806 2.385 . S
O805 C810 1.255 . S
Cd806 O805 2.385 . S
Cd806 O807 2.317 . S
O807 Cd806 2.317 . S
O807 C808 1.232 . S
C808 O807 1.232 . S
C808 O809 1.218 . S
O809 C808 1.218 . S
C810 O803 1.275 . S
C810 O805 1.255 . S
C811 O812 1.258 . S
C811 O813 1.256 . S
O812 Cd804 2.381 . S
O812 C811 1.258 . S
O813 Cd804 2.378 . S
O813 C811 1.256 . S
O814 Cd815 2.300 . S
O814 C821 1.275 . S
Cd815 O814 2.300 . S
Cd815 O823 2.381 . S
Cd815 O824 2.378 . S
O816 Cd817 2.385 . S
O816 C821 1.255 . S
Cd817 O816 2.385 . S
Cd817 O818 2.317 . S
O818 Cd817 2.317 . S
O818 C819 1.232 . S
C819 O818 1.232 . S
C819 O820 1.218 . S
O820 C819 1.218 . S
C821 O814 1.275 . S
C821 O816 1.255 . S
C822 O823 1.258 . S
C822 O824 1.256 . S
O823 Cd815 2.381 . S
O823 C822 1.258 . S
O824 Cd815 2.378 . S
O824 C822 1.256 . S
O825 Cd826 2.300 . S
O825 C832 1.275 . S
Cd826 O825 2.300 . S
Cd826 O834 2.381 . S
Cd826 O835 2.378 . S
O827 Cd828 2.385 . S
O827 C832 1.255 . S
Cd828 O827 2.385 . S
Cd828 O829 2.317 . S
O829 Cd828 2.317 . S
O829 C830 1.232 . S
C830 O829 1.232 . S
C830 O831 1.218 . S
O831 C830 1.218 . S
C832 O825 1.275 . S
C832 O827 1.255 . S
C833 O834 1.258 . S
C833 O835 1.256 . S
O834 Cd826 2.381 . S
O834 C833 1.258 . S
O835 Cd826 2.378 . S
O835 C833 1.256 . S
O836 Cd837 2.300 . S
O836 C843 1.275 . S
Cd837 O836 2.300 . S
Cd837 O845 2.381 . S
Cd837 O846 2.378 . S
O838 Cd839 2.385 . S
O838 C843 1.255 . S
Cd839 O838 2.385 . S
Cd839 O840 2.317 . S
O840 Cd839 2.317 . S
O840 C841 1.232 . S
C841 O840 1.232 . S
C841 O842 1.218 . S
O842 C841 1.218 . S
C843 O836 1.275 . S
C843 O838 1.255 . S
C844 O845 1.258 . S
C844 O846 1.256 . S
O845 Cd837 2.381 . S
O845 C844 1.258 . S
O846 Cd837 2.378 . S
O846 C844 1.256 . S
O847 Cd848 2.300 . S
O847 C854 1.275 . S
Cd848 O847 2.300 . S
Cd848 O856 2.381 . S
Cd848 O857 2.378 . S
O849 Cd850 2.385 . S
O849 C854 1.255 . S
Cd850 O849 2.385 . S
Cd850 O851 2.317 . S
O851 Cd850 2.317 . S
O851 C852 1.232 . S
C852 O851 1.232 . S
C852 O853 1.218 . S
O853 C852 1.218 . S
C854 O847 1.275 . S
C854 O849 1.255 . S
C855 O856 1.258 . S
C855 O857 1.256 . S
O856 Cd848 2.381 . S
O856 C855 1.258 . S
O857 Cd848 2.378 . S
O857 C855 1.256 . S
O858 Cd859 2.300 . S
O858 C865 1.275 . S
Cd859 O858 2.300 . S
Cd859 O867 2.381 . S
Cd859 O868 2.378 . S
O860 Cd861 2.385 . S
O860 C865 1.255 . S
Cd861 O860 2.385 . S
Cd861 O862 2.317 . S
O862 Cd861 2.317 . S
O862 C863 1.232 . S
C863 O862 1.232 . S
C863 O864 1.218 . S
O864 C863 1.218 . S
C865 O858 1.275 . S
C865 O860 1.255 . S
C866 O867 1.258 . S
C866 O868 1.256 . S
O867 Cd859 2.381 . S
O867 C866 1.258 . S
O868 Cd859 2.378 . S
O868 C866 1.256 . S
O869 Cd870 2.300 . S
O869 C876 1.275 . S
Cd870 O869 2.300 . S
Cd870 O878 2.381 . S
Cd870 O879 2.378 . S
O871 Cd872 2.385 . S
O871 C876 1.255 . S
Cd872 O871 2.385 . S
Cd872 O873 2.317 . S
O873 Cd872 2.317 . S
O873 C874 1.232 . S
C874 O873 1.232 . S
C874 O875 1.218 . S
O875 C874 1.218 . S
C876 O869 1.275 . S
C876 O871 1.255 . S
C877 O878 1.258 . S
C877 O879 1.256 . S
O878 Cd870 2.381 . S
O878 C877 1.258 . S
O879 Cd870 2.378 . S
O879 C877 1.256 . S
O880 Cd881 2.300 . S
O880 C887 1.275 . S
Cd881 O880 2.300 . S
Cd881 O889 2.381 . S
Cd881 O890 2.378 . S
O882 Cd883 2.385 . S
O882 C887 1.255 . S
Cd883 O882 2.385 . S
Cd883 O884 2.317 . S
O884 Cd883 2.317 . S
O884 C885 1.232 . S
C885 O884 1.232 . S
C885 O886 1.218 . S
O886 C885 1.218 . S
C887 O880 1.275 . S
C887 O882 1.255 . S
C888 O889 1.258 . S
C888 O890 1.256 . S
O889 Cd881 2.381 . S
O889 C888 1.258 . S
O890 Cd881 2.378 . S
O890 C888 1.256 . S
O891 Cd892 2.300 . S
O891 C898 1.275 . S
Cd892 O891 2.300 . S
Cd892 O900 2.381 . S
Cd892 O901 2.378 . S
O893 Cd894 2.385 . S
O893 C898 1.255 . S
Cd894 O893 2.385 . S
Cd894 O895 2.317 . S
O895 Cd894 2.317 . S
O895 C896 1.232 . S
C896 O895 1.232 . S
C896 O897 1.218 . S
O897 C896 1.218 . S
C898 O891 1.275 . S
C898 O893 1.255 . S
C899 O900 1.258 . S
C899 O901 1.256 . S
O900 Cd892 2.381 . S
O900 C899 1.258 . S
O901 Cd892 2.378 . S
O901 C899 1.256 . S
O902 Cd903 2.300 . S
O902 C909 1.275 . S
Cd903 O902 2.300 . S
Cd903 O911 2.381 . S
Cd903 O912 2.378 . S
O904 Cd905 2.385 . S
O904 C909 1.255 . S
Cd905 O904 2.385 . S
Cd905 O906 2.317 . S
O906 Cd905 2.317 . S
O906 C907 1.232 . S
C907 O906 1.232 . S
C907 O908 1.218 . S
O908 C907 1.218 . S
C909 O902 1.275 . S
C909 O904 1.255 . S
C910 O911 1.258 . S
C910 O912 1.256 . S
O911 Cd903 2.381 . S
O911 C910 1.258 . S
O912 Cd903 2.378 . S
O912 C910 1.256 . S
O913 Cd914 2.300 . S
O913 C920 1.275 . S
Cd914 O913 2.300 . S
Cd914 O922 2.381 . S
Cd914 O923 2.378 . S
O915 Cd916 2.385 . S
O915 C920 1.255 . S
Cd916 O915 2.385 . S
Cd916 O917 2.317 . S
O917 Cd916 2.317 . S
O917 C918 1.232 . S
C918 O917 1.232 . S
C918 O919 1.218 . S
O919 C918 1.218 . S
C920 O913 1.275 . S
C920 O915 1.255 . S
C921 O922 1.258 . S
C921 O923 1.256 . S
O922 Cd914 2.381 . S
O922 C921 1.258 . S
O923 Cd914 2.378 . S
O923 C921 1.256 . S
O924 Cd925 2.300 . S
O924 C931 1.275 . S
Cd925 O924 2.300 . S
Cd925 O933 2.381 . S
Cd925 O934 2.378 . S
O926 Cd927 2.385 . S
O926 C931 1.255 . S
Cd927 O926 2.385 . S
Cd927 O928 2.317 . S
O928 Cd927 2.317 . S
O928 C929 1.232 . S
C929 O928 1.232 . S
C929 O930 1.218 . S
O930 C929 1.218 . S
C931 O924 1.275 . S
C931 O926 1.255 . S
C932 O933 1.258 . S
C932 O934 1.256 . S
O933 Cd925 2.381 . S
O933 C932 1.258 . S
O934 Cd925 2.378 . S
O934 C932 1.256 . S
O935 Cd936 2.300 . S
O935 C942 1.275 . S
Cd936 O935 2.300 . S
Cd936 O944 2.381 . S
Cd936 O945 2.378 . S
O937 Cd938 2.385 . S
O937 C942 1.255 . S
Cd938 O937 2.385 . S
Cd938 O939 2.317 . S
O939 Cd938 2.317 . S
O939 C940 1.232 . S
C940 O939 1.232 . S
C940 O941 1.218 . S
O941 C940 1.218 . S
C942 O935 1.275 . S
C942 O937 1.255 . S
C943 O944 1.258 . S
C943 O945 1.256 . S
O944 Cd936 2.381 . S
O944 C943 1.258 . S
O945 Cd936 2.378 . S
O945 C943 1.256 . S
O946 Cd947 2.300 . S
O946 C953 1.275 . S
Cd947 O946 2.300 . S
Cd947 O955 2.381 . S
Cd947 O956 2.378 . S
O948 Cd949 2.385 . S
O948 C953 1.255 . S
Cd949 O948 2.385 . S
Cd949 O950 2.317 . S
O950 Cd949 2.317 . S
O950 C951 1.232 . S
C951 O950 1.232 . S
C951 O952 1.218 . S
O952 C951 1.218 . S
C953 O946 1.275 . S
C953 O948 1.255 . S
C954 O955 1.258 . S
C954 O956 1.256 . S
O955 Cd947 2.381 . S
O955 C954 1.258 . S
O956 Cd947 2.378 . S
O956 C954 1.256 . S
O957 Cd958 2.300 . S
O957 C964 1.275 . S
Cd958 O957 2.300 . S
Cd958 O966 2.381 . S
Cd958 O967 2.378 . S
O959 Cd960 2.385 . S
O959 C964 1.255 . S
Cd960 O959 2.385 . S
Cd960 O961 2.317 . S
O961 Cd960 2.317 . S
O961 C962 1.232 . S
C962 O961 1.232 . S
C962 O963 1.218 . S
O963 C962 1.218 . S
C964 O957 1.275 . S
C964 O959 1.255 . S
C965 O966 1.258 . S
C965 O967 1.256 . S
O966 Cd958 2.381 . S
O966 C965 1.258 . S
O967 Cd958 2.378 . S
O967 C965 1.256 . S
O968 Cd969 2.300 . S
O968 C975 1.275 . S
Cd969 O968 2.300 . S
Cd969 O977 2.381 . S
Cd969 O978 2.378 . S
O970 Cd971 2.385 . S
O970 C975 1.255 . S
Cd971 O970 2.385 . S
Cd971 O972 2.317 . S
O972 Cd971 2.317 . S
O972 C973 1.232 . S
C973 O972 1.232 . S
C973 O974 1.218 . S
O974 C973 1.218 . S
C975 O968 1.275 . S
C975 O970 1.255 . S
C976 O977 1.258 . S
C976 O978 1.256 . S
O977 Cd969 2.381 . S
O977 C976 1.258 . S
O978 Cd969 2.378 . S
O978 C976 1.256 . S
O979 Cd980 2.300 . S
O979 C986 1.275 . S
Cd980 O979 2.300 . S
Cd980 O988 2.381 . S
Cd980 O989 2.378 . S
O981 Cd982 2.385 . S
O981 C986 1.255 . S
Cd982 O981 2.385 . S
Cd982 O983 2.317 . S
O983 Cd982 2.317 . S
O983 C984 1.232 . S
C984 O983 1.232 . S
C984 O985 1.218 . S
O985 C984 1.218 . S
C986 O979 1.275 . S
C986 O981 1.255 . S
C987 O988 1.258 . S
C987 O989 1.256 . S
O988 Cd980 2.381 . S
O988 C987 1.258 . S
O989 Cd980 2.378 . S
O989 C987 1.256 . S
O990 Cd991 2.300 . S
O990 C997 1.275 . S
Cd991 O990 2.300 . S
Cd991 O999 2.381 . S
Cd991 O1000 2.378 . S
O992 Cd993 2.385 . S
O992 C997 1.255 . S
Cd993 O992 2.385 . S
Cd993 O994 2.317 . S
O994 Cd993 2.317 . S
O994 C995 1.232 . S
C995 O994 1.232 . S
C995 O996 1.218 . S
O996 C995 1.218 . S
C997 O990 1.275 . S
C997 O992 1.255 . S
C998 O999 1.258 . S
C998 O1000 1.256 . S
O999 Cd991 2.381 . S
O999 C998 1.258 . S
O1000 Cd991 2.378 . S
O1000 C998 1.256 . S
O1001 Cd1002 2.300 . S
O1001 C1008 1.275 . S
Cd1002 O1001 2.300 . S
Cd1002 O1010 2.381 . S
Cd1002 O1011 2.378 . S
O1003 Cd1004 2.385 . S
O1003 C1008 1.255 . S
Cd1004 O1003 2.385 . S
Cd1004 O1005 2.317 . S
O1005 Cd1004 2.317 . S
O1005 C1006 1.232 . S
C1006 O1005 1.232 . S
C1006 O1007 1.218 . S
O1007 C1006 1.218 . S
C1008 O1001 1.275 . S
C1008 O1003 1.255 . S
C1009 O1010 1.258 . S
C1009 O1011 1.256 . S
O1010 Cd1002 2.381 . S
O1010 C1009 1.258 . S
O1011 Cd1002 2.378 . S
O1011 C1009 1.256 . S
O1012 Cd1013 2.300 . S
O1012 C1019 1.275 . S
Cd1013 O1012 2.300 . S
Cd1013 O1021 2.381 . S
Cd1013 O1022 2.378 . S
O1014 Cd1015 2.385 . S
O1014 C1019 1.255 . S
Cd1015 O1014 2.385 . S
Cd1015 O1016 2.317 . S
O1016 Cd1015 2.317 . S
O1016 C1017 1.232 . S
C1017 O1016 1.232 . S
C1017 O1018 1.218 . S
O1018 C1017 1.218 . S
C1019 O1012 1.275 . S
C1019 O1014 1.255 . S
C1020 O1021 1.258 . S
C1020 O1022 1.256 . S
O1021 Cd1013 2.381 . S
O1021 C1020 1.258 . S
O1022 Cd1013 2.378 . S
O1022 C1020 1.256 . S
O1023 Cd1024 2.300 . S
O1023 C1030 1.275 . S
Cd1024 O1023 2.300 . S
Cd1024 O1032 2.381 . S
Cd1024 O1033 2.378 . S
O1025 Cd1026 2.385 . S
O1025 C1030 1.255 . S
Cd1026 O1025 2.385 . S
Cd1026 O1027 2.317 . S
O1027 Cd1026 2.317 . S
O1027 C1028 1.232 . S
C1028 O1027 1.232 . S
C1028 O1029 1.218 . S
O1029 C1028 1.218 . S
C1030 O1023 1.275 . S
C1030 O1025 1.255 . S
C1031 O1032 1.258 . S
C1031 O1033 1.256 . S
O1032 Cd1024 2.381 . S
O1032 C1031 1.258 . S
O1033 Cd1024 2.378 . S
O1033 C1031 1.256 . S
O1034 Cd1035 2.300 . S
O1034 C1041 1.275 . S
Cd1035 O1034 2.300 . S
Cd1035 O1043 2.381 . S
Cd1035 O1044 2.378 . S
O1036 Cd1037 2.385 . S
O1036 C1041 1.255 . S
Cd1037 O1036 2.385 . S
Cd1037 O1038 2.317 . S
O1038 Cd1037 2.317 . S
O1038 C1039 1.232 . S
C1039 O1038 1.232 . S
C1039 O1040 1.218 . S
O1040 C1039 1.218 . S
C1041 O1034 1.275 . S
C1041 O1036 1.255 . S
C1042 O1043 1.258 . S
C1042 O1044 1.256 . S
O1043 Cd1035 2.381 . S
O1043 C1042 1.258 . S
O1044 Cd1035 2.378 . S
O1044 C1042 1.256 . S
O1045 Cd1046 2.300 . S
O1045 C1052 1.275 . S
Cd1046 O1045 2.300 . S
Cd1046 O1054 2.381 . S
Cd1046 O1055 2.378 . S
O1047 Cd1048 2.385 . S
O1047 C1052 1.255 . S
Cd1048 O1047 2.385 . S
Cd1048 O1049 2.317 . S
O1049 Cd1048 2.317 . S
O1049 C1050 1.232 . S
C1050 O1049 1.232 . S
C1050 O1051 1.218 . S
O1051 C1050 1.218 . S
C1052 O1045 1.275 . S
C1052 O1047 1.255 . S
C1053 O1054 1.258 . S
C1053 O1055 1.256 . S
O1054 Cd1046 2.381 . S
O1054 C1053 1.258 . S
O1055 Cd1046 2.378 . S
O1055 C1053 1.256 . S
C1056 C1057 1.349 . S
C1056 C1058 1.327 . S
C1056 H1081 0.950 . S
C1057 C1056 1.349 . S
C1057 C1073 1.349 . S
C1058 C1056 1.327 . S
C1058 C1077 1.429 . S
C1058 H1082 0.950 . S
C1059 C1076 1.574 . S
C1059 C1078 1.368 . S
C1059 H1083 0.949 . S
H1060 C1064 0.949 . S
C1061 C1062 1.349 . S
C1061 C1063 1.327 . S
C1061 H1084 0.950 . S
C1062 C1061 1.349 . S
C1062 C1074 1.349 . S
C1063 C1061 1.327 . S
C1063 C1079 1.429 . S
C1063 H1085 0.950 . S
C1064 H1060 0.949 . S
C1064 C1072 1.574 . S
C1064 C1080 1.368 . S
H1065 C1073 0.950 . S
H1066 C1071 0.950 . S
H1067 C1072 0.949 . S
H1068 C1074 0.950 . S
H1069 C1075 0.950 . S
H1070 C1076 0.949 . S
C1071 H1066 0.950 . S
C1071 C1073 1.327 . S
C1071 C1077 1.429 . S
C1072 C1064 1.574 . S
C1072 H1067 0.949 . S
C1072 C1078 1.368 . S
C1073 C1057 1.349 . S
C1073 H1065 0.950 . S
C1073 C1071 1.327 . S
C1074 C1062 1.349 . S
C1074 H1068 0.950 . S
C1074 C1075 1.327 . S
C1075 H1069 0.950 . S
C1075 C1074 1.327 . S
C1075 C1079 1.429 . S
C1076 C1059 1.574 . S
C1076 H1070 0.949 . S
C1076 C1080 1.368 . S
C1077 C1058 1.429 . S
C1077 C1071 1.429 . S
C1077 C1078 1.523 . S
C1078 C1059 1.368 . S
C1078 C1072 1.368 . S
C1078 C1077 1.523 . S
C1079 C1063 1.429 . S
C1079 C1075 1.429 . S
C1079 C1080 1.523 . S
C1080 C1064 1.368 . S
C1080 C1076 1.368 . S
C1080 C1079 1.523 . S
H1081 C1056 0.950 . S
H1082 C1058 0.950 . S
H1083 C1059 0.949 . S
H1084 C1061 0.950 . S
H1085 C1063 0.950 . S
C1086 C1087 1.349 . S
C1086 C1088 1.327 . S
C1086 H1111 0.950 . S
C1087 C1086 1.349 . S
C1087 C1103 1.349 . S
C1088 C1086 1.327 . S
C1088 C1107 1.429 . S
C1088 H1112 0.950 . S
C1089 C1106 1.574 . S
C1089 C1108 1.368 . S
C1089 H1113 0.949 . S
H1090 C1094 0.949 . S
C1091 C1092 1.349 . S
C1091 C1093 1.327 . S
C1091 H1114 0.950 . S
C1092 C1091 1.349 . S
C1092 C1104 1.349 . S
C1093 C1091 1.327 . S
C1093 C1109 1.429 . S
C1093 H1115 0.950 . S
C1094 H1090 0.949 . S
C1094 C1102 1.574 . S
C1094 C1110 1.368 . S
H1095 C1103 0.950 . S
H1096 C1101 0.950 . S
H1097 C1102 0.949 . S
H1098 C1104 0.950 . S
H1099 C1105 0.950 . S
H1100 C1106 0.949 . S
C1101 H1096 0.950 . S
C1101 C1103 1.327 . S
C1101 C1107 1.429 . S
C1102 C1094 1.574 . S
C1102 H1097 0.949 . S
C1102 C1108 1.368 . S
C1103 C1087 1.349 . S
C1103 H1095 0.950 . S
C1103 C1101 1.327 . S
C1104 C1092 1.349 . S
C1104 H1098 0.950 . S
C1104 C1105 1.327 . S
C1105 H1099 0.950 . S
C1105 C1104 1.327 . S
C1105 C1109 1.429 . S
C1106 C1089 1.574 . S
C1106 H1100 0.949 . S
C1106 C1110 1.368 . S
C1107 C1088 1.429 . S
C1107 C1101 1.429 . S
C1107 C1108 1.523 1_455 S
C1108 C1089 1.368 . S
C1108 C1102 1.368 . S
C1108 C1107 1.523 1_655 S
C1109 C1093 1.429 . S
C1109 C1105 1.429 . S
C1109 C1110 1.523 . S
C1110 C1094 1.368 . S
C1110 C1106 1.368 . S
C1110 C1109 1.523 . S
H1111 C1086 0.950 . S
H1112 C1088 0.950 . S
H1113 C1089 0.949 . S
H1114 C1091 0.950 . S
H1115 C1093 0.950 . S
C1116 C1117 1.349 . S
C1116 C1118 1.327 . S
C1116 H1141 0.950 . S
C1117 C1116 1.349 . S
C1117 C1133 1.349 . S
C1118 C1116 1.327 . S
C1118 C1137 1.429 . S
C1118 H1142 0.950 . S
C1119 C1136 1.574 . S
C1119 C1138 1.368 . S
C1119 H1143 0.949 . S
H1120 C1124 0.949 . S
C1121 C1122 1.349 . S
C1121 C1123 1.327 . S
C1121 H1144 0.950 . S
C1122 C1121 1.349 . S
C1122 C1134 1.349 . S
C1123 C1121 1.327 . S
C1123 C1139 1.429 . S
C1123 H1145 0.950 . S
C1124 H1120 0.949 . S
C1124 C1132 1.574 . S
C1124 C1140 1.368 . S
H1125 C1133 0.950 . S
H1126 C1131 0.950 . S
H1127 C1132 0.949 . S
H1128 C1134 0.950 . S
H1129 C1135 0.950 . S
H1130 C1136 0.949 . S
C1131 H1126 0.950 . S
C1131 C1133 1.327 . S
C1131 C1137 1.429 . S
C1132 C1124 1.574 . S
C1132 H1127 0.949 . S
C1132 C1138 1.368 . S
C1133 C1117 1.349 . S
C1133 H1125 0.950 . S
C1133 C1131 1.327 . S
C1134 C1122 1.349 . S
C1134 H1128 0.950 . S
C1134 C1135 1.327 . S
C1135 H1129 0.950 . S
C1135 C1134 1.327 . S
C1135 C1139 1.429 . S
C1136 C1119 1.574 . S
C1136 H1130 0.949 . S
C1136 C1140 1.368 . S
C1137 C1118 1.429 . S
C1137 C1131 1.429 . S
C1137 C1138 1.523 . S
C1138 C1119 1.368 . S
C1138 C1132 1.368 . S
C1138 C1137 1.523 . S
C1139 C1123 1.429 . S
C1139 C1135 1.429 . S
C1139 C1140 1.523 . S
C1140 C1124 1.368 . S
C1140 C1136 1.368 . S
C1140 C1139 1.523 . S
H1141 C1116 0.950 . S
H1142 C1118 0.950 . S
H1143 C1119 0.949 . S
H1144 C1121 0.950 . S
H1145 C1123 0.950 . S
C1146 C1147 1.349 . S
C1146 C1148 1.327 . S
C1146 H1171 0.950 . S
C1147 C1146 1.349 . S
C1147 C1163 1.349 . S
C1148 C1146 1.327 . S
C1148 C1167 1.429 . S
C1148 H1172 0.950 . S
C1149 C1166 1.574 . S
C1149 C1168 1.368 . S
C1149 H1173 0.949 . S
H1150 C1154 0.949 . S
C1151 C1152 1.349 . S
C1151 C1153 1.327 . S
C1151 H1174 0.950 . S
C1152 C1151 1.349 . S
C1152 C1164 1.349 . S
C1153 C1151 1.327 . S
C1153 C1169 1.429 . S
C1153 H1175 0.950 . S
C1154 H1150 0.949 . S
C1154 C1162 1.574 . S
C1154 C1170 1.368 . S
H1155 C1163 0.950 . S
H1156 C1161 0.950 . S
H1157 C1162 0.949 . S
H1158 C1164 0.950 . S
H1159 C1165 0.950 . S
H1160 C1166 0.949 . S
C1161 H1156 0.950 . S
C1161 C1163 1.327 . S
C1161 C1167 1.429 . S
C1162 C1154 1.574 . S
C1162 H1157 0.949 . S
C1162 C1168 1.368 . S
C1163 C1147 1.349 . S
C1163 H1155 0.950 . S
C1163 C1161 1.327 . S
C1164 C1152 1.349 . S
C1164 H1158 0.950 . S
C1164 C1165 1.327 . S
C1165 H1159 0.950 . S
C1165 C1164 1.327 . S
C1165 C1169 1.429 . S
C1166 C1149 1.574 . S
C1166 H1160 0.949 . S
C1166 C1170 1.368 . S
C1167 C1148 1.429 . S
C1167 C1161 1.429 . S
C1167 C1168 1.523 . S
C1168 C1149 1.368 . S
C1168 C1162 1.368 . S
C1168 C1167 1.523 . S
C1169 C1153 1.429 . S
C1169 C1165 1.429 . S
C1169 C1170 1.523 . S
C1170 C1154 1.368 . S
C1170 C1166 1.368 . S
C1170 C1169 1.523 . S
H1171 C1146 0.950 . S
H1172 C1148 0.950 . S
H1173 C1149 0.949 . S
H1174 C1151 0.950 . S
H1175 C1153 0.950 . S
C1176 C1177 1.349 . S
C1176 C1178 1.327 . S
C1176 H1201 0.950 . S
C1177 C1176 1.349 . S
C1177 C1193 1.349 . S
C1178 C1176 1.327 . S
C1178 C1197 1.429 . S
C1178 H1202 0.950 . S
C1179 C1196 1.574 . S
C1179 C1198 1.368 . S
C1179 H1203 0.949 . S
H1180 C1184 0.949 . S
C1181 C1182 1.349 . S
C1181 C1183 1.327 . S
C1181 H1204 0.950 . S
C1182 C1181 1.349 . S
C1182 C1194 1.349 . S
C1183 C1181 1.327 . S
C1183 C1199 1.429 . S
C1183 H1205 0.950 . S
C1184 H1180 0.949 . S
C1184 C1192 1.574 . S
C1184 C1200 1.368 . S
H1185 C1193 0.950 . S
H1186 C1191 0.950 . S
H1187 C1192 0.949 . S
H1188 C1194 0.950 . S
H1189 C1195 0.950 . S
H1190 C1196 0.949 . S
C1191 H1186 0.950 . S
C1191 C1193 1.327 . S
C1191 C1197 1.429 . S
C1192 C1184 1.574 . S
C1192 H1187 0.949 . S
C1192 C1198 1.368 . S
C1193 C1177 1.349 . S
C1193 H1185 0.950 . S
C1193 C1191 1.327 . S
C1194 C1182 1.349 . S
C1194 H1188 0.950 . S
C1194 C1195 1.327 . S
C1195 H1189 0.950 . S
C1195 C1194 1.327 . S
C1195 C1199 1.429 . S
C1196 C1179 1.574 . S
C1196 H1190 0.949 . S
C1196 C1200 1.368 . S
C1197 C1178 1.429 . S
C1197 C1191 1.429 . S
C1197 C1198 1.523 . S
C1198 C1179 1.368 . S
C1198 C1192 1.368 . S
C1198 C1197 1.523 . S
C1199 C1183 1.429 . S
C1199 C1195 1.429 . S
C1199 C1200 1.523 . S
C1200 C1184 1.368 . S
C1200 C1196 1.368 . S
C1200 C1199 1.523 . S
H1201 C1176 0.950 . S
H1202 C1178 0.950 . S
H1203 C1179 0.949 . S
H1204 C1181 0.950 . S
H1205 C1183 0.950 . S
C1206 C1207 1.349 . S
C1206 C1208 1.327 . S
C1206 H1231 0.950 . S
C1207 C1206 1.349 . S
C1207 C1223 1.349 . S
C1208 C1206 1.327 . S
C1208 C1227 1.429 . S
C1208 H1232 0.950 . S
C1209 C1226 1.574 . S
C1209 C1228 1.368 . S
C1209 H1233 0.949 . S
H1210 C1214 0.949 . S
C1211 C1212 1.349 . S
C1211 C1213 1.327 . S
C1211 H1234 0.950 . S
C1212 C1211 1.349 . S
C1212 C1224 1.349 . S
C1213 C1211 1.327 . S
C1213 C1229 1.429 . S
C1213 H1235 0.950 . S
C1214 H1210 0.949 . S
C1214 C1222 1.574 . S
C1214 C1230 1.368 . S
H1215 C1223 0.950 . S
H1216 C1221 0.950 . S
H1217 C1222 0.949 . S
H1218 C1224 0.950 . S
H1219 C1225 0.950 . S
H1220 C1226 0.949 . S
C1221 H1216 0.950 . S
C1221 C1223 1.327 . S
C1221 C1227 1.429 . S
C1222 C1214 1.574 . S
C1222 H1217 0.949 . S
C1222 C1228 1.368 . S
C1223 C1207 1.349 . S
C1223 H1215 0.950 . S
C1223 C1221 1.327 . S
C1224 C1212 1.349 . S
C1224 H1218 0.950 . S
C1224 C1225 1.327 . S
C1225 H1219 0.950 . S
C1225 C1224 1.327 . S
C1225 C1229 1.429 . S
C1226 C1209 1.574 . S
C1226 H1220 0.949 . S
C1226 C1230 1.368 . S
C1227 C1208 1.429 . S
C1227 C1221 1.429 . S
C1227 C1228 1.523 . S
C1228 C1209 1.368 . S
C1228 C1222 1.368 . S
C1228 C1227 1.523 . S
C1229 C1213 1.429 . S
C1229 C1225 1.429 . S
C1229 C1230 1.523 . S
C1230 C1214 1.368 . S
C1230 C1226 1.368 . S
C1230 C1229 1.523 . S
H1231 C1206 0.950 . S
H1232 C1208 0.950 . S
H1233 C1209 0.949 . S
H1234 C1211 0.950 . S
H1235 C1213 0.950 . S
C1236 C1237 1.349 . S
C1236 C1238 1.327 . S
C1236 H1261 0.950 . S
C1237 C1236 1.349 . S
C1237 C1253 1.349 . S
C1238 C1236 1.327 . S
C1238 C1257 1.429 . S
C1238 H1262 0.950 . S
C1239 C1256 1.574 . S
C1239 C1258 1.368 . S
C1239 H1263 0.949 . S
H1240 C1244 0.949 . S
C1241 C1242 1.349 . S
C1241 C1243 1.327 . S
C1241 H1264 0.950 . S
C1242 C1241 1.349 . S
C1242 C1254 1.349 . S
C1243 C1241 1.327 . S
C1243 C1259 1.429 . S
C1243 H1265 0.950 . S
C1244 H1240 0.949 . S
C1244 C1252 1.574 . S
C1244 C1260 1.368 . S
H1245 C1253 0.950 . S
H1246 C1251 0.950 . S
H1247 C1252 0.949 . S
H1248 C1254 0.950 . S
H1249 C1255 0.950 . S
H1250 C1256 0.949 . S
C1251 H1246 0.950 . S
C1251 C1253 1.327 . S
C1251 C1257 1.429 . S
C1252 C1244 1.574 . S
C1252 H1247 0.949 . S
C1252 C1258 1.368 . S
C1253 C1237 1.349 . S
C1253 H1245 0.950 . S
C1253 C1251 1.327 . S
C1254 C1242 1.349 . S
C1254 H1248 0.950 . S
C1254 C1255 1.327 . S
C1255 H1249 0.950 . S
C1255 C1254 1.327 . S
C1255 C1259 1.429 . S
C1256 C1239 1.574 . S
C1256 H1250 0.949 . S
C1256 C1260 1.368 . S
C1257 C1238 1.429 . S
C1257 C1251 1.429 . S
C1257 C1258 1.523 . S
C1258 C1239 1.368 . S
C1258 C1252 1.368 . S
C1258 C1257 1.523 . S
C1259 C1243 1.429 . S
C1259 C1255 1.429 . S
C1259 C1260 1.523 . S
C1260 C1244 1.368 . S
C1260 C1256 1.368 . S
C1260 C1259 1.523 . S
H1261 C1236 0.950 . S
H1262 C1238 0.950 . S
H1263 C1239 0.949 . S
H1264 C1241 0.950 . S
H1265 C1243 0.950 . S
C1266 C1267 1.349 . S
C1266 C1268 1.327 . S
C1266 H1291 0.950 . S
C1267 C1266 1.349 . S
C1267 C1283 1.349 . S
C1268 C1266 1.327 . S
C1268 C1287 1.429 . S
C1268 H1292 0.950 . S
C1269 C1286 1.574 . S
C1269 C1288 1.368 . S
C1269 H1293 0.949 . S
H1270 C1274 0.949 . S
C1271 C1272 1.349 . S
C1271 C1273 1.327 . S
C1271 H1294 0.950 . S
C1272 C1271 1.349 . S
C1272 C1284 1.349 . S
C1273 C1271 1.327 . S
C1273 C1289 1.429 . S
C1273 H1295 0.950 . S
C1274 H1270 0.949 . S
C1274 C1282 1.574 . S
C1274 C1290 1.368 . S
H1275 C1283 0.950 . S
H1276 C1281 0.950 . S
H1277 C1282 0.949 . S
H1278 C1284 0.950 . S
H1279 C1285 0.950 . S
H1280 C1286 0.949 . S
C1281 H1276 0.950 . S
C1281 C1283 1.327 . S
C1281 C1287 1.429 . S
C1282 C1274 1.574 . S
C1282 H1277 0.949 . S
C1282 C1288 1.368 . S
C1283 C1267 1.349 . S
C1283 H1275 0.950 . S
C1283 C1281 1.327 . S
C1284 C1272 1.349 . S
C1284 H1278 0.950 . S
C1284 C1285 1.327 . S
C1285 H1279 0.950 . S
C1285 C1284 1.327 . S
C1285 C1289 1.429 . S
C1286 C1269 1.574 . S
C1286 H1280 0.949 . S
C1286 C1290 1.368 . S
C1287 C1268 1.429 . S
C1287 C1281 1.429 . S
C1287 C1288 1.523 . S
C1288 C1269 1.368 . S
C1288 C1282 1.368 . S
C1288 C1287 1.523 . S
C1289 C1273 1.429 . S
C1289 C1285 1.429 . S
C1289 C1290 1.523 1_455 S
C1290 C1274 1.368 . S
C1290 C1286 1.368 . S
C1290 C1289 1.523 1_655 S
H1291 C1266 0.950 . S
H1292 C1268 0.950 . S
H1293 C1269 0.949 . S
H1294 C1271 0.950 . S
H1295 C1273 0.950 . S
C1296 C1297 1.349 . S
C1296 C1298 1.327 . S
C1296 H1321 0.950 . S
C1297 C1296 1.349 . S
C1297 C1313 1.349 . S
C1298 C1296 1.327 . S
C1298 C1317 1.429 . S
C1298 H1322 0.950 . S
C1299 C1316 1.574 . S
C1299 C1318 1.368 . S
C1299 H1323 0.949 . S
H1300 C1304 0.949 . S
C1301 C1302 1.349 . S
C1301 C1303 1.327 . S
C1301 H1324 0.950 . S
C1302 C1301 1.349 . S
C1302 C1314 1.349 . S
C1303 C1301 1.327 . S
C1303 C1319 1.429 . S
C1303 H1325 0.950 . S
C1304 H1300 0.949 . S
C1304 C1312 1.574 . S
C1304 C1320 1.368 . S
H1305 C1313 0.950 . S
H1306 C1311 0.950 . S
H1307 C1312 0.949 . S
H1308 C1314 0.950 . S
H1309 C1315 0.950 . S
H1310 C1316 0.949 . S
C1311 H1306 0.950 . S
C1311 C1313 1.327 . S
C1311 C1317 1.429 . S
C1312 C1304 1.574 . S
C1312 H1307 0.949 . S
C1312 C1318 1.368 . S
C1313 C1297 1.349 . S
C1313 H1305 0.950 . S
C1313 C1311 1.327 . S
C1314 C1302 1.349 . S
C1314 H1308 0.950 . S
C1314 C1315 1.327 . S
C1315 H1309 0.950 . S
C1315 C1314 1.327 . S
C1315 C1319 1.429 . S
C1316 C1299 1.574 . S
C1316 H1310 0.949 . S
C1316 C1320 1.368 . S
C1317 C1298 1.429 . S
C1317 C1311 1.429 . S
C1317 C1318 1.523 . S
C1318 C1299 1.368 . S
C1318 C1312 1.368 . S
C1318 C1317 1.523 . S
C1319 C1303 1.429 . S
C1319 C1315 1.429 . S
C1319 C1320 1.523 . S
C1320 C1304 1.368 . S
C1320 C1316 1.368 . S
C1320 C1319 1.523 . S
H1321 C1296 0.950 . S
H1322 C1298 0.950 . S
H1323 C1299 0.949 . S
H1324 C1301 0.950 . S
H1325 C1303 0.950 . S
C1326 C1327 1.349 . S
C1326 C1328 1.327 . S
C1326 H1351 0.950 . S
C1327 C1326 1.349 . S
C1327 C1343 1.349 . S
C1328 C1326 1.327 . S
C1328 C1347 1.429 . S
C1328 H1352 0.950 . S
C1329 C1346 1.574 . S
C1329 C1348 1.368 . S
C1329 H1353 0.949 . S
H1330 C1334 0.949 . S
C1331 C1332 1.349 . S
C1331 C1333 1.327 . S
C1331 H1354 0.950 . S
C1332 C1331 1.349 . S
C1332 C1344 1.349 . S
C1333 C1331 1.327 . S
C1333 C1349 1.429 . S
C1333 H1355 0.950 . S
C1334 H1330 0.949 . S
C1334 C1342 1.574 . S
C1334 C1350 1.368 . S
H1335 C1343 0.950 . S
H1336 C1341 0.950 . S
H1337 C1342 0.949 . S
H1338 C1344 0.950 . S
H1339 C1345 0.950 . S
H1340 C1346 0.949 . S
C1341 H1336 0.950 . S
C1341 C1343 1.327 . S
C1341 C1347 1.429 . S
C1342 C1334 1.574 . S
C1342 H1337 0.949 . S
C1342 C1348 1.368 . S
C1343 C1327 1.349 . S
C1343 H1335 0.950 . S
C1343 C1341 1.327 . S
C1344 C1332 1.349 . S
C1344 H1338 0.950 . S
C1344 C1345 1.327 . S
C1345 H1339 0.950 . S
C1345 C1344 1.327 . S
C1345 C1349 1.429 . S
C1346 C1329 1.574 . S
C1346 H1340 0.949 . S
C1346 C1350 1.368 . S
C1347 C1328 1.429 . S
C1347 C1341 1.429 . S
C1347 C1348 1.523 . S
C1348 C1329 1.368 . S
C1348 C1342 1.368 . S
C1348 C1347 1.523 . S
C1349 C1333 1.429 . S
C1349 C1345 1.429 . S
C1349 C1350 1.523 . S
C1350 C1334 1.368 . S
C1350 C1346 1.368 . S
C1350 C1349 1.523 . S
H1351 C1326 0.950 . S
H1352 C1328 0.950 . S
H1353 C1329 0.949 . S
H1354 C1331 0.950 . S
H1355 C1333 0.950 . S
C1356 C1357 1.349 . S
C1356 C1358 1.327 . S
C1356 H1381 0.950 . S
C1357 C1356 1.349 . S
C1357 C1373 1.349 . S
C1358 C1356 1.327 . S
C1358 C1377 1.429 . S
C1358 H1382 0.950 . S
C1359 C1376 1.574 . S
C1359 C1378 1.368 . S
C1359 H1383 0.949 . S
H1360 C1364 0.949 . S
C1361 C1362 1.349 . S
C1361 C1363 1.327 . S
C1361 H1384 0.950 . S
C1362 C1361 1.349 . S
C1362 C1374 1.349 . S
C1363 C1361 1.327 . S
C1363 C1379 1.429 . S
C1363 H1385 0.950 . S
C1364 H1360 0.949 . S
C1364 C1372 1.574 . S
C1364 C1380 1.368 . S
H1365 C1373 0.950 . S
H1366 C1371 0.950 . S
H1367 C1372 0.949 . S
H1368 C1374 0.950 . S
H1369 C1375 0.950 . S
H1370 C1376 0.949 . S
C1371 H1366 0.950 . S
C1371 C1373 1.327 . S
C1371 C1377 1.429 . S
C1372 C1364 1.574 . S
C1372 H1367 0.949 . S
C1372 C1378 1.368 . S
C1373 C1357 1.349 . S
C1373 H1365 0.950 . S
C1373 C1371 1.327 . S
C1374 C1362 1.349 . S
C1374 H1368 0.950 . S
C1374 C1375 1.327 . S
C1375 H1369 0.950 . S
C1375 C1374 1.327 . S
C1375 C1379 1.429 . S
C1376 C1359 1.574 . S
C1376 H1370 0.949 . S
C1376 C1380 1.368 . S
C1377 C1358 1.429 . S
C1377 C1371 1.429 . S
C1377 C1378 1.523 . S
C1378 C1359 1.368 . S
C1378 C1372 1.368 . S
C1378 C1377 1.523 . S
C1379 C1363 1.429 . S
C1379 C1375 1.429 . S
C1379 C1380 1.523 . S
C1380 C1364 1.368 . S
C1380 C1376 1.368 . S
C1380 C1379 1.523 . S
H1381 C1356 0.950 . S
H1382 C1358 0.950 . S
H1383 C1359 0.949 . S
H1384 C1361 0.950 . S
H1385 C1363 0.950 . S
C1386 C1387 1.349 . S
C1386 C1388 1.327 . S
C1386 H1411 0.950 . S
C1387 C1386 1.349 . S
C1387 C1403 1.349 . S
C1388 C1386 1.327 . S
C1388 C1407 1.429 . S
C1388 H1412 0.950 . S
C1389 C1406 1.563 . S
C1389 C1408 1.373 1_554 S
C1389 H1413 0.955 1_554 S
H1390 C1394 0.949 . S
C1391 C1392 1.349 . S
C1391 C1393 1.327 . S
C1391 H1414 0.950 . S
C1392 C1391 1.349 . S
C1392 C1404 1.349 . S
C1393 C1391 1.327 . S
C1393 C1409 1.429 . S
C1393 H1415 0.950 . S
C1394 H1390 0.949 . S
C1394 C1402 1.613 . S
C1394 C1410 1.368 . S
H1395 C1403 0.950 . S
H1396 C1401 0.950 . S
H1397 C1402 0.928 1_556 S
H1398 C1404 0.950 . S
H1399 C1405 0.950 . S
H1400 C1406 0.949 . S
C1401 H1396 0.950 . S
C1401 C1403 1.327 . S
C1401 C1407 1.429 . S
C1402 C1394 1.613 . S
C1402 H1397 0.928 1_554 S
C1402 C1408 1.354 1_554 S
C1403 C1387 1.349 . S
C1403 H1395 0.950 . S
C1403 C1401 1.327 . S
C1404 C1392 1.349 . S
C1404 H1398 0.950 . S
C1404 C1405 1.327 . S
C1405 H1399 0.950 . S
C1405 C1404 1.327 . S
C1405 C1409 1.429 . S
C1406 C1389 1.563 . S
C1406 H1400 0.949 . S
C1406 C1410 1.368 . S
C1407 C1388 1.429 . S
C1407 C1401 1.429 . S
C1407 C1408 1.523 . S
C1408 C1389 1.373 1_556 S
C1408 C1402 1.354 1_556 S
C1408 C1407 1.523 . S
C1409 C1393 1.429 . S
C1409 C1405 1.429 . S
C1409 C1410 1.523 . S
C1410 C1394 1.368 . S
C1410 C1406 1.368 . S
C1410 C1409 1.523 . S
H1411 C1386 0.950 . S
H1412 C1388 0.950 . S
H1413 C1389 0.955 1_556 S
H1414 C1391 0.950 . S
H1415 C1393 0.950 . S
C1416 C1417 1.349 . S
C1416 C1418 1.327 . S
C1416 H1441 0.950 . S
C1417 C1416 1.349 . S
C1417 C1433 1.349 . S
C1418 C1416 1.327 . S
C1418 C1437 1.429 . S
C1418 H1442 0.950 . S
C1419 C1436 1.574 . S
C1419 C1438 1.368 . S
C1419 H1443 0.949 . S
H1420 C1424 0.949 . S
C1421 C1422 1.349 . S
C1421 C1423 1.327 . S
C1421 H1444 0.950 . S
C1422 C1421 1.349 . S
C1422 C1434 1.349 . S
C1423 C1421 1.327 . S
C1423 C1439 1.429 . S
C1423 H1445 0.950 . S
C1424 H1420 0.949 . S
C1424 C1432 1.574 . S
C1424 C1440 1.368 . S
H1425 C1433 0.950 . S
H1426 C1431 0.950 . S
H1427 C1432 0.949 . S
H1428 C1434 0.950 . S
H1429 C1435 0.950 . S
H1430 C1436 0.949 . S
C1431 H1426 0.950 . S
C1431 C1433 1.327 . S
C1431 C1437 1.429 . S
C1432 C1424 1.574 . S
C1432 H1427 0.949 . S
C1432 C1438 1.368 . S
C1433 C1417 1.349 . S
C1433 H1425 0.950 . S
C1433 C1431 1.327 . S
C1434 C1422 1.349 . S
C1434 H1428 0.950 . S
C1434 C1435 1.327 . S
C1435 H1429 0.950 . S
C1435 C1434 1.327 . S
C1435 C1439 1.429 . S
C1436 C1419 1.574 . S
C1436 H1430 0.949 . S
C1436 C1440 1.368 . S
C1437 C1418 1.429 . S
C1437 C1431 1.429 . S
C1437 C1438 1.523 . S
C1438 C1419 1.368 . S
C1438 C1432 1.368 . S
C1438 C1437 1.523 . S
C1439 C1423 1.429 . S
C1439 C1435 1.429 . S
C1439 C1440 1.523 . S
C1440 C1424 1.368 . S
C1440 C1436 1.368 . S
C1440 C1439 1.523 . S
H1441 C1416 0.950 . S
H1442 C1418 0.950 . S
H1443 C1419 0.949 . S
H1444 C1421 0.950 . S
H1445 C1423 0.950 . S
C1446 C1447 1.349 . S
C1446 C1448 1.327 . S
C1446 H1471 0.950 . S
C1447 C1446 1.349 . S
C1447 C1463 1.349 . S
C1448 C1446 1.327 . S
C1448 C1467 1.429 . S
C1448 H1472 0.950 . S
C1449 C1466 1.574 . S
C1449 C1468 1.368 . S
C1449 H1473 0.949 . S
H1450 C1454 0.949 . S
C1451 C1452 1.349 . S
C1451 C1453 1.327 . S
C1451 H1474 0.950 . S
C1452 C1451 1.349 . S
C1452 C1464 1.349 . S
C1453 C1451 1.327 . S
C1453 C1469 1.429 . S
C1453 H1475 0.950 . S
C1454 H1450 0.949 . S
C1454 C1462 1.574 . S
C1454 C1470 1.368 . S
H1455 C1463 0.950 . S
H1456 C1461 0.950 . S
H1457 C1462 0.949 . S
H1458 C1464 0.950 . S
H1459 C1465 0.950 . S
H1460 C1466 0.949 . S
C1461 H1456 0.950 . S
C1461 C1463 1.327 . S
C1461 C1467 1.429 . S
C1462 C1454 1.574 . S
C1462 H1457 0.949 . S
C1462 C1468 1.368 . S
C1463 C1447 1.349 . S
C1463 H1455 0.950 . S
C1463 C1461 1.327 . S
C1464 C1452 1.349 . S
C1464 H1458 0.950 . S
C1464 C1465 1.327 . S
C1465 H1459 0.950 . S
C1465 C1464 1.327 . S
C1465 C1469 1.429 . S
C1466 C1449 1.574 . S
C1466 H1460 0.949 . S
C1466 C1470 1.368 . S
C1467 C1448 1.429 . S
C1467 C1461 1.429 . S
C1467 C1468 1.523 . S
C1468 C1449 1.368 . S
C1468 C1462 1.368 . S
C1468 C1467 1.523 . S
C1469 C1453 1.429 . S
C1469 C1465 1.429 . S
C1469 C1470 1.523 . S
C1470 C1454 1.368 . S
C1470 C1466 1.368 . S
C1470 C1469 1.523 . S
H1471 C1446 0.950 . S
H1472 C1448 0.950 . S
H1473 C1449 0.949 . S
H1474 C1451 0.950 . S
H1475 C1453 0.950 . S
C1476 C1477 1.349 . S
C1476 C1478 1.327 . S
C1476 H1501 0.950 . S
C1477 C1476 1.349 . S
C1477 C1493 1.349 . S
C1478 C1476 1.327 . S
C1478 C1497 1.429 . S
C1478 H1502 0.950 . S
C1479 C1496 1.574 . S
C1479 C1498 1.368 . S
C1479 H1503 0.949 . S
H1480 C1484 0.949 . S
C1481 C1482 1.349 . S
C1481 C1483 1.327 . S
C1481 H1504 0.950 . S
C1482 C1481 1.349 . S
C1482 C1494 1.349 . S
C1483 C1481 1.327 . S
C1483 C1499 1.429 . S
C1483 H1505 0.950 . S
C1484 H1480 0.949 . S
C1484 C1492 1.574 . S
C1484 C1500 1.368 . S
H1485 C1493 0.950 . S
H1486 C1491 0.950 . S
H1487 C1492 0.949 . S
H1488 C1494 0.950 . S
H1489 C1495 0.950 . S
H1490 C1496 0.949 . S
C1491 H1486 0.950 . S
C1491 C1493 1.327 . S
C1491 C1497 1.429 . S
C1492 C1484 1.574 . S
C1492 H1487 0.949 . S
C1492 C1498 1.368 . S
C1493 C1477 1.349 . S
C1493 H1485 0.950 . S
C1493 C1491 1.327 . S
C1494 C1482 1.349 . S
C1494 H1488 0.950 . S
C1494 C1495 1.327 . S
C1495 H1489 0.950 . S
C1495 C1494 1.327 . S
C1495 C1499 1.429 . S
C1496 C1479 1.574 . S
C1496 H1490 0.949 . S
C1496 C1500 1.368 . S
C1497 C1478 1.429 . S
C1497 C1491 1.429 . S
C1497 C1498 1.523 . S
C1498 C1479 1.368 . S
C1498 C1492 1.368 . S
C1498 C1497 1.523 . S
C1499 C1483 1.429 . S
C1499 C1495 1.429 . S
C1499 C1500 1.523 . S
C1500 C1484 1.368 . S
C1500 C1496 1.368 . S
C1500 C1499 1.523 . S
H1501 C1476 0.950 . S
H1502 C1478 0.950 . S
H1503 C1479 0.949 . S
H1504 C1481 0.950 . S
H1505 C1483 0.950 . S
C1506 C1507 1.349 . S
C1506 C1508 1.327 . S
C1506 H1531 0.950 . S
C1507 C1506 1.349 . S
C1507 C1523 1.349 . S
C1508 C1506 1.327 . S
C1508 C1527 1.429 . S
C1508 H1532 0.950 . S
C1509 C1526 1.561 1_556 S
C1509 C1528 1.368 . S
C1509 H1533 0.949 . S
H1510 C1514 0.942 . S
C1511 C1512 1.349 . S
C1511 C1513 1.327 . S
C1511 H1534 0.950 . S
C1512 C1511 1.349 . S
C1512 C1524 1.349 . S
C1513 C1511 1.327 . S
C1513 C1529 1.429 . S
C1513 H1535 0.950 . S
C1514 H1510 0.942 . S
C1514 C1522 1.586 1_554 S
C1514 C1530 1.363 . S
H1515 C1523 0.950 . S
H1516 C1521 0.950 . S
H1517 C1522 0.949 . S
H1518 C1524 0.950 . S
H1519 C1525 0.950 . S
H1520 C1526 0.956 . S
C1521 H1516 0.950 . S
C1521 C1523 1.327 . S
C1521 C1527 1.429 . S
C1522 C1514 1.586 1_556 S
C1522 H1517 0.949 . S
C1522 C1528 1.368 . S
C1523 C1507 1.349 . S
C1523 H1515 0.950 . S
C1523 C1521 1.327 . S
C1524 C1512 1.349 . S
C1524 H1518 0.950 . S
C1524 C1525 1.327 . S
C1525 H1519 0.950 . S
C1525 C1524 1.327 . S
C1525 C1529 1.429 . S
C1526 C1509 1.561 1_554 S
C1526 H1520 0.956 . S
C1526 C1530 1.373 . S
C1527 C1508 1.429 . S
C1527 C1521 1.429 . S
C1527 C1528 1.523 . S
C1528 C1509 1.368 . S
C1528 C1522 1.368 . S
C1528 C1527 1.523 . S
C1529 C1513 1.429 . S
C1529 C1525 1.429 . S
C1529 C1530 1.523 . S
C1530 C1514 1.363 . S
C1530 C1526 1.373 . S
C1530 C1529 1.523 . S
H1531 C1506 0.950 . S
H1532 C1508 0.950 . S
H1533 C1509 0.949 . S
H1534 C1511 0.950 . S
H1535 C1513 0.950 . S
C1536 C1537 1.349 . S
C1536 C1538 1.327 . S
C1536 H1561 0.950 . S
C1537 C1536 1.349 . S
C1537 C1553 1.349 . S
C1538 C1536 1.327 . S
C1538 C1557 1.429 . S
C1538 H1562 0.950 . S
C1539 C1556 1.574 . S
C1539 C1558 1.368 . S
C1539 H1563 0.949 . S
H1540 C1544 0.949 . S
C1541 C1542 1.349 . S
C1541 C1543 1.327 . S
C1541 H1564 0.950 . S
C1542 C1541 1.349 . S
C1542 C1554 1.349 . S
C1543 C1541 1.327 . S
C1543 C1559 1.429 . S
C1543 H1565 0.950 . S
C1544 H1540 0.949 . S
C1544 C1552 1.574 . S
C1544 C1560 1.368 . S
H1545 C1553 0.950 . S
H1546 C1551 0.950 . S
H1547 C1552 0.949 . S
H1548 C1554 0.950 . S
H1549 C1555 0.950 . S
H1550 C1556 0.949 . S
C1551 H1546 0.950 . S
C1551 C1553 1.327 . S
C1551 C1557 1.429 . S
C1552 C1544 1.574 . S
C1552 H1547 0.949 . S
C1552 C1558 1.368 . S
C1553 C1537 1.349 . S
C1553 H1545 0.950 . S
C1553 C1551 1.327 . S
C1554 C1542 1.349 . S
C1554 H1548 0.950 . S
C1554 C1555 1.327 . S
C1555 H1549 0.950 . S
C1555 C1554 1.327 . S
C1555 C1559 1.429 . S
C1556 C1539 1.574 . S
C1556 H1550 0.949 . S
C1556 C1560 1.368 . S
C1557 C1538 1.429 . S
C1557 C1551 1.429 . S
C1557 C1558 1.523 . S
C1558 C1539 1.368 . S
C1558 C1552 1.368 . S
C1558 C1557 1.523 . S
C1559 C1543 1.429 . S
C1559 C1555 1.429 . S
C1559 C1560 1.523 . S
C1560 C1544 1.368 . S
C1560 C1556 1.368 . S
C1560 C1559 1.523 . S
H1561 C1536 0.950 . S
H1562 C1538 0.950 . S
H1563 C1539 0.949 . S
H1564 C1541 0.950 . S
H1565 C1543 0.950 . S
C1566 C1567 1.349 . S
C1566 C1568 1.327 . S
C1566 H1591 0.950 . S
C1567 C1566 1.349 . S
C1567 C1583 1.349 . S
C1568 C1566 1.327 . S
C1568 C1587 1.429 . S
C1568 H1592 0.950 . S
C1569 C1586 1.574 . S
C1569 C1588 1.368 . S
C1569 H1593 0.949 . S
H1570 C1574 0.949 . S
C1571 C1572 1.349 . S
C1571 C1573 1.327 . S
C1571 H1594 0.950 . S
C1572 C1571 1.349 . S
C1572 C1584 1.349 . S
C1573 C1571 1.327 . S
C1573 C1589 1.429 . S
C1573 H1595 0.950 . S
C1574 H1570 0.949 . S
C1574 C1582 1.574 . S
C1574 C1590 1.368 . S
H1575 C1583 0.950 . S
H1576 C1581 0.950 . S
H1577 C1582 0.949 . S
H1578 C1584 0.950 . S
H1579 C1585 0.950 . S
H1580 C1586 0.949 . S
C1581 H1576 0.950 . S
C1581 C1583 1.327 . S
C1581 C1587 1.429 . S
C1582 C1574 1.574 . S
C1582 H1577 0.949 . S
C1582 C1588 1.368 . S
C1583 C1567 1.349 . S
C1583 H1575 0.950 . S
C1583 C1581 1.327 . S
C1584 C1572 1.349 . S
C1584 H1578 0.950 . S
C1584 C1585 1.327 . S
C1585 H1579 0.950 . S
C1585 C1584 1.327 . S
C1585 C1589 1.429 . S
C1586 C1569 1.574 . S
C1586 H1580 0.949 . S
C1586 C1590 1.368 . S
C1587 C1568 1.429 . S
C1587 C1581 1.429 . S
C1587 C1588 1.523 . S
C1588 C1569 1.368 . S
C1588 C1582 1.368 . S
C1588 C1587 1.523 . S
C1589 C1573 1.429 . S
C1589 C1585 1.429 . S
C1589 C1590 1.523 . S
C1590 C1574 1.368 . S
C1590 C1586 1.368 . S
C1590 C1589 1.523 . S
H1591 C1566 0.950 . S
H1592 C1568 0.950 . S
H1593 C1569 0.949 . S
H1594 C1571 0.950 . S
H1595 C1573 0.950 . S
C1596 C1597 1.349 . S
C1596 C1598 1.327 . S
C1596 H1621 0.950 . S
C1597 C1596 1.349 . S
C1597 C1613 1.349 . S
C1598 C1596 1.327 . S
C1598 C1617 1.429 . S
C1598 H1622 0.950 . S
C1599 C1616 1.574 . S
C1599 C1618 1.368 . S
C1599 H1623 0.949 . S
H1600 C1604 0.949 . S
C1601 C1602 1.349 . S
C1601 C1603 1.327 . S
C1601 H1624 0.950 . S
C1602 C1601 1.349 . S
C1602 C1614 1.349 . S
C1603 C1601 1.327 . S
C1603 C1619 1.429 . S
C1603 H1625 0.950 . S
C1604 H1600 0.949 . S
C1604 C1612 1.574 . S
C1604 C1620 1.368 . S
H1605 C1613 0.950 . S
H1606 C1611 0.950 . S
H1607 C1612 0.949 . S
H1608 C1614 0.950 . S
H1609 C1615 0.950 . S
H1610 C1616 0.949 . S
C1611 H1606 0.950 . S
C1611 C1613 1.327 . S
C1611 C1617 1.429 . S
C1612 C1604 1.574 . S
C1612 H1607 0.949 . S
C1612 C1618 1.368 . S
C1613 C1597 1.349 . S
C1613 H1605 0.950 . S
C1613 C1611 1.327 . S
C1614 C1602 1.349 . S
C1614 H1608 0.950 . S
C1614 C1615 1.327 . S
C1615 H1609 0.950 . S
C1615 C1614 1.327 . S
C1615 C1619 1.429 . S
C1616 C1599 1.574 . S
C1616 H1610 0.949 . S
C1616 C1620 1.368 . S
C1617 C1598 1.429 . S
C1617 C1611 1.429 . S
C1617 C1618 1.523 . S
C1618 C1599 1.368 . S
C1618 C1612 1.368 . S
C1618 C1617 1.523 . S
C1619 C1603 1.429 . S
C1619 C1615 1.429 . S
C1619 C1620 1.523 . S
C1620 C1604 1.368 . S
C1620 C1616 1.368 . S
C1620 C1619 1.523 . S
H1621 C1596 0.950 . S
H1622 C1598 0.950 . S
H1623 C1599 0.949 . S
H1624 C1601 0.950 . S
H1625 C1603 0.950 . S
C1626 C1627 1.349 . S
C1626 C1628 1.327 . S
C1626 H1651 0.950 . S
C1627 C1626 1.349 . S
C1627 C1643 1.349 . S
C1628 C1626 1.327 . S
C1628 C1647 1.429 . S
C1628 H1652 0.950 . S
C1629 C1646 1.574 . S
C1629 C1648 1.368 . S
C1629 H1653 0.949 . S
H1630 C1634 0.949 . S
C1631 C1632 1.349 . S
C1631 C1633 1.327 . S
C1631 H1654 0.950 . S
C1632 C1631 1.349 . S
C1632 C1644 1.349 . S
C1633 C1631 1.327 . S
C1633 C1649 1.429 . S
C1633 H1655 0.950 . S
C1634 H1630 0.949 . S
C1634 C1642 1.574 . S
C1634 C1650 1.368 . S
H1635 C1643 0.950 . S
H1636 C1641 0.950 . S
H1637 C1642 0.949 . S
H1638 C1644 0.950 . S
H1639 C1645 0.950 . S
H1640 C1646 0.949 . S
C1641 H1636 0.950 . S
C1641 C1643 1.327 . S
C1641 C1647 1.429 . S
C1642 C1634 1.574 . S
C1642 H1637 0.949 . S
C1642 C1648 1.368 . S
C1643 C1627 1.349 . S
C1643 H1635 0.950 . S
C1643 C1641 1.327 . S
C1644 C1632 1.349 . S
C1644 H1638 0.950 . S
C1644 C1645 1.327 . S
C1645 H1639 0.950 . S
C1645 C1644 1.327 . S
C1645 C1649 1.429 . S
C1646 C1629 1.574 . S
C1646 H1640 0.949 . S
C1646 C1650 1.368 . S
C1647 C1628 1.429 . S
C1647 C1641 1.429 . S
C1647 C1648 1.523 . S
C1648 C1629 1.368 . S
C1648 C1642 1.368 . S
C1648 C1647 1.523 . S
C1649 C1633 1.429 . S
C1649 C1645 1.429 . S
C1649 C1650 1.523 . S
C1650 C1634 1.368 . S
C1650 C1646 1.368 . S
C1650 C1649 1.523 . S
H1651 C1626 0.950 . S
H1652 C1628 0.950 . S
H1653 C1629 0.949 . S
H1654 C1631 0.950 . S
H1655 C1633 0.950 . S
C1656 C1657 1.349 . S
C1656 C1658 1.327 . S
C1656 H1681 0.950 . S
C1657 C1656 1.349 . S
C1657 C1673 1.349 . S
C1658 C1656 1.327 . S
C1658 C1677 1.429 . S
C1658 H1682 0.950 . S
C1659 C1676 1.574 1_565 S
C1659 C1678 1.368 . S
C1659 H1683 0.949 . S
H1660 C1664 0.945 1_545 S
C1661 C1662 1.349 . S
C1661 C1663 1.327 . S
C1661 H1684 0.950 . S
C1662 C1661 1.349 . S
C1662 C1674 1.349 . S
C1663 C1661 1.327 . S
C1663 C1679 1.429 . S
C1663 H1685 0.950 . S
C1664 H1660 0.945 1_565 S
C1664 C1672 1.584 . S
C1664 C1680 1.363 1_565 S
H1665 C1673 0.950 . S
H1666 C1671 0.950 . S
H1667 C1672 0.949 . S
H1668 C1674 0.950 . S
H1669 C1675 0.950 . S
H1670 C1676 0.949 . S
C1671 H1666 0.950 . S
C1671 C1673 1.327 . S
C1671 C1677 1.429 . S
C1672 C1664 1.584 . S
C1672 H1667 0.949 . S
C1672 C1678 1.368 . S
C1673 C1657 1.349 . S
C1673 H1665 0.950 . S
C1673 C1671 1.327 . S
C1674 C1662 1.349 . S
C1674 H1668 0.950 . S
C1674 C1675 1.327 . S
C1675 H1669 0.950 . S
C1675 C1674 1.327 . S
C1675 C1679 1.429 . S
C1676 C1659 1.574 1_545 S
C1676 H1670 0.949 . S
C1676 C1680 1.368 . S
C1677 C1658 1.429 . S
C1677 C1671 1.429 . S
C1677 C1678 1.523 . S
C1678 C1659 1.368 . S
C1678 C1672 1.368 . S
C1678 C1677 1.523 . S
C1679 C1663 1.429 . S
C1679 C1675 1.429 . S
C1679 C1680 1.523 . S
C1680 C1664 1.363 1_545 S
C1680 C1676 1.368 . S
C1680 C1679 1.523 . S
H1681 C1656 0.950 . S
H1682 C1658 0.950 . S
H1683 C1659 0.949 . S
H1684 C1661 0.950 . S
H1685 C1663 0.950 . S
C1686 C1687 1.349 . S
C1686 C1688 1.327 . S
C1686 H1711 0.950 . S
C1687 C1686 1.349 . S
C1687 C1703 1.349 . S
C1688 C1686 1.327 . S
C1688 C1707 1.429 . S
C1688 H1712 0.950 . S
C1689 C1706 1.574 . S
C1689 C1708 1.368 . S
C1689 H1713 0.949 . S
H1690 C1694 0.949 . S
C1691 C1692 1.349 . S
C1691 C1693 1.327 . S
C1691 H1714 0.950 . S
C1692 C1691 1.349 . S
C1692 C1704 1.349 . S
C1693 C1691 1.327 . S
C1693 C1709 1.429 . S
C1693 H1715 0.950 . S
C1694 H1690 0.949 . S
C1694 C1702 1.574 . S
C1694 C1710 1.368 . S
H1695 C1703 0.950 . S
H1696 C1701 0.950 . S
H1697 C1702 0.949 . S
H1698 C1704 0.950 . S
H1699 C1705 0.950 . S
H1700 C1706 0.949 . S
C1701 H1696 0.950 . S
C1701 C1703 1.327 . S
C1701 C1707 1.429 . S
C1702 C1694 1.574 . S
C1702 H1697 0.949 . S
C1702 C1708 1.368 . S
C1703 C1687 1.349 . S
C1703 H1695 0.950 . S
C1703 C1701 1.327 . S
C1704 C1692 1.349 . S
C1704 H1698 0.950 . S
C1704 C1705 1.327 . S
C1705 H1699 0.950 . S
C1705 C1704 1.327 . S
C1705 C1709 1.429 . S
C1706 C1689 1.574 . S
C1706 H1700 0.949 . S
C1706 C1710 1.368 . S
C1707 C1688 1.429 . S
C1707 C1701 1.429 . S
C1707 C1708 1.523 . S
C1708 C1689 1.368 . S
C1708 C1702 1.368 . S
C1708 C1707 1.523 . S
C1709 C1693 1.429 . S
C1709 C1705 1.429 . S
C1709 C1710 1.523 . S
C1710 C1694 1.368 . S
C1710 C1706 1.368 . S
C1710 C1709 1.523 . S
H1711 C1686 0.950 . S
H1712 C1688 0.950 . S
H1713 C1689 0.949 . S
H1714 C1691 0.950 . S
H1715 C1693 0.950 . S
C1716 C1717 1.349 . S
C1716 C1718 1.327 . S
C1716 H1741 0.950 . S
C1717 C1716 1.349 . S
C1717 C1733 1.349 . S
C1718 C1716 1.327 . S
C1718 C1737 1.429 . S
C1718 H1742 0.950 . S
C1719 C1736 1.574 . S
C1719 C1738 1.368 . S
C1719 H1743 0.949 . S
H1720 C1724 0.949 . S
C1721 C1722 1.349 . S
C1721 C1723 1.327 . S
C1721 H1744 0.950 . S
C1722 C1721 1.349 . S
C1722 C1734 1.349 . S
C1723 C1721 1.327 . S
C1723 C1739 1.429 . S
C1723 H1745 0.950 . S
C1724 H1720 0.949 . S
C1724 C1732 1.574 . S
C1724 C1740 1.368 . S
H1725 C1733 0.950 . S
H1726 C1731 0.950 . S
H1727 C1732 0.949 . S
H1728 C1734 0.950 . S
H1729 C1735 0.950 . S
H1730 C1736 0.949 . S
C1731 H1726 0.950 . S
C1731 C1733 1.327 . S
C1731 C1737 1.429 . S
C1732 C1724 1.574 . S
C1732 H1727 0.949 . S
C1732 C1738 1.368 . S
C1733 C1717 1.349 . S
C1733 H1725 0.950 . S
C1733 C1731 1.327 . S
C1734 C1722 1.349 . S
C1734 H1728 0.950 . S
C1734 C1735 1.327 . S
C1735 H1729 0.950 . S
C1735 C1734 1.327 . S
C1735 C1739 1.429 . S
C1736 C1719 1.574 . S
C1736 H1730 0.949 . S
C1736 C1740 1.368 . S
C1737 C1718 1.429 . S
C1737 C1731 1.429 . S
C1737 C1738 1.523 . S
C1738 C1719 1.368 . S
C1738 C1732 1.368 . S
C1738 C1737 1.523 . S
C1739 C1723 1.429 . S
C1739 C1735 1.429 . S
C1739 C1740 1.523 . S
C1740 C1724 1.368 . S
C1740 C1736 1.368 . S
C1740 C1739 1.523 . S
H1741 C1716 0.950 . S
H1742 C1718 0.950 . S
H1743 C1719 0.949 . S
H1744 C1721 0.950 . S
H1745 C1723 0.950 . S
C1746 C1747 1.349 . S
C1746 C1748 1.327 . S
C1746 H1771 0.950 . S
C1747 C1746 1.349 . S
C1747 C1763 1.349 . S
C1748 C1746 1.327 . S
C1748 C1767 1.429 . S
C1748 H1772 0.950 . S
C1749 C1766 1.574 . S
C1749 C1768 1.368 . S
C1749 H1773 0.949 . S
H1750 C1754 0.949 . S
C1751 C1752 1.349 . S
C1751 C1753 1.327 . S
C1751 H1774 0.950 . S
C1752 C1751 1.349 . S
C1752 C1764 1.349 . S
C1753 C1751 1.327 . S
C1753 C1769 1.429 . S
C1753 H1775 0.950 . S
C1754 H1750 0.949 . S
C1754 C1762 1.574 . S
C1754 C1770 1.368 . S
H1755 C1763 0.950 . S
H1756 C1761 0.950 . S
H1757 C1762 0.949 . S
H1758 C1764 0.950 . S
H1759 C1765 0.950 . S
H1760 C1766 0.949 . S
C1761 H1756 0.950 . S
C1761 C1763 1.327 . S
C1761 C1767 1.429 . S
C1762 C1754 1.574 . S
C1762 H1757 0.949 . S
C1762 C1768 1.368 . S
C1763 C1747 1.349 . S
C1763 H1755 0.950 . S
C1763 C1761 1.327 . S
C1764 C1752 1.349 . S
C1764 H1758 0.950 . S
C1764 C1765 1.327 . S
C1765 H1759 0.950 . S
C1765 C1764 1.327 . S
C1765 C1769 1.429 . S
C1766 C1749 1.574 . S
C1766 H1760 0.949 . S
C1766 C1770 1.368 . S
C1767 C1748 1.429 . S
C1767 C1761 1.429 . S
C1767 C1768 1.523 . S
C1768 C1749 1.368 . S
C1768 C1762 1.368 . S
C1768 C1767 1.523 . S
C1769 C1753 1.429 . S
C1769 C1765 1.429 . S
C1769 C1770 1.523 . S
C1770 C1754 1.368 . S
C1770 C1766 1.368 . S
C1770 C1769 1.523 . S
H1771 C1746 0.950 . S
H1772 C1748 0.950 . S
H1773 C1749 0.949 . S
H1774 C1751 0.950 . S
H1775 C1753 0.950 . S
C1776 C1777 1.349 . S
C1776 C1778 1.327 . S
C1776 H1801 0.950 . S
C1777 C1776 1.349 . S
C1777 C1793 1.349 . S
C1778 C1776 1.327 . S
C1778 C1797 1.429 . S
C1778 H1802 0.950 . S
C1779 C1796 1.574 . S
C1779 C1798 1.368 . S
C1779 H1803 0.949 . S
H1780 C1784 0.949 . S
C1781 C1782 1.349 . S
C1781 C1783 1.327 . S
C1781 H1804 0.950 . S
C1782 C1781 1.349 . S
C1782 C1794 1.349 . S
C1783 C1781 1.327 . S
C1783 C1799 1.429 . S
C1783 H1805 0.950 . S
C1784 H1780 0.949 . S
C1784 C1792 1.574 . S
C1784 C1800 1.368 . S
H1785 C1793 0.950 . S
H1786 C1791 0.950 . S
H1787 C1792 0.949 . S
H1788 C1794 0.950 . S
H1789 C1795 0.950 . S
H1790 C1796 0.949 . S
C1791 H1786 0.950 . S
C1791 C1793 1.327 . S
C1791 C1797 1.429 . S
C1792 C1784 1.574 . S
C1792 H1787 0.949 . S
C1792 C1798 1.368 . S
C1793 C1777 1.349 . S
C1793 H1785 0.950 . S
C1793 C1791 1.327 . S
C1794 C1782 1.349 . S
C1794 H1788 0.950 . S
C1794 C1795 1.327 . S
C1795 H1789 0.950 . S
C1795 C1794 1.327 . S
C1795 C1799 1.429 . S
C1796 C1779 1.574 . S
C1796 H1790 0.949 . S
C1796 C1800 1.368 . S
C1797 C1778 1.429 . S
C1797 C1791 1.429 . S
C1797 C1798 1.523 . S
C1798 C1779 1.368 . S
C1798 C1792 1.368 . S
C1798 C1797 1.523 . S
C1799 C1783 1.429 . S
C1799 C1795 1.429 . S
C1799 C1800 1.523 . S
C1800 C1784 1.368 . S
C1800 C1796 1.368 . S
C1800 C1799 1.523 . S
H1801 C1776 0.950 . S
H1802 C1778 0.950 . S
H1803 C1779 0.949 . S
H1804 C1781 0.950 . S
H1805 C1783 0.950 . S
C1806 C1807 1.349 . S
C1806 C1808 1.327 . S
C1806 H1831 0.950 . S
C1807 C1806 1.349 . S
C1807 C1823 1.349 . S
C1808 C1806 1.327 . S
C1808 C1827 1.429 . S
C1808 H1832 0.950 . S
C1809 C1826 1.574 . S
C1809 C1828 1.368 . S
C1809 H1833 0.949 . S
H1810 C1814 0.949 . S
C1811 C1812 1.349 . S
C1811 C1813 1.327 . S
C1811 H1834 0.950 . S
C1812 C1811 1.349 . S
C1812 C1824 1.349 . S
C1813 C1811 1.327 . S
C1813 C1829 1.429 . S
C1813 H1835 0.950 . S
C1814 H1810 0.949 . S
C1814 C1822 1.574 . S
C1814 C1830 1.368 . S
H1815 C1823 0.950 . S
H1816 C1821 0.950 . S
H1817 C1822 0.949 . S
H1818 C1824 0.950 . S
H1819 C1825 0.950 . S
H1820 C1826 0.949 . S
C1821 H1816 0.950 . S
C1821 C1823 1.327 . S
C1821 C1827 1.429 . S
C1822 C1814 1.574 . S
C1822 H1817 0.949 . S
C1822 C1828 1.368 . S
C1823 C1807 1.349 . S
C1823 H1815 0.950 . S
C1823 C1821 1.327 . S
C1824 C1812 1.349 . S
C1824 H1818 0.950 . S
C1824 C1825 1.327 . S
C1825 H1819 0.950 . S
C1825 C1824 1.327 . S
C1825 C1829 1.429 . S
C1826 C1809 1.574 . S
C1826 H1820 0.949 . S
C1826 C1830 1.368 . S
C1827 C1808 1.429 . S
C1827 C1821 1.429 . S
C1827 C1828 1.523 1_455 S
C1828 C1809 1.368 . S
C1828 C1822 1.368 . S
C1828 C1827 1.523 1_655 S
C1829 C1813 1.429 . S
C1829 C1825 1.429 . S
C1829 C1830 1.523 . S
C1830 C1814 1.368 . S
C1830 C1826 1.368 . S
C1830 C1829 1.523 . S
H1831 C1806 0.950 . S
H1832 C1808 0.950 . S
H1833 C1809 0.949 . S
H1834 C1811 0.950 . S
H1835 C1813 0.950 . S
C1836 C1837 1.349 . S
C1836 C1838 1.327 . S
C1836 H1861 0.950 . S
C1837 C1836 1.349 . S
C1837 C1853 1.349 . S
C1838 C1836 1.327 . S
C1838 C1857 1.429 . S
C1838 H1862 0.950 . S
C1839 C1856 1.574 . S
C1839 C1858 1.368 . S
C1839 H1863 0.949 . S
H1840 C1844 0.949 . S
C1841 C1842 1.349 . S
C1841 C1843 1.327 . S
C1841 H1864 0.950 . S
C1842 C1841 1.349 . S
C1842 C1854 1.349 . S
C1843 C1841 1.327 . S
C1843 C1859 1.429 . S
C1843 H1865 0.950 . S
C1844 H1840 0.949 . S
C1844 C1852 1.574 . S
C1844 C1860 1.368 . S
H1845 C1853 0.950 . S
H1846 C1851 0.950 . S
H1847 C1852 0.949 . S
H1848 C1854 0.950 . S
H1849 C1855 0.950 . S
H1850 C1856 0.949 . S
C1851 H1846 0.950 . S
C1851 C1853 1.327 . S
C1851 C1857 1.429 . S
C1852 C1844 1.574 . S
C1852 H1847 0.949 . S
C1852 C1858 1.368 . S
C1853 C1837 1.349 . S
C1853 H1845 0.950 . S
C1853 C1851 1.327 . S
C1854 C1842 1.349 . S
C1854 H1848 0.950 . S
C1854 C1855 1.327 . S
C1855 H1849 0.950 . S
C1855 C1854 1.327 . S
C1855 C1859 1.429 . S
C1856 C1839 1.574 . S
C1856 H1850 0.949 . S
C1856 C1860 1.368 . S
C1857 C1838 1.429 . S
C1857 C1851 1.429 . S
C1857 C1858 1.523 . S
C1858 C1839 1.368 . S
C1858 C1852 1.368 . S
C1858 C1857 1.523 . S
C1859 C1843 1.429 . S
C1859 C1855 1.429 . S
C1859 C1860 1.523 . S
C1860 C1844 1.368 . S
C1860 C1856 1.368 . S
C1860 C1859 1.523 . S
H1861 C1836 0.950 . S
H1862 C1838 0.950 . S
H1863 C1839 0.949 . S
H1864 C1841 0.950 . S
H1865 C1843 0.950 . S
C1866 C1867 1.349 . S
C1866 C1868 1.327 . S
C1866 H1891 0.950 . S
C1867 C1866 1.349 . S
C1867 C1883 1.349 . S
C1868 C1866 1.327 . S
C1868 C1887 1.429 . S
C1868 H1892 0.950 . S
C1869 C1886 1.574 . S
C1869 C1888 1.368 . S
C1869 H1893 0.949 . S
H1870 C1874 0.949 . S
C1871 C1872 1.349 . S
C1871 C1873 1.327 . S
C1871 H1894 0.950 . S
C1872 C1871 1.349 . S
C1872 C1884 1.349 . S
C1873 C1871 1.327 . S
C1873 C1889 1.429 . S
C1873 H1895 0.950 . S
C1874 H1870 0.949 . S
C1874 C1882 1.574 . S
C1874 C1890 1.368 . S
H1875 C1883 0.950 . S
H1876 C1881 0.950 . S
H1877 C1882 0.949 . S
H1878 C1884 0.950 . S
H1879 C1885 0.950 . S
H1880 C1886 0.949 . S
C1881 H1876 0.950 . S
C1881 C1883 1.327 . S
C1881 C1887 1.429 . S
C1882 C1874 1.574 . S
C1882 H1877 0.949 . S
C1882 C1888 1.368 . S
C1883 C1867 1.349 . S
C1883 H1875 0.950 . S
C1883 C1881 1.327 . S
C1884 C1872 1.349 . S
C1884 H1878 0.950 . S
C1884 C1885 1.327 . S
C1885 H1879 0.950 . S
C1885 C1884 1.327 . S
C1885 C1889 1.429 . S
C1886 C1869 1.574 . S
C1886 H1880 0.949 . S
C1886 C1890 1.368 . S
C1887 C1868 1.429 . S
C1887 C1881 1.429 . S
C1887 C1888 1.523 . S
C1888 C1869 1.368 . S
C1888 C1882 1.368 . S
C1888 C1887 1.523 . S
C1889 C1873 1.429 . S
C1889 C1885 1.429 . S
C1889 C1890 1.523 . S
C1890 C1874 1.368 . S
C1890 C1886 1.368 . S
C1890 C1889 1.523 . S
H1891 C1866 0.950 . S
H1892 C1868 0.950 . S
H1893 C1869 0.949 . S
H1894 C1871 0.950 . S
H1895 C1873 0.950 . S
C1896 C1897 1.349 . S
C1896 C1898 1.327 . S
C1896 H1921 0.950 . S
C1897 C1896 1.349 . S
C1897 C1913 1.349 . S
C1898 C1896 1.327 . S
C1898 C1917 1.429 . S
C1898 H1922 0.950 . S
C1899 C1916 1.574 . S
C1899 C1918 1.368 . S
C1899 H1923 0.949 . S
H1900 C1904 0.949 . S
C1901 C1902 1.349 . S
C1901 C1903 1.327 . S
C1901 H1924 0.950 . S
C1902 C1901 1.349 . S
C1902 C1914 1.349 . S
C1903 C1901 1.327 . S
C1903 C1919 1.429 . S
C1903 H1925 0.950 . S
C1904 H1900 0.949 . S
C1904 C1912 1.574 . S
C1904 C1920 1.368 . S
H1905 C1913 0.950 . S
H1906 C1911 0.950 . S
H1907 C1912 0.949 . S
H1908 C1914 0.950 . S
H1909 C1915 0.950 . S
H1910 C1916 0.949 . S
C1911 H1906 0.950 . S
C1911 C1913 1.327 . S
C1911 C1917 1.429 . S
C1912 C1904 1.574 . S
C1912 H1907 0.949 . S
C1912 C1918 1.368 . S
C1913 C1897 1.349 . S
C1913 H1905 0.950 . S
C1913 C1911 1.327 . S
C1914 C1902 1.349 . S
C1914 H1908 0.950 . S
C1914 C1915 1.327 . S
C1915 H1909 0.950 . S
C1915 C1914 1.327 . S
C1915 C1919 1.429 . S
C1916 C1899 1.574 . S
C1916 H1910 0.949 . S
C1916 C1920 1.368 . S
C1917 C1898 1.429 . S
C1917 C1911 1.429 . S
C1917 C1918 1.523 . S
C1918 C1899 1.368 . S
C1918 C1912 1.368 . S
C1918 C1917 1.523 . S
C1919 C1903 1.429 . S
C1919 C1915 1.429 . S
C1919 C1920 1.523 . S
C1920 C1904 1.368 . S
C1920 C1916 1.368 . S
C1920 C1919 1.523 . S
H1921 C1896 0.950 . S
H1922 C1898 0.950 . S
H1923 C1899 0.949 . S
H1924 C1901 0.950 . S
H1925 C1903 0.950 . S
C1926 C1927 1.349 . S
C1926 C1928 1.327 . S
C1926 H1951 0.950 . S
C1927 C1926 1.349 . S
C1927 C1943 1.349 . S
C1928 C1926 1.327 . S
C1928 C1947 1.429 . S
C1928 H1952 0.950 . S
C1929 C1946 1.574 . S
C1929 C1948 1.368 . S
C1929 H1953 0.949 . S
H1930 C1934 0.949 . S
C1931 C1932 1.349 . S
C1931 C1933 1.327 . S
C1931 H1954 0.950 . S
C1932 C1931 1.349 . S
C1932 C1944 1.349 . S
C1933 C1931 1.327 . S
C1933 C1949 1.429 . S
C1933 H1955 0.950 . S
C1934 H1930 0.949 . S
C1934 C1942 1.574 . S
C1934 C1950 1.368 . S
H1935 C1943 0.950 . S
H1936 C1941 0.950 . S
H1937 C1942 0.949 . S
H1938 C1944 0.950 . S
H1939 C1945 0.950 . S
H1940 C1946 0.949 . S
C1941 H1936 0.950 . S
C1941 C1943 1.327 . S
C1941 C1947 1.429 . S
C1942 C1934 1.574 . S
C1942 H1937 0.949 . S
C1942 C1948 1.368 . S
C1943 C1927 1.349 . S
C1943 H1935 0.950 . S
C1943 C1941 1.327 . S
C1944 C1932 1.349 . S
C1944 H1938 0.950 . S
C1944 C1945 1.327 . S
C1945 H1939 0.950 . S
C1945 C1944 1.327 . S
C1945 C1949 1.429 . S
C1946 C1929 1.574 . S
C1946 H1940 0.949 . S
C1946 C1950 1.368 . S
C1947 C1928 1.429 . S
C1947 C1941 1.429 . S
C1947 C1948 1.523 . S
C1948 C1929 1.368 . S
C1948 C1942 1.368 . S
C1948 C1947 1.523 . S
C1949 C1933 1.429 . S
C1949 C1945 1.429 . S
C1949 C1950 1.523 . S
C1950 C1934 1.368 . S
C1950 C1946 1.368 . S
C1950 C1949 1.523 . S
H1951 C1926 0.950 . S
H1952 C1928 0.950 . S
H1953 C1929 0.949 . S
H1954 C1931 0.950 . S
H1955 C1933 0.950 . S
C1956 C1957 1.349 . S
C1956 C1958 1.327 . S
C1956 H1981 0.950 . S
C1957 C1956 1.349 . S
C1957 C1973 1.349 . S
C1958 C1956 1.327 . S
C1958 C1977 1.429 . S
C1958 H1982 0.950 . S
C1959 C1976 1.574 . S
C1959 C1978 1.368 . S
C1959 H1983 0.949 . S
H1960 C1964 0.949 . S
C1961 C1962 1.349 . S
C1961 C1963 1.327 . S
C1961 H1984 0.950 . S
C1962 C1961 1.349 . S
C1962 C1974 1.349 . S
C1963 C1961 1.327 . S
C1963 C1979 1.429 . S
C1963 H1985 0.950 . S
C1964 H1960 0.949 . S
C1964 C1972 1.574 . S
C1964 C1980 1.368 . S
H1965 C1973 0.950 . S
H1966 C1971 0.950 . S
H1967 C1972 0.949 . S
H1968 C1974 0.950 . S
H1969 C1975 0.950 . S
H1970 C1976 0.949 . S
C1971 H1966 0.950 . S
C1971 C1973 1.327 . S
C1971 C1977 1.429 . S
C1972 C1964 1.574 . S
C1972 H1967 0.949 . S
C1972 C1978 1.368 . S
C1973 C1957 1.349 . S
C1973 H1965 0.950 . S
C1973 C1971 1.327 . S
C1974 C1962 1.349 . S
C1974 H1968 0.950 . S
C1974 C1975 1.327 . S
C1975 H1969 0.950 . S
C1975 C1974 1.327 . S
C1975 C1979 1.429 . S
C1976 C1959 1.574 . S
C1976 H1970 0.949 . S
C1976 C1980 1.368 . S
C1977 C1958 1.429 . S
C1977 C1971 1.429 . S
C1977 C1978 1.523 . S
C1978 C1959 1.368 . S
C1978 C1972 1.368 . S
C1978 C1977 1.523 . S
C1979 C1963 1.429 . S
C1979 C1975 1.429 . S
C1979 C1980 1.523 . S
C1980 C1964 1.368 . S
C1980 C1976 1.368 . S
C1980 C1979 1.523 . S
H1981 C1956 0.950 . S
H1982 C1958 0.950 . S
H1983 C1959 0.949 . S
H1984 C1961 0.950 . S
H1985 C1963 0.950 . S
C1986 C1987 1.349 . S
C1986 C1988 1.327 . S
C1986 H2011 0.950 . S
C1987 C1986 1.349 . S
C1987 C2003 1.349 . S
C1988 C1986 1.327 . S
C1988 C2007 1.429 . S
C1988 H2012 0.950 . S
C1989 C2006 1.574 . S
C1989 C2008 1.368 . S
C1989 H2013 0.949 . S
H1990 C1994 0.949 . S
C1991 C1992 1.349 . S
C1991 C1993 1.327 . S
C1991 H2014 0.950 . S
C1992 C1991 1.349 . S
C1992 C2004 1.349 . S
C1993 C1991 1.327 . S
C1993 C2009 1.429 . S
C1993 H2015 0.950 . S
C1994 H1990 0.949 . S
C1994 C2002 1.574 . S
C1994 C2010 1.368 . S
H1995 C2003 0.950 . S
H1996 C2001 0.950 . S
H1997 C2002 0.949 . S
H1998 C2004 0.950 . S
H1999 C2005 0.950 . S
H2000 C2006 0.949 . S
C2001 H1996 0.950 . S
C2001 C2003 1.327 . S
C2001 C2007 1.429 . S
C2002 C1994 1.574 . S
C2002 H1997 0.949 . S
C2002 C2008 1.368 . S
C2003 C1987 1.349 . S
C2003 H1995 0.950 . S
C2003 C2001 1.327 . S
C2004 C1992 1.349 . S
C2004 H1998 0.950 . S
C2004 C2005 1.327 . S
C2005 H1999 0.950 . S
C2005 C2004 1.327 . S
C2005 C2009 1.429 . S
C2006 C1989 1.574 . S
C2006 H2000 0.949 . S
C2006 C2010 1.368 . S
C2007 C1988 1.429 . S
C2007 C2001 1.429 . S
C2007 C2008 1.523 . S
C2008 C1989 1.368 . S
C2008 C2002 1.368 . S
C2008 C2007 1.523 . S
C2009 C1993 1.429 . S
C2009 C2005 1.429 . S
C2009 C2010 1.523 1_455 S
C2010 C1994 1.368 . S
C2010 C2006 1.368 . S
C2010 C2009 1.523 1_655 S
H2011 C1986 0.950 . S
H2012 C1988 0.950 . S
H2013 C1989 0.949 . S
H2014 C1991 0.950 . S
H2015 C1993 0.950 . S
C2016 C2017 1.349 . S
C2016 C2018 1.327 . S
C2016 H2041 0.950 . S
C2017 C2016 1.349 . S
C2017 C2033 1.349 . S
C2018 C2016 1.327 . S
C2018 C2037 1.429 . S
C2018 H2042 0.950 . S
C2019 C2036 1.574 . S
C2019 C2038 1.368 . S
C2019 H2043 0.949 . S
H2020 C2024 0.949 . S
C2021 C2022 1.349 . S
C2021 C2023 1.327 . S
C2021 H2044 0.950 . S
C2022 C2021 1.349 . S
C2022 C2034 1.349 . S
C2023 C2021 1.327 . S
C2023 C2039 1.429 . S
C2023 H2045 0.950 . S
C2024 H2020 0.949 . S
C2024 C2032 1.574 . S
C2024 C2040 1.368 . S
H2025 C2033 0.950 . S
H2026 C2031 0.950 . S
H2027 C2032 0.949 . S
H2028 C2034 0.950 . S
H2029 C2035 0.950 . S
H2030 C2036 0.949 . S
C2031 H2026 0.950 . S
C2031 C2033 1.327 . S
C2031 C2037 1.429 . S
C2032 C2024 1.574 . S
C2032 H2027 0.949 . S
C2032 C2038 1.368 . S
C2033 C2017 1.349 . S
C2033 H2025 0.950 . S
C2033 C2031 1.327 . S
C2034 C2022 1.349 . S
C2034 H2028 0.950 . S
C2034 C2035 1.327 . S
C2035 H2029 0.950 . S
C2035 C2034 1.327 . S
C2035 C2039 1.429 . S
C2036 C2019 1.574 . S
C2036 H2030 0.949 . S
C2036 C2040 1.368 . S
C2037 C2018 1.429 . S
C2037 C2031 1.429 . S
C2037 C2038 1.523 . S
C2038 C2019 1.368 . S
C2038 C2032 1.368 . S
C2038 C2037 1.523 . S
C2039 C2023 1.429 . S
C2039 C2035 1.429 . S
C2039 C2040 1.523 . S
C2040 C2024 1.368 . S
C2040 C2036 1.368 . S
C2040 C2039 1.523 . S
H2041 C2016 0.950 . S
H2042 C2018 0.950 . S
H2043 C2019 0.949 . S
H2044 C2021 0.950 . S
H2045 C2023 0.950 . S
C2046 C2047 1.349 . S
C2046 C2048 1.327 . S
C2046 H2071 0.950 . S
C2047 C2046 1.349 . S
C2047 C2063 1.349 . S
C2048 C2046 1.327 . S
C2048 C2067 1.429 . S
C2048 H2072 0.950 . S
C2049 C2066 1.574 . S
C2049 C2068 1.368 . S
C2049 H2073 0.949 . S
H2050 C2054 0.949 . S
C2051 C2052 1.349 . S
C2051 C2053 1.327 . S
C2051 H2074 0.950 . S
C2052 C2051 1.349 . S
C2052 C2064 1.349 . S
C2053 C2051 1.327 . S
C2053 C2069 1.429 . S
C2053 H2075 0.950 . S
C2054 H2050 0.949 . S
C2054 C2062 1.574 . S
C2054 C2070 1.368 . S
H2055 C2063 0.950 . S
H2056 C2061 0.950 . S
H2057 C2062 0.949 . S
H2058 C2064 0.950 . S
H2059 C2065 0.950 . S
H2060 C2066 0.949 . S
C2061 H2056 0.950 . S
C2061 C2063 1.327 . S
C2061 C2067 1.429 . S
C2062 C2054 1.574 . S
C2062 H2057 0.949 . S
C2062 C2068 1.368 . S
C2063 C2047 1.349 . S
C2063 H2055 0.950 . S
C2063 C2061 1.327 . S
C2064 C2052 1.349 . S
C2064 H2058 0.950 . S
C2064 C2065 1.327 . S
C2065 H2059 0.950 . S
C2065 C2064 1.327 . S
C2065 C2069 1.429 . S
C2066 C2049 1.574 . S
C2066 H2060 0.949 . S
C2066 C2070 1.368 . S
C2067 C2048 1.429 . S
C2067 C2061 1.429 . S
C2067 C2068 1.523 . S
C2068 C2049 1.368 . S
C2068 C2062 1.368 . S
C2068 C2067 1.523 . S
C2069 C2053 1.429 . S
C2069 C2065 1.429 . S
C2069 C2070 1.523 . S
C2070 C2054 1.368 . S
C2070 C2066 1.368 . S
C2070 C2069 1.523 . S
H2071 C2046 0.950 . S
H2072 C2048 0.950 . S
H2073 C2049 0.949 . S
H2074 C2051 0.950 . S
H2075 C2053 0.950 . S
C2076 C2077 1.349 . S
C2076 C2078 1.327 . S
C2076 H2101 0.950 . S
C2077 C2076 1.349 . S
C2077 C2093 1.349 . S
C2078 C2076 1.327 . S
C2078 C2097 1.429 . S
C2078 H2102 0.950 . S
C2079 C2096 1.574 . S
C2079 C2098 1.368 . S
C2079 H2103 0.949 . S
H2080 C2084 0.949 . S
C2081 C2082 1.349 . S
C2081 C2083 1.327 . S
C2081 H2104 0.950 . S
C2082 C2081 1.349 . S
C2082 C2094 1.349 . S
C2083 C2081 1.327 . S
C2083 C2099 1.429 . S
C2083 H2105 0.950 . S
C2084 H2080 0.949 . S
C2084 C2092 1.574 . S
C2084 C2100 1.368 . S
H2085 C2093 0.950 . S
H2086 C2091 0.950 . S
H2087 C2092 0.949 . S
H2088 C2094 0.950 . S
H2089 C2095 0.950 . S
H2090 C2096 0.949 . S
C2091 H2086 0.950 . S
C2091 C2093 1.327 . S
C2091 C2097 1.429 . S
C2092 C2084 1.574 . S
C2092 H2087 0.949 . S
C2092 C2098 1.368 . S
C2093 C2077 1.349 . S
C2093 H2085 0.950 . S
C2093 C2091 1.327 . S
C2094 C2082 1.349 . S
C2094 H2088 0.950 . S
C2094 C2095 1.327 . S
C2095 H2089 0.950 . S
C2095 C2094 1.327 . S
C2095 C2099 1.429 . S
C2096 C2079 1.574 . S
C2096 H2090 0.949 . S
C2096 C2100 1.368 . S
C2097 C2078 1.429 . S
C2097 C2091 1.429 . S
C2097 C2098 1.523 . S
C2098 C2079 1.368 . S
C2098 C2092 1.368 . S
C2098 C2097 1.523 . S
C2099 C2083 1.429 . S
C2099 C2095 1.429 . S
C2099 C2100 1.523 . S
C2100 C2084 1.368 . S
C2100 C2096 1.368 . S
C2100 C2099 1.523 . S
H2101 C2076 0.950 . S
H2102 C2078 0.950 . S
H2103 C2079 0.949 . S
H2104 C2081 0.950 . S
H2105 C2083 0.950 . S
C2106 C2107 1.349 . S
C2106 C2108 1.327 . S
C2106 H2131 0.950 . S
C2107 C2106 1.349 . S
C2107 C2123 1.349 . S
C2108 C2106 1.327 . S
C2108 C2127 1.429 . S
C2108 H2132 0.950 . S
C2109 C2126 1.574 . S
C2109 C2128 1.368 . S
C2109 H2133 0.949 . S
H2110 C2114 0.949 . S
C2111 C2112 1.349 . S
C2111 C2113 1.327 . S
C2111 H2134 0.950 . S
C2112 C2111 1.349 . S
C2112 C2124 1.349 . S
C2113 C2111 1.327 . S
C2113 C2129 1.429 . S
C2113 H2135 0.950 . S
C2114 H2110 0.949 . S
C2114 C2122 1.574 . S
C2114 C2130 1.368 . S
H2115 C2123 0.950 . S
H2116 C2121 0.950 . S
H2117 C2122 0.949 . S
H2118 C2124 0.950 . S
H2119 C2125 0.950 . S
H2120 C2126 0.949 . S
C2121 H2116 0.950 . S
C2121 C2123 1.327 . S
C2121 C2127 1.429 . S
C2122 C2114 1.574 . S
C2122 H2117 0.949 . S
C2122 C2128 1.368 . S
C2123 C2107 1.349 . S
C2123 H2115 0.950 . S
C2123 C2121 1.327 . S
C2124 C2112 1.349 . S
C2124 H2118 0.950 . S
C2124 C2125 1.327 . S
C2125 H2119 0.950 . S
C2125 C2124 1.327 . S
C2125 C2129 1.429 . S
C2126 C2109 1.574 . S
C2126 H2120 0.949 . S
C2126 C2130 1.368 . S
C2127 C2108 1.429 . S
C2127 C2121 1.429 . S
C2127 C2128 1.523 . S
C2128 C2109 1.368 . S
C2128 C2122 1.368 . S
C2128 C2127 1.523 . S
C2129 C2113 1.429 . S
C2129 C2125 1.429 . S
C2129 C2130 1.523 1_556 S
C2130 C2114 1.368 . S
C2130 C2126 1.368 . S
C2130 C2129 1.523 1_554 S
H2131 C2106 0.950 . S
H2132 C2108 0.950 . S
H2133 C2109 0.949 . S
H2134 C2111 0.950 . S
H2135 C2113 0.950 . S
C2136 C2137 1.349 . S
C2136 C2138 1.327 . S
C2136 H2161 0.950 . S
C2137 C2136 1.349 . S
C2137 C2153 1.349 . S
C2138 C2136 1.327 . S
C2138 C2157 1.429 . S
C2138 H2162 0.950 . S
C2139 C2156 1.574 . S
C2139 C2158 1.368 . S
C2139 H2163 0.949 . S
H2140 C2144 0.949 . S
C2141 C2142 1.349 . S
C2141 C2143 1.327 . S
C2141 H2164 0.950 . S
C2142 C2141 1.349 . S
C2142 C2154 1.349 . S
C2143 C2141 1.327 . S
C2143 C2159 1.429 . S
C2143 H2165 0.950 . S
C2144 H2140 0.949 . S
C2144 C2152 1.574 . S
C2144 C2160 1.368 . S
H2145 C2153 0.950 . S
H2146 C2151 0.950 . S
H2147 C2152 0.949 . S
H2148 C2154 0.950 . S
H2149 C2155 0.950 . S
H2150 C2156 0.949 . S
C2151 H2146 0.950 . S
C2151 C2153 1.327 . S
C2151 C2157 1.429 . S
C2152 C2144 1.574 . S
C2152 H2147 0.949 . S
C2152 C2158 1.368 . S
C2153 C2137 1.349 . S
C2153 H2145 0.950 . S
C2153 C2151 1.327 . S
C2154 C2142 1.349 . S
C2154 H2148 0.950 . S
C2154 C2155 1.327 . S
C2155 H2149 0.950 . S
C2155 C2154 1.327 . S
C2155 C2159 1.429 . S
C2156 C2139 1.574 . S
C2156 H2150 0.949 . S
C2156 C2160 1.368 . S
C2157 C2138 1.429 . S
C2157 C2151 1.429 . S
C2157 C2158 1.523 . S
C2158 C2139 1.368 . S
C2158 C2152 1.368 . S
C2158 C2157 1.523 . S
C2159 C2143 1.429 . S
C2159 C2155 1.429 . S
C2159 C2160 1.523 . S
C2160 C2144 1.368 . S
C2160 C2156 1.368 . S
C2160 C2159 1.523 . S
H2161 C2136 0.950 . S
H2162 C2138 0.950 . S
H2163 C2139 0.949 . S
H2164 C2141 0.950 . S
H2165 C2143 0.950 . S
C2166 C2167 1.349 . S
C2166 C2168 1.327 . S
C2166 H2191 0.950 . S
C2167 C2166 1.349 . S
C2167 C2183 1.349 . S
C2168 C2166 1.327 . S
C2168 C2187 1.429 . S
C2168 H2192 0.950 . S
C2169 C2186 1.574 . S
C2169 C2188 1.368 . S
C2169 H2193 0.949 . S
H2170 C2174 0.949 . S
C2171 C2172 1.349 . S
C2171 C2173 1.327 . S
C2171 H2194 0.950 . S
C2172 C2171 1.349 . S
C2172 C2184 1.349 . S
C2173 C2171 1.327 . S
C2173 C2189 1.429 . S
C2173 H2195 0.950 . S
C2174 H2170 0.949 . S
C2174 C2182 1.574 . S
C2174 C2190 1.368 . S
H2175 C2183 0.950 . S
H2176 C2181 0.950 . S
H2177 C2182 0.949 . S
H2178 C2184 0.950 . S
H2179 C2185 0.950 . S
H2180 C2186 0.949 . S
C2181 H2176 0.950 . S
C2181 C2183 1.327 . S
C2181 C2187 1.429 . S
C2182 C2174 1.574 . S
C2182 H2177 0.949 . S
C2182 C2188 1.368 . S
C2183 C2167 1.349 . S
C2183 H2175 0.950 . S
C2183 C2181 1.327 . S
C2184 C2172 1.349 . S
C2184 H2178 0.950 . S
C2184 C2185 1.327 . S
C2185 H2179 0.950 . S
C2185 C2184 1.327 . S
C2185 C2189 1.429 . S
C2186 C2169 1.574 . S
C2186 H2180 0.949 . S
C2186 C2190 1.368 . S
C2187 C2168 1.429 . S
C2187 C2181 1.429 . S
C2187 C2188 1.523 . S
C2188 C2169 1.368 . S
C2188 C2182 1.368 . S
C2188 C2187 1.523 . S
C2189 C2173 1.429 . S
C2189 C2185 1.429 . S
C2189 C2190 1.523 . S
C2190 C2174 1.368 . S
C2190 C2186 1.368 . S
C2190 C2189 1.523 . S
H2191 C2166 0.950 . S
H2192 C2168 0.950 . S
H2193 C2169 0.949 . S
H2194 C2171 0.950 . S
H2195 C2173 0.950 . S
C2196 C2197 1.349 . S
C2196 C2198 1.327 . S
C2196 H2221 0.950 . S
C2197 C2196 1.349 . S
C2197 C2213 1.349 . S
C2198 C2196 1.327 . S
C2198 C2217 1.429 . S
C2198 H2222 0.950 . S
C2199 C2216 1.574 . S
C2199 C2218 1.368 . S
C2199 H2223 0.949 . S
H2200 C2204 0.949 . S
C2201 C2202 1.349 . S
C2201 C2203 1.327 . S
C2201 H2224 0.950 . S
C2202 C2201 1.349 . S
C2202 C2214 1.349 . S
C2203 C2201 1.327 . S
C2203 C2219 1.429 . S
C2203 H2225 0.950 . S
C2204 H2200 0.949 . S
C2204 C2212 1.574 . S
C2204 C2220 1.368 . S
H2205 C2213 0.950 . S
H2206 C2211 0.950 . S
H2207 C2212 0.949 . S
H2208 C2214 0.950 . S
H2209 C2215 0.950 . S
H2210 C2216 0.949 . S
C2211 H2206 0.950 . S
C2211 C2213 1.327 . S
C2211 C2217 1.429 . S
C2212 C2204 1.574 . S
C2212 H2207 0.949 . S
C2212 C2218 1.368 . S
C2213 C2197 1.349 . S
C2213 H2205 0.950 . S
C2213 C2211 1.327 . S
C2214 C2202 1.349 . S
C2214 H2208 0.950 . S
C2214 C2215 1.327 . S
C2215 H2209 0.950 . S
C2215 C2214 1.327 . S
C2215 C2219 1.429 . S
C2216 C2199 1.574 . S
C2216 H2210 0.949 . S
C2216 C2220 1.368 . S
C2217 C2198 1.429 . S
C2217 C2211 1.429 . S
C2217 C2218 1.523 . S
C2218 C2199 1.368 . S
C2218 C2212 1.368 . S
C2218 C2217 1.523 . S
C2219 C2203 1.429 . S
C2219 C2215 1.429 . S
C2219 C2220 1.523 . S
C2220 C2204 1.368 . S
C2220 C2216 1.368 . S
C2220 C2219 1.523 . S
H2221 C2196 0.950 . S
H2222 C2198 0.950 . S
H2223 C2199 0.949 . S
H2224 C2201 0.950 . S
H2225 C2203 0.950 . S
C2226 C2227 1.349 . S
C2226 C2228 1.327 . S
C2226 H2251 0.950 . S
C2227 C2226 1.349 . S
C2227 C2243 1.349 . S
C2228 C2226 1.327 . S
C2228 C2247 1.429 . S
C2228 H2252 0.950 . S
C2229 C2246 1.574 . S
C2229 C2248 1.368 . S
C2229 H2253 0.949 . S
H2230 C2234 0.949 . S
C2231 C2232 1.349 . S
C2231 C2233 1.327 . S
C2231 H2254 0.950 . S
C2232 C2231 1.349 . S
C2232 C2244 1.349 . S
C2233 C2231 1.327 . S
C2233 C2249 1.429 . S
C2233 H2255 0.950 . S
C2234 H2230 0.949 . S
C2234 C2242 1.574 . S
C2234 C2250 1.368 . S
H2235 C2243 0.950 . S
H2236 C2241 0.950 . S
H2237 C2242 0.949 . S
H2238 C2244 0.950 . S
H2239 C2245 0.950 . S
H2240 C2246 0.949 . S
C2241 H2236 0.950 . S
C2241 C2243 1.327 . S
C2241 C2247 1.429 . S
C2242 C2234 1.574 . S
C2242 H2237 0.949 . S
C2242 C2248 1.368 . S
C2243 C2227 1.349 . S
C2243 H2235 0.950 . S
C2243 C2241 1.327 . S
C2244 C2232 1.349 . S
C2244 H2238 0.950 . S
C2244 C2245 1.327 . S
C2245 H2239 0.950 . S
C2245 C2244 1.327 . S
C2245 C2249 1.429 . S
C2246 C2229 1.574 . S
C2246 H2240 0.949 . S
C2246 C2250 1.368 . S
C2247 C2228 1.429 . S
C2247 C2241 1.429 . S
C2247 C2248 1.523 . S
C2248 C2229 1.368 . S
C2248 C2242 1.368 . S
C2248 C2247 1.523 . S
C2249 C2233 1.429 . S
C2249 C2245 1.429 . S
C2249 C2250 1.523 1_556 S
C2250 C2234 1.368 . S
C2250 C2246 1.368 . S
C2250 C2249 1.523 1_554 S
H2251 C2226 0.950 . S
H2252 C2228 0.950 . S
H2253 C2229 0.949 . S
H2254 C2231 0.950 . S
H2255 C2233 0.950 . S
C2256 C2257 1.349 . S
C2256 C2258 1.327 . S
C2256 H2281 0.950 . S
C2257 C2256 1.349 . S
C2257 C2273 1.349 . S
C2258 C2256 1.327 . S
C2258 C2277 1.429 . S
C2258 H2282 0.950 . S
C2259 C2276 1.574 . S
C2259 C2278 1.368 . S
C2259 H2283 0.949 . S
H2260 C2264 0.949 . S
C2261 C2262 1.349 . S
C2261 C2263 1.327 . S
C2261 H2284 0.950 . S
C2262 C2261 1.349 . S
C2262 C2274 1.349 . S
C2263 C2261 1.327 . S
C2263 C2279 1.429 . S
C2263 H2285 0.950 . S
C2264 H2260 0.949 . S
C2264 C2272 1.574 . S
C2264 C2280 1.368 . S
H2265 C2273 0.950 . S
H2266 C2271 0.950 . S
H2267 C2272 0.949 . S
H2268 C2274 0.950 . S
H2269 C2275 0.950 . S
H2270 C2276 0.949 . S
C2271 H2266 0.950 . S
C2271 C2273 1.327 . S
C2271 C2277 1.429 . S
C2272 C2264 1.574 . S
C2272 H2267 0.949 . S
C2272 C2278 1.368 . S
C2273 C2257 1.349 . S
C2273 H2265 0.950 . S
C2273 C2271 1.327 . S
C2274 C2262 1.349 . S
C2274 H2268 0.950 . S
C2274 C2275 1.327 . S
C2275 H2269 0.950 . S
C2275 C2274 1.327 . S
C2275 C2279 1.429 . S
C2276 C2259 1.574 . S
C2276 H2270 0.949 . S
C2276 C2280 1.368 . S
C2277 C2258 1.429 . S
C2277 C2271 1.429 . S
C2277 C2278 1.523 . S
C2278 C2259 1.368 . S
C2278 C2272 1.368 . S
C2278 C2277 1.523 . S
C2279 C2263 1.429 . S
C2279 C2275 1.429 . S
C2279 C2280 1.523 . S
C2280 C2264 1.368 . S
C2280 C2276 1.368 . S
C2280 C2279 1.523 . S
H2281 C2256 0.950 . S
H2282 C2258 0.950 . S
H2283 C2259 0.949 . S
H2284 C2261 0.950 . S
H2285 C2263 0.950 . S
C2286 C2287 1.349 . S
C2286 C2288 1.327 . S
C2286 H2311 0.950 . S
C2287 C2286 1.349 . S
C2287 C2303 1.349 . S
C2288 C2286 1.327 . S
C2288 C2307 1.429 . S
C2288 H2312 0.950 . S
C2289 C2306 1.574 . S
C2289 C2308 1.368 . S
C2289 H2313 0.949 . S
H2290 C2294 0.949 . S
C2291 C2292 1.349 . S
C2291 C2293 1.327 . S
C2291 H2314 0.950 . S
C2292 C2291 1.349 . S
C2292 C2304 1.349 . S
C2293 C2291 1.327 . S
C2293 C2309 1.429 . S
C2293 H2315 0.950 . S
C2294 H2290 0.949 . S
C2294 C2302 1.574 . S
C2294 C2310 1.368 . S
H2295 C2303 0.950 . S
H2296 C2301 0.950 . S
H2297 C2302 0.949 . S
H2298 C2304 0.950 . S
H2299 C2305 0.950 . S
H2300 C2306 0.949 . S
C2301 H2296 0.950 . S
C2301 C2303 1.327 . S
C2301 C2307 1.429 . S
C2302 C2294 1.574 . S
C2302 H2297 0.949 . S
C2302 C2308 1.368 . S
C2303 C2287 1.349 . S
C2303 H2295 0.950 . S
C2303 C2301 1.327 . S
C2304 C2292 1.349 . S
C2304 H2298 0.950 . S
C2304 C2305 1.327 . S
C2305 H2299 0.950 . S
C2305 C2304 1.327 . S
C2305 C2309 1.429 . S
C2306 C2289 1.574 . S
C2306 H2300 0.949 . S
C2306 C2310 1.368 . S
C2307 C2288 1.429 . S
C2307 C2301 1.429 . S
C2307 C2308 1.523 . S
C2308 C2289 1.368 . S
C2308 C2302 1.368 . S
C2308 C2307 1.523 . S
C2309 C2293 1.429 . S
C2309 C2305 1.429 . S
C2309 C2310 1.523 . S
C2310 C2294 1.368 . S
C2310 C2306 1.368 . S
C2310 C2309 1.523 . S
H2311 C2286 0.950 . S
H2312 C2288 0.950 . S
H2313 C2289 0.949 . S
H2314 C2291 0.950 . S
H2315 C2293 0.950 . S
C2316 C2317 1.349 . S
C2316 C2318 1.327 . S
C2316 H2341 0.950 . S
C2317 C2316 1.349 . S
C2317 C2333 1.349 . S
C2318 C2316 1.327 . S
C2318 C2337 1.429 . S
C2318 H2342 0.950 . S
C2319 C2336 1.574 . S
C2319 C2338 1.368 . S
C2319 H2343 0.949 . S
H2320 C2324 0.949 . S
C2321 C2322 1.349 . S
C2321 C2323 1.327 . S
C2321 H2344 0.950 . S
C2322 C2321 1.349 . S
C2322 C2334 1.349 . S
C2323 C2321 1.327 . S
C2323 C2339 1.429 . S
C2323 H2345 0.950 . S
C2324 H2320 0.949 . S
C2324 C2332 1.574 . S
C2324 C2340 1.368 . S
H2325 C2333 0.950 . S
H2326 C2331 0.950 . S
H2327 C2332 0.949 . S
H2328 C2334 0.950 . S
H2329 C2335 0.950 . S
H2330 C2336 0.949 . S
C2331 H2326 0.950 . S
C2331 C2333 1.327 . S
C2331 C2337 1.429 . S
C2332 C2324 1.574 . S
C2332 H2327 0.949 . S
C2332 C2338 1.368 . S
C2333 C2317 1.349 . S
C2333 H2325 0.950 . S
C2333 C2331 1.327 . S
C2334 C2322 1.349 . S
C2334 H2328 0.950 . S
C2334 C2335 1.327 . S
C2335 H2329 0.950 . S
C2335 C2334 1.327 . S
C2335 C2339 1.429 . S
C2336 C2319 1.574 . S
C2336 H2330 0.949 . S
C2336 C2340 1.368 . S
C2337 C2318 1.429 . S
C2337 C2331 1.429 . S
C2337 C2338 1.523 . S
C2338 C2319 1.368 . S
C2338 C2332 1.368 . S
C2338 C2337 1.523 . S
C2339 C2323 1.429 . S
C2339 C2335 1.429 . S
C2339 C2340 1.523 . S
C2340 C2324 1.368 . S
C2340 C2336 1.368 . S
C2340 C2339 1.523 . S
H2341 C2316 0.950 . S
H2342 C2318 0.950 . S
H2343 C2319 0.949 . S
H2344 C2321 0.950 . S
H2345 C2323 0.950 . S
C2346 C2347 1.349 . S
C2346 C2348 1.327 . S
C2346 H2371 0.950 . S
C2347 C2346 1.349 . S
C2347 C2363 1.349 . S
C2348 C2346 1.327 . S
C2348 C2367 1.429 . S
C2348 H2372 0.950 . S
C2349 C2366 1.574 . S
C2349 C2368 1.368 . S
C2349 H2373 0.949 . S
H2350 C2354 0.949 . S
C2351 C2352 1.349 . S
C2351 C2353 1.327 . S
C2351 H2374 0.950 . S
C2352 C2351 1.349 . S
C2352 C2364 1.349 . S
C2353 C2351 1.327 . S
C2353 C2369 1.429 . S
C2353 H2375 0.950 . S
C2354 H2350 0.949 . S
C2354 C2362 1.574 . S
C2354 C2370 1.368 . S
H2355 C2363 0.950 . S
H2356 C2361 0.950 . S
H2357 C2362 0.949 . S
H2358 C2364 0.950 . S
H2359 C2365 0.950 . S
H2360 C2366 0.949 . S
C2361 H2356 0.950 . S
C2361 C2363 1.327 . S
C2361 C2367 1.429 . S
C2362 C2354 1.574 . S
C2362 H2357 0.949 . S
C2362 C2368 1.368 . S
C2363 C2347 1.349 . S
C2363 H2355 0.950 . S
C2363 C2361 1.327 . S
C2364 C2352 1.349 . S
C2364 H2358 0.950 . S
C2364 C2365 1.327 . S
C2365 H2359 0.950 . S
C2365 C2364 1.327 . S
C2365 C2369 1.429 . S
C2366 C2349 1.574 . S
C2366 H2360 0.949 . S
C2366 C2370 1.368 . S
C2367 C2348 1.429 . S
C2367 C2361 1.429 . S
C2367 C2368 1.523 . S
C2368 C2349 1.368 . S
C2368 C2362 1.368 . S
C2368 C2367 1.523 . S
C2369 C2353 1.429 . S
C2369 C2365 1.429 . S
C2369 C2370 1.523 . S
C2370 C2354 1.368 . S
C2370 C2366 1.368 . S
C2370 C2369 1.523 . S
H2371 C2346 0.950 . S
H2372 C2348 0.950 . S
H2373 C2349 0.949 . S
H2374 C2351 0.950 . S
H2375 C2353 0.950 . S
C2376 C2377 1.349 . S
C2376 C2378 1.327 . S
C2376 H2401 0.950 . S
C2377 C2376 1.349 . S
C2377 C2393 1.349 . S
C2378 C2376 1.327 . S
C2378 C2397 1.429 . S
C2378 H2402 0.950 . S
C2379 C2396 1.574 . S
C2379 C2398 1.368 . S
C2379 H2403 0.949 . S
H2380 C2384 0.949 1_565 S
C2381 C2382 1.349 . S
C2381 C2383 1.327 . S
C2381 H2404 0.950 . S
C2382 C2381 1.349 . S
C2382 C2394 1.349 . S
C2383 C2381 1.327 . S
C2383 C2399 1.429 . S
C2383 H2405 0.950 . S
C2384 H2380 0.949 1_545 S
C2384 C2392 1.574 . S
C2384 C2400 1.368 1_545 S
H2385 C2393 0.950 . S
H2386 C2391 0.950 . S
H2387 C2392 0.949 . S
H2388 C2394 0.950 . S
H2389 C2395 0.950 . S
H2390 C2396 0.949 1_565 S
C2391 H2386 0.950 . S
C2391 C2393 1.327 . S
C2391 C2397 1.429 . S
C2392 C2384 1.574 . S
C2392 H2387 0.949 . S
C2392 C2398 1.368 . S
C2393 C2377 1.349 . S
C2393 H2385 0.950 . S
C2393 C2391 1.327 . S
C2394 C2382 1.349 . S
C2394 H2388 0.950 . S
C2394 C2395 1.327 . S
C2395 H2389 0.950 . S
C2395 C2394 1.327 . S
C2395 C2399 1.429 . S
C2396 C2379 1.574 . S
C2396 H2390 0.949 1_545 S
C2396 C2400 1.368 1_545 S
C2397 C2378 1.429 . S
C2397 C2391 1.429 . S
C2397 C2398 1.523 . S
C2398 C2379 1.368 . S
C2398 C2392 1.368 . S
C2398 C2397 1.523 . S
C2399 C2383 1.429 . S
C2399 C2395 1.429 . S
C2399 C2400 1.523 . S
C2400 C2384 1.368 1_565 S
C2400 C2396 1.368 1_565 S
C2400 C2399 1.523 . S
H2401 C2376 0.950 . S
H2402 C2378 0.950 . S
H2403 C2379 0.949 . S
H2404 C2381 0.950 . S
H2405 C2383 0.950 . S
C2406 C2407 1.349 . S
C2406 C2408 1.327 . S
C2406 H2431 0.950 . S
C2407 C2406 1.349 . S
C2407 C2423 1.349 . S
C2408 C2406 1.327 . S
C2408 C2427 1.429 . S
C2408 H2432 0.950 . S
C2409 C2426 1.574 . S
C2409 C2428 1.368 . S
C2409 H2433 0.949 . S
H2410 C2414 0.949 . S
C2411 C2412 1.349 . S
C2411 C2413 1.327 . S
C2411 H2434 0.950 . S
C2412 C2411 1.349 . S
C2412 C2424 1.349 . S
C2413 C2411 1.327 . S
C2413 C2429 1.429 . S
C2413 H2435 0.950 . S
C2414 H2410 0.949 . S
C2414 C2422 1.574 . S
C2414 C2430 1.368 . S
H2415 C2423 0.950 . S
H2416 C2421 0.950 . S
H2417 C2422 0.949 . S
H2418 C2424 0.950 . S
H2419 C2425 0.950 . S
H2420 C2426 0.949 . S
C2421 H2416 0.950 . S
C2421 C2423 1.327 . S
C2421 C2427 1.429 . S
C2422 C2414 1.574 . S
C2422 H2417 0.949 . S
C2422 C2428 1.368 . S
C2423 C2407 1.349 . S
C2423 H2415 0.950 . S
C2423 C2421 1.327 . S
C2424 C2412 1.349 . S
C2424 H2418 0.950 . S
C2424 C2425 1.327 . S
C2425 H2419 0.950 . S
C2425 C2424 1.327 . S
C2425 C2429 1.429 . S
C2426 C2409 1.574 . S
C2426 H2420 0.949 . S
C2426 C2430 1.368 . S
C2427 C2408 1.429 . S
C2427 C2421 1.429 . S
C2427 C2428 1.523 . S
C2428 C2409 1.368 . S
C2428 C2422 1.368 . S
C2428 C2427 1.523 . S
C2429 C2413 1.429 . S
C2429 C2425 1.429 . S
C2429 C2430 1.523 . S
C2430 C2414 1.368 . S
C2430 C2426 1.368 . S
C2430 C2429 1.523 . S
H2431 C2406 0.950 . S
H2432 C2408 0.950 . S
H2433 C2409 0.949 . S
H2434 C2411 0.950 . S
H2435 C2413 0.950 . S
C2436 C2437 1.349 . S
C2436 C2438 1.327 . S
C2436 H2461 0.950 . S
C2437 C2436 1.349 . S
C2437 C2453 1.349 . S
C2438 C2436 1.327 . S
C2438 C2457 1.429 . S
C2438 H2462 0.950 . S
C2439 C2456 1.574 . S
C2439 C2458 1.368 . S
C2439 H2463 0.949 . S
H2440 C2444 0.949 . S
C2441 C2442 1.349 . S
C2441 C2443 1.327 . S
C2441 H2464 0.950 . S
C2442 C2441 1.349 . S
C2442 C2454 1.349 . S
C2443 C2441 1.327 . S
C2443 C2459 1.429 . S
C2443 H2465 0.950 . S
C2444 H2440 0.949 . S
C2444 C2452 1.574 . S
C2444 C2460 1.368 . S
H2445 C2453 0.950 . S
H2446 C2451 0.950 . S
H2447 C2452 0.949 . S
H2448 C2454 0.950 . S
H2449 C2455 0.950 . S
H2450 C2456 0.949 . S
C2451 H2446 0.950 . S
C2451 C2453 1.327 . S
C2451 C2457 1.429 . S
C2452 C2444 1.574 . S
C2452 H2447 0.949 . S
C2452 C2458 1.368 . S
C2453 C2437 1.349 . S
C2453 H2445 0.950 . S
C2453 C2451 1.327 . S
C2454 C2442 1.349 . S
C2454 H2448 0.950 . S
C2454 C2455 1.327 . S
C2455 H2449 0.950 . S
C2455 C2454 1.327 . S
C2455 C2459 1.429 . S
C2456 C2439 1.574 . S
C2456 H2450 0.949 . S
C2456 C2460 1.368 . S
C2457 C2438 1.429 . S
C2457 C2451 1.429 . S
C2457 C2458 1.523 . S
C2458 C2439 1.368 . S
C2458 C2452 1.368 . S
C2458 C2457 1.523 . S
C2459 C2443 1.429 . S
C2459 C2455 1.429 . S
C2459 C2460 1.523 . S
C2460 C2444 1.368 . S
C2460 C2456 1.368 . S
C2460 C2459 1.523 . S
H2461 C2436 0.950 . S
H2462 C2438 0.950 . S
H2463 C2439 0.949 . S
H2464 C2441 0.950 . S
H2465 C2443 0.950 . S
C2466 C2467 1.349 . S
C2466 C2468 1.327 . S
C2466 H2491 0.950 . S
C2467 C2466 1.349 . S
C2467 C2483 1.349 . S
C2468 C2466 1.327 . S
C2468 C2487 1.429 . S
C2468 H2492 0.950 . S
C2469 C2486 1.574 . S
C2469 C2488 1.368 . S
C2469 H2493 0.949 . S
H2470 C2474 0.949 . S
C2471 C2472 1.349 . S
C2471 C2473 1.327 . S
C2471 H2494 0.950 . S
C2472 C2471 1.349 . S
C2472 C2484 1.349 . S
C2473 C2471 1.327 . S
C2473 C2489 1.429 . S
C2473 H2495 0.950 . S
C2474 H2470 0.949 . S
C2474 C2482 1.574 . S
C2474 C2490 1.368 . S
H2475 C2483 0.950 . S
H2476 C2481 0.950 . S
H2477 C2482 0.949 . S
H2478 C2484 0.950 . S
H2479 C2485 0.950 . S
H2480 C2486 0.949 . S
C2481 H2476 0.950 . S
C2481 C2483 1.327 . S
C2481 C2487 1.429 . S
C2482 C2474 1.574 . S
C2482 H2477 0.949 . S
C2482 C2488 1.368 . S
C2483 C2467 1.349 . S
C2483 H2475 0.950 . S
C2483 C2481 1.327 . S
C2484 C2472 1.349 . S
C2484 H2478 0.950 . S
C2484 C2485 1.327 . S
C2485 H2479 0.950 . S
C2485 C2484 1.327 . S
C2485 C2489 1.429 . S
C2486 C2469 1.574 . S
C2486 H2480 0.949 . S
C2486 C2490 1.368 . S
C2487 C2468 1.429 . S
C2487 C2481 1.429 . S
C2487 C2488 1.523 . S
C2488 C2469 1.368 . S
C2488 C2482 1.368 . S
C2488 C2487 1.523 . S
C2489 C2473 1.429 . S
C2489 C2485 1.429 . S
C2489 C2490 1.523 . S
C2490 C2474 1.368 . S
C2490 C2486 1.368 . S
C2490 C2489 1.523 . S
H2491 C2466 0.950 . S
H2492 C2468 0.950 . S
H2493 C2469 0.949 . S
H2494 C2471 0.950 . S
H2495 C2473 0.950 . S
C2496 C2497 1.349 . S
C2496 C2498 1.327 . S
C2496 H2521 0.950 . S
C2497 C2496 1.349 . S
C2497 C2513 1.349 . S
C2498 C2496 1.327 . S
C2498 C2517 1.429 . S
C2498 H2522 0.950 . S
C2499 C2516 1.574 . S
C2499 C2518 1.368 . S
C2499 H2523 0.949 . S
H2500 C2504 0.949 . S
C2501 C2502 1.349 . S
C2501 C2503 1.327 . S
C2501 H2524 0.950 . S
C2502 C2501 1.349 . S
C2502 C2514 1.349 . S
C2503 C2501 1.327 . S
C2503 C2519 1.429 . S
C2503 H2525 0.950 . S
C2504 H2500 0.949 . S
C2504 C2512 1.574 . S
C2504 C2520 1.368 . S
H2505 C2513 0.950 . S
H2506 C2511 0.950 . S
H2507 C2512 0.949 . S
H2508 C2514 0.950 . S
H2509 C2515 0.950 . S
H2510 C2516 0.949 . S
C2511 H2506 0.950 . S
C2511 C2513 1.327 . S
C2511 C2517 1.429 . S
C2512 C2504 1.574 . S
C2512 H2507 0.949 . S
C2512 C2518 1.368 . S
C2513 C2497 1.349 . S
C2513 H2505 0.950 . S
C2513 C2511 1.327 . S
C2514 C2502 1.349 . S
C2514 H2508 0.950 . S
C2514 C2515 1.327 . S
C2515 H2509 0.950 . S
C2515 C2514 1.327 . S
C2515 C2519 1.429 . S
C2516 C2499 1.574 . S
C2516 H2510 0.949 . S
C2516 C2520 1.368 . S
C2517 C2498 1.429 . S
C2517 C2511 1.429 . S
C2517 C2518 1.523 . S
C2518 C2499 1.368 . S
C2518 C2512 1.368 . S
C2518 C2517 1.523 . S
C2519 C2503 1.429 . S
C2519 C2515 1.429 . S
C2519 C2520 1.523 . S
C2520 C2504 1.368 . S
C2520 C2516 1.368 . S
C2520 C2519 1.523 . S
H2521 C2496 0.950 . S
H2522 C2498 0.950 . S
H2523 C2499 0.949 . S
H2524 C2501 0.950 . S
H2525 C2503 0.950 . S
C2526 C2527 1.349 . S
C2526 C2528 1.327 . S
C2526 H2551 0.950 . S
C2527 C2526 1.349 . S
C2527 C2543 1.349 . S
C2528 C2526 1.327 . S
C2528 C2547 1.429 . S
C2528 H2552 0.950 . S
C2529 C2546 1.574 . S
C2529 C2548 1.368 . S
C2529 H2553 0.949 . S
H2530 C2534 0.949 . S
C2531 C2532 1.349 . S
C2531 C2533 1.327 . S
C2531 H2554 0.950 . S
C2532 C2531 1.349 . S
C2532 C2544 1.349 . S
C2533 C2531 1.327 . S
C2533 C2549 1.429 . S
C2533 H2555 0.950 . S
C2534 H2530 0.949 . S
C2534 C2542 1.574 . S
C2534 C2550 1.368 . S
H2535 C2543 0.950 . S
H2536 C2541 0.950 . S
H2537 C2542 0.949 . S
H2538 C2544 0.950 . S
H2539 C2545 0.950 . S
H2540 C2546 0.949 . S
C2541 H2536 0.950 . S
C2541 C2543 1.327 . S
C2541 C2547 1.429 . S
C2542 C2534 1.574 . S
C2542 H2537 0.949 . S
C2542 C2548 1.368 . S
C2543 C2527 1.349 . S
C2543 H2535 0.950 . S
C2543 C2541 1.327 . S
C2544 C2532 1.349 . S
C2544 H2538 0.950 . S
C2544 C2545 1.327 . S
C2545 H2539 0.950 . S
C2545 C2544 1.327 . S
C2545 C2549 1.429 . S
C2546 C2529 1.574 . S
C2546 H2540 0.949 . S
C2546 C2550 1.368 . S
C2547 C2528 1.429 . S
C2547 C2541 1.429 . S
C2547 C2548 1.523 . S
C2548 C2529 1.368 . S
C2548 C2542 1.368 . S
C2548 C2547 1.523 . S
C2549 C2533 1.429 . S
C2549 C2545 1.429 . S
C2549 C2550 1.523 . S
C2550 C2534 1.368 . S
C2550 C2546 1.368 . S
C2550 C2549 1.523 . S
H2551 C2526 0.950 . S
H2552 C2528 0.950 . S
H2553 C2529 0.949 . S
H2554 C2531 0.950 . S
H2555 C2533 0.950 . S
C2556 C2557 1.349 . S
C2556 C2558 1.327 . S
C2556 H2581 0.950 . S
C2557 C2556 1.349 . S
C2557 C2573 1.349 . S
C2558 C2556 1.327 . S
C2558 C2577 1.429 . S
C2558 H2582 0.950 . S
C2559 C2576 1.574 . S
C2559 C2578 1.368 . S
C2559 H2583 0.949 . S
H2560 C2564 0.949 . S
C2561 C2562 1.349 . S
C2561 C2563 1.327 . S
C2561 H2584 0.950 . S
C2562 C2561 1.349 . S
C2562 C2574 1.349 . S
C2563 C2561 1.327 . S
C2563 C2579 1.429 . S
C2563 H2585 0.950 . S
C2564 H2560 0.949 . S
C2564 C2572 1.574 . S
C2564 C2580 1.368 . S
H2565 C2573 0.950 . S
H2566 C2571 0.950 . S
H2567 C2572 0.949 . S
H2568 C2574 0.950 . S
H2569 C2575 0.950 . S
H2570 C2576 0.949 . S
C2571 H2566 0.950 . S
C2571 C2573 1.327 . S
C2571 C2577 1.429 . S
C2572 C2564 1.574 . S
C2572 H2567 0.949 . S
C2572 C2578 1.368 . S
C2573 C2557 1.349 . S
C2573 H2565 0.950 . S
C2573 C2571 1.327 . S
C2574 C2562 1.349 . S
C2574 H2568 0.950 . S
C2574 C2575 1.327 . S
C2575 H2569 0.950 . S
C2575 C2574 1.327 . S
C2575 C2579 1.429 . S
C2576 C2559 1.574 . S
C2576 H2570 0.949 . S
C2576 C2580 1.368 . S
C2577 C2558 1.429 . S
C2577 C2571 1.429 . S
C2577 C2578 1.523 . S
C2578 C2559 1.368 . S
C2578 C2572 1.368 . S
C2578 C2577 1.523 . S
C2579 C2563 1.429 . S
C2579 C2575 1.429 . S
C2579 C2580 1.523 . S
C2580 C2564 1.368 . S
C2580 C2576 1.368 . S
C2580 C2579 1.523 . S
H2581 C2556 0.950 . S
H2582 C2558 0.950 . S
H2583 C2559 0.949 . S
H2584 C2561 0.950 . S
H2585 C2563 0.950 . S
C2586 C2587 1.349 . S
C2586 C2588 1.327 . S
C2586 H2611 0.950 . S
C2587 C2586 1.349 . S
C2587 C2603 1.349 . S
C2588 C2586 1.327 . S
C2588 C2607 1.429 . S
C2588 H2612 0.950 . S
C2589 C2606 1.574 1_455 S
C2589 C2608 1.368 . S
C2589 H2613 0.949 . S
H2590 C2594 0.949 . S
C2591 C2592 1.349 . S
C2591 C2593 1.327 . S
C2591 H2614 0.950 . S
C2592 C2591 1.349 . S
C2592 C2604 1.349 . S
C2593 C2591 1.327 . S
C2593 C2609 1.429 . S
C2593 H2615 0.950 . S
C2594 H2590 0.949 . S
C2594 C2602 1.574 1_655 S
C2594 C2610 1.368 . S
H2595 C2603 0.950 . S
H2596 C2601 0.950 . S
H2597 C2602 0.949 . S
H2598 C2604 0.950 . S
H2599 C2605 0.950 . S
H2600 C2606 0.949 . S
C2601 H2596 0.950 . S
C2601 C2603 1.327 . S
C2601 C2607 1.429 . S
C2602 C2594 1.574 1_455 S
C2602 H2597 0.949 . S
C2602 C2608 1.368 . S
C2603 C2587 1.349 . S
C2603 H2595 0.950 . S
C2603 C2601 1.327 . S
C2604 C2592 1.349 . S
C2604 H2598 0.950 . S
C2604 C2605 1.327 . S
C2605 H2599 0.950 . S
C2605 C2604 1.327 . S
C2605 C2609 1.429 . S
C2606 C2589 1.574 1_655 S
C2606 H2600 0.949 . S
C2606 C2610 1.368 . S
C2607 C2588 1.429 . S
C2607 C2601 1.429 . S
C2607 C2608 1.523 . S
C2608 C2589 1.368 . S
C2608 C2602 1.368 . S
C2608 C2607 1.523 . S
C2609 C2593 1.429 . S
C2609 C2605 1.429 . S
C2609 C2610 1.523 . S
C2610 C2594 1.368 . S
C2610 C2606 1.368 . S
C2610 C2609 1.523 . S
H2611 C2586 0.950 . S
H2612 C2588 0.950 . S
H2613 C2589 0.949 . S
H2614 C2591 0.950 . S
H2615 C2593 0.950 . S
C2616 C2617 1.349 . S
C2616 C2618 1.327 . S
C2616 H2641 0.950 . S
C2617 C2616 1.349 . S
C2617 C2633 1.349 . S
C2618 C2616 1.327 . S
C2618 C2637 1.429 . S
C2618 H2642 0.950 . S
C2619 C2636 1.574 . S
C2619 C2638 1.368 . S
C2619 H2643 0.949 . S
H2620 C2624 0.949 . S
C2621 C2622 1.349 . S
C2621 C2623 1.327 . S
C2621 H2644 0.950 . S
C2622 C2621 1.349 . S
C2622 C2634 1.349 . S
C2623 C2621 1.327 . S
C2623 C2639 1.429 . S
C2623 H2645 0.950 . S
C2624 H2620 0.949 . S
C2624 C2632 1.574 . S
C2624 C2640 1.368 . S
H2625 C2633 0.950 . S
H2626 C2631 0.950 . S
H2627 C2632 0.949 . S
H2628 C2634 0.950 . S
H2629 C2635 0.950 . S
H2630 C2636 0.949 . S
C2631 H2626 0.950 . S
C2631 C2633 1.327 . S
C2631 C2637 1.429 . S
C2632 C2624 1.574 . S
C2632 H2627 0.949 . S
C2632 C2638 1.368 . S
C2633 C2617 1.349 . S
C2633 H2625 0.950 . S
C2633 C2631 1.327 . S
C2634 C2622 1.349 . S
C2634 H2628 0.950 . S
C2634 C2635 1.327 . S
C2635 H2629 0.950 . S
C2635 C2634 1.327 . S
C2635 C2639 1.429 . S
C2636 C2619 1.574 . S
C2636 H2630 0.949 . S
C2636 C2640 1.368 . S
C2637 C2618 1.429 . S
C2637 C2631 1.429 . S
C2637 C2638 1.523 . S
C2638 C2619 1.368 . S
C2638 C2632 1.368 . S
C2638 C2637 1.523 . S
C2639 C2623 1.429 . S
C2639 C2635 1.429 . S
C2639 C2640 1.523 . S
C2640 C2624 1.368 . S
C2640 C2636 1.368 . S
C2640 C2639 1.523 . S
H2641 C2616 0.950 . S
H2642 C2618 0.950 . S
H2643 C2619 0.949 . S
H2644 C2621 0.950 . S
H2645 C2623 0.950 . S
C2646 C2647 1.349 . S
C2646 C2648 1.327 . S
C2646 H2671 0.950 . S
C2647 C2646 1.349 . S
C2647 C2663 1.349 . S
C2648 C2646 1.327 . S
C2648 C2667 1.429 . S
C2648 H2672 0.950 . S
C2649 C2666 1.574 1_455 S
C2649 C2668 1.368 . S
C2649 H2673 0.949 . S
H2650 C2654 0.949 . S
C2651 C2652 1.349 . S
C2651 C2653 1.327 . S
C2651 H2674 0.950 . S
C2652 C2651 1.349 . S
C2652 C2664 1.349 . S
C2653 C2651 1.327 . S
C2653 C2669 1.429 . S
C2653 H2675 0.950 . S
C2654 H2650 0.949 . S
C2654 C2662 1.574 1_655 S
C2654 C2670 1.368 . S
H2655 C2663 0.950 . S
H2656 C2661 0.950 . S
H2657 C2662 0.949 . S
H2658 C2664 0.950 . S
H2659 C2665 0.950 . S
H2660 C2666 0.949 . S
C2661 H2656 0.950 . S
C2661 C2663 1.327 . S
C2661 C2667 1.429 . S
C2662 C2654 1.574 1_455 S
C2662 H2657 0.949 . S
C2662 C2668 1.368 . S
C2663 C2647 1.349 . S
C2663 H2655 0.950 . S
C2663 C2661 1.327 . S
C2664 C2652 1.349 . S
C2664 H2658 0.950 . S
C2664 C2665 1.327 . S
C2665 H2659 0.950 . S
C2665 C2664 1.327 . S
C2665 C2669 1.429 . S
C2666 C2649 1.574 1_655 S
C2666 H2660 0.949 . S
C2666 C2670 1.368 . S
C2667 C2648 1.429 . S
C2667 C2661 1.429 . S
C2667 C2668 1.523 . S
C2668 C2649 1.368 . S
C2668 C2662 1.368 . S
C2668 C2667 1.523 . S
C2669 C2653 1.429 . S
C2669 C2665 1.429 . S
C2669 C2670 1.523 . S
C2670 C2654 1.368 . S
C2670 C2666 1.368 . S
C2670 C2669 1.523 . S
H2671 C2646 0.950 . S
H2672 C2648 0.950 . S
H2673 C2649 0.949 . S
H2674 C2651 0.950 . S
H2675 C2653 0.950 . S
C2676 C2677 1.349 . S
C2676 C2678 1.327 . S
C2676 H2701 0.950 . S
C2677 C2676 1.349 . S
C2677 C2693 1.349 . S
C2678 C2676 1.327 . S
C2678 C2697 1.429 . S
C2678 H2702 0.950 . S
C2679 C2696 1.574 . S
C2679 C2698 1.368 . S
C2679 H2703 0.949 . S
H2680 C2684 0.949 . S
C2681 C2682 1.349 . S
C2681 C2683 1.327 . S
C2681 H2704 0.950 . S
C2682 C2681 1.349 . S
C2682 C2694 1.349 . S
C2683 C2681 1.327 . S
C2683 C2699 1.429 . S
C2683 H2705 0.950 . S
C2684 H2680 0.949 . S
C2684 C2692 1.574 . S
C2684 C2700 1.368 . S
H2685 C2693 0.950 . S
H2686 C2691 0.950 . S
H2687 C2692 0.949 . S
H2688 C2694 0.950 . S
H2689 C2695 0.950 . S
H2690 C2696 0.949 . S
C2691 H2686 0.950 . S
C2691 C2693 1.327 . S
C2691 C2697 1.429 . S
C2692 C2684 1.574 . S
C2692 H2687 0.949 . S
C2692 C2698 1.368 . S
C2693 C2677 1.349 . S
C2693 H2685 0.950 . S
C2693 C2691 1.327 . S
C2694 C2682 1.349 . S
C2694 H2688 0.950 . S
C2694 C2695 1.327 . S
C2695 H2689 0.950 . S
C2695 C2694 1.327 . S
C2695 C2699 1.429 . S
C2696 C2679 1.574 . S
C2696 H2690 0.949 . S
C2696 C2700 1.368 . S
C2697 C2678 1.429 . S
C2697 C2691 1.429 . S
C2697 C2698 1.523 . S
C2698 C2679 1.368 . S
C2698 C2692 1.368 . S
C2698 C2697 1.523 . S
C2699 C2683 1.429 . S
C2699 C2695 1.429 . S
C2699 C2700 1.523 . S
C2700 C2684 1.368 . S
C2700 C2696 1.368 . S
C2700 C2699 1.523 . S
H2701 C2676 0.950 . S
H2702 C2678 0.950 . S
H2703 C2679 0.949 . S
H2704 C2681 0.950 . S
H2705 C2683 0.950 . S
C2706 C2707 1.349 . S
C2706 C2708 1.327 . S
C2706 H2731 0.950 . S
C2707 C2706 1.349 . S
C2707 C2723 1.349 . S
C2708 C2706 1.327 . S
C2708 C2727 1.429 . S
C2708 H2732 0.950 . S
C2709 C2726 1.574 . S
C2709 C2728 1.368 . S
C2709 H2733 0.949 . S
H2710 C2714 0.949 . S
C2711 C2712 1.349 . S
C2711 C2713 1.327 . S
C2711 H2734 0.950 . S
C2712 C2711 1.349 . S
C2712 C2724 1.349 . S
C2713 C2711 1.327 . S
C2713 C2729 1.429 . S
C2713 H2735 0.950 . S
C2714 H2710 0.949 . S
C2714 C2722 1.574 . S
C2714 C2730 1.368 . S
H2715 C2723 0.950 . S
H2716 C2721 0.950 . S
H2717 C2722 0.949 . S
H2718 C2724 0.950 . S
H2719 C2725 0.950 . S
H2720 C2726 0.949 . S
C2721 H2716 0.950 . S
C2721 C2723 1.327 . S
C2721 C2727 1.429 . S
C2722 C2714 1.574 . S
C2722 H2717 0.949 . S
C2722 C2728 1.368 . S
C2723 C2707 1.349 . S
C2723 H2715 0.950 . S
C2723 C2721 1.327 . S
C2724 C2712 1.349 . S
C2724 H2718 0.950 . S
C2724 C2725 1.327 . S
C2725 H2719 0.950 . S
C2725 C2724 1.327 . S
C2725 C2729 1.429 . S
C2726 C2709 1.574 . S
C2726 H2720 0.949 . S
C2726 C2730 1.368 . S
C2727 C2708 1.429 . S
C2727 C2721 1.429 . S
C2727 C2728 1.523 . S
C2728 C2709 1.368 . S
C2728 C2722 1.368 . S
C2728 C2727 1.523 . S
C2729 C2713 1.429 . S
C2729 C2725 1.429 . S
C2729 C2730 1.523 . S
C2730 C2714 1.368 . S
C2730 C2726 1.368 . S
C2730 C2729 1.523 . S
H2731 C2706 0.950 . S
H2732 C2708 0.950 . S
H2733 C2709 0.949 . S
H2734 C2711 0.950 . S
H2735 C2713 0.950 . S
C2736 C2737 1.349 . S
C2736 C2738 1.327 . S
C2736 H2761 0.950 . S
C2737 C2736 1.349 . S
C2737 C2753 1.349 . S
C2738 C2736 1.327 . S
C2738 C2757 1.429 . S
C2738 H2762 0.950 . S
C2739 C2756 1.574 . S
C2739 C2758 1.368 . S
C2739 H2763 0.949 . S
H2740 C2744 0.949 . S
C2741 C2742 1.349 . S
C2741 C2743 1.327 . S
C2741 H2764 0.950 . S
C2742 C2741 1.349 . S
C2742 C2754 1.349 . S
C2743 C2741 1.327 . S
C2743 C2759 1.429 . S
C2743 H2765 0.950 . S
C2744 H2740 0.949 . S
C2744 C2752 1.574 . S
C2744 C2760 1.368 . S
H2745 C2753 0.950 . S
H2746 C2751 0.950 . S
H2747 C2752 0.949 . S
H2748 C2754 0.950 . S
H2749 C2755 0.950 . S
H2750 C2756 0.949 . S
C2751 H2746 0.950 . S
C2751 C2753 1.327 . S
C2751 C2757 1.429 . S
C2752 C2744 1.574 . S
C2752 H2747 0.949 . S
C2752 C2758 1.368 . S
C2753 C2737 1.349 . S
C2753 H2745 0.950 . S
C2753 C2751 1.327 . S
C2754 C2742 1.349 . S
C2754 H2748 0.950 . S
C2754 C2755 1.327 . S
C2755 H2749 0.950 . S
C2755 C2754 1.327 . S
C2755 C2759 1.429 . S
C2756 C2739 1.574 . S
C2756 H2750 0.949 . S
C2756 C2760 1.368 . S
C2757 C2738 1.429 . S
C2757 C2751 1.429 . S
C2757 C2758 1.523 . S
C2758 C2739 1.368 . S
C2758 C2752 1.368 . S
C2758 C2757 1.523 . S
C2759 C2743 1.429 . S
C2759 C2755 1.429 . S
C2759 C2760 1.523 . S
C2760 C2744 1.368 . S
C2760 C2756 1.368 . S
C2760 C2759 1.523 . S
H2761 C2736 0.950 . S
H2762 C2738 0.950 . S
H2763 C2739 0.949 . S
H2764 C2741 0.950 . S
H2765 C2743 0.950 . S
C2766 C2767 1.349 . S
C2766 C2768 1.327 . S
C2766 H2791 0.950 . S
C2767 C2766 1.349 . S
C2767 C2783 1.349 . S
C2768 C2766 1.327 . S
C2768 C2787 1.429 . S
C2768 H2792 0.950 . S
C2769 C2786 1.574 1_556 S
C2769 C2788 1.368 . S
C2769 H2793 0.949 . S
H2770 C2774 0.949 . S
C2771 C2772 1.349 . S
C2771 C2773 1.327 . S
C2771 H2794 0.950 . S
C2772 C2771 1.349 . S
C2772 C2784 1.349 . S
C2773 C2771 1.327 . S
C2773 C2789 1.429 . S
C2773 H2795 0.950 . S
C2774 H2770 0.949 . S
C2774 C2782 1.687 . S
C2774 C2790 1.368 . S
H2775 C2783 0.950 . S
H2776 C2781 0.950 . S
H2777 C2782 0.905 1_556 S
H2778 C2784 0.950 . S
H2779 C2785 0.950 . S
H2780 C2786 0.949 . S
C2781 H2776 0.950 . S
C2781 C2783 1.327 . S
C2781 C2787 1.429 . S
C2782 C2774 1.687 . S
C2782 H2777 0.905 1_554 S
C2782 C2788 1.314 1_554 S
C2783 C2767 1.349 . S
C2783 H2775 0.950 . S
C2783 C2781 1.327 . S
C2784 C2772 1.349 . S
C2784 H2778 0.950 . S
C2784 C2785 1.327 . S
C2785 H2779 0.950 . S
C2785 C2784 1.327 . S
C2785 C2789 1.429 . S
C2786 C2769 1.574 1_554 S
C2786 H2780 0.949 . S
C2786 C2790 1.368 . S
C2787 C2768 1.429 . S
C2787 C2781 1.429 . S
C2787 C2788 1.523 . S
C2788 C2769 1.368 . S
C2788 C2782 1.314 1_556 S
C2788 C2787 1.523 . S
C2789 C2773 1.429 . S
C2789 C2785 1.429 . S
C2789 C2790 1.523 . S
C2790 C2774 1.368 . S
C2790 C2786 1.368 . S
C2790 C2789 1.523 . S
H2791 C2766 0.950 . S
H2792 C2768 0.950 . S
H2793 C2769 0.949 . S
H2794 C2771 0.950 . S
H2795 C2773 0.950 . S
C2796 C2797 1.349 . S
C2796 C2798 1.327 . S
C2796 H2821 0.950 . S
C2797 C2796 1.349 . S
C2797 C2813 1.349 . S
C2798 C2796 1.327 . S
C2798 C2817 1.429 . S
C2798 H2822 0.950 . S
C2799 C2816 1.574 . S
C2799 C2818 1.368 . S
C2799 H2823 0.949 . S
H2800 C2804 0.949 . S
C2801 C2802 1.349 . S
C2801 C2803 1.327 . S
C2801 H2824 0.950 . S
C2802 C2801 1.349 . S
C2802 C2814 1.349 . S
C2803 C2801 1.327 . S
C2803 C2819 1.429 . S
C2803 H2825 0.950 . S
C2804 H2800 0.949 . S
C2804 C2812 1.574 . S
C2804 C2820 1.368 . S
H2805 C2813 0.950 . S
H2806 C2811 0.950 . S
H2807 C2812 0.949 . S
H2808 C2814 0.950 . S
H2809 C2815 0.950 . S
H2810 C2816 0.949 . S
C2811 H2806 0.950 . S
C2811 C2813 1.327 . S
C2811 C2817 1.429 . S
C2812 C2804 1.574 . S
C2812 H2807 0.949 . S
C2812 C2818 1.368 . S
C2813 C2797 1.349 . S
C2813 H2805 0.950 . S
C2813 C2811 1.327 . S
C2814 C2802 1.349 . S
C2814 H2808 0.950 . S
C2814 C2815 1.327 . S
C2815 H2809 0.950 . S
C2815 C2814 1.327 . S
C2815 C2819 1.429 . S
C2816 C2799 1.574 . S
C2816 H2810 0.949 . S
C2816 C2820 1.368 . S
C2817 C2798 1.429 . S
C2817 C2811 1.429 . S
C2817 C2818 1.523 . S
C2818 C2799 1.368 . S
C2818 C2812 1.368 . S
C2818 C2817 1.523 . S
C2819 C2803 1.429 . S
C2819 C2815 1.429 . S
C2819 C2820 1.523 . S
C2820 C2804 1.368 . S
C2820 C2816 1.368 . S
C2820 C2819 1.523 . S
H2821 C2796 0.950 . S
H2822 C2798 0.950 . S
H2823 C2799 0.949 . S
H2824 C2801 0.950 . S
H2825 C2803 0.950 . S
C2826 C2827 1.349 . S
C2826 C2828 1.327 . S
C2826 H2851 0.950 . S
C2827 C2826 1.349 . S
C2827 C2843 1.349 . S
C2828 C2826 1.327 . S
C2828 C2847 1.429 . S
C2828 H2852 0.950 . S
C2829 C2846 1.574 . S
C2829 C2848 1.368 . S
C2829 H2853 0.949 . S
H2830 C2834 0.949 . S
C2831 C2832 1.349 . S
C2831 C2833 1.327 . S
C2831 H2854 0.950 . S
C2832 C2831 1.349 . S
C2832 C2844 1.349 . S
C2833 C2831 1.327 . S
C2833 C2849 1.429 . S
C2833 H2855 0.950 . S
C2834 H2830 0.949 . S
C2834 C2842 1.574 . S
C2834 C2850 1.368 . S
H2835 C2843 0.950 . S
H2836 C2841 0.950 . S
H2837 C2842 0.949 . S
H2838 C2844 0.950 . S
H2839 C2845 0.950 . S
H2840 C2846 0.949 . S
C2841 H2836 0.950 . S
C2841 C2843 1.327 . S
C2841 C2847 1.429 . S
C2842 C2834 1.574 . S
C2842 H2837 0.949 . S
C2842 C2848 1.368 . S
C2843 C2827 1.349 . S
C2843 H2835 0.950 . S
C2843 C2841 1.327 . S
C2844 C2832 1.349 . S
C2844 H2838 0.950 . S
C2844 C2845 1.327 . S
C2845 H2839 0.950 . S
C2845 C2844 1.327 . S
C2845 C2849 1.429 . S
C2846 C2829 1.574 . S
C2846 H2840 0.949 . S
C2846 C2850 1.368 . S
C2847 C2828 1.429 . S
C2847 C2841 1.429 . S
C2847 C2848 1.523 . S
C2848 C2829 1.368 . S
C2848 C2842 1.368 . S
C2848 C2847 1.523 . S
C2849 C2833 1.429 . S
C2849 C2845 1.429 . S
C2849 C2850 1.523 . S
C2850 C2834 1.368 . S
C2850 C2846 1.368 . S
C2850 C2849 1.523 . S
H2851 C2826 0.950 . S
H2852 C2828 0.950 . S
H2853 C2829 0.949 . S
H2854 C2831 0.950 . S
H2855 C2833 0.950 . S
C2856 C2857 1.349 . S
C2856 C2858 1.327 . S
C2856 H2881 0.950 . S
C2857 C2856 1.349 . S
C2857 C2873 1.349 . S
C2858 C2856 1.327 . S
C2858 C2877 1.429 . S
C2858 H2882 0.950 . S
C2859 C2876 1.574 . S
C2859 C2878 1.368 . S
C2859 H2883 0.949 . S
H2860 C2864 0.949 . S
C2861 C2862 1.349 . S
C2861 C2863 1.327 . S
C2861 H2884 0.950 . S
C2862 C2861 1.349 . S
C2862 C2874 1.349 . S
C2863 C2861 1.327 . S
C2863 C2879 1.429 . S
C2863 H2885 0.950 . S
C2864 H2860 0.949 . S
C2864 C2872 1.574 . S
C2864 C2880 1.368 . S
H2865 C2873 0.950 . S
H2866 C2871 0.950 . S
H2867 C2872 0.949 . S
H2868 C2874 0.950 . S
H2869 C2875 0.950 . S
H2870 C2876 0.949 . S
C2871 H2866 0.950 . S
C2871 C2873 1.327 . S
C2871 C2877 1.429 . S
C2872 C2864 1.574 . S
C2872 H2867 0.949 . S
C2872 C2878 1.368 . S
C2873 C2857 1.349 . S
C2873 H2865 0.950 . S
C2873 C2871 1.327 . S
C2874 C2862 1.349 . S
C2874 H2868 0.950 . S
C2874 C2875 1.327 . S
C2875 H2869 0.950 . S
C2875 C2874 1.327 . S
C2875 C2879 1.429 . S
C2876 C2859 1.574 . S
C2876 H2870 0.949 . S
C2876 C2880 1.368 . S
C2877 C2858 1.429 . S
C2877 C2871 1.429 . S
C2877 C2878 1.523 . S
C2878 C2859 1.368 . S
C2878 C2872 1.368 . S
C2878 C2877 1.523 . S
C2879 C2863 1.429 . S
C2879 C2875 1.429 . S
C2879 C2880 1.523 . S
C2880 C2864 1.368 . S
C2880 C2876 1.368 . S
C2880 C2879 1.523 . S
H2881 C2856 0.950 . S
H2882 C2858 0.950 . S
H2883 C2859 0.949 . S
H2884 C2861 0.950 . S
H2885 C2863 0.950 . S
C2886 C2887 1.349 . S
C2886 C2888 1.327 . S
C2886 H2911 0.950 . S
C2887 C2886 1.349 . S
C2887 C2903 1.349 . S
C2888 C2886 1.327 . S
C2888 C2907 1.429 . S
C2888 H2912 0.950 . S
C2889 C2906 1.562 . S
C2889 C2908 1.373 1_556 S
C2889 H2913 0.956 1_556 S
H2890 C2894 0.949 . S
C2891 C2892 1.349 . S
C2891 C2893 1.327 . S
C2891 H2914 0.950 . S
C2892 C2891 1.349 . S
C2892 C2904 1.349 . S
C2893 C2891 1.327 . S
C2893 C2909 1.429 . S
C2893 H2915 0.950 . S
C2894 H2890 0.949 . S
C2894 C2902 1.614 . S
C2894 C2910 1.368 . S
H2895 C2903 0.950 . S
H2896 C2901 0.950 . S
H2897 C2902 0.927 1_554 S
H2898 C2904 0.950 . S
H2899 C2905 0.950 . S
H2900 C2906 0.949 . S
C2901 H2896 0.950 . S
C2901 C2903 1.327 . S
C2901 C2907 1.429 . S
C2902 C2894 1.614 . S
C2902 H2897 0.927 1_556 S
C2902 C2908 1.353 1_556 S
C2903 C2887 1.349 . S
C2903 H2895 0.950 . S
C2903 C2901 1.327 . S
C2904 C2892 1.349 . S
C2904 H2898 0.950 . S
C2904 C2905 1.327 . S
C2905 H2899 0.950 . S
C2905 C2904 1.327 . S
C2905 C2909 1.429 . S
C2906 C2889 1.562 . S
C2906 H2900 0.949 . S
C2906 C2910 1.368 . S
C2907 C2888 1.429 . S
C2907 C2901 1.429 . S
C2907 C2908 1.523 . S
C2908 C2889 1.373 1_554 S
C2908 C2902 1.353 1_554 S
C2908 C2907 1.523 . S
C2909 C2893 1.429 . S
C2909 C2905 1.429 . S
C2909 C2910 1.523 . S
C2910 C2894 1.368 . S
C2910 C2906 1.368 . S
C2910 C2909 1.523 . S
H2911 C2886 0.950 . S
H2912 C2888 0.950 . S
H2913 C2889 0.956 1_554 S
H2914 C2891 0.950 . S
H2915 C2893 0.950 . S
C2916 C2917 1.349 . S
C2916 C2918 1.327 . S
C2916 H2941 0.950 . S
C2917 C2916 1.349 . S
C2917 C2933 1.349 . S
C2918 C2916 1.327 . S
C2918 C2937 1.429 . S
C2918 H2942 0.950 . S
C2919 C2936 1.574 . S
C2919 C2938 1.368 . S
C2919 H2943 0.949 . S
H2920 C2924 0.949 . S
C2921 C2922 1.349 . S
C2921 C2923 1.327 . S
C2921 H2944 0.950 . S
C2922 C2921 1.349 . S
C2922 C2934 1.349 . S
C2923 C2921 1.327 . S
C2923 C2939 1.429 . S
C2923 H2945 0.950 . S
C2924 H2920 0.949 . S
C2924 C2932 1.574 . S
C2924 C2940 1.368 . S
H2925 C2933 0.950 . S
H2926 C2931 0.950 . S
H2927 C2932 0.949 . S
H2928 C2934 0.950 . S
H2929 C2935 0.950 . S
H2930 C2936 0.949 . S
C2931 H2926 0.950 . S
C2931 C2933 1.327 . S
C2931 C2937 1.429 . S
C2932 C2924 1.574 . S
C2932 H2927 0.949 . S
C2932 C2938 1.368 . S
C2933 C2917 1.349 . S
C2933 H2925 0.950 . S
C2933 C2931 1.327 . S
C2934 C2922 1.349 . S
C2934 H2928 0.950 . S
C2934 C2935 1.327 . S
C2935 H2929 0.950 . S
C2935 C2934 1.327 . S
C2935 C2939 1.429 . S
C2936 C2919 1.574 . S
C2936 H2930 0.949 . S
C2936 C2940 1.368 . S
C2937 C2918 1.429 . S
C2937 C2931 1.429 . S
C2937 C2938 1.523 . S
C2938 C2919 1.368 . S
C2938 C2932 1.368 . S
C2938 C2937 1.523 . S
C2939 C2923 1.429 . S
C2939 C2935 1.429 . S
C2939 C2940 1.523 . S
C2940 C2924 1.368 . S
C2940 C2936 1.368 . S
C2940 C2939 1.523 . S
H2941 C2916 0.950 . S
H2942 C2918 0.950 . S
H2943 C2919 0.949 . S
H2944 C2921 0.950 . S
H2945 C2923 0.950 . S
C2946 C2947 1.349 . S
C2946 C2948 1.327 . S
C2946 H2971 0.950 . S
C2947 C2946 1.349 . S
C2947 C2963 1.349 . S
C2948 C2946 1.327 . S
C2948 C2967 1.429 . S
C2948 H2972 0.950 . S
C2949 C2966 1.574 . S
C2949 C2968 1.368 . S
C2949 H2973 0.949 . S
H2950 C2954 0.949 . S
C2951 C2952 1.349 . S
C2951 C2953 1.327 . S
C2951 H2974 0.950 . S
C2952 C2951 1.349 . S
C2952 C2964 1.349 . S
C2953 C2951 1.327 . S
C2953 C2969 1.429 . S
C2953 H2975 0.950 . S
C2954 H2950 0.949 . S
C2954 C2962 1.574 . S
C2954 C2970 1.368 . S
H2955 C2963 0.950 . S
H2956 C2961 0.950 . S
H2957 C2962 0.949 . S
H2958 C2964 0.950 . S
H2959 C2965 0.950 . S
H2960 C2966 0.949 . S
C2961 H2956 0.950 . S
C2961 C2963 1.327 . S
C2961 C2967 1.429 . S
C2962 C2954 1.574 . S
C2962 H2957 0.949 . S
C2962 C2968 1.368 . S
C2963 C2947 1.349 . S
C2963 H2955 0.950 . S
C2963 C2961 1.327 . S
C2964 C2952 1.349 . S
C2964 H2958 0.950 . S
C2964 C2965 1.327 . S
C2965 H2959 0.950 . S
C2965 C2964 1.327 . S
C2965 C2969 1.429 . S
C2966 C2949 1.574 . S
C2966 H2960 0.949 . S
C2966 C2970 1.368 . S
C2967 C2948 1.429 . S
C2967 C2961 1.429 . S
C2967 C2968 1.523 . S
C2968 C2949 1.368 . S
C2968 C2962 1.368 . S
C2968 C2967 1.523 . S
C2969 C2953 1.429 . S
C2969 C2965 1.429 . S
C2969 C2970 1.523 . S
C2970 C2954 1.368 . S
C2970 C2966 1.368 . S
C2970 C2969 1.523 . S
H2971 C2946 0.950 . S
H2972 C2948 0.950 . S
H2973 C2949 0.949 . S
H2974 C2951 0.950 . S
H2975 C2953 0.950 . S
C2976 C2977 1.349 . S
C2976 C2978 1.327 . S
C2976 H3001 0.950 . S
C2977 C2976 1.349 . S
C2977 C2993 1.349 . S
C2978 C2976 1.327 . S
C2978 C2997 1.429 . S
C2978 H3002 0.950 . S
C2979 C2996 1.574 . S
C2979 C2998 1.368 . S
C2979 H3003 0.949 . S
H2980 C2984 0.949 . S
C2981 C2982 1.349 . S
C2981 C2983 1.327 . S
C2981 H3004 0.950 . S
C2982 C2981 1.349 . S
C2982 C2994 1.349 . S
C2983 C2981 1.327 . S
C2983 C2999 1.429 . S
C2983 H3005 0.950 . S
C2984 H2980 0.949 . S
C2984 C2992 1.574 . S
C2984 C3000 1.368 . S
H2985 C2993 0.950 . S
H2986 C2991 0.950 . S
H2987 C2992 0.949 . S
H2988 C2994 0.950 . S
H2989 C2995 0.950 . S
H2990 C2996 0.949 . S
C2991 H2986 0.950 . S
C2991 C2993 1.327 . S
C2991 C2997 1.429 . S
C2992 C2984 1.574 . S
C2992 H2987 0.949 . S
C2992 C2998 1.368 . S
C2993 C2977 1.349 . S
C2993 H2985 0.950 . S
C2993 C2991 1.327 . S
C2994 C2982 1.349 . S
C2994 H2988 0.950 . S
C2994 C2995 1.327 . S
C2995 H2989 0.950 . S
C2995 C2994 1.327 . S
C2995 C2999 1.429 . S
C2996 C2979 1.574 . S
C2996 H2990 0.949 . S
C2996 C3000 1.368 . S
C2997 C2978 1.429 . S
C2997 C2991 1.429 . S
C2997 C2998 1.523 . S
C2998 C2979 1.368 . S
C2998 C2992 1.368 . S
C2998 C2997 1.523 . S
C2999 C2983 1.429 . S
C2999 C2995 1.429 . S
C2999 C3000 1.523 . S
C3000 C2984 1.368 . S
C3000 C2996 1.368 . S
C3000 C2999 1.523 . S
H3001 C2976 0.950 . S
H3002 C2978 0.950 . S
H3003 C2979 0.949 . S
H3004 C2981 0.950 . S
H3005 C2983 0.950 . S
C3006 C3007 1.349 . S
C3006 C3008 1.327 . S
C3006 H3031 0.950 . S
C3007 C3006 1.349 . S
C3007 C3023 1.349 . S
C3008 C3006 1.327 . S
C3008 C3027 1.429 . S
C3008 H3032 0.950 . S
C3009 C3026 1.574 . S
C3009 C3028 1.368 . S
C3009 H3033 0.949 . S
H3010 C3014 0.949 . S
C3011 C3012 1.349 . S
C3011 C3013 1.327 . S
C3011 H3034 0.950 . S
C3012 C3011 1.349 . S
C3012 C3024 1.349 . S
C3013 C3011 1.327 . S
C3013 C3029 1.429 . S
C3013 H3035 0.950 . S
C3014 H3010 0.949 . S
C3014 C3022 1.574 . S
C3014 C3030 1.368 . S
H3015 C3023 0.950 . S
H3016 C3021 0.950 . S
H3017 C3022 0.949 . S
H3018 C3024 0.950 . S
H3019 C3025 0.950 . S
H3020 C3026 0.949 . S
C3021 H3016 0.950 . S
C3021 C3023 1.327 . S
C3021 C3027 1.429 . S
C3022 C3014 1.574 . S
C3022 H3017 0.949 . S
C3022 C3028 1.368 . S
C3023 C3007 1.349 . S
C3023 H3015 0.950 . S
C3023 C3021 1.327 . S
C3024 C3012 1.349 . S
C3024 H3018 0.950 . S
C3024 C3025 1.327 . S
C3025 H3019 0.950 . S
C3025 C3024 1.327 . S
C3025 C3029 1.429 . S
C3026 C3009 1.574 . S
C3026 H3020 0.949 . S
C3026 C3030 1.368 . S
C3027 C3008 1.429 . S
C3027 C3021 1.429 . S
C3027 C3028 1.523 . S
C3028 C3009 1.368 . S
C3028 C3022 1.368 . S
C3028 C3027 1.523 . S
C3029 C3013 1.429 . S
C3029 C3025 1.429 . S
C3029 C3030 1.523 . S
C3030 C3014 1.368 . S
C3030 C3026 1.368 . S
C3030 C3029 1.523 . S
H3031 C3006 0.950 . S
H3032 C3008 0.950 . S
H3033 C3009 0.949 . S
H3034 C3011 0.950 . S
H3035 C3013 0.950 . S
C3036 C3037 1.349 . S
C3036 C3038 1.327 . S
C3036 H3061 0.950 . S
C3037 C3036 1.349 . S
C3037 C3053 1.349 . S
C3038 C3036 1.327 . S
C3038 C3057 1.429 . S
C3038 H3062 0.950 . S
C3039 C3056 1.574 . S
C3039 C3058 1.368 . S
C3039 H3063 0.949 . S
H3040 C3044 0.949 . S
C3041 C3042 1.349 . S
C3041 C3043 1.327 . S
C3041 H3064 0.950 . S
C3042 C3041 1.349 . S
C3042 C3054 1.349 . S
C3043 C3041 1.327 . S
C3043 C3059 1.429 . S
C3043 H3065 0.950 . S
C3044 H3040 0.949 . S
C3044 C3052 1.574 . S
C3044 C3060 1.368 . S
H3045 C3053 0.950 . S
H3046 C3051 0.950 . S
H3047 C3052 0.949 . S
H3048 C3054 0.950 . S
H3049 C3055 0.950 . S
H3050 C3056 0.949 . S
C3051 H3046 0.950 . S
C3051 C3053 1.327 . S
C3051 C3057 1.429 . S
C3052 C3044 1.574 . S
C3052 H3047 0.949 . S
C3052 C3058 1.368 . S
C3053 C3037 1.349 . S
C3053 H3045 0.950 . S
C3053 C3051 1.327 . S
C3054 C3042 1.349 . S
C3054 H3048 0.950 . S
C3054 C3055 1.327 . S
C3055 H3049 0.950 . S
C3055 C3054 1.327 . S
C3055 C3059 1.429 . S
C3056 C3039 1.574 . S
C3056 H3050 0.949 . S
C3056 C3060 1.368 . S
C3057 C3038 1.429 . S
C3057 C3051 1.429 . S
C3057 C3058 1.523 . S
C3058 C3039 1.368 . S
C3058 C3052 1.368 . S
C3058 C3057 1.523 . S
C3059 C3043 1.429 . S
C3059 C3055 1.429 . S
C3059 C3060 1.523 1_565 S
C3060 C3044 1.368 . S
C3060 C3056 1.368 . S
C3060 C3059 1.523 1_545 S
H3061 C3036 0.950 . S
H3062 C3038 0.950 . S
H3063 C3039 0.949 . S
H3064 C3041 0.950 . S
H3065 C3043 0.950 . S
C3066 C3067 1.349 . S
C3066 C3068 1.327 . S
C3066 H3091 0.950 . S
C3067 C3066 1.349 . S
C3067 C3083 1.349 . S
C3068 C3066 1.327 . S
C3068 C3087 1.429 . S
C3068 H3092 0.950 . S
C3069 C3086 1.574 . S
C3069 C3088 1.368 . S
C3069 H3093 0.949 . S
H3070 C3074 0.949 . S
C3071 C3072 1.349 . S
C3071 C3073 1.327 . S
C3071 H3094 0.950 . S
C3072 C3071 1.349 . S
C3072 C3084 1.349 . S
C3073 C3071 1.327 . S
C3073 C3089 1.429 . S
C3073 H3095 0.950 . S
C3074 H3070 0.949 . S
C3074 C3082 1.574 . S
C3074 C3090 1.368 . S
H3075 C3083 0.950 . S
H3076 C3081 0.950 . S
H3077 C3082 0.949 . S
H3078 C3084 0.950 . S
H3079 C3085 0.950 . S
H3080 C3086 0.949 . S
C3081 H3076 0.950 . S
C3081 C3083 1.327 . S
C3081 C3087 1.429 . S
C3082 C3074 1.574 . S
C3082 H3077 0.949 . S
C3082 C3088 1.368 . S
C3083 C3067 1.349 . S
C3083 H3075 0.950 . S
C3083 C3081 1.327 . S
C3084 C3072 1.349 . S
C3084 H3078 0.950 . S
C3084 C3085 1.327 . S
C3085 H3079 0.950 . S
C3085 C3084 1.327 . S
C3085 C3089 1.429 . S
C3086 C3069 1.574 . S
C3086 H3080 0.949 . S
C3086 C3090 1.368 . S
C3087 C3068 1.429 . S
C3087 C3081 1.429 . S
C3087 C3088 1.523 . S
C3088 C3069 1.368 . S
C3088 C3082 1.368 . S
C3088 C3087 1.523 . S
C3089 C3073 1.429 . S
C3089 C3085 1.429 . S
C3089 C3090 1.523 . S
C3090 C3074 1.368 . S
C3090 C3086 1.368 . S
C3090 C3089 1.523 . S
H3091 C3066 0.950 . S
H3092 C3068 0.950 . S
H3093 C3069 0.949 . S
H3094 C3071 0.950 . S
H3095 C3073 0.950 . S
C3096 C3097 1.349 . S
C3096 C3098 1.327 . S
C3096 H3121 0.950 . S
C3097 C3096 1.349 . S
C3097 C3113 1.349 . S
C3098 C3096 1.327 . S
C3098 C3117 1.429 . S
C3098 H3122 0.950 . S
C3099 C3116 1.574 . S
C3099 C3118 1.368 . S
C3099 H3123 0.949 . S
H3100 C3104 0.949 . S
C3101 C3102 1.349 . S
C3101 C3103 1.327 . S
C3101 H3124 0.950 . S
C3102 C3101 1.349 . S
C3102 C3114 1.349 . S
C3103 C3101 1.327 . S
C3103 C3119 1.429 . S
C3103 H3125 0.950 . S
C3104 H3100 0.949 . S
C3104 C3112 1.574 . S
C3104 C3120 1.368 . S
H3105 C3113 0.950 . S
H3106 C3111 0.950 . S
H3107 C3112 0.949 . S
H3108 C3114 0.950 . S
H3109 C3115 0.950 . S
H3110 C3116 0.949 . S
C3111 H3106 0.950 . S
C3111 C3113 1.327 . S
C3111 C3117 1.429 . S
C3112 C3104 1.574 . S
C3112 H3107 0.949 . S
C3112 C3118 1.368 . S
C3113 C3097 1.349 . S
C3113 H3105 0.950 . S
C3113 C3111 1.327 . S
C3114 C3102 1.349 . S
C3114 H3108 0.950 . S
C3114 C3115 1.327 . S
C3115 H3109 0.950 . S
C3115 C3114 1.327 . S
C3115 C3119 1.429 . S
C3116 C3099 1.574 . S
C3116 H3110 0.949 . S
C3116 C3120 1.368 . S
C3117 C3098 1.429 . S
C3117 C3111 1.429 . S
C3117 C3118 1.523 . S
C3118 C3099 1.368 . S
C3118 C3112 1.368 . S
C3118 C3117 1.523 . S
C3119 C3103 1.429 . S
C3119 C3115 1.429 . S
C3119 C3120 1.523 . S
C3120 C3104 1.368 . S
C3120 C3116 1.368 . S
C3120 C3119 1.523 . S
H3121 C3096 0.950 . S
H3122 C3098 0.950 . S
H3123 C3099 0.949 . S
H3124 C3101 0.950 . S
H3125 C3103 0.950 . S
C3126 C3127 1.349 . S
C3126 C3128 1.327 . S
C3126 H3151 0.950 . S
C3127 C3126 1.349 . S
C3127 C3143 1.349 . S
C3128 C3126 1.327 . S
C3128 C3147 1.429 . S
C3128 H3152 0.950 . S
C3129 C3146 1.574 . S
C3129 C3148 1.368 . S
C3129 H3153 0.949 . S
H3130 C3134 0.949 . S
C3131 C3132 1.349 . S
C3131 C3133 1.327 . S
C3131 H3154 0.950 . S
C3132 C3131 1.349 . S
C3132 C3144 1.349 . S
C3133 C3131 1.327 . S
C3133 C3149 1.429 . S
C3133 H3155 0.950 . S
C3134 H3130 0.949 . S
C3134 C3142 1.574 . S
C3134 C3150 1.368 . S
H3135 C3143 0.950 . S
H3136 C3141 0.950 . S
H3137 C3142 0.949 . S
H3138 C3144 0.950 . S
H3139 C3145 0.950 . S
H3140 C3146 0.949 . S
C3141 H3136 0.950 . S
C3141 C3143 1.327 . S
C3141 C3147 1.429 . S
C3142 C3134 1.574 . S
C3142 H3137 0.949 . S
C3142 C3148 1.368 . S
C3143 C3127 1.349 . S
C3143 H3135 0.950 . S
C3143 C3141 1.327 . S
C3144 C3132 1.349 . S
C3144 H3138 0.950 . S
C3144 C3145 1.327 . S
C3145 H3139 0.950 . S
C3145 C3144 1.327 . S
C3145 C3149 1.429 . S
C3146 C3129 1.574 . S
C3146 H3140 0.949 . S
C3146 C3150 1.368 . S
C3147 C3128 1.429 . S
C3147 C3141 1.429 . S
C3147 C3148 1.523 . S
C3148 C3129 1.368 . S
C3148 C3142 1.368 . S
C3148 C3147 1.523 . S
C3149 C3133 1.429 . S
C3149 C3145 1.429 . S
C3149 C3150 1.523 . S
C3150 C3134 1.368 . S
C3150 C3146 1.368 . S
C3150 C3149 1.523 . S
H3151 C3126 0.950 . S
H3152 C3128 0.950 . S
H3153 C3129 0.949 . S
H3154 C3131 0.950 . S
H3155 C3133 0.950 . S
C3156 C3157 1.349 . S
C3156 C3158 1.327 . S
C3156 H3181 0.950 . S
C3157 C3156 1.349 . S
C3157 C3173 1.349 . S
C3158 C3156 1.327 . S
C3158 C3177 1.429 . S
C3158 H3182 0.950 . S
C3159 C3176 1.574 . S
C3159 C3178 1.368 . S
C3159 H3183 0.949 . S
H3160 C3164 0.949 . S
C3161 C3162 1.349 . S
C3161 C3163 1.327 . S
C3161 H3184 0.950 . S
C3162 C3161 1.349 . S
C3162 C3174 1.349 . S
C3163 C3161 1.327 . S
C3163 C3179 1.429 . S
C3163 H3185 0.950 . S
C3164 H3160 0.949 . S
C3164 C3172 1.574 . S
C3164 C3180 1.368 . S
H3165 C3173 0.950 . S
H3166 C3171 0.950 . S
H3167 C3172 0.949 . S
H3168 C3174 0.950 . S
H3169 C3175 0.950 . S
H3170 C3176 0.949 . S
C3171 H3166 0.950 . S
C3171 C3173 1.327 . S
C3171 C3177 1.429 . S
C3172 C3164 1.574 . S
C3172 H3167 0.949 . S
C3172 C3178 1.368 . S
C3173 C3157 1.349 . S
C3173 H3165 0.950 . S
C3173 C3171 1.327 . S
C3174 C3162 1.349 . S
C3174 H3168 0.950 . S
C3174 C3175 1.327 . S
C3175 H3169 0.950 . S
C3175 C3174 1.327 . S
C3175 C3179 1.429 . S
C3176 C3159 1.574 . S
C3176 H3170 0.949 . S
C3176 C3180 1.368 . S
C3177 C3158 1.429 . S
C3177 C3171 1.429 . S
C3177 C3178 1.523 . S
C3178 C3159 1.368 . S
C3178 C3172 1.368 . S
C3178 C3177 1.523 . S
C3179 C3163 1.429 . S
C3179 C3175 1.429 . S
C3179 C3180 1.523 1_545 S
C3180 C3164 1.368 . S
C3180 C3176 1.368 . S
C3180 C3179 1.523 1_565 S
H3181 C3156 0.950 . S
H3182 C3158 0.950 . S
H3183 C3159 0.949 . S
H3184 C3161 0.950 . S
H3185 C3163 0.950 . S
C3186 C3187 1.349 . S
C3186 C3188 1.327 . S
C3186 H3211 0.950 . S
C3187 C3186 1.349 . S
C3187 C3203 1.349 . S
C3188 C3186 1.327 . S
C3188 C3207 1.429 . S
C3188 H3212 0.950 . S
C3189 C3206 1.552 1_565 S
C3189 C3208 1.378 . S
C3189 H3213 0.960 . S
H3190 C3194 0.949 . S
C3191 C3192 1.349 . S
C3191 C3193 1.327 . S
C3191 H3214 0.950 . S
C3192 C3191 1.349 . S
C3192 C3204 1.349 . S
C3193 C3191 1.327 . S
C3193 C3209 1.429 . S
C3193 H3215 0.950 . S
C3194 H3190 0.949 . S
C3194 C3202 1.574 1_545 S
C3194 C3210 1.368 . S
H3195 C3203 0.950 . S
H3196 C3201 0.950 . S
H3197 C3202 0.949 . S
H3198 C3204 0.950 . S
H3199 C3205 0.950 . S
H3200 C3206 0.949 . S
C3201 H3196 0.950 . S
C3201 C3203 1.327 . S
C3201 C3207 1.429 . S
C3202 C3194 1.574 1_565 S
C3202 H3197 0.949 . S
C3202 C3208 1.368 . S
C3203 C3187 1.349 . S
C3203 H3195 0.950 . S
C3203 C3201 1.327 . S
C3204 C3192 1.349 . S
C3204 H3198 0.950 . S
C3204 C3205 1.327 . S
C3205 H3199 0.950 . S
C3205 C3204 1.327 . S
C3205 C3209 1.429 . S
C3206 C3189 1.552 1_545 S
C3206 H3200 0.949 . S
C3206 C3210 1.368 . S
C3207 C3188 1.429 . S
C3207 C3201 1.429 . S
C3207 C3208 1.523 . S
C3208 C3189 1.378 . S
C3208 C3202 1.368 . S
C3208 C3207 1.523 . S
C3209 C3193 1.429 . S
C3209 C3205 1.429 . S
C3209 C3210 1.523 . S
C3210 C3194 1.368 . S
C3210 C3206 1.368 . S
C3210 C3209 1.523 . S
H3211 C3186 0.950 . S
H3212 C3188 0.950 . S
H3213 C3189 0.960 . S
H3214 C3191 0.950 . S
H3215 C3193 0.950 . S
C3216 C3217 1.349 . S
C3216 C3218 1.327 . S
C3216 H3241 0.950 . S
C3217 C3216 1.349 . S
C3217 C3233 1.349 . S
C3218 C3216 1.327 . S
C3218 C3237 1.429 . S
C3218 H3242 0.950 . S
C3219 C3236 1.574 . S
C3219 C3238 1.368 . S
C3219 H3243 0.949 . S
H3220 C3224 0.949 . S
C3221 C3222 1.349 . S
C3221 C3223 1.327 . S
C3221 H3244 0.950 . S
C3222 C3221 1.349 . S
C3222 C3234 1.349 . S
C3223 C3221 1.327 . S
C3223 C3239 1.429 . S
C3223 H3245 0.950 . S
C3224 H3220 0.949 . S
C3224 C3232 1.574 . S
C3224 C3240 1.368 . S
H3225 C3233 0.950 . S
H3226 C3231 0.950 . S
H3227 C3232 0.949 . S
H3228 C3234 0.950 . S
H3229 C3235 0.950 . S
H3230 C3236 0.949 . S
C3231 H3226 0.950 . S
C3231 C3233 1.327 . S
C3231 C3237 1.429 . S
C3232 C3224 1.574 . S
C3232 H3227 0.949 . S
C3232 C3238 1.368 . S
C3233 C3217 1.349 . S
C3233 H3225 0.950 . S
C3233 C3231 1.327 . S
C3234 C3222 1.349 . S
C3234 H3228 0.950 . S
C3234 C3235 1.327 . S
C3235 H3229 0.950 . S
C3235 C3234 1.327 . S
C3235 C3239 1.429 . S
C3236 C3219 1.574 . S
C3236 H3230 0.949 . S
C3236 C3240 1.368 . S
C3237 C3218 1.429 . S
C3237 C3231 1.429 . S
C3237 C3238 1.523 . S
C3238 C3219 1.368 . S
C3238 C3232 1.368 . S
C3238 C3237 1.523 . S
C3239 C3223 1.429 . S
C3239 C3235 1.429 . S
C3239 C3240 1.523 . S
C3240 C3224 1.368 . S
C3240 C3236 1.368 . S
C3240 C3239 1.523 . S
H3241 C3216 0.950 . S
H3242 C3218 0.950 . S
H3243 C3219 0.949 . S
H3244 C3221 0.950 . S
H3245 C3223 0.950 . S
C3246 C3247 1.349 . S
C3246 C3248 1.327 . S
C3246 H3271 0.950 . S
C3247 C3246 1.349 . S
C3247 C3263 1.349 . S
C3248 C3246 1.327 . S
C3248 C3267 1.429 . S
C3248 H3272 0.950 . S
C3249 C3266 1.574 . S
C3249 C3268 1.368 . S
C3249 H3273 0.949 . S
H3250 C3254 0.949 . S
C3251 C3252 1.349 . S
C3251 C3253 1.327 . S
C3251 H3274 0.950 . S
C3252 C3251 1.349 . S
C3252 C3264 1.349 . S
C3253 C3251 1.327 . S
C3253 C3269 1.429 . S
C3253 H3275 0.950 . S
C3254 H3250 0.949 . S
C3254 C3262 1.574 . S
C3254 C3270 1.368 . S
H3255 C3263 0.950 . S
H3256 C3261 0.950 . S
H3257 C3262 0.949 . S
H3258 C3264 0.950 . S
H3259 C3265 0.950 . S
H3260 C3266 0.949 . S
C3261 H3256 0.950 . S
C3261 C3263 1.327 . S
C3261 C3267 1.429 . S
C3262 C3254 1.574 . S
C3262 H3257 0.949 . S
C3262 C3268 1.368 . S
C3263 C3247 1.349 . S
C3263 H3255 0.950 . S
C3263 C3261 1.327 . S
C3264 C3252 1.349 . S
C3264 H3258 0.950 . S
C3264 C3265 1.327 . S
C3265 H3259 0.950 . S
C3265 C3264 1.327 . S
C3265 C3269 1.429 . S
C3266 C3249 1.574 . S
C3266 H3260 0.949 . S
C3266 C3270 1.368 . S
C3267 C3248 1.429 . S
C3267 C3261 1.429 . S
C3267 C3268 1.523 . S
C3268 C3249 1.368 . S
C3268 C3262 1.368 . S
C3268 C3267 1.523 . S
C3269 C3253 1.429 . S
C3269 C3265 1.429 . S
C3269 C3270 1.523 . S
C3270 C3254 1.368 . S
C3270 C3266 1.368 . S
C3270 C3269 1.523 . S
H3271 C3246 0.950 . S
H3272 C3248 0.950 . S
H3273 C3249 0.949 . S
H3274 C3251 0.950 . S
H3275 C3253 0.950 . S
C3276 C3277 1.349 . S
C3276 C3278 1.327 . S
C3276 H3301 0.950 . S
C3277 C3276 1.349 . S
C3277 C3293 1.349 . S
C3278 C3276 1.327 . S
C3278 C3297 1.429 . S
C3278 H3302 0.950 . S
C3279 C3296 1.574 . S
C3279 C3298 1.368 . S
C3279 H3303 0.949 . S
H3280 C3284 0.949 . S
C3281 C3282 1.349 . S
C3281 C3283 1.327 . S
C3281 H3304 0.950 . S
C3282 C3281 1.349 . S
C3282 C3294 1.349 . S
C3283 C3281 1.327 . S
C3283 C3299 1.429 . S
C3283 H3305 0.950 . S
C3284 H3280 0.949 . S
C3284 C3292 1.574 . S
C3284 C3300 1.368 . S
H3285 C3293 0.950 . S
H3286 C3291 0.950 . S
H3287 C3292 0.949 . S
H3288 C3294 0.950 . S
H3289 C3295 0.950 . S
H3290 C3296 0.949 . S
C3291 H3286 0.950 . S
C3291 C3293 1.327 . S
C3291 C3297 1.429 . S
C3292 C3284 1.574 . S
C3292 H3287 0.949 . S
C3292 C3298 1.368 . S
C3293 C3277 1.349 . S
C3293 H3285 0.950 . S
C3293 C3291 1.327 . S
C3294 C3282 1.349 . S
C3294 H3288 0.950 . S
C3294 C3295 1.327 . S
C3295 H3289 0.950 . S
C3295 C3294 1.327 . S
C3295 C3299 1.429 . S
C3296 C3279 1.574 . S
C3296 H3290 0.949 . S
C3296 C3300 1.368 . S
C3297 C3278 1.429 . S
C3297 C3291 1.429 . S
C3297 C3298 1.523 . S
C3298 C3279 1.368 . S
C3298 C3292 1.368 . S
C3298 C3297 1.523 . S
C3299 C3283 1.429 . S
C3299 C3295 1.429 . S
C3299 C3300 1.523 . S
C3300 C3284 1.368 . S
C3300 C3296 1.368 . S
C3300 C3299 1.523 . S
H3301 C3276 0.950 . S
H3302 C3278 0.950 . S
H3303 C3279 0.949 . S
H3304 C3281 0.950 . S
H3305 C3283 0.950 . S
C3306 C3307 1.349 . S
C3306 C3308 1.327 . S
C3306 H3331 0.950 . S
C3307 C3306 1.349 . S
C3307 C3323 1.349 . S
C3308 C3306 1.327 . S
C3308 C3327 1.429 . S
C3308 H3332 0.950 . S
C3309 C3326 1.574 . S
C3309 C3328 1.380 . S
C3309 H3333 0.949 1_655 S
H3310 C3314 0.949 . S
C3311 C3312 1.349 . S
C3311 C3313 1.327 . S
C3311 H3334 0.950 . S
C3312 C3311 1.349 . S
C3312 C3324 1.349 . S
C3313 C3311 1.327 . S
C3313 C3329 1.429 . S
C3313 H3335 0.950 . S
C3314 H3310 0.949 . S
C3314 C3322 1.574 . S
C3314 C3330 1.368 . S
H3315 C3323 0.950 . S
H3316 C3321 0.950 . S
H3317 C3322 0.949 . S
H3318 C3324 0.950 . S
H3319 C3325 0.950 . S
H3320 C3326 0.949 . S
C3321 H3316 0.950 . S
C3321 C3323 1.327 . S
C3321 C3327 1.429 . S
C3322 C3314 1.574 . S
C3322 H3317 0.949 . S
C3322 C3328 1.387 . S
C3323 C3307 1.349 . S
C3323 H3315 0.950 . S
C3323 C3321 1.327 . S
C3324 C3312 1.349 . S
C3324 H3318 0.950 . S
C3324 C3325 1.327 . S
C3325 H3319 0.950 . S
C3325 C3324 1.327 . S
C3325 C3329 1.429 . S
C3326 C3309 1.574 . S
C3326 H3320 0.949 . S
C3326 C3330 1.368 . S
C3327 C3308 1.429 . S
C3327 C3321 1.429 . S
C3327 C3328 1.485 1_455 S
C3328 C3309 1.380 . S
C3328 C3322 1.387 . S
C3328 C3327 1.485 1_655 S
C3329 C3313 1.429 . S
C3329 C3325 1.429 . S
C3329 C3330 1.523 . S
C3330 C3314 1.368 . S
C3330 C3326 1.368 . S
C3330 C3329 1.523 . S
H3331 C3306 0.950 . S
H3332 C3308 0.950 . S
H3333 C3309 0.949 1_455 S
H3334 C3311 0.950 . S
H3335 C3313 0.950 . S
C3336 C3337 1.349 . S
C3336 C3338 1.327 . S
C3336 H3361 0.950 . S
C3337 C3336 1.349 . S
C3337 C3353 1.349 . S
C3338 C3336 1.327 . S
C3338 C3357 1.429 . S
C3338 H3362 0.950 . S
C3339 C3356 1.574 . S
C3339 C3358 1.368 . S
C3339 H3363 0.949 . S
H3340 C3344 0.949 . S
C3341 C3342 1.349 . S
C3341 C3343 1.327 . S
C3341 H3364 0.950 . S
C3342 C3341 1.349 . S
C3342 C3354 1.349 . S
C3343 C3341 1.327 . S
C3343 C3359 1.429 . S
C3343 H3365 0.950 . S
C3344 H3340 0.949 . S
C3344 C3352 1.574 . S
C3344 C3360 1.368 . S
H3345 C3353 0.950 . S
H3346 C3351 0.950 . S
H3347 C3352 0.949 . S
H3348 C3354 0.950 . S
H3349 C3355 0.950 . S
H3350 C3356 0.949 . S
C3351 H3346 0.950 . S
C3351 C3353 1.327 . S
C3351 C3357 1.429 . S
C3352 C3344 1.574 . S
C3352 H3347 0.949 . S
C3352 C3358 1.368 . S
C3353 C3337 1.349 . S
C3353 H3345 0.950 . S
C3353 C3351 1.327 . S
C3354 C3342 1.349 . S
C3354 H3348 0.950 . S
C3354 C3355 1.327 . S
C3355 H3349 0.950 . S
C3355 C3354 1.327 . S
C3355 C3359 1.429 . S
C3356 C3339 1.574 . S
C3356 H3350 0.949 . S
C3356 C3360 1.368 . S
C3357 C3338 1.429 . S
C3357 C3351 1.429 . S
C3357 C3358 1.523 . S
C3358 C3339 1.368 . S
C3358 C3352 1.368 . S
C3358 C3357 1.523 . S
C3359 C3343 1.429 . S
C3359 C3355 1.429 . S
C3359 C3360 1.523 . S
C3360 C3344 1.368 . S
C3360 C3356 1.368 . S
C3360 C3359 1.523 . S
H3361 C3336 0.950 . S
H3362 C3338 0.950 . S
H3363 C3339 0.949 . S
H3364 C3341 0.950 . S
H3365 C3343 0.950 . S
C3366 C3367 1.349 . S
C3366 C3368 1.327 . S
C3366 H3391 0.950 . S
C3367 C3366 1.349 . S
C3367 C3383 1.349 . S
C3368 C3366 1.327 . S
C3368 C3387 1.429 . S
C3368 H3392 0.950 . S
C3369 C3386 1.574 . S
C3369 C3388 1.385 . S
C3369 H3393 0.949 . S
H3370 C3374 0.949 . S
C3371 C3372 1.349 . S
C3371 C3373 1.327 . S
C3371 H3394 0.950 . S
C3372 C3371 1.349 . S
C3372 C3384 1.349 . S
C3373 C3371 1.327 . S
C3373 C3389 1.429 . S
C3373 H3395 0.950 . S
C3374 H3370 0.949 . S
C3374 C3382 1.574 . S
C3374 C3390 1.368 . S
H3375 C3383 0.950 . S
H3376 C3381 0.950 . S
H3377 C3382 0.908 1_455 S
H3378 C3384 0.950 . S
H3379 C3385 0.950 . S
H3380 C3386 0.949 . S
C3381 H3376 0.950 . S
C3381 C3383 1.327 . S
C3381 C3387 1.429 . S
C3382 C3374 1.574 . S
C3382 H3377 0.908 1_655 S
C3382 C3388 1.380 . S
C3383 C3367 1.349 . S
C3383 H3375 0.950 . S
C3383 C3381 1.327 . S
C3384 C3372 1.349 . S
C3384 H3378 0.950 . S
C3384 C3385 1.327 . S
C3385 H3379 0.950 . S
C3385 C3384 1.327 . S
C3385 C3389 1.429 . S
C3386 C3369 1.574 . S
C3386 H3380 0.949 . S
C3386 C3390 1.368 . S
C3387 C3368 1.429 . S
C3387 C3381 1.429 . S
C3387 C3388 1.487 1_455 S
C3388 C3369 1.385 . S
C3388 C3382 1.380 . S
C3388 C3387 1.487 1_655 S
C3389 C3373 1.429 . S
C3389 C3385 1.429 . S
C3389 C3390 1.523 . S
C3390 C3374 1.368 . S
C3390 C3386 1.368 . S
C3390 C3389 1.523 . S
H3391 C3366 0.950 . S
H3392 C3368 0.950 . S
H3393 C3369 0.949 . S
H3394 C3371 0.950 . S
H3395 C3373 0.950 . S
C3396 C3397 1.349 . S
C3396 C3398 1.327 . S
C3396 H3421 0.950 . S
C3397 C3396 1.349 . S
C3397 C3413 1.349 . S
C3398 C3396 1.327 . S
C3398 C3417 1.429 . S
C3398 H3422 0.950 . S
C3399 C3416 1.574 . S
C3399 C3418 1.368 . S
C3399 H3423 0.949 . S
H3400 C3404 0.949 . S
C3401 C3402 1.349 . S
C3401 C3403 1.327 . S
C3401 H3424 0.950 . S
C3402 C3401 1.349 . S
C3402 C3414 1.349 . S
C3403 C3401 1.327 . S
C3403 C3419 1.429 . S
C3403 H3425 0.950 . S
C3404 H3400 0.949 . S
C3404 C3412 1.574 . S
C3404 C3420 1.368 . S
H3405 C3413 0.950 . S
H3406 C3411 0.950 . S
H3407 C3412 0.949 . S
H3408 C3414 0.950 . S
H3409 C3415 0.950 . S
H3410 C3416 0.949 . S
C3411 H3406 0.950 . S
C3411 C3413 1.327 . S
C3411 C3417 1.429 . S
C3412 C3404 1.574 . S
C3412 H3407 0.949 . S
C3412 C3418 1.368 . S
C3413 C3397 1.349 . S
C3413 H3405 0.950 . S
C3413 C3411 1.327 . S
C3414 C3402 1.349 . S
C3414 H3408 0.950 . S
C3414 C3415 1.327 . S
C3415 H3409 0.950 . S
C3415 C3414 1.327 . S
C3415 C3419 1.429 . S
C3416 C3399 1.574 . S
C3416 H3410 0.949 . S
C3416 C3420 1.368 . S
C3417 C3398 1.429 . S
C3417 C3411 1.429 . S
C3417 C3418 1.523 . S
C3418 C3399 1.368 . S
C3418 C3412 1.368 . S
C3418 C3417 1.523 . S
C3419 C3403 1.429 . S
C3419 C3415 1.429 . S
C3419 C3420 1.523 . S
C3420 C3404 1.368 . S
C3420 C3416 1.368 . S
C3420 C3419 1.523 . S
H3421 C3396 0.950 . S
H3422 C3398 0.950 . S
H3423 C3399 0.949 . S
H3424 C3401 0.950 . S
H3425 C3403 0.950 . S
C3426 C3427 1.349 . S
C3426 C3428 1.327 . S
C3426 H3451 0.950 . S
C3427 C3426 1.349 . S
C3427 C3443 1.349 . S
C3428 C3426 1.327 . S
C3428 C3447 1.429 . S
C3428 H3452 0.950 . S
C3429 C3446 1.574 . S
C3429 C3448 1.368 . S
C3429 H3453 0.949 . S
H3430 C3434 0.949 . S
C3431 C3432 1.349 . S
C3431 C3433 1.327 . S
C3431 H3454 0.950 . S
C3432 C3431 1.349 . S
C3432 C3444 1.349 . S
C3433 C3431 1.327 . S
C3433 C3449 1.429 . S
C3433 H3455 0.950 . S
C3434 H3430 0.949 . S
C3434 C3442 1.574 . S
C3434 C3450 1.368 . S
H3435 C3443 0.950 . S
H3436 C3441 0.950 . S
H3437 C3442 0.949 . S
H3438 C3444 0.950 . S
H3439 C3445 0.950 . S
H3440 C3446 0.949 . S
C3441 H3436 0.950 . S
C3441 C3443 1.327 . S
C3441 C3447 1.429 . S
C3442 C3434 1.574 . S
C3442 H3437 0.949 . S
C3442 C3448 1.368 . S
C3443 C3427 1.349 . S
C3443 H3435 0.950 . S
C3443 C3441 1.327 . S
C3444 C3432 1.349 . S
C3444 H3438 0.950 . S
C3444 C3445 1.327 . S
C3445 H3439 0.950 . S
C3445 C3444 1.327 . S
C3445 C3449 1.429 . S
C3446 C3429 1.574 . S
C3446 H3440 0.949 . S
C3446 C3450 1.368 . S
C3447 C3428 1.429 . S
C3447 C3441 1.429 . S
C3447 C3448 1.523 . S
C3448 C3429 1.368 . S
C3448 C3442 1.368 . S
C3448 C3447 1.523 . S
C3449 C3433 1.429 . S
C3449 C3445 1.429 . S
C3449 C3450 1.523 . S
C3450 C3434 1.368 . S
C3450 C3446 1.368 . S
C3450 C3449 1.523 . S
H3451 C3426 0.950 . S
H3452 C3428 0.950 . S
H3453 C3429 0.949 . S
H3454 C3431 0.950 . S
H3455 C3433 0.950 . S
C3456 C3457 1.349 . S
C3456 C3458 1.327 . S
C3456 H3481 0.950 . S
C3457 C3456 1.349 . S
C3457 C3473 1.349 . S
C3458 C3456 1.327 . S
C3458 C3477 1.429 . S
C3458 H3482 0.950 . S
C3459 C3476 1.574 . S
C3459 C3478 1.368 . S
C3459 H3483 0.949 . S
H3460 C3464 0.949 . S
C3461 C3462 1.349 . S
C3461 C3463 1.327 . S
C3461 H3484 0.950 . S
C3462 C3461 1.349 . S
C3462 C3474 1.349 . S
C3463 C3461 1.327 . S
C3463 C3479 1.429 . S
C3463 H3485 0.950 . S
C3464 H3460 0.949 . S
C3464 C3472 1.574 . S
C3464 C3480 1.368 . S
H3465 C3473 0.950 . S
H3466 C3471 0.950 . S
H3467 C3472 0.949 . S
H3468 C3474 0.950 . S
H3469 C3475 0.950 . S
H3470 C3476 0.949 . S
C3471 H3466 0.950 . S
C3471 C3473 1.327 . S
C3471 C3477 1.429 . S
C3472 C3464 1.574 . S
C3472 H3467 0.949 . S
C3472 C3478 1.368 . S
C3473 C3457 1.349 . S
C3473 H3465 0.950 . S
C3473 C3471 1.327 . S
C3474 C3462 1.349 . S
C3474 H3468 0.950 . S
C3474 C3475 1.327 . S
C3475 H3469 0.950 . S
C3475 C3474 1.327 . S
C3475 C3479 1.429 . S
C3476 C3459 1.574 . S
C3476 H3470 0.949 . S
C3476 C3480 1.368 . S
C3477 C3458 1.429 . S
C3477 C3471 1.429 . S
C3477 C3478 1.523 . S
C3478 C3459 1.368 . S
C3478 C3472 1.368 . S
C3478 C3477 1.523 . S
C3479 C3463 1.429 . S
C3479 C3475 1.429 . S
C3479 C3480 1.523 . S
C3480 C3464 1.368 . S
C3480 C3476 1.368 . S
C3480 C3479 1.523 . S
H3481 C3456 0.950 . S
H3482 C3458 0.950 . S
H3483 C3459 0.949 . S
H3484 C3461 0.950 . S
H3485 C3463 0.950 . S
C3486 C3487 1.349 . S
C3486 C3488 1.327 . S
C3486 H3511 0.950 . S
C3487 C3486 1.349 . S
C3487 C3503 1.349 . S
C3488 C3486 1.327 . S
C3488 C3507 1.429 . S
C3488 H3512 0.950 . S
C3489 C3506 1.574 . S
C3489 C3508 1.368 . S
C3489 H3513 0.949 . S
H3490 C3494 0.949 . S
C3491 C3492 1.349 . S
C3491 C3493 1.327 . S
C3491 H3514 0.950 . S
C3492 C3491 1.349 . S
C3492 C3504 1.349 . S
C3493 C3491 1.327 . S
C3493 C3509 1.429 . S
C3493 H3515 0.950 . S
C3494 H3490 0.949 . S
C3494 C3502 1.574 . S
C3494 C3510 1.368 . S
H3495 C3503 0.950 . S
H3496 C3501 0.950 . S
H3497 C3502 0.949 . S
H3498 C3504 0.950 . S
H3499 C3505 0.950 . S
H3500 C3506 0.949 . S
C3501 H3496 0.950 . S
C3501 C3503 1.327 . S
C3501 C3507 1.429 . S
C3502 C3494 1.574 . S
C3502 H3497 0.949 . S
C3502 C3508 1.368 . S
C3503 C3487 1.349 . S
C3503 H3495 0.950 . S
C3503 C3501 1.327 . S
C3504 C3492 1.349 . S
C3504 H3498 0.950 . S
C3504 C3505 1.327 . S
C3505 H3499 0.950 . S
C3505 C3504 1.327 . S
C3505 C3509 1.429 . S
C3506 C3489 1.574 . S
C3506 H3500 0.949 . S
C3506 C3510 1.368 . S
C3507 C3488 1.429 . S
C3507 C3501 1.429 . S
C3507 C3508 1.523 1_554 S
C3508 C3489 1.368 . S
C3508 C3502 1.368 . S
C3508 C3507 1.523 1_556 S
C3509 C3493 1.429 . S
C3509 C3505 1.429 . S
C3509 C3510 1.523 . S
C3510 C3494 1.368 . S
C3510 C3506 1.368 . S
C3510 C3509 1.523 . S
H3511 C3486 0.950 . S
H3512 C3488 0.950 . S
H3513 C3489 0.949 . S
H3514 C3491 0.950 . S
H3515 C3493 0.950 . S
C3516 C3517 1.349 . S
C3516 C3518 1.327 . S
C3516 H3541 0.950 . S
C3517 C3516 1.349 . S
C3517 C3533 1.349 . S
C3518 C3516 1.327 . S
C3518 C3537 1.429 . S
C3518 H3542 0.950 . S
C3519 C3536 1.574 . S
C3519 C3538 1.368 . S
C3519 H3543 0.949 . S
H3520 C3524 0.949 . S
C3521 C3522 1.349 . S
C3521 C3523 1.327 . S
C3521 H3544 0.950 . S
C3522 C3521 1.349 . S
C3522 C3534 1.349 . S
C3523 C3521 1.327 . S
C3523 C3539 1.429 . S
C3523 H3545 0.950 . S
C3524 H3520 0.949 . S
C3524 C3532 1.574 . S
C3524 C3540 1.368 . S
H3525 C3533 0.950 . S
H3526 C3531 0.950 . S
H3527 C3532 0.949 . S
H3528 C3534 0.950 . S
H3529 C3535 0.950 . S
H3530 C3536 0.949 . S
C3531 H3526 0.950 . S
C3531 C3533 1.327 . S
C3531 C3537 1.429 . S
C3532 C3524 1.574 . S
C3532 H3527 0.949 . S
C3532 C3538 1.368 . S
C3533 C3517 1.349 . S
C3533 H3525 0.950 . S
C3533 C3531 1.327 . S
C3534 C3522 1.349 . S
C3534 H3528 0.950 . S
C3534 C3535 1.327 . S
C3535 H3529 0.950 . S
C3535 C3534 1.327 . S
C3535 C3539 1.429 . S
C3536 C3519 1.574 . S
C3536 H3530 0.949 . S
C3536 C3540 1.368 . S
C3537 C3518 1.429 . S
C3537 C3531 1.429 . S
C3537 C3538 1.523 . S
C3538 C3519 1.368 . S
C3538 C3532 1.368 . S
C3538 C3537 1.523 . S
C3539 C3523 1.429 . S
C3539 C3535 1.429 . S
C3539 C3540 1.523 . S
C3540 C3524 1.368 . S
C3540 C3536 1.368 . S
C3540 C3539 1.523 . S
H3541 C3516 0.950 . S
H3542 C3518 0.950 . S
H3543 C3519 0.949 . S
H3544 C3521 0.950 . S
H3545 C3523 0.950 . S
C3546 C3547 1.349 . S
C3546 C3548 1.327 . S
C3546 H3571 0.950 . S
C3547 C3546 1.349 . S
C3547 C3563 1.349 . S
C3548 C3546 1.327 . S
C3548 C3567 1.429 . S
C3548 H3572 0.950 . S
C3549 C3566 1.574 . S
C3549 C3568 1.368 . S
C3549 H3573 0.949 . S
H3550 C3554 0.949 . S
C3551 C3552 1.349 . S
C3551 C3553 1.327 . S
C3551 H3574 0.950 . S
C3552 C3551 1.349 . S
C3552 C3564 1.349 . S
C3553 C3551 1.327 . S
C3553 C3569 1.429 . S
C3553 H3575 0.950 . S
C3554 H3550 0.949 . S
C3554 C3562 1.574 . S
C3554 C3570 1.368 . S
H3555 C3563 0.950 . S
H3556 C3561 0.950 . S
H3557 C3562 0.949 . S
H3558 C3564 0.950 . S
H3559 C3565 0.950 . S
H3560 C3566 0.949 . S
C3561 H3556 0.950 . S
C3561 C3563 1.327 . S
C3561 C3567 1.429 . S
C3562 C3554 1.574 . S
C3562 H3557 0.949 . S
C3562 C3568 1.368 . S
C3563 C3547 1.349 . S
C3563 H3555 0.950 . S
C3563 C3561 1.327 . S
C3564 C3552 1.349 . S
C3564 H3558 0.950 . S
C3564 C3565 1.327 . S
C3565 H3559 0.950 . S
C3565 C3564 1.327 . S
C3565 C3569 1.429 . S
C3566 C3549 1.574 . S
C3566 H3560 0.949 . S
C3566 C3570 1.368 . S
C3567 C3548 1.429 . S
C3567 C3561 1.429 . S
C3567 C3568 1.523 . S
C3568 C3549 1.368 . S
C3568 C3562 1.368 . S
C3568 C3567 1.523 . S
C3569 C3553 1.429 . S
C3569 C3565 1.429 . S
C3569 C3570 1.523 . S
C3570 C3554 1.368 . S
C3570 C3566 1.368 . S
C3570 C3569 1.523 . S
H3571 C3546 0.950 . S
H3572 C3548 0.950 . S
H3573 C3549 0.949 . S
H3574 C3551 0.950 . S
H3575 C3553 0.950 . S
C3576 C3577 1.349 . S
C3576 C3578 1.327 . S
C3576 H3601 0.950 . S
C3577 C3576 1.349 . S
C3577 C3593 1.349 . S
C3578 C3576 1.327 . S
C3578 C3597 1.429 . S
C3578 H3602 0.950 . S
C3579 C3596 1.574 . S
C3579 C3598 1.368 . S
C3579 H3603 0.949 . S
H3580 C3584 0.949 . S
C3581 C3582 1.349 . S
C3581 C3583 1.327 . S
C3581 H3604 0.950 . S
C3582 C3581 1.349 . S
C3582 C3594 1.349 . S
C3583 C3581 1.327 . S
C3583 C3599 1.429 . S
C3583 H3605 0.950 . S
C3584 H3580 0.949 . S
C3584 C3592 1.574 . S
C3584 C3600 1.368 . S
H3585 C3593 0.950 . S
H3586 C3591 0.950 . S
H3587 C3592 0.949 . S
H3588 C3594 0.950 . S
H3589 C3595 0.950 . S
H3590 C3596 0.949 . S
C3591 H3586 0.950 . S
C3591 C3593 1.327 . S
C3591 C3597 1.429 . S
C3592 C3584 1.574 . S
C3592 H3587 0.949 . S
C3592 C3598 1.368 . S
C3593 C3577 1.349 . S
C3593 H3585 0.950 . S
C3593 C3591 1.327 . S
C3594 C3582 1.349 . S
C3594 H3588 0.950 . S
C3594 C3595 1.327 . S
C3595 H3589 0.950 . S
C3595 C3594 1.327 . S
C3595 C3599 1.429 . S
C3596 C3579 1.574 . S
C3596 H3590 0.949 . S
C3596 C3600 1.368 . S
C3597 C3578 1.429 . S
C3597 C3591 1.429 . S
C3597 C3598 1.523 . S
C3598 C3579 1.368 . S
C3598 C3592 1.368 . S
C3598 C3597 1.523 . S
C3599 C3583 1.429 . S
C3599 C3595 1.429 . S
C3599 C3600 1.523 . S
C3600 C3584 1.368 . S
C3600 C3596 1.368 . S
C3600 C3599 1.523 . S
H3601 C3576 0.950 . S
H3602 C3578 0.950 . S
H3603 C3579 0.949 . S
H3604 C3581 0.950 . S
H3605 C3583 0.950 . S
C3606 C3607 1.349 . S
C3606 C3608 1.327 . S
C3606 H3631 0.950 . S
C3607 C3606 1.349 . S
C3607 C3623 1.349 . S
C3608 C3606 1.327 . S
C3608 C3627 1.429 . S
C3608 H3632 0.950 . S
C3609 C3626 1.574 . S
C3609 C3628 1.368 . S
C3609 H3633 0.949 . S
H3610 C3614 0.949 . S
C3611 C3612 1.349 . S
C3611 C3613 1.327 . S
C3611 H3634 0.950 . S
C3612 C3611 1.349 . S
C3612 C3624 1.349 . S
C3613 C3611 1.327 . S
C3613 C3629 1.429 . S
C3613 H3635 0.950 . S
C3614 H3610 0.949 . S
C3614 C3622 1.574 . S
C3614 C3630 1.368 . S
H3615 C3623 0.950 . S
H3616 C3621 0.950 . S
H3617 C3622 0.944 . S
H3618 C3624 0.950 . S
H3619 C3625 0.950 . S
H3620 C3626 0.949 . S
C3621 H3616 0.950 . S
C3621 C3623 1.327 . S
C3621 C3627 1.429 . S
C3622 C3614 1.574 . S
C3622 H3617 0.944 . S
C3622 C3628 1.368 . S
C3623 C3607 1.349 . S
C3623 H3615 0.950 . S
C3623 C3621 1.327 . S
C3624 C3612 1.349 . S
C3624 H3618 0.950 . S
C3624 C3625 1.327 . S
C3625 H3619 0.950 . S
C3625 C3624 1.327 . S
C3625 C3629 1.429 . S
C3626 C3609 1.574 . S
C3626 H3620 0.949 . S
C3626 C3630 1.368 . S
C3627 C3608 1.429 . S
C3627 C3621 1.429 . S
C3627 C3628 1.523 1_554 S
C3628 C3609 1.368 . S
C3628 C3622 1.368 . S
C3628 C3627 1.523 1_556 S
C3629 C3613 1.429 . S
C3629 C3625 1.429 . S
C3629 C3630 1.523 . S
C3630 C3614 1.368 . S
C3630 C3626 1.368 . S
C3630 C3629 1.523 . S
H3631 C3606 0.950 . S
H3632 C3608 0.950 . S
H3633 C3609 0.949 . S
H3634 C3611 0.950 . S
H3635 C3613 0.950 . S
C3636 C3637 1.349 . S
C3636 C3638 1.327 . S
C3636 H3661 0.950 . S
C3637 C3636 1.349 . S
C3637 C3653 1.349 . S
C3638 C3636 1.327 . S
C3638 C3657 1.429 . S
C3638 H3662 0.950 . S
C3639 C3656 1.574 . S
C3639 C3658 1.368 . S
C3639 H3663 0.949 . S
H3640 C3644 0.949 . S
C3641 C3642 1.349 . S
C3641 C3643 1.327 . S
C3641 H3664 0.950 . S
C3642 C3641 1.349 . S
C3642 C3654 1.349 . S
C3643 C3641 1.327 . S
C3643 C3659 1.429 . S
C3643 H3665 0.950 . S
C3644 H3640 0.949 . S
C3644 C3652 1.574 . S
C3644 C3660 1.368 . S
H3645 C3653 0.950 . S
H3646 C3651 0.950 . S
H3647 C3652 0.949 . S
H3648 C3654 0.950 . S
H3649 C3655 0.950 . S
H3650 C3656 0.949 . S
C3651 H3646 0.950 . S
C3651 C3653 1.327 . S
C3651 C3657 1.429 . S
C3652 C3644 1.574 . S
C3652 H3647 0.949 . S
C3652 C3658 1.368 . S
C3653 C3637 1.349 . S
C3653 H3645 0.950 . S
C3653 C3651 1.327 . S
C3654 C3642 1.349 . S
C3654 H3648 0.950 . S
C3654 C3655 1.327 . S
C3655 H3649 0.950 . S
C3655 C3654 1.327 . S
C3655 C3659 1.429 . S
C3656 C3639 1.574 . S
C3656 H3650 0.949 . S
C3656 C3660 1.368 . S
C3657 C3638 1.429 . S
C3657 C3651 1.429 . S
C3657 C3658 1.523 . S
C3658 C3639 1.368 . S
C3658 C3652 1.368 . S
C3658 C3657 1.523 . S
C3659 C3643 1.429 . S
C3659 C3655 1.429 . S
C3659 C3660 1.523 . S
C3660 C3644 1.368 . S
C3660 C3656 1.368 . S
C3660 C3659 1.523 . S
H3661 C3636 0.950 . S
H3662 C3638 0.950 . S
H3663 C3639 0.949 . S
H3664 C3641 0.950 . S
H3665 C3643 0.950 . S
C3666 C3667 1.349 . S
C3666 C3668 1.327 . S
C3666 H3691 0.950 . S
C3667 C3666 1.349 . S
C3667 C3683 1.349 . S
C3668 C3666 1.327 . S
C3668 C3687 1.429 . S
C3668 H3692 0.950 . S
C3669 C3686 1.574 . S
C3669 C3688 1.368 . S
C3669 H3693 0.949 . S
H3670 C3674 0.949 . S
C3671 C3672 1.349 . S
C3671 C3673 1.327 . S
C3671 H3694 0.950 . S
C3672 C3671 1.349 . S
C3672 C3684 1.349 . S
C3673 C3671 1.327 . S
C3673 C3689 1.429 . S
C3673 H3695 0.950 . S
C3674 H3670 0.949 . S
C3674 C3682 1.574 . S
C3674 C3690 1.368 . S
H3675 C3683 0.950 . S
H3676 C3681 0.950 . S
H3677 C3682 0.949 . S
H3678 C3684 0.950 . S
H3679 C3685 0.950 . S
H3680 C3686 0.949 . S
C3681 H3676 0.950 . S
C3681 C3683 1.327 . S
C3681 C3687 1.429 . S
C3682 C3674 1.574 . S
C3682 H3677 0.949 . S
C3682 C3688 1.368 . S
C3683 C3667 1.349 . S
C3683 H3675 0.950 . S
C3683 C3681 1.327 . S
C3684 C3672 1.349 . S
C3684 H3678 0.950 . S
C3684 C3685 1.327 . S
C3685 H3679 0.950 . S
C3685 C3684 1.327 . S
C3685 C3689 1.429 . S
C3686 C3669 1.574 . S
C3686 H3680 0.949 . S
C3686 C3690 1.368 . S
C3687 C3668 1.429 . S
C3687 C3681 1.429 . S
C3687 C3688 1.523 . S
C3688 C3669 1.368 . S
C3688 C3682 1.368 . S
C3688 C3687 1.523 . S
C3689 C3673 1.429 . S
C3689 C3685 1.429 . S
C3689 C3690 1.523 . S
C3690 C3674 1.368 . S
C3690 C3686 1.368 . S
C3690 C3689 1.523 . S
H3691 C3666 0.950 . S
H3692 C3668 0.950 . S
H3693 C3669 0.949 . S
H3694 C3671 0.950 . S
H3695 C3673 0.950 . S
C3696 C3697 1.349 . S
C3696 C3698 1.327 . S
C3696 H3721 0.950 . S
C3697 C3696 1.349 . S
C3697 C3713 1.349 . S
C3698 C3696 1.327 . S
C3698 C3717 1.429 . S
C3698 H3722 0.950 . S
C3699 C3716 1.574 . S
C3699 C3718 1.368 . S
C3699 H3723 0.949 . S
H3700 C3704 0.949 . S
C3701 C3702 1.349 . S
C3701 C3703 1.327 . S
C3701 H3724 0.950 . S
C3702 C3701 1.349 . S
C3702 C3714 1.349 . S
C3703 C3701 1.327 . S
C3703 C3719 1.429 . S
C3703 H3725 0.950 . S
C3704 H3700 0.949 . S
C3704 C3712 1.574 . S
C3704 C3720 1.368 . S
H3705 C3713 0.950 . S
H3706 C3711 0.950 . S
H3707 C3712 0.949 . S
H3708 C3714 0.950 . S
H3709 C3715 0.950 . S
H3710 C3716 0.949 . S
C3711 H3706 0.950 . S
C3711 C3713 1.327 . S
C3711 C3717 1.429 . S
C3712 C3704 1.574 . S
C3712 H3707 0.949 . S
C3712 C3718 1.368 . S
C3713 C3697 1.349 . S
C3713 H3705 0.950 . S
C3713 C3711 1.327 . S
C3714 C3702 1.349 . S
C3714 H3708 0.950 . S
C3714 C3715 1.327 . S
C3715 H3709 0.950 . S
C3715 C3714 1.327 . S
C3715 C3719 1.429 . S
C3716 C3699 1.574 . S
C3716 H3710 0.949 . S
C3716 C3720 1.368 . S
C3717 C3698 1.429 . S
C3717 C3711 1.429 . S
C3717 C3718 1.523 . S
C3718 C3699 1.368 . S
C3718 C3712 1.368 . S
C3718 C3717 1.523 . S
C3719 C3703 1.429 . S
C3719 C3715 1.429 . S
C3719 C3720 1.523 . S
C3720 C3704 1.368 . S
C3720 C3716 1.368 . S
C3720 C3719 1.523 . S
H3721 C3696 0.950 . S
H3722 C3698 0.950 . S
H3723 C3699 0.949 . S
H3724 C3701 0.950 . S
H3725 C3703 0.950 . S
C3726 C3727 1.349 . S
C3726 C3728 1.327 . S
C3726 H3751 0.950 . S
C3727 C3726 1.349 . S
C3727 C3743 1.349 . S
C3728 C3726 1.327 . S
C3728 C3747 1.429 . S
C3728 H3752 0.950 . S
C3729 C3746 1.574 . S
C3729 C3748 1.368 . S
C3729 H3753 0.949 . S
H3730 C3734 0.949 . S
C3731 C3732 1.349 . S
C3731 C3733 1.327 . S
C3731 H3754 0.950 . S
C3732 C3731 1.349 . S
C3732 C3744 1.349 . S
C3733 C3731 1.327 . S
C3733 C3749 1.429 . S
C3733 H3755 0.950 . S
C3734 H3730 0.949 . S
C3734 C3742 1.574 . S
C3734 C3750 1.368 . S
H3735 C3743 0.950 . S
H3736 C3741 0.950 . S
H3737 C3742 0.949 . S
H3738 C3744 0.950 . S
H3739 C3745 0.950 . S
H3740 C3746 0.949 . S
C3741 H3736 0.950 . S
C3741 C3743 1.327 . S
C3741 C3747 1.429 . S
C3742 C3734 1.574 . S
C3742 H3737 0.949 . S
C3742 C3748 1.368 . S
C3743 C3727 1.349 . S
C3743 H3735 0.950 . S
C3743 C3741 1.327 . S
C3744 C3732 1.349 . S
C3744 H3738 0.950 . S
C3744 C3745 1.327 . S
C3745 H3739 0.950 . S
C3745 C3744 1.327 . S
C3745 C3749 1.429 . S
C3746 C3729 1.574 . S
C3746 H3740 0.949 . S
C3746 C3750 1.368 . S
C3747 C3728 1.429 . S
C3747 C3741 1.429 . S
C3747 C3748 1.523 . S
C3748 C3729 1.368 . S
C3748 C3742 1.368 . S
C3748 C3747 1.523 . S
C3749 C3733 1.429 . S
C3749 C3745 1.429 . S
C3749 C3750 1.523 . S
C3750 C3734 1.368 . S
C3750 C3746 1.368 . S
C3750 C3749 1.523 . S
H3751 C3726 0.950 . S
H3752 C3728 0.950 . S
H3753 C3729 0.949 . S
H3754 C3731 0.950 . S
H3755 C3733 0.950 . S
C3756 C3757 1.349 . S
C3756 C3758 1.327 . S
C3756 H3781 0.950 . S
C3757 C3756 1.349 . S
C3757 C3773 1.349 . S
C3758 C3756 1.327 . S
C3758 C3777 1.429 . S
C3758 H3782 0.950 . S
C3759 C3776 1.574 1_565 S
C3759 C3778 1.368 . S
C3759 H3783 0.949 . S
H3760 C3764 0.949 . S
C3761 C3762 1.349 . S
C3761 C3763 1.327 . S
C3761 H3784 0.950 . S
C3762 C3761 1.349 . S
C3762 C3774 1.349 . S
C3763 C3761 1.327 . S
C3763 C3779 1.429 . S
C3763 H3785 0.950 . S
C3764 H3760 0.949 . S
C3764 C3772 1.574 1_545 S
C3764 C3780 1.368 . S
H3765 C3773 0.950 . S
H3766 C3771 0.950 . S
H3767 C3772 0.949 . S
H3768 C3774 0.950 . S
H3769 C3775 0.950 . S
H3770 C3776 0.949 . S
C3771 H3766 0.950 . S
C3771 C3773 1.327 . S
C3771 C3777 1.429 . S
C3772 C3764 1.574 1_565 S
C3772 H3767 0.949 . S
C3772 C3778 1.368 . S
C3773 C3757 1.349 . S
C3773 H3765 0.950 . S
C3773 C3771 1.327 . S
C3774 C3762 1.349 . S
C3774 H3768 0.950 . S
C3774 C3775 1.327 . S
C3775 H3769 0.950 . S
C3775 C3774 1.327 . S
C3775 C3779 1.429 . S
C3776 C3759 1.574 1_545 S
C3776 H3770 0.949 . S
C3776 C3780 1.368 . S
C3777 C3758 1.429 . S
C3777 C3771 1.429 . S
C3777 C3778 1.523 . S
C3778 C3759 1.368 . S
C3778 C3772 1.368 . S
C3778 C3777 1.523 . S
C3779 C3763 1.429 . S
C3779 C3775 1.429 . S
C3779 C3780 1.523 . S
C3780 C3764 1.368 . S
C3780 C3776 1.368 . S
C3780 C3779 1.523 . S
H3781 C3756 0.950 . S
H3782 C3758 0.950 . S
H3783 C3759 0.949 . S
H3784 C3761 0.950 . S
H3785 C3763 0.950 . S
C3786 C3787 1.349 . S
C3786 C3788 1.327 . S
C3786 H3811 0.950 . S
C3787 C3786 1.349 . S
C3787 C3803 1.349 . S
C3788 C3786 1.327 . S
C3788 C3807 1.429 . S
C3788 H3812 0.950 . S
C3789 C3806 1.574 . S
C3789 C3808 1.368 . S
C3789 H3813 0.949 . S
H3790 C3794 0.949 . S
C3791 C3792 1.349 . S
C3791 C3793 1.327 . S
C3791 H3814 0.950 . S
C3792 C3791 1.349 . S
C3792 C3804 1.349 . S
C3793 C3791 1.327 . S
C3793 C3809 1.429 . S
C3793 H3815 0.950 . S
C3794 H3790 0.949 . S
C3794 C3802 1.574 . S
C3794 C3810 1.368 . S
H3795 C3803 0.950 . S
H3796 C3801 0.950 . S
H3797 C3802 0.949 . S
H3798 C3804 0.950 . S
H3799 C3805 0.950 . S
H3800 C3806 0.949 . S
C3801 H3796 0.950 . S
C3801 C3803 1.327 . S
C3801 C3807 1.429 . S
C3802 C3794 1.574 . S
C3802 H3797 0.949 . S
C3802 C3808 1.368 . S
C3803 C3787 1.349 . S
C3803 H3795 0.950 . S
C3803 C3801 1.327 . S
C3804 C3792 1.349 . S
C3804 H3798 0.950 . S
C3804 C3805 1.327 . S
C3805 H3799 0.950 . S
C3805 C3804 1.327 . S
C3805 C3809 1.429 . S
C3806 C3789 1.574 . S
C3806 H3800 0.949 . S
C3806 C3810 1.368 . S
C3807 C3788 1.429 . S
C3807 C3801 1.429 . S
C3807 C3808 1.523 . S
C3808 C3789 1.368 . S
C3808 C3802 1.368 . S
C3808 C3807 1.523 . S
C3809 C3793 1.429 . S
C3809 C3805 1.429 . S
C3809 C3810 1.523 . S
C3810 C3794 1.368 . S
C3810 C3806 1.368 . S
C3810 C3809 1.523 . S
H3811 C3786 0.950 . S
H3812 C3788 0.950 . S
H3813 C3789 0.949 . S
H3814 C3791 0.950 . S
H3815 C3793 0.950 . S
C3816 C3817 1.349 . S
C3816 C3818 1.327 . S
C3816 H3841 0.950 . S
C3817 C3816 1.349 . S
C3817 C3833 1.349 . S
C3818 C3816 1.327 . S
C3818 C3837 1.429 . S
C3818 H3842 0.950 . S
C3819 C3836 1.574 . S
C3819 C3838 1.368 . S
C3819 H3843 0.949 . S
H3820 C3824 0.949 . S
C3821 C3822 1.349 . S
C3821 C3823 1.327 . S
C3821 H3844 0.950 . S
C3822 C3821 1.349 . S
C3822 C3834 1.349 . S
C3823 C3821 1.327 . S
C3823 C3839 1.429 . S
C3823 H3845 0.950 . S
C3824 H3820 0.949 . S
C3824 C3832 1.574 . S
C3824 C3840 1.368 . S
H3825 C3833 0.950 . S
H3826 C3831 0.950 . S
H3827 C3832 0.949 . S
H3828 C3834 0.950 . S
H3829 C3835 0.950 . S
H3830 C3836 0.949 . S
C3831 H3826 0.950 . S
C3831 C3833 1.327 . S
C3831 C3837 1.429 . S
C3832 C3824 1.574 . S
C3832 H3827 0.949 . S
C3832 C3838 1.368 . S
C3833 C3817 1.349 . S
C3833 H3825 0.950 . S
C3833 C3831 1.327 . S
C3834 C3822 1.349 . S
C3834 H3828 0.950 . S
C3834 C3835 1.327 . S
C3835 H3829 0.950 . S
C3835 C3834 1.327 . S
C3835 C3839 1.429 . S
C3836 C3819 1.574 . S
C3836 H3830 0.949 . S
C3836 C3840 1.368 . S
C3837 C3818 1.429 . S
C3837 C3831 1.429 . S
C3837 C3838 1.523 . S
C3838 C3819 1.368 . S
C3838 C3832 1.368 . S
C3838 C3837 1.523 . S
C3839 C3823 1.429 . S
C3839 C3835 1.429 . S
C3839 C3840 1.523 . S
C3840 C3824 1.368 . S
C3840 C3836 1.368 . S
C3840 C3839 1.523 . S
H3841 C3816 0.950 . S
H3842 C3818 0.950 . S
H3843 C3819 0.949 . S
H3844 C3821 0.950 . S
H3845 C3823 0.950 . S
C3846 C3847 1.349 . S
C3846 C3848 1.327 . S
C3846 H3871 0.950 . S
C3847 C3846 1.349 . S
C3847 C3863 1.349 . S
C3848 C3846 1.327 . S
C3848 C3867 1.429 . S
C3848 H3872 0.950 . S
C3849 C3866 1.574 . S
C3849 C3868 1.368 . S
C3849 H3873 0.949 . S
H3850 C3854 0.949 . S
C3851 C3852 1.349 . S
C3851 C3853 1.327 . S
C3851 H3874 0.950 . S
C3852 C3851 1.349 . S
C3852 C3864 1.349 . S
C3853 C3851 1.327 . S
C3853 C3869 1.429 . S
C3853 H3875 0.950 . S
C3854 H3850 0.949 . S
C3854 C3862 1.574 . S
C3854 C3870 1.368 . S
H3855 C3863 0.950 . S
H3856 C3861 0.950 . S
H3857 C3862 0.949 . S
H3858 C3864 0.950 . S
H3859 C3865 0.950 . S
H3860 C3866 0.949 . S
C3861 H3856 0.950 . S
C3861 C3863 1.327 . S
C3861 C3867 1.429 . S
C3862 C3854 1.574 . S
C3862 H3857 0.949 . S
C3862 C3868 1.368 . S
C3863 C3847 1.349 . S
C3863 H3855 0.950 . S
C3863 C3861 1.327 . S
C3864 C3852 1.349 . S
C3864 H3858 0.950 . S
C3864 C3865 1.327 . S
C3865 H3859 0.950 . S
C3865 C3864 1.327 . S
C3865 C3869 1.429 . S
C3866 C3849 1.574 . S
C3866 H3860 0.949 . S
C3866 C3870 1.368 . S
C3867 C3848 1.429 . S
C3867 C3861 1.429 . S
C3867 C3868 1.523 . S
C3868 C3849 1.368 . S
C3868 C3862 1.368 . S
C3868 C3867 1.523 . S
C3869 C3853 1.429 . S
C3869 C3865 1.429 . S
C3869 C3870 1.523 . S
C3870 C3854 1.368 . S
C3870 C3866 1.368 . S
C3870 C3869 1.523 . S
H3871 C3846 0.950 . S
H3872 C3848 0.950 . S
H3873 C3849 0.949 . S
H3874 C3851 0.950 . S
H3875 C3853 0.950 . S
C3876 C3877 1.349 . S
C3876 C3878 1.327 . S
C3876 H3901 0.950 . S
C3877 C3876 1.349 . S
C3877 C3893 1.349 . S
C3878 C3876 1.327 . S
C3878 C3897 1.429 . S
C3878 H3902 0.950 . S
C3879 C3896 1.574 1_565 S
C3879 C3898 1.368 . S
C3879 H3903 0.949 . S
H3880 C3884 0.949 . S
C3881 C3882 1.349 . S
C3881 C3883 1.327 . S
C3881 H3904 0.950 . S
C3882 C3881 1.349 . S
C3882 C3894 1.349 . S
C3883 C3881 1.327 . S
C3883 C3899 1.429 . S
C3883 H3905 0.950 . S
C3884 H3880 0.949 . S
C3884 C3892 1.574 1_545 S
C3884 C3900 1.368 . S
H3885 C3893 0.950 . S
H3886 C3891 0.950 . S
H3887 C3892 0.949 . S
H3888 C3894 0.950 . S
H3889 C3895 0.950 . S
H3890 C3896 0.949 . S
C3891 H3886 0.950 . S
C3891 C3893 1.327 . S
C3891 C3897 1.429 . S
C3892 C3884 1.574 1_565 S
C3892 H3887 0.949 . S
C3892 C3898 1.368 . S
C3893 C3877 1.349 . S
C3893 H3885 0.950 . S
C3893 C3891 1.327 . S
C3894 C3882 1.349 . S
C3894 H3888 0.950 . S
C3894 C3895 1.327 . S
C3895 H3889 0.950 . S
C3895 C3894 1.327 . S
C3895 C3899 1.429 . S
C3896 C3879 1.574 1_545 S
C3896 H3890 0.949 . S
C3896 C3900 1.368 . S
C3897 C3878 1.429 . S
C3897 C3891 1.429 . S
C3897 C3898 1.523 . S
C3898 C3879 1.368 . S
C3898 C3892 1.368 . S
C3898 C3897 1.523 . S
C3899 C3883 1.429 . S
C3899 C3895 1.429 . S
C3899 C3900 1.523 . S
C3900 C3884 1.368 . S
C3900 C3896 1.368 . S
C3900 C3899 1.523 . S
H3901 C3876 0.950 . S
H3902 C3878 0.950 . S
H3903 C3879 0.949 . S
H3904 C3881 0.950 . S
H3905 C3883 0.950 . S
C3906 C3907 1.349 . S
C3906 C3908 1.327 . S
C3906 H3931 0.950 . S
C3907 C3906 1.349 . S
C3907 C3923 1.349 . S
C3908 C3906 1.327 . S
C3908 C3927 1.429 . S
C3908 H3932 0.950 . S
C3909 C3926 1.574 . S
C3909 C3928 1.368 1_565 S
C3909 H3933 0.949 1_565 S
H3910 C3914 0.949 . S
C3911 C3912 1.349 . S
C3911 C3913 1.327 . S
C3911 H3934 0.950 . S
C3912 C3911 1.349 . S
C3912 C3924 1.349 . S
C3913 C3911 1.327 . S
C3913 C3929 1.429 . S
C3913 H3935 0.950 . S
C3914 H3910 0.949 . S
C3914 C3922 1.574 . S
C3914 C3930 1.368 . S
H3915 C3923 0.950 . S
H3916 C3921 0.950 . S
H3917 C3922 0.932 1_545 S
H3918 C3924 0.950 . S
H3919 C3925 0.950 . S
H3920 C3926 0.949 . S
C3921 H3916 0.950 . S
C3921 C3923 1.327 . S
C3921 C3927 1.429 . S
C3922 C3914 1.574 . S
C3922 H3917 0.932 1_565 S
C3922 C3928 1.368 1_565 S
C3923 C3907 1.349 . S
C3923 H3915 0.950 . S
C3923 C3921 1.327 . S
C3924 C3912 1.349 . S
C3924 H3918 0.950 . S
C3924 C3925 1.327 . S
C3925 H3919 0.950 . S
C3925 C3924 1.327 . S
C3925 C3929 1.429 . S
C3926 C3909 1.574 . S
C3926 H3920 0.949 . S
C3926 C3930 1.368 . S
C3927 C3908 1.429 . S
C3927 C3921 1.429 . S
C3927 C3928 1.523 . S
C3928 C3909 1.368 1_545 S
C3928 C3922 1.368 1_545 S
C3928 C3927 1.523 . S
C3929 C3913 1.429 . S
C3929 C3925 1.429 . S
C3929 C3930 1.523 . S
C3930 C3914 1.368 . S
C3930 C3926 1.368 . S
C3930 C3929 1.523 . S
H3931 C3906 0.950 . S
H3932 C3908 0.950 . S
H3933 C3909 0.949 1_545 S
H3934 C3911 0.950 . S
H3935 C3913 0.950 . S
C3936 C3937 1.349 . S
C3936 C3938 1.327 . S
C3936 H3961 0.950 . S
C3937 C3936 1.349 . S
C3937 C3953 1.349 . S
C3938 C3936 1.327 . S
C3938 C3957 1.429 . S
C3938 H3962 0.950 . S
C3939 C3956 1.574 . S
C3939 C3958 1.368 . S
C3939 H3963 0.949 . S
H3940 C3944 0.949 . S
C3941 C3942 1.349 . S
C3941 C3943 1.327 . S
C3941 H3964 0.950 . S
C3942 C3941 1.349 . S
C3942 C3954 1.349 . S
C3943 C3941 1.327 . S
C3943 C3959 1.429 . S
C3943 H3965 0.950 . S
C3944 H3940 0.949 . S
C3944 C3952 1.574 . S
C3944 C3960 1.368 . S
H3945 C3953 0.950 . S
H3946 C3951 0.950 . S
H3947 C3952 0.949 . S
H3948 C3954 0.950 . S
H3949 C3955 0.950 . S
H3950 C3956 0.949 . S
C3951 H3946 0.950 . S
C3951 C3953 1.327 . S
C3951 C3957 1.429 . S
C3952 C3944 1.574 . S
C3952 H3947 0.949 . S
C3952 C3958 1.368 . S
C3953 C3937 1.349 . S
C3953 H3945 0.950 . S
C3953 C3951 1.327 . S
C3954 C3942 1.349 . S
C3954 H3948 0.950 . S
C3954 C3955 1.327 . S
C3955 H3949 0.950 . S
C3955 C3954 1.327 . S
C3955 C3959 1.429 . S
C3956 C3939 1.574 . S
C3956 H3950 0.949 . S
C3956 C3960 1.368 . S
C3957 C3938 1.429 . S
C3957 C3951 1.429 . S
C3957 C3958 1.523 . S
C3958 C3939 1.368 . S
C3958 C3952 1.368 . S
C3958 C3957 1.523 . S
C3959 C3943 1.429 . S
C3959 C3955 1.429 . S
C3959 C3960 1.523 . S
C3960 C3944 1.368 . S
C3960 C3956 1.368 . S
C3960 C3959 1.523 . S
H3961 C3936 0.950 . S
H3962 C3938 0.950 . S
H3963 C3939 0.949 . S
H3964 C3941 0.950 . S
H3965 C3943 0.950 . S
C3966 C3967 1.349 . S
C3966 C3968 1.327 . S
C3966 H3991 0.950 . S
C3967 C3966 1.349 . S
C3967 C3983 1.349 . S
C3968 C3966 1.327 . S
C3968 C3987 1.429 . S
C3968 H3992 0.950 . S
C3969 C3986 1.574 . S
C3969 C3988 1.368 . S
C3969 H3993 0.949 . S
H3970 C3974 0.949 . S
C3971 C3972 1.349 . S
C3971 C3973 1.327 . S
C3971 H3994 0.950 . S
C3972 C3971 1.349 . S
C3972 C3984 1.349 . S
C3973 C3971 1.327 . S
C3973 C3989 1.429 . S
C3973 H3995 0.950 . S
C3974 H3970 0.949 . S
C3974 C3982 1.574 . S
C3974 C3990 1.368 . S
H3975 C3983 0.950 . S
H3976 C3981 0.950 . S
H3977 C3982 0.949 . S
H3978 C3984 0.950 . S
H3979 C3985 0.950 . S
H3980 C3986 0.949 . S
C3981 H3976 0.950 . S
C3981 C3983 1.327 . S
C3981 C3987 1.429 . S
C3982 C3974 1.574 . S
C3982 H3977 0.949 . S
C3982 C3988 1.368 . S
C3983 C3967 1.349 . S
C3983 H3975 0.950 . S
C3983 C3981 1.327 . S
C3984 C3972 1.349 . S
C3984 H3978 0.950 . S
C3984 C3985 1.327 . S
C3985 H3979 0.950 . S
C3985 C3984 1.327 . S
C3985 C3989 1.429 . S
C3986 C3969 1.574 . S
C3986 H3980 0.949 . S
C3986 C3990 1.368 . S
C3987 C3968 1.429 . S
C3987 C3981 1.429 . S
C3987 C3988 1.523 . S
C3988 C3969 1.368 . S
C3988 C3982 1.368 . S
C3988 C3987 1.523 . S
C3989 C3973 1.429 . S
C3989 C3985 1.429 . S
C3989 C3990 1.523 . S
C3990 C3974 1.368 . S
C3990 C3986 1.368 . S
C3990 C3989 1.523 . S
H3991 C3966 0.950 . S
H3992 C3968 0.950 . S
H3993 C3969 0.949 . S
H3994 C3971 0.950 . S
H3995 C3973 0.950 . S
C3996 C3997 1.349 . S
C3996 C3998 1.327 . S
C3996 H4021 0.950 . S
C3997 C3996 1.349 . S
C3997 C4013 1.349 . S
C3998 C3996 1.327 . S
C3998 C4017 1.429 . S
C3998 H4022 0.950 . S
C3999 C4016 1.574 . S
C3999 C4018 1.368 . S
C3999 H4023 0.949 . S
H4000 C4004 0.949 . S
C4001 C4002 1.349 . S
C4001 C4003 1.327 . S
C4001 H4024 0.950 . S
C4002 C4001 1.349 . S
C4002 C4014 1.349 . S
C4003 C4001 1.327 . S
C4003 C4019 1.429 . S
C4003 H4025 0.950 . S
C4004 H4000 0.949 . S
C4004 C4012 1.574 . S
C4004 C4020 1.368 . S
H4005 C4013 0.950 . S
H4006 C4011 0.950 . S
H4007 C4012 0.949 . S
H4008 C4014 0.950 . S
H4009 C4015 0.950 . S
H4010 C4016 0.949 . S
C4011 H4006 0.950 . S
C4011 C4013 1.327 . S
C4011 C4017 1.429 . S
C4012 C4004 1.574 . S
C4012 H4007 0.949 . S
C4012 C4018 1.368 . S
C4013 C3997 1.349 . S
C4013 H4005 0.950 . S
C4013 C4011 1.327 . S
C4014 C4002 1.349 . S
C4014 H4008 0.950 . S
C4014 C4015 1.327 . S
C4015 H4009 0.950 . S
C4015 C4014 1.327 . S
C4015 C4019 1.429 . S
C4016 C3999 1.574 . S
C4016 H4010 0.949 . S
C4016 C4020 1.368 . S
C4017 C3998 1.429 . S
C4017 C4011 1.429 . S
C4017 C4018 1.523 . S
C4018 C3999 1.368 . S
C4018 C4012 1.368 . S
C4018 C4017 1.523 . S
C4019 C4003 1.429 . S
C4019 C4015 1.429 . S
C4019 C4020 1.523 . S
C4020 C4004 1.368 . S
C4020 C4016 1.368 . S
C4020 C4019 1.523 . S
H4021 C3996 0.950 . S
H4022 C3998 0.950 . S
H4023 C3999 0.949 . S
H4024 C4001 0.950 . S
H4025 C4003 0.950 . S
C4026 C4027 1.349 . S
C4026 C4028 1.327 . S
C4026 H4051 0.950 . S
C4027 C4026 1.349 . S
C4027 C4043 1.349 . S
C4028 C4026 1.327 . S
C4028 C4047 1.429 . S
C4028 H4052 0.950 . S
C4029 C4046 1.574 . S
C4029 C4048 1.368 . S
C4029 H4053 0.949 . S
H4030 C4034 0.949 . S
C4031 C4032 1.349 . S
C4031 C4033 1.327 . S
C4031 H4054 0.950 . S
C4032 C4031 1.349 . S
C4032 C4044 1.349 . S
C4033 C4031 1.327 . S
C4033 C4049 1.429 . S
C4033 H4055 0.950 . S
C4034 H4030 0.949 . S
C4034 C4042 1.574 . S
C4034 C4050 1.368 . S
H4035 C4043 0.950 . S
H4036 C4041 0.950 . S
H4037 C4042 0.949 . S
H4038 C4044 0.950 . S
H4039 C4045 0.950 . S
H4040 C4046 0.949 . S
C4041 H4036 0.950 . S
C4041 C4043 1.327 . S
C4041 C4047 1.429 . S
C4042 C4034 1.574 . S
C4042 H4037 0.949 . S
C4042 C4048 1.368 . S
C4043 C4027 1.349 . S
C4043 H4035 0.950 . S
C4043 C4041 1.327 . S
C4044 C4032 1.349 . S
C4044 H4038 0.950 . S
C4044 C4045 1.327 . S
C4045 H4039 0.950 . S
C4045 C4044 1.327 . S
C4045 C4049 1.429 . S
C4046 C4029 1.574 . S
C4046 H4040 0.949 . S
C4046 C4050 1.368 . S
C4047 C4028 1.429 . S
C4047 C4041 1.429 . S
C4047 C4048 1.523 . S
C4048 C4029 1.368 . S
C4048 C4042 1.368 . S
C4048 C4047 1.523 . S
C4049 C4033 1.429 . S
C4049 C4045 1.429 . S
C4049 C4050 1.523 . S
C4050 C4034 1.368 . S
C4050 C4046 1.368 . S
C4050 C4049 1.523 . S
H4051 C4026 0.950 . S
H4052 C4028 0.950 . S
H4053 C4029 0.949 . S
H4054 C4031 0.950 . S
H4055 C4033 0.950 . S
C4056 C4057 1.349 . S
C4056 C4058 1.327 . S
C4056 H4081 0.950 . S
C4057 C4056 1.349 . S
C4057 C4073 1.349 . S
C4058 C4056 1.327 . S
C4058 C4077 1.429 . S
C4058 H4082 0.950 . S
C4059 C4076 1.574 . S
C4059 C4078 1.368 . S
C4059 H4083 0.949 . S
H4060 C4064 0.949 . S
C4061 C4062 1.349 . S
C4061 C4063 1.327 . S
C4061 H4084 0.950 . S
C4062 C4061 1.349 . S
C4062 C4074 1.349 . S
C4063 C4061 1.327 . S
C4063 C4079 1.429 . S
C4063 H4085 0.950 . S
C4064 H4060 0.949 . S
C4064 C4072 1.574 . S
C4064 C4080 1.368 . S
H4065 C4073 0.950 . S
H4066 C4071 0.950 . S
H4067 C4072 0.949 . S
H4068 C4074 0.950 . S
H4069 C4075 0.950 . S
H4070 C4076 0.949 . S
C4071 H4066 0.950 . S
C4071 C4073 1.327 . S
C4071 C4077 1.429 . S
C4072 C4064 1.574 . S
C4072 H4067 0.949 . S
C4072 C4078 1.368 . S
C4073 C4057 1.349 . S
C4073 H4065 0.950 . S
C4073 C4071 1.327 . S
C4074 C4062 1.349 . S
C4074 H4068 0.950 . S
C4074 C4075 1.327 . S
C4075 H4069 0.950 . S
C4075 C4074 1.327 . S
C4075 C4079 1.429 . S
C4076 C4059 1.574 . S
C4076 H4070 0.949 . S
C4076 C4080 1.368 . S
C4077 C4058 1.429 . S
C4077 C4071 1.429 . S
C4077 C4078 1.523 . S
C4078 C4059 1.368 . S
C4078 C4072 1.368 . S
C4078 C4077 1.523 . S
C4079 C4063 1.429 . S
C4079 C4075 1.429 . S
C4079 C4080 1.523 . S
C4080 C4064 1.368 . S
C4080 C4076 1.368 . S
C4080 C4079 1.523 . S
H4081 C4056 0.950 . S
H4082 C4058 0.950 . S
H4083 C4059 0.949 . S
H4084 C4061 0.950 . S
H4085 C4063 0.950 . S
C4086 C4087 1.349 . S
C4086 C4088 1.327 . S
C4086 H4111 0.950 . S
C4087 C4086 1.349 . S
C4087 C4103 1.349 . S
C4088 C4086 1.327 . S
C4088 C4107 1.429 . S
C4088 H4112 0.950 . S
C4089 C4106 1.574 . S
C4089 C4108 1.368 . S
C4089 H4113 0.949 . S
H4090 C4094 0.949 . S
C4091 C4092 1.349 . S
C4091 C4093 1.327 . S
C4091 H4114 0.950 . S
C4092 C4091 1.349 . S
C4092 C4104 1.349 . S
C4093 C4091 1.327 . S
C4093 C4109 1.429 . S
C4093 H4115 0.950 . S
C4094 H4090 0.949 . S
C4094 C4102 1.574 . S
C4094 C4110 1.368 . S
H4095 C4103 0.950 . S
H4096 C4101 0.950 . S
H4097 C4102 0.949 . S
H4098 C4104 0.950 . S
H4099 C4105 0.950 . S
H4100 C4106 0.949 . S
C4101 H4096 0.950 . S
C4101 C4103 1.327 . S
C4101 C4107 1.429 . S
C4102 C4094 1.574 . S
C4102 H4097 0.949 . S
C4102 C4108 1.368 . S
C4103 C4087 1.349 . S
C4103 H4095 0.950 . S
C4103 C4101 1.327 . S
C4104 C4092 1.349 . S
C4104 H4098 0.950 . S
C4104 C4105 1.327 . S
C4105 H4099 0.950 . S
C4105 C4104 1.327 . S
C4105 C4109 1.429 . S
C4106 C4089 1.574 . S
C4106 H4100 0.949 . S
C4106 C4110 1.368 . S
C4107 C4088 1.429 . S
C4107 C4101 1.429 . S
C4107 C4108 1.523 . S
C4108 C4089 1.368 . S
C4108 C4102 1.368 . S
C4108 C4107 1.523 . S
C4109 C4093 1.429 . S
C4109 C4105 1.429 . S
C4109 C4110 1.523 . S
C4110 C4094 1.368 . S
C4110 C4106 1.368 . S
C4110 C4109 1.523 . S
H4111 C4086 0.950 . S
H4112 C4088 0.950 . S
H4113 C4089 0.949 . S
H4114 C4091 0.950 . S
H4115 C4093 0.950 . S
C4116 C4117 1.349 . S
C4116 C4118 1.327 . S
C4116 H4141 0.950 . S
C4117 C4116 1.349 . S
C4117 C4133 1.349 . S
C4118 C4116 1.327 . S
C4118 C4137 1.429 . S
C4118 H4142 0.950 . S
C4119 C4136 1.574 . S
C4119 C4138 1.368 . S
C4119 H4143 0.949 . S
H4120 C4124 0.949 . S
C4121 C4122 1.349 . S
C4121 C4123 1.327 . S
C4121 H4144 0.950 . S
C4122 C4121 1.349 . S
C4122 C4134 1.349 . S
C4123 C4121 1.327 . S
C4123 C4139 1.429 . S
C4123 H4145 0.950 . S
C4124 H4120 0.949 . S
C4124 C4132 1.574 . S
C4124 C4140 1.368 . S
H4125 C4133 0.950 . S
H4126 C4131 0.950 . S
H4127 C4132 0.949 . S
H4128 C4134 0.950 . S
H4129 C4135 0.950 . S
H4130 C4136 0.949 . S
C4131 H4126 0.950 . S
C4131 C4133 1.327 . S
C4131 C4137 1.429 . S
C4132 C4124 1.574 . S
C4132 H4127 0.949 . S
C4132 C4138 1.368 . S
C4133 C4117 1.349 . S
C4133 H4125 0.950 . S
C4133 C4131 1.327 . S
C4134 C4122 1.349 . S
C4134 H4128 0.950 . S
C4134 C4135 1.327 . S
C4135 H4129 0.950 . S
C4135 C4134 1.327 . S
C4135 C4139 1.429 . S
C4136 C4119 1.574 . S
C4136 H4130 0.949 . S
C4136 C4140 1.368 . S
C4137 C4118 1.429 . S
C4137 C4131 1.429 . S
C4137 C4138 1.523 . S
C4138 C4119 1.368 . S
C4138 C4132 1.368 . S
C4138 C4137 1.523 . S
C4139 C4123 1.429 . S
C4139 C4135 1.429 . S
C4139 C4140 1.523 . S
C4140 C4124 1.368 . S
C4140 C4136 1.368 . S
C4140 C4139 1.523 . S
H4141 C4116 0.950 . S
H4142 C4118 0.950 . S
H4143 C4119 0.949 . S
H4144 C4121 0.950 . S
H4145 C4123 0.950 . S
C4146 C4147 1.349 . S
C4146 C4148 1.327 . S
C4146 H4171 0.950 . S
C4147 C4146 1.349 . S
C4147 C4163 1.349 . S
C4148 C4146 1.327 . S
C4148 C4167 1.429 . S
C4148 H4172 0.950 . S
C4149 C4166 1.574 . S
C4149 C4168 1.368 . S
C4149 H4173 0.949 . S
H4150 C4154 0.949 . S
C4151 C4152 1.349 . S
C4151 C4153 1.327 . S
C4151 H4174 0.950 . S
C4152 C4151 1.349 . S
C4152 C4164 1.349 . S
C4153 C4151 1.327 . S
C4153 C4169 1.429 . S
C4153 H4175 0.950 . S
C4154 H4150 0.949 . S
C4154 C4162 1.574 . S
C4154 C4170 1.368 . S
H4155 C4163 0.950 . S
H4156 C4161 0.950 . S
H4157 C4162 0.949 . S
H4158 C4164 0.950 . S
H4159 C4165 0.950 . S
H4160 C4166 0.949 . S
C4161 H4156 0.950 . S
C4161 C4163 1.327 . S
C4161 C4167 1.429 . S
C4162 C4154 1.574 . S
C4162 H4157 0.949 . S
C4162 C4168 1.368 . S
C4163 C4147 1.349 . S
C4163 H4155 0.950 . S
C4163 C4161 1.327 . S
C4164 C4152 1.349 . S
C4164 H4158 0.950 . S
C4164 C4165 1.327 . S
C4165 H4159 0.950 . S
C4165 C4164 1.327 . S
C4165 C4169 1.429 . S
C4166 C4149 1.574 . S
C4166 H4160 0.949 . S
C4166 C4170 1.368 . S
C4167 C4148 1.429 . S
C4167 C4161 1.429 . S
C4167 C4168 1.523 . S
C4168 C4149 1.368 . S
C4168 C4162 1.368 . S
C4168 C4167 1.523 . S
C4169 C4153 1.429 . S
C4169 C4165 1.429 . S
C4169 C4170 1.523 . S
C4170 C4154 1.368 . S
C4170 C4166 1.368 . S
C4170 C4169 1.523 . S
H4171 C4146 0.950 . S
H4172 C4148 0.950 . S
H4173 C4149 0.949 . S
H4174 C4151 0.950 . S
H4175 C4153 0.950 . S
C4176 C4177 1.349 . S
C4176 C4178 1.327 . S
C4176 H4201 0.950 . S
C4177 C4176 1.349 . S
C4177 C4193 1.349 . S
C4178 C4176 1.327 . S
C4178 C4197 1.429 . S
C4178 H4202 0.950 . S
C4179 C4196 1.574 . S
C4179 C4198 1.368 . S
C4179 H4203 0.949 . S
H4180 C4184 0.949 . S
C4181 C4182 1.349 . S
C4181 C4183 1.327 . S
C4181 H4204 0.950 . S
C4182 C4181 1.349 . S
C4182 C4194 1.349 . S
C4183 C4181 1.327 . S
C4183 C4199 1.429 . S
C4183 H4205 0.950 . S
C4184 H4180 0.949 . S
C4184 C4192 1.574 . S
C4184 C4200 1.368 . S
H4185 C4193 0.950 . S
H4186 C4191 0.950 . S
H4187 C4192 0.949 . S
H4188 C4194 0.950 . S
H4189 C4195 0.950 . S
H4190 C4196 0.949 . S
C4191 H4186 0.950 . S
C4191 C4193 1.327 . S
C4191 C4197 1.429 . S
C4192 C4184 1.574 . S
C4192 H4187 0.949 . S
C4192 C4198 1.368 . S
C4193 C4177 1.349 . S
C4193 H4185 0.950 . S
C4193 C4191 1.327 . S
C4194 C4182 1.349 . S
C4194 H4188 0.950 . S
C4194 C4195 1.327 . S
C4195 H4189 0.950 . S
C4195 C4194 1.327 . S
C4195 C4199 1.429 . S
C4196 C4179 1.574 . S
C4196 H4190 0.949 . S
C4196 C4200 1.368 . S
C4197 C4178 1.429 . S
C4197 C4191 1.429 . S
C4197 C4198 1.523 . S
C4198 C4179 1.368 . S
C4198 C4192 1.368 . S
C4198 C4197 1.523 . S
C4199 C4183 1.429 . S
C4199 C4195 1.429 . S
C4199 C4200 1.523 . S
C4200 C4184 1.368 . S
C4200 C4196 1.368 . S
C4200 C4199 1.523 . S
H4201 C4176 0.950 . S
H4202 C4178 0.950 . S
H4203 C4179 0.949 . S
H4204 C4181 0.950 . S
H4205 C4183 0.950 . S
C4206 C4207 1.349 . S
C4206 C4208 1.327 . S
C4206 H4231 0.950 . S
C4207 C4206 1.349 . S
C4207 C4223 1.349 . S
C4208 C4206 1.327 . S
C4208 C4227 1.429 . S
C4208 H4232 0.950 . S
C4209 C4226 1.574 . S
C4209 C4228 1.368 . S
C4209 H4233 0.949 . S
H4210 C4214 0.949 . S
C4211 C4212 1.349 . S
C4211 C4213 1.327 . S
C4211 H4234 0.950 . S
C4212 C4211 1.349 . S
C4212 C4224 1.349 . S
C4213 C4211 1.327 . S
C4213 C4229 1.429 . S
C4213 H4235 0.950 . S
C4214 H4210 0.949 . S
C4214 C4222 1.574 . S
C4214 C4230 1.368 . S
H4215 C4223 0.950 . S
H4216 C4221 0.950 . S
H4217 C4222 0.949 . S
H4218 C4224 0.950 . S
H4219 C4225 0.950 . S
H4220 C4226 0.949 . S
C4221 H4216 0.950 . S
C4221 C4223 1.327 . S
C4221 C4227 1.429 . S
C4222 C4214 1.574 . S
C4222 H4217 0.949 . S
C4222 C4228 1.368 . S
C4223 C4207 1.349 . S
C4223 H4215 0.950 . S
C4223 C4221 1.327 . S
C4224 C4212 1.349 . S
C4224 H4218 0.950 . S
C4224 C4225 1.327 . S
C4225 H4219 0.950 . S
C4225 C4224 1.327 . S
C4225 C4229 1.429 . S
C4226 C4209 1.574 . S
C4226 H4220 0.949 . S
C4226 C4230 1.368 . S
C4227 C4208 1.429 . S
C4227 C4221 1.429 . S
C4227 C4228 1.523 . S
C4228 C4209 1.368 . S
C4228 C4222 1.368 . S
C4228 C4227 1.523 . S
C4229 C4213 1.429 . S
C4229 C4225 1.429 . S
C4229 C4230 1.523 . S
C4230 C4214 1.368 . S
C4230 C4226 1.368 . S
C4230 C4229 1.523 . S
H4231 C4206 0.950 . S
H4232 C4208 0.950 . S
H4233 C4209 0.949 . S
H4234 C4211 0.950 . S
H4235 C4213 0.950 . S
C4236 C4237 1.349 . S
C4236 C4238 1.327 . S
C4236 H4261 0.950 . S
C4237 C4236 1.349 . S
C4237 C4253 1.349 . S
C4238 C4236 1.327 . S
C4238 C4257 1.429 . S
C4238 H4262 0.950 . S
C4239 C4256 1.574 . S
C4239 C4258 1.368 . S
C4239 H4263 0.949 . S
H4240 C4244 0.949 . S
C4241 C4242 1.349 . S
C4241 C4243 1.327 . S
C4241 H4264 0.950 . S
C4242 C4241 1.349 . S
C4242 C4254 1.349 . S
C4243 C4241 1.327 . S
C4243 C4259 1.429 . S
C4243 H4265 0.950 . S
C4244 H4240 0.949 . S
C4244 C4252 1.574 . S
C4244 C4260 1.368 . S
H4245 C4253 0.950 . S
H4246 C4251 0.950 . S
H4247 C4252 0.949 . S
H4248 C4254 0.950 . S
H4249 C4255 0.950 . S
H4250 C4256 0.949 . S
C4251 H4246 0.950 . S
C4251 C4253 1.327 . S
C4251 C4257 1.429 . S
C4252 C4244 1.574 . S
C4252 H4247 0.949 . S
C4252 C4258 1.368 . S
C4253 C4237 1.349 . S
C4253 H4245 0.950 . S
C4253 C4251 1.327 . S
C4254 C4242 1.349 . S
C4254 H4248 0.950 . S
C4254 C4255 1.327 . S
C4255 H4249 0.950 . S
C4255 C4254 1.327 . S
C4255 C4259 1.429 . S
C4256 C4239 1.574 . S
C4256 H4250 0.949 . S
C4256 C4260 1.368 . S
C4257 C4238 1.429 . S
C4257 C4251 1.429 . S
C4257 C4258 1.523 . S
C4258 C4239 1.368 . S
C4258 C4252 1.368 . S
C4258 C4257 1.523 . S
C4259 C4243 1.429 . S
C4259 C4255 1.429 . S
C4259 C4260 1.523 . S
C4260 C4244 1.368 . S
C4260 C4256 1.368 . S
C4260 C4259 1.523 . S
H4261 C4236 0.950 . S
H4262 C4238 0.950 . S
H4263 C4239 0.949 . S
H4264 C4241 0.950 . S
H4265 C4243 0.950 . S
C4266 C4267 1.349 . S
C4266 C4268 1.327 . S
C4266 H4291 0.950 . S
C4267 C4266 1.349 . S
C4267 C4283 1.349 . S
C4268 C4266 1.327 . S
C4268 C4287 1.429 . S
C4268 H4292 0.950 . S
C4269 C4286 1.574 . S
C4269 C4288 1.368 . S
C4269 H4293 0.949 . S
H4270 C4274 0.949 . S
C4271 C4272 1.349 . S
C4271 C4273 1.327 . S
C4271 H4294 0.950 . S
C4272 C4271 1.349 . S
C4272 C4284 1.349 . S
C4273 C4271 1.327 . S
C4273 C4289 1.429 . S
C4273 H4295 0.950 . S
C4274 H4270 0.949 . S
C4274 C4282 1.574 . S
C4274 C4290 1.368 . S
H4275 C4283 0.950 . S
H4276 C4281 0.950 . S
H4277 C4282 0.949 . S
H4278 C4284 0.950 . S
H4279 C4285 0.950 . S
H4280 C4286 0.949 . S
C4281 H4276 0.950 . S
C4281 C4283 1.327 . S
C4281 C4287 1.429 . S
C4282 C4274 1.574 . S
C4282 H4277 0.949 . S
C4282 C4288 1.368 . S
C4283 C4267 1.349 . S
C4283 H4275 0.950 . S
C4283 C4281 1.327 . S
C4284 C4272 1.349 . S
C4284 H4278 0.950 . S
C4284 C4285 1.327 . S
C4285 H4279 0.950 . S
C4285 C4284 1.327 . S
C4285 C4289 1.429 . S
C4286 C4269 1.574 . S
C4286 H4280 0.949 . S
C4286 C4290 1.368 . S
C4287 C4268 1.429 . S
C4287 C4281 1.429 . S
C4287 C4288 1.523 . S
C4288 C4269 1.368 . S
C4288 C4282 1.368 . S
C4288 C4287 1.523 . S
C4289 C4273 1.429 . S
C4289 C4285 1.429 . S
C4289 C4290 1.523 . S
C4290 C4274 1.368 . S
C4290 C4286 1.368 . S
C4290 C4289 1.523 . S
H4291 C4266 0.950 . S
H4292 C4268 0.950 . S
H4293 C4269 0.949 . S
H4294 C4271 0.950 . S
H4295 C4273 0.950 . S
C4296 C4297 1.349 . S
C4296 C4298 1.327 . S
C4296 H4321 0.950 . S
C4297 C4296 1.349 . S
C4297 C4313 1.349 . S
C4298 C4296 1.327 . S
C4298 C4317 1.429 . S
C4298 H4322 0.950 . S
C4299 C4316 1.574 . S
C4299 C4318 1.368 . S
C4299 H4323 0.949 . S
H4300 C4304 0.949 . S
C4301 C4302 1.349 . S
C4301 C4303 1.327 . S
C4301 H4324 0.950 . S
C4302 C4301 1.349 . S
C4302 C4314 1.349 . S
C4303 C4301 1.327 . S
C4303 C4319 1.429 . S
C4303 H4325 0.950 . S
C4304 H4300 0.949 . S
C4304 C4312 1.574 . S
C4304 C4320 1.368 . S
H4305 C4313 0.950 . S
H4306 C4311 0.950 . S
H4307 C4312 0.949 . S
H4308 C4314 0.950 . S
H4309 C4315 0.950 . S
H4310 C4316 0.949 . S
C4311 H4306 0.950 . S
C4311 C4313 1.327 . S
C4311 C4317 1.429 . S
C4312 C4304 1.574 . S
C4312 H4307 0.949 . S
C4312 C4318 1.368 . S
C4313 C4297 1.349 . S
C4313 H4305 0.950 . S
C4313 C4311 1.327 . S
C4314 C4302 1.349 . S
C4314 H4308 0.950 . S
C4314 C4315 1.327 . S
C4315 H4309 0.950 . S
C4315 C4314 1.327 . S
C4315 C4319 1.429 . S
C4316 C4299 1.574 . S
C4316 H4310 0.949 . S
C4316 C4320 1.368 . S
C4317 C4298 1.429 . S
C4317 C4311 1.429 . S
C4317 C4318 1.523 . S
C4318 C4299 1.368 . S
C4318 C4312 1.368 . S
C4318 C4317 1.523 . S
C4319 C4303 1.429 . S
C4319 C4315 1.429 . S
C4319 C4320 1.523 . S
C4320 C4304 1.368 . S
C4320 C4316 1.368 . S
C4320 C4319 1.523 . S
H4321 C4296 0.950 . S
H4322 C4298 0.950 . S
H4323 C4299 0.949 . S
H4324 C4301 0.950 . S
H4325 C4303 0.950 . S
C4326 C4327 1.349 . S
C4326 C4328 1.327 . S
C4326 H4351 0.950 . S
C4327 C4326 1.349 . S
C4327 C4343 1.349 . S
C4328 C4326 1.327 . S
C4328 C4347 1.429 . S
C4328 H4352 0.950 . S
C4329 C4346 1.574 . S
C4329 C4348 1.368 . S
C4329 H4353 0.949 . S
H4330 C4334 0.949 . S
C4331 C4332 1.349 . S
C4331 C4333 1.327 . S
C4331 H4354 0.950 . S
C4332 C4331 1.349 . S
C4332 C4344 1.349 . S
C4333 C4331 1.327 . S
C4333 C4349 1.429 . S
C4333 H4355 0.950 . S
C4334 H4330 0.949 . S
C4334 C4342 1.574 . S
C4334 C4350 1.368 . S
H4335 C4343 0.950 . S
H4336 C4341 0.950 . S
H4337 C4342 0.949 . S
H4338 C4344 0.950 . S
H4339 C4345 0.950 . S
H4340 C4346 0.949 . S
C4341 H4336 0.950 . S
C4341 C4343 1.327 . S
C4341 C4347 1.429 . S
C4342 C4334 1.574 . S
C4342 H4337 0.949 . S
C4342 C4348 1.368 . S
C4343 C4327 1.349 . S
C4343 H4335 0.950 . S
C4343 C4341 1.327 . S
C4344 C4332 1.349 . S
C4344 H4338 0.950 . S
C4344 C4345 1.327 . S
C4345 H4339 0.950 . S
C4345 C4344 1.327 . S
C4345 C4349 1.429 . S
C4346 C4329 1.574 . S
C4346 H4340 0.949 . S
C4346 C4350 1.368 . S
C4347 C4328 1.429 . S
C4347 C4341 1.429 . S
C4347 C4348 1.523 . S
C4348 C4329 1.368 . S
C4348 C4342 1.368 . S
C4348 C4347 1.523 . S
C4349 C4333 1.429 . S
C4349 C4345 1.429 . S
C4349 C4350 1.523 . S
C4350 C4334 1.368 . S
C4350 C4346 1.368 . S
C4350 C4349 1.523 . S
H4351 C4326 0.950 . S
H4352 C4328 0.950 . S
H4353 C4329 0.949 . S
H4354 C4331 0.950 . S
H4355 C4333 0.950 . S
C4356 C4357 1.349 . S
C4356 C4358 1.327 . S
C4356 H4381 0.950 . S
C4357 C4356 1.349 . S
C4357 C4373 1.349 . S
C4358 C4356 1.327 . S
C4358 C4377 1.429 . S
C4358 H4382 0.950 . S
C4359 C4376 1.574 . S
C4359 C4378 1.368 . S
C4359 H4383 0.949 . S
H4360 C4364 0.949 . S
C4361 C4362 1.349 . S
C4361 C4363 1.327 . S
C4361 H4384 0.950 . S
C4362 C4361 1.349 . S
C4362 C4374 1.349 . S
C4363 C4361 1.327 . S
C4363 C4379 1.429 . S
C4363 H4385 0.950 . S
C4364 H4360 0.949 . S
C4364 C4372 1.574 . S
C4364 C4380 1.368 . S
H4365 C4373 0.950 . S
H4366 C4371 0.950 . S
H4367 C4372 0.949 . S
H4368 C4374 0.950 . S
H4369 C4375 0.950 . S
H4370 C4376 0.949 . S
C4371 H4366 0.950 . S
C4371 C4373 1.327 . S
C4371 C4377 1.429 . S
C4372 C4364 1.574 . S
C4372 H4367 0.949 . S
C4372 C4378 1.368 . S
C4373 C4357 1.349 . S
C4373 H4365 0.950 . S
C4373 C4371 1.327 . S
C4374 C4362 1.349 . S
C4374 H4368 0.950 . S
C4374 C4375 1.327 . S
C4375 H4369 0.950 . S
C4375 C4374 1.327 . S
C4375 C4379 1.429 . S
C4376 C4359 1.574 . S
C4376 H4370 0.949 . S
C4376 C4380 1.368 . S
C4377 C4358 1.429 . S
C4377 C4371 1.429 . S
C4377 C4378 1.523 . S
C4378 C4359 1.368 . S
C4378 C4372 1.368 . S
C4378 C4377 1.523 . S
C4379 C4363 1.429 . S
C4379 C4375 1.429 . S
C4379 C4380 1.523 . S
C4380 C4364 1.368 . S
C4380 C4376 1.368 . S
C4380 C4379 1.523 . S
H4381 C4356 0.950 . S
H4382 C4358 0.950 . S
H4383 C4359 0.949 . S
H4384 C4361 0.950 . S
H4385 C4363 0.950 . S
C4386 C4387 1.349 . S
C4386 C4388 1.327 . S
C4386 H4411 0.950 . S
C4387 C4386 1.349 . S
C4387 C4403 1.349 . S
C4388 C4386 1.327 . S
C4388 C4407 1.429 . S
C4388 H4412 0.950 . S
C4389 C4406 1.574 . S
C4389 C4408 1.368 . S
C4389 H4413 0.949 . S
H4390 C4394 0.949 . S
C4391 C4392 1.349 . S
C4391 C4393 1.327 . S
C4391 H4414 0.950 . S
C4392 C4391 1.349 . S
C4392 C4404 1.349 . S
C4393 C4391 1.327 . S
C4393 C4409 1.429 . S
C4393 H4415 0.950 . S
C4394 H4390 0.949 . S
C4394 C4402 1.574 . S
C4394 C4410 1.368 . S
H4395 C4403 0.950 . S
H4396 C4401 0.950 . S
H4397 C4402 0.949 . S
H4398 C4404 0.950 . S
H4399 C4405 0.950 . S
H4400 C4406 0.949 . S
C4401 H4396 0.950 . S
C4401 C4403 1.327 . S
C4401 C4407 1.429 . S
C4402 C4394 1.574 . S
C4402 H4397 0.949 . S
C4402 C4408 1.368 . S
C4403 C4387 1.349 . S
C4403 H4395 0.950 . S
C4403 C4401 1.327 . S
C4404 C4392 1.349 . S
C4404 H4398 0.950 . S
C4404 C4405 1.327 . S
C4405 H4399 0.950 . S
C4405 C4404 1.327 . S
C4405 C4409 1.429 . S
C4406 C4389 1.574 . S
C4406 H4400 0.949 . S
C4406 C4410 1.368 . S
C4407 C4388 1.429 . S
C4407 C4401 1.429 . S
C4407 C4408 1.523 . S
C4408 C4389 1.368 . S
C4408 C4402 1.368 . S
C4408 C4407 1.523 . S
C4409 C4393 1.429 . S
C4409 C4405 1.429 . S
C4409 C4410 1.523 . S
C4410 C4394 1.368 . S
C4410 C4406 1.368 . S
C4410 C4409 1.523 . S
H4411 C4386 0.950 . S
H4412 C4388 0.950 . S
H4413 C4389 0.949 . S
H4414 C4391 0.950 . S
H4415 C4393 0.950 . S
C4416 C4417 1.349 . S
C4416 C4418 1.327 . S
C4416 H4441 0.950 . S
C4417 C4416 1.349 . S
C4417 C4433 1.349 . S
C4418 C4416 1.327 . S
C4418 C4437 1.429 . S
C4418 H4442 0.950 . S
C4419 C4436 1.574 . S
C4419 C4438 1.368 . S
C4419 H4443 0.949 . S
H4420 C4424 0.949 . S
C4421 C4422 1.349 . S
C4421 C4423 1.327 . S
C4421 H4444 0.950 . S
C4422 C4421 1.349 . S
C4422 C4434 1.349 . S
C4423 C4421 1.327 . S
C4423 C4439 1.429 . S
C4423 H4445 0.950 . S
C4424 H4420 0.949 . S
C4424 C4432 1.574 . S
C4424 C4440 1.368 . S
H4425 C4433 0.950 . S
H4426 C4431 0.950 . S
H4427 C4432 0.949 . S
H4428 C4434 0.950 . S
H4429 C4435 0.950 . S
H4430 C4436 0.949 . S
C4431 H4426 0.950 . S
C4431 C4433 1.327 . S
C4431 C4437 1.429 . S
C4432 C4424 1.574 . S
C4432 H4427 0.949 . S
C4432 C4438 1.368 . S
C4433 C4417 1.349 . S
C4433 H4425 0.950 . S
C4433 C4431 1.327 . S
C4434 C4422 1.349 . S
C4434 H4428 0.950 . S
C4434 C4435 1.327 . S
C4435 H4429 0.950 . S
C4435 C4434 1.327 . S
C4435 C4439 1.429 . S
C4436 C4419 1.574 . S
C4436 H4430 0.949 . S
C4436 C4440 1.368 . S
C4437 C4418 1.429 . S
C4437 C4431 1.429 . S
C4437 C4438 1.523 . S
C4438 C4419 1.368 . S
C4438 C4432 1.368 . S
C4438 C4437 1.523 . S
C4439 C4423 1.429 . S
C4439 C4435 1.429 . S
C4439 C4440 1.523 . S
C4440 C4424 1.368 . S
C4440 C4436 1.368 . S
C4440 C4439 1.523 . S
H4441 C4416 0.950 . S
H4442 C4418 0.950 . S
H4443 C4419 0.949 . S
H4444 C4421 0.950 . S
H4445 C4423 0.950 . S
C4446 C4447 1.349 . S
C4446 C4448 1.327 . S
C4446 H4471 0.950 . S
C4447 C4446 1.349 . S
C4447 C4463 1.349 . S
C4448 C4446 1.327 . S
C4448 C4467 1.429 . S
C4448 H4472 0.950 . S
C4449 C4466 1.574 . S
C4449 C4468 1.368 . S
C4449 H4473 0.949 . S
H4450 C4454 0.949 . S
C4451 C4452 1.349 . S
C4451 C4453 1.327 . S
C4451 H4474 0.950 . S
C4452 C4451 1.349 . S
C4452 C4464 1.349 . S
C4453 C4451 1.327 . S
C4453 C4469 1.429 . S
C4453 H4475 0.950 . S
C4454 H4450 0.949 . S
C4454 C4462 1.574 . S
C4454 C4470 1.368 . S
H4455 C4463 0.950 . S
H4456 C4461 0.950 . S
H4457 C4462 0.949 . S
H4458 C4464 0.950 . S
H4459 C4465 0.950 . S
H4460 C4466 0.949 . S
C4461 H4456 0.950 . S
C4461 C4463 1.327 . S
C4461 C4467 1.429 . S
C4462 C4454 1.574 . S
C4462 H4457 0.949 . S
C4462 C4468 1.368 . S
C4463 C4447 1.349 . S
C4463 H4455 0.950 . S
C4463 C4461 1.327 . S
C4464 C4452 1.349 . S
C4464 H4458 0.950 . S
C4464 C4465 1.327 . S
C4465 H4459 0.950 . S
C4465 C4464 1.327 . S
C4465 C4469 1.429 . S
C4466 C4449 1.574 . S
C4466 H4460 0.949 . S
C4466 C4470 1.368 . S
C4467 C4448 1.429 . S
C4467 C4461 1.429 . S
C4467 C4468 1.523 . S
C4468 C4449 1.368 . S
C4468 C4462 1.368 . S
C4468 C4467 1.523 . S
C4469 C4453 1.429 . S
C4469 C4465 1.429 . S
C4469 C4470 1.523 . S
C4470 C4454 1.368 . S
C4470 C4466 1.368 . S
C4470 C4469 1.523 . S
H4471 C4446 0.950 . S
H4472 C4448 0.950 . S
H4473 C4449 0.949 . S
H4474 C4451 0.950 . S
H4475 C4453 0.950 . S
C4476 C4477 1.349 . S
C4476 C4478 1.327 . S
C4476 H4501 0.950 . S
C4477 C4476 1.349 . S
C4477 C4493 1.349 . S
C4478 C4476 1.327 . S
C4478 C4497 1.429 . S
C4478 H4502 0.950 . S
C4479 C4496 1.574 . S
C4479 C4498 1.368 . S
C4479 H4503 0.949 . S
H4480 C4484 0.949 . S
C4481 C4482 1.349 . S
C4481 C4483 1.327 . S
C4481 H4504 0.950 . S
C4482 C4481 1.349 . S
C4482 C4494 1.349 . S
C4483 C4481 1.327 . S
C4483 C4499 1.429 . S
C4483 H4505 0.950 . S
C4484 H4480 0.949 . S
C4484 C4492 1.574 . S
C4484 C4500 1.368 . S
H4485 C4493 0.950 . S
H4486 C4491 0.950 . S
H4487 C4492 0.949 . S
H4488 C4494 0.950 . S
H4489 C4495 0.950 . S
H4490 C4496 0.949 . S
C4491 H4486 0.950 . S
C4491 C4493 1.327 . S
C4491 C4497 1.429 . S
C4492 C4484 1.574 . S
C4492 H4487 0.949 . S
C4492 C4498 1.368 . S
C4493 C4477 1.349 . S
C4493 H4485 0.950 . S
C4493 C4491 1.327 . S
C4494 C4482 1.349 . S
C4494 H4488 0.950 . S
C4494 C4495 1.327 . S
C4495 H4489 0.950 . S
C4495 C4494 1.327 . S
C4495 C4499 1.429 . S
C4496 C4479 1.574 . S
C4496 H4490 0.949 . S
C4496 C4500 1.368 . S
C4497 C4478 1.429 . S
C4497 C4491 1.429 . S
C4497 C4498 1.523 . S
C4498 C4479 1.368 . S
C4498 C4492 1.368 . S
C4498 C4497 1.523 . S
C4499 C4483 1.429 . S
C4499 C4495 1.429 . S
C4499 C4500 1.523 . S
C4500 C4484 1.368 . S
C4500 C4496 1.368 . S
C4500 C4499 1.523 . S
H4501 C4476 0.950 . S
H4502 C4478 0.950 . S
H4503 C4479 0.949 . S
H4504 C4481 0.950 . S
H4505 C4483 0.950 . S
C4506 C4507 1.349 . S
C4506 C4508 1.327 . S
C4506 H4531 0.950 . S
C4507 C4506 1.349 . S
C4507 C4523 1.349 . S
C4508 C4506 1.327 . S
C4508 C4527 1.429 . S
C4508 H4532 0.950 . S
C4509 C4526 1.574 . S
C4509 C4528 1.368 . S
C4509 H4533 0.949 . S
H4510 C4514 0.949 . S
C4511 C4512 1.349 . S
C4511 C4513 1.327 . S
C4511 H4534 0.950 . S
C4512 C4511 1.349 . S
C4512 C4524 1.349 . S
C4513 C4511 1.327 . S
C4513 C4529 1.429 . S
C4513 H4535 0.950 . S
C4514 H4510 0.949 . S
C4514 C4522 1.574 . S
C4514 C4530 1.368 . S
H4515 C4523 0.950 . S
H4516 C4521 0.950 . S
H4517 C4522 0.949 . S
H4518 C4524 0.950 . S
H4519 C4525 0.950 . S
H4520 C4526 0.949 . S
C4521 H4516 0.950 . S
C4521 C4523 1.327 . S
C4521 C4527 1.429 . S
C4522 C4514 1.574 . S
C4522 H4517 0.949 . S
C4522 C4528 1.368 . S
C4523 C4507 1.349 . S
C4523 H4515 0.950 . S
C4523 C4521 1.327 . S
C4524 C4512 1.349 . S
C4524 H4518 0.950 . S
C4524 C4525 1.327 . S
C4525 H4519 0.950 . S
C4525 C4524 1.327 . S
C4525 C4529 1.429 . S
C4526 C4509 1.574 . S
C4526 H4520 0.949 . S
C4526 C4530 1.368 . S
C4527 C4508 1.429 . S
C4527 C4521 1.429 . S
C4527 C4528 1.523 . S
C4528 C4509 1.368 . S
C4528 C4522 1.368 . S
C4528 C4527 1.523 . S
C4529 C4513 1.429 . S
C4529 C4525 1.429 . S
C4529 C4530 1.523 . S
C4530 C4514 1.368 . S
C4530 C4526 1.368 . S
C4530 C4529 1.523 . S
H4531 C4506 0.950 . S
H4532 C4508 0.950 . S
H4533 C4509 0.949 . S
H4534 C4511 0.950 . S
H4535 C4513 0.950 . S
C4536 C4537 1.349 . S
C4536 C4538 1.327 . S
C4536 H4561 0.950 . S
C4537 C4536 1.349 . S
C4537 C4553 1.349 . S
C4538 C4536 1.327 . S
C4538 C4557 1.429 . S
C4538 H4562 0.950 . S
C4539 C4556 1.574 . S
C4539 C4558 1.368 . S
C4539 H4563 0.949 . S
H4540 C4544 0.949 . S
C4541 C4542 1.349 . S
C4541 C4543 1.327 . S
C4541 H4564 0.950 . S
C4542 C4541 1.349 . S
C4542 C4554 1.349 . S
C4543 C4541 1.327 . S
C4543 C4559 1.429 . S
C4543 H4565 0.950 . S
C4544 H4540 0.949 . S
C4544 C4552 1.574 . S
C4544 C4560 1.368 . S
H4545 C4553 0.950 . S
H4546 C4551 0.950 . S
H4547 C4552 0.949 . S
H4548 C4554 0.950 . S
H4549 C4555 0.950 . S
H4550 C4556 0.949 . S
C4551 H4546 0.950 . S
C4551 C4553 1.327 . S
C4551 C4557 1.429 . S
C4552 C4544 1.574 . S
C4552 H4547 0.949 . S
C4552 C4558 1.368 . S
C4553 C4537 1.349 . S
C4553 H4545 0.950 . S
C4553 C4551 1.327 . S
C4554 C4542 1.349 . S
C4554 H4548 0.950 . S
C4554 C4555 1.327 . S
C4555 H4549 0.950 . S
C4555 C4554 1.327 . S
C4555 C4559 1.429 . S
C4556 C4539 1.574 . S
C4556 H4550 0.949 . S
C4556 C4560 1.368 . S
C4557 C4538 1.429 . S
C4557 C4551 1.429 . S
C4557 C4558 1.523 . S
C4558 C4539 1.368 . S
C4558 C4552 1.368 . S
C4558 C4557 1.523 . S
C4559 C4543 1.429 . S
C4559 C4555 1.429 . S
C4559 C4560 1.523 . S
C4560 C4544 1.368 . S
C4560 C4556 1.368 . S
C4560 C4559 1.523 . S
H4561 C4536 0.950 . S
H4562 C4538 0.950 . S
H4563 C4539 0.949 . S
H4564 C4541 0.950 . S
H4565 C4543 0.950 . S
C4566 C4567 1.349 . S
C4566 C4568 1.327 . S
C4566 H4591 0.950 . S
C4567 C4566 1.349 . S
C4567 C4583 1.349 . S
C4568 C4566 1.327 . S
C4568 C4587 1.429 . S
C4568 H4592 0.950 . S
C4569 C4586 1.574 . S
C4569 C4588 1.368 . S
C4569 H4593 0.949 . S
H4570 C4574 0.949 . S
C4571 C4572 1.349 . S
C4571 C4573 1.327 . S
C4571 H4594 0.950 . S
C4572 C4571 1.349 . S
C4572 C4584 1.349 . S
C4573 C4571 1.327 . S
C4573 C4589 1.429 . S
C4573 H4595 0.950 . S
C4574 H4570 0.949 . S
C4574 C4582 1.574 . S
C4574 C4590 1.368 . S
H4575 C4583 0.950 . S
H4576 C4581 0.950 . S
H4577 C4582 0.949 . S
H4578 C4584 0.950 . S
H4579 C4585 0.950 . S
H4580 C4586 0.949 . S
C4581 H4576 0.950 . S
C4581 C4583 1.327 . S
C4581 C4587 1.429 . S
C4582 C4574 1.574 . S
C4582 H4577 0.949 . S
C4582 C4588 1.368 . S
C4583 C4567 1.349 . S
C4583 H4575 0.950 . S
C4583 C4581 1.327 . S
C4584 C4572 1.349 . S
C4584 H4578 0.950 . S
C4584 C4585 1.327 . S
C4585 H4579 0.950 . S
C4585 C4584 1.327 . S
C4585 C4589 1.429 . S
C4586 C4569 1.574 . S
C4586 H4580 0.949 . S
C4586 C4590 1.368 . S
C4587 C4568 1.429 . S
C4587 C4581 1.429 . S
C4587 C4588 1.523 . S
C4588 C4569 1.368 . S
C4588 C4582 1.368 . S
C4588 C4587 1.523 . S
C4589 C4573 1.429 . S
C4589 C4585 1.429 . S
C4589 C4590 1.523 . S
C4590 C4574 1.368 . S
C4590 C4586 1.368 . S
C4590 C4589 1.523 . S
H4591 C4566 0.950 . S
H4592 C4568 0.950 . S
H4593 C4569 0.949 . S
H4594 C4571 0.950 . S
H4595 C4573 0.950 . S
C4596 C4597 1.349 . S
C4596 C4598 1.327 . S
C4596 H4621 0.950 . S
C4597 C4596 1.349 . S
C4597 C4613 1.349 . S
C4598 C4596 1.327 . S
C4598 C4617 1.429 . S
C4598 H4622 0.950 . S
C4599 C4616 1.574 . S
C4599 C4618 1.368 . S
C4599 H4623 0.949 . S
H4600 C4604 0.949 . S
C4601 C4602 1.349 . S
C4601 C4603 1.327 . S
C4601 H4624 0.950 . S
C4602 C4601 1.349 . S
C4602 C4614 1.349 . S
C4603 C4601 1.327 . S
C4603 C4619 1.429 . S
C4603 H4625 0.950 . S
C4604 H4600 0.949 . S
C4604 C4612 1.574 . S
C4604 C4620 1.368 . S
H4605 C4613 0.950 . S
H4606 C4611 0.950 . S
H4607 C4612 0.949 . S
H4608 C4614 0.950 . S
H4609 C4615 0.950 . S
H4610 C4616 0.949 . S
C4611 H4606 0.950 . S
C4611 C4613 1.327 . S
C4611 C4617 1.429 . S
C4612 C4604 1.574 . S
C4612 H4607 0.949 . S
C4612 C4618 1.368 . S
C4613 C4597 1.349 . S
C4613 H4605 0.950 . S
C4613 C4611 1.327 . S
C4614 C4602 1.349 . S
C4614 H4608 0.950 . S
C4614 C4615 1.327 . S
C4615 H4609 0.950 . S
C4615 C4614 1.327 . S
C4615 C4619 1.429 . S
C4616 C4599 1.574 . S
C4616 H4610 0.949 . S
C4616 C4620 1.368 . S
C4617 C4598 1.429 . S
C4617 C4611 1.429 . S
C4617 C4618 1.523 . S
C4618 C4599 1.368 . S
C4618 C4612 1.368 . S
C4618 C4617 1.523 . S
C4619 C4603 1.429 . S
C4619 C4615 1.429 . S
C4619 C4620 1.523 . S
C4620 C4604 1.368 . S
C4620 C4616 1.368 . S
C4620 C4619 1.523 . S
H4621 C4596 0.950 . S
H4622 C4598 0.950 . S
H4623 C4599 0.949 . S
H4624 C4601 0.950 . S
H4625 C4603 0.950 . S
C4626 C4627 1.349 . S
C4626 C4628 1.327 . S
C4626 H4651 0.950 . S
C4627 C4626 1.349 . S
C4627 C4643 1.349 . S
C4628 C4626 1.327 . S
C4628 C4647 1.429 . S
C4628 H4652 0.950 . S
C4629 C4646 1.574 . S
C4629 C4648 1.368 . S
C4629 H4653 0.949 . S
H4630 C4634 0.949 . S
C4631 C4632 1.349 . S
C4631 C4633 1.327 . S
C4631 H4654 0.950 . S
C4632 C4631 1.349 . S
C4632 C4644 1.349 . S
C4633 C4631 1.327 . S
C4633 C4649 1.429 . S
C4633 H4655 0.950 . S
C4634 H4630 0.949 . S
C4634 C4642 1.574 . S
C4634 C4650 1.368 . S
H4635 C4643 0.950 . S
H4636 C4641 0.950 . S
H4637 C4642 0.949 . S
H4638 C4644 0.950 . S
H4639 C4645 0.950 . S
H4640 C4646 0.949 . S
C4641 H4636 0.950 . S
C4641 C4643 1.327 . S
C4641 C4647 1.429 . S
C4642 C4634 1.574 . S
C4642 H4637 0.949 . S
C4642 C4648 1.368 . S
C4643 C4627 1.349 . S
C4643 H4635 0.950 . S
C4643 C4641 1.327 . S
C4644 C4632 1.349 . S
C4644 H4638 0.950 . S
C4644 C4645 1.327 . S
C4645 H4639 0.950 . S
C4645 C4644 1.327 . S
C4645 C4649 1.429 . S
C4646 C4629 1.574 . S
C4646 H4640 0.949 . S
C4646 C4650 1.368 . S
C4647 C4628 1.429 . S
C4647 C4641 1.429 . S
C4647 C4648 1.523 . S
C4648 C4629 1.368 . S
C4648 C4642 1.368 . S
C4648 C4647 1.523 . S
C4649 C4633 1.429 . S
C4649 C4645 1.429 . S
C4649 C4650 1.523 . S
C4650 C4634 1.368 . S
C4650 C4646 1.368 . S
C4650 C4649 1.523 . S
H4651 C4626 0.950 . S
H4652 C4628 0.950 . S
H4653 C4629 0.949 . S
H4654 C4631 0.950 . S
H4655 C4633 0.950 . S
C4656 C4657 1.349 . S
C4656 C4658 1.327 . S
C4656 H4681 0.950 . S
C4657 C4656 1.349 . S
C4657 C4673 1.349 . S
C4658 C4656 1.327 . S
C4658 C4677 1.429 . S
C4658 H4682 0.950 . S
C4659 C4676 1.574 . S
C4659 C4678 1.368 . S
C4659 H4683 0.949 . S
H4660 C4664 0.949 . S
C4661 C4662 1.349 . S
C4661 C4663 1.327 . S
C4661 H4684 0.950 . S
C4662 C4661 1.349 . S
C4662 C4674 1.349 . S
C4663 C4661 1.327 . S
C4663 C4679 1.429 . S
C4663 H4685 0.950 . S
C4664 H4660 0.949 . S
C4664 C4672 1.574 . S
C4664 C4680 1.368 . S
H4665 C4673 0.950 . S
H4666 C4671 0.950 . S
H4667 C4672 0.949 . S
H4668 C4674 0.950 . S
H4669 C4675 0.950 . S
H4670 C4676 0.949 . S
C4671 H4666 0.950 . S
C4671 C4673 1.327 . S
C4671 C4677 1.429 . S
C4672 C4664 1.574 . S
C4672 H4667 0.949 . S
C4672 C4678 1.368 . S
C4673 C4657 1.349 . S
C4673 H4665 0.950 . S
C4673 C4671 1.327 . S
C4674 C4662 1.349 . S
C4674 H4668 0.950 . S
C4674 C4675 1.327 . S
C4675 H4669 0.950 . S
C4675 C4674 1.327 . S
C4675 C4679 1.429 . S
C4676 C4659 1.574 . S
C4676 H4670 0.949 . S
C4676 C4680 1.368 . S
C4677 C4658 1.429 . S
C4677 C4671 1.429 . S
C4677 C4678 1.523 . S
C4678 C4659 1.368 . S
C4678 C4672 1.368 . S
C4678 C4677 1.523 . S
C4679 C4663 1.429 . S
C4679 C4675 1.429 . S
C4679 C4680 1.523 . S
C4680 C4664 1.368 . S
C4680 C4676 1.368 . S
C4680 C4679 1.523 . S
H4681 C4656 0.950 . S
H4682 C4658 0.950 . S
H4683 C4659 0.949 . S
H4684 C4661 0.950 . S
H4685 C4663 0.950 . S
C4686 C4687 1.349 . S
C4686 C4688 1.327 . S
C4686 H4711 0.950 . S
C4687 C4686 1.349 . S
C4687 C4703 1.349 . S
C4688 C4686 1.327 . S
C4688 C4707 1.429 . S
C4688 H4712 0.950 . S
C4689 C4706 1.574 . S
C4689 C4708 1.368 . S
C4689 H4713 0.949 . S
H4690 C4694 0.949 . S
C4691 C4692 1.349 . S
C4691 C4693 1.327 . S
C4691 H4714 0.950 . S
C4692 C4691 1.349 . S
C4692 C4704 1.349 . S
C4693 C4691 1.327 . S
C4693 C4709 1.429 . S
C4693 H4715 0.950 . S
C4694 H4690 0.949 . S
C4694 C4702 1.574 . S
C4694 C4710 1.368 . S
H4695 C4703 0.950 . S
H4696 C4701 0.950 . S
H4697 C4702 0.949 . S
H4698 C4704 0.950 . S
H4699 C4705 0.950 . S
H4700 C4706 0.949 . S
C4701 H4696 0.950 . S
C4701 C4703 1.327 . S
C4701 C4707 1.429 . S
C4702 C4694 1.574 . S
C4702 H4697 0.949 . S
C4702 C4708 1.368 . S
C4703 C4687 1.349 . S
C4703 H4695 0.950 . S
C4703 C4701 1.327 . S
C4704 C4692 1.349 . S
C4704 H4698 0.950 . S
C4704 C4705 1.327 . S
C4705 H4699 0.950 . S
C4705 C4704 1.327 . S
C4705 C4709 1.429 . S
C4706 C4689 1.574 . S
C4706 H4700 0.949 . S
C4706 C4710 1.368 . S
C4707 C4688 1.429 . S
C4707 C4701 1.429 . S
C4707 C4708 1.523 . S
C4708 C4689 1.368 . S
C4708 C4702 1.368 . S
C4708 C4707 1.523 . S
C4709 C4693 1.429 . S
C4709 C4705 1.429 . S
C4709 C4710 1.523 . S
C4710 C4694 1.368 . S
C4710 C4706 1.368 . S
C4710 C4709 1.523 . S
H4711 C4686 0.950 . S
H4712 C4688 0.950 . S
H4713 C4689 0.949 . S
H4714 C4691 0.950 . S
H4715 C4693 0.950 . S
C4716 C4717 1.349 . S
C4716 C4718 1.327 . S
C4716 H4741 0.950 . S
C4717 C4716 1.349 . S
C4717 C4733 1.349 . S
C4718 C4716 1.327 . S
C4718 C4737 1.429 . S
C4718 H4742 0.950 . S
C4719 C4736 1.574 . S
C4719 C4738 1.368 . S
C4719 H4743 0.949 . S
H4720 C4724 0.949 . S
C4721 C4722 1.349 . S
C4721 C4723 1.327 . S
C4721 H4744 0.950 . S
C4722 C4721 1.349 . S
C4722 C4734 1.349 . S
C4723 C4721 1.327 . S
C4723 C4739 1.429 . S
C4723 H4745 0.950 . S
C4724 H4720 0.949 . S
C4724 C4732 1.574 . S
C4724 C4740 1.368 . S
H4725 C4733 0.950 . S
H4726 C4731 0.950 . S
H4727 C4732 0.949 . S
H4728 C4734 0.950 . S
H4729 C4735 0.950 . S
H4730 C4736 0.949 . S
C4731 H4726 0.950 . S
C4731 C4733 1.327 . S
C4731 C4737 1.429 . S
C4732 C4724 1.574 . S
C4732 H4727 0.949 . S
C4732 C4738 1.368 . S
C4733 C4717 1.349 . S
C4733 H4725 0.950 . S
C4733 C4731 1.327 . S
C4734 C4722 1.349 . S
C4734 H4728 0.950 . S
C4734 C4735 1.327 . S
C4735 H4729 0.950 . S
C4735 C4734 1.327 . S
C4735 C4739 1.429 . S
C4736 C4719 1.574 . S
C4736 H4730 0.949 . S
C4736 C4740 1.368 . S
C4737 C4718 1.429 . S
C4737 C4731 1.429 . S
C4737 C4738 1.523 . S
C4738 C4719 1.368 . S
C4738 C4732 1.368 . S
C4738 C4737 1.523 . S
C4739 C4723 1.429 . S
C4739 C4735 1.429 . S
C4739 C4740 1.523 . S
C4740 C4724 1.368 . S
C4740 C4736 1.368 . S
C4740 C4739 1.523 . S
H4741 C4716 0.950 . S
H4742 C4718 0.950 . S
H4743 C4719 0.949 . S
H4744 C4721 0.950 . S
H4745 C4723 0.950 . S
C4746 C4747 1.349 . S
C4746 C4748 1.327 . S
C4746 H4771 0.950 . S
C4747 C4746 1.349 . S
C4747 C4763 1.349 . S
C4748 C4746 1.327 . S
C4748 C4767 1.429 . S
C4748 H4772 0.950 . S
C4749 C4766 1.574 . S
C4749 C4768 1.368 . S
C4749 H4773 0.949 . S
H4750 C4754 0.949 . S
C4751 C4752 1.349 . S
C4751 C4753 1.327 . S
C4751 H4774 0.950 . S
C4752 C4751 1.349 . S
C4752 C4764 1.349 . S
C4753 C4751 1.327 . S
C4753 C4769 1.429 . S
C4753 H4775 0.950 . S
C4754 H4750 0.949 . S
C4754 C4762 1.574 . S
C4754 C4770 1.368 . S
H4755 C4763 0.950 . S
H4756 C4761 0.950 . S
H4757 C4762 0.949 . S
H4758 C4764 0.950 . S
H4759 C4765 0.950 . S
H4760 C4766 0.949 . S
C4761 H4756 0.950 . S
C4761 C4763 1.327 . S
C4761 C4767 1.429 . S
C4762 C4754 1.574 . S
C4762 H4757 0.949 . S
C4762 C4768 1.368 . S
C4763 C4747 1.349 . S
C4763 H4755 0.950 . S
C4763 C4761 1.327 . S
C4764 C4752 1.349 . S
C4764 H4758 0.950 . S
C4764 C4765 1.327 . S
C4765 H4759 0.950 . S
C4765 C4764 1.327 . S
C4765 C4769 1.429 . S
C4766 C4749 1.574 . S
C4766 H4760 0.949 . S
C4766 C4770 1.368 . S
C4767 C4748 1.429 . S
C4767 C4761 1.429 . S
C4767 C4768 1.523 . S
C4768 C4749 1.368 . S
C4768 C4762 1.368 . S
C4768 C4767 1.523 . S
C4769 C4753 1.429 . S
C4769 C4765 1.429 . S
C4769 C4770 1.523 . S
C4770 C4754 1.368 . S
C4770 C4766 1.368 . S
C4770 C4769 1.523 . S
H4771 C4746 0.950 . S
H4772 C4748 0.950 . S
H4773 C4749 0.949 . S
H4774 C4751 0.950 . S
H4775 C4753 0.950 . S
C4776 C4777 1.349 . S
C4776 C4778 1.327 . S
C4776 H4801 0.950 . S
C4777 C4776 1.349 . S
C4777 C4793 1.349 . S
C4778 C4776 1.327 . S
C4778 C4797 1.429 . S
C4778 H4802 0.950 . S
C4779 C4796 1.574 . S
C4779 C4798 1.368 . S
C4779 H4803 0.949 . S
H4780 C4784 0.949 . S
C4781 C4782 1.349 . S
C4781 C4783 1.327 . S
C4781 H4804 0.950 . S
C4782 C4781 1.349 . S
C4782 C4794 1.349 . S
C4783 C4781 1.327 . S
C4783 C4799 1.429 . S
C4783 H4805 0.950 . S
C4784 H4780 0.949 . S
C4784 C4792 1.574 . S
C4784 C4800 1.368 . S
H4785 C4793 0.950 . S
H4786 C4791 0.950 . S
H4787 C4792 0.949 . S
H4788 C4794 0.950 . S
H4789 C4795 0.950 . S
H4790 C4796 0.949 . S
C4791 H4786 0.950 . S
C4791 C4793 1.327 . S
C4791 C4797 1.429 . S
C4792 C4784 1.574 . S
C4792 H4787 0.949 . S
C4792 C4798 1.368 . S
C4793 C4777 1.349 . S
C4793 H4785 0.950 . S
C4793 C4791 1.327 . S
C4794 C4782 1.349 . S
C4794 H4788 0.950 . S
C4794 C4795 1.327 . S
C4795 H4789 0.950 . S
C4795 C4794 1.327 . S
C4795 C4799 1.429 . S
C4796 C4779 1.574 . S
C4796 H4790 0.949 . S
C4796 C4800 1.368 . S
C4797 C4778 1.429 . S
C4797 C4791 1.429 . S
C4797 C4798 1.523 . S
C4798 C4779 1.368 . S
C4798 C4792 1.368 . S
C4798 C4797 1.523 . S
C4799 C4783 1.429 . S
C4799 C4795 1.429 . S
C4799 C4800 1.523 . S
C4800 C4784 1.368 . S
C4800 C4796 1.368 . S
C4800 C4799 1.523 . S
H4801 C4776 0.950 . S
H4802 C4778 0.950 . S
H4803 C4779 0.949 . S
H4804 C4781 0.950 . S
H4805 C4783 0.950 . S
C4806 C4807 1.349 . S
C4806 C4808 1.327 . S
C4806 H4831 0.950 . S
C4807 C4806 1.349 . S
C4807 C4823 1.349 . S
C4808 C4806 1.327 . S
C4808 C4827 1.429 . S
C4808 H4832 0.950 . S
C4809 C4826 1.574 . S
C4809 C4828 1.368 . S
C4809 H4833 0.949 . S
H4810 C4814 0.949 . S
C4811 C4812 1.349 . S
C4811 C4813 1.327 . S
C4811 H4834 0.950 . S
C4812 C4811 1.349 . S
C4812 C4824 1.349 . S
C4813 C4811 1.327 . S
C4813 C4829 1.429 . S
C4813 H4835 0.950 . S
C4814 H4810 0.949 . S
C4814 C4822 1.574 . S
C4814 C4830 1.368 . S
H4815 C4823 0.950 . S
H4816 C4821 0.950 . S
H4817 C4822 0.949 . S
H4818 C4824 0.950 . S
H4819 C4825 0.950 . S
H4820 C4826 0.949 . S
C4821 H4816 0.950 . S
C4821 C4823 1.327 . S
C4821 C4827 1.429 . S
C4822 C4814 1.574 . S
C4822 H4817 0.949 . S
C4822 C4828 1.368 . S
C4823 C4807 1.349 . S
C4823 H4815 0.950 . S
C4823 C4821 1.327 . S
C4824 C4812 1.349 . S
C4824 H4818 0.950 . S
C4824 C4825 1.327 . S
C4825 H4819 0.950 . S
C4825 C4824 1.327 . S
C4825 C4829 1.429 . S
C4826 C4809 1.574 . S
C4826 H4820 0.949 . S
C4826 C4830 1.368 . S
C4827 C4808 1.429 . S
C4827 C4821 1.429 . S
C4827 C4828 1.523 . S
C4828 C4809 1.368 . S
C4828 C4822 1.368 . S
C4828 C4827 1.523 . S
C4829 C4813 1.429 . S
C4829 C4825 1.429 . S
C4829 C4830 1.523 . S
C4830 C4814 1.368 . S
C4830 C4826 1.368 . S
C4830 C4829 1.523 . S
H4831 C4806 0.950 . S
H4832 C4808 0.950 . S
H4833 C4809 0.949 . S
H4834 C4811 0.950 . S
H4835 C4813 0.950 . S
C4836 C4837 1.349 . S
C4836 C4838 1.327 . S
C4836 H4861 0.950 . S
C4837 C4836 1.349 . S
C4837 C4853 1.349 . S
C4838 C4836 1.327 . S
C4838 C4857 1.429 . S
C4838 H4862 0.950 . S
C4839 C4856 1.574 . S
C4839 C4858 1.368 . S
C4839 H4863 0.949 . S
H4840 C4844 0.949 . S
C4841 C4842 1.349 . S
C4841 C4843 1.327 . S
C4841 H4864 0.950 . S
C4842 C4841 1.349 . S
C4842 C4854 1.349 . S
C4843 C4841 1.327 . S
C4843 C4859 1.429 . S
C4843 H4865 0.950 . S
C4844 H4840 0.949 . S
C4844 C4852 1.574 . S
C4844 C4860 1.368 . S
H4845 C4853 0.950 . S
H4846 C4851 0.950 . S
H4847 C4852 0.949 . S
H4848 C4854 0.950 . S
H4849 C4855 0.950 . S
H4850 C4856 0.949 . S
C4851 H4846 0.950 . S
C4851 C4853 1.327 . S
C4851 C4857 1.429 . S
C4852 C4844 1.574 . S
C4852 H4847 0.949 . S
C4852 C4858 1.368 . S
C4853 C4837 1.349 . S
C4853 H4845 0.950 . S
C4853 C4851 1.327 . S
C4854 C4842 1.349 . S
C4854 H4848 0.950 . S
C4854 C4855 1.327 . S
C4855 H4849 0.950 . S
C4855 C4854 1.327 . S
C4855 C4859 1.429 . S
C4856 C4839 1.574 . S
C4856 H4850 0.949 . S
C4856 C4860 1.368 . S
C4857 C4838 1.429 . S
C4857 C4851 1.429 . S
C4857 C4858 1.523 . S
C4858 C4839 1.368 . S
C4858 C4852 1.368 . S
C4858 C4857 1.523 . S
C4859 C4843 1.429 . S
C4859 C4855 1.429 . S
C4859 C4860 1.523 . S
C4860 C4844 1.368 . S
C4860 C4856 1.368 . S
C4860 C4859 1.523 . S
H4861 C4836 0.950 . S
H4862 C4838 0.950 . S
H4863 C4839 0.949 . S
H4864 C4841 0.950 . S
H4865 C4843 0.950 . S
C4866 C4867 1.349 . S
C4866 C4868 1.327 . S
C4866 H4891 0.950 . S
C4867 C4866 1.349 . S
C4867 C4883 1.349 . S
C4868 C4866 1.327 . S
C4868 C4887 1.429 . S
C4868 H4892 0.950 . S
C4869 C4886 1.574 . S
C4869 C4888 1.368 . S
C4869 H4893 0.949 . S
H4870 C4874 0.949 . S
C4871 C4872 1.349 . S
C4871 C4873 1.327 . S
C4871 H4894 0.950 . S
C4872 C4871 1.349 . S
C4872 C4884 1.349 . S
C4873 C4871 1.327 . S
C4873 C4889 1.429 . S
C4873 H4895 0.950 . S
C4874 H4870 0.949 . S
C4874 C4882 1.574 . S
C4874 C4890 1.368 . S
H4875 C4883 0.950 . S
H4876 C4881 0.950 . S
H4877 C4882 0.949 . S
H4878 C4884 0.950 . S
H4879 C4885 0.950 . S
H4880 C4886 0.949 . S
C4881 H4876 0.950 . S
C4881 C4883 1.327 . S
C4881 C4887 1.429 . S
C4882 C4874 1.574 . S
C4882 H4877 0.949 . S
C4882 C4888 1.368 . S
C4883 C4867 1.349 . S
C4883 H4875 0.950 . S
C4883 C4881 1.327 . S
C4884 C4872 1.349 . S
C4884 H4878 0.950 . S
C4884 C4885 1.327 . S
C4885 H4879 0.950 . S
C4885 C4884 1.327 . S
C4885 C4889 1.429 . S
C4886 C4869 1.574 . S
C4886 H4880 0.949 . S
C4886 C4890 1.368 . S
C4887 C4868 1.429 . S
C4887 C4881 1.429 . S
C4887 C4888 1.523 . S
C4888 C4869 1.368 . S
C4888 C4882 1.368 . S
C4888 C4887 1.523 . S
C4889 C4873 1.429 . S
C4889 C4885 1.429 . S
C4889 C4890 1.523 . S
C4890 C4874 1.368 . S
C4890 C4886 1.368 . S
C4890 C4889 1.523 . S
H4891 C4866 0.950 . S
H4892 C4868 0.950 . S
H4893 C4869 0.949 . S
H4894 C4871 0.950 . S
H4895 C4873 0.950 . S
C4896 C4897 1.349 . S
C4896 C4898 1.327 . S
C4896 H4921 0.950 . S
C4897 C4896 1.349 . S
C4897 C4913 1.349 . S
C4898 C4896 1.327 . S
C4898 C4917 1.429 . S
C4898 H4922 0.950 . S
C4899 C4916 1.574 . S
C4899 C4918 1.368 . S
C4899 H4923 0.949 . S
H4900 C4904 0.949 . S
C4901 C4902 1.349 . S
C4901 C4903 1.327 . S
C4901 H4924 0.950 . S
C4902 C4901 1.349 . S
C4902 C4914 1.349 . S
C4903 C4901 1.327 . S
C4903 C4919 1.429 . S
C4903 H4925 0.950 . S
C4904 H4900 0.949 . S
C4904 C4912 1.574 . S
C4904 C4920 1.368 . S
H4905 C4913 0.950 . S
H4906 C4911 0.950 . S
H4907 C4912 0.949 . S
H4908 C4914 0.950 . S
H4909 C4915 0.950 . S
H4910 C4916 0.949 . S
C4911 H4906 0.950 . S
C4911 C4913 1.327 . S
C4911 C4917 1.429 . S
C4912 C4904 1.574 . S
C4912 H4907 0.949 . S
C4912 C4918 1.368 . S
C4913 C4897 1.349 . S
C4913 H4905 0.950 . S
C4913 C4911 1.327 . S
C4914 C4902 1.349 . S
C4914 H4908 0.950 . S
C4914 C4915 1.327 . S
C4915 H4909 0.950 . S
C4915 C4914 1.327 . S
C4915 C4919 1.429 . S
C4916 C4899 1.574 . S
C4916 H4910 0.949 . S
C4916 C4920 1.368 . S
C4917 C4898 1.429 . S
C4917 C4911 1.429 . S
C4917 C4918 1.523 . S
C4918 C4899 1.368 . S
C4918 C4912 1.368 . S
C4918 C4917 1.523 . S
C4919 C4903 1.429 . S
C4919 C4915 1.429 . S
C4919 C4920 1.523 . S
C4920 C4904 1.368 . S
C4920 C4916 1.368 . S
C4920 C4919 1.523 . S
H4921 C4896 0.950 . S
H4922 C4898 0.950 . S
H4923 C4899 0.949 . S
H4924 C4901 0.950 . S
H4925 C4903 0.950 . S
C4926 C4927 1.349 . S
C4926 C4928 1.327 . S
C4926 H4951 0.950 . S
C4927 C4926 1.349 . S
C4927 C4943 1.349 . S
C4928 C4926 1.327 . S
C4928 C4947 1.429 . S
C4928 H4952 0.950 . S
C4929 C4946 1.574 . S
C4929 C4948 1.368 . S
C4929 H4953 0.949 . S
H4930 C4934 0.949 . S
C4931 C4932 1.349 . S
C4931 C4933 1.327 . S
C4931 H4954 0.950 . S
C4932 C4931 1.349 . S
C4932 C4944 1.349 . S
C4933 C4931 1.327 . S
C4933 C4949 1.429 . S
C4933 H4955 0.950 . S
C4934 H4930 0.949 . S
C4934 C4942 1.574 . S
C4934 C4950 1.368 . S
H4935 C4943 0.950 . S
H4936 C4941 0.950 . S
H4937 C4942 0.949 . S
H4938 C4944 0.950 . S
H4939 C4945 0.950 . S
H4940 C4946 0.949 . S
C4941 H4936 0.950 . S
C4941 C4943 1.327 . S
C4941 C4947 1.429 . S
C4942 C4934 1.574 . S
C4942 H4937 0.949 . S
C4942 C4948 1.368 . S
C4943 C4927 1.349 . S
C4943 H4935 0.950 . S
C4943 C4941 1.327 . S
C4944 C4932 1.349 . S
C4944 H4938 0.950 . S
C4944 C4945 1.327 . S
C4945 H4939 0.950 . S
C4945 C4944 1.327 . S
C4945 C4949 1.429 . S
C4946 C4929 1.574 . S
C4946 H4940 0.949 . S
C4946 C4950 1.368 . S
C4947 C4928 1.429 . S
C4947 C4941 1.429 . S
C4947 C4948 1.523 . S
C4948 C4929 1.368 . S
C4948 C4942 1.368 . S
C4948 C4947 1.523 . S
C4949 C4933 1.429 . S
C4949 C4945 1.429 . S
C4949 C4950 1.523 . S
C4950 C4934 1.368 . S
C4950 C4946 1.368 . S
C4950 C4949 1.523 . S
H4951 C4926 0.950 . S
H4952 C4928 0.950 . S
H4953 C4929 0.949 . S
H4954 C4931 0.950 . S
H4955 C4933 0.950 . S
C4956 C4957 1.349 . S
C4956 C4958 1.327 . S
C4956 H4981 0.950 . S
C4957 C4956 1.349 . S
C4957 C4973 1.349 . S
C4958 C4956 1.327 . S
C4958 C4977 1.429 . S
C4958 H4982 0.950 . S
C4959 C4976 1.574 . S
C4959 C4978 1.368 . S
C4959 H4983 0.949 . S
H4960 C4964 0.949 . S
C4961 C4962 1.349 . S
C4961 C4963 1.327 . S
C4961 H4984 0.950 . S
C4962 C4961 1.349 . S
C4962 C4974 1.349 . S
C4963 C4961 1.327 . S
C4963 C4979 1.429 . S
C4963 H4985 0.950 . S
C4964 H4960 0.949 . S
C4964 C4972 1.574 . S
C4964 C4980 1.368 . S
H4965 C4973 0.950 . S
H4966 C4971 0.950 . S
H4967 C4972 0.949 . S
H4968 C4974 0.950 . S
H4969 C4975 0.950 . S
H4970 C4976 0.949 . S
C4971 H4966 0.950 . S
C4971 C4973 1.327 . S
C4971 C4977 1.429 . S
C4972 C4964 1.574 . S
C4972 H4967 0.949 . S
C4972 C4978 1.368 . S
C4973 C4957 1.349 . S
C4973 H4965 0.950 . S
C4973 C4971 1.327 . S
C4974 C4962 1.349 . S
C4974 H4968 0.950 . S
C4974 C4975 1.327 . S
C4975 H4969 0.950 . S
C4975 C4974 1.327 . S
C4975 C4979 1.429 . S
C4976 C4959 1.574 . S
C4976 H4970 0.949 . S
C4976 C4980 1.368 . S
C4977 C4958 1.429 . S
C4977 C4971 1.429 . S
C4977 C4978 1.523 . S
C4978 C4959 1.368 . S
C4978 C4972 1.368 . S
C4978 C4977 1.523 . S
C4979 C4963 1.429 . S
C4979 C4975 1.429 . S
C4979 C4980 1.523 . S
C4980 C4964 1.368 . S
C4980 C4976 1.368 . S
C4980 C4979 1.523 . S
H4981 C4956 0.950 . S
H4982 C4958 0.950 . S
H4983 C4959 0.949 . S
H4984 C4961 0.950 . S
H4985 C4963 0.950 . S
C4986 C4987 1.349 . S
C4986 C4988 1.327 . S
C4986 H5011 0.950 . S
C4987 C4986 1.349 . S
C4987 C5003 1.349 . S
C4988 C4986 1.327 . S
C4988 C5007 1.429 . S
C4988 H5012 0.950 . S
C4989 C5006 1.574 . S
C4989 C5008 1.368 . S
C4989 H5013 0.949 . S
H4990 C4994 0.949 . S
C4991 C4992 1.349 . S
C4991 C4993 1.327 . S
C4991 H5014 0.950 . S
C4992 C4991 1.349 . S
C4992 C5004 1.349 . S
C4993 C4991 1.327 . S
C4993 C5009 1.429 . S
C4993 H5015 0.950 . S
C4994 H4990 0.949 . S
C4994 C5002 1.574 . S
C4994 C5010 1.368 . S
H4995 C5003 0.950 . S
H4996 C5001 0.950 . S
H4997 C5002 0.949 . S
H4998 C5004 0.950 . S
H4999 C5005 0.950 . S
H5000 C5006 0.949 . S
C5001 H4996 0.950 . S
C5001 C5003 1.327 . S
C5001 C5007 1.429 . S
C5002 C4994 1.574 . S
C5002 H4997 0.949 . S
C5002 C5008 1.368 . S
C5003 C4987 1.349 . S
C5003 H4995 0.950 . S
C5003 C5001 1.327 . S
C5004 C4992 1.349 . S
C5004 H4998 0.950 . S
C5004 C5005 1.327 . S
C5005 H4999 0.950 . S
C5005 C5004 1.327 . S
C5005 C5009 1.429 . S
C5006 C4989 1.574 . S
C5006 H5000 0.949 . S
C5006 C5010 1.368 . S
C5007 C4988 1.429 . S
C5007 C5001 1.429 . S
C5007 C5008 1.523 . S
C5008 C4989 1.368 . S
C5008 C5002 1.368 . S
C5008 C5007 1.523 . S
C5009 C4993 1.429 . S
C5009 C5005 1.429 . S
C5009 C5010 1.523 . S
C5010 C4994 1.368 . S
C5010 C5006 1.368 . S
C5010 C5009 1.523 . S
H5011 C4986 0.950 . S
H5012 C4988 0.950 . S
H5013 C4989 0.949 . S
H5014 C4991 0.950 . S
H5015 C4993 0.950 . S
C5016 C5017 1.349 . S
C5016 C5018 1.327 . S
C5016 H5041 0.950 . S
C5017 C5016 1.349 . S
C5017 C5033 1.349 . S
C5018 C5016 1.327 . S
C5018 C5037 1.429 . S
C5018 H5042 0.950 . S
C5019 C5036 1.574 . S
C5019 C5038 1.368 . S
C5019 H5043 0.949 . S
H5020 C5024 0.949 . S
C5021 C5022 1.349 . S
C5021 C5023 1.327 . S
C5021 H5044 0.950 . S
C5022 C5021 1.349 . S
C5022 C5034 1.349 . S
C5023 C5021 1.327 . S
C5023 C5039 1.429 . S
C5023 H5045 0.950 . S
C5024 H5020 0.949 . S
C5024 C5032 1.574 . S
C5024 C5040 1.368 . S
H5025 C5033 0.950 . S
H5026 C5031 0.950 . S
H5027 C5032 0.949 . S
H5028 C5034 0.950 . S
H5029 C5035 0.950 . S
H5030 C5036 0.949 . S
C5031 H5026 0.950 . S
C5031 C5033 1.327 . S
C5031 C5037 1.429 . S
C5032 C5024 1.574 . S
C5032 H5027 0.949 . S
C5032 C5038 1.368 . S
C5033 C5017 1.349 . S
C5033 H5025 0.950 . S
C5033 C5031 1.327 . S
C5034 C5022 1.349 . S
C5034 H5028 0.950 . S
C5034 C5035 1.327 . S
C5035 H5029 0.950 . S
C5035 C5034 1.327 . S
C5035 C5039 1.429 . S
C5036 C5019 1.574 . S
C5036 H5030 0.949 . S
C5036 C5040 1.368 . S
C5037 C5018 1.429 . S
C5037 C5031 1.429 . S
C5037 C5038 1.523 . S
C5038 C5019 1.368 . S
C5038 C5032 1.368 . S
C5038 C5037 1.523 . S
C5039 C5023 1.429 . S
C5039 C5035 1.429 . S
C5039 C5040 1.523 . S
C5040 C5024 1.368 . S
C5040 C5036 1.368 . S
C5040 C5039 1.523 . S
H5041 C5016 0.950 . S
H5042 C5018 0.950 . S
H5043 C5019 0.949 . S
H5044 C5021 0.950 . S
H5045 C5023 0.950 . S
C5046 C5047 1.349 . S
C5046 C5048 1.327 . S
C5046 H5071 0.950 . S
C5047 C5046 1.349 . S
C5047 C5063 1.349 . S
C5048 C5046 1.327 . S
C5048 C5067 1.429 . S
C5048 H5072 0.950 . S
C5049 C5066 1.574 . S
C5049 C5068 1.368 . S
C5049 H5073 0.949 . S
H5050 C5054 0.949 . S
C5051 C5052 1.349 . S
C5051 C5053 1.327 . S
C5051 H5074 0.950 . S
C5052 C5051 1.349 . S
C5052 C5064 1.349 . S
C5053 C5051 1.327 . S
C5053 C5069 1.429 . S
C5053 H5075 0.950 . S
C5054 H5050 0.949 . S
C5054 C5062 1.574 . S
C5054 C5070 1.368 . S
H5055 C5063 0.950 . S
H5056 C5061 0.950 . S
H5057 C5062 0.949 . S
H5058 C5064 0.950 . S
H5059 C5065 0.950 . S
H5060 C5066 0.949 . S
C5061 H5056 0.950 . S
C5061 C5063 1.327 . S
C5061 C5067 1.429 . S
C5062 C5054 1.574 . S
C5062 H5057 0.949 . S
C5062 C5068 1.368 . S
C5063 C5047 1.349 . S
C5063 H5055 0.950 . S
C5063 C5061 1.327 . S
C5064 C5052 1.349 . S
C5064 H5058 0.950 . S
C5064 C5065 1.327 . S
C5065 H5059 0.950 . S
C5065 C5064 1.327 . S
C5065 C5069 1.429 . S
C5066 C5049 1.574 . S
C5066 H5060 0.949 . S
C5066 C5070 1.368 . S
C5067 C5048 1.429 . S
C5067 C5061 1.429 . S
C5067 C5068 1.523 . S
C5068 C5049 1.368 . S
C5068 C5062 1.368 . S
C5068 C5067 1.523 . S
C5069 C5053 1.429 . S
C5069 C5065 1.429 . S
C5069 C5070 1.523 . S
C5070 C5054 1.368 . S
C5070 C5066 1.368 . S
C5070 C5069 1.523 . S
H5071 C5046 0.950 . S
H5072 C5048 0.950 . S
H5073 C5049 0.949 . S
H5074 C5051 0.950 . S
H5075 C5053 0.950 . S
C5076 C5077 1.349 . S
C5076 C5078 1.327 . S
C5076 H5101 0.950 . S
C5077 C5076 1.349 . S
C5077 C5093 1.349 . S
C5078 C5076 1.327 . S
C5078 C5097 1.429 . S
C5078 H5102 0.950 . S
C5079 C5096 1.574 . S
C5079 C5098 1.368 . S
C5079 H5103 0.949 . S
H5080 C5084 0.949 . S
C5081 C5082 1.349 . S
C5081 C5083 1.327 . S
C5081 H5104 0.950 . S
C5082 C5081 1.349 . S
C5082 C5094 1.349 . S
C5083 C5081 1.327 . S
C5083 C5099 1.429 . S
C5083 H5105 0.950 . S
C5084 H5080 0.949 . S
C5084 C5092 1.574 . S
C5084 C5100 1.368 . S
H5085 C5093 0.950 . S
H5086 C5091 0.950 . S
H5087 C5092 0.949 . S
H5088 C5094 0.950 . S
H5089 C5095 0.950 . S
H5090 C5096 0.949 . S
C5091 H5086 0.950 . S
C5091 C5093 1.327 . S
C5091 C5097 1.429 . S
C5092 C5084 1.574 . S
C5092 H5087 0.949 . S
C5092 C5098 1.368 . S
C5093 C5077 1.349 . S
C5093 H5085 0.950 . S
C5093 C5091 1.327 . S
C5094 C5082 1.349 . S
C5094 H5088 0.950 . S
C5094 C5095 1.327 . S
C5095 H5089 0.950 . S
C5095 C5094 1.327 . S
C5095 C5099 1.429 . S
C5096 C5079 1.574 . S
C5096 H5090 0.949 . S
C5096 C5100 1.368 . S
C5097 C5078 1.429 . S
C5097 C5091 1.429 . S
C5097 C5098 1.523 . S
C5098 C5079 1.368 . S
C5098 C5092 1.368 . S
C5098 C5097 1.523 . S
C5099 C5083 1.429 . S
C5099 C5095 1.429 . S
C5099 C5100 1.523 . S
C5100 C5084 1.368 . S
C5100 C5096 1.368 . S
C5100 C5099 1.523 . S
H5101 C5076 0.950 . S
H5102 C5078 0.950 . S
H5103 C5079 0.949 . S
H5104 C5081 0.950 . S
H5105 C5083 0.950 . S
C5106 C5107 1.349 . S
C5106 C5108 1.327 . S
C5106 H5131 0.950 . S
C5107 C5106 1.349 . S
C5107 C5123 1.349 . S
C5108 C5106 1.327 . S
C5108 C5127 1.429 . S
C5108 H5132 0.950 . S
C5109 C5126 1.574 . S
C5109 C5128 1.368 . S
C5109 H5133 0.949 . S
H5110 C5114 0.949 . S
C5111 C5112 1.349 . S
C5111 C5113 1.327 . S
C5111 H5134 0.950 . S
C5112 C5111 1.349 . S
C5112 C5124 1.349 . S
C5113 C5111 1.327 . S
C5113 C5129 1.429 . S
C5113 H5135 0.950 . S
C5114 H5110 0.949 . S
C5114 C5122 1.574 . S
C5114 C5130 1.368 . S
H5115 C5123 0.950 . S
H5116 C5121 0.950 . S
H5117 C5122 0.949 . S
H5118 C5124 0.950 . S
H5119 C5125 0.950 . S
H5120 C5126 0.949 . S
C5121 H5116 0.950 . S
C5121 C5123 1.327 . S
C5121 C5127 1.429 . S
C5122 C5114 1.574 . S
C5122 H5117 0.949 . S
C5122 C5128 1.368 . S
C5123 C5107 1.349 . S
C5123 H5115 0.950 . S
C5123 C5121 1.327 . S
C5124 C5112 1.349 . S
C5124 H5118 0.950 . S
C5124 C5125 1.327 . S
C5125 H5119 0.950 . S
C5125 C5124 1.327 . S
C5125 C5129 1.429 . S
C5126 C5109 1.574 . S
C5126 H5120 0.949 . S
C5126 C5130 1.368 . S
C5127 C5108 1.429 . S
C5127 C5121 1.429 . S
C5127 C5128 1.523 . S
C5128 C5109 1.368 . S
C5128 C5122 1.368 . S
C5128 C5127 1.523 . S
C5129 C5113 1.429 . S
C5129 C5125 1.429 . S
C5129 C5130 1.523 . S
C5130 C5114 1.368 . S
C5130 C5126 1.368 . S
C5130 C5129 1.523 . S
H5131 C5106 0.950 . S
H5132 C5108 0.950 . S
H5133 C5109 0.949 . S
H5134 C5111 0.950 . S
H5135 C5113 0.950 . S
C5136 C5137 1.349 . S
C5136 C5138 1.327 . S
C5136 H5161 0.950 . S
C5137 C5136 1.349 . S
C5137 C5153 1.349 . S
C5138 C5136 1.327 . S
C5138 C5157 1.429 . S
C5138 H5162 0.950 . S
C5139 C5156 1.574 . S
C5139 C5158 1.368 . S
C5139 H5163 0.949 . S
H5140 C5144 0.949 . S
C5141 C5142 1.349 . S
C5141 C5143 1.327 . S
C5141 H5164 0.950 . S
C5142 C5141 1.349 . S
C5142 C5154 1.349 . S
C5143 C5141 1.327 . S
C5143 C5159 1.429 . S
C5143 H5165 0.950 . S
C5144 H5140 0.949 . S
C5144 C5152 1.574 . S
C5144 C5160 1.368 . S
H5145 C5153 0.950 . S
H5146 C5151 0.950 . S
H5147 C5152 0.949 . S
H5148 C5154 0.950 . S
H5149 C5155 0.950 . S
H5150 C5156 0.949 . S
C5151 H5146 0.950 . S
C5151 C5153 1.327 . S
C5151 C5157 1.429 . S
C5152 C5144 1.574 . S
C5152 H5147 0.949 . S
C5152 C5158 1.368 . S
C5153 C5137 1.349 . S
C5153 H5145 0.950 . S
C5153 C5151 1.327 . S
C5154 C5142 1.349 . S
C5154 H5148 0.950 . S
C5154 C5155 1.327 . S
C5155 H5149 0.950 . S
C5155 C5154 1.327 . S
C5155 C5159 1.429 . S
C5156 C5139 1.574 . S
C5156 H5150 0.949 . S
C5156 C5160 1.368 . S
C5157 C5138 1.429 . S
C5157 C5151 1.429 . S
C5157 C5158 1.523 . S
C5158 C5139 1.368 . S
C5158 C5152 1.368 . S
C5158 C5157 1.523 . S
C5159 C5143 1.429 . S
C5159 C5155 1.429 . S
C5159 C5160 1.523 . S
C5160 C5144 1.368 . S
C5160 C5156 1.368 . S
C5160 C5159 1.523 . S
H5161 C5136 0.950 . S
H5162 C5138 0.950 . S
H5163 C5139 0.949 . S
H5164 C5141 0.950 . S
H5165 C5143 0.950 . S
C5166 C5167 1.349 . S
C5166 C5168 1.327 . S
C5166 H5191 0.950 . S
C5167 C5166 1.349 . S
C5167 C5183 1.349 . S
C5168 C5166 1.327 . S
C5168 C5187 1.429 . S
C5168 H5192 0.950 . S
C5169 C5186 1.574 . S
C5169 C5188 1.368 . S
C5169 H5193 0.949 . S
H5170 C5174 0.949 . S
C5171 C5172 1.349 . S
C5171 C5173 1.327 . S
C5171 H5194 0.950 . S
C5172 C5171 1.349 . S
C5172 C5184 1.349 . S
C5173 C5171 1.327 . S
C5173 C5189 1.429 . S
C5173 H5195 0.950 . S
C5174 H5170 0.949 . S
C5174 C5182 1.574 . S
C5174 C5190 1.368 . S
H5175 C5183 0.950 . S
H5176 C5181 0.950 . S
H5177 C5182 0.949 . S
H5178 C5184 0.950 . S
H5179 C5185 0.950 . S
H5180 C5186 0.949 . S
C5181 H5176 0.950 . S
C5181 C5183 1.327 . S
C5181 C5187 1.429 . S
C5182 C5174 1.574 . S
C5182 H5177 0.949 . S
C5182 C5188 1.368 . S
C5183 C5167 1.349 . S
C5183 H5175 0.950 . S
C5183 C5181 1.327 . S
C5184 C5172 1.349 . S
C5184 H5178 0.950 . S
C5184 C5185 1.327 . S
C5185 H5179 0.950 . S
C5185 C5184 1.327 . S
C5185 C5189 1.429 . S
C5186 C5169 1.574 . S
C5186 H5180 0.949 . S
C5186 C5190 1.368 . S
C5187 C5168 1.429 . S
C5187 C5181 1.429 . S
C5187 C5188 1.523 . S
C5188 C5169 1.368 . S
C5188 C5182 1.368 . S
C5188 C5187 1.523 . S
C5189 C5173 1.429 . S
C5189 C5185 1.429 . S
C5189 C5190 1.523 . S
C5190 C5174 1.368 . S
C5190 C5186 1.368 . S
C5190 C5189 1.523 . S
H5191 C5166 0.950 . S
H5192 C5168 0.950 . S
H5193 C5169 0.949 . S
H5194 C5171 0.950 . S
H5195 C5173 0.950 . S
C5196 C5197 1.349 . S
C5196 C5198 1.327 . S
C5196 H5221 0.950 . S
C5197 C5196 1.349 . S
C5197 C5213 1.349 . S
C5198 C5196 1.327 . S
C5198 C5217 1.429 . S
C5198 H5222 0.950 . S
C5199 C5216 1.574 . S
C5199 C5218 1.368 . S
C5199 H5223 0.949 . S
H5200 C5204 0.949 . S
C5201 C5202 1.349 . S
C5201 C5203 1.327 . S
C5201 H5224 0.950 . S
C5202 C5201 1.349 . S
C5202 C5214 1.349 . S
C5203 C5201 1.327 . S
C5203 C5219 1.429 . S
C5203 H5225 0.950 . S
C5204 H5200 0.949 . S
C5204 C5212 1.574 . S
C5204 C5220 1.368 . S
H5205 C5213 0.950 . S
H5206 C5211 0.950 . S
H5207 C5212 0.949 . S
H5208 C5214 0.950 . S
H5209 C5215 0.950 . S
H5210 C5216 0.949 . S
C5211 H5206 0.950 . S
C5211 C5213 1.327 . S
C5211 C5217 1.429 . S
C5212 C5204 1.574 . S
C5212 H5207 0.949 . S
C5212 C5218 1.368 . S
C5213 C5197 1.349 . S
C5213 H5205 0.950 . S
C5213 C5211 1.327 . S
C5214 C5202 1.349 . S
C5214 H5208 0.950 . S
C5214 C5215 1.327 . S
C5215 H5209 0.950 . S
C5215 C5214 1.327 . S
C5215 C5219 1.429 . S
C5216 C5199 1.574 . S
C5216 H5210 0.949 . S
C5216 C5220 1.368 . S
C5217 C5198 1.429 . S
C5217 C5211 1.429 . S
C5217 C5218 1.523 . S
C5218 C5199 1.368 . S
C5218 C5212 1.368 . S
C5218 C5217 1.523 . S
C5219 C5203 1.429 . S
C5219 C5215 1.429 . S
C5219 C5220 1.523 . S
C5220 C5204 1.368 . S
C5220 C5216 1.368 . S
C5220 C5219 1.523 . S
H5221 C5196 0.950 . S
H5222 C5198 0.950 . S
H5223 C5199 0.949 . S
H5224 C5201 0.950 . S
H5225 C5203 0.950 . S
C5226 C5227 1.349 . S
C5226 C5228 1.327 . S
C5226 H5251 0.950 . S
C5227 C5226 1.349 . S
C5227 C5243 1.349 . S
C5228 C5226 1.327 . S
C5228 C5247 1.429 . S
C5228 H5252 0.950 . S
C5229 C5246 1.574 . S
C5229 C5248 1.368 . S
C5229 H5253 0.949 . S
H5230 C5234 0.949 . S
C5231 C5232 1.349 . S
C5231 C5233 1.327 . S
C5231 H5254 0.950 . S
C5232 C5231 1.349 . S
C5232 C5244 1.349 . S
C5233 C5231 1.327 . S
C5233 C5249 1.429 . S
C5233 H5255 0.950 . S
C5234 H5230 0.949 . S
C5234 C5242 1.574 . S
C5234 C5250 1.368 . S
H5235 C5243 0.950 . S
H5236 C5241 0.950 . S
H5237 C5242 0.949 . S
H5238 C5244 0.950 . S
H5239 C5245 0.950 . S
H5240 C5246 0.949 . S
C5241 H5236 0.950 . S
C5241 C5243 1.327 . S
C5241 C5247 1.429 . S
C5242 C5234 1.574 . S
C5242 H5237 0.949 . S
C5242 C5248 1.368 . S
C5243 C5227 1.349 . S
C5243 H5235 0.950 . S
C5243 C5241 1.327 . S
C5244 C5232 1.349 . S
C5244 H5238 0.950 . S
C5244 C5245 1.327 . S
C5245 H5239 0.950 . S
C5245 C5244 1.327 . S
C5245 C5249 1.429 . S
C5246 C5229 1.574 . S
C5246 H5240 0.949 . S
C5246 C5250 1.368 . S
C5247 C5228 1.429 . S
C5247 C5241 1.429 . S
C5247 C5248 1.523 . S
C5248 C5229 1.368 . S
C5248 C5242 1.368 . S
C5248 C5247 1.523 . S
C5249 C5233 1.429 . S
C5249 C5245 1.429 . S
C5249 C5250 1.523 . S
C5250 C5234 1.368 . S
C5250 C5246 1.368 . S
C5250 C5249 1.523 . S
H5251 C5226 0.950 . S
H5252 C5228 0.950 . S
H5253 C5229 0.949 . S
H5254 C5231 0.950 . S
H5255 C5233 0.950 . S
C5256 C5257 1.349 . S
C5256 C5258 1.327 . S
C5256 H5281 0.950 . S
C5257 C5256 1.349 . S
C5257 C5273 1.349 . S
C5258 C5256 1.327 . S
C5258 C5277 1.429 . S
C5258 H5282 0.950 . S
C5259 C5276 1.574 . S
C5259 C5278 1.368 . S
C5259 H5283 0.949 . S
H5260 C5264 0.949 . S
C5261 C5262 1.349 . S
C5261 C5263 1.327 . S
C5261 H5284 0.950 . S
C5262 C5261 1.349 . S
C5262 C5274 1.349 . S
C5263 C5261 1.327 . S
C5263 C5279 1.429 . S
C5263 H5285 0.950 . S
C5264 H5260 0.949 . S
C5264 C5272 1.574 . S
C5264 C5280 1.368 . S
H5265 C5273 0.950 . S
H5266 C5271 0.950 . S
H5267 C5272 0.949 . S
H5268 C5274 0.950 . S
H5269 C5275 0.950 . S
H5270 C5276 0.949 . S
C5271 H5266 0.950 . S
C5271 C5273 1.327 . S
C5271 C5277 1.429 . S
C5272 C5264 1.574 . S
C5272 H5267 0.949 . S
C5272 C5278 1.368 . S
C5273 C5257 1.349 . S
C5273 H5265 0.950 . S
C5273 C5271 1.327 . S
C5274 C5262 1.349 . S
C5274 H5268 0.950 . S
C5274 C5275 1.327 . S
C5275 H5269 0.950 . S
C5275 C5274 1.327 . S
C5275 C5279 1.429 . S
C5276 C5259 1.574 . S
C5276 H5270 0.949 . S
C5276 C5280 1.368 . S
C5277 C5258 1.429 . S
C5277 C5271 1.429 . S
C5277 C5278 1.523 . S
C5278 C5259 1.368 . S
C5278 C5272 1.368 . S
C5278 C5277 1.523 . S
C5279 C5263 1.429 . S
C5279 C5275 1.429 . S
C5279 C5280 1.523 . S
C5280 C5264 1.368 . S
C5280 C5276 1.368 . S
C5280 C5279 1.523 . S
H5281 C5256 0.950 . S
H5282 C5258 0.950 . S
H5283 C5259 0.949 . S
H5284 C5261 0.950 . S
H5285 C5263 0.950 . S
C5286 C5287 1.349 . S
C5286 C5288 1.327 . S
C5286 H5311 0.950 . S
C5287 C5286 1.349 . S
C5287 C5303 1.349 . S
C5288 C5286 1.327 . S
C5288 C5307 1.429 . S
C5288 H5312 0.950 . S
C5289 C5306 1.574 . S
C5289 C5308 1.368 . S
C5289 H5313 0.949 . S
H5290 C5294 0.949 . S
C5291 C5292 1.349 . S
C5291 C5293 1.327 . S
C5291 H5314 0.950 . S
C5292 C5291 1.349 . S
C5292 C5304 1.349 . S
C5293 C5291 1.327 . S
C5293 C5309 1.429 . S
C5293 H5315 0.950 . S
C5294 H5290 0.949 . S
C5294 C5302 1.574 . S
C5294 C5310 1.368 . S
H5295 C5303 0.950 . S
H5296 C5301 0.950 . S
H5297 C5302 0.949 . S
H5298 C5304 0.950 . S
H5299 C5305 0.950 . S
H5300 C5306 0.949 . S
C5301 H5296 0.950 . S
C5301 C5303 1.327 . S
C5301 C5307 1.429 . S
C5302 C5294 1.574 . S
C5302 H5297 0.949 . S
C5302 C5308 1.368 . S
C5303 C5287 1.349 . S
C5303 H5295 0.950 . S
C5303 C5301 1.327 . S
C5304 C5292 1.349 . S
C5304 H5298 0.950 . S
C5304 C5305 1.327 . S
C5305 H5299 0.950 . S
C5305 C5304 1.327 . S
C5305 C5309 1.429 . S
C5306 C5289 1.574 . S
C5306 H5300 0.949 . S
C5306 C5310 1.368 . S
C5307 C5288 1.429 . S
C5307 C5301 1.429 . S
C5307 C5308 1.523 . S
C5308 C5289 1.368 . S
C5308 C5302 1.368 . S
C5308 C5307 1.523 . S
C5309 C5293 1.429 . S
C5309 C5305 1.429 . S
C5309 C5310 1.523 . S
C5310 C5294 1.368 . S
C5310 C5306 1.368 . S
C5310 C5309 1.523 . S
H5311 C5286 0.950 . S
H5312 C5288 0.950 . S
H5313 C5289 0.949 . S
H5314 C5291 0.950 . S
H5315 C5293 0.950 . S
C5316 C5317 1.349 . S
C5316 C5318 1.327 . S
C5316 H5341 0.950 . S
C5317 C5316 1.349 . S
C5317 C5333 1.349 . S
C5318 C5316 1.327 . S
C5318 C5337 1.429 . S
C5318 H5342 0.950 . S
C5319 C5336 1.574 . S
C5319 C5338 1.368 . S
C5319 H5343 0.949 . S
H5320 C5324 0.949 . S
C5321 C5322 1.349 . S
C5321 C5323 1.327 . S
C5321 H5344 0.950 . S
C5322 C5321 1.349 . S
C5322 C5334 1.349 . S
C5323 C5321 1.327 . S
C5323 C5339 1.429 . S
C5323 H5345 0.950 . S
C5324 H5320 0.949 . S
C5324 C5332 1.574 . S
C5324 C5340 1.368 . S
H5325 C5333 0.950 . S
H5326 C5331 0.950 . S
H5327 C5332 0.949 . S
H5328 C5334 0.950 . S
H5329 C5335 0.950 . S
H5330 C5336 0.949 . S
C5331 H5326 0.950 . S
C5331 C5333 1.327 . S
C5331 C5337 1.429 . S
C5332 C5324 1.574 . S
C5332 H5327 0.949 . S
C5332 C5338 1.368 . S
C5333 C5317 1.349 . S
C5333 H5325 0.950 . S
C5333 C5331 1.327 . S
C5334 C5322 1.349 . S
C5334 H5328 0.950 . S
C5334 C5335 1.327 . S
C5335 H5329 0.950 . S
C5335 C5334 1.327 . S
C5335 C5339 1.429 . S
C5336 C5319 1.574 . S
C5336 H5330 0.949 . S
C5336 C5340 1.368 . S
C5337 C5318 1.429 . S
C5337 C5331 1.429 . S
C5337 C5338 1.523 . S
C5338 C5319 1.368 . S
C5338 C5332 1.368 . S
C5338 C5337 1.523 . S
C5339 C5323 1.429 . S
C5339 C5335 1.429 . S
C5339 C5340 1.523 . S
C5340 C5324 1.368 . S
C5340 C5336 1.368 . S
C5340 C5339 1.523 . S
H5341 C5316 0.950 . S
H5342 C5318 0.950 . S
H5343 C5319 0.949 . S
H5344 C5321 0.950 . S
H5345 C5323 0.950 . S
C5346 C5347 1.349 . S
C5346 C5348 1.327 . S
C5346 H5371 0.950 . S
C5347 C5346 1.349 . S
C5347 C5363 1.349 . S
C5348 C5346 1.327 . S
C5348 C5367 1.429 . S
C5348 H5372 0.950 . S
C5349 C5366 1.574 . S
C5349 C5368 1.368 . S
C5349 H5373 0.949 . S
H5350 C5354 0.949 . S
C5351 C5352 1.349 . S
C5351 C5353 1.327 . S
C5351 H5374 0.950 . S
C5352 C5351 1.349 . S
C5352 C5364 1.349 . S
C5353 C5351 1.327 . S
C5353 C5369 1.429 . S
C5353 H5375 0.950 . S
C5354 H5350 0.949 . S
C5354 C5362 1.574 . S
C5354 C5370 1.368 . S
H5355 C5363 0.950 . S
H5356 C5361 0.950 . S
H5357 C5362 0.949 . S
H5358 C5364 0.950 . S
H5359 C5365 0.950 . S
H5360 C5366 0.949 . S
C5361 H5356 0.950 . S
C5361 C5363 1.327 . S
C5361 C5367 1.429 . S
C5362 C5354 1.574 . S
C5362 H5357 0.949 . S
C5362 C5368 1.368 . S
C5363 C5347 1.349 . S
C5363 H5355 0.950 . S
C5363 C5361 1.327 . S
C5364 C5352 1.349 . S
C5364 H5358 0.950 . S
C5364 C5365 1.327 . S
C5365 H5359 0.950 . S
C5365 C5364 1.327 . S
C5365 C5369 1.429 . S
C5366 C5349 1.574 . S
C5366 H5360 0.949 . S
C5366 C5370 1.368 . S
C5367 C5348 1.429 . S
C5367 C5361 1.429 . S
C5367 C5368 1.523 . S
C5368 C5349 1.368 . S
C5368 C5362 1.368 . S
C5368 C5367 1.523 . S
C5369 C5353 1.429 . S
C5369 C5365 1.429 . S
C5369 C5370 1.523 . S
C5370 C5354 1.368 . S
C5370 C5366 1.368 . S
C5370 C5369 1.523 . S
H5371 C5346 0.950 . S
H5372 C5348 0.950 . S
H5373 C5349 0.949 . S
H5374 C5351 0.950 . S
H5375 C5353 0.950 . S
C1057 C5 1.259 . S
C1062 C887 1.561 . S
C1087 C16 1.297 . S
C1092 C370 1.552 . S
C1117 C909 1.733 . S
C1122 C29 1.736 . S
C1147 C390 1.521 . S
C1152 C38 1.517 . S
C1177 C49 1.259 . S
C1182 C931 1.561 . S
C1207 C60 1.517 . S
C1212 C412 1.521 . S
C1237 C953 1.733 . S
C1242 C73 1.736 . S
C1267 C436 1.552 . S
C1272 C82 1.297 . S
C1297 C93 1.403 . S
C1302 C975 1.718 . S
C1327 C106 1.719 . S
C1332 C1052 1.719 . S
C1357 C117 1.783 . S
C1362 C1028 1.388 . S
C1387 C126 1.344 . S
C1392 C1039 1.329 . S
C1417 C458 1.718 . S
C1422 C137 1.403 . S
C1447 C148 1.344 . S
C1452 C995 1.329 . S
C1477 C478 1.388 . S
C1482 C161 1.783 . S
C1507 C491 1.718 . S
C1512 C172 1.719 . S
C1537 C797 1.451 . S
C1542 C183 1.793 . S
C1567 C313 1.451 . S
C1572 C194 1.793 . S
C1597 C854 1.741 . S
C1602 C203 1.492 . S
C1627 C214 1.232 . S
C1632 C337 1.591 . S
C1657 C346 1.413 . S
C1662 C225 1.421 . S
C1687 C236 1.232 . S
C1692 C821 1.591 . S
C1717 C832 1.741 . S
C1722 C247 1.492 . S
C1747 C258 1.421 . S
C1752 C808 1.412 . S
C1777 C623 1.800 . S
C1782 C271 1.813 . S
C1807 C104 1.631 . S
C1812 C282 1.638 . S
C1837 C291 1.493 . S
C1842 C643 1.508 . S
C1867 C302 1.617 . S
C1872 C128 1.633 . S
C1897 C315 1.813 . S
C1902 C667 1.800 . S
C1927 C150 1.633 . S
C1932 C324 1.617 . S
C1957 C687 1.508 . S
C1962 C335 1.493 . S
C1987 C348 1.638 . S
C1992 C170 1.631 . S
C2017 C709 1.745 . S
C2022 C357 1.737 . S
C2047 C788 1.468 . S
C2052 C368 1.454 . S
C2077 C766 1.691 . S
C2082 C379 1.621 . S
C2107 C392 1.566 . S
C2112 C777 1.612 . S
C2137 C192 1.745 . S
C2142 C401 1.737 . S
C2167 C414 1.566 . S
C2172 C733 1.612 . S
C2197 C216 1.691 . S
C2202 C423 1.621 . S
C2227 C227 1.468 . S
C2232 C434 1.454 . S
C2257 C535 1.456 . S
C2262 C445 1.386 . S
C2287 C51 1.456 . S
C2292 C456 1.386 . S
C2317 C590 1.611 . S
C2322 C469 1.616 . S
C2347 C71 1.808 . S
C2352 C480 1.830 . S
C2377 C84 1.643 . S
C2382 C489 1.569 . S
C2407 C555 1.808 . S
C2412 C502 1.830 . S
C2437 C568 1.611 . S
C2442 C513 1.615 . S
C2467 C522 1.569 . S
C2472 C546 1.643 . S
C2497 C359 1.561 . S
C2502 C533 1.259 . S
C2527 C544 1.297 . S
C2532 C898 1.552 . S
C2557 C381 1.733 . S
C2562 C557 1.736 . S
C2587 C918 1.521 . S
C2592 C566 1.516 . S
C2617 C577 1.259 . S
C2622 C403 1.561 . S
C2647 C940 1.521 . S
C2652 C588 1.517 . S
C2677 C425 1.733 . S
C2682 C601 1.736 . S
C2707 C610 1.297 . S
C2712 C964 1.552 . S
C2737 C621 1.403 . S
C2742 C447 1.718 . S
C2767 C634 1.719 . S
C2772 C524 1.719 . S
C2797 C645 1.783 . S
C2802 C500 1.388 . S
C2827 C511 1.329 . S
C2832 C654 1.344 . S
C2857 C986 1.718 . S
C2862 C665 1.403 . S
C2887 C676 1.344 . S
C2892 C467 1.329 . S
C2917 C689 1.783 . S
C2922 C1006 1.388 . S
C2947 C1019 1.719 . S
C2952 C700 1.719 . S
C2977 C711 1.792 . S
C2982 C269 1.450 . S
C3007 C722 1.792 . S
C3012 C841 1.450 . S
C3037 C326 1.741 . S
C3042 C731 1.492 . S
C3067 C865 1.591 . S
C3072 C742 1.232 . S
C3097 C874 1.413 . S
C3102 C753 1.421 . S
C3127 C293 1.591 . S
C3132 C764 1.232 . S
C3157 C304 1.741 . S
C3162 C775 1.492 . S
C3187 C786 1.421 . S
C3192 C280 1.413 . S
C3217 C95 1.800 . S
C3222 C799 1.813 . S
C3247 C632 1.631 . S
C3252 C810 1.638 . S
C3277 C819 1.493 . S
C3282 C115 1.508 . S
C3307 C830 1.617 . S
C3312 C656 1.633 . S
C3337 C139 1.800 . S
C3342 C843 1.813 . S
C3367 C852 1.617 . S
C3372 C678 1.633 . S
C3397 C159 1.508 . S
C3402 C863 1.493 . S
C3427 C698 1.631 . S
C3432 C876 1.638 . S
C3457 C885 1.737 . S
C3462 C181 1.745 . S
C3487 C896 1.454 . S
C3492 C260 1.468 . S
C3517 C238 1.691 . S
C3522 C907 1.621 . S
C3547 C249 1.612 . S
C3552 C920 1.566 . S
C3577 C720 1.745 . S
C3582 C929 1.737 . S
C3607 C205 1.612 . S
C3612 C942 1.566 . S
C3637 C951 1.621 . S
C3642 C744 1.691 . S
C3667 C755 1.468 . S
C3672 C962 1.454 . S
C3697 C7 1.456 . S
C3702 C973 1.386 . S
C3727 C984 1.386 . S
C3732 C579 1.456 . S
C3757 C62 1.611 . S
C3762 C997 1.615 . S
C3787 C599 1.808 . S
C3792 C1008 1.830 . S
C3817 C612 1.643 . S
C3822 C1017 1.569 . S
C3847 C27 1.808 . S
C3852 C1030 1.830 . S
C3877 C1041 1.615 . S
C3882 C40 1.611 . S
C3907 C1050 1.569 . S
C3912 C18 1.643 . S
C3937 C107 1.654 . S
C3942 C8 1.618 . S
C3967 C118 1.699 . S
C3972 C19 1.675 . S
C3997 C129 1.782 . S
C4002 C30 1.827 . S
C4027 C96 1.815 . S
C4032 C41 1.808 . S
C4057 C173 1.654 . S
C4062 C52 1.617 . S
C4087 C140 1.815 . S
C4092 C63 1.808 . S
C4117 C74 1.827 . S
C4122 C151 1.782 . S
C4147 C162 1.699 . S
C4152 C85 1.675 . S
C4177 C184 1.828 . S
C4182 C206 1.813 . S
C4207 C778 1.813 . S
C4212 C195 1.828 . S
C4237 C217 1.741 . S
C4242 C789 1.727 . S
C4267 C767 1.742 . S
C4272 C228 1.728 . S
C4297 C756 1.727 . S
C4302 C239 1.742 . S
C4327 C250 1.813 . S
C4332 C723 1.828 . S
C4357 C745 1.742 . S
C4362 C261 1.728 . S
C4387 C272 1.713 . S
C4392 C371 1.746 . S
C4417 C283 1.814 . S
C4422 C382 1.875 . S
C4447 C393 1.808 . S
C4452 C294 1.850 . S
C4477 C360 1.822 . S
C4482 C305 1.824 . S
C4507 C437 1.746 . S
C4512 C316 1.713 . S
C4537 C404 1.822 . S
C4542 C327 1.824 . S
C4567 C338 1.851 . S
C4572 C415 1.808 . S
C4597 C426 1.875 . S
C4602 C349 1.815 . S
C4627 C470 1.673 . S
C4632 C448 1.719 . S
C4657 C459 1.719 . S
C4662 C1042 1.673 . S
C4687 C481 1.817 . S
C4692 C1053 1.863 . S
C4717 C1031 1.817 . S
C4722 C492 1.863 . S
C4747 C503 1.817 . S
C4752 C1020 1.863 . S
C4777 C514 1.673 . S
C4782 C987 1.719 . S
C4807 C1009 1.817 . S
C4812 C525 1.863 . S
C4837 C635 1.654 . S
C4842 C536 1.617 . S
C4867 C547 1.675 . S
C4872 C646 1.699 . S
C4897 C558 1.827 . S
C4902 C657 1.782 . S
C4927 C624 1.815 . S
C4932 C569 1.807 . S
C4957 C701 1.654 . S
C4962 C580 1.617 . S
C4987 C668 1.815 . S
C4992 C591 1.808 . S
C5017 C602 1.827 . S
C5022 C679 1.782 . S
C5047 C613 1.675 . S
C5052 C690 1.699 . S
C5077 C712 1.828 . S
C5082 C734 1.813 . S
C5107 C899 1.746 . S
C5112 C800 1.713 . S
C5137 C811 1.815 . S
C5142 C910 1.875 . S
C5167 C921 1.808 . S
C5172 C822 1.851 . S
C5197 C888 1.822 . S
C5202 C833 1.824 . S
C5227 C965 1.746 . S
C5232 C844 1.713 . S
C5257 C932 1.822 . S
C5262 C855 1.824 . S
C5287 C943 1.808 . S
C5292 C866 1.850 . S
C5317 C954 1.875 . S
C5322 C877 1.815 . S
C5347 C976 1.719 . S
C5352 C998 1.673 . S
