# Generated by pormake.
# Topology bcu-j, (5)-cn, num edge types: 1
# Building blocks:
#     Node 0, Type 0, BuildingBlock: XOMCOT_clean_sbu_1, # of connection points: 5
#     Node 1, Type 0, BuildingBlock: XOMCOT_clean_sbu_1, # of connection points: 5
#     Node 2, Type 0, BuildingBlock: XOMCOT_clean_sbu_1, # of connection points: 5
#     Node 3, Type 0, BuildingBlock: XOMCOT_clean_sbu_1, # of connection points: 5
#     Node 4, Type 0, BuildingBlock: XOMCOT_clean_sbu_1, # of connection points: 5
#     Node 5, Type 0, BuildingBlock: XOMCOT_clean_sbu_1, # of connection points: 5
#     Node 6, Type 0, BuildingBlock: XOMCOT_clean_sbu_1, # of connection points: 5
#     Node 7, Type 0, BuildingBlock: XOMCOT_clean_sbu_1, # of connection points: 5
#     Node 8, Type 0, BuildingBlock: XOMCOT_clean_sbu_1, # of connection points: 5
#     Node 9, Type 0, BuildingBlock: XOMCOT_clean_sbu_1, # of connection points: 5
#     Node 10, Type 0, BuildingBlock: XOMCOT_clean_sbu_1, # of connection points: 5
#     Node 11, Type 0, BuildingBlock: XOMCOT_clean_sbu_1, # of connection points: 5
#     Node 12, Type 0, BuildingBlock: XOMCOT_clean_sbu_1, # of connection points: 5
#     Node 13, Type 0, BuildingBlock: XOMCOT_clean_sbu_1, # of connection points: 5
#     Node 14, Type 0, BuildingBlock: XOMCOT_clean_sbu_1, # of connection points: 5
#     Node 15, Type 0, BuildingBlock: XOMCOT_clean_sbu_1, # of connection points: 5
#     Edge 16, Type (0, 0), BuildingBlock: AJUNOK_clean_linker_0, # of connection points: 2
#     Edge 17, Type (0, 0), BuildingBlock: AJUNOK_clean_linker_0, # of connection points: 2
#     Edge 18, Type (0, 0), BuildingBlock: AJUNOK_clean_linker_0, # of connection points: 2
#     Edge 19, Type (0, 0), BuildingBlock: AJUNOK_clean_linker_0, # of connection points: 2
#     Edge 20, Type (0, 0), BuildingBlock: AJUNOK_clean_linker_0, # of connection points: 2
#     Edge 21, Type (0, 0), BuildingBlock: AJUNOK_clean_linker_0, # of connection points: 2
#     Edge 22, Type (0, 0), BuildingBlock: AJUNOK_clean_linker_0, # of connection points: 2
#     Edge 23, Type (0, 0), BuildingBlock: AJUNOK_clean_linker_0, # of connection points: 2
#     Edge 24, Type (0, 0), BuildingBlock: AJUNOK_clean_linker_0, # of connection points: 2
#     Edge 25, Type (0, 0), BuildingBlock: AJUNOK_clean_linker_0, # of connection points: 2
#     Edge 26, Type (0, 0), BuildingBlock: AJUNOK_clean_linker_0, # of connection points: 2
#     Edge 27, Type (0, 0), BuildingBlock: AJUNOK_clean_linker_0, # of connection points: 2
#     Edge 28, Type (0, 0), BuildingBlock: AJUNOK_clean_linker_0, # of connection points: 2
#     Edge 29, Type (0, 0), BuildingBlock: AJUNOK_clean_linker_0, # of connection points: 2
#     Edge 30, Type (0, 0), BuildingBlock: AJUNOK_clean_linker_0, # of connection points: 2
#     Edge 31, Type (0, 0), BuildingBlock: AJUNOK_clean_linker_0, # of connection points: 2
#     Edge 32, Type (0, 0), BuildingBlock: AJUNOK_clean_linker_0, # of connection points: 2
#     Edge 33, Type (0, 0), BuildingBlock: AJUNOK_clean_linker_0, # of connection points: 2
#     Edge 34, Type (0, 0), BuildingBlock: AJUNOK_clean_linker_0, # of connection points: 2
#     Edge 35, Type (0, 0), BuildingBlock: AJUNOK_clean_linker_0, # of connection points: 2
#     Edge 36, Type (0, 0), BuildingBlock: AJUNOK_clean_linker_0, # of connection points: 2
#     Edge 37, Type (0, 0), BuildingBlock: AJUNOK_clean_linker_0, # of connection points: 2
#     Edge 38, Type (0, 0), BuildingBlock: AJUNOK_clean_linker_0, # of connection points: 2
#     Edge 39, Type (0, 0), BuildingBlock: AJUNOK_clean_linker_0, # of connection points: 2
#     Edge 40, Type (0, 0), BuildingBlock: AJUNOK_clean_linker_0, # of connection points: 2
#     Edge 41, Type (0, 0), BuildingBlock: AJUNOK_clean_linker_0, # of connection points: 2
#     Edge 42, Type (0, 0), BuildingBlock: AJUNOK_clean_linker_0, # of connection points: 2
#     Edge 43, Type (0, 0), BuildingBlock: AJUNOK_clean_linker_0, # of connection points: 2
#     Edge 44, Type (0, 0), BuildingBlock: AJUNOK_clean_linker_0, # of connection points: 2
#     Edge 45, Type (0, 0), BuildingBlock: AJUNOK_clean_linker_0, # of connection points: 2
#     Edge 46, Type (0, 0), BuildingBlock: AJUNOK_clean_linker_0, # of connection points: 2
#     Edge 47, Type (0, 0), BuildingBlock: AJUNOK_clean_linker_0, # of connection points: 2
#     Edge 48, Type (0, 0), BuildingBlock: AJUNOK_clean_linker_0, # of connection points: 2
#     Edge 49, Type (0, 0), BuildingBlock: AJUNOK_clean_linker_0, # of connection points: 2
#     Edge 50, Type (0, 0), BuildingBlock: AJUNOK_clean_linker_0, # of connection points: 2
#     Edge 51, Type (0, 0), BuildingBlock: AJUNOK_clean_linker_0, # of connection points: 2
#     Edge 52, Type (0, 0), BuildingBlock: AJUNOK_clean_linker_0, # of connection points: 2
#     Edge 53, Type (0, 0), BuildingBlock: AJUNOK_clean_linker_0, # of connection points: 2
#     Edge 54, Type (0, 0), BuildingBlock: AJUNOK_clean_linker_0, # of connection points: 2
#     Edge 55, Type (0, 0), BuildingBlock: AJUNOK_clean_linker_0, # of connection points: 2
# Relax obj value: 0.643
# Max RMSD: 0.295
# Mean RMSD: 0.295
data_MOF--net-bcu-j--node1-XOMCOT_clean_sbu_1--edge1-AJUNOK_clean_linker_0
_symmetry_space_group_name_H-M    P1
_symmetry_Int_Tables_number       1
_symmetry_cell_setting            triclinic
loop_
_symmetry_equiv_pos_as_xyz
'x, y, z'
_cell_length_a     33.830112
_cell_length_b     33.894452
_cell_length_c     36.620254
_cell_angle_alpha  90.000458
_cell_angle_beta   90.077904
_cell_angle_gamma 90.016417
loop_
_atom_site_label
_atom_site_type_symbol
_atom_site_fract_x
_atom_site_fract_y
_atom_site_fract_z
_atom_type_partial_charge
C0 C 0.07534 0.14773 0.56738 0.0
C1 C 0.1121 0.1314 0.56175 0.0
N2 N 0.12532 0.11748 0.59396 0.0
N3 N 0.06551 0.14343 0.60282 0.0
C4 C 0.09691 0.12553 0.61841 0.0
H5 H 0.05615 0.16014 0.54672 0.0
Co6 Co 0.0167 0.1546 0.62284 0.0
C7 C 0.01208 0.1015 0.68742 0.0
O8 O 0.9748 0.0938 0.68022 0.0
N9 N 0.96727 0.16691 0.64313 0.0
C10 C 0.90483 0.18402 0.65484 0.0
C11 C 0.93032 0.169 0.62894 0.0
C12 C 0.96332 0.18085 0.67735 0.0
N13 N 0.92592 0.19101 0.68523 0.0
O14 O 0.03853 0.20123 0.64244 0.0
H15 H 0.92208 0.16167 0.60133 0.0
H16 H 0.98795 0.18509 0.69586 0.0
O17 O 0.0311 0.12551 0.66709 0.0
C18 C 0.03121 0.23101 0.62247 0.0
O19 O 0.00502 0.22759 0.59614 0.0
N20 N 0.99689 0.1101 0.59972 0.0
C21 C 0.98927 0.05436 0.54482 0.0
C22 C 0.00639 0.04407 0.57826 0.0
C23 C 0.01067 0.07265 0.60523 0.0
C24 C 0.97873 0.11993 0.56777 0.0
C25 C 0.97386 0.09225 0.54015 0.0
H26 H 0.02912 0.06545 0.62825 0.0
H27 H 0.97188 0.15046 0.56209 0.0
H28 H 0.09827 0.11623 0.64662 0.0
H29 H 0.12727 0.12857 0.53587 0.0
H30 H 0.87368 0.19026 0.65135 0.0
H31 H 0.01967 0.01529 0.58224 0.0
H32 H 0.96083 0.10121 0.51441 0.0
C33 C 0.34528 0.07352 0.56914 0.0
C34 C 0.35744 0.112 0.56493 0.0
N35 N 0.36623 0.12666 0.5982 0.0
N36 N 0.34697 0.06396 0.6048 0.0
C37 C 0.35926 0.09707 0.62182 0.0
H38 H 0.33768 0.05318 0.54748 0.0
Co39 Co 0.3392 0.01419 0.62424 0.0
C40 C 0.39032 0.01375 0.69017 0.0
O41 O 0.40085 0.97731 0.68277 0.0
N42 N 0.33019 0.96377 0.64391 0.0
C43 C 0.31425 0.90077 0.65383 0.0
C44 C 0.32949 0.92722 0.62893 0.0
C45 C 0.31534 0.95854 0.67766 0.0
N46 N 0.306 0.92073 0.68453 0.0
O47 O 0.28916 0.03112 0.64124 0.0
H48 H 0.33708 0.91999 0.60117 0.0
H49 H 0.30892 0.98263 0.69616 0.0
O50 O 0.36498 0.03097 0.66975 0.0
C51 C 0.26429 0.023 0.6162 0.0
O52 O 0.27637 0.00125 0.58868 0.0
N53 N 0.38665 -0.00122 0.60316 0.0
C54 C 0.44394 -0.0017 0.54916 0.0
C55 C 0.45166 0.01621 0.58281 0.0
C56 C 0.42224 0.01679 0.60938 0.0
C57 C 0.37975 0.97958 0.57111 0.0
C58 C 0.40835 0.97817 0.54401 0.0
H59 H 0.42671 0.03591 0.63249 0.0
H60 H 0.35026 0.96971 0.56451 0.0
H61 H 0.36438 0.09932 0.65088 0.0
H62 H 0.36186 0.12704 0.53919 0.0
H63 H 0.3079 0.86987 0.64919 0.0
H64 H 0.47858 0.03289 0.58718 0.0
H65 H 0.40139 0.96436 0.5181 0.0
C66 C 0.42425 0.35515 0.57106 0.0
C67 C 0.38791 0.37286 0.567 0.0
N68 N 0.3733 0.37992 0.60052 0.0
N69 N 0.43255 0.35192 0.60698 0.0
C70 C 0.40045 0.36647 0.62419 0.0
H71 H 0.44434 0.34736 0.54929 0.0
Co72 Co 0.48097 0.33817 0.62725 0.0
C73 C 0.48453 0.38905 0.69379 0.0
O74 O 0.52227 0.3963 0.68857 0.0
N75 N 0.52969 0.32362 0.6477 0.0
C76 C 0.59155 0.30417 0.65888 0.0
C77 C 0.56627 0.31979 0.63313 0.0
C78 C 0.5336 0.30981 0.68201 0.0
N79 N 0.57084 0.29863 0.68967 0.0
O80 O 0.45787 0.29094 0.64475 0.0
H81 H 0.57434 0.32614 0.6053 0.0
H82 H 0.50902 0.30626 0.70063 0.0
O83 O 0.46631 0.36586 0.67208 0.0
C84 C 0.45821 0.26651 0.61841 0.0
O85 O 0.47661 0.27624 0.58815 0.0
N86 N 0.50251 0.38311 0.60611 0.0
C87 C 0.51249 0.44026 0.55281 0.0
C88 C 0.4954 0.4501 0.58635 0.0
C89 C 0.48994 0.42082 0.61253 0.0
C90 C 0.52073 0.37376 0.57411 0.0
C91 C 0.52658 0.40204 0.54723 0.0
H92 H 0.47131 0.42783 0.63542 0.0
H93 H 0.52621 0.34321 0.56741 0.0
H94 H 0.39793 0.36995 0.65343 0.0
H95 H 0.37423 0.3818 0.54157 0.0
H96 H 0.62226 0.29628 0.65498 0.0
H97 H 0.48265 0.47903 0.5908 0.0
H98 H 0.53884 0.3933 0.52113 0.0
C99 C 0.17803 0.40763 0.58807 0.0
C100 C 0.16469 0.36927 0.58491 0.0
N101 N 0.13218 0.36562 0.60577 0.0
N102 N 0.15406 0.42756 0.61103 0.0
C103 C 0.12631 0.40112 0.621 0.0
H104 H 0.20388 0.41996 0.57501 0.0
Co105 Co 0.15989 0.47858 0.62867 0.0
C106 C 0.10715 0.47912 0.6942 0.0
O107 O 0.0967 0.51586 0.68797 0.0
N108 N 0.16651 0.52988 0.64682 0.0
C109 C 0.1798 0.59383 0.65442 0.0
C110 C 0.1667 0.56551 0.63012 0.0
C111 C 0.1795 0.53738 0.68087 0.0
N112 N 0.1871 0.57584 0.68641 0.0
O113 O 0.20913 0.46342 0.64915 0.0
H114 H 0.1602 0.57058 0.60165 0.0
H115 H 0.18576 0.51453 0.70073 0.0
O116 O 0.13225 0.46253 0.67321 0.0
C117 C 0.23678 0.47492 0.62812 0.0
O118 O 0.22767 0.49908 0.60134 0.0
N119 N 0.1139 0.49272 0.60429 0.0
C120 C 0.058 0.49695 0.54903 0.0
C121 C 0.0472 0.48402 0.58394 0.0
C122 C 0.07581 0.48167 0.61128 0.0
C123 C 0.12421 0.50709 0.57092 0.0
C124 C 0.09657 0.51013 0.54302 0.0
H125 H 0.06758 0.4676 0.63644 0.0
H126 H 0.15488 0.51347 0.56513 0.0
H127 H 0.10254 0.40714 0.63988 0.0
H128 H 0.17762 0.34606 0.56851 0.0
H129 H 0.1853 0.62466 0.64864 0.0
H130 H 0.01769 0.47304 0.58928 0.0
H131 H 0.10582 0.52063 0.51642 0.0
C132 C 0.07676 0.3508 0.91848 0.0
C133 C 0.11258 0.36912 0.92389 0.0
N134 N 0.1266 0.38026 0.89109 0.0
N135 N 0.06828 0.35084 0.8825 0.0
C136 C 0.09956 0.3685 0.86646 0.0
H137 H 0.05713 0.34002 0.93953 0.0
Co138 Co 0.01996 0.33623 0.86281 0.0
C139 C 0.01638 0.3776 0.7917 0.0
O140 O 0.97815 0.38247 0.79578 0.0
N141 N 0.97054 0.32065 0.84327 0.0
C142 C 0.90718 0.31267 0.82727 0.0
C143 C 0.93307 0.33359 0.84901 0.0
C144 C 0.9663 0.29192 0.81812 0.0
N145 N 0.92843 0.2863 0.80837 0.0
O146 O 0.04204 0.28625 0.85129 0.0
H147 H 0.92459 0.35742 0.86686 0.0
H148 H 0.99067 0.27602 0.80594 0.0
O149 O 0.03576 0.35795 0.81551 0.0
C150 C 0.03571 0.26323 0.87816 0.0
O151 O 0.01399 0.27647 0.90523 0.0
N152 N -0.00021 0.38397 0.87869 0.0
C153 C 0.99349 0.44569 0.92747 0.0
C154 C 0.01053 0.45199 0.89325 0.0
C155 C 0.01402 0.42033 0.8692 0.0
C156 C 0.98081 0.3784 0.91104 0.0
C157 C 0.97683 0.40911 0.93574 0.0
H158 H 0.03239 0.42432 0.8455 0.0
H159 H 0.97218 0.34896 0.91917 0.0
H160 H 0.10158 0.37509 0.83763 0.0
H161 H 0.12656 0.37508 0.94993 0.0
H162 H 0.87551 0.31667 0.82523 0.0
H163 H 0.02457 0.47985 0.88675 0.0
H164 H 0.964 0.40345 0.96233 0.0
C165 C 0.15261 0.06501 0.91324 0.0
C166 C 0.13837 0.10204 0.92123 0.0
N167 N 0.11891 0.1155 0.89165 0.0
N168 N 0.14191 0.05536 0.87894 0.0
C169 C 0.12171 0.08689 0.86634 0.0
H170 H 0.16923 0.04602 0.93136 0.0
Co171 Co 0.1528 0.00763 0.85699 0.0
C172 C 0.10363 0.00646 0.78978 0.0
O173 O 0.09732 0.96844 0.79367 0.0
N174 N 0.16501 0.95893 0.83512 0.0
C175 C 0.18055 0.89608 0.82378 0.0
C176 C 0.16066 0.92128 0.84693 0.0
C177 C 0.18688 0.95557 0.80456 0.0
N178 N 0.19684 0.91803 0.79733 0.0
O179 O 0.20018 0.02997 0.83943 0.0
H180 H 0.14605 0.91234 0.87173 0.0
H181 H 0.19755 0.98048 0.78892 0.0
O182 O 0.12535 0.02461 0.81283 0.0
C183 C 0.2303 0.02176 0.85875 0.0
O184 O 0.2275 0.99399 0.88364 0.0
N185 N 0.10753 0.98746 0.87823 0.0
C186 C 0.05089 0.98018 0.93218 0.0
C187 C 0.04066 0.99566 0.89806 0.0
C188 C 0.06976 -0.0002 0.87147 0.0
C189 C 0.11713 0.97028 0.91066 0.0
C190 C 0.08906 0.96583 0.93796 0.0
H191 H 0.06251 0.01691 0.84763 0.0
H192 H 0.1477 0.96348 0.91663 0.0
H193 H 0.10814 0.08863 0.83964 0.0
H194 H 0.14187 0.11777 0.94675 0.0
H195 H 0.18492 0.86469 0.8274 0.0
H196 H 0.01152 0.00789 0.89327 0.0
H197 H 0.09783 0.95406 0.96426 0.0
C198 C 0.40304 0.1704 0.90089 0.0
C199 C 0.36519 0.15542 0.90296 0.0
N200 N 0.36274 0.12475 0.87976 0.0
N201 N 0.42385 0.14931 0.87627 0.0
C202 C 0.39846 0.12153 0.86418 0.0
H203 H 0.41446 0.19533 0.91601 0.0
Co204 Co 0.47494 0.15866 0.86022 0.0
C205 C 0.48095 0.11064 0.79226 0.0
O206 O 0.51829 0.10311 0.79929 0.0
N207 N 0.5264 0.16895 0.84388 0.0
C208 C 0.58969 0.18682 0.83958 0.0
C209 C 0.56182 0.16836 0.86115 0.0
C210 C 0.5337 0.18734 0.81204 0.0
N211 N 0.57163 0.19828 0.80872 0.0
O212 O 0.45798 0.20863 0.84242 0.0
H213 H 0.56686 0.15818 0.88868 0.0
H214 H 0.51083 0.19551 0.79273 0.0
O215 O 0.46157 0.13315 0.81374 0.0
C216 C 0.46763 0.23476 0.86583 0.0
O217 O 0.49049 0.22403 0.89313 0.0
N218 N 0.49069 0.11199 0.88212 0.0
C219 C 0.49869 0.05289 0.93383 0.0
C220 C 0.48589 0.04378 0.89842 0.0
C221 C 0.48168 0.07398 0.87286 0.0
C222 C 0.50413 0.12088 0.91617 0.0
C223 C 0.50902 0.09172 0.9423 0.0
H224 H 0.46793 0.0668 0.84723 0.0
H225 H 0.50858 0.15138 0.92381 0.0
H226 H 0.40547 0.09963 0.84373 0.0
H227 H 0.34152 0.16592 0.92028 0.0
H228 H 0.61981 0.19398 0.84711 0.0
H229 H 0.47637 0.01422 0.8914 0.0
H230 H 0.51865 0.09982 0.96952 0.0
C231 C 0.35106 0.42944 0.91226 0.0
C232 C 0.3669 0.39245 0.91757 0.0
N233 N 0.38051 0.37922 0.88524 0.0
N234 N 0.35513 0.43945 0.87687 0.0
C235 C 0.37304 0.40819 0.86114 0.0
H236 H 0.33842 0.44833 0.93298 0.0
Co237 Co 0.34141 0.48749 0.85635 0.0
C238 C 0.38645 0.48856 0.78684 0.0
O239 O 0.39338 0.52646 0.79049 0.0
N240 N 0.32667 0.53666 0.83546 0.0
C241 C 0.32004 0.5996 0.81781 0.0
C242 C 0.34205 0.57354 0.83847 0.0
C243 C 0.29563 0.54144 0.81274 0.0
N244 N 0.29051 0.57911 0.80243 0.0
O245 O 0.29185 0.4649 0.84346 0.0
H246 H 0.3682 0.58135 0.85376 0.0
H247 H 0.27731 0.51764 0.80272 0.0
O248 O 0.36473 0.47094 0.81017 0.0
C249 C 0.26726 0.47238 0.86885 0.0
O250 O 0.27874 0.49562 0.89557 0.0
N251 N 0.38852 0.508 0.87385 0.0
C252 C 0.44797 0.51627 0.92531 0.0
C253 C 0.45569 0.49746 0.89204 0.0
C254 C 0.42524 0.49312 0.86665 0.0
C255 C 0.3815 0.52862 0.90509 0.0
C256 C 0.41101 0.53359 0.93105 0.0
H257 H 0.43022 0.47376 0.84378 0.0
H258 H 0.35173 0.53804 0.91139 0.0
H259 H 0.38242 0.40722 0.83299 0.0
H260 H 0.36892 0.3768 0.94327 0.0
H261 H 0.32534 0.63086 0.81421 0.0
H262 H 0.48364 0.48271 0.88733 0.0
H263 H 0.40405 0.54795 0.95668 0.0
C264 C 0.92218 0.8475 0.41764 0.0
C265 C 0.88449 0.8615 0.423 0.0
N266 N 0.86837 0.86934 0.3901 0.0
N267 N 0.92992 0.847 0.38158 0.0
C268 C 0.89652 0.86023 0.36549 0.0
H269 H 0.94318 0.83955 0.43868 0.0
Co270 Co 0.97822 0.83387 0.36115 0.0
C271 C 0.97997 0.87728 0.29099 0.0
O272 O 0.01818 0.88265 0.29468 0.0
N273 N 0.02774 0.81964 0.34069 0.0
C274 C 0.091 0.81382 0.32361 0.0
C275 C 0.06478 0.83436 0.34525 0.0
C276 C 0.03262 0.79025 0.31628 0.0
N277 N 0.07045 0.78591 0.30596 0.0
O278 O 0.95662 0.78391 0.34864 0.0
H279 H 0.07267 0.85921 0.36214 0.0
H280 H 0.00875 0.77279 0.30506 0.0
O281 O 0.96131 0.85673 0.31461 0.0
C282 C 0.96363 0.76034 0.37497 0.0
O283 O 0.98567 0.7732 0.40204 0.0
N284 N -0.00211 0.8815 0.37799 0.0
C285 C 0.00681 0.94323 0.4267 0.0
C286 C 0.98773 0.9494 0.39327 0.0
C287 C 0.98291 0.91779 0.36937 0.0
C288 C 0.01835 0.87581 0.4096 0.0
C289 C 0.02363 0.90648 0.43422 0.0
H290 H 0.96328 0.92177 0.34649 0.0
H291 H 0.02764 0.84638 0.41713 0.0
H292 H 0.89292 0.86386 0.33635 0.0
H293 H 0.87084 0.86723 0.44917 0.0
H294 H 0.12241 0.81911 0.32078 0.0
H295 H 0.97325 0.97719 0.38736 0.0
H296 H 0.03802 0.90074 0.46013 0.0
C297 C 0.63372 0.93064 0.41773 0.0
C298 C 0.61888 0.89354 0.42417 0.0
N299 N 0.61446 0.87505 0.39182 0.0
N300 N 0.63849 0.93553 0.38149 0.0
C301 C 0.62724 0.90093 0.36651 0.0
H302 H 0.63949 0.95309 0.43803 0.0
Co303 Co 0.65337 0.98203 0.35848 0.0
C304 C 0.60649 0.97987 0.28934 0.0
O305 O 0.59788 0.01751 0.29193 0.0
N306 N 0.66901 0.02984 0.33553 0.0
C307 C 0.67316 0.09136 0.31367 0.0
C308 C 0.65085 0.06553 0.33403 0.0
C309 C 0.70243 0.03527 0.31607 0.0
N310 N 0.70583 0.07224 0.30299 0.0
O311 O 0.70141 0.95701 0.34479 0.0
H312 H 0.62227 0.0724 0.34546 0.0
H313 H 0.72332 0.01216 0.30978 0.0
O314 O 0.6283 0.96371 0.31354 0.0
C315 C 0.72505 0.95727 0.37183 0.0
O316 O 0.71468 0.97604 0.4017 0.0
N317 N 0.60757 0.00499 0.37597 0.0
C318 C 0.54915 0.01943 0.42693 0.0
C319 C 0.54054 -0.00233 0.3954 0.0
C320 C 0.57049 0.99027 0.37027 0.0
C321 C 0.61552 0.0285 0.40524 0.0
C322 C 0.5865 0.0365 0.43097 0.0
H323 H 0.56487 0.96887 0.3491 0.0
H324 H 0.64556 0.03794 0.4104 0.0
H325 H 0.62833 0.89483 0.33762 0.0
H326 H 0.61066 0.88162 0.45051 0.0
H327 H 0.66547 0.12133 0.30633 0.0
H328 H 0.51229 0.98301 0.39216 0.0
H329 H 0.59412 0.05303 0.45531 0.0
C330 C 0.56837 0.63435 0.42048 0.0
C331 C 0.60399 0.61562 0.42543 0.0
N332 N 0.61882 0.60704 0.39229 0.0
N333 N 0.56077 0.63712 0.38439 0.0
C334 C 0.59246 0.62076 0.3679 0.0
H335 H 0.54827 0.64345 0.44181 0.0
Co336 Co 0.51287 0.65319 0.36455 0.0
C337 C 0.5079 0.61052 0.29402 0.0
O338 O 0.46969 0.60584 0.2985 0.0
N339 N 0.46403 0.67011 0.34488 0.0
C340 C 0.40099 0.67962 0.32853 0.0
C341 C 0.42622 0.65805 0.35037 0.0
C342 C 0.46065 0.69892 0.31971 0.0
N343 N 0.423 0.70548 0.30977 0.0
O344 O 0.53686 0.70194 0.35156 0.0
H345 H 0.41704 0.63431 0.36804 0.0
H346 H 0.48546 0.71405 0.30748 0.0
O347 O 0.52767 0.63001 0.31766 0.0
C348 C 0.53756 0.72454 0.37928 0.0
O349 O 0.52112 0.71246 0.40978 0.0
N350 N 0.49096 0.60658 0.38145 0.0
C351 C 0.48627 0.54718 0.43286 0.0
C352 C 0.50245 0.53941 0.39849 0.0
C353 C 0.50498 0.56985 0.37306 0.0
C354 C 0.47201 0.61335 0.41363 0.0
C355 C 0.46874 0.58376 0.43962 0.0
H356 H 0.52296 0.5649 0.34924 0.0
H357 H 0.46339 0.64309 0.42082 0.0
H358 H 0.59527 0.61657 0.33874 0.0
H359 H 0.61731 0.60761 0.45129 0.0
H360 H 0.36925 0.6763 0.32626 0.0
H361 H 0.51687 0.51152 0.39287 0.0
H362 H 0.45607 0.59052 0.46605 0.0
C363 C 0.84328 0.56654 0.4175 0.0
C364 C 0.8595 0.60312 0.42396 0.0
N365 N 0.87585 0.61599 0.39264 0.0
N366 N 0.84971 0.55653 0.3824 0.0
C367 C 0.86925 0.58749 0.36783 0.0
H368 H 0.8289 0.54779 0.43735 0.0
Co369 Co 0.83746 0.50798 0.36242 0.0
C370 C 0.88278 0.50458 0.29341 0.0
O371 O 0.88897 0.46674 0.29861 0.0
N372 N 0.82399 0.45852 0.34248 0.0
C373 C 0.80748 0.39557 0.33256 0.0
C374 C 0.82893 0.42097 0.35442 0.0
C375 C 0.8002 0.45488 0.31315 0.0
N376 N 0.78949 0.41735 0.30691 0.0
O377 O 0.78776 0.52883 0.34782 0.0
H378 H 0.8452 0.41221 0.37841 0.0
H379 H 0.78901 0.47962 0.29757 0.0
O380 O 0.86163 0.52379 0.31619 0.0
C381 C 0.76182 0.51917 0.37135 0.0
O382 O 0.77247 0.49553 0.39805 0.0
N383 N 0.8846 0.48883 0.38116 0.0
C384 C 0.94532 0.4806 0.43138 0.0
C385 C 0.95274 0.4974 0.39716 0.0
C386 C 0.92165 0.50196 0.37251 0.0
C387 C 0.87756 0.47103 0.41384 0.0
C388 C 0.90764 0.46609 0.43921 0.0
H389 H 0.92687 0.51985 0.34871 0.0
H390 H 0.84756 0.46391 0.42159 0.0
H391 H 0.88031 0.58858 0.34015 0.0
H392 H 0.85997 0.61871 0.44975 0.0
H393 H 0.80349 0.36417 0.33649 0.0
H394 H 0.98129 0.51021 0.39093 0.0
H395 H 0.90087 0.45365 0.46574 0.0
C396 C 0.90546 0.66656 0.08875 0.0
C397 C 0.86732 0.65235 0.08615 0.0
N398 N 0.86506 0.6192 0.10627 0.0
N399 N 0.92661 0.64259 0.11075 0.0
C400 C 0.90126 0.6137 0.12041 0.0
H401 H 0.9166 0.69343 0.07661 0.0
Co402 Co 0.97694 0.65121 0.12912 0.0
C403 C 0.98024 0.59669 0.19354 0.0
O404 O 0.01773 0.5885 0.18806 0.0
N405 N 0.0276 0.66051 0.14803 0.0
C406 C 0.09065 0.67769 0.15596 0.0
C407 C 0.06333 0.66279 0.13157 0.0
C408 C 0.0341 0.67381 0.18213 0.0
N409 N 0.07195 0.68423 0.18772 0.0
O410 O 0.95792 0.69798 0.1513 0.0
H411 H 0.069 0.65661 0.10315 0.0
H412 H 0.01076 0.67849 0.20188 0.0
O413 O 0.96258 0.62094 0.17246 0.0
C414 C 0.96896 0.72853 0.13389 0.0
O415 O 0.99585 0.72464 0.10828 0.0
N416 N 0.99457 0.60785 0.10338 0.0
C417 C 0.00676 0.55474 0.04713 0.0
C418 C 0.99421 0.54142 0.08143 0.0
C419 C 0.98765 0.56868 0.10928 0.0
C420 C 0.00775 0.62089 0.07042 0.0
C421 C 0.01445 0.59479 0.04194 0.0
H422 H 0.97401 0.55829 0.13397 0.0
H423 H 0.01065 0.65224 0.06561 0.0
H424 H 0.90842 0.58981 0.13884 0.0
H425 H 0.84311 0.66556 0.07116 0.0
H426 H 0.12118 0.68504 0.1503 0.0
H427 H 0.98667 0.51071 0.08581 0.0
H428 H 0.02357 0.60604 0.01556 0.0
C429 C 0.82419 0.90203 0.08705 0.0
C430 C 0.83944 0.86426 0.08583 0.0
N431 N 0.8713 0.86314 0.10784 0.0
N432 N 0.84615 0.924 0.11019 0.0
C433 C 0.87463 0.89937 0.12215 0.0
H434 H 0.79814 0.91239 0.07285 0.0
Co435 Co 0.83695 0.97483 0.127 0.0
C436 C 0.88689 0.97794 0.19456 0.0
O437 O 0.89642 0.01498 0.1886 0.0
N438 N 0.82713 0.02573 0.14444 0.0
C439 C 0.81337 0.08947 0.15269 0.0
C440 C 0.82699 0.0616 0.12819 0.0
C441 C 0.81333 0.03254 0.17826 0.0
N442 N 0.80571 0.07084 0.18426 0.0
O443 O 0.78754 0.95745 0.14537 0.0
H444 H 0.83455 0.06722 0.10004 0.0
H445 H 0.80732 0.00939 0.19788 0.0
O446 O 0.86311 0.96051 0.17281 0.0
C447 C 0.76073 0.96652 0.12242 0.0
O448 O 0.77004 0.99088 0.09585 0.0
N449 N 0.88332 0.99106 0.10457 0.0
C450 C 0.94105 -0.00194 0.0514 0.0
C451 C 0.95116 0.98575 0.08669 0.0
C452 C 0.92164 0.98201 0.11299 0.0
C453 C 0.87359 0.00468 0.07078 0.0
C454 C 0.90206 0.00885 0.04384 0.0
H455 H 0.92955 0.96839 0.13846 0.0
H456 H 0.84287 0.00939 0.06386 0.0
H457 H 0.89679 0.90707 0.14218 0.0
H458 H 0.82799 0.83958 0.07031 0.0
H459 H 0.80836 0.1205 0.14747 0.0
H460 H 0.9809 0.97604 0.09303 0.0
H461 H 0.89324 0.01811 0.0167 0.0
C462 C 0.57218 0.84541 0.06623 0.0
C463 C 0.60933 0.86129 0.06167 0.0
N464 N 0.62393 0.8701 0.09492 0.0
N465 N 0.56333 0.84511 0.10211 0.0
C466 C 0.59572 0.85975 0.11885 0.0
H467 H 0.55199 0.83686 0.04471 0.0
Co468 Co 0.51435 0.83393 0.12229 0.0
C469 C 0.51321 0.88316 0.18978 0.0
O470 O 0.47621 0.89303 0.18369 0.0
N471 N 0.46496 0.82183 0.14273 0.0
C472 C 0.40211 0.80706 0.15536 0.0
C473 C 0.42763 0.8216 0.12925 0.0
C474 C 0.46123 0.807 0.17664 0.0
N475 N 0.42359 0.79843 0.18512 0.0
O476 O 0.53454 0.78491 0.13839 0.0
H477 H 0.41902 0.83026 0.10207 0.0
H478 H 0.48604 0.80146 0.19466 0.0
O479 O 0.53065 0.8596 0.16785 0.0
C480 C 0.52783 0.76004 0.11309 0.0
O481 O 0.50572 0.7713 0.08546 0.0
N482 N 0.49552 0.88042 0.10224 0.0
C483 C 0.48694 0.9392 0.05045 0.0
C484 C 0.50532 0.94748 0.08379 0.0
C485 C 0.51016 0.91728 0.10919 0.0
C486 C 0.47626 0.87265 0.07036 0.0
C487 C 0.47101 0.90183 0.04426 0.0
H488 H 0.52943 0.92279 0.13205 0.0
H489 H 0.46881 0.84259 0.06336 0.0
H490 H 0.59782 0.86561 0.14776 0.0
H491 H 0.62371 0.86766 0.03595 0.0
H492 H 0.37056 0.80265 0.15256 0.0
H493 H 0.51905 0.97588 0.08866 0.0
H494 H 0.4574 0.89446 0.01834 0.0
C495 C 0.65321 0.56931 0.07279 0.0
C496 C 0.63939 0.60672 0.06557 0.0
N497 N 0.62363 0.62116 0.09655 0.0
N498 N 0.64544 0.56033 0.10792 0.0
C499 C 0.62801 0.59281 0.1218 0.0
H500 H 0.66612 0.54912 0.0533 0.0
Co501 Co 0.65212 0.5114 0.12913 0.0
C502 C 0.59742 0.51235 0.19271 0.0
O503 O 0.58725 0.47561 0.18613 0.0
N504 N 0.65995 0.46174 0.15056 0.0
C505 C 0.6737 0.39874 0.16275 0.0
C506 C 0.6601 0.42475 0.13662 0.0
C507 C 0.67337 0.45726 0.18495 0.0
N508 N 0.68143 0.41946 0.19319 0.0
O509 O 0.69993 0.52993 0.14944 0.0
H510 H 0.65307 0.41691 0.10884 0.0
H511 H 0.6796 0.4818 0.20301 0.0
O512 O 0.62317 0.52907 0.17246 0.0
C513 C 0.72963 0.52069 0.13002 0.0
O514 O 0.72521 0.49392 0.10438 0.0
N515 N 0.60661 0.49477 0.10518 0.0
C516 C 0.5524 0.49242 0.04834 0.0
C517 C 0.54223 0.50979 0.08166 0.0
C518 C 0.57008 0.51136 0.10964 0.0
C519 C 0.61607 0.47612 0.07342 0.0
C520 C 0.58913 0.47399 0.04478 0.0
H521 H 0.56347 0.52997 0.13263 0.0
H522 H 0.64617 0.46682 0.06865 0.0
H523 H 0.61615 0.59502 0.14911 0.0
H524 H 0.63924 0.62146 0.03935 0.0
H525 H 0.67928 0.36754 0.15916 0.0
H526 H 0.51441 0.52525 0.08485 0.0
H527 H 0.59799 0.46061 0.0192 0.0
C528 C 0.07046 0.09075 0.72842 0.0
C529 C 0.03412 0.07729 0.7144 0.0
C530 C 0.09286 0.06757 0.75254 0.0
C531 C 0.08019 0.02967 0.76304 0.0
H532 H 0.08169 0.11954 0.72081 0.0
H533 H 0.12046 0.07939 0.76287 0.0
S534 S 0.98725 0.98044 0.73388 0.0
N535 N 0.98647 0.02351 0.71288 0.0
N536 N 0.02868 0.97986 0.75771 0.0
C537 C 0.04398 0.01576 0.74908 0.0
C538 C 0.0209 0.0396 0.72497 0.0
C539 C 0.39813 0.073 0.73076 0.0
C540 C 0.4135 0.03748 0.7168 0.0
C541 C 0.42033 0.09681 0.75458 0.0
C542 C 0.45911 0.08645 0.76492 0.0
H543 H 0.36857 0.0824 0.72341 0.0
H544 H 0.40691 0.12354 0.76502 0.0
S545 S 0.51365 -0.00306 0.73499 0.0
N546 N 0.47027 0.99348 0.71462 0.0
N547 N 0.51202 0.03822 0.75879 0.0
C548 C 0.47501 0.05124 0.75072 0.0
C549 C 0.45221 0.02675 0.72691 0.0
C550 C 0.39951 0.42578 0.75254 0.0
C551 C 0.41117 0.46441 0.76181 0.0
C552 C 0.42374 0.40134 0.73119 0.0
C553 C 0.46092 0.41426 0.71874 0.0
H554 H 0.37138 0.41429 0.76184 0.0
H555 H 0.41326 0.37201 0.72445 0.0
S556 S 0.50568 0.51262 0.73574 0.0
N557 N 0.4627 0.51427 0.75692 0.0
N558 N 0.50817 0.46833 0.7172 0.0
C559 C 0.47309 0.45267 0.72804 0.0
C560 C 0.44821 0.47776 0.74934 0.0
C561 C 0.07655 0.39246 0.75407 0.0
C562 C 0.03835 0.40302 0.76565 0.0
C563 C 0.0988 0.41742 0.73136 0.0
C564 C 0.08408 0.45434 0.72002 0.0
H565 H 0.08934 0.36461 0.76251 0.0
H566 H 0.12783 0.40772 0.72274 0.0
S567 S 0.98608 0.49652 0.74378 0.0
N568 N 0.987 0.4533 0.76447 0.0
N569 N 0.02885 0.50025 0.72247 0.0
C570 C 0.04608 0.46544 0.7318 0.0
C571 C 0.0232 0.43977 0.75436 0.0
C572 C 0.9187 0.89205 0.25473 0.0
C573 C 0.9572 0.90272 0.26551 0.0
C574 C 0.89587 0.91686 0.23236 0.0
C575 C 0.91029 0.95371 0.22055 0.0
H576 H 0.90618 0.86419 0.26347 0.0
H577 H 0.86667 0.90705 0.22424 0.0
S578 S 0.00889 0.99608 0.24199 0.0
N579 N 0.00851 0.95303 0.26299 0.0
N580 N 0.96554 -0.00034 0.22158 0.0
C581 C 0.94854 0.96495 0.23155 0.0
C582 C 0.97201 0.93944 0.25378 0.0
C583 C 0.54745 0.96773 0.24986 0.0
C584 C 0.58419 0.95471 0.2633 0.0
C585 C 0.52425 0.94383 0.22715 0.0
C586 C 0.53698 0.90603 0.2165 0.0
H587 H 0.53609 -0.00351 0.25735 0.0
H588 H 0.49641 0.95552 0.21731 0.0
S589 S 0.63072 0.8577 0.24435 0.0
N590 N 0.63225 0.90137 0.26429 0.0
N591 N 0.58851 0.85632 0.22169 0.0
C592 C 0.57363 0.89253 0.22974 0.0
C593 C 0.59723 0.91685 0.2531 0.0
C594 C 0.56809 0.59627 0.25624 0.0
C595 C 0.5294 0.58611 0.26682 0.0
C596 C 0.58996 0.57219 0.23247 0.0
C597 C 0.57432 0.53657 0.2189 0.0
H598 H 0.58163 0.6231 0.26639 0.0
H599 H 0.6195 0.58143 0.22491 0.0
S600 S 0.47443 0.49626 0.23836 0.0
N601 N 0.47637 0.53785 0.26169 0.0
N602 N 0.51751 0.49255 0.21759 0.0
C603 C 0.53572 0.52599 0.22935 0.0
C604 C 0.51324 0.55079 0.25307 0.0
C605 C 0.89579 0.5647 0.25533 0.0
C606 C 0.90723 0.52669 0.26665 0.0
C607 C 0.91969 0.5872 0.23193 0.0
C608 C 0.95641 0.57295 0.21953 0.0
H609 H 0.86809 0.5772 0.26459 0.0
H610 H 0.90941 0.61614 0.22371 0.0
S611 S 0.00025 0.47529 0.24124 0.0
N612 N 0.95785 0.47575 0.26346 0.0
N613 N 0.00284 0.51818 0.22006 0.0
C614 C 0.96828 0.53506 0.23073 0.0
C615 C 0.94367 0.51188 0.25406 0.0
C616 C 0.9849 0.96099 0.48907 0.0
C617 C 0.00294 0.97236 0.45613 0.0
C618 C 0.97976 0.98798 0.51744 0.0
C619 C 0.99236 0.02719 0.51366 0.0
H620 H 0.97439 0.93105 0.49279 0.0
H621 H 0.96591 0.97816 0.54251 0.0
S622 S 0.04302 0.0709 0.43344 0.0
N623 N 0.03416 0.02476 0.42143 0.0
N624 N 0.02512 0.07577 0.47514 0.0
C625 C 0.01055 0.03891 0.48086 0.0
C626 C 0.01564 0.01139 0.45193 0.0
C627 C 0.53636 0.00245 0.49174 0.0
C628 C 0.52226 0.01756 0.45837 0.0
C629 C 0.51087 -0.00356 0.52118 0.0
C630 C 0.4705 0.00512 0.51804 0.0
H631 H 0.56712 0.99412 0.49474 0.0
H632 H 0.52261 0.98418 0.54628 0.0
S633 S 0.41987 0.04891 0.43773 0.0
N634 N 0.4662 0.04333 0.42453 0.0
N635 N 0.41803 0.03251 0.48016 0.0
C636 C 0.45625 0.02137 0.4852 0.0
C637 C 0.48221 0.02741 0.45523 0.0
C638 C 0.48846 0.45471 0.49014 0.0
C639 C 0.50865 0.46734 0.52169 0.0
C640 C 0.48126 0.48068 0.46125 0.0
C641 C 0.49377 0.52003 0.46331 0.0
H642 H 0.47729 0.42482 0.48818 0.0
H643 H 0.4653 0.47018 0.43749 0.0
S644 S 0.55109 0.56635 0.53835 0.0
N645 N 0.5431 0.52073 0.55238 0.0
N646 N 0.52988 0.56975 0.49783 0.0
C647 C 0.51493 0.53271 0.49424 0.0
C648 C 0.52223 0.50629 0.52359 0.0
C649 C 0.96428 0.50347 0.49331 0.0
C650 C 0.97468 0.48395 0.46082 0.0
C651 C 0.99157 0.50796 0.52164 0.0
C652 C 0.03013 0.49317 0.5183 0.0
H653 H 0.93493 0.51573 0.49667 0.0
H654 H 0.98255 0.52329 0.54622 0.0
S655 S 0.07106 0.43795 0.4394 0.0
N656 N 0.02538 0.44891 0.42709 0.0
N657 N 0.07689 0.45672 0.48068 0.0
C658 C 0.04081 0.47337 0.48599 0.0
C659 C 0.01301 0.46896 0.4571 0.0
C660 C 0.98018 0.51109 0.95554 0.0
C661 C -0.00079 0.47445 0.9568 0.0
C662 C 0.98374 0.5375 0.98468 0.0
C663 C 0.00657 0.52793 0.01562 0.0
H664 H 0.96169 0.51883 0.93245 0.0
H665 H 0.96757 0.56507 0.9835 0.0
S666 S 0.06598 0.43743 0.0294 0.0
N667 N 0.04423 0.43103 0.98942 0.0
N668 N 0.05093 0.48088 0.04437 0.0
C669 C 0.02695 0.49198 0.0164 0.0
C670 C 0.02332 0.46517 0.98682 0.0
C671 C 0.98573 0.96777 0.96126 0.0
C672 C 0.02363 0.98434 0.96308 0.0
C673 C 0.95912 0.97261 0.99004 0.0
C674 C 0.96955 0.99446 0.0213 0.0
H675 H 0.97678 0.95079 0.93757 0.0
H676 H 0.93032 0.95878 0.98801 0.0
S677 S 0.06416 0.04651 0.03759 0.0
N678 N 0.06973 0.02519 -0.00263 0.0
N679 N 0.01943 0.03428 0.05165 0.0
C680 C 0.00718 0.01161 0.02319 0.0
C681 C 0.0343 0.00661 -0.00605 0.0
C682 C 0.47659 0.03273 -0.00422 0.0
C683 C 0.49652 0.02333 0.96317 0.0
C684 C 0.47341 0.00527 0.02403 0.0
C685 C 0.48965 0.9675 0.02029 0.0
H686 H 0.463 0.06142 -0.00068 0.0
H687 H 0.45792 0.01344 0.04878 0.0
S688 S 0.54677 0.92913 0.94159 0.0
N689 N 0.53415 0.97436 0.92948 0.0
N690 N 0.52786 0.92235 0.98268 0.0
C691 C 0.50988 0.95774 0.98805 0.0
C692 C 0.51332 0.98576 0.95937 0.0
C693 C 0.4613 0.49433 0.98879 0.0
C694 C 0.47531 0.51149 0.95629 0.0
C695 C 0.48657 0.48776 0.01836 0.0
C696 C 0.52668 0.49791 0.01627 0.0
H697 H 0.43065 0.4854 0.99119 0.0
H698 H 0.47473 0.47446 0.04293 0.0
S699 S 0.57723 0.54593 0.93814 0.0
N700 N 0.53122 0.53974 0.92409 0.0
N701 N 0.57898 0.52781 0.97999 0.0
C702 C 0.54102 0.51545 0.98406 0.0
C703 C 0.51525 0.52207 0.95393 0.0
C704 C 0.92816 0.19612 0.75157 0.0
C705 C 0.91419 0.21062 0.71806 0.0
C706 C 0.92895 0.22012 0.78251 0.0
C707 C 0.91561 0.25925 0.78088 0.0
H708 H 0.94158 0.16714 0.75297 0.0
H709 H 0.94296 0.20918 0.80712 0.0
S710 S 0.87189 0.30963 0.70086 0.0
N711 N 0.8831 0.26504 0.68583 0.0
N712 N 0.8844 0.31032 0.7445 0.0
C713 C 0.89798 0.27288 0.7486 0.0
C714 C 0.89727 0.24841 0.71694 0.0
C715 C 0.2453 0.89195 0.70973 0.0
C716 C 0.28316 0.90807 0.7152 0.0
C717 C 0.21755 0.89155 0.73817 0.0
C718 C 0.22736 0.90685 0.77259 0.0
H719 H 0.23598 0.88322 0.68261 0.0
H720 H 0.18748 0.88244 0.73251 0.0
S721 S 0.32419 0.94652 0.80183 0.0
N722 N 0.33036 0.9351 0.75835 0.0
N723 N 0.27823 0.93411 0.81184 0.0
C724 C 0.26615 0.91938 0.77917 0.0
C725 C 0.29416 0.91998 0.75039 0.0
C726 C 0.60003 0.21484 0.74943 0.0
C727 C 0.58462 0.22711 0.78309 0.0
C728 C 0.59944 0.24021 0.71919 0.0
C729 C 0.5827 0.27805 0.72197 0.0
H730 H 0.60921 0.18449 0.74576 0.0
H731 H 0.60847 0.22891 0.69283 0.0
S732 S 0.54296 0.325 0.80543 0.0
N733 N 0.55623 0.2803 0.8186 0.0
N734 N 0.55468 0.328 0.76172 0.0
C735 C 0.57053 0.29164 0.7563 0.0
C736 C 0.57159 0.26608 0.78697 0.0
C737 C 0.24562 0.60692 0.71367 0.0
C738 C 0.2076 0.59073 0.71769 0.0
C739 C 0.27208 0.6076 0.74323 0.0
C740 C 0.26091 0.59211 0.77727 0.0
H741 H 0.25627 0.61502 0.68682 0.0
H742 H 0.30246 0.61627 0.73853 0.0
S743 S 0.1623 0.55416 0.80311 0.0
N744 N 0.15822 0.56501 0.75928 0.0
N745 N 0.20789 0.5663 0.81481 0.0
C746 C 0.22159 0.58044 0.78249 0.0
C747 C 0.19486 0.57976 0.75263 0.0
C748 C 0.07482 0.69265 0.25373 0.0
C749 C 0.08512 0.7062 0.2188 0.0
C750 C 0.07406 0.71837 0.28349 0.0
C751 C 0.08382 0.75833 0.27921 0.0
H752 H 0.06389 0.66285 0.25724 0.0
H753 H 0.06266 0.70788 0.30935 0.0
S754 S 0.11677 0.80739 0.19437 0.0
N755 N 0.10867 0.76114 0.18221 0.0
N756 N 0.10755 0.8096 0.23863 0.0
C757 C 0.09785 0.7714 0.24533 0.0
C758 C 0.09848 0.7452 0.21489 0.0
C759 C 0.74804 0.10113 0.21322 0.0
C760 C 0.78626 0.08528 0.21617 0.0
C761 C 0.72248 0.10091 0.24334 0.0
C762 C 0.73471 0.08476 0.27688 0.0
H763 H 0.73657 0.10964 0.18675 0.0
H764 H 0.69197 0.10955 0.23937 0.0
S765 S 0.8347 0.04811 0.29999 0.0
N766 N 0.83722 0.05959 0.25621 0.0
N767 N 0.7893 0.05933 0.31293 0.0
C768 C 0.77432 0.07354 0.28109 0.0
C769 C 0.80016 0.07382 0.25062 0.0
C770 C 0.42648 0.77105 0.28282 0.0
C771 C 0.41115 0.7326 0.28197 0.0
C772 C 0.42663 0.79441 0.25148 0.0
C773 C 0.41148 0.77998 0.21838 0.0
H774 H 0.4413 0.78177 0.30711 0.0
H775 H 0.44157 0.82268 0.25226 0.0
S776 S 0.36377 0.68308 0.20324 0.0
N777 N 0.37682 0.68253 0.24674 0.0
N778 N 0.37711 0.72674 0.18737 0.0
C779 C 0.39256 0.74315 0.21806 0.0
C780 C 0.39241 0.71928 0.2501 0.0
C781 C 0.73972 0.38812 0.22078 0.0
C782 C 0.70305 0.4072 0.22484 0.0
C783 C 0.76719 0.38768 0.24952 0.0
C784 C 0.75831 0.40597 0.28286 0.0
H785 H 0.74865 0.37704 0.19431 0.0
H786 H 0.79662 0.37628 0.24469 0.0
S787 S 0.66413 0.45361 0.30891 0.0
N788 N 0.65745 0.43984 0.26605 0.0
N789 N 0.70911 0.43888 0.32003 0.0
C790 C 0.72036 0.42135 0.28833 0.0
C791 C 0.69262 0.42194 0.25926 0.0
C792 C 0.21835 0.07718 0.63543 0.0
C793 C 0.22609 0.04407 0.61332 0.0
C794 C 0.18511 0.10101 0.62914 0.0
C795 C 0.159 0.0928 0.60028 0.0
H796 H 0.23868 0.08551 0.65696 0.0
H797 H 0.18026 0.1266 0.64626 0.0
S798 S 0.1623 0.00693 0.538 0.0
N799 N 0.202 0.00215 0.5639 0.0
N800 N 0.14021 0.04757 0.55207 0.0
C801 C 0.16527 0.05902 0.57911 0.0
C802 C 0.19864 0.03446 0.58569 0.0
C803 C 0.41521 0.1652 0.63351 0.0
C804 C 0.38564 0.16343 0.60631 0.0
C805 C 0.43748 0.19962 0.63905 0.0
C806 C 0.43086 0.23306 0.61743 0.0
H807 H 0.42248 0.13931 0.64948 0.0
H808 H 0.46115 0.19944 0.65901 0.0
S809 S 0.35366 0.24573 0.54655 0.0
N810 N 0.34821 0.19978 0.56071 0.0
N811 N 0.39082 0.26402 0.57044 0.0
C812 C 0.40024 0.23241 0.59156 0.0
C813 C 0.37741 0.19765 0.58614 0.0
C814 C 0.31094 0.39154 0.63326 0.0
C815 C 0.34072 0.40492 0.60966 0.0
C816 C 0.27826 0.41545 0.64139 0.0
C817 C 0.27483 0.45363 0.62648 0.0
H818 H 0.31236 0.36196 0.64436 0.0
H819 H 0.25475 0.40322 0.65796 0.0
S820 S 0.34945 0.50436 0.56883 0.0
N821 N 0.36776 0.45977 0.57541 0.0
N822 N 0.30693 0.50525 0.59093 0.0
C823 C 0.30613 0.46814 0.60501 0.0
C824 C 0.33894 0.44362 0.59647 0.0
C825 C 0.06638 0.33541 0.60868 0.0
C826 C 0.10766 0.33163 0.6111 0.0
C827 C 0.04163 0.30283 0.6139 0.0
C828 C 0.05732 0.26568 0.62274 0.0
H829 H 0.05329 0.36362 0.60183 0.0
H830 H 0.01003 0.3066 0.61048 0.0
S831 S 0.16347 0.24096 0.63394 0.0
N832 N 0.16321 0.28847 0.6238 0.0
N833 N 0.11666 0.22708 0.63444 0.0
C834 C 0.09853 0.26178 0.62637 0.0
C835 C 0.12376 0.29483 0.62025 0.0
C836 C 0.22154 0.41744 0.8508 0.0
C837 C 0.22883 0.45168 0.87154 0.0
C838 C 0.18761 0.39449 0.85684 0.0
C839 C 0.16025 0.40483 0.88402 0.0
H840 H 0.24277 0.40753 0.83067 0.0
H841 H 0.18329 0.36784 0.84102 0.0
S842 S 0.16192 0.49461 0.94151 0.0
N843 N 0.20301 0.49708 0.91733 0.0
N844 N 0.13984 0.45344 0.92868 0.0
C845 C 0.16603 0.43987 0.90354 0.0
C846 C 0.20018 0.46345 0.89725 0.0
C847 C 0.10105 0.175 0.85666 0.0
C848 C 0.0973 0.15172 0.88822 0.0
C849 C 0.08048 0.21076 0.85319 0.0
C850 C 0.05508 0.22411 0.88101 0.0
H851 H 0.12065 0.16582 0.83491 0.0
H852 H 0.08493 0.22821 0.82876 0.0
S853 S 0.03223 0.17099 0.9674 0.0
N854 N 0.06461 0.14255 0.94642 0.0
N855 N 0.02557 0.20931 0.94027 0.0
C856 C 0.05017 0.20011 0.91219 0.0
C857 C 0.07142 0.16405 0.91574 0.0
C858 C 0.3343 0.05847 0.87369 0.0
C859 C 0.32951 0.09962 0.87287 0.0
C860 C 0.30215 0.03327 0.86777 0.0
C861 C 0.26453 0.04847 0.85962 0.0
H862 H 0.36289 0.04581 0.88002 0.0
H863 H 0.30659 0.00172 0.87015 0.0
S864 S 0.23733 0.15426 0.85257 0.0
N865 N 0.28499 0.15459 0.86253 0.0
N866 N 0.2245 0.1073 0.85024 0.0
C867 C 0.25971 0.08963 0.85748 0.0
C868 C 0.29226 0.11524 0.86446 0.0
C869 C 0.43045 0.33107 0.9047 0.0
C870 C 0.40294 0.34391 0.87864 0.0
C871 C 0.45251 0.29678 0.89921 0.0
C872 C 0.44762 0.27355 0.8676 0.0
H873 H 0.43505 0.34777 0.92955 0.0
H874 H 0.47281 0.28799 0.92061 0.0
S875 S 0.38061 0.29567 0.78999 0.0
N876 N 0.3729 0.33191 0.81928 0.0
N877 N 0.41443 0.26706 0.80892 0.0
C878 C 0.42099 0.28668 0.84071 0.0
C879 C 0.39864 0.32194 0.84624 0.0
C880 C 0.82709 0.91596 0.35462 0.0
C881 C 0.83088 0.88797 0.38295 0.0
C882 C 0.79186 0.93725 0.34967 0.0
C883 C 0.75963 0.93124 0.37305 0.0
H884 H 0.852 0.92265 0.33715 0.0
H885 H 0.79046 0.95967 0.32861 0.0
S886 S 0.7521 0.85763 0.44745 0.0
N887 N 0.79747 0.85236 0.43158 0.0
N888 N 0.73187 0.89318 0.42293 0.0
C889 C 0.76229 0.90217 0.40017 0.0
C890 C 0.79781 0.88029 0.40498 0.0
C891 C 0.60265 0.80711 0.41263 0.0
C892 C 0.59751 0.83655 0.38602 0.0
C893 C 0.58386 0.77056 0.4095 0.0
C894 C 0.55974 0.76178 0.37935 0.0
H895 H 0.62097 0.81257 0.43635 0.0
H896 H 0.58796 0.74906 0.43109 0.0
S897 S 0.53554 0.82832 0.30241 0.0
N898 N 0.56536 0.85451 0.32871 0.0
N899 N 0.53143 0.78481 0.32234 0.0
C900 C 0.55509 0.79022 0.35193 0.0
C901 C 0.57367 0.8279 0.35536 0.0
C902 C 0.71601 0.57409 0.35378 0.0
C903 C 0.72265 0.53845 0.37259 0.0
C904 C 0.68138 0.59601 0.35956 0.0
C905 C 0.65268 0.58312 0.38452 0.0
H906 H 0.73834 0.58598 0.33569 0.0
H907 H 0.67763 0.62391 0.34557 0.0
S908 S 0.65228 0.48883 0.43545 0.0
N909 N 0.69484 0.48892 0.41343 0.0
N910 N 0.6303 0.53063 0.42439 0.0
C911 C 0.65775 0.54657 0.40169 0.0
C912 C 0.69262 0.52406 0.39564 0.0
C913 C 0.89256 0.67556 0.35727 0.0
C914 C 0.89922 0.65085 0.38746 0.0
C915 C 0.91435 0.71045 0.35263 0.0
C916 C 0.94387 0.72142 0.37782 0.0
H917 H 0.86962 0.66831 0.33773 0.0
H918 H 0.90735 0.72933 0.32965 0.0
S919 S 0.97617 0.66297 0.45851 0.0
N920 N 0.93946 0.63723 0.44075 0.0
N921 N 0.98098 0.70221 0.43219 0.0
C922 C 0.95201 0.69563 0.40714 0.0
C923 C 0.92952 0.66051 0.41195 0.0
C924 C 0.8341 0.55394 0.1116 0.0
C925 C 0.83108 0.5952 0.11368 0.0
C926 C 0.80141 0.5298 0.11863 0.0
C927 C 0.76493 0.5461 0.129 0.0
H928 H 0.86172 0.54038 0.10351 0.0
H929 H 0.8045 0.49818 0.11528 0.0
S930 S 0.74266 0.65257 0.14071 0.0
N931 N 0.78955 0.65142 0.12823 0.0
N932 N 0.72805 0.6061 0.14222 0.0
C933 C 0.76196 0.58734 0.13256 0.0
C934 C 0.79507 0.61192 0.12461 0.0
C935 C 0.90321 0.76136 0.13497 0.0
C936 C 0.94468 0.76445 0.13384 0.0
C937 C 0.87921 0.79367 0.12603 0.0
C938 C 0.89601 0.83012 0.11653 0.0
H939 H 0.8892 0.73333 0.14085 0.0
H940 H 0.84739 0.7902 0.1264 0.0
S941 S 0.00277 0.85423 0.11256 0.0
N942 N 0.00138 0.80722 0.12438 0.0
N943 N 0.95621 0.86817 0.1084 0.0
C944 C 0.93731 0.83405 0.11704 0.0
C945 C 0.96168 0.80113 0.12555 0.0
C946 C 0.69705 0.95271 0.09094 0.0
C947 C 0.72372 0.94341 0.11928 0.0
C948 C 0.66493 0.92831 0.08286 0.0
C949 C 0.65786 0.89394 0.10306 0.0
H950 H 0.70145 0.97861 0.0741 0.0
H951 H 0.64525 0.93652 0.06078 0.0
S952 S 0.71731 0.85653 0.1807 0.0
N953 N 0.74003 0.89749 0.1682 0.0
N954 N 0.67888 0.85198 0.15314 0.0
C955 C 0.68327 0.88475 0.13219 0.0
C956 C 0.71636 0.90943 0.14031 0.0
C957 C 0.60634 0.68203 0.12933 0.0
C958 C 0.59944 0.6555 0.10058 0.0
C959 C 0.58215 0.71521 0.1342 0.0
C960 C 0.54994 0.72247 0.11072 0.0
H961 H 0.63101 0.67731 0.1477 0.0
H962 H 0.58932 0.7357 0.15592 0.0
S963 S 0.51655 0.65778 0.03464 0.0
N964 N 0.5566 0.63604 0.0507 0.0
N965 N 0.51049 0.69778 0.05976 0.0
C966 C 0.54181 0.69482 0.08291 0.0
C967 C 0.56676 0.66148 0.07782 0.0
loop_
_geom_bond_atom_site_label_1
_geom_bond_atom_site_label_2
_geom_bond_distance
_geom_bond_site_symmetry_2
_ccdc_geom_bond_type
C0 C1 1.351 . S
C0 N3 1.368 . S
C0 H5 0.931 . S
C1 C0 1.351 . S
C1 N2 1.373 . S
C1 H29 0.930 . S
N2 C1 1.373 . S
N2 C4 1.340 . S
N3 C0 1.368 . S
N3 C4 1.321 . S
N3 Co6 2.135 . S
C4 N2 1.340 . S
C4 N3 1.321 . S
C4 H28 0.930 . S
H5 C0 0.931 . S
Co6 N3 2.135 . S
Co6 N9 2.121 1_455 S
Co6 O14 2.055 . S
Co6 O17 2.039 . S
Co6 N20 2.140 1_455 S
C7 O8 1.227 . S
C7 O17 1.265 . S
O8 C7 1.227 . S
N9 Co6 2.121 1_655 S
N9 C11 1.375 . S
N9 C12 1.313 . S
C10 C11 1.338 . S
C10 N13 1.377 . S
C10 H30 0.930 . S
C11 N9 1.375 . S
C11 C10 1.338 . S
C11 H15 0.931 . S
C12 N9 1.313 . S
C12 N13 1.344 . S
C12 H16 0.930 . S
N13 C10 1.377 . S
N13 C12 1.344 . S
O14 Co6 2.055 . S
O14 C18 1.253 . S
H15 C11 0.931 . S
H16 C12 0.930 . S
O17 Co6 2.039 . S
O17 C7 1.265 . S
C18 O14 1.253 . S
C18 O19 1.227 . S
O19 C18 1.227 . S
N20 Co6 2.140 1_655 S
N20 C23 1.346 . S
N20 C24 1.345 . S
C21 C22 1.387 . S
C21 C25 1.391 . S
C22 C21 1.387 . S
C22 C23 1.369 . S
C22 H31 0.929 . S
C23 N20 1.346 . S
C23 C22 1.369 . S
C23 H26 0.928 1_655 S
C24 N20 1.345 . S
C24 C25 1.371 . S
C24 H27 0.931 . S
C25 C21 1.391 . S
C25 C24 1.371 . S
C25 H32 0.930 . S
H26 C23 0.928 1_455 S
H27 C24 0.931 . S
H28 C4 0.930 . S
H29 C1 0.930 . S
H30 C10 0.930 . S
H31 C22 0.929 . S
H32 C25 0.930 . S
C33 C34 1.351 . S
C33 N36 1.368 . S
C33 H38 0.931 . S
C34 C33 1.351 . S
C34 N35 1.373 . S
C34 H62 0.930 . S
N35 C34 1.373 . S
N35 C37 1.340 . S
N36 C33 1.368 . S
N36 C37 1.321 . S
N36 Co39 2.135 . S
C37 N35 1.340 . S
C37 N36 1.321 . S
C37 H61 0.930 . S
H38 C33 0.931 . S
Co39 N36 2.135 . S
Co39 N42 2.121 1_545 S
Co39 O47 2.055 . S
Co39 O50 2.039 . S
Co39 N53 2.140 1_545 S
C40 O41 1.227 . S
C40 O50 1.265 . S
O41 C40 1.227 . S
N42 Co39 2.121 1_565 S
N42 C44 1.375 . S
N42 C45 1.313 . S
C43 C44 1.338 . S
C43 N46 1.377 . S
C43 H63 0.930 . S
C44 N42 1.375 . S
C44 C43 1.338 . S
C44 H48 0.931 . S
C45 N42 1.313 . S
C45 N46 1.344 . S
C45 H49 0.930 . S
N46 C43 1.377 . S
N46 C45 1.344 . S
O47 Co39 2.055 . S
O47 C51 1.253 . S
H48 C44 0.931 . S
H49 C45 0.930 . S
O50 Co39 2.039 . S
O50 C40 1.265 . S
C51 O47 1.253 . S
C51 O52 1.227 . S
O52 C51 1.227 . S
N53 Co39 2.140 1_565 S
N53 C56 1.346 . S
N53 C57 1.345 . S
C54 C55 1.387 . S
C54 C58 1.391 . S
C55 C54 1.387 . S
C55 C56 1.369 . S
C55 H64 0.929 . S
C56 N53 1.346 . S
C56 C55 1.369 . S
C56 H59 0.928 1_565 S
C57 N53 1.345 . S
C57 C58 1.371 . S
C57 H60 0.931 . S
C58 C54 1.391 . S
C58 C57 1.371 . S
C58 H65 0.930 . S
H59 C56 0.928 1_545 S
H60 C57 0.931 . S
H61 C37 0.930 . S
H62 C34 0.930 . S
H63 C43 0.930 . S
H64 C55 0.929 . S
H65 C58 0.930 . S
C66 C67 1.351 . S
C66 N69 1.368 . S
C66 H71 0.931 . S
C67 C66 1.351 . S
C67 N68 1.373 . S
C67 H95 0.930 . S
N68 C67 1.373 . S
N68 C70 1.340 . S
N69 C66 1.368 . S
N69 C70 1.321 . S
N69 Co72 2.135 . S
C70 N68 1.340 . S
C70 N69 1.321 . S
C70 H94 0.930 . S
H71 C66 0.931 . S
Co72 N69 2.135 . S
Co72 N75 2.121 . S
Co72 O80 2.055 . S
Co72 O83 2.039 . S
Co72 N86 2.140 . S
C73 O74 1.227 . S
C73 O83 1.265 . S
O74 C73 1.227 . S
N75 Co72 2.121 . S
N75 C77 1.375 . S
N75 C78 1.313 . S
C76 C77 1.338 . S
C76 N79 1.377 . S
C76 H96 0.930 . S
C77 N75 1.375 . S
C77 C76 1.338 . S
C77 H81 0.931 . S
C78 N75 1.313 . S
C78 N79 1.344 . S
C78 H82 0.930 . S
N79 C76 1.377 . S
N79 C78 1.344 . S
O80 Co72 2.055 . S
O80 C84 1.253 . S
H81 C77 0.931 . S
H82 C78 0.930 . S
O83 Co72 2.039 . S
O83 C73 1.265 . S
C84 O80 1.253 . S
C84 O85 1.227 . S
O85 C84 1.227 . S
N86 Co72 2.140 . S
N86 C89 1.346 . S
N86 C90 1.345 . S
C87 C88 1.387 . S
C87 C91 1.391 . S
C88 C87 1.387 . S
C88 C89 1.369 . S
C88 H97 0.929 . S
C89 N86 1.346 . S
C89 C88 1.369 . S
C89 H92 0.928 . S
C90 N86 1.345 . S
C90 C91 1.371 . S
C90 H93 0.931 . S
C91 C87 1.391 . S
C91 C90 1.371 . S
C91 H98 0.930 . S
H92 C89 0.928 . S
H93 C90 0.931 . S
H94 C70 0.930 . S
H95 C67 0.930 . S
H96 C76 0.930 . S
H97 C88 0.929 . S
H98 C91 0.930 . S
C99 C100 1.351 . S
C99 N102 1.368 . S
C99 H104 0.931 . S
C100 C99 1.351 . S
C100 N101 1.373 . S
C100 H128 0.930 . S
N101 C100 1.373 . S
N101 C103 1.340 . S
N102 C99 1.368 . S
N102 C103 1.321 . S
N102 Co105 2.135 . S
C103 N101 1.340 . S
C103 N102 1.321 . S
C103 H127 0.930 . S
H104 C99 0.931 . S
Co105 N102 2.135 . S
Co105 N108 2.121 . S
Co105 O113 2.055 . S
Co105 O116 2.039 . S
Co105 N119 2.140 . S
C106 O107 1.227 . S
C106 O116 1.265 . S
O107 C106 1.227 . S
N108 Co105 2.121 . S
N108 C110 1.375 . S
N108 C111 1.313 . S
C109 C110 1.338 . S
C109 N112 1.377 . S
C109 H129 0.930 . S
C110 N108 1.375 . S
C110 C109 1.338 . S
C110 H114 0.931 . S
C111 N108 1.313 . S
C111 N112 1.344 . S
C111 H115 0.930 . S
N112 C109 1.377 . S
N112 C111 1.344 . S
O113 Co105 2.055 . S
O113 C117 1.253 . S
H114 C110 0.931 . S
H115 C111 0.930 . S
O116 Co105 2.039 . S
O116 C106 1.265 . S
C117 O113 1.253 . S
C117 O118 1.227 . S
O118 C117 1.227 . S
N119 Co105 2.140 . S
N119 C122 1.346 . S
N119 C123 1.345 . S
C120 C121 1.387 . S
C120 C124 1.391 . S
C121 C120 1.387 . S
C121 C122 1.369 . S
C121 H130 0.929 . S
C122 N119 1.346 . S
C122 C121 1.369 . S
C122 H125 0.928 . S
C123 N119 1.345 . S
C123 C124 1.371 . S
C123 H126 0.931 . S
C124 C120 1.391 . S
C124 C123 1.371 . S
C124 H131 0.930 . S
H125 C122 0.928 . S
H126 C123 0.931 . S
H127 C103 0.930 . S
H128 C100 0.930 . S
H129 C109 0.930 . S
H130 C121 0.929 . S
H131 C124 0.930 . S
C132 C133 1.351 . S
C132 N135 1.368 . S
C132 H137 0.931 . S
C133 C132 1.351 . S
C133 N134 1.373 . S
C133 H161 0.930 . S
N134 C133 1.373 . S
N134 C136 1.340 . S
N135 C132 1.368 . S
N135 C136 1.321 . S
N135 Co138 2.135 . S
C136 N134 1.340 . S
C136 N135 1.321 . S
C136 H160 0.930 . S
H137 C132 0.931 . S
Co138 N135 2.135 . S
Co138 N141 2.121 1_455 S
Co138 O146 2.055 . S
Co138 O149 2.039 . S
Co138 N152 2.140 1_455 S
C139 O140 1.227 . S
C139 O149 1.265 . S
O140 C139 1.227 . S
N141 Co138 2.121 1_655 S
N141 C143 1.375 . S
N141 C144 1.313 . S
C142 C143 1.338 . S
C142 N145 1.377 . S
C142 H162 0.930 . S
C143 N141 1.375 . S
C143 C142 1.338 . S
C143 H147 0.931 . S
C144 N141 1.313 . S
C144 N145 1.344 . S
C144 H148 0.930 . S
N145 C142 1.377 . S
N145 C144 1.344 . S
O146 Co138 2.055 . S
O146 C150 1.253 . S
H147 C143 0.931 . S
H148 C144 0.930 . S
O149 Co138 2.039 . S
O149 C139 1.265 . S
C150 O146 1.253 . S
C150 O151 1.227 . S
O151 C150 1.227 . S
N152 Co138 2.140 1_655 S
N152 C155 1.346 . S
N152 C156 1.345 . S
C153 C154 1.387 . S
C153 C157 1.391 . S
C154 C153 1.387 . S
C154 C155 1.369 . S
C154 H163 0.929 . S
C155 N152 1.346 . S
C155 C154 1.369 . S
C155 H158 0.928 1_655 S
C156 N152 1.345 . S
C156 C157 1.371 . S
C156 H159 0.931 . S
C157 C153 1.391 . S
C157 C156 1.371 . S
C157 H164 0.930 . S
H158 C155 0.928 1_455 S
H159 C156 0.931 . S
H160 C136 0.930 . S
H161 C133 0.930 . S
H162 C142 0.930 . S
H163 C154 0.929 . S
H164 C157 0.930 . S
C165 C166 1.351 . S
C165 N168 1.368 . S
C165 H170 0.931 . S
C166 C165 1.351 . S
C166 N167 1.373 . S
C166 H194 0.930 . S
N167 C166 1.373 . S
N167 C169 1.340 . S
N168 C165 1.368 . S
N168 C169 1.321 . S
N168 Co171 2.135 . S
C169 N167 1.340 . S
C169 N168 1.321 . S
C169 H193 0.930 . S
H170 C165 0.931 . S
Co171 N168 2.135 . S
Co171 N174 2.121 1_545 S
Co171 O179 2.055 . S
Co171 O182 2.039 . S
Co171 N185 2.140 1_545 S
C172 O173 1.227 . S
C172 O182 1.265 . S
O173 C172 1.227 . S
N174 Co171 2.121 1_565 S
N174 C176 1.375 . S
N174 C177 1.313 . S
C175 C176 1.338 . S
C175 N178 1.377 . S
C175 H195 0.930 . S
C176 N174 1.375 . S
C176 C175 1.338 . S
C176 H180 0.931 . S
C177 N174 1.313 . S
C177 N178 1.344 . S
C177 H181 0.930 . S
N178 C175 1.377 . S
N178 C177 1.344 . S
O179 Co171 2.055 . S
O179 C183 1.253 . S
H180 C176 0.931 . S
H181 C177 0.930 . S
O182 Co171 2.039 . S
O182 C172 1.265 . S
C183 O179 1.253 . S
C183 O184 1.227 . S
O184 C183 1.227 . S
N185 Co171 2.140 1_565 S
N185 C188 1.346 . S
N185 C189 1.345 . S
C186 C187 1.387 . S
C186 C190 1.391 . S
C187 C186 1.387 . S
C187 C188 1.369 . S
C187 H196 0.929 . S
C188 N185 1.346 . S
C188 C187 1.369 . S
C188 H191 0.928 1_565 S
C189 N185 1.345 . S
C189 C190 1.371 . S
C189 H192 0.931 . S
C190 C186 1.391 . S
C190 C189 1.371 . S
C190 H197 0.930 . S
H191 C188 0.928 1_545 S
H192 C189 0.931 . S
H193 C169 0.930 . S
H194 C166 0.930 . S
H195 C175 0.930 . S
H196 C187 0.929 . S
H197 C190 0.930 . S
C198 C199 1.351 . S
C198 N201 1.368 . S
C198 H203 0.931 . S
C199 C198 1.351 . S
C199 N200 1.373 . S
C199 H227 0.930 . S
N200 C199 1.373 . S
N200 C202 1.340 . S
N201 C198 1.368 . S
N201 C202 1.321 . S
N201 Co204 2.135 . S
C202 N200 1.340 . S
C202 N201 1.321 . S
C202 H226 0.930 . S
H203 C198 0.931 . S
Co204 N201 2.135 . S
Co204 N207 2.121 . S
Co204 O212 2.055 . S
Co204 O215 2.039 . S
Co204 N218 2.140 . S
C205 O206 1.227 . S
C205 O215 1.265 . S
O206 C205 1.227 . S
N207 Co204 2.121 . S
N207 C209 1.375 . S
N207 C210 1.313 . S
C208 C209 1.338 . S
C208 N211 1.377 . S
C208 H228 0.930 . S
C209 N207 1.375 . S
C209 C208 1.338 . S
C209 H213 0.931 . S
C210 N207 1.313 . S
C210 N211 1.344 . S
C210 H214 0.930 . S
N211 C208 1.377 . S
N211 C210 1.344 . S
O212 Co204 2.055 . S
O212 C216 1.253 . S
H213 C209 0.931 . S
H214 C210 0.930 . S
O215 Co204 2.039 . S
O215 C205 1.265 . S
C216 O212 1.253 . S
C216 O217 1.227 . S
O217 C216 1.227 . S
N218 Co204 2.140 . S
N218 C221 1.346 . S
N218 C222 1.345 . S
C219 C220 1.387 . S
C219 C223 1.391 . S
C220 C219 1.387 . S
C220 C221 1.369 . S
C220 H229 0.929 . S
C221 N218 1.346 . S
C221 C220 1.369 . S
C221 H224 0.928 . S
C222 N218 1.345 . S
C222 C223 1.371 . S
C222 H225 0.931 . S
C223 C219 1.391 . S
C223 C222 1.371 . S
C223 H230 0.930 . S
H224 C221 0.928 . S
H225 C222 0.931 . S
H226 C202 0.930 . S
H227 C199 0.930 . S
H228 C208 0.930 . S
H229 C220 0.929 . S
H230 C223 0.930 . S
C231 C232 1.351 . S
C231 N234 1.368 . S
C231 H236 0.931 . S
C232 C231 1.351 . S
C232 N233 1.373 . S
C232 H260 0.930 . S
N233 C232 1.373 . S
N233 C235 1.340 . S
N234 C231 1.368 . S
N234 C235 1.321 . S
N234 Co237 2.135 . S
C235 N233 1.340 . S
C235 N234 1.321 . S
C235 H259 0.930 . S
H236 C231 0.931 . S
Co237 N234 2.135 . S
Co237 N240 2.121 . S
Co237 O245 2.055 . S
Co237 O248 2.039 . S
Co237 N251 2.140 . S
C238 O239 1.227 . S
C238 O248 1.265 . S
O239 C238 1.227 . S
N240 Co237 2.121 . S
N240 C242 1.375 . S
N240 C243 1.313 . S
C241 C242 1.338 . S
C241 N244 1.377 . S
C241 H261 0.930 . S
C242 N240 1.375 . S
C242 C241 1.338 . S
C242 H246 0.931 . S
C243 N240 1.313 . S
C243 N244 1.344 . S
C243 H247 0.930 . S
N244 C241 1.377 . S
N244 C243 1.344 . S
O245 Co237 2.055 . S
O245 C249 1.253 . S
H246 C242 0.931 . S
H247 C243 0.930 . S
O248 Co237 2.039 . S
O248 C238 1.265 . S
C249 O245 1.253 . S
C249 O250 1.227 . S
O250 C249 1.227 . S
N251 Co237 2.140 . S
N251 C254 1.346 . S
N251 C255 1.345 . S
C252 C253 1.387 . S
C252 C256 1.391 . S
C253 C252 1.387 . S
C253 C254 1.369 . S
C253 H262 0.929 . S
C254 N251 1.346 . S
C254 C253 1.369 . S
C254 H257 0.928 . S
C255 N251 1.345 . S
C255 C256 1.371 . S
C255 H258 0.931 . S
C256 C252 1.391 . S
C256 C255 1.371 . S
C256 H263 0.930 . S
H257 C254 0.928 . S
H258 C255 0.931 . S
H259 C235 0.930 . S
H260 C232 0.930 . S
H261 C241 0.930 . S
H262 C253 0.929 . S
H263 C256 0.930 . S
C264 C265 1.351 . S
C264 N267 1.368 . S
C264 H269 0.931 . S
C265 C264 1.351 . S
C265 N266 1.373 . S
C265 H293 0.930 . S
N266 C265 1.373 . S
N266 C268 1.340 . S
N267 C264 1.368 . S
N267 C268 1.321 . S
N267 Co270 2.135 . S
C268 N266 1.340 . S
C268 N267 1.321 . S
C268 H292 0.930 . S
H269 C264 0.931 . S
Co270 N267 2.135 . S
Co270 N273 2.121 1_655 S
Co270 O278 2.055 . S
Co270 O281 2.039 . S
Co270 N284 2.140 1_655 S
C271 O272 1.227 . S
C271 O281 1.265 . S
O272 C271 1.227 . S
N273 Co270 2.121 1_455 S
N273 C275 1.375 . S
N273 C276 1.313 . S
C274 C275 1.338 . S
C274 N277 1.377 . S
C274 H294 0.930 . S
C275 N273 1.375 . S
C275 C274 1.338 . S
C275 H279 0.931 . S
C276 N273 1.313 . S
C276 N277 1.344 . S
C276 H280 0.930 . S
N277 C274 1.377 . S
N277 C276 1.344 . S
O278 Co270 2.055 . S
O278 C282 1.253 . S
H279 C275 0.931 . S
H280 C276 0.930 . S
O281 Co270 2.039 . S
O281 C271 1.265 . S
C282 O278 1.253 . S
C282 O283 1.227 . S
O283 C282 1.227 . S
N284 Co270 2.140 1_455 S
N284 C287 1.346 . S
N284 C288 1.345 . S
C285 C286 1.387 . S
C285 C289 1.391 . S
C286 C285 1.387 . S
C286 C287 1.369 . S
C286 H295 0.929 . S
C287 N284 1.346 . S
C287 C286 1.369 . S
C287 H290 0.928 1_455 S
C288 N284 1.345 . S
C288 C289 1.371 . S
C288 H291 0.931 . S
C289 C285 1.391 . S
C289 C288 1.371 . S
C289 H296 0.930 . S
H290 C287 0.928 1_655 S
H291 C288 0.931 . S
H292 C268 0.930 . S
H293 C265 0.930 . S
H294 C274 0.930 . S
H295 C286 0.929 . S
H296 C289 0.930 . S
C297 C298 1.351 . S
C297 N300 1.368 . S
C297 H302 0.931 . S
C298 C297 1.351 . S
C298 N299 1.373 . S
C298 H326 0.930 . S
N299 C298 1.373 . S
N299 C301 1.340 . S
N300 C297 1.368 . S
N300 C301 1.321 . S
N300 Co303 2.135 . S
C301 N299 1.340 . S
C301 N300 1.321 . S
C301 H325 0.930 . S
H302 C297 0.931 . S
Co303 N300 2.135 . S
Co303 N306 2.121 1_565 S
Co303 O311 2.055 . S
Co303 O314 2.039 . S
Co303 N317 2.140 1_565 S
C304 O305 1.227 . S
C304 O314 1.265 . S
O305 C304 1.227 . S
N306 Co303 2.121 1_545 S
N306 C308 1.375 . S
N306 C309 1.313 . S
C307 C308 1.338 . S
C307 N310 1.377 . S
C307 H327 0.930 . S
C308 N306 1.375 . S
C308 C307 1.338 . S
C308 H312 0.931 . S
C309 N306 1.313 . S
C309 N310 1.344 . S
C309 H313 0.930 . S
N310 C307 1.377 . S
N310 C309 1.344 . S
O311 Co303 2.055 . S
O311 C315 1.253 . S
H312 C308 0.931 . S
H313 C309 0.930 . S
O314 Co303 2.039 . S
O314 C304 1.265 . S
C315 O311 1.253 . S
C315 O316 1.227 . S
O316 C315 1.227 . S
N317 Co303 2.140 1_545 S
N317 C320 1.346 . S
N317 C321 1.345 . S
C318 C319 1.387 . S
C318 C322 1.391 . S
C319 C318 1.387 . S
C319 C320 1.369 . S
C319 H328 0.929 . S
C320 N317 1.346 . S
C320 C319 1.369 . S
C320 H323 0.928 1_545 S
C321 N317 1.345 . S
C321 C322 1.371 . S
C321 H324 0.931 . S
C322 C318 1.391 . S
C322 C321 1.371 . S
C322 H329 0.930 . S
H323 C320 0.928 1_565 S
H324 C321 0.931 . S
H325 C301 0.930 . S
H326 C298 0.930 . S
H327 C307 0.930 . S
H328 C319 0.929 . S
H329 C322 0.930 . S
C330 C331 1.351 . S
C330 N333 1.368 . S
C330 H335 0.931 . S
C331 C330 1.351 . S
C331 N332 1.373 . S
C331 H359 0.930 . S
N332 C331 1.373 . S
N332 C334 1.340 . S
N333 C330 1.368 . S
N333 C334 1.321 . S
N333 Co336 2.135 . S
C334 N332 1.340 . S
C334 N333 1.321 . S
C334 H358 0.930 . S
H335 C330 0.931 . S
Co336 N333 2.135 . S
Co336 N339 2.121 . S
Co336 O344 2.055 . S
Co336 O347 2.039 . S
Co336 N350 2.140 . S
C337 O338 1.227 . S
C337 O347 1.265 . S
O338 C337 1.227 . S
N339 Co336 2.121 . S
N339 C341 1.375 . S
N339 C342 1.313 . S
C340 C341 1.338 . S
C340 N343 1.377 . S
C340 H360 0.930 . S
C341 N339 1.375 . S
C341 C340 1.338 . S
C341 H345 0.931 . S
C342 N339 1.313 . S
C342 N343 1.344 . S
C342 H346 0.930 . S
N343 C340 1.377 . S
N343 C342 1.344 . S
O344 Co336 2.055 . S
O344 C348 1.253 . S
H345 C341 0.931 . S
H346 C342 0.930 . S
O347 Co336 2.039 . S
O347 C337 1.265 . S
C348 O344 1.253 . S
C348 O349 1.227 . S
O349 C348 1.227 . S
N350 Co336 2.140 . S
N350 C353 1.346 . S
N350 C354 1.345 . S
C351 C352 1.387 . S
C351 C355 1.391 . S
C352 C351 1.387 . S
C352 C353 1.369 . S
C352 H361 0.929 . S
C353 N350 1.346 . S
C353 C352 1.369 . S
C353 H356 0.928 . S
C354 N350 1.345 . S
C354 C355 1.371 . S
C354 H357 0.931 . S
C355 C351 1.391 . S
C355 C354 1.371 . S
C355 H362 0.930 . S
H356 C353 0.928 . S
H357 C354 0.931 . S
H358 C334 0.930 . S
H359 C331 0.930 . S
H360 C340 0.930 . S
H361 C352 0.929 . S
H362 C355 0.930 . S
C363 C364 1.351 . S
C363 N366 1.368 . S
C363 H368 0.931 . S
C364 C363 1.351 . S
C364 N365 1.373 . S
C364 H392 0.930 . S
N365 C364 1.373 . S
N365 C367 1.340 . S
N366 C363 1.368 . S
N366 C367 1.321 . S
N366 Co369 2.135 . S
C367 N365 1.340 . S
C367 N366 1.321 . S
C367 H391 0.930 . S
H368 C363 0.931 . S
Co369 N366 2.135 . S
Co369 N372 2.121 . S
Co369 O377 2.055 . S
Co369 O380 2.039 . S
Co369 N383 2.140 . S
C370 O371 1.227 . S
C370 O380 1.265 . S
O371 C370 1.227 . S
N372 Co369 2.121 . S
N372 C374 1.375 . S
N372 C375 1.313 . S
C373 C374 1.338 . S
C373 N376 1.377 . S
C373 H393 0.930 . S
C374 N372 1.375 . S
C374 C373 1.338 . S
C374 H378 0.931 . S
C375 N372 1.313 . S
C375 N376 1.344 . S
C375 H379 0.930 . S
N376 C373 1.377 . S
N376 C375 1.344 . S
O377 Co369 2.055 . S
O377 C381 1.253 . S
H378 C374 0.931 . S
H379 C375 0.930 . S
O380 Co369 2.039 . S
O380 C370 1.265 . S
C381 O377 1.253 . S
C381 O382 1.227 . S
O382 C381 1.227 . S
N383 Co369 2.140 . S
N383 C386 1.346 . S
N383 C387 1.345 . S
C384 C385 1.387 . S
C384 C388 1.391 . S
C385 C384 1.387 . S
C385 C386 1.369 . S
C385 H394 0.929 . S
C386 N383 1.346 . S
C386 C385 1.369 . S
C386 H389 0.928 . S
C387 N383 1.345 . S
C387 C388 1.371 . S
C387 H390 0.931 . S
C388 C384 1.391 . S
C388 C387 1.371 . S
C388 H395 0.930 . S
H389 C386 0.928 . S
H390 C387 0.931 . S
H391 C367 0.930 . S
H392 C364 0.930 . S
H393 C373 0.930 . S
H394 C385 0.929 . S
H395 C388 0.930 . S
C396 C397 1.351 . S
C396 N399 1.368 . S
C396 H401 0.931 . S
C397 C396 1.351 . S
C397 N398 1.373 . S
C397 H425 0.930 . S
N398 C397 1.373 . S
N398 C400 1.340 . S
N399 C396 1.368 . S
N399 C400 1.321 . S
N399 Co402 2.135 . S
C400 N398 1.340 . S
C400 N399 1.321 . S
C400 H424 0.930 . S
H401 C396 0.931 . S
Co402 N399 2.135 . S
Co402 N405 2.121 1_655 S
Co402 O410 2.055 . S
Co402 O413 2.039 . S
Co402 N416 2.140 1_655 S
C403 O404 1.227 . S
C403 O413 1.265 . S
O404 C403 1.227 . S
N405 Co402 2.121 1_455 S
N405 C407 1.375 . S
N405 C408 1.313 . S
C406 C407 1.338 . S
C406 N409 1.377 . S
C406 H426 0.930 . S
C407 N405 1.375 . S
C407 C406 1.338 . S
C407 H411 0.931 . S
C408 N405 1.313 . S
C408 N409 1.344 . S
C408 H412 0.930 . S
N409 C406 1.377 . S
N409 C408 1.344 . S
O410 Co402 2.055 . S
O410 C414 1.253 . S
H411 C407 0.931 . S
H412 C408 0.930 . S
O413 Co402 2.039 . S
O413 C403 1.265 . S
C414 O410 1.253 . S
C414 O415 1.227 . S
O415 C414 1.227 . S
N416 Co402 2.140 1_455 S
N416 C419 1.346 . S
N416 C420 1.345 . S
C417 C418 1.387 . S
C417 C421 1.391 . S
C418 C417 1.387 . S
C418 C419 1.369 . S
C418 H427 0.929 . S
C419 N416 1.346 . S
C419 C418 1.369 . S
C419 H422 0.928 1_455 S
C420 N416 1.345 . S
C420 C421 1.371 . S
C420 H423 0.931 . S
C421 C417 1.391 . S
C421 C420 1.371 . S
C421 H428 0.930 . S
H422 C419 0.928 1_655 S
H423 C420 0.931 . S
H424 C400 0.930 . S
H425 C397 0.930 . S
H426 C406 0.930 . S
H427 C418 0.929 . S
H428 C421 0.930 . S
C429 C430 1.351 . S
C429 N432 1.368 . S
C429 H434 0.931 . S
C430 C429 1.351 . S
C430 N431 1.373 . S
C430 H458 0.930 . S
N431 C430 1.373 . S
N431 C433 1.340 . S
N432 C429 1.368 . S
N432 C433 1.321 . S
N432 Co435 2.135 . S
C433 N431 1.340 . S
C433 N432 1.321 . S
C433 H457 0.930 . S
H434 C429 0.931 . S
Co435 N432 2.135 . S
Co435 N438 2.121 1_565 S
Co435 O443 2.055 . S
Co435 O446 2.039 . S
Co435 N449 2.140 1_565 S
C436 O437 1.227 . S
C436 O446 1.265 . S
O437 C436 1.227 . S
N438 Co435 2.121 1_545 S
N438 C440 1.375 . S
N438 C441 1.313 . S
C439 C440 1.338 . S
C439 N442 1.377 . S
C439 H459 0.930 . S
C440 N438 1.375 . S
C440 C439 1.338 . S
C440 H444 0.931 . S
C441 N438 1.313 . S
C441 N442 1.344 . S
C441 H445 0.930 . S
N442 C439 1.377 . S
N442 C441 1.344 . S
O443 Co435 2.055 . S
O443 C447 1.253 . S
H444 C440 0.931 . S
H445 C441 0.930 . S
O446 Co435 2.039 . S
O446 C436 1.265 . S
C447 O443 1.253 . S
C447 O448 1.227 . S
O448 C447 1.227 . S
N449 Co435 2.140 1_545 S
N449 C452 1.346 . S
N449 C453 1.345 . S
C450 C451 1.387 . S
C450 C454 1.391 . S
C451 C450 1.387 . S
C451 C452 1.369 . S
C451 H460 0.929 . S
C452 N449 1.346 . S
C452 C451 1.369 . S
C452 H455 0.928 1_545 S
C453 N449 1.345 . S
C453 C454 1.371 . S
C453 H456 0.931 . S
C454 C450 1.391 . S
C454 C453 1.371 . S
C454 H461 0.930 . S
H455 C452 0.928 1_565 S
H456 C453 0.931 . S
H457 C433 0.930 . S
H458 C430 0.930 . S
H459 C439 0.930 . S
H460 C451 0.929 . S
H461 C454 0.930 . S
C462 C463 1.351 . S
C462 N465 1.368 . S
C462 H467 0.931 . S
C463 C462 1.351 . S
C463 N464 1.373 . S
C463 H491 0.930 . S
N464 C463 1.373 . S
N464 C466 1.340 . S
N465 C462 1.368 . S
N465 C466 1.321 . S
N465 Co468 2.135 . S
C466 N464 1.340 . S
C466 N465 1.321 . S
C466 H490 0.930 . S
H467 C462 0.931 . S
Co468 N465 2.135 . S
Co468 N471 2.121 . S
Co468 O476 2.055 . S
Co468 O479 2.039 . S
Co468 N482 2.140 . S
C469 O470 1.227 . S
C469 O479 1.265 . S
O470 C469 1.227 . S
N471 Co468 2.121 . S
N471 C473 1.375 . S
N471 C474 1.313 . S
C472 C473 1.338 . S
C472 N475 1.377 . S
C472 H492 0.930 . S
C473 N471 1.375 . S
C473 C472 1.338 . S
C473 H477 0.931 . S
C474 N471 1.313 . S
C474 N475 1.344 . S
C474 H478 0.930 . S
N475 C472 1.377 . S
N475 C474 1.344 . S
O476 Co468 2.055 . S
O476 C480 1.253 . S
H477 C473 0.931 . S
H478 C474 0.930 . S
O479 Co468 2.039 . S
O479 C469 1.265 . S
C480 O476 1.253 . S
C480 O481 1.227 . S
O481 C480 1.227 . S
N482 Co468 2.140 . S
N482 C485 1.346 . S
N482 C486 1.345 . S
C483 C484 1.387 . S
C483 C487 1.391 . S
C484 C483 1.387 . S
C484 C485 1.369 . S
C484 H493 0.929 . S
C485 N482 1.346 . S
C485 C484 1.369 . S
C485 H488 0.928 . S
C486 N482 1.345 . S
C486 C487 1.371 . S
C486 H489 0.931 . S
C487 C483 1.391 . S
C487 C486 1.371 . S
C487 H494 0.930 . S
H488 C485 0.928 . S
H489 C486 0.931 . S
H490 C466 0.930 . S
H491 C463 0.930 . S
H492 C472 0.930 . S
H493 C484 0.929 . S
H494 C487 0.930 . S
C495 C496 1.351 . S
C495 N498 1.368 . S
C495 H500 0.931 . S
C496 C495 1.351 . S
C496 N497 1.373 . S
C496 H524 0.930 . S
N497 C496 1.373 . S
N497 C499 1.340 . S
N498 C495 1.368 . S
N498 C499 1.321 . S
N498 Co501 2.135 . S
C499 N497 1.340 . S
C499 N498 1.321 . S
C499 H523 0.930 . S
H500 C495 0.931 . S
Co501 N498 2.135 . S
Co501 N504 2.121 . S
Co501 O509 2.055 . S
Co501 O512 2.039 . S
Co501 N515 2.140 . S
C502 O503 1.227 . S
C502 O512 1.265 . S
O503 C502 1.227 . S
N504 Co501 2.121 . S
N504 C506 1.375 . S
N504 C507 1.313 . S
C505 C506 1.338 . S
C505 N508 1.377 . S
C505 H525 0.930 . S
C506 N504 1.375 . S
C506 C505 1.338 . S
C506 H510 0.931 . S
C507 N504 1.313 . S
C507 N508 1.344 . S
C507 H511 0.930 . S
N508 C505 1.377 . S
N508 C507 1.344 . S
O509 Co501 2.055 . S
O509 C513 1.253 . S
H510 C506 0.931 . S
H511 C507 0.930 . S
O512 Co501 2.039 . S
O512 C502 1.265 . S
C513 O509 1.253 . S
C513 O514 1.227 . S
O514 C513 1.227 . S
N515 Co501 2.140 . S
N515 C518 1.346 . S
N515 C519 1.345 . S
C516 C517 1.387 . S
C516 C520 1.391 . S
C517 C516 1.387 . S
C517 C518 1.369 . S
C517 H526 0.929 . S
C518 N515 1.346 . S
C518 C517 1.369 . S
C518 H521 0.928 . S
C519 N515 1.345 . S
C519 C520 1.371 . S
C519 H522 0.931 . S
C520 C516 1.391 . S
C520 C519 1.371 . S
C520 H527 0.930 . S
H521 C518 0.928 . S
H522 C519 0.931 . S
H523 C499 0.930 . S
H524 C496 0.930 . S
H525 C505 0.930 . S
H526 C517 0.929 . S
H527 C520 0.930 . S
C528 C529 1.369 . S
C528 C530 1.419 . S
C528 H532 0.930 . S
C529 C528 1.369 . S
C529 C538 1.429 . S
C530 C528 1.419 . S
C530 C531 1.363 . S
C530 H533 0.929 . S
C531 C530 1.363 . S
C531 C537 1.428 . S
H532 C528 0.930 . S
H533 C530 0.929 . S
S534 N535 1.613 . S
S534 N536 1.610 1_655 S
N535 S534 1.613 . S
N535 C538 1.350 1_655 S
N536 S534 1.610 1_455 S
N536 C537 1.351 . S
C537 C531 1.428 . S
C537 N536 1.351 . S
C537 C538 1.434 . S
C538 C529 1.429 . S
C538 N535 1.350 1_455 S
C538 C537 1.434 . S
C539 C540 1.369 . S
C539 C541 1.419 . S
C539 H543 0.930 . S
C540 C539 1.369 . S
C540 C549 1.429 . S
C541 C539 1.419 . S
C541 C542 1.363 . S
C541 H544 0.929 . S
C542 C541 1.363 . S
C542 C548 1.428 . S
H543 C539 0.930 . S
H544 C541 0.929 . S
S545 N546 1.613 . S
S545 N547 1.610 1_565 S
N546 S545 1.613 . S
N546 C549 1.350 1_565 S
N547 S545 1.610 1_545 S
N547 C548 1.351 . S
C548 C542 1.428 . S
C548 N547 1.351 . S
C548 C549 1.434 . S
C549 C540 1.429 . S
C549 N546 1.350 1_545 S
C549 C548 1.434 . S
C550 C551 1.369 . S
C550 C552 1.419 . S
C550 H554 0.930 . S
C551 C550 1.369 . S
C551 C560 1.429 . S
C552 C550 1.419 . S
C552 C553 1.363 . S
C552 H555 0.929 . S
C553 C552 1.363 . S
C553 C559 1.428 . S
H554 C550 0.930 . S
H555 C552 0.929 . S
S556 N557 1.613 . S
S556 N558 1.610 . S
N557 S556 1.613 . S
N557 C560 1.350 . S
N558 S556 1.610 . S
N558 C559 1.351 . S
C559 C553 1.428 . S
C559 N558 1.351 . S
C559 C560 1.434 . S
C560 C551 1.429 . S
C560 N557 1.350 . S
C560 C559 1.434 . S
C561 C562 1.369 . S
C561 C563 1.419 . S
C561 H565 0.930 . S
C562 C561 1.369 . S
C562 C571 1.429 . S
C563 C561 1.419 . S
C563 C564 1.363 . S
C563 H566 0.929 . S
C564 C563 1.363 . S
C564 C570 1.428 . S
H565 C561 0.930 . S
H566 C563 0.929 . S
S567 N568 1.613 . S
S567 N569 1.610 . S
N568 S567 1.613 . S
N568 C571 1.350 . S
N569 S567 1.610 . S
N569 C570 1.351 . S
C570 C564 1.428 . S
C570 N569 1.351 . S
C570 C571 1.434 . S
C571 C562 1.429 . S
C571 N568 1.350 . S
C571 C570 1.434 . S
C572 C573 1.369 . S
C572 C574 1.419 . S
C572 H576 0.930 . S
C573 C572 1.369 . S
C573 C582 1.429 . S
C574 C572 1.419 . S
C574 C575 1.363 . S
C574 H577 0.931 . S
C575 C574 1.363 . S
C575 C581 1.428 . S
H576 C572 0.930 . S
H577 C574 0.931 . S
S578 N579 1.613 . S
S578 N580 1.610 1_455 S
N579 S578 1.613 . S
N579 C582 1.350 1_455 S
N580 S578 1.610 1_655 S
N580 C581 1.351 . S
C581 C575 1.428 . S
C581 N580 1.351 . S
C581 C582 1.434 . S
C582 C573 1.429 . S
C582 N579 1.350 1_655 S
C582 C581 1.434 . S
C583 C584 1.369 . S
C583 C585 1.419 . S
C583 H587 0.930 . S
C584 C583 1.369 . S
C584 C593 1.429 . S
C585 C583 1.419 . S
C585 C586 1.363 . S
C585 H588 0.929 . S
C586 C585 1.363 . S
C586 C592 1.428 . S
H587 C583 0.930 . S
H588 C585 0.929 . S
S589 N590 1.613 . S
S589 N591 1.610 . S
N590 S589 1.613 . S
N590 C593 1.350 . S
N591 S589 1.610 . S
N591 C592 1.351 . S
C592 C586 1.428 . S
C592 N591 1.351 . S
C592 C593 1.434 . S
C593 C584 1.429 . S
C593 N590 1.350 . S
C593 C592 1.434 . S
C594 C595 1.369 . S
C594 C596 1.419 . S
C594 H598 0.930 . S
C595 C594 1.369 . S
C595 C604 1.429 . S
C596 C594 1.419 . S
C596 C597 1.363 . S
C596 H599 0.929 . S
C597 C596 1.363 . S
C597 C603 1.428 . S
H598 C594 0.930 . S
H599 C596 0.929 . S
S600 N601 1.613 . S
S600 N602 1.610 . S
N601 S600 1.613 . S
N601 C604 1.350 . S
N602 S600 1.610 . S
N602 C603 1.351 . S
C603 C597 1.428 . S
C603 N602 1.351 . S
C603 C604 1.434 . S
C604 C595 1.429 . S
C604 N601 1.350 . S
C604 C603 1.434 . S
C605 C606 1.369 . S
C605 C607 1.419 . S
C605 H609 0.930 . S
C606 C605 1.369 . S
C606 C615 1.429 . S
C607 C605 1.419 . S
C607 C608 1.363 . S
C607 H610 0.929 . S
C608 C607 1.363 . S
C608 C614 1.428 . S
H609 C605 0.930 . S
H610 C607 0.929 . S
S611 N612 1.613 . S
S611 N613 1.610 . S
N612 S611 1.613 . S
N612 C615 1.350 . S
N613 S611 1.610 . S
N613 C614 1.351 . S
C614 C608 1.428 . S
C614 N613 1.351 . S
C614 C615 1.434 . S
C615 C606 1.429 . S
C615 N612 1.350 . S
C615 C614 1.434 . S
C616 C617 1.369 . S
C616 C618 1.419 1_455 S
C616 H620 0.930 . S
C617 C616 1.369 . S
C617 C626 1.429 1_565 S
C618 C616 1.419 1_655 S
C618 C619 1.363 1_565 S
C618 H621 0.929 . S
C619 C618 1.363 1_545 S
C619 C625 1.428 . S
H620 C616 0.930 . S
H621 C618 0.929 . S
S622 N623 1.613 . S
S622 N624 1.610 1_455 S
N623 S622 1.613 . S
N623 C626 1.350 . S
N624 S622 1.610 1_655 S
N624 C625 1.351 . S
C625 C619 1.428 . S
C625 N624 1.351 . S
C625 C626 1.434 1_655 S
C626 C617 1.429 1_545 S
C626 N623 1.350 . S
C626 C625 1.434 1_455 S
C627 C628 1.369 . S
C627 C629 1.419 1_545 S
C627 H631 0.930 . S
C628 C627 1.369 . S
C628 C637 1.429 . S
C629 C627 1.419 1_565 S
C629 C630 1.363 . S
C629 H632 0.929 . S
C630 C629 1.363 . S
C630 C636 1.428 . S
H631 C627 0.930 . S
H632 C629 0.929 . S
S633 N634 1.613 . S
S633 N635 1.610 1_545 S
N634 S633 1.613 . S
N634 C637 1.350 . S
N635 S633 1.610 1_565 S
N635 C636 1.351 . S
C636 C630 1.428 . S
C636 N635 1.351 . S
C636 C637 1.434 1_565 S
C637 C628 1.429 . S
C637 N634 1.350 . S
C637 C636 1.434 1_545 S
C638 C639 1.369 . S
C638 C640 1.419 . S
C638 H642 0.930 . S
C639 C638 1.369 . S
C639 C648 1.429 . S
C640 C638 1.419 . S
C640 C641 1.363 . S
C640 H643 0.929 . S
C641 C640 1.363 . S
C641 C647 1.428 . S
H642 C638 0.930 . S
H643 C640 0.929 . S
S644 N645 1.613 . S
S644 N646 1.610 . S
N645 S644 1.613 . S
N645 C648 1.350 . S
N646 S644 1.610 . S
N646 C647 1.351 . S
C647 C641 1.428 . S
C647 N646 1.351 . S
C647 C648 1.434 . S
C648 C639 1.429 . S
C648 N645 1.350 . S
C648 C647 1.434 . S
C649 C650 1.369 . S
C649 C651 1.419 . S
C649 H653 0.930 . S
C650 C649 1.369 . S
C650 C659 1.429 1_655 S
C651 C649 1.419 . S
C651 C652 1.363 1_655 S
C651 H654 0.929 . S
C652 C651 1.363 1_455 S
C652 C658 1.428 . S
H653 C649 0.930 . S
H654 C651 0.929 . S
S655 N656 1.613 . S
S655 N657 1.610 . S
N656 S655 1.613 . S
N656 C659 1.350 . S
N657 S655 1.610 . S
N657 C658 1.351 . S
C658 C652 1.428 . S
C658 N657 1.351 . S
C658 C659 1.434 . S
C659 C650 1.429 1_455 S
C659 N656 1.350 . S
C659 C658 1.434 . S
C660 C661 1.369 1_554 S
C660 C662 1.419 . S
C660 H664 0.930 . S
C661 C660 1.369 1_556 S
C661 C670 1.429 1_655 S
C662 C660 1.419 . S
C662 C663 1.363 1_655 S
C662 H665 0.929 . S
C663 C662 1.363 1_455 S
C663 C669 1.428 1_554 S
H664 C660 0.930 . S
H665 C662 0.929 . S
S666 N667 1.613 . S
S666 N668 1.610 . S
N667 S666 1.613 . S
N667 C670 1.350 . S
N668 S666 1.610 . S
N668 C669 1.351 . S
C669 C663 1.428 1_556 S
C669 N668 1.351 . S
C669 C670 1.434 . S
C670 C661 1.429 1_455 S
C670 N667 1.350 . S
C670 C669 1.434 . S
C671 C672 1.369 1_655 S
C671 C673 1.433 . S
C671 H675 0.930 . S
C672 C671 1.369 1_455 S
C672 C681 1.429 1_566 S
C673 C671 1.433 . S
C673 C674 1.347 1_566 S
C673 H676 0.931 . S
C674 C673 1.347 1_544 S
C674 C680 1.428 1_655 S
H675 C671 0.930 . S
H676 C673 0.931 . S
S677 N678 1.613 . S
S677 N679 1.610 . S
N678 S677 1.613 . S
N678 C681 1.350 . S
N679 S677 1.610 . S
N679 C680 1.351 . S
C680 C674 1.428 1_455 S
C680 N679 1.351 . S
C680 C681 1.434 . S
C681 C672 1.429 1_544 S
C681 N678 1.350 . S
C681 C680 1.434 . S
C682 C683 1.369 . S
C682 C684 1.419 1_556 S
C682 H686 0.931 . S
C683 C682 1.369 . S
C683 C692 1.429 1_545 S
C684 C682 1.419 1_554 S
C684 C685 1.363 1_545 S
C684 H687 0.929 . S
C685 C684 1.363 1_565 S
C685 C691 1.429 1_554 S
H686 C682 0.931 . S
H687 C684 0.929 . S
S688 N689 1.613 . S
S688 N690 1.610 . S
N689 S688 1.613 . S
N689 C692 1.350 . S
N690 S688 1.610 . S
N690 C691 1.351 . S
C691 C685 1.429 1_556 S
C691 N690 1.351 . S
C691 C692 1.433 . S
C692 C683 1.429 1_565 S
C692 N689 1.350 . S
C692 C691 1.433 . S
C693 C694 1.369 1_554 S
C693 C695 1.419 . S
C693 H697 0.930 . S
C694 C693 1.369 1_556 S
C694 C703 1.429 . S
C695 C693 1.419 . S
C695 C696 1.363 . S
C695 H698 0.929 . S
C696 C695 1.363 . S
C696 C702 1.428 1_554 S
H697 C693 0.930 . S
H698 C695 0.929 . S
S699 N700 1.613 . S
S699 N701 1.610 . S
N700 S699 1.613 . S
N700 C703 1.350 . S
N701 S699 1.610 . S
N701 C702 1.351 . S
C702 C696 1.428 1_556 S
C702 N701 1.351 . S
C702 C703 1.434 . S
C703 C694 1.429 . S
C703 N700 1.350 . S
C703 C702 1.434 . S
C704 C705 1.369 . S
C704 C706 1.419 . S
C704 H708 0.930 . S
C705 C704 1.369 . S
C705 C714 1.429 . S
C706 C704 1.419 . S
C706 C707 1.363 . S
C706 H709 0.929 . S
C707 C706 1.363 . S
C707 C713 1.428 . S
H708 C704 0.930 . S
H709 C706 0.929 . S
S710 N711 1.613 . S
S710 N712 1.610 . S
N711 S710 1.613 . S
N711 C714 1.350 . S
N712 S710 1.610 . S
N712 C713 1.351 . S
C713 C707 1.428 . S
C713 N712 1.351 . S
C713 C714 1.434 . S
C714 C705 1.429 . S
C714 N711 1.350 . S
C714 C713 1.434 . S
C715 C716 1.369 . S
C715 C717 1.419 . S
C715 H719 0.930 . S
C716 C715 1.369 . S
C716 C725 1.429 . S
C717 C715 1.419 . S
C717 C718 1.363 . S
C717 H720 0.929 . S
C718 C717 1.363 . S
C718 C724 1.428 . S
H719 C715 0.930 . S
H720 C717 0.929 . S
S721 N722 1.613 . S
S721 N723 1.610 . S
N722 S721 1.613 . S
N722 C725 1.350 . S
N723 S721 1.610 . S
N723 C724 1.351 . S
C724 C718 1.428 . S
C724 N723 1.351 . S
C724 C725 1.434 . S
C725 C716 1.429 . S
C725 N722 1.350 . S
C725 C724 1.434 . S
C726 C727 1.369 . S
C726 C728 1.419 . S
C726 H730 0.930 . S
C727 C726 1.369 . S
C727 C736 1.429 . S
C728 C726 1.419 . S
C728 C729 1.363 . S
C728 H731 0.929 . S
C729 C728 1.363 . S
C729 C735 1.428 . S
H730 C726 0.930 . S
H731 C728 0.929 . S
S732 N733 1.613 . S
S732 N734 1.610 . S
N733 S732 1.613 . S
N733 C736 1.350 . S
N734 S732 1.610 . S
N734 C735 1.351 . S
C735 C729 1.428 . S
C735 N734 1.351 . S
C735 C736 1.434 . S
C736 C727 1.429 . S
C736 N733 1.350 . S
C736 C735 1.434 . S
C737 C738 1.369 . S
C737 C739 1.419 . S
C737 H741 0.930 . S
C738 C737 1.369 . S
C738 C747 1.429 . S
C739 C737 1.419 . S
C739 C740 1.363 . S
C739 H742 0.929 . S
C740 C739 1.363 . S
C740 C746 1.428 . S
H741 C737 0.930 . S
H742 C739 0.929 . S
S743 N744 1.613 . S
S743 N745 1.610 . S
N744 S743 1.613 . S
N744 C747 1.350 . S
N745 S743 1.610 . S
N745 C746 1.351 . S
C746 C740 1.428 . S
C746 N745 1.351 . S
C746 C747 1.434 . S
C747 C738 1.429 . S
C747 N744 1.350 . S
C747 C746 1.434 . S
C748 C749 1.369 . S
C748 C750 1.419 . S
C748 H752 0.930 . S
C749 C748 1.369 . S
C749 C758 1.429 . S
C750 C748 1.419 . S
C750 C751 1.363 . S
C750 H753 0.929 . S
C751 C750 1.363 . S
C751 C757 1.428 . S
H752 C748 0.930 . S
H753 C750 0.929 . S
S754 N755 1.613 . S
S754 N756 1.610 . S
N755 S754 1.613 . S
N755 C758 1.350 . S
N756 S754 1.610 . S
N756 C757 1.351 . S
C757 C751 1.428 . S
C757 N756 1.351 . S
C757 C758 1.434 . S
C758 C749 1.429 . S
C758 N755 1.350 . S
C758 C757 1.434 . S
C759 C760 1.369 . S
C759 C761 1.419 . S
C759 H763 0.930 . S
C760 C759 1.369 . S
C760 C769 1.429 . S
C761 C759 1.419 . S
C761 C762 1.363 . S
C761 H764 0.929 . S
C762 C761 1.363 . S
C762 C768 1.428 . S
H763 C759 0.930 . S
H764 C761 0.929 . S
S765 N766 1.613 . S
S765 N767 1.610 . S
N766 S765 1.613 . S
N766 C769 1.350 . S
N767 S765 1.610 . S
N767 C768 1.351 . S
C768 C762 1.428 . S
C768 N767 1.351 . S
C768 C769 1.434 . S
C769 C760 1.429 . S
C769 N766 1.350 . S
C769 C768 1.434 . S
C770 C771 1.369 . S
C770 C772 1.419 . S
C770 H774 0.930 . S
C771 C770 1.369 . S
C771 C780 1.429 . S
C772 C770 1.419 . S
C772 C773 1.363 . S
C772 H775 0.929 . S
C773 C772 1.363 . S
C773 C779 1.428 . S
H774 C770 0.930 . S
H775 C772 0.929 . S
S776 N777 1.613 . S
S776 N778 1.610 . S
N777 S776 1.613 . S
N777 C780 1.350 . S
N778 S776 1.610 . S
N778 C779 1.351 . S
C779 C773 1.428 . S
C779 N778 1.351 . S
C779 C780 1.434 . S
C780 C771 1.429 . S
C780 N777 1.350 . S
C780 C779 1.434 . S
C781 C782 1.369 . S
C781 C783 1.419 . S
C781 H785 0.930 . S
C782 C781 1.369 . S
C782 C791 1.429 . S
C783 C781 1.419 . S
C783 C784 1.363 . S
C783 H786 0.929 . S
C784 C783 1.363 . S
C784 C790 1.428 . S
H785 C781 0.930 . S
H786 C783 0.929 . S
S787 N788 1.613 . S
S787 N789 1.610 . S
N788 S787 1.613 . S
N788 C791 1.350 . S
N789 S787 1.610 . S
N789 C790 1.351 . S
C790 C784 1.428 . S
C790 N789 1.351 . S
C790 C791 1.434 . S
C791 C782 1.429 . S
C791 N788 1.350 . S
C791 C790 1.434 . S
C792 C793 1.369 . S
C792 C794 1.419 . S
C792 H796 0.930 . S
C793 C792 1.369 . S
C793 C802 1.429 . S
C794 C792 1.419 . S
C794 C795 1.363 . S
C794 H797 0.929 . S
C795 C794 1.363 . S
C795 C801 1.428 . S
H796 C792 0.930 . S
H797 C794 0.929 . S
S798 N799 1.613 1_565 S
S798 N800 1.610 1_565 S
N799 S798 1.613 1_545 S
N799 C802 1.350 . S
N800 S798 1.610 1_545 S
N800 C801 1.351 . S
C801 C795 1.428 . S
C801 N800 1.351 . S
C801 C802 1.434 . S
C802 C793 1.429 . S
C802 N799 1.350 . S
C802 C801 1.434 . S
C803 C804 1.369 . S
C803 C805 1.419 . S
C803 H807 0.930 . S
C804 C803 1.369 . S
C804 C813 1.429 . S
C805 C803 1.419 . S
C805 C806 1.363 . S
C805 H808 0.929 . S
C806 C805 1.363 . S
C806 C812 1.428 . S
H807 C803 0.930 . S
H808 C805 0.929 . S
S809 N810 1.613 . S
S809 N811 1.610 . S
N810 S809 1.613 . S
N810 C813 1.350 . S
N811 S809 1.610 . S
N811 C812 1.351 . S
C812 C806 1.428 . S
C812 N811 1.351 . S
C812 C813 1.434 . S
C813 C804 1.429 . S
C813 N810 1.350 . S
C813 C812 1.434 . S
C814 C815 1.369 . S
C814 C816 1.419 . S
C814 H818 0.930 . S
C815 C814 1.369 . S
C815 C824 1.429 . S
C816 C814 1.419 . S
C816 C817 1.363 . S
C816 H819 0.929 . S
C817 C816 1.363 . S
C817 C823 1.428 . S
H818 C814 0.930 . S
H819 C816 0.929 . S
S820 N821 1.613 . S
S820 N822 1.610 . S
N821 S820 1.613 . S
N821 C824 1.350 . S
N822 S820 1.610 . S
N822 C823 1.351 . S
C823 C817 1.428 . S
C823 N822 1.351 . S
C823 C824 1.434 . S
C824 C815 1.429 . S
C824 N821 1.350 . S
C824 C823 1.434 . S
C825 C826 1.369 . S
C825 C827 1.419 . S
C825 H829 0.930 . S
C826 C825 1.369 . S
C826 C835 1.429 . S
C827 C825 1.419 . S
C827 C828 1.363 . S
C827 H830 0.929 1_455 S
C828 C827 1.363 . S
C828 C834 1.428 . S
H829 C825 0.930 . S
H830 C827 0.929 1_655 S
S831 N832 1.613 . S
S831 N833 1.610 . S
N832 S831 1.613 . S
N832 C835 1.350 . S
N833 S831 1.610 . S
N833 C834 1.351 . S
C834 C828 1.428 . S
C834 N833 1.351 . S
C834 C835 1.434 . S
C835 C826 1.429 . S
C835 N832 1.350 . S
C835 C834 1.434 . S
C836 C837 1.369 . S
C836 C838 1.419 . S
C836 H840 0.930 . S
C837 C836 1.369 . S
C837 C846 1.429 . S
C838 C836 1.419 . S
C838 C839 1.363 . S
C838 H841 0.929 . S
C839 C838 1.363 . S
C839 C845 1.428 . S
H840 C836 0.930 . S
H841 C838 0.929 . S
S842 N843 1.613 . S
S842 N844 1.610 . S
N843 S842 1.613 . S
N843 C846 1.350 . S
N844 S842 1.610 . S
N844 C845 1.351 . S
C845 C839 1.428 . S
C845 N844 1.351 . S
C845 C846 1.434 . S
C846 C837 1.429 . S
C846 N843 1.350 . S
C846 C845 1.434 . S
C847 C848 1.369 . S
C847 C849 1.419 . S
C847 H851 0.930 . S
C848 C847 1.369 . S
C848 C857 1.429 . S
C849 C847 1.419 . S
C849 C850 1.363 . S
C849 H852 0.929 . S
C850 C849 1.363 . S
C850 C856 1.428 . S
H851 C847 0.930 . S
H852 C849 0.929 . S
S853 N854 1.613 . S
S853 N855 1.610 . S
N854 S853 1.613 . S
N854 C857 1.350 . S
N855 S853 1.610 . S
N855 C856 1.351 . S
C856 C850 1.428 . S
C856 N855 1.351 . S
C856 C857 1.434 . S
C857 C848 1.429 . S
C857 N854 1.350 . S
C857 C856 1.434 . S
C858 C859 1.369 . S
C858 C860 1.419 . S
C858 H862 0.930 . S
C859 C858 1.369 . S
C859 C868 1.429 . S
C860 C858 1.419 . S
C860 C861 1.363 . S
C860 H863 0.929 1_545 S
C861 C860 1.363 . S
C861 C867 1.428 . S
H862 C858 0.930 . S
H863 C860 0.929 1_565 S
S864 N865 1.613 . S
S864 N866 1.610 . S
N865 S864 1.613 . S
N865 C868 1.350 . S
N866 S864 1.610 . S
N866 C867 1.351 . S
C867 C861 1.428 . S
C867 N866 1.351 . S
C867 C868 1.434 . S
C868 C859 1.429 . S
C868 N865 1.350 . S
C868 C867 1.434 . S
C869 C870 1.369 . S
C869 C871 1.419 . S
C869 H873 0.930 . S
C870 C869 1.369 . S
C870 C879 1.429 . S
C871 C869 1.419 . S
C871 C872 1.363 . S
C871 H874 0.929 . S
C872 C871 1.363 . S
C872 C878 1.428 . S
H873 C869 0.930 . S
H874 C871 0.929 . S
S875 N876 1.613 . S
S875 N877 1.610 . S
N876 S875 1.613 . S
N876 C879 1.350 . S
N877 S875 1.610 . S
N877 C878 1.351 . S
C878 C872 1.428 . S
C878 N877 1.351 . S
C878 C879 1.434 . S
C879 C870 1.429 . S
C879 N876 1.350 . S
C879 C878 1.434 . S
C880 C881 1.369 . S
C880 C882 1.419 . S
C880 H884 0.930 . S
C881 C880 1.369 . S
C881 C890 1.429 . S
C882 C880 1.419 . S
C882 C883 1.363 . S
C882 H885 0.923 1_565 S
C883 C882 1.363 . S
C883 C889 1.428 . S
H884 C880 0.930 . S
H885 C882 0.923 1_545 S
S886 N887 1.613 . S
S886 N888 1.610 . S
N887 S886 1.613 . S
N887 C890 1.350 . S
N888 S886 1.610 . S
N888 C889 1.351 . S
C889 C883 1.428 . S
C889 N888 1.351 . S
C889 C890 1.434 . S
C890 C881 1.429 . S
C890 N887 1.350 . S
C890 C889 1.434 . S
C891 C892 1.369 . S
C891 C893 1.419 . S
C891 H895 0.930 . S
C892 C891 1.369 . S
C892 C901 1.429 . S
C893 C891 1.419 . S
C893 C894 1.363 . S
C893 H896 0.929 . S
C894 C893 1.363 . S
C894 C900 1.428 . S
H895 C891 0.930 . S
H896 C893 0.929 . S
S897 N898 1.613 . S
S897 N899 1.610 . S
N898 S897 1.613 . S
N898 C901 1.350 . S
N899 S897 1.610 . S
N899 C900 1.351 . S
C900 C894 1.428 . S
C900 N899 1.351 . S
C900 C901 1.434 . S
C901 C892 1.429 . S
C901 N898 1.350 . S
C901 C900 1.434 . S
C902 C903 1.369 . S
C902 C904 1.419 . S
C902 H906 0.930 . S
C903 C902 1.369 . S
C903 C912 1.429 . S
C904 C902 1.419 . S
C904 C905 1.363 . S
C904 H907 0.929 . S
C905 C904 1.363 . S
C905 C911 1.428 . S
H906 C902 0.930 . S
H907 C904 0.929 . S
S908 N909 1.613 . S
S908 N910 1.610 . S
N909 S908 1.613 . S
N909 C912 1.350 . S
N910 S908 1.610 . S
N910 C911 1.351 . S
C911 C905 1.428 . S
C911 N910 1.351 . S
C911 C912 1.434 . S
C912 C903 1.429 . S
C912 N909 1.350 . S
C912 C911 1.434 . S
C913 C914 1.369 . S
C913 C915 1.419 . S
C913 H917 0.930 . S
C914 C913 1.369 . S
C914 C923 1.429 . S
C915 C913 1.419 . S
C915 C916 1.363 . S
C915 H918 0.929 . S
C916 C915 1.363 . S
C916 C922 1.428 . S
H917 C913 0.930 . S
H918 C915 0.929 . S
S919 N920 1.613 . S
S919 N921 1.610 . S
N920 S919 1.613 . S
N920 C923 1.350 . S
N921 S919 1.610 . S
N921 C922 1.351 . S
C922 C916 1.428 . S
C922 N921 1.351 . S
C922 C923 1.434 . S
C923 C914 1.429 . S
C923 N920 1.350 . S
C923 C922 1.434 . S
C924 C925 1.369 . S
C924 C926 1.419 . S
C924 H928 0.930 . S
C925 C924 1.369 . S
C925 C934 1.429 . S
C926 C924 1.419 . S
C926 C927 1.363 . S
C926 H929 0.929 . S
C927 C926 1.363 . S
C927 C933 1.428 . S
H928 C924 0.930 . S
H929 C926 0.929 . S
S930 N931 1.613 . S
S930 N932 1.610 . S
N931 S930 1.613 . S
N931 C934 1.350 . S
N932 S930 1.610 . S
N932 C933 1.351 . S
C933 C927 1.428 . S
C933 N932 1.351 . S
C933 C934 1.434 . S
C934 C925 1.429 . S
C934 N931 1.350 . S
C934 C933 1.434 . S
C935 C936 1.369 . S
C935 C937 1.419 . S
C935 H939 0.930 . S
C936 C935 1.369 . S
C936 C945 1.429 . S
C937 C935 1.419 . S
C937 C938 1.363 . S
C937 H940 0.929 . S
C938 C937 1.363 . S
C938 C944 1.428 . S
H939 C935 0.930 . S
H940 C937 0.929 . S
S941 N942 1.613 . S
S941 N943 1.610 . S
N942 S941 1.613 . S
N942 C945 1.350 1_455 S
N943 S941 1.610 . S
N943 C944 1.351 1_455 S
C944 C938 1.428 . S
C944 N943 1.351 1_655 S
C944 C945 1.434 . S
C945 C936 1.429 . S
C945 N942 1.350 1_655 S
C945 C944 1.434 . S
C946 C947 1.369 . S
C946 C948 1.419 . S
C946 H950 0.930 . S
C947 C946 1.369 . S
C947 C956 1.429 . S
C948 C946 1.419 . S
C948 C949 1.363 . S
C948 H951 0.929 . S
C949 C948 1.363 . S
C949 C955 1.428 . S
H950 C946 0.930 . S
H951 C948 0.929 . S
S952 N953 1.613 . S
S952 N954 1.610 . S
N953 S952 1.613 . S
N953 C956 1.350 . S
N954 S952 1.610 . S
N954 C955 1.351 . S
C955 C949 1.428 . S
C955 N954 1.351 . S
C955 C956 1.434 . S
C956 C947 1.429 . S
C956 N953 1.350 . S
C956 C955 1.434 . S
C957 C958 1.369 . S
C957 C959 1.419 . S
C957 H961 0.930 . S
C958 C957 1.369 . S
C958 C967 1.429 . S
C959 C957 1.419 . S
C959 C960 1.363 . S
C959 H962 0.929 . S
C960 C959 1.363 . S
C960 C966 1.428 . S
H961 C957 0.930 . S
H962 C959 0.929 . S
S963 N964 1.613 . S
S963 N965 1.610 . S
N964 S963 1.613 . S
N964 C967 1.350 . S
N965 S963 1.610 . S
N965 C966 1.351 . S
C966 C960 1.428 . S
C966 N965 1.351 . S
C966 C967 1.434 . S
C967 C958 1.429 . S
C967 N964 1.350 . S
C967 C966 1.434 . S
C529 C7 0.697 . S
C531 C172 0.686 . S
C540 C40 0.695 . S
C542 C205 0.695 . S
C551 C238 0.684 . S
C553 C73 0.695 . S
C562 C139 0.694 . S
C564 C106 0.695 . S
C573 C271 0.699 . S
C575 C436 0.688 . S
C584 C304 0.693 . S
C586 C469 0.685 . S
C595 C337 0.692 . S
C597 C502 0.696 . S
C606 C370 0.698 . S
C608 C403 0.690 . S
C617 C285 1.988 . S
C619 C21 1.982 . S
C628 C318 1.985 . S
C630 C54 1.984 . S
C639 C87 1.979 . S
C641 C351 1.989 . S
C650 C384 1.991 . S
C652 C120 1.980 . S
C661 C153 1.980 . S
C663 C417 1.988 . S
C672 C186 1.985 . S
C674 C450 1.985 . S
C683 C219 1.985 . S
C685 C483 1.984 . S
C694 C252 1.979 . S
C696 C516 1.989 . S
C705 N13 1.736 . S
C707 N145 1.732 . S
C716 N46 1.724 . S
C718 N178 1.731 . S
C727 N211 1.727 . S
C729 N79 1.725 . S
C738 N112 1.723 . S
C740 N244 1.729 . S
C749 N409 1.736 . S
C751 N277 1.730 . S
C760 N442 1.724 . S
C762 N310 1.727 . S
C771 N343 1.730 . S
C773 N475 1.735 . S
C782 N508 1.725 . S
C784 N376 1.727 . S
C793 C51 1.538 . S
C795 N2 1.429 . S
C804 N35 1.426 . S
C806 C84 1.539 . S
C815 N68 1.431 . S
C817 C117 1.538 . S
C826 N101 1.423 . S
C828 C18 1.540 . S
C837 C249 1.537 . S
C839 N134 1.431 . S
C848 N167 1.427 . S
C850 C150 1.539 . S
C859 N200 1.423 . S
C861 C183 1.540 . S
C870 N233 1.421 . S
C872 C216 1.540 . S
C881 N266 1.420 . S
C883 C315 1.540 . S
C892 N299 1.431 . S
C894 C348 1.538 . S
C903 C381 1.538 . S
C905 N332 1.428 . S
C914 N365 1.425 . S
C916 C282 1.539 . S
C925 N398 1.420 . S
C927 C513 1.540 . S
C936 C414 1.537 . S
C938 N431 1.430 . S
C947 C447 1.541 . S
C949 N464 1.421 . S
C958 N497 1.432 . S
C960 C480 1.538 . S
