# Generated by pormake.
# Topology unh, (4)-cn, num edge types: 1
# Building blocks:
#     Node 0, Type 0, BuildingBlock: KOZSID_clean_sbu_0, # of connection points: 4
#     Node 1, Type 0, BuildingBlock: KOZSID_clean_sbu_0, # of connection points: 4
#     Node 2, Type 0, BuildingBlock: KOZSID_clean_sbu_0, # of connection points: 4
#     Node 3, Type 0, BuildingBlock: KOZSID_clean_sbu_0, # of connection points: 4
#     Node 4, Type 0, BuildingBlock: KOZSID_clean_sbu_0, # of connection points: 4
#     Node 5, Type 0, BuildingBlock: KOZSID_clean_sbu_0, # of connection points: 4
#     Edge 6, Type (0, 0), BuildingBlock: EYOCIG_clean_linker_4, # of connection points: 2
#     Edge 7, Type (0, 0), BuildingBlock: EYOCIG_clean_linker_4, # of connection points: 2
#     Edge 8, Type (0, 0), BuildingBlock: EYOCIG_clean_linker_4, # of connection points: 2
#     Edge 9, Type (0, 0), BuildingBlock: EYOCIG_clean_linker_4, # of connection points: 2
#     Edge 10, Type (0, 0), BuildingBlock: EYOCIG_clean_linker_4, # of connection points: 2
#     Edge 11, Type (0, 0), BuildingBlock: EYOCIG_clean_linker_4, # of connection points: 2
#     Edge 12, Type (0, 0), BuildingBlock: EYOCIG_clean_linker_4, # of connection points: 2
#     Edge 13, Type (0, 0), BuildingBlock: EYOCIG_clean_linker_4, # of connection points: 2
#     Edge 14, Type (0, 0), BuildingBlock: EYOCIG_clean_linker_4, # of connection points: 2
#     Edge 15, Type (0, 0), BuildingBlock: EYOCIG_clean_linker_4, # of connection points: 2
#     Edge 16, Type (0, 0), BuildingBlock: EYOCIG_clean_linker_4, # of connection points: 2
#     Edge 17, Type (0, 0), BuildingBlock: EYOCIG_clean_linker_4, # of connection points: 2
# Relax obj value: 0.012
# Max RMSD: 0.281
# Mean RMSD: 0.251
data_MOF--net-unh--node1-KOZSID_clean_sbu_0--edge1-EYOCIG_clean_linker_4
_symmetry_space_group_name_H-M    P1
_symmetry_Int_Tables_number       1
_symmetry_cell_setting            triclinic
loop_
_symmetry_equiv_pos_as_xyz
'x, y, z'
_cell_length_a     44.269288
_cell_length_b     49.322577
_cell_length_c     18.63316
_cell_angle_alpha  90.027742
_cell_angle_beta   89.980614
_cell_angle_gamma 120.23393
loop_
_atom_site_label
_atom_site_type_symbol
_atom_site_fract_x
_atom_site_fract_y
_atom_site_fract_z
_atom_type_partial_charge
C0 C 0.23852 0.62821 0.23041 0.0
C1 C 0.25452 0.65571 0.27005 0.0
C2 C 0.23606 0.67063 0.25736 0.0
C3 C 0.21007 0.65155 0.2105 0.0
N4 N 0.21007 0.62489 0.19432 0.0
Co5 Co 0.18128 0.59443 0.11734 0.0
N6 N 0.15302 0.61524 0.10006 0.0
C7 C 0.15828 0.64194 0.13105 0.0
C8 C 0.1339 0.64997 0.11161 0.0
C9 C 0.11181 0.62697 0.0651 0.0
C10 C 0.124 0.60613 0.05878 0.0
N11 N 0.15454 0.56522 0.03682 0.0
C12 C 0.12707 0.56201 0.99763 0.0
C13 C 0.11728 0.53905 0.94523 0.0
C14 C 0.13903 0.52716 0.95209 0.0
C15 C 0.16086 0.54353 1.00768 0.0
N16 N 0.20706 0.57154 0.13793 0.0
C17 C 0.20374 0.54644 0.10221 0.0
C18 C 0.22434 0.53532 0.12837 0.0
C19 C 0.24272 0.55508 0.18322 0.0
C20 C 0.2323 0.57731 0.18698 0.0
N21 N 0.14486 0.56699 0.18792 0.0
C22 C 0.08955 0.53012 0.28357 0.0
C23 C 0.09821 0.51617 0.22784 0.0
C24 C 0.126 0.53495 0.18087 0.0
C25 C 0.10944 0.56258 0.29145 0.0
C26 C 0.13671 0.58042 0.24357 0.0
N27 N 0.2183 0.62351 0.04854 0.0
C28 C 0.2805 0.654 0.02331 0.0
C29 C 0.27665 0.67782 0.99265 0.0
C30 C 0.2429 0.67271 0.9833 0.0
C31 C 0.2141 0.64513 1.00985 0.0
C32 C 0.25115 0.627 0.04973 0.0
H33 H 0.18877 0.64236 1.00045 0.0
H34 H 0.25622 0.60992 0.0731 0.0
H35 H 0.1317 0.52339 0.13853 0.0
H36 H 0.15049 0.60525 0.25162 0.0
C37 C 0.18562 0.65808 0.1797 0.0
C38 C 0.25237 0.60686 0.22548 0.0
C39 C 0.10883 0.57936 1.0092 0.0
C40 C 0.18336 0.53558 0.04087 0.0
H41 H 0.2777 0.66442 0.303 0.0
H42 H 0.24155 0.69315 0.27815 0.0
H43 H 0.13228 0.67009 0.12938 0.0
H44 H 0.08961 0.62587 0.03797 0.0
H45 H 0.09605 0.53112 0.90713 0.0
H46 H 0.13795 0.50782 0.92241 0.0
H47 H 0.22702 0.51614 0.10759 0.0
H48 H 0.26334 0.55462 0.21343 0.0
H49 H 0.08343 0.49099 0.22006 0.0
H50 H 0.10367 0.57432 0.33392 0.0
H51 H 0.30618 0.65658 0.02903 0.0
H52 H 0.23878 0.69022 0.95723 0.0
C53 C 0.6147 0.21102 0.39974 0.0
C54 C 0.5977 0.22304 0.43961 0.0
C55 C 0.56263 0.20317 0.42955 0.0
C56 C 0.56026 0.18036 0.38389 0.0
N57 N 0.59159 0.18386 0.36608 0.0
Co58 Co 0.60029 0.15952 0.2909 0.0
N59 N 0.54933 0.13273 0.2679 0.0
C60 C 0.52277 0.13291 0.30322 0.0
C61 C 0.49037 0.11035 0.27971 0.0
C62 C 0.49661 0.09438 0.22724 0.0
C63 C 0.53261 0.10828 0.22138 0.0
N64 N 0.60982 0.1373 0.2117 0.0
C65 C 0.58773 0.11387 0.16718 0.0
C66 C 0.6058 0.10569 0.11916 0.0
C67 C 0.64042 0.12421 0.13462 0.0
C68 C 0.64156 0.14269 0.19055 0.0
N69 N 0.65099 0.18439 0.31702 0.0
C70 C 0.67687 0.18031 0.29104 0.0
C71 C 0.70919 0.20099 0.31831 0.0
C72 C 0.70373 0.21988 0.36343 0.0
C73 C 0.66824 0.20961 0.36063 0.0
N74 N 0.59396 0.12649 0.36181 0.0
C75 C 0.57762 0.07534 0.45425 0.0
C76 C 0.60106 0.08259 0.39743 0.0
C77 C 0.609 0.10823 0.35229 0.0
C78 C 0.5635 0.09457 0.4657 0.0
C79 C 0.57206 0.11984 0.4197 0.0
N80 N 0.6057 0.1927 0.22206 0.0
C81 C 0.64346 0.24254 0.16358 0.0
C82 C 0.61574 0.24834 0.15723 0.0
C83 C 0.58263 0.22503 0.17863 0.0
C84 C 0.57812 0.1975 0.20995 0.0
C85 C 0.63781 0.21443 0.19515 0.0
H86 H 0.55217 0.18108 0.22651 0.0
H87 H 0.65994 0.21117 0.19958 0.0
H88 H 0.62699 0.11253 0.30954 0.0
H89 H 0.56 0.13325 0.43189 0.0
C90 C 0.52935 0.15592 0.35471 0.0
C91 C 0.65277 0.22646 0.39367 0.0
C92 C 0.54969 0.09725 0.1715 0.0
C93 C 0.67124 0.16175 0.23085 0.0
H94 H 0.60951 0.24433 0.4713 0.0
H95 H 0.54143 0.20563 0.45106 0.0
H96 H 0.4652 0.1061 0.29835 0.0
H97 H 0.47695 0.07467 0.19684 0.0
H98 H 0.59503 0.08742 0.07884 0.0
H99 H 0.66208 0.12325 0.11034 0.0
H100 H 0.73409 0.20357 0.30301 0.0
H101 H 0.72386 0.24 0.39195 0.0
H102 H 0.61288 0.06835 0.38724 0.0
H103 H 0.54546 0.08993 0.50961 0.0
H104 H 0.66948 0.25988 0.14598 0.0
H105 H 0.56033 0.22836 0.17321 0.0
C106 C 0.43733 0.62857 0.29812 0.0
C107 C 0.45262 0.6556 0.25691 0.0
C108 C 0.48804 0.66809 0.26249 0.0
C109 C 0.49234 0.64814 0.30705 0.0
N110 N 0.46186 0.62318 0.32829 0.0
Co111 Co 0.45623 0.59204 0.4037 0.0
N112 N 0.50781 0.61241 0.42084 0.0
C113 C 0.53293 0.63616 0.38194 0.0
C114 C 0.56616 0.64382 0.4016 0.0
C115 C 0.56196 0.62331 0.45538 0.0
C116 C 0.52627 0.60434 0.46584 0.0
N117 N 0.44967 0.56244 0.48379 0.0
C118 C 0.47325 0.5604 0.52664 0.0
C119 C 0.4569 0.53639 0.57653 0.0
C120 C 0.42189 0.52247 0.56402 0.0
C121 C 0.41882 0.53881 0.5079 0.0
N122 N 0.40492 0.56976 0.38295 0.0
C123 C 0.38041 0.54213 0.41087 0.0
C124 C 0.34727 0.53235 0.38663 0.0
C125 C 0.35073 0.5555 0.34154 0.0
C126 C 0.38594 0.57823 0.3414 0.0
N127 N 0.46179 0.56453 0.33173 0.0
C128 C 0.47871 0.52891 0.23772 0.0
C129 C 0.45822 0.51527 0.29873 0.0
C130 C 0.44992 0.53331 0.34458 0.0
C131 C 0.48936 0.56009 0.22291 0.0
C132 C 0.48051 0.57722 0.26968 0.0
N133 N 0.45176 0.62065 0.47326 0.0
C134 C 0.41492 0.6372 0.53272 0.0
C135 C 0.44298 0.66794 0.5382 0.0
C136 C 0.47579 0.67408 0.51586 0.0
C137 C 0.47968 0.65029 0.48446 0.0
C138 C 0.41995 0.61381 0.50113 0.0
H139 H 0.50546 0.65707 0.46698 0.0
H140 H 0.39757 0.59062 0.49747 0.0
H141 H 0.43433 0.52157 0.39057 0.0
H142 H 0.48984 0.60091 0.25448 0.0
C143 C 0.52427 0.6523 0.3318 0.0
C144 C 0.39949 0.60888 0.30829 0.0
C145 C 0.51113 0.57893 0.51878 0.0
C146 C 0.3881 0.52972 0.47024 0.0
H147 H 0.43947 0.66549 0.22711 0.0
H148 H 0.50826 0.68964 0.23865 0.0
H149 H 0.59057 0.66232 0.3799 0.0
H150 H 0.58273 0.62236 0.48377 0.0
H151 H 0.46905 0.5289 0.61611 0.0
H152 H 0.40123 0.50194 0.5904 0.0
H153 H 0.32315 0.51203 0.40397 0.0
H154 H 0.32949 0.55641 0.31511 0.0
H155 H 0.44906 0.49093 0.31166 0.0
H156 H 0.50496 0.57148 0.17572 0.0
H157 H 0.38912 0.63139 0.55104 0.0
H158 H 0.49834 0.69747 0.52057 0.0
C159 C 0.82225 0.41786 0.7303 0.0
C160 C 0.80627 0.39037 0.7699 0.0
C161 C 0.82481 0.37551 0.7573 0.0
C162 C 0.85082 0.39462 0.71052 0.0
N163 N 0.85077 0.42125 0.69433 0.0
Co164 Co 0.87956 0.45173 0.61741 0.0
N165 N 0.90788 0.43096 0.60011 0.0
C166 C 0.90269 0.40431 0.63118 0.0
C167 C 0.92709 0.3963 0.6117 0.0
C168 C 0.94912 0.41927 0.5651 0.0
C169 C 0.93688 0.44006 0.55876 0.0
N170 N 0.9063 0.48095 0.53694 0.0
C171 C 0.93375 0.48415 0.49766 0.0
C172 C 0.94354 0.50712 0.44532 0.0
C173 C 0.92181 0.51902 0.45231 0.0
C174 C 0.9 0.50266 0.50792 0.0
N175 N 0.85376 0.47459 0.63808 0.0
C176 C 0.85712 0.49974 0.60253 0.0
C177 C 0.83647 0.51081 0.6287 0.0
C178 C 0.818 0.49097 0.68336 0.0
C179 C 0.82843 0.46875 0.687 0.0
N180 N 0.91596 0.47918 0.68805 0.0
C181 C 0.97129 0.51606 0.7837 0.0
C182 C 0.96268 0.53001 0.72791 0.0
C183 C 0.93488 0.51122 0.68094 0.0
C184 C 0.95134 0.48361 0.79165 0.0
C185 C 0.92407 0.46577 0.74377 0.0
N186 N 0.84256 0.42263 0.54856 0.0
C187 C 0.7804 0.39229 0.52292 0.0
C188 C 0.78416 0.36834 0.4927 0.0
C189 C 0.81786 0.37329 0.48377 0.0
C190 C 0.84669 0.40086 0.51026 0.0
C191 C 0.80978 0.41928 0.54935 0.0
H192 H 0.87198 0.40352 0.50109 0.0
H193 H 0.80478 0.43648 0.57236 0.0
H194 H 0.92923 0.52278 0.63858 0.0
H195 H 0.91026 0.44095 0.75188 0.0
C196 C 0.87534 0.38815 0.6798 0.0
C197 C 0.80834 0.43917 0.72531 0.0
C198 C 0.952 0.4668 0.50913 0.0
C199 C 0.87752 0.51062 0.54122 0.0
H200 H 0.78305 0.38162 0.80277 0.0
H201 H 0.81935 0.35301 0.77808 0.0
H202 H 0.92875 0.37621 0.62948 0.0
H203 H 0.97133 0.42038 0.53792 0.0
H204 H 0.96476 0.51504 0.40717 0.0
H205 H 0.9229 0.53837 0.42271 0.0
H206 H 0.8338 0.53 0.608 0.0
H207 H 0.79734 0.49139 0.7135 0.0
H208 H 0.9775 0.55518 0.72008 0.0
H209 H 0.95707 0.47188 0.83416 0.0
H210 H 0.75476 0.38983 0.52828 0.0
H211 H 0.82193 0.35568 0.45805 0.0
C212 C 0.44598 0.83518 0.89951 0.0
C213 C 0.463 0.82317 0.93932 0.0
C214 C 0.49806 0.84304 0.92921 0.0
C215 C 0.50041 0.86585 0.88359 0.0
N216 N 0.46907 0.86233 0.86586 0.0
Co217 Co 0.46034 0.88664 0.79072 0.0
N218 N 0.5113 0.91344 0.76767 0.0
C219 C 0.53787 0.91328 0.80291 0.0
C220 C 0.57026 0.93585 0.77939 0.0
C221 C 0.564 0.95181 0.72698 0.0
C222 C 0.528 0.9379 0.72118 0.0
N223 N 0.45078 0.90883 0.71159 0.0
C224 C 0.47286 0.93227 0.66708 0.0
C225 C 0.45477 0.94043 0.6191 0.0
C226 C 0.42015 0.92189 0.63457 0.0
C227 C 0.41904 0.90342 0.69047 0.0
N228 N 0.40965 0.86177 0.81691 0.0
C229 C 0.38375 0.86582 0.79096 0.0
C230 C 0.35144 0.84514 0.81828 0.0
C231 C 0.35692 0.82629 0.86339 0.0
C232 C 0.39242 0.83657 0.86054 0.0
N233 N 0.46667 0.91968 0.86168 0.0
C234 C 0.48297 0.97083 0.9542 0.0
C235 C 0.4595 0.96354 0.89744 0.0
C236 C 0.45158 0.93791 0.85226 0.0
C237 C 0.49715 0.95163 0.96555 0.0
C238 C 0.4886 0.92636 0.9195 0.0
N239 N 0.45494 0.85345 0.72185 0.0
C240 C 0.41718 0.80355 0.66352 0.0
C241 C 0.44491 0.79778 0.6571 0.0
C242 C 0.47803 0.82113 0.67837 0.0
C243 C 0.48253 0.84868 0.70965 0.0
C244 C 0.42282 0.83168 0.69504 0.0
H245 H 0.5085 0.86513 0.7261 0.0
H246 H 0.40067 0.83492 0.69954 0.0
H247 H 0.43356 0.93357 0.80957 0.0
H248 H 0.50071 0.91299 0.9316 0.0
C249 C 0.53131 0.89028 0.85437 0.0
C250 C 0.40791 0.81973 0.8935 0.0
C251 C 0.5109 0.94892 0.67138 0.0
C252 C 0.38936 0.88436 0.73079 0.0
H253 H 0.4512 0.80189 0.97101 0.0
H254 H 0.51928 0.8406 0.95067 0.0
H255 H 0.59544 0.94011 0.79797 0.0
H256 H 0.58365 0.97153 0.69659 0.0
H257 H 0.46553 0.9587 0.5788 0.0
H258 H 0.39848 0.92283 0.61033 0.0
H259 H 0.32653 0.84254 0.80301 0.0
H260 H 0.33681 0.80616 0.89193 0.0
H261 H 0.44763 0.97775 0.88735 0.0
H262 H 0.51522 0.9563 1.00941 0.0
H263 H 0.39116 0.78618 0.64602 0.0
H264 H 0.50035 0.81782 0.67289 0.0
C265 C 0.62334 0.41739 0.79788 0.0
C266 C 0.60807 0.39037 0.7566 0.0
C267 C 0.57264 0.37789 0.7621 0.0
C268 C 0.56833 0.39784 0.8067 0.0
N269 N 0.59879 0.42279 0.82803 0.0
Co270 Co 0.60439 0.45392 0.90349 0.0
N271 N 0.5528 0.43353 0.9206 0.0
C272 C 0.5277 0.4098 0.8816 0.0
C273 C 0.49446 0.40212 0.90126 0.0
C274 C 0.49864 0.42261 0.95513 0.0
C275 C 0.53433 0.44157 0.96566 0.0
N276 N 0.61091 0.48351 0.98365 0.0
C277 C 0.58732 0.48552 0.02653 0.0
C278 C 0.60365 0.50954 0.07645 0.0
C279 C 0.63866 0.52349 0.06392 0.0
C280 C 0.64175 0.50716 1.00775 0.0
N281 N 0.65571 0.47621 0.88278 0.0
C282 C 0.68019 0.50386 0.91069 0.0
C283 C 0.71334 0.51365 0.88649 0.0
C284 C 0.70991 0.49048 0.84142 0.0
C285 C 0.67471 0.46774 0.84126 0.0
N286 N 0.59883 0.48142 0.83156 0.0
C287 C 0.58187 0.517 0.73765 0.0
C288 C 0.60226 0.53064 0.79876 0.0
C289 C 0.61058 0.51262 0.84457 0.0
C290 C 0.57134 0.48586 0.72267 0.0
C291 C 0.58021 0.46875 0.7694 0.0
N292 N 0.60885 0.42532 0.973 0.0
C293 C 0.64569 0.40885 0.03267 0.0
C294 C 0.61767 0.37809 0.03803 0.0
C295 C 0.58486 0.37189 1.01549 0.0
C296 C 0.58096 0.39565 0.98404 0.0
C297 C 0.64065 0.43221 1.00102 0.0
H298 H 0.55519 0.38884 0.96639 0.0
H299 H 0.663 0.45542 0.99745 0.0
H300 H 0.62611 0.52436 0.89065 0.0
H301 H 0.57099 0.44509 0.75406 0.0
C302 C 0.53638 0.39368 0.83139 0.0
C303 C 0.66118 0.43709 0.80812 0.0
C304 C 0.54944 0.46697 1.01867 0.0
C305 C 0.67248 0.51627 0.97007 0.0
H306 H 0.62124 0.38049 0.72679 0.0
H307 H 0.55244 0.35635 0.73818 0.0
H308 H 0.47006 0.38363 0.8795 0.0
H309 H 0.47785 0.42354 0.98355 0.0
H310 H 0.59148 0.51701 0.11607 0.0
H311 H 0.6593 0.54404 0.09032 0.0
H312 H 0.73746 0.53398 0.90384 0.0
H313 H 0.73117 0.48958 0.81501 0.0
H314 H 0.61133 0.55495 0.81182 0.0
H315 H 0.55581 0.47448 0.67538 0.0
H316 H 0.67148 0.4147 0.05113 0.0
H317 H 0.56234 0.34848 1.02009 0.0
C318 C 0.05299 0.56148 0.92463 0.0
C319 C 0.07785 0.57131 0.96532 0.0
C320 C 1.02457 0.54763 0.87468 0.0
C321 C 1.00065 0.53433 0.83203 0.0
C322 C 0.50286 1.02018 0.04055 0.0
C323 C 0.49317 0.99797 1.00016 0.0
C324 C 0.51607 0.04648 0.08785 0.0
C325 C 0.5295 0.06927 0.12702 0.0
C326 C 0.49955 0.49865 0.14982 0.0
C327 C 0.48955 0.51163 0.19102 0.0
C328 C 0.51334 0.48499 0.10176 0.0
C329 C 0.52762 0.47517 0.06239 0.0
C330 C 1.00785 0.4847 0.4245 0.0
C331 C 0.98298 0.47486 0.46521 0.0
C332 C 0.03627 0.49855 0.37456 0.0
C333 C 0.06019 0.51185 0.33191 0.0
C334 C 0.5577 0.02598 0.54051 0.0
C335 C 0.5674 0.0482 0.50016 0.0
C336 C 0.54449 0.99968 0.58777 0.0
C337 C 0.53108 0.97689 0.62692 0.0
C338 C 0.56099 0.54723 0.64982 0.0
C339 C 0.571 0.53426 0.69098 0.0
C340 C 0.5472 0.56089 0.6018 0.0
C341 C 0.53293 0.57071 0.56246 0.0
C342 C 0.31723 0.62064 0.25978 0.0
C343 C 0.28828 0.61652 0.24693 0.0
C344 C 0.3495 0.62157 0.27314 0.0
C345 C 0.37457 0.61859 0.28646 0.0
C346 C 0.69897 0.28431 0.43718 0.0
C347 C 0.67596 0.25835 0.41954 0.0
C348 C 0.72814 0.31397 0.45598 0.0
C349 C 0.75361 0.33873 0.47272 0.0
C350 C 0.438 0.74394 0.60963 0.0
C351 C 0.43985 0.76801 0.63084 0.0
C352 C 0.43751 0.71625 0.58586 0.0
C353 C 0.43859 0.69348 0.56465 0.0
C354 C 0.71118 0.42441 0.77295 0.0
C355 C 0.68611 0.42738 0.78628 0.0
C356 C 0.74346 0.42534 0.75957 0.0
C357 C 0.77242 0.42948 0.74673 0.0
C358 C 0.3617 0.76189 0.93698 0.0
C359 C 0.38472 0.78785 0.91934 0.0
C360 C 0.33257 0.73222 0.95585 0.0
C361 C 0.30715 0.70745 0.97262 0.0
C362 C 0.62316 0.32982 0.08582 0.0
C363 C 0.62207 0.35257 0.06456 0.0
C364 C 0.62267 0.30215 0.10964 0.0
C365 C 0.62082 0.27809 0.1309 0.0
loop_
_geom_bond_atom_site_label_1
_geom_bond_atom_site_label_2
_geom_bond_distance
_geom_bond_site_symmetry_2
_ccdc_geom_bond_type
C0 C1 1.443 . S
C0 N4 1.376 . S
C0 C38 1.389 . S
C1 C0 1.443 . S
C1 C2 1.340 . S
C1 H41 0.951 . S
C2 C1 1.340 . S
C2 C3 1.439 . S
C2 H42 0.950 . S
C3 C2 1.439 . S
C3 N4 1.374 . S
C3 C37 1.395 . S
N4 C0 1.376 . S
N4 C3 1.374 . S
N4 Co5 2.008 . S
Co5 N4 2.008 . S
Co5 N6 1.995 . S
Co5 N11 2.008 . S
Co5 N16 1.995 . S
Co5 N21 2.282 . S
Co5 N27 2.282 . S
N6 Co5 1.995 . S
N6 C7 1.376 . S
N6 C10 1.383 . S
C7 N6 1.376 . S
C7 C8 1.446 . S
C7 C37 1.391 . S
C8 C7 1.446 . S
C8 C9 1.339 . S
C8 H43 0.949 . S
C9 C8 1.339 . S
C9 C10 1.439 . S
C9 H44 0.950 . S
C10 N6 1.383 . S
C10 C9 1.439 . S
C10 C39 1.392 . S
N11 Co5 2.008 . S
N11 C12 1.376 . S
N11 C15 1.374 . S
C12 N11 1.376 . S
C12 C13 1.443 1_554 S
C12 C39 1.389 . S
C13 C12 1.443 1_556 S
C13 C14 1.340 . S
C13 H45 0.951 . S
C14 C13 1.340 . S
C14 C15 1.439 1_556 S
C14 H46 0.950 . S
C15 N11 1.374 . S
C15 C14 1.439 1_554 S
C15 C40 1.395 . S
N16 Co5 1.995 . S
N16 C17 1.376 . S
N16 C20 1.383 . S
C17 N16 1.376 . S
C17 C18 1.446 . S
C17 C40 1.391 . S
C18 C17 1.446 . S
C18 C19 1.339 . S
C18 H47 0.949 . S
C19 C18 1.339 . S
C19 C20 1.439 . S
C19 H48 0.950 . S
C20 N16 1.383 . S
C20 C19 1.439 . S
C20 C38 1.392 . S
N21 Co5 2.282 . S
N21 C24 1.332 . S
N21 C26 1.332 . S
C22 C23 1.386 . S
C22 C25 1.388 . S
C23 C22 1.386 . S
C23 C24 1.382 . S
C23 H49 0.950 . S
C24 N21 1.332 . S
C24 C23 1.382 . S
C24 H35 0.952 . S
C25 C22 1.388 . S
C25 C26 1.382 . S
C25 H50 0.950 . S
C26 N21 1.332 . S
C26 C25 1.382 . S
C26 H36 0.948 . S
N27 Co5 2.282 . S
N27 C31 1.332 . S
N27 C32 1.332 . S
C28 C29 1.388 . S
C28 C32 1.382 1_556 S
C28 H51 0.950 . S
C29 C28 1.388 . S
C29 C30 1.386 . S
C30 C29 1.386 . S
C30 C31 1.382 1_556 S
C30 H52 0.950 . S
C31 N27 1.332 . S
C31 C30 1.382 1_554 S
C31 H33 0.952 . S
C32 N27 1.332 . S
C32 C28 1.382 1_554 S
C32 H34 0.948 . S
H33 C31 0.952 . S
H34 C32 0.948 . S
H35 C24 0.952 . S
H36 C26 0.948 . S
C37 C3 1.395 . S
C37 C7 1.391 . S
C38 C0 1.389 . S
C38 C20 1.392 . S
C39 C10 1.392 . S
C39 C12 1.389 . S
C40 C15 1.395 . S
C40 C17 1.391 . S
H41 C1 0.951 . S
H42 C2 0.950 . S
H43 C8 0.949 . S
H44 C9 0.950 . S
H45 C13 0.951 . S
H46 C14 0.950 . S
H47 C18 0.949 . S
H48 C19 0.950 . S
H49 C23 0.950 . S
H50 C25 0.950 . S
H51 C28 0.950 . S
H52 C30 0.950 . S
C53 C54 1.443 . S
C53 N57 1.376 . S
C53 C91 1.389 . S
C54 C53 1.443 . S
C54 C55 1.340 . S
C54 H94 0.951 . S
C55 C54 1.340 . S
C55 C56 1.439 . S
C55 H95 0.950 . S
C56 C55 1.439 . S
C56 N57 1.374 . S
C56 C90 1.395 . S
N57 C53 1.376 . S
N57 C56 1.374 . S
N57 Co58 2.008 . S
Co58 N57 2.008 . S
Co58 N59 1.995 . S
Co58 N64 2.008 . S
Co58 N69 1.995 . S
Co58 N74 2.282 . S
Co58 N80 2.282 . S
N59 Co58 1.995 . S
N59 C60 1.376 . S
N59 C63 1.383 . S
C60 N59 1.376 . S
C60 C61 1.446 . S
C60 C90 1.391 . S
C61 C60 1.446 . S
C61 C62 1.339 . S
C61 H96 0.949 . S
C62 C61 1.339 . S
C62 C63 1.439 . S
C62 H97 0.950 . S
C63 N59 1.383 . S
C63 C62 1.439 . S
C63 C92 1.392 . S
N64 Co58 2.008 . S
N64 C65 1.376 . S
N64 C68 1.374 . S
C65 N64 1.376 . S
C65 C66 1.443 . S
C65 C92 1.389 . S
C66 C65 1.443 . S
C66 C67 1.340 . S
C66 H98 0.951 . S
C67 C66 1.340 . S
C67 C68 1.439 . S
C67 H99 0.950 . S
C68 N64 1.374 . S
C68 C67 1.439 . S
C68 C93 1.395 . S
N69 Co58 1.995 . S
N69 C70 1.376 . S
N69 C73 1.383 . S
C70 N69 1.376 . S
C70 C71 1.446 . S
C70 C93 1.391 . S
C71 C70 1.446 . S
C71 C72 1.339 . S
C71 H100 0.949 . S
C72 C71 1.339 . S
C72 C73 1.439 . S
C72 H101 0.950 . S
C73 N69 1.383 . S
C73 C72 1.439 . S
C73 C91 1.392 . S
N74 Co58 2.282 . S
N74 C77 1.332 . S
N74 C79 1.332 . S
C75 C76 1.386 . S
C75 C78 1.388 . S
C76 C75 1.386 . S
C76 C77 1.382 . S
C76 H102 0.950 . S
C77 N74 1.332 . S
C77 C76 1.382 . S
C77 H88 0.952 . S
C78 C75 1.388 . S
C78 C79 1.382 . S
C78 H103 0.950 . S
C79 N74 1.332 . S
C79 C78 1.382 . S
C79 H89 0.948 . S
N80 Co58 2.282 . S
N80 C84 1.332 . S
N80 C85 1.332 . S
C81 C82 1.388 . S
C81 C85 1.382 . S
C81 H104 0.950 . S
C82 C81 1.388 . S
C82 C83 1.386 . S
C83 C82 1.386 . S
C83 C84 1.382 . S
C83 H105 0.950 . S
C84 N80 1.332 . S
C84 C83 1.382 . S
C84 H86 0.952 . S
C85 N80 1.332 . S
C85 C81 1.382 . S
C85 H87 0.948 . S
H86 C84 0.952 . S
H87 C85 0.948 . S
H88 C77 0.952 . S
H89 C79 0.948 . S
C90 C56 1.395 . S
C90 C60 1.391 . S
C91 C53 1.389 . S
C91 C73 1.392 . S
C92 C63 1.392 . S
C92 C65 1.389 . S
C93 C68 1.395 . S
C93 C70 1.391 . S
H94 C54 0.951 . S
H95 C55 0.950 . S
H96 C61 0.949 . S
H97 C62 0.950 . S
H98 C66 0.951 . S
H99 C67 0.950 . S
H100 C71 0.949 . S
H101 C72 0.950 . S
H102 C76 0.950 . S
H103 C78 0.950 . S
H104 C81 0.950 . S
H105 C83 0.950 . S
C106 C107 1.443 . S
C106 N110 1.376 . S
C106 C144 1.389 . S
C107 C106 1.443 . S
C107 C108 1.340 . S
C107 H147 0.951 . S
C108 C107 1.340 . S
C108 C109 1.439 . S
C108 H148 0.950 . S
C109 C108 1.439 . S
C109 N110 1.374 . S
C109 C143 1.395 . S
N110 C106 1.376 . S
N110 C109 1.374 . S
N110 Co111 2.008 . S
Co111 N110 2.008 . S
Co111 N112 1.995 . S
Co111 N117 2.008 . S
Co111 N122 1.995 . S
Co111 N127 2.282 . S
Co111 N133 2.282 . S
N112 Co111 1.995 . S
N112 C113 1.376 . S
N112 C116 1.383 . S
C113 N112 1.376 . S
C113 C114 1.446 . S
C113 C143 1.391 . S
C114 C113 1.446 . S
C114 C115 1.339 . S
C114 H149 0.949 . S
C115 C114 1.339 . S
C115 C116 1.439 . S
C115 H150 0.950 . S
C116 N112 1.383 . S
C116 C115 1.439 . S
C116 C145 1.392 . S
N117 Co111 2.008 . S
N117 C118 1.376 . S
N117 C121 1.374 . S
C118 N117 1.376 . S
C118 C119 1.443 . S
C118 C145 1.389 . S
C119 C118 1.443 . S
C119 C120 1.340 . S
C119 H151 0.951 . S
C120 C119 1.340 . S
C120 C121 1.439 . S
C120 H152 0.950 . S
C121 N117 1.374 . S
C121 C120 1.439 . S
C121 C146 1.395 . S
N122 Co111 1.995 . S
N122 C123 1.376 . S
N122 C126 1.383 . S
C123 N122 1.376 . S
C123 C124 1.446 . S
C123 C146 1.391 . S
C124 C123 1.446 . S
C124 C125 1.339 . S
C124 H153 0.949 . S
C125 C124 1.339 . S
C125 C126 1.439 . S
C125 H154 0.950 . S
C126 N122 1.383 . S
C126 C125 1.439 . S
C126 C144 1.392 . S
N127 Co111 2.282 . S
N127 C130 1.332 . S
N127 C132 1.332 . S
C128 C129 1.386 . S
C128 C131 1.388 . S
C129 C128 1.386 . S
C129 C130 1.382 . S
C129 H155 0.950 . S
C130 N127 1.332 . S
C130 C129 1.382 . S
C130 H141 0.952 . S
C131 C128 1.388 . S
C131 C132 1.382 . S
C131 H156 0.950 . S
C132 N127 1.332 . S
C132 C131 1.382 . S
C132 H142 0.948 . S
N133 Co111 2.282 . S
N133 C137 1.332 . S
N133 C138 1.332 . S
C134 C135 1.388 . S
C134 C138 1.382 . S
C134 H157 0.950 . S
C135 C134 1.388 . S
C135 C136 1.386 . S
C136 C135 1.386 . S
C136 C137 1.382 . S
C136 H158 0.950 . S
C137 N133 1.332 . S
C137 C136 1.382 . S
C137 H139 0.952 . S
C138 N133 1.332 . S
C138 C134 1.382 . S
C138 H140 0.948 . S
H139 C137 0.952 . S
H140 C138 0.948 . S
H141 C130 0.952 . S
H142 C132 0.948 . S
C143 C109 1.395 . S
C143 C113 1.391 . S
C144 C106 1.389 . S
C144 C126 1.392 . S
C145 C116 1.392 . S
C145 C118 1.389 . S
C146 C121 1.395 . S
C146 C123 1.391 . S
H147 C107 0.951 . S
H148 C108 0.950 . S
H149 C114 0.949 . S
H150 C115 0.950 . S
H151 C119 0.951 . S
H152 C120 0.950 . S
H153 C124 0.949 . S
H154 C125 0.950 . S
H155 C129 0.950 . S
H156 C131 0.950 . S
H157 C134 0.950 . S
H158 C136 0.950 . S
C159 C160 1.443 . S
C159 N163 1.376 . S
C159 C197 1.389 . S
C160 C159 1.443 . S
C160 C161 1.340 . S
C160 H200 0.951 . S
C161 C160 1.340 . S
C161 C162 1.439 . S
C161 H201 0.950 . S
C162 C161 1.439 . S
C162 N163 1.374 . S
C162 C196 1.395 . S
N163 C159 1.376 . S
N163 C162 1.374 . S
N163 Co164 2.008 . S
Co164 N163 2.008 . S
Co164 N165 1.995 . S
Co164 N170 2.008 . S
Co164 N175 1.995 . S
Co164 N180 2.282 . S
Co164 N186 2.282 . S
N165 Co164 1.995 . S
N165 C166 1.376 . S
N165 C169 1.383 . S
C166 N165 1.376 . S
C166 C167 1.446 . S
C166 C196 1.391 . S
C167 C166 1.446 . S
C167 C168 1.339 . S
C167 H202 0.949 . S
C168 C167 1.339 . S
C168 C169 1.439 . S
C168 H203 0.950 . S
C169 N165 1.383 . S
C169 C168 1.439 . S
C169 C198 1.392 . S
N170 Co164 2.008 . S
N170 C171 1.376 . S
N170 C174 1.374 . S
C171 N170 1.376 . S
C171 C172 1.443 . S
C171 C198 1.389 . S
C172 C171 1.443 . S
C172 C173 1.340 . S
C172 H204 0.951 . S
C173 C172 1.340 . S
C173 C174 1.439 . S
C173 H205 0.950 . S
C174 N170 1.374 . S
C174 C173 1.439 . S
C174 C199 1.395 . S
N175 Co164 1.995 . S
N175 C176 1.376 . S
N175 C179 1.383 . S
C176 N175 1.376 . S
C176 C177 1.446 . S
C176 C199 1.391 . S
C177 C176 1.446 . S
C177 C178 1.339 . S
C177 H206 0.949 . S
C178 C177 1.339 . S
C178 C179 1.439 . S
C178 H207 0.950 . S
C179 N175 1.383 . S
C179 C178 1.439 . S
C179 C197 1.392 . S
N180 Co164 2.282 . S
N180 C183 1.332 . S
N180 C185 1.332 . S
C181 C182 1.386 . S
C181 C184 1.388 . S
C182 C181 1.386 . S
C182 C183 1.382 . S
C182 H208 0.950 . S
C183 N180 1.332 . S
C183 C182 1.382 . S
C183 H194 0.952 . S
C184 C181 1.388 . S
C184 C185 1.382 . S
C184 H209 0.950 . S
C185 N180 1.332 . S
C185 C184 1.382 . S
C185 H195 0.948 . S
N186 Co164 2.282 . S
N186 C190 1.332 . S
N186 C191 1.332 . S
C187 C188 1.388 . S
C187 C191 1.382 . S
C187 H210 0.950 . S
C188 C187 1.388 . S
C188 C189 1.386 . S
C189 C188 1.386 . S
C189 C190 1.382 . S
C189 H211 0.950 . S
C190 N186 1.332 . S
C190 C189 1.382 . S
C190 H192 0.952 . S
C191 N186 1.332 . S
C191 C187 1.382 . S
C191 H193 0.948 . S
H192 C190 0.952 . S
H193 C191 0.948 . S
H194 C183 0.952 . S
H195 C185 0.948 . S
C196 C162 1.395 . S
C196 C166 1.391 . S
C197 C159 1.389 . S
C197 C179 1.392 . S
C198 C169 1.392 . S
C198 C171 1.389 . S
C199 C174 1.395 . S
C199 C176 1.391 . S
H200 C160 0.951 . S
H201 C161 0.950 . S
H202 C167 0.949 . S
H203 C168 0.950 . S
H204 C172 0.951 . S
H205 C173 0.950 . S
H206 C177 0.949 . S
H207 C178 0.950 . S
H208 C182 0.950 . S
H209 C184 0.950 . S
H210 C187 0.950 . S
H211 C189 0.950 . S
C212 C213 1.443 . S
C212 N216 1.376 . S
C212 C250 1.389 . S
C213 C212 1.443 . S
C213 C214 1.340 . S
C213 H253 0.951 . S
C214 C213 1.340 . S
C214 C215 1.439 . S
C214 H254 0.950 . S
C215 C214 1.439 . S
C215 N216 1.374 . S
C215 C249 1.395 . S
N216 C212 1.376 . S
N216 C215 1.374 . S
N216 Co217 2.008 . S
Co217 N216 2.008 . S
Co217 N218 1.995 . S
Co217 N223 2.008 . S
Co217 N228 1.995 . S
Co217 N233 2.282 . S
Co217 N239 2.282 . S
N218 Co217 1.995 . S
N218 C219 1.376 . S
N218 C222 1.383 . S
C219 N218 1.376 . S
C219 C220 1.446 . S
C219 C249 1.391 . S
C220 C219 1.446 . S
C220 C221 1.339 . S
C220 H255 0.949 . S
C221 C220 1.339 . S
C221 C222 1.439 . S
C221 H256 0.950 . S
C222 N218 1.383 . S
C222 C221 1.439 . S
C222 C251 1.392 . S
N223 Co217 2.008 . S
N223 C224 1.376 . S
N223 C227 1.374 . S
C224 N223 1.376 . S
C224 C225 1.443 . S
C224 C251 1.389 . S
C225 C224 1.443 . S
C225 C226 1.340 . S
C225 H257 0.951 . S
C226 C225 1.340 . S
C226 C227 1.439 . S
C226 H258 0.950 . S
C227 N223 1.374 . S
C227 C226 1.439 . S
C227 C252 1.395 . S
N228 Co217 1.995 . S
N228 C229 1.376 . S
N228 C232 1.383 . S
C229 N228 1.376 . S
C229 C230 1.446 . S
C229 C252 1.391 . S
C230 C229 1.446 . S
C230 C231 1.339 . S
C230 H259 0.949 . S
C231 C230 1.339 . S
C231 C232 1.439 . S
C231 H260 0.950 . S
C232 N228 1.383 . S
C232 C231 1.439 . S
C232 C250 1.392 . S
N233 Co217 2.282 . S
N233 C236 1.332 . S
N233 C238 1.332 . S
C234 C235 1.386 . S
C234 C237 1.388 . S
C235 C234 1.386 . S
C235 C236 1.382 . S
C235 H261 0.950 . S
C236 N233 1.332 . S
C236 C235 1.382 . S
C236 H247 0.952 . S
C237 C234 1.388 . S
C237 C238 1.382 . S
C237 H262 0.950 . S
C238 N233 1.332 . S
C238 C237 1.382 . S
C238 H248 0.948 . S
N239 Co217 2.282 . S
N239 C243 1.332 . S
N239 C244 1.332 . S
C240 C241 1.388 . S
C240 C244 1.382 . S
C240 H263 0.950 . S
C241 C240 1.388 . S
C241 C242 1.386 . S
C242 C241 1.386 . S
C242 C243 1.382 . S
C242 H264 0.950 . S
C243 N239 1.332 . S
C243 C242 1.382 . S
C243 H245 0.952 . S
C244 N239 1.332 . S
C244 C240 1.382 . S
C244 H246 0.948 . S
H245 C243 0.952 . S
H246 C244 0.948 . S
H247 C236 0.952 . S
H248 C238 0.948 . S
C249 C215 1.395 . S
C249 C219 1.391 . S
C250 C212 1.389 . S
C250 C232 1.392 . S
C251 C222 1.392 . S
C251 C224 1.389 . S
C252 C227 1.395 . S
C252 C229 1.391 . S
H253 C213 0.951 . S
H254 C214 0.950 . S
H255 C220 0.949 . S
H256 C221 0.950 . S
H257 C225 0.951 . S
H258 C226 0.950 . S
H259 C230 0.949 . S
H260 C231 0.950 . S
H261 C235 0.950 . S
H262 C237 0.950 . S
H263 C240 0.950 . S
H264 C242 0.950 . S
C265 C266 1.443 . S
C265 N269 1.376 . S
C265 C303 1.389 . S
C266 C265 1.443 . S
C266 C267 1.340 . S
C266 H306 0.951 . S
C267 C266 1.340 . S
C267 C268 1.439 . S
C267 H307 0.950 . S
C268 C267 1.439 . S
C268 N269 1.374 . S
C268 C302 1.395 . S
N269 C265 1.376 . S
N269 C268 1.374 . S
N269 Co270 2.008 . S
Co270 N269 2.008 . S
Co270 N271 1.995 . S
Co270 N276 2.008 . S
Co270 N281 1.995 . S
Co270 N286 2.282 . S
Co270 N292 2.282 . S
N271 Co270 1.995 . S
N271 C272 1.376 . S
N271 C275 1.383 . S
C272 N271 1.376 . S
C272 C273 1.446 . S
C272 C302 1.391 . S
C273 C272 1.446 . S
C273 C274 1.339 . S
C273 H308 0.949 . S
C274 C273 1.339 . S
C274 C275 1.439 . S
C274 H309 0.950 . S
C275 N271 1.383 . S
C275 C274 1.439 . S
C275 C304 1.392 . S
N276 Co270 2.008 . S
N276 C277 1.376 . S
N276 C280 1.374 . S
C277 N276 1.376 . S
C277 C278 1.443 1_556 S
C277 C304 1.389 . S
C278 C277 1.443 1_554 S
C278 C279 1.340 1_554 S
C278 H310 0.951 . S
C279 C278 1.340 1_556 S
C279 C280 1.439 . S
C279 H311 0.950 1_556 S
C280 N276 1.374 . S
C280 C279 1.439 . S
C280 C305 1.395 . S
N281 Co270 1.995 . S
N281 C282 1.376 . S
N281 C285 1.383 . S
C282 N281 1.376 . S
C282 C283 1.446 . S
C282 C305 1.391 . S
C283 C282 1.446 . S
C283 C284 1.339 . S
C283 H312 0.949 . S
C284 C283 1.339 . S
C284 C285 1.439 . S
C284 H313 0.950 . S
C285 N281 1.383 . S
C285 C284 1.439 . S
C285 C303 1.392 . S
N286 Co270 2.282 . S
N286 C289 1.332 . S
N286 C291 1.332 . S
C287 C288 1.386 . S
C287 C290 1.388 . S
C288 C287 1.386 . S
C288 C289 1.382 . S
C288 H314 0.950 . S
C289 N286 1.332 . S
C289 C288 1.382 . S
C289 H300 0.952 . S
C290 C287 1.388 . S
C290 C291 1.382 . S
C290 H315 0.950 . S
C291 N286 1.332 . S
C291 C290 1.382 . S
C291 H301 0.948 . S
N292 Co270 2.282 . S
N292 C296 1.332 . S
N292 C297 1.332 . S
C293 C294 1.388 . S
C293 C297 1.382 1_554 S
C293 H316 0.950 . S
C294 C293 1.388 . S
C294 C295 1.386 1_554 S
C295 C294 1.386 1_556 S
C295 C296 1.382 . S
C295 H317 0.950 . S
C296 N292 1.332 . S
C296 C295 1.382 . S
C296 H298 0.952 . S
C297 N292 1.332 . S
C297 C293 1.382 1_556 S
C297 H299 0.948 . S
H298 C296 0.952 . S
H299 C297 0.948 . S
H300 C289 0.952 . S
H301 C291 0.948 . S
C302 C268 1.395 . S
C302 C272 1.391 . S
C303 C265 1.389 . S
C303 C285 1.392 . S
C304 C275 1.392 . S
C304 C277 1.389 . S
C305 C280 1.395 . S
C305 C282 1.391 . S
H306 C266 0.951 . S
H307 C267 0.950 . S
H308 C273 0.949 . S
H309 C274 0.950 . S
H310 C278 0.951 . S
H311 C279 0.950 1_554 S
H312 C283 0.949 . S
H313 C284 0.950 . S
H314 C288 0.950 . S
H315 C290 0.950 . S
H316 C293 0.950 . S
H317 C295 0.950 . S
C318 C319 1.170 . S
C318 C320 1.380 . S
C319 C318 1.170 . S
C320 C318 1.380 . S
C320 C321 1.170 1_455 S
C321 C320 1.170 1_655 S
C322 C323 1.165 1_544 S
C322 C324 1.385 . S
C323 C322 1.165 1_566 S
C324 C322 1.385 . S
C324 C325 1.170 . S
C325 C324 1.170 . S
C326 C327 1.170 . S
C326 C328 1.380 . S
C327 C326 1.170 . S
C328 C326 1.380 . S
C328 C329 1.170 . S
C329 C328 1.170 . S
C330 C331 1.170 . S
C330 C332 1.380 . S
C331 C330 1.170 . S
C332 C330 1.380 . S
C332 C333 1.170 1_655 S
C333 C332 1.170 1_455 S
C334 C335 1.170 1_565 S
C334 C336 1.380 . S
C335 C334 1.170 1_545 S
C336 C334 1.380 . S
C336 C337 1.170 . S
C337 C336 1.170 . S
C338 C339 1.170 . S
C338 C340 1.380 . S
C339 C338 1.170 . S
C340 C338 1.380 . S
C340 C341 1.170 . S
C341 C340 1.170 . S
C342 C343 1.170 . S
C342 C344 1.380 . S
C343 C342 1.170 . S
C344 C342 1.380 . S
C344 C345 1.170 . S
C345 C344 1.170 . S
C346 C347 1.170 . S
C346 C348 1.380 . S
C347 C346 1.170 . S
C348 C346 1.380 . S
C348 C349 1.170 . S
C349 C348 1.170 . S
C350 C351 1.170 . S
C350 C352 1.380 . S
C351 C350 1.170 . S
C352 C350 1.380 . S
C352 C353 1.170 . S
C353 C352 1.170 . S
C354 C355 1.170 . S
C354 C356 1.380 . S
C355 C354 1.170 . S
C356 C354 1.380 . S
C356 C357 1.170 . S
C357 C356 1.170 . S
C358 C359 1.170 . S
C358 C360 1.380 . S
C359 C358 1.170 . S
C360 C358 1.380 . S
C360 C361 1.170 . S
C361 C360 1.170 . S
C362 C363 1.170 . S
C362 C364 1.380 . S
C363 C362 1.170 . S
C364 C362 1.380 . S
C364 C365 1.170 . S
C365 C364 1.170 . S
C319 C39 1.865 1_556 S
C321 C181 1.882 . S
C323 C234 1.780 . S
C325 C92 1.793 . S
C327 C128 1.840 . S
C329 C304 1.809 1_554 S
C331 C198 1.881 . S
C333 C22 1.874 . S
C335 C75 1.786 . S
C337 C251 1.783 . S
C339 C287 1.833 . S
C341 C145 1.809 . S
C343 C38 1.934 . S
C345 C144 1.941 . S
C347 C91 1.843 . S
C349 C188 1.806 . S
C351 C241 1.650 . S
C353 C135 1.657 . S
C355 C303 1.938 . S
C357 C197 1.939 . S
C359 C250 1.847 . S
C361 C29 1.817 . S
C363 C294 1.670 . S
C365 C82 1.659 . S
