# Generated by pormake.
# Topology sxb, (6)-cn, num edge types: 1
# Building blocks:
#     Node 0, Type 0, BuildingBlock: GEDQOX_clean_sbu_0, # of connection points: 6
#     Node 1, Type 0, BuildingBlock: GEDQOX_clean_sbu_0, # of connection points: 6
#     Node 2, Type 0, BuildingBlock: GEDQOX_clean_sbu_0, # of connection points: 6
#     Node 3, Type 0, BuildingBlock: GEDQOX_clean_sbu_0, # of connection points: 6
#     Edge 4, Type (0, 0), BuildingBlock: KIFKEQ_clean_linker_1, # of connection points: 2
#     Edge 5, Type (0, 0), BuildingBlock: KIFKEQ_clean_linker_1, # of connection points: 2
#     Edge 6, Type (0, 0), BuildingBlock: KIFKEQ_clean_linker_1, # of connection points: 2
#     Edge 7, Type (0, 0), BuildingBlock: KIFKEQ_clean_linker_1, # of connection points: 2
#     Edge 8, Type (0, 0), BuildingBlock: KIFKEQ_clean_linker_1, # of connection points: 2
#     Edge 9, Type (0, 0), BuildingBlock: KIFKEQ_clean_linker_1, # of connection points: 2
#     Edge 10, Type (0, 0), BuildingBlock: KIFKEQ_clean_linker_1, # of connection points: 2
#     Edge 11, Type (0, 0), BuildingBlock: KIFKEQ_clean_linker_1, # of connection points: 2
#     Edge 12, Type (0, 0), BuildingBlock: KIFKEQ_clean_linker_1, # of connection points: 2
#     Edge 13, Type (0, 0), BuildingBlock: KIFKEQ_clean_linker_1, # of connection points: 2
#     Edge 14, Type (0, 0), BuildingBlock: KIFKEQ_clean_linker_1, # of connection points: 2
#     Edge 15, Type (0, 0), BuildingBlock: KIFKEQ_clean_linker_1, # of connection points: 2
# Relax obj value: 0.389
# Max RMSD: 0.131
# Mean RMSD: 0.081
data_MOF--net-sxb--node1-GEDQOX_clean_sbu_0--edge1-KIFKEQ_clean_linker_1
_symmetry_space_group_name_H-M    P1
_symmetry_Int_Tables_number       1
_symmetry_cell_setting            triclinic
loop_
_symmetry_equiv_pos_as_xyz
'x, y, z'
_cell_length_a     16.744866
_cell_length_b     35.707312
_cell_length_c     30.68922
_cell_angle_alpha  88.364644
_cell_angle_beta   94.1598
_cell_angle_gamma 114.57559
loop_
_atom_site_label
_atom_site_type_symbol
_atom_site_fract_x
_atom_site_fract_y
_atom_site_fract_z
_atom_type_partial_charge
Nd0 Nd 0.26439 0.1206 0.95596 0.0
Nd1 Nd 1.18098 1.03763 0.94299 0.0
C2 C 0.31529 0.19706 0.98309 0.0
C3 C 0.26793 0.2167 0.0051 0.0
C4 C 1.20361 0.19393 0.03395 0.0
C5 C 1.14715 0.20987 0.04853 0.0
C6 C 1.15349 0.24864 0.03413 0.0
C7 C 1.22132 0.27228 0.00721 0.0
C8 C 0.27812 0.25638 -0.00717 0.0
C9 C 0.25618 0.10161 0.86826 0.0
C10 C 1.04269 0.07968 0.94643 0.0
C11 C 1.12514 0.95969 0.91957 0.0
C12 C 1.14763 0.92589 0.9354 0.0
C13 C 1.16733 0.90265 0.90544 0.0
C14 C 1.2015 0.87464 0.9202 0.0
C15 C 1.2161 0.86933 0.96526 0.0
C16 C 1.1912 0.8909 -0.00483 0.0
C17 C 1.15781 0.91916 0.9804 0.0
C18 C 1.19177 1.05542 0.03137 0.0
C19 C 0.40581 0.07939 0.95187 0.0
O20 O 0.3321 0.16933 0.00567 0.0
O21 O 0.28563 0.18535 0.943 0.0
O22 O 0.32635 0.12658 0.89024 0.0
O23 O 1.19241 0.08649 0.89265 0.0
O24 O 1.11487 0.10913 0.96522 0.0
O25 O 1.05341 1.04929 0.92767 0.0
O26 O 1.187 0.98982 0.90028 0.0
O27 O 1.08486 0.97265 0.94622 0.0
O28 O 1.1232 1.0288 0.01012 0.0
O29 O 0.25381 1.07162 0.00619 0.0
O30 O 0.33135 1.04601 0.94263 0.0
O31 O 0.39829 0.11377 0.96099 0.0
H32 H 1.19419 0.16301 0.04362 0.0
H33 H 1.0963 0.19117 0.06964 0.0
H34 H 1.22722 0.30202 -0.00499 0.0
H35 H 0.32682 0.27414 0.97024 0.0
H36 H 1.16024 0.90758 0.87064 0.0
H37 H 1.22116 0.85898 0.89626 0.0
H38 H 1.20057 0.88707 0.03004 0.0
H39 H 1.14326 0.93683 0.00426 0.0
Nd40 Nd 1.15807 0.07972 0.44951 0.0
Nd41 Nd 0.31173 0.07726 0.45387 0.0
C42 C 1.02701 0.09415 0.47441 0.0
C43 C 1.00532 0.09302 0.5203 0.0
C44 C 1.07131 0.11427 0.55303 0.0
C45 C 1.05413 0.10839 0.59719 0.0
C46 C 0.97118 0.08065 0.60955 0.0
C47 C 0.90509 1.05984 0.5767 0.0
C48 C 0.92204 1.06596 0.5326 0.0
C49 C 1.18808 1.06862 0.36391 0.0
C50 C 1.14553 0.98845 0.44754 0.0
C51 C 0.45455 1.06398 0.46795 0.0
C52 C 0.50492 1.06983 0.51056 0.0
C53 C 0.52391 1.03781 0.52882 0.0
C54 C 0.55758 1.04022 0.57221 0.0
C55 C 0.57195 1.07452 0.59841 0.0
C56 C 0.55289 0.10656 0.57992 0.0
C57 C 0.52042 0.10437 0.53646 0.0
C58 C 0.26801 0.09024 0.53675 0.0
C59 C 0.33131 0.16883 0.44377 0.0
O60 O 1.10124 0.12367 0.46427 0.0
O61 O 1.01518 1.05874 0.45811 0.0
O62 O 1.11268 1.05276 0.38093 0.0
O63 O 0.24753 0.09177 0.39127 0.0
O64 O 1.10826 1.01002 0.46464 0.0
O65 O 1.22338 1.00927 0.43205 0.0
O66 O 0.45535 0.09709 0.44845 0.0
O67 O 0.37578 1.03437 0.46728 0.0
O68 O 0.33858 0.11367 0.51868 0.0
O69 O 1.21962 1.06286 0.50994 0.0
O70 O 0.36958 0.14546 0.43213 0.0
O71 O 0.25151 0.1501 0.45789 0.0
H72 H 1.13702 0.1348 0.54467 0.0
H73 H 1.10598 0.12514 0.62163 0.0
H74 H 0.83933 1.03929 0.58498 0.0
H75 H 0.87056 1.04889 0.50812 0.0
H76 H 0.51104 1.01057 0.50976 0.0
H77 H 0.57374 1.01544 0.58496 0.0
H78 H 0.5628 0.13334 0.59904 0.0
H79 H 0.50551 0.12943 0.52352 0.0
Nd80 Nd 0.78615 0.62385 0.95737 0.0
Nd81 Nd 0.70216 0.54131 0.94827 0.0
C82 C 0.83877 0.70171 0.9802 0.0
C83 C 0.7904 0.72443 -0.0049 0.0
C84 C 0.72046 0.70528 0.02224 0.0
C85 C 0.66247 0.72319 0.02862 0.0
C86 C 0.67308 0.76016 0.00751 0.0
C87 C 0.74645 0.78064 0.98281 0.0
C88 C 0.80493 0.76289 0.97673 0.0
C89 C 0.77492 0.60183 0.87039 0.0
C90 C 0.56415 0.5835 0.94817 0.0
C91 C 0.64491 0.46194 0.93057 0.0
C92 C 0.66612 0.42863 0.94951 0.0
C93 C 0.69182 0.4053 0.92241 0.0
C94 C 0.7227 0.37712 0.94048 0.0
C95 C 0.72787 0.37163 0.98604 0.0
C96 C 0.69772 0.39354 0.01292 0.0
C97 C 0.66761 0.42195 -0.00512 0.0
C98 C 0.71591 0.56325 0.03559 0.0
C99 C 0.92707 0.5826 0.95525 0.0
O100 O 0.84512 0.67368 0.00672 0.0
O101 O 0.81854 0.68894 0.93982 0.0
O102 O 0.84615 0.62671 0.89171 0.0
O103 O 0.71172 0.58783 0.89526 0.0
O104 O 0.63687 0.61369 0.96557 0.0
O105 O 0.57436 0.55224 0.93118 0.0
O106 O 0.70702 0.49055 0.90983 0.0
O107 O 0.60509 0.47694 0.95524 0.0
O108 O 0.64498 0.53763 0.0151 0.0
O109 O 0.77768 0.57701 0.01003 0.0
O110 O 0.85223 0.54922 0.94668 0.0
O111 O 0.91991 0.61714 0.9638 0.0
H112 H 0.70739 0.67532 0.03641 0.0
H113 H 0.6059 0.70668 0.04744 0.0
H114 H 0.75604 0.80937 0.96649 0.0
H115 H 0.8583 0.77795 0.95556 0.0
H116 H 0.69136 0.41009 0.88737 0.0
H117 H 0.7466 0.36121 0.91885 0.0
H118 H 0.69974 0.38958 0.04805 0.0
H119 H 0.6482 0.43957 0.01665 0.0
Nd120 Nd 0.66325 0.5815 0.45047 0.0
Nd121 Nd 0.81978 0.57848 0.45585 0.0
C122 C 0.51662 0.58134 0.47524 0.0
C123 C 0.48299 0.56913 0.51883 0.0
C124 C 0.48345 0.53337 0.53925 0.0
C125 C 0.46728 0.52596 0.58346 0.0
C126 C 0.4526 0.55464 0.60824 0.0
C127 C 0.45173 0.59021 0.58762 0.0
C128 C 0.4665 0.59729 0.5434 0.0
C129 C 0.71916 0.59175 0.36581 0.0
C130 C 0.6498 0.48809 0.44727 0.0
C131 C 0.96526 0.56723 0.46836 0.0
C132 C 1.01556 0.57122 0.51072 0.0
C133 C 1.02979 0.53737 0.52725 0.0
C134 C 1.05918 0.53668 0.57088 0.0
C135 C 1.07503 0.56988 0.59894 0.0
C136 C 1.06309 0.6043 0.58209 0.0
C137 C 1.03334 0.60492 0.53843 0.0
C138 C 0.77665 0.59338 0.53805 0.0
C139 C 0.83238 0.66897 0.44569 0.0
O140 O 0.58998 0.6145 0.47565 0.0
O141 O 0.51712 0.5524 0.45019 0.0
O142 O 0.67569 0.61011 0.38198 0.0
O143 O 0.73033 0.56706 0.39353 0.0
O144 O 0.60374 0.5101 0.44967 0.0
O145 O 0.73629 0.50754 0.44673 0.0
O146 O 0.96436 0.6008 0.4507 0.0
O147 O 0.88734 0.53702 0.46702 0.0
O148 O 0.84857 0.61553 0.52034 0.0
O149 O 0.72755 0.56607 0.51131 0.0
O150 O 0.8653 0.64527 0.42895 0.0
O151 O 0.75812 0.65026 0.46508 0.0
H152 H 0.49845 0.5116 0.52142 0.0
H153 H 0.46697 0.49804 0.59838 0.0
H154 H 0.43751 0.61223 0.60546 0.0
H155 H 0.46754 0.6254 0.52863 0.0
H156 H 1.01516 0.51077 0.50678 0.0
H157 H 1.07044 0.51023 0.58251 0.0
H158 H 1.07569 0.63049 0.6028 0.0
H159 H 1.02167 0.63124 0.52683 0.0
H160 H 0.59443 0.77912 0.93568 0.0
H161 H 0.58924 0.77102 0.07622 0.0
H162 H 0.47103 0.79866 0.93178 0.0
H163 H 0.4648 0.79084 0.0723 0.0
H164 H 0.34577 0.88943 0.03097 0.0
H165 H 0.44806 0.85769 0.04683 0.0
H166 H 0.30747 0.76489 0.94876 0.0
H167 H 1.20309 0.79594 0.93344 0.0
C168 C 0.5672 0.78192 0.96576 0.0
C169 C 0.6017 0.77414 0.00629 0.0
C170 C 0.49584 0.79243 0.96348 0.0
C171 C 0.45806 0.79569 0.00172 0.0
C172 C 0.49286 0.78829 0.0424 0.0
C173 C 0.56378 0.77713 0.04464 0.0
C174 C 0.3345 0.86139 0.01384 0.0
C175 C 0.26688 0.84546 0.98053 0.0
C176 C 0.39335 0.84333 0.02291 0.0
C177 C 0.38599 0.80929 -0.00141 0.0
C178 C 0.31494 0.79156 0.96748 0.0
C179 C 0.25559 0.80939 0.95865 0.0
H180 H 0.84222 0.38918 0.05847 0.0
H181 H 0.71677 0.29768 0.95711 0.0
H182 H 0.93398 0.35401 0.08344 0.0
H183 H 0.81224 0.26393 0.98039 0.0
H184 H 0.97624 0.20197 0.0324 0.0
H185 H 0.86055 0.22623 0.03348 0.0
H186 H 1.05759 0.35096 0.05225 0.0
H187 H 1.17294 0.32635 0.05371 0.0
C188 C 0.8328 0.36106 0.04206 0.0
C189 C 0.77289 0.34648 0.00541 0.0
C190 C 0.88625 0.34119 0.05609 0.0
C191 C 0.8815 0.30658 0.03353 0.0
C192 C 0.81738 0.29039 -0.00126 0.0
C193 C 0.76342 0.31006 0.98495 0.0
C194 C 0.99483 0.23437 0.03835 0.0
C195 C 1.08387 0.26237 0.04254 0.0
C196 C 0.92844 0.24832 0.03841 0.0
C197 C 0.94976 0.29056 0.04232 0.0
C198 C 1.03864 0.31815 0.0495 0.0
C199 C 1.10497 0.30416 0.04976 0.0
H200 H 0.4935 0.21876 0.4127 0.0
H201 H 0.27684 0.22602 0.47392 0.0
H202 H 0.56858 0.29391 0.41223 0.0
H203 H 0.35256 0.3009 0.47501 0.0
H204 H 0.47139 0.43798 0.44161 0.0
H205 H 0.39669 0.3631 0.43931 0.0
H206 H 0.64834 0.35576 0.44859 0.0
H207 H 0.72268 0.4309 0.44929 0.0
C208 C 0.46169 0.23629 0.42626 0.0
C209 C 0.37821 0.21559 0.44316 0.0
C210 C 0.50544 0.27987 0.42635 0.0
C211 C 0.46794 0.30481 0.44357 0.0
C212 C 0.38431 0.28382 0.46056 0.0
C213 C 0.34049 0.24032 0.46024 0.0
C214 C 0.51115 0.42053 0.44302 0.0
C215 C 0.60384 0.44129 0.44555 0.0
C216 C 0.46788 0.37702 0.44207 0.0
C217 C 0.51515 0.35202 0.44393 0.0
C218 C 0.60814 0.37297 0.44638 0.0
C219 C 0.65142 0.41656 0.44707 0.0
H220 H 0.97401 0.93737 0.46371 0.0
H221 H 1.21331 0.93243 0.42776 0.0
H222 H 0.90017 0.86259 0.46147 0.0
H223 H 1.14117 0.85725 0.42752 0.0
H224 H 0.97489 0.7195 0.39935 0.0
H225 H 1.04817 0.7947 0.39818 0.0
H226 H 0.87208 0.80017 0.49149 0.0
H227 H 0.79707 0.72547 0.49071 0.0
C228 C 1.01147 0.92034 0.45562 0.0
C229 C 1.10028 0.94167 0.44591 0.0
C230 C 0.96892 0.87683 0.45469 0.0
C231 C 1.01343 0.85233 0.44462 0.0
C232 C 1.10264 0.87393 0.43483 0.0
C233 C 1.14487 0.91756 0.43523 0.0
C234 C 0.95154 0.73677 0.41949 0.0
C235 C 0.8791 0.71571 0.44493 0.0
C236 C 0.99436 0.78041 0.41915 0.0
C237 C 0.96734 0.80502 0.44466 0.0
C238 C 0.89512 0.78355 0.47038 0.0
C239 C 0.85182 0.74007 0.47027 0.0
H240 H 0.57373 0.14353 0.96665 0.0
H241 H 0.45458 1.01432 0.93592 0.0
H242 H 0.71973 0.1441 0.96507 0.0
H243 H 0.60066 1.01428 0.93523 0.0
H244 H 0.87881 1.02409 0.90973 0.0
H245 H 0.7329 1.02385 0.91067 0.0
H246 H 0.84385 0.13555 0.98708 0.0
H247 H 0.99002 0.13595 0.98502 0.0
C248 C 0.57783 0.11485 0.95972 0.0
C249 C 0.49885 0.07888 0.95144 0.0
C250 C 0.66358 0.11506 0.95902 0.0
C251 C 0.67699 0.07925 0.95 0.0
C252 C 0.59746 1.04319 0.9418 0.0
C253 C 0.51159 1.04303 0.94247 0.0
C254 C 0.87289 1.04884 0.92678 0.0
C255 C 0.94965 0.08007 0.94716 0.0
C256 C 0.78714 1.04861 0.92765 0.0
C257 C 0.77155 0.0796 0.94907 0.0
C258 C 0.84893 0.11092 0.96947 0.0
C259 C 0.93479 0.11114 0.96853 0.0
H260 H 0.54641 1.01526 0.66218 0.0
H261 H 0.69699 0.14442 0.63722 0.0
H262 H 0.65567 1.01732 0.71984 0.0
H263 H 0.80471 0.14676 0.69367 0.0
H264 H 0.87626 1.01034 0.65461 0.0
H265 H 0.7762 1.00898 0.70782 0.0
H266 H 0.91984 0.13974 0.7274 0.0
H267 H 1.01753 0.14163 0.67184 0.0
C268 C 0.60211 1.04428 0.6695 0.0
C269 C 0.61676 0.07885 0.64281 0.0
C270 C 0.665 1.04562 0.70275 0.0
C271 C 0.74556 0.0808 0.70779 0.0
C272 C 0.74797 0.11776 0.68876 0.0
C273 C 0.68522 0.11659 0.65578 0.0
C274 C 0.88775 1.03878 0.671 0.0
C275 C 0.94827 0.07668 0.65575 0.0
C276 C 0.83031 1.03821 0.70201 0.0
C277 C 0.83046 0.07578 0.71529 0.0
C278 C 0.9105 0.11096 0.71252 0.0
C279 C 0.96736 0.1121 0.68075 0.0
H280 H 0.97578 0.5171 0.94124 0.0
H281 H 1.09483 0.64721 0.96727 0.0
H282 H 1.12195 0.51722 0.94005 0.0
H283 H 0.24076 0.64795 0.96506 0.0
H284 H 0.51235 0.6413 0.98394 0.0
H285 H 0.36616 0.64072 0.98636 0.0
H286 H 0.25333 0.52584 0.91545 0.0
H287 H 0.39938 0.5263 0.91422 0.0
C288 C 1.03278 0.54603 0.94664 0.0
C289 C 1.02001 0.58208 0.95451 0.0
C290 C 1.1187 0.54628 0.94567 0.0
C291 C 1.19821 0.58266 0.95238 0.0
C292 C 1.18472 0.61867 0.96023 0.0
C293 C 1.09896 0.61835 0.96129 0.0
C294 C 0.4567 0.61576 0.96873 0.0
C295 C 0.4711 0.58388 0.94883 0.0
C296 C 0.37078 0.61541 0.96988 0.0
C297 C 0.29286 0.58315 0.95116 0.0
C298 C 0.308 0.55138 0.93114 0.0
C299 C 0.39383 0.55173 0.93008 0.0
H300 H 0.32978 0.48281 0.63851 0.0
H301 H 0.5104 0.60457 0.68121 0.0
H302 H 1.22912 0.48202 0.69067 0.0
H303 H 0.40901 0.60356 0.73475 0.0
H304 H 1.21266 0.63277 0.6407 0.0
H305 H 0.31223 0.62391 0.69583 0.0
H306 H 1.12474 0.49871 0.71677 0.0
H307 H 1.02483 0.50783 0.66003 0.0
C308 C 0.35016 0.50868 0.66071 0.0
C309 C 0.4239 0.54524 0.6533 0.0
C310 C 0.29192 0.50844 0.69111 0.0
C311 C 0.30539 0.5456 0.7119 0.0
C312 C 0.39241 0.57617 0.71531 0.0
C313 C 0.45072 0.57688 0.68455 0.0
C314 C 1.19093 0.60382 0.6582 0.0
C315 C 1.11405 0.57002 0.6439 0.0
C316 C 0.24841 0.59848 0.69042 0.0
C317 C 1.23094 0.55878 0.70733 0.0
C318 C 1.14377 0.52865 0.70155 0.0
C319 C 1.08643 0.53375 0.66887 0.0
H320 H 1.05403 1.03938 0.30103 0.0
H321 H 0.33734 0.09873 0.31647 0.0
H322 H 1.06008 1.03873 0.22258 0.0
H323 H 0.34427 0.09633 0.23688 0.0
H324 H 0.31783 0.11512 0.08559 0.0
H325 H 0.32168 0.12018 0.16554 0.0
H326 H 1.08855 1.00577 0.16697 0.0
H327 H 1.08285 1.00217 0.08811 0.0
C328 C 1.1181 1.05204 0.28767 0.0
C329 C 1.19518 1.06897 0.31543 0.0
C330 C 1.12174 1.05132 0.24224 0.0
C331 C 1.20278 1.06679 0.22252 0.0
C332 C 0.28037 0.08427 0.25033 0.0
C333 C 0.27658 0.08546 0.29614 0.0
C334 C 0.26762 0.09115 0.10321 0.0
C335 C 1.19964 1.05842 0.08022 0.0
C336 C 0.2699 0.09388 0.14921 0.0
C337 C 1.20463 1.06374 0.17348 0.0
C338 C 1.13862 1.03046 0.15009 0.0
C339 C 1.13571 1.02812 0.10446 0.0
H340 H 1.10896 1.06694 0.81032 0.0
H341 H 0.39248 0.12591 0.81588 0.0
H342 H 1.10522 1.06382 0.73017 0.0
H343 H 0.38949 0.12151 0.73699 0.0
H344 H 0.36863 0.14987 0.59493 0.0
H345 H 0.35915 0.15174 0.67335 0.0
H346 H 1.13447 1.03393 0.6667 0.0
H347 H 1.14286 1.03292 0.58712 0.0
C348 C 1.17046 0.0789 0.79451 0.0
C349 C 0.25103 0.09705 0.81964 0.0
C350 C 1.16846 0.07697 0.74848 0.0
C351 C 0.24706 0.09291 0.72643 0.0
C352 C 0.32728 0.10994 0.75209 0.0
C353 C 0.32914 0.11218 0.7977 0.0
C354 C 0.31691 0.12435 0.61006 0.0
C355 C 0.25711 0.09108 0.58462 0.0
C356 C 0.31177 0.12522 0.65538 0.0
C357 C 0.2471 0.09259 0.67718 0.0
C358 C 1.18534 1.05969 0.65146 0.0
C359 C 1.19033 1.05895 0.60576 0.0
H360 H 0.64549 0.62279 0.30013 0.0
H361 H 0.80941 0.55659 0.32181 0.0
H362 H 0.65031 0.61767 0.22132 0.0
H363 H 0.81571 0.55219 0.24227 0.0
H364 H 0.86507 0.59216 0.09282 0.0
H365 H 0.87161 0.59984 0.17281 0.0
H366 H 0.58946 0.55779 0.16699 0.0
H367 H 0.58284 0.54931 0.088 0.0
C368 C 0.68315 0.60733 0.28814 0.0
C369 C 0.72656 0.58986 0.31757 0.0
C370 C 0.68572 0.60431 0.24278 0.0
C371 C 0.73317 0.58441 0.2252 0.0
C372 C 0.77889 0.56792 0.25458 0.0
C373 C 0.77493 0.57027 0.30018 0.0
C374 C 0.80462 0.58466 0.10872 0.0
C375 C 0.72341 0.5701 0.08391 0.0
C376 C 0.80826 0.58882 0.15457 0.0
C377 C 0.73102 0.57949 0.17651 0.0
C378 C 0.65032 0.56554 0.15137 0.0
C379 C 0.64653 0.56057 0.10597 0.0
H380 H 0.65223 0.53594 0.58856 0.0
H381 H 0.87913 0.6524 0.59652 0.0
H382 H 0.6453 0.53628 0.66827 0.0
H383 H 0.87194 0.65339 0.67521 0.0
H384 H 0.90909 0.6255 0.81673 0.0
H385 H 0.90328 0.62192 0.73768 0.0
H386 H 0.61912 0.56557 0.73319 0.0
H387 H 0.62565 0.56801 0.81347 0.0
C388 C 0.69982 0.56188 0.60723 0.0
C389 C 0.7664 0.59406 0.58604 0.0
C390 C 0.69599 0.56214 0.65306 0.0
C391 C 0.75905 0.59452 0.67892 0.0
C392 C 0.82356 0.62723 0.65712 0.0
C393 C 0.82736 0.6269 0.61164 0.0
C394 C 0.84516 0.61223 0.79904 0.0
C395 C 0.76792 0.59733 0.82169 0.0
C396 C 0.84168 0.61047 0.75334 0.0
C397 C 0.76067 0.59414 0.72827 0.0
C398 C 0.68291 0.57827 0.75101 0.0
C399 C 0.68652 0.57979 0.79713 0.0
loop_
_geom_bond_atom_site_label_1
_geom_bond_atom_site_label_2
_geom_bond_distance
_geom_bond_site_symmetry_2
_ccdc_geom_bond_type
Nd0 C2 2.838 1_455 S
Nd0 O20 2.500 1_456 S
Nd0 O21 2.492 1_455 S
Nd0 O22 2.487 . S
Nd0 O23 2.682 1_545 S
Nd0 O24 2.410 1_455 S
Nd0 O29 2.414 1_456 S
Nd0 O31 2.424 . S
Nd1 C11 2.839 1_655 S
Nd1 O23 2.414 1_654 S
Nd1 O25 2.424 . S
Nd1 O26 2.500 1_654 S
Nd1 O27 2.492 1_655 S
Nd1 O28 2.487 . S
Nd1 O29 2.682 1_565 S
Nd1 O30 2.410 1_655 S
C2 Nd0 2.838 1_655 S
C2 C3 1.496 1_556 S
C2 O20 1.247 1_556 S
C2 O21 1.252 . S
C3 C2 1.496 1_554 S
C3 C4 1.366 . S
C3 C8 1.407 1_554 S
C4 C3 1.366 . S
C4 C5 1.392 . S
C4 H32 0.930 . S
C5 C4 1.392 . S
C5 C6 1.398 . S
C5 H33 0.929 . S
C6 C5 1.398 . S
C6 C7 1.352 1_554 S
C7 C6 1.352 1_556 S
C7 C8 1.384 . S
C7 H34 0.930 . S
C8 C3 1.407 1_556 S
C8 C7 1.384 . S
C8 H35 0.929 . S
C9 O22 1.241 . S
C9 O23 1.273 1_545 S
C10 O24 1.251 1_565 S
C10 O25 1.268 1_556 S
C11 Nd1 2.839 1_455 S
C11 C12 1.496 1_554 S
C11 O26 1.242 1_554 S
C11 O27 1.258 . S
C12 C11 1.496 1_556 S
C12 C13 1.366 . S
C12 C17 1.407 1_556 S
C13 C12 1.366 . S
C13 C14 1.392 . S
C13 H36 0.930 . S
C14 C13 1.392 . S
C14 C15 1.398 . S
C14 H37 0.929 . S
C15 C14 1.398 . S
C15 C16 1.352 1_556 S
C16 C15 1.352 1_554 S
C16 C17 1.384 . S
C16 H38 0.930 . S
C17 C12 1.407 1_554 S
C17 C16 1.384 . S
C17 H39 0.929 . S
C18 O28 1.241 . S
C18 O29 1.273 1_565 S
C19 O30 1.251 1_545 S
C19 O31 1.268 1_554 S
O20 Nd0 2.500 1_654 S
O20 C2 1.247 1_554 S
O21 Nd0 2.492 1_655 S
O21 C2 1.252 . S
O22 Nd0 2.487 . S
O22 C9 1.241 . S
O23 Nd0 2.682 1_565 S
O23 Nd1 2.414 1_456 S
O23 C9 1.273 1_565 S
O24 Nd0 2.410 1_655 S
O24 C10 1.251 1_545 S
O25 Nd1 2.424 . S
O25 C10 1.268 1_554 S
O26 Nd1 2.500 1_456 S
O26 C11 1.242 1_556 S
O27 Nd1 2.492 1_455 S
O27 C11 1.258 . S
O28 Nd1 2.487 . S
O28 C18 1.241 . S
O29 Nd0 2.414 1_654 S
O29 Nd1 2.682 1_545 S
O29 C18 1.273 1_545 S
O30 Nd1 2.410 1_455 S
O30 C19 1.251 1_565 S
O31 Nd0 2.424 . S
O31 C19 1.268 1_556 S
H32 C4 0.930 . S
H33 C5 0.929 . S
H34 C7 0.930 . S
H35 C8 0.929 . S
H36 C13 0.930 . S
H37 C14 0.929 . S
H38 C16 0.930 . S
H39 C17 0.929 . S
Nd40 C42 2.836 . S
Nd40 O60 2.500 . S
Nd40 O61 2.492 . S
Nd40 O62 2.487 . S
Nd40 O63 2.699 1_655 S
Nd40 O64 2.410 1_545 S
Nd40 O69 2.402 1_545 S
Nd40 O71 2.424 1_655 S
Nd41 C51 2.836 . S
Nd41 O63 2.398 1_565 S
Nd41 O65 2.424 1_455 S
Nd41 O66 2.500 . S
Nd41 O67 2.492 . S
Nd41 O68 2.487 . S
Nd41 O69 2.694 1_455 S
Nd41 O70 2.410 1_565 S
C42 Nd40 2.836 . S
C42 C43 1.498 1_545 S
C42 O60 1.258 . S
C42 O61 1.239 . S
C43 C42 1.498 1_565 S
C43 C44 1.366 . S
C43 C48 1.407 . S
C44 C43 1.366 . S
C44 C45 1.392 . S
C44 H72 0.930 . S
C45 C44 1.392 . S
C45 C46 1.398 . S
C45 H73 0.929 . S
C46 C45 1.398 . S
C46 C47 1.352 . S
C47 C46 1.352 . S
C47 C48 1.384 . S
C47 H74 0.930 . S
C48 C43 1.407 . S
C48 C47 1.384 . S
C48 H75 0.929 1_565 S
C49 O62 1.241 . S
C49 O63 1.281 1_655 S
C50 O64 1.251 . S
C50 O65 1.268 . S
C51 Nd41 2.836 . S
C51 C52 1.498 1_565 S
C51 O66 1.258 . S
C51 O67 1.239 . S
C52 C51 1.498 1_545 S
C52 C53 1.366 . S
C52 C57 1.407 . S
C53 C52 1.366 . S
C53 C54 1.392 . S
C53 H76 0.930 . S
C54 C53 1.392 . S
C54 C55 1.398 . S
C54 H77 0.929 . S
C55 C54 1.398 . S
C55 C56 1.352 . S
C56 C55 1.352 . S
C56 C57 1.384 . S
C56 H78 0.930 . S
C57 C52 1.407 . S
C57 C56 1.384 . S
C57 H79 0.929 1_545 S
C58 O68 1.241 . S
C58 O69 1.279 1_455 S
C59 O70 1.251 . S
C59 O71 1.268 . S
O60 Nd40 2.500 . S
O60 C42 1.258 . S
O61 Nd40 2.492 . S
O61 C42 1.239 . S
O62 Nd40 2.487 . S
O62 C49 1.241 . S
O63 Nd40 2.699 1_455 S
O63 Nd41 2.398 1_545 S
O63 C49 1.281 1_455 S
O64 Nd40 2.410 1_565 S
O64 C50 1.251 . S
O65 Nd41 2.424 1_655 S
O65 C50 1.268 . S
O66 Nd41 2.500 . S
O66 C51 1.258 . S
O67 Nd41 2.492 . S
O67 C51 1.239 . S
O68 Nd41 2.487 . S
O68 C58 1.241 . S
O69 Nd40 2.402 1_565 S
O69 Nd41 2.694 1_655 S
O69 C58 1.279 1_655 S
O70 Nd41 2.410 1_545 S
O70 C59 1.251 . S
O71 Nd40 2.424 1_455 S
O71 C59 1.268 . S
H72 C44 0.930 . S
H73 C45 0.929 . S
H74 C47 0.930 . S
H75 C48 0.929 1_545 S
H76 C53 0.930 . S
H77 C54 0.929 . S
H78 C56 0.930 . S
H79 C57 0.929 1_565 S
Nd80 C82 2.838 . S
Nd80 O100 2.500 1_556 S
Nd80 O101 2.492 . S
Nd80 O102 2.487 . S
Nd80 O103 2.682 . S
Nd80 O104 2.410 . S
Nd80 O109 2.414 1_556 S
Nd80 O111 2.424 . S
Nd81 C91 2.839 . S
Nd81 O103 2.414 1_554 S
Nd81 O105 2.424 . S
Nd81 O106 2.500 1_554 S
Nd81 O107 2.492 . S
Nd81 O108 2.487 . S
Nd81 O109 2.682 . S
Nd81 O110 2.410 . S
C82 Nd80 2.838 . S
C82 C83 1.496 1_556 S
C82 O100 1.247 1_556 S
C82 O101 1.252 . S
C83 C82 1.496 1_554 S
C83 C84 1.366 . S
C83 C88 1.407 1_554 S
C84 C83 1.366 . S
C84 C85 1.392 . S
C84 H112 0.930 . S
C85 C84 1.392 . S
C85 C86 1.398 . S
C85 H113 0.929 . S
C86 C85 1.398 . S
C86 C87 1.352 1_554 S
C87 C86 1.352 1_556 S
C87 C88 1.384 . S
C87 H114 0.930 . S
C88 C83 1.407 1_556 S
C88 C87 1.384 . S
C88 H115 0.929 . S
C89 O102 1.241 . S
C89 O103 1.273 . S
C90 O104 1.251 . S
C90 O105 1.268 1_556 S
C91 Nd81 2.839 . S
C91 C92 1.496 1_554 S
C91 O106 1.242 1_554 S
C91 O107 1.258 . S
C92 C91 1.496 1_556 S
C92 C93 1.366 . S
C92 C97 1.407 1_556 S
C93 C92 1.366 . S
C93 C94 1.392 . S
C93 H116 0.930 . S
C94 C93 1.392 . S
C94 C95 1.398 . S
C94 H117 0.929 . S
C95 C94 1.398 . S
C95 C96 1.352 1_556 S
C96 C95 1.352 1_554 S
C96 C97 1.384 . S
C96 H118 0.930 . S
C97 C92 1.407 1_554 S
C97 C96 1.384 . S
C97 H119 0.929 . S
C98 O108 1.241 . S
C98 O109 1.273 . S
C99 O110 1.251 . S
C99 O111 1.268 1_554 S
O100 Nd80 2.500 1_554 S
O100 C82 1.247 1_554 S
O101 Nd80 2.492 . S
O101 C82 1.252 . S
O102 Nd80 2.487 . S
O102 C89 1.241 . S
O103 Nd80 2.682 . S
O103 Nd81 2.414 1_556 S
O103 C89 1.273 . S
O104 Nd80 2.410 . S
O104 C90 1.251 . S
O105 Nd81 2.424 . S
O105 C90 1.268 1_554 S
O106 Nd81 2.500 1_556 S
O106 C91 1.242 1_556 S
O107 Nd81 2.492 . S
O107 C91 1.258 . S
O108 Nd81 2.487 . S
O108 C98 1.241 . S
O109 Nd80 2.414 1_554 S
O109 Nd81 2.682 . S
O109 C98 1.273 . S
O110 Nd81 2.410 . S
O110 C99 1.251 . S
O111 Nd80 2.424 . S
O111 C99 1.268 1_556 S
H112 C84 0.930 . S
H113 C85 0.929 . S
H114 C87 0.930 . S
H115 C88 0.929 . S
H116 C93 0.930 . S
H117 C94 0.929 . S
H118 C96 0.930 . S
H119 C97 0.929 . S
Nd120 C122 2.836 . S
Nd120 O140 2.500 . S
Nd120 O141 2.492 . S
Nd120 O142 2.487 . S
Nd120 O143 2.682 . S
Nd120 O144 2.410 . S
Nd120 O149 2.414 . S
Nd120 O151 2.424 . S
Nd121 C131 2.836 . S
Nd121 O143 2.414 . S
Nd121 O145 2.424 . S
Nd121 O146 2.500 . S
Nd121 O147 2.492 . S
Nd121 O148 2.487 . S
Nd121 O149 2.682 . S
Nd121 O150 2.410 . S
C122 Nd120 2.836 . S
C122 C123 1.498 . S
C122 O140 1.258 . S
C122 O141 1.239 . S
C123 C122 1.498 . S
C123 C124 1.366 . S
C123 C128 1.407 . S
C124 C123 1.366 . S
C124 C125 1.392 . S
C124 H152 0.930 . S
C125 C124 1.392 . S
C125 C126 1.398 . S
C125 H153 0.929 . S
C126 C125 1.398 . S
C126 C127 1.352 . S
C127 C126 1.352 . S
C127 C128 1.384 . S
C127 H154 0.930 . S
C128 C123 1.407 . S
C128 C127 1.384 . S
C128 H155 0.929 . S
C129 O142 1.241 . S
C129 O143 1.273 . S
C130 O144 1.251 . S
C130 O145 1.268 . S
C131 Nd121 2.836 . S
C131 C132 1.498 . S
C131 O146 1.258 . S
C131 O147 1.239 . S
C132 C131 1.498 . S
C132 C133 1.366 . S
C132 C137 1.407 . S
C133 C132 1.366 . S
C133 C134 1.392 . S
C133 H156 0.930 . S
C134 C133 1.392 . S
C134 C135 1.398 . S
C134 H157 0.929 . S
C135 C134 1.398 . S
C135 C136 1.352 . S
C136 C135 1.352 . S
C136 C137 1.384 . S
C136 H158 0.930 . S
C137 C132 1.407 . S
C137 C136 1.384 . S
C137 H159 0.929 . S
C138 O148 1.241 . S
C138 O149 1.273 . S
C139 O150 1.251 . S
C139 O151 1.268 . S
O140 Nd120 2.500 . S
O140 C122 1.258 . S
O141 Nd120 2.492 . S
O141 C122 1.239 . S
O142 Nd120 2.487 . S
O142 C129 1.241 . S
O143 Nd120 2.682 . S
O143 Nd121 2.414 . S
O143 C129 1.273 . S
O144 Nd120 2.410 . S
O144 C130 1.251 . S
O145 Nd121 2.424 . S
O145 C130 1.268 . S
O146 Nd121 2.500 . S
O146 C131 1.258 . S
O147 Nd121 2.492 . S
O147 C131 1.239 . S
O148 Nd121 2.487 . S
O148 C138 1.241 . S
O149 Nd120 2.414 . S
O149 Nd121 2.682 . S
O149 C138 1.273 . S
O150 Nd121 2.410 . S
O150 C139 1.251 . S
O151 Nd120 2.424 . S
O151 C139 1.268 . S
H152 C124 0.930 . S
H153 C125 0.929 . S
H154 C127 0.930 . S
H155 C128 0.929 . S
H156 C133 0.930 . S
H157 C134 0.929 . S
H158 C136 0.930 . S
H159 C137 0.929 . S
H160 C168 0.950 . S
H161 C173 0.950 . S
H162 C170 0.950 . S
H163 C172 0.950 . S
H164 C174 0.950 . S
H165 C176 0.950 . S
H166 C178 0.950 . S
H167 C179 0.950 . S
C168 H160 0.950 . S
C168 C169 1.386 1_556 S
C168 C170 1.391 . S
C169 C168 1.386 1_554 S
C169 C173 1.393 . S
C170 H162 0.950 . S
C170 C168 1.391 . S
C170 C171 1.400 1_556 S
C171 C170 1.400 1_554 S
C171 C172 1.398 . S
C171 C177 1.491 1_554 S
C172 H163 0.950 . S
C172 C171 1.398 . S
C172 C173 1.391 . S
C173 H161 0.950 . S
C173 C169 1.393 . S
C173 C172 1.391 . S
C174 H164 0.950 . S
C174 C175 1.386 1_554 S
C174 C176 1.391 . S
C175 C174 1.386 1_556 S
C175 C179 1.393 . S
C176 H165 0.950 . S
C176 C174 1.391 . S
C176 C177 1.400 1_554 S
C177 C171 1.491 1_556 S
C177 C176 1.400 1_556 S
C177 C178 1.398 . S
C178 H166 0.950 . S
C178 C177 1.398 . S
C178 C179 1.391 . S
C179 H167 0.950 . S
C179 C175 1.393 . S
C179 C178 1.391 . S
H180 C188 0.950 . S
H181 C193 0.950 . S
H182 C190 0.950 . S
H183 C192 0.950 . S
H184 C194 0.950 . S
H185 C196 0.950 . S
H186 C198 0.950 . S
H187 C199 0.950 . S
C188 H180 0.950 . S
C188 C189 1.386 1_554 S
C188 C190 1.391 . S
C189 C188 1.386 1_556 S
C189 C193 1.393 . S
C190 H182 0.950 . S
C190 C188 1.391 . S
C190 C191 1.399 1_554 S
C191 C190 1.399 1_556 S
C191 C192 1.399 . S
C191 C197 1.492 1_556 S
C192 H183 0.950 . S
C192 C191 1.399 . S
C192 C193 1.391 . S
C193 H181 0.950 . S
C193 C189 1.393 . S
C193 C192 1.391 . S
C194 H184 0.950 . S
C194 C195 1.386 1_556 S
C194 C196 1.391 . S
C195 C194 1.386 1_554 S
C195 C199 1.393 . S
C196 H185 0.950 . S
C196 C194 1.391 . S
C196 C197 1.399 1_556 S
C197 C191 1.492 1_554 S
C197 C196 1.399 1_554 S
C197 C198 1.399 . S
C198 H186 0.950 . S
C198 C197 1.399 . S
C198 C199 1.391 . S
C199 H187 0.950 . S
C199 C195 1.393 . S
C199 C198 1.391 . S
H200 C208 0.950 . S
H201 C213 0.950 . S
H202 C210 0.950 . S
H203 C212 0.950 . S
H204 C214 0.950 . S
H205 C216 0.950 . S
H206 C218 0.950 . S
H207 C219 0.950 . S
C208 H200 0.950 . S
C208 C209 1.386 . S
C208 C210 1.391 . S
C209 C208 1.386 . S
C209 C213 1.393 . S
C210 H202 0.950 . S
C210 C208 1.391 . S
C210 C211 1.400 . S
C211 C210 1.400 . S
C211 C212 1.398 . S
C211 C217 1.491 . S
C212 H203 0.950 . S
C212 C211 1.398 . S
C212 C213 1.391 . S
C213 H201 0.950 . S
C213 C209 1.393 . S
C213 C212 1.391 . S
C214 H204 0.950 . S
C214 C215 1.386 . S
C214 C216 1.391 . S
C215 C214 1.386 . S
C215 C219 1.393 . S
C216 H205 0.950 . S
C216 C214 1.391 . S
C216 C217 1.400 . S
C217 C211 1.491 . S
C217 C216 1.400 . S
C217 C218 1.398 . S
C218 H206 0.950 . S
C218 C217 1.398 . S
C218 C219 1.391 . S
C219 H207 0.950 . S
C219 C215 1.393 . S
C219 C218 1.391 . S
H220 C228 0.950 . S
H221 C233 0.950 . S
H222 C230 0.950 . S
H223 C232 0.950 . S
H224 C234 0.950 . S
H225 C236 0.950 . S
H226 C238 0.950 . S
H227 C239 0.950 . S
C228 H220 0.950 . S
C228 C229 1.386 . S
C228 C230 1.391 . S
C229 C228 1.386 . S
C229 C233 1.393 . S
C230 H222 0.950 . S
C230 C228 1.391 . S
C230 C231 1.400 . S
C231 C230 1.400 . S
C231 C232 1.398 . S
C231 C237 1.491 . S
C232 H223 0.950 . S
C232 C231 1.398 . S
C232 C233 1.391 . S
C233 H221 0.950 . S
C233 C229 1.393 . S
C233 C232 1.391 . S
C234 H224 0.950 . S
C234 C235 1.386 . S
C234 C236 1.391 . S
C235 C234 1.386 . S
C235 C239 1.393 . S
C236 H225 0.950 . S
C236 C234 1.391 . S
C236 C237 1.400 . S
C237 C231 1.491 . S
C237 C236 1.400 . S
C237 C238 1.398 . S
C238 H226 0.950 . S
C238 C237 1.398 . S
C238 C239 1.391 . S
C239 H227 0.950 . S
C239 C235 1.393 . S
C239 C238 1.391 . S
H240 C248 0.949 . S
H241 C253 0.950 . S
H242 C250 0.950 . S
H243 C252 0.950 . S
H244 C254 0.949 . S
H245 C256 0.950 . S
H246 C258 0.950 . S
H247 C259 0.950 . S
C248 H240 0.949 . S
C248 C249 1.388 . S
C248 C250 1.390 . S
C249 C248 1.388 . S
C249 C253 1.385 1_544 S
C250 H242 0.950 . S
C250 C248 1.390 . S
C250 C251 1.399 1_545 S
C251 C250 1.399 1_565 S
C251 C252 1.398 1_554 S
C251 C257 1.495 1_565 S
C252 H243 0.950 . S
C252 C251 1.398 1_556 S
C252 C253 1.396 . S
C253 H241 0.950 . S
C253 C249 1.385 1_566 S
C253 C252 1.396 . S
C254 H244 0.949 . S
C254 C255 1.383 . S
C254 C256 1.392 1_565 S
C255 C254 1.383 . S
C255 C259 1.391 1_566 S
C256 H245 0.950 . S
C256 C254 1.392 1_545 S
C256 C257 1.398 1_556 S
C257 C251 1.495 1_545 S
C257 C256 1.398 1_554 S
C257 C258 1.397 . S
C258 H246 0.950 . S
C258 C257 1.397 . S
C258 C259 1.399 . S
C259 H247 0.950 . S
C259 C255 1.391 1_544 S
C259 C258 1.399 . S
H260 C268 0.950 . S
H261 C273 0.950 . S
H262 C270 0.950 . S
H263 C272 0.950 1_565 S
H264 C274 0.950 . S
H265 C276 0.950 . S
H266 C278 0.950 1_545 S
H267 C279 0.950 . S
C268 H260 0.950 . S
C268 C269 1.386 . S
C268 C270 1.391 . S
C269 C268 1.386 . S
C269 C273 1.393 . S
C270 H262 0.950 . S
C270 C268 1.391 . S
C270 C271 1.400 . S
C271 C270 1.400 . S
C271 C272 1.398 . S
C271 C277 1.491 1_545 S
C272 H263 0.950 1_545 S
C272 C271 1.398 . S
C272 C273 1.391 . S
C273 H261 0.950 . S
C273 C269 1.393 . S
C273 C272 1.391 . S
C274 H264 0.950 . S
C274 C275 1.386 . S
C274 C276 1.391 . S
C275 C274 1.386 . S
C275 C279 1.393 . S
C276 H265 0.950 . S
C276 C274 1.391 . S
C276 C277 1.400 . S
C277 C271 1.491 1_565 S
C277 C276 1.400 . S
C277 C278 1.398 . S
C278 H266 0.950 1_565 S
C278 C277 1.398 . S
C278 C279 1.391 . S
C279 H267 0.950 . S
C279 C275 1.393 . S
C279 C278 1.391 . S
H280 C288 0.950 . S
H281 C293 0.950 . S
H282 C290 0.950 . S
H283 C292 0.950 . S
H284 C294 0.950 . S
H285 C296 0.950 . S
H286 C298 0.950 . S
H287 C299 0.950 . S
C288 H280 0.950 . S
C288 C289 1.394 . S
C288 C290 1.391 . S
C289 C288 1.394 . S
C289 C293 1.386 1_556 S
C290 H282 0.950 . S
C290 C288 1.391 . S
C290 C291 1.404 . S
C291 C290 1.404 . S
C291 C292 1.394 1_556 S
C291 C297 1.493 1_656 S
C292 H283 0.950 . S
C292 C291 1.394 1_554 S
C292 C293 1.391 . S
C293 H281 0.950 . S
C293 C289 1.386 1_554 S
C293 C292 1.391 . S
C294 H284 0.950 . S
C294 C295 1.398 . S
C294 C296 1.391 . S
C295 C294 1.398 . S
C295 C299 1.383 1_554 S
C296 H285 0.950 . S
C296 C294 1.391 . S
C296 C297 1.408 . S
C297 C291 1.493 1_454 S
C297 C296 1.408 . S
C297 C298 1.390 1_554 S
C298 H286 0.950 . S
C298 C297 1.390 1_556 S
C298 C299 1.391 . S
C299 H287 0.950 . S
C299 C295 1.383 1_556 S
C299 C298 1.391 . S
H300 C308 0.950 . S
H301 C313 0.950 . S
H302 C310 0.950 1_655 S
H303 C312 0.950 . S
H304 C314 0.950 . S
H305 C316 0.950 1_455 S
H306 C318 0.950 . S
H307 C319 0.950 . S
C308 H300 0.950 . S
C308 C309 1.386 . S
C308 C310 1.391 . S
C309 C308 1.386 . S
C309 C313 1.393 . S
C310 H302 0.950 1_455 S
C310 C308 1.391 . S
C310 C311 1.400 . S
C311 C310 1.400 . S
C311 C312 1.398 . S
C311 C317 1.491 1_455 S
C312 H303 0.950 . S
C312 C311 1.398 . S
C312 C313 1.391 . S
C313 H301 0.950 . S
C313 C309 1.393 . S
C313 C312 1.391 . S
C314 H304 0.950 . S
C314 C315 1.386 . S
C314 C316 1.391 . S
C315 C314 1.386 . S
C315 C319 1.393 . S
C316 H305 0.950 1_655 S
C316 C314 1.391 . S
C316 C317 1.400 . S
C317 C311 1.491 1_655 S
C317 C316 1.400 . S
C317 C318 1.398 . S
C318 H306 0.950 . S
C318 C317 1.398 . S
C318 C319 1.391 . S
C319 H307 0.950 . S
C319 C315 1.393 . S
C319 C318 1.391 . S
H320 C328 0.950 . S
H321 C333 0.950 . S
H322 C330 0.950 . S
H323 C332 0.950 . S
H324 C334 0.950 . S
H325 C336 0.950 . S
H326 C338 0.950 . S
H327 C339 0.950 . S
C328 H320 0.950 . S
C328 C329 1.386 1_655 S
C328 C330 1.391 . S
C329 C328 1.386 1_455 S
C329 C333 1.393 1_545 S
C330 H322 0.950 . S
C330 C328 1.391 . S
C330 C331 1.388 1_655 S
C331 C330 1.388 1_455 S
C331 C332 1.409 1_545 S
C331 C337 1.493 1_455 S
C332 H323 0.950 . S
C332 C331 1.409 1_565 S
C332 C333 1.391 . S
C333 H321 0.950 . S
C333 C329 1.393 1_565 S
C333 C332 1.391 . S
C334 H324 0.950 . S
C334 C335 1.374 1_465 S
C334 C336 1.391 . S
C335 C334 1.374 1_645 S
C335 C339 1.404 . S
C336 H325 0.950 . S
C336 C334 1.391 . S
C336 C337 1.400 1_465 S
C337 C331 1.493 1_655 S
C337 C336 1.400 1_645 S
C337 C338 1.398 . S
C338 H326 0.950 . S
C338 C337 1.398 . S
C338 C339 1.391 . S
C339 H327 0.950 . S
C339 C335 1.404 . S
C339 C338 1.391 . S
H340 C348 0.950 . S
H341 C353 0.950 . S
H342 C350 0.950 . S
H343 C352 0.950 . S
H344 C354 0.950 . S
H345 C356 0.950 . S
H346 C358 0.950 . S
H347 C359 0.950 . S
C348 H340 0.950 . S
C348 C349 1.405 . S
C348 C350 1.391 . S
C349 C348 1.405 . S
C349 C353 1.374 1_665 S
C350 H342 0.950 . S
C350 C348 1.391 . S
C350 C351 1.404 . S
C351 C350 1.404 . S
C351 C352 1.397 1_665 S
C351 C357 1.489 1_655 S
C352 H343 0.950 . S
C352 C351 1.397 1_445 S
C352 C353 1.391 . S
C353 H341 0.950 . S
C353 C349 1.374 1_445 S
C353 C352 1.391 . S
C354 H344 0.950 . S
C354 C355 1.386 1_545 S
C354 C356 1.391 . S
C355 C354 1.386 1_565 S
C355 C359 1.393 1_455 S
C356 H345 0.950 . S
C356 C354 1.391 . S
C356 C357 1.400 1_545 S
C357 C351 1.489 1_455 S
C357 C356 1.400 1_565 S
C357 C358 1.398 1_455 S
C358 H346 0.950 . S
C358 C357 1.398 1_655 S
C358 C359 1.391 . S
C359 H347 0.950 . S
C359 C355 1.393 1_655 S
C359 C358 1.391 . S
H360 C368 0.950 . S
H361 C373 0.950 . S
H362 C370 0.950 . S
H363 C372 0.950 . S
H364 C374 0.950 . S
H365 C376 0.950 . S
H366 C378 0.950 . S
H367 C379 0.950 . S
C368 H360 0.950 . S
C368 C369 1.386 . S
C368 C370 1.391 . S
C369 C368 1.386 . S
C369 C373 1.393 . S
C370 H362 0.950 . S
C370 C368 1.391 . S
C370 C371 1.400 . S
C371 C370 1.400 . S
C371 C372 1.398 . S
C371 C377 1.491 . S
C372 H363 0.950 . S
C372 C371 1.398 . S
C372 C373 1.391 . S
C373 H361 0.950 . S
C373 C369 1.393 . S
C373 C372 1.391 . S
C374 H364 0.950 . S
C374 C375 1.386 . S
C374 C376 1.391 . S
C375 C374 1.386 . S
C375 C379 1.393 . S
C376 H365 0.950 . S
C376 C374 1.391 . S
C376 C377 1.400 . S
C377 C371 1.491 . S
C377 C376 1.400 . S
C377 C378 1.398 . S
C378 H366 0.950 . S
C378 C377 1.398 . S
C378 C379 1.391 . S
C379 H367 0.950 . S
C379 C375 1.393 . S
C379 C378 1.391 . S
H380 C388 0.950 . S
H381 C393 0.950 . S
H382 C390 0.950 . S
H383 C392 0.950 . S
H384 C394 0.950 . S
H385 C396 0.950 . S
H386 C398 0.950 . S
H387 C399 0.950 . S
C388 H380 0.950 . S
C388 C389 1.386 . S
C388 C390 1.391 . S
C389 C388 1.386 . S
C389 C393 1.393 . S
C390 H382 0.950 . S
C390 C388 1.391 . S
C390 C391 1.400 . S
C391 C390 1.400 . S
C391 C392 1.398 . S
C391 C397 1.491 . S
C392 H383 0.950 . S
C392 C391 1.398 . S
C392 C393 1.391 . S
C393 H381 0.950 . S
C393 C389 1.393 . S
C393 C392 1.391 . S
C394 H384 0.950 . S
C394 C395 1.386 . S
C394 C396 1.391 . S
C395 C394 1.386 . S
C395 C399 1.393 . S
C396 H385 0.950 . S
C396 C394 1.391 . S
C396 C397 1.400 . S
C397 C391 1.491 . S
C397 C396 1.400 . S
C397 C398 1.398 . S
C398 H386 0.950 . S
C398 C397 1.398 . S
C398 C399 1.391 . S
C399 H387 0.950 . S
C399 C395 1.393 . S
C399 C398 1.391 . S
C169 C86 0.172 . S
C175 C15 0.172 . S
C189 C95 0.141 . S
C195 C6 0.141 . S
C209 C59 3.567 . S
C215 C130 3.567 . S
C229 C50 3.570 . S
C235 C139 3.570 . S
C249 C19 4.879 . S
C255 C10 4.876 . S
C269 C55 0.878 . S
C275 C46 0.878 . S
C289 C99 4.874 1_556 S
C295 C90 4.873 1_554 S
C309 C126 0.890 . S
C315 C135 0.890 . S
C329 C49 1.464 1_455 S
C335 C18 1.439 1_545 S
C349 C9 1.440 1_665 S
C355 C58 1.447 . S
C369 C129 1.457 . S
C375 C98 1.439 . S
C389 C138 1.447 . S
C395 C89 1.444 . S
