# Generated by pormake.
# Topology gme, (4)-cn, num edge types: 1
# Building blocks:
#     Node 0, Type 0, BuildingBlock: ICAMEG_clean_sbu_1, # of connection points: 4
#     Node 1, Type 0, BuildingBlock: ICAMEG_clean_sbu_1, # of connection points: 4
#     Node 2, Type 0, BuildingBlock: ICAMEG_clean_sbu_1, # of connection points: 4
#     Node 3, Type 0, BuildingBlock: ICAMEG_clean_sbu_1, # of connection points: 4
#     Node 4, Type 0, BuildingBlock: ICAMEG_clean_sbu_1, # of connection points: 4
#     Node 5, Type 0, BuildingBlock: ICAMEG_clean_sbu_1, # of connection points: 4
#     Node 6, Type 0, BuildingBlock: ICAMEG_clean_sbu_1, # of connection points: 4
#     Node 7, Type 0, BuildingBlock: ICAMEG_clean_sbu_1, # of connection points: 4
#     Node 8, Type 0, BuildingBlock: ICAMEG_clean_sbu_1, # of connection points: 4
#     Node 9, Type 0, BuildingBlock: ICAMEG_clean_sbu_1, # of connection points: 4
#     Node 10, Type 0, BuildingBlock: ICAMEG_clean_sbu_1, # of connection points: 4
#     Node 11, Type 0, BuildingBlock: ICAMEG_clean_sbu_1, # of connection points: 4
#     Node 12, Type 0, BuildingBlock: ICAMEG_clean_sbu_1, # of connection points: 4
#     Node 13, Type 0, BuildingBlock: ICAMEG_clean_sbu_1, # of connection points: 4
#     Node 14, Type 0, BuildingBlock: ICAMEG_clean_sbu_1, # of connection points: 4
#     Node 15, Type 0, BuildingBlock: ICAMEG_clean_sbu_1, # of connection points: 4
#     Node 16, Type 0, BuildingBlock: ICAMEG_clean_sbu_1, # of connection points: 4
#     Node 17, Type 0, BuildingBlock: ICAMEG_clean_sbu_1, # of connection points: 4
#     Node 18, Type 0, BuildingBlock: ICAMEG_clean_sbu_1, # of connection points: 4
#     Node 19, Type 0, BuildingBlock: ICAMEG_clean_sbu_1, # of connection points: 4
#     Node 20, Type 0, BuildingBlock: ICAMEG_clean_sbu_1, # of connection points: 4
#     Node 21, Type 0, BuildingBlock: ICAMEG_clean_sbu_1, # of connection points: 4
#     Node 22, Type 0, BuildingBlock: ICAMEG_clean_sbu_1, # of connection points: 4
#     Node 23, Type 0, BuildingBlock: ICAMEG_clean_sbu_1, # of connection points: 4
#     Edge 24, Type (0, 0), BuildingBlock: XUDNAN_clean_linker_2, # of connection points: 2
#     Edge 25, Type (0, 0), BuildingBlock: XUDNAN_clean_linker_2, # of connection points: 2
#     Edge 26, Type (0, 0), BuildingBlock: XUDNAN_clean_linker_2, # of connection points: 2
#     Edge 27, Type (0, 0), BuildingBlock: XUDNAN_clean_linker_2, # of connection points: 2
#     Edge 28, Type (0, 0), BuildingBlock: XUDNAN_clean_linker_2, # of connection points: 2
#     Edge 29, Type (0, 0), BuildingBlock: XUDNAN_clean_linker_2, # of connection points: 2
#     Edge 30, Type (0, 0), BuildingBlock: XUDNAN_clean_linker_2, # of connection points: 2
#     Edge 31, Type (0, 0), BuildingBlock: XUDNAN_clean_linker_2, # of connection points: 2
#     Edge 32, Type (0, 0), BuildingBlock: XUDNAN_clean_linker_2, # of connection points: 2
#     Edge 33, Type (0, 0), BuildingBlock: XUDNAN_clean_linker_2, # of connection points: 2
#     Edge 34, Type (0, 0), BuildingBlock: XUDNAN_clean_linker_2, # of connection points: 2
#     Edge 35, Type (0, 0), BuildingBlock: XUDNAN_clean_linker_2, # of connection points: 2
#     Edge 36, Type (0, 0), BuildingBlock: XUDNAN_clean_linker_2, # of connection points: 2
#     Edge 37, Type (0, 0), BuildingBlock: XUDNAN_clean_linker_2, # of connection points: 2
#     Edge 38, Type (0, 0), BuildingBlock: XUDNAN_clean_linker_2, # of connection points: 2
#     Edge 39, Type (0, 0), BuildingBlock: XUDNAN_clean_linker_2, # of connection points: 2
#     Edge 40, Type (0, 0), BuildingBlock: XUDNAN_clean_linker_2, # of connection points: 2
#     Edge 41, Type (0, 0), BuildingBlock: XUDNAN_clean_linker_2, # of connection points: 2
#     Edge 42, Type (0, 0), BuildingBlock: XUDNAN_clean_linker_2, # of connection points: 2
#     Edge 43, Type (0, 0), BuildingBlock: XUDNAN_clean_linker_2, # of connection points: 2
#     Edge 44, Type (0, 0), BuildingBlock: XUDNAN_clean_linker_2, # of connection points: 2
#     Edge 45, Type (0, 0), BuildingBlock: XUDNAN_clean_linker_2, # of connection points: 2
#     Edge 46, Type (0, 0), BuildingBlock: XUDNAN_clean_linker_2, # of connection points: 2
#     Edge 47, Type (0, 0), BuildingBlock: XUDNAN_clean_linker_2, # of connection points: 2
#     Edge 48, Type (0, 0), BuildingBlock: XUDNAN_clean_linker_2, # of connection points: 2
#     Edge 49, Type (0, 0), BuildingBlock: XUDNAN_clean_linker_2, # of connection points: 2
#     Edge 50, Type (0, 0), BuildingBlock: XUDNAN_clean_linker_2, # of connection points: 2
#     Edge 51, Type (0, 0), BuildingBlock: XUDNAN_clean_linker_2, # of connection points: 2
#     Edge 52, Type (0, 0), BuildingBlock: XUDNAN_clean_linker_2, # of connection points: 2
#     Edge 53, Type (0, 0), BuildingBlock: XUDNAN_clean_linker_2, # of connection points: 2
#     Edge 54, Type (0, 0), BuildingBlock: XUDNAN_clean_linker_2, # of connection points: 2
#     Edge 55, Type (0, 0), BuildingBlock: XUDNAN_clean_linker_2, # of connection points: 2
#     Edge 56, Type (0, 0), BuildingBlock: XUDNAN_clean_linker_2, # of connection points: 2
#     Edge 57, Type (0, 0), BuildingBlock: XUDNAN_clean_linker_2, # of connection points: 2
#     Edge 58, Type (0, 0), BuildingBlock: XUDNAN_clean_linker_2, # of connection points: 2
#     Edge 59, Type (0, 0), BuildingBlock: XUDNAN_clean_linker_2, # of connection points: 2
#     Edge 60, Type (0, 0), BuildingBlock: XUDNAN_clean_linker_2, # of connection points: 2
#     Edge 61, Type (0, 0), BuildingBlock: XUDNAN_clean_linker_2, # of connection points: 2
#     Edge 62, Type (0, 0), BuildingBlock: XUDNAN_clean_linker_2, # of connection points: 2
#     Edge 63, Type (0, 0), BuildingBlock: XUDNAN_clean_linker_2, # of connection points: 2
#     Edge 64, Type (0, 0), BuildingBlock: XUDNAN_clean_linker_2, # of connection points: 2
#     Edge 65, Type (0, 0), BuildingBlock: XUDNAN_clean_linker_2, # of connection points: 2
#     Edge 66, Type (0, 0), BuildingBlock: XUDNAN_clean_linker_2, # of connection points: 2
#     Edge 67, Type (0, 0), BuildingBlock: XUDNAN_clean_linker_2, # of connection points: 2
#     Edge 68, Type (0, 0), BuildingBlock: XUDNAN_clean_linker_2, # of connection points: 2
#     Edge 69, Type (0, 0), BuildingBlock: XUDNAN_clean_linker_2, # of connection points: 2
#     Edge 70, Type (0, 0), BuildingBlock: XUDNAN_clean_linker_2, # of connection points: 2
#     Edge 71, Type (0, 0), BuildingBlock: XUDNAN_clean_linker_2, # of connection points: 2
# Relax obj value: 0.062
# Max RMSD: 0.065
# Mean RMSD: 0.065
data_MOF--net-gme--node1-ICAMEG_clean_sbu_1--edge1-XUDNAN_clean_linker_2
_symmetry_space_group_name_H-M    P1
_symmetry_Int_Tables_number       1
_symmetry_cell_setting            triclinic
loop_
_symmetry_equiv_pos_as_xyz
'x, y, z'
_cell_length_a     58.996191
_cell_length_b     58.994966
_cell_length_c     60.192149
_cell_angle_alpha  90.005506
_cell_angle_beta   89.995889
_cell_angle_gamma 120.00687
loop_
_atom_site_label
_atom_site_type_symbol
_atom_site_fract_x
_atom_site_fract_y
_atom_site_fract_z
_atom_type_partial_charge
Co0 Co 0.42822 0.09705 0.14105 0.0
Co1 Co 0.38761 0.03321 0.12487 0.0
O2 O 0.40164 0.071 0.12127 0.0
C3 C 0.38772 0.11316 0.1386 0.0
O4 O 0.36915 0.08852 0.13802 0.0
C5 C 0.40432 0.04427 0.07794 0.0
O6 O 0.42584 0.06459 0.08528 0.0
O7 O 0.42353 0.03798 0.12539 0.0
O8 O 0.44578 0.0758 0.14408 0.0
H9 H 0.38181 0.95278 0.15905 0.0
H10 H 0.41848 0.11479 0.0979 0.0
O11 O 0.41171 0.11942 0.13916 0.0
H12 H 0.51118 0.13794 0.09586 0.0
H13 H 0.49122 0.18854 0.16725 0.0
H14 H 0.45294 0.09442 0.18317 0.0
H15 H 0.48407 0.11666 0.12891 0.0
H16 H 0.45905 0.15546 0.14166 0.0
O17 O 0.38673 0.02907 0.09159 0.0
H18 H 0.39904 1.00021 0.15475 0.0
H19 H 0.34643 0.98599 0.10141 0.0
H20 H 0.48525 0.12683 0.20908 0.0
H21 H 0.44498 0.13636 0.06462 0.0
H22 H 0.50459 0.17429 0.20121 0.0
H23 H 0.49165 0.14797 0.06343 0.0
O24 O 0.40627 0.07907 0.16721 0.0
H25 H 0.3155 0.04598 0.09433 0.0
H26 H 0.34023 0.00459 0.15344 0.0
H27 H 0.29585 0.99884 0.15325 0.0
H28 H 0.28321 0.01956 0.1235 0.0
H29 H 0.35978 0.05151 0.09533 0.0
H30 H 0.3288 0.93841 0.10498 0.0
H31 H 0.34644 0.92153 0.13404 0.0
O32 O 0.38822 0.0365 0.15836 0.0
C33 C 0.44354 0.05478 0.13609 0.0
C34 C 0.3739 0.95989 0.14637 0.0
C35 C 0.34418 0.95183 0.11601 0.0
N36 N 0.37361 0.99583 0.12797 0.0
C37 C 0.38353 0.98672 0.1439 0.0
C38 C 0.35427 0.97879 0.11403 0.0
C39 C 0.35408 0.94237 0.13232 0.0
C40 C 0.43887 0.12009 0.09761 0.0
N41 N 0.44973 0.11456 0.11534 0.0
C42 C 0.45374 0.13217 0.07868 0.0
C43 C 0.47991 0.13863 0.078 0.0
C44 C 0.49087 0.13298 0.09618 0.0
C45 C 0.4754 0.12086 0.11482 0.0
C46 C 0.48301 0.16792 0.17082 0.0
C47 C 0.46148 0.11501 0.17949 0.0
C48 C 0.46476 0.14908 0.1564 0.0
N49 N 0.45431 0.123 0.16079 0.0
C50 C 0.47968 0.13329 0.19428 0.0
C51 C 0.4905 0.15991 0.18987 0.0
C52 C 0.39415 0.0549 0.17246 0.0
C53 C 0.32075 0.0368 0.10735 0.0
C54 C 0.33494 0.01382 0.14053 0.0
C55 C 0.30975 0.01041 0.14046 0.0
C56 C 0.30266 0.02201 0.12374 0.0
N57 N 0.35257 0.02835 0.12439 0.0
C58 C 0.34576 0.03976 0.10794 0.0
Co59 Co 0.3502 0.4361 0.63908 0.0
Co60 Co 0.36561 0.38854 0.62643 0.0
O61 O 0.34725 0.40794 0.62005 0.0
C62 C 0.29227 0.40296 0.6346 0.0
O63 O 0.29398 0.38169 0.63636 0.0
C64 C 0.38022 0.40761 0.58071 0.0
O65 O 0.38499 0.43038 0.58844 0.0
O66 O 0.39977 0.42163 0.62942 0.0
O67 O 0.38765 0.4481 0.64571 0.0
H68 H 0.42693 0.368 0.66812 0.0
H69 H 0.32918 0.43171 0.5937 0.0
O70 O 0.31278 0.42544 0.63369 0.0
H71 H 0.40887 0.51865 0.59659 0.0
H72 H 0.33432 0.50947 0.66072 0.0
H73 H 0.37366 0.45639 0.68333 0.0
H74 H 0.3944 0.48998 0.62952 0.0
H75 H 0.33172 0.47478 0.63617 0.0
O76 O 0.3725 0.38813 0.59377 0.0
H77 H 0.40351 0.39204 0.6605 0.0
H78 H 0.36674 0.34391 0.60433 0.0
H79 H 0.37686 0.49101 0.70833 0.0
H80 H 0.34266 0.46 0.56047 0.0
H81 H 0.35709 0.51783 0.69706 0.0
H82 H 0.38287 0.50374 0.56176 0.0
O83 O 0.33914 0.4123 0.66485 0.0
H84 H 0.28029 0.32739 0.58905 0.0
H85 H 0.33699 0.33984 0.65349 0.0
H86 H 0.29443 0.29912 0.65023 0.0
H87 H 0.26578 0.29267 0.6178 0.0
H88 H 0.32289 0.36794 0.59309 0.0
H89 H 0.38994 0.31951 0.61121 0.0
H90 H 0.4202 0.33145 0.64336 0.0
O91 O 0.35894 0.38853 0.6594 0.0
C92 C 0.40496 0.44261 0.63952 0.0
C93 C 0.41373 0.36256 0.6541 0.0
C94 C 0.39299 0.33536 0.62214 0.0
N95 N 0.38363 0.36923 0.63211 0.0
C96 C 0.40036 0.37604 0.64975 0.0
C97 C 0.37996 0.34928 0.6183 0.0
C98 C 0.40996 0.34207 0.64019 0.0
C99 C 0.34648 0.45088 0.59446 0.0
N100 N 0.36092 0.4592 0.61353 0.0
C101 C 0.3541 0.46675 0.57557 0.0
C102 C 0.37669 0.49127 0.57629 0.0
C103 C 0.3913 0.49965 0.59582 0.0
C104 C 0.38306 0.48327 0.6144 0.0
C105 C 0.34308 0.49797 0.66578 0.0
C106 C 0.36517 0.4681 0.67824 0.0
C107 C 0.34167 0.47829 0.65196 0.0
N108 N 0.35275 0.46374 0.65822 0.0
C109 C 0.36698 0.48762 0.69249 0.0
C110 C 0.35586 0.50265 0.68617 0.0
C111 C 0.34617 0.39622 0.67139 0.0
C112 C 0.29263 0.32995 0.60323 0.0
C113 C 0.32459 0.33723 0.63938 0.0
C114 C 0.30054 0.3141 0.63759 0.0
C115 C 0.28449 0.31049 0.61938 0.0
N116 N 0.33246 0.35622 0.62345 0.0
C117 C 0.31682 0.35282 0.60556 0.0
Co118 Co 0.90335 0.33391 0.13426 0.0
Co119 Co 0.96757 0.35287 0.12155 0.0
O120 O 0.92977 0.33078 0.11712 0.0
C121 C 0.8872 0.27769 0.13938 0.0
O122 O 0.91145 0.28459 0.14448 0.0
C123 C 0.95852 0.35929 0.07432 0.0
O124 O 0.93858 0.36139 0.08129 0.0
O125 O 0.96521 0.3854 0.12135 0.0
O126 O 0.92478 0.3728 0.13385 0.0
H127 H 0.04893 0.42461 0.1572 0.0
H128 H 0.88737 0.30168 0.09328 0.0
O129 O 0.881 0.29498 0.13493 0.0
H130 H 0.86444 0.37032 0.0803 0.0
H131 H 0.8112 0.30941 0.15515 0.0
H132 H 0.90485 0.36659 0.17226 0.0
H133 H 0.88433 0.36837 0.11574 0.0
H134 H 0.84498 0.30656 0.13316 0.0
O135 O 0.97289 0.35597 0.08828 0.0
H136 H 0.00131 0.39655 0.15181 0.0
H137 H 0.0143 0.35592 0.09963 0.0
H138 H 0.87174 0.37025 0.19455 0.0
H139 H 0.86717 0.3027 0.0577 0.0
H140 H 0.82453 0.34152 0.18604 0.0
H141 H 0.85568 0.33728 0.05099 0.0
O142 O 0.92008 0.33301 0.16262 0.0
H143 H 0.9491 0.26529 0.09284 0.0
H144 H 0.99326 0.33187 0.1512 0.0
H145 H 0.99561 0.2913 0.15219 0.0
H146 H 0.97345 0.25768 0.12283 0.0
H147 H 0.94709 0.30607 0.09259 0.0
H148 H 0.06208 0.38369 0.10431 0.0
H149 H 0.07967 0.41826 0.13333 0.0
O150 O 0.96289 0.35028 0.15482 0.0
C151 C 0.94757 0.39039 0.12777 0.0
C152 C 0.04151 0.40956 0.14455 0.0
C153 C 0.04889 0.38662 0.11484 0.0
N154 N 0.00507 0.3745 0.12556 0.0
C155 C 0.01457 0.39356 0.14147 0.0
C156 C 0.02183 0.37099 0.11224 0.0
C157 C 0.05874 0.406 0.13114 0.0
C158 C 0.88215 0.31661 0.09059 0.0
N159 N 0.88696 0.33489 0.10661 0.0
C160 C 0.87082 0.31716 0.07037 0.0
C161 C 0.86443 0.3366 0.0666 0.0
C162 C 0.86936 0.35516 0.08302 0.0
C163 C 0.88072 0.35401 0.10304 0.0
C164 C 0.83171 0.32208 0.15899 0.0
C165 C 0.88435 0.35414 0.16837 0.0
C166 C 0.85092 0.32051 0.14663 0.0
N167 N 0.87686 0.33653 0.15132 0.0
C168 C 0.86569 0.35625 0.18108 0.0
C169 C 0.8392 0.3401 0.17631 0.0
C170 C 0.94374 0.34147 0.16854 0.0
C171 C 0.9589 0.27983 0.10569 0.0
C172 C 0.98351 0.31731 0.1384 0.0
C173 C 0.98496 0.2944 0.13902 0.0
C174 C 0.97253 0.27555 0.12254 0.0
N175 N 0.97015 0.32137 0.12179 0.0
C176 C 0.95791 0.30299 0.10558 0.0
Co177 Co 0.56962 0.90579 0.63022 0.0
Co178 Co 0.61779 0.97057 0.63571 0.0
O179 O 0.60296 0.93598 0.62209 0.0
C180 C 0.60743 0.88731 0.63641 0.0
O181 O 0.62301 0.90982 0.64604 0.0
C182 C 0.61236 0.97994 0.58827 0.0
O183 O 0.58757 0.96222 0.59043 0.0
O184 O 0.58389 0.97037 0.63365 0.0
O185 O 0.55304 0.92789 0.63227 0.0
H186 H 0.62135 0.03817 0.68861 0.0
H187 H 0.59727 0.90391 0.58981 0.0
O188 O 0.58548 0.88272 0.62856 0.0
H189 H 0.51212 0.89017 0.56351 0.0
H190 H 0.49788 0.81164 0.6251 0.0
H191 H 0.52845 0.89599 0.6633 0.0
H192 H 0.52291 0.89576 0.60345 0.0
H193 H 0.53985 0.85039 0.61473 0.0
O194 O 0.62775 0.98635 0.60497 0.0
H195 H 0.60223 0.99423 0.67185 0.0
H196 H 0.66612 0.02147 0.62694 0.0
H197 H 0.48616 0.85784 0.67396 0.0
H198 H 0.58722 0.89824 0.54971 0.0
H199 H 0.47065 0.81528 0.65482 0.0
H200 H 0.54442 0.89141 0.53633 0.0
O201 O 0.57877 0.9119 0.6622 0.0
H202 H 0.69127 0.95844 0.60756 0.0
H203 H 0.65652 0.9829 0.67208 0.0
H204 H 0.69794 0.98247 0.67571 0.0
H205 H 0.71559 0.97021 0.64329 0.0
H206 H 0.6498 0.95889 0.60471 0.0
H207 H 0.68582 0.0658 0.64307 0.0
H208 H 0.66344 0.07433 0.67419 0.0
O209 O 0.60782 0.95481 0.66641 0.0
C210 C 0.56002 0.95209 0.63323 0.0
C211 C 0.63133 0.03468 0.6751 0.0
C212 C 0.6675 0.0502 0.64951 0.0
N213 N 0.63317 0.00527 0.64857 0.0
C214 C 0.62064 0.00983 0.66559 0.0
C215 C 0.65623 0.02509 0.64041 0.0
C216 C 0.65493 0.05497 0.66699 0.0
C217 C 0.5785 0.90068 0.58411 0.0
N218 N 0.56065 0.90001 0.59894 0.0
C219 C 0.57296 0.89759 0.56139 0.0
C220 C 0.54895 0.89379 0.5539 0.0
C221 C 0.53083 0.8931 0.56914 0.0
C222 C 0.53706 0.89631 0.59173 0.0
C223 C 0.5044 0.83009 0.63353 0.0
C224 C 0.52173 0.87758 0.65478 0.0
C225 C 0.52818 0.85208 0.62778 0.0
N226 N 0.53648 0.87547 0.63829 0.0
C227 C 0.49781 0.85603 0.66094 0.0
C228 C 0.48913 0.83215 0.65021 0.0
C229 C 0.59301 0.93183 0.67428 0.0
C230 C 0.68382 0.96389 0.62179 0.0
C231 C 0.66404 0.97749 0.65791 0.0
C232 C 0.68753 0.97733 0.66005 0.0
C233 C 0.69744 0.97046 0.64185 0.0
N234 N 0.65082 0.97106 0.63817 0.0
C235 C 0.6604 0.9643 0.62025 0.0
Co236 Co 0.65857 0.56671 0.12536 0.0
Co237 Co 0.64045 0.61374 0.13255 0.0
O238 O 0.66137 0.60033 0.11848 0.0
C239 C 0.71442 0.60484 0.1342 0.0
O240 O 0.7069 0.61989 0.14394 0.0
C241 C 0.62828 0.60988 0.08471 0.0
O242 O 0.62754 0.58731 0.08538 0.0
O243 O 0.60757 0.57935 0.12993 0.0
O244 O 0.61966 0.54909 0.12587 0.0
H245 H 0.57521 0.6129 0.18667 0.0
H246 H 0.6904 0.59716 0.08678 0.0
O247 O 0.6976 0.58336 0.12523 0.0
H248 H 0.62135 0.51361 0.05563 0.0
H249 H 0.68347 0.4969 0.1183 0.0
H250 H 0.62625 0.5233 0.15635 0.0
H251 H 0.62405 0.52163 0.09602 0.0
H252 H 0.68606 0.53894 0.10937 0.0
O253 O 0.63311 0.62359 0.10235 0.0
H254 H 0.60137 0.59585 0.16893 0.0
H255 H 0.63555 0.66102 0.12517 0.0
H256 H 0.62271 0.4809 0.16554 0.0
H257 H 0.68853 0.58988 0.04629 0.0
H258 H 0.65151 0.46748 0.14648 0.0
H259 H 0.6537 0.54793 0.03047 0.0
O260 O 0.65978 0.5738 0.1577 0.0
H261 H 0.72427 0.68987 0.10459 0.0
H262 H 0.66603 0.65206 0.16937 0.0
H263 H 0.70698 0.69434 0.1732 0.0
H264 H 0.7364 0.71353 0.14064 0.0
H265 H 0.68324 0.64752 0.10155 0.0
H266 H 0.60955 0.67866 0.14227 0.0
H267 H 0.57921 0.65459 0.17332 0.0
O268 O 0.64722 0.60373 0.16281 0.0
C269 C 0.60225 0.55572 0.12769 0.0
C270 C 0.58842 0.62361 0.1732 0.0
C271 C 0.60767 0.6605 0.14826 0.0
N272 N 0.6201 0.62755 0.14618 0.0
C273 C 0.60334 0.61409 0.16314 0.0
C274 C 0.62229 0.65039 0.13861 0.0
C275 C 0.59065 0.64699 0.16569 0.0
C276 C 0.67542 0.57871 0.08004 0.0
N277 N 0.65744 0.55981 0.09375 0.0
C278 C 0.67437 0.57475 0.05709 0.0
C279 C 0.6548 0.55122 0.04822 0.0
C280 C 0.63662 0.53197 0.06233 0.0
C281 C 0.63823 0.53664 0.08519 0.0
C282 C 0.67078 0.5025 0.12669 0.0
C283 C 0.63869 0.51749 0.14785 0.0
C284 C 0.67221 0.52631 0.12174 0.0
N285 N 0.65617 0.53346 0.13221 0.0
C286 C 0.63667 0.49351 0.15318 0.0
C287 C 0.65284 0.486 0.1425 0.0
C288 C 0.65478 0.58825 0.17019 0.0
C289 C 0.71158 0.68174 0.11888 0.0
C290 C 0.67876 0.66026 0.15514 0.0
C291 C 0.7019 0.68423 0.1574 0.0
C292 C 0.71839 0.69499 0.13912 0.0
N293 N 0.6722 0.64741 0.13522 0.0
C294 C 0.68827 0.65783 0.11723 0.0
Co295 Co 0.10213 0.66606 0.63687 0.0
Co296 Co 0.03822 0.64933 0.62501 0.0
O297 O 0.07603 0.66997 0.62006 0.0
C298 C 0.11875 0.72223 0.64228 0.0
O299 O 0.0945 0.71528 0.64744 0.0
C300 C 0.04633 0.63932 0.5789 0.0
O301 O 0.06572 0.63677 0.58661 0.0
O302 O 0.03889 0.61593 0.62652 0.0
O303 O 0.08001 0.62719 0.636 0.0
H304 H 0.95607 0.58218 0.66313 0.0
H305 H 0.11789 0.69859 0.59608 0.0
O306 O 0.12499 0.70495 0.63785 0.0
H307 H 0.14022 0.62972 0.58199 0.0
H308 H 0.19393 0.68882 0.65722 0.0
H309 H 0.10014 0.63234 0.67419 0.0
H310 H 0.1209 0.63165 0.61775 0.0
H311 H 0.16047 0.69275 0.63573 0.0
O312 O 0.03248 0.64435 0.59206 0.0
H313 H 0.00377 0.60825 0.65703 0.0
H314 H 0.99213 0.64694 0.60247 0.0
H315 H 0.13293 0.62759 0.69598 0.0
H316 H 0.13761 0.69767 0.5602 0.0
H317 H 0.18021 0.65596 0.68753 0.0
H318 H 0.14877 0.66295 0.55292 0.0
O319 O 0.08576 0.66694 0.66549 0.0
H320 H 0.05981 0.73615 0.59216 0.0
H321 H 0.01465 0.67377 0.65315 0.0
H322 H 0.01428 0.71538 0.65208 0.0
H323 H 0.03696 0.74689 0.62139 0.0
H324 H 0.05985 0.69439 0.59398 0.0
H325 H 0.94429 0.62113 0.60784 0.0
H326 H 0.92599 0.58855 0.63841 0.0
O327 O 0.0436 0.65378 0.65786 0.0
C328 C 0.05637 0.61014 0.63151 0.0
C329 C 0.96381 0.59638 0.6498 0.0
C330 C 0.9572 0.61821 0.61875 0.0
N331 N 0.00069 0.62923 0.62954 0.0
C332 C 0.99079 0.61125 0.64631 0.0
C333 C 0.98429 0.63273 0.61576 0.0
C334 C 0.94695 0.59994 0.63591 0.0
C335 C 0.12296 0.68359 0.59313 0.0
N336 N 0.11824 0.66518 0.60901 0.0
C337 C 0.13403 0.68311 0.57275 0.0
C338 C 0.14024 0.6636 0.56866 0.0
C339 C 0.13542 0.64493 0.58495 0.0
C340 C 0.12435 0.64604 0.60514 0.0
C341 C 0.17339 0.6763 0.66103 0.0
C342 C 0.12067 0.64463 0.67032 0.0
C343 C 0.15435 0.67848 0.64895 0.0
N344 N 0.12837 0.66264 0.65359 0.0
C345 C 0.13915 0.64191 0.68276 0.0
C346 C 0.16568 0.65786 0.67803 0.0
C347 C 0.06266 0.66095 0.67142 0.0
C348 C 0.0498 0.72255 0.60558 0.0
C349 C 0.02461 0.68741 0.63978 0.0
C350 C 0.02429 0.71091 0.63923 0.0
C351 C 0.03701 0.72858 0.622 0.0
N352 N 0.03716 0.68162 0.62359 0.0
C353 C 0.04968 0.69884 0.60665 0.0
Co354 Co 0.91541 0.57126 0.37246 0.0
Co355 Co 0.98129 0.61693 0.37706 0.0
O356 O 0.9447 0.60213 0.38619 0.0
C357 C 0.88073 0.59198 0.35945 0.0
O358 O 0.88203 0.58498 0.33899 0.0
C359 C 0.98219 0.60785 0.42537 0.0
O360 O 0.9599 0.58588 0.4232 0.0
O361 O 0.97849 0.58188 0.37825 0.0
O362 O 0.93644 0.55335 0.37026 0.0
H363 H 0.05474 0.62079 0.33188 0.0
H364 H 0.90682 0.59135 0.41495 0.0
O365 O 0.89377 0.5888 0.37484 0.0
H366 H 0.88647 0.50112 0.43099 0.0
H367 H 0.82071 0.50134 0.36434 0.0
H368 H 0.90994 0.53719 0.33429 0.0
H369 H 0.8998 0.51954 0.39336 0.0
H370 H 0.85794 0.53996 0.38159 0.0
O371 O 0.99293 0.62271 0.40873 0.0
H372 H 0.00876 0.60276 0.34341 0.0
H373 H 0.03182 0.66255 0.39199 0.0
H374 H 0.8733 0.4985 0.31659 0.0
H375 H 0.89321 0.57355 0.45275 0.0
H376 H 0.82829 0.48033 0.33162 0.0
H377 H 0.88305 0.52817 0.46099 0.0
O378 O 0.92739 0.58634 0.34223 0.0
H379 H 0.96912 0.68967 0.40687 0.0
H380 H 0.0024 0.66079 0.34425 0.0
H381 H 0.00541 0.70398 0.34264 0.0
H382 H 0.98877 0.71871 0.37416 0.0
H383 H 0.96627 0.6465 0.40767 0.0
H384 H 0.07807 0.68109 0.38111 0.0
H385 H 0.08976 0.66023 0.35079 0.0
O386 O 0.97098 0.61173 0.34518 0.0
C387 C 0.95992 0.55881 0.37403 0.0
C388 C 0.04988 0.63011 0.34506 0.0
C389 C 0.06298 0.66393 0.37271 0.0
N390 N 0.0176 0.63172 0.36822 0.0
C391 C 0.02388 0.62003 0.35162 0.0
C392 C 0.03676 0.65332 0.37883 0.0
C393 C 0.06953 0.65222 0.35569 0.0
C394 C 0.9021 0.57147 0.41832 0.0
N395 N 0.90399 0.55648 0.40191 0.0
C396 C 0.89454 0.56154 0.4398 0.0
C397 C 0.88889 0.5361 0.44442 0.0
C398 C 0.89084 0.52092 0.4276 0.0
C399 C 0.89848 0.5315 0.40633 0.0
C400 C 0.84023 0.50906 0.35766 0.0
C401 C 0.89042 0.52935 0.34097 0.0
C402 C 0.86138 0.53092 0.36735 0.0
N403 N 0.8861 0.54076 0.35899 0.0
C404 C 0.86975 0.50746 0.33086 0.0
C405 C 0.8445 0.49728 0.3393 0.0
C406 C 0.94997 0.60082 0.33378 0.0
C407 C 0.97647 0.68349 0.39305 0.0
C408 C 0.99495 0.66698 0.35795 0.0
C409 C 0.9968 0.6915 0.35698 0.0
C410 C 0.98748 0.69976 0.37468 0.0
N411 N 0.98419 0.65115 0.37604 0.0
C412 C 0.97496 0.65909 0.39343 0.0
Co413 Co 0.33165 0.90641 0.88285 0.0
Co414 Co 0.35154 0.9721 0.87634 0.0
O415 O 0.32971 0.93767 0.89 0.0
C416 C 0.27604 0.88978 0.8735 0.0
O417 O 0.28411 0.91238 0.8636 0.0
C418 C 0.36348 0.97978 0.92429 0.0
O419 O 0.36333 0.95749 0.92359 0.0
O420 O 0.38385 0.96959 0.87907 0.0
O421 O 0.37063 0.92693 0.88275 0.0
H422 H 0.4184 0.03628 0.82306 0.0
H423 H 0.29979 0.90541 0.92126 0.0
O424 O 0.29249 0.88472 0.88266 0.0
H425 H 0.36693 0.88816 0.95261 0.0
H426 H 0.30446 0.81101 0.889 0.0
H427 H 0.36372 0.89479 0.85202 0.0
H428 H 0.36492 0.89419 0.91226 0.0
H429 H 0.30279 0.85089 0.89819 0.0
O430 O 0.35899 0.98898 0.90667 0.0
H431 H 0.39115 0.99297 0.84034 0.0
H432 H 0.35779 0.0248 0.88411 0.0
H433 H 0.36635 0.85548 0.84258 0.0
H434 H 0.30097 0.8993 0.96172 0.0
H435 H 0.33653 0.81319 0.8611 0.0
H436 H 0.33484 0.89078 0.97765 0.0
O437 O 0.33111 0.91292 0.85051 0.0
H438 H 0.26845 0.96641 0.90387 0.0
H439 H 0.32715 0.98625 0.83949 0.0
H440 H 0.28691 0.98886 0.8355 0.0
H441 H 0.25726 0.97893 0.86785 0.0
H442 H 0.3088 0.96383 0.90707 0.0
H443 H 0.38489 0.06854 0.86747 0.0
H444 H 0.41537 0.07444 0.83664 0.0
O445 O 0.34482 0.95575 0.84595 0.0
C446 C 0.38853 0.95083 0.8812 0.0
C447 C 0.40513 0.03394 0.83643 0.0
C448 C 0.38635 0.05205 0.86138 0.0
N449 N 0.37276 0.00635 0.86308 0.0
C450 C 0.3896 0.00946 0.84623 0.0
C451 C 0.37111 0.02727 0.87077 0.0
C452 C 0.40344 0.05535 0.84408 0.0
C453 C 0.31436 0.90136 0.92805 0.0
N454 N 0.33219 0.90007 0.91442 0.0
C455 C 0.31501 0.89804 0.95098 0.0
C456 C 0.33405 0.8933 0.95991 0.0
C457 C 0.35208 0.89186 0.94587 0.0
C458 C 0.35087 0.89533 0.92304 0.0
C459 C 0.31759 0.82933 0.88084 0.0
C460 C 0.35082 0.8765 0.86027 0.0
C461 C 0.31668 0.85196 0.88593 0.0
N462 N 0.33326 0.87518 0.87576 0.0
C463 C 0.35234 0.85429 0.8548 0.0
C464 C 0.33559 0.83057 0.86519 0.0
C465 C 0.3369 0.93277 0.83827 0.0
C466 C 0.28125 0.97085 0.88967 0.0
C467 C 0.31431 0.98185 0.85363 0.0
C468 C 0.29158 0.98341 0.85128 0.0
C469 C 0.27496 0.97785 0.86945 0.0
N470 N 0.32036 0.97502 0.87354 0.0
C471 C 0.30416 0.96952 0.89141 0.0
Co472 Co 0.42797 0.33324 0.36885 0.0
Co473 Co 0.38043 0.35036 0.37897 0.0
O474 O 0.39687 0.32891 0.38472 0.0
C475 C 0.38991 0.27458 0.36778 0.0
O476 O 0.37111 0.27655 0.37756 0.0
C477 C 0.39386 0.35937 0.42709 0.0
O478 O 0.41459 0.35716 0.42341 0.0
O479 O 0.41494 0.38355 0.37854 0.0
O480 O 0.44498 0.37168 0.37224 0.0
H481 H 0.36955 0.41909 0.33902 0.0
H482 H 0.40761 0.2981 0.40831 0.0
O483 O 0.41225 0.29463 0.36427 0.0
H484 H 0.49847 0.36392 0.42714 0.0
H485 H 0.49837 0.31184 0.34984 0.0
H486 H 0.46275 0.37009 0.33436 0.0
H487 H 0.4798 0.36508 0.39084 0.0
H488 H 0.45929 0.30611 0.36973 0.0
O489 O 0.3779 0.35592 0.41147 0.0
H490 H 0.38993 0.39222 0.34676 0.0
H491 H 0.33563 0.35327 0.39893 0.0
H492 H 0.50205 0.37669 0.3143 0.0
H493 H 0.4256 0.29598 0.44464 0.0
H494 H 0.5201 0.34742 0.32199 0.0
H495 H 0.47134 0.32912 0.45433 0.0
O496 O 0.41321 0.33495 0.33947 0.0
H497 H 0.31171 0.26513 0.41177 0.0
H498 H 0.33391 0.32628 0.34893 0.0
H499 H 0.29116 0.2855 0.34948 0.0
H500 H 0.2798 0.25463 0.38111 0.0
H501 H 0.35442 0.30597 0.41038 0.0
H502 H 0.3148 0.37987 0.39187 0.0
H503 H 0.3317 0.413 0.36167 0.0
O504 O 0.38263 0.34601 0.34646 0.0
C505 C 0.43853 0.38895 0.37571 0.0
C506 C 0.36195 0.40467 0.35218 0.0
C507 C 0.33124 0.38267 0.38186 0.0
N508 N 0.36386 0.37106 0.37316 0.0
C509 C 0.37337 0.38934 0.3566 0.0
C510 C 0.34315 0.3677 0.3858 0.0
C511 C 0.34074 0.40125 0.36491 0.0
C512 C 0.42763 0.31232 0.41217 0.0
N513 N 0.44268 0.33146 0.39726 0.0
C514 C 0.43767 0.31114 0.43288 0.0
C515 C 0.46331 0.32978 0.43833 0.0
C516 C 0.47854 0.34931 0.42309 0.0
C517 C 0.46782 0.34989 0.40255 0.0
C518 C 0.49071 0.32474 0.34637 0.0
C519 C 0.47059 0.35737 0.3379 0.0
C520 C 0.46855 0.32155 0.35753 0.0
N521 N 0.45886 0.33788 0.35333 0.0
C522 C 0.4928 0.36116 0.32644 0.0
C523 C 0.5029 0.34472 0.33075 0.0
C524 C 0.39576 0.34026 0.33313 0.0
C525 C 0.31642 0.27844 0.39792 0.0
C526 C 0.32921 0.31284 0.36265 0.0
C527 C 0.30492 0.28984 0.36292 0.0
C528 C 0.29854 0.27254 0.38069 0.0
N529 N 0.34665 0.31848 0.37961 0.0
C530 C 0.34052 0.30164 0.39709 0.0
Co531 Co 0.0955 0.43883 0.87864 0.0
Co532 Co 0.03088 0.38972 0.87204 0.0
O533 O 0.066 0.40402 0.88519 0.0
C534 C 0.11783 0.40267 0.87255 0.0
O535 O 0.09498 0.38126 0.87421 0.0
C536 C 0.02358 0.39221 0.92054 0.0
O537 O 0.04558 0.41465 0.92029 0.0
O538 O 0.03097 0.42354 0.87518 0.0
O539 O 0.07262 0.4543 0.88123 0.0
H540 H 0.96377 0.3883 0.8198 0.0
H541 H 0.10039 0.40739 0.91482 0.0
O542 O 0.12027 0.42522 0.87505 0.0
H543 H 0.11307 0.48796 0.95086 0.0
H544 H 0.18856 0.51308 0.88419 0.0
H545 H 0.10218 0.48245 0.8498 0.0
H546 H 0.10568 0.48174 0.91045 0.0
H547 H 0.1515 0.4692 0.89275 0.0
O548 O 0.0145 0.37928 0.90254 0.0
H549 H 0.00765 0.40653 0.83653 0.0
H550 H 0.97964 0.34142 0.88018 0.0
H551 H 0.1386 0.52659 0.841 0.0
H552 H 0.10792 0.4129 0.95524 0.0
H553 H 0.18218 0.54216 0.85825 0.0
H554 H 0.11418 0.45336 0.97355 0.0
O555 O 0.08813 0.43303 0.84632 0.0
H556 H 0.04038 0.31421 0.89885 0.0
H557 H 0.01862 0.35196 0.83483 0.0
H558 H 0.01785 0.31002 0.83049 0.0
H559 H 0.0287 0.29083 0.86267 0.0
H560 H 0.04125 0.3563 0.90239 0.0
H561 H 0.93538 0.32262 0.86408 0.0
H562 H 0.92727 0.34606 0.83361 0.0
O563 O 0.04676 0.4002 0.84149 0.0
C564 C 0.04856 0.44716 0.8789 0.0
C565 C 0.96708 0.37787 0.83303 0.0
C566 C 0.95114 0.34102 0.85791 0.0
N567 N 0.99622 0.37496 0.85919 0.0
C568 C 0.99189 0.38805 0.84252 0.0
C569 C 0.97621 0.35179 0.86699 0.0
C570 C 0.9466 0.35418 0.8408 0.0
C571 C 0.10352 0.42523 0.92259 0.0
N572 N 0.10286 0.44431 0.91023 0.0
C573 C 0.10761 0.42817 0.94552 0.0
C574 C 0.11107 0.45086 0.95578 0.0
C575 C 0.11043 0.47027 0.94307 0.0
C576 C 0.10623 0.46662 0.92019 0.0
C577 C 0.16965 0.50655 0.87663 0.0
C578 C 0.12103 0.48917 0.85751 0.0
C579 C 0.1486 0.48171 0.88138 0.0
N580 N 0.12461 0.4734 0.872 0.0
C581 C 0.1416 0.51415 0.8524 0.0
C582 C 0.16605 0.52286 0.86207 0.0
C583 C 0.06909 0.41746 0.83392 0.0
C584 C 0.03556 0.32234 0.88472 0.0
C585 C 0.02355 0.34384 0.84888 0.0
C586 C 0.02298 0.32003 0.84634 0.0
C587 C 0.02904 0.30926 0.86441 0.0
N588 N 0.02994 0.35654 0.86887 0.0
C589 C 0.0359 0.34611 0.88665 0.0
Co590 Co 0.66314 0.0928 0.3714 0.0
Co591 Co 0.64812 0.0296 0.3831 0.0
O592 O 0.66827 0.06735 0.38799 0.0
C593 C 0.71965 0.11168 0.36524 0.0
O594 O 0.71325 0.08763 0.35988 0.0
C595 C 0.63846 0.03262 0.43131 0.0
O596 O 0.62748 0.04652 0.42605 0.0
O597 O 0.61429 0.02959 0.38481 0.0
O598 O 0.62442 0.06934 0.37205 0.0
H599 H 0.57807 0.94639 0.34842 0.0
H600 H 0.69517 0.10893 0.41244 0.0
O601 O 0.70194 0.11705 0.3705 0.0
H602 H 0.62329 0.12688 0.42665 0.0
H603 H 0.68203 0.18363 0.35198 0.0
H604 H 0.62904 0.08971 0.33399 0.0
H605 H 0.62664 0.10882 0.39066 0.0
H606 H 0.6875 0.1509 0.37319 0.0
O607 O 0.64765 0.02425 0.41624 0.0
H608 H 0.60378 0.99417 0.35408 0.0
H609 H 0.64963 0.98429 0.40338 0.0
H610 H 0.62275 0.12174 0.3125 0.0
H611 H 0.6927 0.12722 0.44864 0.0
H612 H 0.64937 0.16909 0.32145 0.0
H613 H 0.65652 0.13626 0.45594 0.0
O614 O 0.66493 0.07718 0.34265 0.0
H615 H 0.73887 0.05362 0.4076 0.0
H616 H 0.67013 0.00671 0.35142 0.0
H617 H 0.71217 0.00748 0.3481 0.0
H618 H 0.74688 0.03103 0.37634 0.0
H619 H 0.69663 0.05256 0.41018 0.0
H620 H 0.62428 0.93638 0.39838 0.0
H621 H 0.58827 0.91715 0.37067 0.0
O622 O 0.64868 0.03445 0.34998 0.0
C623 C 0.60786 0.04628 0.37851 0.0
C624 C 0.59376 0.95454 0.3605 0.0
C625 C 0.61967 0.94892 0.38856 0.0
N626 N 0.6283 0.992 0.37891 0.0
C627 C 0.60843 0.98157 0.36373 0.0
C628 C 0.63392 0.97605 0.39135 0.0
C629 C 0.59948 0.93814 0.37301 0.0
C630 C 0.67949 0.11301 0.41545 0.0
N631 N 0.66116 0.10794 0.39943 0.0
C632 C 0.67814 0.12328 0.43599 0.0
C633 C 0.65782 0.12832 0.44008 0.0
C634 C 0.63917 0.12305 0.42367 0.0
C635 C 0.64113 0.11277 0.40333 0.0
C636 C 0.67027 0.16305 0.34795 0.0
C637 C 0.64057 0.11027 0.33808 0.0
C638 C 0.67333 0.14444 0.35987 0.0
N639 N 0.65846 0.11841 0.35493 0.0
C640 C 0.63698 0.12832 0.32581 0.0
C641 C 0.65194 0.15488 0.33083 0.0
C642 C 0.65685 0.05367 0.33645 0.0
C643 C 0.72387 0.04323 0.39523 0.0
C644 C 0.68515 0.01705 0.36375 0.0
C645 C 0.7089 0.01737 0.36181 0.0
C646 C 0.72837 0.03058 0.37767 0.0
N647 N 0.68087 0.02947 0.38105 0.0
C648 C 0.69987 0.04246 0.39666 0.0
Co649 Co 0.56857 0.66353 0.86709 0.0
Co650 Co 0.61382 0.64601 0.88367 0.0
O651 O 0.59644 0.66695 0.88695 0.0
C652 C 0.60398 0.72206 0.87245 0.0
O653 O 0.62311 0.71952 0.8808 0.0
C654 C 0.59499 0.63783 0.93003 0.0
O655 O 0.57306 0.6351 0.92208 0.0
O656 O 0.57963 0.6127 0.88211 0.0
O657 O 0.55378 0.62498 0.86491 0.0
H658 H 0.62937 0.57736 0.84927 0.0
H659 H 0.57659 0.6916 0.9098 0.0
O660 O 0.58206 0.70214 0.86752 0.0
H661 H 0.48624 0.61722 0.91284 0.0
H662 H 0.49933 0.68303 0.83991 0.0
H663 H 0.54555 0.6343 0.82534 0.0
H664 H 0.51372 0.62438 0.87978 0.0
H665 H 0.53327 0.68623 0.86574 0.0
O666 O 0.61368 0.64204 0.91694 0.0
H667 H 0.60786 0.60382 0.85325 0.0
H668 H 0.65669 0.64405 0.90822 0.0
H669 H 0.51175 0.63053 0.7991 0.0
H670 H 0.54968 0.6854 0.94305 0.0
H671 H 0.48835 0.655 0.80633 0.0
H672 H 0.50419 0.64791 0.94476 0.0
O673 O 0.59092 0.66871 0.84102 0.0
H674 H 0.67983 0.73219 0.91712 0.0
H675 H 0.66236 0.66973 0.85613 0.0
H676 H 0.70494 0.71061 0.85784 0.0
H677 H 0.71395 0.74213 0.88855 0.0
H678 H 0.63734 0.69128 0.91457 0.0
H679 H 0.67856 0.61785 0.90498 0.0
H680 H 0.66499 0.5843 0.87527 0.0
O681 O 0.61419 0.6494 0.8502 0.0
C682 C 0.55856 0.60758 0.87221 0.0
C683 C 0.63552 0.59198 0.86224 0.0
C684 C 0.66311 0.61468 0.89352 0.0
N685 N 0.63116 0.62559 0.88083 0.0
C686 C 0.62347 0.60707 0.86453 0.0
C687 C 0.65062 0.62942 0.89531 0.0
C688 C 0.65548 0.59587 0.87685 0.0
C689 C 0.5567 0.67549 0.91027 0.0
N690 N 0.5467 0.65852 0.89279 0.0
C691 C 0.5416 0.67197 0.92921 0.0
C692 C 0.51609 0.6509 0.93017 0.0
C693 C 0.50602 0.63366 0.91228 0.0
C694 C 0.5217 0.63778 0.89363 0.0
C695 C 0.50932 0.6722 0.83663 0.0
C696 C 0.53532 0.64485 0.8287 0.0
C697 C 0.52855 0.67392 0.8512 0.0
N698 N 0.54119 0.66023 0.84719 0.0
C699 C 0.51625 0.6427 0.81374 0.0
C700 C 0.50317 0.65646 0.81779 0.0
C701 C 0.60608 0.65993 0.83602 0.0
C702 C 0.67616 0.71859 0.90367 0.0
C703 C 0.66601 0.68347 0.86942 0.0
C704 C 0.69022 0.70652 0.87037 0.0
C705 C 0.69527 0.72418 0.88762 0.0
N706 N 0.64734 0.67814 0.88521 0.0
C707 C 0.65218 0.69533 0.9022 0.0
Co708 Co 0.56625 0.90586 0.88264 0.0
Co709 Co 0.61325 0.9714 0.8768 0.0
O710 O 0.60008 0.93646 0.88992 0.0
C711 C 0.60542 0.88694 0.87901 0.0
O712 O 0.62553 0.91002 0.8835 0.0
C713 C 0.60825 0.97797 0.925 0.0
O714 O 0.58663 0.9552 0.92431 0.0
O715 O 0.57838 0.96914 0.87873 0.0
O716 O 0.54885 0.92709 0.88503 0.0
H717 H 0.61266 0.03675 0.82364 0.0
H718 H 0.59797 0.90312 0.91996 0.0
O719 O 0.58211 0.88292 0.87914 0.0
H720 H 0.51406 0.88412 0.95347 0.0
H721 H 0.49569 0.81103 0.88632 0.0
H722 H 0.52223 0.89733 0.85342 0.0
H723 H 0.52154 0.89234 0.91326 0.0
H724 H 0.53836 0.84947 0.89571 0.0
O725 O 0.62171 0.9877 0.90737 0.0
H726 H 0.59591 0.99308 0.84041 0.0
H727 H 0.6595 0.02391 0.88584 0.0
H728 H 0.47925 0.85951 0.84383 0.0
H729 H 0.59124 0.89479 0.96016 0.0
H730 H 0.46575 0.81596 0.86031 0.0
H731 H 0.54908 0.88535 0.97723 0.0
O732 O 0.5726 0.91379 0.85042 0.0
H733 H 0.69059 0.96706 0.90655 0.0
H734 H 0.65277 0.98566 0.84075 0.0
H735 H 0.69609 0.98912 0.83793 0.0
H736 H 0.71532 0.97986 0.87102 0.0
H737 H 0.64715 0.96347 0.90854 0.0
H738 H 0.6768 0.06798 0.86972 0.0
H739 H 0.65338 0.07458 0.83833 0.0
O740 O 0.60467 0.95562 0.84619 0.0
C741 C 0.55503 0.95087 0.88238 0.0
C742 C 0.62308 0.03411 0.83727 0.0
C743 C 0.65906 0.05165 0.86316 0.0
N744 N 0.62682 0.00594 0.86396 0.0
C745 C 0.61373 0.00942 0.84678 0.0
C746 C 0.64914 0.02667 0.87225 0.0
C747 C 0.64591 0.05533 0.84554 0.0
C748 C 0.57941 0.89854 0.92711 0.0
N749 N 0.56007 0.89786 0.91414 0.0
C750 C 0.57577 0.89403 0.94996 0.0
C751 C 0.55214 0.88879 0.95954 0.0
C752 C 0.53249 0.88812 0.94622 0.0
C753 C 0.53685 0.89278 0.92344 0.0
C754 C 0.50133 0.82991 0.87907 0.0
C755 C 0.51641 0.87848 0.86079 0.0
C756 C 0.52549 0.85173 0.88428 0.0
N757 N 0.53266 0.87567 0.87529 0.0
C758 C 0.49209 0.85712 0.85523 0.0
C759 C 0.48454 0.8327 0.86447 0.0
C760 C 0.58821 0.93316 0.83834 0.0
C761 C 0.68244 0.97119 0.89203 0.0
C762 C 0.66091 0.9814 0.85517 0.0
C763 C 0.6855 0.9835 0.8535 0.0
C764 C 0.69629 0.97834 0.87208 0.0
N765 N 0.64746 0.97439 0.8748 0.0
C766 C 0.65791 0.96931 0.89309 0.0
Co767 Co 0.66191 0.56439 0.37799 0.0
Co768 Co 0.64473 0.6122 0.37315 0.0
O769 O 0.66509 0.59771 0.38616 0.0
C770 C 0.71919 0.59768 0.36825 0.0
O771 O 0.71387 0.60859 0.35159 0.0
C772 C 0.63144 0.60553 0.42061 0.0
O773 O 0.62695 0.58161 0.41765 0.0
O774 O 0.6113 0.57812 0.37513 0.0
O775 O 0.62317 0.54747 0.37576 0.0
H776 H 0.58005 0.61549 0.32085 0.0
H777 H 0.69104 0.59184 0.41869 0.0
O778 O 0.70097 0.58056 0.38041 0.0
H779 H 0.61942 0.50649 0.44438 0.0
H780 H 0.68459 0.49284 0.38309 0.0
H781 H 0.63107 0.52346 0.34455 0.0
H782 H 0.62521 0.5174 0.40447 0.0
H783 H 0.68762 0.53471 0.39352 0.0
O784 O 0.63853 0.62128 0.40412 0.0
H785 H 0.60546 0.59672 0.33706 0.0
H786 H 0.64117 0.6598 0.38283 0.0
H787 H 0.62718 0.48132 0.33379 0.0
H788 H 0.68603 0.58167 0.45876 0.0
H789 H 0.65409 0.46577 0.35311 0.0
H790 H 0.64994 0.53877 0.47184 0.0
O791 O 0.66462 0.57366 0.34601 0.0
H792 H 0.72973 0.68631 0.40158 0.0
H793 H 0.67047 0.65152 0.3371 0.0
H794 H 0.71178 0.69356 0.33374 0.0
H795 H 0.7417 0.71125 0.36616 0.0
H796 H 0.68833 0.64425 0.40417 0.0
H797 H 0.61593 0.67913 0.36728 0.0
H798 H 0.5852 0.65698 0.336 0.0
O799 O 0.65068 0.60278 0.34231 0.0
C800 C 0.60584 0.55431 0.37519 0.0
C801 C 0.59343 0.62536 0.33444 0.0
C802 C 0.61355 0.66106 0.36052 0.0
N803 N 0.62491 0.62728 0.36074 0.0
C804 C 0.60793 0.61487 0.34363 0.0
C805 C 0.62773 0.65 0.36929 0.0
C806 C 0.59631 0.64863 0.34296 0.0
C807 C 0.6755 0.573 0.42424 0.0
N808 N 0.65855 0.55518 0.40924 0.0
C809 C 0.67268 0.5674 0.44695 0.0
C810 C 0.65239 0.54335 0.45428 0.0
C811 C 0.63526 0.52523 0.43888 0.0
C812 C 0.63863 0.53152 0.4163 0.0
C813 C 0.67273 0.49938 0.37458 0.0
C814 C 0.64272 0.51674 0.35314 0.0
C815 C 0.67441 0.5231 0.38037 0.0
N816 N 0.65937 0.53141 0.36978 0.0
C817 C 0.64049 0.4929 0.34692 0.0
C818 C 0.6556 0.4842 0.35776 0.0
C819 C 0.65883 0.58806 0.33419 0.0
C820 C 0.71683 0.67884 0.38736 0.0
C821 C 0.68344 0.65905 0.35126 0.0
C822 C 0.70677 0.68289 0.34927 0.0
C823 C 0.72354 0.69281 0.36747 0.0
N824 N 0.67695 0.64552 0.37085 0.0
C825 C 0.69332 0.65508 0.38875 0.0
Co826 Co 0.09072 0.66837 0.87376 0.0
Co827 Co 0.02518 0.64996 0.87801 0.0
O828 O 0.0619 0.67121 0.88708 0.0
C829 C 0.10858 0.72494 0.86742 0.0
O830 O 0.08543 0.71842 0.85933 0.0
C831 C 0.02358 0.63982 0.92636 0.0
O832 O 0.04585 0.64006 0.92449 0.0
O833 O 0.02682 0.617 0.8794 0.0
O834 O 0.06903 0.62948 0.87347 0.0
H835 H 0.95083 0.58125 0.83294 0.0
H836 H 0.09985 0.69957 0.91478 0.0
O837 O 0.11349 0.70734 0.87402 0.0
H838 H 0.12069 0.63096 0.93476 0.0
H839 H 0.18505 0.69247 0.86471 0.0
H840 H 0.09473 0.63602 0.83799 0.0
H841 H 0.10692 0.63381 0.8967 0.0
H842 H 0.14843 0.6954 0.88143 0.0
O843 O 0.01335 0.64445 0.90962 0.0
H844 H 0.99692 0.60825 0.84455 0.0
H845 H 0.97529 0.64676 0.89258 0.0
H846 H 0.13072 0.63223 0.82098 0.0
H847 H 0.1139 0.69768 0.953 0.0
H848 H 0.17628 0.66061 0.83433 0.0
H849 H 0.1243 0.6631 0.96323 0.0
O850 O 0.07878 0.66996 0.84299 0.0
H851 H 0.04034 0.73624 0.90709 0.0
H852 H 0.00541 0.67364 0.84485 0.0
H853 H 0.00432 0.71483 0.84273 0.0
H854 H 0.02185 0.74646 0.87403 0.0
H855 H 0.04123 0.69489 0.90841 0.0
H856 H 0.92895 0.62002 0.88162 0.0
H857 H 0.91649 0.58706 0.85154 0.0
O858 O 0.03559 0.65454 0.84624 0.0
C859 C 0.04523 0.61191 0.87653 0.0
C860 C 0.95603 0.59561 0.84602 0.0
C861 C 0.94375 0.61735 0.87337 0.0
N862 N 0.98881 0.62919 0.8691 0.0
C863 C 0.9821 0.611 0.85262 0.0
C864 C 0.97001 0.63239 0.87952 0.0
C865 C 0.93677 0.59886 0.85648 0.0
C866 C 0.10458 0.68461 0.91905 0.0
N867 N 0.10252 0.66678 0.90352 0.0
C868 C 0.11242 0.68358 0.94075 0.0
C869 C 0.11822 0.66415 0.94648 0.0
C870 C 0.11617 0.64609 0.93053 0.0
C871 C 0.10824 0.64772 0.90901 0.0
C872 C 0.16528 0.67997 0.85877 0.0
C873 C 0.11448 0.64832 0.84399 0.0
C874 C 0.14447 0.6816 0.86813 0.0
N875 N 0.11944 0.66579 0.86078 0.0
C876 C 0.13479 0.64614 0.83425 0.0
C877 C 0.16034 0.66208 0.84173 0.0
C878 C 0.0563 0.66282 0.83465 0.0
C879 C 0.0326 0.7226 0.89336 0.0
C880 C 0.01318 0.68735 0.85848 0.0
C881 C 0.01244 0.71061 0.85722 0.0
C882 C 0.02226 0.72833 0.87479 0.0
N883 N 0.02334 0.68186 0.87674 0.0
C884 C 0.03298 0.69913 0.89404 0.0
Co885 Co 0.43108 0.09038 0.37003 0.0
Co886 Co 0.38318 0.02696 0.38272 0.0
O887 O 0.40037 0.06506 0.38683 0.0
C888 C 0.3947 0.11286 0.3705 0.0
O889 O 0.37603 0.09234 0.38062 0.0
C890 C 0.39691 0.03154 0.43084 0.0
O891 O 0.42167 0.04568 0.42528 0.0
O892 O 0.41727 0.02738 0.38421 0.0
O893 O 0.44678 0.06753 0.37244 0.0
H894 H 0.37064 0.94342 0.34924 0.0
H895 H 0.4143 0.10707 0.41053 0.0
O896 O 0.41669 0.11461 0.3663 0.0
H897 H 0.50505 0.12847 0.42529 0.0
H898 H 0.50322 0.18033 0.34836 0.0
H899 H 0.46239 0.08566 0.33372 0.0
H900 H 0.48381 0.10858 0.38968 0.0
H901 H 0.4648 0.14862 0.36995 0.0
O902 O 0.37911 0.02243 0.41597 0.0
H903 H 0.39213 0.9913 0.35405 0.0
H904 H 0.3373 0.98171 0.40412 0.0
H905 H 0.50094 0.11666 0.3119 0.0
H906 H 0.43485 0.12716 0.44625 0.0
H907 H 0.52162 0.16439 0.31917 0.0
H908 H 0.48057 0.13799 0.45387 0.0
O909 O 0.41393 0.07347 0.34166 0.0
H910 H 0.31408 0.04689 0.409 0.0
H911 H 0.33813 0.00347 0.35119 0.0
H912 H 0.29581 0.0022 0.34873 0.0
H913 H 0.28349 0.02393 0.37782 0.0
H914 H 0.35644 0.04813 0.41059 0.0
H915 H 0.31532 0.93372 0.39998 0.0
H916 H 0.33194 0.91429 0.37232 0.0
O917 O 0.38667 0.03101 0.34946 0.0
C918 C 0.44048 0.04447 0.37855 0.0
C919 C 0.36317 0.95166 0.3613 0.0
C920 C 0.33214 0.94621 0.3898 0.0
N921 N 0.36586 0.98927 0.37922 0.0
C922 C 0.37521 0.97875 0.36405 0.0
C923 C 0.3447 0.97339 0.39211 0.0
C924 C 0.34147 0.93532 0.37427 0.0
C925 C 0.43428 0.11202 0.41353 0.0
N926 N 0.44792 0.10701 0.39783 0.0
C927 C 0.44579 0.12327 0.43388 0.0
C928 C 0.47142 0.12929 0.43816 0.0
C929 C 0.48516 0.12396 0.42214 0.0
C930 C 0.47301 0.11268 0.40199 0.0
C931 C 0.49442 0.15959 0.34507 0.0
C932 C 0.47139 0.10638 0.33708 0.0
C933 C 0.47264 0.14154 0.35721 0.0
N934 N 0.46152 0.11529 0.35324 0.0
C935 C 0.49316 0.12385 0.32463 0.0
C936 C 0.50474 0.15062 0.3287 0.0
C937 C 0.39798 0.05001 0.33574 0.0
C938 C 0.31921 0.03732 0.39623 0.0
C939 C 0.33308 0.01324 0.36379 0.0
C940 C 0.309 0.01232 0.36237 0.0
C941 C 0.30208 0.02447 0.37872 0.0
N942 N 0.34982 0.02594 0.38099 0.0
C943 C 0.34312 0.03783 0.39711 0.0
Co944 Co 0.34244 0.43771 0.8612 0.0
Co945 Co 0.35632 0.39006 0.87721 0.0
O946 O 0.33795 0.40985 0.88142 0.0
C947 C 0.28421 0.40541 0.86459 0.0
O948 O 0.2855 0.38384 0.86451 0.0
C949 C 0.36791 0.40951 0.92307 0.0
O950 O 0.37298 0.43219 0.91492 0.0
O951 O 0.39073 0.42294 0.8753 0.0
O952 O 0.38014 0.44906 0.85638 0.0
H953 H 0.41994 0.36855 0.8409 0.0
H954 H 0.31916 0.43485 0.90536 0.0
O955 O 0.30492 0.42776 0.86475 0.0
H956 H 0.39977 0.5211 0.9032 0.0
H957 H 0.32925 0.51135 0.83491 0.0
H958 H 0.36841 0.45662 0.81755 0.0
H959 H 0.38665 0.49157 0.87085 0.0
H960 H 0.3247 0.47706 0.86097 0.0
O961 O 0.36102 0.38995 0.91024 0.0
H962 H 0.39637 0.39292 0.84579 0.0
H963 H 0.35544 0.34544 0.9012 0.0
H964 H 0.37358 0.49081 0.79109 0.0
H965 H 0.33129 0.464 0.93797 0.0
H966 H 0.35391 0.51846 0.79971 0.0
H967 H 0.37195 0.5074 0.93705 0.0
O968 O 0.33239 0.41319 0.83599 0.0
H969 H 0.26854 0.32973 0.91122 0.0
H970 H 0.32918 0.34113 0.85023 0.0
H971 H 0.2863 0.3006 0.85229 0.0
H972 H 0.25567 0.29468 0.88298 0.0
H973 H 0.31151 0.37008 0.90839 0.0
H974 H 0.37873 0.3207 0.89705 0.0
H975 H 0.41117 0.33215 0.86666 0.0
O976 O 0.35199 0.38976 0.84385 0.0
C977 C 0.39684 0.44365 0.86437 0.0
C978 C 0.40579 0.36331 0.85416 0.0
C979 C 0.38268 0.33648 0.88569 0.0
N980 N 0.3744 0.37045 0.87364 0.0
C981 C 0.39233 0.37699 0.85696 0.0
C982 C 0.36959 0.35058 0.88799 0.0
C983 C 0.40088 0.34291 0.86863 0.0
C984 C 0.33667 0.45387 0.90474 0.0
N985 N 0.35212 0.46151 0.88622 0.0
C986 C 0.34352 0.47023 0.92328 0.0
C987 C 0.36637 0.49456 0.92277 0.0
C988 C 0.38199 0.50224 0.90379 0.0
C989 C 0.37451 0.48538 0.88555 0.0
C990 C 0.33797 0.49949 0.83099 0.0
C991 C 0.35995 0.46869 0.82149 0.0
C992 C 0.33545 0.48003 0.84568 0.0
N993 N 0.34649 0.46501 0.84088 0.0
C994 C 0.36288 0.48797 0.80641 0.0
C995 C 0.35181 0.50346 0.81125 0.0
C996 C 0.3399 0.39711 0.83067 0.0
C997 C 0.28174 0.33205 0.8978 0.0
C998 C 0.31591 0.33876 0.86358 0.0
C999 C 0.29169 0.31573 0.86469 0.0
C1000 C 0.27452 0.31241 0.88193 0.0
N1001 N 0.32286 0.35792 0.87922 0.0
C1002 C 0.30614 0.35481 0.89616 0.0
Co1003 Co 0.9068 0.3342 0.3681 0.0
Co1004 Co 0.9701 0.34873 0.37873 0.0
O1005 O 0.93246 0.32896 0.38428 0.0
C1006 C 0.88702 0.27741 0.36248 0.0
O1007 O 0.9108 0.28329 0.35667 0.0
C1008 C 0.96914 0.35958 0.42711 0.0
O1009 O 0.95548 0.37093 0.42226 0.0
O1010 O 0.97049 0.38275 0.38035 0.0
O1011 O 0.93055 0.37285 0.36829 0.0
H1012 H 0.05265 0.41779 0.34243 0.0
H1013 H 0.89152 0.30276 0.40946 0.0
O1014 O 0.88218 0.29549 0.36769 0.0
H1015 H 0.87473 0.37535 0.42395 0.0
H1016 H 0.81582 0.31612 0.35037 0.0
H1017 H 0.90932 0.36801 0.33063 0.0
H1018 H 0.89168 0.37129 0.38762 0.0
H1019 H 0.84881 0.31046 0.37096 0.0
O1020 O 0.97643 0.34966 0.41178 0.0
H1021 H 0.00502 0.39252 0.34901 0.0
H1022 H 0.0157 0.34699 0.39811 0.0
H1023 H 0.87703 0.37447 0.30973 0.0
H1024 H 0.87433 0.30593 0.44599 0.0
H1025 H 0.8299 0.3484 0.31957 0.0
H1026 H 0.86589 0.34247 0.45343 0.0
O1027 O 0.92158 0.33188 0.339 0.0
H1028 H 0.9459 0.25813 0.40383 0.0
H1029 H 0.99179 0.32588 0.34668 0.0
H1030 H 0.9905 0.28358 0.34345 0.0
H1031 H 0.96745 0.24936 0.37219 0.0
H1032 H 0.94747 0.30063 0.40631 0.0
H1033 H 0.06347 0.3719 0.39219 0.0
H1034 H 0.08222 0.40752 0.36411 0.0
O1035 O 0.96439 0.34776 0.34571 0.0
C1036 C 0.95383 0.38932 0.37429 0.0
C1037 C 0.04471 0.40226 0.35466 0.0
C1038 C 0.05078 0.37653 0.38261 0.0
N1039 N 0.00759 0.36819 0.3738 0.0
C1040 C 0.01775 0.38784 0.35842 0.0
C1041 C 0.02373 0.36254 0.38593 0.0
C1042 C 0.06129 0.39651 0.36685 0.0
C1043 C 0.8877 0.31859 0.41253 0.0
N1044 N 0.89249 0.33674 0.3964 0.0
C1045 C 0.87805 0.32034 0.43326 0.0
C1046 C 0.87334 0.34086 0.43743 0.0
C1047 C 0.87831 0.35932 0.42091 0.0
C1048 C 0.88798 0.35696 0.40038 0.0
C1049 C 0.83631 0.32763 0.34595 0.0
C1050 C 0.88887 0.35671 0.3351 0.0
C1051 C 0.85507 0.32446 0.35752 0.0
N1052 N 0.88098 0.33902 0.3521 0.0
C1053 C 0.87067 0.3604 0.32316 0.0
C1054 C 0.84422 0.34575 0.32868 0.0
C1055 C 0.94493 0.33974 0.33245 0.0
C1056 C 0.95607 0.27291 0.39124 0.0
C1057 C 0.98167 0.31107 0.35922 0.0
C1058 C 0.98105 0.28717 0.35733 0.0
C1059 C 0.96813 0.26799 0.37346 0.0
N1060 N 0.96982 0.31577 0.37672 0.0
C1061 C 0.95712 0.29705 0.3926 0.0
Co1062 Co 0.10236 0.43549 0.62588 0.0
Co1063 Co 0.03771 0.38598 0.63037 0.0
O1064 O 0.07322 0.40112 0.61797 0.0
C1065 C 0.1254 0.39968 0.62953 0.0
O1066 O 0.10269 0.37815 0.62761 0.0
C1067 C 0.02942 0.39032 0.58231 0.0
O1068 O 0.04696 0.41522 0.5841 0.0
O1069 O 0.03707 0.4195 0.62723 0.0
O1070 O 0.0792 0.45064 0.62489 0.0
H1071 H 0.96749 0.38181 0.68035 0.0
H1072 H 0.10767 0.40667 0.58776 0.0
O1073 O 0.12747 0.42215 0.628 0.0
H1074 H 0.12027 0.4894 0.55641 0.0
H1075 H 0.19507 0.51078 0.62239 0.0
H1076 H 0.10844 0.47687 0.65732 0.0
H1077 H 0.11229 0.4803 0.5965 0.0
H1078 H 0.15836 0.46736 0.61211 0.0
O1079 O 0.02304 0.37535 0.59929 0.0
H1080 H 0.01212 0.40136 0.66496 0.0
H1081 H 0.98758 0.33703 0.62089 0.0
H1082 H 0.14451 0.5205 0.66788 0.0
H1083 H 0.11581 0.41506 0.5476 0.0
H1084 H 0.1882 0.53774 0.65036 0.0
H1085 H 0.12211 0.45666 0.53167 0.0
O1086 O 0.0946 0.4276 0.65789 0.0
H1087 H 0.05006 0.31176 0.60467 0.0
H1088 H 0.02515 0.34827 0.66762 0.0
H1089 H 0.02523 0.3068 0.67242 0.0
H1090 H 0.03765 0.28822 0.64077 0.0
H1091 H 0.05012 0.35339 0.60069 0.0
H1092 H 0.9426 0.31689 0.63565 0.0
H1093 H 0.93236 0.33928 0.66566 0.0
O1094 O 0.05221 0.39661 0.66143 0.0
C1095 C 0.05502 0.44341 0.62583 0.0
C1096 C 0.97172 0.37183 0.66731 0.0
C1097 C 0.95774 0.33542 0.6422 0.0
N1098 N 0.00247 0.37025 0.64215 0.0
C1099 C 0.99697 0.38277 0.65858 0.0
C1100 C 0.98322 0.34694 0.63387 0.0
C1101 C 0.95201 0.34798 0.65905 0.0
C1102 C 0.11072 0.42494 0.581 0.0
N1103 N 0.10983 0.44308 0.59451 0.0
C1104 C 0.11518 0.42953 0.55823 0.0
C1105 C 0.11867 0.45286 0.54929 0.0
C1106 C 0.11763 0.47123 0.56317 0.0
C1107 C 0.11309 0.46596 0.58586 0.0
C1108 C 0.17609 0.50353 0.63008 0.0
C1109 C 0.12734 0.48431 0.64949 0.0
C1110 C 0.15524 0.47895 0.62435 0.0
N1111 N 0.13118 0.46973 0.63389 0.0
C1112 C 0.14772 0.50899 0.6556 0.0
C1113 C 0.17223 0.51864 0.64577 0.0
C1114 C 0.0746 0.41277 0.66969 0.0
C1115 C 0.04455 0.31963 0.61857 0.0
C1116 C 0.0308 0.34044 0.65382 0.0
C1117 C 0.0307 0.31688 0.65661 0.0
C1118 C 0.03763 0.30645 0.63884 0.0
N1119 N 0.03761 0.35324 0.63388 0.0
C1120 C 0.04443 0.34313 0.61638 0.0
Co1121 Co 0.6652 0.09633 0.14016 0.0
Co1122 Co 0.64177 0.03194 0.12585 0.0
O1123 O 0.66526 0.06947 0.12131 0.0
C1124 C 0.72146 0.11159 0.14049 0.0
O1125 O 0.7147 0.08748 0.14601 0.0
C1126 C 0.6344 0.04167 0.07909 0.0
O1127 O 0.63284 0.06175 0.08651 0.0
O1128 O 0.61054 0.03658 0.12678 0.0
O1129 O 0.62643 0.07554 0.14374 0.0
H1130 H 0.56847 0.95243 0.16235 0.0
H1131 H 0.69204 0.11205 0.09654 0.0
O1132 O 0.70405 0.11796 0.13724 0.0
H1133 H 0.62306 0.13592 0.09344 0.0
H1134 H 0.69515 0.18918 0.16311 0.0
H1135 H 0.63874 0.09601 0.18218 0.0
H1136 H 0.62915 0.11583 0.12716 0.0
H1137 H 0.69341 0.1547 0.1388 0.0
O1138 O 0.63759 0.02689 0.09266 0.0
H1139 H 0.59838 0.99975 0.15691 0.0
H1140 H 0.63517 0.98412 0.10314 0.0
H1141 H 0.63978 0.12984 0.2069 0.0
H1142 H 0.6869 0.13248 0.06261 0.0
H1143 H 0.66814 0.17683 0.19741 0.0
H1144 H 0.65211 0.14444 0.06087 0.0
O1145 O 0.66919 0.07932 0.16706 0.0
H1146 H 0.72675 0.0456 0.09476 0.0
H1147 H 0.66126 0.0039 0.15431 0.0
H1148 H 0.70031 0.99884 0.15396 0.0
H1149 H 0.73336 0.01974 0.12399 0.0
H1150 H 0.68751 0.05033 0.09586 0.0
H1151 H 0.6055 0.93664 0.10785 0.0
H1152 H 0.57192 0.92052 0.1377 0.0
O1153 O 0.64553 0.03635 0.15921 0.0
C1154 C 0.60753 0.05401 0.13663 0.0
C1155 C 0.58307 0.95921 0.14933 0.0
C1156 C 0.60383 0.95034 0.11872 0.0
N1157 N 0.61861 0.99465 0.12985 0.0
C1158 C 0.60011 0.98597 0.14622 0.0
C1159 C 0.62054 0.97725 0.1161 0.0
C1160 C 0.585 0.94131 0.13548 0.0
C1161 C 0.67708 0.11751 0.09601 0.0
N1162 N 0.66098 0.11283 0.11384 0.0
C1163 C 0.67417 0.12895 0.07671 0.0
C1164 C 0.65462 0.1356 0.07574 0.0
C1165 C 0.63829 0.1308 0.09399 0.0
C1166 C 0.64177 0.11933 0.11302 0.0
C1167 C 0.68264 0.16878 0.16738 0.0
C1168 C 0.65096 0.11639 0.17784 0.0
C1169 C 0.6816 0.14916 0.15369 0.0
N1170 N 0.6658 0.12334 0.15896 0.0
C1171 C 0.65154 0.13547 0.19194 0.0
C1172 C 0.66749 0.16183 0.18663 0.0
C1173 C 0.65786 0.05533 0.17285 0.0
C1174 C 0.71245 0.03633 0.10787 0.0
C1175 C 0.67559 0.01312 0.14126 0.0
C1176 C 0.69764 0.01013 0.14112 0.0
C1177 C 0.71616 0.02186 0.12429 0.0
N1178 N 0.67206 0.0273 0.12506 0.0
C1179 C 0.69015 0.03886 0.10853 0.0
Co1180 Co 0.57285 0.66566 0.64099 0.0
Co1181 Co 0.61827 0.6485 0.6258 0.0
O1182 O 0.60049 0.66851 0.62153 0.0
C1183 C 0.61021 0.7226 0.64033 0.0
O1184 O 0.62865 0.71718 0.6453 0.0
C1185 C 0.61232 0.62564 0.58073 0.0
O1186 O 0.60301 0.60274 0.59043 0.0
O1187 O 0.58396 0.61518 0.62643 0.0
O1188 O 0.55847 0.62722 0.6448 0.0
H1189 H 0.63277 0.57915 0.66011 0.0
H1190 H 0.58041 0.69078 0.59687 0.0
O1191 O 0.58669 0.70417 0.63774 0.0
H1192 H 0.48988 0.61647 0.5965 0.0
H1193 H 0.50439 0.68734 0.66582 0.0
H1194 H 0.54954 0.63826 0.68342 0.0
H1195 H 0.51789 0.62575 0.62955 0.0
H1196 H 0.53817 0.68898 0.64064 0.0
O1197 O 0.61949 0.64615 0.59246 0.0
H1198 H 0.6107 0.60497 0.65518 0.0
H1199 H 0.664 0.64919 0.60385 0.0
H1200 H 0.51586 0.63601 0.70902 0.0
H1201 H 0.55298 0.68237 0.56352 0.0
H1202 H 0.49301 0.66067 0.70028 0.0
H1203 H 0.50738 0.64496 0.5632 0.0
O1204 O 0.59532 0.67214 0.66737 0.0
H1205 H 0.68345 0.7372 0.59596 0.0
H1206 H 0.66579 0.67211 0.65466 0.0
H1207 H 0.70749 0.714 0.65494 0.0
H1208 H 0.71656 0.74687 0.62541 0.0
H1209 H 0.64189 0.69517 0.59643 0.0
H1210 H 0.68662 0.6238 0.60817 0.0
H1211 H 0.67102 0.58851 0.6365 0.0
O1212 O 0.61706 0.65096 0.65923 0.0
C1213 C 0.56314 0.60989 0.63696 0.0
C1214 C 0.63978 0.5945 0.64774 0.0
C1215 C 0.67 0.61955 0.61858 0.0
N1216 N 0.63612 0.62861 0.62931 0.0
C1217 C 0.62738 0.6092 0.64489 0.0
C1218 C 0.65713 0.63386 0.61621 0.0
C1219 C 0.66123 0.59976 0.63448 0.0
C1220 C 0.56052 0.67458 0.5969 0.0
N1221 N 0.55071 0.65888 0.61516 0.0
C1222 C 0.54511 0.66986 0.57795 0.0
C1223 C 0.51954 0.64885 0.57777 0.0
C1224 C 0.50971 0.63286 0.59645 0.0
C1225 C 0.52568 0.63817 0.61509 0.0
C1226 C 0.51415 0.67644 0.66978 0.0
C1227 C 0.53955 0.64888 0.6794 0.0
C1228 C 0.5333 0.67731 0.65559 0.0
N1229 N 0.54564 0.66354 0.66045 0.0
C1230 C 0.52055 0.6476 0.69401 0.0
C1231 C 0.50777 0.66147 0.68911 0.0
C1232 C 0.6094 0.66229 0.673 0.0
C1233 C 0.67977 0.72299 0.60887 0.0
C1234 C 0.66954 0.68633 0.64179 0.0
C1235 C 0.69322 0.71 0.64201 0.0
C1236 C 0.69832 0.72842 0.62542 0.0
N1237 N 0.65147 0.68111 0.62547 0.0
C1238 C 0.65631 0.6991 0.60917 0.0
Co1239 Co 0.89697 0.56402 0.13693 0.0
Co1240 Co 0.96044 0.61141 0.12414 0.0
O1241 O 0.92253 0.59411 0.11975 0.0
C1242 C 0.87927 0.60274 0.14245 0.0
O1243 O 0.90336 0.62031 0.14781 0.0
C1244 C 0.95223 0.59538 0.07737 0.0
O1245 O 0.93276 0.573 0.08429 0.0
O1246 O 0.95981 0.57736 0.12417 0.0
O1247 O 0.91965 0.54786 0.13614 0.0
H1248 H 0.04335 0.62522 0.15993 0.0
H1249 H 0.87983 0.57949 0.09617 0.0
O1250 O 0.87352 0.57939 0.13787 0.0
H1251 H 0.8602 0.489 0.08265 0.0
H1252 H 0.80592 0.49391 0.15804 0.0
H1253 H 0.90005 0.53326 0.17456 0.0
H1254 H 0.87965 0.51098 0.11816 0.0
H1255 H 0.83872 0.53136 0.13615 0.0
O1256 O 0.9658 0.61355 0.09116 0.0
H1257 H 0.99555 0.60367 0.15453 0.0
H1258 H 0.00608 0.65624 0.1021 0.0
H1259 H 0.86794 0.49571 0.19675 0.0
H1260 H 0.86008 0.55813 0.06052 0.0
H1261 H 0.82049 0.47577 0.18853 0.0
H1262 H 0.85024 0.51259 0.05354 0.0
O1263 O 0.91348 0.58179 0.16536 0.0
H1264 H 0.93782 0.67741 0.09491 0.0
H1265 H 0.9844 0.65845 0.1535 0.0
H1266 H 0.98454 0.70032 0.1542 0.0
H1267 H 0.96115 0.71003 0.12473 0.0
H1268 H 0.93803 0.63569 0.09495 0.0
H1269 H 0.05401 0.67821 0.10678 0.0
H1270 H 0.07292 0.66277 0.13593 0.0
O1271 O 0.95577 0.60934 0.15708 0.0
C1272 C 0.94285 0.55429 0.13022 0.0
C1273 C 0.03534 0.63219 0.14722 0.0
C1274 C 0.04132 0.66191 0.11737 0.0
N1275 N 0.99806 0.62884 0.12816 0.0
C1276 C 0.0083 0.62012 0.14414 0.0
C1277 C 0.01418 0.64936 0.11477 0.0
C1278 C 0.05192 0.65324 0.13373 0.0
C1279 C 0.87533 0.55957 0.09336 0.0
N1280 N 0.88082 0.54648 0.10927 0.0
C1281 C 0.86426 0.54762 0.0731 0.0
C1282 C 0.85879 0.52208 0.06918 0.0
C1283 C 0.86439 0.50884 0.08549 0.0
C1284 C 0.87549 0.52143 0.10555 0.0
C1285 C 0.82654 0.50239 0.16175 0.0
C1286 C 0.87944 0.52458 0.17079 0.0
C1287 C 0.8452 0.52362 0.14944 0.0
N1288 N 0.87128 0.53434 0.15396 0.0
C1289 C 0.86135 0.50337 0.18345 0.0
C1290 C 0.83473 0.49221 0.17885 0.0
C1291 C 0.93698 0.59812 0.17095 0.0
C1292 C 0.94814 0.67343 0.10781 0.0
C1293 C 0.97413 0.66251 0.14066 0.0
C1294 C 0.97432 0.68627 0.14111 0.0
C1295 C 0.9612 0.69171 0.12456 0.0
N1296 N 0.96131 0.6447 0.12415 0.0
C1297 C 0.9484 0.64989 0.10787 0.0
Co1298 Co 0.33851 0.90837 0.63013 0.0
Co1299 Co 0.35602 0.97334 0.63588 0.0
O1300 O 0.33601 0.93892 0.62205 0.0
C1301 C 0.28227 0.89029 0.63632 0.0
O1302 O 0.28921 0.91266 0.64621 0.0
C1303 C 0.37157 0.9827 0.58862 0.0
O1304 O 0.37824 0.9647 0.59094 0.0
O1305 O 0.38946 0.97252 0.63427 0.0
O1306 O 0.37717 0.92991 0.6325 0.0
H1307 H 0.41971 0.03991 0.68962 0.0
H1308 H 0.30968 0.9073 0.58952 0.0
O1309 O 0.2996 0.88583 0.62817 0.0
H1310 H 0.38054 0.89246 0.56368 0.0
H1311 H 0.31466 0.81383 0.62466 0.0
H1312 H 0.36898 0.89764 0.66346 0.0
H1313 H 0.37498 0.8978 0.60359 0.0
H1314 H 0.31236 0.85309 0.6143 0.0
O1315 O 0.36263 0.98934 0.60519 0.0
H1316 H 0.39457 0.99615 0.67257 0.0
H1317 H 0.3598 0.02476 0.62704 0.0
H1318 H 0.37222 0.85898 0.6741 0.0
H1319 H 0.31442 0.90189 0.54943 0.0
H1320 H 0.34489 0.81668 0.65467 0.0
H1321 H 0.35013 0.89451 0.53629 0.0
O1322 O 0.33518 0.91433 0.66208 0.0
H1323 H 0.27151 0.96291 0.60661 0.0
H1324 H 0.32952 0.98614 0.67184 0.0
H1325 H 0.28804 0.98654 0.6749 0.0
H1326 H 0.25873 0.97491 0.64211 0.0
H1327 H 0.31304 0.96252 0.60433 0.0
H1328 H 0.38476 0.06892 0.64345 0.0
H1329 H 0.41489 0.07666 0.67504 0.0
O1330 O 0.34931 0.95727 0.6665 0.0
C1331 C 0.39466 0.95398 0.63376 0.0
C1332 C 0.40659 0.03676 0.67591 0.0
C1333 C 0.387 0.05305 0.64997 0.0
N1334 N 0.3756 0.0079 0.64896 0.0
C1335 C 0.39225 0.01202 0.66623 0.0
C1336 C 0.37297 0.02804 0.64071 0.0
C1337 C 0.40389 0.05738 0.6677 0.0
C1338 C 0.32509 0.90383 0.58392 0.0
N1339 N 0.34194 0.90272 0.59887 0.0
C1340 C 0.32775 0.90088 0.56121 0.0
C1341 C 0.34781 0.89678 0.55384 0.0
C1342 C 0.36489 0.89563 0.5692 0.0
C1343 C 0.36166 0.8987 0.59178 0.0
C1344 C 0.32671 0.83216 0.63322 0.0
C1345 C 0.35718 0.87935 0.65481 0.0
C1346 C 0.32543 0.85443 0.62748 0.0
N1347 N 0.34066 0.87767 0.63816 0.0
C1348 C 0.35903 0.85751 0.66096 0.0
C1349 C 0.34367 0.83378 0.65006 0.0
C1350 C 0.3407 0.93416 0.67424 0.0
C1351 C 0.28415 0.9681 0.62099 0.0
C1352 C 0.31685 0.981 0.65751 0.0
C1353 C 0.2934 0.98131 0.65934 0.0
C1354 C 0.27698 0.97479 0.64093 0.0
N1355 N 0.32377 0.97446 0.63789 0.0
C1356 C 0.30776 0.96802 0.61978 0.0
Co1357 Co 0.41777 0.33514 0.13059 0.0
Co1358 Co 0.37346 0.3573 0.12598 0.0
O1359 O 0.38667 0.3339 0.11768 0.0
C1360 C 0.39734 0.28257 0.14964 0.0
O1361 O 0.40911 0.29465 0.16807 0.0
C1362 C 0.38409 0.3666 0.0777 0.0
O1363 O 0.40456 0.36371 0.08044 0.0
O1364 O 0.40928 0.38864 0.12539 0.0
O1365 O 0.43767 0.37401 0.12874 0.0
H1366 H 0.37224 0.42875 0.17045 0.0
H1367 H 0.392 0.30078 0.09179 0.0
O1368 O 0.39793 0.29579 0.13264 0.0
H1369 H 0.48133 0.36403 0.06664 0.0
H1370 H 0.4848 0.30645 0.13879 0.0
H1371 H 0.45633 0.36746 0.16506 0.0
H1372 H 0.46752 0.3655 0.10501 0.0
H1373 H 0.44566 0.30517 0.12285 0.0
O1374 O 0.36918 0.36386 0.09401 0.0
H1375 H 0.38852 0.39909 0.15965 0.0
H1376 H 0.32995 0.36497 0.10979 0.0
H1377 H 0.49567 0.36951 0.18137 0.0
H1378 H 0.40512 0.29842 0.05334 0.0
H1379 H 0.51011 0.33882 0.16826 0.0
H1380 H 0.45003 0.33028 0.04051 0.0
O1381 O 0.40624 0.3374 0.16137 0.0
H1382 H 0.29873 0.27443 0.09514 0.0
H1383 H 0.32895 0.33619 0.15808 0.0
H1384 H 0.28469 0.29739 0.15903 0.0
H1385 H 0.26929 0.26623 0.12735 0.0
H1386 H 0.34296 0.31338 0.09499 0.0
H1387 H 0.31318 0.39441 0.11992 0.0
H1388 H 0.33431 0.42652 0.15051 0.0
O1389 O 0.37754 0.35168 0.15794 0.0
C1390 C 0.43249 0.39244 0.12678 0.0
C1391 C 0.36281 0.41478 0.15714 0.0
C1392 C 0.32969 0.39553 0.12876 0.0
N1393 N 0.36007 0.38019 0.13423 0.0
C1394 C 0.37189 0.39789 0.151 0.0
C1395 C 0.3393 0.37896 0.12307 0.0
C1396 C 0.34155 0.41354 0.14593 0.0
C1397 C 0.41169 0.31451 0.08642 0.0
N1398 N 0.429 0.33317 0.10068 0.0
C1399 C 0.41896 0.31316 0.06459 0.0
C1400 C 0.44415 0.33107 0.05739 0.0
C1401 C 0.46171 0.35003 0.07204 0.0
C1402 C 0.45374 0.35081 0.09373 0.0
C1403 C 0.47873 0.31995 0.14462 0.0
C1404 C 0.46255 0.3541 0.15922 0.0
C1405 C 0.4566 0.31933 0.13565 0.0
N1406 N 0.44874 0.33626 0.14299 0.0
C1407 C 0.48482 0.35533 0.16853 0.0
C1408 C 0.49291 0.33811 0.16116 0.0
C1409 C 0.39056 0.34415 0.16962 0.0
C1410 C 0.3052 0.28789 0.10902 0.0
C1411 C 0.32245 0.32264 0.14431 0.0
C1412 C 0.29734 0.30075 0.1449 0.0
C1413 C 0.2887 0.28329 0.12711 0.0
N1414 N 0.33848 0.32707 0.12647 0.0
C1415 C 0.33018 0.31 0.109 0.0
H1416 H 0.4149 0.08592 0.30188 0.0
H1417 H 0.36895 0.00238 0.31469 0.0
H1418 H 0.36114 0.99426 0.27432 0.0
H1419 H 0.37506 0.08758 0.25708 0.0
H1420 H 0.40277 0.11204 0.24173 0.0
H1421 H 0.40415 0.11108 0.27159 0.0
H1422 H 0.44625 0.10766 0.26903 0.0
H1423 H 0.445 0.1088 0.2392 0.0
H1424 H 0.44593 0.08196 0.25259 0.0
H1425 H 0.36018 0.99549 0.23182 0.0
H1426 H 0.36576 0.00603 0.19168 0.0
H1427 H 0.41112 0.08878 0.20777 0.0
C1428 C 0.40308 0.06586 0.29632 0.0
C1429 C 0.39258 0.04479 0.31158 0.0
C1430 C 0.37722 0.01889 0.30341 0.0
C1431 C 0.37266 0.01408 0.28048 0.0
C1432 C 0.38343 0.03535 0.26594 0.0
C1433 C 0.39824 0.06073 0.27361 0.0
C1434 C 0.40795 0.08023 0.25469 0.0
C1435 C 0.39681 0.09882 0.25638 0.0
C1436 C 0.43806 0.09555 0.25383 0.0
C1437 C 0.3965 0.0619 0.23509 0.0
C1438 C 0.38243 0.03608 0.24181 0.0
C1439 C 0.37097 0.01568 0.22642 0.0
C1440 C 0.37422 0.02186 0.20363 0.0
C1441 C 0.38873 0.04825 0.19643 0.0
C1442 C 0.39967 0.0684 0.21254 0.0
H1443 H 0.37842 0.39754 0.70472 0.0
H1444 H 0.29805 0.37484 0.68949 0.0
H1445 H 0.28635 0.36517 0.72908 0.0
H1446 H 0.36444 0.35106 0.7531 0.0
H1447 H 0.39212 0.37546 0.76852 0.0
H1448 H 0.39319 0.37516 0.73858 0.0
H1449 H 0.40399 0.42346 0.73775 0.0
H1450 H 0.40282 0.42387 0.76758 0.0
H1451 H 0.38235 0.43231 0.75147 0.0
H1452 H 0.28474 0.3655 0.76979 0.0
H1453 H 0.29331 0.37568 0.80973 0.0
H1454 H 0.37464 0.39808 0.79997 0.0
C1455 C 0.3582 0.38948 0.70975 0.0
C1456 C 0.33893 0.38635 0.6942 0.0
C1457 C 0.31289 0.37694 0.70126 0.0
C1458 C 0.30608 0.37134 0.72366 0.0
C1459 C 0.32561 0.3754 0.73881 0.0
C1460 C 0.35115 0.38416 0.73223 0.0
C1461 C 0.36896 0.39027 0.75224 0.0
C1462 C 0.38035 0.37188 0.75316 0.0
C1463 C 0.3908 0.41919 0.75225 0.0
C1464 C 0.34963 0.38454 0.771 0.0
C1465 C 0.32467 0.37562 0.7628 0.0
C1466 C 0.304 0.37177 0.7765 0.0
C1467 C 0.30903 0.37764 0.79911 0.0
C1468 C 0.33444 0.38707 0.80781 0.0
C1469 C 0.35487 0.39001 0.79372 0.0
H1470 H 0.90913 0.32876 0.20329 0.0
H1471 H 0.99068 0.35482 0.18877 0.0
H1472 H 0.99964 0.3561 0.22898 0.0
H1473 H 0.92091 0.36898 0.25102 0.0
H1474 H 0.89263 0.34476 0.26595 0.0
H1475 H 0.8925 0.34502 0.23603 0.0
H1476 H 0.88158 0.29668 0.2355 0.0
H1477 H 0.88166 0.29625 0.26543 0.0
H1478 H 0.90248 0.28755 0.25013 0.0
H1479 H 0.99984 0.35546 0.2711 0.0
H1480 H 0.9914 0.35324 0.31142 0.0
H1481 H 0.9097 0.32775 0.29818 0.0
C1482 C 0.92888 0.33456 0.20846 0.0
C1483 C 0.94917 0.34156 0.19271 0.0
C1484 C 0.97475 0.34927 0.20039 0.0
C1485 C 0.98004 0.35006 0.22324 0.0
C1486 C 0.95959 0.34314 0.23826 0.0
C1487 C 0.93453 0.33555 0.23116 0.0
C1488 C 0.91612 0.32962 0.25066 0.0
C1489 C 0.90488 0.3482 0.25092 0.0
C1490 C 0.89416 0.30081 0.25041 0.0
C1491 C 0.93475 0.33512 0.26988 0.0
C1492 C 0.95972 0.34284 0.26241 0.0
C1493 C 0.98032 0.34933 0.27712 0.0
C1494 C 0.9753 0.34799 0.30005 0.0
C1495 C 0.94984 0.34021 0.30814 0.0
C1496 C 0.92936 0.33361 0.29269 0.0
H1497 H 0.61434 0.96887 0.70812 0.0
H1498 H 0.56804 0.88507 0.69607 0.0
H1499 H 0.56302 0.87709 0.7362 0.0
H1500 H 0.64784 0.96431 0.75776 0.0
H1501 H 0.647 0.9908 0.77193 0.0
H1502 H 0.64808 0.99042 0.74201 0.0
H1503 H 0.60611 0.99393 0.74017 0.0
H1504 H 0.60484 0.99422 0.77007 0.0
H1505 H 0.57707 0.97011 0.75455 0.0
H1506 H 0.56102 0.87746 0.77698 0.0
H1507 H 0.56321 0.88615 0.81698 0.0
H1508 H 0.61112 0.96966 0.80431 0.0
C1509 C 0.60337 0.94884 0.71393 0.0
C1510 C 0.59159 0.92764 0.69875 0.0
C1511 C 0.57725 0.90173 0.70716 0.0
C1512 C 0.57426 0.89692 0.73002 0.0
C1513 C 0.58575 0.91814 0.74445 0.0
C1514 C 0.60013 0.94359 0.73688 0.0
C1515 C 0.60993 0.9627 0.75628 0.0
C1516 C 0.64 0.97796 0.75703 0.0
C1517 C 0.59882 0.98134 0.75519 0.0
C1518 C 0.59856 0.94392 0.7758 0.0
C1519 C 0.58472 0.91835 0.76844 0.0
C1520 C 0.57189 0.89739 0.783 0.0
C1521 C 0.5732 0.9026 0.80577 0.0
C1522 C 0.58732 0.92862 0.81396 0.0
C1523 C 0.60026 0.94955 0.79866 0.0
H1524 H 0.64278 0.60962 0.3009 0.0
H1525 H 0.68174 0.56451 0.31184 0.0
H1526 H 0.68564 0.5611 0.27158 0.0
H1527 H 0.60555 0.57342 0.25357 0.0
H1528 H 0.60874 0.60145 0.2388 0.0
H1529 H 0.60976 0.60164 0.26872 0.0
H1530 H 0.65472 0.64436 0.26796 0.0
H1531 H 0.6538 0.64434 0.23803 0.0
H1532 H 0.68124 0.64544 0.25222 0.0
H1533 H 0.6842 0.56074 0.23073 0.0
H1534 H 0.67805 0.564 0.19081 0.0
H1535 H 0.64019 0.60953 0.20479 0.0
C1536 C 0.65233 0.59922 0.29483 0.0
C1537 C 0.66192 0.58733 0.30971 0.0
C1538 C 0.67413 0.57376 0.30096 0.0
C1539 C 0.67651 0.57172 0.27804 0.0
C1540 C 0.66666 0.58335 0.2639 0.0
C1541 C 0.65487 0.59691 0.27182 0.0
C1542 C 0.64549 0.607 0.25271 0.0
C1543 C 0.61561 0.59516 0.2535 0.0
C1544 C 0.65966 0.63708 0.25274 0.0
C1545 C 0.65367 0.59673 0.23291 0.0
C1546 C 0.66589 0.58321 0.2399 0.0
C1547 C 0.67477 0.57137 0.225 0.0
C1548 C 0.67108 0.57331 0.20229 0.0
C1549 C 0.6586 0.58703 0.19449 0.0
C1550 C 0.6499 0.59901 0.21013 0.0
H1551 H 0.09648 0.67131 0.70654 0.0
H1552 H 0.01707 0.65266 0.69071 0.0
H1553 H 0.00791 0.65302 0.73054 0.0
H1554 H 0.08021 0.63121 0.75473 0.0
H1555 H 0.10896 0.65369 0.77015 0.0
H1556 H 0.10996 0.6533 0.74025 0.0
H1557 H 0.12533 0.70282 0.73931 0.0
H1558 H 0.1244 0.70337 0.76923 0.0
H1559 H 0.10614 0.71462 0.75317 0.0
H1560 H 0.00647 0.65348 0.77159 0.0
H1561 H 0.01259 0.65405 0.81188 0.0
H1562 H 0.09314 0.67277 0.80192 0.0
C1563 C 0.07722 0.66754 0.7114 0.0
C1564 C 0.05753 0.66206 0.69538 0.0
C1565 C 0.03253 0.65698 0.70255 0.0
C1566 C 0.02712 0.65717 0.72517 0.0
C1567 C 0.04688 0.66247 0.74045 0.0
C1568 C 0.07143 0.6676 0.73395 0.0
C1569 C 0.08886 0.67195 0.75392 0.0
C1570 C 0.0975 0.6513 0.75481 0.0
C1571 C 0.11258 0.69985 0.7539 0.0
C1572 C 0.07012 0.66821 0.77265 0.0
C1573 C 0.04607 0.66285 0.76441 0.0
C1574 C 0.02526 0.65788 0.77827 0.0
C1575 C 0.02901 0.65828 0.80122 0.0
C1576 C 0.05346 0.66368 0.81023 0.0
C1577 C 0.07432 0.66886 0.79564 0.0
H1578 H 0.90405 0.57545 0.20674 0.0
H1579 H 0.98402 0.63346 0.18943 0.0
H1580 H 0.99516 0.64139 0.2291 0.0
H1581 H 0.89912 0.60934 0.25578 0.0
H1582 H 0.88015 0.5795 0.27126 0.0
H1583 H 0.87784 0.57923 0.2414 0.0
H1584 H 0.89019 0.54286 0.23944 0.0
H1585 H 0.89261 0.54306 0.26927 0.0
H1586 H 0.92001 0.54817 0.25239 0.0
H1587 H 0.99858 0.64143 0.27014 0.0
H1588 H 0.99392 0.63444 0.31047 0.0
H1589 H 0.91159 0.57677 0.3018 0.0
C1590 C 0.92383 0.59007 0.21126 0.0
C1591 C 0.94311 0.60389 0.19486 0.0
C1592 C 0.96884 0.62264 0.20157 0.0
C1593 C 0.9754 0.62732 0.2241 0.0
C1594 C 0.95604 0.61317 0.23976 0.0
C1595 C 0.93076 0.59501 0.23371 0.0
C1596 C 0.91395 0.58191 0.25397 0.0
C1597 C 0.89143 0.58786 0.2557 0.0
C1598 C 0.90359 0.55224 0.25375 0.0
C1599 C 0.93388 0.59537 0.27231 0.0
C1600 C 0.95798 0.61335 0.26368 0.0
C1601 C 0.97975 0.62762 0.27714 0.0
C1602 C 0.97684 0.62347 0.30009 0.0
C1603 C 0.9523 0.60522 0.30945 0.0
C1604 C 0.93054 0.59107 0.29526 0.0
H1605 H 0.35334 0.96977 0.8045 0.0
H1606 H 0.31397 0.88589 0.81653 0.0
H1607 H 0.30979 0.87787 0.77633 0.0
H1608 H 0.31493 0.96678 0.75586 0.0
H1609 H 0.34241 0.9927 0.74135 0.0
H1610 H 0.34172 0.99232 0.77129 0.0
H1611 H 0.38642 0.994 0.77208 0.0
H1612 H 0.38723 0.99436 0.74216 0.0
H1613 H 0.39019 0.96956 0.75721 0.0
H1614 H 0.31062 0.87826 0.73544 0.0
H1615 H 0.3166 0.88699 0.69543 0.0
H1616 H 0.35559 0.97068 0.7084 0.0
C1617 C 0.34367 0.94972 0.79868 0.0
C1618 C 0.33399 0.92848 0.81384 0.0
C1619 C 0.32164 0.90255 0.80542 0.0
C1620 C 0.31909 0.89773 0.78255 0.0
C1621 C 0.32896 0.91899 0.76813 0.0
C1622 C 0.341 0.94448 0.77574 0.0
C1623 C 0.35043 0.96365 0.7564 0.0
C1624 C 0.33654 0.97981 0.75622 0.0
C1625 C 0.38034 0.98144 0.75701 0.0
C1626 C 0.34192 0.94486 0.73683 0.0
C1627 C 0.3295 0.91923 0.74412 0.0
C1628 C 0.32023 0.89824 0.72947 0.0
C1629 C 0.32381 0.90348 0.7067 0.0
C1630 C 0.33661 0.92957 0.69858 0.0
C1631 C 0.34563 0.95053 0.71397 0.0
H1632 H 0.42051 0.33157 0.29774 0.0
H1633 H 0.35942 0.34971 0.31373 0.0
H1634 H 0.35124 0.35151 0.274 0.0
H1635 H 0.44581 0.37397 0.25061 0.0
H1636 H 0.45222 0.35204 0.23447 0.0
H1637 H 0.45298 0.35114 0.26436 0.0
H1638 H 0.4186 0.30168 0.26377 0.0
H1639 H 0.41774 0.30243 0.23386 0.0
H1640 H 0.38793 0.29067 0.24957 0.0
H1641 H 0.35022 0.35291 0.2331 0.0
H1642 H 0.35602 0.35324 0.19273 0.0
H1643 H 0.41756 0.33398 0.20213 0.0
C1644 C 0.40528 0.33572 0.2929 0.0
C1645 C 0.39057 0.34039 0.30901 0.0
C1646 C 0.37095 0.34595 0.30187 0.0
C1647 C 0.36611 0.34704 0.27927 0.0
C1648 C 0.38099 0.34251 0.2639 0.0
C1649 C 0.40013 0.3369 0.2703 0.0
C1650 C 0.41354 0.33331 0.25016 0.0
C1651 C 0.44288 0.35384 0.24989 0.0
C1652 C 0.40918 0.30536 0.2493 0.0
C1653 C 0.399 0.33799 0.23155 0.0
C1654 C 0.38031 0.34321 0.23995 0.0
C1655 C 0.36468 0.34868 0.22626 0.0
C1656 C 0.36817 0.34882 0.20328 0.0
C1657 C 0.38714 0.34346 0.19409 0.0
C1658 C 0.40273 0.33793 0.20853 0.0
H1659 H 0.03743 0.38761 0.70311 0.0
H1660 H 0.1197 0.4443 0.69225 0.0
H1661 H 0.12628 0.45092 0.73237 0.0
H1662 H 0.02803 0.42126 0.74902 0.0
H1663 H 0.00687 0.39201 0.76449 0.0
H1664 H 0.00801 0.39081 0.73462 0.0
H1665 H 0.01958 0.35396 0.7372 0.0
H1666 H 0.0184 0.35499 0.76709 0.0
H1667 H 0.04744 0.35913 0.75346 0.0
H1668 H 0.1247 0.45287 0.77295 0.0
H1669 H 0.11529 0.44902 0.81282 0.0
H1670 H 0.03412 0.39075 0.79945 0.0
C1671 C 0.05684 0.40129 0.70919 0.0
C1672 C 0.07799 0.4154 0.69428 0.0
C1673 C 0.10307 0.43318 0.70307 0.0
C1674 C 0.10709 0.43716 0.72595 0.0
C1675 C 0.08594 0.42321 0.74008 0.0
C1676 C 0.06132 0.40553 0.73221 0.0
C1677 C 0.04213 0.3933 0.75141 0.0
C1678 C 0.01995 0.39973 0.74978 0.0
C1679 C 0.03125 0.36358 0.75234 0.0
C1680 C 0.05992 0.40705 0.77115 0.0
C1681 C 0.08506 0.42421 0.76404 0.0
C1682 C 0.10511 0.43945 0.77879 0.0
C1683 C 0.09947 0.4371 0.8015 0.0
C1684 C 0.07391 0.41956 0.8095 0.0
C1685 C 0.05385 0.40432 0.79398 0.0
H1686 H 0.67297 0.08922 0.30215 0.0
H1687 H 0.63966 0.00622 0.31569 0.0
H1688 H 0.63779 0.99758 0.27539 0.0
H1689 H 0.63457 0.08223 0.25435 0.0
H1690 H 0.66068 0.10949 0.2398 0.0
H1691 H 0.66012 0.1091 0.26971 0.0
H1692 H 0.70675 0.11507 0.27031 0.0
H1693 H 0.70738 0.11543 0.24038 0.0
H1694 H 0.71304 0.09227 0.25539 0.0
H1695 H 0.63778 0.99788 0.23309 0.0
H1696 H 0.64027 0.00731 0.19283 0.0
H1697 H 0.67453 0.09014 0.20758 0.0
C1698 C 0.66542 0.0692 0.29674 0.0
C1699 C 0.6565 0.04842 0.31223 0.0
C1700 C 0.64669 0.02254 0.30425 0.0
C1701 C 0.64553 0.0174 0.28135 0.0
C1702 C 0.65436 0.03834 0.26658 0.0
C1703 C 0.6642 0.06373 0.27399 0.0
C1704 C 0.67202 0.08275 0.25476 0.0
C1705 C 0.65588 0.0967 0.25466 0.0
C1706 C 0.70156 0.10254 0.25524 0.0
C1707 C 0.6649 0.06409 0.23534 0.0
C1708 C 0.65472 0.03855 0.24243 0.0
C1709 C 0.64593 0.01785 0.22737 0.0
C1710 C 0.64744 0.02341 0.20452 0.0
C1711 C 0.65777 0.04948 0.1969 0.0
C1712 C 0.66678 0.06999 0.21268 0.0
H1713 H 0.59268 0.6806 0.70741 0.0
H1714 H 0.63917 0.64396 0.6932 0.0
H1715 H 0.6459 0.64155 0.73354 0.0
H1716 H 0.62982 0.71895 0.7551 0.0
H1717 H 0.60088 0.71377 0.76961 0.0
H1718 H 0.60158 0.71424 0.73968 0.0
H1719 H 0.55986 0.66837 0.73886 0.0
H1720 H 0.55906 0.66769 0.76875 0.0
H1721 H 0.55966 0.64166 0.75358 0.0
H1722 H 0.64509 0.64094 0.77622 0.0
H1723 H 0.6367 0.64212 0.81643 0.0
H1724 H 0.59065 0.67904 0.80133 0.0
C1725 C 0.60464 0.6724 0.71262 0.0
C1726 C 0.61551 0.6626 0.697 0.0
C1727 C 0.63073 0.65174 0.70478 0.0
C1728 C 0.63466 0.65028 0.72768 0.0
C1729 C 0.62327 0.65978 0.7426 0.0
C1730 C 0.60863 0.67069 0.73529 0.0
C1731 C 0.59734 0.67839 0.75448 0.0
C1732 C 0.60806 0.7081 0.75473 0.0
C1733 C 0.56721 0.66311 0.75387 0.0
C1734 C 0.60774 0.66996 0.77382 0.0
C1735 C 0.62274 0.65935 0.76678 0.0
C1736 C 0.63355 0.64942 0.78189 0.0
C1737 C 0.62869 0.65019 0.80471 0.0
C1738 C 0.61311 0.66077 0.81219 0.0
C1739 C 0.60282 0.67098 0.79637 0.0
H1740 H 0.41367 0.1581 0.16201 0.0
H1741 H 0.34797 0.11607 0.11736 0.0
H1742 H 0.34106 0.15433 0.11668 0.0
H1743 H 0.38475 0.19028 0.19401 0.0
H1744 H 0.41592 0.21973 0.19751 0.0
H1745 H 0.4144 0.18856 0.19507 0.0
H1746 H 0.44693 0.20632 0.16205 0.0
H1747 H 0.44849 0.23748 0.1643 0.0
H1748 H 0.43939 0.21999 0.1383 0.0
H1749 H 0.34556 0.19994 0.11758 0.0
H1750 H 0.35782 0.24643 0.12315 0.0
H1751 H 0.41793 0.25589 0.16979 0.0
C1752 C 0.39762 0.15683 0.15228 0.0
C1753 C 0.38141 0.13434 0.13962 0.0
C1754 C 0.3605 0.1332 0.12723 0.0
C1755 C 0.35652 0.15483 0.12671 0.0
C1756 C 0.37326 0.17701 0.13912 0.0
C1757 C 0.39305 0.17785 0.15202 0.0
C1758 C 0.40859 0.20384 0.16373 0.0
C1759 C 0.40573 0.20039 0.18908 0.0
C1760 C 0.43755 0.21771 0.15666 0.0
C1761 C 0.39494 0.2179 0.15501 0.0
C1762 C 0.37472 0.20229 0.1407 0.0
C1763 C 0.36092 0.21209 0.12916 0.0
C1764 C 0.36801 0.23845 0.13237 0.0
C1765 C 0.38837 0.25445 0.14727 0.0
C1766 C 0.40173 0.24387 0.15883 0.0
H1767 H 0.14376 0.3676 0.61377 0.0
H1768 H 0.16087 0.43104 0.65954 0.0
H1769 H 0.20339 0.43504 0.66827 0.0
H1770 H 0.17883 0.33943 0.64568 0.0
H1771 H 0.19121 0.3324 0.62082 0.0
H1772 H 0.16023 0.33155 0.62026 0.0
H1773 H 0.17686 0.36489 0.58787 0.0
H1774 H 0.2079 0.36599 0.58842 0.0
H1775 H 0.20669 0.39578 0.59125 0.0
H1776 H 0.24521 0.43655 0.66888 0.0
H1777 H 0.28527 0.4346 0.66225 0.0
H1778 H 0.24329 0.36996 0.61642 0.0
C1779 C 0.15624 0.38174 0.62607 0.0
C1780 C 0.14907 0.39892 0.63612 0.0
C1781 C 0.16607 0.41772 0.65169 0.0
C1782 C 0.19021 0.42008 0.65683 0.0
C1783 C 0.19716 0.4035 0.64625 0.0
C1784 C 0.18079 0.38457 0.63129 0.0
C1785 C 0.19443 0.37099 0.62101 0.0
C1786 C 0.18033 0.34186 0.62732 0.0
C1787 C 0.1966 0.37464 0.59564 0.0
C1788 C 0.22114 0.38586 0.63207 0.0
C1789 C 0.22198 0.40434 0.64669 0.0
C1790 C 0.24475 0.4219 0.65778 0.0
C1791 C 0.26744 0.42076 0.65377 0.0
C1792 C 0.26728 0.40213 0.63887 0.0
C1793 C 0.24374 0.38411 0.62813 0.0
H1794 H 0.83616 0.25811 0.12779 0.0
H1795 H 0.89092 0.23421 0.15046 0.0
H1796 H 0.85486 0.18802 0.15128 0.0
H1797 H 0.78341 0.21533 0.16156 0.0
H1798 H 0.75886 0.20928 0.14094 0.0
H1799 H 0.78933 0.23981 0.1409 0.0
H1800 H 0.7974 0.23193 0.1 0.0
H1801 H 0.76692 0.20134 0.0999 0.0
H1802 H 0.79692 0.20206 0.09269 0.0
H1803 H 0.81133 0.14428 0.15126 0.0
H1804 H 0.76523 0.10805 0.15076 0.0
H1805 H 0.74073 0.16229 0.12791 0.0
C1806 C 0.84078 0.24324 0.13279 0.0
C1807 C 0.8664 0.24981 0.1391 0.0
C1808 C 0.87143 0.22963 0.14554 0.0
C1809 C 0.85108 0.20336 0.14603 0.0
C1810 C 0.82595 0.19768 0.13991 0.0
C1811 C 0.82087 0.21716 0.13336 0.0
C1812 C 0.79222 0.20644 0.12832 0.0
C1813 C 0.78026 0.21842 0.14386 0.0
C1814 C 0.78814 0.21069 0.10377 0.0
C1815 C 0.78175 0.17784 0.13333 0.0
C1816 C 0.80137 0.17297 0.13988 0.0
C1817 C 0.79589 0.1479 0.14601 0.0
C1818 C 0.76966 0.12745 0.14565 0.0
C1819 C 0.74934 0.13229 0.13932 0.0
C1820 C 0.75572 0.15781 0.13283 0.0
H1821 H 0.57688 0.74017 0.62849 0.0
H1822 H 0.65703 0.76728 0.64883 0.0
H1823 H 0.66597 0.81295 0.64826 0.0
H1824 H 0.5912 0.7946 0.59147 0.0
H1825 H 0.56189 0.79506 0.59911 0.0
H1826 H 0.56242 0.7648 0.59999 0.0
H1827 H 0.54806 0.75862 0.64129 0.0
H1828 H 0.54752 0.78884 0.64053 0.0
H1829 H 0.56711 0.78418 0.66101 0.0
H1830 H 0.66507 0.85556 0.64781 0.0
H1831 H 0.65472 0.89135 0.64658 0.0
H1832 H 0.57545 0.83576 0.6258 0.0
C1833 C 0.59641 0.75568 0.63263 0.0
C1834 C 0.61626 0.75012 0.63874 0.0
C1835 C 0.64152 0.77105 0.64407 0.0
C1836 C 0.64678 0.79706 0.64379 0.0
C1837 C 0.62664 0.80179 0.63797 0.0
C1838 C 0.60201 0.78166 0.63235 0.0
C1839 C 0.5835 0.79175 0.62731 0.0
C1840 C 0.57422 0.78622 0.60303 0.0
C1841 C 0.56018 0.78016 0.64351 0.0
C1842 C 0.60142 0.8207 0.6313 0.0
C1843 C 0.62624 0.82618 0.6374 0.0
C1844 C 0.64578 0.85151 0.64284 0.0
C1845 C 0.6397 0.8717 0.64213 0.0
C1846 C 0.61433 0.86641 0.63598 0.0
C1847 C 0.59513 0.84056 0.63032 0.0
H1848 H 0.73442 0.57394 0.12154 0.0
H1849 H 0.75696 0.65014 0.14957 0.0
H1850 H 0.80256 0.65918 0.15332 0.0
H1851 H 0.77252 0.55941 0.15726 0.0
H1852 H 0.78067 0.54273 0.1364 0.0
H1853 H 0.75055 0.54335 0.13435 0.0
H1854 H 0.76344 0.56341 0.0949 0.0
H1855 H 0.79358 0.56275 0.09676 0.0
H1856 H 0.79431 0.59304 0.09078 0.0
H1857 H 0.84568 0.65877 0.15527 0.0
H1858 H 0.88168 0.64861 0.15578 0.0
H1859 H 0.8294 0.5723 0.12722 0.0
C1860 C 0.74894 0.59272 0.12818 0.0
C1861 C 0.74212 0.6114 0.13515 0.0
C1862 C 0.76175 0.63556 0.14405 0.0
C1863 C 0.7877 0.64088 0.14622 0.0
C1864 C 0.79362 0.6218 0.13945 0.0
C1865 C 0.77473 0.59823 0.1306 0.0
C1866 C 0.78558 0.5804 0.12553 0.0
C1867 C 0.77149 0.55498 0.13921 0.0
C1868 C 0.78415 0.57457 0.1005 0.0
C1869 C 0.81354 0.59747 0.13311 0.0
C1870 C 0.81798 0.62137 0.14094 0.0
C1871 C 0.84241 0.64013 0.1491 0.0
C1872 C 0.86273 0.6342 0.14934 0.0
C1873 C 0.85836 0.60964 0.14163 0.0
C1874 C 0.83343 0.59123 0.13332 0.0
H1875 H 0.26308 0.83975 0.62294 0.0
H1876 H 0.23901 0.8924 0.65059 0.0
H1877 H 0.1935 0.85547 0.65346 0.0
H1878 H 0.20385 0.7986 0.59117 0.0
H1879 H 0.20497 0.76925 0.59724 0.0
H1880 H 0.23488 0.80031 0.59572 0.0
H1881 H 0.2473 0.79313 0.63536 0.0
H1882 H 0.2174 0.76215 0.63707 0.0
H1883 H 0.22485 0.78679 0.65797 0.0
H1884 H 0.15075 0.8116 0.65495 0.0
H1885 H 0.11528 0.76519 0.65531 0.0
H1886 H 0.16884 0.74242 0.62743 0.0
C1887 C 0.24824 0.84373 0.62928 0.0
C1888 C 0.25461 0.86902 0.63645 0.0
C1889 C 0.23457 0.87319 0.64492 0.0
C1890 C 0.20867 0.85234 0.6466 0.0
C1891 C 0.20321 0.82752 0.63972 0.0
C1892 C 0.2225 0.82323 0.63119 0.0
C1893 C 0.21211 0.79464 0.62605 0.0
C1894 C 0.21407 0.79047 0.60106 0.0
C1895 C 0.22625 0.78354 0.63995 0.0
C1896 C 0.18399 0.78335 0.63327 0.0
C1897 C 0.17905 0.80254 0.64094 0.0
C1898 C 0.1544 0.79645 0.64887 0.0
C1899 C 0.13439 0.77006 0.64903 0.0
C1900 C 0.13929 0.75016 0.64148 0.0
C1901 C 0.16441 0.7571 0.63339 0.0
H1902 H 0.85012 0.60189 0.3312 0.0
H1903 H 0.86566 0.59766 0.40114 0.0
H1904 H 0.82846 0.60362 0.4111 0.0
H1905 H 0.8281 0.65093 0.33759 0.0
H1906 H 0.8034 0.63545 0.31642 0.0
H1907 H 0.83325 0.63417 0.31482 0.0
H1908 H 0.80621 0.58355 0.31275 0.0
H1909 H 0.77634 0.58465 0.31446 0.0
H1910 H 0.78275 0.56566 0.33431 0.0
H1911 H 0.78579 0.60292 0.41336 0.0
H1912 H 0.74247 0.59906 0.40767 0.0
H1913 H 0.75582 0.60649 0.33655 0.0
C1914 C 0.84611 0.60286 0.34862 0.0
C1915 C 0.86088 0.59934 0.36537 0.0
C1916 C 0.85479 0.60047 0.38798 0.0
C1917 C 0.83365 0.60384 0.39383 0.0
C1918 C 0.81904 0.60649 0.37691 0.0
C1919 C 0.82523 0.60648 0.35476 0.0
C1920 C 0.80543 0.60811 0.33979 0.0
C1921 C 0.81832 0.63369 0.32636 0.0
C1922 C 0.79189 0.58406 0.32444 0.0
C1923 C 0.78663 0.60807 0.35696 0.0
C1924 C 0.79488 0.60719 0.37828 0.0
C1925 C 0.77946 0.60431 0.3968 0.0
C1926 C 0.75489 0.60206 0.39342 0.0
C1927 C 0.74616 0.60303 0.37174 0.0
C1928 C 0.76244 0.60653 0.35335 0.0
H1929 H 0.1576 0.74415 0.88473 0.0
H1930 H 0.10793 0.7685 0.85157 0.0
H1931 H 0.14478 0.81425 0.85119 0.0
H1932 H 0.19341 0.80192 0.91922 0.0
H1933 H 0.22371 0.80168 0.91652 0.0
H1934 H 0.19296 0.77142 0.91521 0.0
H1935 H 0.2059 0.76119 0.87691 0.0
H1936 H 0.23666 0.7914 0.8781 0.0
H1937 H 0.21512 0.7847 0.85472 0.0
H1938 H 0.18855 0.85722 0.85267 0.0
H1939 H 0.23455 0.89301 0.85611 0.0
H1940 H 0.25431 0.83944 0.88855 0.0
C1941 C 0.15427 0.75906 0.87753 0.0
C1942 C 0.12982 0.75269 0.86815 0.0
C1943 C 0.12645 0.77289 0.8589 0.0
C1944 C 0.14727 0.79893 0.85861 0.0
C1945 C 0.17124 0.80441 0.86777 0.0
C1946 C 0.17471 0.78498 0.87714 0.0
C1947 C 0.20247 0.79556 0.88523 0.0
C1948 C 0.20317 0.79246 0.91055 0.0
C1949 C 0.21582 0.78244 0.873 0.0
C1950 C 0.2143 0.82399 0.87871 0.0
C1951 C 0.19605 0.82885 0.86873 0.0
C1952 C 0.2029 0.85363 0.86063 0.0
C1953 C 0.22908 0.87384 0.86265 0.0
C1954 C 0.24807 0.86911 0.87267 0.0
C1955 C 0.24033 0.84386 0.88097 0.0
H1956 H 0.36633 0.13184 0.39196 0.0
H1957 H 0.41567 0.14403 0.33459 0.0
H1958 H 0.41377 0.18357 0.32482 0.0
H1959 H 0.32622 0.15883 0.3671 0.0
H1960 H 0.32587 0.17446 0.39273 0.0
H1961 H 0.32716 0.14456 0.39333 0.0
H1962 H 0.36912 0.16732 0.41743 0.0
H1963 H 0.36796 0.1972 0.41689 0.0
H1964 H 0.39696 0.19712 0.40759 0.0
H1965 H 0.41171 0.22397 0.32371 0.0
H1966 H 0.41068 0.26433 0.3319 0.0
H1967 H 0.36291 0.22764 0.39014 0.0
C1968 C 0.37603 0.14247 0.37701 0.0
C1969 C 0.39092 0.13481 0.36387 0.0
C1970 C 0.4041 0.14958 0.34481 0.0
C1971 C 0.403 0.17196 0.33905 0.0
C1972 C 0.3887 0.17941 0.35256 0.0
C1973 C 0.37544 0.16522 0.37117 0.0
C1974 C 0.3641 0.17934 0.38415 0.0
C1975 C 0.33405 0.16334 0.38433 0.0
C1976 C 0.37521 0.18562 0.40792 0.0
C1977 C 0.37388 0.20403 0.37034 0.0
C1978 C 0.38765 0.20333 0.352 0.0
C1979 C 0.40056 0.22459 0.33774 0.0
C1980 C 0.39992 0.24744 0.34256 0.0
C1981 C 0.38645 0.2489 0.36146 0.0
C1982 C 0.37273 0.22672 0.37525 0.0
H1983 H 0.23537 0.37223 0.88282 0.0
H1984 H 0.277 0.43743 0.83744 0.0
H1985 H 0.23691 0.4395 0.83144 0.0
H1986 H 0.17052 0.34213 0.85408 0.0
H1987 H 0.15239 0.33395 0.87976 0.0
H1988 H 0.18336 0.33483 0.87851 0.0
H1989 H 0.20064 0.36788 0.91112 0.0
H1990 H 0.16977 0.36709 0.91247 0.0
H1991 H 0.19967 0.39787 0.90895 0.0
H1992 H 0.1951 0.43812 0.83275 0.0
H1993 H 0.1528 0.43423 0.84232 0.0
H1994 H 0.13612 0.37016 0.88718 0.0
C1995 C 0.23572 0.38651 0.8713 0.0
C1996 C 0.25919 0.40464 0.86052 0.0
C1997 C 0.25924 0.42347 0.84593 0.0
C1998 C 0.23652 0.42468 0.84227 0.0
C1999 C 0.21383 0.40699 0.85339 0.0
C2000 C 0.21308 0.38827 0.86767 0.0
C2001 C 0.18652 0.37341 0.87901 0.0
C2002 C 0.17236 0.34435 0.87244 0.0
C2003 C 0.18933 0.37677 0.90439 0.0
C2004 C 0.17289 0.38725 0.86927 0.0
C2005 C 0.18907 0.40628 0.8543 0.0
C2006 C 0.18205 0.42306 0.84417 0.0
C2007 C 0.15804 0.42075 0.84977 0.0
C2008 C 0.14123 0.40179 0.86532 0.0
C2009 C 0.14845 0.38442 0.87488 0.0
H2010 H 0.73879 0.16362 0.37405 0.0
H2011 H 0.7632 0.10809 0.35491 0.0
H2012 H 0.80915 0.14424 0.35292 0.0
H2013 H 0.78208 0.21523 0.33844 0.0
H2014 H 0.78812 0.24074 0.35806 0.0
H2015 H 0.7575 0.21034 0.35868 0.0
H2016 H 0.76507 0.20411 0.40012 0.0
H2017 H 0.79572 0.23452 0.39964 0.0
H2018 H 0.79484 0.20482 0.40822 0.0
H2019 H 0.85262 0.18728 0.35214 0.0
H2020 H 0.88937 0.23302 0.35273 0.0
H2021 H 0.83555 0.25942 0.37239 0.0
C2022 C 0.75375 0.15893 0.36954 0.0
C2023 C 0.74735 0.13297 0.36463 0.0
C2024 C 0.7676 0.12781 0.35875 0.0
C2025 C 0.79376 0.14822 0.35759 0.0
C2026 C 0.79932 0.17363 0.36239 0.0
C2027 C 0.77983 0.17897 0.36829 0.0
C2028 C 0.79069 0.2079 0.37229 0.0
C2029 C 0.7789 0.21921 0.35589 0.0
C2030 C 0.78632 0.21314 0.39651 0.0
C2031 C 0.81937 0.21812 0.36757 0.0
C2032 C 0.82406 0.19813 0.36194 0.0
C2033 C 0.84914 0.20306 0.3566 0.0
C2034 C 0.8699 0.2291 0.35696 0.0
C2035 C 0.8654 0.24985 0.36259 0.0
C2036 C 0.83975 0.24408 0.36805 0.0
H2037 H 0.63111 0.76785 0.89657 0.0
H2038 H 0.58368 0.73445 0.83753 0.0
H2039 H 0.5847 0.77597 0.8303 0.0
H2040 H 0.59883 0.80024 0.9145 0.0
H2041 H 0.62721 0.82898 0.92515 0.0
H2042 H 0.62682 0.79831 0.92396 0.0
H2043 H 0.66939 0.81998 0.90059 0.0
H2044 H 0.66994 0.8508 0.90175 0.0
H2045 H 0.67062 0.83687 0.87527 0.0
H2046 H 0.58531 0.8176 0.83179 0.0
H2047 H 0.58526 0.85796 0.84224 0.0
H2048 H 0.63244 0.86629 0.9002 0.0
C2049 C 0.62165 0.76968 0.88181 0.0
C2050 C 0.60751 0.7481 0.86748 0.0
C2051 C 0.59465 0.7508 0.84867 0.0
C2052 C 0.59525 0.77435 0.84435 0.0
C2053 C 0.60874 0.79508 0.85901 0.0
C2054 C 0.62176 0.79314 0.87737 0.0
C2055 C 0.63229 0.8176 0.89166 0.0
C2056 C 0.62058 0.81087 0.9152 0.0
C2057 C 0.66235 0.83218 0.89235 0.0
C2058 C 0.62236 0.83306 0.87881 0.0
C2059 C 0.60914 0.81972 0.85987 0.0
C2060 C 0.59608 0.82856 0.84627 0.0
C2061 C 0.5961 0.85142 0.85235 0.0
C2062 C 0.6092 0.86528 0.87175 0.0
C2063 C 0.62296 0.85634 0.88494 0.0
H2064 H 0.35475 0.95977 0.96638 0.0
H2065 H 0.38675 0.03283 0.92994 0.0
H2066 H 0.40051 0.0574 0.9654 0.0
H2067 H 0.32928 0.98066 0.01258 0.0
H2068 H 0.33648 0.9627 0.0329 0.0
H2069 H 0.32909 0.95108 0.00468 0.0
H2070 H 0.37287 0.95102 1.00233 0.0
H2071 H 0.38051 0.96279 0.03048 0.0
H2072 H 0.40311 0.98065 0.0084 0.0
H2073 H 0.41415 0.07387 0.00472 0.0
H2074 H 0.42181 0.08108 0.04518 0.0
H2075 H 0.3774 0.99723 0.05619 0.0
C2076 C 0.36453 0.98095 0.96589 0.0
C2077 C 0.36988 0.99447 0.94545 0.0
C2078 C 0.38243 0.02213 0.94545 0.0
C2079 C 0.3904 0.03622 0.96548 0.0
C2080 C 0.38515 0.02231 0.98536 0.0
C2081 C 0.37204 0.99526 0.98574 0.0
C2082 C 0.36829 0.98498 0.00933 0.0
C2083 C 0.33905 0.96891 0.01522 0.0
C2084 C 0.38202 0.96891 0.01283 0.0
C2085 C 0.38177 0.01047 0.0222 0.0
C2086 C 0.39163 0.03178 0.00804 0.0
C2087 C 0.40617 0.05735 0.01596 0.0
C2088 C 0.41053 0.06125 0.03894 0.0
C2089 C 0.4 0.03973 0.05376 0.0
C2090 C 0.38535 0.01404 0.04523 0.0
H2091 H 0.4038 0.34794 0.46915 0.0
H2092 H 0.37608 0.39318 0.43328 0.0
H2093 H 0.37093 0.41128 0.46862 0.0
H2094 H 0.35787 0.33101 0.51467 0.0
H2095 H 0.38054 0.33259 0.53553 0.0
H2096 H 0.38343 0.32409 0.50734 0.0
H2097 H 0.43155 0.36197 0.50615 0.0
H2098 H 0.42878 0.37062 0.53433 0.0
H2099 H 0.43888 0.3948 0.5126 0.0
H2100 H 0.37069 0.42608 0.50728 0.0
H2101 H 0.37015 0.4327 0.54773 0.0
H2102 H 0.39361 0.37476 0.55942 0.0
C2103 C 0.39675 0.36173 0.46884 0.0
C2104 C 0.39049 0.36935 0.44856 0.0
C2105 C 0.38092 0.38709 0.44869 0.0
C2106 C 0.37805 0.39756 0.46865 0.0
C2107 C 0.38434 0.38971 0.48838 0.0
C2108 C 0.39305 0.37187 0.48875 0.0
C2109 C 0.39699 0.36572 0.51244 0.0
C2110 C 0.3786 0.33663 0.51781 0.0
C2111 C 0.42576 0.37376 0.51662 0.0
C2112 C 0.38934 0.38305 0.52522 0.0
C2113 C 0.38254 0.39702 0.51095 0.0
C2114 C 0.37572 0.41508 0.51866 0.0
C2115 C 0.37557 0.41879 0.54163 0.0
C2116 C 0.38167 0.40413 0.5566 0.0
C2117 C 0.38861 0.38601 0.54828 0.0
H2118 H 0.04368 0.40241 0.96275 0.0
H2119 H 0.97086 0.36005 0.92613 0.0
H2120 H 0.94639 0.34611 0.9616 0.0
H2121 H 0.02513 0.35379 0.00712 0.0
H2122 H 0.04204 0.37814 0.0283 0.0
H2123 H 0.05375 0.38447 1.00006 0.0
H2124 H 0.05107 0.42694 0.9999 0.0
H2125 H 0.03927 0.42074 0.02809 0.0
H2126 H 0.02053 0.42534 0.00673 0.0
H2127 H 0.92971 0.34035 1.00095 0.0
H2128 H 0.92217 0.33894 0.04147 0.0
H2129 H 0.00598 0.38148 0.05278 0.0
C2130 C 0.02258 0.39008 0.96222 0.0
C2131 C 0.00909 0.38243 0.94171 0.0
C2132 C 0.98155 0.36608 0.94166 0.0
C2133 C 0.96751 0.35814 0.96171 0.0
C2134 C 0.98136 0.36627 0.98166 0.0
C2135 C 0.00833 0.38148 0.98208 0.0
C2136 C 0.01852 0.38719 0.00576 0.0
C2137 C 0.03588 0.37518 0.01059 0.0
C2138 C 0.03321 0.41681 0.01038 0.0
C2139 C 0.99302 0.37329 0.01863 0.0
C2140 C 0.97182 0.36157 0.00438 0.0
C2141 C 0.94616 0.34906 0.01226 0.0
C2142 C 0.94207 0.34843 0.03527 0.0
C2143 C 0.96348 0.35981 0.05019 0.0
C2144 C 0.98928 0.3722 0.04173 0.0
H2145 H 0.6017 0.02042 0.46374 0.0
H2146 H 0.67871 0.03064 0.4518 0.0
H2147 H 0.68173 0.02091 0.4914 0.0
H2148 H 0.61233 0.04647 0.51951 0.0
H2149 H 0.58039 0.02214 0.52924 0.0
H2150 H 0.58515 0.03174 0.50044 0.0
H2151 H 0.56642 0.98335 0.48865 0.0
H2152 H 0.56149 0.97361 0.51739 0.0
H2153 H 0.58071 0.96497 0.49977 0.0
H2154 H 0.67652 0.01113 0.53286 0.0
H2155 H 0.66125 0.99634 0.57132 0.0
H2156 H 0.58599 0.98828 0.55494 0.0
C2157 C 0.61928 0.02083 0.46956 0.0
C2158 C 0.64015 0.0266 0.45488 0.0
C2159 C 0.66258 0.02635 0.46288 0.0
C2160 C 0.66449 0.02097 0.48533 0.0
C2161 C 0.64356 0.01535 0.49944 0.0
C2162 C 0.62117 0.01477 0.49175 0.0
C2163 C 0.60066 0.00623 0.50985 0.0
C2164 C 0.59427 0.02795 0.51506 0.0
C2165 C 0.57586 0.98051 0.50353 0.0
C2166 C 0.61501 0.00225 0.52897 0.0
C2167 C 0.63991 0.00806 0.52277 0.0
C2168 C 0.657 0.00637 0.53783 0.0
C2169 C 0.64824 0.99809 0.55965 0.0
C2170 C 0.62245 0.99109 0.56603 0.0
C2171 C 0.60577 0.99337 0.55046 0.0
H2172 H 0.63914 0.59991 0.04296 0.0
H2173 H 0.6054 0.63992 0.07849 0.0
H2174 H 0.5935 0.65188 0.04263 0.0
H2175 H 0.66711 0.64784 0.998 0.0
H2176 H 0.66103 0.62335 0.9773 0.0
H2177 H 0.66691 0.61821 0.00573 0.0
H2178 H 0.62308 0.57429 0.00628 0.0
H2179 H 0.61695 0.57931 0.97791 0.0
H2180 H 0.59318 0.57385 0.99913 0.0
H2181 H 0.58169 0.6557 1.00288 0.0
H2182 H 0.57592 0.65624 0.96218 0.0
H2183 H 0.62124 0.61755 0.95253 0.0
C2184 C 0.62937 0.61133 0.04316 0.0
C2185 C 0.62297 0.61886 0.06344 0.0
C2186 C 0.61049 0.63403 0.0631 0.0
C2187 C 0.60359 0.6408 0.04284 0.0
C2188 C 0.60986 0.63275 0.02311 0.0
C2189 C 0.62297 0.61881 0.02312 0.0
C2190 C 0.62799 0.61304 0.99965 0.0
C2191 C 0.65752 0.62642 0.99489 0.0
C2192 C 0.61449 0.58336 0.99551 0.0
C2193 C 0.61519 0.62545 0.98639 0.0
C2194 C 0.60457 0.63644 1.00024 0.0
C2195 C 0.59031 0.64757 0.99188 0.0
C2196 C 0.58702 0.64767 0.96878 0.0
C2197 C 0.59837 0.63719 0.9543 0.0
C2198 C 0.61274 0.62608 0.96326 0.0
H2199 H 0.99906 0.61885 0.55756 0.0
H2200 H 0.08266 0.65503 0.5462 0.0
H2201 H 0.07514 0.65176 0.50568 0.0
H2202 H 0.98085 0.57199 0.51315 0.0
H2203 H 0.95172 0.57292 0.50576 0.0
H2204 H 0.96362 0.57956 0.53392 0.0
H2205 H 0.96524 0.62425 0.53254 0.0
H2206 H 0.9533 0.61772 0.50438 0.0
H2207 H 0.98351 0.6472 0.51078 0.0
H2208 H 0.05895 0.64596 0.46683 0.0
H2209 H 0.03474 0.63408 0.43138 0.0
H2210 H 0.96115 0.59773 0.46741 0.0
C2211 C 0.01572 0.62625 0.54646 0.0
C2212 C 0.04145 0.63742 0.55484 0.0
C2213 C 0.06282 0.64645 0.53999 0.0
C2214 C 0.05875 0.64475 0.517 0.0
C2215 C 0.03315 0.63351 0.5092 0.0
C2216 C 0.01194 0.62406 0.52341 0.0
C2217 C 0.98639 0.61154 0.51058 0.0
C2218 C 0.96967 0.58226 0.51619 0.0
C2219 C 0.97122 0.62605 0.51483 0.0
C2220 C 0.99661 0.61559 0.48697 0.0
C2221 C 0.02367 0.62865 0.48662 0.0
C2222 C 0.03777 0.63553 0.46685 0.0
C2223 C 0.02386 0.62877 0.44683 0.0
C2224 C 0.99615 0.61486 0.44676 0.0
C2225 C 0.98235 0.60809 0.46708 0.0
H2226 H 0.59781 0.95761 0.96706 0.0
H2227 H 0.63713 0.03099 0.93089 0.0
H2228 H 0.64841 0.05529 0.96647 0.0
H2229 H 0.57082 0.9777 0.01032 0.0
H2230 H 0.57647 0.95993 0.03191 0.0
H2231 H 0.57169 0.94834 0.00367 0.0
H2232 H 0.61591 0.94905 0.00476 0.0
H2233 H 0.62081 0.96053 0.03306 0.0
H2234 H 0.64529 0.97881 0.01233 0.0
H2235 H 0.65212 0.07145 0.00587 0.0
H2236 H 0.65263 0.07846 0.04641 0.0
H2237 H 0.61444 0.99464 0.05719 0.0
C2238 C 0.60889 0.9788 0.96666 0.0
C2239 C 0.61646 0.99249 0.94625 0.0
C2240 C 0.63119 0.02017 0.94636 0.0
C2241 C 0.63759 0.03411 0.96647 0.0
C2242 C 0.62958 0.02004 0.98631 0.0
C2243 C 0.61597 0.99299 0.98658 0.0
C2244 C 0.61021 0.98259 0.01018 0.0
C2245 C 0.58054 0.96617 0.01425 0.0
C2246 C 0.62388 0.96681 0.01538 0.0
C2247 C 0.6223 0.00801 0.02317 0.0
C2248 C 0.63311 0.02937 0.00906 0.0
C2249 C 0.64408 0.05488 0.01708 0.0
C2250 C 0.64417 0.05867 0.0401 0.0
C2251 C 0.6338 0.03712 0.05488 0.0
C2252 C 0.62285 0.01148 0.04626 0.0
H2253 H 0.61707 0.57604 0.45848 0.0
H2254 H 0.64083 0.65412 0.43425 0.0
H2255 H 0.63792 0.66781 0.47257 0.0
H2256 H 0.57059 0.57252 0.49914 0.0
H2257 H 0.57876 0.55477 0.5189 0.0
H2258 H 0.58238 0.55131 0.48958 0.0
H2259 H 0.63101 0.56491 0.49565 0.0
H2260 H 0.62764 0.56848 0.52497 0.0
H2261 H 0.65256 0.59548 0.50928 0.0
H2262 H 0.6333 0.67296 0.51411 0.0
H2263 H 0.62688 0.6691 0.55481 0.0
H2264 H 0.60571 0.58734 0.55116 0.0
C2265 C 0.62154 0.59602 0.46111 0.0
C2266 C 0.62911 0.61401 0.44329 0.0
C2267 C 0.63491 0.63997 0.4476 0.0
C2268 C 0.63332 0.64792 0.46932 0.0
C2269 C 0.62586 0.62965 0.4865 0.0
C2270 C 0.62 0.60422 0.48257 0.0
C2271 C 0.61274 0.58835 0.50381 0.0
C2272 C 0.58443 0.56538 0.50279 0.0
C2273 C 0.63215 0.57875 0.50871 0.0
C2274 C 0.61546 0.60882 0.52043 0.0
C2275 C 0.62307 0.63253 0.51016 0.0
C2276 C 0.62724 0.65445 0.52226 0.0
C2277 C 0.62356 0.65205 0.5454 0.0
C2278 C 0.6157 0.62789 0.55623 0.0
C2279 C 0.61156 0.60604 0.54344 0.0
H2280 H 1.00023 0.62384 0.05773 0.0
H2281 H 0.91733 0.57618 0.04335 0.0
H2282 H 0.92675 0.58352 1.00314 0.0
H2283 H 0.01719 0.671 0.01365 0.0
H2284 H 0.04799 0.67285 0.00755 0.0
H2285 H 0.0347 0.66498 0.03525 0.0
H2286 H 0.03715 0.62234 0.03433 0.0
H2287 H 0.05045 0.63009 0.00664 0.0
H2288 H 0.02132 0.59921 0.0121 0.0
H2289 H 0.94483 0.59738 0.96497 0.0
H2290 H 0.97077 0.6128 0.9305 0.0
H2291 H 0.0425 0.64806 0.96913 0.0
C2292 C 0.98411 0.61512 0.04605 0.0
C2293 C 0.95804 0.59967 0.05348 0.0
C2294 C 0.93742 0.5881 0.03787 0.0
C2295 C 0.94257 0.59223 0.01506 0.0
C2296 C 0.96849 0.60754 0.00822 0.0
C2297 C 0.98898 0.61848 0.02319 0.0
C2298 C 0.01512 0.6329 0.01133 0.0
C2299 C 0.0296 0.66217 0.0173 0.0
C2300 C 0.032 0.62038 0.0164 0.0
C2301 C 0.00609 0.62852 0.98736 0.0
C2302 C 0.97908 0.61419 0.98602 0.0
C2303 C 0.96598 0.60841 0.96577 0.0
C2304 C 0.98088 0.61734 0.94632 0.0
C2305 C 0.00858 0.63146 0.94723 0.0
C2306 C 0.02134 0.63706 0.96802 0.0
H2307 H 0.40606 0.99018 0.55532 0.0
H2308 H 0.33949 0.99943 0.5714 0.0
H2309 H 0.33888 0.0135 0.53271 0.0
H2310 H 0.4381 0.04754 0.51892 0.0
H2311 H 0.45015 0.03207 0.50025 0.0
H2312 H 0.44538 0.02318 0.52922 0.0
H2313 H 0.41533 0.97455 0.51837 0.0
H2314 H 0.41982 0.98328 0.4894 0.0
H2315 H 0.38728 0.96559 0.50089 0.0
H2316 H 0.343 0.02211 0.49112 0.0
H2317 H 0.35518 0.03055 0.45134 0.0
H2318 H 0.42174 0.02001 0.46352 0.0
C2319 C 0.39152 0.99543 0.55073 0.0
C2320 C 0.37275 0.99367 0.56627 0.0
C2321 C 0.35412 0.00082 0.55975 0.0
C2322 C 0.35356 0.00868 0.5378 0.0
C2323 C 0.37213 0.00984 0.52276 0.0
C2324 C 0.39111 0.00395 0.52909 0.0
C2325 C 0.40913 0.0072 0.5099 0.0
C2326 C 0.43736 0.02879 0.51487 0.0
C2327 C 0.40779 0.9811 0.50432 0.0
C2328 C 0.39707 0.0154 0.49163 0.0
C2329 C 0.37552 0.01646 0.49929 0.0
C2330 C 0.36012 0.02183 0.48506 0.0
C2331 C 0.3671 0.02647 0.46251 0.0
C2332 C 0.38956 0.02627 0.45452 0.0
C2333 C 0.40475 0.02077 0.46933 0.0
H2334 H 0.39403 0.35472 0.036 0.0
H2335 H 0.36334 0.39801 0.07086 0.0
H2336 H 0.35659 0.41422 0.03506 0.0
H2337 H 0.42724 0.4009 0.99218 0.0
H2338 H 0.41826 0.37642 0.97085 0.0
H2339 H 0.42144 0.36872 0.99923 0.0
H2340 H 0.37412 0.32931 0.99825 0.0
H2341 H 0.37081 0.33685 0.96985 0.0
H2342 H 0.34756 0.33451 0.99044 0.0
H2343 H 0.35568 0.42784 0.99589 0.0
H2344 H 0.3555 0.43376 0.95524 0.0
H2345 H 0.38253 0.37831 0.94531 0.0
C2346 C 0.38593 0.36763 0.03601 0.0
C2347 C 0.37936 0.3753 0.05611 0.0
C2348 C 0.36844 0.39189 0.05559 0.0
C2349 C 0.36464 0.40128 0.03537 0.0
C2350 C 0.37138 0.39346 0.01582 0.0
C2351 C 0.38135 0.37665 0.0159 0.0
C2352 C 0.38582 0.3704 0.99243 0.0
C2353 C 0.41492 0.37967 0.98845 0.0
C2354 C 0.36854 0.34102 0.98746 0.0
C2355 C 0.37709 0.38656 0.9792 0.0
C2356 C 0.36922 0.40001 0.99307 0.0
C2357 C 0.36148 0.41717 0.98484 0.0
C2358 C 0.36155 0.4205 0.96178 0.0
C2359 C 0.36878 0.40633 0.94727 0.0
C2360 C 0.37658 0.3891 0.9561 0.0
H2361 H 0.01803 0.41503 0.5495 0.0
H2362 H 0.01491 0.34185 0.56536 0.0
H2363 H 0.99873 0.32559 0.52734 0.0
H2364 H 0.95788 0.38525 0.51652 0.0
H2365 H 0.97018 0.4122 0.49723 0.0
H2366 H 0.98146 0.41781 0.52559 0.0
H2367 H 0.02942 0.43898 0.51185 0.0
H2368 H 0.0183 0.43333 0.48347 0.0
H2369 H 0.03869 0.4208 0.49354 0.0
H2370 H 0.98669 0.31923 0.48626 0.0
H2371 H 0.97437 0.32088 0.44718 0.0
H2372 H 0.98109 0.3964 0.45956 0.0
C2373 C 0.01378 0.39552 0.54498 0.0
C2374 C 0.01785 0.37971 0.56026 0.0
C2375 C 0.01183 0.3542 0.55388 0.0
C2376 C 0.00275 0.34488 0.53232 0.0
C2377 C 0.99921 0.3611 0.51754 0.0
C2378 C 0.00404 0.38567 0.52377 0.0
C2379 C 0.99796 0.39896 0.50501 0.0
C2380 C 0.97553 0.40383 0.51148 0.0
C2381 C 0.02256 0.42453 0.49806 0.0
C2382 C 0.9895 0.37829 0.48705 0.0
C2383 C 0.99064 0.35671 0.49449 0.0
C2384 C 0.98529 0.33583 0.4804 0.0
C2385 C 0.97842 0.33697 0.45823 0.0
C2386 C 0.97645 0.35859 0.45048 0.0
C2387 C 0.98196 0.3794 0.46516 0.0
H2388 H 0.46809 0.0372 0.10764 0.0
H2389 H 0.46755 0.06154 0.17553 0.0
H2390 H 0.50659 0.05818 0.18391 0.0
H2391 H 0.49421 0.99198 0.12007 0.0
H2392 H 0.5145 0.0019 0.09557 0.0
H2393 H 0.484 0.00203 0.09555 0.0
H2394 H 0.50859 0.05086 0.08396 0.0
H2395 H 0.53911 0.05091 0.08403 0.0
H2396 H 0.53549 0.07427 0.10072 0.0
H2397 H 0.54798 0.05819 0.18403 0.0
H2398 H 0.59035 0.06129 0.17589 0.0
H2399 H 0.56564 0.03666 0.10802 0.0
C2400 C 0.47584 0.041 0.12439 0.0
C2401 C 0.46484 0.04944 0.14104 0.0
C2402 C 0.4758 0.05507 0.16261 0.0
C2403 C 0.49784 0.05305 0.16756 0.0
C2404 C 0.50876 0.04541 0.15072 0.0
C2405 C 0.4982 0.03937 0.12957 0.0
C2406 C 0.51555 0.03432 0.11409 0.0
C2407 C 0.50121 0.00586 0.10583 0.0
C2408 C 0.52526 0.05375 0.09455 0.0
C2409 C 0.53779 0.03929 0.12971 0.0
C2410 C 0.53318 0.04536 0.15081 0.0
C2411 C 0.55164 0.05297 0.16773 0.0
C2412 C 0.57566 0.05479 0.16294 0.0
C2413 C 0.58098 0.04892 0.14146 0.0
C2414 C 0.56166 0.04059 0.12472 0.0
H2415 H 0.53841 0.56883 0.60778 0.0
H2416 H 0.54377 0.58998 0.6773 0.0
H2417 H 0.50786 0.54558 0.68621 0.0
H2418 H 0.47063 0.53501 0.60615 0.0
H2419 H 0.46708 0.50988 0.58709 0.0
H2420 H 0.49635 0.54143 0.58663 0.0
H2421 H 0.52442 0.51933 0.59239 0.0
H2422 H 0.49511 0.48764 0.59293 0.0
H2423 H 0.51789 0.49783 0.61577 0.0
H2424 H 0.46808 0.50235 0.68706 0.0
H2425 H 0.42545 0.46285 0.67957 0.0
H2426 H 0.44448 0.4684 0.60957 0.0
C2427 C 0.53249 0.56366 0.62492 0.0
C2428 C 0.54396 0.58246 0.64197 0.0
C2429 C 0.53524 0.57561 0.66412 0.0
C2430 C 0.515 0.55044 0.66933 0.0
C2431 C 0.50356 0.5324 0.65215 0.0
C2432 C 0.51188 0.53861 0.63036 0.0
C2433 C 0.49394 0.51667 0.61477 0.0
C2434 C 0.48125 0.52633 0.59767 0.0
C2435 C 0.50873 0.50466 0.60329 0.0
C2436 C 0.47389 0.4976 0.63114 0.0
C2437 C 0.48012 0.50697 0.65264 0.0
C2438 C 0.46331 0.49441 0.67041 0.0
C2439 C 0.4392 0.47202 0.66605 0.0
C2440 C 0.43224 0.46236 0.64416 0.0
C2441 C 0.44998 0.47491 0.62655 0.0
H2442 H 0.91472 0.40829 0.14026 0.0
H2443 H 0.99315 0.4348 0.11526 0.0
H2444 H 0.00139 0.48025 0.11437 0.0
H2445 H 0.90164 0.4499 0.10704 0.0
H2446 H 0.88338 0.45527 0.12835 0.0
H2447 H 0.88434 0.42524 0.1279 0.0
H2448 H 0.90169 0.43359 0.16838 0.0
H2449 H 0.90078 0.46365 0.16897 0.0
H2450 H 0.93081 0.46395 0.17519 0.0
H2451 H 1.00018 0.52285 0.11514 0.0
H2452 H 0.98961 0.55841 0.11733 0.0
H2453 H 0.91198 0.50281 0.14181 0.0
C2454 C 0.93373 0.42355 0.13467 0.0
C2455 C 0.95327 0.41788 0.12779 0.0
C2456 C 0.97784 0.43862 0.12061 0.0
C2457 C 0.98272 0.4645 0.12007 0.0
C2458 C 0.96286 0.46928 0.1268 0.0
C2459 C 0.93889 0.44932 0.13399 0.0
C2460 C 0.92049 0.45928 0.13981 0.0
C2461 C 0.89603 0.44668 0.12488 0.0
C2462 C 0.91301 0.45486 0.16456 0.0
C2463 C 0.93777 0.48802 0.13464 0.0
C2464 C 0.96216 0.49351 0.12722 0.0
C2465 C 0.98117 0.51876 0.12102 0.0
C2466 C 0.97497 0.53883 0.12232 0.0
C2467 C 0.94994 0.53348 0.12971 0.0
C2468 C 0.9313 0.5077 0.13608 0.0
H2469 H 0.41244 0.91929 0.6331 0.0
H2470 H 0.43958 0.00262 0.63506 0.0
H2471 H 0.48546 0.01188 0.63518 0.0
H2472 H 0.46081 0.9203 0.66915 0.0
H2473 H 0.46329 0.89541 0.65378 0.0
H2474 H 0.43299 0.89583 0.6539 0.0
H2475 H 0.43348 0.89733 0.61084 0.0
H2476 H 0.4638 0.89692 0.61058 0.0
H2477 H 0.46163 0.92282 0.59666 0.0
H2478 H 0.52884 0.01137 0.63495 0.0
H2479 H 0.56481 0.00116 0.63449 0.0
H2480 H 0.50734 0.91818 0.63261 0.0
C2481 C 0.42789 0.93957 0.63354 0.0
C2482 C 0.42232 0.96023 0.63403 0.0
C2483 C 0.44333 0.98643 0.63466 0.0
C2484 C 0.46944 0.99188 0.63473 0.0
C2485 C 0.47412 0.97091 0.63417 0.0
C2486 C 0.45382 0.9453 0.6336 0.0
C2487 C 0.46365 0.9261 0.63302 0.0
C2488 C 0.45465 0.90838 0.65369 0.0
C2489 C 0.45514 0.90984 0.61149 0.0
C2490 C 0.49277 0.94485 0.63336 0.0
C2491 C 0.4986 0.97062 0.63402 0.0
C2492 C 0.52443 0.99124 0.63443 0.0
C2493 C 0.54473 0.98525 0.63415 0.0
C2494 C 0.53899 0.95887 0.63347 0.0
C2495 C 0.51259 0.93858 0.63308 0.0
H2496 H 0.58294 0.50272 0.1273 0.0
H2497 H 0.55846 0.56101 0.12683 0.0
H2498 H 0.51219 0.52565 0.12599 0.0
H2499 H 0.53327 0.45679 0.09056 0.0
H2500 H 0.52937 0.42858 0.1055 0.0
H2501 H 0.56046 0.45853 0.10571 0.0
H2502 H 0.55986 0.45878 0.14876 0.0
H2503 H 0.52878 0.42883 0.1487 0.0
H2504 H 0.53226 0.45721 0.16306 0.0
H2505 H 0.46835 0.48349 0.12524 0.0
H2506 H 0.43083 0.43826 0.12546 0.0
H2507 H 0.48484 0.40839 0.12704 0.0
C2508 C 0.56794 0.50818 0.12694 0.0
C2509 C 0.57442 0.53472 0.12706 0.0
C2510 C 0.55404 0.54084 0.12673 0.0
C2511 C 0.52769 0.5209 0.12623 0.0
C2512 C 0.52205 0.49496 0.12614 0.0
C2513 C 0.54164 0.48861 0.12655 0.0
C2514 C 0.53051 0.45929 0.12674 0.0
C2515 C 0.5389 0.45027 0.10588 0.0
C2516 C 0.53831 0.45052 0.14808 0.0
C2517 C 0.50156 0.45008 0.12638 0.0
C2518 C 0.497 0.47088 0.12596 0.0
C2519 C 0.47169 0.46705 0.12557 0.0
C2520 C 0.45051 0.44128 0.12568 0.0
C2521 C 0.45479 0.41967 0.12624 0.0
C2522 C 0.48075 0.42435 0.12657 0.0
H2523 H 0.08901 0.49567 0.62888 0.0
H2524 H 0.00607 0.43923 0.62295 0.0
H2525 H 0.99653 0.47577 0.62388 0.0
H2526 H 0.08257 0.5374 0.66759 0.0
H2527 H 0.10939 0.56672 0.65594 0.0
H2528 H 0.10913 0.53615 0.65395 0.0
H2529 H 0.11377 0.54116 0.61115 0.0
H2530 H 0.1141 0.57179 0.61295 0.0
H2531 H 0.09043 0.54593 0.5955 0.0
H2532 H 0.99711 0.51999 0.62497 0.0
H2533 H 0.00743 0.56616 0.62712 0.0
H2534 H 0.08983 0.59099 0.63456 0.0
C2535 C 0.06874 0.4907 0.62771 0.0
C2536 C 0.04829 0.46448 0.62575 0.0
C2537 C 0.02209 0.45918 0.62439 0.0
C2538 C 0.01652 0.47979 0.62492 0.0
C2539 C 0.03734 0.50543 0.62703 0.0
C2540 C 0.06289 0.51075 0.62851 0.0
C2541 C 0.08197 0.5396 0.6312 0.0
C2542 C 0.09661 0.54529 0.6535 0.0
C2543 C 0.10119 0.55024 0.61153 0.0
C2544 C 0.06326 0.54997 0.63094 0.0
C2545 C 0.03759 0.53017 0.62837 0.0
C2546 C 0.01714 0.53556 0.62709 0.0
C2547 C 0.0232 0.56184 0.62832 0.0
C2548 C 0.04947 0.5823 0.631 0.0
C2549 C 0.06954 0.576 0.63252 0.0
H2550 H 0.92603 0.50745 0.36378 0.0
H2551 H 0.00614 0.56024 0.38454 0.0
H2552 H 0.01411 0.52288 0.38608 0.0
H2553 H 0.91483 0.45442 0.39857 0.0
H2554 H 0.89515 0.42972 0.37843 0.0
H2555 H 0.8963 0.46079 0.3782 0.0
H2556 H 0.91104 0.46757 0.33699 0.0
H2557 H 0.90988 0.43647 0.33707 0.0
H2558 H 0.93958 0.46572 0.32917 0.0
H2559 H 0.01244 0.47866 0.38663 0.0
H2560 H 0.00143 0.43227 0.38546 0.0
H2561 H 0.92269 0.40994 0.36394 0.0
C2562 C 0.94535 0.51134 0.36855 0.0
C2563 C 0.96544 0.53687 0.37406 0.0
C2564 C 0.9904 0.54089 0.3802 0.0
C2565 C 0.99513 0.51978 0.38114 0.0
C2566 C 0.97474 0.49483 0.37581 0.0
C2567 C 0.95039 0.49063 0.36954 0.0
C2568 C 0.93154 0.46202 0.36498 0.0
C2569 C 0.90808 0.45111 0.381 0.0
C2570 C 0.92249 0.4577 0.3406 0.0
C2571 C 0.949 0.45067 0.36976 0.0
C2572 C 0.97385 0.46977 0.37599 0.0
C2573 C 0.99306 0.46358 0.38166 0.0
C2574 C 0.98663 0.43718 0.38097 0.0
C2575 C 0.96119 0.41734 0.37464 0.0
C2576 C 0.94234 0.42445 0.36887 0.0
H2577 H 0.50263 0.91652 0.88731 0.0
H2578 H 0.55872 0.99923 0.87874 0.0
H2579 H 0.5223 0.00869 0.87849 0.0
H2580 H 0.45421 0.91428 0.85122 0.0
H2581 H 0.42714 0.89113 0.86796 0.0
H2582 H 0.45772 0.89126 0.8685 0.0
H2583 H 0.45997 0.89709 0.91127 0.0
H2584 H 0.42936 0.89692 0.91089 0.0
H2585 H 0.45789 0.924 0.92325 0.0
H2586 H 0.47908 0.00861 0.87818 0.0
H2587 H 0.43324 0.99907 0.87771 0.0
H2588 H 0.40646 0.91629 0.8861 0.0
C2589 C 0.50745 0.93671 0.88556 0.0
C2590 C 0.53364 0.95715 0.88312 0.0
C2591 C 0.53885 0.98323 0.8807 0.0
C2592 C 0.51829 0.98879 0.88054 0.0
C2593 C 0.49269 0.96807 0.8828 0.0
C2594 C 0.48729 0.94257 0.88528 0.0
C2595 C 0.45818 0.92365 0.8868 0.0
C2596 C 0.44877 0.90393 0.86747 0.0
C2597 C 0.45093 0.90959 0.9094 0.0
C2598 C 0.44793 0.94245 0.88469 0.0
C2599 C 0.46806 0.968 0.88247 0.0
C2600 C 0.46319 0.98867 0.87999 0.0
C2601 C 0.43706 0.98305 0.87974 0.0
C2602 C 0.41614 0.95693 0.88192 0.0
C2603 C 0.42187 0.93649 0.88447 0.0
H2604 H 0.49087 0.40686 0.37204 0.0
H2605 H 0.43501 0.43375 0.38058 0.0
H2606 H 0.47169 0.47964 0.38099 0.0
H2607 H 0.5401 0.45355 0.40804 0.0
H2608 H 0.56661 0.45668 0.39095 0.0
H2609 H 0.53584 0.42641 0.3912 0.0
H2610 H 0.53269 0.42886 0.34837 0.0
H2611 H 0.56342 0.45917 0.34801 0.0
H2612 H 0.53471 0.45763 0.33596 0.0
H2613 H 0.51554 0.523 0.38009 0.0
H2614 H 0.56168 0.55897 0.37903 0.0
H2615 H 0.587 0.50175 0.37161 0.0
C2616 C 0.48611 0.42224 0.37407 0.0
C2617 C 0.45996 0.4166 0.37632 0.0
C2618 C 0.45488 0.43755 0.37887 0.0
C2619 C 0.47558 0.46366 0.37908 0.0
C2620 C 0.50114 0.46839 0.37679 0.0
C2621 C 0.50634 0.44814 0.37441 0.0
C2622 C 0.5353 0.45799 0.37243 0.0
C2623 C 0.54503 0.44807 0.39181 0.0
C2624 C 0.54191 0.45047 0.34985 0.0
C2625 C 0.54578 0.48708 0.37403 0.0
C2626 C 0.52592 0.49286 0.37647 0.0
C2627 C 0.5312 0.51864 0.37822 0.0
C2628 C 0.55746 0.53893 0.37757 0.0
C2629 C 0.57804 0.53325 0.3753 0.0
C2630 C 0.57188 0.50691 0.37344 0.0
H2631 H 0.08198 0.49987 0.88004 0.0
H2632 H 0.99917 0.44185 0.87927 0.0
H2633 H 0.98856 0.4776 0.87925 0.0
H2634 H 0.0784 0.547 0.91511 0.0
H2635 H 0.10325 0.57448 0.89981 0.0
H2636 H 0.10378 0.54423 0.90084 0.0
H2637 H 0.1036 0.54252 0.85782 0.0
H2638 H 0.10303 0.57272 0.8566 0.0
H2639 H 0.07804 0.54402 0.84264 0.0
H2640 H 0.98774 0.521 0.87919 0.0
H2641 H 0.99675 0.56679 0.87792 0.0
H2642 H 0.08014 0.59431 0.87662 0.0
C2643 C 0.06153 0.49444 0.88001 0.0
C2644 C 0.04141 0.46795 0.87976 0.0
C2645 C 0.01495 0.462 0.87954 0.0
C2646 C 0.00875 0.48217 0.87953 0.0
C2647 C 0.02923 0.50811 0.87956 0.0
C2648 C 0.05507 0.51414 0.87971 0.0
C2649 C 0.07367 0.5433 0.87889 0.0
C2650 C 0.09077 0.5528 0.89992 0.0
C2651 C 0.09057 0.55109 0.85773 0.0
C2652 C 0.05433 0.55294 0.87827 0.0
C2653 C 0.02876 0.53252 0.87884 0.0
C2654 C 0.00771 0.53708 0.8787 0.0
C2655 C 0.01302 0.56316 0.87798 0.0
C2656 C 0.03917 0.58428 0.87721 0.0
C2657 C 0.05991 0.57882 0.87726 0.0
H2658 H 0.58735 0.07672 0.36566 0.0
H2659 H 0.56505 0.0003 0.39315 0.0
H2660 H 0.51901 0.99035 0.3954 0.0
H2661 H 0.54611 0.08951 0.39961 0.0
H2662 H 0.53894 0.10613 0.37799 0.0
H2663 H 0.56957 0.10636 0.37781 0.0
H2664 H 0.55991 0.08704 0.33797 0.0
H2665 H 0.52925 0.08678 0.33802 0.0
H2666 H 0.52981 0.05702 0.33253 0.0
H2667 H 0.47497 0.98984 0.39546 0.0
H2668 H 0.43823 0.9989 0.3933 0.0
H2669 H 0.49134 0.0757 0.36591 0.0
C2670 C 0.57291 0.05777 0.37209 0.0
C2671 C 0.57994 0.0393 0.37925 0.0
C2672 C 0.5602 0.01479 0.38753 0.0
C2673 C 0.53398 0.00897 0.38887 0.0
C2674 C 0.52787 0.02783 0.38183 0.0
C2675 C 0.54689 0.05171 0.37357 0.0
C2676 C 0.53578 0.06905 0.36753 0.0
C2677 C 0.54835 0.09424 0.38158 0.0
C2678 C 0.53887 0.07533 0.34253 0.0
C2679 C 0.50746 0.0513 0.37373 0.0
C2680 C 0.50307 0.02757 0.38192 0.0
C2681 C 0.47824 0.00835 0.38899 0.0
C2682 C 0.45749 0.01366 0.38771 0.0
C2683 C 0.46178 0.03802 0.37947 0.0
C2684 C 0.48717 0.05686 0.37233 0.0
H2685 H 0.53044 0.56695 0.90111 0.0
H2686 H 0.54231 0.58783 0.83137 0.0
H2687 H 0.50566 0.5442 0.82148 0.0
H2688 H 0.50729 0.49502 0.89417 0.0
H2689 H 0.48299 0.48591 0.91567 0.0
H2690 H 0.51313 0.51682 0.91719 0.0
H2691 H 0.48674 0.54104 0.92016 0.0
H2692 H 0.45663 0.51027 0.91865 0.0
H2693 H 0.46295 0.53586 0.89904 0.0
H2694 H 0.46442 0.50227 0.81934 0.0
H2695 H 0.42043 0.46393 0.82515 0.0
H2696 H 0.43429 0.46866 0.89611 0.0
C2697 C 0.5258 0.5618 0.88377 0.0
C2698 C 0.53931 0.58031 0.86689 0.0
C2699 C 0.53224 0.5736 0.84441 0.0
C2700 C 0.51156 0.54889 0.83866 0.0
C2701 C 0.49808 0.53115 0.85563 0.0
C2702 C 0.50487 0.53717 0.87775 0.0
C2703 C 0.4851 0.5157 0.89277 0.0
C2704 C 0.4979 0.50258 0.90572 0.0
C2705 C 0.47209 0.52636 0.90858 0.0
C2706 C 0.46581 0.49718 0.87568 0.0
C2707 C 0.47391 0.5064 0.85435 0.0
C2708 C 0.45817 0.49441 0.83588 0.0
C2709 C 0.43328 0.47271 0.8393 0.0
C2710 C 0.42452 0.46311 0.86096 0.0
C2711 C 0.44113 0.47512 0.87934 0.0
loop_
_geom_bond_atom_site_label_1
_geom_bond_atom_site_label_2
_geom_bond_distance
_geom_bond_site_symmetry_2
_ccdc_geom_bond_type
Co0 O2 2.143 . S
Co0 O8 2.074 . S
Co0 O11 2.093 . S
Co0 O24 2.097 . S
Co0 N41 2.151 . S
Co0 N49 2.214 . S
Co1 O2 2.160 . S
Co1 O7 2.058 . S
Co1 O17 2.057 . S
Co1 O32 2.037 . S
Co1 N36 2.145 1_545 S
Co1 N57 2.257 . S
O2 Co0 2.143 . S
O2 Co1 2.160 . S
C3 O4 1.278 . S
C3 O11 1.224 . S
O4 C3 1.278 . S
C5 O6 1.245 . S
C5 O17 1.232 . S
O6 C5 1.245 . S
O7 Co1 2.058 . S
O7 C33 1.269 . S
O8 Co0 2.074 . S
O8 C33 1.257 . S
H9 C34 0.930 . S
H10 C40 0.930 . S
O11 Co0 2.093 . S
O11 C3 1.224 . S
H12 C44 0.929 . S
H13 C46 0.930 . S
H14 C47 0.930 . S
H15 C45 0.929 . S
H16 C48 0.928 . S
O17 Co1 2.057 . S
O17 C5 1.232 . S
H18 C37 0.929 . S
H19 C38 0.929 . S
H20 C50 0.931 . S
H21 C42 0.929 . S
H22 C51 0.930 . S
H23 C43 0.931 . S
O24 Co0 2.097 . S
O24 C52 1.214 . S
H25 C53 0.929 . S
H26 C54 0.929 . S
H27 C55 0.930 . S
H28 C56 0.929 . S
H29 C58 0.930 . S
H30 C35 0.930 . S
H31 C39 0.930 . S
O32 Co1 2.037 . S
O32 C52 1.234 . S
C33 O7 1.269 . S
C33 O8 1.257 . S
C34 H9 0.930 . S
C34 C37 1.388 . S
C34 C39 1.418 . S
C35 H30 0.930 . S
C35 C38 1.404 . S
C35 C39 1.353 . S
N36 Co1 2.145 1_565 S
N36 C37 1.397 . S
N36 C38 1.334 . S
C37 H18 0.929 . S
C37 C34 1.388 . S
C37 N36 1.397 . S
C38 H19 0.929 . S
C38 C35 1.404 . S
C38 N36 1.334 . S
C39 H31 0.930 . S
C39 C34 1.418 . S
C39 C35 1.353 . S
C40 H10 0.930 . S
C40 N41 1.330 . S
C40 C42 1.446 . S
N41 Co0 2.151 . S
N41 C40 1.330 . S
N41 C45 1.418 . S
C42 H21 0.929 . S
C42 C40 1.446 . S
C42 C43 1.332 . S
C43 H23 0.931 . S
C43 C42 1.332 . S
C43 C44 1.267 . S
C44 H12 0.929 . S
C44 C43 1.267 . S
C44 C45 1.251 . S
C45 H15 0.929 . S
C45 N41 1.418 . S
C45 C44 1.251 . S
C46 H13 0.930 . S
C46 C48 1.406 . S
C46 C51 1.261 . S
C47 H14 0.930 . S
C47 N49 1.325 . S
C47 C50 1.357 . S
C48 H16 0.928 . S
C48 C46 1.406 . S
C48 N49 1.261 . S
N49 Co0 2.214 . S
N49 C47 1.325 . S
N49 C48 1.261 . S
C50 H20 0.931 . S
C50 C47 1.357 . S
C50 C51 1.312 . S
C51 H22 0.930 . S
C51 C46 1.261 . S
C51 C50 1.312 . S
C52 O24 1.214 . S
C52 O32 1.234 . S
C53 H25 0.929 . S
C53 C56 1.391 . S
C53 C58 1.391 . S
C54 H26 0.929 . S
C54 C55 1.390 . S
C54 N57 1.391 1_565 S
C55 H27 0.930 . S
C55 C54 1.390 . S
C55 C56 1.392 1_565 S
C56 H28 0.929 . S
C56 C53 1.391 . S
C56 C55 1.392 1_545 S
N57 Co1 2.257 . S
N57 C54 1.391 1_545 S
N57 C58 1.388 . S
C58 H29 0.930 . S
C58 C53 1.391 . S
C58 N57 1.388 . S
Co59 O61 2.143 . S
Co59 O67 2.074 . S
Co59 O70 2.093 . S
Co59 O83 2.097 . S
Co59 N100 2.151 . S
Co59 N108 2.214 . S
Co60 O61 2.160 . S
Co60 O66 2.058 . S
Co60 O76 2.057 . S
Co60 O91 2.037 . S
Co60 N95 2.145 . S
Co60 N116 2.257 . S
O61 Co59 2.143 . S
O61 Co60 2.160 . S
C62 O63 1.278 . S
C62 O70 1.224 . S
O63 C62 1.278 . S
C64 O65 1.245 . S
C64 O76 1.232 . S
O65 C64 1.245 . S
O66 Co60 2.058 . S
O66 C92 1.269 . S
O67 Co59 2.074 . S
O67 C92 1.257 . S
H68 C93 0.930 . S
H69 C99 0.930 . S
O70 Co59 2.093 . S
O70 C62 1.224 . S
H71 C103 0.929 . S
H72 C105 0.930 . S
H73 C106 0.930 . S
H74 C104 0.929 . S
H75 C107 0.928 . S
O76 Co60 2.057 . S
O76 C64 1.232 . S
H77 C96 0.929 . S
H78 C97 0.929 . S
H79 C109 0.931 . S
H80 C101 0.929 . S
H81 C110 0.930 . S
H82 C102 0.931 . S
O83 Co59 2.097 . S
O83 C111 1.214 . S
H84 C112 0.929 . S
H85 C113 0.929 . S
H86 C114 0.930 . S
H87 C115 0.929 . S
H88 C117 0.930 . S
H89 C94 0.930 . S
H90 C98 0.930 . S
O91 Co60 2.037 . S
O91 C111 1.234 . S
C92 O66 1.269 . S
C92 O67 1.257 . S
C93 H68 0.930 . S
C93 C96 1.388 . S
C93 C98 1.418 . S
C94 H89 0.930 . S
C94 C97 1.404 . S
C94 C98 1.353 . S
N95 Co60 2.145 . S
N95 C96 1.397 . S
N95 C97 1.334 . S
C96 H77 0.929 . S
C96 C93 1.388 . S
C96 N95 1.397 . S
C97 H78 0.929 . S
C97 C94 1.404 . S
C97 N95 1.334 . S
C98 H90 0.930 . S
C98 C93 1.418 . S
C98 C94 1.353 . S
C99 H69 0.930 . S
C99 N100 1.330 . S
C99 C101 1.446 . S
N100 Co59 2.151 . S
N100 C99 1.330 . S
N100 C104 1.418 . S
C101 H80 0.929 . S
C101 C99 1.446 . S
C101 C102 1.332 . S
C102 H82 0.931 . S
C102 C101 1.332 . S
C102 C103 1.267 . S
C103 H71 0.929 . S
C103 C102 1.267 . S
C103 C104 1.251 . S
C104 H74 0.929 . S
C104 N100 1.418 . S
C104 C103 1.251 . S
C105 H72 0.930 . S
C105 C107 1.406 . S
C105 C110 1.261 . S
C106 H73 0.930 . S
C106 N108 1.325 . S
C106 C109 1.357 . S
C107 H75 0.928 . S
C107 C105 1.406 . S
C107 N108 1.261 . S
N108 Co59 2.214 . S
N108 C106 1.325 . S
N108 C107 1.261 . S
C109 H79 0.931 . S
C109 C106 1.357 . S
C109 C110 1.312 . S
C110 H81 0.930 . S
C110 C105 1.261 . S
C110 C109 1.312 . S
C111 O83 1.214 . S
C111 O91 1.234 . S
C112 H84 0.929 . S
C112 C115 1.391 . S
C112 C117 1.391 . S
C113 H85 0.929 . S
C113 C114 1.390 . S
C113 N116 1.391 . S
C114 H86 0.930 . S
C114 C113 1.390 . S
C114 C115 1.392 . S
C115 H87 0.929 . S
C115 C112 1.391 . S
C115 C114 1.392 . S
N116 Co60 2.257 . S
N116 C113 1.391 . S
N116 C117 1.388 . S
C117 H88 0.930 . S
C117 C112 1.391 . S
C117 N116 1.388 . S
Co118 O120 2.143 . S
Co118 O126 2.074 . S
Co118 O129 2.093 . S
Co118 O142 2.097 . S
Co118 N159 2.151 . S
Co118 N167 2.214 . S
Co119 O120 2.160 . S
Co119 O125 2.058 . S
Co119 O135 2.057 . S
Co119 O150 2.037 . S
Co119 N154 2.145 1_655 S
Co119 N175 2.257 . S
O120 Co118 2.143 . S
O120 Co119 2.160 . S
C121 O122 1.278 . S
C121 O129 1.224 . S
O122 C121 1.278 . S
C123 O124 1.245 . S
C123 O135 1.232 . S
O124 C123 1.245 . S
O125 Co119 2.058 . S
O125 C151 1.269 . S
O126 Co118 2.074 . S
O126 C151 1.257 . S
H127 C152 0.930 . S
H128 C158 0.930 . S
O129 Co118 2.093 . S
O129 C121 1.224 . S
H130 C162 0.929 . S
H131 C164 0.930 . S
H132 C165 0.930 . S
H133 C163 0.929 . S
H134 C166 0.928 . S
O135 Co119 2.057 . S
O135 C123 1.232 . S
H136 C155 0.929 . S
H137 C156 0.929 . S
H138 C168 0.931 . S
H139 C160 0.929 . S
H140 C169 0.930 . S
H141 C161 0.931 . S
O142 Co118 2.097 . S
O142 C170 1.214 . S
H143 C171 0.929 . S
H144 C172 0.929 . S
H145 C173 0.930 . S
H146 C174 0.929 . S
H147 C176 0.930 . S
H148 C153 0.930 . S
H149 C157 0.930 . S
O150 Co119 2.037 . S
O150 C170 1.234 . S
C151 O125 1.269 . S
C151 O126 1.257 . S
C152 H127 0.930 . S
C152 C155 1.388 . S
C152 C157 1.418 . S
C153 H148 0.930 . S
C153 C156 1.404 . S
C153 C157 1.353 . S
N154 Co119 2.145 1_455 S
N154 C155 1.397 . S
N154 C156 1.334 . S
C155 H136 0.929 . S
C155 C152 1.388 . S
C155 N154 1.397 . S
C156 H137 0.929 . S
C156 C153 1.404 . S
C156 N154 1.334 . S
C157 H149 0.930 . S
C157 C152 1.418 . S
C157 C153 1.353 . S
C158 H128 0.930 . S
C158 N159 1.330 . S
C158 C160 1.446 . S
N159 Co118 2.151 . S
N159 C158 1.330 . S
N159 C163 1.418 . S
C160 H139 0.929 . S
C160 C158 1.446 . S
C160 C161 1.332 . S
C161 H141 0.931 . S
C161 C160 1.332 . S
C161 C162 1.267 . S
C162 H130 0.929 . S
C162 C161 1.267 . S
C162 C163 1.251 . S
C163 H133 0.929 . S
C163 N159 1.418 . S
C163 C162 1.251 . S
C164 H131 0.930 . S
C164 C166 1.406 . S
C164 C169 1.261 . S
C165 H132 0.930 . S
C165 N167 1.325 . S
C165 C168 1.357 . S
C166 H134 0.928 . S
C166 C164 1.406 . S
C166 N167 1.261 . S
N167 Co118 2.214 . S
N167 C165 1.325 . S
N167 C166 1.261 . S
C168 H138 0.931 . S
C168 C165 1.357 . S
C168 C169 1.312 . S
C169 H140 0.930 . S
C169 C164 1.261 . S
C169 C168 1.312 . S
C170 O142 1.214 . S
C170 O150 1.234 . S
C171 H143 0.929 . S
C171 C174 1.391 . S
C171 C176 1.391 . S
C172 H144 0.929 . S
C172 C173 1.390 . S
C172 N175 1.391 1_455 S
C173 H145 0.930 . S
C173 C172 1.390 . S
C173 C174 1.392 1_455 S
C174 H146 0.929 . S
C174 C171 1.391 . S
C174 C173 1.392 1_655 S
N175 Co119 2.257 . S
N175 C172 1.391 1_655 S
N175 C176 1.388 . S
C176 H147 0.930 . S
C176 C171 1.391 . S
C176 N175 1.388 . S
Co177 O179 2.143 . S
Co177 O185 2.074 . S
Co177 O188 2.093 . S
Co177 O201 2.097 . S
Co177 N218 2.151 . S
Co177 N226 2.214 . S
Co178 O179 2.160 . S
Co178 O184 2.058 . S
Co178 O194 2.057 . S
Co178 O209 2.037 . S
Co178 N213 2.145 1_565 S
Co178 N234 2.257 . S
O179 Co177 2.143 . S
O179 Co178 2.160 . S
C180 O181 1.278 . S
C180 O188 1.224 . S
O181 C180 1.278 . S
C182 O183 1.245 . S
C182 O194 1.232 . S
O183 C182 1.245 . S
O184 Co178 2.058 . S
O184 C210 1.269 . S
O185 Co177 2.074 . S
O185 C210 1.257 . S
H186 C211 0.930 . S
H187 C217 0.930 . S
O188 Co177 2.093 . S
O188 C180 1.224 . S
H189 C221 0.929 . S
H190 C223 0.930 . S
H191 C224 0.930 . S
H192 C222 0.929 . S
H193 C225 0.928 . S
O194 Co178 2.057 . S
O194 C182 1.232 . S
H195 C214 0.929 . S
H196 C215 0.929 . S
H197 C227 0.931 . S
H198 C219 0.929 . S
H199 C228 0.930 . S
H200 C220 0.931 . S
O201 Co177 2.097 . S
O201 C229 1.214 . S
H202 C230 0.929 . S
H203 C231 0.929 . S
H204 C232 0.930 . S
H205 C233 0.929 . S
H206 C235 0.930 . S
H207 C212 0.930 . S
H208 C216 0.930 . S
O209 Co178 2.037 . S
O209 C229 1.234 . S
C210 O184 1.269 . S
C210 O185 1.257 . S
C211 H186 0.930 . S
C211 C214 1.388 . S
C211 C216 1.418 . S
C212 H207 0.930 . S
C212 C215 1.404 . S
C212 C216 1.353 . S
N213 Co178 2.145 1_545 S
N213 C214 1.397 . S
N213 C215 1.334 . S
C214 H195 0.929 . S
C214 C211 1.388 . S
C214 N213 1.397 . S
C215 H196 0.929 . S
C215 C212 1.404 . S
C215 N213 1.334 . S
C216 H208 0.930 . S
C216 C211 1.418 . S
C216 C212 1.353 . S
C217 H187 0.930 . S
C217 N218 1.330 . S
C217 C219 1.446 . S
N218 Co177 2.151 . S
N218 C217 1.330 . S
N218 C222 1.418 . S
C219 H198 0.929 . S
C219 C217 1.446 . S
C219 C220 1.332 . S
C220 H200 0.931 . S
C220 C219 1.332 . S
C220 C221 1.267 . S
C221 H189 0.929 . S
C221 C220 1.267 . S
C221 C222 1.251 . S
C222 H192 0.929 . S
C222 N218 1.418 . S
C222 C221 1.251 . S
C223 H190 0.930 . S
C223 C225 1.406 . S
C223 C228 1.261 . S
C224 H191 0.930 . S
C224 N226 1.325 . S
C224 C227 1.357 . S
C225 H193 0.928 . S
C225 C223 1.406 . S
C225 N226 1.261 . S
N226 Co177 2.214 . S
N226 C224 1.325 . S
N226 C225 1.261 . S
C227 H197 0.931 . S
C227 C224 1.357 . S
C227 C228 1.312 . S
C228 H199 0.930 . S
C228 C223 1.261 . S
C228 C227 1.312 . S
C229 O201 1.214 . S
C229 O209 1.234 . S
C230 H202 0.929 . S
C230 C233 1.391 . S
C230 C235 1.391 . S
C231 H203 0.929 . S
C231 C232 1.390 . S
C231 N234 1.391 1_545 S
C232 H204 0.930 . S
C232 C231 1.390 . S
C232 C233 1.392 1_545 S
C233 H205 0.929 . S
C233 C230 1.391 . S
C233 C232 1.392 1_565 S
N234 Co178 2.257 . S
N234 C231 1.391 1_565 S
N234 C235 1.388 . S
C235 H206 0.930 . S
C235 C230 1.391 . S
C235 N234 1.388 . S
Co236 O238 2.143 . S
Co236 O244 2.074 . S
Co236 O247 2.093 . S
Co236 O260 2.097 . S
Co236 N277 2.151 . S
Co236 N285 2.214 . S
Co237 O238 2.160 . S
Co237 O243 2.058 . S
Co237 O253 2.057 . S
Co237 O268 2.037 . S
Co237 N272 2.145 . S
Co237 N293 2.257 . S
O238 Co236 2.143 . S
O238 Co237 2.160 . S
C239 O240 1.278 . S
C239 O247 1.224 . S
O240 C239 1.278 . S
C241 O242 1.245 . S
C241 O253 1.232 . S
O242 C241 1.245 . S
O243 Co237 2.058 . S
O243 C269 1.269 . S
O244 Co236 2.074 . S
O244 C269 1.257 . S
H245 C270 0.930 . S
H246 C276 0.930 . S
O247 Co236 2.093 . S
O247 C239 1.224 . S
H248 C280 0.929 . S
H249 C282 0.930 . S
H250 C283 0.930 . S
H251 C281 0.929 . S
H252 C284 0.928 . S
O253 Co237 2.057 . S
O253 C241 1.232 . S
H254 C273 0.929 . S
H255 C274 0.929 . S
H256 C286 0.931 . S
H257 C278 0.929 . S
H258 C287 0.930 . S
H259 C279 0.931 . S
O260 Co236 2.097 . S
O260 C288 1.214 . S
H261 C289 0.929 . S
H262 C290 0.929 . S
H263 C291 0.930 . S
H264 C292 0.929 . S
H265 C294 0.930 . S
H266 C271 0.930 . S
H267 C275 0.930 . S
O268 Co237 2.037 . S
O268 C288 1.234 . S
C269 O243 1.269 . S
C269 O244 1.257 . S
C270 H245 0.930 . S
C270 C273 1.388 . S
C270 C275 1.418 . S
C271 H266 0.930 . S
C271 C274 1.404 . S
C271 C275 1.353 . S
N272 Co237 2.145 . S
N272 C273 1.397 . S
N272 C274 1.334 . S
C273 H254 0.929 . S
C273 C270 1.388 . S
C273 N272 1.397 . S
C274 H255 0.929 . S
C274 C271 1.404 . S
C274 N272 1.334 . S
C275 H267 0.930 . S
C275 C270 1.418 . S
C275 C271 1.353 . S
C276 H246 0.930 . S
C276 N277 1.330 . S
C276 C278 1.446 . S
N277 Co236 2.151 . S
N277 C276 1.330 . S
N277 C281 1.418 . S
C278 H257 0.929 . S
C278 C276 1.446 . S
C278 C279 1.332 . S
C279 H259 0.931 . S
C279 C278 1.332 . S
C279 C280 1.267 . S
C280 H248 0.929 . S
C280 C279 1.267 . S
C280 C281 1.251 . S
C281 H251 0.929 . S
C281 N277 1.418 . S
C281 C280 1.251 . S
C282 H249 0.930 . S
C282 C284 1.406 . S
C282 C287 1.261 . S
C283 H250 0.930 . S
C283 N285 1.325 . S
C283 C286 1.357 . S
C284 H252 0.928 . S
C284 C282 1.406 . S
C284 N285 1.261 . S
N285 Co236 2.214 . S
N285 C283 1.325 . S
N285 C284 1.261 . S
C286 H256 0.931 . S
C286 C283 1.357 . S
C286 C287 1.312 . S
C287 H258 0.930 . S
C287 C282 1.261 . S
C287 C286 1.312 . S
C288 O260 1.214 . S
C288 O268 1.234 . S
C289 H261 0.929 . S
C289 C292 1.391 . S
C289 C294 1.391 . S
C290 H262 0.929 . S
C290 C291 1.390 . S
C290 N293 1.391 . S
C291 H263 0.930 . S
C291 C290 1.390 . S
C291 C292 1.392 . S
C292 H264 0.929 . S
C292 C289 1.391 . S
C292 C291 1.392 . S
N293 Co237 2.257 . S
N293 C290 1.391 . S
N293 C294 1.388 . S
C294 H265 0.930 . S
C294 C289 1.391 . S
C294 N293 1.388 . S
Co295 O297 2.143 . S
Co295 O303 2.074 . S
Co295 O306 2.093 . S
Co295 O319 2.097 . S
Co295 N336 2.151 . S
Co295 N344 2.214 . S
Co296 O297 2.160 . S
Co296 O302 2.058 . S
Co296 O312 2.057 . S
Co296 O327 2.037 . S
Co296 N331 2.145 1_455 S
Co296 N352 2.257 . S
O297 Co295 2.143 . S
O297 Co296 2.160 . S
C298 O299 1.278 . S
C298 O306 1.224 . S
O299 C298 1.278 . S
C300 O301 1.245 . S
C300 O312 1.232 . S
O301 C300 1.245 . S
O302 Co296 2.058 . S
O302 C328 1.269 . S
O303 Co295 2.074 . S
O303 C328 1.257 . S
H304 C329 0.930 . S
H305 C335 0.930 . S
O306 Co295 2.093 . S
O306 C298 1.224 . S
H307 C339 0.929 . S
H308 C341 0.930 . S
H309 C342 0.930 . S
H310 C340 0.929 . S
H311 C343 0.928 . S
O312 Co296 2.057 . S
O312 C300 1.232 . S
H313 C332 0.929 . S
H314 C333 0.929 . S
H315 C345 0.931 . S
H316 C337 0.929 . S
H317 C346 0.930 . S
H318 C338 0.931 . S
O319 Co295 2.097 . S
O319 C347 1.214 . S
H320 C348 0.929 . S
H321 C349 0.929 . S
H322 C350 0.930 . S
H323 C351 0.929 . S
H324 C353 0.930 . S
H325 C330 0.930 . S
H326 C334 0.930 . S
O327 Co296 2.037 . S
O327 C347 1.234 . S
C328 O302 1.269 . S
C328 O303 1.257 . S
C329 H304 0.930 . S
C329 C332 1.388 . S
C329 C334 1.418 . S
C330 H325 0.930 . S
C330 C333 1.404 . S
C330 C334 1.353 . S
N331 Co296 2.145 1_655 S
N331 C332 1.397 . S
N331 C333 1.334 . S
C332 H313 0.929 . S
C332 C329 1.388 . S
C332 N331 1.397 . S
C333 H314 0.929 . S
C333 C330 1.404 . S
C333 N331 1.334 . S
C334 H326 0.930 . S
C334 C329 1.418 . S
C334 C330 1.353 . S
C335 H305 0.930 . S
C335 N336 1.330 . S
C335 C337 1.446 . S
N336 Co295 2.151 . S
N336 C335 1.330 . S
N336 C340 1.418 . S
C337 H316 0.929 . S
C337 C335 1.446 . S
C337 C338 1.332 . S
C338 H318 0.931 . S
C338 C337 1.332 . S
C338 C339 1.267 . S
C339 H307 0.929 . S
C339 C338 1.267 . S
C339 C340 1.251 . S
C340 H310 0.929 . S
C340 N336 1.418 . S
C340 C339 1.251 . S
C341 H308 0.930 . S
C341 C343 1.406 . S
C341 C346 1.261 . S
C342 H309 0.930 . S
C342 N344 1.325 . S
C342 C345 1.357 . S
C343 H311 0.928 . S
C343 C341 1.406 . S
C343 N344 1.261 . S
N344 Co295 2.214 . S
N344 C342 1.325 . S
N344 C343 1.261 . S
C345 H315 0.931 . S
C345 C342 1.357 . S
C345 C346 1.312 . S
C346 H317 0.930 . S
C346 C341 1.261 . S
C346 C345 1.312 . S
C347 O319 1.214 . S
C347 O327 1.234 . S
C348 H320 0.929 . S
C348 C351 1.391 . S
C348 C353 1.391 . S
C349 H321 0.929 . S
C349 C350 1.390 . S
C349 N352 1.391 1_655 S
C350 H322 0.930 . S
C350 C349 1.390 . S
C350 C351 1.392 1_655 S
C351 H323 0.929 . S
C351 C348 1.391 . S
C351 C350 1.392 1_455 S
N352 Co296 2.257 . S
N352 C349 1.391 1_455 S
N352 C353 1.388 . S
C353 H324 0.930 . S
C353 C348 1.391 . S
C353 N352 1.388 . S
Co354 O356 2.143 . S
Co354 O362 2.074 . S
Co354 O365 2.093 . S
Co354 O378 2.097 . S
Co354 N395 2.151 . S
Co354 N403 2.214 . S
Co355 O356 2.160 . S
Co355 O361 2.058 . S
Co355 O371 2.057 . S
Co355 O386 2.037 . S
Co355 N390 2.145 1_655 S
Co355 N411 2.257 . S
O356 Co354 2.143 . S
O356 Co355 2.160 . S
C357 O358 1.278 . S
C357 O365 1.224 . S
O358 C357 1.278 . S
C359 O360 1.245 . S
C359 O371 1.232 . S
O360 C359 1.245 . S
O361 Co355 2.058 . S
O361 C387 1.269 . S
O362 Co354 2.074 . S
O362 C387 1.257 . S
H363 C388 0.930 . S
H364 C394 0.930 . S
O365 Co354 2.093 . S
O365 C357 1.224 . S
H366 C398 0.929 . S
H367 C400 0.930 . S
H368 C401 0.930 . S
H369 C399 0.929 . S
H370 C402 0.928 . S
O371 Co355 2.057 . S
O371 C359 1.232 . S
H372 C391 0.929 . S
H373 C392 0.929 . S
H374 C404 0.931 . S
H375 C396 0.929 . S
H376 C405 0.930 . S
H377 C397 0.931 . S
O378 Co354 2.097 . S
O378 C406 1.214 . S
H379 C407 0.929 . S
H380 C408 0.929 . S
H381 C409 0.930 . S
H382 C410 0.929 . S
H383 C412 0.930 . S
H384 C389 0.930 . S
H385 C393 0.930 . S
O386 Co355 2.037 . S
O386 C406 1.234 . S
C387 O361 1.269 . S
C387 O362 1.257 . S
C388 H363 0.930 . S
C388 C391 1.388 . S
C388 C393 1.418 . S
C389 H384 0.930 . S
C389 C392 1.404 . S
C389 C393 1.353 . S
N390 Co355 2.145 1_455 S
N390 C391 1.397 . S
N390 C392 1.334 . S
C391 H372 0.929 . S
C391 C388 1.388 . S
C391 N390 1.397 . S
C392 H373 0.929 . S
C392 C389 1.404 . S
C392 N390 1.334 . S
C393 H385 0.930 . S
C393 C388 1.418 . S
C393 C389 1.353 . S
C394 H364 0.930 . S
C394 N395 1.330 . S
C394 C396 1.446 . S
N395 Co354 2.151 . S
N395 C394 1.330 . S
N395 C399 1.418 . S
C396 H375 0.929 . S
C396 C394 1.446 . S
C396 C397 1.332 . S
C397 H377 0.931 . S
C397 C396 1.332 . S
C397 C398 1.267 . S
C398 H366 0.929 . S
C398 C397 1.267 . S
C398 C399 1.251 . S
C399 H369 0.929 . S
C399 N395 1.418 . S
C399 C398 1.251 . S
C400 H367 0.930 . S
C400 C402 1.406 . S
C400 C405 1.261 . S
C401 H368 0.930 . S
C401 N403 1.325 . S
C401 C404 1.357 . S
C402 H370 0.928 . S
C402 C400 1.406 . S
C402 N403 1.261 . S
N403 Co354 2.214 . S
N403 C401 1.325 . S
N403 C402 1.261 . S
C404 H374 0.931 . S
C404 C401 1.357 . S
C404 C405 1.312 . S
C405 H376 0.930 . S
C405 C400 1.261 . S
C405 C404 1.312 . S
C406 O378 1.214 . S
C406 O386 1.234 . S
C407 H379 0.929 . S
C407 C410 1.391 . S
C407 C412 1.391 . S
C408 H380 0.929 . S
C408 C409 1.390 . S
C408 N411 1.391 1_455 S
C409 H381 0.930 . S
C409 C408 1.390 . S
C409 C410 1.392 1_455 S
C410 H382 0.929 . S
C410 C407 1.391 . S
C410 C409 1.392 1_655 S
N411 Co355 2.257 . S
N411 C408 1.391 1_655 S
N411 C412 1.388 . S
C412 H383 0.930 . S
C412 C407 1.391 . S
C412 N411 1.388 . S
Co413 O415 2.143 . S
Co413 O421 2.074 . S
Co413 O424 2.093 . S
Co413 O437 2.097 . S
Co413 N454 2.151 . S
Co413 N462 2.214 . S
Co414 O415 2.160 . S
Co414 O420 2.058 . S
Co414 O430 2.057 . S
Co414 O445 2.037 . S
Co414 N449 2.145 1_565 S
Co414 N470 2.257 . S
O415 Co413 2.143 . S
O415 Co414 2.160 . S
C416 O417 1.278 . S
C416 O424 1.224 . S
O417 C416 1.278 . S
C418 O419 1.245 . S
C418 O430 1.232 . S
O419 C418 1.245 . S
O420 Co414 2.058 . S
O420 C446 1.269 . S
O421 Co413 2.074 . S
O421 C446 1.257 . S
H422 C447 0.930 . S
H423 C453 0.930 . S
O424 Co413 2.093 . S
O424 C416 1.224 . S
H425 C457 0.929 . S
H426 C459 0.930 . S
H427 C460 0.930 . S
H428 C458 0.929 . S
H429 C461 0.928 . S
O430 Co414 2.057 . S
O430 C418 1.232 . S
H431 C450 0.929 . S
H432 C451 0.929 . S
H433 C463 0.931 . S
H434 C455 0.929 . S
H435 C464 0.930 . S
H436 C456 0.931 . S
O437 Co413 2.097 . S
O437 C465 1.214 . S
H438 C466 0.929 . S
H439 C467 0.929 . S
H440 C468 0.930 . S
H441 C469 0.929 . S
H442 C471 0.930 . S
H443 C448 0.930 . S
H444 C452 0.930 . S
O445 Co414 2.037 . S
O445 C465 1.234 . S
C446 O420 1.269 . S
C446 O421 1.257 . S
C447 H422 0.930 . S
C447 C450 1.388 . S
C447 C452 1.418 . S
C448 H443 0.930 . S
C448 C451 1.404 . S
C448 C452 1.353 . S
N449 Co414 2.145 1_545 S
N449 C450 1.397 . S
N449 C451 1.334 . S
C450 H431 0.929 . S
C450 C447 1.388 . S
C450 N449 1.397 . S
C451 H432 0.929 . S
C451 C448 1.404 . S
C451 N449 1.334 . S
C452 H444 0.930 . S
C452 C447 1.418 . S
C452 C448 1.353 . S
C453 H423 0.930 . S
C453 N454 1.330 . S
C453 C455 1.446 . S
N454 Co413 2.151 . S
N454 C453 1.330 . S
N454 C458 1.418 . S
C455 H434 0.929 . S
C455 C453 1.446 . S
C455 C456 1.332 . S
C456 H436 0.931 . S
C456 C455 1.332 . S
C456 C457 1.267 . S
C457 H425 0.929 . S
C457 C456 1.267 . S
C457 C458 1.251 . S
C458 H428 0.929 . S
C458 N454 1.418 . S
C458 C457 1.251 . S
C459 H426 0.930 . S
C459 C461 1.406 . S
C459 C464 1.261 . S
C460 H427 0.930 . S
C460 N462 1.325 . S
C460 C463 1.357 . S
C461 H429 0.928 . S
C461 C459 1.406 . S
C461 N462 1.261 . S
N462 Co413 2.214 . S
N462 C460 1.325 . S
N462 C461 1.261 . S
C463 H433 0.931 . S
C463 C460 1.357 . S
C463 C464 1.312 . S
C464 H435 0.930 . S
C464 C459 1.261 . S
C464 C463 1.312 . S
C465 O437 1.214 . S
C465 O445 1.234 . S
C466 H438 0.929 . S
C466 C469 1.391 . S
C466 C471 1.391 . S
C467 H439 0.929 . S
C467 C468 1.390 . S
C467 N470 1.391 1_545 S
C468 H440 0.930 . S
C468 C467 1.390 . S
C468 C469 1.392 1_545 S
C469 H441 0.929 . S
C469 C466 1.391 . S
C469 C468 1.392 1_565 S
N470 Co414 2.257 . S
N470 C467 1.391 1_565 S
N470 C471 1.388 . S
C471 H442 0.930 . S
C471 C466 1.391 . S
C471 N470 1.388 . S
Co472 O474 2.143 . S
Co472 O480 2.074 . S
Co472 O483 2.093 . S
Co472 O496 2.097 . S
Co472 N513 2.151 . S
Co472 N521 2.214 . S
Co473 O474 2.160 . S
Co473 O479 2.058 . S
Co473 O489 2.057 . S
Co473 O504 2.037 . S
Co473 N508 2.145 . S
Co473 N529 2.257 . S
O474 Co472 2.143 . S
O474 Co473 2.160 . S
C475 O476 1.278 . S
C475 O483 1.224 . S
O476 C475 1.278 . S
C477 O478 1.245 . S
C477 O489 1.232 . S
O478 C477 1.245 . S
O479 Co473 2.058 . S
O479 C505 1.269 . S
O480 Co472 2.074 . S
O480 C505 1.257 . S
H481 C506 0.930 . S
H482 C512 0.930 . S
O483 Co472 2.093 . S
O483 C475 1.224 . S
H484 C516 0.929 . S
H485 C518 0.930 . S
H486 C519 0.930 . S
H487 C517 0.929 . S
H488 C520 0.928 . S
O489 Co473 2.057 . S
O489 C477 1.232 . S
H490 C509 0.929 . S
H491 C510 0.929 . S
H492 C522 0.931 . S
H493 C514 0.929 . S
H494 C523 0.930 . S
H495 C515 0.931 . S
O496 Co472 2.097 . S
O496 C524 1.214 . S
H497 C525 0.929 . S
H498 C526 0.929 . S
H499 C527 0.930 . S
H500 C528 0.929 . S
H501 C530 0.930 . S
H502 C507 0.930 . S
H503 C511 0.930 . S
O504 Co473 2.037 . S
O504 C524 1.234 . S
C505 O479 1.269 . S
C505 O480 1.257 . S
C506 H481 0.930 . S
C506 C509 1.388 . S
C506 C511 1.418 . S
C507 H502 0.930 . S
C507 C510 1.404 . S
C507 C511 1.353 . S
N508 Co473 2.145 . S
N508 C509 1.397 . S
N508 C510 1.334 . S
C509 H490 0.929 . S
C509 C506 1.388 . S
C509 N508 1.397 . S
C510 H491 0.929 . S
C510 C507 1.404 . S
C510 N508 1.334 . S
C511 H503 0.930 . S
C511 C506 1.418 . S
C511 C507 1.353 . S
C512 H482 0.930 . S
C512 N513 1.330 . S
C512 C514 1.446 . S
N513 Co472 2.151 . S
N513 C512 1.330 . S
N513 C517 1.418 . S
C514 H493 0.929 . S
C514 C512 1.446 . S
C514 C515 1.332 . S
C515 H495 0.931 . S
C515 C514 1.332 . S
C515 C516 1.267 . S
C516 H484 0.929 . S
C516 C515 1.267 . S
C516 C517 1.251 . S
C517 H487 0.929 . S
C517 N513 1.418 . S
C517 C516 1.251 . S
C518 H485 0.930 . S
C518 C520 1.406 . S
C518 C523 1.261 . S
C519 H486 0.930 . S
C519 N521 1.325 . S
C519 C522 1.357 . S
C520 H488 0.928 . S
C520 C518 1.406 . S
C520 N521 1.261 . S
N521 Co472 2.214 . S
N521 C519 1.325 . S
N521 C520 1.261 . S
C522 H492 0.931 . S
C522 C519 1.357 . S
C522 C523 1.312 . S
C523 H494 0.930 . S
C523 C518 1.261 . S
C523 C522 1.312 . S
C524 O496 1.214 . S
C524 O504 1.234 . S
C525 H497 0.929 . S
C525 C528 1.391 . S
C525 C530 1.391 . S
C526 H498 0.929 . S
C526 C527 1.390 . S
C526 N529 1.391 . S
C527 H499 0.930 . S
C527 C526 1.390 . S
C527 C528 1.392 . S
C528 H500 0.929 . S
C528 C525 1.391 . S
C528 C527 1.392 . S
N529 Co473 2.257 . S
N529 C526 1.391 . S
N529 C530 1.388 . S
C530 H501 0.930 . S
C530 C525 1.391 . S
C530 N529 1.388 . S
Co531 O533 2.143 . S
Co531 O539 2.074 . S
Co531 O542 2.093 . S
Co531 O555 2.097 . S
Co531 N572 2.151 . S
Co531 N580 2.214 . S
Co532 O533 2.160 . S
Co532 O538 2.058 . S
Co532 O548 2.057 . S
Co532 O563 2.037 . S
Co532 N567 2.145 1_455 S
Co532 N588 2.257 . S
O533 Co531 2.143 . S
O533 Co532 2.160 . S
C534 O535 1.278 . S
C534 O542 1.224 . S
O535 C534 1.278 . S
C536 O537 1.245 . S
C536 O548 1.232 . S
O537 C536 1.245 . S
O538 Co532 2.058 . S
O538 C564 1.269 . S
O539 Co531 2.074 . S
O539 C564 1.257 . S
H540 C565 0.930 . S
H541 C571 0.930 . S
O542 Co531 2.093 . S
O542 C534 1.224 . S
H543 C575 0.929 . S
H544 C577 0.930 . S
H545 C578 0.930 . S
H546 C576 0.929 . S
H547 C579 0.928 . S
O548 Co532 2.057 . S
O548 C536 1.232 . S
H549 C568 0.929 . S
H550 C569 0.929 . S
H551 C581 0.931 . S
H552 C573 0.929 . S
H553 C582 0.930 . S
H554 C574 0.931 . S
O555 Co531 2.097 . S
O555 C583 1.214 . S
H556 C584 0.929 . S
H557 C585 0.929 . S
H558 C586 0.930 . S
H559 C587 0.929 . S
H560 C589 0.930 . S
H561 C566 0.930 . S
H562 C570 0.930 . S
O563 Co532 2.037 . S
O563 C583 1.234 . S
C564 O538 1.269 . S
C564 O539 1.257 . S
C565 H540 0.930 . S
C565 C568 1.388 . S
C565 C570 1.418 . S
C566 H561 0.930 . S
C566 C569 1.404 . S
C566 C570 1.353 . S
N567 Co532 2.145 1_655 S
N567 C568 1.397 . S
N567 C569 1.334 . S
C568 H549 0.929 . S
C568 C565 1.388 . S
C568 N567 1.397 . S
C569 H550 0.929 . S
C569 C566 1.404 . S
C569 N567 1.334 . S
C570 H562 0.930 . S
C570 C565 1.418 . S
C570 C566 1.353 . S
C571 H541 0.930 . S
C571 N572 1.330 . S
C571 C573 1.446 . S
N572 Co531 2.151 . S
N572 C571 1.330 . S
N572 C576 1.418 . S
C573 H552 0.929 . S
C573 C571 1.446 . S
C573 C574 1.332 . S
C574 H554 0.931 . S
C574 C573 1.332 . S
C574 C575 1.267 . S
C575 H543 0.929 . S
C575 C574 1.267 . S
C575 C576 1.251 . S
C576 H546 0.929 . S
C576 N572 1.418 . S
C576 C575 1.251 . S
C577 H544 0.930 . S
C577 C579 1.406 . S
C577 C582 1.261 . S
C578 H545 0.930 . S
C578 N580 1.325 . S
C578 C581 1.357 . S
C579 H547 0.928 . S
C579 C577 1.406 . S
C579 N580 1.261 . S
N580 Co531 2.214 . S
N580 C578 1.325 . S
N580 C579 1.261 . S
C581 H551 0.931 . S
C581 C578 1.357 . S
C581 C582 1.312 . S
C582 H553 0.930 . S
C582 C577 1.261 . S
C582 C581 1.312 . S
C583 O555 1.214 . S
C583 O563 1.234 . S
C584 H556 0.929 . S
C584 C587 1.391 . S
C584 C589 1.391 . S
C585 H557 0.929 . S
C585 C586 1.390 . S
C585 N588 1.391 1_655 S
C586 H558 0.930 . S
C586 C585 1.390 . S
C586 C587 1.392 1_655 S
C587 H559 0.929 . S
C587 C584 1.391 . S
C587 C586 1.392 1_455 S
N588 Co532 2.257 . S
N588 C585 1.391 1_455 S
N588 C589 1.388 . S
C589 H560 0.930 . S
C589 C584 1.391 . S
C589 N588 1.388 . S
Co590 O592 2.143 . S
Co590 O598 2.074 . S
Co590 O601 2.093 . S
Co590 O614 2.097 . S
Co590 N631 2.151 . S
Co590 N639 2.214 . S
Co591 O592 2.160 . S
Co591 O597 2.058 . S
Co591 O607 2.057 . S
Co591 O622 2.037 . S
Co591 N626 2.145 1_545 S
Co591 N647 2.257 . S
O592 Co590 2.143 . S
O592 Co591 2.160 . S
C593 O594 1.278 . S
C593 O601 1.224 . S
O594 C593 1.278 . S
C595 O596 1.245 . S
C595 O607 1.232 . S
O596 C595 1.245 . S
O597 Co591 2.058 . S
O597 C623 1.269 . S
O598 Co590 2.074 . S
O598 C623 1.257 . S
H599 C624 0.930 . S
H600 C630 0.930 . S
O601 Co590 2.093 . S
O601 C593 1.224 . S
H602 C634 0.929 . S
H603 C636 0.930 . S
H604 C637 0.930 . S
H605 C635 0.929 . S
H606 C638 0.928 . S
O607 Co591 2.057 . S
O607 C595 1.232 . S
H608 C627 0.929 . S
H609 C628 0.929 . S
H610 C640 0.931 . S
H611 C632 0.929 . S
H612 C641 0.930 . S
H613 C633 0.931 . S
O614 Co590 2.097 . S
O614 C642 1.214 . S
H615 C643 0.929 . S
H616 C644 0.929 . S
H617 C645 0.930 . S
H618 C646 0.929 . S
H619 C648 0.930 . S
H620 C625 0.930 . S
H621 C629 0.930 . S
O622 Co591 2.037 . S
O622 C642 1.234 . S
C623 O597 1.269 . S
C623 O598 1.257 . S
C624 H599 0.930 . S
C624 C627 1.388 . S
C624 C629 1.418 . S
C625 H620 0.930 . S
C625 C628 1.404 . S
C625 C629 1.353 . S
N626 Co591 2.145 1_565 S
N626 C627 1.397 . S
N626 C628 1.334 . S
C627 H608 0.929 . S
C627 C624 1.388 . S
C627 N626 1.397 . S
C628 H609 0.929 . S
C628 C625 1.404 . S
C628 N626 1.334 . S
C629 H621 0.930 . S
C629 C624 1.418 . S
C629 C625 1.353 . S
C630 H600 0.930 . S
C630 N631 1.330 . S
C630 C632 1.446 . S
N631 Co590 2.151 . S
N631 C630 1.330 . S
N631 C635 1.418 . S
C632 H611 0.929 . S
C632 C630 1.446 . S
C632 C633 1.332 . S
C633 H613 0.931 . S
C633 C632 1.332 . S
C633 C634 1.267 . S
C634 H602 0.929 . S
C634 C633 1.267 . S
C634 C635 1.251 . S
C635 H605 0.929 . S
C635 N631 1.418 . S
C635 C634 1.251 . S
C636 H603 0.930 . S
C636 C638 1.406 . S
C636 C641 1.261 . S
C637 H604 0.930 . S
C637 N639 1.325 . S
C637 C640 1.357 . S
C638 H606 0.928 . S
C638 C636 1.406 . S
C638 N639 1.261 . S
N639 Co590 2.214 . S
N639 C637 1.325 . S
N639 C638 1.261 . S
C640 H610 0.931 . S
C640 C637 1.357 . S
C640 C641 1.312 . S
C641 H612 0.930 . S
C641 C636 1.261 . S
C641 C640 1.312 . S
C642 O614 1.214 . S
C642 O622 1.234 . S
C643 H615 0.929 . S
C643 C646 1.391 . S
C643 C648 1.391 . S
C644 H616 0.929 . S
C644 C645 1.390 . S
C644 N647 1.391 1_565 S
C645 H617 0.930 . S
C645 C644 1.390 . S
C645 C646 1.392 1_565 S
C646 H618 0.929 . S
C646 C643 1.391 . S
C646 C645 1.392 1_545 S
N647 Co591 2.257 . S
N647 C644 1.391 1_545 S
N647 C648 1.388 . S
C648 H619 0.930 . S
C648 C643 1.391 . S
C648 N647 1.388 . S
Co649 O651 2.143 . S
Co649 O657 2.074 . S
Co649 O660 2.093 . S
Co649 O673 2.097 . S
Co649 N690 2.151 . S
Co649 N698 2.214 . S
Co650 O651 2.160 . S
Co650 O656 2.058 . S
Co650 O666 2.057 . S
Co650 O681 2.037 . S
Co650 N685 2.145 . S
Co650 N706 2.257 . S
O651 Co649 2.143 . S
O651 Co650 2.160 . S
C652 O653 1.278 . S
C652 O660 1.224 . S
O653 C652 1.278 . S
C654 O655 1.245 . S
C654 O666 1.232 . S
O655 C654 1.245 . S
O656 Co650 2.058 . S
O656 C682 1.269 . S
O657 Co649 2.074 . S
O657 C682 1.257 . S
H658 C683 0.930 . S
H659 C689 0.930 . S
O660 Co649 2.093 . S
O660 C652 1.224 . S
H661 C693 0.929 . S
H662 C695 0.930 . S
H663 C696 0.930 . S
H664 C694 0.929 . S
H665 C697 0.928 . S
O666 Co650 2.057 . S
O666 C654 1.232 . S
H667 C686 0.929 . S
H668 C687 0.929 . S
H669 C699 0.931 . S
H670 C691 0.929 . S
H671 C700 0.930 . S
H672 C692 0.931 . S
O673 Co649 2.097 . S
O673 C701 1.214 . S
H674 C702 0.929 . S
H675 C703 0.929 . S
H676 C704 0.930 . S
H677 C705 0.929 . S
H678 C707 0.930 . S
H679 C684 0.930 . S
H680 C688 0.930 . S
O681 Co650 2.037 . S
O681 C701 1.234 . S
C682 O656 1.269 . S
C682 O657 1.257 . S
C683 H658 0.930 . S
C683 C686 1.388 . S
C683 C688 1.418 . S
C684 H679 0.930 . S
C684 C687 1.404 . S
C684 C688 1.353 . S
N685 Co650 2.145 . S
N685 C686 1.397 . S
N685 C687 1.334 . S
C686 H667 0.929 . S
C686 C683 1.388 . S
C686 N685 1.397 . S
C687 H668 0.929 . S
C687 C684 1.404 . S
C687 N685 1.334 . S
C688 H680 0.930 . S
C688 C683 1.418 . S
C688 C684 1.353 . S
C689 H659 0.930 . S
C689 N690 1.330 . S
C689 C691 1.446 . S
N690 Co649 2.151 . S
N690 C689 1.330 . S
N690 C694 1.418 . S
C691 H670 0.929 . S
C691 C689 1.446 . S
C691 C692 1.332 . S
C692 H672 0.931 . S
C692 C691 1.332 . S
C692 C693 1.267 . S
C693 H661 0.929 . S
C693 C692 1.267 . S
C693 C694 1.251 . S
C694 H664 0.929 . S
C694 N690 1.418 . S
C694 C693 1.251 . S
C695 H662 0.930 . S
C695 C697 1.406 . S
C695 C700 1.261 . S
C696 H663 0.930 . S
C696 N698 1.325 . S
C696 C699 1.357 . S
C697 H665 0.928 . S
C697 C695 1.406 . S
C697 N698 1.261 . S
N698 Co649 2.214 . S
N698 C696 1.325 . S
N698 C697 1.261 . S
C699 H669 0.931 . S
C699 C696 1.357 . S
C699 C700 1.312 . S
C700 H671 0.930 . S
C700 C695 1.261 . S
C700 C699 1.312 . S
C701 O673 1.214 . S
C701 O681 1.234 . S
C702 H674 0.929 . S
C702 C705 1.391 . S
C702 C707 1.391 . S
C703 H675 0.929 . S
C703 C704 1.390 . S
C703 N706 1.391 . S
C704 H676 0.930 . S
C704 C703 1.390 . S
C704 C705 1.392 . S
C705 H677 0.929 . S
C705 C702 1.391 . S
C705 C704 1.392 . S
N706 Co650 2.257 . S
N706 C703 1.391 . S
N706 C707 1.388 . S
C707 H678 0.930 . S
C707 C702 1.391 . S
C707 N706 1.388 . S
Co708 O710 2.143 . S
Co708 O716 2.074 . S
Co708 O719 2.093 . S
Co708 O732 2.097 . S
Co708 N749 2.151 . S
Co708 N757 2.214 . S
Co709 O710 2.160 . S
Co709 O715 2.058 . S
Co709 O725 2.057 . S
Co709 O740 2.037 . S
Co709 N744 2.145 1_565 S
Co709 N765 2.257 . S
O710 Co708 2.143 . S
O710 Co709 2.160 . S
C711 O712 1.278 . S
C711 O719 1.224 . S
O712 C711 1.278 . S
C713 O714 1.245 . S
C713 O725 1.232 . S
O714 C713 1.245 . S
O715 Co709 2.058 . S
O715 C741 1.269 . S
O716 Co708 2.074 . S
O716 C741 1.257 . S
H717 C742 0.930 . S
H718 C748 0.930 . S
O719 Co708 2.093 . S
O719 C711 1.224 . S
H720 C752 0.929 . S
H721 C754 0.930 . S
H722 C755 0.930 . S
H723 C753 0.929 . S
H724 C756 0.928 . S
O725 Co709 2.057 . S
O725 C713 1.232 . S
H726 C745 0.929 . S
H727 C746 0.929 . S
H728 C758 0.931 . S
H729 C750 0.929 . S
H730 C759 0.930 . S
H731 C751 0.931 . S
O732 Co708 2.097 . S
O732 C760 1.214 . S
H733 C761 0.929 . S
H734 C762 0.929 . S
H735 C763 0.930 . S
H736 C764 0.929 . S
H737 C766 0.930 . S
H738 C743 0.930 . S
H739 C747 0.930 . S
O740 Co709 2.037 . S
O740 C760 1.234 . S
C741 O715 1.269 . S
C741 O716 1.257 . S
C742 H717 0.930 . S
C742 C745 1.388 . S
C742 C747 1.418 . S
C743 H738 0.930 . S
C743 C746 1.404 . S
C743 C747 1.353 . S
N744 Co709 2.145 1_545 S
N744 C745 1.397 . S
N744 C746 1.334 . S
C745 H726 0.929 . S
C745 C742 1.388 . S
C745 N744 1.397 . S
C746 H727 0.929 . S
C746 C743 1.404 . S
C746 N744 1.334 . S
C747 H739 0.930 . S
C747 C742 1.418 . S
C747 C743 1.353 . S
C748 H718 0.930 . S
C748 N749 1.330 . S
C748 C750 1.446 . S
N749 Co708 2.151 . S
N749 C748 1.330 . S
N749 C753 1.418 . S
C750 H729 0.929 . S
C750 C748 1.446 . S
C750 C751 1.332 . S
C751 H731 0.931 . S
C751 C750 1.332 . S
C751 C752 1.267 . S
C752 H720 0.929 . S
C752 C751 1.267 . S
C752 C753 1.251 . S
C753 H723 0.929 . S
C753 N749 1.418 . S
C753 C752 1.251 . S
C754 H721 0.930 . S
C754 C756 1.406 . S
C754 C759 1.261 . S
C755 H722 0.930 . S
C755 N757 1.325 . S
C755 C758 1.357 . S
C756 H724 0.928 . S
C756 C754 1.406 . S
C756 N757 1.261 . S
N757 Co708 2.214 . S
N757 C755 1.325 . S
N757 C756 1.261 . S
C758 H728 0.931 . S
C758 C755 1.357 . S
C758 C759 1.312 . S
C759 H730 0.930 . S
C759 C754 1.261 . S
C759 C758 1.312 . S
C760 O732 1.214 . S
C760 O740 1.234 . S
C761 H733 0.929 . S
C761 C764 1.391 . S
C761 C766 1.391 . S
C762 H734 0.929 . S
C762 C763 1.390 . S
C762 N765 1.391 1_545 S
C763 H735 0.930 . S
C763 C762 1.390 . S
C763 C764 1.392 1_545 S
C764 H736 0.929 . S
C764 C761 1.391 . S
C764 C763 1.392 1_565 S
N765 Co709 2.257 . S
N765 C762 1.391 1_565 S
N765 C766 1.388 . S
C766 H737 0.930 . S
C766 C761 1.391 . S
C766 N765 1.388 . S
Co767 O769 2.143 . S
Co767 O775 2.074 . S
Co767 O778 2.093 . S
Co767 O791 2.097 . S
Co767 N808 2.151 . S
Co767 N816 2.214 . S
Co768 O769 2.160 . S
Co768 O774 2.058 . S
Co768 O784 2.057 . S
Co768 O799 2.037 . S
Co768 N803 2.145 . S
Co768 N824 2.257 . S
O769 Co767 2.143 . S
O769 Co768 2.160 . S
C770 O771 1.278 . S
C770 O778 1.224 . S
O771 C770 1.278 . S
C772 O773 1.245 . S
C772 O784 1.232 . S
O773 C772 1.245 . S
O774 Co768 2.058 . S
O774 C800 1.269 . S
O775 Co767 2.074 . S
O775 C800 1.257 . S
H776 C801 0.930 . S
H777 C807 0.930 . S
O778 Co767 2.093 . S
O778 C770 1.224 . S
H779 C811 0.929 . S
H780 C813 0.930 . S
H781 C814 0.930 . S
H782 C812 0.929 . S
H783 C815 0.928 . S
O784 Co768 2.057 . S
O784 C772 1.232 . S
H785 C804 0.929 . S
H786 C805 0.929 . S
H787 C817 0.931 . S
H788 C809 0.929 . S
H789 C818 0.930 . S
H790 C810 0.931 . S
O791 Co767 2.097 . S
O791 C819 1.214 . S
H792 C820 0.929 . S
H793 C821 0.929 . S
H794 C822 0.930 . S
H795 C823 0.929 . S
H796 C825 0.930 . S
H797 C802 0.930 . S
H798 C806 0.930 . S
O799 Co768 2.037 . S
O799 C819 1.234 . S
C800 O774 1.269 . S
C800 O775 1.257 . S
C801 H776 0.930 . S
C801 C804 1.388 . S
C801 C806 1.418 . S
C802 H797 0.930 . S
C802 C805 1.404 . S
C802 C806 1.353 . S
N803 Co768 2.145 . S
N803 C804 1.397 . S
N803 C805 1.334 . S
C804 H785 0.929 . S
C804 C801 1.388 . S
C804 N803 1.397 . S
C805 H786 0.929 . S
C805 C802 1.404 . S
C805 N803 1.334 . S
C806 H798 0.930 . S
C806 C801 1.418 . S
C806 C802 1.353 . S
C807 H777 0.930 . S
C807 N808 1.330 . S
C807 C809 1.446 . S
N808 Co767 2.151 . S
N808 C807 1.330 . S
N808 C812 1.418 . S
C809 H788 0.929 . S
C809 C807 1.446 . S
C809 C810 1.332 . S
C810 H790 0.931 . S
C810 C809 1.332 . S
C810 C811 1.267 . S
C811 H779 0.929 . S
C811 C810 1.267 . S
C811 C812 1.251 . S
C812 H782 0.929 . S
C812 N808 1.418 . S
C812 C811 1.251 . S
C813 H780 0.930 . S
C813 C815 1.406 . S
C813 C818 1.261 . S
C814 H781 0.930 . S
C814 N816 1.325 . S
C814 C817 1.357 . S
C815 H783 0.928 . S
C815 C813 1.406 . S
C815 N816 1.261 . S
N816 Co767 2.214 . S
N816 C814 1.325 . S
N816 C815 1.261 . S
C817 H787 0.931 . S
C817 C814 1.357 . S
C817 C818 1.312 . S
C818 H789 0.930 . S
C818 C813 1.261 . S
C818 C817 1.312 . S
C819 O791 1.214 . S
C819 O799 1.234 . S
C820 H792 0.929 . S
C820 C823 1.391 . S
C820 C825 1.391 . S
C821 H793 0.929 . S
C821 C822 1.390 . S
C821 N824 1.391 . S
C822 H794 0.930 . S
C822 C821 1.390 . S
C822 C823 1.392 . S
C823 H795 0.929 . S
C823 C820 1.391 . S
C823 C822 1.392 . S
N824 Co768 2.257 . S
N824 C821 1.391 . S
N824 C825 1.388 . S
C825 H796 0.930 . S
C825 C820 1.391 . S
C825 N824 1.388 . S
Co826 O828 2.143 . S
Co826 O834 2.074 . S
Co826 O837 2.093 . S
Co826 O850 2.097 . S
Co826 N867 2.151 . S
Co826 N875 2.214 . S
Co827 O828 2.160 . S
Co827 O833 2.058 . S
Co827 O843 2.057 . S
Co827 O858 2.037 . S
Co827 N862 2.145 1_455 S
Co827 N883 2.257 . S
O828 Co826 2.143 . S
O828 Co827 2.160 . S
C829 O830 1.278 . S
C829 O837 1.224 . S
O830 C829 1.278 . S
C831 O832 1.245 . S
C831 O843 1.232 . S
O832 C831 1.245 . S
O833 Co827 2.058 . S
O833 C859 1.269 . S
O834 Co826 2.074 . S
O834 C859 1.257 . S
H835 C860 0.930 . S
H836 C866 0.930 . S
O837 Co826 2.093 . S
O837 C829 1.224 . S
H838 C870 0.929 . S
H839 C872 0.930 . S
H840 C873 0.930 . S
H841 C871 0.929 . S
H842 C874 0.928 . S
O843 Co827 2.057 . S
O843 C831 1.232 . S
H844 C863 0.929 . S
H845 C864 0.929 . S
H846 C876 0.931 . S
H847 C868 0.929 . S
H848 C877 0.930 . S
H849 C869 0.931 . S
O850 Co826 2.097 . S
O850 C878 1.214 . S
H851 C879 0.929 . S
H852 C880 0.929 . S
H853 C881 0.930 . S
H854 C882 0.929 . S
H855 C884 0.930 . S
H856 C861 0.930 . S
H857 C865 0.930 . S
O858 Co827 2.037 . S
O858 C878 1.234 . S
C859 O833 1.269 . S
C859 O834 1.257 . S
C860 H835 0.930 . S
C860 C863 1.388 . S
C860 C865 1.418 . S
C861 H856 0.930 . S
C861 C864 1.404 . S
C861 C865 1.353 . S
N862 Co827 2.145 1_655 S
N862 C863 1.397 . S
N862 C864 1.334 . S
C863 H844 0.929 . S
C863 C860 1.388 . S
C863 N862 1.397 . S
C864 H845 0.929 . S
C864 C861 1.404 . S
C864 N862 1.334 . S
C865 H857 0.930 . S
C865 C860 1.418 . S
C865 C861 1.353 . S
C866 H836 0.930 . S
C866 N867 1.330 . S
C866 C868 1.446 . S
N867 Co826 2.151 . S
N867 C866 1.330 . S
N867 C871 1.418 . S
C868 H847 0.929 . S
C868 C866 1.446 . S
C868 C869 1.332 . S
C869 H849 0.931 . S
C869 C868 1.332 . S
C869 C870 1.267 . S
C870 H838 0.929 . S
C870 C869 1.267 . S
C870 C871 1.251 . S
C871 H841 0.929 . S
C871 N867 1.418 . S
C871 C870 1.251 . S
C872 H839 0.930 . S
C872 C874 1.406 . S
C872 C877 1.261 . S
C873 H840 0.930 . S
C873 N875 1.325 . S
C873 C876 1.357 . S
C874 H842 0.928 . S
C874 C872 1.406 . S
C874 N875 1.261 . S
N875 Co826 2.214 . S
N875 C873 1.325 . S
N875 C874 1.261 . S
C876 H846 0.931 . S
C876 C873 1.357 . S
C876 C877 1.312 . S
C877 H848 0.930 . S
C877 C872 1.261 . S
C877 C876 1.312 . S
C878 O850 1.214 . S
C878 O858 1.234 . S
C879 H851 0.929 . S
C879 C882 1.391 . S
C879 C884 1.391 . S
C880 H852 0.929 . S
C880 C881 1.390 . S
C880 N883 1.391 1_655 S
C881 H853 0.930 . S
C881 C880 1.390 . S
C881 C882 1.392 1_655 S
C882 H854 0.929 . S
C882 C879 1.391 . S
C882 C881 1.392 1_455 S
N883 Co827 2.257 . S
N883 C880 1.391 1_455 S
N883 C884 1.388 . S
C884 H855 0.930 . S
C884 C879 1.391 . S
C884 N883 1.388 . S
Co885 O887 2.143 . S
Co885 O893 2.074 . S
Co885 O896 2.093 . S
Co885 O909 2.097 . S
Co885 N926 2.151 . S
Co885 N934 2.214 . S
Co886 O887 2.160 . S
Co886 O892 2.058 . S
Co886 O902 2.057 . S
Co886 O917 2.037 . S
Co886 N921 2.145 1_545 S
Co886 N942 2.257 . S
O887 Co885 2.143 . S
O887 Co886 2.160 . S
C888 O889 1.278 . S
C888 O896 1.224 . S
O889 C888 1.278 . S
C890 O891 1.245 . S
C890 O902 1.232 . S
O891 C890 1.245 . S
O892 Co886 2.058 . S
O892 C918 1.269 . S
O893 Co885 2.074 . S
O893 C918 1.257 . S
H894 C919 0.930 . S
H895 C925 0.930 . S
O896 Co885 2.093 . S
O896 C888 1.224 . S
H897 C929 0.929 . S
H898 C931 0.930 . S
H899 C932 0.930 . S
H900 C930 0.929 . S
H901 C933 0.928 . S
O902 Co886 2.057 . S
O902 C890 1.232 . S
H903 C922 0.929 . S
H904 C923 0.929 . S
H905 C935 0.931 . S
H906 C927 0.929 . S
H907 C936 0.930 . S
H908 C928 0.931 . S
O909 Co885 2.097 . S
O909 C937 1.214 . S
H910 C938 0.929 . S
H911 C939 0.929 . S
H912 C940 0.930 . S
H913 C941 0.929 . S
H914 C943 0.930 . S
H915 C920 0.930 . S
H916 C924 0.930 . S
O917 Co886 2.037 . S
O917 C937 1.234 . S
C918 O892 1.269 . S
C918 O893 1.257 . S
C919 H894 0.930 . S
C919 C922 1.388 . S
C919 C924 1.418 . S
C920 H915 0.930 . S
C920 C923 1.404 . S
C920 C924 1.353 . S
N921 Co886 2.145 1_565 S
N921 C922 1.397 . S
N921 C923 1.334 . S
C922 H903 0.929 . S
C922 C919 1.388 . S
C922 N921 1.397 . S
C923 H904 0.929 . S
C923 C920 1.404 . S
C923 N921 1.334 . S
C924 H916 0.930 . S
C924 C919 1.418 . S
C924 C920 1.353 . S
C925 H895 0.930 . S
C925 N926 1.330 . S
C925 C927 1.446 . S
N926 Co885 2.151 . S
N926 C925 1.330 . S
N926 C930 1.418 . S
C927 H906 0.929 . S
C927 C925 1.446 . S
C927 C928 1.332 . S
C928 H908 0.931 . S
C928 C927 1.332 . S
C928 C929 1.267 . S
C929 H897 0.929 . S
C929 C928 1.267 . S
C929 C930 1.251 . S
C930 H900 0.929 . S
C930 N926 1.418 . S
C930 C929 1.251 . S
C931 H898 0.930 . S
C931 C933 1.406 . S
C931 C936 1.261 . S
C932 H899 0.930 . S
C932 N934 1.325 . S
C932 C935 1.357 . S
C933 H901 0.928 . S
C933 C931 1.406 . S
C933 N934 1.261 . S
N934 Co885 2.214 . S
N934 C932 1.325 . S
N934 C933 1.261 . S
C935 H905 0.931 . S
C935 C932 1.357 . S
C935 C936 1.312 . S
C936 H907 0.930 . S
C936 C931 1.261 . S
C936 C935 1.312 . S
C937 O909 1.214 . S
C937 O917 1.234 . S
C938 H910 0.929 . S
C938 C941 1.391 . S
C938 C943 1.391 . S
C939 H911 0.929 . S
C939 C940 1.390 . S
C939 N942 1.391 1_565 S
C940 H912 0.930 . S
C940 C939 1.390 . S
C940 C941 1.392 1_565 S
C941 H913 0.929 . S
C941 C938 1.391 . S
C941 C940 1.392 1_545 S
N942 Co886 2.257 . S
N942 C939 1.391 1_545 S
N942 C943 1.388 . S
C943 H914 0.930 . S
C943 C938 1.391 . S
C943 N942 1.388 . S
Co944 O946 2.143 . S
Co944 O952 2.074 . S
Co944 O955 2.093 . S
Co944 O968 2.097 . S
Co944 N985 2.151 . S
Co944 N993 2.214 . S
Co945 O946 2.160 . S
Co945 O951 2.058 . S
Co945 O961 2.057 . S
Co945 O976 2.037 . S
Co945 N980 2.145 . S
Co945 N1001 2.257 . S
O946 Co944 2.143 . S
O946 Co945 2.160 . S
C947 O948 1.278 . S
C947 O955 1.224 . S
O948 C947 1.278 . S
C949 O950 1.245 . S
C949 O961 1.232 . S
O950 C949 1.245 . S
O951 Co945 2.058 . S
O951 C977 1.269 . S
O952 Co944 2.074 . S
O952 C977 1.257 . S
H953 C978 0.930 . S
H954 C984 0.930 . S
O955 Co944 2.093 . S
O955 C947 1.224 . S
H956 C988 0.929 . S
H957 C990 0.930 . S
H958 C991 0.930 . S
H959 C989 0.929 . S
H960 C992 0.928 . S
O961 Co945 2.057 . S
O961 C949 1.232 . S
H962 C981 0.929 . S
H963 C982 0.929 . S
H964 C994 0.931 . S
H965 C986 0.929 . S
H966 C995 0.930 . S
H967 C987 0.931 . S
O968 Co944 2.097 . S
O968 C996 1.214 . S
H969 C997 0.929 . S
H970 C998 0.929 . S
H971 C999 0.930 . S
H972 C1000 0.929 . S
H973 C1002 0.930 . S
H974 C979 0.930 . S
H975 C983 0.930 . S
O976 Co945 2.037 . S
O976 C996 1.234 . S
C977 O951 1.269 . S
C977 O952 1.257 . S
C978 H953 0.930 . S
C978 C981 1.388 . S
C978 C983 1.418 . S
C979 H974 0.930 . S
C979 C982 1.404 . S
C979 C983 1.353 . S
N980 Co945 2.145 . S
N980 C981 1.397 . S
N980 C982 1.334 . S
C981 H962 0.929 . S
C981 C978 1.388 . S
C981 N980 1.397 . S
C982 H963 0.929 . S
C982 C979 1.404 . S
C982 N980 1.334 . S
C983 H975 0.930 . S
C983 C978 1.418 . S
C983 C979 1.353 . S
C984 H954 0.930 . S
C984 N985 1.330 . S
C984 C986 1.446 . S
N985 Co944 2.151 . S
N985 C984 1.330 . S
N985 C989 1.418 . S
C986 H965 0.929 . S
C986 C984 1.446 . S
C986 C987 1.332 . S
C987 H967 0.931 . S
C987 C986 1.332 . S
C987 C988 1.267 . S
C988 H956 0.929 . S
C988 C987 1.267 . S
C988 C989 1.251 . S
C989 H959 0.929 . S
C989 N985 1.418 . S
C989 C988 1.251 . S
C990 H957 0.930 . S
C990 C992 1.406 . S
C990 C995 1.261 . S
C991 H958 0.930 . S
C991 N993 1.325 . S
C991 C994 1.357 . S
C992 H960 0.928 . S
C992 C990 1.406 . S
C992 N993 1.261 . S
N993 Co944 2.214 . S
N993 C991 1.325 . S
N993 C992 1.261 . S
C994 H964 0.931 . S
C994 C991 1.357 . S
C994 C995 1.312 . S
C995 H966 0.930 . S
C995 C990 1.261 . S
C995 C994 1.312 . S
C996 O968 1.214 . S
C996 O976 1.234 . S
C997 H969 0.929 . S
C997 C1000 1.391 . S
C997 C1002 1.391 . S
C998 H970 0.929 . S
C998 C999 1.390 . S
C998 N1001 1.391 . S
C999 H971 0.930 . S
C999 C998 1.390 . S
C999 C1000 1.392 . S
C1000 H972 0.929 . S
C1000 C997 1.391 . S
C1000 C999 1.392 . S
N1001 Co945 2.257 . S
N1001 C998 1.391 . S
N1001 C1002 1.388 . S
C1002 H973 0.930 . S
C1002 C997 1.391 . S
C1002 N1001 1.388 . S
Co1003 O1005 2.143 . S
Co1003 O1011 2.074 . S
Co1003 O1014 2.093 . S
Co1003 O1027 2.097 . S
Co1003 N1044 2.151 . S
Co1003 N1052 2.214 . S
Co1004 O1005 2.160 . S
Co1004 O1010 2.058 . S
Co1004 O1020 2.057 . S
Co1004 O1035 2.037 . S
Co1004 N1039 2.145 1_655 S
Co1004 N1060 2.257 . S
O1005 Co1003 2.143 . S
O1005 Co1004 2.160 . S
C1006 O1007 1.278 . S
C1006 O1014 1.224 . S
O1007 C1006 1.278 . S
C1008 O1009 1.245 . S
C1008 O1020 1.232 . S
O1009 C1008 1.245 . S
O1010 Co1004 2.058 . S
O1010 C1036 1.269 . S
O1011 Co1003 2.074 . S
O1011 C1036 1.257 . S
H1012 C1037 0.930 . S
H1013 C1043 0.930 . S
O1014 Co1003 2.093 . S
O1014 C1006 1.224 . S
H1015 C1047 0.929 . S
H1016 C1049 0.930 . S
H1017 C1050 0.930 . S
H1018 C1048 0.929 . S
H1019 C1051 0.928 . S
O1020 Co1004 2.057 . S
O1020 C1008 1.232 . S
H1021 C1040 0.929 . S
H1022 C1041 0.929 . S
H1023 C1053 0.931 . S
H1024 C1045 0.929 . S
H1025 C1054 0.930 . S
H1026 C1046 0.931 . S
O1027 Co1003 2.097 . S
O1027 C1055 1.214 . S
H1028 C1056 0.929 . S
H1029 C1057 0.929 . S
H1030 C1058 0.930 . S
H1031 C1059 0.929 . S
H1032 C1061 0.930 . S
H1033 C1038 0.930 . S
H1034 C1042 0.930 . S
O1035 Co1004 2.037 . S
O1035 C1055 1.234 . S
C1036 O1010 1.269 . S
C1036 O1011 1.257 . S
C1037 H1012 0.930 . S
C1037 C1040 1.388 . S
C1037 C1042 1.418 . S
C1038 H1033 0.930 . S
C1038 C1041 1.404 . S
C1038 C1042 1.353 . S
N1039 Co1004 2.145 1_455 S
N1039 C1040 1.397 . S
N1039 C1041 1.334 . S
C1040 H1021 0.929 . S
C1040 C1037 1.388 . S
C1040 N1039 1.397 . S
C1041 H1022 0.929 . S
C1041 C1038 1.404 . S
C1041 N1039 1.334 . S
C1042 H1034 0.930 . S
C1042 C1037 1.418 . S
C1042 C1038 1.353 . S
C1043 H1013 0.930 . S
C1043 N1044 1.330 . S
C1043 C1045 1.446 . S
N1044 Co1003 2.151 . S
N1044 C1043 1.330 . S
N1044 C1048 1.418 . S
C1045 H1024 0.929 . S
C1045 C1043 1.446 . S
C1045 C1046 1.332 . S
C1046 H1026 0.931 . S
C1046 C1045 1.332 . S
C1046 C1047 1.267 . S
C1047 H1015 0.929 . S
C1047 C1046 1.267 . S
C1047 C1048 1.251 . S
C1048 H1018 0.929 . S
C1048 N1044 1.418 . S
C1048 C1047 1.251 . S
C1049 H1016 0.930 . S
C1049 C1051 1.406 . S
C1049 C1054 1.261 . S
C1050 H1017 0.930 . S
C1050 N1052 1.325 . S
C1050 C1053 1.357 . S
C1051 H1019 0.928 . S
C1051 C1049 1.406 . S
C1051 N1052 1.261 . S
N1052 Co1003 2.214 . S
N1052 C1050 1.325 . S
N1052 C1051 1.261 . S
C1053 H1023 0.931 . S
C1053 C1050 1.357 . S
C1053 C1054 1.312 . S
C1054 H1025 0.930 . S
C1054 C1049 1.261 . S
C1054 C1053 1.312 . S
C1055 O1027 1.214 . S
C1055 O1035 1.234 . S
C1056 H1028 0.929 . S
C1056 C1059 1.391 . S
C1056 C1061 1.391 . S
C1057 H1029 0.929 . S
C1057 C1058 1.390 . S
C1057 N1060 1.391 1_455 S
C1058 H1030 0.930 . S
C1058 C1057 1.390 . S
C1058 C1059 1.392 1_455 S
C1059 H1031 0.929 . S
C1059 C1056 1.391 . S
C1059 C1058 1.392 1_655 S
N1060 Co1004 2.257 . S
N1060 C1057 1.391 1_655 S
N1060 C1061 1.388 . S
C1061 H1032 0.930 . S
C1061 C1056 1.391 . S
C1061 N1060 1.388 . S
Co1062 O1064 2.143 . S
Co1062 O1070 2.074 . S
Co1062 O1073 2.093 . S
Co1062 O1086 2.097 . S
Co1062 N1103 2.151 . S
Co1062 N1111 2.214 . S
Co1063 O1064 2.160 . S
Co1063 O1069 2.058 . S
Co1063 O1079 2.057 . S
Co1063 O1094 2.037 . S
Co1063 N1098 2.145 1_455 S
Co1063 N1119 2.257 . S
O1064 Co1062 2.143 . S
O1064 Co1063 2.160 . S
C1065 O1066 1.278 . S
C1065 O1073 1.224 . S
O1066 C1065 1.278 . S
C1067 O1068 1.245 . S
C1067 O1079 1.232 . S
O1068 C1067 1.245 . S
O1069 Co1063 2.058 . S
O1069 C1095 1.269 . S
O1070 Co1062 2.074 . S
O1070 C1095 1.257 . S
H1071 C1096 0.930 . S
H1072 C1102 0.930 . S
O1073 Co1062 2.093 . S
O1073 C1065 1.224 . S
H1074 C1106 0.929 . S
H1075 C1108 0.930 . S
H1076 C1109 0.930 . S
H1077 C1107 0.929 . S
H1078 C1110 0.928 . S
O1079 Co1063 2.057 . S
O1079 C1067 1.232 . S
H1080 C1099 0.929 . S
H1081 C1100 0.929 . S
H1082 C1112 0.931 . S
H1083 C1104 0.929 . S
H1084 C1113 0.930 . S
H1085 C1105 0.931 . S
O1086 Co1062 2.097 . S
O1086 C1114 1.214 . S
H1087 C1115 0.929 . S
H1088 C1116 0.929 . S
H1089 C1117 0.930 . S
H1090 C1118 0.929 . S
H1091 C1120 0.930 . S
H1092 C1097 0.930 . S
H1093 C1101 0.930 . S
O1094 Co1063 2.037 . S
O1094 C1114 1.234 . S
C1095 O1069 1.269 . S
C1095 O1070 1.257 . S
C1096 H1071 0.930 . S
C1096 C1099 1.388 . S
C1096 C1101 1.418 . S
C1097 H1092 0.930 . S
C1097 C1100 1.404 . S
C1097 C1101 1.353 . S
N1098 Co1063 2.145 1_655 S
N1098 C1099 1.397 . S
N1098 C1100 1.334 . S
C1099 H1080 0.929 . S
C1099 C1096 1.388 . S
C1099 N1098 1.397 . S
C1100 H1081 0.929 . S
C1100 C1097 1.404 . S
C1100 N1098 1.334 . S
C1101 H1093 0.930 . S
C1101 C1096 1.418 . S
C1101 C1097 1.353 . S
C1102 H1072 0.930 . S
C1102 N1103 1.330 . S
C1102 C1104 1.446 . S
N1103 Co1062 2.151 . S
N1103 C1102 1.330 . S
N1103 C1107 1.418 . S
C1104 H1083 0.929 . S
C1104 C1102 1.446 . S
C1104 C1105 1.332 . S
C1105 H1085 0.931 . S
C1105 C1104 1.332 . S
C1105 C1106 1.267 . S
C1106 H1074 0.929 . S
C1106 C1105 1.267 . S
C1106 C1107 1.251 . S
C1107 H1077 0.929 . S
C1107 N1103 1.418 . S
C1107 C1106 1.251 . S
C1108 H1075 0.930 . S
C1108 C1110 1.406 . S
C1108 C1113 1.261 . S
C1109 H1076 0.930 . S
C1109 N1111 1.325 . S
C1109 C1112 1.357 . S
C1110 H1078 0.928 . S
C1110 C1108 1.406 . S
C1110 N1111 1.261 . S
N1111 Co1062 2.214 . S
N1111 C1109 1.325 . S
N1111 C1110 1.261 . S
C1112 H1082 0.931 . S
C1112 C1109 1.357 . S
C1112 C1113 1.312 . S
C1113 H1084 0.930 . S
C1113 C1108 1.261 . S
C1113 C1112 1.312 . S
C1114 O1086 1.214 . S
C1114 O1094 1.234 . S
C1115 H1087 0.929 . S
C1115 C1118 1.391 . S
C1115 C1120 1.391 . S
C1116 H1088 0.929 . S
C1116 C1117 1.390 . S
C1116 N1119 1.391 1_655 S
C1117 H1089 0.930 . S
C1117 C1116 1.390 . S
C1117 C1118 1.392 1_655 S
C1118 H1090 0.929 . S
C1118 C1115 1.391 . S
C1118 C1117 1.392 1_455 S
N1119 Co1063 2.257 . S
N1119 C1116 1.391 1_455 S
N1119 C1120 1.388 . S
C1120 H1091 0.930 . S
C1120 C1115 1.391 . S
C1120 N1119 1.388 . S
Co1121 O1123 2.143 . S
Co1121 O1129 2.074 . S
Co1121 O1132 2.093 . S
Co1121 O1145 2.097 . S
Co1121 N1162 2.151 . S
Co1121 N1170 2.214 . S
Co1122 O1123 2.160 . S
Co1122 O1128 2.058 . S
Co1122 O1138 2.057 . S
Co1122 O1153 2.037 . S
Co1122 N1157 2.145 1_545 S
Co1122 N1178 2.257 . S
O1123 Co1121 2.143 . S
O1123 Co1122 2.160 . S
C1124 O1125 1.278 . S
C1124 O1132 1.224 . S
O1125 C1124 1.278 . S
C1126 O1127 1.245 . S
C1126 O1138 1.232 . S
O1127 C1126 1.245 . S
O1128 Co1122 2.058 . S
O1128 C1154 1.269 . S
O1129 Co1121 2.074 . S
O1129 C1154 1.257 . S
H1130 C1155 0.930 . S
H1131 C1161 0.930 . S
O1132 Co1121 2.093 . S
O1132 C1124 1.224 . S
H1133 C1165 0.929 . S
H1134 C1167 0.930 . S
H1135 C1168 0.930 . S
H1136 C1166 0.929 . S
H1137 C1169 0.928 . S
O1138 Co1122 2.057 . S
O1138 C1126 1.232 . S
H1139 C1158 0.929 . S
H1140 C1159 0.929 . S
H1141 C1171 0.931 . S
H1142 C1163 0.929 . S
H1143 C1172 0.930 . S
H1144 C1164 0.931 . S
O1145 Co1121 2.097 . S
O1145 C1173 1.214 . S
H1146 C1174 0.929 . S
H1147 C1175 0.929 . S
H1148 C1176 0.930 . S
H1149 C1177 0.929 . S
H1150 C1179 0.930 . S
H1151 C1156 0.930 . S
H1152 C1160 0.930 . S
O1153 Co1122 2.037 . S
O1153 C1173 1.234 . S
C1154 O1128 1.269 . S
C1154 O1129 1.257 . S
C1155 H1130 0.930 . S
C1155 C1158 1.388 . S
C1155 C1160 1.418 . S
C1156 H1151 0.930 . S
C1156 C1159 1.404 . S
C1156 C1160 1.353 . S
N1157 Co1122 2.145 1_565 S
N1157 C1158 1.397 . S
N1157 C1159 1.334 . S
C1158 H1139 0.929 . S
C1158 C1155 1.388 . S
C1158 N1157 1.397 . S
C1159 H1140 0.929 . S
C1159 C1156 1.404 . S
C1159 N1157 1.334 . S
C1160 H1152 0.930 . S
C1160 C1155 1.418 . S
C1160 C1156 1.353 . S
C1161 H1131 0.930 . S
C1161 N1162 1.330 . S
C1161 C1163 1.446 . S
N1162 Co1121 2.151 . S
N1162 C1161 1.330 . S
N1162 C1166 1.418 . S
C1163 H1142 0.929 . S
C1163 C1161 1.446 . S
C1163 C1164 1.332 . S
C1164 H1144 0.931 . S
C1164 C1163 1.332 . S
C1164 C1165 1.267 . S
C1165 H1133 0.929 . S
C1165 C1164 1.267 . S
C1165 C1166 1.251 . S
C1166 H1136 0.929 . S
C1166 N1162 1.418 . S
C1166 C1165 1.251 . S
C1167 H1134 0.930 . S
C1167 C1169 1.406 . S
C1167 C1172 1.261 . S
C1168 H1135 0.930 . S
C1168 N1170 1.325 . S
C1168 C1171 1.357 . S
C1169 H1137 0.928 . S
C1169 C1167 1.406 . S
C1169 N1170 1.261 . S
N1170 Co1121 2.214 . S
N1170 C1168 1.325 . S
N1170 C1169 1.261 . S
C1171 H1141 0.931 . S
C1171 C1168 1.357 . S
C1171 C1172 1.312 . S
C1172 H1143 0.930 . S
C1172 C1167 1.261 . S
C1172 C1171 1.312 . S
C1173 O1145 1.214 . S
C1173 O1153 1.234 . S
C1174 H1146 0.929 . S
C1174 C1177 1.391 . S
C1174 C1179 1.391 . S
C1175 H1147 0.929 . S
C1175 C1176 1.390 . S
C1175 N1178 1.391 1_565 S
C1176 H1148 0.930 . S
C1176 C1175 1.390 . S
C1176 C1177 1.392 1_565 S
C1177 H1149 0.929 . S
C1177 C1174 1.391 . S
C1177 C1176 1.392 1_545 S
N1178 Co1122 2.257 . S
N1178 C1175 1.391 1_545 S
N1178 C1179 1.388 . S
C1179 H1150 0.930 . S
C1179 C1174 1.391 . S
C1179 N1178 1.388 . S
Co1180 O1182 2.143 . S
Co1180 O1188 2.074 . S
Co1180 O1191 2.093 . S
Co1180 O1204 2.097 . S
Co1180 N1221 2.151 . S
Co1180 N1229 2.214 . S
Co1181 O1182 2.160 . S
Co1181 O1187 2.058 . S
Co1181 O1197 2.057 . S
Co1181 O1212 2.037 . S
Co1181 N1216 2.145 . S
Co1181 N1237 2.257 . S
O1182 Co1180 2.143 . S
O1182 Co1181 2.160 . S
C1183 O1184 1.278 . S
C1183 O1191 1.224 . S
O1184 C1183 1.278 . S
C1185 O1186 1.245 . S
C1185 O1197 1.232 . S
O1186 C1185 1.245 . S
O1187 Co1181 2.058 . S
O1187 C1213 1.269 . S
O1188 Co1180 2.074 . S
O1188 C1213 1.257 . S
H1189 C1214 0.930 . S
H1190 C1220 0.930 . S
O1191 Co1180 2.093 . S
O1191 C1183 1.224 . S
H1192 C1224 0.929 . S
H1193 C1226 0.930 . S
H1194 C1227 0.930 . S
H1195 C1225 0.929 . S
H1196 C1228 0.928 . S
O1197 Co1181 2.057 . S
O1197 C1185 1.232 . S
H1198 C1217 0.929 . S
H1199 C1218 0.929 . S
H1200 C1230 0.931 . S
H1201 C1222 0.929 . S
H1202 C1231 0.930 . S
H1203 C1223 0.931 . S
O1204 Co1180 2.097 . S
O1204 C1232 1.214 . S
H1205 C1233 0.929 . S
H1206 C1234 0.929 . S
H1207 C1235 0.930 . S
H1208 C1236 0.929 . S
H1209 C1238 0.930 . S
H1210 C1215 0.930 . S
H1211 C1219 0.930 . S
O1212 Co1181 2.037 . S
O1212 C1232 1.234 . S
C1213 O1187 1.269 . S
C1213 O1188 1.257 . S
C1214 H1189 0.930 . S
C1214 C1217 1.388 . S
C1214 C1219 1.418 . S
C1215 H1210 0.930 . S
C1215 C1218 1.404 . S
C1215 C1219 1.353 . S
N1216 Co1181 2.145 . S
N1216 C1217 1.397 . S
N1216 C1218 1.334 . S
C1217 H1198 0.929 . S
C1217 C1214 1.388 . S
C1217 N1216 1.397 . S
C1218 H1199 0.929 . S
C1218 C1215 1.404 . S
C1218 N1216 1.334 . S
C1219 H1211 0.930 . S
C1219 C1214 1.418 . S
C1219 C1215 1.353 . S
C1220 H1190 0.930 . S
C1220 N1221 1.330 . S
C1220 C1222 1.446 . S
N1221 Co1180 2.151 . S
N1221 C1220 1.330 . S
N1221 C1225 1.418 . S
C1222 H1201 0.929 . S
C1222 C1220 1.446 . S
C1222 C1223 1.332 . S
C1223 H1203 0.931 . S
C1223 C1222 1.332 . S
C1223 C1224 1.267 . S
C1224 H1192 0.929 . S
C1224 C1223 1.267 . S
C1224 C1225 1.251 . S
C1225 H1195 0.929 . S
C1225 N1221 1.418 . S
C1225 C1224 1.251 . S
C1226 H1193 0.930 . S
C1226 C1228 1.406 . S
C1226 C1231 1.261 . S
C1227 H1194 0.930 . S
C1227 N1229 1.325 . S
C1227 C1230 1.357 . S
C1228 H1196 0.928 . S
C1228 C1226 1.406 . S
C1228 N1229 1.261 . S
N1229 Co1180 2.214 . S
N1229 C1227 1.325 . S
N1229 C1228 1.261 . S
C1230 H1200 0.931 . S
C1230 C1227 1.357 . S
C1230 C1231 1.312 . S
C1231 H1202 0.930 . S
C1231 C1226 1.261 . S
C1231 C1230 1.312 . S
C1232 O1204 1.214 . S
C1232 O1212 1.234 . S
C1233 H1205 0.929 . S
C1233 C1236 1.391 . S
C1233 C1238 1.391 . S
C1234 H1206 0.929 . S
C1234 C1235 1.390 . S
C1234 N1237 1.391 . S
C1235 H1207 0.930 . S
C1235 C1234 1.390 . S
C1235 C1236 1.392 . S
C1236 H1208 0.929 . S
C1236 C1233 1.391 . S
C1236 C1235 1.392 . S
N1237 Co1181 2.257 . S
N1237 C1234 1.391 . S
N1237 C1238 1.388 . S
C1238 H1209 0.930 . S
C1238 C1233 1.391 . S
C1238 N1237 1.388 . S
Co1239 O1241 2.143 . S
Co1239 O1247 2.074 . S
Co1239 O1250 2.093 . S
Co1239 O1263 2.097 . S
Co1239 N1280 2.151 . S
Co1239 N1288 2.214 . S
Co1240 O1241 2.160 . S
Co1240 O1246 2.058 . S
Co1240 O1256 2.057 . S
Co1240 O1271 2.037 . S
Co1240 N1275 2.145 1_655 S
Co1240 N1296 2.257 . S
O1241 Co1239 2.143 . S
O1241 Co1240 2.160 . S
C1242 O1243 1.278 . S
C1242 O1250 1.224 . S
O1243 C1242 1.278 . S
C1244 O1245 1.245 . S
C1244 O1256 1.232 . S
O1245 C1244 1.245 . S
O1246 Co1240 2.058 . S
O1246 C1272 1.269 . S
O1247 Co1239 2.074 . S
O1247 C1272 1.257 . S
H1248 C1273 0.930 . S
H1249 C1279 0.930 . S
O1250 Co1239 2.093 . S
O1250 C1242 1.224 . S
H1251 C1283 0.929 . S
H1252 C1285 0.930 . S
H1253 C1286 0.930 . S
H1254 C1284 0.929 . S
H1255 C1287 0.928 . S
O1256 Co1240 2.057 . S
O1256 C1244 1.232 . S
H1257 C1276 0.929 . S
H1258 C1277 0.929 . S
H1259 C1289 0.931 . S
H1260 C1281 0.929 . S
H1261 C1290 0.930 . S
H1262 C1282 0.931 . S
O1263 Co1239 2.097 . S
O1263 C1291 1.214 . S
H1264 C1292 0.929 . S
H1265 C1293 0.929 . S
H1266 C1294 0.930 . S
H1267 C1295 0.929 . S
H1268 C1297 0.930 . S
H1269 C1274 0.930 . S
H1270 C1278 0.930 . S
O1271 Co1240 2.037 . S
O1271 C1291 1.234 . S
C1272 O1246 1.269 . S
C1272 O1247 1.257 . S
C1273 H1248 0.930 . S
C1273 C1276 1.388 . S
C1273 C1278 1.418 . S
C1274 H1269 0.930 . S
C1274 C1277 1.404 . S
C1274 C1278 1.353 . S
N1275 Co1240 2.145 1_455 S
N1275 C1276 1.397 . S
N1275 C1277 1.334 . S
C1276 H1257 0.929 . S
C1276 C1273 1.388 . S
C1276 N1275 1.397 . S
C1277 H1258 0.929 . S
C1277 C1274 1.404 . S
C1277 N1275 1.334 . S
C1278 H1270 0.930 . S
C1278 C1273 1.418 . S
C1278 C1274 1.353 . S
C1279 H1249 0.930 . S
C1279 N1280 1.330 . S
C1279 C1281 1.446 . S
N1280 Co1239 2.151 . S
N1280 C1279 1.330 . S
N1280 C1284 1.418 . S
C1281 H1260 0.929 . S
C1281 C1279 1.446 . S
C1281 C1282 1.332 . S
C1282 H1262 0.931 . S
C1282 C1281 1.332 . S
C1282 C1283 1.267 . S
C1283 H1251 0.929 . S
C1283 C1282 1.267 . S
C1283 C1284 1.251 . S
C1284 H1254 0.929 . S
C1284 N1280 1.418 . S
C1284 C1283 1.251 . S
C1285 H1252 0.930 . S
C1285 C1287 1.406 . S
C1285 C1290 1.261 . S
C1286 H1253 0.930 . S
C1286 N1288 1.325 . S
C1286 C1289 1.357 . S
C1287 H1255 0.928 . S
C1287 C1285 1.406 . S
C1287 N1288 1.261 . S
N1288 Co1239 2.214 . S
N1288 C1286 1.325 . S
N1288 C1287 1.261 . S
C1289 H1259 0.931 . S
C1289 C1286 1.357 . S
C1289 C1290 1.312 . S
C1290 H1261 0.930 . S
C1290 C1285 1.261 . S
C1290 C1289 1.312 . S
C1291 O1263 1.214 . S
C1291 O1271 1.234 . S
C1292 H1264 0.929 . S
C1292 C1295 1.391 . S
C1292 C1297 1.391 . S
C1293 H1265 0.929 . S
C1293 C1294 1.390 . S
C1293 N1296 1.391 1_455 S
C1294 H1266 0.930 . S
C1294 C1293 1.390 . S
C1294 C1295 1.392 1_455 S
C1295 H1267 0.929 . S
C1295 C1292 1.391 . S
C1295 C1294 1.392 1_655 S
N1296 Co1240 2.257 . S
N1296 C1293 1.391 1_655 S
N1296 C1297 1.388 . S
C1297 H1268 0.930 . S
C1297 C1292 1.391 . S
C1297 N1296 1.388 . S
Co1298 O1300 2.143 . S
Co1298 O1306 2.074 . S
Co1298 O1309 2.093 . S
Co1298 O1322 2.097 . S
Co1298 N1339 2.151 . S
Co1298 N1347 2.214 . S
Co1299 O1300 2.160 . S
Co1299 O1305 2.058 . S
Co1299 O1315 2.057 . S
Co1299 O1330 2.037 . S
Co1299 N1334 2.145 1_565 S
Co1299 N1355 2.257 . S
O1300 Co1298 2.143 . S
O1300 Co1299 2.160 . S
C1301 O1302 1.278 . S
C1301 O1309 1.224 . S
O1302 C1301 1.278 . S
C1303 O1304 1.245 . S
C1303 O1315 1.232 . S
O1304 C1303 1.245 . S
O1305 Co1299 2.058 . S
O1305 C1331 1.269 . S
O1306 Co1298 2.074 . S
O1306 C1331 1.257 . S
H1307 C1332 0.930 . S
H1308 C1338 0.930 . S
O1309 Co1298 2.093 . S
O1309 C1301 1.224 . S
H1310 C1342 0.929 . S
H1311 C1344 0.930 . S
H1312 C1345 0.930 . S
H1313 C1343 0.929 . S
H1314 C1346 0.928 . S
O1315 Co1299 2.057 . S
O1315 C1303 1.232 . S
H1316 C1335 0.929 . S
H1317 C1336 0.929 . S
H1318 C1348 0.931 . S
H1319 C1340 0.929 . S
H1320 C1349 0.930 . S
H1321 C1341 0.931 . S
O1322 Co1298 2.097 . S
O1322 C1350 1.214 . S
H1323 C1351 0.929 . S
H1324 C1352 0.929 . S
H1325 C1353 0.930 . S
H1326 C1354 0.929 . S
H1327 C1356 0.930 . S
H1328 C1333 0.930 . S
H1329 C1337 0.930 . S
O1330 Co1299 2.037 . S
O1330 C1350 1.234 . S
C1331 O1305 1.269 . S
C1331 O1306 1.257 . S
C1332 H1307 0.930 . S
C1332 C1335 1.388 . S
C1332 C1337 1.418 . S
C1333 H1328 0.930 . S
C1333 C1336 1.404 . S
C1333 C1337 1.353 . S
N1334 Co1299 2.145 1_545 S
N1334 C1335 1.397 . S
N1334 C1336 1.334 . S
C1335 H1316 0.929 . S
C1335 C1332 1.388 . S
C1335 N1334 1.397 . S
C1336 H1317 0.929 . S
C1336 C1333 1.404 . S
C1336 N1334 1.334 . S
C1337 H1329 0.930 . S
C1337 C1332 1.418 . S
C1337 C1333 1.353 . S
C1338 H1308 0.930 . S
C1338 N1339 1.330 . S
C1338 C1340 1.446 . S
N1339 Co1298 2.151 . S
N1339 C1338 1.330 . S
N1339 C1343 1.418 . S
C1340 H1319 0.929 . S
C1340 C1338 1.446 . S
C1340 C1341 1.332 . S
C1341 H1321 0.931 . S
C1341 C1340 1.332 . S
C1341 C1342 1.267 . S
C1342 H1310 0.929 . S
C1342 C1341 1.267 . S
C1342 C1343 1.251 . S
C1343 H1313 0.929 . S
C1343 N1339 1.418 . S
C1343 C1342 1.251 . S
C1344 H1311 0.930 . S
C1344 C1346 1.406 . S
C1344 C1349 1.261 . S
C1345 H1312 0.930 . S
C1345 N1347 1.325 . S
C1345 C1348 1.357 . S
C1346 H1314 0.928 . S
C1346 C1344 1.406 . S
C1346 N1347 1.261 . S
N1347 Co1298 2.214 . S
N1347 C1345 1.325 . S
N1347 C1346 1.261 . S
C1348 H1318 0.931 . S
C1348 C1345 1.357 . S
C1348 C1349 1.312 . S
C1349 H1320 0.930 . S
C1349 C1344 1.261 . S
C1349 C1348 1.312 . S
C1350 O1322 1.214 . S
C1350 O1330 1.234 . S
C1351 H1323 0.929 . S
C1351 C1354 1.391 . S
C1351 C1356 1.391 . S
C1352 H1324 0.929 . S
C1352 C1353 1.390 . S
C1352 N1355 1.391 1_545 S
C1353 H1325 0.930 . S
C1353 C1352 1.390 . S
C1353 C1354 1.392 1_545 S
C1354 H1326 0.929 . S
C1354 C1351 1.391 . S
C1354 C1353 1.392 1_565 S
N1355 Co1299 2.257 . S
N1355 C1352 1.391 1_565 S
N1355 C1356 1.388 . S
C1356 H1327 0.930 . S
C1356 C1351 1.391 . S
C1356 N1355 1.388 . S
Co1357 O1359 2.143 . S
Co1357 O1365 2.074 . S
Co1357 O1368 2.093 . S
Co1357 O1381 2.097 . S
Co1357 N1398 2.151 . S
Co1357 N1406 2.214 . S
Co1358 O1359 2.160 . S
Co1358 O1364 2.058 . S
Co1358 O1374 2.057 . S
Co1358 O1389 2.037 . S
Co1358 N1393 2.145 . S
Co1358 N1414 2.257 . S
O1359 Co1357 2.143 . S
O1359 Co1358 2.160 . S
C1360 O1361 1.278 . S
C1360 O1368 1.224 . S
O1361 C1360 1.278 . S
C1362 O1363 1.245 . S
C1362 O1374 1.232 . S
O1363 C1362 1.245 . S
O1364 Co1358 2.058 . S
O1364 C1390 1.269 . S
O1365 Co1357 2.074 . S
O1365 C1390 1.257 . S
H1366 C1391 0.930 . S
H1367 C1397 0.930 . S
O1368 Co1357 2.093 . S
O1368 C1360 1.224 . S
H1369 C1401 0.929 . S
H1370 C1403 0.930 . S
H1371 C1404 0.930 . S
H1372 C1402 0.929 . S
H1373 C1405 0.928 . S
O1374 Co1358 2.057 . S
O1374 C1362 1.232 . S
H1375 C1394 0.929 . S
H1376 C1395 0.929 . S
H1377 C1407 0.931 . S
H1378 C1399 0.929 . S
H1379 C1408 0.930 . S
H1380 C1400 0.931 . S
O1381 Co1357 2.097 . S
O1381 C1409 1.214 . S
H1382 C1410 0.929 . S
H1383 C1411 0.929 . S
H1384 C1412 0.930 . S
H1385 C1413 0.929 . S
H1386 C1415 0.930 . S
H1387 C1392 0.930 . S
H1388 C1396 0.930 . S
O1389 Co1358 2.037 . S
O1389 C1409 1.234 . S
C1390 O1364 1.269 . S
C1390 O1365 1.257 . S
C1391 H1366 0.930 . S
C1391 C1394 1.388 . S
C1391 C1396 1.418 . S
C1392 H1387 0.930 . S
C1392 C1395 1.404 . S
C1392 C1396 1.353 . S
N1393 Co1358 2.145 . S
N1393 C1394 1.397 . S
N1393 C1395 1.334 . S
C1394 H1375 0.929 . S
C1394 C1391 1.388 . S
C1394 N1393 1.397 . S
C1395 H1376 0.929 . S
C1395 C1392 1.404 . S
C1395 N1393 1.334 . S
C1396 H1388 0.930 . S
C1396 C1391 1.418 . S
C1396 C1392 1.353 . S
C1397 H1367 0.930 . S
C1397 N1398 1.330 . S
C1397 C1399 1.446 . S
N1398 Co1357 2.151 . S
N1398 C1397 1.330 . S
N1398 C1402 1.418 . S
C1399 H1378 0.929 . S
C1399 C1397 1.446 . S
C1399 C1400 1.332 . S
C1400 H1380 0.931 . S
C1400 C1399 1.332 . S
C1400 C1401 1.267 . S
C1401 H1369 0.929 . S
C1401 C1400 1.267 . S
C1401 C1402 1.251 . S
C1402 H1372 0.929 . S
C1402 N1398 1.418 . S
C1402 C1401 1.251 . S
C1403 H1370 0.930 . S
C1403 C1405 1.406 . S
C1403 C1408 1.261 . S
C1404 H1371 0.930 . S
C1404 N1406 1.325 . S
C1404 C1407 1.357 . S
C1405 H1373 0.928 . S
C1405 C1403 1.406 . S
C1405 N1406 1.261 . S
N1406 Co1357 2.214 . S
N1406 C1404 1.325 . S
N1406 C1405 1.261 . S
C1407 H1377 0.931 . S
C1407 C1404 1.357 . S
C1407 C1408 1.312 . S
C1408 H1379 0.930 . S
C1408 C1403 1.261 . S
C1408 C1407 1.312 . S
C1409 O1381 1.214 . S
C1409 O1389 1.234 . S
C1410 H1382 0.929 . S
C1410 C1413 1.391 . S
C1410 C1415 1.391 . S
C1411 H1383 0.929 . S
C1411 C1412 1.390 . S
C1411 N1414 1.391 . S
C1412 H1384 0.930 . S
C1412 C1411 1.390 . S
C1412 C1413 1.392 . S
C1413 H1385 0.929 . S
C1413 C1410 1.391 . S
C1413 C1412 1.392 . S
N1414 Co1358 2.257 . S
N1414 C1411 1.391 . S
N1414 C1415 1.388 . S
C1415 H1386 0.930 . S
C1415 C1410 1.391 . S
C1415 N1414 1.388 . S
H1416 C1428 0.930 . S
H1417 C1430 0.912 1_565 S
H1418 C1431 0.930 1_565 S
H1419 C1435 0.959 . S
H1420 C1435 0.959 . S
H1421 C1435 0.961 . S
H1422 C1436 0.960 . S
H1423 C1436 0.961 . S
H1424 C1436 0.959 . S
H1425 C1439 0.929 1_565 S
H1426 C1440 0.931 1_565 S
H1427 C1442 0.930 . S
C1428 H1416 0.930 . S
C1428 C1429 1.399 . S
C1428 C1433 1.399 . S
C1429 C1428 1.399 . S
C1429 C1430 1.376 . S
C1430 H1417 0.912 1_545 S
C1430 C1429 1.376 . S
C1430 C1431 1.388 . S
C1431 H1418 0.930 1_545 S
C1431 C1430 1.388 . S
C1431 C1432 1.390 . S
C1432 C1431 1.390 . S
C1432 C1433 1.394 . S
C1432 C1438 1.465 . S
C1433 C1428 1.399 . S
C1433 C1432 1.394 . S
C1433 C1434 1.516 . S
C1434 C1433 1.516 . S
C1434 C1435 1.502 . S
C1434 C1436 1.561 . S
C1434 C1437 1.526 . S
C1435 H1419 0.959 . S
C1435 H1420 0.959 . S
C1435 H1421 0.961 . S
C1435 C1434 1.502 . S
C1436 H1422 0.960 . S
C1436 H1423 0.961 . S
C1436 H1424 0.959 . S
C1436 C1434 1.561 . S
C1437 C1434 1.526 . S
C1437 C1438 1.396 . S
C1437 C1442 1.390 . S
C1438 C1432 1.465 . S
C1438 C1437 1.396 . S
C1438 C1439 1.399 . S
C1439 H1425 0.929 1_545 S
C1439 C1438 1.399 . S
C1439 C1440 1.385 . S
C1440 H1426 0.931 1_545 S
C1440 C1439 1.385 . S
C1440 C1441 1.389 . S
C1441 C1440 1.389 . S
C1441 C1442 1.387 . S
C1442 H1427 0.930 . S
C1442 C1437 1.390 . S
C1442 C1441 1.387 . S
H1443 C1455 0.930 . S
H1444 C1457 0.930 . S
H1445 C1458 0.930 . S
H1446 C1462 0.959 . S
H1447 C1462 0.959 . S
H1448 C1462 0.961 . S
H1449 C1463 0.960 . S
H1450 C1463 0.961 . S
H1451 C1463 0.959 . S
H1452 C1466 0.929 . S
H1453 C1467 0.931 . S
H1454 C1469 0.930 . S
C1455 H1443 0.930 . S
C1455 C1456 1.399 . S
C1455 C1460 1.399 . S
C1456 C1455 1.399 . S
C1456 C1457 1.376 . S
C1457 H1444 0.930 . S
C1457 C1456 1.376 . S
C1457 C1458 1.388 . S
C1458 H1445 0.930 . S
C1458 C1457 1.388 . S
C1458 C1459 1.390 . S
C1459 C1458 1.390 . S
C1459 C1460 1.394 . S
C1459 C1465 1.465 . S
C1460 C1455 1.399 . S
C1460 C1459 1.394 . S
C1460 C1461 1.516 . S
C1461 C1460 1.516 . S
C1461 C1462 1.502 . S
C1461 C1463 1.561 . S
C1461 C1464 1.526 . S
C1462 H1446 0.959 . S
C1462 H1447 0.959 . S
C1462 H1448 0.961 . S
C1462 C1461 1.502 . S
C1463 H1449 0.960 . S
C1463 H1450 0.961 . S
C1463 H1451 0.959 . S
C1463 C1461 1.561 . S
C1464 C1461 1.526 . S
C1464 C1465 1.396 . S
C1464 C1469 1.390 . S
C1465 C1459 1.465 . S
C1465 C1464 1.396 . S
C1465 C1466 1.399 . S
C1466 H1452 0.929 . S
C1466 C1465 1.399 . S
C1466 C1467 1.385 . S
C1467 H1453 0.931 . S
C1467 C1466 1.385 . S
C1467 C1468 1.389 . S
C1468 C1467 1.389 . S
C1468 C1469 1.387 . S
C1469 H1454 0.930 . S
C1469 C1464 1.390 . S
C1469 C1468 1.387 . S
H1470 C1482 0.930 . S
H1471 C1484 0.938 . S
H1472 C1485 0.930 1_455 S
H1473 C1489 0.959 . S
H1474 C1489 0.959 . S
H1475 C1489 0.961 . S
H1476 C1490 0.960 . S
H1477 C1490 0.961 . S
H1478 C1490 0.959 . S
H1479 C1493 0.929 1_455 S
H1480 C1494 0.931 . S
H1481 C1496 0.930 . S
C1482 H1470 0.930 . S
C1482 C1483 1.399 . S
C1482 C1487 1.399 . S
C1483 C1482 1.399 . S
C1483 C1484 1.376 . S
C1484 H1471 0.938 . S
C1484 C1483 1.376 . S
C1484 C1485 1.388 . S
C1485 H1472 0.930 1_655 S
C1485 C1484 1.388 . S
C1485 C1486 1.390 . S
C1486 C1485 1.390 . S
C1486 C1487 1.394 . S
C1486 C1492 1.465 . S
C1487 C1482 1.399 . S
C1487 C1486 1.394 . S
C1487 C1488 1.516 . S
C1488 C1487 1.516 . S
C1488 C1489 1.502 . S
C1488 C1490 1.561 . S
C1488 C1491 1.526 . S
C1489 H1473 0.959 . S
C1489 H1474 0.959 . S
C1489 H1475 0.961 . S
C1489 C1488 1.502 . S
C1490 H1476 0.960 . S
C1490 H1477 0.961 . S
C1490 H1478 0.959 . S
C1490 C1488 1.561 . S
C1491 C1488 1.526 . S
C1491 C1492 1.396 . S
C1491 C1496 1.390 . S
C1492 C1486 1.465 . S
C1492 C1491 1.396 . S
C1492 C1493 1.399 . S
C1493 H1479 0.929 1_655 S
C1493 C1492 1.399 . S
C1493 C1494 1.385 . S
C1494 H1480 0.931 . S
C1494 C1493 1.385 . S
C1494 C1495 1.389 . S
C1495 C1494 1.389 . S
C1495 C1496 1.387 . S
C1496 H1481 0.930 . S
C1496 C1491 1.390 . S
C1496 C1495 1.387 . S
H1497 C1509 0.930 . S
H1498 C1511 0.930 . S
H1499 C1512 0.930 . S
H1500 C1516 0.959 1_565 S
H1501 C1516 0.959 . S
H1502 C1516 0.961 . S
H1503 C1517 0.960 . S
H1504 C1517 0.961 . S
H1505 C1517 0.959 . S
H1506 C1520 0.929 . S
H1507 C1521 0.931 . S
H1508 C1523 0.930 . S
C1509 H1497 0.930 . S
C1509 C1510 1.399 . S
C1509 C1514 1.399 . S
C1510 C1509 1.399 . S
C1510 C1511 1.376 . S
C1511 H1498 0.930 . S
C1511 C1510 1.376 . S
C1511 C1512 1.388 . S
C1512 H1499 0.930 . S
C1512 C1511 1.388 . S
C1512 C1513 1.390 . S
C1513 C1512 1.390 . S
C1513 C1514 1.394 . S
C1513 C1519 1.465 . S
C1514 C1509 1.399 . S
C1514 C1513 1.394 . S
C1514 C1515 1.516 . S
C1515 C1514 1.516 . S
C1515 C1516 1.502 1_565 S
C1515 C1517 1.561 1_565 S
C1515 C1518 1.526 . S
C1516 H1500 0.959 1_545 S
C1516 H1501 0.959 . S
C1516 H1502 0.961 . S
C1516 C1515 1.502 1_545 S
C1517 H1503 0.960 . S
C1517 H1504 0.961 . S
C1517 H1505 0.959 . S
C1517 C1515 1.561 1_545 S
C1518 C1515 1.526 . S
C1518 C1519 1.396 . S
C1518 C1523 1.390 . S
C1519 C1513 1.465 . S
C1519 C1518 1.396 . S
C1519 C1520 1.399 . S
C1520 H1506 0.929 . S
C1520 C1519 1.399 . S
C1520 C1521 1.385 . S
C1521 H1507 0.931 . S
C1521 C1520 1.385 . S
C1521 C1522 1.389 . S
C1522 C1521 1.389 . S
C1522 C1523 1.387 . S
C1523 H1508 0.930 . S
C1523 C1518 1.390 . S
C1523 C1522 1.387 . S
H1524 C1536 0.930 . S
H1525 C1538 0.930 . S
H1526 C1539 0.930 . S
H1527 C1543 0.959 . S
H1528 C1543 0.959 . S
H1529 C1543 0.961 . S
H1530 C1544 0.960 . S
H1531 C1544 0.961 . S
H1532 C1544 0.959 . S
H1533 C1547 0.929 . S
H1534 C1548 0.931 . S
H1535 C1550 0.930 . S
C1536 H1524 0.930 . S
C1536 C1537 1.399 . S
C1536 C1541 1.399 . S
C1537 C1536 1.399 . S
C1537 C1538 1.376 . S
C1538 H1525 0.930 . S
C1538 C1537 1.376 . S
C1538 C1539 1.388 . S
C1539 H1526 0.930 . S
C1539 C1538 1.388 . S
C1539 C1540 1.390 . S
C1540 C1539 1.390 . S
C1540 C1541 1.394 . S
C1540 C1546 1.465 . S
C1541 C1536 1.399 . S
C1541 C1540 1.394 . S
C1541 C1542 1.516 . S
C1542 C1541 1.516 . S
C1542 C1543 1.502 . S
C1542 C1544 1.561 . S
C1542 C1545 1.526 . S
C1543 H1527 0.959 . S
C1543 H1528 0.959 . S
C1543 H1529 0.961 . S
C1543 C1542 1.502 . S
C1544 H1530 0.960 . S
C1544 H1531 0.961 . S
C1544 H1532 0.959 . S
C1544 C1542 1.561 . S
C1545 C1542 1.526 . S
C1545 C1546 1.396 . S
C1545 C1550 1.390 . S
C1546 C1540 1.465 . S
C1546 C1545 1.396 . S
C1546 C1547 1.399 . S
C1547 H1533 0.929 . S
C1547 C1546 1.399 . S
C1547 C1548 1.385 . S
C1548 H1534 0.931 . S
C1548 C1547 1.385 . S
C1548 C1549 1.389 . S
C1549 C1548 1.389 . S
C1549 C1550 1.387 . S
C1550 H1535 0.930 . S
C1550 C1545 1.390 . S
C1550 C1549 1.387 . S
H1551 C1563 0.930 . S
H1552 C1565 0.930 . S
H1553 C1566 0.930 1_655 S
H1554 C1570 0.959 . S
H1555 C1570 0.959 . S
H1556 C1570 0.961 . S
H1557 C1571 0.960 . S
H1558 C1571 0.961 . S
H1559 C1571 0.959 . S
H1560 C1574 0.929 1_655 S
H1561 C1575 0.931 . S
H1562 C1577 0.930 . S
C1563 H1551 0.930 . S
C1563 C1564 1.399 . S
C1563 C1568 1.399 . S
C1564 C1563 1.399 . S
C1564 C1565 1.376 . S
C1565 H1552 0.930 . S
C1565 C1564 1.376 . S
C1565 C1566 1.388 . S
C1566 H1553 0.930 1_455 S
C1566 C1565 1.388 . S
C1566 C1567 1.390 . S
C1567 C1566 1.390 . S
C1567 C1568 1.394 . S
C1567 C1573 1.465 . S
C1568 C1563 1.399 . S
C1568 C1567 1.394 . S
C1568 C1569 1.516 . S
C1569 C1568 1.516 . S
C1569 C1570 1.502 . S
C1569 C1571 1.561 . S
C1569 C1572 1.526 . S
C1570 H1554 0.959 . S
C1570 H1555 0.959 . S
C1570 H1556 0.961 . S
C1570 C1569 1.502 . S
C1571 H1557 0.960 . S
C1571 H1558 0.961 . S
C1571 H1559 0.959 . S
C1571 C1569 1.561 . S
C1572 C1569 1.526 . S
C1572 C1573 1.396 . S
C1572 C1577 1.390 . S
C1573 C1567 1.465 . S
C1573 C1572 1.396 . S
C1573 C1574 1.399 . S
C1574 H1560 0.929 1_455 S
C1574 C1573 1.399 . S
C1574 C1575 1.385 . S
C1575 H1561 0.931 . S
C1575 C1574 1.385 . S
C1575 C1576 1.389 . S
C1576 C1575 1.389 . S
C1576 C1577 1.387 . S
C1577 H1562 0.930 . S
C1577 C1572 1.390 . S
C1577 C1576 1.387 . S
H1578 C1590 0.930 . S
H1579 C1592 0.930 . S
H1580 C1593 0.930 1_455 S
H1581 C1597 0.959 . S
H1582 C1597 0.959 . S
H1583 C1597 0.961 . S
H1584 C1598 0.960 . S
H1585 C1598 0.961 . S
H1586 C1598 0.959 . S
H1587 C1601 0.929 1_455 S
H1588 C1602 0.931 . S
H1589 C1604 0.930 . S
C1590 H1578 0.930 . S
C1590 C1591 1.399 . S
C1590 C1595 1.399 . S
C1591 C1590 1.399 . S
C1591 C1592 1.376 . S
C1592 H1579 0.930 . S
C1592 C1591 1.376 . S
C1592 C1593 1.388 . S
C1593 H1580 0.930 1_655 S
C1593 C1592 1.388 . S
C1593 C1594 1.390 . S
C1594 C1593 1.390 . S
C1594 C1595 1.394 . S
C1594 C1600 1.465 . S
C1595 C1590 1.399 . S
C1595 C1594 1.394 . S
C1595 C1596 1.516 . S
C1596 C1595 1.516 . S
C1596 C1597 1.502 . S
C1596 C1598 1.561 . S
C1596 C1599 1.526 . S
C1597 H1581 0.959 . S
C1597 H1582 0.959 . S
C1597 H1583 0.961 . S
C1597 C1596 1.502 . S
C1598 H1584 0.960 . S
C1598 H1585 0.961 . S
C1598 H1586 0.959 . S
C1598 C1596 1.561 . S
C1599 C1596 1.526 . S
C1599 C1600 1.396 . S
C1599 C1604 1.390 . S
C1600 C1594 1.465 . S
C1600 C1599 1.396 . S
C1600 C1601 1.399 . S
C1601 H1587 0.929 1_655 S
C1601 C1600 1.399 . S
C1601 C1602 1.385 . S
C1602 H1588 0.931 . S
C1602 C1601 1.385 . S
C1602 C1603 1.389 . S
C1603 C1602 1.389 . S
C1603 C1604 1.387 . S
C1604 H1589 0.930 . S
C1604 C1599 1.390 . S
C1604 C1603 1.387 . S
H1605 C1617 0.930 . S
H1606 C1619 0.930 . S
H1607 C1620 0.930 . S
H1608 C1624 0.959 1_565 S
H1609 C1624 0.959 . S
H1610 C1624 0.961 . S
H1611 C1625 0.960 . S
H1612 C1625 0.961 . S
H1613 C1625 0.959 . S
H1614 C1628 0.929 . S
H1615 C1629 0.931 . S
H1616 C1631 0.930 . S
C1617 H1605 0.930 . S
C1617 C1618 1.399 . S
C1617 C1622 1.399 . S
C1618 C1617 1.399 . S
C1618 C1619 1.376 . S
C1619 H1606 0.930 . S
C1619 C1618 1.376 . S
C1619 C1620 1.388 . S
C1620 H1607 0.930 . S
C1620 C1619 1.388 . S
C1620 C1621 1.390 . S
C1621 C1620 1.390 . S
C1621 C1622 1.394 . S
C1621 C1627 1.465 . S
C1622 C1617 1.399 . S
C1622 C1621 1.394 . S
C1622 C1623 1.516 . S
C1623 C1622 1.516 . S
C1623 C1624 1.502 1_565 S
C1623 C1625 1.561 1_565 S
C1623 C1626 1.526 . S
C1624 H1608 0.959 1_545 S
C1624 H1609 0.959 . S
C1624 H1610 0.961 . S
C1624 C1623 1.502 1_545 S
C1625 H1611 0.960 . S
C1625 H1612 0.961 . S
C1625 H1613 0.959 . S
C1625 C1623 1.561 1_545 S
C1626 C1623 1.526 . S
C1626 C1627 1.396 . S
C1626 C1631 1.390 . S
C1627 C1621 1.465 . S
C1627 C1626 1.396 . S
C1627 C1628 1.399 . S
C1628 H1614 0.929 . S
C1628 C1627 1.399 . S
C1628 C1629 1.385 . S
C1629 H1615 0.931 . S
C1629 C1628 1.385 . S
C1629 C1630 1.389 . S
C1630 C1629 1.389 . S
C1630 C1631 1.387 . S
C1631 H1616 0.930 . S
C1631 C1626 1.390 . S
C1631 C1630 1.387 . S
H1632 C1644 0.930 . S
H1633 C1646 0.930 . S
H1634 C1647 0.930 . S
H1635 C1651 0.959 . S
H1636 C1651 0.959 . S
H1637 C1651 0.961 . S
H1638 C1652 0.960 . S
H1639 C1652 0.961 . S
H1640 C1652 0.959 . S
H1641 C1655 0.929 . S
H1642 C1656 0.931 . S
H1643 C1658 0.930 . S
C1644 H1632 0.930 . S
C1644 C1645 1.399 . S
C1644 C1649 1.399 . S
C1645 C1644 1.399 . S
C1645 C1646 1.376 . S
C1646 H1633 0.930 . S
C1646 C1645 1.376 . S
C1646 C1647 1.388 . S
C1647 H1634 0.930 . S
C1647 C1646 1.388 . S
C1647 C1648 1.390 . S
C1648 C1647 1.390 . S
C1648 C1649 1.394 . S
C1648 C1654 1.465 . S
C1649 C1644 1.399 . S
C1649 C1648 1.394 . S
C1649 C1650 1.516 . S
C1650 C1649 1.516 . S
C1650 C1651 1.502 . S
C1650 C1652 1.561 . S
C1650 C1653 1.526 . S
C1651 H1635 0.959 . S
C1651 H1636 0.959 . S
C1651 H1637 0.961 . S
C1651 C1650 1.502 . S
C1652 H1638 0.960 . S
C1652 H1639 0.961 . S
C1652 H1640 0.959 . S
C1652 C1650 1.561 . S
C1653 C1650 1.526 . S
C1653 C1654 1.396 . S
C1653 C1658 1.390 . S
C1654 C1648 1.465 . S
C1654 C1653 1.396 . S
C1654 C1655 1.399 . S
C1655 H1641 0.929 . S
C1655 C1654 1.399 . S
C1655 C1656 1.385 . S
C1656 H1642 0.931 . S
C1656 C1655 1.385 . S
C1656 C1657 1.389 . S
C1657 C1656 1.389 . S
C1657 C1658 1.387 . S
C1658 H1643 0.930 . S
C1658 C1653 1.390 . S
C1658 C1657 1.387 . S
H1659 C1671 0.930 . S
H1660 C1673 0.930 . S
H1661 C1674 0.930 . S
H1662 C1678 0.959 . S
H1663 C1678 0.959 . S
H1664 C1678 0.961 . S
H1665 C1679 0.960 . S
H1666 C1679 0.961 . S
H1667 C1679 0.959 . S
H1668 C1682 0.929 . S
H1669 C1683 0.931 . S
H1670 C1685 0.930 . S
C1671 H1659 0.930 . S
C1671 C1672 1.399 . S
C1671 C1676 1.399 . S
C1672 C1671 1.399 . S
C1672 C1673 1.376 . S
C1673 H1660 0.930 . S
C1673 C1672 1.376 . S
C1673 C1674 1.388 . S
C1674 H1661 0.930 . S
C1674 C1673 1.388 . S
C1674 C1675 1.390 . S
C1675 C1674 1.390 . S
C1675 C1676 1.394 . S
C1675 C1681 1.465 . S
C1676 C1671 1.399 . S
C1676 C1675 1.394 . S
C1676 C1677 1.516 . S
C1677 C1676 1.516 . S
C1677 C1678 1.502 1_455 S
C1677 C1679 1.561 . S
C1677 C1680 1.526 . S
C1678 H1662 0.959 . S
C1678 H1663 0.959 . S
C1678 H1664 0.961 . S
C1678 C1677 1.502 1_655 S
C1679 H1665 0.960 . S
C1679 H1666 0.961 . S
C1679 H1667 0.959 . S
C1679 C1677 1.561 . S
C1680 C1677 1.526 . S
C1680 C1681 1.396 . S
C1680 C1685 1.390 . S
C1681 C1675 1.465 . S
C1681 C1680 1.396 . S
C1681 C1682 1.399 . S
C1682 H1668 0.929 . S
C1682 C1681 1.399 . S
C1682 C1683 1.385 . S
C1683 H1669 0.931 . S
C1683 C1682 1.385 . S
C1683 C1684 1.389 . S
C1684 C1683 1.389 . S
C1684 C1685 1.387 . S
C1685 H1670 0.930 . S
C1685 C1680 1.390 . S
C1685 C1684 1.387 . S
H1686 C1698 0.930 . S
H1687 C1700 0.912 1_565 S
H1688 C1701 0.930 1_565 S
H1689 C1705 0.959 . S
H1690 C1705 0.959 . S
H1691 C1705 0.961 . S
H1692 C1706 0.960 . S
H1693 C1706 0.961 . S
H1694 C1706 0.959 . S
H1695 C1709 0.929 1_565 S
H1696 C1710 0.931 1_565 S
H1697 C1712 0.930 . S
C1698 H1686 0.930 . S
C1698 C1699 1.399 . S
C1698 C1703 1.399 . S
C1699 C1698 1.399 . S
C1699 C1700 1.376 . S
C1700 H1687 0.912 1_545 S
C1700 C1699 1.376 . S
C1700 C1701 1.388 . S
C1701 H1688 0.930 1_545 S
C1701 C1700 1.388 . S
C1701 C1702 1.390 . S
C1702 C1701 1.390 . S
C1702 C1703 1.394 . S
C1702 C1708 1.465 . S
C1703 C1698 1.399 . S
C1703 C1702 1.394 . S
C1703 C1704 1.516 . S
C1704 C1703 1.516 . S
C1704 C1705 1.502 . S
C1704 C1706 1.561 . S
C1704 C1707 1.526 . S
C1705 H1689 0.959 . S
C1705 H1690 0.959 . S
C1705 H1691 0.961 . S
C1705 C1704 1.502 . S
C1706 H1692 0.960 . S
C1706 H1693 0.961 . S
C1706 H1694 0.959 . S
C1706 C1704 1.561 . S
C1707 C1704 1.526 . S
C1707 C1708 1.396 . S
C1707 C1712 1.390 . S
C1708 C1702 1.465 . S
C1708 C1707 1.396 . S
C1708 C1709 1.399 . S
C1709 H1695 0.929 1_545 S
C1709 C1708 1.399 . S
C1709 C1710 1.385 . S
C1710 H1696 0.931 1_545 S
C1710 C1709 1.385 . S
C1710 C1711 1.389 . S
C1711 C1710 1.389 . S
C1711 C1712 1.387 . S
C1712 H1697 0.930 . S
C1712 C1707 1.390 . S
C1712 C1711 1.387 . S
H1713 C1725 0.930 . S
H1714 C1727 0.930 . S
H1715 C1728 0.930 . S
H1716 C1732 0.959 . S
H1717 C1732 0.959 . S
H1718 C1732 0.961 . S
H1719 C1733 0.960 . S
H1720 C1733 0.961 . S
H1721 C1733 0.959 . S
H1722 C1736 0.929 . S
H1723 C1737 0.931 . S
H1724 C1739 0.930 . S
C1725 H1713 0.930 . S
C1725 C1726 1.399 . S
C1725 C1730 1.399 . S
C1726 C1725 1.399 . S
C1726 C1727 1.376 . S
C1727 H1714 0.930 . S
C1727 C1726 1.376 . S
C1727 C1728 1.388 . S
C1728 H1715 0.930 . S
C1728 C1727 1.388 . S
C1728 C1729 1.390 . S
C1729 C1728 1.390 . S
C1729 C1730 1.394 . S
C1729 C1735 1.465 . S
C1730 C1725 1.399 . S
C1730 C1729 1.394 . S
C1730 C1731 1.516 . S
C1731 C1730 1.516 . S
C1731 C1732 1.502 . S
C1731 C1733 1.561 . S
C1731 C1734 1.526 . S
C1732 H1716 0.959 . S
C1732 H1717 0.959 . S
C1732 H1718 0.961 . S
C1732 C1731 1.502 . S
C1733 H1719 0.960 . S
C1733 H1720 0.961 . S
C1733 H1721 0.959 . S
C1733 C1731 1.561 . S
C1734 C1731 1.526 . S
C1734 C1735 1.396 . S
C1734 C1739 1.390 . S
C1735 C1729 1.465 . S
C1735 C1734 1.396 . S
C1735 C1736 1.399 . S
C1736 H1722 0.929 . S
C1736 C1735 1.399 . S
C1736 C1737 1.385 . S
C1737 H1723 0.931 . S
C1737 C1736 1.385 . S
C1737 C1738 1.389 . S
C1738 C1737 1.389 . S
C1738 C1739 1.387 . S
C1739 H1724 0.930 . S
C1739 C1734 1.390 . S
C1739 C1738 1.387 . S
H1740 C1752 0.930 . S
H1741 C1754 0.930 . S
H1742 C1755 0.930 . S
H1743 C1759 0.959 . S
H1744 C1759 0.959 . S
H1745 C1759 0.961 . S
H1746 C1760 0.960 . S
H1747 C1760 0.961 . S
H1748 C1760 0.959 . S
H1749 C1763 0.929 . S
H1750 C1764 0.931 . S
H1751 C1766 0.930 . S
C1752 H1740 0.930 . S
C1752 C1753 1.399 . S
C1752 C1757 1.399 . S
C1753 C1752 1.399 . S
C1753 C1754 1.376 . S
C1754 H1741 0.930 . S
C1754 C1753 1.376 . S
C1754 C1755 1.388 . S
C1755 H1742 0.930 . S
C1755 C1754 1.388 . S
C1755 C1756 1.390 . S
C1756 C1755 1.390 . S
C1756 C1757 1.394 . S
C1756 C1762 1.465 . S
C1757 C1752 1.399 . S
C1757 C1756 1.394 . S
C1757 C1758 1.516 . S
C1758 C1757 1.516 . S
C1758 C1759 1.502 . S
C1758 C1760 1.561 . S
C1758 C1761 1.526 . S
C1759 H1743 0.959 . S
C1759 H1744 0.959 . S
C1759 H1745 0.961 . S
C1759 C1758 1.502 . S
C1760 H1746 0.960 . S
C1760 H1747 0.961 . S
C1760 H1748 0.959 . S
C1760 C1758 1.561 . S
C1761 C1758 1.526 . S
C1761 C1762 1.396 . S
C1761 C1766 1.390 . S
C1762 C1756 1.465 . S
C1762 C1761 1.396 . S
C1762 C1763 1.399 . S
C1763 H1749 0.929 . S
C1763 C1762 1.399 . S
C1763 C1764 1.385 . S
C1764 H1750 0.931 . S
C1764 C1763 1.385 . S
C1764 C1765 1.389 . S
C1765 C1764 1.389 . S
C1765 C1766 1.387 . S
C1766 H1751 0.930 . S
C1766 C1761 1.390 . S
C1766 C1765 1.387 . S
H1767 C1779 0.930 . S
H1768 C1781 0.930 . S
H1769 C1782 0.930 . S
H1770 C1786 0.959 . S
H1771 C1786 0.959 . S
H1772 C1786 0.961 . S
H1773 C1787 0.960 . S
H1774 C1787 0.961 . S
H1775 C1787 0.959 . S
H1776 C1790 0.929 . S
H1777 C1791 0.931 . S
H1778 C1793 0.930 . S
C1779 H1767 0.930 . S
C1779 C1780 1.399 . S
C1779 C1784 1.399 . S
C1780 C1779 1.399 . S
C1780 C1781 1.376 . S
C1781 H1768 0.930 . S
C1781 C1780 1.376 . S
C1781 C1782 1.388 . S
C1782 H1769 0.930 . S
C1782 C1781 1.388 . S
C1782 C1783 1.390 . S
C1783 C1782 1.390 . S
C1783 C1784 1.394 . S
C1783 C1789 1.465 . S
C1784 C1779 1.399 . S
C1784 C1783 1.394 . S
C1784 C1785 1.516 . S
C1785 C1784 1.516 . S
C1785 C1786 1.502 . S
C1785 C1787 1.561 . S
C1785 C1788 1.526 . S
C1786 H1770 0.959 . S
C1786 H1771 0.959 . S
C1786 H1772 0.961 . S
C1786 C1785 1.502 . S
C1787 H1773 0.960 . S
C1787 H1774 0.961 . S
C1787 H1775 0.959 . S
C1787 C1785 1.561 . S
C1788 C1785 1.526 . S
C1788 C1789 1.396 . S
C1788 C1793 1.390 . S
C1789 C1783 1.465 . S
C1789 C1788 1.396 . S
C1789 C1790 1.399 . S
C1790 H1776 0.929 . S
C1790 C1789 1.399 . S
C1790 C1791 1.385 . S
C1791 H1777 0.931 . S
C1791 C1790 1.385 . S
C1791 C1792 1.389 . S
C1792 C1791 1.389 . S
C1792 C1793 1.387 . S
C1793 H1778 0.930 . S
C1793 C1788 1.390 . S
C1793 C1792 1.387 . S
H1794 C1806 0.930 . S
H1795 C1808 0.930 . S
H1796 C1809 0.930 . S
H1797 C1813 0.959 . S
H1798 C1813 0.959 . S
H1799 C1813 0.961 . S
H1800 C1814 0.960 . S
H1801 C1814 0.961 . S
H1802 C1814 0.959 . S
H1803 C1817 0.929 . S
H1804 C1818 0.931 . S
H1805 C1820 0.930 . S
C1806 H1794 0.930 . S
C1806 C1807 1.399 . S
C1806 C1811 1.399 . S
C1807 C1806 1.399 . S
C1807 C1808 1.376 . S
C1808 H1795 0.930 . S
C1808 C1807 1.376 . S
C1808 C1809 1.388 . S
C1809 H1796 0.930 . S
C1809 C1808 1.388 . S
C1809 C1810 1.390 . S
C1810 C1809 1.390 . S
C1810 C1811 1.394 . S
C1810 C1816 1.465 . S
C1811 C1806 1.399 . S
C1811 C1810 1.394 . S
C1811 C1812 1.516 . S
C1812 C1811 1.516 . S
C1812 C1813 1.502 . S
C1812 C1814 1.561 . S
C1812 C1815 1.526 . S
C1813 H1797 0.959 . S
C1813 H1798 0.959 . S
C1813 H1799 0.961 . S
C1813 C1812 1.502 . S
C1814 H1800 0.960 . S
C1814 H1801 0.961 . S
C1814 H1802 0.959 . S
C1814 C1812 1.561 . S
C1815 C1812 1.526 . S
C1815 C1816 1.396 . S
C1815 C1820 1.390 . S
C1816 C1810 1.465 . S
C1816 C1815 1.396 . S
C1816 C1817 1.399 . S
C1817 H1803 0.929 . S
C1817 C1816 1.399 . S
C1817 C1818 1.385 . S
C1818 H1804 0.931 . S
C1818 C1817 1.385 . S
C1818 C1819 1.389 . S
C1819 C1818 1.389 . S
C1819 C1820 1.387 . S
C1820 H1805 0.930 . S
C1820 C1815 1.390 . S
C1820 C1819 1.387 . S
H1821 C1833 0.930 . S
H1822 C1835 0.930 . S
H1823 C1836 0.930 . S
H1824 C1840 0.959 . S
H1825 C1840 0.959 . S
H1826 C1840 0.961 . S
H1827 C1841 0.960 . S
H1828 C1841 0.961 . S
H1829 C1841 0.959 . S
H1830 C1844 0.929 . S
H1831 C1845 0.931 . S
H1832 C1847 0.930 . S
C1833 H1821 0.930 . S
C1833 C1834 1.399 . S
C1833 C1838 1.399 . S
C1834 C1833 1.399 . S
C1834 C1835 1.376 . S
C1835 H1822 0.930 . S
C1835 C1834 1.376 . S
C1835 C1836 1.388 . S
C1836 H1823 0.930 . S
C1836 C1835 1.388 . S
C1836 C1837 1.390 . S
C1837 C1836 1.390 . S
C1837 C1838 1.394 . S
C1837 C1843 1.465 . S
C1838 C1833 1.399 . S
C1838 C1837 1.394 . S
C1838 C1839 1.516 . S
C1839 C1838 1.516 . S
C1839 C1840 1.502 . S
C1839 C1841 1.561 . S
C1839 C1842 1.526 . S
C1840 H1824 0.959 . S
C1840 H1825 0.959 . S
C1840 H1826 0.961 . S
C1840 C1839 1.502 . S
C1841 H1827 0.960 . S
C1841 H1828 0.961 . S
C1841 H1829 0.959 . S
C1841 C1839 1.561 . S
C1842 C1839 1.526 . S
C1842 C1843 1.396 . S
C1842 C1847 1.390 . S
C1843 C1837 1.465 . S
C1843 C1842 1.396 . S
C1843 C1844 1.399 . S
C1844 H1830 0.929 . S
C1844 C1843 1.399 . S
C1844 C1845 1.385 . S
C1845 H1831 0.931 . S
C1845 C1844 1.385 . S
C1845 C1846 1.389 . S
C1846 C1845 1.389 . S
C1846 C1847 1.387 . S
C1847 H1832 0.930 . S
C1847 C1842 1.390 . S
C1847 C1846 1.387 . S
H1848 C1860 0.930 . S
H1849 C1862 0.930 . S
H1850 C1863 0.930 . S
H1851 C1867 0.959 . S
H1852 C1867 0.959 . S
H1853 C1867 0.961 . S
H1854 C1868 0.960 . S
H1855 C1868 0.961 . S
H1856 C1868 0.959 . S
H1857 C1871 0.929 . S
H1858 C1872 0.931 . S
H1859 C1874 0.930 . S
C1860 H1848 0.930 . S
C1860 C1861 1.399 . S
C1860 C1865 1.399 . S
C1861 C1860 1.399 . S
C1861 C1862 1.376 . S
C1862 H1849 0.930 . S
C1862 C1861 1.376 . S
C1862 C1863 1.388 . S
C1863 H1850 0.930 . S
C1863 C1862 1.388 . S
C1863 C1864 1.390 . S
C1864 C1863 1.390 . S
C1864 C1865 1.394 . S
C1864 C1870 1.465 . S
C1865 C1860 1.399 . S
C1865 C1864 1.394 . S
C1865 C1866 1.516 . S
C1866 C1865 1.516 . S
C1866 C1867 1.502 . S
C1866 C1868 1.561 . S
C1866 C1869 1.526 . S
C1867 H1851 0.959 . S
C1867 H1852 0.959 . S
C1867 H1853 0.961 . S
C1867 C1866 1.502 . S
C1868 H1854 0.960 . S
C1868 H1855 0.961 . S
C1868 H1856 0.959 . S
C1868 C1866 1.561 . S
C1869 C1866 1.526 . S
C1869 C1870 1.396 . S
C1869 C1874 1.390 . S
C1870 C1864 1.465 . S
C1870 C1869 1.396 . S
C1870 C1871 1.399 . S
C1871 H1857 0.929 . S
C1871 C1870 1.399 . S
C1871 C1872 1.385 . S
C1872 H1858 0.931 . S
C1872 C1871 1.385 . S
C1872 C1873 1.389 . S
C1873 C1872 1.389 . S
C1873 C1874 1.387 . S
C1874 H1859 0.930 . S
C1874 C1869 1.390 . S
C1874 C1873 1.387 . S
H1875 C1887 0.930 . S
H1876 C1889 0.930 . S
H1877 C1890 0.930 . S
H1878 C1894 0.959 . S
H1879 C1894 0.959 . S
H1880 C1894 0.961 . S
H1881 C1895 0.960 . S
H1882 C1895 0.961 . S
H1883 C1895 0.959 . S
H1884 C1898 0.929 . S
H1885 C1899 0.931 . S
H1886 C1901 0.930 . S
C1887 H1875 0.930 . S
C1887 C1888 1.399 . S
C1887 C1892 1.399 . S
C1888 C1887 1.399 . S
C1888 C1889 1.376 . S
C1889 H1876 0.930 . S
C1889 C1888 1.376 . S
C1889 C1890 1.388 . S
C1890 H1877 0.930 . S
C1890 C1889 1.388 . S
C1890 C1891 1.390 . S
C1891 C1890 1.390 . S
C1891 C1892 1.394 . S
C1891 C1897 1.465 . S
C1892 C1887 1.399 . S
C1892 C1891 1.394 . S
C1892 C1893 1.516 . S
C1893 C1892 1.516 . S
C1893 C1894 1.502 . S
C1893 C1895 1.561 . S
C1893 C1896 1.526 . S
C1894 H1878 0.959 . S
C1894 H1879 0.959 . S
C1894 H1880 0.961 . S
C1894 C1893 1.502 . S
C1895 H1881 0.960 . S
C1895 H1882 0.961 . S
C1895 H1883 0.959 . S
C1895 C1893 1.561 . S
C1896 C1893 1.526 . S
C1896 C1897 1.396 . S
C1896 C1901 1.390 . S
C1897 C1891 1.465 . S
C1897 C1896 1.396 . S
C1897 C1898 1.399 . S
C1898 H1884 0.929 . S
C1898 C1897 1.399 . S
C1898 C1899 1.385 . S
C1899 H1885 0.931 . S
C1899 C1898 1.385 . S
C1899 C1900 1.389 . S
C1900 C1899 1.389 . S
C1900 C1901 1.387 . S
C1901 H1886 0.930 . S
C1901 C1896 1.390 . S
C1901 C1900 1.387 . S
H1902 C1914 0.930 . S
H1903 C1916 0.930 . S
H1904 C1917 0.930 . S
H1905 C1921 0.959 . S
H1906 C1921 0.959 . S
H1907 C1921 0.961 . S
H1908 C1922 0.960 . S
H1909 C1922 0.961 . S
H1910 C1922 0.959 . S
H1911 C1925 0.929 . S
H1912 C1926 0.931 . S
H1913 C1928 0.930 . S
C1914 H1902 0.930 . S
C1914 C1915 1.399 . S
C1914 C1919 1.399 . S
C1915 C1914 1.399 . S
C1915 C1916 1.376 . S
C1916 H1903 0.930 . S
C1916 C1915 1.376 . S
C1916 C1917 1.388 . S
C1917 H1904 0.930 . S
C1917 C1916 1.388 . S
C1917 C1918 1.390 . S
C1918 C1917 1.390 . S
C1918 C1919 1.394 . S
C1918 C1924 1.465 . S
C1919 C1914 1.399 . S
C1919 C1918 1.394 . S
C1919 C1920 1.516 . S
C1920 C1919 1.516 . S
C1920 C1921 1.502 . S
C1920 C1922 1.561 . S
C1920 C1923 1.526 . S
C1921 H1905 0.959 . S
C1921 H1906 0.959 . S
C1921 H1907 0.961 . S
C1921 C1920 1.502 . S
C1922 H1908 0.960 . S
C1922 H1909 0.961 . S
C1922 H1910 0.959 . S
C1922 C1920 1.561 . S
C1923 C1920 1.526 . S
C1923 C1924 1.396 . S
C1923 C1928 1.390 . S
C1924 C1918 1.465 . S
C1924 C1923 1.396 . S
C1924 C1925 1.399 . S
C1925 H1911 0.929 . S
C1925 C1924 1.399 . S
C1925 C1926 1.385 . S
C1926 H1912 0.931 . S
C1926 C1925 1.385 . S
C1926 C1927 1.389 . S
C1927 C1926 1.389 . S
C1927 C1928 1.387 . S
C1928 H1913 0.930 . S
C1928 C1923 1.390 . S
C1928 C1927 1.387 . S
H1929 C1941 0.930 . S
H1930 C1943 0.930 . S
H1931 C1944 0.930 . S
H1932 C1948 0.959 . S
H1933 C1948 0.959 . S
H1934 C1948 0.961 . S
H1935 C1949 0.960 . S
H1936 C1949 0.961 . S
H1937 C1949 0.959 . S
H1938 C1952 0.929 . S
H1939 C1953 0.931 . S
H1940 C1955 0.930 . S
C1941 H1929 0.930 . S
C1941 C1942 1.399 . S
C1941 C1946 1.399 . S
C1942 C1941 1.399 . S
C1942 C1943 1.376 . S
C1943 H1930 0.930 . S
C1943 C1942 1.376 . S
C1943 C1944 1.388 . S
C1944 H1931 0.930 . S
C1944 C1943 1.388 . S
C1944 C1945 1.390 . S
C1945 C1944 1.390 . S
C1945 C1946 1.394 . S
C1945 C1951 1.465 . S
C1946 C1941 1.399 . S
C1946 C1945 1.394 . S
C1946 C1947 1.516 . S
C1947 C1946 1.516 . S
C1947 C1948 1.502 . S
C1947 C1949 1.561 . S
C1947 C1950 1.526 . S
C1948 H1932 0.959 . S
C1948 H1933 0.959 . S
C1948 H1934 0.961 . S
C1948 C1947 1.502 . S
C1949 H1935 0.960 . S
C1949 H1936 0.961 . S
C1949 H1937 0.959 . S
C1949 C1947 1.561 . S
C1950 C1947 1.526 . S
C1950 C1951 1.396 . S
C1950 C1955 1.390 . S
C1951 C1945 1.465 . S
C1951 C1950 1.396 . S
C1951 C1952 1.399 . S
C1952 H1938 0.929 . S
C1952 C1951 1.399 . S
C1952 C1953 1.385 . S
C1953 H1939 0.931 . S
C1953 C1952 1.385 . S
C1953 C1954 1.389 . S
C1954 C1953 1.389 . S
C1954 C1955 1.387 . S
C1955 H1940 0.930 . S
C1955 C1950 1.390 . S
C1955 C1954 1.387 . S
H1956 C1968 0.930 . S
H1957 C1970 0.930 . S
H1958 C1971 0.930 . S
H1959 C1975 0.959 . S
H1960 C1975 0.959 . S
H1961 C1975 0.961 . S
H1962 C1976 0.960 . S
H1963 C1976 0.961 . S
H1964 C1976 0.959 . S
H1965 C1979 0.929 . S
H1966 C1980 0.931 . S
H1967 C1982 0.930 . S
C1968 H1956 0.930 . S
C1968 C1969 1.399 . S
C1968 C1973 1.399 . S
C1969 C1968 1.399 . S
C1969 C1970 1.376 . S
C1970 H1957 0.930 . S
C1970 C1969 1.376 . S
C1970 C1971 1.388 . S
C1971 H1958 0.930 . S
C1971 C1970 1.388 . S
C1971 C1972 1.390 . S
C1972 C1971 1.390 . S
C1972 C1973 1.394 . S
C1972 C1978 1.465 . S
C1973 C1968 1.399 . S
C1973 C1972 1.394 . S
C1973 C1974 1.516 . S
C1974 C1973 1.516 . S
C1974 C1975 1.502 . S
C1974 C1976 1.561 . S
C1974 C1977 1.526 . S
C1975 H1959 0.959 . S
C1975 H1960 0.959 . S
C1975 H1961 0.961 . S
C1975 C1974 1.502 . S
C1976 H1962 0.960 . S
C1976 H1963 0.961 . S
C1976 H1964 0.959 . S
C1976 C1974 1.561 . S
C1977 C1974 1.526 . S
C1977 C1978 1.396 . S
C1977 C1982 1.390 . S
C1978 C1972 1.465 . S
C1978 C1977 1.396 . S
C1978 C1979 1.399 . S
C1979 H1965 0.929 . S
C1979 C1978 1.399 . S
C1979 C1980 1.385 . S
C1980 H1966 0.931 . S
C1980 C1979 1.385 . S
C1980 C1981 1.389 . S
C1981 C1980 1.389 . S
C1981 C1982 1.387 . S
C1982 H1967 0.930 . S
C1982 C1977 1.390 . S
C1982 C1981 1.387 . S
H1983 C1995 0.930 . S
H1984 C1997 0.930 . S
H1985 C1998 0.930 . S
H1986 C2002 0.959 . S
H1987 C2002 0.959 . S
H1988 C2002 0.961 . S
H1989 C2003 0.960 . S
H1990 C2003 0.961 . S
H1991 C2003 0.959 . S
H1992 C2006 0.929 . S
H1993 C2007 0.931 . S
H1994 C2009 0.930 . S
C1995 H1983 0.930 . S
C1995 C1996 1.399 . S
C1995 C2000 1.399 . S
C1996 C1995 1.399 . S
C1996 C1997 1.376 . S
C1997 H1984 0.930 . S
C1997 C1996 1.376 . S
C1997 C1998 1.388 . S
C1998 H1985 0.930 . S
C1998 C1997 1.388 . S
C1998 C1999 1.390 . S
C1999 C1998 1.390 . S
C1999 C2000 1.394 . S
C1999 C2005 1.465 . S
C2000 C1995 1.399 . S
C2000 C1999 1.394 . S
C2000 C2001 1.516 . S
C2001 C2000 1.516 . S
C2001 C2002 1.502 . S
C2001 C2003 1.561 . S
C2001 C2004 1.526 . S
C2002 H1986 0.959 . S
C2002 H1987 0.959 . S
C2002 H1988 0.961 . S
C2002 C2001 1.502 . S
C2003 H1989 0.960 . S
C2003 H1990 0.961 . S
C2003 H1991 0.959 . S
C2003 C2001 1.561 . S
C2004 C2001 1.526 . S
C2004 C2005 1.396 . S
C2004 C2009 1.390 . S
C2005 C1999 1.465 . S
C2005 C2004 1.396 . S
C2005 C2006 1.399 . S
C2006 H1992 0.929 . S
C2006 C2005 1.399 . S
C2006 C2007 1.385 . S
C2007 H1993 0.931 . S
C2007 C2006 1.385 . S
C2007 C2008 1.389 . S
C2008 C2007 1.389 . S
C2008 C2009 1.387 . S
C2009 H1994 0.930 . S
C2009 C2004 1.390 . S
C2009 C2008 1.387 . S
H2010 C2022 0.930 . S
H2011 C2024 0.930 . S
H2012 C2025 0.930 . S
H2013 C2029 0.959 . S
H2014 C2029 0.959 . S
H2015 C2029 0.961 . S
H2016 C2030 0.960 . S
H2017 C2030 0.961 . S
H2018 C2030 0.959 . S
H2019 C2033 0.929 . S
H2020 C2034 0.931 . S
H2021 C2036 0.930 . S
C2022 H2010 0.930 . S
C2022 C2023 1.399 . S
C2022 C2027 1.399 . S
C2023 C2022 1.399 . S
C2023 C2024 1.376 . S
C2024 H2011 0.930 . S
C2024 C2023 1.376 . S
C2024 C2025 1.388 . S
C2025 H2012 0.930 . S
C2025 C2024 1.388 . S
C2025 C2026 1.390 . S
C2026 C2025 1.390 . S
C2026 C2027 1.394 . S
C2026 C2032 1.465 . S
C2027 C2022 1.399 . S
C2027 C2026 1.394 . S
C2027 C2028 1.516 . S
C2028 C2027 1.516 . S
C2028 C2029 1.502 . S
C2028 C2030 1.561 . S
C2028 C2031 1.526 . S
C2029 H2013 0.959 . S
C2029 H2014 0.959 . S
C2029 H2015 0.961 . S
C2029 C2028 1.502 . S
C2030 H2016 0.960 . S
C2030 H2017 0.961 . S
C2030 H2018 0.959 . S
C2030 C2028 1.561 . S
C2031 C2028 1.526 . S
C2031 C2032 1.396 . S
C2031 C2036 1.390 . S
C2032 C2026 1.465 . S
C2032 C2031 1.396 . S
C2032 C2033 1.399 . S
C2033 H2019 0.929 . S
C2033 C2032 1.399 . S
C2033 C2034 1.385 . S
C2034 H2020 0.931 . S
C2034 C2033 1.385 . S
C2034 C2035 1.389 . S
C2035 C2034 1.389 . S
C2035 C2036 1.387 . S
C2036 H2021 0.930 . S
C2036 C2031 1.390 . S
C2036 C2035 1.387 . S
H2037 C2049 0.930 . S
H2038 C2051 0.930 . S
H2039 C2052 0.930 . S
H2040 C2056 0.959 . S
H2041 C2056 0.959 . S
H2042 C2056 0.961 . S
H2043 C2057 0.960 . S
H2044 C2057 0.961 . S
H2045 C2057 0.959 . S
H2046 C2060 0.929 . S
H2047 C2061 0.931 . S
H2048 C2063 0.930 . S
C2049 H2037 0.930 . S
C2049 C2050 1.399 . S
C2049 C2054 1.399 . S
C2050 C2049 1.399 . S
C2050 C2051 1.376 . S
C2051 H2038 0.930 . S
C2051 C2050 1.376 . S
C2051 C2052 1.388 . S
C2052 H2039 0.930 . S
C2052 C2051 1.388 . S
C2052 C2053 1.390 . S
C2053 C2052 1.390 . S
C2053 C2054 1.394 . S
C2053 C2059 1.465 . S
C2054 C2049 1.399 . S
C2054 C2053 1.394 . S
C2054 C2055 1.516 . S
C2055 C2054 1.516 . S
C2055 C2056 1.502 . S
C2055 C2057 1.561 . S
C2055 C2058 1.526 . S
C2056 H2040 0.959 . S
C2056 H2041 0.959 . S
C2056 H2042 0.961 . S
C2056 C2055 1.502 . S
C2057 H2043 0.960 . S
C2057 H2044 0.961 . S
C2057 H2045 0.959 . S
C2057 C2055 1.561 . S
C2058 C2055 1.526 . S
C2058 C2059 1.396 . S
C2058 C2063 1.390 . S
C2059 C2053 1.465 . S
C2059 C2058 1.396 . S
C2059 C2060 1.399 . S
C2060 H2046 0.929 . S
C2060 C2059 1.399 . S
C2060 C2061 1.385 . S
C2061 H2047 0.931 . S
C2061 C2060 1.385 . S
C2061 C2062 1.389 . S
C2062 C2061 1.389 . S
C2062 C2063 1.387 . S
C2063 H2048 0.930 . S
C2063 C2058 1.390 . S
C2063 C2062 1.387 . S
H2064 C2076 0.930 . S
H2065 C2078 0.930 . S
H2066 C2079 0.930 . S
H2067 C2083 0.959 . S
H2068 C2083 0.959 . S
H2069 C2083 0.961 1_556 S
H2070 C2084 0.960 1_556 S
H2071 C2084 0.961 . S
H2072 C2084 0.959 . S
H2073 C2087 0.929 . S
H2074 C2088 0.931 . S
H2075 C2090 0.930 . S
C2076 H2064 0.930 . S
C2076 C2077 1.399 . S
C2076 C2081 1.399 . S
C2077 C2076 1.399 . S
C2077 C2078 1.376 1_565 S
C2078 H2065 0.930 . S
C2078 C2077 1.376 1_545 S
C2078 C2079 1.388 . S
C2079 H2066 0.930 . S
C2079 C2078 1.388 . S
C2079 C2080 1.390 . S
C2080 C2079 1.390 . S
C2080 C2081 1.394 1_545 S
C2080 C2086 1.465 1_556 S
C2081 C2076 1.399 . S
C2081 C2080 1.394 1_565 S
C2081 C2082 1.516 1_556 S
C2082 C2081 1.516 1_554 S
C2082 C2083 1.502 . S
C2082 C2084 1.561 . S
C2082 C2085 1.526 . S
C2083 H2067 0.959 . S
C2083 H2068 0.959 . S
C2083 H2069 0.961 1_554 S
C2083 C2082 1.502 . S
C2084 H2070 0.960 1_554 S
C2084 H2071 0.961 . S
C2084 H2072 0.959 . S
C2084 C2082 1.561 . S
C2085 C2082 1.526 . S
C2085 C2086 1.396 1_565 S
C2085 C2090 1.390 . S
C2086 C2080 1.465 1_554 S
C2086 C2085 1.396 1_545 S
C2086 C2087 1.399 . S
C2087 H2073 0.929 . S
C2087 C2086 1.399 . S
C2087 C2088 1.385 . S
C2088 H2074 0.931 . S
C2088 C2087 1.385 . S
C2088 C2089 1.389 . S
C2089 C2088 1.389 . S
C2089 C2090 1.387 1_545 S
C2090 H2075 0.930 . S
C2090 C2085 1.390 . S
C2090 C2089 1.387 1_565 S
H2091 C2103 0.930 . S
H2092 C2105 0.930 . S
H2093 C2106 0.930 . S
H2094 C2110 0.959 . S
H2095 C2110 0.959 . S
H2096 C2110 0.961 . S
H2097 C2111 0.960 . S
H2098 C2111 0.961 . S
H2099 C2111 0.959 . S
H2100 C2114 0.929 . S
H2101 C2115 0.931 . S
H2102 C2117 0.930 . S
C2103 H2091 0.930 . S
C2103 C2104 1.399 . S
C2103 C2108 1.399 . S
C2104 C2103 1.399 . S
C2104 C2105 1.376 . S
C2105 H2092 0.930 . S
C2105 C2104 1.376 . S
C2105 C2106 1.388 . S
C2106 H2093 0.930 . S
C2106 C2105 1.388 . S
C2106 C2107 1.390 . S
C2107 C2106 1.390 . S
C2107 C2108 1.394 . S
C2107 C2113 1.465 . S
C2108 C2103 1.399 . S
C2108 C2107 1.394 . S
C2108 C2109 1.516 . S
C2109 C2108 1.516 . S
C2109 C2110 1.502 . S
C2109 C2111 1.561 . S
C2109 C2112 1.526 . S
C2110 H2094 0.959 . S
C2110 H2095 0.959 . S
C2110 H2096 0.961 . S
C2110 C2109 1.502 . S
C2111 H2097 0.960 . S
C2111 H2098 0.961 . S
C2111 H2099 0.959 . S
C2111 C2109 1.561 . S
C2112 C2109 1.526 . S
C2112 C2113 1.396 . S
C2112 C2117 1.390 . S
C2113 C2107 1.465 . S
C2113 C2112 1.396 . S
C2113 C2114 1.399 . S
C2114 H2100 0.929 . S
C2114 C2113 1.399 . S
C2114 C2115 1.385 . S
C2115 H2101 0.931 . S
C2115 C2114 1.385 . S
C2115 C2116 1.389 . S
C2116 C2115 1.389 . S
C2116 C2117 1.387 . S
C2117 H2102 0.930 . S
C2117 C2112 1.390 . S
C2117 C2116 1.387 . S
H2118 C2130 0.930 . S
H2119 C2132 0.930 . S
H2120 C2133 0.930 . S
H2121 C2137 0.959 . S
H2122 C2137 0.959 . S
H2123 C2137 0.961 1_556 S
H2124 C2138 0.960 1_556 S
H2125 C2138 0.961 . S
H2126 C2138 0.961 1_655 S
H2127 C2141 0.929 . S
H2128 C2142 0.931 . S
H2129 C2144 0.930 . S
C2130 H2118 0.930 . S
C2130 C2131 1.399 . S
C2130 C2135 1.399 . S
C2131 C2130 1.399 . S
C2131 C2132 1.376 1_455 S
C2132 H2119 0.930 . S
C2132 C2131 1.376 1_655 S
C2132 C2133 1.388 . S
C2133 H2120 0.930 . S
C2133 C2132 1.388 . S
C2133 C2134 1.390 . S
C2134 C2133 1.390 . S
C2134 C2135 1.394 1_655 S
C2134 C2140 1.465 1_556 S
C2135 C2130 1.399 . S
C2135 C2134 1.394 1_455 S
C2135 C2136 1.516 1_556 S
C2136 C2135 1.516 1_554 S
C2136 C2137 1.502 . S
C2136 C2138 1.561 . S
C2136 C2139 1.526 . S
C2137 H2121 0.959 . S
C2137 H2122 0.959 . S
C2137 H2123 0.961 1_554 S
C2137 C2136 1.502 . S
C2138 H2124 0.960 1_554 S
C2138 H2125 0.961 . S
C2138 H2126 0.961 1_455 S
C2138 C2136 1.561 . S
C2139 C2136 1.526 . S
C2139 C2140 1.396 1_455 S
C2139 C2144 1.390 . S
C2140 C2134 1.465 1_554 S
C2140 C2139 1.396 1_655 S
C2140 C2141 1.399 . S
C2141 H2127 0.929 . S
C2141 C2140 1.399 . S
C2141 C2142 1.385 . S
C2142 H2128 0.931 . S
C2142 C2141 1.385 . S
C2142 C2143 1.389 . S
C2143 C2142 1.389 . S
C2143 C2144 1.387 1_655 S
C2144 H2129 0.930 . S
C2144 C2139 1.390 . S
C2144 C2143 1.387 1_455 S
H2145 C2157 0.930 . S
H2146 C2159 0.930 . S
H2147 C2160 0.930 . S
H2148 C2164 0.959 . S
H2149 C2164 0.959 . S
H2150 C2164 0.961 . S
H2151 C2165 0.960 . S
H2152 C2165 0.961 . S
H2153 C2165 0.959 . S
H2154 C2168 0.929 . S
H2155 C2169 0.931 . S
H2156 C2171 0.930 . S
C2157 H2145 0.930 . S
C2157 C2158 1.399 . S
C2157 C2162 1.399 . S
C2158 C2157 1.399 . S
C2158 C2159 1.376 1_545 S
C2159 H2146 0.930 . S
C2159 C2158 1.376 1_565 S
C2159 C2160 1.388 . S
C2160 H2147 0.930 . S
C2160 C2159 1.388 . S
C2160 C2161 1.390 . S
C2161 C2160 1.390 . S
C2161 C2162 1.394 1_565 S
C2161 C2167 1.465 . S
C2162 C2157 1.399 . S
C2162 C2161 1.394 1_545 S
C2162 C2163 1.516 . S
C2163 C2162 1.516 . S
C2163 C2164 1.502 . S
C2163 C2165 1.561 . S
C2163 C2166 1.526 . S
C2164 H2148 0.959 . S
C2164 H2149 0.959 . S
C2164 H2150 0.961 . S
C2164 C2163 1.502 . S
C2165 H2151 0.960 . S
C2165 H2152 0.961 . S
C2165 H2153 0.959 . S
C2165 C2163 1.561 . S
C2166 C2163 1.526 . S
C2166 C2167 1.396 1_545 S
C2166 C2171 1.390 . S
C2167 C2161 1.465 . S
C2167 C2166 1.396 1_565 S
C2167 C2168 1.399 . S
C2168 H2154 0.929 . S
C2168 C2167 1.399 . S
C2168 C2169 1.385 . S
C2169 H2155 0.931 . S
C2169 C2168 1.385 . S
C2169 C2170 1.389 . S
C2170 C2169 1.389 . S
C2170 C2171 1.387 1_565 S
C2171 H2156 0.930 . S
C2171 C2166 1.390 . S
C2171 C2170 1.387 1_545 S
H2172 C2184 0.930 . S
H2173 C2186 0.930 . S
H2174 C2187 0.930 . S
H2175 C2191 0.959 . S
H2176 C2191 0.959 . S
H2177 C2191 0.961 1_554 S
H2178 C2192 0.960 1_554 S
H2179 C2192 0.961 . S
H2180 C2192 0.959 . S
H2181 C2195 0.929 . S
H2182 C2196 0.931 . S
H2183 C2198 0.930 . S
C2184 H2172 0.930 . S
C2184 C2185 1.399 . S
C2184 C2189 1.399 . S
C2185 C2184 1.399 . S
C2185 C2186 1.376 . S
C2186 H2173 0.930 . S
C2186 C2185 1.376 . S
C2186 C2187 1.388 . S
C2187 H2174 0.930 . S
C2187 C2186 1.388 . S
C2187 C2188 1.390 . S
C2188 C2187 1.390 . S
C2188 C2189 1.394 . S
C2188 C2194 1.465 1_554 S
C2189 C2184 1.399 . S
C2189 C2188 1.394 . S
C2189 C2190 1.516 1_554 S
C2190 C2189 1.516 1_556 S
C2190 C2191 1.502 . S
C2190 C2192 1.561 . S
C2190 C2193 1.526 . S
C2191 H2175 0.959 . S
C2191 H2176 0.959 . S
C2191 H2177 0.961 1_556 S
C2191 C2190 1.502 . S
C2192 H2178 0.960 1_556 S
C2192 H2179 0.961 . S
C2192 H2180 0.959 . S
C2192 C2190 1.561 . S
C2193 C2190 1.526 . S
C2193 C2194 1.396 . S
C2193 C2198 1.390 . S
C2194 C2188 1.465 1_556 S
C2194 C2193 1.396 . S
C2194 C2195 1.399 . S
C2195 H2181 0.929 . S
C2195 C2194 1.399 . S
C2195 C2196 1.385 . S
C2196 H2182 0.931 . S
C2196 C2195 1.385 . S
C2196 C2197 1.389 . S
C2197 C2196 1.389 . S
C2197 C2198 1.387 . S
C2198 H2183 0.930 . S
C2198 C2193 1.390 . S
C2198 C2197 1.387 . S
H2199 C2211 0.931 1_655 S
H2200 C2213 0.930 . S
H2201 C2214 0.930 . S
H2202 C2218 0.959 . S
H2203 C2218 0.959 1_655 S
H2204 C2218 0.961 . S
H2205 C2219 0.960 . S
H2206 C2219 0.961 . S
H2207 C2219 0.959 . S
H2208 C2222 0.929 . S
H2209 C2223 0.931 . S
H2210 C2225 0.930 . S
C2211 H2199 0.931 1_455 S
C2211 C2212 1.399 . S
C2211 C2216 1.399 1_455 S
C2212 C2211 1.399 . S
C2212 C2213 1.376 . S
C2213 H2200 0.930 . S
C2213 C2212 1.376 . S
C2213 C2214 1.388 . S
C2214 H2201 0.930 . S
C2214 C2213 1.388 . S
C2214 C2215 1.390 . S
C2215 C2214 1.390 . S
C2215 C2216 1.394 1_455 S
C2215 C2221 1.465 1_455 S
C2216 C2211 1.399 1_655 S
C2216 C2215 1.394 1_655 S
C2216 C2217 1.516 . S
C2217 C2216 1.516 . S
C2217 C2218 1.502 1_655 S
C2217 C2219 1.561 . S
C2217 C2220 1.526 . S
C2218 H2202 0.959 . S
C2218 H2203 0.959 1_455 S
C2218 H2204 0.961 . S
C2218 C2217 1.502 1_455 S
C2219 H2205 0.960 . S
C2219 H2206 0.961 . S
C2219 H2207 0.959 . S
C2219 C2217 1.561 . S
C2220 C2217 1.526 . S
C2220 C2221 1.396 . S
C2220 C2225 1.390 . S
C2221 C2215 1.465 1_655 S
C2221 C2220 1.396 . S
C2221 C2222 1.399 1_655 S
C2222 H2208 0.929 . S
C2222 C2221 1.399 1_455 S
C2222 C2223 1.385 1_455 S
C2223 H2209 0.931 . S
C2223 C2222 1.385 1_655 S
C2223 C2224 1.389 . S
C2224 C2223 1.389 . S
C2224 C2225 1.387 . S
C2225 H2210 0.930 . S
C2225 C2220 1.390 . S
C2225 C2224 1.387 . S
H2226 C2238 0.930 . S
H2227 C2240 0.930 . S
H2228 C2241 0.930 . S
H2229 C2245 0.959 . S
H2230 C2245 0.959 . S
H2231 C2245 0.961 1_556 S
H2232 C2246 0.960 1_556 S
H2233 C2246 0.961 . S
H2234 C2246 0.959 . S
H2235 C2249 0.929 . S
H2236 C2250 0.931 . S
H2237 C2252 0.930 . S
C2238 H2226 0.930 . S
C2238 C2239 1.399 . S
C2238 C2243 1.399 . S
C2239 C2238 1.399 . S
C2239 C2240 1.376 1_565 S
C2240 H2227 0.930 . S
C2240 C2239 1.376 1_545 S
C2240 C2241 1.388 . S
C2241 H2228 0.930 . S
C2241 C2240 1.388 . S
C2241 C2242 1.390 . S
C2242 C2241 1.390 . S
C2242 C2243 1.394 1_545 S
C2242 C2248 1.465 1_556 S
C2243 C2238 1.399 . S
C2243 C2242 1.394 1_565 S
C2243 C2244 1.516 1_556 S
C2244 C2243 1.516 1_554 S
C2244 C2245 1.502 . S
C2244 C2246 1.561 . S
C2244 C2247 1.526 . S
C2245 H2229 0.959 . S
C2245 H2230 0.959 . S
C2245 H2231 0.961 1_554 S
C2245 C2244 1.502 . S
C2246 H2232 0.960 1_554 S
C2246 H2233 0.961 . S
C2246 H2234 0.959 . S
C2246 C2244 1.561 . S
C2247 C2244 1.526 . S
C2247 C2248 1.396 1_565 S
C2247 C2252 1.390 . S
C2248 C2242 1.465 1_554 S
C2248 C2247 1.396 1_545 S
C2248 C2249 1.399 . S
C2249 H2235 0.929 . S
C2249 C2248 1.399 . S
C2249 C2250 1.385 . S
C2250 H2236 0.931 . S
C2250 C2249 1.385 . S
C2250 C2251 1.389 . S
C2251 C2250 1.389 . S
C2251 C2252 1.387 1_545 S
C2252 H2237 0.930 . S
C2252 C2247 1.390 . S
C2252 C2251 1.387 1_565 S
H2253 C2265 0.930 . S
H2254 C2267 0.930 . S
H2255 C2268 0.930 . S
H2256 C2272 0.959 . S
H2257 C2272 0.959 . S
H2258 C2272 0.961 . S
H2259 C2273 0.960 . S
H2260 C2273 0.961 . S
H2261 C2273 0.959 . S
H2262 C2276 0.929 . S
H2263 C2277 0.931 . S
H2264 C2279 0.930 . S
C2265 H2253 0.930 . S
C2265 C2266 1.399 . S
C2265 C2270 1.399 . S
C2266 C2265 1.399 . S
C2266 C2267 1.376 . S
C2267 H2254 0.930 . S
C2267 C2266 1.376 . S
C2267 C2268 1.388 . S
C2268 H2255 0.930 . S
C2268 C2267 1.388 . S
C2268 C2269 1.390 . S
C2269 C2268 1.390 . S
C2269 C2270 1.394 . S
C2269 C2275 1.465 . S
C2270 C2265 1.399 . S
C2270 C2269 1.394 . S
C2270 C2271 1.516 . S
C2271 C2270 1.516 . S
C2271 C2272 1.502 . S
C2271 C2273 1.561 . S
C2271 C2274 1.526 . S
C2272 H2256 0.959 . S
C2272 H2257 0.959 . S
C2272 H2258 0.961 . S
C2272 C2271 1.502 . S
C2273 H2259 0.960 . S
C2273 H2260 0.961 . S
C2273 H2261 0.959 . S
C2273 C2271 1.561 . S
C2274 C2271 1.526 . S
C2274 C2275 1.396 . S
C2274 C2279 1.390 . S
C2275 C2269 1.465 . S
C2275 C2274 1.396 . S
C2275 C2276 1.399 . S
C2276 H2262 0.929 . S
C2276 C2275 1.399 . S
C2276 C2277 1.385 . S
C2277 H2263 0.931 . S
C2277 C2276 1.385 . S
C2277 C2278 1.389 . S
C2278 C2277 1.389 . S
C2278 C2279 1.387 . S
C2279 H2264 0.930 . S
C2279 C2274 1.390 . S
C2279 C2278 1.387 . S
H2280 C2292 0.930 . S
H2281 C2294 0.930 . S
H2282 C2295 0.930 . S
H2283 C2299 0.959 . S
H2284 C2299 0.959 . S
H2285 C2299 0.961 1_554 S
H2286 C2300 0.960 . S
H2287 C2300 0.961 1_556 S
H2288 C2300 0.959 . S
H2289 C2303 0.930 . S
H2290 C2304 0.931 . S
H2291 C2306 0.930 . S
C2292 H2280 0.930 . S
C2292 C2293 1.399 . S
C2292 C2297 1.400 1_655 S
C2293 C2292 1.399 . S
C2293 C2294 1.376 . S
C2294 H2281 0.930 . S
C2294 C2293 1.376 . S
C2294 C2295 1.388 . S
C2295 H2282 0.930 . S
C2295 C2294 1.388 . S
C2295 C2296 1.390 . S
C2296 C2295 1.390 . S
C2296 C2297 1.392 1_655 S
C2296 C2302 1.465 1_654 S
C2297 C2292 1.400 1_455 S
C2297 C2296 1.392 1_455 S
C2297 C2298 1.516 . S
C2298 C2297 1.516 . S
C2298 C2299 1.502 1_454 S
C2298 C2300 1.561 . S
C2298 C2301 1.526 1_554 S
C2299 H2283 0.959 . S
C2299 H2284 0.959 . S
C2299 H2285 0.961 1_556 S
C2299 C2298 1.502 1_656 S
C2300 H2286 0.960 . S
C2300 H2287 0.961 1_554 S
C2300 H2288 0.959 . S
C2300 C2298 1.561 . S
C2301 C2298 1.526 1_556 S
C2301 C2302 1.396 . S
C2301 C2306 1.390 . S
C2302 C2296 1.465 1_456 S
C2302 C2301 1.396 . S
C2302 C2303 1.399 . S
C2303 H2289 0.930 . S
C2303 C2302 1.399 . S
C2303 C2304 1.385 . S
C2304 H2290 0.931 . S
C2304 C2303 1.385 . S
C2304 C2305 1.389 . S
C2305 C2304 1.389 . S
C2305 C2306 1.387 . S
C2306 H2291 0.930 . S
C2306 C2301 1.390 . S
C2306 C2305 1.387 . S
H2307 C2319 0.930 . S
H2308 C2321 0.930 . S
H2309 C2322 0.930 . S
H2310 C2326 0.959 . S
H2311 C2326 0.959 . S
H2312 C2326 0.961 . S
H2313 C2327 0.960 . S
H2314 C2327 0.961 . S
H2315 C2327 0.959 . S
H2316 C2330 0.929 . S
H2317 C2331 0.931 . S
H2318 C2333 0.930 . S
C2319 H2307 0.930 . S
C2319 C2320 1.399 1_545 S
C2319 C2324 1.399 . S
C2320 C2319 1.399 1_565 S
C2320 C2321 1.376 . S
C2321 H2308 0.930 . S
C2321 C2320 1.376 . S
C2321 C2322 1.388 . S
C2322 H2309 0.930 . S
C2322 C2321 1.388 . S
C2322 C2323 1.390 . S
C2323 C2322 1.390 . S
C2323 C2324 1.394 1_565 S
C2323 C2329 1.465 . S
C2324 C2319 1.399 . S
C2324 C2323 1.394 1_545 S
C2324 C2325 1.516 . S
C2325 C2324 1.516 . S
C2325 C2326 1.502 . S
C2325 C2327 1.561 . S
C2325 C2328 1.526 . S
C2326 H2310 0.959 . S
C2326 H2311 0.959 . S
C2326 H2312 0.961 . S
C2326 C2325 1.502 . S
C2327 H2313 0.960 . S
C2327 H2314 0.961 . S
C2327 H2315 0.959 . S
C2327 C2325 1.561 . S
C2328 C2325 1.526 . S
C2328 C2329 1.396 1_545 S
C2328 C2333 1.390 . S
C2329 C2323 1.465 . S
C2329 C2328 1.396 1_565 S
C2329 C2330 1.399 . S
C2330 H2316 0.929 . S
C2330 C2329 1.399 . S
C2330 C2331 1.385 . S
C2331 H2317 0.931 . S
C2331 C2330 1.385 . S
C2331 C2332 1.389 1_565 S
C2332 C2331 1.389 1_545 S
C2332 C2333 1.387 . S
C2333 H2318 0.930 . S
C2333 C2328 1.390 . S
C2333 C2332 1.387 . S
H2334 C2346 0.930 . S
H2335 C2348 0.930 . S
H2336 C2349 0.930 . S
H2337 C2353 0.959 . S
H2338 C2353 0.959 . S
H2339 C2353 0.961 1_554 S
H2340 C2354 0.960 1_554 S
H2341 C2354 0.961 . S
H2342 C2354 0.959 . S
H2343 C2357 0.929 . S
H2344 C2358 0.931 . S
H2345 C2360 0.930 . S
C2346 H2334 0.930 . S
C2346 C2347 1.399 . S
C2346 C2351 1.399 . S
C2347 C2346 1.399 . S
C2347 C2348 1.376 . S
C2348 H2335 0.930 . S
C2348 C2347 1.376 . S
C2348 C2349 1.388 . S
C2349 H2336 0.930 . S
C2349 C2348 1.388 . S
C2349 C2350 1.390 . S
C2350 C2349 1.390 . S
C2350 C2351 1.394 . S
C2350 C2356 1.465 1_554 S
C2351 C2346 1.399 . S
C2351 C2350 1.394 . S
C2351 C2352 1.516 1_554 S
C2352 C2351 1.516 1_556 S
C2352 C2353 1.502 . S
C2352 C2354 1.561 . S
C2352 C2355 1.526 . S
C2353 H2337 0.959 . S
C2353 H2338 0.959 . S
C2353 H2339 0.961 1_556 S
C2353 C2352 1.502 . S
C2354 H2340 0.960 1_556 S
C2354 H2341 0.961 . S
C2354 H2342 0.959 . S
C2354 C2352 1.561 . S
C2355 C2352 1.526 . S
C2355 C2356 1.396 . S
C2355 C2360 1.390 . S
C2356 C2350 1.465 1_556 S
C2356 C2355 1.396 . S
C2356 C2357 1.399 . S
C2357 H2343 0.929 . S
C2357 C2356 1.399 . S
C2357 C2358 1.385 . S
C2358 H2344 0.931 . S
C2358 C2357 1.385 . S
C2358 C2359 1.389 . S
C2359 C2358 1.389 . S
C2359 C2360 1.387 . S
C2360 H2345 0.930 . S
C2360 C2355 1.390 . S
C2360 C2359 1.387 . S
H2361 C2373 0.930 . S
H2362 C2375 0.930 . S
H2363 C2376 0.930 . S
H2364 C2380 0.959 . S
H2365 C2380 0.959 . S
H2366 C2380 0.961 . S
H2367 C2381 0.960 . S
H2368 C2381 0.961 . S
H2369 C2381 0.959 . S
H2370 C2384 0.929 . S
H2371 C2385 0.931 . S
H2372 C2387 0.930 . S
C2373 H2361 0.930 . S
C2373 C2374 1.399 . S
C2373 C2378 1.403 . S
C2374 C2373 1.399 . S
C2374 C2375 1.376 . S
C2375 H2362 0.930 . S
C2375 C2374 1.376 . S
C2375 C2376 1.388 . S
C2376 H2363 0.930 . S
C2376 C2375 1.388 . S
C2376 C2377 1.390 . S
C2377 C2376 1.390 . S
C2377 C2378 1.388 . S
C2377 C2383 1.465 1_455 S
C2378 C2373 1.403 . S
C2378 C2377 1.388 . S
C2378 C2379 1.518 1_455 S
C2379 C2378 1.518 1_655 S
C2379 C2380 1.502 1_655 S
C2379 C2381 1.561 . S
C2379 C2382 1.526 . S
C2380 H2364 0.959 . S
C2380 H2365 0.959 . S
C2380 H2366 0.961 . S
C2380 C2379 1.502 1_455 S
C2381 H2367 0.960 . S
C2381 H2368 0.961 . S
C2381 H2369 0.959 . S
C2381 C2379 1.561 . S
C2382 C2379 1.526 . S
C2382 C2383 1.396 . S
C2382 C2387 1.390 . S
C2383 C2377 1.465 1_655 S
C2383 C2382 1.396 . S
C2383 C2384 1.399 . S
C2384 H2370 0.929 . S
C2384 C2383 1.399 . S
C2384 C2385 1.385 . S
C2385 H2371 0.931 . S
C2385 C2384 1.385 . S
C2385 C2386 1.389 . S
C2386 C2385 1.389 . S
C2386 C2387 1.387 . S
C2387 H2372 0.930 . S
C2387 C2382 1.390 . S
C2387 C2386 1.387 . S
H2388 C2400 0.930 . S
H2389 C2402 0.930 . S
H2390 C2403 0.930 . S
H2391 C2407 0.959 1_565 S
H2392 C2407 0.959 . S
H2393 C2407 0.961 . S
H2394 C2408 0.960 . S
H2395 C2408 0.961 . S
H2396 C2408 0.959 . S
H2397 C2411 0.929 . S
H2398 C2412 0.931 . S
H2399 C2414 0.930 . S
C2400 H2388 0.930 . S
C2400 C2401 1.399 . S
C2400 C2405 1.399 . S
C2401 C2400 1.399 . S
C2401 C2402 1.376 . S
C2402 H2389 0.930 . S
C2402 C2401 1.376 . S
C2402 C2403 1.388 . S
C2403 H2390 0.930 . S
C2403 C2402 1.388 . S
C2403 C2404 1.390 . S
C2404 C2403 1.390 . S
C2404 C2405 1.394 . S
C2404 C2410 1.465 . S
C2405 C2400 1.399 . S
C2405 C2404 1.394 . S
C2405 C2406 1.516 . S
C2406 C2405 1.516 . S
C2406 C2407 1.502 . S
C2406 C2408 1.561 . S
C2406 C2409 1.526 . S
C2407 H2391 0.959 1_545 S
C2407 H2392 0.959 . S
C2407 H2393 0.961 . S
C2407 C2406 1.502 . S
C2408 H2394 0.960 . S
C2408 H2395 0.961 . S
C2408 H2396 0.959 . S
C2408 C2406 1.561 . S
C2409 C2406 1.526 . S
C2409 C2410 1.396 . S
C2409 C2414 1.390 . S
C2410 C2404 1.465 . S
C2410 C2409 1.396 . S
C2410 C2411 1.399 . S
C2411 H2397 0.929 . S
C2411 C2410 1.399 . S
C2411 C2412 1.385 . S
C2412 H2398 0.931 . S
C2412 C2411 1.385 . S
C2412 C2413 1.389 . S
C2413 C2412 1.389 . S
C2413 C2414 1.387 . S
C2414 H2399 0.930 . S
C2414 C2409 1.390 . S
C2414 C2413 1.387 . S
H2415 C2427 0.930 . S
H2416 C2429 0.930 . S
H2417 C2430 0.930 . S
H2418 C2434 0.959 . S
H2419 C2434 0.959 . S
H2420 C2434 0.961 . S
H2421 C2435 0.960 . S
H2422 C2435 0.961 . S
H2423 C2435 0.959 . S
H2424 C2438 0.929 . S
H2425 C2439 0.931 . S
H2426 C2441 0.930 . S
C2427 H2415 0.930 . S
C2427 C2428 1.399 . S
C2427 C2432 1.399 . S
C2428 C2427 1.399 . S
C2428 C2429 1.376 . S
C2429 H2416 0.930 . S
C2429 C2428 1.376 . S
C2429 C2430 1.388 . S
C2430 H2417 0.930 . S
C2430 C2429 1.388 . S
C2430 C2431 1.390 . S
C2431 C2430 1.390 . S
C2431 C2432 1.394 . S
C2431 C2437 1.465 . S
C2432 C2427 1.399 . S
C2432 C2431 1.394 . S
C2432 C2433 1.516 . S
C2433 C2432 1.516 . S
C2433 C2434 1.502 . S
C2433 C2435 1.561 . S
C2433 C2436 1.526 . S
C2434 H2418 0.959 . S
C2434 H2419 0.959 . S
C2434 H2420 0.961 . S
C2434 C2433 1.502 . S
C2435 H2421 0.960 . S
C2435 H2422 0.961 . S
C2435 H2423 0.959 . S
C2435 C2433 1.561 . S
C2436 C2433 1.526 . S
C2436 C2437 1.396 . S
C2436 C2441 1.390 . S
C2437 C2431 1.465 . S
C2437 C2436 1.396 . S
C2437 C2438 1.399 . S
C2438 H2424 0.929 . S
C2438 C2437 1.399 . S
C2438 C2439 1.385 . S
C2439 H2425 0.931 . S
C2439 C2438 1.385 . S
C2439 C2440 1.389 . S
C2440 C2439 1.389 . S
C2440 C2441 1.387 . S
C2441 H2426 0.930 . S
C2441 C2436 1.390 . S
C2441 C2440 1.387 . S
H2442 C2454 0.930 . S
H2443 C2456 0.930 . S
H2444 C2457 0.930 . S
H2445 C2461 0.959 . S
H2446 C2461 0.959 . S
H2447 C2461 0.961 . S
H2448 C2462 0.960 . S
H2449 C2462 0.961 . S
H2450 C2462 0.959 . S
H2451 C2465 0.929 . S
H2452 C2466 0.931 . S
H2453 C2468 0.930 . S
C2454 H2442 0.930 . S
C2454 C2455 1.399 . S
C2454 C2459 1.399 . S
C2455 C2454 1.399 . S
C2455 C2456 1.376 . S
C2456 H2443 0.930 . S
C2456 C2455 1.376 . S
C2456 C2457 1.388 . S
C2457 H2444 0.930 . S
C2457 C2456 1.388 . S
C2457 C2458 1.390 . S
C2458 C2457 1.390 . S
C2458 C2459 1.394 . S
C2458 C2464 1.465 . S
C2459 C2454 1.399 . S
C2459 C2458 1.394 . S
C2459 C2460 1.516 . S
C2460 C2459 1.516 . S
C2460 C2461 1.502 . S
C2460 C2462 1.561 . S
C2460 C2463 1.526 . S
C2461 H2445 0.959 . S
C2461 H2446 0.959 . S
C2461 H2447 0.961 . S
C2461 C2460 1.502 . S
C2462 H2448 0.960 . S
C2462 H2449 0.961 . S
C2462 H2450 0.959 . S
C2462 C2460 1.561 . S
C2463 C2460 1.526 . S
C2463 C2464 1.396 . S
C2463 C2468 1.390 . S
C2464 C2458 1.465 . S
C2464 C2463 1.396 . S
C2464 C2465 1.399 . S
C2465 H2451 0.929 . S
C2465 C2464 1.399 . S
C2465 C2466 1.385 . S
C2466 H2452 0.931 . S
C2466 C2465 1.385 . S
C2466 C2467 1.389 . S
C2467 C2466 1.389 . S
C2467 C2468 1.387 . S
C2468 H2453 0.930 . S
C2468 C2463 1.390 . S
C2468 C2467 1.387 . S
H2469 C2481 0.930 . S
H2470 C2483 0.930 . S
H2471 C2484 0.930 . S
H2472 C2488 0.959 . S
H2473 C2488 0.959 . S
H2474 C2488 0.961 . S
H2475 C2489 0.960 . S
H2476 C2489 0.961 . S
H2477 C2489 0.959 . S
H2478 C2492 0.929 . S
H2479 C2493 0.931 . S
H2480 C2495 0.930 . S
C2481 H2469 0.930 . S
C2481 C2482 1.399 . S
C2481 C2486 1.399 . S
C2482 C2481 1.399 . S
C2482 C2483 1.376 . S
C2483 H2470 0.930 . S
C2483 C2482 1.376 . S
C2483 C2484 1.388 . S
C2484 H2471 0.930 . S
C2484 C2483 1.388 . S
C2484 C2485 1.390 . S
C2485 C2484 1.390 . S
C2485 C2486 1.394 . S
C2485 C2491 1.465 . S
C2486 C2481 1.399 . S
C2486 C2485 1.394 . S
C2486 C2487 1.516 . S
C2487 C2486 1.516 . S
C2487 C2488 1.502 1_565 S
C2487 C2489 1.561 . S
C2487 C2490 1.526 . S
C2488 H2472 0.959 . S
C2488 H2473 0.959 . S
C2488 H2474 0.961 . S
C2488 C2487 1.502 1_545 S
C2489 H2475 0.960 . S
C2489 H2476 0.961 . S
C2489 H2477 0.959 . S
C2489 C2487 1.561 . S
C2490 C2487 1.526 . S
C2490 C2491 1.396 . S
C2490 C2495 1.390 . S
C2491 C2485 1.465 . S
C2491 C2490 1.396 . S
C2491 C2492 1.399 . S
C2492 H2478 0.929 . S
C2492 C2491 1.399 . S
C2492 C2493 1.385 . S
C2493 H2479 0.931 . S
C2493 C2492 1.385 . S
C2493 C2494 1.389 . S
C2494 C2493 1.389 . S
C2494 C2495 1.387 . S
C2495 H2480 0.930 . S
C2495 C2490 1.390 . S
C2495 C2494 1.387 . S
H2496 C2508 0.930 . S
H2497 C2510 0.930 . S
H2498 C2511 0.930 . S
H2499 C2515 0.959 . S
H2500 C2515 0.959 . S
H2501 C2515 0.961 . S
H2502 C2516 0.960 . S
H2503 C2516 0.961 . S
H2504 C2516 0.959 . S
H2505 C2519 0.929 . S
H2506 C2520 0.931 . S
H2507 C2522 0.930 . S
C2508 H2496 0.930 . S
C2508 C2509 1.399 . S
C2508 C2513 1.399 . S
C2509 C2508 1.399 . S
C2509 C2510 1.376 . S
C2510 H2497 0.930 . S
C2510 C2509 1.376 . S
C2510 C2511 1.388 . S
C2511 H2498 0.930 . S
C2511 C2510 1.388 . S
C2511 C2512 1.390 . S
C2512 C2511 1.390 . S
C2512 C2513 1.394 . S
C2512 C2518 1.465 . S
C2513 C2508 1.399 . S
C2513 C2512 1.394 . S
C2513 C2514 1.516 . S
C2514 C2513 1.516 . S
C2514 C2515 1.502 . S
C2514 C2516 1.561 . S
C2514 C2517 1.526 . S
C2515 H2499 0.959 . S
C2515 H2500 0.959 . S
C2515 H2501 0.961 . S
C2515 C2514 1.502 . S
C2516 H2502 0.960 . S
C2516 H2503 0.961 . S
C2516 H2504 0.959 . S
C2516 C2514 1.561 . S
C2517 C2514 1.526 . S
C2517 C2518 1.396 . S
C2517 C2522 1.390 . S
C2518 C2512 1.465 . S
C2518 C2517 1.396 . S
C2518 C2519 1.399 . S
C2519 H2505 0.929 . S
C2519 C2518 1.399 . S
C2519 C2520 1.385 . S
C2520 H2506 0.931 . S
C2520 C2519 1.385 . S
C2520 C2521 1.389 . S
C2521 C2520 1.389 . S
C2521 C2522 1.387 . S
C2522 H2507 0.930 . S
C2522 C2517 1.390 . S
C2522 C2521 1.387 . S
H2523 C2535 0.930 . S
H2524 C2537 0.930 . S
H2525 C2538 0.930 . S
H2526 C2542 0.959 . S
H2527 C2542 0.959 . S
H2528 C2542 0.961 . S
H2529 C2543 0.960 . S
H2530 C2543 0.961 . S
H2531 C2543 0.959 1_655 S
H2532 C2546 0.929 . S
H2533 C2547 0.931 . S
H2534 C2549 0.930 . S
C2535 H2523 0.930 . S
C2535 C2536 1.399 . S
C2535 C2540 1.399 . S
C2536 C2535 1.399 . S
C2536 C2537 1.376 . S
C2537 H2524 0.930 . S
C2537 C2536 1.376 . S
C2537 C2538 1.388 . S
C2538 H2525 0.930 . S
C2538 C2537 1.388 . S
C2538 C2539 1.390 . S
C2539 C2538 1.390 . S
C2539 C2540 1.394 . S
C2539 C2545 1.465 . S
C2540 C2535 1.399 . S
C2540 C2539 1.394 . S
C2540 C2541 1.516 . S
C2541 C2540 1.516 . S
C2541 C2542 1.502 . S
C2541 C2543 1.561 . S
C2541 C2544 1.526 . S
C2542 H2526 0.959 . S
C2542 H2527 0.959 . S
C2542 H2528 0.961 . S
C2542 C2541 1.502 . S
C2543 H2529 0.960 . S
C2543 H2530 0.961 . S
C2543 H2531 0.959 1_455 S
C2543 C2541 1.561 . S
C2544 C2541 1.526 . S
C2544 C2545 1.396 . S
C2544 C2549 1.390 . S
C2545 C2539 1.465 . S
C2545 C2544 1.396 . S
C2545 C2546 1.399 . S
C2546 H2532 0.929 . S
C2546 C2545 1.399 . S
C2546 C2547 1.385 . S
C2547 H2533 0.931 . S
C2547 C2546 1.385 . S
C2547 C2548 1.389 . S
C2548 C2547 1.389 . S
C2548 C2549 1.387 . S
C2549 H2534 0.930 . S
C2549 C2544 1.390 . S
C2549 C2548 1.387 . S
H2550 C2562 0.930 . S
H2551 C2564 0.930 . S
H2552 C2565 0.930 . S
H2553 C2569 0.959 . S
H2554 C2569 0.959 . S
H2555 C2569 0.961 . S
H2556 C2570 0.960 . S
H2557 C2570 0.961 . S
H2558 C2570 0.959 1_455 S
H2559 C2573 0.929 . S
H2560 C2574 0.931 . S
H2561 C2576 0.930 . S
C2562 H2550 0.930 . S
C2562 C2563 1.399 . S
C2562 C2567 1.399 . S
C2563 C2562 1.399 . S
C2563 C2564 1.376 . S
C2564 H2551 0.930 . S
C2564 C2563 1.376 . S
C2564 C2565 1.388 . S
C2565 H2552 0.930 . S
C2565 C2564 1.388 . S
C2565 C2566 1.390 . S
C2566 C2565 1.390 . S
C2566 C2567 1.394 . S
C2566 C2572 1.465 . S
C2567 C2562 1.399 . S
C2567 C2566 1.394 . S
C2567 C2568 1.516 . S
C2568 C2567 1.516 . S
C2568 C2569 1.502 . S
C2568 C2570 1.561 . S
C2568 C2571 1.526 . S
C2569 H2553 0.959 . S
C2569 H2554 0.959 . S
C2569 H2555 0.961 . S
C2569 C2568 1.502 . S
C2570 H2556 0.960 . S
C2570 H2557 0.961 . S
C2570 H2558 0.959 1_655 S
C2570 C2568 1.561 . S
C2571 C2568 1.526 . S
C2571 C2572 1.396 . S
C2571 C2576 1.390 . S
C2572 C2566 1.465 . S
C2572 C2571 1.396 . S
C2572 C2573 1.399 . S
C2573 H2559 0.929 . S
C2573 C2572 1.399 . S
C2573 C2574 1.385 . S
C2574 H2560 0.931 . S
C2574 C2573 1.385 . S
C2574 C2575 1.389 . S
C2575 C2574 1.389 . S
C2575 C2576 1.387 . S
C2576 H2561 0.930 . S
C2576 C2571 1.390 . S
C2576 C2575 1.387 . S
H2577 C2589 0.930 . S
H2578 C2591 0.930 . S
H2579 C2592 0.930 . S
H2580 C2596 0.959 . S
H2581 C2596 0.959 . S
H2582 C2596 0.961 . S
H2583 C2597 0.960 . S
H2584 C2597 0.961 . S
H2585 C2597 0.959 . S
H2586 C2600 0.929 . S
H2587 C2601 0.931 . S
H2588 C2603 0.930 . S
C2589 H2577 0.930 . S
C2589 C2590 1.399 . S
C2589 C2594 1.399 . S
C2590 C2589 1.399 . S
C2590 C2591 1.376 . S
C2591 H2578 0.930 . S
C2591 C2590 1.376 . S
C2591 C2592 1.388 . S
C2592 H2579 0.930 . S
C2592 C2591 1.388 . S
C2592 C2593 1.390 . S
C2593 C2592 1.390 . S
C2593 C2594 1.394 . S
C2593 C2599 1.465 . S
C2594 C2589 1.399 . S
C2594 C2593 1.394 . S
C2594 C2595 1.516 . S
C2595 C2594 1.516 . S
C2595 C2596 1.502 . S
C2595 C2597 1.561 . S
C2595 C2598 1.526 . S
C2596 H2580 0.959 . S
C2596 H2581 0.959 . S
C2596 H2582 0.961 . S
C2596 C2595 1.502 . S
C2597 H2583 0.960 . S
C2597 H2584 0.961 . S
C2597 H2585 0.959 . S
C2597 C2595 1.561 . S
C2598 C2595 1.526 . S
C2598 C2599 1.396 . S
C2598 C2603 1.390 . S
C2599 C2593 1.465 . S
C2599 C2598 1.396 . S
C2599 C2600 1.399 . S
C2600 H2586 0.929 . S
C2600 C2599 1.399 . S
C2600 C2601 1.385 . S
C2601 H2587 0.931 . S
C2601 C2600 1.385 . S
C2601 C2602 1.389 . S
C2602 C2601 1.389 . S
C2602 C2603 1.387 . S
C2603 H2588 0.930 . S
C2603 C2598 1.390 . S
C2603 C2602 1.387 . S
H2604 C2616 0.930 . S
H2605 C2618 0.930 . S
H2606 C2619 0.930 . S
H2607 C2623 0.959 . S
H2608 C2623 0.959 . S
H2609 C2623 0.961 . S
H2610 C2624 0.960 . S
H2611 C2624 0.961 . S
H2612 C2624 0.959 . S
H2613 C2627 0.929 . S
H2614 C2628 0.931 . S
H2615 C2630 0.930 . S
C2616 H2604 0.930 . S
C2616 C2617 1.399 . S
C2616 C2621 1.399 . S
C2617 C2616 1.399 . S
C2617 C2618 1.376 . S
C2618 H2605 0.930 . S
C2618 C2617 1.376 . S
C2618 C2619 1.388 . S
C2619 H2606 0.930 . S
C2619 C2618 1.388 . S
C2619 C2620 1.390 . S
C2620 C2619 1.390 . S
C2620 C2621 1.394 . S
C2620 C2626 1.465 . S
C2621 C2616 1.399 . S
C2621 C2620 1.394 . S
C2621 C2622 1.516 . S
C2622 C2621 1.516 . S
C2622 C2623 1.502 . S
C2622 C2624 1.561 . S
C2622 C2625 1.526 . S
C2623 H2607 0.959 . S
C2623 H2608 0.959 . S
C2623 H2609 0.961 . S
C2623 C2622 1.502 . S
C2624 H2610 0.960 . S
C2624 H2611 0.961 . S
C2624 H2612 0.959 . S
C2624 C2622 1.561 . S
C2625 C2622 1.526 . S
C2625 C2626 1.396 . S
C2625 C2630 1.390 . S
C2626 C2620 1.465 . S
C2626 C2625 1.396 . S
C2626 C2627 1.399 . S
C2627 H2613 0.929 . S
C2627 C2626 1.399 . S
C2627 C2628 1.385 . S
C2628 H2614 0.931 . S
C2628 C2627 1.385 . S
C2628 C2629 1.389 . S
C2629 C2628 1.389 . S
C2629 C2630 1.387 . S
C2630 H2615 0.930 . S
C2630 C2625 1.390 . S
C2630 C2629 1.387 . S
H2631 C2643 0.930 . S
H2632 C2645 0.930 . S
H2633 C2646 0.930 . S
H2634 C2650 0.959 . S
H2635 C2650 0.959 . S
H2636 C2650 0.961 . S
H2637 C2651 0.960 . S
H2638 C2651 0.961 . S
H2639 C2651 0.959 . S
H2640 C2654 0.929 . S
H2641 C2655 0.931 . S
H2642 C2657 0.930 . S
C2643 H2631 0.930 . S
C2643 C2644 1.399 . S
C2643 C2648 1.399 . S
C2644 C2643 1.399 . S
C2644 C2645 1.376 . S
C2645 H2632 0.930 . S
C2645 C2644 1.376 . S
C2645 C2646 1.388 . S
C2646 H2633 0.930 . S
C2646 C2645 1.388 . S
C2646 C2647 1.390 . S
C2647 C2646 1.390 . S
C2647 C2648 1.394 . S
C2647 C2653 1.465 . S
C2648 C2643 1.399 . S
C2648 C2647 1.394 . S
C2648 C2649 1.516 . S
C2649 C2648 1.516 . S
C2649 C2650 1.502 . S
C2649 C2651 1.561 . S
C2649 C2652 1.526 . S
C2650 H2634 0.959 . S
C2650 H2635 0.959 . S
C2650 H2636 0.961 . S
C2650 C2649 1.502 . S
C2651 H2637 0.960 . S
C2651 H2638 0.961 . S
C2651 H2639 0.959 . S
C2651 C2649 1.561 . S
C2652 C2649 1.526 . S
C2652 C2653 1.396 . S
C2652 C2657 1.390 . S
C2653 C2647 1.465 . S
C2653 C2652 1.396 . S
C2653 C2654 1.399 . S
C2654 H2640 0.929 . S
C2654 C2653 1.399 . S
C2654 C2655 1.385 . S
C2655 H2641 0.931 . S
C2655 C2654 1.385 . S
C2655 C2656 1.389 . S
C2656 C2655 1.389 . S
C2656 C2657 1.387 . S
C2657 H2642 0.930 . S
C2657 C2652 1.390 . S
C2657 C2656 1.387 . S
H2658 C2670 0.930 . S
H2659 C2672 0.930 . S
H2660 C2673 0.930 . S
H2661 C2677 0.959 . S
H2662 C2677 0.959 . S
H2663 C2677 0.961 . S
H2664 C2678 0.960 . S
H2665 C2678 0.961 . S
H2666 C2678 0.959 1_565 S
H2667 C2681 0.929 . S
H2668 C2682 0.931 . S
H2669 C2684 0.930 . S
C2670 H2658 0.930 . S
C2670 C2671 1.399 . S
C2670 C2675 1.399 . S
C2671 C2670 1.399 . S
C2671 C2672 1.376 . S
C2672 H2659 0.930 . S
C2672 C2671 1.376 . S
C2672 C2673 1.388 . S
C2673 H2660 0.930 . S
C2673 C2672 1.388 . S
C2673 C2674 1.390 . S
C2674 C2673 1.390 . S
C2674 C2675 1.394 . S
C2674 C2680 1.465 . S
C2675 C2670 1.399 . S
C2675 C2674 1.394 . S
C2675 C2676 1.516 . S
C2676 C2675 1.516 . S
C2676 C2677 1.502 . S
C2676 C2678 1.561 . S
C2676 C2679 1.526 . S
C2677 H2661 0.959 . S
C2677 H2662 0.959 . S
C2677 H2663 0.961 . S
C2677 C2676 1.502 . S
C2678 H2664 0.960 . S
C2678 H2665 0.961 . S
C2678 H2666 0.959 1_545 S
C2678 C2676 1.561 . S
C2679 C2676 1.526 . S
C2679 C2680 1.396 . S
C2679 C2684 1.390 . S
C2680 C2674 1.465 . S
C2680 C2679 1.396 . S
C2680 C2681 1.399 . S
C2681 H2667 0.929 . S
C2681 C2680 1.399 . S
C2681 C2682 1.385 . S
C2682 H2668 0.931 . S
C2682 C2681 1.385 . S
C2682 C2683 1.389 . S
C2683 C2682 1.389 . S
C2683 C2684 1.387 . S
C2684 H2669 0.930 . S
C2684 C2679 1.390 . S
C2684 C2683 1.387 . S
H2685 C2697 0.930 . S
H2686 C2699 0.930 . S
H2687 C2700 0.930 . S
H2688 C2704 0.959 . S
H2689 C2704 0.959 . S
H2690 C2704 0.961 . S
H2691 C2705 0.960 . S
H2692 C2705 0.961 . S
H2693 C2705 0.959 . S
H2694 C2708 0.929 . S
H2695 C2709 0.931 . S
H2696 C2711 0.930 . S
C2697 H2685 0.930 . S
C2697 C2698 1.399 . S
C2697 C2702 1.399 . S
C2698 C2697 1.399 . S
C2698 C2699 1.376 . S
C2699 H2686 0.930 . S
C2699 C2698 1.376 . S
C2699 C2700 1.388 . S
C2700 H2687 0.930 . S
C2700 C2699 1.388 . S
C2700 C2701 1.390 . S
C2701 C2700 1.390 . S
C2701 C2702 1.394 . S
C2701 C2707 1.465 . S
C2702 C2697 1.399 . S
C2702 C2701 1.394 . S
C2702 C2703 1.516 . S
C2703 C2702 1.516 . S
C2703 C2704 1.502 . S
C2703 C2705 1.561 . S
C2703 C2706 1.526 . S
C2704 H2688 0.959 . S
C2704 H2689 0.959 . S
C2704 H2690 0.961 . S
C2704 C2703 1.502 . S
C2705 H2691 0.960 . S
C2705 H2692 0.961 . S
C2705 H2693 0.959 . S
C2705 C2703 1.561 . S
C2706 C2703 1.526 . S
C2706 C2707 1.396 . S
C2706 C2711 1.390 . S
C2707 C2701 1.465 . S
C2707 C2706 1.396 . S
C2707 C2708 1.399 . S
C2708 H2694 0.929 . S
C2708 C2707 1.399 . S
C2708 C2709 1.385 . S
C2709 H2695 0.931 . S
C2709 C2708 1.385 . S
C2709 C2710 1.389 . S
C2710 C2709 1.389 . S
C2710 C2711 1.387 . S
C2711 H2696 0.930 . S
C2711 C2706 1.390 . S
C2711 C2710 1.387 . S
C1429 C937 1.305 . S
C1441 C52 1.309 . S
C1456 C111 1.278 . S
C1468 C996 1.284 . S
C1483 C170 1.311 . S
C1495 C1055 1.309 . S
C1510 C229 1.279 . S
C1522 C760 1.276 . S
C1537 C819 1.273 . S
C1549 C288 1.275 . S
C1564 C347 1.311 . S
C1576 C878 1.308 . S
C1591 C1291 1.311 . S
C1603 C406 1.309 . S
C1618 C465 1.279 . S
C1630 C1350 1.276 . S
C1645 C524 1.311 . S
C1657 C1409 1.309 . S
C1672 C1114 1.273 . S
C1684 C583 1.276 . S
C1699 C642 1.305 . S
C1711 C1173 1.309 . S
C1726 C1232 1.287 . S
C1738 C701 1.293 . S
C1753 C3 1.733 . S
C1765 C1360 1.739 . S
C1780 C1065 1.709 . S
C1792 C62 1.710 . S
C1807 C121 1.729 . S
C1819 C1124 1.724 . S
C1834 C1183 1.748 . S
C1846 C180 1.746 . S
C1861 C239 1.742 . S
C1873 C1242 1.745 . S
C1888 C1301 1.709 . S
C1900 C298 1.712 . S
C1915 C357 1.720 . S
C1927 C770 1.726 . S
C1942 C829 1.747 . S
C1954 C416 1.748 . S
C1969 C888 1.713 . S
C1981 C475 1.711 . S
C1996 C947 1.709 . S
C2008 C534 1.711 . S
C2023 C593 1.740 . S
C2035 C1006 1.744 . S
C2050 C652 1.724 . S
C2062 C711 1.719 . S
C2077 C418 1.372 . S
C2089 C5 1.344 . S
C2104 C477 1.345 . S
C2116 C64 1.357 . S
C2131 C536 1.398 . S
C2143 C123 1.365 . S
C2158 C595 1.372 . S
C2170 C182 1.344 . S
C2185 C241 1.396 . S
C2197 C654 1.360 . S
C2212 C300 1.393 . S
C2224 C359 1.393 . S
C2239 C713 1.400 . S
C2251 C1126 1.362 . S
C2266 C772 1.376 . S
C2278 C1185 1.395 . S
C2293 C1244 1.360 . S
C2305 C831 1.354 . S
C2320 C1303 1.343 . S
C2332 C890 1.389 . S
C2347 C1362 1.399 . S
C2359 C949 1.351 . S
C2374 C1067 1.361 . S
C2386 C1008 1.354 . S
C2401 C33 1.820 . S
C2413 C1154 1.823 . S
C2428 C1213 1.825 . S
C2440 C92 1.823 . S
C2455 C151 1.826 . S
C2467 C1272 1.824 . S
C2482 C1331 1.815 . S
C2494 C210 1.816 . S
C2509 C269 1.824 . S
C2521 C1390 1.822 . S
C2536 C1095 1.829 . S
C2548 C328 1.828 . S
C2563 C387 1.823 . S
C2575 C1036 1.821 . S
C2590 C741 1.817 . S
C2602 C446 1.819 . S
C2617 C505 1.818 . S
C2629 C800 1.821 . S
C2644 C564 1.827 . S
C2656 C859 1.825 . S
C2671 C623 1.824 . S
C2683 C918 1.822 . S
C2698 C682 1.819 . S
C2710 C977 1.821 . S
