# Generated by pormake.
# Topology unj, (4)-cn, num edge types: 1
# Building blocks:
#     Node 0, Type 0, BuildingBlock: UXUYUI_clean_sbu_0, # of connection points: 4
#     Node 1, Type 0, BuildingBlock: UXUYUI_clean_sbu_0, # of connection points: 4
#     Node 2, Type 0, BuildingBlock: UXUYUI_clean_sbu_0, # of connection points: 4
#     Node 3, Type 0, BuildingBlock: UXUYUI_clean_sbu_0, # of connection points: 4
#     Node 4, Type 0, BuildingBlock: UXUYUI_clean_sbu_0, # of connection points: 4
#     Node 5, Type 0, BuildingBlock: UXUYUI_clean_sbu_0, # of connection points: 4
#     Edge 6, Type (0, 0), BuildingBlock: ZUJKAS_clean_linker_0, # of connection points: 2
#     Edge 7, Type (0, 0), BuildingBlock: ZUJKAS_clean_linker_0, # of connection points: 2
#     Edge 8, Type (0, 0), BuildingBlock: ZUJKAS_clean_linker_0, # of connection points: 2
#     Edge 9, Type (0, 0), BuildingBlock: ZUJKAS_clean_linker_0, # of connection points: 2
#     Edge 10, Type (0, 0), BuildingBlock: ZUJKAS_clean_linker_0, # of connection points: 2
#     Edge 11, Type (0, 0), BuildingBlock: ZUJKAS_clean_linker_0, # of connection points: 2
#     Edge 12, Type (0, 0), BuildingBlock: ZUJKAS_clean_linker_0, # of connection points: 2
#     Edge 13, Type (0, 0), BuildingBlock: ZUJKAS_clean_linker_0, # of connection points: 2
#     Edge 14, Type (0, 0), BuildingBlock: ZUJKAS_clean_linker_0, # of connection points: 2
#     Edge 15, Type (0, 0), BuildingBlock: ZUJKAS_clean_linker_0, # of connection points: 2
#     Edge 16, Type (0, 0), BuildingBlock: ZUJKAS_clean_linker_0, # of connection points: 2
#     Edge 17, Type (0, 0), BuildingBlock: ZUJKAS_clean_linker_0, # of connection points: 2
# Relax obj value: 0.030
# Max RMSD: 0.052
# Mean RMSD: 0.052
data_MOF--net-unj--node1-UXUYUI_clean_sbu_0--edge1-ZUJKAS_clean_linker_0
_symmetry_space_group_name_H-M    P1
_symmetry_Int_Tables_number       1
_symmetry_cell_setting            triclinic
loop_
_symmetry_equiv_pos_as_xyz
'x, y, z'
_cell_length_a     61.254194
_cell_length_b     61.242896
_cell_length_c     59.112658
_cell_angle_alpha  90.006203
_cell_angle_beta   90.008216
_cell_angle_gamma 120.00097
loop_
_atom_site_label
_atom_site_type_symbol
_atom_site_fract_x
_atom_site_fract_y
_atom_site_fract_z
_atom_type_partial_charge
Li0 Li 0.45866 0.21216 0.57988 0.0
Li1 Li 0.49235 0.2385 0.60681 0.0
Li2 Li 0.4586 0.24874 0.59589 0.0
Li3 Li 0.49246 0.2565 0.5693 0.0
C4 C 0.43786 0.19642 0.62161 0.0
N5 N 0.4026 0.1506 0.63982 0.0
C6 C 0.44537 0.18381 0.63666 0.0
C7 C 0.41238 0.18589 0.61609 0.0
C8 C 0.42727 0.16063 0.64562 0.0
C9 C 0.39485 0.16266 0.62539 0.0
C10 C 0.51462 0.22082 0.57542 0.0
C11 C 0.5588 0.23395 0.57246 0.0
N12 N 0.55292 0.20941 0.57334 0.0
C13 C 0.50901 0.19572 0.57596 0.0
C14 C 0.5397 0.24008 0.57337 0.0
C15 C 0.52864 0.19034 0.57503 0.0
C16 C 0.4266 0.17528 0.54838 0.0
N17 N 0.4385 0.1786 0.56857 0.0
C18 C 0.42301 0.13429 0.57158 0.0
C19 C 0.43706 0.15873 0.58015 0.0
C20 C 0.41063 0.13029 0.5507 0.0
C21 C 0.41251 0.15117 0.53907 0.0
H22 H 0.4283 0.19141 0.53935 0.0
H23 H 0.44724 0.16187 0.59584 0.0
C24 C 0.52267 0.25773 0.64593 0.0
N25 N 0.51302 0.23827 0.63095 0.0
C26 C 0.53807 0.25841 0.66366 0.0
C27 C 0.53265 0.21857 0.65074 0.0
C28 C 0.51744 0.21872 0.63321 0.0
C29 C 0.54332 0.23867 0.6662 0.0
H30 H 0.51835 0.27273 0.64415 0.0
H31 H 0.50891 0.20305 0.62159 0.0
C32 C 0.43753 0.24359 0.55497 0.0
N33 N 0.40124 0.25369 0.53859 0.0
C34 C 0.44457 0.26537 0.54227 0.0
C35 C 0.41201 0.22675 0.55901 0.0
C36 C 0.42595 0.2702 0.53422 0.0
C37 C 0.39395 0.23224 0.55069 0.0
C38 C 0.51614 0.2955 0.6007 0.0
C39 C 0.51315 0.31667 0.60131 0.0
C40 C 0.54036 0.29867 0.60144 0.0
C41 C 0.53449 0.3407 0.60213 0.0
C42 C 0.56123 0.32299 0.60228 0.0
N43 N 0.55789 0.34333 0.60256 0.0
C44 C 0.4224 0.25079 0.62444 0.0
C45 C 0.44036 0.2831 0.59684 0.0
C46 C 0.40797 0.26076 0.63303 0.0
N47 N 0.43817 0.26202 0.60665 0.0
C48 C 0.42628 0.2937 0.60486 0.0
C49 C 0.40987 0.28259 0.62328 0.0
H50 H 0.42124 0.23426 0.63216 0.0
H51 H 0.45335 0.29193 0.58298 0.0
C52 C 0.52316 0.26799 0.53044 0.0
N53 N 0.51326 0.27759 0.54536 0.0
C54 C 0.53865 0.2829 0.51283 0.0
C55 C 0.53283 0.31706 0.52582 0.0
C56 C 0.51756 0.30153 0.54323 0.0
C57 C 0.54372 0.30783 0.51038 0.0
H58 H 0.51895 0.2487 0.53215 0.0
H59 H 0.50894 0.30852 0.55492 0.0
O60 O 0.45537 0.21904 0.61252 0.0
O61 O 0.4956 0.2264 0.57633 0.0
O62 O 0.45552 0.23871 0.56323 0.0
O63 O 0.49544 0.27182 0.59972 0.0
H64 H 0.46495 0.19178 0.64132 0.0
H65 H 0.40619 0.19555 0.60476 0.0
H66 H 0.43284 0.1506 0.65719 0.0
H67 H 0.37508 0.15424 0.62115 0.0
H68 H 0.57828 0.24869 0.57094 0.0
H69 H 0.48974 0.18054 0.57726 0.0
H70 H 0.5444 0.25954 0.57218 0.0
H71 H 0.52455 0.171 0.57562 0.0
H72 H 0.42242 0.11878 0.5809 0.0
H73 H 0.40317 0.14889 0.52297 0.0
H74 H 0.54548 0.27403 0.67545 0.0
H75 H 0.53621 0.20298 0.65201 0.0
H76 H 0.4642 0.27851 0.53881 0.0
H77 H 0.40621 0.20959 0.56842 0.0
H78 H 0.43115 0.28708 0.52452 0.0
H79 H 0.37414 0.21943 0.5538 0.0
H80 H 0.49458 0.31462 0.60106 0.0
H81 H 0.54302 0.28253 0.60167 0.0
H82 H 0.53244 0.35724 0.60245 0.0
H83 H 0.58007 0.32568 0.6028 0.0
H84 H 0.39542 0.25144 0.64713 0.0
H85 H 0.42871 0.31077 0.59705 0.0
H86 H 0.54626 0.27486 0.50106 0.0
H87 H 0.53629 0.33618 0.52461 0.0
Li88 Li 0.2595 0.49122 0.77324 0.0
Li89 Li 0.25256 0.45748 0.74676 0.0
Li90 Li 0.24214 0.49127 0.73644 0.0
Li91 Li 0.21525 0.45749 0.76308 0.0
C92 C 0.3002 0.51182 0.74658 0.0
N93 N 0.35019 0.54687 0.75456 0.0
C94 C 0.31818 0.50419 0.7479 0.0
C95 C 0.30769 0.53732 0.74901 0.0
C96 C 0.34336 0.52219 0.75201 0.0
C97 C 0.33304 0.55474 0.75313 0.0
C98 C 0.24038 0.4337 0.78978 0.0
C99 C 0.21825 0.38889 0.79673 0.0
N100 N 0.23654 0.39201 0.8116 0.0
C101 C 0.25878 0.43651 0.80537 0.0
C102 C 0.2198 0.40975 0.78562 0.0
C103 C 0.25658 0.41518 0.81613 0.0
C104 C 0.27463 0.52782 0.80792 0.0
N105 N 0.28065 0.51191 0.79718 0.0
C106 C 0.31747 0.52619 0.82012 0.0
C107 C 0.30141 0.51061 0.80311 0.0
C108 C 0.31193 0.54307 0.8314 0.0
C109 C 0.29005 0.54361 0.82515 0.0
H110 H 0.2578 0.52821 0.80315 0.0
H111 H 0.30563 0.49761 0.79448 0.0
C112 C 0.26152 0.42996 0.71341 0.0
N113 N 0.26575 0.43718 0.73547 0.0
C114 C 0.27164 0.41598 0.70411 0.0
C115 C 0.29067 0.41742 0.7403 0.0
C116 C 0.2801 0.43131 0.74891 0.0
C117 C 0.28655 0.40962 0.71757 0.0
H118 H 0.25056 0.4354 0.70292 0.0
H119 H 0.28387 0.4379 0.76617 0.0
C120 C 0.22108 0.51115 0.76323 0.0
N121 N 0.20411 0.54468 0.75556 0.0
C122 C 0.19523 0.50254 0.7622 0.0
C123 C 0.23829 0.53686 0.76066 0.0
C124 C 0.18703 0.51977 0.75825 0.0
C125 C 0.22934 0.55349 0.7567 0.0
C126 C 0.20382 0.4343 0.71937 0.0
C127 C 0.18953 0.43808 0.70304 0.0
C128 C 0.19922 0.40991 0.72365 0.0
C129 C 0.1705 0.41731 0.69159 0.0
C130 C 0.18004 0.38963 0.71183 0.0
N131 N 0.16616 0.39371 0.69621 0.0
C132 C 0.2636 0.52692 0.70111 0.0
C133 C 0.21998 0.51134 0.70685 0.0
C134 C 0.26415 0.54262 0.68372 0.0
N135 N 0.24179 0.51188 0.71239 0.0
C136 C 0.21973 0.52696 0.68976 0.0
C137 C 0.24204 0.54291 0.678 0.0
H138 H 0.28061 0.52675 0.70562 0.0
H139 H 0.20277 0.49882 0.71573 0.0
C140 C 0.17896 0.4323 0.797 0.0
N141 N 0.18177 0.43727 0.77444 0.0
C142 C 0.15491 0.41854 0.80647 0.0
C143 C 0.13705 0.41522 0.76932 0.0
C144 C 0.16143 0.42917 0.7606 0.0
C145 C 0.13354 0.40984 0.79257 0.0
H146 H 0.19545 0.43924 0.80768 0.0
H147 H 0.16403 0.43405 0.7429 0.0
O148 O 0.2754 0.49442 0.74286 0.0
O149 O 0.24226 0.45442 0.77915 0.0
O150 O 0.22946 0.4945 0.76685 0.0
O151 O 0.22252 0.45447 0.73072 0.0
H152 H 0.31276 0.48458 0.74591 0.0
H153 H 0.29407 0.54358 0.74782 0.0
H154 H 0.35745 0.51653 0.75321 0.0
H155 H 0.33907 0.57451 0.7552 0.0
H156 H 0.20245 0.37024 0.79361 0.0
H157 H 0.27468 0.45493 0.80902 0.0
H158 H 0.20501 0.40728 0.77415 0.0
H159 H 0.27078 0.41706 0.82809 0.0
H160 H 0.33423 0.52525 0.82412 0.0
H161 H 0.2847 0.5559 0.83364 0.0
H162 H 0.26837 0.41078 0.68641 0.0
H163 H 0.30196 0.41288 0.75132 0.0
H164 H 0.18164 0.48275 0.76429 0.0
H165 H 0.25833 0.54388 0.76162 0.0
H166 H 0.16708 0.51335 0.75728 0.0
H167 H 0.24245 0.57341 0.75453 0.0
H168 H 0.193 0.45684 0.69933 0.0
H169 H 0.21054 0.40668 0.73572 0.0
H170 H 0.15918 0.41995 0.67903 0.0
H171 H 0.17626 0.37066 0.71501 0.0
H172 H 0.28176 0.55472 0.67511 0.0
H173 H 0.2022 0.52634 0.68562 0.0
H174 H 0.15306 0.41469 0.82446 0.0
H175 H 0.1211 0.40932 0.75808 0.0
Li176 Li 0.79999 0.25022 0.91345 0.0
Li177 Li 0.77253 0.25639 0.93983 0.0
Li178 Li 0.76231 0.21249 0.92886 0.0
Li179 Li 0.75615 0.24005 0.90276 0.0
C180 C 0.80939 0.23589 0.95747 0.0
N181 N 0.8441 0.22927 0.98197 0.0
C182 C 0.8238 0.25314 0.97432 0.0
C183 C 0.81232 0.21502 0.9534 0.0
C184 C 0.84135 0.24955 0.98643 0.0
C185 C 0.83004 0.21207 0.96588 0.0
C186 C 0.79443 0.29799 0.91483 0.0
C187 C 0.78628 0.33167 0.92386 0.0
N188 N 0.81151 0.34792 0.92539 0.0
C189 C 0.82028 0.31506 0.91634 0.0
C190 C 0.77727 0.30638 0.91846 0.0
C191 C 0.82855 0.34022 0.92174 0.0
C192 C 0.83706 0.26353 0.87992 0.0
N193 N 0.83372 0.26383 0.90263 0.0
C194 C 0.87826 0.28505 0.9087 0.0
C195 C 0.8537 0.27441 0.91701 0.0
C196 C 0.88237 0.28508 0.88529 0.0
C197 C 0.86131 0.27403 0.87085 0.0
H198 H 0.82084 0.25535 0.86883 0.0
H199 H 0.85067 0.275 0.93492 0.0
C200 C 0.75034 0.27131 0.97405 0.0
N201 N 0.77258 0.27688 0.96419 0.0
C202 C 0.74976 0.28636 0.99152 0.0
C203 C 0.79502 0.31246 0.98856 0.0
C204 C 0.79472 0.29684 0.97121 0.0
C205 C 0.77231 0.30736 0.99895 0.0
H206 H 0.73304 0.25514 0.96836 0.0
H207 H 0.81216 0.30082 0.96314 0.0
C208 C 0.77741 0.20312 0.88565 0.0
N209 N 0.78574 0.16844 0.86303 0.0
C210 C 0.76109 0.18834 0.86839 0.0
C211 C 0.79821 0.20055 0.89111 0.0
C212 C 0.76554 0.17082 0.85724 0.0
C213 C 0.80204 0.18285 0.87956 0.0
C214 C 0.71472 0.21827 0.92741 0.0
C215 C 0.69788 0.19255 0.92439 0.0
C216 C 0.70627 0.23553 0.92487 0.0
C217 C 0.67288 0.18452 0.91858 0.0
C218 C 0.68114 0.22676 0.919 0.0
N219 N 0.66511 0.20165 0.91599 0.0
C220 C 0.74902 0.17587 0.96264 0.0
C221 C 0.73841 0.15865 0.92571 0.0
C222 C 0.7386 0.15178 0.97202 0.0
N223 N 0.74881 0.17886 0.93987 0.0
C224 C 0.72785 0.13421 0.93436 0.0
C225 C 0.72776 0.13052 0.95783 0.0
H226 H 0.75717 0.19226 0.97353 0.0
H227 H 0.73776 0.1614 0.90775 0.0
C228 C 0.73942 0.26233 0.8701 0.0
N229 N 0.73543 0.24002 0.87862 0.0
C230 C 0.72401 0.26274 0.85289 0.0
C231 C 0.70089 0.21718 0.85327 0.0
C232 C 0.71672 0.21766 0.87051 0.0
C233 C 0.70439 0.23994 0.84428 0.0
H234 H 0.7546 0.27984 0.87665 0.0
H235 H 0.7139 0.20018 0.87763 0.0
O236 O 0.79204 0.23912 0.94554 0.0
O237 O 0.78598 0.27321 0.90984 0.0
O238 O 0.7733 0.22041 0.89668 0.0
O239 O 0.73937 0.22653 0.93272 0.0
H240 H 0.82158 0.26922 0.97794 0.0
H241 H 0.80084 0.20103 0.94097 0.0
H242 H 0.85275 0.26287 0.99939 0.0
H243 H 0.83253 0.19602 0.96284 0.0
H244 H 0.7732 0.33837 0.92688 0.0
H245 H 0.83383 0.30894 0.91349 0.0
H246 H 0.7572 0.29343 0.91736 0.0
H247 H 0.8485 0.35361 0.92306 0.0
H248 H 0.89386 0.29314 0.92051 0.0
H249 H 0.86351 0.27399 0.85268 0.0
H250 H 0.73187 0.28143 0.99928 0.0
H251 H 0.81282 0.32858 0.99351 0.0
H252 H 0.74508 0.19027 0.8637 0.0
H253 H 0.81148 0.21231 0.9039 0.0
H254 H 0.75295 0.15914 0.84396 0.0
H255 H 0.81805 0.18066 0.88366 0.0
H256 H 0.70408 0.17893 0.92633 0.0
H257 H 0.71903 0.25549 0.92719 0.0
H258 H 0.65967 0.16468 0.91606 0.0
H259 H 0.67439 0.23992 0.91681 0.0
H260 H 0.73912 0.14983 0.99019 0.0
H261 H 0.71928 0.11835 0.92283 0.0
H262 H 0.72761 0.28071 0.84622 0.0
H263 H 0.68584 0.19918 0.84731 0.0
Li264 Li 0.55576 0.79714 0.07921 0.0
Li265 Li 0.52278 0.7714 0.10676 0.0
Li266 Li 0.55568 0.76143 0.09716 0.0
Li267 Li 0.52297 0.75324 0.06974 0.0
C268 C 0.58421 0.80712 0.11888 0.0
N269 N 0.63369 0.83647 0.13265 0.0
C270 C 0.58968 0.81664 0.14091 0.0
C271 C 0.60389 0.81249 0.10385 0.0
C272 C 0.61483 0.83146 0.14755 0.0
C273 C 0.62878 0.82737 0.11114 0.0
C274 C 0.50384 0.7921 0.07109 0.0
C275 C 0.46452 0.78679 0.05692 0.0
N276 N 0.4733 0.81182 0.06004 0.0
C277 C 0.51253 0.81782 0.07398 0.0
C278 C 0.47969 0.77647 0.06233 0.0
C279 C 0.49679 0.82741 0.06838 0.0
C280 C 0.57941 0.83323 0.04464 0.0
N281 N 0.57521 0.83034 0.0673 0.0
C282 C 0.59739 0.87501 0.07266 0.0
C283 C 0.58388 0.85057 0.08134 0.0
C284 C 0.60188 0.87869 0.04926 0.0
C285 C 0.59277 0.85736 0.03521 0.0
H286 H 0.57207 0.81677 0.03387 0.0
H287 H 0.58004 0.84775 0.09927 0.0
C288 C 0.49676 0.75534 0.14812 0.0
N289 N 0.50204 0.7718 0.13074 0.0
C290 C 0.4812 0.75428 0.16587 0.0
C291 C 0.47726 0.78754 0.14783 0.0
C292 C 0.4929 0.78796 0.13045 0.0
C293 C 0.47109 0.77043 0.16581 0.0
H294 H 0.5045 0.74287 0.14809 0.0
H295 H 0.49777 0.80127 0.11682 0.0
C296 C 0.56531 0.75442 0.05213 0.0
N297 N 0.57545 0.72225 0.02737 0.0
C298 C 0.55418 0.72897 0.0581 0.0
C299 C 0.58158 0.7635 0.03358 0.0
C300 C 0.55955 0.71302 0.04537 0.0
C301 C 0.58648 0.74694 0.02127 0.0
C302 C 0.49528 0.71803 0.10389 0.0
C303 C 0.49185 0.69502 0.11178 0.0
C304 C 0.47431 0.72076 0.09975 0.0
C305 C 0.4674 0.67502 0.1153 0.0
C306 C 0.45018 0.70033 0.1035 0.0
N307 N 0.44725 0.67806 0.11112 0.0
C308 C 0.56748 0.73487 0.12872 0.0
C309 C 0.59786 0.75346 0.09952 0.0
C310 C 0.58092 0.72433 0.13837 0.0
N311 N 0.57602 0.74894 0.10958 0.0
C312 C 0.61179 0.74311 0.10849 0.0
C313 C 0.60328 0.72822 0.12812 0.0
H314 H 0.55005 0.73162 0.13634 0.0
H315 H 0.60437 0.76492 0.08442 0.0
C316 C 0.5006 0.74366 0.02668 0.0
N317 N 0.50273 0.73218 0.04555 0.0
C318 C 0.48605 0.72929 0.00839 0.0
C319 C 0.47644 0.69155 0.02917 0.0
C320 C 0.49126 0.70664 0.04699 0.0
C321 C 0.47361 0.70282 0.0095 0.0
H322 H 0.51025 0.76403 0.02587 0.0
H323 H 0.49364 0.69789 0.06191 0.0
O324 O 0.55965 0.79245 0.11224 0.0
O325 O 0.51913 0.78242 0.07616 0.0
O326 O 0.56032 0.77046 0.06424 0.0
O327 O 0.51911 0.7377 0.10027 0.0
H328 H 0.57463 0.81259 0.15274 0.0
H329 H 0.60004 0.80529 0.08675 0.0
H330 H 0.61935 0.83896 0.16455 0.0
H331 H 0.6442 0.83168 0.09969 0.0
H332 H 0.44578 0.77489 0.05018 0.0
H333 H 0.5311 0.83019 0.08078 0.0
H334 H 0.47272 0.7566 0.05964 0.0
H335 H 0.50323 0.84724 0.07068 0.0
H336 H 0.60429 0.89083 0.08419 0.0
H337 H 0.59545 0.85925 0.01706 0.0
H338 H 0.47682 0.74067 0.1793 0.0
H339 H 0.47032 0.80069 0.14731 0.0
H340 H 0.54161 0.7216 0.07244 0.0
H341 H 0.59033 0.78315 0.02875 0.0
H342 H 0.55109 0.6933 0.0498 0.0
H343 H 0.59904 0.75371 0.00687 0.0
H344 H 0.50792 0.69263 0.11505 0.0
H345 H 0.47667 0.73849 0.09388 0.0
H346 H 0.46445 0.65707 0.12135 0.0
H347 H 0.43378 0.70219 0.10038 0.0
H348 H 0.57358 0.71279 0.15339 0.0
H349 H 0.62908 0.74681 0.10022 0.0
H350 H 0.48483 0.73886 0.99345 0.0
H351 H 0.46706 0.67125 0.03094 0.0
Li352 Li 0.76213 0.55286 0.24731 0.0
Li353 Li 0.7556 0.51902 0.27328 0.0
Li354 Li 0.79962 0.55276 0.26305 0.0
Li355 Li 0.77251 0.51922 0.23633 0.0
C356 C 0.7756 0.57708 0.28992 0.0
N357 N 0.78136 0.61989 0.31112 0.0
C358 C 0.75778 0.57529 0.3057 0.0
C359 C 0.79661 0.6006 0.28528 0.0
C360 C 0.76094 0.59716 0.31613 0.0
C361 C 0.79912 0.62203 0.29608 0.0
C362 C 0.71466 0.49854 0.24786 0.0
C363 C 0.68224 0.45568 0.25541 0.0
N364 N 0.66522 0.46358 0.25808 0.0
C365 C 0.6968 0.50619 0.25048 0.0
C366 C 0.70729 0.47305 0.25014 0.0
C367 C 0.67191 0.48824 0.2557 0.0
C368 C 0.75315 0.581 0.21461 0.0
N369 N 0.74879 0.57323 0.23652 0.0
C370 C 0.72363 0.59264 0.24191 0.0
C371 C 0.73426 0.57866 0.25015 0.0
C372 C 0.72793 0.6011 0.21936 0.0
C373 C 0.74307 0.59519 0.20571 0.0
H374 H 0.76432 0.57599 0.20396 0.0
H375 H 0.73031 0.57154 0.26725 0.0
C376 C 0.73929 0.48048 0.30634 0.0
N377 N 0.73467 0.49816 0.29725 0.0
C378 C 0.72395 0.46469 0.32359 0.0
C379 C 0.6996 0.48583 0.32207 0.0
C380 C 0.71537 0.50116 0.3048 0.0
C381 C 0.70377 0.46724 0.33168 0.0
H382 H 0.75493 0.47868 0.30024 0.0
H383 H 0.71206 0.51532 0.29724 0.0
C384 C 0.8106 0.57642 0.21949 0.0
N385 N 0.84786 0.61727 0.19626 0.0
C386 C 0.82487 0.57287 0.20297 0.0
C387 C 0.815 0.60072 0.22387 0.0
C388 C 0.84371 0.59377 0.19151 0.0
C389 C 0.83398 0.62113 0.21204 0.0
C390 C 0.7943 0.49952 0.26197 0.0
C391 C 0.82023 0.50856 0.26083 0.0
C392 C 0.77742 0.47386 0.25859 0.0
C393 C 0.82882 0.49181 0.25598 0.0
C394 C 0.78675 0.45772 0.25373 0.0
N395 N 0.81205 0.46696 0.25252 0.0
C396 C 0.83605 0.57713 0.29696 0.0
C397 C 0.85349 0.58154 0.26034 0.0
C398 C 0.86012 0.59083 0.30642 0.0
N399 N 0.83319 0.57284 0.2743 0.0
C400 C 0.87789 0.5954 0.26905 0.0
C401 C 0.88145 0.60012 0.29241 0.0
H402 H 0.81959 0.56974 0.30772 0.0
H403 H 0.85085 0.57721 0.24253 0.0
C404 C 0.75067 0.48313 0.20132 0.0
N405 N 0.77273 0.49887 0.21195 0.0
C406 C 0.75008 0.46761 0.18373 0.0
C407 C 0.79499 0.48501 0.18815 0.0
C408 C 0.79471 0.50025 0.20558 0.0
C409 C 0.77244 0.46832 0.17698 0.0
H410 H 0.73351 0.48267 0.20645 0.0
H411 H 0.81205 0.51307 0.21417 0.0
O412 O 0.77278 0.55579 0.2796 0.0
O413 O 0.73922 0.51591 0.24315 0.0
O414 O 0.79207 0.55611 0.23085 0.0
O415 O 0.78554 0.51571 0.26647 0.0
H416 H 0.74159 0.55723 0.30977 0.0
H417 H 0.811 0.60232 0.2737 0.0
H418 H 0.74717 0.59605 0.32823 0.0
H419 H 0.81526 0.64036 0.29257 0.0
H420 H 0.67633 0.43593 0.25738 0.0
H421 H 0.70211 0.52578 0.24863 0.0
H422 H 0.72081 0.46677 0.24801 0.0
H423 H 0.65793 0.49393 0.25791 0.0
H424 H 0.71162 0.59617 0.25294 0.0
H425 H 0.74715 0.60147 0.18831 0.0
H426 H 0.72806 0.45086 0.33074 0.0
H427 H 0.6841 0.48827 0.32761 0.0
H428 H 0.82155 0.55421 0.19912 0.0
H429 H 0.80364 0.6038 0.23601 0.0
H430 H 0.85501 0.59129 0.17882 0.0
H431 H 0.83759 0.64004 0.21531 0.0
H432 H 0.83359 0.5283 0.26355 0.0
H433 H 0.75732 0.4665 0.25953 0.0
H434 H 0.84884 0.49857 0.25493 0.0
H435 H 0.77388 0.43786 0.25091 0.0
H436 H 0.86199 0.59416 0.32449 0.0
H437 H 0.8938 0.60177 0.2577 0.0
H438 H 0.73234 0.45541 0.17536 0.0
H439 H 0.81263 0.48604 0.18371 0.0
Li440 Li 0.21495 0.75944 0.41321 0.0
Li441 Li 0.24235 0.75362 0.43992 0.0
Li442 Li 0.25271 0.79741 0.42824 0.0
Li443 Li 0.25861 0.7692 0.40267 0.0
C444 C 0.20614 0.77471 0.45743 0.0
N445 N 0.17244 0.78207 0.48279 0.0
C446 C 0.19168 0.75742 0.47423 0.0
C447 C 0.20376 0.79599 0.45383 0.0
C448 C 0.17466 0.76139 0.48678 0.0
C449 C 0.18655 0.79931 0.46675 0.0
C450 C 0.22033 0.71154 0.4153 0.0
C451 C 0.22848 0.67803 0.42507 0.0
N452 N 0.20323 0.6617 0.42621 0.0
C453 C 0.19446 0.69439 0.41642 0.0
C454 C 0.2375 0.70329 0.41949 0.0
C455 C 0.1862 0.66928 0.422 0.0
C456 C 0.17783 0.74546 0.37967 0.0
N457 N 0.18124 0.74581 0.40241 0.0
C458 C 0.13675 0.72528 0.40858 0.0
C459 C 0.16132 0.73589 0.41688 0.0
C460 C 0.13258 0.72465 0.38514 0.0
C461 C 0.15358 0.735 0.37062 0.0
H462 H 0.194 0.75313 0.36853 0.0
H463 H 0.16442 0.73584 0.43483 0.0
C464 C 0.26434 0.73973 0.47516 0.0
N465 N 0.24224 0.73358 0.46468 0.0
C466 C 0.26483 0.72495 0.49295 0.0
C467 C 0.2198 0.69786 0.48887 0.0
C468 C 0.22015 0.7133 0.47135 0.0
C469 C 0.24236 0.70359 0.49988 0.0
H470 H 0.28162 0.75606 0.46964 0.0
H471 H 0.20279 0.70899 0.46292 0.0
C472 C 0.2366 0.80523 0.38455 0.0
N473 N 0.22638 0.83802 0.36088 0.0
C474 C 0.25164 0.81876 0.36616 0.0
C475 C 0.21617 0.80813 0.39069 0.0
C476 C 0.24623 0.83533 0.35447 0.0
C477 C 0.21135 0.82485 0.37857 0.0
C478 C 0.30015 0.79165 0.42706 0.0
C479 C 0.3166 0.81729 0.42311 0.0
C480 C 0.30895 0.77461 0.42523 0.0
C481 C 0.34158 0.82543 0.41713 0.0
C482 C 0.33404 0.78349 0.41917 0.0
N483 N 0.3497 0.8085 0.41526 0.0
C484 C 0.2699 0.83456 0.46163 0.0
C485 C 0.27313 0.85101 0.42474 0.0
C486 C 0.28061 0.85871 0.47095 0.0
N487 N 0.26638 0.83117 0.43892 0.0
C488 C 0.28372 0.87548 0.43335 0.0
C489 C 0.28775 0.87965 0.45676 0.0
H490 H 0.26462 0.81845 0.47248 0.0
H491 H 0.27059 0.84801 0.40674 0.0
C492 C 0.27559 0.74638 0.37074 0.0
N493 N 0.27923 0.76879 0.37868 0.0
C494 C 0.29093 0.7458 0.35355 0.0
C495 C 0.31329 0.79135 0.35285 0.0
C496 C 0.29749 0.79104 0.37002 0.0
C497 C 0.31015 0.7685 0.3444 0.0
H498 H 0.26083 0.72895 0.37778 0.0
H499 H 0.29988 0.80859 0.37656 0.0
O500 O 0.22303 0.77114 0.44511 0.0
O501 O 0.22877 0.73627 0.41012 0.0
O502 O 0.24169 0.78894 0.39614 0.0
O503 O 0.27552 0.78326 0.43251 0.0
H504 H 0.19347 0.74101 0.47747 0.0
H505 H 0.21525 0.80997 0.4414 0.0
H506 H 0.16323 0.74806 0.49971 0.0
H507 H 0.18449 0.81567 0.46408 0.0
H508 H 0.24155 0.67144 0.42854 0.0
H509 H 0.18091 0.70042 0.41314 0.0
H510 H 0.25757 0.71631 0.41873 0.0
H511 H 0.16624 0.65582 0.42304 0.0
H512 H 0.12119 0.71772 0.42044 0.0
H513 H 0.1513 0.73455 0.35243 0.0
H514 H 0.28264 0.72994 0.50093 0.0
H515 H 0.20202 0.68175 0.4939 0.0
H516 H 0.26737 0.81657 0.36099 0.0
H517 H 0.20395 0.79738 0.40447 0.0
H518 H 0.2578 0.84602 0.34028 0.0
H519 H 0.19561 0.82728 0.38318 0.0
H520 H 0.3101 0.83073 0.42444 0.0
H521 H 0.29647 0.75472 0.42826 0.0
H522 H 0.35449 0.8452 0.4139 0.0
H523 H 0.34106 0.7705 0.41753 0.0
H524 H 0.28373 0.86096 0.48904 0.0
H525 H 0.28862 0.89092 0.42174 0.0
H526 H 0.28797 0.72775 0.34771 0.0
H527 H 0.32761 0.8093 0.34609 0.0
H528 H 0.4118 0.11616 0.50705 0.0
H529 H 0.38965 0.07351 0.49112 0.0
H530 H 0.3559 0.04366 0.55606 0.0
H531 H 0.37786 0.08629 0.57214 0.0
H532 H 0.39351 0.02978 0.51006 0.0
H533 H 0.29625 0.01524 0.50794 0.0
H534 H 0.32395 0.04627 0.50825 0.0
H535 H 0.31405 0.02773 0.53361 0.0
C536 C 0.39941 0.10056 0.51787 0.0
C537 C 0.39651 0.10457 0.54084 0.0
C538 C 0.3869 0.07623 0.50877 0.0
C539 C 0.37104 0.05555 0.5224 0.0
C540 C 0.3679 0.05946 0.54526 0.0
H541 H 0.27686 0.89512 0.49671 0.0
H542 H 0.2977 0.93755 0.51282 0.0
C543 C 0.38057 0.08376 0.55443 0.0
C544 C 0.35848 0.02975 0.51287 0.0
H545 H 0.30107 0.98067 0.4976 0.0
C546 C 0.37331 0.01901 0.50726 0.0
C547 C 0.33215 0.01579 0.50946 0.0
C548 C 0.31555 0.02677 0.51497 0.0
C549 C 0.36243 0.99444 0.49854 0.0
C550 C 0.33607 0.98055 0.49473 0.0
C551 C 0.32125 0.99133 0.50045 0.0
C552 C 0.32351 0.9548 0.48484 0.0
C553 C 0.37922 0.9834 0.49407 0.0
C554 C 0.33083 0.95042 0.4636 0.0
C555 C 0.31924 0.9261 0.4545 0.0
C556 C 0.29977 0.90566 0.46628 0.0
C557 C 0.29209 0.91026 0.48734 0.0
C558 C 0.30384 0.93457 0.4965 0.0
H559 H 0.39693 0.99314 0.50407 0.0
H560 H 0.36947 0.96299 0.49819 0.0
H561 H 0.38444 0.98574 0.4759 0.0
H562 H 0.34554 0.96582 0.45402 0.0
H563 H 0.32585 0.92331 0.43836 0.0
H564 H 0.40109 0.2881 0.66779 0.0
H565 H 0.3783 0.30808 0.6831 0.0
H566 H 0.36355 0.32367 0.61543 0.0
H567 H 0.38612 0.30348 0.59992 0.0
H568 H 0.38234 0.36531 0.64432 0.0
H569 H 0.30201 0.28119 0.68361 0.0
H570 H 0.33244 0.28637 0.69194 0.0
H571 H 0.32251 0.2789 0.66298 0.0
C572 C 0.39265 0.29539 0.65613 0.0
C573 C 0.39537 0.29409 0.6326 0.0
C574 C 0.37963 0.30682 0.66492 0.0
C575 C 0.36895 0.31706 0.6504 0.0
C576 C 0.37161 0.31582 0.62693 0.0
H577 H 0.26542 0.36946 0.6884 0.0
H578 H 0.28535 0.34726 0.67148 0.0
C579 C 0.38462 0.30438 0.61811 0.0
C580 C 0.35587 0.32994 0.6597 0.0
H581 H 0.30652 0.32104 0.69303 0.0
C582 C 0.36569 0.35562 0.65488 0.0
C583 C 0.334 0.31718 0.67327 0.0
C584 C 0.32193 0.28933 0.67812 0.0
C585 C 0.35454 0.36902 0.66367 0.0
C586 C 0.33321 0.35647 0.67789 0.0
C587 C 0.32304 0.33066 0.6823 0.0
C588 C 0.32116 0.36984 0.68831 0.0
C589 C 0.36554 0.39644 0.65746 0.0
C590 C 0.33458 0.38965 0.70361 0.0
C591 C 0.32331 0.40243 0.71322 0.0
C592 C 0.29831 0.39557 0.70779 0.0
C593 C 0.2848 0.37544 0.69269 0.0
C594 C 0.29609 0.36263 0.68312 0.0
H595 H 0.37754 0.40143 0.6421 0.0
H596 H 0.35041 0.40107 0.65445 0.0
H597 H 0.37744 0.40835 0.67162 0.0
H598 H 0.35382 0.39524 0.70812 0.0
H599 H 0.33433 0.41797 0.72462 0.0
H600 H 0.8997 0.26872 0.85001 0.0
H601 H 0.94241 0.28891 0.8344 0.0
H602 H 0.96681 0.34831 0.88386 0.0
H603 H 0.92412 0.32866 0.89929 0.0
H604 H 0.97129 0.34001 0.81702 0.0
H605 H 0.01782 0.32241 0.88984 0.0
H606 H 0.9841 0.30498 0.88559 0.0
H607 H 0.99898 0.33645 0.89677 0.0
C608 C 0.91409 0.28616 0.8575 0.0
C609 C 0.90844 0.29699 0.87599 0.0
C610 C 0.93851 0.29759 0.84863 0.0
C611 C 0.9578 0.3199 0.85818 0.0
C612 C 0.95228 0.33082 0.87654 0.0
H613 H 0.11636 0.42031 0.83148 0.0
H614 H 0.07356 0.39803 0.84688 0.0
C615 C 0.92786 0.31949 0.88537 0.0
C616 C 0.98356 0.33218 0.84854 0.0
H617 H 0.04449 0.34924 0.8609 0.0
C618 C 0.98731 0.34192 0.82652 0.0
C619 C 1.00437 0.33472 0.86107 0.0
C620 C 1.00122 0.32394 0.88457 0.0
C621 C 0.01147 0.35468 0.81682 0.0
C622 C 0.03232 0.35719 0.82933 0.0
C623 C 0.0285 0.34729 0.85133 0.0
C624 C 0.05832 0.37033 0.82003 0.0
C625 C 0.0145 0.36602 0.79356 0.0
C626 C 0.06408 0.3619 0.80003 0.0
C627 C 0.08851 0.37464 0.79116 0.0
C628 C 0.10774 0.39586 0.8023 0.0
C629 C 0.10203 0.4039 0.82261 0.0
C630 C 0.07757 0.39125 0.83138 0.0
H631 H 0.99829 0.36853 0.78904 0.0
H632 H 0.03208 0.38459 0.79241 0.0
H633 H 0.01554 0.35322 0.78087 0.0
H634 H 0.0497 0.3454 0.7913 0.0
H635 H 0.09242 0.36774 0.77569 0.0
H636 H 0.5982 0.91986 0.06173 0.0
H637 H 0.62081 0.96241 0.04591 0.0
H638 H 0.65883 0.93888 0.99891 0.0
H639 H 0.63668 0.89632 0.01488 0.0
H640 H 0.67466 0.99542 0.04263 0.0
H641 H 0.6273 0.97166 0.95869 0.0
H642 H 0.61455 0.9511 0.98291 0.0
H643 H 0.64057 0.95267 0.96753 0.0
C644 C 0.61154 0.92373 0.04817 0.0
C645 C 0.61559 0.9046 0.03958 0.0
C646 C 0.62433 0.94805 0.03908 0.0
C647 C 0.64125 0.95369 0.02109 0.0
C648 C 0.6455 0.93477 0.01253 0.0
H649 H 0.731 0.09011 0.94217 0.0
H650 H 0.71095 0.04742 0.95789 0.0
C651 C 0.63277 0.91045 0.02166 0.0
C652 C 0.65469 0.97951 0.01154 0.0
H653 H 0.66059 0.01345 0.96382 0.0
C654 C 0.67159 0.99942 0.02542 0.0
C655 C 0.65069 0.98457 0.98905 0.0
C656 C 0.63216 0.96396 0.97366 0.0
C657 C 0.68483 0.02429 0.01733 0.0
C658 C 0.68059 0.02944 0.99492 0.0
C659 C 0.66381 0.00947 0.98099 0.0
C660 C 0.69306 0.05546 0.98567 0.0
C661 C 0.70357 0.04474 0.03274 0.0
C662 C 0.68941 0.07407 0.99592 0.0
C663 C 0.70084 0.09845 0.98699 0.0
C664 C 0.71593 0.10466 0.96748 0.0
C665 C 0.71934 0.08589 0.95712 0.0
C666 C 0.70798 0.06152 0.96612 0.0
H667 H 0.70992 0.03687 0.04652 0.0
H668 H 0.72036 0.05879 0.02318 0.0
H669 H 0.69454 0.05465 0.04068 0.0
H670 H 0.67743 0.06965 0.01066 0.0
H671 H 0.69742 0.11232 0.99512 0.0
H672 H 0.70824 0.59754 0.17693 0.0
H673 H 0.689 0.62093 0.16159 0.0
H674 H 0.70007 0.65915 0.22544 0.0
H675 H 0.72059 0.63685 0.24059 0.0
H676 H 0.64697 0.62075 0.17507 0.0
H677 H 0.7285 0.7178 0.18211 0.0
H678 H 0.73159 0.69018 0.18545 0.0
H679 H 0.72023 0.70102 0.20846 0.0
C680 C 0.7071 0.6113 0.18761 0.0
C681 C 0.71621 0.61542 0.20998 0.0
C682 C 0.69586 0.6245 0.17885 0.0
C683 C 0.69344 0.64211 0.19223 0.0
C684 C 0.70224 0.6461 0.21462 0.0
H685 H 0.61469 0.72575 0.17247 0.0
H686 H 0.63669 0.70488 0.18806 0.0
C687 C 0.71366 0.63303 0.22336 0.0
C688 C 0.68087 0.65554 0.18294 0.0
H689 H 0.68891 0.71411 0.17297 0.0
C690 C 0.65622 0.64116 0.1745 0.0
C691 C 0.69295 0.6822 0.18218 0.0
C692 C 0.71986 0.69872 0.18983 0.0
C693 C 0.64323 0.65269 0.16561 0.0
C694 C 0.65523 0.67927 0.16508 0.0
C695 C 0.6798 0.69371 0.17352 0.0
C696 C 0.64252 0.69235 0.15558 0.0
C697 C 0.61665 0.63646 0.15705 0.0
C698 C 0.63884 0.69239 0.13218 0.0
C699 C 0.62639 0.70434 0.12323 0.0
C700 C 0.6173 0.71634 0.13758 0.0
C701 C 0.62126 0.71644 0.16103 0.0
C702 C 0.6339 0.70467 0.16994 0.0
H703 H 0.60868 0.61634 0.16183 0.0
H704 H 0.60423 0.64331 0.16379 0.0
H705 H 0.61656 0.63769 0.13832 0.0
H706 H 0.6455 0.68307 0.12085 0.0
H707 H 0.62343 0.70375 0.10512 0.0
H708 H 0.11552 0.74064 0.34941 0.0
H709 H 0.07278 0.72056 0.33383 0.0
H710 H 0.04791 0.66206 0.38424 0.0
H711 H 0.0906 0.68165 0.39968 0.0
H712 H 0.04368 0.66994 0.31692 0.0
H713 H 0.99721 0.68796 0.38948 0.0
H714 H 0.03097 0.70497 0.3855 0.0
H715 H 0.01558 0.67349 0.39669 0.0
C716 C 0.10101 0.72342 0.35713 0.0
C717 C 0.10652 0.71282 0.37588 0.0
C718 C 0.07658 0.71207 0.34827 0.0
C719 C 0.05715 0.69004 0.35809 0.0
C720 C 0.06254 0.67935 0.37672 0.0
H721 H 0.89886 0.58916 0.33093 0.0
H722 H 0.94165 0.6115 0.34636 0.0
C723 C 0.08696 0.69062 0.38554 0.0
C724 C 0.03139 0.67779 0.34843 0.0
H725 H 0.97045 0.66072 0.36072 0.0
C726 C 0.02766 0.66804 0.3264 0.0
C727 C 0.01058 0.67529 0.36093 0.0
C728 C 0.0137 0.68615 0.3844 0.0
C729 C 1.00352 0.65531 0.31668 0.0
C730 C 0.98266 0.65278 0.32917 0.0
C731 C 0.98645 0.66268 0.35117 0.0
C732 C 0.95668 0.63962 0.31986 0.0
C733 C 1.00048 0.64404 0.29338 0.0
C734 C 0.95083 0.64826 0.30005 0.0
C735 C 0.9264 0.63552 0.29118 0.0
C736 C 0.90727 0.61406 0.30211 0.0
C737 C 0.9131 0.60576 0.32222 0.0
C738 C 0.93756 0.61844 0.33101 0.0
H739 H 0.01679 0.64174 0.28873 0.0
H740 H 0.98301 0.62537 0.29228 0.0
H741 H 0.99917 0.65674 0.28076 0.0
H742 H 0.96515 0.66493 0.29148 0.0
H743 H 0.92242 0.64263 0.27588 0.0
H744 H 0.53654 0.34001 0.48333 0.0
H745 H 0.56379 0.36684 0.45284 0.0
H746 H 0.61497 0.33893 0.46459 0.0
H747 H 0.5881 0.31241 0.49542 0.0
H748 H 0.63849 0.39247 0.46055 0.0
H749 H 0.57235 0.34239 0.3898 0.0
H750 H 0.55935 0.35161 0.41268 0.0
H751 H 0.56877 0.32853 0.4175 0.0
C752 C 0.55367 0.33968 0.47951 0.0
C753 C 0.56013 0.32403 0.49176 0.0
C754 C 0.56908 0.35484 0.46195 0.0
C755 C 0.5912 0.3546 0.45629 0.0
C756 C 0.59787 0.33923 0.46861 0.0
H757 H 0.68453 0.41643 0.33665 0.0
H758 H 0.65775 0.3893 0.36724 0.0
C759 C 0.58242 0.32399 0.48612 0.0
C760 C 0.60766 0.37074 0.43779 0.0
H761 H 0.60935 0.38084 0.38083 0.0
C762 C 0.63217 0.38993 0.44311 0.0
C763 C 0.59941 0.36717 0.41504 0.0
C764 C 0.57361 0.34619 0.40828 0.0
C765 C 0.64855 0.40594 0.4263 0.0
C766 C 0.64006 0.40277 0.40365 0.0
C767 C 0.6157 0.38332 0.39826 0.0
C768 C 0.65632 0.41931 0.38523 0.0
C769 C 0.67491 0.42588 0.43285 0.0
C770 C 0.66413 0.44511 0.38512 0.0
C771 C 0.67947 0.46066 0.36771 0.0
C772 C 0.68725 0.45068 0.35007 0.0
C773 C 0.67917 0.42476 0.35015 0.0
C774 C 0.66375 0.40921 0.36753 0.0
H775 H 0.68034 0.42212 0.44972 0.0
H776 H 0.68882 0.4271 0.42014 0.0
H777 H 0.67593 0.44448 0.43356 0.0
H778 H 0.6583 0.45319 0.39848 0.0
H779 H 0.6855 0.48057 0.36822 0.0
H780 H 0.21867 0.65217 0.50089 0.0
H781 H 0.21869 0.62534 0.53154 0.0
H782 H 0.26597 0.6914 0.57151 0.0
H783 H 0.26639 0.71834 0.5407 0.0
H784 H 0.2823 0.65818 0.57311 0.0
H785 H 0.17958 0.60842 0.58984 0.0
H786 H 0.18682 0.60553 0.56098 0.0
H787 H 0.19494 0.63603 0.5721 0.0
C788 C 0.22889 0.66095 0.5163 0.0
C789 C 0.2424 0.68734 0.51847 0.0
C790 C 0.22882 0.6456 0.53383 0.0
C791 C 0.2419 0.65633 0.55402 0.0
C792 C 0.25564 0.6827 0.55612 0.0
H793 H 0.22095 0.57303 0.67902 0.0
H794 H 0.2217 0.60122 0.64928 0.0
C795 C 0.25593 0.69807 0.53851 0.0
C796 C 0.24178 0.64011 0.57274 0.0
H797 H 0.20287 0.59141 0.60737 0.0
C798 C 0.26493 0.64366 0.58069 0.0
C799 C 0.21914 0.62143 0.58287 0.0
C800 C 0.19373 0.61777 0.57619 0.0
C801 C 0.26607 0.62879 0.59822 0.0
C802 C 0.24338 0.60936 0.60764 0.0
C803 C 0.22024 0.6061 0.59996 0.0
C804 C 0.24318 0.59236 0.62566 0.0
C805 C 0.2916 0.63441 0.60673 0.0
C806 C 0.25471 0.57777 0.62218 0.0
C807 C 0.25447 0.56181 0.63921 0.0
C808 C 0.24228 0.5598 0.65989 0.0
C809 C 0.23034 0.57407 0.66319 0.0
C810 C 0.23082 0.59022 0.64624 0.0
H811 H 0.30639 0.65406 0.60275 0.0
H812 H 0.29136 0.63158 0.6253 0.0
H813 H 0.29693 0.62153 0.59836 0.0
H814 H 0.26373 0.57854 0.60621 0.0
H815 H 0.26347 0.55073 0.63607 0.0
H816 H 0.68715 0.20934 0.80701 0.0
H817 H 0.65967 0.20943 0.77698 0.0
H818 H 0.65673 0.27071 0.80993 0.0
H819 H 0.68375 0.27041 0.84031 0.0
H820 H 0.60906 0.23046 0.79558 0.0
H821 H 0.68064 0.26368 0.72703 0.0
H822 H 0.67685 0.23671 0.74246 0.0
H823 H 0.68893 0.2665 0.75663 0.0
C824 C 0.68053 0.22274 0.80795 0.0
C825 C 0.68771 0.23994 0.82601 0.0
C826 C 0.66504 0.22292 0.79066 0.0
C827 C 0.65647 0.2403 0.7911 0.0
C828 C 0.66331 0.25727 0.80922 0.0
H829 H 0.58728 0.27877 0.68156 0.0
H830 H 0.61419 0.27929 0.71242 0.0
C831 C 0.67887 0.25717 0.82647 0.0
C832 C 0.64009 0.24058 0.7728 0.0
H833 H 0.63858 0.25053 0.71612 0.0
C834 C 0.61549 0.23489 0.77821 0.0
C835 C 0.64868 0.24665 0.75022 0.0
C836 C 0.67528 0.25396 0.74367 0.0
C837 C 0.59907 0.23469 0.76153 0.0
C838 C 0.60743 0.24009 0.73885 0.0
C839 C 0.63217 0.2462 0.73351 0.0
C840 C 0.59086 0.2397 0.72041 0.0
C841 C 0.57303 0.22906 0.76836 0.0
C842 C 0.56895 0.21721 0.71457 0.0
C843 C 0.55349 0.21687 0.69701 0.0
C844 C 0.5597 0.23901 0.68491 0.0
C845 C 0.58177 0.26148 0.69075 0.0
C846 C 0.59725 0.26178 0.70827 0.0
H847 H 0.57167 0.23134 0.78686 0.0
H848 H 0.56767 0.24158 0.7593 0.0
H849 H 0.55918 0.20928 0.76384 0.0
H850 H 0.56388 0.19988 0.72352 0.0
H851 H 0.53653 0.1993 0.69306 0.0
H852 H 0.3374 0.53241 0.8638 0.0
H853 H 0.3654 0.56041 0.89332 0.0
H854 H 0.35234 0.61963 0.87017 0.0
H855 H 0.32493 0.59213 0.84012 0.0
H856 H 0.4106 0.61219 0.88605 0.0
H857 H 0.33529 0.60994 0.94041 0.0
H858 H 0.32906 0.58561 0.91991 0.0
H859 H 0.33417 0.61571 0.91068 0.0
C860 C 0.34066 0.55147 0.86477 0.0
C861 C 0.32883 0.55996 0.84954 0.0
C862 C 0.35655 0.56737 0.88175 0.0
C863 C 0.3607 0.59194 0.88399 0.0
C864 C 0.34907 0.60057 0.86886 0.0
H865 H 0.4421 0.71105 0.98232 0.0
H866 H 0.416 0.685 0.95102 0.0
C867 C 0.33331 0.58477 0.85177 0.0
C868 C 0.37745 0.60867 0.90204 0.0
H869 H 0.37735 0.63695 0.95174 0.0
C870 C 0.4034 0.61762 0.90046 0.0
C871 C 0.36791 0.61576 0.92066 0.0
C872 C 0.34007 0.6062 0.92325 0.0
C873 C 0.42022 0.6338 0.91695 0.0
C874 C 0.41066 0.64062 0.93582 0.0
C875 C 0.38465 0.6317 0.9373 0.0
C876 C 0.42723 0.6568 0.95434 0.0
C877 C 0.44808 0.64389 0.9137 0.0
C878 C 0.44212 0.64955 0.96673 0.0
C879 C 0.45736 0.66458 0.98442 0.0
C880 C 0.45776 0.68705 0.99035 0.0
C881 C 0.44263 0.69413 0.97801 0.0
C882 C 0.42752 0.67915 0.96021 0.0
H883 H 0.45276 0.64321 0.89565 0.0
H884 H 0.45931 0.66364 0.91976 0.0
H885 H 0.45382 0.63212 0.92348 0.0
H886 H 0.44179 0.6321 0.96285 0.0
H887 H 0.46891 0.65863 0.99337 0.0
H888 H 0.80636 0.32929 0.03352 0.0
H889 H 0.8062 0.35669 0.06349 0.0
H890 H 0.73745 0.34953 0.03665 0.0
H891 H 0.73799 0.32294 0.00605 0.0
H892 H 0.7723 0.39842 0.04729 0.0
H893 H 0.7606 0.33481 0.1188 0.0
H894 H 0.78722 0.34211 0.10112 0.0
H895 H 0.75587 0.32446 0.08971 0.0
C896 C 0.79129 0.33368 0.03386 0.0
C897 C 0.77212 0.3238 0.0174 0.0
C898 C 0.79107 0.3491 0.05119 0.0
C899 C 0.77157 0.35478 0.05254 0.0
C900 C 0.75256 0.3452 0.03603 0.0
H901 H 0.73688 0.41911 0.16852 0.0
H902 H 0.73632 0.39213 0.13779 0.0
C903 C 0.7528 0.32984 0.01866 0.0
C904 C 0.77123 0.37112 0.0709 0.0
H905 H 0.76999 0.37634 0.12834 0.0
C906 C 0.77172 0.39357 0.06502 0.0
C907 C 0.77012 0.36458 0.094 0.0
C908 C 0.76817 0.34007 0.10134 0.0
C909 C 0.7715 0.40985 0.08162 0.0
C910 C 0.77129 0.40374 0.10474 0.0
C911 C 0.77041 0.38111 0.11061 0.0
C912 C 0.77162 0.4204 0.12312 0.0
C913 C 0.77105 0.43321 0.07424 0.0
C914 C 0.79177 0.44518 0.12521 0.0
C915 C 0.79202 0.46076 0.14261 0.0
C916 C 0.77221 0.45178 0.15843 0.0
C917 C 0.75221 0.4268 0.15643 0.0
C918 C 0.75195 0.41127 0.13898 0.0
H919 H 0.76431 0.43158 0.05653 0.0
H920 H 0.75873 0.43696 0.08543 0.0
H921 H 0.79042 0.44967 0.07513 0.0
H922 H 0.80739 0.45246 0.11343 0.0
H923 H 0.80762 0.47994 0.14352 0.0
H924 H 0.36111 0.79965 0.33966 0.0
H925 H 0.38823 0.79967 0.30926 0.0
H926 H 0.32412 0.73697 0.27759 0.0
H927 H 0.29679 0.73693 0.30778 0.0
H928 H 0.36687 0.73122 0.28053 0.0
H929 H 0.39032 0.82397 0.24397 0.0
H930 H 0.39638 0.82457 0.27377 0.0
H931 H 0.36454 0.80711 0.26348 0.0
C932 C 0.35271 0.78603 0.3261 0.0
C933 C 0.32674 0.76837 0.32609 0.0
C934 C 0.36825 0.78607 0.30876 0.0
C935 C 0.35811 0.76855 0.29103 0.0
C936 C 0.3323 0.75068 0.29111 0.0
H937 H 0.42817 0.77354 0.1622 0.0
H938 H 0.40066 0.77243 0.1927 0.0
C939 C 0.31674 0.75062 0.30843 0.0
C940 C 0.37446 0.76867 0.2725 0.0
H941 H 0.41287 0.80481 0.22961 0.0
C942 C 0.37691 0.74728 0.26936 0.0
C943 C 0.38726 0.78953 0.2578 0.0
C944 C 0.38438 0.81253 0.25971 0.0
C945 C 0.39214 0.74632 0.25208 0.0
C946 C 0.40551 0.76747 0.23778 0.0
C947 C 0.40277 0.78871 0.24073 0.0
C948 C 0.42215 0.76782 0.21941 0.0
C949 C 0.39345 0.72254 0.24902 0.0
C950 C 0.4435 0.76583 0.22436 0.0
C951 C 0.45933 0.76655 0.20698 0.0
C952 C 0.4542 0.76946 0.18432 0.0
C953 C 0.43284 0.77158 0.17948 0.0
C954 C 0.41703 0.77083 0.19686 0.0
H955 H 0.37744 0.70612 0.25744 0.0
H956 H 0.39343 0.71811 0.2308 0.0
H957 H 0.41119 0.72524 0.25664 0.0
H958 H 0.4481 0.76404 0.2417 0.0
H959 H 0.47584 0.76529 0.21133 0.0
loop_
_geom_bond_atom_site_label_1
_geom_bond_atom_site_label_2
_geom_bond_distance
_geom_bond_site_symmetry_2
_ccdc_geom_bond_type
Li0 N17 1.990 . S
Li0 O60 1.956 . S
Li0 O61 1.970 . S
Li0 O62 1.961 . S
Li1 N25 1.990 . S
Li1 O60 1.970 . S
Li1 O61 1.956 . S
Li1 O63 1.961 . S
Li2 N47 1.990 . S
Li2 O60 1.961 . S
Li2 O62 1.956 . S
Li2 O63 1.970 . S
Li3 N53 1.990 . S
Li3 O61 1.961 . S
Li3 O62 1.970 . S
Li3 O63 1.956 . S
C4 C6 1.348 . S
C4 C7 1.356 . S
C4 O60 1.325 . S
N5 C8 1.314 . S
N5 C9 1.279 . S
C6 C4 1.348 . S
C6 C8 1.353 . S
C6 H64 0.929 . S
C7 C4 1.356 . S
C7 C9 1.358 . S
C7 H65 0.930 . S
C8 N5 1.314 . S
C8 C6 1.353 . S
C8 H66 0.930 . S
C9 N5 1.279 . S
C9 C7 1.358 . S
C9 H67 0.930 . S
C10 C13 1.348 . S
C10 C14 1.356 . S
C10 O61 1.325 . S
C11 N12 1.279 . S
C11 C14 1.358 . S
C11 H68 0.930 . S
N12 C11 1.279 . S
N12 C15 1.314 . S
C13 C10 1.348 . S
C13 C15 1.353 . S
C13 H69 0.929 . S
C14 C10 1.356 . S
C14 C11 1.358 . S
C14 H70 0.930 . S
C15 N12 1.314 . S
C15 C13 1.353 . S
C15 H71 0.930 . S
C16 N17 1.314 . S
C16 C21 1.353 . S
C16 H22 0.930 . S
N17 Li0 1.990 . S
N17 C16 1.314 . S
N17 C19 1.279 . S
C18 C19 1.358 . S
C18 C20 1.356 . S
C18 H72 0.930 . S
C19 N17 1.279 . S
C19 C18 1.358 . S
C19 H23 0.930 . S
C20 C18 1.356 . S
C20 C21 1.348 . S
C21 C16 1.353 . S
C21 C20 1.348 . S
C21 H73 0.929 . S
H22 C16 0.930 . S
H23 C19 0.930 . S
C24 N25 1.314 . S
C24 C26 1.353 . S
C24 H30 0.930 . S
N25 Li1 1.990 . S
N25 C24 1.314 . S
N25 C28 1.279 . S
C26 C24 1.353 . S
C26 C29 1.348 . S
C26 H74 0.929 . S
C27 C28 1.358 . S
C27 C29 1.356 . S
C27 H75 0.930 . S
C28 N25 1.279 . S
C28 C27 1.358 . S
C28 H31 0.930 . S
C29 C26 1.348 . S
C29 C27 1.356 . S
H30 C24 0.930 . S
H31 C28 0.930 . S
C32 C34 1.348 . S
C32 C35 1.356 . S
C32 O62 1.325 . S
N33 C36 1.314 . S
N33 C37 1.279 . S
C34 C32 1.348 . S
C34 C36 1.353 . S
C34 H76 0.929 . S
C35 C32 1.356 . S
C35 C37 1.358 . S
C35 H77 0.930 . S
C36 N33 1.314 . S
C36 C34 1.353 . S
C36 H78 0.930 . S
C37 N33 1.279 . S
C37 C35 1.358 . S
C37 H79 0.930 . S
C38 C39 1.348 . S
C38 C40 1.356 . S
C38 O63 1.325 . S
C39 C38 1.348 . S
C39 C41 1.353 . S
C39 H80 0.929 . S
C40 C38 1.356 . S
C40 C42 1.358 . S
C40 H81 0.930 . S
C41 C39 1.353 . S
C41 N43 1.314 . S
C41 H82 0.930 . S
C42 C40 1.358 . S
C42 N43 1.279 . S
C42 H83 0.930 . S
N43 C41 1.314 . S
N43 C42 1.279 . S
C44 C46 1.353 . S
C44 N47 1.314 . S
C44 H50 0.930 . S
C45 N47 1.279 . S
C45 C48 1.358 . S
C45 H51 0.930 . S
C46 C44 1.353 . S
C46 C49 1.348 . S
C46 H84 0.929 . S
N47 Li2 1.990 . S
N47 C44 1.314 . S
N47 C45 1.279 . S
C48 C45 1.358 . S
C48 C49 1.356 . S
C48 H85 0.930 . S
C49 C46 1.348 . S
C49 C48 1.356 . S
H50 C44 0.930 . S
H51 C45 0.930 . S
C52 N53 1.314 . S
C52 C54 1.353 . S
C52 H58 0.930 . S
N53 Li3 1.990 . S
N53 C52 1.314 . S
N53 C56 1.279 . S
C54 C52 1.353 . S
C54 C57 1.348 . S
C54 H86 0.929 . S
C55 C56 1.358 . S
C55 C57 1.356 . S
C55 H87 0.930 . S
C56 N53 1.279 . S
C56 C55 1.358 . S
C56 H59 0.930 . S
C57 C54 1.348 . S
C57 C55 1.356 . S
H58 C52 0.930 . S
H59 C56 0.930 . S
O60 Li0 1.956 . S
O60 Li1 1.970 . S
O60 Li2 1.961 . S
O60 C4 1.325 . S
O61 Li0 1.970 . S
O61 Li1 1.956 . S
O61 Li3 1.961 . S
O61 C10 1.325 . S
O62 Li0 1.961 . S
O62 Li2 1.956 . S
O62 Li3 1.970 . S
O62 C32 1.325 . S
O63 Li1 1.961 . S
O63 Li2 1.970 . S
O63 Li3 1.956 . S
O63 C38 1.325 . S
H64 C6 0.929 . S
H65 C7 0.930 . S
H66 C8 0.930 . S
H67 C9 0.930 . S
H68 C11 0.930 . S
H69 C13 0.929 . S
H70 C14 0.930 . S
H71 C15 0.930 . S
H72 C18 0.930 . S
H73 C21 0.929 . S
H74 C26 0.929 . S
H75 C27 0.930 . S
H76 C34 0.929 . S
H77 C35 0.930 . S
H78 C36 0.930 . S
H79 C37 0.930 . S
H80 C39 0.929 . S
H81 C40 0.930 . S
H82 C41 0.930 . S
H83 C42 0.930 . S
H84 C46 0.929 . S
H85 C48 0.930 . S
H86 C54 0.929 . S
H87 C55 0.930 . S
Li88 N105 1.990 . S
Li88 O148 1.956 . S
Li88 O149 1.970 . S
Li88 O150 1.961 . S
Li89 N113 1.990 . S
Li89 O148 1.970 . S
Li89 O149 1.956 . S
Li89 O151 1.961 . S
Li90 N135 1.990 . S
Li90 O148 1.961 . S
Li90 O150 1.956 . S
Li90 O151 1.970 . S
Li91 N141 1.990 . S
Li91 O149 1.961 . S
Li91 O150 1.970 . S
Li91 O151 1.956 . S
C92 C94 1.348 . S
C92 C95 1.356 . S
C92 O148 1.325 . S
N93 C96 1.314 . S
N93 C97 1.279 . S
C94 C92 1.348 . S
C94 C96 1.353 . S
C94 H152 0.929 . S
C95 C92 1.356 . S
C95 C97 1.358 . S
C95 H153 0.930 . S
C96 N93 1.314 . S
C96 C94 1.353 . S
C96 H154 0.930 . S
C97 N93 1.279 . S
C97 C95 1.358 . S
C97 H155 0.930 . S
C98 C101 1.348 . S
C98 C102 1.356 . S
C98 O149 1.325 . S
C99 N100 1.279 . S
C99 C102 1.358 . S
C99 H156 0.930 . S
N100 C99 1.279 . S
N100 C103 1.314 . S
C101 C98 1.348 . S
C101 C103 1.353 . S
C101 H157 0.929 . S
C102 C98 1.356 . S
C102 C99 1.358 . S
C102 H158 0.930 . S
C103 N100 1.314 . S
C103 C101 1.353 . S
C103 H159 0.930 . S
C104 N105 1.314 . S
C104 C109 1.353 . S
C104 H110 0.930 . S
N105 Li88 1.990 . S
N105 C104 1.314 . S
N105 C107 1.279 . S
C106 C107 1.358 . S
C106 C108 1.356 . S
C106 H160 0.930 . S
C107 N105 1.279 . S
C107 C106 1.358 . S
C107 H111 0.930 . S
C108 C106 1.356 . S
C108 C109 1.348 . S
C109 C104 1.353 . S
C109 C108 1.348 . S
C109 H161 0.929 . S
H110 C104 0.930 . S
H111 C107 0.930 . S
C112 N113 1.314 . S
C112 C114 1.353 . S
C112 H118 0.930 . S
N113 Li89 1.990 . S
N113 C112 1.314 . S
N113 C116 1.279 . S
C114 C112 1.353 . S
C114 C117 1.348 . S
C114 H162 0.929 . S
C115 C116 1.358 . S
C115 C117 1.356 . S
C115 H163 0.930 . S
C116 N113 1.279 . S
C116 C115 1.358 . S
C116 H119 0.930 . S
C117 C114 1.348 . S
C117 C115 1.356 . S
H118 C112 0.930 . S
H119 C116 0.930 . S
C120 C122 1.348 . S
C120 C123 1.356 . S
C120 O150 1.325 . S
N121 C124 1.314 . S
N121 C125 1.279 . S
C122 C120 1.348 . S
C122 C124 1.353 . S
C122 H164 0.929 . S
C123 C120 1.356 . S
C123 C125 1.358 . S
C123 H165 0.930 . S
C124 N121 1.314 . S
C124 C122 1.353 . S
C124 H166 0.930 . S
C125 N121 1.279 . S
C125 C123 1.358 . S
C125 H167 0.930 . S
C126 C127 1.348 . S
C126 C128 1.356 . S
C126 O151 1.325 . S
C127 C126 1.348 . S
C127 C129 1.353 . S
C127 H168 0.929 . S
C128 C126 1.356 . S
C128 C130 1.358 . S
C128 H169 0.930 . S
C129 C127 1.353 . S
C129 N131 1.314 . S
C129 H170 0.930 . S
C130 C128 1.358 . S
C130 N131 1.279 . S
C130 H171 0.930 . S
N131 C129 1.314 . S
N131 C130 1.279 . S
C132 C134 1.353 . S
C132 N135 1.314 . S
C132 H138 0.930 . S
C133 N135 1.279 . S
C133 C136 1.358 . S
C133 H139 0.930 . S
C134 C132 1.353 . S
C134 C137 1.348 . S
C134 H172 0.929 . S
N135 Li90 1.990 . S
N135 C132 1.314 . S
N135 C133 1.279 . S
C136 C133 1.358 . S
C136 C137 1.356 . S
C136 H173 0.930 . S
C137 C134 1.348 . S
C137 C136 1.356 . S
H138 C132 0.930 . S
H139 C133 0.930 . S
C140 N141 1.314 . S
C140 C142 1.353 . S
C140 H146 0.930 . S
N141 Li91 1.990 . S
N141 C140 1.314 . S
N141 C144 1.279 . S
C142 C140 1.353 . S
C142 C145 1.348 . S
C142 H174 0.929 . S
C143 C144 1.358 . S
C143 C145 1.356 . S
C143 H175 0.930 . S
C144 N141 1.279 . S
C144 C143 1.358 . S
C144 H147 0.930 . S
C145 C142 1.348 . S
C145 C143 1.356 . S
H146 C140 0.930 . S
H147 C144 0.930 . S
O148 Li88 1.956 . S
O148 Li89 1.970 . S
O148 Li90 1.961 . S
O148 C92 1.325 . S
O149 Li88 1.970 . S
O149 Li89 1.956 . S
O149 Li91 1.961 . S
O149 C98 1.325 . S
O150 Li88 1.961 . S
O150 Li90 1.956 . S
O150 Li91 1.970 . S
O150 C120 1.325 . S
O151 Li89 1.961 . S
O151 Li90 1.970 . S
O151 Li91 1.956 . S
O151 C126 1.325 . S
H152 C94 0.929 . S
H153 C95 0.930 . S
H154 C96 0.930 . S
H155 C97 0.930 . S
H156 C99 0.930 . S
H157 C101 0.929 . S
H158 C102 0.930 . S
H159 C103 0.930 . S
H160 C106 0.930 . S
H161 C109 0.929 . S
H162 C114 0.929 . S
H163 C115 0.930 . S
H164 C122 0.929 . S
H165 C123 0.930 . S
H166 C124 0.930 . S
H167 C125 0.930 . S
H168 C127 0.929 . S
H169 C128 0.930 . S
H170 C129 0.930 . S
H171 C130 0.930 . S
H172 C134 0.929 . S
H173 C136 0.930 . S
H174 C142 0.929 . S
H175 C143 0.930 . S
Li176 N193 1.990 . S
Li176 O236 1.956 . S
Li176 O237 1.970 . S
Li176 O238 1.961 . S
Li177 N201 1.990 . S
Li177 O236 1.970 . S
Li177 O237 1.956 . S
Li177 O239 1.961 . S
Li178 N223 1.990 . S
Li178 O236 1.961 . S
Li178 O238 1.956 . S
Li178 O239 1.970 . S
Li179 N229 1.990 . S
Li179 O237 1.961 . S
Li179 O238 1.970 . S
Li179 O239 1.956 . S
C180 C182 1.348 . S
C180 C183 1.356 . S
C180 O236 1.325 . S
N181 C184 1.314 . S
N181 C185 1.279 . S
C182 C180 1.348 . S
C182 C184 1.353 . S
C182 H240 0.929 . S
C183 C180 1.356 . S
C183 C185 1.358 . S
C183 H241 0.930 . S
C184 N181 1.314 . S
C184 C182 1.353 . S
C184 H242 0.930 . S
C185 N181 1.279 . S
C185 C183 1.358 . S
C185 H243 0.930 . S
C186 C189 1.348 . S
C186 C190 1.356 . S
C186 O237 1.325 . S
C187 N188 1.279 . S
C187 C190 1.358 . S
C187 H244 0.930 . S
N188 C187 1.279 . S
N188 C191 1.314 . S
C189 C186 1.348 . S
C189 C191 1.353 . S
C189 H245 0.929 . S
C190 C186 1.356 . S
C190 C187 1.358 . S
C190 H246 0.930 . S
C191 N188 1.314 . S
C191 C189 1.353 . S
C191 H247 0.930 . S
C192 N193 1.314 . S
C192 C197 1.353 . S
C192 H198 0.930 . S
N193 Li176 1.990 . S
N193 C192 1.314 . S
N193 C195 1.279 . S
C194 C195 1.358 . S
C194 C196 1.356 . S
C194 H248 0.930 . S
C195 N193 1.279 . S
C195 C194 1.358 . S
C195 H199 0.930 . S
C196 C194 1.356 . S
C196 C197 1.348 . S
C197 C192 1.353 . S
C197 C196 1.348 . S
C197 H249 0.929 . S
H198 C192 0.930 . S
H199 C195 0.930 . S
C200 N201 1.314 . S
C200 C202 1.353 . S
C200 H206 0.930 . S
N201 Li177 1.990 . S
N201 C200 1.314 . S
N201 C204 1.279 . S
C202 C200 1.353 . S
C202 C205 1.348 . S
C202 H250 0.929 1_556 S
C203 C204 1.358 . S
C203 C205 1.356 . S
C203 H251 0.930 . S
C204 N201 1.279 . S
C204 C203 1.358 . S
C204 H207 0.930 . S
C205 C202 1.348 . S
C205 C203 1.356 . S
H206 C200 0.930 . S
H207 C204 0.930 . S
C208 C210 1.348 . S
C208 C211 1.356 . S
C208 O238 1.325 . S
N209 C212 1.314 . S
N209 C213 1.279 . S
C210 C208 1.348 . S
C210 C212 1.353 . S
C210 H252 0.929 . S
C211 C208 1.356 . S
C211 C213 1.358 . S
C211 H253 0.930 . S
C212 N209 1.314 . S
C212 C210 1.353 . S
C212 H254 0.930 . S
C213 N209 1.279 . S
C213 C211 1.358 . S
C213 H255 0.930 . S
C214 C215 1.348 . S
C214 C216 1.356 . S
C214 O239 1.325 . S
C215 C214 1.348 . S
C215 C217 1.353 . S
C215 H256 0.929 . S
C216 C214 1.356 . S
C216 C218 1.358 . S
C216 H257 0.930 . S
C217 C215 1.353 . S
C217 N219 1.314 . S
C217 H258 0.930 . S
C218 C216 1.358 . S
C218 N219 1.279 . S
C218 H259 0.930 . S
N219 C217 1.314 . S
N219 C218 1.279 . S
C220 C222 1.353 . S
C220 N223 1.314 . S
C220 H226 0.930 . S
C221 N223 1.279 . S
C221 C224 1.358 . S
C221 H227 0.930 . S
C222 C220 1.353 . S
C222 C225 1.348 . S
C222 H260 0.929 . S
N223 Li178 1.990 . S
N223 C220 1.314 . S
N223 C221 1.279 . S
C224 C221 1.358 . S
C224 C225 1.356 . S
C224 H261 0.930 . S
C225 C222 1.348 . S
C225 C224 1.356 . S
H226 C220 0.930 . S
H227 C221 0.930 . S
C228 N229 1.314 . S
C228 C230 1.353 . S
C228 H234 0.930 . S
N229 Li179 1.990 . S
N229 C228 1.314 . S
N229 C232 1.279 . S
C230 C228 1.353 . S
C230 C233 1.348 . S
C230 H262 0.929 . S
C231 C232 1.358 . S
C231 C233 1.356 . S
C231 H263 0.930 . S
C232 N229 1.279 . S
C232 C231 1.358 . S
C232 H235 0.930 . S
C233 C230 1.348 . S
C233 C231 1.356 . S
H234 C228 0.930 . S
H235 C232 0.930 . S
O236 Li176 1.956 . S
O236 Li177 1.970 . S
O236 Li178 1.961 . S
O236 C180 1.325 . S
O237 Li176 1.970 . S
O237 Li177 1.956 . S
O237 Li179 1.961 . S
O237 C186 1.325 . S
O238 Li176 1.961 . S
O238 Li178 1.956 . S
O238 Li179 1.970 . S
O238 C208 1.325 . S
O239 Li177 1.961 . S
O239 Li178 1.970 . S
O239 Li179 1.956 . S
O239 C214 1.325 . S
H240 C182 0.929 . S
H241 C183 0.930 . S
H242 C184 0.930 . S
H243 C185 0.930 . S
H244 C187 0.930 . S
H245 C189 0.929 . S
H246 C190 0.930 . S
H247 C191 0.930 . S
H248 C194 0.930 . S
H249 C197 0.929 . S
H250 C202 0.929 1_554 S
H251 C203 0.930 . S
H252 C210 0.929 . S
H253 C211 0.930 . S
H254 C212 0.930 . S
H255 C213 0.930 . S
H256 C215 0.929 . S
H257 C216 0.930 . S
H258 C217 0.930 . S
H259 C218 0.930 . S
H260 C222 0.929 . S
H261 C224 0.930 . S
H262 C230 0.929 . S
H263 C231 0.930 . S
Li264 N281 1.990 . S
Li264 O324 1.956 . S
Li264 O325 1.970 . S
Li264 O326 1.961 . S
Li265 N289 1.990 . S
Li265 O324 1.970 . S
Li265 O325 1.956 . S
Li265 O327 1.961 . S
Li266 N311 1.990 . S
Li266 O324 1.961 . S
Li266 O326 1.956 . S
Li266 O327 1.970 . S
Li267 N317 1.990 . S
Li267 O325 1.961 . S
Li267 O326 1.970 . S
Li267 O327 1.956 . S
C268 C270 1.348 . S
C268 C271 1.356 . S
C268 O324 1.325 . S
N269 C272 1.314 . S
N269 C273 1.279 . S
C270 C268 1.348 . S
C270 C272 1.353 . S
C270 H328 0.929 . S
C271 C268 1.356 . S
C271 C273 1.358 . S
C271 H329 0.930 . S
C272 N269 1.314 . S
C272 C270 1.353 . S
C272 H330 0.930 . S
C273 N269 1.279 . S
C273 C271 1.358 . S
C273 H331 0.930 . S
C274 C277 1.348 . S
C274 C278 1.356 . S
C274 O325 1.325 . S
C275 N276 1.279 . S
C275 C278 1.358 . S
C275 H332 0.930 . S
N276 C275 1.279 . S
N276 C279 1.314 . S
C277 C274 1.348 . S
C277 C279 1.353 . S
C277 H333 0.929 . S
C278 C274 1.356 . S
C278 C275 1.358 . S
C278 H334 0.930 . S
C279 N276 1.314 . S
C279 C277 1.353 . S
C279 H335 0.930 . S
C280 N281 1.314 . S
C280 C285 1.353 . S
C280 H286 0.930 . S
N281 Li264 1.990 . S
N281 C280 1.314 . S
N281 C283 1.279 . S
C282 C283 1.358 . S
C282 C284 1.356 . S
C282 H336 0.930 . S
C283 N281 1.279 . S
C283 C282 1.358 . S
C283 H287 0.930 . S
C284 C282 1.356 . S
C284 C285 1.348 . S
C285 C280 1.353 . S
C285 C284 1.348 . S
C285 H337 0.929 . S
H286 C280 0.930 . S
H287 C283 0.930 . S
C288 N289 1.314 . S
C288 C290 1.353 . S
C288 H294 0.930 . S
N289 Li265 1.990 . S
N289 C288 1.314 . S
N289 C292 1.279 . S
C290 C288 1.353 . S
C290 C293 1.348 . S
C290 H338 0.929 . S
C291 C292 1.358 . S
C291 C293 1.356 . S
C291 H339 0.930 . S
C292 N289 1.279 . S
C292 C291 1.358 . S
C292 H295 0.930 . S
C293 C290 1.348 . S
C293 C291 1.356 . S
H294 C288 0.930 . S
H295 C292 0.930 . S
C296 C298 1.348 . S
C296 C299 1.356 . S
C296 O326 1.325 . S
N297 C300 1.314 . S
N297 C301 1.279 . S
C298 C296 1.348 . S
C298 C300 1.353 . S
C298 H340 0.929 . S
C299 C296 1.356 . S
C299 C301 1.358 . S
C299 H341 0.930 . S
C300 N297 1.314 . S
C300 C298 1.353 . S
C300 H342 0.930 . S
C301 N297 1.279 . S
C301 C299 1.358 . S
C301 H343 0.930 . S
C302 C303 1.348 . S
C302 C304 1.356 . S
C302 O327 1.325 . S
C303 C302 1.348 . S
C303 C305 1.353 . S
C303 H344 0.929 . S
C304 C302 1.356 . S
C304 C306 1.358 . S
C304 H345 0.930 . S
C305 C303 1.353 . S
C305 N307 1.314 . S
C305 H346 0.930 . S
C306 C304 1.358 . S
C306 N307 1.279 . S
C306 H347 0.930 . S
N307 C305 1.314 . S
N307 C306 1.279 . S
C308 C310 1.353 . S
C308 N311 1.314 . S
C308 H314 0.930 . S
C309 N311 1.279 . S
C309 C312 1.358 . S
C309 H315 0.930 . S
C310 C308 1.353 . S
C310 C313 1.348 . S
C310 H348 0.929 . S
N311 Li266 1.990 . S
N311 C308 1.314 . S
N311 C309 1.279 . S
C312 C309 1.358 . S
C312 C313 1.356 . S
C312 H349 0.930 . S
C313 C310 1.348 . S
C313 C312 1.356 . S
H314 C308 0.930 . S
H315 C309 0.930 . S
C316 N317 1.314 . S
C316 C318 1.353 . S
C316 H322 0.930 . S
N317 Li267 1.990 . S
N317 C316 1.314 . S
N317 C320 1.279 . S
C318 C316 1.353 . S
C318 C321 1.348 . S
C318 H350 0.929 1_554 S
C319 C320 1.358 . S
C319 C321 1.356 . S
C319 H351 0.930 . S
C320 N317 1.279 . S
C320 C319 1.358 . S
C320 H323 0.930 . S
C321 C318 1.348 . S
C321 C319 1.356 . S
H322 C316 0.930 . S
H323 C320 0.930 . S
O324 Li264 1.956 . S
O324 Li265 1.970 . S
O324 Li266 1.961 . S
O324 C268 1.325 . S
O325 Li264 1.970 . S
O325 Li265 1.956 . S
O325 Li267 1.961 . S
O325 C274 1.325 . S
O326 Li264 1.961 . S
O326 Li266 1.956 . S
O326 Li267 1.970 . S
O326 C296 1.325 . S
O327 Li265 1.961 . S
O327 Li266 1.970 . S
O327 Li267 1.956 . S
O327 C302 1.325 . S
H328 C270 0.929 . S
H329 C271 0.930 . S
H330 C272 0.930 . S
H331 C273 0.930 . S
H332 C275 0.930 . S
H333 C277 0.929 . S
H334 C278 0.930 . S
H335 C279 0.930 . S
H336 C282 0.930 . S
H337 C285 0.929 . S
H338 C290 0.929 . S
H339 C291 0.930 . S
H340 C298 0.929 . S
H341 C299 0.930 . S
H342 C300 0.930 . S
H343 C301 0.930 . S
H344 C303 0.929 . S
H345 C304 0.930 . S
H346 C305 0.930 . S
H347 C306 0.930 . S
H348 C310 0.929 . S
H349 C312 0.930 . S
H350 C318 0.929 1_556 S
H351 C319 0.930 . S
Li352 N369 1.990 . S
Li352 O412 1.956 . S
Li352 O413 1.970 . S
Li352 O414 1.961 . S
Li353 N377 1.990 . S
Li353 O412 1.970 . S
Li353 O413 1.956 . S
Li353 O415 1.961 . S
Li354 N399 1.990 . S
Li354 O412 1.961 . S
Li354 O414 1.956 . S
Li354 O415 1.970 . S
Li355 N405 1.990 . S
Li355 O413 1.961 . S
Li355 O414 1.970 . S
Li355 O415 1.956 . S
C356 C358 1.348 . S
C356 C359 1.356 . S
C356 O412 1.325 . S
N357 C360 1.314 . S
N357 C361 1.279 . S
C358 C356 1.348 . S
C358 C360 1.353 . S
C358 H416 0.929 . S
C359 C356 1.356 . S
C359 C361 1.358 . S
C359 H417 0.930 . S
C360 N357 1.314 . S
C360 C358 1.353 . S
C360 H418 0.930 . S
C361 N357 1.279 . S
C361 C359 1.358 . S
C361 H419 0.930 . S
C362 C365 1.348 . S
C362 C366 1.356 . S
C362 O413 1.325 . S
C363 N364 1.279 . S
C363 C366 1.358 . S
C363 H420 0.930 . S
N364 C363 1.279 . S
N364 C367 1.314 . S
C365 C362 1.348 . S
C365 C367 1.353 . S
C365 H421 0.929 . S
C366 C362 1.356 . S
C366 C363 1.358 . S
C366 H422 0.930 . S
C367 N364 1.314 . S
C367 C365 1.353 . S
C367 H423 0.930 . S
C368 N369 1.314 . S
C368 C373 1.353 . S
C368 H374 0.930 . S
N369 Li352 1.990 . S
N369 C368 1.314 . S
N369 C371 1.279 . S
C370 C371 1.358 . S
C370 C372 1.356 . S
C370 H424 0.930 . S
C371 N369 1.279 . S
C371 C370 1.358 . S
C371 H375 0.930 . S
C372 C370 1.356 . S
C372 C373 1.348 . S
C373 C368 1.353 . S
C373 C372 1.348 . S
C373 H425 0.929 . S
H374 C368 0.930 . S
H375 C371 0.930 . S
C376 N377 1.314 . S
C376 C378 1.353 . S
C376 H382 0.930 . S
N377 Li353 1.990 . S
N377 C376 1.314 . S
N377 C380 1.279 . S
C378 C376 1.353 . S
C378 C381 1.348 . S
C378 H426 0.929 . S
C379 C380 1.358 . S
C379 C381 1.356 . S
C379 H427 0.930 . S
C380 N377 1.279 . S
C380 C379 1.358 . S
C380 H383 0.930 . S
C381 C378 1.348 . S
C381 C379 1.356 . S
H382 C376 0.930 . S
H383 C380 0.930 . S
C384 C386 1.348 . S
C384 C387 1.356 . S
C384 O414 1.325 . S
N385 C388 1.314 . S
N385 C389 1.279 . S
C386 C384 1.348 . S
C386 C388 1.353 . S
C386 H428 0.929 . S
C387 C384 1.356 . S
C387 C389 1.358 . S
C387 H429 0.930 . S
C388 N385 1.314 . S
C388 C386 1.353 . S
C388 H430 0.930 . S
C389 N385 1.279 . S
C389 C387 1.358 . S
C389 H431 0.930 . S
C390 C391 1.348 . S
C390 C392 1.356 . S
C390 O415 1.325 . S
C391 C390 1.348 . S
C391 C393 1.353 . S
C391 H432 0.929 . S
C392 C390 1.356 . S
C392 C394 1.358 . S
C392 H433 0.930 . S
C393 C391 1.353 . S
C393 N395 1.314 . S
C393 H434 0.930 . S
C394 C392 1.358 . S
C394 N395 1.279 . S
C394 H435 0.930 . S
N395 C393 1.314 . S
N395 C394 1.279 . S
C396 C398 1.353 . S
C396 N399 1.314 . S
C396 H402 0.930 . S
C397 N399 1.279 . S
C397 C400 1.358 . S
C397 H403 0.930 . S
C398 C396 1.353 . S
C398 C401 1.348 . S
C398 H436 0.929 . S
N399 Li354 1.990 . S
N399 C396 1.314 . S
N399 C397 1.279 . S
C400 C397 1.358 . S
C400 C401 1.356 . S
C400 H437 0.930 . S
C401 C398 1.348 . S
C401 C400 1.356 . S
H402 C396 0.930 . S
H403 C397 0.930 . S
C404 N405 1.314 . S
C404 C406 1.353 . S
C404 H410 0.930 . S
N405 Li355 1.990 . S
N405 C404 1.314 . S
N405 C408 1.279 . S
C406 C404 1.353 . S
C406 C409 1.348 . S
C406 H438 0.929 . S
C407 C408 1.358 . S
C407 C409 1.356 . S
C407 H439 0.930 . S
C408 N405 1.279 . S
C408 C407 1.358 . S
C408 H411 0.930 . S
C409 C406 1.348 . S
C409 C407 1.356 . S
H410 C404 0.930 . S
H411 C408 0.930 . S
O412 Li352 1.956 . S
O412 Li353 1.970 . S
O412 Li354 1.961 . S
O412 C356 1.325 . S
O413 Li352 1.970 . S
O413 Li353 1.956 . S
O413 Li355 1.961 . S
O413 C362 1.325 . S
O414 Li352 1.961 . S
O414 Li354 1.956 . S
O414 Li355 1.970 . S
O414 C384 1.325 . S
O415 Li353 1.961 . S
O415 Li354 1.970 . S
O415 Li355 1.956 . S
O415 C390 1.325 . S
H416 C358 0.929 . S
H417 C359 0.930 . S
H418 C360 0.930 . S
H419 C361 0.930 . S
H420 C363 0.930 . S
H421 C365 0.929 . S
H422 C366 0.930 . S
H423 C367 0.930 . S
H424 C370 0.930 . S
H425 C373 0.929 . S
H426 C378 0.929 . S
H427 C379 0.930 . S
H428 C386 0.929 . S
H429 C387 0.930 . S
H430 C388 0.930 . S
H431 C389 0.930 . S
H432 C391 0.929 . S
H433 C392 0.930 . S
H434 C393 0.930 . S
H435 C394 0.930 . S
H436 C398 0.929 . S
H437 C400 0.930 . S
H438 C406 0.929 . S
H439 C407 0.930 . S
Li440 N457 1.990 . S
Li440 O500 1.956 . S
Li440 O501 1.970 . S
Li440 O502 1.961 . S
Li441 N465 1.990 . S
Li441 O500 1.970 . S
Li441 O501 1.956 . S
Li441 O503 1.961 . S
Li442 N487 1.990 . S
Li442 O500 1.961 . S
Li442 O502 1.956 . S
Li442 O503 1.970 . S
Li443 N493 1.990 . S
Li443 O501 1.961 . S
Li443 O502 1.970 . S
Li443 O503 1.956 . S
C444 C446 1.348 . S
C444 C447 1.356 . S
C444 O500 1.325 . S
N445 C448 1.314 . S
N445 C449 1.279 . S
C446 C444 1.348 . S
C446 C448 1.353 . S
C446 H504 0.929 . S
C447 C444 1.356 . S
C447 C449 1.358 . S
C447 H505 0.930 . S
C448 N445 1.314 . S
C448 C446 1.353 . S
C448 H506 0.930 . S
C449 N445 1.279 . S
C449 C447 1.358 . S
C449 H507 0.930 . S
C450 C453 1.348 . S
C450 C454 1.356 . S
C450 O501 1.325 . S
C451 N452 1.279 . S
C451 C454 1.358 . S
C451 H508 0.930 . S
N452 C451 1.279 . S
N452 C455 1.314 . S
C453 C450 1.348 . S
C453 C455 1.353 . S
C453 H509 0.929 . S
C454 C450 1.356 . S
C454 C451 1.358 . S
C454 H510 0.930 . S
C455 N452 1.314 . S
C455 C453 1.353 . S
C455 H511 0.930 . S
C456 N457 1.314 . S
C456 C461 1.353 . S
C456 H462 0.930 . S
N457 Li440 1.990 . S
N457 C456 1.314 . S
N457 C459 1.279 . S
C458 C459 1.358 . S
C458 C460 1.356 . S
C458 H512 0.930 . S
C459 N457 1.279 . S
C459 C458 1.358 . S
C459 H463 0.930 . S
C460 C458 1.356 . S
C460 C461 1.348 . S
C461 C456 1.353 . S
C461 C460 1.348 . S
C461 H513 0.929 . S
H462 C456 0.930 . S
H463 C459 0.930 . S
C464 N465 1.314 . S
C464 C466 1.353 . S
C464 H470 0.930 . S
N465 Li441 1.990 . S
N465 C464 1.314 . S
N465 C468 1.279 . S
C466 C464 1.353 . S
C466 C469 1.348 . S
C466 H514 0.929 . S
C467 C468 1.358 . S
C467 C469 1.356 . S
C467 H515 0.930 . S
C468 N465 1.279 . S
C468 C467 1.358 . S
C468 H471 0.930 . S
C469 C466 1.348 . S
C469 C467 1.356 . S
H470 C464 0.930 . S
H471 C468 0.930 . S
C472 C474 1.348 . S
C472 C475 1.356 . S
C472 O502 1.325 . S
N473 C476 1.314 . S
N473 C477 1.279 . S
C474 C472 1.348 . S
C474 C476 1.353 . S
C474 H516 0.929 . S
C475 C472 1.356 . S
C475 C477 1.358 . S
C475 H517 0.930 . S
C476 N473 1.314 . S
C476 C474 1.353 . S
C476 H518 0.930 . S
C477 N473 1.279 . S
C477 C475 1.358 . S
C477 H519 0.930 . S
C478 C479 1.348 . S
C478 C480 1.356 . S
C478 O503 1.325 . S
C479 C478 1.348 . S
C479 C481 1.353 . S
C479 H520 0.929 . S
C480 C478 1.356 . S
C480 C482 1.358 . S
C480 H521 0.930 . S
C481 C479 1.353 . S
C481 N483 1.314 . S
C481 H522 0.930 . S
C482 C480 1.358 . S
C482 N483 1.279 . S
C482 H523 0.930 . S
N483 C481 1.314 . S
N483 C482 1.279 . S
C484 C486 1.353 . S
C484 N487 1.314 . S
C484 H490 0.930 . S
C485 N487 1.279 . S
C485 C488 1.358 . S
C485 H491 0.930 . S
C486 C484 1.353 . S
C486 C489 1.348 . S
C486 H524 0.929 . S
N487 Li442 1.990 . S
N487 C484 1.314 . S
N487 C485 1.279 . S
C488 C485 1.358 . S
C488 C489 1.356 . S
C488 H525 0.930 . S
C489 C486 1.348 . S
C489 C488 1.356 . S
H490 C484 0.930 . S
H491 C485 0.930 . S
C492 N493 1.314 . S
C492 C494 1.353 . S
C492 H498 0.930 . S
N493 Li443 1.990 . S
N493 C492 1.314 . S
N493 C496 1.279 . S
C494 C492 1.353 . S
C494 C497 1.348 . S
C494 H526 0.929 . S
C495 C496 1.358 . S
C495 C497 1.356 . S
C495 H527 0.930 . S
C496 N493 1.279 . S
C496 C495 1.358 . S
C496 H499 0.930 . S
C497 C494 1.348 . S
C497 C495 1.356 . S
H498 C492 0.930 . S
H499 C496 0.930 . S
O500 Li440 1.956 . S
O500 Li441 1.970 . S
O500 Li442 1.961 . S
O500 C444 1.325 . S
O501 Li440 1.970 . S
O501 Li441 1.956 . S
O501 Li443 1.961 . S
O501 C450 1.325 . S
O502 Li440 1.961 . S
O502 Li442 1.956 . S
O502 Li443 1.970 . S
O502 C472 1.325 . S
O503 Li441 1.961 . S
O503 Li442 1.970 . S
O503 Li443 1.956 . S
O503 C478 1.325 . S
H504 C446 0.929 . S
H505 C447 0.930 . S
H506 C448 0.930 . S
H507 C449 0.930 . S
H508 C451 0.930 . S
H509 C453 0.929 . S
H510 C454 0.930 . S
H511 C455 0.930 . S
H512 C458 0.930 . S
H513 C461 0.929 . S
H514 C466 0.929 . S
H515 C467 0.930 . S
H516 C474 0.929 . S
H517 C475 0.930 . S
H518 C476 0.930 . S
H519 C477 0.930 . S
H520 C479 0.929 . S
H521 C480 0.930 . S
H522 C481 0.930 . S
H523 C482 0.930 . S
H524 C486 0.929 . S
H525 C488 0.930 . S
H526 C494 0.929 . S
H527 C495 0.930 . S
H528 C536 0.929 . S
H529 C538 0.930 . S
H530 C540 0.930 . S
H531 C543 0.929 . S
H532 C546 0.930 . S
H533 C548 0.960 . S
H534 C548 0.960 . S
H535 C548 0.960 . S
C536 H528 0.929 . S
C536 C537 1.377 . S
C536 C538 1.384 . S
C537 C536 1.377 . S
C537 C543 1.390 . S
C538 H529 0.930 . S
C538 C536 1.384 . S
C538 C539 1.372 . S
C539 C538 1.372 . S
C539 C540 1.400 . S
C539 C544 1.490 . S
C540 H530 0.930 . S
C540 C539 1.400 . S
C540 C543 1.386 . S
H541 C557 0.930 . S
H542 C558 0.931 . S
C543 H531 0.929 . S
C543 C537 1.390 . S
C543 C540 1.386 . S
C544 C539 1.490 . S
C544 C546 1.395 . S
C544 C547 1.403 . S
H545 C551 0.930 . S
C546 H532 0.930 . S
C546 C544 1.395 . S
C546 C549 1.403 1_545 S
C547 C544 1.403 . S
C547 C548 1.524 . S
C547 C551 1.400 1_545 S
C548 H533 0.960 . S
C548 H534 0.960 . S
C548 H535 0.960 . S
C548 C547 1.524 . S
C549 C546 1.403 1_565 S
C549 C550 1.392 . S
C549 C553 1.495 . S
C550 C549 1.392 . S
C550 C551 1.385 . S
C550 C552 1.478 . S
C551 H545 0.930 . S
C551 C547 1.400 1_565 S
C551 C550 1.385 . S
C552 C550 1.478 . S
C552 C554 1.381 . S
C552 C558 1.383 . S
C553 C549 1.495 . S
C553 H559 0.959 . S
C553 H560 0.961 . S
C553 H561 0.960 . S
C554 C552 1.381 . S
C554 C555 1.394 . S
C554 H562 0.930 . S
C555 C554 1.394 . S
C555 C556 1.383 . S
C555 H563 0.929 . S
C556 C555 1.383 . S
C556 C557 1.377 . S
C557 H541 0.930 . S
C557 C556 1.377 . S
C557 C558 1.379 . S
C558 H542 0.931 . S
C558 C552 1.383 . S
C558 C557 1.379 . S
H559 C553 0.959 . S
H560 C553 0.961 . S
H561 C553 0.960 . S
H562 C554 0.930 . S
H563 C555 0.929 . S
H564 C572 0.929 . S
H565 C574 0.930 . S
H566 C576 0.930 . S
H567 C579 0.929 . S
H568 C582 0.930 . S
H569 C584 0.960 . S
H570 C584 0.960 . S
H571 C584 0.960 . S
C572 H564 0.929 . S
C572 C573 1.377 . S
C572 C574 1.384 . S
C573 C572 1.377 . S
C573 C579 1.390 . S
C574 H565 0.930 . S
C574 C572 1.384 . S
C574 C575 1.372 . S
C575 C574 1.372 . S
C575 C576 1.400 . S
C575 C580 1.490 . S
C576 H566 0.930 . S
C576 C575 1.400 . S
C576 C579 1.386 . S
H577 C593 0.930 . S
H578 C594 0.931 . S
C579 H567 0.929 . S
C579 C573 1.390 . S
C579 C576 1.386 . S
C580 C575 1.490 . S
C580 C582 1.395 . S
C580 C583 1.403 . S
H581 C587 0.930 . S
C582 H568 0.930 . S
C582 C580 1.395 . S
C582 C585 1.403 . S
C583 C580 1.403 . S
C583 C584 1.524 . S
C583 C587 1.400 . S
C584 H569 0.960 . S
C584 H570 0.960 . S
C584 H571 0.960 . S
C584 C583 1.524 . S
C585 C582 1.403 . S
C585 C586 1.392 . S
C585 C589 1.495 . S
C586 C585 1.392 . S
C586 C587 1.385 . S
C586 C588 1.478 . S
C587 H581 0.930 . S
C587 C583 1.400 . S
C587 C586 1.385 . S
C588 C586 1.478 . S
C588 C590 1.381 . S
C588 C594 1.383 . S
C589 C585 1.495 . S
C589 H595 0.959 . S
C589 H596 0.961 . S
C589 H597 0.960 . S
C590 C588 1.381 . S
C590 C591 1.394 . S
C590 H598 0.930 . S
C591 C590 1.394 . S
C591 C592 1.383 . S
C591 H599 0.929 . S
C592 C591 1.383 . S
C592 C593 1.377 . S
C593 H577 0.930 . S
C593 C592 1.377 . S
C593 C594 1.379 . S
C594 H578 0.931 . S
C594 C588 1.383 . S
C594 C593 1.379 . S
H595 C589 0.959 . S
H596 C589 0.961 . S
H597 C589 0.960 . S
H598 C590 0.930 . S
H599 C591 0.929 . S
H600 C608 0.929 . S
H601 C610 0.930 . S
H602 C612 0.930 . S
H603 C615 0.929 . S
H604 C618 0.930 . S
H605 C620 0.960 1_455 S
H606 C620 0.960 . S
H607 C620 0.960 . S
C608 H600 0.929 . S
C608 C609 1.377 . S
C608 C610 1.384 . S
C609 C608 1.377 . S
C609 C615 1.390 . S
C610 H601 0.930 . S
C610 C608 1.384 . S
C610 C611 1.372 . S
C611 C610 1.372 . S
C611 C612 1.400 . S
C611 C616 1.490 . S
C612 H602 0.930 . S
C612 C611 1.400 . S
C612 C615 1.386 . S
H613 C629 0.930 . S
H614 C630 0.931 . S
C615 H603 0.929 . S
C615 C609 1.390 . S
C615 C612 1.386 . S
C616 C611 1.490 . S
C616 C618 1.395 . S
C616 C619 1.403 . S
H617 C623 0.930 . S
C618 H604 0.930 . S
C618 C616 1.395 . S
C618 C621 1.380 1_655 S
C619 C616 1.403 . S
C619 C620 1.524 . S
C619 C623 1.400 1_655 S
C620 H605 0.960 1_655 S
C620 H606 0.960 . S
C620 H607 0.960 . S
C620 C619 1.524 . S
C621 C618 1.380 1_455 S
C621 C622 1.417 . S
C621 C625 1.494 . S
C622 C621 1.417 . S
C622 C623 1.385 . S
C622 C624 1.478 . S
C623 H617 0.930 . S
C623 C619 1.400 1_455 S
C623 C622 1.385 . S
C624 C622 1.478 . S
C624 C626 1.381 . S
C624 C630 1.383 . S
C625 C621 1.494 . S
C625 H631 0.959 1_455 S
C625 H632 0.961 . S
C625 H633 0.960 . S
C626 C624 1.381 . S
C626 C627 1.394 . S
C626 H634 0.930 . S
C627 C626 1.394 . S
C627 C628 1.383 . S
C627 H635 0.929 . S
C628 C627 1.383 . S
C628 C629 1.377 . S
C629 H613 0.930 . S
C629 C628 1.377 . S
C629 C630 1.379 . S
C630 H614 0.931 . S
C630 C624 1.383 . S
C630 C629 1.379 . S
H631 C625 0.959 1_655 S
H632 C625 0.961 . S
H633 C625 0.960 . S
H634 C626 0.930 . S
H635 C627 0.929 . S
H636 C644 0.929 . S
H637 C646 0.930 . S
H638 C648 0.930 . S
H639 C651 0.929 . S
H640 C654 0.930 . S
H641 C656 0.960 . S
H642 C656 0.960 . S
H643 C656 0.960 . S
C644 H636 0.929 . S
C644 C645 1.377 . S
C644 C646 1.384 . S
C645 C644 1.377 . S
C645 C651 1.390 . S
C646 H637 0.930 . S
C646 C644 1.384 . S
C646 C647 1.372 . S
C647 C646 1.372 . S
C647 C648 1.400 . S
C647 C652 1.490 . S
C648 H638 0.930 . S
C648 C647 1.400 . S
C648 C651 1.386 . S
H649 C665 0.930 . S
H650 C666 0.931 . S
C651 H639 0.929 . S
C651 C645 1.390 . S
C651 C648 1.386 . S
C652 C647 1.490 . S
C652 C654 1.395 . S
C652 C655 1.403 1_554 S
H653 C659 0.930 . S
C654 H640 0.930 . S
C654 C652 1.395 . S
C654 C657 1.403 1_565 S
C655 C652 1.403 1_556 S
C655 C656 1.524 . S
C655 C659 1.400 1_565 S
C656 H641 0.960 . S
C656 H642 0.960 . S
C656 H643 0.960 . S
C656 C655 1.524 . S
C657 C654 1.403 1_545 S
C657 C658 1.392 1_554 S
C657 C661 1.495 . S
C658 C657 1.392 1_556 S
C658 C659 1.385 . S
C658 C660 1.478 . S
C659 H653 0.930 . S
C659 C655 1.400 1_545 S
C659 C658 1.385 . S
C660 C658 1.478 . S
C660 C662 1.381 . S
C660 C666 1.383 . S
C661 C657 1.495 . S
C661 H667 0.959 . S
C661 H668 0.961 . S
C661 H669 0.960 . S
C662 C660 1.381 . S
C662 C663 1.394 . S
C662 H670 0.930 . S
C663 C662 1.394 . S
C663 C664 1.383 . S
C663 H671 0.929 . S
C664 C663 1.383 . S
C664 C665 1.377 . S
C665 H649 0.930 . S
C665 C664 1.377 . S
C665 C666 1.379 . S
C666 H650 0.931 . S
C666 C660 1.383 . S
C666 C665 1.379 . S
H667 C661 0.959 . S
H668 C661 0.961 . S
H669 C661 0.960 . S
H670 C662 0.930 . S
H671 C663 0.929 . S
H672 C680 0.929 . S
H673 C682 0.930 . S
H674 C684 0.930 . S
H675 C687 0.929 . S
H676 C690 0.930 . S
H677 C692 0.960 . S
H678 C692 0.960 . S
H679 C692 0.960 . S
C680 H672 0.929 . S
C680 C681 1.377 . S
C680 C682 1.384 . S
C681 C680 1.377 . S
C681 C687 1.390 . S
C682 H673 0.930 . S
C682 C680 1.384 . S
C682 C683 1.372 . S
C683 C682 1.372 . S
C683 C684 1.400 . S
C683 C688 1.490 . S
C684 H674 0.930 . S
C684 C683 1.400 . S
C684 C687 1.386 . S
H685 C701 0.930 . S
H686 C702 0.931 . S
C687 H675 0.929 . S
C687 C681 1.390 . S
C687 C684 1.386 . S
C688 C683 1.490 . S
C688 C690 1.395 . S
C688 C691 1.403 . S
H689 C695 0.930 . S
C690 H676 0.930 . S
C690 C688 1.395 . S
C690 C693 1.403 . S
C691 C688 1.403 . S
C691 C692 1.524 . S
C691 C695 1.400 . S
C692 H677 0.960 . S
C692 H678 0.960 . S
C692 H679 0.960 . S
C692 C691 1.524 . S
C693 C690 1.403 . S
C693 C694 1.392 . S
C693 C697 1.495 . S
C694 C693 1.392 . S
C694 C695 1.385 . S
C694 C696 1.478 . S
C695 H689 0.930 . S
C695 C691 1.400 . S
C695 C694 1.385 . S
C696 C694 1.478 . S
C696 C698 1.381 . S
C696 C702 1.383 . S
C697 C693 1.495 . S
C697 H703 0.959 . S
C697 H704 0.961 . S
C697 H705 0.960 . S
C698 C696 1.381 . S
C698 C699 1.394 . S
C698 H706 0.930 . S
C699 C698 1.394 . S
C699 C700 1.383 . S
C699 H707 0.929 . S
C700 C699 1.383 . S
C700 C701 1.377 . S
C701 H685 0.930 . S
C701 C700 1.377 . S
C701 C702 1.379 . S
C702 H686 0.931 . S
C702 C696 1.383 . S
C702 C701 1.379 . S
H703 C697 0.959 . S
H704 C697 0.961 . S
H705 C697 0.960 . S
H706 C698 0.930 . S
H707 C699 0.929 . S
H708 C716 0.929 . S
H709 C718 0.930 . S
H710 C720 0.930 . S
H711 C723 0.929 . S
H712 C726 0.930 . S
H713 C728 0.960 1_655 S
H714 C728 0.960 . S
H715 C728 0.960 . S
C716 H708 0.929 . S
C716 C717 1.377 . S
C716 C718 1.384 . S
C717 C716 1.377 . S
C717 C723 1.390 . S
C718 H709 0.930 . S
C718 C716 1.384 . S
C718 C719 1.372 . S
C719 C718 1.372 . S
C719 C720 1.400 . S
C719 C724 1.490 . S
C720 H710 0.930 . S
C720 C719 1.400 . S
C720 C723 1.386 . S
H721 C737 0.930 . S
H722 C738 0.931 . S
C723 H711 0.929 . S
C723 C717 1.390 . S
C723 C720 1.386 . S
C724 C719 1.490 . S
C724 C726 1.395 . S
C724 C727 1.403 . S
H725 C731 0.930 . S
C726 H712 0.930 . S
C726 C724 1.395 . S
C726 C729 1.368 1_455 S
C727 C724 1.403 . S
C727 C728 1.524 . S
C727 C731 1.400 1_455 S
C728 H713 0.960 1_455 S
C728 H714 0.960 . S
C728 H715 0.960 . S
C728 C727 1.524 . S
C729 C726 1.368 1_655 S
C729 C730 1.432 . S
C729 C733 1.491 . S
C730 C729 1.432 . S
C730 C731 1.385 . S
C730 C732 1.478 . S
C731 H725 0.930 . S
C731 C727 1.400 1_655 S
C731 C730 1.385 . S
C732 C730 1.478 . S
C732 C734 1.381 . S
C732 C738 1.383 . S
C733 C729 1.491 . S
C733 H739 0.959 1_655 S
C733 H740 0.961 . S
C733 H741 0.960 . S
C734 C732 1.381 . S
C734 C735 1.394 . S
C734 H742 0.930 . S
C735 C734 1.394 . S
C735 C736 1.383 . S
C735 H743 0.929 . S
C736 C735 1.383 . S
C736 C737 1.377 . S
C737 H721 0.930 . S
C737 C736 1.377 . S
C737 C738 1.379 . S
C738 H722 0.931 . S
C738 C732 1.383 . S
C738 C737 1.379 . S
H739 C733 0.959 1_455 S
H740 C733 0.961 . S
H741 C733 0.960 . S
H742 C734 0.930 . S
H743 C735 0.929 . S
H744 C752 0.929 . S
H745 C754 0.930 . S
H746 C756 0.930 . S
H747 C759 0.929 . S
H748 C762 0.930 . S
H749 C764 0.960 . S
H750 C764 0.960 . S
H751 C764 0.960 . S
C752 H744 0.929 . S
C752 C753 1.377 . S
C752 C754 1.384 . S
C753 C752 1.377 . S
C753 C759 1.390 . S
C754 H745 0.930 . S
C754 C752 1.384 . S
C754 C755 1.372 . S
C755 C754 1.372 . S
C755 C756 1.400 . S
C755 C760 1.490 . S
C756 H746 0.930 . S
C756 C755 1.400 . S
C756 C759 1.386 . S
H757 C773 0.930 . S
H758 C774 0.931 . S
C759 H747 0.929 . S
C759 C753 1.390 . S
C759 C756 1.386 . S
C760 C755 1.490 . S
C760 C762 1.395 . S
C760 C763 1.403 . S
H761 C767 0.930 . S
C762 H748 0.930 . S
C762 C760 1.395 . S
C762 C765 1.403 . S
C763 C760 1.403 . S
C763 C764 1.524 . S
C763 C767 1.400 . S
C764 H749 0.960 . S
C764 H750 0.960 . S
C764 H751 0.960 . S
C764 C763 1.524 . S
C765 C762 1.403 . S
C765 C766 1.392 . S
C765 C769 1.495 . S
C766 C765 1.392 . S
C766 C767 1.385 . S
C766 C768 1.478 . S
C767 H761 0.930 . S
C767 C763 1.400 . S
C767 C766 1.385 . S
C768 C766 1.478 . S
C768 C770 1.381 . S
C768 C774 1.383 . S
C769 C765 1.495 . S
C769 H775 0.959 . S
C769 H776 0.961 . S
C769 H777 0.960 . S
C770 C768 1.381 . S
C770 C771 1.394 . S
C770 H778 0.930 . S
C771 C770 1.394 . S
C771 C772 1.383 . S
C771 H779 0.929 . S
C772 C771 1.383 . S
C772 C773 1.377 . S
C773 H757 0.930 . S
C773 C772 1.377 . S
C773 C774 1.379 . S
C774 H758 0.931 . S
C774 C768 1.383 . S
C774 C773 1.379 . S
H775 C769 0.959 . S
H776 C769 0.961 . S
H777 C769 0.960 . S
H778 C770 0.930 . S
H779 C771 0.929 . S
H780 C788 0.929 . S
H781 C790 0.930 . S
H782 C792 0.930 . S
H783 C795 0.929 . S
H784 C798 0.930 . S
H785 C800 0.960 . S
H786 C800 0.960 . S
H787 C800 0.960 . S
C788 H780 0.929 . S
C788 C789 1.377 . S
C788 C790 1.384 . S
C789 C788 1.377 . S
C789 C795 1.390 . S
C790 H781 0.930 . S
C790 C788 1.384 . S
C790 C791 1.372 . S
C791 C790 1.372 . S
C791 C792 1.400 . S
C791 C796 1.490 . S
C792 H782 0.930 . S
C792 C791 1.400 . S
C792 C795 1.386 . S
H793 C809 0.930 . S
H794 C810 0.931 . S
C795 H783 0.929 . S
C795 C789 1.390 . S
C795 C792 1.386 . S
C796 C791 1.490 . S
C796 C798 1.395 . S
C796 C799 1.403 . S
H797 C803 0.930 . S
C798 H784 0.930 . S
C798 C796 1.395 . S
C798 C801 1.403 . S
C799 C796 1.403 . S
C799 C800 1.524 . S
C799 C803 1.400 . S
C800 H785 0.960 . S
C800 H786 0.960 . S
C800 H787 0.960 . S
C800 C799 1.524 . S
C801 C798 1.403 . S
C801 C802 1.392 . S
C801 C805 1.495 . S
C802 C801 1.392 . S
C802 C803 1.385 . S
C802 C804 1.478 . S
C803 H797 0.930 . S
C803 C799 1.400 . S
C803 C802 1.385 . S
C804 C802 1.478 . S
C804 C806 1.381 . S
C804 C810 1.383 . S
C805 C801 1.495 . S
C805 H811 0.959 . S
C805 H812 0.961 . S
C805 H813 0.960 . S
C806 C804 1.381 . S
C806 C807 1.394 . S
C806 H814 0.930 . S
C807 C806 1.394 . S
C807 C808 1.383 . S
C807 H815 0.929 . S
C808 C807 1.383 . S
C808 C809 1.377 . S
C809 H793 0.930 . S
C809 C808 1.377 . S
C809 C810 1.379 . S
C810 H794 0.931 . S
C810 C804 1.383 . S
C810 C809 1.379 . S
H811 C805 0.959 . S
H812 C805 0.961 . S
H813 C805 0.960 . S
H814 C806 0.930 . S
H815 C807 0.929 . S
H816 C824 0.929 . S
H817 C826 0.930 . S
H818 C828 0.930 . S
H819 C831 0.929 . S
H820 C834 0.930 . S
H821 C836 0.960 . S
H822 C836 0.960 . S
H823 C836 0.960 . S
C824 H816 0.929 . S
C824 C825 1.377 . S
C824 C826 1.384 . S
C825 C824 1.377 . S
C825 C831 1.390 . S
C826 H817 0.930 . S
C826 C824 1.384 . S
C826 C827 1.372 . S
C827 C826 1.372 . S
C827 C828 1.400 . S
C827 C832 1.490 . S
C828 H818 0.930 . S
C828 C827 1.400 . S
C828 C831 1.386 . S
H829 C845 0.930 . S
H830 C846 0.931 . S
C831 H819 0.929 . S
C831 C825 1.390 . S
C831 C828 1.386 . S
C832 C827 1.490 . S
C832 C834 1.395 . S
C832 C835 1.403 . S
H833 C839 0.930 . S
C834 H820 0.930 . S
C834 C832 1.395 . S
C834 C837 1.403 . S
C835 C832 1.403 . S
C835 C836 1.524 . S
C835 C839 1.400 . S
C836 H821 0.960 . S
C836 H822 0.960 . S
C836 H823 0.960 . S
C836 C835 1.524 . S
C837 C834 1.403 . S
C837 C838 1.392 . S
C837 C841 1.495 . S
C838 C837 1.392 . S
C838 C839 1.385 . S
C838 C840 1.478 . S
C839 H833 0.930 . S
C839 C835 1.400 . S
C839 C838 1.385 . S
C840 C838 1.478 . S
C840 C842 1.381 . S
C840 C846 1.383 . S
C841 C837 1.495 . S
C841 H847 0.959 . S
C841 H848 0.961 . S
C841 H849 0.960 . S
C842 C840 1.381 . S
C842 C843 1.394 . S
C842 H850 0.930 . S
C843 C842 1.394 . S
C843 C844 1.383 . S
C843 H851 0.929 . S
C844 C843 1.383 . S
C844 C845 1.377 . S
C845 H829 0.930 . S
C845 C844 1.377 . S
C845 C846 1.379 . S
C846 H830 0.931 . S
C846 C840 1.383 . S
C846 C845 1.379 . S
H847 C841 0.959 . S
H848 C841 0.961 . S
H849 C841 0.960 . S
H850 C842 0.930 . S
H851 C843 0.929 . S
H852 C860 0.929 . S
H853 C862 0.930 . S
H854 C864 0.930 . S
H855 C867 0.929 . S
H856 C870 0.930 . S
H857 C872 0.960 . S
H858 C872 0.960 . S
H859 C872 0.960 . S
C860 H852 0.929 . S
C860 C861 1.377 . S
C860 C862 1.384 . S
C861 C860 1.377 . S
C861 C867 1.390 . S
C862 H853 0.930 . S
C862 C860 1.384 . S
C862 C863 1.372 . S
C863 C862 1.372 . S
C863 C864 1.400 . S
C863 C868 1.490 . S
C864 H854 0.930 . S
C864 C863 1.400 . S
C864 C867 1.386 . S
H865 C881 0.930 . S
H866 C882 0.931 . S
C867 H855 0.929 . S
C867 C861 1.390 . S
C867 C864 1.386 . S
C868 C863 1.490 . S
C868 C870 1.395 . S
C868 C871 1.403 . S
H869 C875 0.930 . S
C870 H856 0.930 . S
C870 C868 1.395 . S
C870 C873 1.403 . S
C871 C868 1.403 . S
C871 C872 1.524 . S
C871 C875 1.400 . S
C872 H857 0.960 . S
C872 H858 0.960 . S
C872 H859 0.960 . S
C872 C871 1.524 . S
C873 C870 1.403 . S
C873 C874 1.392 . S
C873 C877 1.495 . S
C874 C873 1.392 . S
C874 C875 1.385 . S
C874 C876 1.478 . S
C875 H869 0.930 . S
C875 C871 1.400 . S
C875 C874 1.385 . S
C876 C874 1.478 . S
C876 C878 1.381 . S
C876 C882 1.383 . S
C877 C873 1.495 . S
C877 H883 0.959 . S
C877 H884 0.961 . S
C877 H885 0.960 . S
C878 C876 1.381 . S
C878 C879 1.394 . S
C878 H886 0.930 . S
C879 C878 1.394 . S
C879 C880 1.383 . S
C879 H887 0.929 . S
C880 C879 1.383 . S
C880 C881 1.377 . S
C881 H865 0.930 . S
C881 C880 1.377 . S
C881 C882 1.379 . S
C882 H866 0.931 . S
C882 C876 1.383 . S
C882 C881 1.379 . S
H883 C877 0.959 . S
H884 C877 0.961 . S
H885 C877 0.960 . S
H886 C878 0.930 . S
H887 C879 0.929 . S
H888 C896 0.929 . S
H889 C898 0.930 . S
H890 C900 0.930 . S
H891 C903 0.929 . S
H892 C906 0.930 . S
H893 C908 0.960 . S
H894 C908 0.960 . S
H895 C908 0.960 . S
C896 H888 0.929 . S
C896 C897 1.377 . S
C896 C898 1.384 . S
C897 C896 1.377 . S
C897 C903 1.390 . S
C898 H889 0.930 . S
C898 C896 1.384 . S
C898 C899 1.372 . S
C899 C898 1.372 . S
C899 C900 1.400 . S
C899 C904 1.490 . S
C900 H890 0.930 . S
C900 C899 1.400 . S
C900 C903 1.386 . S
H901 C917 0.930 . S
H902 C918 0.931 . S
C903 H891 0.929 . S
C903 C897 1.390 . S
C903 C900 1.386 . S
C904 C899 1.490 . S
C904 C906 1.395 . S
C904 C907 1.403 . S
H905 C911 0.930 . S
C906 H892 0.930 . S
C906 C904 1.395 . S
C906 C909 1.403 . S
C907 C904 1.403 . S
C907 C908 1.524 . S
C907 C911 1.400 . S
C908 H893 0.960 . S
C908 H894 0.960 . S
C908 H895 0.960 . S
C908 C907 1.524 . S
C909 C906 1.403 . S
C909 C910 1.392 . S
C909 C913 1.495 . S
C910 C909 1.392 . S
C910 C911 1.385 . S
C910 C912 1.478 . S
C911 H905 0.930 . S
C911 C907 1.400 . S
C911 C910 1.385 . S
C912 C910 1.478 . S
C912 C914 1.381 . S
C912 C918 1.383 . S
C913 C909 1.495 . S
C913 H919 0.959 . S
C913 H920 0.961 . S
C913 H921 0.960 . S
C914 C912 1.381 . S
C914 C915 1.394 . S
C914 H922 0.930 . S
C915 C914 1.394 . S
C915 C916 1.383 . S
C915 H923 0.929 . S
C916 C915 1.383 . S
C916 C917 1.377 . S
C917 H901 0.930 . S
C917 C916 1.377 . S
C917 C918 1.379 . S
C918 H902 0.931 . S
C918 C912 1.383 . S
C918 C917 1.379 . S
H919 C913 0.959 . S
H920 C913 0.961 . S
H921 C913 0.960 . S
H922 C914 0.930 . S
H923 C915 0.929 . S
H924 C932 0.929 . S
H925 C934 0.930 . S
H926 C936 0.930 . S
H927 C939 0.929 . S
H928 C942 0.930 . S
H929 C944 0.960 . S
H930 C944 0.960 . S
H931 C944 0.960 . S
C932 H924 0.929 . S
C932 C933 1.377 . S
C932 C934 1.384 . S
C933 C932 1.377 . S
C933 C939 1.390 . S
C934 H925 0.930 . S
C934 C932 1.384 . S
C934 C935 1.372 . S
C935 C934 1.372 . S
C935 C936 1.400 . S
C935 C940 1.490 . S
C936 H926 0.930 . S
C936 C935 1.400 . S
C936 C939 1.386 . S
H937 C953 0.930 . S
H938 C954 0.931 . S
C939 H927 0.929 . S
C939 C933 1.390 . S
C939 C936 1.386 . S
C940 C935 1.490 . S
C940 C942 1.395 . S
C940 C943 1.403 . S
H941 C947 0.930 . S
C942 H928 0.930 . S
C942 C940 1.395 . S
C942 C945 1.403 . S
C943 C940 1.403 . S
C943 C944 1.524 . S
C943 C947 1.400 . S
C944 H929 0.960 . S
C944 H930 0.960 . S
C944 H931 0.960 . S
C944 C943 1.524 . S
C945 C942 1.403 . S
C945 C946 1.392 . S
C945 C949 1.495 . S
C946 C945 1.392 . S
C946 C947 1.385 . S
C946 C948 1.478 . S
C947 H941 0.930 . S
C947 C943 1.400 . S
C947 C946 1.385 . S
C948 C946 1.478 . S
C948 C950 1.381 . S
C948 C954 1.383 . S
C949 C945 1.495 . S
C949 H955 0.959 . S
C949 H956 0.961 . S
C949 H957 0.960 . S
C950 C948 1.381 . S
C950 C951 1.394 . S
C950 H958 0.930 . S
C951 C950 1.394 . S
C951 C952 1.383 . S
C951 H959 0.929 . S
C952 C951 1.383 . S
C952 C953 1.377 . S
C953 H937 0.930 . S
C953 C952 1.377 . S
C953 C954 1.379 . S
C954 H938 0.931 . S
C954 C948 1.383 . S
C954 C953 1.379 . S
H955 C949 0.959 . S
H956 C949 0.961 . S
H957 C949 0.960 . S
H958 C950 0.930 . S
H959 C951 0.929 . S
C537 C20 1.312 . S
C556 C489 1.303 . S
C573 C49 1.312 . S
C592 C117 1.303 . S
C609 C196 1.313 . S
C628 C145 1.309 . S
C645 C284 1.310 . S
C664 C225 1.307 . S
C681 C372 1.312 . S
C700 C313 1.304 . S
C717 C460 1.313 . S
C736 C401 1.308 . S
C753 C57 1.606 . S
C772 C381 1.606 . S
C789 C469 1.606 . S
C808 C137 1.604 . S
C825 C233 1.606 . S
C844 C29 1.606 . S
C861 C108 1.607 . S
C880 C321 1.606 1_556 S
C897 C205 1.606 1_554 S
C916 C409 1.606 . S
C933 C497 1.606 . S
C952 C293 1.605 . S
