# Generated by pormake.
# Topology unn, (4)-cn, num edge types: 1
# Building blocks:
#     Node 0, Type 0, BuildingBlock: MUDLON_clean_sbu_0, # of connection points: 4
#     Node 1, Type 0, BuildingBlock: MUDLON_clean_sbu_0, # of connection points: 4
#     Node 2, Type 0, BuildingBlock: MUDLON_clean_sbu_0, # of connection points: 4
#     Node 3, Type 0, BuildingBlock: MUDLON_clean_sbu_0, # of connection points: 4
#     Node 4, Type 0, BuildingBlock: MUDLON_clean_sbu_0, # of connection points: 4
#     Node 5, Type 0, BuildingBlock: MUDLON_clean_sbu_0, # of connection points: 4
#     Node 6, Type 0, BuildingBlock: MUDLON_clean_sbu_0, # of connection points: 4
#     Node 7, Type 0, BuildingBlock: MUDLON_clean_sbu_0, # of connection points: 4
#     Node 8, Type 0, BuildingBlock: MUDLON_clean_sbu_0, # of connection points: 4
#     Node 9, Type 0, BuildingBlock: MUDLON_clean_sbu_0, # of connection points: 4
#     Node 10, Type 0, BuildingBlock: MUDLON_clean_sbu_0, # of connection points: 4
#     Node 11, Type 0, BuildingBlock: MUDLON_clean_sbu_0, # of connection points: 4
#     Node 12, Type 0, BuildingBlock: MUDLON_clean_sbu_0, # of connection points: 4
#     Node 13, Type 0, BuildingBlock: MUDLON_clean_sbu_0, # of connection points: 4
#     Node 14, Type 0, BuildingBlock: MUDLON_clean_sbu_0, # of connection points: 4
#     Node 15, Type 0, BuildingBlock: MUDLON_clean_sbu_0, # of connection points: 4
#     Node 16, Type 0, BuildingBlock: MUDLON_clean_sbu_0, # of connection points: 4
#     Node 17, Type 0, BuildingBlock: MUDLON_clean_sbu_0, # of connection points: 4
#     Edge 18, Type (0, 0), BuildingBlock: EZIPEK_clean_linker_0, # of connection points: 2
#     Edge 19, Type (0, 0), BuildingBlock: EZIPEK_clean_linker_0, # of connection points: 2
#     Edge 20, Type (0, 0), BuildingBlock: EZIPEK_clean_linker_0, # of connection points: 2
#     Edge 21, Type (0, 0), BuildingBlock: EZIPEK_clean_linker_0, # of connection points: 2
#     Edge 22, Type (0, 0), BuildingBlock: EZIPEK_clean_linker_0, # of connection points: 2
#     Edge 23, Type (0, 0), BuildingBlock: EZIPEK_clean_linker_0, # of connection points: 2
#     Edge 24, Type (0, 0), BuildingBlock: EZIPEK_clean_linker_0, # of connection points: 2
#     Edge 25, Type (0, 0), BuildingBlock: EZIPEK_clean_linker_0, # of connection points: 2
#     Edge 26, Type (0, 0), BuildingBlock: EZIPEK_clean_linker_0, # of connection points: 2
#     Edge 27, Type (0, 0), BuildingBlock: EZIPEK_clean_linker_0, # of connection points: 2
#     Edge 28, Type (0, 0), BuildingBlock: EZIPEK_clean_linker_0, # of connection points: 2
#     Edge 29, Type (0, 0), BuildingBlock: EZIPEK_clean_linker_0, # of connection points: 2
#     Edge 30, Type (0, 0), BuildingBlock: EZIPEK_clean_linker_0, # of connection points: 2
#     Edge 31, Type (0, 0), BuildingBlock: EZIPEK_clean_linker_0, # of connection points: 2
#     Edge 32, Type (0, 0), BuildingBlock: EZIPEK_clean_linker_0, # of connection points: 2
#     Edge 33, Type (0, 0), BuildingBlock: EZIPEK_clean_linker_0, # of connection points: 2
#     Edge 34, Type (0, 0), BuildingBlock: EZIPEK_clean_linker_0, # of connection points: 2
#     Edge 35, Type (0, 0), BuildingBlock: EZIPEK_clean_linker_0, # of connection points: 2
#     Edge 36, Type (0, 0), BuildingBlock: EZIPEK_clean_linker_0, # of connection points: 2
#     Edge 37, Type (0, 0), BuildingBlock: EZIPEK_clean_linker_0, # of connection points: 2
#     Edge 38, Type (0, 0), BuildingBlock: EZIPEK_clean_linker_0, # of connection points: 2
#     Edge 39, Type (0, 0), BuildingBlock: EZIPEK_clean_linker_0, # of connection points: 2
#     Edge 40, Type (0, 0), BuildingBlock: EZIPEK_clean_linker_0, # of connection points: 2
#     Edge 41, Type (0, 0), BuildingBlock: EZIPEK_clean_linker_0, # of connection points: 2
#     Edge 42, Type (0, 0), BuildingBlock: EZIPEK_clean_linker_0, # of connection points: 2
#     Edge 43, Type (0, 0), BuildingBlock: EZIPEK_clean_linker_0, # of connection points: 2
#     Edge 44, Type (0, 0), BuildingBlock: EZIPEK_clean_linker_0, # of connection points: 2
#     Edge 45, Type (0, 0), BuildingBlock: EZIPEK_clean_linker_0, # of connection points: 2
#     Edge 46, Type (0, 0), BuildingBlock: EZIPEK_clean_linker_0, # of connection points: 2
#     Edge 47, Type (0, 0), BuildingBlock: EZIPEK_clean_linker_0, # of connection points: 2
#     Edge 48, Type (0, 0), BuildingBlock: EZIPEK_clean_linker_0, # of connection points: 2
#     Edge 49, Type (0, 0), BuildingBlock: EZIPEK_clean_linker_0, # of connection points: 2
#     Edge 50, Type (0, 0), BuildingBlock: EZIPEK_clean_linker_0, # of connection points: 2
#     Edge 51, Type (0, 0), BuildingBlock: EZIPEK_clean_linker_0, # of connection points: 2
#     Edge 52, Type (0, 0), BuildingBlock: EZIPEK_clean_linker_0, # of connection points: 2
#     Edge 53, Type (0, 0), BuildingBlock: EZIPEK_clean_linker_0, # of connection points: 2
# Relax obj value: 0.098
# Max RMSD: 0.215
# Mean RMSD: 0.212
data_MOF--net-unn--node1-MUDLON_clean_sbu_0--edge1-EZIPEK_clean_linker_0
_symmetry_space_group_name_H-M    P1
_symmetry_Int_Tables_number       1
_symmetry_cell_setting            triclinic
loop_
_symmetry_equiv_pos_as_xyz
'x, y, z'
_cell_length_a     355.795647
_cell_length_b     35.571305
_cell_length_c     30.753911
_cell_angle_alpha  90.744217
_cell_angle_beta   89.556283
_cell_angle_gamma 120.19856
loop_
_atom_site_label
_atom_site_type_symbol
_atom_site_fract_x
_atom_site_fract_y
_atom_site_fract_z
_atom_type_partial_charge
Mg0 Mg 0.09956 0.72236 0.25875 0.0
C1 C 0.1022 0.74353 0.16932 0.0
O2 O 0.10127 0.77325 0.18236 0.0
C3 C 0.09591 0.67239 0.33762 0.0
O4 O 0.09366 0.69223 0.33366 0.0
C5 C 0.09104 0.68531 0.21612 0.0
O6 O 0.09254 0.65934 0.20557 0.0
O7 O 0.0933 0.71734 0.24184 0.0
O8 O 0.1019 0.71522 0.19617 0.0
O9 O 0.00457 0.77835 0.28986 0.0
C10 C 0.00747 0.76898 0.30065 0.0
O11 O 0.00683 0.73009 0.29112 0.0
O12 O 0.09832 0.67364 0.30635 0.0
Mg13 Mg 0.03396 0.27583 0.25474 0.0
C14 C 0.04041 0.34609 0.31863 0.0
O15 O 0.04054 0.37426 0.29058 0.0
C16 C 0.03259 0.28748 0.16574 0.0
O17 O 0.0293 0.24946 0.17674 0.0
C18 C 0.02829 0.30841 0.28841 0.0
O19 O 0.03196 0.34334 0.2782 0.0
O20 O 0.02788 0.27127 0.2796 0.0
O21 O 0.03841 0.30579 0.309 0.0
O22 O 0.03454 0.22013 0.23133 0.0
C23 C 0.03842 0.23036 0.22078 0.0
O24 O 0.0416 0.26979 0.23006 0.0
O25 O 0.03537 0.31082 0.19454 0.0
Mg26 Mg 0.08023 0.0816 0.24471 0.0
C27 C 0.07866 0.10332 0.33259 0.0
O28 O 0.08292 0.12179 0.33202 0.0
C29 C 0.07346 0.04273 0.16818 0.0
O30 O 0.07028 0.03361 0.19574 0.0
C31 C 0.07682 0.99652 0.28783 0.0
O32 O 0.07379 1.00711 0.29181 0.0
O33 O 0.08033 0.02329 0.26808 0.0
O34 O 0.07658 0.09023 0.29693 0.0
O35 O 0.08582 0.14582 0.22785 0.0
C36 C 0.08473 0.16761 0.20328 0.0
O37 O 0.0806 0.15113 0.1939 0.0
O38 O 0.07735 0.06076 0.18123 0.0
Mg39 Mg 0.10011 0.27075 0.75238 0.0
C40 C 0.09101 0.23069 0.72342 0.0
O41 O 0.09218 0.27146 0.73159 0.0
C42 C 0.00828 0.30235 0.78568 0.0
O43 O 0.00835 0.33646 0.76905 0.0
C44 C 0.10265 0.28072 0.66161 0.0
O45 O 0.10167 0.24075 0.67039 0.0
O46 O 0.10251 0.30468 0.69189 0.0
O47 O 0.09366 0.21758 0.73256 0.0
O48 O 0.09913 0.30539 0.80485 0.0
C49 C 0.10092 0.3463 0.80958 0.0
O50 O 0.10306 0.3721 0.77716 0.0
O51 O 0.00485 0.2651 0.78128 0.0
Mg52 Mg 0.07842 0.72404 0.75349 0.0
C53 C 0.07767 0.77719 0.8286 0.0
O54 O 0.0775 0.74558 0.85167 0.0
C55 C 0.08345 0.68904 0.70723 0.0
O56 O 0.08004 0.67694 0.68233 0.0
C57 C 0.07478 0.64716 0.81231 0.0
O58 O 0.07812 0.64445 0.79761 0.0
O59 O 0.07372 0.67206 0.79366 0.0
O60 O 0.07876 0.78016 0.78856 0.0
O61 O 0.07615 0.72941 0.69026 0.0
C62 C 0.079 0.76003 0.6671 0.0
O63 O 0.08295 0.78446 0.68235 0.0
O64 O 0.08387 0.71198 0.74117 0.0
Mg65 Mg 0.03475 0.08224 0.74436 0.0
C66 C 0.03286 0.05606 0.65338 0.0
O67 O 0.0302 0.07055 0.66228 0.0
C68 C 0.03891 0.10687 0.82689 0.0
O69 O 0.03637 0.12381 0.82567 0.0
C70 C 0.03928 0.16921 0.70479 0.0
O71 O 0.04179 0.15272 0.69689 0.0
O72 O 0.03584 0.14707 0.72745 0.0
O73 O 0.0353 0.05552 0.68304 0.0
O74 O 0.02904 0.03032 0.77777 0.0
C75 C 0.02931 0.99587 0.77998 0.0
O76 O 0.03246 0.99476 0.75838 0.0
O77 O 0.03945 0.09019 0.79237 0.0
Mg78 Mg 0.06687 0.05258 0.58569 0.0
C79 C 0.06904 0.03651 0.49283 0.0
O80 O 0.065 1.00438 0.4919 0.0
C81 C 0.06788 0.99475 0.64998 0.0
O82 O 0.07189 1.0146 0.63544 0.0
C83 C 0.05765 1.00621 0.55222 0.0
O84 O 0.05824 0.9737 0.56193 0.0
O85 O 0.06069 0.04509 0.56063 0.0
O86 O 0.07064 0.05777 0.52785 0.0
O87 O 0.07153 0.10885 0.62625 0.0
C88 C 0.07548 0.11748 0.62445 0.0
O89 O 0.07654 0.09614 0.59654 0.0
O90 O 0.065 0.99893 0.62995 0.0
Mg91 Mg 0.10094 0.61051 0.59349 0.0
C92 C 0.09531 0.63962 0.63066 0.0
O93 O 0.09854 0.67314 0.6113 0.0
C94 C 0.00518 0.57141 0.55388 0.0
O95 O 0.00762 0.61336 0.54713 0.0
C96 C 0.00444 0.63047 0.67641 0.0
O97 O 0.10228 0.58839 0.6763 0.0
O98 O 0.00505 0.65146 0.64142 0.0
O99 O 0.09513 0.60286 0.6275 0.0
O100 O 0.1011 0.64041 0.53222 0.0
C101 C 0.09796 0.61614 0.50703 0.0
O102 O 0.09503 0.57712 0.52004 0.0
O103 O 0.10227 0.558 0.57571 0.0
Mg104 Mg 0.04691 0.41975 0.58859 0.0
C105 C 0.04584 0.39399 0.49764 0.0
O106 O 0.04974 0.40141 0.50752 0.0
C107 C 0.04039 0.40288 0.65762 0.0
O108 O 0.03889 0.36355 0.64167 0.0
C109 C 0.05147 0.51018 0.55878 0.0
O110 O 0.04747 0.50107 0.56708 0.0
O111 O 0.05253 0.48177 0.56794 0.0
O112 O 0.04351 0.39729 0.52739 0.0
O113 O 0.0472 0.36577 0.62044 0.0
C114 C 0.04518 0.32708 0.60501 0.0
O115 O 0.04386 0.32096 0.56447 0.0
O116 O 0.04357 0.43479 0.63899 0.0
Mg117 Mg 0.06689 0.61701 0.08062 0.0
C118 C 0.06857 0.60534 0.98896 0.0
O119 O 0.06637 0.56513 0.00278 0.0
C120 C 0.06513 0.64369 0.16054 0.0
O121 O 0.06398 0.60243 0.16327 0.0
C122 C 0.05813 0.57378 0.04069 0.0
O123 O 0.06026 0.6119 0.02191 0.0
O124 O 0.06009 0.56481 0.06989 0.0
O125 O 0.06944 0.63664 0.01528 0.0
O126 O 0.0719 0.61308 0.11916 0.0
C127 C 0.07585 0.64104 0.11019 0.0
O128 O 0.07665 0.66294 0.07398 0.0
O129 O 0.06635 0.66236 0.12386 0.0
Mg130 Mg 0.04522 0.05789 0.0817 0.0
C131 C 0.04224 0.11475 0.11746 0.0
O132 O 0.03882 0.08206 0.09888 0.0
C133 C 0.04893 1.00679 0.04475 0.0
O134 O 0.04472 0.97945 0.04619 0.0
C135 C 0.0436 0.02119 0.16688 0.0
O136 O 0.04786 0.0457 0.16492 0.0
O137 O 0.04139 1.01378 0.13229 0.0
O138 O 0.04593 0.11707 0.11325 0.0
O139 O 0.04199 0.05245 0.02117 0.0
C140 C 0.04413 0.086 0.99788 0.0
O141 O 0.04773 0.11896 0.01347 0.0
O142 O 0.05041 0.04506 0.06061 0.0
Mg143 Mg 0.10271 0.41352 0.07971 0.0
C144 C 0.10083 0.39076 0.99022 0.0
O145 O 0.09822 0.40486 0.00318 0.0
C146 C 0.00484 0.42063 0.16729 0.0
O147 O 0.10188 0.42297 0.16762 0.0
C148 C 0.00564 0.51552 0.0722 0.0
O149 O 0.00671 0.51977 0.11351 0.0
O150 O 0.00349 0.47748 0.05555 0.0
O151 O 0.00273 0.38807 0.01774 0.0
O152 O 0.0967 0.36083 0.10982 0.0
C153 C 0.09553 0.32152 0.09952 0.0
O154 O 0.09714 0.31423 0.06394 0.0
O155 O 0.00661 0.42149 0.13085 0.0
Mg156 Mg 0.03265 0.39908 0.92361 0.0
C157 C 0.03584 0.41702 0.83539 0.0
O158 O 0.03529 0.44968 0.8467 0.0
C159 C 0.0334 0.33784 0.98627 0.0
O160 O 0.03653 0.34245 0.96012 0.0
C161 C 0.02371 0.35174 0.88926 0.0
O162 O 0.02461 0.32121 0.89882 0.0
O163 O 0.02647 0.39119 0.89932 0.0
O164 O 0.03517 0.3883 0.86346 0.0
O165 O 0.03807 0.45743 0.95542 0.0
C166 C 0.04173 0.45869 0.95389 0.0
O167 O 0.04204 0.43004 0.9291 0.0
O168 O 0.03096 0.35259 0.9753 0.0
Mg169 Mg 0.06555 0.92478 0.92046 0.0
C170 C 0.071 0.99981 0.98477 0.0
O171 O 0.07139 0.02625 0.95342 0.0
C172 C 0.06525 0.93263 0.82687 0.0
O173 O 0.06271 0.89087 0.83395 0.0
C174 C 0.05942 0.95366 0.94434 0.0
O175 O 0.06263 0.98697 0.92465 0.0
O176 O 0.05934 0.91733 0.94383 0.0
O177 O 0.06935 0.95941 0.97692 0.0
O178 O 0.06683 0.87158 0.9048 0.0
C179 C 0.07084 0.88225 0.90524 0.0
O180 O 0.07369 0.92063 0.92105 0.0
O181 O 0.06704 0.95841 0.85901 0.0
Mg182 Mg 0.01392 0.75388 0.9265 0.0
C183 C 0.00689 0.74674 0.9904 0.0
O184 O 0.00408 0.71945 0.96189 0.0
C185 C 0.01149 0.70649 0.84448 0.0
O186 O 0.01501 0.70616 0.85624 0.0
C187 C 0.011 0.66765 0.96307 0.0
O188 O 0.00753 0.66895 0.95134 0.0
O189 O 0.01471 0.70081 0.9545 0.0
O190 O 0.0109 0.76839 0.98067 0.0
O191 O 0.01919 0.81822 0.90392 0.0
C192 C 0.01848 0.83305 0.86912 0.0
O193 O 0.01491 0.80804 0.84723 0.0
O194 O 0.00992 0.7238 0.86976 0.0
Mg195 Mg 0.03308 0.92596 0.41902 0.0
C196 C 0.02383 0.88181 0.38979 0.0
O197 O 0.02466 0.92118 0.40021 0.0
C198 C 0.04207 0.95413 0.44944 0.0
O199 O 0.04264 0.98282 0.41984 0.0
C200 C 0.03528 0.97908 0.33513 0.0
O201 O 0.03257 0.9915 0.34917 0.0
O202 O 0.0361 0.95487 0.35816 0.0
O203 O 0.02674 0.87152 0.39698 0.0
O204 O 0.03149 0.96411 0.463 0.0
C205 C 0.03447 0.99684 0.48313 0.0
O206 O 0.03852 1.01353 0.47074 0.0
O207 O 0.03824 0.92148 0.45482 0.0
Mg208 Mg 0.01335 0.40573 0.42394 0.0
C209 C 0.01196 0.48099 0.45044 0.0
O210 O 0.01105 0.47897 0.40889 0.0
C211 C 0.01751 0.35811 0.38802 0.0
O212 O 0.0134 0.32814 0.3926 0.0
C213 C 0.0066 0.35259 0.48956 0.0
O214 O 0.00561 0.38286 0.48264 0.0
O215 O 0.00945 0.3509 0.46575 0.0
O216 O 0.0137 0.45958 0.46425 0.0
O217 O 0.01066 0.40907 0.36253 0.0
C218 C 0.00804 0.37786 0.33826 0.0
O219 O 0.00629 0.33759 0.35173 0.0
O220 O 0.01876 0.39682 0.40151 0.0
Mg221 Mg 0.06861 0.74843 0.41822 0.0
C222 C 0.06661 0.71815 0.33132 0.0
O223 O 0.0638 0.7299 0.34352 0.0
C224 C 0.0737 0.78975 0.49991 0.0
O225 O 0.07225 0.81662 0.49302 0.0
C226 C 0.07302 0.84321 0.38991 0.0
O227 O 0.07617 0.84409 0.41276 0.0
O228 O 0.06928 0.80871 0.39082 0.0
O229 O 0.06949 0.72188 0.35821 0.0
O230 O 0.06268 0.69024 0.44232 0.0
C231 C 0.06228 0.68124 0.48276 0.0
O232 O 0.06481 0.71163 0.51053 0.0
O233 O 0.07316 0.7617 0.47078 0.0
C234 C 0.00688 0.7449 0.11424 0.0
C235 C 0.0029 0.74308 0.12367 0.0
C236 C 0.10242 0.74935 0.04609 0.0
C237 C 0.00554 0.74616 0.03629 0.0
N238 N 0.0109 0.72846 0.0617 0.0
N239 N 0.09666 0.73302 0.09791 0.0
C240 C 0.00789 0.74051 0.07051 0.0
C241 C 0.10082 0.74235 0.0894 0.0
N242 N 0.00979 0.75232 0.14669 0.0
N243 N 0.10048 0.76047 0.01452 0.0
H244 H 0.0953 0.72529 0.12892 0.0
H245 H 0.09443 0.72814 0.07364 0.0
H246 H 0.10164 0.76717 0.98265 0.0
H247 H 0.09801 0.76734 0.02103 0.0
H248 H 0.01293 0.7585 0.14063 0.0
H249 H 0.00923 0.7567 0.17921 0.0
H250 H 0.01235 0.71965 0.08581 0.0
H251 H 0.0116 0.72227 0.03045 0.0
C252 C 0.03398 0.35544 0.06608 0.0
C253 C 0.03336 0.32528 0.03213 0.0
C254 C 0.03301 0.27365 0.08612 0.0
C255 C 0.03305 0.30152 0.11995 0.0
N256 N 0.03278 0.36556 0.14174 0.0
N257 N 0.03176 0.2536 0.0097 0.0
C258 C 0.03333 0.34158 0.10989 0.0
C259 C 0.03275 0.28383 0.04208 0.0
N260 N 0.03536 0.39792 0.05678 0.0
N261 N 0.03338 0.23822 0.09594 0.0
H262 H 0.03154 0.25993 0.97708 0.0
H263 H 0.03081 0.22122 0.01552 0.0
H264 H 0.03363 0.22983 0.12768 0.0
H265 H 0.03385 0.21951 0.07257 0.0
H266 H 0.03634 0.42217 0.08056 0.0
H267 H 0.03599 0.40999 0.02531 0.0
H268 H 0.03245 0.39246 0.13523 0.0
H269 H 0.03222 0.35636 0.17425 0.0
C270 C 0.07418 1.00482 0.10258 0.0
C271 C 0.07261 0.03084 0.12155 0.0
C272 C 0.06992 0.03708 0.05046 0.0
C273 C 0.07191 1.01486 0.03078 0.0
N274 N 0.07677 0.98641 0.03728 0.0
N275 N 0.06976 0.07906 0.11232 0.0
C276 C 0.07429 1.00136 0.05666 0.0
C277 C 0.0707 0.04908 0.09518 0.0
N278 N 0.07543 0.9821 0.1285 0.0
N279 N 0.06711 0.0448 0.02746 0.0
H280 H 0.07027 0.08877 0.14491 0.0
H281 H 0.06883 0.09713 0.0934 0.0
H282 H 0.06634 0.03603 0.99499 0.0
H283 H 0.0652 0.05611 0.04183 0.0
H284 H 0.0762 0.95926 0.11641 0.0
H285 H 0.07526 0.98261 0.16238 0.0
H286 H 0.07889 0.98003 0.05443 0.0
H287 H 0.07705 0.98487 0.0036 0.0
C288 C 0.0737 0.0336 0.43311 0.0
C289 C 0.07147 0.05338 0.45173 0.0
C290 C 0.07373 0.10439 0.39084 0.0
C291 C 0.07628 0.08717 0.37427 0.0
N292 N 0.07929 0.03995 0.38366 0.0
N293 N 0.06978 0.11118 0.45225 0.0
C294 C 0.07645 0.05315 0.3966 0.0
C295 C 0.0716 0.08985 0.43172 0.0
N296 N 0.07313 0.99563 0.44982 0.0
N297 N 0.0733 0.13443 0.36735 0.0
H298 H 0.06812 0.10108 0.48171 0.0
H299 H 0.07019 0.14073 0.44185 0.0
H300 H 0.07498 0.14738 0.33836 0.0
H301 H 0.07108 0.14448 0.37502 0.0
H302 H 0.07423 0.97664 0.43441 0.0
H303 H 0.07125 0.98112 0.47739 0.0
H304 H 0.07991 0.01903 0.40166 0.0
H305 H 0.08131 0.05219 0.3566 0.0
C306 C 0.09753 0.67064 0.45944 0.0
C307 C 0.09756 0.63118 0.46355 0.0
C308 C 0.09598 0.6162 0.38571 0.0
C309 C 0.09642 0.65778 0.38092 0.0
N310 N 0.09886 0.72943 0.41185 0.0
N311 N 0.09781 0.57129 0.4287 0.0
C312 C 0.09754 0.68645 0.41737 0.0
C313 C 0.09706 0.60524 0.42613 0.0
N314 N 0.09731 0.69232 0.49552 0.0
N315 N 0.09441 0.58667 0.35221 0.0
H316 H 0.09882 0.56366 0.45728 0.0
H317 H 0.09791 0.55389 0.40161 0.0
H318 H 0.0935 0.59324 0.32235 0.0
H319 H 0.09361 0.55437 0.35549 0.0
H320 H 0.09683 0.71884 0.49387 0.0
H321 H 0.09715 0.68118 0.52702 0.0
H322 H 0.10011 0.75225 0.43712 0.0
H323 H 0.09923 0.7435 0.38145 0.0
C324 C 0.04019 0.34666 0.44229 0.0
C325 C 0.0443 0.3834 0.45203 0.0
C326 C 0.046 0.3944 0.37405 0.0
C327 C 0.04176 0.35977 0.36437 0.0
N328 N 0.03442 0.31208 0.38977 0.0
N329 N 0.05061 0.44908 0.42676 0.0
C330 C 0.03874 0.3385 0.39861 0.0
C331 C 0.04707 0.40932 0.41777 0.0
N332 N 0.03773 0.31835 0.47419 0.0
N333 N 0.04905 0.41207 0.3419 0.0
H334 H 0.05141 0.46215 0.45814 0.0
H335 H 0.05249 0.47107 0.40272 0.0
H336 H 0.04842 0.40153 0.30959 0.0
H337 H 0.05232 0.4343 0.34802 0.0
H338 H 0.03496 0.28849 0.46763 0.0
H339 H 0.03865 0.32247 0.50672 0.0
H340 H 0.03204 0.29961 0.41389 0.0
H341 H 0.03316 0.30674 0.35847 0.0
C342 C 0.09695 0.34588 0.87669 0.0
C343 C 0.10094 0.36349 0.85376 0.0
C344 C 0.00422 0.40348 0.91951 0.0
C345 C 0.10092 0.38055 0.94366 0.0
N346 N 0.09335 0.32468 0.94653 0.0
N347 N 0.00822 0.40408 0.85557 0.0
C348 C 0.09699 0.3504 0.92259 0.0
C349 C 0.00432 0.39125 0.87558 0.0
N350 N 0.09311 0.32552 0.8544 0.0
N351 N 0.0078 0.43801 0.93788 0.0
H352 H 0.00852 0.39591 0.82366 0.0
H353 H 0.01118 0.41961 0.87208 0.0
H354 H 0.00786 0.44866 0.96973 0.0
H355 H 0.01058 0.45874 0.92016 0.0
H356 H 0.0901 0.31558 0.86897 0.0
H357 H 0.09297 0.32275 0.82054 0.0
H358 H 0.09053 0.29906 0.93314 0.0
H359 H 0.09328 0.32604 0.98041 0.0
C360 C 0.07465 0.6358 0.93512 0.0
C361 C 0.07013 0.61374 0.94348 0.0
C362 C 0.06868 0.60624 0.86502 0.0
C363 C 0.07319 0.63326 0.85714 0.0
N364 N 0.0804 0.68187 0.88593 0.0
N365 N 0.06276 0.58108 0.91705 0.0
C366 C 0.07617 0.65015 0.89246 0.0
C367 C 0.06711 0.59956 0.90859 0.0
N368 N 0.0775 0.64167 0.9676 0.0
N369 N 0.06591 0.58621 0.83091 0.0
H370 H 0.06148 0.57511 0.94846 0.0
H371 H 0.06045 0.57458 0.89319 0.0
H372 H 0.06697 0.59035 0.79867 0.0
H373 H 0.06265 0.56267 0.83468 0.0
H374 H 0.08081 0.65372 0.96224 0.0
H375 H 0.07648 0.62985 0.99889 0.0
H376 H 0.08255 0.69837 0.91137 0.0
H377 H 0.08167 0.69529 0.85568 0.0
C378 C 0.04574 0.10106 0.91843 0.0
C379 C 0.04271 0.08804 0.95335 0.0
C380 C 0.03705 0.07817 0.9025 0.0
C381 C 0.04024 0.09854 0.86948 0.0
N382 N 0.04777 0.13421 0.84744 0.0
N383 N 0.03563 0.07179 0.97963 0.0
C384 C 0.04463 0.11117 0.87769 0.0
C385 C 0.0384 0.07845 0.94572 0.0
N386 N 0.04961 0.10219 0.9236 0.0
N387 N 0.03272 0.05697 0.89246 0.0
H388 H 0.03652 0.07343 0.0121 0.0
H389 H 0.0326 0.06916 0.9756 0.0
H390 H 0.03157 0.05404 0.86083 0.0
H391 H 0.0303 0.03796 0.91474 0.0
H392 H 0.05174 0.10736 0.89796 0.0
H393 H 0.05048 0.09329 0.95237 0.0
H394 H 0.05108 0.14819 0.85374 0.0
H395 H 0.04709 0.14267 0.81737 0.0
C396 C 0.03126 0.99536 0.60165 0.0
C397 C 0.03299 0.04042 0.60916 0.0
C398 C 0.03475 0.05486 0.53183 0.0
C399 C 0.03353 1.01065 0.52537 0.0
N400 N 0.03116 0.93944 0.5555 0.0
N401 N 0.03678 0.1142 0.58325 0.0
C402 C 0.03189 0.98087 0.5605 0.0
C403 C 0.03482 0.07054 0.5747 0.0
N404 N 0.02893 0.96631 0.63358 0.0
N405 N 0.03574 0.08153 0.49678 0.0
H406 H 0.03689 0.12687 0.61429 0.0
H407 H 0.03858 0.138 0.56042 0.0
H408 H 0.03567 0.07079 0.46489 0.0
H409 H 0.03624 0.11296 0.4988 0.0
H410 H 0.02716 0.93279 0.6284 0.0
H411 H 0.02844 0.97577 0.66437 0.0
H412 H 0.03051 0.91847 0.58141 0.0
H413 H 0.03154 0.9268 0.52621 0.0
C414 C 0.10101 0.27595 0.58169 0.0
C415 C 0.00331 0.29738 0.61691 0.0
C416 C 0.00842 0.35404 0.56796 0.0
C417 C 0.0056 0.33178 0.53253 0.0
N418 N 0.09993 0.26849 0.5034 0.0
N419 N 0.01048 0.35052 0.64204 0.0
C420 C 0.10232 0.29167 0.53871 0.0
C421 C 0.00743 0.33471 0.60964 0.0
N422 N 0.09693 0.24186 0.58951 0.0
N423 N 0.012 0.39422 0.56201 0.0
H424 H 0.00991 0.33661 0.67278 0.0
H425 H 0.0137 0.37473 0.63733 0.0
H426 H 0.01298 0.40877 0.53166 0.0
H427 H 0.01386 0.41444 0.58753 0.0
H428 H 0.09449 0.22818 0.56607 0.0
H429 H 0.09583 0.22913 0.62036 0.0
H430 H 0.09731 0.23687 0.50512 0.0
H431 H 0.10079 0.27965 0.47163 0.0
C432 C 0.07293 0.78468 0.58186 0.0
C433 C 0.07532 0.78712 0.54352 0.0
C434 C 0.08004 0.7699 0.58636 0.0
C435 C 0.07782 0.77027 0.62471 0.0
N436 N 0.07299 0.79007 0.66038 0.0
N437 N 0.08182 0.79315 0.51164 0.0
C438 C 0.07452 0.78134 0.6229 0.0
C439 C 0.07908 0.78304 0.5465 0.0
N440 N 0.069 0.78294 0.5795 0.0
N441 N 0.08294 0.75539 0.58759 0.0
H442 H 0.08131 0.80449 0.48243 0.0
H443 H 0.08482 0.79479 0.51322 0.0
H444 H 0.0837 0.74506 0.61607 0.0
H445 H 0.0843 0.74997 0.55978 0.0
H446 H 0.06693 0.77564 0.60613 0.0
H447 H 0.06757 0.78446 0.55075 0.0
H448 H 0.07094 0.80311 0.66064 0.0
H449 H 0.07412 0.78867 0.69119 0.0
C450 C 0.0343 0.41216 0.75532 0.0
C451 C 0.03699 0.4131 0.78985 0.0
C452 C 0.04177 0.4052 0.73735 0.0
C453 C 0.03928 0.40788 0.70286 0.0
N454 N 0.03357 0.41967 0.67793 0.0
N455 N 0.04372 0.41896 0.81345 0.0
C456 C 0.03566 0.41311 0.71154 0.0
C457 C 0.04084 0.41174 0.78083 0.0
N458 N 0.03036 0.40846 0.76432 0.0
N459 N 0.04496 0.39552 0.72865 0.0
H460 H 0.04321 0.42476 0.84561 0.0
H461 H 0.04681 0.42328 0.80808 0.0
H462 H 0.04587 0.39209 0.6972 0.0
H463 H 0.0465 0.3877 0.75261 0.0
H464 H 0.02805 0.40266 0.74067 0.0
H465 H 0.02921 0.40725 0.79584 0.0
H466 H 0.03121 0.42847 0.68228 0.0
H467 H 0.03444 0.41964 0.64545 0.0
C468 C 0.06791 0.94419 0.70594 0.0
C469 C 0.06699 0.97729 0.69479 0.0
C470 C 0.06459 0.97844 0.76966 0.0
C471 C 0.06594 0.94877 0.78174 0.0
N472 N 0.06946 0.90782 0.76318 0.0
N473 N 0.06529 0.03242 0.71846 0.0
C474 C 0.06775 0.93275 0.75034 0.0
C475 C 0.06554 0.99614 0.72723 0.0
N476 N 0.06879 0.92272 0.67392 0.0
N477 N 0.06225 0.98856 0.79814 0.0
H478 H 0.06605 0.04767 0.6884 0.0
H479 H 0.06476 0.05025 0.74238 0.0
H480 H 0.06145 0.9761 0.82949 0.0
H481 H 0.06074 1.00598 0.7893 0.0
H482 H 0.06904 0.89521 0.67946 0.0
H483 H 0.06889 0.93 0.64103 0.0
H484 H 0.07126 0.89919 0.7427 0.0
H485 H 0.06942 0.89877 0.79537 0.0
C486 C 0.00512 0.65917 0.79622 0.0
C487 C 0.00961 0.68988 0.80087 0.0
C488 C 0.01077 0.68167 0.72345 0.0
C489 C 0.00624 0.65334 0.71828 0.0
N490 N 0.0996 0.62586 0.74723 0.0
N491 N 0.01645 0.73942 0.76649 0.0
C492 C 0.00338 0.64531 0.75391 0.0
C493 C 0.01237 0.70389 0.76374 0.0
N494 N 0.00255 0.6415 0.83203 0.0
N495 N 0.01359 0.68601 0.69076 0.0
H496 H 0.01768 0.75785 0.79491 0.0
H497 H 0.01844 0.7534 0.73944 0.0
H498 H 0.01256 0.66974 0.66096 0.0
H499 H 0.01695 0.70264 0.69472 0.0
H500 H 0.09997 0.61555 0.83016 0.0
H501 H 0.0037 0.64969 0.86379 0.0
H502 H 0.09742 0.62324 0.77151 0.0
H503 H 0.09819 0.61692 0.71647 0.0
C504 C 0.06228 0.66444 0.2729 0.0
C505 C 0.06629 0.70026 0.287 0.0
C506 C 0.06957 0.70118 0.21655 0.0
C507 C 0.06546 0.66776 0.20126 0.0
N508 N 0.05771 0.62423 0.21168 0.0
N509 N 0.07346 0.75919 0.26909 0.0
C510 C 0.06175 0.65155 0.2285 0.0
C511 C 0.06985 0.72063 0.25791 0.0
N512 N 0.05904 0.6413 0.3023 0.0
N513 N 0.07324 0.71261 0.19292 0.0
H514 H 0.07378 0.77484 0.29889 0.0
H515 H 0.07595 0.77764 0.24722 0.0
H516 H 0.07319 0.69865 0.16286 0.0
H517 H 0.07637 0.73301 0.20494 0.0
H518 H 0.05622 0.61227 0.29453 0.0
H519 H 0.05936 0.64858 0.33551 0.0
H520 H 0.05485 0.6146 0.22893 0.0
H521 H 0.05722 0.61477 0.17898 0.0
C522 C 0.04234 0.04443 0.2404 0.0
C523 C 0.0414 1.01045 0.20972 0.0
C524 C 0.03595 0.95732 0.25924 0.0
C525 C 0.0372 0.99059 0.29128 0.0
N526 N 0.04198 0.06433 0.31534 0.0
N527 N 0.03779 0.93392 0.19204 0.0
C528 C 0.0405 0.03378 0.28268 0.0
C529 C 0.03831 0.96669 0.21959 0.0
N530 N 0.04482 0.08705 0.22858 0.0
N531 N 0.03244 0.91695 0.2664 0.0
H532 H 0.03951 0.93949 0.16295 0.0
H533 H 0.03595 0.90108 0.19966 0.0
H534 H 0.03067 0.90859 0.29535 0.0
H535 H 0.03106 0.89281 0.2425 0.0
H536 H 0.04519 0.11295 0.24792 0.0
H537 H 0.04612 0.09677 0.19759 0.0
H538 H 0.04475 0.09494 0.31256 0.0
H539 H 0.04066 0.058 0.34658 0.0
C540 C 0.00621 0.42112 0.28818 0.0
C541 C 0.00726 0.38791 0.29378 0.0
C542 C 0.00705 0.37715 0.2147 0.0
C543 C 0.0064 0.41311 0.20918 0.0
N544 N 0.00661 0.47658 0.24066 0.0
N545 N 0.00975 0.34191 0.26156 0.0
C546 C 0.00638 0.43743 0.246 0.0
C547 C 0.008 0.36808 0.25684 0.0
N548 N 0.00485 0.43571 0.32281 0.0
N549 N 0.00657 0.35008 0.18059 0.0
H550 H 0.01057 0.33477 0.29158 0.0
H551 H 0.01081 0.33078 0.2353 0.0
H552 H 0.00592 0.35508 0.14897 0.0
H553 H 0.00646 0.3205 0.18444 0.0
H554 H 0.00368 0.45713 0.31968 0.0
H555 H 0.00443 0.42265 0.35384 0.0
H556 H 0.00699 0.49742 0.26653 0.0
H557 H 0.00691 0.49031 0.21011 0.0
C558 C 0.01645 0.81338 0.38636 0.0
C559 C 0.01969 0.85204 0.36631 0.0
C560 C 0.01485 0.83707 0.30326 0.0
C561 C 0.01152 0.8 0.32456 0.0
N562 N 0.00889 0.75544 0.38839 0.0
N563 N 0.02187 0.90321 0.30735 0.0
C564 C 0.01226 0.78882 0.36664 0.0
C565 C 0.01884 0.86467 0.32534 0.0
N566 N 0.01738 0.80007 0.42428 0.0
N567 N 0.01429 0.84459 0.26094 0.0
H568 H 0.02498 0.92255 0.32003 0.0
H569 H 0.02124 0.91723 0.28096 0.0
H570 H 0.0114 0.82561 0.24389 0.0
H571 H 0.01677 0.86761 0.24153 0.0
H572 H 0.01537 0.76982 0.43809 0.0
H573 H 0.02031 0.81824 0.44085 0.0
H574 H 0.00902 0.74822 0.42081 0.0
H575 H 0.00579 0.73679 0.37494 0.0
C576 C 0.02378 0.34461 0.29324 0.0
C577 C 0.02488 0.31463 0.31105 0.0
C578 C 0.02152 0.31707 0.38064 0.0
C579 C 0.0204 0.34665 0.36274 0.0
N580 N 0.01984 0.38392 0.30043 0.0
N581 N 0.0239 0.26473 0.36849 0.0
C582 C 0.02137 0.35926 0.31859 0.0
C583 C 0.02346 0.29839 0.35371 0.0
N584 N 0.02504 0.35899 0.25171 0.0
N585 N 0.02089 0.30818 0.42409 0.0
H586 H 0.02531 0.25017 0.35037 0.0
H587 H 0.02251 0.24841 0.39728 0.0
H588 H 0.01951 0.32144 0.4447 0.0
H589 H 0.02209 0.291 0.44058 0.0
H590 H 0.02493 0.38519 0.23846 0.0
H591 H 0.0263 0.34502 0.23043 0.0
H592 H 0.01997 0.39016 0.26734 0.0
H593 H 0.01819 0.39633 0.31815 0.0
C594 C 0.07163 0.92145 0.31591 0.0
C595 C 0.07602 0.95485 0.3085 0.0
C596 C 0.07826 0.90767 0.34354 0.0
C597 C 0.07399 0.88081 0.36074 0.0
N598 N 0.06678 0.8714 0.36933 0.0
N599 N 0.08363 0.98114 0.32511 0.0
C600 C 0.07071 0.89024 0.3487 0.0
C601 C 0.07939 0.94855 0.32504 0.0
N602 N 0.06834 0.91812 0.29065 0.0
N603 N 0.08119 0.89356 0.34216 0.0
H604 H 0.08468 1.01254 0.31465 0.0
H605 H 0.08606 0.97795 0.34043 0.0
H606 H 0.08036 0.86182 0.34961 0.0
H607 H 0.08422 0.91131 0.32723 0.0
H608 H 0.06514 0.89255 0.29368 0.0
H609 H 0.0689 0.93692 0.26297 0.0
H610 H 0.06445 0.88018 0.36279 0.0
H611 H 0.06606 0.85181 0.39652 0.0
C612 C 0.09161 0.2144 0.15945 0.0
C613 C 0.08796 0.20996 0.18296 0.0
C614 C 0.0892 0.27891 0.15173 0.0
C615 C 0.09302 0.28476 0.13058 0.0
N616 N 0.09856 0.26419 0.1275 0.0
N617 N 0.0841 0.24473 0.21095 0.0
C618 C 0.09444 0.25441 0.1385 0.0
C619 C 0.08702 0.24443 0.18207 0.0
N620 N 0.09227 0.1799 0.1546 0.0
N621 N 0.08751 0.30459 0.14136 0.0
H622 H 0.08257 0.22104 0.23473 0.0
H623 H 0.08357 0.2709 0.21447 0.0
H624 H 0.08889 0.3291 0.11828 0.0
H625 H 0.08449 0.2987 0.15252 0.0
H626 H 0.0946 0.18039 0.13361 0.0
H627 H 0.09023 0.14942 0.16786 0.0
H628 H 0.09987 0.24502 0.13656 0.0
H629 H 0.10084 0.29378 0.1141 0.0
C630 C 0.08265 0.69774 0.14943 0.0
C631 C 0.07949 0.653 0.14187 0.0
C632 C 0.0833 0.63308 0.19514 0.0
C633 C 0.08684 0.67659 0.19628 0.0
N634 N 0.09004 0.7502 0.16994 0.0
N635 N 0.07728 0.57755 0.15344 0.0
C636 C 0.08654 0.70901 0.17259 0.0
C637 C 0.07992 0.62048 0.16398 0.0
N638 N 0.08192 0.72991 0.13579 0.0
N639 N 0.08314 0.60378 0.22447 0.0
H640 H 0.07491 0.56671 0.12933 0.0
H641 H 0.07776 0.553 0.16539 0.0
H642 H 0.08548 0.61231 0.24864 0.0
H643 H 0.08045 0.5727 0.2279 0.0
H644 H 0.08386 0.76241 0.14503 0.0
H645 H 0.07913 0.72415 0.11939 0.0
H646 H 0.0902 0.77315 0.14814 0.0
H647 H 0.09294 0.76066 0.18659 0.0
C648 C 0.03804 0.15786 0.20949 0.0
C649 C 0.03939 0.2004 0.19469 0.0
C650 C 0.0433 0.18926 0.13368 0.0
C651 C 0.04157 0.14529 0.14594 0.0
N652 N 0.03674 0.08568 0.19233 0.0
N653 N 0.04261 0.2536 0.13763 0.0
C654 C 0.03876 0.12898 0.18282 0.0
C655 C 0.04186 0.21543 0.15555 0.0
N656 N 0.03627 0.14561 0.25005 0.0
N657 N 0.04627 0.20598 0.10065 0.0
H658 H 0.04146 0.27291 0.15119 0.0
H659 H 0.04395 0.26391 0.10687 0.0
H660 H 0.04723 0.18739 0.08234 0.0
H661 H 0.04802 0.23901 0.09356 0.0
H662 H 0.0357 0.11696 0.26471 0.0
H663 H 0.03575 0.16593 0.2709 0.0
H664 H 0.03425 0.07105 0.21516 0.0
H665 H 0.03737 0.06367 0.1759 0.0
C666 C 0.07973 0.1353 0.69447 0.0
C667 C 0.07894 0.14942 0.65426 0.0
C668 C 0.08608 0.21602 0.65904 0.0
C669 C 0.08685 0.20237 0.69979 0.0
N670 N 0.08404 0.15355 0.76045 0.0
N671 N 0.08089 0.20659 0.60292 0.0
C672 C 0.08356 0.16324 0.7187 0.0
C673 C 0.08197 0.19099 0.63818 0.0
N674 N 0.07685 0.09457 0.70891 0.0
N675 N 0.08937 0.25163 0.63898 0.0
H676 H 0.0779 0.18882 0.58711 0.0
H677 H 0.08274 0.23837 0.59193 0.0
H678 H 0.09247 0.27034 0.65226 0.0
H679 H 0.08918 0.26044 0.60728 0.0
H680 H 0.07747 0.0797 0.73461 0.0
H681 H 0.07388 0.07485 0.69369 0.0
H682 H 0.08158 0.12798 0.77784 0.0
H683 H 0.08679 0.17325 0.77918 0.0
C684 C 0.08765 0.61962 0.6549 0.0
C685 C 0.09222 0.64716 0.65778 0.0
C686 C 0.09115 0.70192 0.6969 0.0
C687 C 0.08657 0.67363 0.69569 0.0
N688 N 0.08068 0.59948 0.68758 0.0
N689 N 0.09819 0.70691 0.69602 0.0
C690 C 0.08489 0.63051 0.67916 0.0
C691 C 0.09392 0.68585 0.68352 0.0
N692 N 0.08588 0.58451 0.62734 0.0
N693 N 0.09288 0.74479 0.70801 0.0
H694 H 0.10027 0.695 0.68875 0.0
H695 H 0.09949 0.73305 0.71789 0.0
H696 H 0.09102 0.75886 0.71614 0.0
H697 H 0.09619 0.76737 0.70488 0.0
H698 H 0.08256 0.56638 0.62083 0.0
H699 H 0.08774 0.57579 0.60793 0.0
H700 H 0.07941 0.56677 0.67934 0.0
H701 H 0.07865 0.60543 0.70748 0.0
C702 C 0.03762 0.21645 0.65647 0.0
C703 C 0.04048 0.21224 0.68534 0.0
C704 C 0.04647 0.28369 0.66201 0.0
C705 C 0.04357 0.28865 0.6344 0.0
N706 N 0.0361 0.26466 0.61536 0.0
N707 N 0.04729 0.24683 0.72392 0.0
C708 C 0.03906 0.25652 0.63465 0.0
C709 C 0.0448 0.24752 0.69068 0.0
N710 N 0.0336 0.18164 0.64781 0.0
N711 N 0.05084 0.31215 0.65935 0.0
H712 H 0.04613 0.22146 0.74616 0.0
H713 H 0.05031 0.27327 0.7322 0.0
H714 H 0.0522 0.33845 0.63824 0.0
H715 H 0.05315 0.30744 0.67515 0.0
H716 H 0.03164 0.18112 0.62253 0.0
H717 H 0.03234 0.15196 0.66345 0.0
H718 H 0.03275 0.24459 0.61898 0.0
H719 H 0.03693 0.29352 0.59951 0.0
C720 C 0.02853 0.94066 0.83504 0.0
C721 C 0.02653 0.95888 0.80961 0.0
C722 C 0.01946 0.90239 0.83725 0.0
C723 C 0.02139 0.87878 0.85381 0.0
N724 N 0.02792 0.87464 0.86311 0.0
N725 N 0.01988 0.95322 0.78322 0.0
C726 C 0.02598 0.89784 0.85174 0.0
C727 C 0.02193 0.939 0.81011 0.0
N728 N 0.03287 0.96467 0.84428 0.0
N729 N 0.01529 0.89074 0.84854 0.0
H730 H 0.02153 0.97912 0.76201 0.0
H731 H 0.01652 0.93664 0.77917 0.0
H732 H 0.01348 0.86605 0.87063 0.0
H733 H 0.01386 0.90903 0.84028 0.0
H734 H 0.03441 0.95432 0.86578 0.0
H735 H 0.0348 0.99696 0.83475 0.0
H736 H 0.03121 0.88585 0.85776 0.0
H737 H 0.0262 0.84266 0.87384 0.0
C738 C 0.0122 0.32372 0.85718 0.0
C739 C 0.01201 0.30961 0.81339 0.0
C740 C 0.01945 0.32233 0.81968 0.0
C741 C 0.01977 0.33979 0.86241 0.0
N742 N 0.01663 0.36119 0.92046 0.0
N743 N 0.01556 0.30001 0.75092 0.0
C744 C 0.01619 0.34177 0.8807 0.0
C745 C 0.01566 0.30996 0.79416 0.0
N746 N 0.00851 0.31886 0.87653 0.0
N747 N 0.02276 0.31735 0.80343 0.0
H748 H 0.01278 0.28896 0.73184 0.0
H749 H 0.01828 0.30504 0.73327 0.0
H750 H 0.02574 0.32911 0.81915 0.0
H751 H 0.02251 0.29982 0.77516 0.0
H752 H 0.00827 0.32461 0.90942 0.0
H753 H 0.00554 0.30572 0.86024 0.0
H754 H 0.01435 0.36823 0.93361 0.0
H755 H 0.01943 0.37311 0.9393 0.0
C756 C 0.07183 0.78358 0.87005 0.0
C757 C 0.07586 0.80407 0.84711 0.0
C758 C 0.07604 0.87374 0.85502 0.0
C759 C 0.07242 0.85451 0.88403 0.0
N760 N 0.06738 0.79158 0.92522 0.0
N761 N 0.08218 0.87082 0.82454 0.0
C762 C 0.07045 0.80952 0.89324 0.0
C763 C 0.07807 0.84978 0.84143 0.0
N764 N 0.06917 0.73944 0.86789 0.0
N765 N 0.07742 0.91418 0.83863 0.0
H766 H 0.08385 0.85478 0.81537 0.0
H767 H 0.0841 0.90461 0.82384 0.0
H768 H 0.07589 0.93198 0.84545 0.0
H769 H 0.07976 0.92777 0.81418 0.0
H770 H 0.06603 0.72352 0.88081 0.0
H771 H 0.06985 0.71922 0.84873 0.0
H772 H 0.06618 0.75993 0.93615 0.0
H773 H 0.06636 0.80948 0.94386 0.0
C774 C 0.05879 0.57961 0.55046 0.0
C775 C 0.05447 0.5516 0.53574 0.0
C776 C 0.05523 0.60841 0.48541 0.0
C777 C 0.05962 0.63535 0.49828 0.0
N778 N 0.06592 0.6391 0.53211 0.0
N779 N 0.04917 0.53477 0.47904 0.0
C780 C 0.06151 0.6187 0.52752 0.0
C781 C 0.05287 0.56462 0.50008 0.0
N782 N 0.06025 0.57035 0.58744 0.0
N783 N 0.05322 0.62488 0.46083 0.0
H784 H 0.04748 0.5019 0.48708 0.0
H785 H 0.04808 0.54161 0.45047 0.0
H786 H 0.05478 0.65697 0.45027 0.0
H787 H 0.04989 0.60782 0.45449 0.0
H788 H 0.06322 0.59221 0.60186 0.0
H789 H 0.05835 0.54287 0.60609 0.0
H790 H 0.06747 0.62611 0.55006 0.0
H791 H 0.06806 0.66597 0.51375 0.0
C792 C 0.04954 0.97673 0.54837 0.0
C793 C 0.05366 0.9965 0.52739 0.0
C794 C 0.04999 0.9783 0.45656 0.0
C795 C 0.0459 0.96319 0.47721 0.0
N796 N 0.04197 0.95669 0.54389 0.0
N797 N 0.0578 0.02478 0.46148 0.0
C798 C 0.04571 0.96445 0.5235 0.0
C799 C 0.05388 1.00002 0.48147 0.0
N800 N 0.04929 0.96972 0.59213 0.0
N801 N 0.05016 0.97048 0.41316 0.0
H802 H 0.06068 0.04251 0.47882 0.0
H803 H 0.05812 0.03168 0.42839 0.0
H804 H 0.04737 0.95276 0.39425 0.0
H805 H 0.05302 0.97714 0.39719 0.0
H806 H 0.04635 0.95088 0.6084 0.0
H807 H 0.05203 0.98056 0.61173 0.0
H808 H 0.04179 0.96201 0.57705 0.0
H809 H 0.03913 0.94876 0.52729 0.0
C810 C 0.01275 0.53244 0.51245 0.0
C811 C 0.01008 0.50008 0.48155 0.0
C812 C 0.00389 0.50932 0.50299 0.0
C813 C 0.00655 0.54145 0.53412 0.0
N814 N 0.01313 0.57499 0.57645 0.0
N815 N 0.00281 0.44973 0.45582 0.0
C816 C 0.01086 0.55023 0.5413 0.0
C817 C 0.00556 0.48612 0.47942 0.0
N818 N 0.01713 0.54793 0.51278 0.0
N819 N 0.10044 0.50237 0.49403 0.0
H820 H 0.00385 0.43155 0.43792 0.0
H821 H 0.10005 0.43499 0.45729 0.0
H822 H 0.09898 0.51693 0.51143 0.0
H823 H 0.09861 0.4843 0.46731 0.0
H824 H 0.01932 0.57492 0.53103 0.0
H825 H 0.01863 0.53601 0.4921 0.0
H826 H 0.01612 0.57934 0.58609 0.0
H827 H 0.01179 0.58754 0.59865 0.0
C828 C 0.04783 0.46968 0.00325 0.0
C829 C 0.04549 0.48751 0.98307 0.0
C830 C 0.05075 0.5584 0.01483 0.0
C831 C 0.05358 0.54235 0.02582 0.0
N832 N 0.05491 0.48189 0.02234 0.0
N833 N 0.04512 0.55177 0.96622 0.0
C834 C 0.05214 0.49768 0.01818 0.0
C835 C 0.04703 0.53267 0.98821 0.0
N836 N 0.04589 0.42592 0.00951 0.0
N837 N 0.05155 0.59773 0.03081 0.0
H838 H 0.04248 0.53463 0.94555 0.0
H839 H 0.04643 0.58537 0.96545 0.0
H840 H 0.05407 0.6162 0.05257 0.0
H841 H 0.0494 0.60927 0.02673 0.0
H842 H 0.04733 0.4118 0.0273 0.0
H843 H 0.04264 0.40472 0.00206 0.0
H844 H 0.05407 0.45042 0.01269 0.0
H845 H 0.05817 0.501 0.03077 0.0
C846 C 0.05667 0.96464 0.01654 0.0
C847 C 0.05631 0.96143 0.97039 0.0
C848 C 0.05115 0.98847 0.97324 0.0
C849 C 0.05172 0.99421 0.01909 0.0
N850 N 0.05534 0.99259 0.08412 0.0
N851 N 0.05348 0.97292 0.90416 0.0
C852 C 0.05457 0.9836 0.04066 0.0
C853 C 0.05361 0.97399 0.94864 0.0
N854 N 0.05903 0.9496 0.03734 0.0
N855 N 0.04821 0.99667 0.95321 0.0
H856 H 0.05496 0.9594 0.88528 0.0
H857 H 0.05207 0.98687 0.88569 0.0
H858 H 0.0466 1.01051 0.96928 0.0
H859 H 0.04721 0.9882 0.9211 0.0
H860 H 0.05909 0.94683 0.07091 0.0
H861 H 0.06075 0.93723 0.02095 0.0
H862 H 0.05774 0.99049 0.10121 0.0
H863 H 0.05378 1.00532 0.10283 0.0
C864 C 0.01273 0.6304 0.02489 0.0
C865 C 0.01031 0.62812 0.98731 0.0
C866 C 0.00469 0.55431 0.00815 0.0
C867 C 0.00726 0.55472 0.04342 0.0
N868 N 0.01451 0.58929 0.07423 0.0
N869 N 0.00483 0.58053 0.93578 0.0
C870 C 0.01152 0.59162 0.04866 0.0
C871 C 0.00657 0.58762 0.97657 0.0
N872 N 0.01609 0.66922 0.03935 0.0
N873 N 0.10098 0.52363 0.00558 0.0
H874 H 0.00629 0.60305 0.91087 0.0
H875 H 0.1029 0.55035 0.92552 0.0
H876 H 0.09934 0.50091 0.02985 0.0
H877 H 0.09893 0.52445 0.98204 0.0
H878 H 0.01758 0.67264 0.06935 0.0
H879 H 0.01716 0.69857 0.02363 0.0
H880 H 0.01775 0.61416 0.07591 0.0
H881 H 0.01395 0.56074 0.08904 0.0
loop_
_geom_bond_atom_site_label_1
_geom_bond_atom_site_label_2
_geom_bond_distance
_geom_bond_site_symmetry_2
_ccdc_geom_bond_type
Mg0 O7 2.141 1_455 S
Mg0 O8 2.048 . S
Mg0 O9 2.048 . S
Mg0 O12 2.141 1_455 S
C1 O2 1.313 . S
C1 O8 1.195 . S
O2 C1 1.313 . S
C3 O4 1.245 . S
C3 O12 1.289 . S
O4 C3 1.245 . S
C5 O6 1.245 . S
C5 O7 1.289 . S
O6 C5 1.245 . S
O7 Mg0 2.141 1_655 S
O7 C5 1.289 . S
O8 Mg0 2.048 . S
O8 C1 1.195 . S
O9 Mg0 2.048 . S
O9 C10 1.195 . S
C10 O9 1.195 . S
C10 O11 1.313 . S
O11 C10 1.313 . S
O12 Mg0 2.141 1_655 S
O12 C3 1.289 . S
Mg13 O20 2.141 . S
Mg13 O21 2.048 . S
Mg13 O22 2.048 . S
Mg13 O25 2.141 . S
C14 O15 1.313 . S
C14 O21 1.195 . S
O15 C14 1.313 . S
C16 O17 1.245 . S
C16 O25 1.289 . S
O17 C16 1.245 . S
C18 O19 1.245 . S
C18 O20 1.289 . S
O19 C18 1.245 . S
O20 Mg13 2.141 . S
O20 C18 1.289 . S
O21 Mg13 2.048 . S
O21 C14 1.195 . S
O22 Mg13 2.048 . S
O22 C23 1.195 . S
C23 O22 1.195 . S
C23 O24 1.313 . S
O24 C23 1.313 . S
O25 Mg13 2.141 . S
O25 C16 1.289 . S
Mg26 O33 2.141 1_545 S
Mg26 O34 2.048 . S
Mg26 O35 2.048 . S
Mg26 O38 2.141 1_545 S
C27 O28 1.313 . S
C27 O34 1.195 . S
O28 C27 1.313 . S
C29 O30 1.245 . S
C29 O38 1.289 . S
O30 C29 1.245 . S
C31 O32 1.245 . S
C31 O33 1.289 . S
O32 C31 1.245 . S
O33 Mg26 2.141 1_565 S
O33 C31 1.289 . S
O34 Mg26 2.048 . S
O34 C27 1.195 . S
O35 Mg26 2.048 . S
O35 C36 1.195 . S
C36 O35 1.195 . S
C36 O37 1.313 . S
O37 C36 1.313 . S
O38 Mg26 2.141 1_565 S
O38 C29 1.289 . S
Mg39 O46 2.141 . S
Mg39 O47 2.048 1_455 S
Mg39 O48 2.048 1_455 S
Mg39 O51 2.141 . S
C40 O41 1.313 . S
C40 O47 1.195 . S
O41 C40 1.313 . S
C42 O43 1.245 . S
C42 O51 1.289 . S
O43 C42 1.245 . S
C44 O45 1.245 . S
C44 O46 1.289 . S
O45 C44 1.245 . S
O46 Mg39 2.141 . S
O46 C44 1.289 . S
O47 Mg39 2.048 1_655 S
O47 C40 1.195 . S
O48 Mg39 2.048 1_655 S
O48 C49 1.195 . S
C49 O48 1.195 . S
C49 O50 1.313 . S
O50 C49 1.313 . S
O51 Mg39 2.141 . S
O51 C42 1.289 . S
Mg52 O59 2.141 . S
Mg52 O60 2.048 . S
Mg52 O61 2.048 . S
Mg52 O64 2.141 . S
C53 O54 1.313 . S
C53 O60 1.195 . S
O54 C53 1.313 . S
C55 O56 1.245 . S
C55 O64 1.289 . S
O56 C55 1.245 . S
C57 O58 1.245 . S
C57 O59 1.289 . S
O58 C57 1.245 . S
O59 Mg52 2.141 . S
O59 C57 1.289 . S
O60 Mg52 2.048 . S
O60 C53 1.195 . S
O61 Mg52 2.048 . S
O61 C62 1.195 . S
C62 O61 1.195 . S
C62 O63 1.313 . S
O63 C62 1.313 . S
O64 Mg52 2.141 . S
O64 C55 1.289 . S
Mg65 O72 2.141 . S
Mg65 O73 2.048 1_545 S
Mg65 O74 2.048 1_545 S
Mg65 O77 2.141 . S
C66 O67 1.313 . S
C66 O73 1.195 . S
O67 C66 1.313 . S
C68 O69 1.245 . S
C68 O77 1.289 . S
O69 C68 1.245 . S
C70 O71 1.245 . S
C70 O72 1.289 . S
O71 C70 1.245 . S
O72 Mg65 2.141 . S
O72 C70 1.289 . S
O73 Mg65 2.048 1_565 S
O73 C66 1.195 . S
O74 Mg65 2.048 1_565 S
O74 C75 1.195 . S
C75 O74 1.195 . S
C75 O76 1.313 . S
O76 C75 1.313 . S
O77 Mg65 2.141 . S
O77 C68 1.289 . S
Mg78 O85 2.141 . S
Mg78 O86 2.048 . S
Mg78 O87 2.048 . S
Mg78 O90 2.141 . S
C79 O80 1.313 . S
C79 O86 1.195 . S
O80 C79 1.313 . S
C81 O82 1.245 . S
C81 O90 1.289 . S
O82 C81 1.245 . S
C83 O84 1.245 . S
C83 O85 1.289 . S
O84 C83 1.245 . S
O85 Mg78 2.141 . S
O85 C83 1.289 . S
O86 Mg78 2.048 . S
O86 C79 1.195 . S
O87 Mg78 2.048 . S
O87 C88 1.195 . S
C88 O87 1.195 . S
C88 O89 1.313 . S
O89 C88 1.313 . S
O90 Mg78 2.141 . S
O90 C81 1.289 . S
Mg91 O98 2.141 . S
Mg91 O99 2.048 . S
Mg91 O100 2.048 . S
Mg91 O103 2.141 . S
C92 O93 1.313 . S
C92 O99 1.195 . S
O93 C92 1.313 . S
C94 O95 1.245 . S
C94 O103 1.289 . S
O95 C94 1.245 . S
C96 O97 1.245 . S
C96 O98 1.289 . S
O97 C96 1.245 . S
O98 Mg91 2.141 . S
O98 C96 1.289 . S
O99 Mg91 2.048 . S
O99 C92 1.195 . S
O100 Mg91 2.048 . S
O100 C101 1.195 . S
C101 O100 1.195 . S
C101 O102 1.313 . S
O102 C101 1.313 . S
O103 Mg91 2.141 . S
O103 C94 1.289 . S
Mg104 O111 2.141 . S
Mg104 O112 2.048 . S
Mg104 O113 2.048 . S
Mg104 O116 2.141 . S
C105 O106 1.313 . S
C105 O112 1.195 . S
O106 C105 1.313 . S
C107 O108 1.245 . S
C107 O116 1.289 . S
O108 C107 1.245 . S
C109 O110 1.245 . S
C109 O111 1.289 . S
O110 C109 1.245 . S
O111 Mg104 2.141 . S
O111 C109 1.289 . S
O112 Mg104 2.048 . S
O112 C105 1.195 . S
O113 Mg104 2.048 . S
O113 C114 1.195 . S
C114 O113 1.195 . S
C114 O115 1.313 . S
O115 C114 1.313 . S
O116 Mg104 2.141 . S
O116 C107 1.289 . S
Mg117 O124 2.141 . S
Mg117 O125 2.048 . S
Mg117 O126 2.048 . S
Mg117 O129 2.141 . S
C118 O119 1.313 1_556 S
C118 O125 1.195 1_556 S
O119 C118 1.313 1_554 S
C120 O121 1.245 . S
C120 O129 1.289 . S
O121 C120 1.245 . S
C122 O123 1.245 . S
C122 O124 1.289 . S
O123 C122 1.245 . S
O124 Mg117 2.141 . S
O124 C122 1.289 . S
O125 Mg117 2.048 . S
O125 C118 1.195 1_554 S
O126 Mg117 2.048 . S
O126 C127 1.195 . S
C127 O126 1.195 . S
C127 O128 1.313 . S
O128 C127 1.313 . S
O129 Mg117 2.141 . S
O129 C120 1.289 . S
Mg130 O137 2.141 . S
Mg130 O138 2.048 . S
Mg130 O139 2.048 . S
Mg130 O142 2.141 . S
C131 O132 1.313 . S
C131 O138 1.195 . S
O132 C131 1.313 . S
C133 O134 1.245 . S
C133 O142 1.289 . S
O134 C133 1.245 . S
C135 O136 1.245 . S
C135 O137 1.289 . S
O136 C135 1.245 . S
O137 Mg130 2.141 . S
O137 C135 1.289 . S
O138 Mg130 2.048 . S
O138 C131 1.195 . S
O139 Mg130 2.048 . S
O139 C140 1.195 1_554 S
C140 O139 1.195 1_556 S
C140 O141 1.313 1_556 S
O141 C140 1.313 1_554 S
O142 Mg130 2.141 . S
O142 C133 1.289 . S
Mg143 O150 2.141 . S
Mg143 O151 2.048 . S
Mg143 O152 2.048 . S
Mg143 O155 2.141 . S
C144 O145 1.313 1_556 S
C144 O151 1.195 1_556 S
O145 C144 1.313 1_554 S
C146 O147 1.245 . S
C146 O155 1.289 . S
O147 C146 1.245 . S
C148 O149 1.245 . S
C148 O150 1.289 . S
O149 C148 1.245 . S
O150 Mg143 2.141 . S
O150 C148 1.289 . S
O151 Mg143 2.048 . S
O151 C144 1.195 1_554 S
O152 Mg143 2.048 . S
O152 C153 1.195 . S
C153 O152 1.195 . S
C153 O154 1.313 . S
O154 C153 1.313 . S
O155 Mg143 2.141 . S
O155 C146 1.289 . S
Mg156 O163 2.141 . S
Mg156 O164 2.048 . S
Mg156 O165 2.048 . S
Mg156 O168 2.141 . S
C157 O158 1.313 . S
C157 O164 1.195 . S
O158 C157 1.313 . S
C159 O160 1.245 1_554 S
C159 O168 1.289 1_554 S
O160 C159 1.245 1_556 S
C161 O162 1.245 . S
C161 O163 1.289 . S
O162 C161 1.245 . S
O163 Mg156 2.141 . S
O163 C161 1.289 . S
O164 Mg156 2.048 . S
O164 C157 1.195 . S
O165 Mg156 2.048 . S
O165 C166 1.195 . S
C166 O165 1.195 . S
C166 O167 1.313 . S
O167 C166 1.313 . S
O168 Mg156 2.141 . S
O168 C159 1.289 1_556 S
Mg169 O176 2.141 . S
Mg169 O177 2.048 . S
Mg169 O178 2.048 . S
Mg169 O181 2.141 . S
C170 O171 1.310 1_554 S
C170 O177 1.188 1_554 S
O171 C170 1.310 1_556 S
C172 O173 1.245 . S
C172 O181 1.289 . S
O173 C172 1.245 . S
C174 O175 1.245 . S
C174 O176 1.289 . S
O175 C174 1.245 . S
O176 Mg169 2.141 . S
O176 C174 1.289 . S
O177 Mg169 2.048 . S
O177 C170 1.188 1_556 S
O178 Mg169 2.048 . S
O178 C179 1.195 . S
C179 O178 1.195 . S
C179 O180 1.313 . S
O180 C179 1.313 . S
O181 Mg169 2.141 . S
O181 C172 1.289 . S
Mg182 O189 2.141 . S
Mg182 O190 2.048 . S
Mg182 O191 2.048 . S
Mg182 O194 2.141 . S
C183 O184 1.313 1_554 S
C183 O190 1.195 1_554 S
O184 C183 1.313 1_556 S
C185 O186 1.245 . S
C185 O194 1.289 . S
O186 C185 1.245 . S
C187 O188 1.245 . S
C187 O189 1.289 . S
O188 C187 1.245 . S
O189 Mg182 2.141 . S
O189 C187 1.289 . S
O190 Mg182 2.048 . S
O190 C183 1.195 1_556 S
O191 Mg182 2.048 . S
O191 C192 1.195 . S
C192 O191 1.195 . S
C192 O193 1.313 . S
O193 C192 1.313 . S
O194 Mg182 2.141 . S
O194 C185 1.289 . S
Mg195 O202 2.141 . S
Mg195 O203 2.048 . S
Mg195 O204 2.048 . S
Mg195 O207 2.141 . S
C196 O197 1.313 . S
C196 O203 1.195 . S
O197 C196 1.313 . S
C198 O199 1.245 . S
C198 O207 1.289 . S
O199 C198 1.245 . S
C200 O201 1.245 . S
C200 O202 1.289 . S
O201 C200 1.245 . S
O202 Mg195 2.141 . S
O202 C200 1.289 . S
O203 Mg195 2.048 . S
O203 C196 1.195 . S
O204 Mg195 2.048 . S
O204 C205 1.195 . S
C205 O204 1.195 . S
C205 O206 1.313 . S
O206 C205 1.313 . S
O207 Mg195 2.141 . S
O207 C198 1.289 . S
Mg208 O215 2.141 . S
Mg208 O216 2.048 . S
Mg208 O217 2.048 . S
Mg208 O220 2.141 . S
C209 O210 1.313 . S
C209 O216 1.195 . S
O210 C209 1.313 . S
C211 O212 1.245 . S
C211 O220 1.289 . S
O212 C211 1.245 . S
C213 O214 1.245 . S
C213 O215 1.289 . S
O214 C213 1.245 . S
O215 Mg208 2.141 . S
O215 C213 1.289 . S
O216 Mg208 2.048 . S
O216 C209 1.195 . S
O217 Mg208 2.048 . S
O217 C218 1.195 . S
C218 O217 1.195 . S
C218 O219 1.313 . S
O219 C218 1.313 . S
O220 Mg208 2.141 . S
O220 C211 1.289 . S
Mg221 O228 2.141 . S
Mg221 O229 2.048 . S
Mg221 O230 2.048 . S
Mg221 O233 2.141 . S
C222 O223 1.313 . S
C222 O229 1.195 . S
O223 C222 1.313 . S
C224 O225 1.245 . S
C224 O233 1.289 . S
O225 C224 1.245 . S
C226 O227 1.245 . S
C226 O228 1.289 . S
O227 C226 1.245 . S
O228 Mg221 2.141 . S
O228 C226 1.289 . S
O229 Mg221 2.048 . S
O229 C222 1.195 . S
O230 Mg221 2.048 . S
O230 C231 1.195 . S
C231 O230 1.195 . S
C231 O232 1.313 . S
O232 C231 1.313 . S
O233 Mg221 2.141 . S
O233 C224 1.289 . S
C234 C235 1.363 . S
C234 C240 1.379 . S
C234 N242 1.356 . S
C235 C234 1.363 . S
C235 C241 1.363 . S
C236 C237 1.363 . S
C236 C241 1.379 . S
C236 N243 1.375 . S
C237 C236 1.363 . S
C237 C240 1.363 . S
N238 C240 1.356 . S
N238 H250 0.984 . S
N238 H251 0.985 . S
N239 C241 1.356 . S
N239 H244 0.984 . S
N239 H245 0.985 . S
C240 C234 1.379 . S
C240 C237 1.363 . S
C240 N238 1.356 . S
C241 C235 1.363 . S
C241 C236 1.379 . S
C241 N239 1.356 . S
N242 C234 1.356 . S
N242 H248 0.984 . S
N242 H249 0.984 . S
N243 C236 1.375 . S
N243 H246 0.977 1_554 S
N243 H247 0.973 1_554 S
H244 N239 0.984 . S
H245 N239 0.985 . S
H246 N243 0.977 1_556 S
H247 N243 0.973 1_556 S
H248 N242 0.984 . S
H249 N242 0.984 . S
H250 N238 0.984 . S
H251 N238 0.985 . S
C252 C253 1.363 . S
C252 C258 1.379 . S
C252 N260 1.356 . S
C253 C252 1.363 . S
C253 C259 1.363 . S
C254 C255 1.363 . S
C254 C259 1.379 . S
C254 N261 1.356 . S
C255 C254 1.363 . S
C255 C258 1.363 . S
N256 C258 1.356 . S
N256 H268 0.984 . S
N256 H269 0.985 . S
N257 C259 1.356 . S
N257 H262 0.984 1_554 S
N257 H263 0.985 1_554 S
C258 C252 1.379 . S
C258 C255 1.363 . S
C258 N256 1.356 . S
C259 C253 1.363 . S
C259 C254 1.379 . S
C259 N257 1.356 . S
N260 C252 1.356 . S
N260 H266 0.984 . S
N260 H267 0.984 . S
N261 C254 1.356 . S
N261 H264 0.984 . S
N261 H265 0.985 . S
H262 N257 0.984 1_556 S
H263 N257 0.985 1_556 S
H264 N261 0.984 . S
H265 N261 0.985 . S
H266 N260 0.984 . S
H267 N260 0.984 . S
H268 N256 0.984 . S
H269 N256 0.985 . S
C270 C271 1.363 . S
C270 C276 1.379 . S
C270 N278 1.356 . S
C271 C270 1.363 . S
C271 C277 1.363 . S
C272 C273 1.363 . S
C272 C277 1.379 . S
C272 N279 1.356 . S
C273 C272 1.363 . S
C273 C276 1.363 . S
N274 C276 1.356 . S
N274 H286 0.984 . S
N274 H287 0.985 . S
N275 C277 1.356 1_545 S
N275 H280 0.984 . S
N275 H281 0.985 . S
C276 C270 1.379 . S
C276 C273 1.363 . S
C276 N274 1.356 . S
C277 C271 1.363 . S
C277 C272 1.379 . S
C277 N275 1.356 1_565 S
N278 C270 1.356 . S
N278 H284 0.984 . S
N278 H285 0.984 . S
N279 C272 1.356 . S
N279 H282 0.984 . S
N279 H283 0.985 . S
H280 N275 0.984 . S
H281 N275 0.985 . S
H282 N279 0.984 . S
H283 N279 0.985 . S
H284 N278 0.984 . S
H285 N278 0.984 . S
H286 N274 0.984 . S
H287 N274 0.985 . S
C288 C289 1.363 . S
C288 C294 1.379 . S
C288 N296 1.356 . S
C289 C288 1.363 . S
C289 C295 1.363 . S
C290 C291 1.363 . S
C290 C295 1.379 . S
C290 N297 1.356 . S
C291 C290 1.363 . S
C291 C294 1.363 . S
N292 C294 1.356 . S
N292 H304 0.984 . S
N292 H305 0.985 . S
N293 C295 1.356 . S
N293 H298 0.984 . S
N293 H299 0.985 . S
C294 C288 1.379 . S
C294 C291 1.363 . S
C294 N292 1.356 . S
C295 C289 1.363 . S
C295 C290 1.379 . S
C295 N293 1.356 . S
N296 C288 1.356 . S
N296 H302 0.984 . S
N296 H303 0.984 . S
N297 C290 1.356 . S
N297 H300 0.984 . S
N297 H301 0.985 . S
H298 N293 0.984 . S
H299 N293 0.985 . S
H300 N297 0.984 . S
H301 N297 0.985 . S
H302 N296 0.984 . S
H303 N296 0.984 . S
H304 N292 0.984 . S
H305 N292 0.985 . S
C306 C307 1.363 . S
C306 C312 1.379 . S
C306 N314 1.356 . S
C307 C306 1.363 . S
C307 C313 1.363 . S
C308 C309 1.363 . S
C308 C313 1.379 . S
C308 N315 1.356 . S
C309 C308 1.363 . S
C309 C312 1.363 . S
N310 C312 1.356 . S
N310 H322 0.984 . S
N310 H323 0.985 . S
N311 C313 1.356 . S
N311 H316 0.984 . S
N311 H317 0.985 . S
C312 C306 1.379 . S
C312 C309 1.363 . S
C312 N310 1.356 . S
C313 C307 1.363 . S
C313 C308 1.379 . S
C313 N311 1.356 . S
N314 C306 1.356 . S
N314 H320 0.984 . S
N314 H321 0.984 . S
N315 C308 1.356 . S
N315 H318 0.984 1_655 S
N315 H319 0.985 1_655 S
H316 N311 0.984 . S
H317 N311 0.985 . S
H318 N315 0.984 1_455 S
H319 N315 0.985 1_455 S
H320 N314 0.984 . S
H321 N314 0.984 . S
H322 N310 0.984 . S
H323 N310 0.985 . S
C324 C325 1.363 . S
C324 C330 1.379 . S
C324 N332 1.356 . S
C325 C324 1.363 . S
C325 C331 1.363 . S
C326 C327 1.363 . S
C326 C331 1.379 . S
C326 N333 1.356 . S
C327 C326 1.363 . S
C327 C330 1.363 . S
N328 C330 1.356 . S
N328 H340 0.984 . S
N328 H341 0.985 . S
N329 C331 1.356 . S
N329 H334 0.984 . S
N329 H335 0.985 . S
C330 C324 1.379 . S
C330 C327 1.363 . S
C330 N328 1.356 . S
C331 C325 1.363 . S
C331 C326 1.379 . S
C331 N329 1.356 . S
N332 C324 1.356 . S
N332 H338 0.984 . S
N332 H339 0.984 . S
N333 C326 1.356 . S
N333 H336 0.984 . S
N333 H337 0.985 . S
H334 N329 0.984 . S
H335 N329 0.985 . S
H336 N333 0.984 . S
H337 N333 0.985 . S
H338 N332 0.984 . S
H339 N332 0.984 . S
H340 N328 0.984 . S
H341 N328 0.985 . S
C342 C343 1.363 . S
C342 C348 1.379 . S
C342 N350 1.356 . S
C343 C342 1.363 . S
C343 C349 1.363 . S
C344 C345 1.363 . S
C344 C349 1.379 . S
C344 N351 1.356 . S
C345 C344 1.363 . S
C345 C348 1.363 . S
N346 C348 1.356 . S
N346 H358 0.984 . S
N346 H359 0.985 . S
N347 C349 1.356 1_455 S
N347 H352 0.984 . S
N347 H353 0.985 . S
C348 C342 1.379 . S
C348 C345 1.363 . S
C348 N346 1.356 . S
C349 C343 1.363 . S
C349 C344 1.379 . S
C349 N347 1.356 1_655 S
N350 C342 1.356 . S
N350 H356 0.984 . S
N350 H357 0.984 . S
N351 C344 1.356 . S
N351 H354 0.984 . S
N351 H355 0.985 1_655 S
H352 N347 0.984 . S
H353 N347 0.985 . S
H354 N351 0.984 . S
H355 N351 0.985 1_455 S
H356 N350 0.984 . S
H357 N350 0.984 . S
H358 N346 0.984 . S
H359 N346 0.985 . S
C360 C361 1.363 . S
C360 C366 1.379 . S
C360 N368 1.356 . S
C361 C360 1.363 . S
C361 C367 1.363 . S
C362 C363 1.363 . S
C362 C367 1.379 . S
C362 N369 1.356 . S
C363 C362 1.363 . S
C363 C366 1.363 . S
N364 C366 1.356 . S
N364 H376 0.984 . S
N364 H377 0.985 . S
N365 C367 1.356 . S
N365 H370 0.984 . S
N365 H371 0.985 . S
C366 C360 1.379 . S
C366 C363 1.363 . S
C366 N364 1.356 . S
C367 C361 1.363 . S
C367 C362 1.379 . S
C367 N365 1.356 . S
N368 C360 1.356 . S
N368 H374 0.984 1_556 S
N368 H375 0.984 1_556 S
N369 C362 1.356 . S
N369 H372 0.984 . S
N369 H373 0.985 . S
H370 N365 0.984 . S
H371 N365 0.985 . S
H372 N369 0.984 . S
H373 N369 0.985 . S
H374 N368 0.984 1_554 S
H375 N368 0.984 1_554 S
H376 N364 0.984 . S
H377 N364 0.985 . S
C378 C379 1.363 . S
C378 C384 1.379 . S
C378 N386 1.356 . S
C379 C378 1.363 . S
C379 C385 1.363 . S
C380 C381 1.363 . S
C380 C385 1.379 . S
C380 N387 1.356 . S
C381 C380 1.363 . S
C381 C384 1.363 . S
N382 C384 1.356 . S
N382 H394 0.984 . S
N382 H395 0.985 . S
N383 C385 1.356 . S
N383 H388 0.984 . S
N383 H389 0.985 . S
C384 C378 1.379 . S
C384 C381 1.363 . S
C384 N382 1.356 . S
C385 C379 1.363 . S
C385 C380 1.379 . S
C385 N383 1.356 . S
N386 C378 1.356 . S
N386 H392 0.984 . S
N386 H393 0.984 . S
N387 C380 1.356 . S
N387 H390 0.984 . S
N387 H391 0.985 1_545 S
H388 N383 0.984 . S
H389 N383 0.985 . S
H390 N387 0.984 . S
H391 N387 0.985 1_565 S
H392 N386 0.984 . S
H393 N386 0.984 . S
H394 N382 0.984 . S
H395 N382 0.985 . S
C396 C397 1.363 . S
C396 C402 1.379 . S
C396 N404 1.356 . S
C397 C396 1.363 . S
C397 C403 1.363 . S
C398 C399 1.363 . S
C398 C403 1.379 . S
C398 N405 1.356 . S
C399 C398 1.363 . S
C399 C402 1.363 . S
N400 C402 1.356 . S
N400 H412 0.984 . S
N400 H413 0.985 . S
N401 C403 1.356 . S
N401 H406 0.984 . S
N401 H407 0.985 . S
C402 C396 1.379 . S
C402 C399 1.363 . S
C402 N400 1.356 . S
C403 C397 1.363 . S
C403 C398 1.379 . S
C403 N401 1.356 . S
N404 C396 1.356 . S
N404 H410 0.984 . S
N404 H411 0.984 . S
N405 C398 1.356 . S
N405 H408 0.984 . S
N405 H409 0.985 . S
H406 N401 0.984 . S
H407 N401 0.985 . S
H408 N405 0.984 . S
H409 N405 0.985 . S
H410 N404 0.984 . S
H411 N404 0.984 . S
H412 N400 0.984 . S
H413 N400 0.985 . S
C414 C415 1.363 . S
C414 C420 1.379 . S
C414 N422 1.356 . S
C415 C414 1.363 . S
C415 C421 1.363 . S
C416 C417 1.363 . S
C416 C421 1.379 . S
C416 N423 1.356 . S
C417 C416 1.363 . S
C417 C420 1.363 . S
N418 C420 1.356 . S
N418 H430 0.984 . S
N418 H431 0.985 . S
N419 C421 1.356 . S
N419 H424 0.984 . S
N419 H425 0.985 . S
C420 C414 1.379 . S
C420 C417 1.363 . S
C420 N418 1.356 . S
C421 C415 1.363 . S
C421 C416 1.379 . S
C421 N419 1.356 . S
N422 C414 1.356 . S
N422 H428 0.984 . S
N422 H429 0.984 . S
N423 C416 1.356 . S
N423 H426 0.984 . S
N423 H427 0.985 . S
H424 N419 0.984 . S
H425 N419 0.985 . S
H426 N423 0.984 . S
H427 N423 0.985 . S
H428 N422 0.984 . S
H429 N422 0.984 . S
H430 N418 0.984 . S
H431 N418 0.985 . S
C432 C433 1.363 . S
C432 C438 1.379 . S
C432 N440 1.356 . S
C433 C432 1.363 . S
C433 C439 1.363 . S
C434 C435 1.363 . S
C434 C439 1.379 . S
C434 N441 1.356 . S
C435 C434 1.363 . S
C435 C438 1.363 . S
N436 C438 1.356 . S
N436 H448 0.984 . S
N436 H449 0.985 . S
N437 C439 1.356 . S
N437 H442 0.984 . S
N437 H443 0.985 . S
C438 C432 1.379 . S
C438 C435 1.363 . S
C438 N436 1.356 . S
C439 C433 1.363 . S
C439 C434 1.379 . S
C439 N437 1.356 . S
N440 C432 1.356 . S
N440 H446 0.984 . S
N440 H447 0.984 . S
N441 C434 1.356 . S
N441 H444 0.984 . S
N441 H445 0.985 . S
H442 N437 0.984 . S
H443 N437 0.985 . S
H444 N441 0.984 . S
H445 N441 0.985 . S
H446 N440 0.984 . S
H447 N440 0.984 . S
H448 N436 0.984 . S
H449 N436 0.985 . S
C450 C451 1.363 . S
C450 C456 1.379 . S
C450 N458 1.356 . S
C451 C450 1.363 . S
C451 C457 1.363 . S
C452 C453 1.363 . S
C452 C457 1.379 . S
C452 N459 1.356 . S
C453 C452 1.363 . S
C453 C456 1.363 . S
N454 C456 1.356 . S
N454 H466 0.984 . S
N454 H467 0.985 . S
N455 C457 1.356 . S
N455 H460 0.984 . S
N455 H461 0.985 . S
C456 C450 1.379 . S
C456 C453 1.363 . S
C456 N454 1.356 . S
C457 C451 1.363 . S
C457 C452 1.379 . S
C457 N455 1.356 . S
N458 C450 1.356 . S
N458 H464 0.984 . S
N458 H465 0.984 . S
N459 C452 1.356 . S
N459 H462 0.984 . S
N459 H463 0.985 . S
H460 N455 0.984 . S
H461 N455 0.985 . S
H462 N459 0.984 . S
H463 N459 0.985 . S
H464 N458 0.984 . S
H465 N458 0.984 . S
H466 N454 0.984 . S
H467 N454 0.985 . S
C468 C469 1.363 . S
C468 C474 1.379 1_545 S
C468 N476 1.356 . S
C469 C468 1.363 . S
C469 C475 1.363 . S
C470 C471 1.363 1_545 S
C470 C475 1.379 . S
C470 N477 1.356 . S
C471 C470 1.363 1_565 S
C471 C474 1.363 . S
N472 C474 1.356 . S
N472 H484 0.984 . S
N472 H485 0.985 . S
N473 C475 1.356 . S
N473 H478 0.984 . S
N473 H479 0.985 . S
C474 C468 1.379 1_565 S
C474 C471 1.363 . S
C474 N472 1.356 . S
C475 C469 1.363 . S
C475 C470 1.379 . S
C475 N473 1.356 . S
N476 C468 1.356 . S
N476 H482 0.984 1_545 S
N476 H483 0.984 . S
N477 C470 1.356 . S
N477 H480 0.984 1_545 S
N477 H481 0.985 . S
H478 N473 0.984 . S
H479 N473 0.985 . S
H480 N477 0.984 1_565 S
H481 N477 0.985 . S
H482 N476 0.984 1_565 S
H483 N476 0.984 . S
H484 N472 0.984 . S
H485 N472 0.985 . S
C486 C487 1.363 . S
C486 C492 1.379 1_455 S
C486 N494 1.356 . S
C487 C486 1.363 . S
C487 C493 1.363 . S
C488 C489 1.363 1_455 S
C488 C493 1.379 . S
C488 N495 1.356 1_455 S
C489 C488 1.363 1_655 S
C489 C492 1.363 . S
N490 C492 1.356 . S
N490 H502 0.984 . S
N490 H503 0.985 . S
N491 C493 1.356 . S
N491 H496 0.984 . S
N491 H497 0.985 . S
C492 C486 1.379 1_655 S
C492 C489 1.363 . S
C492 N490 1.356 . S
C493 C487 1.363 . S
C493 C488 1.379 . S
C493 N491 1.356 . S
N494 C486 1.356 . S
N494 H500 0.984 . S
N494 H501 0.984 . S
N495 C488 1.356 1_655 S
N495 H498 0.984 . S
N495 H499 0.985 . S
H496 N491 0.984 . S
H497 N491 0.985 . S
H498 N495 0.984 . S
H499 N495 0.985 . S
H500 N494 0.984 . S
H501 N494 0.984 . S
H502 N490 0.984 . S
H503 N490 0.985 . S
C504 C505 1.363 . S
C504 C510 1.379 . S
C504 N512 1.356 . S
C505 C504 1.363 . S
C505 C511 1.363 . S
C506 C507 1.363 . S
C506 C511 1.379 . S
C506 N513 1.356 . S
C507 C506 1.363 . S
C507 C510 1.363 . S
N508 C510 1.356 . S
N508 H520 0.984 . S
N508 H521 0.985 . S
N509 C511 1.356 . S
N509 H514 0.984 . S
N509 H515 0.985 . S
C510 C504 1.379 . S
C510 C507 1.363 . S
C510 N508 1.356 . S
C511 C505 1.363 . S
C511 C506 1.379 . S
C511 N509 1.356 . S
N512 C504 1.356 . S
N512 H518 0.984 . S
N512 H519 0.984 . S
N513 C506 1.356 . S
N513 H516 0.984 . S
N513 H517 0.985 . S
H514 N509 0.984 . S
H515 N509 0.985 . S
H516 N513 0.984 . S
H517 N513 0.985 . S
H518 N512 0.984 . S
H519 N512 0.984 . S
H520 N508 0.984 . S
H521 N508 0.985 . S
C522 C523 1.363 . S
C522 C528 1.379 . S
C522 N530 1.356 . S
C523 C522 1.363 . S
C523 C529 1.363 . S
C524 C525 1.363 . S
C524 C529 1.379 1_565 S
C524 N531 1.356 . S
C525 C524 1.363 . S
C525 C528 1.363 1_565 S
N526 C528 1.356 1_565 S
N526 H538 0.984 1_565 S
N526 H539 0.985 . S
N527 C529 1.356 . S
N527 H532 0.984 . S
N527 H533 0.985 . S
C528 C522 1.379 . S
C528 C525 1.363 1_545 S
C528 N526 1.356 1_545 S
C529 C523 1.363 . S
C529 C524 1.379 1_545 S
C529 N527 1.356 . S
N530 C522 1.356 . S
N530 H536 0.984 . S
N530 H537 0.984 . S
N531 C524 1.356 . S
N531 H534 0.984 . S
N531 H535 0.985 . S
H532 N527 0.984 . S
H533 N527 0.985 . S
H534 N531 0.984 . S
H535 N531 0.985 . S
H536 N530 0.984 . S
H537 N530 0.984 . S
H538 N526 0.984 1_545 S
H539 N526 0.985 . S
C540 C541 1.363 . S
C540 C546 1.379 . S
C540 N548 1.356 . S
C541 C540 1.363 . S
C541 C547 1.363 . S
C542 C543 1.363 . S
C542 C547 1.379 1_655 S
C542 N549 1.356 . S
C543 C542 1.363 . S
C543 C546 1.363 1_655 S
N544 C546 1.356 1_655 S
N544 H556 0.984 . S
N544 H557 0.985 . S
N545 C547 1.356 . S
N545 H550 0.984 . S
N545 H551 0.985 . S
C546 C540 1.379 . S
C546 C543 1.363 1_455 S
C546 N544 1.356 1_455 S
C547 C541 1.363 . S
C547 C542 1.379 1_455 S
C547 N545 1.356 . S
N548 C540 1.356 . S
N548 H554 0.984 . S
N548 H555 0.984 . S
N549 C542 1.356 . S
N549 H552 0.984 . S
N549 H553 0.985 . S
H550 N545 0.984 . S
H551 N545 0.985 . S
H552 N549 0.984 . S
H553 N549 0.985 . S
H554 N548 0.984 . S
H555 N548 0.984 . S
H556 N544 0.984 . S
H557 N544 0.985 . S
C558 C559 1.363 . S
C558 C564 1.379 . S
C558 N566 1.356 . S
C559 C558 1.363 . S
C559 C565 1.363 . S
C560 C561 1.363 . S
C560 C565 1.379 . S
C560 N567 1.356 . S
C561 C560 1.363 . S
C561 C564 1.363 . S
N562 C564 1.356 . S
N562 H574 0.984 . S
N562 H575 0.985 . S
N563 C565 1.356 . S
N563 H568 0.984 . S
N563 H569 0.985 . S
C564 C558 1.379 . S
C564 C561 1.363 . S
C564 N562 1.356 . S
C565 C559 1.363 . S
C565 C560 1.379 . S
C565 N563 1.356 . S
N566 C558 1.356 . S
N566 H572 0.984 . S
N566 H573 0.984 . S
N567 C560 1.356 . S
N567 H570 0.984 . S
N567 H571 0.985 . S
H568 N563 0.984 . S
H569 N563 0.985 . S
H570 N567 0.984 . S
H571 N567 0.985 . S
H572 N566 0.984 . S
H573 N566 0.984 . S
H574 N562 0.984 . S
H575 N562 0.985 . S
C576 C577 1.363 . S
C576 C582 1.379 . S
C576 N584 1.356 . S
C577 C576 1.363 . S
C577 C583 1.363 . S
C578 C579 1.363 . S
C578 C583 1.379 . S
C578 N585 1.356 . S
C579 C578 1.363 . S
C579 C582 1.363 . S
N580 C582 1.356 . S
N580 H592 0.984 . S
N580 H593 0.985 . S
N581 C583 1.356 . S
N581 H586 0.984 . S
N581 H587 0.985 . S
C582 C576 1.379 . S
C582 C579 1.363 . S
C582 N580 1.356 . S
C583 C577 1.363 . S
C583 C578 1.379 . S
C583 N581 1.356 . S
N584 C576 1.356 . S
N584 H590 0.984 . S
N584 H591 0.984 . S
N585 C578 1.356 . S
N585 H588 0.984 . S
N585 H589 0.985 . S
H586 N581 0.984 . S
H587 N581 0.985 . S
H588 N585 0.984 . S
H589 N585 0.985 . S
H590 N584 0.984 . S
H591 N584 0.984 . S
H592 N580 0.984 . S
H593 N580 0.985 . S
C594 C595 1.363 . S
C594 C600 1.379 . S
C594 N602 1.356 . S
C595 C594 1.363 . S
C595 C601 1.363 . S
C596 C597 1.363 . S
C596 C601 1.379 . S
C596 N603 1.356 . S
C597 C596 1.363 . S
C597 C600 1.363 . S
N598 C600 1.356 . S
N598 H610 0.984 . S
N598 H611 0.985 . S
N599 C601 1.356 . S
N599 H604 0.984 . S
N599 H605 0.985 . S
C600 C594 1.379 . S
C600 C597 1.363 . S
C600 N598 1.356 . S
C601 C595 1.363 . S
C601 C596 1.379 . S
C601 N599 1.356 . S
N602 C594 1.356 . S
N602 H608 0.984 . S
N602 H609 0.984 . S
N603 C596 1.356 . S
N603 H606 0.984 . S
N603 H607 0.985 . S
H604 N599 0.984 . S
H605 N599 0.985 . S
H606 N603 0.984 . S
H607 N603 0.985 . S
H608 N602 0.984 . S
H609 N602 0.984 . S
H610 N598 0.984 . S
H611 N598 0.985 . S
C612 C613 1.363 . S
C612 C618 1.379 . S
C612 N620 1.356 . S
C613 C612 1.363 . S
C613 C619 1.363 . S
C614 C615 1.363 . S
C614 C619 1.379 . S
C614 N621 1.356 . S
C615 C614 1.363 . S
C615 C618 1.363 . S
N616 C618 1.356 . S
N616 H628 0.984 . S
N616 H629 0.985 . S
N617 C619 1.356 . S
N617 H622 0.984 . S
N617 H623 0.985 . S
C618 C612 1.379 . S
C618 C615 1.363 . S
C618 N616 1.356 . S
C619 C613 1.363 . S
C619 C614 1.379 . S
C619 N617 1.356 . S
N620 C612 1.356 . S
N620 H626 0.984 . S
N620 H627 0.984 . S
N621 C614 1.356 . S
N621 H624 0.984 . S
N621 H625 0.985 . S
H622 N617 0.984 . S
H623 N617 0.985 . S
H624 N621 0.984 . S
H625 N621 0.985 . S
H626 N620 0.984 . S
H627 N620 0.984 . S
H628 N616 0.984 . S
H629 N616 0.985 . S
C630 C631 1.363 . S
C630 C636 1.379 . S
C630 N638 1.356 . S
C631 C630 1.363 . S
C631 C637 1.363 . S
C632 C633 1.363 . S
C632 C637 1.379 . S
C632 N639 1.356 . S
C633 C632 1.363 . S
C633 C636 1.363 . S
N634 C636 1.356 . S
N634 H646 0.984 . S
N634 H647 0.985 . S
N635 C637 1.356 . S
N635 H640 0.984 . S
N635 H641 0.985 . S
C636 C630 1.379 . S
C636 C633 1.363 . S
C636 N634 1.356 . S
C637 C631 1.363 . S
C637 C632 1.379 . S
C637 N635 1.356 . S
N638 C630 1.356 . S
N638 H644 0.984 . S
N638 H645 0.984 . S
N639 C632 1.356 . S
N639 H642 0.984 . S
N639 H643 0.985 . S
H640 N635 0.984 . S
H641 N635 0.985 . S
H642 N639 0.984 . S
H643 N639 0.985 . S
H644 N638 0.984 . S
H645 N638 0.984 . S
H646 N634 0.984 . S
H647 N634 0.985 . S
C648 C649 1.363 . S
C648 C654 1.379 . S
C648 N656 1.356 . S
C649 C648 1.363 . S
C649 C655 1.363 . S
C650 C651 1.363 . S
C650 C655 1.379 . S
C650 N657 1.356 . S
C651 C650 1.363 . S
C651 C654 1.363 . S
N652 C654 1.356 . S
N652 H664 0.984 . S
N652 H665 0.985 . S
N653 C655 1.356 . S
N653 H658 0.984 . S
N653 H659 0.985 . S
C654 C648 1.379 . S
C654 C651 1.363 . S
C654 N652 1.356 . S
C655 C649 1.363 . S
C655 C650 1.379 . S
C655 N653 1.356 . S
N656 C648 1.356 . S
N656 H662 0.984 . S
N656 H663 0.984 . S
N657 C650 1.356 . S
N657 H660 0.984 . S
N657 H661 0.985 . S
H658 N653 0.984 . S
H659 N653 0.985 . S
H660 N657 0.984 . S
H661 N657 0.985 . S
H662 N656 0.984 . S
H663 N656 0.984 . S
H664 N652 0.984 . S
H665 N652 0.985 . S
C666 C667 1.363 . S
C666 C672 1.379 . S
C666 N674 1.356 . S
C667 C666 1.363 . S
C667 C673 1.363 . S
C668 C669 1.363 . S
C668 C673 1.379 . S
C668 N675 1.356 . S
C669 C668 1.363 . S
C669 C672 1.363 . S
N670 C672 1.356 . S
N670 H682 0.984 . S
N670 H683 0.985 . S
N671 C673 1.356 . S
N671 H676 0.984 . S
N671 H677 0.985 . S
C672 C666 1.379 . S
C672 C669 1.363 . S
C672 N670 1.356 . S
C673 C667 1.363 . S
C673 C668 1.379 . S
C673 N671 1.356 . S
N674 C666 1.356 . S
N674 H680 0.984 . S
N674 H681 0.984 . S
N675 C668 1.356 . S
N675 H678 0.984 . S
N675 H679 0.985 . S
H676 N671 0.984 . S
H677 N671 0.985 . S
H678 N675 0.984 . S
H679 N675 0.985 . S
H680 N674 0.984 . S
H681 N674 0.984 . S
H682 N670 0.984 . S
H683 N670 0.985 . S
C684 C685 1.363 . S
C684 C690 1.379 . S
C684 N692 1.356 . S
C685 C684 1.363 . S
C685 C691 1.363 . S
C686 C687 1.363 . S
C686 C691 1.379 . S
C686 N693 1.356 . S
C687 C686 1.363 . S
C687 C690 1.363 . S
N688 C690 1.356 . S
N688 H700 0.984 . S
N688 H701 0.985 . S
N689 C691 1.356 . S
N689 H694 0.984 . S
N689 H695 0.985 . S
C690 C684 1.379 . S
C690 C687 1.363 . S
C690 N688 1.356 . S
C691 C685 1.363 . S
C691 C686 1.379 . S
C691 N689 1.356 . S
N692 C684 1.356 . S
N692 H698 0.984 . S
N692 H699 0.984 . S
N693 C686 1.356 . S
N693 H696 0.984 . S
N693 H697 0.985 . S
H694 N689 0.984 . S
H695 N689 0.985 . S
H696 N693 0.984 . S
H697 N693 0.985 . S
H698 N692 0.984 . S
H699 N692 0.984 . S
H700 N688 0.984 . S
H701 N688 0.985 . S
C702 C703 1.363 . S
C702 C708 1.379 . S
C702 N710 1.356 . S
C703 C702 1.363 . S
C703 C709 1.363 . S
C704 C705 1.363 . S
C704 C709 1.379 . S
C704 N711 1.356 . S
C705 C704 1.363 . S
C705 C708 1.363 . S
N706 C708 1.356 . S
N706 H718 0.984 . S
N706 H719 0.985 . S
N707 C709 1.356 . S
N707 H712 0.984 . S
N707 H713 0.985 . S
C708 C702 1.379 . S
C708 C705 1.363 . S
C708 N706 1.356 . S
C709 C703 1.363 . S
C709 C704 1.379 . S
C709 N707 1.356 . S
N710 C702 1.356 . S
N710 H716 0.984 . S
N710 H717 0.984 . S
N711 C704 1.356 . S
N711 H714 0.984 . S
N711 H715 0.985 . S
H712 N707 0.984 . S
H713 N707 0.985 . S
H714 N711 0.984 . S
H715 N711 0.985 . S
H716 N710 0.984 . S
H717 N710 0.984 . S
H718 N706 0.984 . S
H719 N706 0.985 . S
C720 C721 1.363 . S
C720 C726 1.379 . S
C720 N728 1.356 . S
C721 C720 1.363 . S
C721 C727 1.363 . S
C722 C723 1.363 . S
C722 C727 1.379 . S
C722 N729 1.356 . S
C723 C722 1.363 . S
C723 C726 1.363 . S
N724 C726 1.356 . S
N724 H736 0.984 . S
N724 H737 0.985 . S
N725 C727 1.356 . S
N725 H730 0.984 . S
N725 H731 0.985 . S
C726 C720 1.379 . S
C726 C723 1.363 . S
C726 N724 1.356 . S
C727 C721 1.363 . S
C727 C722 1.379 . S
C727 N725 1.356 . S
N728 C720 1.356 . S
N728 H734 0.984 . S
N728 H735 0.984 . S
N729 C722 1.356 . S
N729 H732 0.984 . S
N729 H733 0.985 . S
H730 N725 0.984 . S
H731 N725 0.985 . S
H732 N729 0.984 . S
H733 N729 0.985 . S
H734 N728 0.984 . S
H735 N728 0.984 . S
H736 N724 0.984 . S
H737 N724 0.985 . S
C738 C739 1.363 . S
C738 C744 1.379 . S
C738 N746 1.356 . S
C739 C738 1.363 . S
C739 C745 1.363 . S
C740 C741 1.363 . S
C740 C745 1.379 . S
C740 N747 1.356 . S
C741 C740 1.363 . S
C741 C744 1.363 . S
N742 C744 1.356 . S
N742 H754 0.984 . S
N742 H755 0.985 . S
N743 C745 1.356 . S
N743 H748 0.984 . S
N743 H749 0.985 . S
C744 C738 1.379 . S
C744 C741 1.363 . S
C744 N742 1.356 . S
C745 C739 1.363 . S
C745 C740 1.379 . S
C745 N743 1.356 . S
N746 C738 1.356 . S
N746 H752 0.984 . S
N746 H753 0.984 . S
N747 C740 1.356 . S
N747 H750 0.984 . S
N747 H751 0.985 . S
H748 N743 0.984 . S
H749 N743 0.985 . S
H750 N747 0.984 . S
H751 N747 0.985 . S
H752 N746 0.984 . S
H753 N746 0.984 . S
H754 N742 0.984 . S
H755 N742 0.985 . S
C756 C757 1.363 . S
C756 C762 1.379 . S
C756 N764 1.356 . S
C757 C756 1.363 . S
C757 C763 1.363 . S
C758 C759 1.363 . S
C758 C763 1.379 . S
C758 N765 1.356 . S
C759 C758 1.363 . S
C759 C762 1.363 . S
N760 C762 1.356 . S
N760 H772 0.984 . S
N760 H773 0.985 . S
N761 C763 1.356 . S
N761 H766 0.984 . S
N761 H767 0.985 . S
C762 C756 1.379 . S
C762 C759 1.363 . S
C762 N760 1.356 . S
C763 C757 1.363 . S
C763 C758 1.379 . S
C763 N761 1.356 . S
N764 C756 1.356 . S
N764 H770 0.984 . S
N764 H771 0.984 . S
N765 C758 1.356 . S
N765 H768 0.984 . S
N765 H769 0.985 . S
H766 N761 0.984 . S
H767 N761 0.985 . S
H768 N765 0.984 . S
H769 N765 0.985 . S
H770 N764 0.984 . S
H771 N764 0.984 . S
H772 N760 0.984 . S
H773 N760 0.985 . S
C774 C775 1.363 . S
C774 C780 1.379 . S
C774 N782 1.356 . S
C775 C774 1.363 . S
C775 C781 1.363 . S
C776 C777 1.363 . S
C776 C781 1.379 . S
C776 N783 1.356 . S
C777 C776 1.363 . S
C777 C780 1.363 . S
N778 C780 1.356 . S
N778 H790 0.984 . S
N778 H791 0.985 . S
N779 C781 1.356 . S
N779 H784 0.984 . S
N779 H785 0.985 . S
C780 C774 1.379 . S
C780 C777 1.363 . S
C780 N778 1.356 . S
C781 C775 1.363 . S
C781 C776 1.379 . S
C781 N779 1.356 . S
N782 C774 1.356 . S
N782 H788 0.984 . S
N782 H789 0.984 . S
N783 C776 1.356 . S
N783 H786 0.984 . S
N783 H787 0.985 . S
H784 N779 0.984 . S
H785 N779 0.985 . S
H786 N783 0.984 . S
H787 N783 0.985 . S
H788 N782 0.984 . S
H789 N782 0.984 . S
H790 N778 0.984 . S
H791 N778 0.985 . S
C792 C793 1.363 . S
C792 C798 1.379 . S
C792 N800 1.356 . S
C793 C792 1.363 . S
C793 C799 1.363 . S
C794 C795 1.363 . S
C794 C799 1.379 1_565 S
C794 N801 1.356 . S
C795 C794 1.363 . S
C795 C798 1.363 1_565 S
N796 C798 1.356 1_565 S
N796 H808 0.984 . S
N796 H809 0.985 . S
N797 C799 1.356 . S
N797 H802 0.984 . S
N797 H803 0.985 . S
C798 C792 1.379 . S
C798 C795 1.363 1_545 S
C798 N796 1.356 1_545 S
C799 C793 1.363 . S
C799 C794 1.379 1_545 S
C799 N797 1.356 . S
N800 C792 1.356 . S
N800 H806 0.984 . S
N800 H807 0.984 . S
N801 C794 1.356 . S
N801 H804 0.984 . S
N801 H805 0.985 . S
H802 N797 0.984 . S
H803 N797 0.985 . S
H804 N801 0.984 . S
H805 N801 0.985 . S
H806 N800 0.984 . S
H807 N800 0.984 . S
H808 N796 0.984 . S
H809 N796 0.985 . S
C810 C811 1.363 . S
C810 C816 1.379 . S
C810 N818 1.356 . S
C811 C810 1.363 . S
C811 C817 1.363 1_455 S
C812 C813 1.363 . S
C812 C817 1.379 . S
C812 N819 1.356 . S
C813 C812 1.363 . S
C813 C816 1.363 1_655 S
N814 C816 1.356 . S
N814 H826 0.984 . S
N814 H827 0.985 . S
N815 C817 1.356 . S
N815 H820 0.984 1_655 S
N815 H821 0.985 . S
C816 C810 1.379 . S
C816 C813 1.363 1_455 S
C816 N814 1.356 . S
C817 C811 1.363 1_655 S
C817 C812 1.379 . S
C817 N815 1.356 . S
N818 C810 1.356 . S
N818 H824 0.984 . S
N818 H825 0.984 . S
N819 C812 1.356 . S
N819 H822 0.984 . S
N819 H823 0.985 . S
H820 N815 0.984 1_455 S
H821 N815 0.985 . S
H822 N819 0.984 . S
H823 N819 0.985 . S
H824 N818 0.984 . S
H825 N818 0.984 . S
H826 N814 0.984 . S
H827 N814 0.985 . S
C828 C829 1.363 1_554 S
C828 C834 1.379 . S
C828 N836 1.356 . S
C829 C828 1.363 1_556 S
C829 C835 1.363 . S
C830 C831 1.363 1_556 S
C830 C835 1.379 . S
C830 N837 1.356 . S
C831 C830 1.363 1_554 S
C831 C834 1.363 . S
N832 C834 1.356 . S
N832 H844 0.984 . S
N832 H845 0.985 . S
N833 C835 1.356 . S
N833 H838 0.984 . S
N833 H839 0.985 . S
C834 C828 1.379 . S
C834 C831 1.363 . S
C834 N832 1.356 . S
C835 C829 1.363 . S
C835 C830 1.379 . S
C835 N833 1.356 . S
N836 C828 1.356 . S
N836 H842 0.984 . S
N836 H843 0.984 1_554 S
N837 C830 1.356 . S
N837 H840 0.984 1_556 S
N837 H841 0.985 . S
H838 N833 0.984 . S
H839 N833 0.985 . S
H840 N837 0.984 1_554 S
H841 N837 0.985 . S
H842 N836 0.984 . S
H843 N836 0.984 1_556 S
H844 N832 0.984 . S
H845 N832 0.985 . S
C846 C847 1.366 1_554 S
C846 C852 1.363 1_565 S
C846 N854 1.372 . S
C847 C846 1.366 1_556 S
C847 C853 1.363 1_565 S
C848 C849 1.363 1_556 S
C848 C853 1.379 . S
C848 N855 1.356 . S
C849 C848 1.363 1_554 S
C849 C852 1.363 . S
N850 C852 1.356 . S
N850 H862 0.984 . S
N850 H863 0.985 . S
N851 C853 1.356 1_565 S
N851 H856 0.984 . S
N851 H857 0.985 . S
C852 C846 1.363 1_545 S
C852 C849 1.363 . S
C852 N850 1.356 . S
C853 C847 1.363 1_545 S
C853 C848 1.379 . S
C853 N851 1.356 1_545 S
N854 C846 1.372 . S
N854 H860 0.984 . S
N854 H861 0.984 . S
N855 C848 1.356 . S
N855 H858 0.984 . S
N855 H859 0.985 . S
H856 N851 0.984 . S
H857 N851 0.985 . S
H858 N855 0.984 . S
H859 N855 0.985 . S
H860 N854 0.984 . S
H861 N854 0.984 . S
H862 N850 0.984 . S
H863 N850 0.985 . S
C864 C865 1.363 1_554 S
C864 C870 1.379 . S
C864 N872 1.356 . S
C865 C864 1.363 1_556 S
C865 C871 1.352 1_455 S
C866 C867 1.363 1_556 S
C866 C871 1.381 . S
C866 N873 1.356 . S
C867 C866 1.363 1_554 S
C867 C870 1.363 1_655 S
N868 C870 1.356 . S
N868 H880 0.984 . S
N868 H881 0.985 . S
N869 C871 1.363 . S
N869 H874 0.984 1_655 S
N869 H875 0.985 . S
C870 C864 1.379 . S
C870 C867 1.363 1_455 S
C870 N868 1.356 . S
C871 C865 1.352 1_655 S
C871 C866 1.381 . S
C871 N869 1.363 . S
N872 C864 1.356 . S
N872 H878 0.984 . S
N872 H879 0.984 1_554 S
N873 C866 1.356 . S
N873 H876 0.984 1_556 S
N873 H877 0.985 . S
H874 N869 0.984 1_455 S
H875 N869 0.985 . S
H876 N873 0.984 1_554 S
H877 N873 0.985 . S
H878 N872 0.984 . S
H879 N872 0.984 1_556 S
H880 N868 0.984 . S
H881 N868 0.985 . S
C235 C1 1.962 . S
C237 C183 1.966 . S
C253 C159 1.866 . S
C255 C16 1.862 . S
C271 C29 1.903 . S
C273 C170 1.935 . S
C289 C79 1.962 . S
C291 C27 1.962 . S
C307 C101 2.068 . S
C309 C3 1.913 . S
C325 C105 1.967 . S
C327 C14 1.968 . S
C343 C49 1.966 . S
C345 C144 2.094 . S
C361 C118 2.073 . S
C363 C57 1.919 . S
C379 C140 1.935 . S
C381 C68 2.084 . S
C397 C66 2.093 . S
C399 C205 1.965 . S
C415 C44 1.863 . S
C417 C213 1.865 . S
C433 C224 2.077 . S
C435 C62 1.922 . S
C451 C157 1.915 . S
C453 C107 1.890 . S
C469 C81 1.867 . S
C471 C172 1.868 . S
C487 C185 1.861 . S
C489 C96 2.035 . S
C505 C222 2.040 . S
C507 C120 2.060 . S
C523 C135 1.863 . S
C525 C200 1.862 . S
C541 C218 1.916 . S
C543 C146 2.066 . S
C559 C196 1.643 . S
C561 C10 1.642 . S
C577 C18 1.561 . S
C579 C211 1.562 . S
C595 C31 1.559 . S
C597 C226 1.581 . S
C613 C36 1.628 . S
C615 C153 1.644 . S
C631 C127 1.628 . S
C633 C5 1.600 . S
C649 C23 1.625 . S
C651 C131 1.626 . S
C667 C88 1.630 . S
C669 C40 1.631 . S
C685 C92 1.629 . S
C687 C55 1.602 . S
C703 C70 1.629 . S
C705 C114 1.613 . S
C721 C75 1.659 . S
C723 C192 1.643 . S
C739 C42 1.562 . S
C741 C161 1.563 . S
C757 C53 1.641 . S
C759 C179 1.641 . S
C775 C109 1.589 . S
C777 C231 1.614 . S
C793 C83 1.575 . S
C795 C198 1.574 . S
C811 C209 1.598 . S
C813 C94 1.609 . S
C829 C166 1.601 . S
C831 C122 1.611 . S
C847 C174 1.575 . S
C849 C133 1.575 . S
C865 C187 1.575 . S
C867 C148 1.599 . S
