# Generated by pormake.
# Topology ums, (4)-cn, num edge types: 1
# Building blocks:
#     Node 0, Type 0, BuildingBlock: NAHDIM_clean_sbu_0, # of connection points: 4
#     Node 1, Type 0, BuildingBlock: NAHDIM_clean_sbu_0, # of connection points: 4
#     Node 2, Type 0, BuildingBlock: NAHDIM_clean_sbu_0, # of connection points: 4
#     Node 3, Type 0, BuildingBlock: NAHDIM_clean_sbu_0, # of connection points: 4
#     Node 4, Type 0, BuildingBlock: NAHDIM_clean_sbu_0, # of connection points: 4
#     Node 5, Type 0, BuildingBlock: NAHDIM_clean_sbu_0, # of connection points: 4
#     Node 6, Type 0, BuildingBlock: NAHDIM_clean_sbu_0, # of connection points: 4
#     Node 7, Type 0, BuildingBlock: NAHDIM_clean_sbu_0, # of connection points: 4
#     Node 8, Type 0, BuildingBlock: NAHDIM_clean_sbu_0, # of connection points: 4
#     Node 9, Type 0, BuildingBlock: NAHDIM_clean_sbu_0, # of connection points: 4
#     Node 10, Type 0, BuildingBlock: NAHDIM_clean_sbu_0, # of connection points: 4
#     Node 11, Type 0, BuildingBlock: NAHDIM_clean_sbu_0, # of connection points: 4
#     Node 12, Type 0, BuildingBlock: NAHDIM_clean_sbu_0, # of connection points: 4
#     Node 13, Type 0, BuildingBlock: NAHDIM_clean_sbu_0, # of connection points: 4
#     Node 14, Type 0, BuildingBlock: NAHDIM_clean_sbu_0, # of connection points: 4
#     Node 15, Type 0, BuildingBlock: NAHDIM_clean_sbu_0, # of connection points: 4
#     Node 16, Type 0, BuildingBlock: NAHDIM_clean_sbu_0, # of connection points: 4
#     Node 17, Type 0, BuildingBlock: NAHDIM_clean_sbu_0, # of connection points: 4
#     Node 18, Type 0, BuildingBlock: NAHDIM_clean_sbu_0, # of connection points: 4
#     Node 19, Type 0, BuildingBlock: NAHDIM_clean_sbu_0, # of connection points: 4
#     Node 20, Type 0, BuildingBlock: NAHDIM_clean_sbu_0, # of connection points: 4
#     Node 21, Type 0, BuildingBlock: NAHDIM_clean_sbu_0, # of connection points: 4
#     Node 22, Type 0, BuildingBlock: NAHDIM_clean_sbu_0, # of connection points: 4
#     Node 23, Type 0, BuildingBlock: NAHDIM_clean_sbu_0, # of connection points: 4
#     Node 24, Type 0, BuildingBlock: NAHDIM_clean_sbu_0, # of connection points: 4
#     Node 25, Type 0, BuildingBlock: NAHDIM_clean_sbu_0, # of connection points: 4
#     Node 26, Type 0, BuildingBlock: NAHDIM_clean_sbu_0, # of connection points: 4
#     Node 27, Type 0, BuildingBlock: NAHDIM_clean_sbu_0, # of connection points: 4
#     Node 28, Type 0, BuildingBlock: NAHDIM_clean_sbu_0, # of connection points: 4
#     Node 29, Type 0, BuildingBlock: NAHDIM_clean_sbu_0, # of connection points: 4
#     Node 30, Type 0, BuildingBlock: NAHDIM_clean_sbu_0, # of connection points: 4
#     Node 31, Type 0, BuildingBlock: NAHDIM_clean_sbu_0, # of connection points: 4
#     Node 32, Type 0, BuildingBlock: NAHDIM_clean_sbu_0, # of connection points: 4
#     Node 33, Type 0, BuildingBlock: NAHDIM_clean_sbu_0, # of connection points: 4
#     Node 34, Type 0, BuildingBlock: NAHDIM_clean_sbu_0, # of connection points: 4
#     Node 35, Type 0, BuildingBlock: NAHDIM_clean_sbu_0, # of connection points: 4
#     Edge 36, Type (0, 0), BuildingBlock: EZIPEK_clean_linker_0, # of connection points: 2
#     Edge 37, Type (0, 0), BuildingBlock: EZIPEK_clean_linker_0, # of connection points: 2
#     Edge 38, Type (0, 0), BuildingBlock: EZIPEK_clean_linker_0, # of connection points: 2
#     Edge 39, Type (0, 0), BuildingBlock: EZIPEK_clean_linker_0, # of connection points: 2
#     Edge 40, Type (0, 0), BuildingBlock: EZIPEK_clean_linker_0, # of connection points: 2
#     Edge 41, Type (0, 0), BuildingBlock: EZIPEK_clean_linker_0, # of connection points: 2
#     Edge 42, Type (0, 0), BuildingBlock: EZIPEK_clean_linker_0, # of connection points: 2
#     Edge 43, Type (0, 0), BuildingBlock: EZIPEK_clean_linker_0, # of connection points: 2
#     Edge 44, Type (0, 0), BuildingBlock: EZIPEK_clean_linker_0, # of connection points: 2
#     Edge 45, Type (0, 0), BuildingBlock: EZIPEK_clean_linker_0, # of connection points: 2
#     Edge 46, Type (0, 0), BuildingBlock: EZIPEK_clean_linker_0, # of connection points: 2
#     Edge 47, Type (0, 0), BuildingBlock: EZIPEK_clean_linker_0, # of connection points: 2
#     Edge 48, Type (0, 0), BuildingBlock: EZIPEK_clean_linker_0, # of connection points: 2
#     Edge 49, Type (0, 0), BuildingBlock: EZIPEK_clean_linker_0, # of connection points: 2
#     Edge 50, Type (0, 0), BuildingBlock: EZIPEK_clean_linker_0, # of connection points: 2
#     Edge 51, Type (0, 0), BuildingBlock: EZIPEK_clean_linker_0, # of connection points: 2
#     Edge 52, Type (0, 0), BuildingBlock: EZIPEK_clean_linker_0, # of connection points: 2
#     Edge 53, Type (0, 0), BuildingBlock: EZIPEK_clean_linker_0, # of connection points: 2
#     Edge 54, Type (0, 0), BuildingBlock: EZIPEK_clean_linker_0, # of connection points: 2
#     Edge 55, Type (0, 0), BuildingBlock: EZIPEK_clean_linker_0, # of connection points: 2
#     Edge 56, Type (0, 0), BuildingBlock: EZIPEK_clean_linker_0, # of connection points: 2
#     Edge 57, Type (0, 0), BuildingBlock: EZIPEK_clean_linker_0, # of connection points: 2
#     Edge 58, Type (0, 0), BuildingBlock: EZIPEK_clean_linker_0, # of connection points: 2
#     Edge 59, Type (0, 0), BuildingBlock: EZIPEK_clean_linker_0, # of connection points: 2
#     Edge 60, Type (0, 0), BuildingBlock: EZIPEK_clean_linker_0, # of connection points: 2
#     Edge 61, Type (0, 0), BuildingBlock: EZIPEK_clean_linker_0, # of connection points: 2
#     Edge 62, Type (0, 0), BuildingBlock: EZIPEK_clean_linker_0, # of connection points: 2
#     Edge 63, Type (0, 0), BuildingBlock: EZIPEK_clean_linker_0, # of connection points: 2
#     Edge 64, Type (0, 0), BuildingBlock: EZIPEK_clean_linker_0, # of connection points: 2
#     Edge 65, Type (0, 0), BuildingBlock: EZIPEK_clean_linker_0, # of connection points: 2
#     Edge 66, Type (0, 0), BuildingBlock: EZIPEK_clean_linker_0, # of connection points: 2
#     Edge 67, Type (0, 0), BuildingBlock: EZIPEK_clean_linker_0, # of connection points: 2
#     Edge 68, Type (0, 0), BuildingBlock: EZIPEK_clean_linker_0, # of connection points: 2
#     Edge 69, Type (0, 0), BuildingBlock: EZIPEK_clean_linker_0, # of connection points: 2
#     Edge 70, Type (0, 0), BuildingBlock: EZIPEK_clean_linker_0, # of connection points: 2
#     Edge 71, Type (0, 0), BuildingBlock: EZIPEK_clean_linker_0, # of connection points: 2
#     Edge 72, Type (0, 0), BuildingBlock: EZIPEK_clean_linker_0, # of connection points: 2
#     Edge 73, Type (0, 0), BuildingBlock: EZIPEK_clean_linker_0, # of connection points: 2
#     Edge 74, Type (0, 0), BuildingBlock: EZIPEK_clean_linker_0, # of connection points: 2
#     Edge 75, Type (0, 0), BuildingBlock: EZIPEK_clean_linker_0, # of connection points: 2
#     Edge 76, Type (0, 0), BuildingBlock: EZIPEK_clean_linker_0, # of connection points: 2
#     Edge 77, Type (0, 0), BuildingBlock: EZIPEK_clean_linker_0, # of connection points: 2
#     Edge 78, Type (0, 0), BuildingBlock: EZIPEK_clean_linker_0, # of connection points: 2
#     Edge 79, Type (0, 0), BuildingBlock: EZIPEK_clean_linker_0, # of connection points: 2
#     Edge 80, Type (0, 0), BuildingBlock: EZIPEK_clean_linker_0, # of connection points: 2
#     Edge 81, Type (0, 0), BuildingBlock: EZIPEK_clean_linker_0, # of connection points: 2
#     Edge 82, Type (0, 0), BuildingBlock: EZIPEK_clean_linker_0, # of connection points: 2
#     Edge 83, Type (0, 0), BuildingBlock: EZIPEK_clean_linker_0, # of connection points: 2
#     Edge 84, Type (0, 0), BuildingBlock: EZIPEK_clean_linker_0, # of connection points: 2
#     Edge 85, Type (0, 0), BuildingBlock: EZIPEK_clean_linker_0, # of connection points: 2
#     Edge 86, Type (0, 0), BuildingBlock: EZIPEK_clean_linker_0, # of connection points: 2
#     Edge 87, Type (0, 0), BuildingBlock: EZIPEK_clean_linker_0, # of connection points: 2
#     Edge 88, Type (0, 0), BuildingBlock: EZIPEK_clean_linker_0, # of connection points: 2
#     Edge 89, Type (0, 0), BuildingBlock: EZIPEK_clean_linker_0, # of connection points: 2
#     Edge 90, Type (0, 0), BuildingBlock: EZIPEK_clean_linker_0, # of connection points: 2
#     Edge 91, Type (0, 0), BuildingBlock: EZIPEK_clean_linker_0, # of connection points: 2
#     Edge 92, Type (0, 0), BuildingBlock: EZIPEK_clean_linker_0, # of connection points: 2
#     Edge 93, Type (0, 0), BuildingBlock: EZIPEK_clean_linker_0, # of connection points: 2
#     Edge 94, Type (0, 0), BuildingBlock: EZIPEK_clean_linker_0, # of connection points: 2
#     Edge 95, Type (0, 0), BuildingBlock: EZIPEK_clean_linker_0, # of connection points: 2
#     Edge 96, Type (0, 0), BuildingBlock: EZIPEK_clean_linker_0, # of connection points: 2
#     Edge 97, Type (0, 0), BuildingBlock: EZIPEK_clean_linker_0, # of connection points: 2
#     Edge 98, Type (0, 0), BuildingBlock: EZIPEK_clean_linker_0, # of connection points: 2
#     Edge 99, Type (0, 0), BuildingBlock: EZIPEK_clean_linker_0, # of connection points: 2
#     Edge 100, Type (0, 0), BuildingBlock: EZIPEK_clean_linker_0, # of connection points: 2
#     Edge 101, Type (0, 0), BuildingBlock: EZIPEK_clean_linker_0, # of connection points: 2
#     Edge 102, Type (0, 0), BuildingBlock: EZIPEK_clean_linker_0, # of connection points: 2
#     Edge 103, Type (0, 0), BuildingBlock: EZIPEK_clean_linker_0, # of connection points: 2
#     Edge 104, Type (0, 0), BuildingBlock: EZIPEK_clean_linker_0, # of connection points: 2
#     Edge 105, Type (0, 0), BuildingBlock: EZIPEK_clean_linker_0, # of connection points: 2
#     Edge 106, Type (0, 0), BuildingBlock: EZIPEK_clean_linker_0, # of connection points: 2
#     Edge 107, Type (0, 0), BuildingBlock: EZIPEK_clean_linker_0, # of connection points: 2
# Relax obj value: 0.129
# Max RMSD: 0.121
# Mean RMSD: 0.115
data_MOF--net-ums--node1-NAHDIM_clean_sbu_0--edge1-EZIPEK_clean_linker_0
_symmetry_space_group_name_H-M    P1
_symmetry_Int_Tables_number       1
_symmetry_cell_setting            triclinic
loop_
_symmetry_equiv_pos_as_xyz
'x, y, z'
_cell_length_a     74.565324
_cell_length_b     74.538017
_cell_length_c     17.389165
_cell_angle_alpha  90.018417
_cell_angle_beta   90.018502
_cell_angle_gamma 119.98246
loop_
_atom_site_label
_atom_site_type_symbol
_atom_site_fract_x
_atom_site_fract_y
_atom_site_fract_z
_atom_type_partial_charge
C0 C 0.1941 0.23848 0.18129 0.0
O1 O 0.19707 0.2562 0.2084 0.0
O2 O 0.18056 0.2717 0.07078 0.0
Zn3 Zn 0.1631 0.24133 0.09634 0.0
O4 O 0.14416 0.238 0.18361 0.0
C5 C 0.13279 0.23235 0.98639 0.0
O6 O 0.13002 0.24457 0.03316 0.0
O7 O 0.18054 0.22916 0.12944 0.0
C8 C 0.13148 0.22048 0.21213 0.0
O9 O 0.1298 0.2035 0.18245 0.0
C10 C 0.18352 0.28567 0.11929 0.0
O11 O 0.17601 0.2805 0.18916 0.0
O12 O 0.14633 0.22734 0.00247 0.0
C13 C 0.76065 0.95581 0.17994 0.0
O14 O 0.74276 0.94221 0.20963 0.0
O15 O 0.7239 0.9096 0.07847 0.0
Zn16 Zn 0.75427 0.91992 0.10031 0.0
O17 O 0.7582 0.90494 0.18963 0.0
C18 C 0.7546 0.89921 0.96443 0.0
O19 O 0.73504 0.88791 0.9837 0.0
O20 O 0.76884 0.95011 0.12845 0.0
C21 C 0.75019 0.88539 0.19186 0.0
O22 O 0.73906 0.87413 0.13358 0.0
C23 C 0.70926 0.90044 0.12655 0.0
O24 O 0.71338 0.89795 0.19777 0.0
O25 O 0.76665 0.9148 0.00525 0.0
C26 C 0.04254 0.80558 0.18758 0.0
O27 O 0.05561 0.8006 0.21772 0.0
O28 O 0.08948 0.81492 0.09779 0.0
Zn29 Zn 0.07885 0.83494 0.10859 0.0
O30 O 0.09446 0.85569 0.19222 0.0
C31 C 0.09921 0.86725 0.99796 0.0
O32 O 0.11145 0.87661 0.05661 0.0
O33 O 0.04876 0.81971 0.13693 0.0
C34 C 0.10098 0.85048 0.25069 0.0
O35 O 0.09723 0.83138 0.25762 0.0
C36 C 0.10848 0.82209 0.0818 0.0
O37 O 0.12074 0.84217 0.07506 0.0
O38 O 0.08331 0.8495 0.00704 0.0
C39 C 0.23862 0.2003 0.30864 0.0
O40 O 0.25718 0.20542 0.2834 0.0
O41 O 0.27539 0.19272 0.40828 0.0
Zn42 Zn 0.24501 0.17133 0.39089 0.0
O43 O 0.24146 0.15201 0.30282 0.0
C44 C 0.24403 0.15056 0.52913 0.0
O45 O 0.26295 0.15656 0.5064 0.0
O46 O 0.22999 0.18608 0.35868 0.0
C47 C 0.24344 0.1361 0.30918 0.0
O48 O 0.24834 0.13148 0.37571 0.0
C49 C 0.28964 0.18874 0.39189 0.0
O50 O 0.28484 0.17082 0.36129 0.0
O51 O 0.23252 0.15492 0.48874 0.0
C52 C 0.80195 0.03949 0.29931 0.0
O53 O 0.79695 0.05287 0.27225 0.0
O54 O 0.80997 0.08484 0.39866 0.0
Zn55 Zn 0.83064 0.07539 0.37824 0.0
O56 O 0.84922 0.09137 0.2905 0.0
C57 C 0.85811 0.10127 0.4873 0.0
O58 O 0.85902 0.11421 0.43417 0.0
O59 O 0.81613 0.04532 0.34971 0.0
C60 C 0.86236 0.0871 0.26237 0.0
O61 O 0.86454 0.0721 0.29206 0.0
C62 C 0.81005 0.09933 0.35996 0.0
O63 O 0.82267 0.10738 0.30131 0.0
O64 O 0.8474 0.0819 0.47495 0.0
C65 C 0.95834 0.76549 0.29924 0.0
O66 O 0.94322 0.7521 0.25527 0.0
O67 O 0.91583 0.72454 0.41982 0.0
Zn68 Zn 0.92448 0.75433 0.3975 0.0
O69 O 0.90763 0.75586 0.31009 0.0
C70 C 0.90067 0.75997 0.50871 0.0
O71 O 0.88613 0.74645 0.46325 0.0
O72 O 0.95429 0.76937 0.3661 0.0
C73 C 0.91067 0.77294 0.28276 0.0
O74 O 0.92485 0.7905 0.31309 0.0
C75 C 0.89917 0.7099 0.39191 0.0
O76 O 0.8878 0.71415 0.34603 0.0
O77 O 0.91955 0.76662 0.49227 0.0
C78 C 0.80402 0.76005 0.8158 0.0
O79 O 0.79895 0.74128 0.79318 0.0
O80 O 0.81345 0.72468 0.91956 0.0
Zn81 Zn 0.83379 0.75477 0.89687 0.0
O82 O 0.85229 0.75677 0.80955 0.0
C83 C 0.86312 0.76064 0.00851 0.0
O84 O 0.8644 0.74733 0.96266 0.0
O85 O 0.81867 0.76939 0.86384 0.0
C86 C 0.86521 0.77385 0.77874 0.0
O87 O 0.86743 0.79132 0.80558 0.0
C88 C 0.81573 0.71049 0.88876 0.0
O89 O 0.83087 0.71537 0.83976 0.0
O90 O 0.85085 0.76724 0.99189 0.0
C91 C 0.23618 0.0366 0.86791 0.0
O92 O 0.2562 0.04666 0.88062 0.0
O93 O 0.27043 0.08961 0.91217 0.0
Zn94 Zn 0.23921 0.07608 0.90006 0.0
O95 O 0.23197 0.08859 0.81218 0.0
C96 C 0.23818 0.08318 0.05863 0.0
O97 O 0.25184 0.07697 0.05922 0.0
O98 O 0.22574 0.04563 0.87753 0.0
C99 C 0.24094 0.10805 0.80293 0.0
O100 O 0.25433 0.12022 0.85453 0.0
C101 C 0.2841 0.0945 0.86029 0.0
O102 O 0.27861 0.09075 0.7877 0.0
O103 O 0.22899 0.08254 0.99638 0.0
C104 C 0.95905 0.19769 0.80993 0.0
O105 O 0.94535 0.1998 0.76964 0.0
O106 O 0.91038 0.18625 0.91901 0.0
Zn107 Zn 0.92288 0.16843 0.89054 0.0
O108 O 0.90965 0.1503 0.79743 0.0
C109 C 0.8994 0.13677 0.99537 0.0
O110 O 0.88485 0.13525 0.94885 0.0
O111 O 0.95326 0.18556 0.86742 0.0
C112 C 0.89188 0.14506 0.7703 0.0
O113 O 0.88014 0.15112 0.80452 0.0
C114 C 0.90421 0.19545 0.87384 0.0
O115 O 0.90632 0.19465 0.7992 0.0
O116 O 0.91819 0.15003 0.98159 0.0
C117 C 0.76033 0.79903 0.68767 0.0
O118 O 0.74263 0.79494 0.7188 0.0
O119 O 0.72135 0.80436 0.58384 0.0
Zn120 Zn 0.75134 0.82551 0.60329 0.0
O121 O 0.7528 0.84362 0.69141 0.0
C122 C 0.75218 0.83682 0.44585 0.0
O123 O 0.73717 0.81751 0.44051 0.0
O124 O 0.76765 0.81188 0.6325 0.0
C125 C 0.76823 0.86164 0.70137 0.0
O126 O 0.78386 0.86901 0.65318 0.0
C127 C 0.70824 0.81044 0.58959 0.0
O128 O 0.71443 0.82942 0.61296 0.0
O129 O 0.76218 0.84334 0.50852 0.0
C130 C 0.19671 0.9566 0.71954 0.0
O131 O 0.19601 0.94074 0.75532 0.0
O132 O 0.19399 0.91474 0.60514 0.0
Zn133 Zn 0.17325 0.92422 0.62078 0.0
O134 O 0.15341 0.90815 0.70553 0.0
C135 C 0.14688 0.89886 0.50927 0.0
O136 O 0.14745 0.88602 0.55947 0.0
O137 O 0.18801 0.95389 0.6543 0.0
C138 C 0.13694 0.90886 0.71666 0.0
O139 O 0.13205 0.91959 0.66993 0.0
C140 C 0.19245 0.89917 0.64077 0.0
O141 O 0.17799 0.88985 0.69302 0.0
O142 O 0.1571 0.91823 0.52231 0.0
C143 C 0.04275 0.23443 0.69619 0.0
O144 O 0.05818 0.24577 0.74287 0.0
O145 O 0.08919 0.27316 0.57075 0.0
Zn146 Zn 0.07612 0.24283 0.59597 0.0
O147 O 0.09173 0.23943 0.68325 0.0
C148 C 0.09732 0.23367 0.48578 0.0
O149 O 0.11245 0.2464 0.53106 0.0
O150 O 0.04646 0.23107 0.62796 0.0
C151 C 0.0876 0.2218 0.70849 0.0
O152 O 0.07312 0.20487 0.67552 0.0
C153 C 0.0977 0.28699 0.6223 0.0
O154 O 0.09721 0.28157 0.69443 0.0
O155 O 0.0788 0.22859 0.50254 0.0
C156 C 0.86484 0.56725 0.53794 0.0
O157 O 0.86684 0.58294 0.57904 0.0
O158 O 0.86259 0.6091 0.43566 0.0
Zn159 Zn 0.84069 0.57892 0.45082 0.0
O160 O 0.8224 0.57677 0.53903 0.0
C161 C 0.81744 0.58062 0.32739 0.0
O162 O 0.82183 0.59753 0.3655 0.0
O163 O 0.85416 0.56223 0.47664 0.0
C164 C 0.80352 0.56285 0.54498 0.0
O165 O 0.79478 0.54855 0.49172 0.0
C166 C 0.85961 0.62321 0.46321 0.0
O167 O 0.84326 0.61803 0.50614 0.0
O168 O 0.82352 0.56869 0.35397 0.0
C169 C 0.42857 0.29334 0.51824 0.0
O170 O 0.40958 0.28073 0.54172 0.0
O171 O 0.39084 0.2481 0.4303 0.0
Zn172 Zn 0.42072 0.2562 0.44926 0.0
O173 O 0.42205 0.24013 0.53931 0.0
C174 C 0.42335 0.24891 0.29063 0.0
O175 O 0.413 0.25883 0.28464 0.0
O176 O 0.43739 0.28648 0.4742 0.0
C177 C 0.43642 0.23586 0.54789 0.0
O178 O 0.45138 0.24219 0.49706 0.0
C179 C 0.37641 0.23065 0.45344 0.0
O180 O 0.38092 0.2183 0.49211 0.0
O181 O 0.43032 0.24759 0.35571 0.0
C182 C 0.70918 0.14234 0.54494 0.0
O183 O 0.72256 0.14066 0.58917 0.0
O184 O 0.75147 0.14072 0.43918 0.0
Zn185 Zn 0.74526 0.16372 0.45775 0.0
O186 O 0.76176 0.18016 0.54865 0.0
C187 C 0.75019 0.17535 0.29836 0.0
O188 O 0.73805 0.15536 0.28783 0.0
O189 O 0.71516 0.1519 0.48132 0.0
C190 C 0.764 0.19786 0.56304 0.0
O191 O 0.75558 0.20567 0.5175 0.0
C192 C 0.77035 0.14639 0.42724 0.0
O193 O 0.78424 0.16619 0.42949 0.0
O194 O 0.7546 0.18257 0.36613 0.0
C195 C 0.90495 0.52249 0.64217 0.0
O196 O 0.91922 0.52205 0.59929 0.0
O197 O 0.94661 0.5212 0.755 0.0
Zn198 Zn 0.91654 0.49985 0.74047 0.0
O199 O 0.91423 0.47943 0.66024 0.0
C200 C 0.91887 0.4799 0.87228 0.0
O201 O 0.93608 0.48411 0.83683 0.0
O202 O 0.90063 0.51369 0.70749 0.0
C203 C 0.89872 0.46128 0.65475 0.0
O204 O 0.88305 0.45528 0.7022 0.0
C205 C 0.96018 0.52455 0.70432 0.0
O206 O 0.95455 0.51499 0.63774 0.0
O207 O 0.90666 0.48509 0.84162 0.0
C208 C 0.46882 0.37779 0.6293 0.0
O209 O 0.46581 0.39153 0.5931 0.0
O210 O 0.47623 0.42455 0.7281 0.0
Zn211 Zn 0.49584 0.41343 0.71527 0.0
O212 O 0.51616 0.4288 0.63102 0.0
C213 C 0.52326 0.4377 0.82873 0.0
O214 O 0.52606 0.45146 0.77604 0.0
O215 O 0.48086 0.38337 0.68705 0.0
C216 C 0.53044 0.42499 0.61314 0.0
O217 O 0.53271 0.41116 0.65209 0.0
C218 C 0.47451 0.43597 0.67779 0.0
O219 O 0.48456 0.43963 0.61245 0.0
O220 O 0.51102 0.41863 0.8152 0.0
C221 C 0.62395 0.10458 0.64268 0.0
O222 O 0.60975 0.08911 0.60215 0.0
O223 O 0.57938 0.06448 0.74112 0.0
Zn224 Zn 0.58834 0.09472 0.72543 0.0
O225 O 0.57287 0.09724 0.63507 0.0
C226 C 0.58095 0.09677 0.88509 0.0
O227 O 0.59006 0.08563 0.8911 0.0
O228 O 0.61869 0.11053 0.70268 0.0
C229 C 0.56032 0.10402 0.64085 0.0
O230 O 0.55765 0.11073 0.70729 0.0
C231 C 0.56199 0.05044 0.71576 0.0
O232 O 0.55017 0.05554 0.67651 0.0
O233 O 0.58036 0.10431 0.82036 0.0
C234 C 0.46446 0.09111 0.13335 0.0
O235 O 0.46497 0.07602 0.09623 0.0
O236 O 0.4753 0.05541 0.23901 0.0
Zn237 Zn 0.49309 0.08655 0.22486 0.0
O238 O 0.51419 0.09412 0.14042 0.0
C239 C 0.51218 0.08726 0.36651 0.0
O240 O 0.50588 0.06812 0.34533 0.0
O241 O 0.4751 0.09831 0.19434 0.0
C242 C 0.52704 0.08767 0.13848 0.0
O243 O 0.52747 0.07628 0.19522 0.0
C244 C 0.47407 0.04173 0.19227 0.0
O245 O 0.48401 0.04729 0.12655 0.0
O246 O 0.5082 0.0988 0.32451 0.0
C247 C 0.90564 0.37244 0.17959 0.0
O248 O 0.92424 0.38525 0.15306 0.0
O249 O 0.94396 0.41805 0.27034 0.0
Zn250 Zn 0.91399 0.40926 0.25304 0.0
O251 O 0.9128 0.42477 0.16067 0.0
C252 C 0.90534 0.41181 0.41312 0.0
O253 O 0.91184 0.3985 0.42233 0.0
O254 O 0.89747 0.37897 0.22808 0.0
C255 C 0.9103 0.44039 0.16451 0.0
O256 O 0.9078 0.44698 0.23151 0.0
C257 C 0.95535 0.43649 0.29387 0.0
O258 O 0.94708 0.44819 0.30631 0.0
O259 O 0.90369 0.41742 0.34585 0.0
C260 C 0.62684 0.52856 0.1439 0.0
O261 O 0.61252 0.5307 0.10794 0.0
O262 O 0.58224 0.52248 0.23908 0.0
Zn263 Zn 0.5919 0.50146 0.22928 0.0
O264 O 0.57756 0.48164 0.14124 0.0
C265 C 0.5697 0.46923 0.33806 0.0
O266 O 0.55634 0.46218 0.2812 0.0
O267 O 0.62195 0.51675 0.20214 0.0
C268 C 0.56098 0.47913 0.1108 0.0
O269 O 0.55172 0.48861 0.13985 0.0
C270 C 0.56549 0.51814 0.27327 0.0
O271 O 0.55433 0.49987 0.30504 0.0
O272 O 0.58699 0.48571 0.32868 0.0
C273 C 0.41811 0.12783 0.0103 0.0
O274 O 0.39789 0.11838 0.01716 0.0
O275 O 0.38373 0.14324 0.92141 0.0
Zn276 Zn 0.4139 0.16198 0.94892 0.0
O277 O 0.41679 0.18078 0.03783 0.0
C278 C 0.41704 0.18356 0.81047 0.0
O279 O 0.39736 0.17621 0.82598 0.0
O280 O 0.42781 0.14583 0.98078 0.0
C281 C 0.41563 0.19715 0.03083 0.0
O282 O 0.4119 0.20239 0.9632 0.0
C283 C 0.3688 0.13473 0.96866 0.0
O284 O 0.37247 0.13684 0.04294 0.0
O285 O 0.42801 0.17939 0.85498 0.0
C286 C 0.86235 0.28926 0.05579 0.0
O287 O 0.86634 0.27531 0.08424 0.0
O288 O 0.85544 0.24569 0.93912 0.0
Zn289 Zn 0.83485 0.25489 0.96401 0.0
O290 O 0.81566 0.23642 0.04683 0.0
C291 C 0.81 0.2329 0.84031 0.0
O292 O 0.81172 0.21858 0.87805 0.0
O293 O 0.84926 0.28428 0.00161 0.0
C294 C 0.79666 0.23119 0.05146 0.0
O295 O 0.7886 0.2382 0.00086 0.0
C296 C 0.85892 0.23452 0.98501 0.0
O297 O 0.84999 0.22983 0.05285 0.0
O298 O 0.81886 0.25127 0.86642 0.0
C299 C 0.71062 0.56913 0.02864 0.0
O300 O 0.72527 0.58366 0.07104 0.0
O301 O 0.75536 0.60902 0.92913 0.0
Zn302 Zn 0.74568 0.57835 0.9427 0.0
O303 O 0.75903 0.57323 0.03454 0.0
C304 C 0.76818 0.5784 0.81069 0.0
O305 O 0.78084 0.59717 0.83588 0.0
O306 O 0.71537 0.56382 0.96583 0.0
C307 C 0.77755 0.57683 0.03876 0.0
O308 O 0.7895 0.58355 0.97778 0.0
C309 C 0.7728 0.62334 0.95318 0.0
O310 O 0.78493 0.61852 0.99159 0.0
O311 O 0.75145 0.5669 0.8466 0.0
C312 C 0.53284 0.91273 0.85918 0.0
O313 O 0.53494 0.92948 0.89263 0.0
O314 O 0.52467 0.94939 0.7546 0.0
Zn315 Zn 0.5045 0.91866 0.77037 0.0
O316 O 0.48476 0.91402 0.85781 0.0
C317 C 0.48336 0.91613 0.6297 0.0
O318 O 0.48846 0.93507 0.6495 0.0
O319 O 0.52064 0.90502 0.80224 0.0
C320 C 0.46771 0.91388 0.85111 0.0
O321 O 0.46173 0.91661 0.78327 0.0
C322 C 0.51943 0.9629 0.76813 0.0
O323 O 0.50078 0.95706 0.7938 0.0
O324 O 0.48872 0.90571 0.67205 0.0
C325 C 0.09505 0.62946 0.85724 0.0
O326 O 0.0761 0.61597 0.87854 0.0
O327 O 0.06008 0.58388 0.75518 0.0
Zn328 Zn 0.09044 0.59429 0.77657 0.0
O329 O 0.09298 0.5776 0.86221 0.0
C330 C 0.09252 0.58124 0.6238 0.0
O331 O 0.07297 0.57624 0.62468 0.0
O332 O 0.10458 0.62393 0.81098 0.0
C333 C 0.09015 0.55949 0.85182 0.0
O334 O 0.08587 0.55125 0.78279 0.0
C335 C 0.04575 0.57087 0.79835 0.0
O336 O 0.05041 0.5646 0.86185 0.0
O337 O 0.10389 0.59044 0.68151 0.0
C338 C 0.36774 0.46814 0.8272 0.0
O339 O 0.37988 0.46202 0.8579 0.0
O340 O 0.41543 0.47711 0.74329 0.0
Zn341 Zn 0.40551 0.49772 0.75543 0.0
O342 O 0.42114 0.51744 0.84186 0.0
C343 C 0.42753 0.53097 0.64907 0.0
O344 O 0.43957 0.53953 0.70893 0.0
O345 O 0.37515 0.48307 0.77968 0.0
C346 C 0.42626 0.51109 0.90108 0.0
O347 O 0.42077 0.49147 0.90735 0.0
C348 C 0.43447 0.48414 0.72835 0.0
O349 O 0.44692 0.50422 0.72273 0.0
O350 O 0.41122 0.51342 0.65594 0.0
C351 C 0.57609 0.87184 0.97371 0.0
O352 O 0.59544 0.87855 0.95471 0.0
O353 O 0.60956 0.85554 0.06457 0.0
Zn354 Zn 0.57914 0.83783 0.03817 0.0
O355 O 0.57428 0.81925 0.94616 0.0
C356 C 0.56902 0.80569 0.14582 0.0
O357 O 0.57955 0.80137 0.09624 0.0
O358 O 0.56624 0.85524 0.01237 0.0
C359 C 0.58609 0.81253 0.92402 0.0
O360 O 0.60279 0.81693 0.96354 0.0
C361 C 0.62472 0.8628 0.018 0.0
O362 O 0.62135 0.86012 0.94364 0.0
O363 O 0.56578 0.82059 0.13265 0.0
C364 C 0.13603 0.71254 0.98211 0.0
O365 O 0.13341 0.72696 0.94955 0.0
O366 O 0.1475 0.76049 0.07879 0.0
Zn367 Zn 0.16536 0.7473 0.06656 0.0
O368 O 0.18557 0.76187 0.98125 0.0
C369 C 0.1741 0.75454 0.22697 0.0
O370 O 0.15537 0.75199 0.22815 0.0
O371 O 0.14868 0.71731 0.03768 0.0
C372 C 0.20508 0.77041 0.98816 0.0
O373 O 0.21338 0.7698 0.05401 0.0
C374 C 0.14586 0.77154 0.02669 0.0
O375 O 0.15497 0.77373 0.95998 0.0
O376 O 0.18132 0.75185 0.16467 0.0
C377 C 0.28171 0.42777 0.9175 0.0
O378 O 0.26724 0.41495 0.87006 0.0
O379 O 0.23826 0.38443 0.0245 0.0
Zn380 Zn 0.24667 0.4144 0.01178 0.0
O381 O 0.22939 0.41645 0.92781 0.0
C382 C 0.24649 0.42166 0.1746 0.0
O383 O 0.2592 0.41428 0.1781 0.0
O384 O 0.27672 0.43062 0.98432 0.0
C385 C 0.22455 0.43055 0.9269 0.0
O386 O 0.23128 0.44465 0.98136 0.0
C387 C 0.22029 0.37262 0.05134 0.0
O388 O 0.20822 0.38028 0.06731 0.0
O389 O 0.24016 0.42406 0.10982 0.0
C390 C 0.13206 0.42447 0.46174 0.0
O391 O 0.12061 0.40419 0.46074 0.0
O392 O 0.14198 0.38569 0.52649 0.0
Zn393 Zn 0.16359 0.41563 0.51189 0.0
O394 O 0.18263 0.41701 0.42808 0.0
C395 C 0.17148 0.42355 0.67439 0.0
O396 O 0.15153 0.41689 0.6782 0.0
O397 O 0.15086 0.43293 0.48287 0.0
C398 C 0.20185 0.43026 0.42839 0.0
O399 O 0.20975 0.44393 0.48417 0.0
C400 C 0.14817 0.37412 0.55572 0.0
O401 O 0.16782 0.38203 0.57334 0.0
O402 O 0.18 0.42538 0.60951 0.0
C403 C 0.57152 0.70591 0.46308 0.0
O404 O 0.59132 0.71685 0.4467 0.0
O405 O 0.6093 0.75467 0.54562 0.0
Zn406 Zn 0.57909 0.74459 0.5265 0.0
O407 O 0.57686 0.76076 0.43877 0.0
C408 C 0.57992 0.77054 0.64019 0.0
O409 O 0.59468 0.78312 0.59325 0.0
O410 O 0.56285 0.71428 0.49972 0.0
C411 C 0.56001 0.76015 0.4217 0.0
O412 O 0.54331 0.74889 0.46293 0.0
C413 C 0.62279 0.76245 0.49273 0.0
O414 O 0.61688 0.76208 0.42127 0.0
O415 O 0.56896 0.75151 0.62257 0.0
C416 C 0.29326 0.86162 0.48357 0.0
O417 O 0.27948 0.86628 0.45832 0.0
O418 O 0.25071 0.85598 0.58727 0.0
Zn419 Zn 0.25859 0.83375 0.56998 0.0
O420 O 0.24184 0.81446 0.48375 0.0
C421 C 0.23971 0.8146 0.71178 0.0
O422 O 0.22737 0.82156 0.6917 0.0
O423 O 0.28812 0.84781 0.53506 0.0
C424 C 0.22361 0.79911 0.48992 0.0
O425 O 0.21447 0.79439 0.55734 0.0
C426 C 0.23251 0.85255 0.57378 0.0
O427 O 0.21855 0.83454 0.5462 0.0
O428 O 0.25477 0.81781 0.66858 0.0
C429 C 0.09633 0.47406 0.36461 0.0
O430 O 0.08444 0.4768 0.41314 0.0
O431 O 0.05636 0.48351 0.2722 0.0
Zn432 Zn 0.08787 0.50071 0.27341 0.0
O433 O 0.09851 0.52374 0.35232 0.0
C434 C 0.08699 0.52137 0.14017 0.0
O435 O 0.0725 0.52172 0.18154 0.0
O436 O 0.1 0.48261 0.29885 0.0
C437 C 0.08838 0.53252 0.37206 0.0
O438 O 0.07073 0.52734 0.33821 0.0
C439 C 0.04425 0.47875 0.32961 0.0
O440 O 0.05185 0.48486 0.39895 0.0
O441 O 0.09684 0.51298 0.16734 0.0
C442 C 0.52661 0.62171 0.35059 0.0
O443 O 0.5282 0.60757 0.39033 0.0
O444 O 0.52237 0.57667 0.26057 0.0
Zn445 Zn 0.50124 0.586 0.26751 0.0
O446 O 0.48184 0.57148 0.35484 0.0
C447 C 0.4746 0.55853 0.15871 0.0
O448 O 0.4752 0.54609 0.21069 0.0
O449 O 0.51552 0.61638 0.29021 0.0
C450 C 0.46598 0.57308 0.36857 0.0
O451 O 0.46135 0.5843 0.3234 0.0
C452 C 0.52022 0.56128 0.29946 0.0
O453 O 0.5046 0.55187 0.34724 0.0
O454 O 0.48495 0.578 0.16915 0.0
C455 C 0.37563 0.90405 0.35325 0.0
O456 O 0.38927 0.92214 0.38174 0.0
O457 O 0.42037 0.94204 0.25006 0.0
Zn458 Zn 0.41094 0.91186 0.26984 0.0
O459 O 0.42768 0.91016 0.35654 0.0
C460 C 0.41709 0.9089 0.11036 0.0
O461 O 0.40976 0.92163 0.10662 0.0
O462 O 0.38107 0.89605 0.30015 0.0
C463 C 0.43298 0.89647 0.3622 0.0
O464 O 0.42748 0.88211 0.30918 0.0
C465 C 0.43377 0.95641 0.2923 0.0
O466 O 0.44081 0.95175 0.35386 0.0
O467 O 0.41748 0.90101 0.17461 0.0
C468 C 0.22513 0.2108 0.19519 0.0
C469 C 0.22743 0.21029 0.27611 0.0
C470 C 0.20582 0.22612 0.2946 0.0
C471 C 0.20569 0.22893 0.21385 0.0
N472 N 0.21902 0.22784 0.0884 0.0
N473 N 0.22358 0.22146 0.4024 0.0
C474 C 0.21643 0.22238 0.16434 0.0
C475 C 0.2188 0.21908 0.32582 0.0
N476 N 0.23029 0.19944 0.14779 0.0
N477 N 0.19289 0.22923 0.34136 0.0
H478 H 0.23355 0.21709 0.42733 0.0
H479 H 0.21938 0.2297 0.43955 0.0
H480 H 0.18257 0.2337 0.32088 0.0
H481 H 0.19085 0.22528 0.39946 0.0
H482 H 0.22694 0.19767 0.08916 0.0
H483 H 0.23587 0.18999 0.16798 0.0
H484 H 0.22854 0.22524 0.05173 0.0
H485 H 0.21342 0.23685 0.06385 0.0
C486 C 0.79091 0.01472 0.18811 0.0
C487 C 0.79171 0.01808 0.26878 0.0
C488 C 0.775 0.98069 0.29038 0.0
C489 C 0.7717 0.97728 0.20998 0.0
N490 N 0.77312 0.99113 0.08313 0.0
N491 N 0.78073 0.00397 0.39635 0.0
C492 C 0.77874 0.99431 0.15891 0.0
C493 C 0.78272 0.00099 0.31996 0.0
N494 N 0.80243 0.03084 0.1394 0.0
N495 N 0.77162 0.96477 0.33832 0.0
H496 H 0.78556 0.01852 0.42018 0.0
H497 H 0.77237 0.99181 0.43449 0.0
H498 H 0.76681 0.94981 0.31878 0.0
H499 H 0.77575 0.96691 0.39626 0.0
H500 H 0.80406 0.02883 0.08102 0.0
H501 H 0.8121 0.04597 0.15834 0.0
H502 H 0.77605 0.00314 0.04535 0.0
H503 H 0.76373 0.97645 0.05966 0.0
C504 C 0.99176 0.79775 0.26826 0.0
C505 C 0.97992 0.7758 0.27099 0.0
C506 C 0.00837 0.77353 0.21036 0.0
C507 C 0.02092 0.79538 0.21519 0.0
N508 N 0.02597 0.828 0.26338 0.0
N509 N 0.97834 0.74276 0.25883 0.0
C510 C 0.01302 0.80745 0.24813 0.0
C511 C 0.98859 0.76365 0.24586 0.0
N512 N 0.98254 0.80934 0.28185 0.0
N513 N 0.01502 0.76228 0.16951 0.0
H514 H 0.96405 0.73496 0.28657 0.0
H515 H 0.98492 0.7335 0.24898 0.0
H516 H 0.02929 0.769 0.14148 0.0
H517 H 0.0056 0.74659 0.15724 0.0
H518 H 0.98993 0.82526 0.27237 0.0
H519 H 0.9669 0.80286 0.29545 0.0
H520 H 0.02145 0.83695 0.29494 0.0
H521 H 0.04177 0.83567 0.2512 0.0
C522 C 0.79159 0.7715 0.70187 0.0
C523 C 0.7933 0.7705 0.78294 0.0
C524 C 0.77642 0.7912 0.79979 0.0
C525 C 0.77211 0.78962 0.71976 0.0
N526 N 0.77239 0.7749 0.59626 0.0
N527 N 0.78369 0.77603 0.90976 0.0
C528 C 0.77884 0.77887 0.67107 0.0
C529 C 0.78474 0.77945 0.83224 0.0
N530 N 0.8028 0.76625 0.6541 0.0
N531 N 0.77341 0.80457 0.84442 0.0
H532 H 0.78896 0.76693 0.93588 0.0
H533 H 0.77568 0.78047 0.9471 0.0
H534 H 0.76818 0.81416 0.82239 0.0
H535 H 0.77825 0.80779 0.90151 0.0
H536 H 0.80374 0.76875 0.59492 0.0
H537 H 0.81292 0.76146 0.6741 0.0
H538 H 0.77512 0.76524 0.56077 0.0
H539 H 0.76258 0.77952 0.57177 0.0
C540 C 0.23244 0.01411 0.75523 0.0
C541 C 0.22634 0.01605 0.83072 0.0
C542 C 0.19933 0.97951 0.82944 0.0
C543 C 0.20676 0.97714 0.75709 0.0
N544 N 0.23264 0.99113 0.65721 0.0
N545 N 0.20618 0.00029 0.94468 0.0
C546 C 0.22393 0.99415 0.72153 0.0
C547 C 0.21037 0.99866 0.86927 0.0
N548 N 0.24568 0.03141 0.71434 0.0
N549 N 0.18128 0.96376 0.85866 0.0
H550 H 0.21396 0.01411 0.97561 0.0
H551 H 0.19629 0.98763 0.97845 0.0
H552 H 0.17264 0.94953 0.83104 0.0
H553 H 0.17388 0.96535 0.90677 0.0
H554 H 0.24885 0.03108 0.65618 0.0
H555 H 0.25208 0.04639 0.73628 0.0
H556 H 0.24658 0.00252 0.63384 0.0
H557 H 0.22697 0.9767 0.63102 0.0
C558 C 0.01346 0.23801 0.74919 0.0
C559 C 0.02122 0.22505 0.72425 0.0
C560 C 0.98764 0.19426 0.75011 0.0
C561 C 0.98054 0.20713 0.78183 0.0
N562 N 0.98714 0.24089 0.82117 0.0
N563 N 0.01708 0.19088 0.71291 0.0
C564 C 0.99357 0.22893 0.784 0.0
C565 C 0.00869 0.20317 0.72783 0.0
N566 N 0.02476 0.2589 0.7368 0.0
N567 N 0.97408 0.17365 0.73834 0.0
H568 H 0.03244 0.19674 0.6963 0.0
H569 H 0.00935 0.175 0.72342 0.0
H570 H 0.95847 0.16649 0.75342 0.0
H571 H 0.97784 0.16401 0.70739 0.0
H572 H 0.01905 0.26892 0.74624 0.0
H573 H 0.03928 0.26607 0.7106 0.0
H574 H 0.99674 0.25662 0.83208 0.0
H575 H 0.97258 0.23475 0.84675 0.0
C576 C 0.86287 0.53439 0.58332 0.0
C577 C 0.87503 0.55561 0.56317 0.0
C578 C 0.90653 0.55548 0.60208 0.0
C579 C 0.89459 0.53384 0.61552 0.0
N580 N 0.86197 0.50189 0.6065 0.0
N581 N 0.90858 0.58552 0.53992 0.0
C582 C 0.87289 0.52304 0.60279 0.0
C583 C 0.89692 0.56595 0.56883 0.0
N584 N 0.84178 0.52528 0.58687 0.0
N585 N 0.92686 0.56619 0.62395 0.0
H586 H 0.90212 0.59365 0.51434 0.0
H587 H 0.92464 0.59298 0.53483 0.0
H588 H 0.93441 0.55914 0.6495 0.0
H589 H 0.93572 0.58229 0.62337 0.0
H590 H 0.83226 0.51055 0.60937 0.0
H591 H 0.83384 0.5331 0.57364 0.0
H592 H 0.84656 0.49304 0.58956 0.0
H593 H 0.86879 0.493 0.62008 0.0
C594 C 0.44034 0.31892 0.62646 0.0
C595 C 0.43976 0.31499 0.54635 0.0
C596 C 0.461 0.35223 0.52246 0.0
C597 C 0.45895 0.35618 0.60097 0.0
N598 N 0.44308 0.34308 0.72483 0.0
N599 N 0.44639 0.32821 0.41632 0.0
C600 C 0.44765 0.33947 0.65234 0.0
C601 C 0.44926 0.33172 0.49369 0.0
N602 N 0.43471 0.30319 0.67818 0.0
N603 N 0.47475 0.36785 0.47596 0.0
H604 H 0.43741 0.31349 0.39263 0.0
H605 H 0.45121 0.3401 0.37609 0.0
H606 H 0.48421 0.38299 0.49522 0.0
H607 H 0.47835 0.36532 0.42057 0.0
H608 H 0.43678 0.30563 0.73731 0.0
H609 H 0.43015 0.28804 0.66184 0.0
H610 H 0.43308 0.33125 0.76162 0.0
H611 H 0.44748 0.35785 0.74541 0.0
C612 C 0.67574 0.11113 0.58205 0.0
C613 C 0.6873 0.13279 0.56887 0.0
C614 C 0.65679 0.13578 0.59893 0.0
C615 C 0.6459 0.11449 0.61921 0.0
N616 N 0.6461 0.08275 0.64425 0.0
N617 N 0.69014 0.16644 0.57747 0.0
C618 C 0.65567 0.10238 0.6147 0.0
C619 C 0.67819 0.14535 0.5807 0.0
N620 N 0.68361 0.09878 0.56056 0.0
N621 N 0.64652 0.14665 0.59407 0.0
H622 H 0.70591 0.17407 0.56471 0.0
H623 H 0.68486 0.17643 0.59402 0.0
H624 H 0.6308 0.14016 0.60632 0.0
H625 H 0.65314 0.16155 0.57138 0.0
H626 H 0.67499 0.08266 0.56118 0.0
H627 H 0.69812 0.10454 0.53502 0.0
H628 H 0.65341 0.07402 0.65 0.0
H629 H 0.63152 0.07588 0.66992 0.0
C630 C 0.43728 0.10135 0.14782 0.0
C631 C 0.45247 0.10037 0.10186 0.0
C632 C 0.44328 0.1151 0.99303 0.0
C633 C 0.42974 0.11815 0.04148 0.0
N634 N 0.4171 0.11813 0.16949 0.0
N635 N 0.47297 0.11024 0.98563 0.0
C636 C 0.42758 0.11234 0.12018 0.0
C637 C 0.45631 0.1083 0.02568 0.0
N638 N 0.43152 0.09115 0.21664 0.0
N639 N 0.44319 0.11798 0.91543 0.0
H640 H 0.48335 0.10609 0.00818 0.0
H641 H 0.47771 0.1179 0.93307 0.0
H642 H 0.43359 0.1226 0.88905 0.0
H643 H 0.45114 0.11386 0.87654 0.0
H644 H 0.41897 0.08952 0.24858 0.0
H645 H 0.43794 0.08256 0.23831 0.0
H646 H 0.41695 0.11619 0.22886 0.0
H647 H 0.41029 0.12675 0.15233 0.0
C648 C 0.88355 0.32778 0.0376 0.0
C649 C 0.87289 0.31056 0.08746 0.0
C650 C 0.88495 0.33384 0.19887 0.0
C651 C 0.89382 0.35112 0.1485 0.0
N652 N 0.89677 0.36442 0.01953 0.0
N653 N 0.8594 0.29761 0.21428 0.0
C654 C 0.89175 0.34807 0.06767 0.0
C655 C 0.87242 0.31368 0.16784 0.0
N656 N 0.88669 0.32487 0.96225 0.0
N657 N 0.88915 0.3365 0.27589 0.0
H658 H 0.8494 0.28275 0.19352 0.0
H659 H 0.85696 0.29952 0.27196 0.0
H660 H 0.89866 0.35095 0.30086 0.0
H661 H 0.88482 0.32419 0.3138 0.0
H662 H 0.89622 0.33702 0.92572 0.0
H663 H 0.88158 0.31029 0.93824 0.0
H664 H 0.89362 0.36265 0.96074 0.0
H665 H 0.90194 0.37943 0.03924 0.0
C666 C 0.65962 0.56083 0.10807 0.0
C667 C 0.64821 0.53892 0.11383 0.0
C668 C 0.67821 0.5369 0.06823 0.0
C669 C 0.68895 0.55862 0.05572 0.0
N670 N 0.68857 0.59078 0.04959 0.0
N671 N 0.64495 0.50579 0.08369 0.0
C672 C 0.67929 0.57048 0.07169 0.0
C673 C 0.65701 0.52684 0.08949 0.0
N674 N 0.65202 0.57246 0.13991 0.0
N675 N 0.68843 0.52599 0.06327 0.0
H676 H 0.62921 0.4978 0.09711 0.0
H677 H 0.65006 0.49646 0.05842 0.0
H678 H 0.7041 0.5328 0.04948 0.0
H679 H 0.68189 0.51056 0.08003 0.0
H680 H 0.66064 0.58852 0.14475 0.0
H681 H 0.63776 0.56596 0.16795 0.0
H682 H 0.68128 0.59958 0.05248 0.0
H683 H 0.70282 0.59831 0.02142 0.0
C684 C 0.55664 0.89849 0.83843 0.0
C685 C 0.5442 0.9026 0.8889 0.0
C686 C 0.55484 0.88891 0.9969 0.0
C687 C 0.56528 0.88261 0.94484 0.0
N688 N 0.57213 0.87731 0.81332 0.0
N689 N 0.52801 0.8978 0.01342 0.0
C690 C 0.56513 0.88628 0.86477 0.0
C691 C 0.54235 0.89678 0.96753 0.0
N692 N 0.56102 0.90683 0.7662 0.0
N693 N 0.55739 0.88807 0.07442 0.0
H694 H 0.51801 0.90277 0.99369 0.0
H695 H 0.52457 0.89172 0.06889 0.0
H696 H 0.56677 0.88283 0.09827 0.0
H697 H 0.55186 0.89448 0.11467 0.0
H698 H 0.57176 0.90605 0.73006 0.0
H699 H 0.55559 0.91635 0.74526 0.0
H700 H 0.57035 0.87777 0.75404 0.0
H701 H 0.57772 0.86755 0.82965 0.0
C702 C 0.11497 0.66803 0.83916 0.0
C703 C 0.10547 0.65072 0.88923 0.0
C704 C 0.11394 0.67407 -0.00047 0.0
C705 C 0.1255 0.69126 0.95043 0.0
N706 N 0.14112 0.70407 0.82589 0.0
N707 N 0.10014 0.63738 0.01904 0.0
C708 C 0.12718 0.68813 0.8708 0.0
C709 C 0.10609 0.65374 0.97007 0.0
N710 N 0.11174 0.66545 0.76157 0.0
N711 N 0.1098 0.67707 0.07349 0.0
H712 H 0.09516 0.62233 0.00017 0.0
H713 H 0.10227 0.63912 0.07838 0.0
H714 H 0.11482 0.69171 0.09681 0.0
H715 H 0.09966 0.66499 0.1091 0.0
H716 H 0.11665 0.67782 0.72351 0.0
H717 H 0.10233 0.65106 0.73603 0.0
H718 H 0.14435 0.70203 0.7693 0.0
H719 H 0.15111 0.71886 0.84729 0.0
C720 C 0.31255 0.42612 0.86973 0.0
C721 C 0.30371 0.43817 0.89412 0.0
C722 C 0.33742 0.46976 0.88158 0.0
C723 C 0.34566 0.45791 0.8492 0.0
N724 N 0.34 0.42535 0.7983 0.0
N725 N 0.30664 0.47175 0.90909 0.0
C726 C 0.33293 0.43622 0.83927 0.0
C727 C 0.31583 0.4601 0.89614 0.0
N728 N 0.30188 0.40508 0.87877 0.0
N729 N 0.3503 0.48999 0.90165 0.0
H730 H 0.29078 0.46529 0.91849 0.0
H731 H 0.3144 0.4878 0.90313 0.0
H732 H 0.3663 0.49755 0.89386 0.0
H733 H 0.34538 0.49867 0.9329 0.0
H734 H 0.30847 0.3958 0.86947 0.0
H735 H 0.28713 0.39708 0.90298 0.0
H736 H 0.33059 0.40991 0.78245 0.0
H737 H 0.35469 0.43224 0.77352 0.0
C738 C 0.11774 0.4668 0.45686 0.0
C739 C 0.10597 0.46171 0.38798 0.0
C740 C 0.11377 0.43401 0.36273 0.0
C741 C 0.12323 0.4374 0.43623 0.0
N742 N 0.13071 0.45454 0.5597 0.0
N743 N 0.08944 0.43794 0.2825 0.0
C744 C 0.12429 0.45314 0.48516 0.0
C745 C 0.10307 0.44463 0.34269 0.0
N746 N 0.1234 0.48507 0.49374 0.0
N747 N 0.11571 0.42133 0.3107 0.0
H748 H 0.08088 0.44495 0.2669 0.0
H749 H 0.08513 0.42422 0.25283 0.0
H750 H 0.12401 0.41378 0.322 0.0
H751 H 0.11091 0.42 0.25367 0.0
H752 H 0.13373 0.49048 0.53978 0.0
H753 H 0.11955 0.49589 0.47352 0.0
H754 H 0.12969 0.46434 0.59998 0.0
H755 H 0.1351 0.44448 0.58356 0.0
C756 C 0.53409 0.64778 0.45467 0.0
C757 C 0.53718 0.64343 0.37787 0.0
C758 C 0.55977 0.68049 0.3543 0.0
C759 C 0.55913 0.68446 0.43381 0.0
N760 N 0.54821 0.67131 0.5625 0.0
N761 N 0.55594 0.65538 0.25813 0.0
C762 C 0.54692 0.66797 0.48489 0.0
C763 C 0.55079 0.65971 0.32842 0.0
N764 N 0.51842 0.63287 0.49792 0.0
N765 N 0.56823 0.6965 0.30291 0.0
H766 H 0.55018 0.64035 0.23754 0.0
H767 H 0.56749 0.66662 0.22352 0.0
H768 H 0.57423 0.71194 0.319 0.0
H769 H 0.56723 0.69429 0.24353 0.0
H770 H 0.51418 0.63585 0.55144 0.0
H771 H 0.50823 0.61807 0.4771 0.0
H772 H 0.54129 0.65937 0.60255 0.0
H773 H 0.55779 0.68576 0.58732 0.0
C774 C 0.33695 0.88509 0.33744 0.0
C775 C 0.35452 0.89264 0.38612 0.0
C776 C 0.33194 0.88142 0.49921 0.0
C777 C 0.31436 0.87197 0.45033 0.0
N778 N 0.30044 0.86053 0.32266 0.0
N779 N 0.36845 0.89326 0.51228 0.0
C780 C 0.31693 0.87257 0.36926 0.0
C781 C 0.35196 0.88946 0.46679 0.0
N782 N 0.33923 0.89053 0.2615 0.0
N783 N 0.32967 0.88359 0.57607 0.0
H784 H 0.38325 0.89829 0.49054 0.0
H785 H 0.36696 0.88925 0.57028 0.0
H786 H 0.31534 0.87859 0.60201 0.0
H787 H 0.34216 0.89227 0.61258 0.0
H788 H 0.32676 0.88717 0.22556 0.0
H789 H 0.35358 0.90016 0.23618 0.0
H790 H 0.30194 0.85888 0.26387 0.0
H791 H 0.28565 0.85043 0.3437 0.0
C792 C 0.1204 0.22919 0.77324 0.0
C793 C 0.09867 0.2207 0.77709 0.0
C794 C 0.09938 0.21444 0.91494 0.0
C795 C 0.1213 0.22606 0.91307 0.0
N796 N 0.15299 0.24638 0.84171 0.0
N797 N 0.06728 0.20659 0.85218 0.0
C798 C 0.13197 0.23372 0.84243 0.0
C799 C 0.08801 0.21339 0.84791 0.0
N800 N 0.12992 0.23271 0.70327 0.0
N801 N 0.08951 0.20423 0.98066 0.0
H802 H 0.05834 0.20556 0.80448 0.0
H803 H 0.0592 0.20341 0.90386 0.0
H804 H 0.09751 0.20451 0.03032 0.0
H805 H 0.07364 0.19392 0.98367 0.0
H806 H 0.14544 0.237 0.69654 0.0
H807 H 0.12176 0.22929 0.65158 0.0
H808 H 0.16124 0.25439 0.79303 0.0
H809 H 0.16214 0.25027 0.891 0.0
C810 C 0.77567 0.88589 0.89896 0.0
C811 C 0.76192 0.89382 0.89392 0.0
C812 C 0.75443 0.883 0.75934 0.0
C813 C 0.7678 0.87463 0.76467 0.0
N814 N 0.79433 0.87154 0.83244 0.0
N815 N 0.74256 0.90494 0.81634 0.0
C816 C 0.77959 0.87735 0.83215 0.0
C817 C 0.75266 0.89394 0.82296 0.0
N818 N 0.784 0.88542 0.96848 0.0
N819 N 0.74306 0.88002 0.69405 0.0
H820 H 0.74137 0.91342 0.86187 0.0
H821 H 0.73706 0.90732 0.76454 0.0
H822 H 0.74488 0.87318 0.64468 0.0
H823 H 0.73111 0.88337 0.68981 0.0
H824 H 0.79196 0.87749 0.97846 0.0
H825 H 0.78204 0.89215 0.01795 0.0
H826 H 0.8049 0.87497 0.87691 0.0
H827 H 0.79702 0.8645 0.78545 0.0
C828 C 0.10897 0.89703 0.90905 0.0
C829 C 0.10527 0.87663 0.9207 0.0
C830 C 0.11625 0.87594 0.78874 0.0
C831 C 0.12349 0.89743 0.78236 0.0
N832 N 0.12797 0.92911 0.83827 0.0
N833 N 0.10781 0.84733 0.87435 0.0
C834 C 0.11993 0.90816 0.84251 0.0
C835 C 0.10928 0.8661 0.86099 0.0
N836 N 0.1017 0.90561 0.96111 0.0
N837 N 0.11574 0.86489 0.72527 0.0
H838 H 0.10326 0.83963 0.92683 0.0
H839 H 0.1129 0.84022 0.83539 0.0
H840 H 0.12014 0.87161 0.67096 0.0
H841 H 0.10882 0.84881 0.72482 0.0
H842 H 0.10214 0.91964 0.95213 0.0
H843 H 0.09337 0.89771 0.00995 0.0
H844 H 0.12807 0.93806 0.88446 0.0
H845 H 0.13595 0.9379 0.79048 0.0
C846 C 0.23648 0.10825 0.65905 0.0
C847 C 0.23727 0.11701 0.73262 0.0
C848 C 0.23737 0.14662 0.6708 0.0
C849 C 0.23627 0.13753 0.59836 0.0
N850 N 0.22622 0.10653 0.52608 0.0
N851 N 0.23148 0.14096 0.80782 0.0
C852 C 0.23283 0.11719 0.59356 0.0
C853 C 0.23549 0.13511 0.73842 0.0
N854 N 0.2409 0.09265 0.65002 0.0
N855 N 0.24095 0.16643 0.67499 0.0
H856 H 0.2289 0.13226 0.85778 0.0
H857 H 0.22845 0.1531 0.81402 0.0
H858 H 0.24152 0.17486 0.62621 0.0
H859 H 0.24435 0.17474 0.72627 0.0
H860 H 0.2423 0.08732 0.59618 0.0
H861 H 0.24559 0.08663 0.69463 0.0
H862 H 0.22209 0.09101 0.52058 0.0
H863 H 0.22228 0.11258 0.47916 0.0
C864 C 0.88876 0.12499 0.56636 0.0
C865 C 0.86758 0.10957 0.56317 0.0
C866 C 0.86434 0.1141 0.70085 0.0
C867 C 0.88429 0.13203 0.70037 0.0
N868 N 0.91459 0.15633 0.6284 0.0
N869 N 0.83413 0.09141 0.62579 0.0
C870 C 0.89642 0.13789 0.63222 0.0
C871 C 0.85506 0.10444 0.63011 0.0
N872 N 0.90159 0.12714 0.50666 0.0
N873 N 0.85444 0.10598 0.76894 0.0
H874 H 0.82642 0.08425 0.57511 0.0
H875 H 0.82415 0.08918 0.67135 0.0
H876 H 0.86107 0.11222 0.8222 0.0
H877 H 0.84073 0.09181 0.77278 0.0
H878 H 0.91758 0.13691 0.50868 0.0
H879 H 0.89647 0.11743 0.45871 0.0
H880 H 0.92284 0.16222 0.57749 0.0
H881 H 0.92046 0.16679 0.67392 0.0
C882 C 0.87371 0.77982 0.6381 0.0
C883 C 0.87716 0.77366 0.71128 0.0
C884 C 0.89796 0.76026 0.65236 0.0
C885 C 0.89479 0.76673 0.57942 0.0
N886 N 0.88433 0.78712 0.50459 0.0
N887 N 0.89647 0.76283 0.79093 0.0
C888 C 0.88413 0.77795 0.5729 0.0
C889 C 0.89055 0.76539 0.71926 0.0
N890 N 0.85963 0.78636 0.63006 0.0
N891 N 0.90707 0.7483 0.65745 0.0
H892 H 0.89149 0.76671 0.84101 0.0
H893 H 0.90778 0.75879 0.80059 0.0
H894 H 0.91302 0.74445 0.61001 0.0
H895 H 0.90747 0.74097 0.70787 0.0
H896 H 0.85461 0.78861 0.57694 0.0
H897 H 0.85174 0.7881 0.67629 0.0
H898 H 0.87852 0.79715 0.49796 0.0
H899 H 0.89218 0.78631 0.45624 0.0
C900 C 0.86503 0.75948 0.15219 0.0
C901 C 0.87521 0.76687 0.08059 0.0
C902 C 0.90896 0.7798 0.14257 0.0
C903 C 0.89882 0.7728 0.21447 0.0
N904 N 0.86797 0.76041 0.29119 0.0
N905 N 0.90652 0.78822 0.00962 0.0
C906 C 0.87706 0.76403 0.22032 0.0
C907 C 0.89711 0.77837 0.07649 0.0
N908 N 0.84396 0.74724 0.15471 0.0
N909 N 0.9297 0.78674 0.13654 0.0
H910 H 0.89817 0.78769 0.96065 0.0
H911 H 0.92236 0.79847 0.00486 0.0
H912 H 0.93898 0.78806 0.18351 0.0
H913 H 0.93746 0.78974 0.08421 0.0
H914 H 0.8359 0.73926 0.2037 0.0
H915 H 0.83453 0.74385 0.1064 0.0
H916 H 0.85248 0.756 0.29965 0.0
H917 H 0.87641 0.7637 0.34217 0.0
C918 C 0.25229 0.11842 0.11483 0.0
C919 C 0.23859 0.09674 0.12099 0.0
C920 C 0.22571 0.1016 0.244 0.0
C921 C 0.24084 0.12299 0.24163 0.0
N922 N 0.27002 0.15166 0.17898 0.0
N923 N 0.21373 0.06712 0.19299 0.0
C924 C 0.2544 0.13145 0.17779 0.0
C925 C 0.22568 0.08815 0.18605 0.0
N926 N 0.26326 0.12657 0.04851 0.0
N927 N 0.21086 0.09437 0.30003 0.0
H928 H 0.21292 0.05689 0.15032 0.0
H929 H 0.20575 0.05974 0.2429 0.0
H930 H 0.21004 0.10394 0.342 0.0
H931 H 0.19822 0.07939 0.30094 0.0
H932 H 0.27139 0.14235 0.03634 0.0
H933 H 0.26325 0.1175 0.0029 0.0
H934 H 0.28208 0.15795 0.13933 0.0
H935 H 0.27186 0.16201 0.22254 0.0
C936 C 0.88832 0.12085 0.20504 0.0
C937 C 0.87505 0.09922 0.19623 0.0
C938 C 0.88294 0.10216 0.05858 0.0
C939 C 0.89343 0.12402 0.0657 0.0
N940 N 0.90466 0.15455 0.14429 0.0
N941 N 0.85853 0.06902 0.11455 0.0
C942 C 0.89602 0.13352 0.13869 0.0
C943 C 0.87225 0.0897 0.12314 0.0
N944 N 0.89379 0.12919 0.27706 0.0
N945 N 0.88346 0.09336 0.99021 0.0
H946 H 0.85064 0.05928 0.16052 0.0
H947 H 0.85389 0.06172 0.06131 0.0
H948 H 0.89127 0.10214 0.94201 0.0
H949 H 0.87783 0.07756 0.98318 0.0
H950 H 0.90501 0.14454 0.28747 0.0
H951 H 0.8886 0.12018 0.3267 0.0
H952 H 0.90463 0.16206 0.19475 0.0
H953 H 0.9105 0.16448 0.09722 0.0
C954 C 0.74734 0.87791 0.334 0.0
C955 C 0.75347 0.87522 0.25947 0.0
C956 C 0.76075 0.84869 0.30923 0.0
C957 C 0.75477 0.85147 0.38367 0.0
N958 N 0.74545 0.87088 0.4704 0.0
N959 N 0.77081 0.8621 0.17982 0.0
C960 C 0.74927 0.86692 0.39723 0.0
C961 C 0.76156 0.86175 0.24814 0.0
N962 N 0.73835 0.88987 0.34386 0.0
N963 N 0.76545 0.83338 0.29677 0.0
H964 H 0.77224 0.87195 0.13477 0.0
H965 H 0.77883 0.85421 0.17015 0.0
H966 H 0.76652 0.82453 0.34107 0.0
H967 H 0.76727 0.82873 0.24228 0.0
H968 H 0.73071 0.88995 0.39382 0.0
H969 H 0.73724 0.89887 0.30061 0.0
H970 H 0.74447 0.88389 0.48537 0.0
H971 H 0.74438 0.86187 0.51768 0.0
C972 C 0.13332 0.88055 0.30279 0.0
C973 C 0.1121 0.86558 0.31249 0.0
C974 C 0.11297 0.87757 0.4443 0.0
C975 C 0.13474 0.89033 0.43816 0.0
N976 N 0.16616 0.90381 0.36396 0.0
N977 N 0.0813 0.84944 0.39063 0.0
C978 C 0.14505 0.8921 0.3676 0.0
C979 C 0.10174 0.86409 0.38262 0.0
N980 N 0.14226 0.88353 0.23181 0.0
N981 N 0.10311 0.87868 0.5089 0.0
H982 H 0.07232 0.84007 0.34534 0.0
H983 H 0.07341 0.84583 0.44276 0.0
H984 H 0.11102 0.88868 0.55439 0.0
H985 H 0.0871 0.87118 0.51498 0.0
H986 H 0.15701 0.89565 0.21893 0.0
H987 H 0.13436 0.87474 0.18383 0.0
H988 H 0.17488 0.90364 0.31754 0.0
H989 H 0.17522 0.91294 0.40949 0.0
C990 C 0.09876 0.23303 0.34173 0.0
C991 C 0.10228 0.22649 0.414 0.0
C992 C 0.12289 0.21326 0.35237 0.0
C993 C 0.11921 0.21966 0.28006 0.0
N994 N 0.09917 0.23009 0.20301 0.0
N995 N 0.11277 0.20573 0.48628 0.0
C996 C 0.10564 0.22774 0.27389 0.0
C997 C 0.11276 0.21507 0.41864 0.0
N998 N 0.09004 0.24536 0.338 0.0
N999 N 0.13691 0.20661 0.3586 0.0
H1000 H 0.10514 0.20651 0.53537 0.0
H1001 H 0.11851 0.1956 0.49163 0.0
H1002 H 0.1445 0.20482 0.31146 0.0
H1003 H 0.14212 0.20422 0.41108 0.0
H1004 H 0.0894 0.2526 0.28769 0.0
H1005 H 0.08483 0.24974 0.3862 0.0
H1006 H 0.08775 0.23407 0.19488 0.0
H1007 H 0.10368 0.22594 0.1524 0.0
C1008 C 0.78831 0.57948 0.25369 0.0
C1009 C 0.80525 0.57591 0.25534 0.0
C1010 C 0.79999 0.56751 0.11808 0.0
C1011 C 0.78623 0.57548 0.11403 0.0
N1012 N 0.77141 0.5939 0.17931 0.0
N1013 N 0.82941 0.56946 0.18416 0.0
C1014 C 0.78134 0.58268 0.18221 0.0
C1015 C 0.81166 0.57053 0.18636 0.0
N1016 N 0.77869 0.57961 0.32033 0.0
N1017 N 0.80156 0.55658 0.05791 0.0
H1018 H 0.83899 0.57232 0.23161 0.0
H1019 H 0.83567 0.5677 0.13304 0.0
H1020 H 0.79247 0.55306 0.00854 0.0
H1021 H 0.8101 0.549 0.06102 0.0
H1022 H 0.76524 0.58062 0.32116 0.0
H1023 H 0.78266 0.57607 0.37344 0.0
H1024 H 0.76924 0.60082 0.22785 0.0
H1025 H 0.76774 0.59864 0.12831 0.0
C1026 C 0.40529 0.20159 0.16378 0.0
C1027 C 0.41838 0.21027 0.09892 0.0
C1028 C 0.43475 0.2446 0.15967 0.0
C1029 C 0.4227 0.23558 0.22652 0.0
N1030 N 0.39897 0.20493 0.29798 0.0
N1031 N 0.44845 0.23904 0.04135 0.0
C1032 C 0.40886 0.21388 0.23056 0.0
C1033 C 0.43391 0.23154 0.09844 0.0
N1034 N 0.3886 0.18199 0.16001 0.0
N1035 N 0.44689 0.26564 0.15449 0.0
H1036 H 0.44877 0.22979 0.99703 0.0
H1037 H 0.46135 0.25386 0.04183 0.0
H1038 H 0.4487 0.2756 0.19975 0.0
H1039 H 0.45411 0.27329 0.10385 0.0
H1040 H 0.37709 0.17572 0.20185 0.0
H1041 H 0.3851 0.17262 0.11157 0.0
H1042 H 0.39078 0.18897 0.30667 0.0
H1043 H 0.40012 0.21331 0.34749 0.0
C1044 C 0.77179 0.22139 0.16244 0.0
C1045 C 0.78354 0.21637 0.11161 0.0
C1046 C 0.77438 0.18515 0.18633 0.0
C1047 C 0.76103 0.18907 0.23251 0.0
N1048 N 0.74401 0.20883 0.25604 0.0
N1049 N 0.79164 0.19078 0.0639 0.0
C1050 C 0.75881 0.20658 0.21798 0.0
C1051 C 0.78352 0.19743 0.12014 0.0
N1052 N 0.77381 0.24065 0.16059 0.0
N1053 N 0.7793 0.1705 0.20779 0.0
H1054 H 0.79775 0.19891 0.0129 0.0
H1055 H 0.79024 0.17615 0.06411 0.0
H1056 H 0.77377 0.16185 0.25804 0.0
H1057 H 0.79062 0.16854 0.18029 0.0
H1058 H 0.76729 0.24585 0.20168 0.0
H1059 H 0.78358 0.25219 0.1224 0.0
H1060 H 0.74023 0.22013 0.24207 0.0
H1061 H 0.73418 0.19821 0.29688 0.0
C1062 C 0.92805 0.48219 0.01112 0.0
C1063 C 0.91478 0.47059 0.94973 0.0
C1064 C 0.89595 0.44078 0.03502 0.0
C1065 C 0.91093 0.45144 0.09315 0.0
N1066 N 0.94265 0.48148 0.13468 0.0
N1067 N 0.88727 0.43835 0.89964 0.0
C1068 C 0.92727 0.47203 0.08113 0.0
C1069 C 0.89889 0.44979 0.96078 0.0
N1070 N 0.94113 0.50303 0.00284 0.0
N1071 N 0.87867 0.42226 0.05146 0.0
H1072 H 0.88885 0.4445 0.8446 0.0
H1073 H 0.87713 0.42244 0.90203 0.0
H1074 H 0.87595 0.41532 0.10555 0.0
H1075 H 0.86618 0.41471 0.01401 0.0
H1076 H 0.94965 0.51274 0.04802 0.0
H1077 H 0.94204 0.51099 0.9523 0.0
H1078 H 0.95625 0.49543 0.12491 0.0
H1079 H 0.94268 0.47467 0.18697 0.0
C1080 C 0.5309 0.45044 0.042 0.0
C1081 C 0.55214 0.4659 0.04196 0.0
C1082 C 0.555 0.45741 0.90813 0.0
C1083 C 0.53319 0.44488 0.90458 0.0
N1084 N 0.49981 0.43122 0.96623 0.0
N1085 N 0.58414 0.48595 0.97143 0.0
C1086 C 0.52094 0.44161 0.97118 0.0
C1087 C 0.56426 0.46973 0.9744 0.0
N1088 N 0.52034 0.44394 0.10989 0.0
N1089 N 0.56685 0.45738 0.84826 0.0
H1090 H 0.59149 0.49586 0.01751 0.0
H1091 H 0.59276 0.49076 0.92087 0.0
H1092 H 0.56045 0.44817 0.79953 0.0
H1093 H 0.58295 0.46471 0.85047 0.0
H1094 H 0.50538 0.43132 0.11393 0.0
H1095 H 0.52729 0.44975 0.16311 0.0
H1096 H 0.49028 0.43059 0.01121 0.0
H1097 H 0.49175 0.42468 0.91543 0.0
C1098 C 0.57615 0.10535 0.02007 0.0
C1099 C 0.56743 0.09635 0.94802 0.0
C1100 C 0.53262 0.08555 0.99678 0.0
C1101 C 0.54106 0.09229 0.0716 0.0
N1102 N 0.57078 0.10862 0.15572 0.0
N1103 N 0.5372 0.07507 0.87016 0.0
C1104 C 0.56283 0.10219 0.08357 0.0
C1105 C 0.54565 0.08591 0.93664 0.0
N1106 N 0.59717 0.11749 0.02686 0.0
N1107 N 0.51215 0.07864 0.98256 0.0
H1108 H 0.54592 0.07462 0.82422 0.0
H1109 H 0.52142 0.06488 0.86287 0.0
H1110 H 0.50142 0.07664 0.02466 0.0
H1111 H 0.50598 0.07638 0.92731 0.0
H1112 H 0.60457 0.12627 0.07535 0.0
H1113 H 0.60729 0.12013 0.98126 0.0
H1114 H 0.58603 0.11337 0.17063 0.0
H1115 H 0.56189 0.10855 0.20206 0.0
C1116 C 0.51375 0.08546 0.50894 0.0
C1117 C 0.52382 0.09492 0.43916 0.0
C1118 C 0.55688 0.11423 0.50725 0.0
C1119 C 0.54736 0.10239 0.57413 0.0
N1120 N 0.51711 0.07544 0.6382 0.0
N1121 N 0.55497 0.11769 0.36928 0.0
C1122 C 0.52582 0.08784 0.57536 0.0
C1123 C 0.54536 0.1094 0.43768 0.0
N1124 N 0.4926 0.07438 0.51162 0.0
N1125 N 0.57684 0.13027 0.51082 0.0
H1126 H 0.54696 0.11501 0.31755 0.0
H1127 H 0.57098 0.12626 0.3628 0.0
H1128 H 0.58566 0.13417 0.56109 0.0
H1129 H 0.58407 0.1408 0.46629 0.0
H1130 H 0.48422 0.06878 0.56239 0.0
H1131 H 0.48336 0.0725 0.46378 0.0
H1132 H 0.50208 0.06288 0.63886 0.0
H1133 H 0.52534 0.07663 0.68823 0.0
C1134 C 0.88398 0.42305 0.48846 0.0
C1135 C 0.90264 0.42252 0.48012 0.0
C1136 C 0.91635 0.44354 0.59651 0.0
C1137 C 0.89912 0.4467 0.59785 0.0
N1138 N 0.86769 0.44177 0.5382 0.0
N1139 N 0.93836 0.43591 0.51792 0.0
C1140 C 0.88311 0.43695 0.54235 0.0
C1141 C 0.9193 0.43362 0.53217 0.0
N1142 N 0.86697 0.40999 0.44596 0.0
N1143 N 0.92969 0.44958 0.65755 0.0
H1144 H 0.94164 0.42978 0.46968 0.0
H1145 H 0.9515 0.44574 0.54977 0.0
H1146 H 0.92768 0.4563 0.70702 0.0
H1147 H 0.94138 0.44587 0.66255 0.0
H1148 H 0.85237 0.40825 0.45499 0.0
H1149 H 0.86698 0.39938 0.4068 0.0
H1150 H 0.85695 0.43685 0.49356 0.0
H1151 H 0.8667 0.45222 0.57536 0.0
C1152 C 0.55599 0.45803 0.55038 0.0
C1153 C 0.54418 0.43615 0.54779 0.0
C1154 C 0.55543 0.43673 0.41521 0.0
C1155 C 0.56374 0.4585 0.41333 0.0
N1156 N 0.57027 0.48994 0.47871 0.0
N1157 N 0.53142 0.40427 0.47629 0.0
C1158 C 0.5639 0.46928 0.48106 0.0
C1159 C 0.54378 0.42531 0.48017 0.0
N1160 N 0.55987 0.46803 0.61946 0.0
N1161 N 0.55899 0.42704 0.35532 0.0
H1162 H 0.52274 0.39527 0.52265 0.0
H1163 H 0.52858 0.3959 0.4254 0.0
H1164 H 0.56794 0.43508 0.30776 0.0
H1165 H 0.55496 0.41149 0.35645 0.0
H1166 H 0.57003 0.48386 0.62598 0.0
H1167 H 0.55469 0.46009 0.67137 0.0
H1168 H 0.56816 0.49781 0.52414 0.0
H1169 H 0.57618 0.49902 0.42973 0.0
C1170 C 0.41996 0.20041 0.60451 0.0
C1171 C 0.43476 0.22178 0.61052 0.0
C1172 C 0.44104 0.21745 0.74565 0.0
C1173 C 0.42579 0.19615 0.74021 0.0
N1174 N 0.40501 0.1662 0.66155 0.0
N1175 N 0.46279 0.24989 0.67897 0.0
C1176 C 0.41659 0.18727 0.66849 0.0
C1177 C 0.44653 0.23002 0.67854 0.0
N1178 N 0.40876 0.19281 0.53826 0.0
N1179 N 0.44931 0.22592 0.81559 0.0
H1180 H 0.46681 0.25961 0.63121 0.0
H1181 H 0.47329 0.25622 0.72416 0.0
H1182 H 0.44613 0.21717 0.86559 0.0
H1183 H 0.45844 0.24177 0.82523 0.0
H1184 H 0.39594 0.17802 0.53339 0.0
H1185 H 0.41168 0.20171 0.48861 0.0
H1186 H 0.39937 0.15856 0.60942 0.0
H1187 H 0.40268 0.15619 0.70727 0.0
C1188 C 0.79771 0.21464 0.63337 0.0
C1189 C 0.77677 0.20984 0.62941 0.0
C1190 C 0.78018 0.22619 0.75501 0.0
C1191 C 0.79983 0.22781 0.76415 0.0
N1192 N 0.82774 0.22384 0.71322 0.0
N1193 N 0.74721 0.2093 0.68853 0.0
C1194 C 0.80877 0.22219 0.70343 0.0
C1195 C 0.76782 0.21542 0.69025 0.0
N1196 N 0.80718 0.2126 0.56926 0.0
N1197 N 0.77329 0.23481 0.80831 0.0
H1198 H 0.73753 0.20118 0.64267 0.0
H1199 H 0.73927 0.21076 0.73513 0.0
H1200 H 0.78191 0.24268 0.85658 0.0
H1201 H 0.76002 0.23591 0.80103 0.0
H1202 H 0.82294 0.21768 0.56612 0.0
H1203 H 0.79964 0.20757 0.51644 0.0
H1204 H 0.83388 0.21746 0.67552 0.0
H1205 H 0.83705 0.23086 0.76121 0.0
C1206 C 0.77495 0.58208 0.67009 0.0
C1207 C 0.77335 0.57132 0.73915 0.0
C1208 C 0.78655 0.55116 0.6735 0.0
C1209 C 0.79112 0.56419 0.60843 0.0
N1210 N 0.79075 0.59274 0.54448 0.0
N1211 N 0.77834 0.5463 0.80967 0.0
C1212 C 0.78549 0.57977 0.6064 0.0
C1213 C 0.77901 0.55576 0.74152 0.0
N1214 N 0.76592 0.59411 0.66513 0.0
N1215 N 0.78965 0.53458 0.67042 0.0
H1216 H 0.77267 0.54907 0.86039 0.0
H1217 H 0.78457 0.53666 0.81738 0.0
H1218 H 0.79576 0.5312 0.62223 0.0
H1219 H 0.78474 0.5233 0.71303 0.0
H1220 H 0.76486 0.6009 0.61429 0.0
H1221 H 0.75757 0.5956 0.71042 0.0
H1222 H 0.78939 0.60597 0.54357 0.0
H1223 H 0.79773 0.591 0.49531 0.0
C1224 C 0.46798 0.91446 0.42258 0.0
C1225 C 0.44708 0.89825 0.42493 0.0
C1226 C 0.45101 0.89092 0.55918 0.0
C1227 C 0.47178 0.90754 0.55741 0.0
N1228 N 0.50172 0.9312 0.48403 0.0
N1229 N 0.41989 0.86801 0.48716 0.0
C1230 C 0.4808 0.91807 0.48779 0.0
C1231 C 0.43904 0.88536 0.49048 0.0
N1232 N 0.47538 0.92675 0.35875 0.0
N1233 N 0.44232 0.88137 0.62731 0.0
H1234 H 0.41056 0.86387 0.43823 0.0
H1235 H 0.41392 0.85685 0.5303 0.0
H1236 H 0.45066 0.88465 0.67847 0.0
H1237 H 0.42659 0.871 0.63443 0.0
H1238 H 0.48958 0.94043 0.3569 0.0
H1239 H 0.46681 0.92378 0.30815 0.0
H1240 H 0.50962 0.93806 0.43339 0.0
H1241 H 0.51152 0.93369 0.53063 0.0
C1242 C 0.09706 0.57966 0.48258 0.0
C1243 C 0.10006 0.57433 0.55774 0.0
C1244 C 0.10017 0.5437 0.50861 0.0
C1245 C 0.09594 0.54833 0.43374 0.0
N1246 N 0.09731 0.57386 0.34533 0.0
N1247 N 0.11295 0.55662 0.63655 0.0
C1248 C 0.09672 0.56743 0.41936 0.0
C1249 C 0.10465 0.55824 0.5687 0.0
N1250 N 0.09387 0.59602 0.47237 0.0
N1251 N 0.09827 0.52486 0.52424 0.0
H1252 H 0.11708 0.56745 0.68057 0.0
H1253 H 0.11809 0.5461 0.64531 0.0
H1254 H 0.09447 0.5134 0.48302 0.0
H1255 H 0.09874 0.51987 0.57977 0.0
H1256 H 0.08899 0.59923 0.42066 0.0
H1257 H 0.0955 0.60605 0.51722 0.0
H1258 H 0.09951 0.58839 0.33092 0.0
H1259 H 0.09763 0.56539 0.29806 0.0
C1260 C 0.43941 0.56184 0.56362 0.0
C1261 C 0.43426 0.54089 0.57283 0.0
C1262 C 0.44434 0.54017 0.43954 0.0
C1263 C 0.4528 0.56189 0.43507 0.0
N1264 N 0.46019 0.59407 0.49542 0.0
N1265 N 0.43477 0.51083 0.5225 0.0
C1266 C 0.45062 0.57294 0.49742 0.0
C1267 C 0.43726 0.53011 0.51134 0.0
N1268 N 0.43325 0.571 0.61751 0.0
N1269 N 0.44283 0.52912 0.37477 0.0
H1270 H 0.4303 0.50297 0.57468 0.0
H1271 H 0.43908 0.5034 0.4819 0.0
H1272 H 0.44743 0.53603 0.32085 0.0
H1273 H 0.43499 0.51299 0.37314 0.0
H1274 H 0.43483 0.58559 0.61029 0.0
H1275 H 0.42468 0.56316 0.66603 0.0
H1276 H 0.4612 0.60304 0.54297 0.0
H1277 H 0.46855 0.60283 0.44808 0.0
C1278 C 0.57594 0.80527 0.28622 0.0
C1279 C 0.56377 0.79501 0.2207 0.0
C1280 C 0.5476 0.76189 0.28918 0.0
C1281 C 0.5595 0.77222 0.35524 0.0
N1282 N 0.58115 0.80409 0.42322 0.0
N1283 N 0.53507 0.76495 0.16374 0.0
C1284 C 0.57244 0.79406 0.3558 0.0
C1285 C 0.54858 0.77374 0.22364 0.0
N1286 N 0.59163 0.82538 0.28084 0.0
N1287 N 0.5364 0.74073 0.28727 0.0
H1288 H 0.53551 0.77332 0.11495 0.0
H1289 H 0.52234 0.75002 0.16526 0.0
H1290 H 0.53533 0.73145 0.33389 0.0
H1291 H 0.52939 0.73225 0.23773 0.0
H1292 H 0.60267 0.83283 0.3237 0.0
H1293 H 0.59458 0.83429 0.23126 0.0
H1294 H 0.58899 0.82014 0.42905 0.0
H1295 H 0.57888 0.7963 0.47525 0.0
C1296 C 0.20141 0.76552 0.42048 0.0
C1297 C 0.2121 0.78754 0.42038 0.0
C1298 C 0.20124 0.78725 0.28713 0.0
C1299 C 0.18827 0.76546 0.29142 0.0
N1300 N 0.17424 0.73374 0.36377 0.0
N1301 N 0.2188 0.81936 0.3576 0.0
C1302 C 0.18781 0.75454 0.35868 0.0
C1303 C 0.21128 0.79845 0.35458 0.0
N1304 N 0.20497 0.75511 0.47772 0.0
N1305 N 0.20398 0.79733 0.21867 0.0
H1306 H 0.22568 0.82836 0.40612 0.0
H1307 H 0.21632 0.82754 0.31432 0.0
H1308 H 0.19656 0.78984 0.16798 0.0
H1309 H 0.21509 0.81283 0.21051 0.0
H1310 H 0.19912 0.73917 0.47696 0.0
H1311 H 0.2155 0.7626 0.5222 0.0
H1312 H 0.17149 0.72536 0.41457 0.0
H1313 H 0.16471 0.72509 0.31823 0.0
C1314 C 0.22482 0.40739 0.29326 0.0
C1315 C 0.23726 0.42461 0.24525 0.0
C1316 C 0.22688 0.44602 0.3186 0.0
C1317 C 0.21539 0.4291 0.36897 0.0
N1318 N 0.20788 0.39564 0.4165 0.0
N1319 N 0.25367 0.4613 0.2212 0.0
C1320 C 0.21577 0.41039 0.36012 0.0
C1321 C 0.23941 0.44427 0.26081 0.0
N1322 N 0.22055 0.38794 0.27282 0.0
N1323 N 0.22502 0.46333 0.32326 0.0
H1324 H 0.26318 0.46054 0.17886 0.0
H1325 H 0.25742 0.47637 0.2351 0.0
H1326 H 0.2159 0.46517 0.36441 0.0
H1327 H 0.23117 0.47516 0.28259 0.0
H1328 H 0.20965 0.37459 0.30115 0.0
H1329 H 0.22634 0.38484 0.22324 0.0
H1330 H 0.20957 0.38258 0.41653 0.0
H1331 H 0.20155 0.3975 0.46731 0.0
C1332 C 0.19032 0.41184 0.86071 0.0
C1333 C 0.21 0.42993 0.86777 0.0
C1334 C 0.20192 0.44548 0.75872 0.0
C1335 C 0.18368 0.42626 0.7449 0.0
N1336 N 0.16223 0.3899 0.77559 0.0
N1337 N 0.23576 0.4633 0.81881 0.0
C1338 C 0.1782 0.40911 0.79429 0.0
C1339 C 0.2161 0.4467 0.81598 0.0
N1340 N 0.183 0.39744 0.91835 0.0
N1341 N 0.20547 0.46263 0.71795 0.0
H1342 H 0.24668 0.46471 0.85942 0.0
H1343 H 0.2418 0.47487 0.7771 0.0
H1344 H 0.19527 0.46227 0.67608 0.0
H1345 H 0.21744 0.47751 0.73054 0.0
H1346 H 0.16792 0.38495 0.91965 0.0
H1347 H 0.19125 0.39914 0.96888 0.0
H1348 H 0.15918 0.37649 0.80496 0.0
H1349 H 0.1532 0.38695 0.72647 0.0
C1350 C 0.58066 0.78075 0.85482 0.0
C1351 C 0.58139 0.80013 0.85272 0.0
C1352 C 0.5744 0.79592 0.71445 0.0
C1353 C 0.57746 0.77863 0.71461 0.0
N1354 N 0.58602 0.75584 0.78447 0.0
N1355 N 0.58175 0.8277 0.77799 0.0
C1356 C 0.58103 0.77118 0.78473 0.0
C1357 C 0.57877 0.80808 0.78199 0.0
N1358 N 0.57918 0.77127 0.92367 0.0
N1359 N 0.56707 0.80052 0.64985 0.0
H1360 H 0.5858 0.83757 0.82525 0.0
H1361 H 0.58216 0.83495 0.72627 0.0
H1362 H 0.56311 0.79143 0.6003 0.0
H1363 H 0.56278 0.81185 0.64837 0.0
H1364 H 0.57657 0.75622 0.92816 0.0
H1365 H 0.57835 0.7776 0.97613 0.0
H1366 H 0.59115 0.75161 0.83323 0.0
H1367 H 0.58673 0.74847 0.73461 0.0
C1368 C 0.22861 0.8039 0.92232 0.0
C1369 C 0.21826 0.78194 0.92238 0.0
C1370 C 0.22622 0.7816 0.78597 0.0
C1371 C 0.23592 0.8035 0.7854 0.0
N1372 N 0.25132 0.83579 0.85431 0.0
N1373 N 0.21125 0.75003 0.8619 0.0
C1374 C 0.23879 0.81474 0.85433 0.0
C1375 C 0.21844 0.77083 0.85649 0.0
N1376 N 0.22765 0.81429 0.98562 0.0
N1377 N 0.22351 0.7711 0.71854 0.0
H1378 H 0.20548 0.74181 0.91307 0.0
H1379 H 0.21257 0.74125 0.81807 0.0
H1380 H 0.22983 0.77855 0.66654 0.0
H1381 H 0.21429 0.75511 0.71315 0.0
H1382 H 0.23269 0.83007 0.98607 0.0
H1383 H 0.22062 0.80691 0.03699 0.0
H1384 H 0.25558 0.84483 0.90387 0.0
H1385 H 0.25905 0.84403 0.80506 0.0
C1386 C 0.07259 0.52897 0.94075 0.0
C1387 C 0.09069 0.54753 0.9187 0.0
C1388 C 0.10796 0.54727 0.03836 0.0
C1389 C 0.08987 0.52876 0.06004 0.0
N1390 N 0.05741 0.49898 0.02454 0.0
N1391 N 0.12716 0.57136 0.93581 0.0
C1392 C 0.07299 0.51862 0.00856 0.0
C1393 C 0.10891 0.55573 0.96422 0.0
N1394 N 0.05462 0.52193 0.89999 0.0
N1395 N 0.12375 0.55732 0.08991 0.0
H1396 H 0.12838 0.57766 0.88117 0.0
H1397 H 0.14138 0.57672 0.96307 0.0
H1398 H 0.12376 0.55133 0.14412 0.0
H1399 H 0.13624 0.57214 0.08093 0.0
H1400 H 0.04037 0.51 0.91889 0.0
H1401 H 0.0535 0.52899 0.85005 0.0
H1402 H 0.04567 0.48994 0.98578 0.0
H1403 H 0.05738 0.49093 0.07372 0.0
C1404 C 0.45991 0.53913 0.95369 0.0
C1405 C 0.43831 0.52565 0.96323 0.0
C1406 C 0.44029 0.53829 0.09476 0.0
C1407 C 0.46216 0.54958 0.08854 0.0
N1408 N 0.49328 0.56028 0.01498 0.0
N1409 N 0.40758 0.51173 0.04162 0.0
C1410 C 0.47213 0.55015 0.0184 0.0
C1411 C 0.42836 0.52512 0.03338 0.0
N1412 N 0.46874 0.54129 0.88289 0.0
N1413 N 0.431 0.54061 0.15883 0.0
H1414 H 0.39816 0.5027 0.9965 0.0
H1415 H 0.3998 0.50875 0.09385 0.0
H1416 H 0.43942 0.55049 0.20394 0.0
H1417 H 0.41508 0.5343 0.16464 0.0
H1418 H 0.48393 0.55247 0.8701 0.0
H1419 H 0.46043 0.53287 0.83489 0.0
H1420 H 0.50155 0.55911 0.96893 0.0
H1421 H 0.50274 0.56902 0.06049 0.0
C1422 C 0.46403 0.92494 0.98415 0.0
C1423 C 0.45501 0.91152 0.92004 0.0
C1424 C 0.42079 0.8962 0.98108 0.0
C1425 C 0.43007 0.9087 0.04671 0.0
N1426 N 0.46085 0.93236 0.11732 0.0
N1427 N 0.42579 0.88133 0.86472 0.0
C1428 C 0.45181 0.92214 0.05045 0.0
C1429 C 0.43363 0.89628 0.92043 0.0
N1430 N 0.48386 0.94122 0.98025 0.0
N1431 N 0.39971 0.88446 0.97633 0.0
H1432 H 0.43486 0.88041 0.82096 0.0
H1433 H 0.41084 0.86866 0.86602 0.0
H1434 H 0.38992 0.88339 0.02112 0.0
H1435 H 0.3919 0.87688 0.92633 0.0
H1436 H 0.49028 0.95299 0.02116 0.0
H1437 H 0.49348 0.94419 0.93299 0.0
H1438 H 0.47679 0.94026 0.12646 0.0
H1439 H 0.45247 0.93169 0.16622 0.0
C1440 C 0.22227 0.3433 0.11466 0.0
C1441 C 0.21246 0.35022 0.06194 0.0
C1442 C 0.18398 0.31465 0.04482 0.0
C1443 C 0.19406 0.30765 0.09578 0.0
N1444 N 0.22449 0.31428 0.16685 0.0
N1445 N 0.18695 0.34228 0.96281 0.0
C1446 C 0.21375 0.32168 0.12698 0.0
C1447 C 0.19419 0.3358 0.02276 0.0
N1448 N 0.23915 0.35734 0.15558 0.0
N1449 N 0.16428 0.30129 0.0202 0.0
H1450 H 0.19427 0.35762 0.94404 0.0
H1451 H 0.17493 0.33219 0.92686 0.0
H1452 H 0.15628 0.28564 0.03475 0.0
H1453 H 0.15523 0.30601 0.99042 0.0
H1454 H 0.24535 0.35334 0.20171 0.0
H1455 H 0.24624 0.37327 0.14709 0.0
H1456 H 0.23984 0.32347 0.18406 0.0
H1457 H 0.21865 0.29853 0.177 0.0
C1458 C 0.68033 0.90358 0.06631 0.0
C1459 C 0.6875 0.89102 0.10045 0.0
C1460 C 0.65282 0.86058 0.08907 0.0
C1461 C 0.64616 0.87269 0.04804 0.0
N1462 N 0.65387 0.90525 0.99061 0.0
N1463 N 0.68182 0.85694 0.13043 0.0
C1464 C 0.66005 0.89405 0.03424 0.0
C1465 C 0.67406 0.86936 0.10858 0.0
N1466 N 0.69254 0.92467 0.06775 0.0
N1467 N 0.63894 0.84062 0.10938 0.0
H1468 H 0.6974 0.86257 0.14309 0.0
H1469 H 0.67328 0.84082 0.12871 0.0
H1470 H 0.62345 0.83298 0.09278 0.0
H1471 H 0.64242 0.83206 0.14774 0.0
H1472 H 0.68743 0.93479 0.05123 0.0
H1473 H 0.70732 0.93222 0.09195 0.0
H1474 H 0.66398 0.92013 0.97063 0.0
H1475 H 0.63879 0.89922 0.97025 0.0
C1476 C 0.144 0.79953 0.09988 0.0
C1477 C 0.13548 0.7836 0.04365 0.0
C1478 C 0.10933 0.79311 0.01091 0.0
C1479 C 0.11695 0.80804 0.07097 0.0
N1480 N 0.13872 0.82261 0.18268 0.0
N1481 N 0.10798 0.76262 0.95519 0.0
C1482 C 0.13346 0.81041 0.11847 0.0
C1483 C 0.11752 0.77962 0.00192 0.0
N1484 N 0.1627 0.805 0.13283 0.0
N1485 N 0.09502 0.79247 0.96012 0.0
H1486 H 0.11358 0.75242 0.94721 0.0
H1487 H 0.09361 0.75762 0.92971 0.0
H1488 H 0.08864 0.80209 0.96433 0.0
H1489 H 0.0907 0.78361 0.91008 0.0
H1490 H 0.17077 0.81797 0.16779 0.0
H1491 H 0.17114 0.79771 0.11964 0.0
H1492 H 0.1491 0.82317 0.22399 0.0
H1493 H 0.13128 0.83074 0.19861 0.0
C1494 C 0.31911 0.20972 0.48304 0.0
C1495 C 0.31169 0.20385 0.40666 0.0
C1496 C 0.34714 0.21822 0.35908 0.0
C1497 C 0.35456 0.2238 0.43547 0.0
N1498 N 0.34862 0.22992 0.56644 0.0
N1499 N 0.31845 0.20769 0.27058 0.0
C1500 C 0.34082 0.22118 0.49631 0.0
C1501 C 0.32571 0.20984 0.34419 0.0
N1502 N 0.30553 0.20339 0.54328 0.0
N1503 N 0.36033 0.21982 0.30152 0.0
H1504 H 0.30281 0.20191 0.25815 0.0
H1505 H 0.32802 0.21351 0.22264 0.0
H1506 H 0.37617 0.22612 0.30986 0.0
H1507 H 0.35541 0.21361 0.2468 0.0
H1508 H 0.31007 0.20478 0.60061 0.0
H1509 H 0.28953 0.19571 0.53627 0.0
H1510 H 0.33956 0.23036 0.61112 0.0
H1511 H 0.36448 0.23845 0.57765 0.0
C1512 C 0.77191 0.11881 0.34883 0.0
C1513 C 0.77718 0.13101 0.4167 0.0
C1514 C 0.80202 0.1201 0.45292 0.0
C1515 C 0.7972 0.10833 0.38402 0.0
N1516 N 0.77457 0.09243 0.27582 0.0
N1517 N 0.7925 0.13882 0.54288 0.0
C1518 C 0.78117 0.10643 0.33485 0.0
C1519 C 0.79076 0.13023 0.47179 0.0
N1520 N 0.75874 0.11971 0.29636 0.0
N1521 N 0.81804 0.12249 0.49834 0.0
H1522 H 0.7842 0.1461 0.55871 0.0
H1523 H 0.80051 0.13702 0.58848 0.0
H1524 H 0.82637 0.11496 0.48784 0.0
H1525 H 0.82401 0.13295 0.54381 0.0
H1526 H 0.7564 0.11347 0.24128 0.0
H1527 H 0.75075 0.12761 0.30658 0.0
H1528 H 0.76164 0.08874 0.24212 0.0
H1529 H 0.78103 0.08309 0.26454 0.0
C1530 C 0.88811 0.68121 0.48865 0.0
C1531 C 0.89229 0.68808 0.41122 0.0
C1532 C 0.87714 0.65223 0.36655 0.0
C1533 C 0.87348 0.64537 0.44429 0.0
N1534 N 0.88095 0.65363 0.5787 0.0
N1535 N 0.89625 0.68092 0.27912 0.0
C1536 C 0.88078 0.66 0.50515 0.0
C1537 C 0.88856 0.67381 0.351 0.0
N1538 N 0.8899 0.69456 0.54598 0.0
N1539 N 0.8687 0.63839 0.30739 0.0
H1540 H 0.90496 0.69667 0.26607 0.0
H1541 H 0.89583 0.67131 0.23478 0.0
H1542 H 0.86026 0.62242 0.31496 0.0
H1543 H 0.86871 0.64284 0.25061 0.0
H1544 H 0.88481 0.6898 0.60199 0.0
H1545 H 0.89476 0.71014 0.53643 0.0
H1546 H 0.88786 0.66384 0.62446 0.0
H1547 H 0.87615 0.63824 0.59235 0.0
C1548 C 0.79044 0.67441 0.84777 0.0
C1549 C 0.80162 0.68846 0.90778 0.0
C1550 C 0.78785 0.65975 -0.00042 0.0
C1551 C 0.77996 0.64549 0.93753 0.0
N1552 N 0.77512 0.63936 0.80025 0.0
N1553 N 0.8127 0.69451 0.0405 0.0
C1554 C 0.78132 0.65279 0.86097 0.0
C1555 C 0.8006 0.6812 0.98394 0.0
N1556 N 0.78827 0.68177 0.77844 0.0
N1557 N 0.78282 0.65277 0.07348 0.0
H1558 H 0.82253 0.7103 0.03144 0.0
H1559 H 0.81432 0.6896 0.09482 0.0
H1560 H 0.77299 0.63718 0.08672 0.0
H1561 H 0.78653 0.66259 0.12074 0.0
H1562 H 0.77854 0.67226 0.73499 0.0
H1563 H 0.79456 0.69755 0.76727 0.0
H1564 H 0.77829 0.64418 0.7432 0.0
H1565 H 0.76811 0.62339 0.80636 0.0
C1566 C 0.33928 0.10571 0.89695 0.0
C1567 C 0.34727 0.12444 0.93945 0.0
C1568 C 0.31505 0.12502 0.91829 0.0
C1569 C 0.30629 0.10528 0.88262 0.0
N1570 N 0.30915 0.07584 0.84265 0.0
N1571 N 0.34275 0.15167 0.99452 0.0
C1572 C 0.31821 0.09542 0.87251 0.0
C1573 C 0.33509 0.13395 0.95162 0.0
N1574 N 0.35186 0.0978 0.87976 0.0
N1575 N 0.30463 0.13576 0.91634 0.0
H1576 H 0.35802 0.1599 0.01373 0.0
H1577 H 0.33371 0.15772 0.01462 0.0
H1578 H 0.29032 0.13004 0.88959 0.0
H1579 H 0.31087 0.15107 0.93415 0.0
H1580 H 0.34787 0.08567 0.84129 0.0
H1581 H 0.36695 0.10415 0.90049 0.0
H1582 H 0.3161 0.06672 0.84247 0.0
H1583 H 0.294 0.06805 0.82199 0.0
C1584 C 0.87291 0.19333 0.93625 0.0
C1585 C 0.89307 0.20564 0.90512 0.0
C1586 C 0.89172 0.23717 0.93421 0.0
C1587 C 0.87085 0.22472 0.95823 0.0
N1588 N 0.84014 0.19098 0.96641 0.0
N1589 N 0.9212 0.23907 0.86738 0.0
C1590 C 0.86106 0.2028 0.95543 0.0
C1591 C 0.90231 0.22752 0.90169 0.0
N1592 N 0.86498 0.17257 0.94766 0.0
N1593 N 0.90166 0.25812 0.94553 0.0
H1594 H 0.92998 0.23271 0.84713 0.0
H1595 H 0.92766 0.25475 0.85486 0.0
H1596 H 0.89446 0.26567 0.97003 0.0
H1597 H 0.91746 0.26785 0.93678 0.0
H1598 H 0.85149 0.16341 0.97877 0.0
H1599 H 0.87265 0.16471 0.93168 0.0
H1600 H 0.83179 0.17508 0.95646 0.0
H1601 H 0.83067 0.19725 0.97782 0.0
C1602 C 0.67402 0.77703 0.59005 0.0
C1603 C 0.68678 0.79735 0.56108 0.0
C1604 C 0.65735 0.79508 0.49038 0.0
C1605 C 0.64503 0.77411 0.51346 0.0
N1606 N 0.6429 0.74377 0.57221 0.0
N1607 N 0.69195 0.82325 0.46643 0.0
C1608 C 0.65374 0.76465 0.55947 0.0
C1609 C 0.67886 0.80564 0.50598 0.0
N1610 N 0.68082 0.76985 0.64905 0.0
N1611 N 0.64844 0.80541 0.45758 0.0
H1612 H 0.70796 0.83102 0.47362 0.0
H1613 H 0.68712 0.82876 0.4204 0.0
H1614 H 0.63255 0.79875 0.44861 0.0
H1615 H 0.65658 0.82131 0.44711 0.0
H1616 H 0.67133 0.75602 0.67781 0.0
H1617 H 0.69541 0.77854 0.67404 0.0
H1618 H 0.64928 0.73574 0.59889 0.0
H1619 H 0.62819 0.73415 0.5494 0.0
C1620 C 0.20545 0.88312 0.54476 0.0
C1621 C 0.20593 0.89059 0.62034 0.0
C1622 C 0.22705 0.87583 0.66435 0.0
C1623 C 0.22659 0.86845 0.58863 0.0
N1624 N 0.22104 0.87045 0.45329 0.0
N1625 N 0.22153 0.89902 0.74614 0.0
C1626 C 0.21763 0.8739 0.52768 0.0
C1627 C 0.21814 0.88852 0.67831 0.0
N1628 N 0.19241 0.88358 0.49049 0.0
N1629 N 0.23493 0.86989 0.72372 0.0
H1630 H 0.21542 0.90864 0.75765 0.0
H1631 H 0.23196 0.89981 0.78773 0.0
H1632 H 0.24225 0.86124 0.71613 0.0
H1633 H 0.23314 0.8725 0.78131 0.0
H1634 H 0.18967 0.87613 0.43753 0.0
H1635 H 0.18295 0.88991 0.50034 0.0
H1636 H 0.21655 0.87585 0.40597 0.0
H1637 H 0.23035 0.86415 0.43906 0.0
C1638 C 0.1164 0.34465 0.61619 0.0
C1639 C 0.13378 0.35169 0.56664 0.0
C1640 C 0.12755 0.31631 0.55419 0.0
C1641 C 0.10959 0.3091 0.60053 0.0
N1642 N 0.08449 0.31548 0.66317 0.0
N1643 N 0.15281 0.3438 0.47349 0.0
C1644 C 0.10328 0.32301 0.62786 0.0
C1645 C 0.13842 0.33737 0.5311 0.0
N1646 N 0.11292 0.35861 0.65479 0.0
N1647 N 0.13486 0.30331 0.53535 0.0
H1648 H 0.16075 0.35905 0.45366 0.0
H1649 H 0.15534 0.33368 0.44008 0.0
H1650 H 0.1276 0.28783 0.55217 0.0
H1651 H 0.14914 0.30832 0.50909 0.0
H1652 H 0.10207 0.35448 0.6987 0.0
H1653 H 0.12188 0.37457 0.64709 0.0
H1654 H 0.078 0.3246 0.67705 0.0
H1655 H 0.07449 0.29971 0.67257 0.0
C1656 C 0.01627 0.53962 0.73904 0.0
C1657 C 0.02424 0.5598 0.76976 0.0
C1658 C 0.99097 0.55802 0.74663 0.0
C1659 C 0.98237 0.53695 0.72457 0.0
N1660 N 0.98583 0.50647 0.71407 0.0
N1661 N 0.01918 0.5879 0.80958 0.0
C1662 C 0.99476 0.52741 0.72425 0.0
C1663 C 0.01161 0.56897 0.77528 0.0
N1664 N 0.02937 0.53231 0.72206 0.0
N1665 N 0.97962 0.56769 0.73787 0.0
H1666 H 0.03439 0.59654 0.82927 0.0
H1667 H 0.01007 0.59443 0.8232 0.0
H1668 H 0.96453 0.56015 0.71658 0.0
H1669 H 0.98568 0.58354 0.74547 0.0
H1670 H 0.02473 0.51856 0.69218 0.0
H1671 H 0.04532 0.54097 0.73092 0.0
H1672 H 0.99381 0.49844 0.72177 0.0
H1673 H 0.97 0.49672 0.70547 0.0
C1674 C 0.45849 0.47196 0.77195 0.0
C1675 C 0.44298 0.47007 0.72001 0.0
C1676 C 0.44561 0.44298 0.64936 0.0
C1677 C 0.46286 0.44677 0.69541 0.0
N1678 N 0.48759 0.4668 0.79448 0.0
N1679 N 0.42308 0.4555 0.60417 0.0
C1680 C 0.46972 0.46165 0.75558 0.0
C1681 C 0.43674 0.45591 0.65762 0.0
N1682 N 0.46219 0.48328 0.83794 0.0
N1683 N 0.43741 0.42669 0.59911 0.0
H1684 H 0.4161 0.46459 0.60838 0.0
H1685 H 0.41983 0.44733 0.55266 0.0
H1686 H 0.44349 0.41686 0.59197 0.0
H1687 H 0.42356 0.42177 0.56969 0.0
H1688 H 0.47164 0.48336 0.88222 0.0
H1689 H 0.45433 0.49112 0.85187 0.0
H1690 H 0.49468 0.47926 0.83235 0.0
H1691 H 0.49641 0.45977 0.78426 0.0
C1692 C 0.54075 0.99319 0.68096 0.0
C1693 C 0.53407 0.98523 0.75619 0.0
C1694 C 0.54808 0.02037 0.807 0.0
C1695 C 0.55459 0.02835 0.73176 0.0
N1696 N 0.56185 0.02326 0.60125 0.0
N1697 N 0.53618 0.99097 0.89294 0.0
C1698 C 0.55243 0.015 0.66999 0.0
C1699 C 0.53929 0.99879 0.81995 0.0
N1700 N 0.53506 0.98002 0.61953 0.0
N1701 N 0.54929 0.03324 0.86529 0.0
H1702 H 0.53013 0.97523 0.90412 0.0
H1703 H 0.54143 0.00017 0.94206 0.0
H1704 H 0.55601 0.0492 0.85857 0.0
H1705 H 0.54243 0.02801 0.91889 0.0
H1706 H 0.53709 0.98491 0.56254 0.0
H1707 H 0.52721 0.96397 0.62522 0.0
H1708 H 0.56264 0.01449 0.55618 0.0
H1709 H 0.57055 0.0392 0.5917 0.0
C1710 C 0.44183 0.00893 0.22968 0.0
C1711 C 0.46351 0.01974 0.21623 0.0
C1712 C 0.46504 0.98836 0.24501 0.0
C1713 C 0.4438 0.97812 0.26561 0.0
N1714 N 0.41234 0.97905 0.287 0.0
N1715 N 0.49645 0.02099 0.22449 0.0
C1716 C 0.43224 0.98848 0.26031 0.0
C1717 C 0.47531 0.00979 0.22731 0.0
N1718 N 0.43035 0.01796 0.21087 0.0
N1719 N 0.47528 0.97746 0.23963 0.0
H1720 H 0.50468 0.03678 0.2124 0.0
H1721 H 0.50592 0.0151 0.24109 0.0
H1722 H 0.46843 0.96173 0.2524 0.0
H1723 H 0.49001 0.98353 0.21586 0.0
H1724 H 0.41424 0.01014 0.21161 0.0
H1725 H 0.43688 0.0329 0.18835 0.0
H1726 H 0.40382 0.98657 0.29256 0.0
H1727 H 0.40482 0.96407 0.3094 0.0
C1728 C 0.00916 0.44788 0.3555 0.0
C1729 C 0.0215 0.46713 0.31777 0.0
C1730 C 0.99068 0.46331 0.2524 0.0
C1731 C 0.97809 0.44575 0.29825 0.0
N1732 N 0.97492 0.42205 0.39885 0.0
N1733 N 0.02335 0.49505 0.24112 0.0
C1734 C 0.98719 0.43811 0.35105 0.0
C1735 C 0.01211 0.47532 0.26873 0.0
N1736 N 0.01844 0.43859 0.39333 0.0
N1737 N 0.98226 0.46821 0.19171 0.0
H1738 H 0.03883 0.50477 0.25488 0.0
H1739 H 0.01677 0.50252 0.21166 0.0
H1740 H 0.96669 0.45933 0.17638 0.0
H1741 H 0.9911 0.47967 0.15172 0.0
H1742 H 0.01031 0.42359 0.41515 0.0
H1743 H 0.03447 0.44512 0.39684 0.0
H1744 H 0.98067 0.41745 0.44471 0.0
H1745 H 0.9588 0.4142 0.39614 0.0
C1746 C 0.55046 0.53786 0.20964 0.0
C1747 C 0.55808 0.53322 0.27702 0.0
C1748 C 0.54552 0.55211 0.35493 0.0
C1749 C 0.5348 0.55343 0.28978 0.0
N1750 N 0.52513 0.54561 0.15609 0.0
N1751 N 0.56362 0.53622 0.41407 0.0
C1752 C 0.53698 0.54609 0.217 0.0
C1753 C 0.55591 0.54054 0.34979 0.0
N1754 N 0.55594 0.53433 0.13867 0.0
N1755 N 0.54625 0.56245 0.42091 0.0
H1756 H 0.57294 0.52948 0.41149 0.0
H1757 H 0.56019 0.53862 0.46985 0.0
H1758 H 0.53916 0.57143 0.42588 0.0
H1759 H 0.55538 0.56373 0.4682 0.0
H1760 H 0.55247 0.53932 0.08774 0.0
H1761 H 0.56581 0.52839 0.13065 0.0
H1762 H 0.52424 0.53815 0.1044 0.0
H1763 H 0.5147 0.55103 0.15902 0.0
loop_
_geom_bond_atom_site_label_1
_geom_bond_atom_site_label_2
_geom_bond_distance
_geom_bond_site_symmetry_2
_ccdc_geom_bond_type
C0 O1 1.160 . S
C0 O7 1.185 . S
O1 C0 1.160 . S
O2 Zn3 1.899 . S
O2 C10 1.284 . S
Zn3 O2 1.899 . S
Zn3 O4 2.032 . S
Zn3 O7 2.086 . S
Zn3 O12 1.977 . S
O4 Zn3 2.032 . S
O4 C8 1.278 . S
C5 O6 1.203 . S
C5 O12 1.267 . S
O6 C5 1.203 . S
O7 C0 1.185 . S
O7 Zn3 2.086 . S
C8 O4 1.278 . S
C8 O9 1.211 . S
O9 C8 1.211 . S
C10 O2 1.284 . S
C10 O11 1.273 . S
O11 C10 1.273 . S
O12 Zn3 1.977 . S
O12 C5 1.267 . S
C13 O14 1.160 . S
C13 O20 1.185 . S
O14 C13 1.160 . S
O15 Zn16 1.899 . S
O15 C23 1.284 . S
Zn16 O15 1.899 . S
Zn16 O17 2.032 . S
Zn16 O20 2.086 . S
Zn16 O25 1.977 . S
O17 Zn16 2.032 . S
O17 C21 1.278 . S
C18 O19 1.203 . S
C18 O25 1.267 . S
O19 C18 1.203 . S
O20 C13 1.185 . S
O20 Zn16 2.086 . S
C21 O17 1.278 . S
C21 O22 1.211 . S
O22 C21 1.211 . S
C23 O15 1.284 . S
C23 O24 1.273 . S
O24 C23 1.273 . S
O25 Zn16 1.977 . S
O25 C18 1.267 . S
C26 O27 1.160 . S
C26 O33 1.185 . S
O27 C26 1.160 . S
O28 Zn29 1.899 . S
O28 C36 1.284 . S
Zn29 O28 1.899 . S
Zn29 O30 2.032 . S
Zn29 O33 2.086 . S
Zn29 O38 1.977 . S
O30 Zn29 2.032 . S
O30 C34 1.278 . S
C31 O32 1.203 . S
C31 O38 1.267 . S
O32 C31 1.203 . S
O33 C26 1.185 . S
O33 Zn29 2.086 . S
C34 O30 1.278 . S
C34 O35 1.211 . S
O35 C34 1.211 . S
C36 O28 1.284 . S
C36 O37 1.273 . S
O37 C36 1.273 . S
O38 Zn29 1.977 . S
O38 C31 1.267 . S
C39 O40 1.160 . S
C39 O46 1.185 . S
O40 C39 1.160 . S
O41 Zn42 1.899 . S
O41 C49 1.284 . S
Zn42 O41 1.899 . S
Zn42 O43 2.032 . S
Zn42 O46 2.086 . S
Zn42 O51 1.977 . S
O43 Zn42 2.032 . S
O43 C47 1.278 . S
C44 O45 1.203 . S
C44 O51 1.267 . S
O45 C44 1.203 . S
O46 C39 1.185 . S
O46 Zn42 2.086 . S
C47 O43 1.278 . S
C47 O48 1.211 . S
O48 C47 1.211 . S
C49 O41 1.284 . S
C49 O50 1.273 . S
O50 C49 1.273 . S
O51 Zn42 1.977 . S
O51 C44 1.267 . S
C52 O53 1.160 . S
C52 O59 1.185 . S
O53 C52 1.160 . S
O54 Zn55 1.899 . S
O54 C62 1.284 . S
Zn55 O54 1.899 . S
Zn55 O56 2.032 . S
Zn55 O59 2.086 . S
Zn55 O64 1.977 . S
O56 Zn55 2.032 . S
O56 C60 1.278 . S
C57 O58 1.203 . S
C57 O64 1.267 . S
O58 C57 1.203 . S
O59 C52 1.185 . S
O59 Zn55 2.086 . S
C60 O56 1.278 . S
C60 O61 1.211 . S
O61 C60 1.211 . S
C62 O54 1.284 . S
C62 O63 1.273 . S
O63 C62 1.273 . S
O64 Zn55 1.977 . S
O64 C57 1.267 . S
C65 O66 1.160 . S
C65 O72 1.185 . S
O66 C65 1.160 . S
O67 Zn68 1.899 . S
O67 C75 1.284 . S
Zn68 O67 1.899 . S
Zn68 O69 2.032 . S
Zn68 O72 2.086 . S
Zn68 O77 1.977 . S
O69 Zn68 2.032 . S
O69 C73 1.278 . S
C70 O71 1.203 . S
C70 O77 1.267 . S
O71 C70 1.203 . S
O72 C65 1.185 . S
O72 Zn68 2.086 . S
C73 O69 1.278 . S
C73 O74 1.211 . S
O74 C73 1.211 . S
C75 O67 1.284 . S
C75 O76 1.273 . S
O76 C75 1.273 . S
O77 Zn68 1.977 . S
O77 C70 1.267 . S
C78 O79 1.160 . S
C78 O85 1.185 . S
O79 C78 1.160 . S
O80 Zn81 1.899 . S
O80 C88 1.284 . S
Zn81 O80 1.899 . S
Zn81 O82 2.032 . S
Zn81 O85 2.086 . S
Zn81 O90 1.977 . S
O82 Zn81 2.032 . S
O82 C86 1.278 . S
C83 O84 1.203 . S
C83 O90 1.267 . S
O84 C83 1.203 . S
O85 C78 1.185 . S
O85 Zn81 2.086 . S
C86 O82 1.278 . S
C86 O87 1.211 . S
O87 C86 1.211 . S
C88 O80 1.284 . S
C88 O89 1.273 . S
O89 C88 1.273 . S
O90 Zn81 1.977 . S
O90 C83 1.267 . S
C91 O92 1.160 . S
C91 O98 1.185 . S
O92 C91 1.160 . S
O93 Zn94 1.899 . S
O93 C101 1.284 . S
Zn94 O93 1.899 . S
Zn94 O95 2.032 . S
Zn94 O98 2.086 . S
Zn94 O103 1.977 . S
O95 Zn94 2.032 . S
O95 C99 1.278 . S
C96 O97 1.203 . S
C96 O103 1.267 . S
O97 C96 1.203 . S
O98 C91 1.185 . S
O98 Zn94 2.086 . S
C99 O95 1.278 . S
C99 O100 1.211 . S
O100 C99 1.211 . S
C101 O93 1.284 . S
C101 O102 1.273 . S
O102 C101 1.273 . S
O103 Zn94 1.977 . S
O103 C96 1.267 . S
C104 O105 1.160 . S
C104 O111 1.185 . S
O105 C104 1.160 . S
O106 Zn107 1.899 . S
O106 C114 1.284 . S
Zn107 O106 1.899 . S
Zn107 O108 2.032 . S
Zn107 O111 2.086 . S
Zn107 O116 1.977 . S
O108 Zn107 2.032 . S
O108 C112 1.278 . S
C109 O110 1.203 . S
C109 O116 1.267 . S
O110 C109 1.203 . S
O111 C104 1.185 . S
O111 Zn107 2.086 . S
C112 O108 1.278 . S
C112 O113 1.211 . S
O113 C112 1.211 . S
C114 O106 1.284 . S
C114 O115 1.273 . S
O115 C114 1.273 . S
O116 Zn107 1.977 . S
O116 C109 1.267 . S
C117 O118 1.160 . S
C117 O124 1.185 . S
O118 C117 1.160 . S
O119 Zn120 1.899 . S
O119 C127 1.284 . S
Zn120 O119 1.899 . S
Zn120 O121 2.032 . S
Zn120 O124 2.086 . S
Zn120 O129 1.977 . S
O121 Zn120 2.032 . S
O121 C125 1.278 . S
C122 O123 1.203 . S
C122 O129 1.267 . S
O123 C122 1.203 . S
O124 C117 1.185 . S
O124 Zn120 2.086 . S
C125 O121 1.278 . S
C125 O126 1.211 . S
O126 C125 1.211 . S
C127 O119 1.284 . S
C127 O128 1.273 . S
O128 C127 1.273 . S
O129 Zn120 1.977 . S
O129 C122 1.267 . S
C130 O131 1.160 . S
C130 O137 1.185 . S
O131 C130 1.160 . S
O132 Zn133 1.899 . S
O132 C140 1.284 . S
Zn133 O132 1.899 . S
Zn133 O134 2.032 . S
Zn133 O137 2.086 . S
Zn133 O142 1.977 . S
O134 Zn133 2.032 . S
O134 C138 1.278 . S
C135 O136 1.203 . S
C135 O142 1.267 . S
O136 C135 1.203 . S
O137 C130 1.185 . S
O137 Zn133 2.086 . S
C138 O134 1.278 . S
C138 O139 1.211 . S
O139 C138 1.211 . S
C140 O132 1.284 . S
C140 O141 1.273 . S
O141 C140 1.273 . S
O142 Zn133 1.977 . S
O142 C135 1.267 . S
C143 O144 1.160 . S
C143 O150 1.185 . S
O144 C143 1.160 . S
O145 Zn146 1.899 . S
O145 C153 1.284 . S
Zn146 O145 1.899 . S
Zn146 O147 2.032 . S
Zn146 O150 2.086 . S
Zn146 O155 1.977 . S
O147 Zn146 2.032 . S
O147 C151 1.278 . S
C148 O149 1.203 . S
C148 O155 1.267 . S
O149 C148 1.203 . S
O150 C143 1.185 . S
O150 Zn146 2.086 . S
C151 O147 1.278 . S
C151 O152 1.211 . S
O152 C151 1.211 . S
C153 O145 1.284 . S
C153 O154 1.273 . S
O154 C153 1.273 . S
O155 Zn146 1.977 . S
O155 C148 1.267 . S
C156 O157 1.160 . S
C156 O163 1.185 . S
O157 C156 1.160 . S
O158 Zn159 1.899 . S
O158 C166 1.284 . S
Zn159 O158 1.899 . S
Zn159 O160 2.032 . S
Zn159 O163 2.086 . S
Zn159 O168 1.977 . S
O160 Zn159 2.032 . S
O160 C164 1.278 . S
C161 O162 1.203 . S
C161 O168 1.267 . S
O162 C161 1.203 . S
O163 C156 1.185 . S
O163 Zn159 2.086 . S
C164 O160 1.278 . S
C164 O165 1.211 . S
O165 C164 1.211 . S
C166 O158 1.284 . S
C166 O167 1.273 . S
O167 C166 1.273 . S
O168 Zn159 1.977 . S
O168 C161 1.267 . S
C169 O170 1.160 . S
C169 O176 1.185 . S
O170 C169 1.160 . S
O171 Zn172 1.899 . S
O171 C179 1.284 . S
Zn172 O171 1.899 . S
Zn172 O173 2.032 . S
Zn172 O176 2.086 . S
Zn172 O181 1.977 . S
O173 Zn172 2.032 . S
O173 C177 1.278 . S
C174 O175 1.203 . S
C174 O181 1.267 . S
O175 C174 1.203 . S
O176 C169 1.185 . S
O176 Zn172 2.086 . S
C177 O173 1.278 . S
C177 O178 1.211 . S
O178 C177 1.211 . S
C179 O171 1.284 . S
C179 O180 1.273 . S
O180 C179 1.273 . S
O181 Zn172 1.977 . S
O181 C174 1.267 . S
C182 O183 1.160 . S
C182 O189 1.185 . S
O183 C182 1.160 . S
O184 Zn185 1.899 . S
O184 C192 1.284 . S
Zn185 O184 1.899 . S
Zn185 O186 2.032 . S
Zn185 O189 2.086 . S
Zn185 O194 1.977 . S
O186 Zn185 2.032 . S
O186 C190 1.278 . S
C187 O188 1.203 . S
C187 O194 1.267 . S
O188 C187 1.203 . S
O189 C182 1.185 . S
O189 Zn185 2.086 . S
C190 O186 1.278 . S
C190 O191 1.211 . S
O191 C190 1.211 . S
C192 O184 1.284 . S
C192 O193 1.273 . S
O193 C192 1.273 . S
O194 Zn185 1.977 . S
O194 C187 1.267 . S
C195 O196 1.160 . S
C195 O202 1.185 . S
O196 C195 1.160 . S
O197 Zn198 1.899 . S
O197 C205 1.284 . S
Zn198 O197 1.899 . S
Zn198 O199 2.032 . S
Zn198 O202 2.086 . S
Zn198 O207 1.977 . S
O199 Zn198 2.032 . S
O199 C203 1.278 . S
C200 O201 1.203 . S
C200 O207 1.267 . S
O201 C200 1.203 . S
O202 C195 1.185 . S
O202 Zn198 2.086 . S
C203 O199 1.278 . S
C203 O204 1.211 . S
O204 C203 1.211 . S
C205 O197 1.284 . S
C205 O206 1.273 . S
O206 C205 1.273 . S
O207 Zn198 1.977 . S
O207 C200 1.267 . S
C208 O209 1.160 . S
C208 O215 1.185 . S
O209 C208 1.160 . S
O210 Zn211 1.899 . S
O210 C218 1.284 . S
Zn211 O210 1.899 . S
Zn211 O212 2.032 . S
Zn211 O215 2.086 . S
Zn211 O220 1.977 . S
O212 Zn211 2.032 . S
O212 C216 1.278 . S
C213 O214 1.203 . S
C213 O220 1.267 . S
O214 C213 1.203 . S
O215 C208 1.185 . S
O215 Zn211 2.086 . S
C216 O212 1.278 . S
C216 O217 1.211 . S
O217 C216 1.211 . S
C218 O210 1.284 . S
C218 O219 1.273 . S
O219 C218 1.273 . S
O220 Zn211 1.977 . S
O220 C213 1.267 . S
C221 O222 1.160 . S
C221 O228 1.185 . S
O222 C221 1.160 . S
O223 Zn224 1.899 . S
O223 C231 1.284 . S
Zn224 O223 1.899 . S
Zn224 O225 2.032 . S
Zn224 O228 2.086 . S
Zn224 O233 1.977 . S
O225 Zn224 2.032 . S
O225 C229 1.278 . S
C226 O227 1.203 . S
C226 O233 1.267 . S
O227 C226 1.203 . S
O228 C221 1.185 . S
O228 Zn224 2.086 . S
C229 O225 1.278 . S
C229 O230 1.211 . S
O230 C229 1.211 . S
C231 O223 1.284 . S
C231 O232 1.273 . S
O232 C231 1.273 . S
O233 Zn224 1.977 . S
O233 C226 1.267 . S
C234 O235 1.160 . S
C234 O241 1.185 . S
O235 C234 1.160 . S
O236 Zn237 1.899 . S
O236 C244 1.284 . S
Zn237 O236 1.899 . S
Zn237 O238 2.032 . S
Zn237 O241 2.086 . S
Zn237 O246 1.977 . S
O238 Zn237 2.032 . S
O238 C242 1.278 . S
C239 O240 1.203 . S
C239 O246 1.267 . S
O240 C239 1.203 . S
O241 C234 1.185 . S
O241 Zn237 2.086 . S
C242 O238 1.278 . S
C242 O243 1.211 . S
O243 C242 1.211 . S
C244 O236 1.284 . S
C244 O245 1.273 . S
O245 C244 1.273 . S
O246 Zn237 1.977 . S
O246 C239 1.267 . S
C247 O248 1.160 . S
C247 O254 1.185 . S
O248 C247 1.160 . S
O249 Zn250 1.899 . S
O249 C257 1.284 . S
Zn250 O249 1.899 . S
Zn250 O251 2.032 . S
Zn250 O254 2.086 . S
Zn250 O259 1.977 . S
O251 Zn250 2.032 . S
O251 C255 1.278 . S
C252 O253 1.203 . S
C252 O259 1.267 . S
O253 C252 1.203 . S
O254 C247 1.185 . S
O254 Zn250 2.086 . S
C255 O251 1.278 . S
C255 O256 1.211 . S
O256 C255 1.211 . S
C257 O249 1.284 . S
C257 O258 1.273 . S
O258 C257 1.273 . S
O259 Zn250 1.977 . S
O259 C252 1.267 . S
C260 O261 1.160 . S
C260 O267 1.185 . S
O261 C260 1.160 . S
O262 Zn263 1.899 . S
O262 C270 1.284 . S
Zn263 O262 1.899 . S
Zn263 O264 2.032 . S
Zn263 O267 2.086 . S
Zn263 O272 1.977 . S
O264 Zn263 2.032 . S
O264 C268 1.278 . S
C265 O266 1.203 . S
C265 O272 1.267 . S
O266 C265 1.203 . S
O267 C260 1.185 . S
O267 Zn263 2.086 . S
C268 O264 1.278 . S
C268 O269 1.211 . S
O269 C268 1.211 . S
C270 O262 1.284 . S
C270 O271 1.273 . S
O271 C270 1.273 . S
O272 Zn263 1.977 . S
O272 C265 1.267 . S
C273 O274 1.160 . S
C273 O280 1.185 1_554 S
O274 C273 1.160 . S
O275 Zn276 1.899 . S
O275 C283 1.284 . S
Zn276 O275 1.899 . S
Zn276 O277 2.032 1_556 S
Zn276 O280 2.086 . S
Zn276 O285 1.977 . S
O277 Zn276 2.032 1_554 S
O277 C281 1.278 . S
C278 O279 1.203 . S
C278 O285 1.267 . S
O279 C278 1.203 . S
O280 C273 1.185 1_556 S
O280 Zn276 2.086 . S
C281 O277 1.278 . S
C281 O282 1.211 . S
O282 C281 1.211 . S
C283 O275 1.284 . S
C283 O284 1.273 1_556 S
O284 C283 1.273 1_554 S
O285 Zn276 1.977 . S
O285 C278 1.267 . S
C286 O287 1.160 . S
C286 O293 1.185 1_554 S
O287 C286 1.160 . S
O288 Zn289 1.899 . S
O288 C296 1.284 . S
Zn289 O288 1.899 . S
Zn289 O290 2.032 1_556 S
Zn289 O293 2.086 . S
Zn289 O298 1.977 . S
O290 Zn289 2.032 1_554 S
O290 C294 1.278 . S
C291 O292 1.203 . S
C291 O298 1.267 . S
O292 C291 1.203 . S
O293 C286 1.185 1_556 S
O293 Zn289 2.086 . S
C294 O290 1.278 . S
C294 O295 1.211 . S
O295 C294 1.211 . S
C296 O288 1.284 . S
C296 O297 1.273 1_556 S
O297 C296 1.273 1_554 S
O298 Zn289 1.977 . S
O298 C291 1.267 . S
C299 O300 1.160 . S
C299 O306 1.185 1_554 S
O300 C299 1.160 . S
O301 Zn302 1.899 . S
O301 C309 1.284 . S
Zn302 O301 1.899 . S
Zn302 O303 2.032 1_556 S
Zn302 O306 2.086 . S
Zn302 O311 1.977 . S
O303 Zn302 2.032 1_554 S
O303 C307 1.278 . S
C304 O305 1.203 . S
C304 O311 1.267 . S
O305 C304 1.203 . S
O306 C299 1.185 1_556 S
O306 Zn302 2.086 . S
C307 O303 1.278 . S
C307 O308 1.211 . S
O308 C307 1.211 . S
C309 O301 1.284 . S
C309 O310 1.273 1_556 S
O310 C309 1.273 1_554 S
O311 Zn302 1.977 . S
O311 C304 1.267 . S
C312 O313 1.160 . S
C312 O319 1.185 . S
O313 C312 1.160 . S
O314 Zn315 1.899 . S
O314 C322 1.284 . S
Zn315 O314 1.899 . S
Zn315 O316 2.032 . S
Zn315 O319 2.086 . S
Zn315 O324 1.977 . S
O316 Zn315 2.032 . S
O316 C320 1.278 . S
C317 O318 1.203 . S
C317 O324 1.267 . S
O318 C317 1.203 . S
O319 C312 1.185 . S
O319 Zn315 2.086 . S
C320 O316 1.278 . S
C320 O321 1.211 . S
O321 C320 1.211 . S
C322 O314 1.284 . S
C322 O323 1.273 . S
O323 C322 1.273 . S
O324 Zn315 1.977 . S
O324 C317 1.267 . S
C325 O326 1.160 . S
C325 O332 1.185 . S
O326 C325 1.160 . S
O327 Zn328 1.899 . S
O327 C335 1.284 . S
Zn328 O327 1.899 . S
Zn328 O329 2.032 . S
Zn328 O332 2.086 . S
Zn328 O337 1.977 . S
O329 Zn328 2.032 . S
O329 C333 1.278 . S
C330 O331 1.203 . S
C330 O337 1.267 . S
O331 C330 1.203 . S
O332 C325 1.185 . S
O332 Zn328 2.086 . S
C333 O329 1.278 . S
C333 O334 1.211 . S
O334 C333 1.211 . S
C335 O327 1.284 . S
C335 O336 1.273 . S
O336 C335 1.273 . S
O337 Zn328 1.977 . S
O337 C330 1.267 . S
C338 O339 1.160 . S
C338 O345 1.185 . S
O339 C338 1.160 . S
O340 Zn341 1.899 . S
O340 C348 1.284 . S
Zn341 O340 1.899 . S
Zn341 O342 2.032 . S
Zn341 O345 2.086 . S
Zn341 O350 1.977 . S
O342 Zn341 2.032 . S
O342 C346 1.278 . S
C343 O344 1.203 . S
C343 O350 1.267 . S
O344 C343 1.203 . S
O345 C338 1.185 . S
O345 Zn341 2.086 . S
C346 O342 1.278 . S
C346 O347 1.211 . S
O347 C346 1.211 . S
C348 O340 1.284 . S
C348 O349 1.273 . S
O349 C348 1.273 . S
O350 Zn341 1.977 . S
O350 C343 1.267 . S
C351 O352 1.160 . S
C351 O358 1.185 1_556 S
O352 C351 1.160 . S
O353 Zn354 1.899 . S
O353 C361 1.284 . S
Zn354 O353 1.899 . S
Zn354 O355 2.032 1_554 S
Zn354 O358 2.086 . S
Zn354 O363 1.977 . S
O355 Zn354 2.032 1_556 S
O355 C359 1.278 . S
C356 O357 1.203 . S
C356 O363 1.267 . S
O357 C356 1.203 . S
O358 C351 1.185 1_554 S
O358 Zn354 2.086 . S
C359 O355 1.278 . S
C359 O360 1.211 . S
O360 C359 1.211 . S
C361 O353 1.284 . S
C361 O362 1.273 1_554 S
O362 C361 1.273 1_556 S
O363 Zn354 1.977 . S
O363 C356 1.267 . S
C364 O365 1.160 . S
C364 O371 1.185 1_556 S
O365 C364 1.160 . S
O366 Zn367 1.899 . S
O366 C374 1.284 . S
Zn367 O366 1.899 . S
Zn367 O368 2.032 1_554 S
Zn367 O371 2.086 . S
Zn367 O376 1.977 . S
O368 Zn367 2.032 1_556 S
O368 C372 1.278 . S
C369 O370 1.203 . S
C369 O376 1.267 . S
O370 C369 1.203 . S
O371 C364 1.185 1_554 S
O371 Zn367 2.086 . S
C372 O368 1.278 . S
C372 O373 1.211 . S
O373 C372 1.211 . S
C374 O366 1.284 . S
C374 O375 1.273 1_554 S
O375 C374 1.273 1_556 S
O376 Zn367 1.977 . S
O376 C369 1.267 . S
C377 O378 1.160 . S
C377 O384 1.185 1_556 S
O378 C377 1.160 . S
O379 Zn380 1.899 . S
O379 C387 1.284 . S
Zn380 O379 1.899 . S
Zn380 O381 2.032 1_554 S
Zn380 O384 2.086 . S
Zn380 O389 1.977 . S
O381 Zn380 2.032 1_556 S
O381 C385 1.278 . S
C382 O383 1.203 . S
C382 O389 1.267 . S
O383 C382 1.203 . S
O384 C377 1.185 1_554 S
O384 Zn380 2.086 . S
C385 O381 1.278 . S
C385 O386 1.211 . S
O386 C385 1.211 . S
C387 O379 1.284 . S
C387 O388 1.273 1_554 S
O388 C387 1.273 1_556 S
O389 Zn380 1.977 . S
O389 C382 1.267 . S
C390 O391 1.160 . S
C390 O397 1.185 . S
O391 C390 1.160 . S
O392 Zn393 1.899 . S
O392 C400 1.284 . S
Zn393 O392 1.899 . S
Zn393 O394 2.032 . S
Zn393 O397 2.086 . S
Zn393 O402 1.977 . S
O394 Zn393 2.032 . S
O394 C398 1.278 . S
C395 O396 1.203 . S
C395 O402 1.267 . S
O396 C395 1.203 . S
O397 C390 1.185 . S
O397 Zn393 2.086 . S
C398 O394 1.278 . S
C398 O399 1.211 . S
O399 C398 1.211 . S
C400 O392 1.284 . S
C400 O401 1.273 . S
O401 C400 1.273 . S
O402 Zn393 1.977 . S
O402 C395 1.267 . S
C403 O404 1.160 . S
C403 O410 1.185 . S
O404 C403 1.160 . S
O405 Zn406 1.899 . S
O405 C413 1.284 . S
Zn406 O405 1.899 . S
Zn406 O407 2.032 . S
Zn406 O410 2.086 . S
Zn406 O415 1.977 . S
O407 Zn406 2.032 . S
O407 C411 1.278 . S
C408 O409 1.203 . S
C408 O415 1.267 . S
O409 C408 1.203 . S
O410 C403 1.185 . S
O410 Zn406 2.086 . S
C411 O407 1.278 . S
C411 O412 1.211 . S
O412 C411 1.211 . S
C413 O405 1.284 . S
C413 O414 1.273 . S
O414 C413 1.273 . S
O415 Zn406 1.977 . S
O415 C408 1.267 . S
C416 O417 1.160 . S
C416 O423 1.185 . S
O417 C416 1.160 . S
O418 Zn419 1.899 . S
O418 C426 1.284 . S
Zn419 O418 1.899 . S
Zn419 O420 2.032 . S
Zn419 O423 2.086 . S
Zn419 O428 1.977 . S
O420 Zn419 2.032 . S
O420 C424 1.278 . S
C421 O422 1.203 . S
C421 O428 1.267 . S
O422 C421 1.203 . S
O423 C416 1.185 . S
O423 Zn419 2.086 . S
C424 O420 1.278 . S
C424 O425 1.211 . S
O425 C424 1.211 . S
C426 O418 1.284 . S
C426 O427 1.273 . S
O427 C426 1.273 . S
O428 Zn419 1.977 . S
O428 C421 1.267 . S
C429 O430 1.160 . S
C429 O436 1.185 . S
O430 C429 1.160 . S
O431 Zn432 1.899 . S
O431 C439 1.284 . S
Zn432 O431 1.899 . S
Zn432 O433 2.032 . S
Zn432 O436 2.086 . S
Zn432 O441 1.977 . S
O433 Zn432 2.032 . S
O433 C437 1.278 . S
C434 O435 1.203 . S
C434 O441 1.267 . S
O435 C434 1.203 . S
O436 C429 1.185 . S
O436 Zn432 2.086 . S
C437 O433 1.278 . S
C437 O438 1.211 . S
O438 C437 1.211 . S
C439 O431 1.284 . S
C439 O440 1.273 . S
O440 C439 1.273 . S
O441 Zn432 1.977 . S
O441 C434 1.267 . S
C442 O443 1.160 . S
C442 O449 1.185 . S
O443 C442 1.160 . S
O444 Zn445 1.899 . S
O444 C452 1.284 . S
Zn445 O444 1.899 . S
Zn445 O446 2.032 . S
Zn445 O449 2.086 . S
Zn445 O454 1.977 . S
O446 Zn445 2.032 . S
O446 C450 1.278 . S
C447 O448 1.203 . S
C447 O454 1.267 . S
O448 C447 1.203 . S
O449 C442 1.185 . S
O449 Zn445 2.086 . S
C450 O446 1.278 . S
C450 O451 1.211 . S
O451 C450 1.211 . S
C452 O444 1.284 . S
C452 O453 1.273 . S
O453 C452 1.273 . S
O454 Zn445 1.977 . S
O454 C447 1.267 . S
C455 O456 1.160 . S
C455 O462 1.185 . S
O456 C455 1.160 . S
O457 Zn458 1.899 . S
O457 C465 1.284 . S
Zn458 O457 1.899 . S
Zn458 O459 2.032 . S
Zn458 O462 2.086 . S
Zn458 O467 1.977 . S
O459 Zn458 2.032 . S
O459 C463 1.278 . S
C460 O461 1.203 . S
C460 O467 1.267 . S
O461 C460 1.203 . S
O462 C455 1.185 . S
O462 Zn458 2.086 . S
C463 O459 1.278 . S
C463 O464 1.211 . S
O464 C463 1.211 . S
C465 O457 1.284 . S
C465 O466 1.273 . S
O466 C465 1.273 . S
O467 Zn458 1.977 . S
O467 C460 1.267 . S
C468 C469 1.363 . S
C468 C474 1.379 . S
C468 N476 1.356 . S
C469 C468 1.363 . S
C469 C475 1.363 . S
C470 C471 1.363 . S
C470 C475 1.379 . S
C470 N477 1.356 . S
C471 C470 1.363 . S
C471 C474 1.363 . S
N472 C474 1.356 . S
N472 H484 0.984 . S
N472 H485 0.985 . S
N473 C475 1.356 . S
N473 H478 0.984 . S
N473 H479 0.985 . S
C474 C468 1.379 . S
C474 C471 1.363 . S
C474 N472 1.356 . S
C475 C469 1.363 . S
C475 C470 1.379 . S
C475 N473 1.356 . S
N476 C468 1.356 . S
N476 H482 0.984 . S
N476 H483 0.984 . S
N477 C470 1.356 . S
N477 H480 0.984 . S
N477 H481 0.985 . S
H478 N473 0.984 . S
H479 N473 0.985 . S
H480 N477 0.984 . S
H481 N477 0.985 . S
H482 N476 0.984 . S
H483 N476 0.984 . S
H484 N472 0.984 . S
H485 N472 0.985 . S
C486 C487 1.363 . S
C486 C492 1.379 1_545 S
C486 N494 1.356 . S
C487 C486 1.363 . S
C487 C493 1.363 . S
C488 C489 1.363 . S
C488 C493 1.379 1_565 S
C488 N495 1.356 . S
C489 C488 1.363 . S
C489 C492 1.363 . S
N490 C492 1.356 . S
N490 H502 0.984 1_565 S
N490 H503 0.985 . S
N491 C493 1.356 . S
N491 H496 0.984 . S
N491 H497 0.985 1_545 S
C492 C486 1.379 1_565 S
C492 C489 1.363 . S
C492 N490 1.356 . S
C493 C487 1.363 . S
C493 C488 1.379 1_545 S
C493 N491 1.356 . S
N494 C486 1.356 . S
N494 H500 0.984 . S
N494 H501 0.984 . S
N495 C488 1.356 . S
N495 H498 0.984 . S
N495 H499 0.985 . S
H496 N491 0.984 . S
H497 N491 0.985 1_565 S
H498 N495 0.984 . S
H499 N495 0.985 . S
H500 N494 0.984 . S
H501 N494 0.984 . S
H502 N490 0.984 1_545 S
H503 N490 0.985 . S
C504 C505 1.363 . S
C504 C510 1.379 1_655 S
C504 N512 1.356 . S
C505 C504 1.363 . S
C505 C511 1.363 . S
C506 C507 1.363 . S
C506 C511 1.379 1_455 S
C506 N513 1.356 . S
C507 C506 1.363 . S
C507 C510 1.363 . S
N508 C510 1.356 . S
N508 H520 0.984 . S
N508 H521 0.985 . S
N509 C511 1.356 . S
N509 H514 0.984 . S
N509 H515 0.985 . S
C510 C504 1.379 1_455 S
C510 C507 1.363 . S
C510 N508 1.356 . S
C511 C505 1.363 . S
C511 C506 1.379 1_655 S
C511 N509 1.356 . S
N512 C504 1.356 . S
N512 H518 0.984 . S
N512 H519 0.984 . S
N513 C506 1.356 . S
N513 H516 0.984 . S
N513 H517 0.985 . S
H514 N509 0.984 . S
H515 N509 0.985 . S
H516 N513 0.984 . S
H517 N513 0.985 . S
H518 N512 0.984 . S
H519 N512 0.984 . S
H520 N508 0.984 . S
H521 N508 0.985 . S
C522 C523 1.363 . S
C522 C528 1.379 . S
C522 N530 1.356 . S
C523 C522 1.363 . S
C523 C529 1.363 . S
C524 C525 1.363 . S
C524 C529 1.379 . S
C524 N531 1.356 . S
C525 C524 1.363 . S
C525 C528 1.363 . S
N526 C528 1.356 . S
N526 H538 0.984 . S
N526 H539 0.985 . S
N527 C529 1.356 . S
N527 H532 0.984 . S
N527 H533 0.985 . S
C528 C522 1.379 . S
C528 C525 1.363 . S
C528 N526 1.356 . S
C529 C523 1.363 . S
C529 C524 1.379 . S
C529 N527 1.356 . S
N530 C522 1.356 . S
N530 H536 0.984 . S
N530 H537 0.984 . S
N531 C524 1.356 . S
N531 H534 0.984 . S
N531 H535 0.985 . S
H532 N527 0.984 . S
H533 N527 0.985 . S
H534 N531 0.984 . S
H535 N531 0.985 . S
H536 N530 0.984 . S
H537 N530 0.984 . S
H538 N526 0.984 . S
H539 N526 0.985 . S
C540 C541 1.363 . S
C540 C546 1.379 1_545 S
C540 N548 1.356 . S
C541 C540 1.363 . S
C541 C547 1.363 . S
C542 C543 1.363 . S
C542 C547 1.379 1_565 S
C542 N549 1.356 . S
C543 C542 1.363 . S
C543 C546 1.363 . S
N544 C546 1.356 . S
N544 H556 0.984 . S
N544 H557 0.985 . S
N545 C547 1.356 . S
N545 H550 0.984 . S
N545 H551 0.985 . S
C546 C540 1.379 1_565 S
C546 C543 1.363 . S
C546 N544 1.356 . S
C547 C541 1.363 . S
C547 C542 1.379 1_545 S
C547 N545 1.356 . S
N548 C540 1.356 . S
N548 H554 0.984 . S
N548 H555 0.984 . S
N549 C542 1.356 . S
N549 H552 0.984 . S
N549 H553 0.985 . S
H550 N545 0.984 . S
H551 N545 0.985 . S
H552 N549 0.984 . S
H553 N549 0.985 . S
H554 N548 0.984 . S
H555 N548 0.984 . S
H556 N544 0.984 . S
H557 N544 0.985 . S
C558 C559 1.363 . S
C558 C564 1.379 1_455 S
C558 N566 1.356 . S
C559 C558 1.363 . S
C559 C565 1.363 . S
C560 C561 1.363 . S
C560 C565 1.379 1_655 S
C560 N567 1.356 . S
C561 C560 1.363 . S
C561 C564 1.363 . S
N562 C564 1.356 . S
N562 H574 0.984 . S
N562 H575 0.985 . S
N563 C565 1.356 . S
N563 H568 0.984 . S
N563 H569 0.985 . S
C564 C558 1.379 1_655 S
C564 C561 1.363 . S
C564 N562 1.356 . S
C565 C559 1.363 . S
C565 C560 1.379 1_455 S
C565 N563 1.356 . S
N566 C558 1.356 . S
N566 H572 0.984 . S
N566 H573 0.984 . S
N567 C560 1.356 . S
N567 H570 0.984 . S
N567 H571 0.985 . S
H568 N563 0.984 . S
H569 N563 0.985 . S
H570 N567 0.984 . S
H571 N567 0.985 . S
H572 N566 0.984 . S
H573 N566 0.984 . S
H574 N562 0.984 . S
H575 N562 0.985 . S
C576 C577 1.363 . S
C576 C582 1.379 . S
C576 N584 1.356 . S
C577 C576 1.363 . S
C577 C583 1.363 . S
C578 C579 1.363 . S
C578 C583 1.379 . S
C578 N585 1.356 . S
C579 C578 1.363 . S
C579 C582 1.363 . S
N580 C582 1.356 . S
N580 H592 0.984 . S
N580 H593 0.985 . S
N581 C583 1.356 . S
N581 H586 0.984 . S
N581 H587 0.985 . S
C582 C576 1.379 . S
C582 C579 1.363 . S
C582 N580 1.356 . S
C583 C577 1.363 . S
C583 C578 1.379 . S
C583 N581 1.356 . S
N584 C576 1.356 . S
N584 H590 0.984 . S
N584 H591 0.984 . S
N585 C578 1.356 . S
N585 H588 0.984 . S
N585 H589 0.985 . S
H586 N581 0.984 . S
H587 N581 0.985 . S
H588 N585 0.984 . S
H589 N585 0.985 . S
H590 N584 0.984 . S
H591 N584 0.984 . S
H592 N580 0.984 . S
H593 N580 0.985 . S
C594 C595 1.363 . S
C594 C600 1.379 . S
C594 N602 1.356 . S
C595 C594 1.363 . S
C595 C601 1.363 . S
C596 C597 1.363 . S
C596 C601 1.379 . S
C596 N603 1.356 . S
C597 C596 1.363 . S
C597 C600 1.363 . S
N598 C600 1.356 . S
N598 H610 0.984 . S
N598 H611 0.985 . S
N599 C601 1.356 . S
N599 H604 0.984 . S
N599 H605 0.985 . S
C600 C594 1.379 . S
C600 C597 1.363 . S
C600 N598 1.356 . S
C601 C595 1.363 . S
C601 C596 1.379 . S
C601 N599 1.356 . S
N602 C594 1.356 . S
N602 H608 0.984 . S
N602 H609 0.984 . S
N603 C596 1.356 . S
N603 H606 0.984 . S
N603 H607 0.985 . S
H604 N599 0.984 . S
H605 N599 0.985 . S
H606 N603 0.984 . S
H607 N603 0.985 . S
H608 N602 0.984 . S
H609 N602 0.984 . S
H610 N598 0.984 . S
H611 N598 0.985 . S
C612 C613 1.363 . S
C612 C618 1.379 . S
C612 N620 1.356 . S
C613 C612 1.363 . S
C613 C619 1.363 . S
C614 C615 1.363 . S
C614 C619 1.379 . S
C614 N621 1.356 . S
C615 C614 1.363 . S
C615 C618 1.363 . S
N616 C618 1.356 . S
N616 H628 0.984 . S
N616 H629 0.985 . S
N617 C619 1.356 . S
N617 H622 0.984 . S
N617 H623 0.985 . S
C618 C612 1.379 . S
C618 C615 1.363 . S
C618 N616 1.356 . S
C619 C613 1.363 . S
C619 C614 1.379 . S
C619 N617 1.356 . S
N620 C612 1.356 . S
N620 H626 0.984 . S
N620 H627 0.984 . S
N621 C614 1.356 . S
N621 H624 0.984 . S
N621 H625 0.985 . S
H622 N617 0.984 . S
H623 N617 0.985 . S
H624 N621 0.984 . S
H625 N621 0.985 . S
H626 N620 0.984 . S
H627 N620 0.984 . S
H628 N616 0.984 . S
H629 N616 0.985 . S
C630 C631 1.363 . S
C630 C636 1.379 . S
C630 N638 1.356 . S
C631 C630 1.363 . S
C631 C637 1.363 . S
C632 C633 1.363 . S
C632 C637 1.379 . S
C632 N639 1.356 1_554 S
C633 C632 1.363 . S
C633 C636 1.363 . S
N634 C636 1.356 . S
N634 H646 0.984 . S
N634 H647 0.985 . S
N635 C637 1.356 . S
N635 H640 0.984 . S
N635 H641 0.985 1_554 S
C636 C630 1.379 . S
C636 C633 1.363 . S
C636 N634 1.356 . S
C637 C631 1.363 . S
C637 C632 1.379 . S
C637 N635 1.356 . S
N638 C630 1.356 . S
N638 H644 0.984 . S
N638 H645 0.984 . S
N639 C632 1.356 1_556 S
N639 H642 0.984 . S
N639 H643 0.985 . S
H640 N635 0.984 . S
H641 N635 0.985 1_556 S
H642 N639 0.984 . S
H643 N639 0.985 . S
H644 N638 0.984 . S
H645 N638 0.984 . S
H646 N634 0.984 . S
H647 N634 0.985 . S
C648 C649 1.363 . S
C648 C654 1.379 . S
C648 N656 1.356 1_554 S
C649 C648 1.363 . S
C649 C655 1.363 . S
C650 C651 1.363 . S
C650 C655 1.379 . S
C650 N657 1.356 . S
C651 C650 1.363 . S
C651 C654 1.363 . S
N652 C654 1.356 . S
N652 H664 0.984 1_554 S
N652 H665 0.985 . S
N653 C655 1.356 . S
N653 H658 0.984 . S
N653 H659 0.985 . S
C654 C648 1.379 . S
C654 C651 1.363 . S
C654 N652 1.356 . S
C655 C649 1.363 . S
C655 C650 1.379 . S
C655 N653 1.356 . S
N656 C648 1.356 1_556 S
N656 H662 0.984 . S
N656 H663 0.984 . S
N657 C650 1.356 . S
N657 H660 0.984 . S
N657 H661 0.985 . S
H658 N653 0.984 . S
H659 N653 0.985 . S
H660 N657 0.984 . S
H661 N657 0.985 . S
H662 N656 0.984 . S
H663 N656 0.984 . S
H664 N652 0.984 1_556 S
H665 N652 0.985 . S
C666 C667 1.363 . S
C666 C672 1.379 . S
C666 N674 1.356 . S
C667 C666 1.363 . S
C667 C673 1.363 . S
C668 C669 1.363 . S
C668 C673 1.379 . S
C668 N675 1.356 . S
C669 C668 1.363 . S
C669 C672 1.363 . S
N670 C672 1.356 . S
N670 H682 0.984 . S
N670 H683 0.985 . S
N671 C673 1.356 . S
N671 H676 0.984 . S
N671 H677 0.985 . S
C672 C666 1.379 . S
C672 C669 1.363 . S
C672 N670 1.356 . S
C673 C667 1.363 . S
C673 C668 1.379 . S
C673 N671 1.356 . S
N674 C666 1.356 . S
N674 H680 0.984 . S
N674 H681 0.984 . S
N675 C668 1.356 . S
N675 H678 0.984 . S
N675 H679 0.985 . S
H676 N671 0.984 . S
H677 N671 0.985 . S
H678 N675 0.984 . S
H679 N675 0.985 . S
H680 N674 0.984 . S
H681 N674 0.984 . S
H682 N670 0.984 . S
H683 N670 0.985 . S
C684 C685 1.363 . S
C684 C690 1.379 . S
C684 N692 1.356 . S
C685 C684 1.363 . S
C685 C691 1.363 . S
C686 C687 1.363 . S
C686 C691 1.379 . S
C686 N693 1.356 1_556 S
C687 C686 1.363 . S
C687 C690 1.363 . S
N688 C690 1.356 . S
N688 H700 0.984 . S
N688 H701 0.985 . S
N689 C691 1.356 . S
N689 H694 0.984 . S
N689 H695 0.985 1_556 S
C690 C684 1.379 . S
C690 C687 1.363 . S
C690 N688 1.356 . S
C691 C685 1.363 . S
C691 C686 1.379 . S
C691 N689 1.356 . S
N692 C684 1.356 . S
N692 H698 0.984 . S
N692 H699 0.984 . S
N693 C686 1.356 1_554 S
N693 H696 0.984 . S
N693 H697 0.985 . S
H694 N689 0.984 . S
H695 N689 0.985 1_554 S
H696 N693 0.984 . S
H697 N693 0.985 . S
H698 N692 0.984 . S
H699 N692 0.984 . S
H700 N688 0.984 . S
H701 N688 0.985 . S
C702 C703 1.363 . S
C702 C708 1.379 . S
C702 N710 1.356 . S
C703 C702 1.363 . S
C703 C709 1.363 . S
C704 C705 1.363 . S
C704 C709 1.379 . S
C704 N711 1.356 1_556 S
C705 C704 1.363 . S
C705 C708 1.363 . S
N706 C708 1.356 . S
N706 H718 0.984 . S
N706 H719 0.985 . S
N707 C709 1.356 . S
N707 H712 0.984 . S
N707 H713 0.985 1_556 S
C708 C702 1.379 . S
C708 C705 1.363 . S
C708 N706 1.356 . S
C709 C703 1.363 . S
C709 C704 1.379 . S
C709 N707 1.356 . S
N710 C702 1.356 . S
N710 H716 0.984 . S
N710 H717 0.984 . S
N711 C704 1.356 1_554 S
N711 H714 0.984 . S
N711 H715 0.985 . S
H712 N707 0.984 . S
H713 N707 0.985 1_554 S
H714 N711 0.984 . S
H715 N711 0.985 . S
H716 N710 0.984 . S
H717 N710 0.984 . S
H718 N706 0.984 . S
H719 N706 0.985 . S
C720 C721 1.363 . S
C720 C726 1.379 . S
C720 N728 1.356 . S
C721 C720 1.363 . S
C721 C727 1.363 . S
C722 C723 1.363 . S
C722 C727 1.379 . S
C722 N729 1.356 . S
C723 C722 1.363 . S
C723 C726 1.363 . S
N724 C726 1.356 . S
N724 H736 0.984 . S
N724 H737 0.985 . S
N725 C727 1.356 . S
N725 H730 0.984 1_556 S
N725 H731 0.985 1_556 S
C726 C720 1.379 . S
C726 C723 1.363 . S
C726 N724 1.356 . S
C727 C721 1.363 . S
C727 C722 1.379 . S
C727 N725 1.356 . S
N728 C720 1.356 . S
N728 H734 0.984 . S
N728 H735 0.984 . S
N729 C722 1.356 . S
N729 H732 0.984 . S
N729 H733 0.985 . S
H730 N725 0.984 1_554 S
H731 N725 0.985 1_554 S
H732 N729 0.984 . S
H733 N729 0.985 . S
H734 N728 0.984 . S
H735 N728 0.984 . S
H736 N724 0.984 . S
H737 N724 0.985 . S
C738 C739 1.363 . S
C738 C744 1.379 . S
C738 N746 1.356 . S
C739 C738 1.363 . S
C739 C745 1.363 . S
C740 C741 1.363 . S
C740 C745 1.379 . S
C740 N747 1.356 . S
C741 C740 1.363 . S
C741 C744 1.363 . S
N742 C744 1.356 . S
N742 H754 0.984 . S
N742 H755 0.985 . S
N743 C745 1.356 . S
N743 H748 0.984 . S
N743 H749 0.985 . S
C744 C738 1.379 . S
C744 C741 1.363 . S
C744 N742 1.356 . S
C745 C739 1.363 . S
C745 C740 1.379 . S
C745 N743 1.356 . S
N746 C738 1.356 . S
N746 H752 0.984 . S
N746 H753 0.984 . S
N747 C740 1.356 . S
N747 H750 0.984 . S
N747 H751 0.985 . S
H748 N743 0.984 . S
H749 N743 0.985 . S
H750 N747 0.984 . S
H751 N747 0.985 . S
H752 N746 0.984 . S
H753 N746 0.984 . S
H754 N742 0.984 . S
H755 N742 0.985 . S
C756 C757 1.363 . S
C756 C762 1.379 . S
C756 N764 1.356 . S
C757 C756 1.363 . S
C757 C763 1.363 . S
C758 C759 1.363 . S
C758 C763 1.379 . S
C758 N765 1.356 . S
C759 C758 1.363 . S
C759 C762 1.363 . S
N760 C762 1.356 . S
N760 H772 0.984 . S
N760 H773 0.985 . S
N761 C763 1.356 . S
N761 H766 0.984 . S
N761 H767 0.985 . S
C762 C756 1.379 . S
C762 C759 1.363 . S
C762 N760 1.356 . S
C763 C757 1.363 . S
C763 C758 1.379 . S
C763 N761 1.356 . S
N764 C756 1.356 . S
N764 H770 0.984 . S
N764 H771 0.984 . S
N765 C758 1.356 . S
N765 H768 0.984 . S
N765 H769 0.985 . S
H766 N761 0.984 . S
H767 N761 0.985 . S
H768 N765 0.984 . S
H769 N765 0.985 . S
H770 N764 0.984 . S
H771 N764 0.984 . S
H772 N760 0.984 . S
H773 N760 0.985 . S
C774 C775 1.363 . S
C774 C780 1.379 . S
C774 N782 1.356 . S
C775 C774 1.363 . S
C775 C781 1.363 . S
C776 C777 1.363 . S
C776 C781 1.379 . S
C776 N783 1.356 . S
C777 C776 1.363 . S
C777 C780 1.363 . S
N778 C780 1.356 . S
N778 H790 0.984 . S
N778 H791 0.985 . S
N779 C781 1.356 . S
N779 H784 0.984 . S
N779 H785 0.985 . S
C780 C774 1.379 . S
C780 C777 1.363 . S
C780 N778 1.356 . S
C781 C775 1.363 . S
C781 C776 1.379 . S
C781 N779 1.356 . S
N782 C774 1.356 . S
N782 H788 0.984 . S
N782 H789 0.984 . S
N783 C776 1.356 . S
N783 H786 0.984 . S
N783 H787 0.985 . S
H784 N779 0.984 . S
H785 N779 0.985 . S
H786 N783 0.984 . S
H787 N783 0.985 . S
H788 N782 0.984 . S
H789 N782 0.984 . S
H790 N778 0.984 . S
H791 N778 0.985 . S
C792 C793 1.363 . S
C792 C798 1.379 . S
C792 N800 1.356 . S
C793 C792 1.363 . S
C793 C799 1.363 . S
C794 C795 1.363 . S
C794 C799 1.379 . S
C794 N801 1.356 1_556 S
C795 C794 1.363 . S
C795 C798 1.363 . S
N796 C798 1.356 . S
N796 H808 0.984 . S
N796 H809 0.985 . S
N797 C799 1.356 . S
N797 H802 0.984 . S
N797 H803 0.985 . S
C798 C792 1.379 . S
C798 C795 1.363 . S
C798 N796 1.356 . S
C799 C793 1.363 . S
C799 C794 1.379 . S
C799 N797 1.356 . S
N800 C792 1.356 . S
N800 H806 0.984 . S
N800 H807 0.984 . S
N801 C794 1.356 1_554 S
N801 H804 0.984 . S
N801 H805 0.985 . S
H802 N797 0.984 . S
H803 N797 0.985 . S
H804 N801 0.984 . S
H805 N801 0.985 . S
H806 N800 0.984 . S
H807 N800 0.984 . S
H808 N796 0.984 . S
H809 N796 0.985 . S
C810 C811 1.363 . S
C810 C816 1.379 . S
C810 N818 1.356 1_556 S
C811 C810 1.363 . S
C811 C817 1.363 . S
C812 C813 1.363 . S
C812 C817 1.379 . S
C812 N819 1.356 . S
C813 C812 1.363 . S
C813 C816 1.363 . S
N814 C816 1.356 . S
N814 H826 0.984 . S
N814 H827 0.985 . S
N815 C817 1.356 . S
N815 H820 0.984 . S
N815 H821 0.985 . S
C816 C810 1.379 . S
C816 C813 1.363 . S
C816 N814 1.356 . S
C817 C811 1.363 . S
C817 C812 1.379 . S
C817 N815 1.356 . S
N818 C810 1.356 1_554 S
N818 H824 0.984 . S
N818 H825 0.984 . S
N819 C812 1.356 . S
N819 H822 0.984 . S
N819 H823 0.985 . S
H820 N815 0.984 . S
H821 N815 0.985 . S
H822 N819 0.984 . S
H823 N819 0.985 . S
H824 N818 0.984 . S
H825 N818 0.984 . S
H826 N814 0.984 . S
H827 N814 0.985 . S
C828 C829 1.363 . S
C828 C834 1.379 . S
C828 N836 1.356 . S
C829 C828 1.363 . S
C829 C835 1.363 . S
C830 C831 1.363 . S
C830 C835 1.379 . S
C830 N837 1.356 . S
C831 C830 1.363 . S
C831 C834 1.363 . S
N832 C834 1.356 . S
N832 H844 0.984 . S
N832 H845 0.985 . S
N833 C835 1.356 . S
N833 H838 0.984 . S
N833 H839 0.985 . S
C834 C828 1.379 . S
C834 C831 1.363 . S
C834 N832 1.356 . S
C835 C829 1.363 . S
C835 C830 1.379 . S
C835 N833 1.356 . S
N836 C828 1.356 . S
N836 H842 0.984 . S
N836 H843 0.984 1_556 S
N837 C830 1.356 . S
N837 H840 0.984 . S
N837 H841 0.985 . S
H838 N833 0.984 . S
H839 N833 0.985 . S
H840 N837 0.984 . S
H841 N837 0.985 . S
H842 N836 0.984 . S
H843 N836 0.984 1_554 S
H844 N832 0.984 . S
H845 N832 0.985 . S
C846 C847 1.363 . S
C846 C852 1.379 . S
C846 N854 1.356 . S
C847 C846 1.363 . S
C847 C853 1.363 . S
C848 C849 1.363 . S
C848 C853 1.379 . S
C848 N855 1.356 . S
C849 C848 1.363 . S
C849 C852 1.363 . S
N850 C852 1.356 . S
N850 H862 0.984 . S
N850 H863 0.985 . S
N851 C853 1.356 . S
N851 H856 0.984 . S
N851 H857 0.985 . S
C852 C846 1.379 . S
C852 C849 1.363 . S
C852 N850 1.356 . S
C853 C847 1.363 . S
C853 C848 1.379 . S
C853 N851 1.356 . S
N854 C846 1.356 . S
N854 H860 0.984 . S
N854 H861 0.984 . S
N855 C848 1.356 . S
N855 H858 0.984 . S
N855 H859 0.985 . S
H856 N851 0.984 . S
H857 N851 0.985 . S
H858 N855 0.984 . S
H859 N855 0.985 . S
H860 N854 0.984 . S
H861 N854 0.984 . S
H862 N850 0.984 . S
H863 N850 0.985 . S
C864 C865 1.363 . S
C864 C870 1.379 . S
C864 N872 1.356 . S
C865 C864 1.363 . S
C865 C871 1.363 . S
C866 C867 1.363 . S
C866 C871 1.379 . S
C866 N873 1.356 . S
C867 C866 1.363 . S
C867 C870 1.363 . S
N868 C870 1.356 . S
N868 H880 0.984 . S
N868 H881 0.985 . S
N869 C871 1.356 . S
N869 H874 0.984 . S
N869 H875 0.985 . S
C870 C864 1.379 . S
C870 C867 1.363 . S
C870 N868 1.356 . S
C871 C865 1.363 . S
C871 C866 1.379 . S
C871 N869 1.356 . S
N872 C864 1.356 . S
N872 H878 0.984 . S
N872 H879 0.984 . S
N873 C866 1.356 . S
N873 H876 0.984 . S
N873 H877 0.985 . S
H874 N869 0.984 . S
H875 N869 0.985 . S
H876 N873 0.984 . S
H877 N873 0.985 . S
H878 N872 0.984 . S
H879 N872 0.984 . S
H880 N868 0.984 . S
H881 N868 0.985 . S
C882 C883 1.363 . S
C882 C888 1.379 . S
C882 N890 1.356 . S
C883 C882 1.363 . S
C883 C889 1.363 . S
C884 C885 1.363 . S
C884 C889 1.379 . S
C884 N891 1.356 . S
C885 C884 1.363 . S
C885 C888 1.363 . S
N886 C888 1.356 . S
N886 H898 0.984 . S
N886 H899 0.985 . S
N887 C889 1.356 . S
N887 H892 0.984 . S
N887 H893 0.985 . S
C888 C882 1.379 . S
C888 C885 1.363 . S
C888 N886 1.356 . S
C889 C883 1.363 . S
C889 C884 1.379 . S
C889 N887 1.356 . S
N890 C882 1.356 . S
N890 H896 0.984 . S
N890 H897 0.984 . S
N891 C884 1.356 . S
N891 H894 0.984 . S
N891 H895 0.985 . S
H892 N887 0.984 . S
H893 N887 0.985 . S
H894 N891 0.984 . S
H895 N891 0.985 . S
H896 N890 0.984 . S
H897 N890 0.984 . S
H898 N886 0.984 . S
H899 N886 0.985 . S
C900 C901 1.363 . S
C900 C906 1.379 . S
C900 N908 1.356 . S
C901 C900 1.363 . S
C901 C907 1.363 . S
C902 C903 1.363 . S
C902 C907 1.379 . S
C902 N909 1.356 . S
C903 C902 1.363 . S
C903 C906 1.363 . S
N904 C906 1.356 . S
N904 H916 0.984 . S
N904 H917 0.985 . S
N905 C907 1.356 1_556 S
N905 H910 0.984 . S
N905 H911 0.985 . S
C906 C900 1.379 . S
C906 C903 1.363 . S
C906 N904 1.356 . S
C907 C901 1.363 . S
C907 C902 1.379 . S
C907 N905 1.356 1_554 S
N908 C900 1.356 . S
N908 H914 0.984 . S
N908 H915 0.984 . S
N909 C902 1.356 . S
N909 H912 0.984 . S
N909 H913 0.985 . S
H910 N905 0.984 . S
H911 N905 0.985 . S
H912 N909 0.984 . S
H913 N909 0.985 . S
H914 N908 0.984 . S
H915 N908 0.984 . S
H916 N904 0.984 . S
H917 N904 0.985 . S
C918 C919 1.363 . S
C918 C924 1.379 . S
C918 N926 1.356 1_554 S
C919 C918 1.363 . S
C919 C925 1.363 . S
C920 C921 1.363 . S
C920 C925 1.379 . S
C920 N927 1.356 . S
C921 C920 1.363 . S
C921 C924 1.363 . S
N922 C924 1.356 . S
N922 H934 0.984 . S
N922 H935 0.985 . S
N923 C925 1.356 . S
N923 H928 0.984 . S
N923 H929 0.985 . S
C924 C918 1.379 . S
C924 C921 1.363 . S
C924 N922 1.356 . S
C925 C919 1.363 . S
C925 C920 1.379 . S
C925 N923 1.356 . S
N926 C918 1.356 1_556 S
N926 H932 0.984 . S
N926 H933 0.984 . S
N927 C920 1.356 . S
N927 H930 0.984 . S
N927 H931 0.985 . S
H928 N923 0.984 . S
H929 N923 0.985 . S
H930 N927 0.984 . S
H931 N927 0.985 . S
H932 N926 0.984 . S
H933 N926 0.984 . S
H934 N922 0.984 . S
H935 N922 0.985 . S
C936 C937 1.363 . S
C936 C942 1.379 . S
C936 N944 1.356 . S
C937 C936 1.363 . S
C937 C943 1.363 . S
C938 C939 1.363 . S
C938 C943 1.379 . S
C938 N945 1.356 1_554 S
C939 C938 1.363 . S
C939 C942 1.363 . S
N940 C942 1.356 . S
N940 H952 0.984 . S
N940 H953 0.985 . S
N941 C943 1.356 . S
N941 H946 0.984 . S
N941 H947 0.985 . S
C942 C936 1.379 . S
C942 C939 1.363 . S
C942 N940 1.356 . S
C943 C937 1.363 . S
C943 C938 1.379 . S
C943 N941 1.356 . S
N944 C936 1.356 . S
N944 H950 0.984 . S
N944 H951 0.984 . S
N945 C938 1.356 1_556 S
N945 H948 0.984 . S
N945 H949 0.985 . S
H946 N941 0.984 . S
H947 N941 0.985 . S
H948 N945 0.984 . S
H949 N945 0.985 . S
H950 N944 0.984 . S
H951 N944 0.984 . S
H952 N940 0.984 . S
H953 N940 0.985 . S
C954 C955 1.363 . S
C954 C960 1.379 . S
C954 N962 1.356 . S
C955 C954 1.363 . S
C955 C961 1.363 . S
C956 C957 1.363 . S
C956 C961 1.379 . S
C956 N963 1.356 . S
C957 C956 1.363 . S
C957 C960 1.363 . S
N958 C960 1.356 . S
N958 H970 0.984 . S
N958 H971 0.985 . S
N959 C961 1.356 . S
N959 H964 0.984 . S
N959 H965 0.985 . S
C960 C954 1.379 . S
C960 C957 1.363 . S
C960 N958 1.356 . S
C961 C955 1.363 . S
C961 C956 1.379 . S
C961 N959 1.356 . S
N962 C954 1.356 . S
N962 H968 0.984 . S
N962 H969 0.984 . S
N963 C956 1.356 . S
N963 H966 0.984 . S
N963 H967 0.985 . S
H964 N959 0.984 . S
H965 N959 0.985 . S
H966 N963 0.984 . S
H967 N963 0.985 . S
H968 N962 0.984 . S
H969 N962 0.984 . S
H970 N958 0.984 . S
H971 N958 0.985 . S
C972 C973 1.363 . S
C972 C978 1.379 . S
C972 N980 1.356 . S
C973 C972 1.363 . S
C973 C979 1.363 . S
C974 C975 1.363 . S
C974 C979 1.379 . S
C974 N981 1.356 . S
C975 C974 1.363 . S
C975 C978 1.363 . S
N976 C978 1.356 . S
N976 H988 0.984 . S
N976 H989 0.985 . S
N977 C979 1.356 . S
N977 H982 0.984 . S
N977 H983 0.985 . S
C978 C972 1.379 . S
C978 C975 1.363 . S
C978 N976 1.356 . S
C979 C973 1.363 . S
C979 C974 1.379 . S
C979 N977 1.356 . S
N980 C972 1.356 . S
N980 H986 0.984 . S
N980 H987 0.984 . S
N981 C974 1.356 . S
N981 H984 0.984 . S
N981 H985 0.985 . S
H982 N977 0.984 . S
H983 N977 0.985 . S
H984 N981 0.984 . S
H985 N981 0.985 . S
H986 N980 0.984 . S
H987 N980 0.984 . S
H988 N976 0.984 . S
H989 N976 0.985 . S
C990 C991 1.363 . S
C990 C996 1.379 . S
C990 N998 1.356 . S
C991 C990 1.363 . S
C991 C997 1.363 . S
C992 C993 1.363 . S
C992 C997 1.379 . S
C992 N999 1.356 . S
C993 C992 1.363 . S
C993 C996 1.363 . S
N994 C996 1.356 . S
N994 H1006 0.984 . S
N994 H1007 0.985 . S
N995 C997 1.356 . S
N995 H1000 0.984 . S
N995 H1001 0.985 . S
C996 C990 1.379 . S
C996 C993 1.363 . S
C996 N994 1.356 . S
C997 C991 1.363 . S
C997 C992 1.379 . S
C997 N995 1.356 . S
N998 C990 1.356 . S
N998 H1004 0.984 . S
N998 H1005 0.984 . S
N999 C992 1.356 . S
N999 H1002 0.984 . S
N999 H1003 0.985 . S
H1000 N995 0.984 . S
H1001 N995 0.985 . S
H1002 N999 0.984 . S
H1003 N999 0.985 . S
H1004 N998 0.984 . S
H1005 N998 0.984 . S
H1006 N994 0.984 . S
H1007 N994 0.985 . S
C1008 C1009 1.363 . S
C1008 C1014 1.379 . S
C1008 N1016 1.356 . S
C1009 C1008 1.363 . S
C1009 C1015 1.363 . S
C1010 C1011 1.363 . S
C1010 C1015 1.379 . S
C1010 N1017 1.356 . S
C1011 C1010 1.363 . S
C1011 C1014 1.363 . S
N1012 C1014 1.356 . S
N1012 H1024 0.984 . S
N1012 H1025 0.985 . S
N1013 C1015 1.356 . S
N1013 H1018 0.984 . S
N1013 H1019 0.985 . S
C1014 C1008 1.379 . S
C1014 C1011 1.363 . S
C1014 N1012 1.356 . S
C1015 C1009 1.363 . S
C1015 C1010 1.379 . S
C1015 N1013 1.356 . S
N1016 C1008 1.356 . S
N1016 H1022 0.984 . S
N1016 H1023 0.984 . S
N1017 C1010 1.356 . S
N1017 H1020 0.984 . S
N1017 H1021 0.985 . S
H1018 N1013 0.984 . S
H1019 N1013 0.985 . S
H1020 N1017 0.984 . S
H1021 N1017 0.985 . S
H1022 N1016 0.984 . S
H1023 N1016 0.984 . S
H1024 N1012 0.984 . S
H1025 N1012 0.985 . S
C1026 C1027 1.363 . S
C1026 C1032 1.379 . S
C1026 N1034 1.356 . S
C1027 C1026 1.363 . S
C1027 C1033 1.363 . S
C1028 C1029 1.363 . S
C1028 C1033 1.379 . S
C1028 N1035 1.356 . S
C1029 C1028 1.363 . S
C1029 C1032 1.363 . S
N1030 C1032 1.356 . S
N1030 H1042 0.984 . S
N1030 H1043 0.985 . S
N1031 C1033 1.356 . S
N1031 H1036 0.984 . S
N1031 H1037 0.985 . S
C1032 C1026 1.379 . S
C1032 C1029 1.363 . S
C1032 N1030 1.356 . S
C1033 C1027 1.363 . S
C1033 C1028 1.379 . S
C1033 N1031 1.356 . S
N1034 C1026 1.356 . S
N1034 H1040 0.984 . S
N1034 H1041 0.984 . S
N1035 C1028 1.356 . S
N1035 H1038 0.984 . S
N1035 H1039 0.985 . S
H1036 N1031 0.984 . S
H1037 N1031 0.985 . S
H1038 N1035 0.984 . S
H1039 N1035 0.985 . S
H1040 N1034 0.984 . S
H1041 N1034 0.984 . S
H1042 N1030 0.984 . S
H1043 N1030 0.985 . S
C1044 C1045 1.363 . S
C1044 C1050 1.379 . S
C1044 N1052 1.356 . S
C1045 C1044 1.363 . S
C1045 C1051 1.363 . S
C1046 C1047 1.363 . S
C1046 C1051 1.379 . S
C1046 N1053 1.356 . S
C1047 C1046 1.363 . S
C1047 C1050 1.363 . S
N1048 C1050 1.356 . S
N1048 H1060 0.984 . S
N1048 H1061 0.985 . S
N1049 C1051 1.356 . S
N1049 H1054 0.984 . S
N1049 H1055 0.985 . S
C1050 C1044 1.379 . S
C1050 C1047 1.363 . S
C1050 N1048 1.356 . S
C1051 C1045 1.363 . S
C1051 C1046 1.379 . S
C1051 N1049 1.356 . S
N1052 C1044 1.356 . S
N1052 H1058 0.984 . S
N1052 H1059 0.984 . S
N1053 C1046 1.356 . S
N1053 H1056 0.984 . S
N1053 H1057 0.985 . S
H1054 N1049 0.984 . S
H1055 N1049 0.985 . S
H1056 N1053 0.984 . S
H1057 N1053 0.985 . S
H1058 N1052 0.984 . S
H1059 N1052 0.984 . S
H1060 N1048 0.984 . S
H1061 N1048 0.985 . S
C1062 C1063 1.363 . S
C1062 C1068 1.379 . S
C1062 N1070 1.356 . S
C1063 C1062 1.363 . S
C1063 C1069 1.363 . S
C1064 C1065 1.363 1_556 S
C1064 C1069 1.379 . S
C1064 N1071 1.356 1_556 S
C1065 C1064 1.363 1_554 S
C1065 C1068 1.363 1_554 S
N1066 C1068 1.356 1_554 S
N1066 H1078 0.984 . S
N1066 H1079 0.985 . S
N1067 C1069 1.356 . S
N1067 H1072 0.984 . S
N1067 H1073 0.985 . S
C1068 C1062 1.379 . S
C1068 C1065 1.363 1_556 S
C1068 N1066 1.356 1_556 S
C1069 C1063 1.363 . S
C1069 C1064 1.379 . S
C1069 N1067 1.356 . S
N1070 C1062 1.356 . S
N1070 H1076 0.984 . S
N1070 H1077 0.984 . S
N1071 C1064 1.356 1_554 S
N1071 H1074 0.984 . S
N1071 H1075 0.985 1_554 S
H1072 N1067 0.984 . S
H1073 N1067 0.985 . S
H1074 N1071 0.984 . S
H1075 N1071 0.985 1_556 S
H1076 N1070 0.984 . S
H1077 N1070 0.984 . S
H1078 N1066 0.984 . S
H1079 N1066 0.985 . S
C1080 C1081 1.363 . S
C1080 C1086 1.379 1_554 S
C1080 N1088 1.356 . S
C1081 C1080 1.363 . S
C1081 C1087 1.363 1_554 S
C1082 C1083 1.363 . S
C1082 C1087 1.379 . S
C1082 N1089 1.356 . S
C1083 C1082 1.363 . S
C1083 C1086 1.363 . S
N1084 C1086 1.356 . S
N1084 H1096 0.984 . S
N1084 H1097 0.985 . S
N1085 C1087 1.356 . S
N1085 H1090 0.984 1_556 S
N1085 H1091 0.985 . S
C1086 C1080 1.379 1_556 S
C1086 C1083 1.363 . S
C1086 N1084 1.356 . S
C1087 C1081 1.363 1_556 S
C1087 C1082 1.379 . S
C1087 N1085 1.356 . S
N1088 C1080 1.356 . S
N1088 H1094 0.984 . S
N1088 H1095 0.984 . S
N1089 C1082 1.356 . S
N1089 H1092 0.984 . S
N1089 H1093 0.985 . S
H1090 N1085 0.984 1_554 S
H1091 N1085 0.985 . S
H1092 N1089 0.984 . S
H1093 N1089 0.985 . S
H1094 N1088 0.984 . S
H1095 N1088 0.984 . S
H1096 N1084 0.984 . S
H1097 N1084 0.985 . S
C1098 C1099 1.363 . S
C1098 C1104 1.379 1_556 S
C1098 N1106 1.356 . S
C1099 C1098 1.363 . S
C1099 C1105 1.363 . S
C1100 C1101 1.363 1_556 S
C1100 C1105 1.379 . S
C1100 N1107 1.356 . S
C1101 C1100 1.363 1_554 S
C1101 C1104 1.363 . S
N1102 C1104 1.356 . S
N1102 H1114 0.984 . S
N1102 H1115 0.985 . S
N1103 C1105 1.356 . S
N1103 H1108 0.984 . S
N1103 H1109 0.985 . S
C1104 C1098 1.379 1_554 S
C1104 C1101 1.363 . S
C1104 N1102 1.356 . S
C1105 C1099 1.363 . S
C1105 C1100 1.379 . S
C1105 N1103 1.356 . S
N1106 C1098 1.356 . S
N1106 H1112 0.984 . S
N1106 H1113 0.984 . S
N1107 C1100 1.356 . S
N1107 H1110 0.984 1_556 S
N1107 H1111 0.985 . S
H1108 N1103 0.984 . S
H1109 N1103 0.985 . S
H1110 N1107 0.984 1_554 S
H1111 N1107 0.985 . S
H1112 N1106 0.984 . S
H1113 N1106 0.984 . S
H1114 N1102 0.984 . S
H1115 N1102 0.985 . S
C1116 C1117 1.363 . S
C1116 C1122 1.379 . S
C1116 N1124 1.356 . S
C1117 C1116 1.363 . S
C1117 C1123 1.363 . S
C1118 C1119 1.363 . S
C1118 C1123 1.379 . S
C1118 N1125 1.356 . S
C1119 C1118 1.363 . S
C1119 C1122 1.363 . S
N1120 C1122 1.356 . S
N1120 H1132 0.984 . S
N1120 H1133 0.985 . S
N1121 C1123 1.356 . S
N1121 H1126 0.984 . S
N1121 H1127 0.985 . S
C1122 C1116 1.379 . S
C1122 C1119 1.363 . S
C1122 N1120 1.356 . S
C1123 C1117 1.363 . S
C1123 C1118 1.379 . S
C1123 N1121 1.356 . S
N1124 C1116 1.356 . S
N1124 H1130 0.984 . S
N1124 H1131 0.984 . S
N1125 C1118 1.356 . S
N1125 H1128 0.984 . S
N1125 H1129 0.985 . S
H1126 N1121 0.984 . S
H1127 N1121 0.985 . S
H1128 N1125 0.984 . S
H1129 N1125 0.985 . S
H1130 N1124 0.984 . S
H1131 N1124 0.984 . S
H1132 N1120 0.984 . S
H1133 N1120 0.985 . S
C1134 C1135 1.363 . S
C1134 C1140 1.379 . S
C1134 N1142 1.356 . S
C1135 C1134 1.363 . S
C1135 C1141 1.363 . S
C1136 C1137 1.363 . S
C1136 C1141 1.379 . S
C1136 N1143 1.356 . S
C1137 C1136 1.363 . S
C1137 C1140 1.363 . S
N1138 C1140 1.356 . S
N1138 H1150 0.984 . S
N1138 H1151 0.985 . S
N1139 C1141 1.356 . S
N1139 H1144 0.984 . S
N1139 H1145 0.985 . S
C1140 C1134 1.379 . S
C1140 C1137 1.363 . S
C1140 N1138 1.356 . S
C1141 C1135 1.363 . S
C1141 C1136 1.379 . S
C1141 N1139 1.356 . S
N1142 C1134 1.356 . S
N1142 H1148 0.984 . S
N1142 H1149 0.984 . S
N1143 C1136 1.356 . S
N1143 H1146 0.984 . S
N1143 H1147 0.985 . S
H1144 N1139 0.984 . S
H1145 N1139 0.985 . S
H1146 N1143 0.984 . S
H1147 N1143 0.985 . S
H1148 N1142 0.984 . S
H1149 N1142 0.984 . S
H1150 N1138 0.984 . S
H1151 N1138 0.985 . S
C1152 C1153 1.363 . S
C1152 C1158 1.379 . S
C1152 N1160 1.356 . S
C1153 C1152 1.363 . S
C1153 C1159 1.363 . S
C1154 C1155 1.363 . S
C1154 C1159 1.379 . S
C1154 N1161 1.356 . S
C1155 C1154 1.363 . S
C1155 C1158 1.363 . S
N1156 C1158 1.356 . S
N1156 H1168 0.984 . S
N1156 H1169 0.985 . S
N1157 C1159 1.356 . S
N1157 H1162 0.984 . S
N1157 H1163 0.985 . S
C1158 C1152 1.379 . S
C1158 C1155 1.363 . S
C1158 N1156 1.356 . S
C1159 C1153 1.363 . S
C1159 C1154 1.379 . S
C1159 N1157 1.356 . S
N1160 C1152 1.356 . S
N1160 H1166 0.984 . S
N1160 H1167 0.984 . S
N1161 C1154 1.356 . S
N1161 H1164 0.984 . S
N1161 H1165 0.985 . S
H1162 N1157 0.984 . S
H1163 N1157 0.985 . S
H1164 N1161 0.984 . S
H1165 N1161 0.985 . S
H1166 N1160 0.984 . S
H1167 N1160 0.984 . S
H1168 N1156 0.984 . S
H1169 N1156 0.985 . S
C1170 C1171 1.363 . S
C1170 C1176 1.379 . S
C1170 N1178 1.356 . S
C1171 C1170 1.363 . S
C1171 C1177 1.363 . S
C1172 C1173 1.363 . S
C1172 C1177 1.379 . S
C1172 N1179 1.356 . S
C1173 C1172 1.363 . S
C1173 C1176 1.363 . S
N1174 C1176 1.356 . S
N1174 H1186 0.984 . S
N1174 H1187 0.985 . S
N1175 C1177 1.356 . S
N1175 H1180 0.984 . S
N1175 H1181 0.985 . S
C1176 C1170 1.379 . S
C1176 C1173 1.363 . S
C1176 N1174 1.356 . S
C1177 C1171 1.363 . S
C1177 C1172 1.379 . S
C1177 N1175 1.356 . S
N1178 C1170 1.356 . S
N1178 H1184 0.984 . S
N1178 H1185 0.984 . S
N1179 C1172 1.356 . S
N1179 H1182 0.984 . S
N1179 H1183 0.985 . S
H1180 N1175 0.984 . S
H1181 N1175 0.985 . S
H1182 N1179 0.984 . S
H1183 N1179 0.985 . S
H1184 N1178 0.984 . S
H1185 N1178 0.984 . S
H1186 N1174 0.984 . S
H1187 N1174 0.985 . S
C1188 C1189 1.363 . S
C1188 C1194 1.379 . S
C1188 N1196 1.356 . S
C1189 C1188 1.363 . S
C1189 C1195 1.363 . S
C1190 C1191 1.363 . S
C1190 C1195 1.379 . S
C1190 N1197 1.356 . S
C1191 C1190 1.363 . S
C1191 C1194 1.363 . S
N1192 C1194 1.356 . S
N1192 H1204 0.984 . S
N1192 H1205 0.985 . S
N1193 C1195 1.356 . S
N1193 H1198 0.984 . S
N1193 H1199 0.985 . S
C1194 C1188 1.379 . S
C1194 C1191 1.363 . S
C1194 N1192 1.356 . S
C1195 C1189 1.363 . S
C1195 C1190 1.379 . S
C1195 N1193 1.356 . S
N1196 C1188 1.356 . S
N1196 H1202 0.984 . S
N1196 H1203 0.984 . S
N1197 C1190 1.356 . S
N1197 H1200 0.984 . S
N1197 H1201 0.985 . S
H1198 N1193 0.984 . S
H1199 N1193 0.985 . S
H1200 N1197 0.984 . S
H1201 N1197 0.985 . S
H1202 N1196 0.984 . S
H1203 N1196 0.984 . S
H1204 N1192 0.984 . S
H1205 N1192 0.985 . S
C1206 C1207 1.363 . S
C1206 C1212 1.379 . S
C1206 N1214 1.356 . S
C1207 C1206 1.363 . S
C1207 C1213 1.363 . S
C1208 C1209 1.363 . S
C1208 C1213 1.379 . S
C1208 N1215 1.356 . S
C1209 C1208 1.363 . S
C1209 C1212 1.363 . S
N1210 C1212 1.356 . S
N1210 H1222 0.984 . S
N1210 H1223 0.985 . S
N1211 C1213 1.356 . S
N1211 H1216 0.984 . S
N1211 H1217 0.985 . S
C1212 C1206 1.379 . S
C1212 C1209 1.363 . S
C1212 N1210 1.356 . S
C1213 C1207 1.363 . S
C1213 C1208 1.379 . S
C1213 N1211 1.356 . S
N1214 C1206 1.356 . S
N1214 H1220 0.984 . S
N1214 H1221 0.984 . S
N1215 C1208 1.356 . S
N1215 H1218 0.984 . S
N1215 H1219 0.985 . S
H1216 N1211 0.984 . S
H1217 N1211 0.985 . S
H1218 N1215 0.984 . S
H1219 N1215 0.985 . S
H1220 N1214 0.984 . S
H1221 N1214 0.984 . S
H1222 N1210 0.984 . S
H1223 N1210 0.985 . S
C1224 C1225 1.363 . S
C1224 C1230 1.379 . S
C1224 N1232 1.356 . S
C1225 C1224 1.363 . S
C1225 C1231 1.363 . S
C1226 C1227 1.363 . S
C1226 C1231 1.379 . S
C1226 N1233 1.356 . S
C1227 C1226 1.363 . S
C1227 C1230 1.363 . S
N1228 C1230 1.356 . S
N1228 H1240 0.984 . S
N1228 H1241 0.985 . S
N1229 C1231 1.356 . S
N1229 H1234 0.984 . S
N1229 H1235 0.985 . S
C1230 C1224 1.379 . S
C1230 C1227 1.363 . S
C1230 N1228 1.356 . S
C1231 C1225 1.363 . S
C1231 C1226 1.379 . S
C1231 N1229 1.356 . S
N1232 C1224 1.356 . S
N1232 H1238 0.984 . S
N1232 H1239 0.984 . S
N1233 C1226 1.356 . S
N1233 H1236 0.984 . S
N1233 H1237 0.985 . S
H1234 N1229 0.984 . S
H1235 N1229 0.985 . S
H1236 N1233 0.984 . S
H1237 N1233 0.985 . S
H1238 N1232 0.984 . S
H1239 N1232 0.984 . S
H1240 N1228 0.984 . S
H1241 N1228 0.985 . S
C1242 C1243 1.363 . S
C1242 C1248 1.379 . S
C1242 N1250 1.356 . S
C1243 C1242 1.363 . S
C1243 C1249 1.363 . S
C1244 C1245 1.363 . S
C1244 C1249 1.379 . S
C1244 N1251 1.356 . S
C1245 C1244 1.363 . S
C1245 C1248 1.363 . S
N1246 C1248 1.356 . S
N1246 H1258 0.984 . S
N1246 H1259 0.985 . S
N1247 C1249 1.356 . S
N1247 H1252 0.984 . S
N1247 H1253 0.985 . S
C1248 C1242 1.379 . S
C1248 C1245 1.363 . S
C1248 N1246 1.356 . S
C1249 C1243 1.363 . S
C1249 C1244 1.379 . S
C1249 N1247 1.356 . S
N1250 C1242 1.356 . S
N1250 H1256 0.984 . S
N1250 H1257 0.984 . S
N1251 C1244 1.356 . S
N1251 H1254 0.984 . S
N1251 H1255 0.985 . S
H1252 N1247 0.984 . S
H1253 N1247 0.985 . S
H1254 N1251 0.984 . S
H1255 N1251 0.985 . S
H1256 N1250 0.984 . S
H1257 N1250 0.984 . S
H1258 N1246 0.984 . S
H1259 N1246 0.985 . S
C1260 C1261 1.363 . S
C1260 C1266 1.379 . S
C1260 N1268 1.356 . S
C1261 C1260 1.363 . S
C1261 C1267 1.363 . S
C1262 C1263 1.363 . S
C1262 C1267 1.379 . S
C1262 N1269 1.356 . S
C1263 C1262 1.363 . S
C1263 C1266 1.363 . S
N1264 C1266 1.356 . S
N1264 H1276 0.984 . S
N1264 H1277 0.985 . S
N1265 C1267 1.356 . S
N1265 H1270 0.984 . S
N1265 H1271 0.985 . S
C1266 C1260 1.379 . S
C1266 C1263 1.363 . S
C1266 N1264 1.356 . S
C1267 C1261 1.363 . S
C1267 C1262 1.379 . S
C1267 N1265 1.356 . S
N1268 C1260 1.356 . S
N1268 H1274 0.984 . S
N1268 H1275 0.984 . S
N1269 C1262 1.356 . S
N1269 H1272 0.984 . S
N1269 H1273 0.985 . S
H1270 N1265 0.984 . S
H1271 N1265 0.985 . S
H1272 N1269 0.984 . S
H1273 N1269 0.985 . S
H1274 N1268 0.984 . S
H1275 N1268 0.984 . S
H1276 N1264 0.984 . S
H1277 N1264 0.985 . S
C1278 C1279 1.363 . S
C1278 C1284 1.379 . S
C1278 N1286 1.356 . S
C1279 C1278 1.363 . S
C1279 C1285 1.363 . S
C1280 C1281 1.363 . S
C1280 C1285 1.379 . S
C1280 N1287 1.356 . S
C1281 C1280 1.363 . S
C1281 C1284 1.363 . S
N1282 C1284 1.356 . S
N1282 H1294 0.984 . S
N1282 H1295 0.985 . S
N1283 C1285 1.356 . S
N1283 H1288 0.984 . S
N1283 H1289 0.985 . S
C1284 C1278 1.379 . S
C1284 C1281 1.363 . S
C1284 N1282 1.356 . S
C1285 C1279 1.363 . S
C1285 C1280 1.379 . S
C1285 N1283 1.356 . S
N1286 C1278 1.356 . S
N1286 H1292 0.984 . S
N1286 H1293 0.984 . S
N1287 C1280 1.356 . S
N1287 H1290 0.984 . S
N1287 H1291 0.985 . S
H1288 N1283 0.984 . S
H1289 N1283 0.985 . S
H1290 N1287 0.984 . S
H1291 N1287 0.985 . S
H1292 N1286 0.984 . S
H1293 N1286 0.984 . S
H1294 N1282 0.984 . S
H1295 N1282 0.985 . S
C1296 C1297 1.363 . S
C1296 C1302 1.379 . S
C1296 N1304 1.356 . S
C1297 C1296 1.363 . S
C1297 C1303 1.363 . S
C1298 C1299 1.363 . S
C1298 C1303 1.379 . S
C1298 N1305 1.356 . S
C1299 C1298 1.363 . S
C1299 C1302 1.363 . S
N1300 C1302 1.356 . S
N1300 H1312 0.984 . S
N1300 H1313 0.985 . S
N1301 C1303 1.356 . S
N1301 H1306 0.984 . S
N1301 H1307 0.985 . S
C1302 C1296 1.379 . S
C1302 C1299 1.363 . S
C1302 N1300 1.356 . S
C1303 C1297 1.363 . S
C1303 C1298 1.379 . S
C1303 N1301 1.356 . S
N1304 C1296 1.356 . S
N1304 H1310 0.984 . S
N1304 H1311 0.984 . S
N1305 C1298 1.356 . S
N1305 H1308 0.984 . S
N1305 H1309 0.985 . S
H1306 N1301 0.984 . S
H1307 N1301 0.985 . S
H1308 N1305 0.984 . S
H1309 N1305 0.985 . S
H1310 N1304 0.984 . S
H1311 N1304 0.984 . S
H1312 N1300 0.984 . S
H1313 N1300 0.985 . S
C1314 C1315 1.363 . S
C1314 C1320 1.379 . S
C1314 N1322 1.356 . S
C1315 C1314 1.363 . S
C1315 C1321 1.363 . S
C1316 C1317 1.363 . S
C1316 C1321 1.379 . S
C1316 N1323 1.356 . S
C1317 C1316 1.363 . S
C1317 C1320 1.363 . S
N1318 C1320 1.356 . S
N1318 H1330 0.984 . S
N1318 H1331 0.985 . S
N1319 C1321 1.356 . S
N1319 H1324 0.984 . S
N1319 H1325 0.985 . S
C1320 C1314 1.379 . S
C1320 C1317 1.363 . S
C1320 N1318 1.356 . S
C1321 C1315 1.363 . S
C1321 C1316 1.379 . S
C1321 N1319 1.356 . S
N1322 C1314 1.356 . S
N1322 H1328 0.984 . S
N1322 H1329 0.984 . S
N1323 C1316 1.356 . S
N1323 H1326 0.984 . S
N1323 H1327 0.985 . S
H1324 N1319 0.984 . S
H1325 N1319 0.985 . S
H1326 N1323 0.984 . S
H1327 N1323 0.985 . S
H1328 N1322 0.984 . S
H1329 N1322 0.984 . S
H1330 N1318 0.984 . S
H1331 N1318 0.985 . S
C1332 C1333 1.363 . S
C1332 C1338 1.379 . S
C1332 N1340 1.356 . S
C1333 C1332 1.363 . S
C1333 C1339 1.363 . S
C1334 C1335 1.363 . S
C1334 C1339 1.379 . S
C1334 N1341 1.356 . S
C1335 C1334 1.363 . S
C1335 C1338 1.363 . S
N1336 C1338 1.356 . S
N1336 H1348 0.984 . S
N1336 H1349 0.985 . S
N1337 C1339 1.356 . S
N1337 H1342 0.984 . S
N1337 H1343 0.985 . S
C1338 C1332 1.379 . S
C1338 C1335 1.363 . S
C1338 N1336 1.356 . S
C1339 C1333 1.363 . S
C1339 C1334 1.379 . S
C1339 N1337 1.356 . S
N1340 C1332 1.356 . S
N1340 H1346 0.984 . S
N1340 H1347 0.984 . S
N1341 C1334 1.356 . S
N1341 H1344 0.984 . S
N1341 H1345 0.985 . S
H1342 N1337 0.984 . S
H1343 N1337 0.985 . S
H1344 N1341 0.984 . S
H1345 N1341 0.985 . S
H1346 N1340 0.984 . S
H1347 N1340 0.984 . S
H1348 N1336 0.984 . S
H1349 N1336 0.985 . S
C1350 C1351 1.363 . S
C1350 C1356 1.379 . S
C1350 N1358 1.356 . S
C1351 C1350 1.363 . S
C1351 C1357 1.363 . S
C1352 C1353 1.363 . S
C1352 C1357 1.379 . S
C1352 N1359 1.356 . S
C1353 C1352 1.363 . S
C1353 C1356 1.363 . S
N1354 C1356 1.356 . S
N1354 H1366 0.984 . S
N1354 H1367 0.985 . S
N1355 C1357 1.356 . S
N1355 H1360 0.984 . S
N1355 H1361 0.985 . S
C1356 C1350 1.379 . S
C1356 C1353 1.363 . S
C1356 N1354 1.356 . S
C1357 C1351 1.363 . S
C1357 C1352 1.379 . S
C1357 N1355 1.356 . S
N1358 C1350 1.356 . S
N1358 H1364 0.984 . S
N1358 H1365 0.984 . S
N1359 C1352 1.356 . S
N1359 H1362 0.984 . S
N1359 H1363 0.985 . S
H1360 N1355 0.984 . S
H1361 N1355 0.985 . S
H1362 N1359 0.984 . S
H1363 N1359 0.985 . S
H1364 N1358 0.984 . S
H1365 N1358 0.984 . S
H1366 N1354 0.984 . S
H1367 N1354 0.985 . S
C1368 C1369 1.363 . S
C1368 C1374 1.379 . S
C1368 N1376 1.356 . S
C1369 C1368 1.363 . S
C1369 C1375 1.363 . S
C1370 C1371 1.363 . S
C1370 C1375 1.379 . S
C1370 N1377 1.356 . S
C1371 C1370 1.363 . S
C1371 C1374 1.363 . S
N1372 C1374 1.356 . S
N1372 H1384 0.984 . S
N1372 H1385 0.985 . S
N1373 C1375 1.356 . S
N1373 H1378 0.984 . S
N1373 H1379 0.985 . S
C1374 C1368 1.379 . S
C1374 C1371 1.363 . S
C1374 N1372 1.356 . S
C1375 C1369 1.363 . S
C1375 C1370 1.379 . S
C1375 N1373 1.356 . S
N1376 C1368 1.356 . S
N1376 H1382 0.984 . S
N1376 H1383 0.984 . S
N1377 C1370 1.356 . S
N1377 H1380 0.984 . S
N1377 H1381 0.985 . S
H1378 N1373 0.984 . S
H1379 N1373 0.985 . S
H1380 N1377 0.984 . S
H1381 N1377 0.985 . S
H1382 N1376 0.984 . S
H1383 N1376 0.984 . S
H1384 N1372 0.984 . S
H1385 N1372 0.985 . S
C1386 C1387 1.363 1_554 S
C1386 C1392 1.379 . S
C1386 N1394 1.356 1_554 S
C1387 C1386 1.363 1_556 S
C1387 C1393 1.363 1_556 S
C1388 C1389 1.363 . S
C1388 C1393 1.379 . S
C1388 N1395 1.356 . S
C1389 C1388 1.363 . S
C1389 C1392 1.363 . S
N1390 C1392 1.356 . S
N1390 H1402 0.984 . S
N1390 H1403 0.985 . S
N1391 C1393 1.356 1_556 S
N1391 H1396 0.984 . S
N1391 H1397 0.985 1_556 S
C1392 C1386 1.379 . S
C1392 C1389 1.363 . S
C1392 N1390 1.356 . S
C1393 C1387 1.363 1_554 S
C1393 C1388 1.379 . S
C1393 N1391 1.356 1_554 S
N1394 C1386 1.356 1_556 S
N1394 H1400 0.984 . S
N1394 H1401 0.984 . S
N1395 C1388 1.356 . S
N1395 H1398 0.984 . S
N1395 H1399 0.985 . S
H1396 N1391 0.984 . S
H1397 N1391 0.985 1_554 S
H1398 N1395 0.984 . S
H1399 N1395 0.985 . S
H1400 N1394 0.984 . S
H1401 N1394 0.984 . S
H1402 N1390 0.984 . S
H1403 N1390 0.985 . S
C1404 C1405 1.363 . S
C1404 C1410 1.379 1_556 S
C1404 N1412 1.356 . S
C1405 C1404 1.363 . S
C1405 C1411 1.363 1_556 S
C1406 C1407 1.363 . S
C1406 C1411 1.379 . S
C1406 N1413 1.356 . S
C1407 C1406 1.363 . S
C1407 C1410 1.363 . S
N1408 C1410 1.356 . S
N1408 H1420 0.984 . S
N1408 H1421 0.985 . S
N1409 C1411 1.356 . S
N1409 H1414 0.983 1_554 S
N1409 H1415 0.985 . S
C1410 C1404 1.379 1_554 S
C1410 C1407 1.363 . S
C1410 N1408 1.356 . S
C1411 C1405 1.363 1_554 S
C1411 C1406 1.379 . S
C1411 N1409 1.356 . S
N1412 C1404 1.356 . S
N1412 H1418 0.984 . S
N1412 H1419 0.984 . S
N1413 C1406 1.356 . S
N1413 H1416 0.984 . S
N1413 H1417 0.985 . S
H1414 N1409 0.983 1_556 S
H1415 N1409 0.985 . S
H1416 N1413 0.984 . S
H1417 N1413 0.985 . S
H1418 N1412 0.984 . S
H1419 N1412 0.984 . S
H1420 N1408 0.984 . S
H1421 N1408 0.985 . S
C1422 C1423 1.363 1_554 S
C1422 C1428 1.379 . S
C1422 N1430 1.356 . S
C1423 C1422 1.363 1_556 S
C1423 C1429 1.363 . S
C1424 C1425 1.363 . S
C1424 C1429 1.379 1_554 S
C1424 N1431 1.356 . S
C1425 C1424 1.363 . S
C1425 C1428 1.363 . S
N1426 C1428 1.356 . S
N1426 H1438 0.984 . S
N1426 H1439 0.985 . S
N1427 C1429 1.356 . S
N1427 H1432 0.984 . S
N1427 H1433 0.985 . S
C1428 C1422 1.379 . S
C1428 C1425 1.363 . S
C1428 N1426 1.356 . S
C1429 C1423 1.363 . S
C1429 C1424 1.379 1_556 S
C1429 N1427 1.356 . S
N1430 C1422 1.356 . S
N1430 H1436 0.984 . S
N1430 H1437 0.984 1_554 S
N1431 C1424 1.356 . S
N1431 H1434 0.984 . S
N1431 H1435 0.985 . S
H1432 N1427 0.984 . S
H1433 N1427 0.985 . S
H1434 N1431 0.984 . S
H1435 N1431 0.985 . S
H1436 N1430 0.984 . S
H1437 N1430 0.984 1_556 S
H1438 N1426 0.984 . S
H1439 N1426 0.985 . S
C1440 C1441 1.363 . S
C1440 C1446 1.379 . S
C1440 N1448 1.356 . S
C1441 C1440 1.363 . S
C1441 C1447 1.363 . S
C1442 C1443 1.363 . S
C1442 C1447 1.379 . S
C1442 N1449 1.356 . S
C1443 C1442 1.363 . S
C1443 C1446 1.363 . S
N1444 C1446 1.356 . S
N1444 H1456 0.984 . S
N1444 H1457 0.985 . S
N1445 C1447 1.356 1_556 S
N1445 H1450 0.984 . S
N1445 H1451 0.985 . S
C1446 C1440 1.379 . S
C1446 C1443 1.363 . S
C1446 N1444 1.356 . S
C1447 C1441 1.363 . S
C1447 C1442 1.379 . S
C1447 N1445 1.356 1_554 S
N1448 C1440 1.356 . S
N1448 H1454 0.984 . S
N1448 H1455 0.984 . S
N1449 C1442 1.356 . S
N1449 H1452 0.984 . S
N1449 H1453 0.985 1_554 S
H1450 N1445 0.984 . S
H1451 N1445 0.985 . S
H1452 N1449 0.984 . S
H1453 N1449 0.985 1_556 S
H1454 N1448 0.984 . S
H1455 N1448 0.984 . S
H1456 N1444 0.984 . S
H1457 N1444 0.985 . S
C1458 C1459 1.363 . S
C1458 C1464 1.379 . S
C1458 N1466 1.356 . S
C1459 C1458 1.363 . S
C1459 C1465 1.363 . S
C1460 C1461 1.363 . S
C1460 C1465 1.379 . S
C1460 N1467 1.356 . S
C1461 C1460 1.363 . S
C1461 C1464 1.363 . S
N1462 C1464 1.356 1_556 S
N1462 H1474 0.984 . S
N1462 H1475 0.985 . S
N1463 C1465 1.356 . S
N1463 H1468 0.984 . S
N1463 H1469 0.985 . S
C1464 C1458 1.379 . S
C1464 C1461 1.363 . S
C1464 N1462 1.356 1_554 S
C1465 C1459 1.363 . S
C1465 C1460 1.379 . S
C1465 N1463 1.356 . S
N1466 C1458 1.356 . S
N1466 H1472 0.984 . S
N1466 H1473 0.984 . S
N1467 C1460 1.356 . S
N1467 H1470 0.984 . S
N1467 H1471 0.985 . S
H1468 N1463 0.984 . S
H1469 N1463 0.985 . S
H1470 N1467 0.984 . S
H1471 N1467 0.985 . S
H1472 N1466 0.984 . S
H1473 N1466 0.984 . S
H1474 N1462 0.984 . S
H1475 N1462 0.985 . S
C1476 C1477 1.363 . S
C1476 C1482 1.379 . S
C1476 N1484 1.356 . S
C1477 C1476 1.363 . S
C1477 C1483 1.363 1_554 S
C1478 C1479 1.363 . S
C1478 C1483 1.379 1_554 S
C1478 N1485 1.356 1_554 S
C1479 C1478 1.363 . S
C1479 C1482 1.363 . S
N1480 C1482 1.356 . S
N1480 H1492 0.984 . S
N1480 H1493 0.985 . S
N1481 C1483 1.356 . S
N1481 H1486 0.984 . S
N1481 H1487 0.985 . S
C1482 C1476 1.379 . S
C1482 C1479 1.363 . S
C1482 N1480 1.356 . S
C1483 C1477 1.363 1_556 S
C1483 C1478 1.379 1_556 S
C1483 N1481 1.356 . S
N1484 C1476 1.356 . S
N1484 H1490 0.984 . S
N1484 H1491 0.984 . S
N1485 C1478 1.356 1_556 S
N1485 H1488 0.984 1_556 S
N1485 H1489 0.985 . S
H1486 N1481 0.984 . S
H1487 N1481 0.985 . S
H1488 N1485 0.984 1_554 S
H1489 N1485 0.985 . S
H1490 N1484 0.984 . S
H1491 N1484 0.984 . S
H1492 N1480 0.984 . S
H1493 N1480 0.985 . S
C1494 C1495 1.363 . S
C1494 C1500 1.379 . S
C1494 N1502 1.356 . S
C1495 C1494 1.363 . S
C1495 C1501 1.363 . S
C1496 C1497 1.363 . S
C1496 C1501 1.379 . S
C1496 N1503 1.356 . S
C1497 C1496 1.363 . S
C1497 C1500 1.363 . S
N1498 C1500 1.356 . S
N1498 H1510 0.984 . S
N1498 H1511 0.985 . S
N1499 C1501 1.356 . S
N1499 H1504 0.984 . S
N1499 H1505 0.985 . S
C1500 C1494 1.379 . S
C1500 C1497 1.363 . S
C1500 N1498 1.356 . S
C1501 C1495 1.363 . S
C1501 C1496 1.379 . S
C1501 N1499 1.356 . S
N1502 C1494 1.356 . S
N1502 H1508 0.984 . S
N1502 H1509 0.984 . S
N1503 C1496 1.356 . S
N1503 H1506 0.984 . S
N1503 H1507 0.985 . S
H1504 N1499 0.984 . S
H1505 N1499 0.985 . S
H1506 N1503 0.984 . S
H1507 N1503 0.985 . S
H1508 N1502 0.984 . S
H1509 N1502 0.984 . S
H1510 N1498 0.984 . S
H1511 N1498 0.985 . S
C1512 C1513 1.363 . S
C1512 C1518 1.379 . S
C1512 N1520 1.356 . S
C1513 C1512 1.363 . S
C1513 C1519 1.363 . S
C1514 C1515 1.363 . S
C1514 C1519 1.379 . S
C1514 N1521 1.356 . S
C1515 C1514 1.363 . S
C1515 C1518 1.363 . S
N1516 C1518 1.356 . S
N1516 H1528 0.984 . S
N1516 H1529 0.985 . S
N1517 C1519 1.356 . S
N1517 H1522 0.984 . S
N1517 H1523 0.985 . S
C1518 C1512 1.379 . S
C1518 C1515 1.363 . S
C1518 N1516 1.356 . S
C1519 C1513 1.363 . S
C1519 C1514 1.379 . S
C1519 N1517 1.356 . S
N1520 C1512 1.356 . S
N1520 H1526 0.984 . S
N1520 H1527 0.984 . S
N1521 C1514 1.356 . S
N1521 H1524 0.984 . S
N1521 H1525 0.985 . S
H1522 N1517 0.984 . S
H1523 N1517 0.985 . S
H1524 N1521 0.984 . S
H1525 N1521 0.985 . S
H1526 N1520 0.984 . S
H1527 N1520 0.984 . S
H1528 N1516 0.984 . S
H1529 N1516 0.985 . S
C1530 C1531 1.363 . S
C1530 C1536 1.379 . S
C1530 N1538 1.356 . S
C1531 C1530 1.363 . S
C1531 C1537 1.363 . S
C1532 C1533 1.363 . S
C1532 C1537 1.379 . S
C1532 N1539 1.356 . S
C1533 C1532 1.363 . S
C1533 C1536 1.363 . S
N1534 C1536 1.356 . S
N1534 H1546 0.984 . S
N1534 H1547 0.985 . S
N1535 C1537 1.356 . S
N1535 H1540 0.984 . S
N1535 H1541 0.985 . S
C1536 C1530 1.379 . S
C1536 C1533 1.363 . S
C1536 N1534 1.356 . S
C1537 C1531 1.363 . S
C1537 C1532 1.379 . S
C1537 N1535 1.356 . S
N1538 C1530 1.356 . S
N1538 H1544 0.984 . S
N1538 H1545 0.984 . S
N1539 C1532 1.356 . S
N1539 H1542 0.984 . S
N1539 H1543 0.985 . S
H1540 N1535 0.984 . S
H1541 N1535 0.985 . S
H1542 N1539 0.984 . S
H1543 N1539 0.985 . S
H1544 N1538 0.984 . S
H1545 N1538 0.984 . S
H1546 N1534 0.984 . S
H1547 N1534 0.985 . S
C1548 C1549 1.363 . S
C1548 C1554 1.379 . S
C1548 N1556 1.356 . S
C1549 C1548 1.363 . S
C1549 C1555 1.363 . S
C1550 C1551 1.363 . S
C1550 C1555 1.379 . S
C1550 N1557 1.356 1_556 S
C1551 C1550 1.363 . S
C1551 C1554 1.363 . S
N1552 C1554 1.356 . S
N1552 H1564 0.984 . S
N1552 H1565 0.985 . S
N1553 C1555 1.356 . S
N1553 H1558 0.984 . S
N1553 H1559 0.985 1_556 S
C1554 C1548 1.379 . S
C1554 C1551 1.363 . S
C1554 N1552 1.356 . S
C1555 C1549 1.363 . S
C1555 C1550 1.379 . S
C1555 N1553 1.356 . S
N1556 C1548 1.356 . S
N1556 H1562 0.984 . S
N1556 H1563 0.984 . S
N1557 C1550 1.356 1_554 S
N1557 H1560 0.984 . S
N1557 H1561 0.985 . S
H1558 N1553 0.984 . S
H1559 N1553 0.985 1_554 S
H1560 N1557 0.984 . S
H1561 N1557 0.985 . S
H1562 N1556 0.984 . S
H1563 N1556 0.984 . S
H1564 N1552 0.984 . S
H1565 N1552 0.985 . S
C1566 C1567 1.363 . S
C1566 C1572 1.379 . S
C1566 N1574 1.356 . S
C1567 C1566 1.363 . S
C1567 C1573 1.363 . S
C1568 C1569 1.363 . S
C1568 C1573 1.379 . S
C1568 N1575 1.356 . S
C1569 C1568 1.363 . S
C1569 C1572 1.363 . S
N1570 C1572 1.356 . S
N1570 H1582 0.984 . S
N1570 H1583 0.985 . S
N1571 C1573 1.356 . S
N1571 H1576 0.984 . S
N1571 H1577 0.985 . S
C1572 C1566 1.379 . S
C1572 C1569 1.363 . S
C1572 N1570 1.356 . S
C1573 C1567 1.363 . S
C1573 C1568 1.379 . S
C1573 N1571 1.356 . S
N1574 C1566 1.356 . S
N1574 H1580 0.984 . S
N1574 H1581 0.984 . S
N1575 C1568 1.356 . S
N1575 H1578 0.984 . S
N1575 H1579 0.985 . S
H1576 N1571 0.984 . S
H1577 N1571 0.985 . S
H1578 N1575 0.984 . S
H1579 N1575 0.985 . S
H1580 N1574 0.984 . S
H1581 N1574 0.984 . S
H1582 N1570 0.984 . S
H1583 N1570 0.985 . S
C1584 C1585 1.363 . S
C1584 C1590 1.379 . S
C1584 N1592 1.356 . S
C1585 C1584 1.363 . S
C1585 C1591 1.363 . S
C1586 C1587 1.363 . S
C1586 C1591 1.379 . S
C1586 N1593 1.356 . S
C1587 C1586 1.363 . S
C1587 C1590 1.363 . S
N1588 C1590 1.356 . S
N1588 H1600 0.984 . S
N1588 H1601 0.985 . S
N1589 C1591 1.356 . S
N1589 H1594 0.984 . S
N1589 H1595 0.985 . S
C1590 C1584 1.379 . S
C1590 C1587 1.363 . S
C1590 N1588 1.356 . S
C1591 C1585 1.363 . S
C1591 C1586 1.379 . S
C1591 N1589 1.356 . S
N1592 C1584 1.356 . S
N1592 H1598 0.984 . S
N1592 H1599 0.984 . S
N1593 C1586 1.356 . S
N1593 H1596 0.984 . S
N1593 H1597 0.985 . S
H1594 N1589 0.984 . S
H1595 N1589 0.985 . S
H1596 N1593 0.984 . S
H1597 N1593 0.985 . S
H1598 N1592 0.984 . S
H1599 N1592 0.984 . S
H1600 N1588 0.984 . S
H1601 N1588 0.985 . S
C1602 C1603 1.363 . S
C1602 C1608 1.379 . S
C1602 N1610 1.356 . S
C1603 C1602 1.363 . S
C1603 C1609 1.363 . S
C1604 C1605 1.363 . S
C1604 C1609 1.379 . S
C1604 N1611 1.356 . S
C1605 C1604 1.363 . S
C1605 C1608 1.363 . S
N1606 C1608 1.356 . S
N1606 H1618 0.984 . S
N1606 H1619 0.985 . S
N1607 C1609 1.356 . S
N1607 H1612 0.984 . S
N1607 H1613 0.985 . S
C1608 C1602 1.379 . S
C1608 C1605 1.363 . S
C1608 N1606 1.356 . S
C1609 C1603 1.363 . S
C1609 C1604 1.379 . S
C1609 N1607 1.356 . S
N1610 C1602 1.356 . S
N1610 H1616 0.984 . S
N1610 H1617 0.984 . S
N1611 C1604 1.356 . S
N1611 H1614 0.984 . S
N1611 H1615 0.985 . S
H1612 N1607 0.984 . S
H1613 N1607 0.985 . S
H1614 N1611 0.984 . S
H1615 N1611 0.985 . S
H1616 N1610 0.984 . S
H1617 N1610 0.984 . S
H1618 N1606 0.984 . S
H1619 N1606 0.985 . S
C1620 C1621 1.363 . S
C1620 C1626 1.379 . S
C1620 N1628 1.356 . S
C1621 C1620 1.363 . S
C1621 C1627 1.363 . S
C1622 C1623 1.363 . S
C1622 C1627 1.379 . S
C1622 N1629 1.356 . S
C1623 C1622 1.363 . S
C1623 C1626 1.363 . S
N1624 C1626 1.356 . S
N1624 H1636 0.984 . S
N1624 H1637 0.985 . S
N1625 C1627 1.356 . S
N1625 H1630 0.984 . S
N1625 H1631 0.985 . S
C1626 C1620 1.379 . S
C1626 C1623 1.363 . S
C1626 N1624 1.356 . S
C1627 C1621 1.363 . S
C1627 C1622 1.379 . S
C1627 N1625 1.356 . S
N1628 C1620 1.356 . S
N1628 H1634 0.984 . S
N1628 H1635 0.984 . S
N1629 C1622 1.356 . S
N1629 H1632 0.984 . S
N1629 H1633 0.985 . S
H1630 N1625 0.984 . S
H1631 N1625 0.985 . S
H1632 N1629 0.984 . S
H1633 N1629 0.985 . S
H1634 N1628 0.984 . S
H1635 N1628 0.984 . S
H1636 N1624 0.984 . S
H1637 N1624 0.985 . S
C1638 C1639 1.363 . S
C1638 C1644 1.379 . S
C1638 N1646 1.356 . S
C1639 C1638 1.363 . S
C1639 C1645 1.363 . S
C1640 C1641 1.363 . S
C1640 C1645 1.379 . S
C1640 N1647 1.356 . S
C1641 C1640 1.363 . S
C1641 C1644 1.363 . S
N1642 C1644 1.356 . S
N1642 H1654 0.984 . S
N1642 H1655 0.985 . S
N1643 C1645 1.356 . S
N1643 H1648 0.984 . S
N1643 H1649 0.985 . S
C1644 C1638 1.379 . S
C1644 C1641 1.363 . S
C1644 N1642 1.356 . S
C1645 C1639 1.363 . S
C1645 C1640 1.379 . S
C1645 N1643 1.356 . S
N1646 C1638 1.356 . S
N1646 H1652 0.984 . S
N1646 H1653 0.984 . S
N1647 C1640 1.356 . S
N1647 H1650 0.984 . S
N1647 H1651 0.985 . S
H1648 N1643 0.984 . S
H1649 N1643 0.985 . S
H1650 N1647 0.984 . S
H1651 N1647 0.985 . S
H1652 N1646 0.984 . S
H1653 N1646 0.984 . S
H1654 N1642 0.984 . S
H1655 N1642 0.985 . S
C1656 C1657 1.363 . S
C1656 C1662 1.379 1_455 S
C1656 N1664 1.356 . S
C1657 C1656 1.363 . S
C1657 C1663 1.363 . S
C1658 C1659 1.363 . S
C1658 C1663 1.379 1_655 S
C1658 N1665 1.356 . S
C1659 C1658 1.363 . S
C1659 C1662 1.363 . S
N1660 C1662 1.356 . S
N1660 H1672 0.984 . S
N1660 H1673 0.985 . S
N1661 C1663 1.356 . S
N1661 H1666 0.984 . S
N1661 H1667 0.985 . S
C1662 C1656 1.379 1_655 S
C1662 C1659 1.363 . S
C1662 N1660 1.356 . S
C1663 C1657 1.363 . S
C1663 C1658 1.379 1_455 S
C1663 N1661 1.356 . S
N1664 C1656 1.356 . S
N1664 H1670 0.984 . S
N1664 H1671 0.984 . S
N1665 C1658 1.356 . S
N1665 H1668 0.984 . S
N1665 H1669 0.985 . S
H1666 N1661 0.984 . S
H1667 N1661 0.985 . S
H1668 N1665 0.984 . S
H1669 N1665 0.985 . S
H1670 N1664 0.984 . S
H1671 N1664 0.984 . S
H1672 N1660 0.984 . S
H1673 N1660 0.985 . S
C1674 C1675 1.363 . S
C1674 C1680 1.379 . S
C1674 N1682 1.356 . S
C1675 C1674 1.363 . S
C1675 C1681 1.363 . S
C1676 C1677 1.363 . S
C1676 C1681 1.379 . S
C1676 N1683 1.356 . S
C1677 C1676 1.363 . S
C1677 C1680 1.363 . S
N1678 C1680 1.356 . S
N1678 H1690 0.984 . S
N1678 H1691 0.985 . S
N1679 C1681 1.356 . S
N1679 H1684 0.984 . S
N1679 H1685 0.985 . S
C1680 C1674 1.379 . S
C1680 C1677 1.363 . S
C1680 N1678 1.356 . S
C1681 C1675 1.363 . S
C1681 C1676 1.379 . S
C1681 N1679 1.356 . S
N1682 C1674 1.356 . S
N1682 H1688 0.984 . S
N1682 H1689 0.984 . S
N1683 C1676 1.356 . S
N1683 H1686 0.984 . S
N1683 H1687 0.985 . S
H1684 N1679 0.984 . S
H1685 N1679 0.985 . S
H1686 N1683 0.984 . S
H1687 N1683 0.985 . S
H1688 N1682 0.984 . S
H1689 N1682 0.984 . S
H1690 N1678 0.984 . S
H1691 N1678 0.985 . S
C1692 C1693 1.363 . S
C1692 C1698 1.379 1_565 S
C1692 N1700 1.356 . S
C1693 C1692 1.363 . S
C1693 C1699 1.363 . S
C1694 C1695 1.363 . S
C1694 C1699 1.379 1_545 S
C1694 N1701 1.356 . S
C1695 C1694 1.363 . S
C1695 C1698 1.363 . S
N1696 C1698 1.356 . S
N1696 H1708 0.984 . S
N1696 H1709 0.985 . S
N1697 C1699 1.356 . S
N1697 H1702 0.984 . S
N1697 H1703 0.985 . S
C1698 C1692 1.379 1_545 S
C1698 C1695 1.363 . S
C1698 N1696 1.356 . S
C1699 C1693 1.363 . S
C1699 C1694 1.379 1_565 S
C1699 N1697 1.356 . S
N1700 C1692 1.356 . S
N1700 H1706 0.984 . S
N1700 H1707 0.984 . S
N1701 C1694 1.356 . S
N1701 H1704 0.984 . S
N1701 H1705 0.985 . S
H1702 N1697 0.984 . S
H1703 N1697 0.985 . S
H1704 N1701 0.984 . S
H1705 N1701 0.985 . S
H1706 N1700 0.984 . S
H1707 N1700 0.984 . S
H1708 N1696 0.984 . S
H1709 N1696 0.985 . S
C1710 C1711 1.363 . S
C1710 C1716 1.379 1_545 S
C1710 N1718 1.356 . S
C1711 C1710 1.363 . S
C1711 C1717 1.363 . S
C1712 C1713 1.363 . S
C1712 C1717 1.379 1_565 S
C1712 N1719 1.356 . S
C1713 C1712 1.363 . S
C1713 C1716 1.363 . S
N1714 C1716 1.356 . S
N1714 H1726 0.984 . S
N1714 H1727 0.985 . S
N1715 C1717 1.356 . S
N1715 H1720 0.984 . S
N1715 H1721 0.985 . S
C1716 C1710 1.379 1_565 S
C1716 C1713 1.363 . S
C1716 N1714 1.356 . S
C1717 C1711 1.363 . S
C1717 C1712 1.379 1_545 S
C1717 N1715 1.356 . S
N1718 C1710 1.356 . S
N1718 H1724 0.984 . S
N1718 H1725 0.984 . S
N1719 C1712 1.356 . S
N1719 H1722 0.984 . S
N1719 H1723 0.985 . S
H1720 N1715 0.984 . S
H1721 N1715 0.985 . S
H1722 N1719 0.984 . S
H1723 N1719 0.985 . S
H1724 N1718 0.984 . S
H1725 N1718 0.984 . S
H1726 N1714 0.984 . S
H1727 N1714 0.985 . S
C1728 C1729 1.363 . S
C1728 C1734 1.379 1_455 S
C1728 N1736 1.356 . S
C1729 C1728 1.363 . S
C1729 C1735 1.363 . S
C1730 C1731 1.363 . S
C1730 C1735 1.379 1_655 S
C1730 N1737 1.356 . S
C1731 C1730 1.363 . S
C1731 C1734 1.363 . S
N1732 C1734 1.356 . S
N1732 H1744 0.984 . S
N1732 H1745 0.985 . S
N1733 C1735 1.356 . S
N1733 H1738 0.984 . S
N1733 H1739 0.985 . S
C1734 C1728 1.379 1_655 S
C1734 C1731 1.363 . S
C1734 N1732 1.356 . S
C1735 C1729 1.363 . S
C1735 C1730 1.379 1_455 S
C1735 N1733 1.356 . S
N1736 C1728 1.356 . S
N1736 H1742 0.984 . S
N1736 H1743 0.984 . S
N1737 C1730 1.356 . S
N1737 H1740 0.984 . S
N1737 H1741 0.985 . S
H1738 N1733 0.984 . S
H1739 N1733 0.985 . S
H1740 N1737 0.984 . S
H1741 N1737 0.985 . S
H1742 N1736 0.984 . S
H1743 N1736 0.984 . S
H1744 N1732 0.984 . S
H1745 N1732 0.985 . S
C1746 C1747 1.363 . S
C1746 C1752 1.379 . S
C1746 N1754 1.356 . S
C1747 C1746 1.363 . S
C1747 C1753 1.363 . S
C1748 C1749 1.363 . S
C1748 C1753 1.379 . S
C1748 N1755 1.356 . S
C1749 C1748 1.363 . S
C1749 C1752 1.363 . S
N1750 C1752 1.356 . S
N1750 H1762 0.984 . S
N1750 H1763 0.985 . S
N1751 C1753 1.356 . S
N1751 H1756 0.984 . S
N1751 H1757 0.985 . S
C1752 C1746 1.379 . S
C1752 C1749 1.363 . S
C1752 N1750 1.356 . S
C1753 C1747 1.363 . S
C1753 C1748 1.379 . S
C1753 N1751 1.356 . S
N1754 C1746 1.356 . S
N1754 H1760 0.984 . S
N1754 H1761 0.984 . S
N1755 C1748 1.356 . S
N1755 H1758 0.984 . S
N1755 H1759 0.985 . S
H1756 N1751 0.984 . S
H1757 N1751 0.985 . S
H1758 N1755 0.984 . S
H1759 N1755 0.985 . S
H1760 N1754 0.984 . S
H1761 N1754 0.984 . S
H1762 N1750 0.984 . S
H1763 N1750 0.985 . S
C469 C39 1.328 . S
C471 C0 1.327 . S
C487 C52 1.328 . S
C489 C13 1.327 . S
C505 C65 1.328 . S
C507 C26 1.327 . S
C523 C78 1.327 . S
C525 C117 1.328 . S
C541 C91 1.327 . S
C543 C130 1.328 . S
C559 C143 1.328 . S
C561 C104 1.327 . S
C577 C156 1.307 . S
C579 C195 1.304 . S
C595 C169 1.307 . S
C597 C208 1.304 . S
C613 C182 1.308 . S
C615 C221 1.304 . S
C631 C234 1.297 . S
C633 C273 1.301 . S
C649 C286 1.302 . S
C651 C247 1.297 . S
C667 C260 1.297 . S
C669 C299 1.301 . S
C685 C312 1.297 . S
C687 C351 1.301 . S
C703 C325 1.297 . S
C705 C364 1.301 . S
C721 C377 1.302 . S
C723 C338 1.297 . S
C739 C429 1.304 . S
C741 C390 1.307 . S
C757 C442 1.304 . S
C759 C403 1.307 . S
C775 C455 1.304 . S
C777 C416 1.308 . S
C793 C151 1.371 . S
C795 C5 1.294 1_556 S
C811 C18 1.294 1_556 S
C813 C125 1.371 . S
C829 C31 1.294 1_556 S
C831 C138 1.371 . S
C847 C99 1.381 . S
C849 C44 1.304 . S
C865 C57 1.304 . S
C867 C112 1.381 . S
C883 C86 1.381 . S
C885 C70 1.304 . S
C901 C83 1.294 1_554 S
C903 C73 1.371 . S
C919 C96 1.294 1_554 S
C921 C47 1.371 . S
C937 C60 1.371 . S
C939 C109 1.294 1_554 S
C955 C21 1.380 . S
C957 C122 1.304 . S
C973 C34 1.381 . S
C975 C135 1.304 . S
C991 C148 1.304 . S
C993 C8 1.381 . S
C1009 C161 1.263 . S
C1011 C307 1.332 . S
C1027 C281 1.334 . S
C1029 C174 1.262 . S
C1045 C294 1.334 . S
C1047 C187 1.262 . S
C1063 C200 1.292 . S
C1065 C255 1.360 . S
C1081 C268 1.360 . S
C1083 C213 1.293 . S
C1099 C226 1.292 . S
C1101 C242 1.360 . S
C1117 C239 1.288 . S
C1119 C229 1.356 . S
C1135 C252 1.288 . S
C1137 C203 1.356 . S
C1153 C216 1.356 . S
C1155 C265 1.288 . S
C1171 C177 1.390 . S
C1173 C278 1.320 . S
C1189 C190 1.390 . S
C1191 C291 1.320 . S
C1207 C304 1.318 . S
C1209 C164 1.392 . S
C1225 C463 1.356 . S
C1227 C317 1.288 . S
C1243 C330 1.288 . S
C1245 C437 1.356 . S
C1261 C343 1.288 . S
C1263 C450 1.356 . S
C1279 C356 1.318 . S
C1281 C411 1.392 . S
C1297 C424 1.390 . S
C1299 C369 1.320 . S
C1315 C382 1.318 . S
C1317 C398 1.392 . S
C1333 C385 1.334 . S
C1335 C395 1.262 . S
C1351 C359 1.334 . S
C1353 C408 1.262 . S
C1369 C372 1.334 . S
C1371 C421 1.262 . S
C1387 C333 1.360 . S
C1389 C434 1.292 . S
C1405 C346 1.360 . S
C1407 C447 1.293 . S
C1423 C320 1.360 . S
C1425 C460 1.292 . S
C1441 C387 1.446 . S
C1443 C10 1.446 . S
C1459 C23 1.446 . S
C1461 C361 1.447 . S
C1477 C374 1.446 . S
C1479 C36 1.446 . S
C1495 C49 1.444 . S
C1497 C179 1.444 . S
C1513 C192 1.444 . S
C1515 C62 1.444 . S
C1531 C75 1.444 . S
C1533 C166 1.444 . S
C1549 C88 1.446 . S
C1551 C309 1.447 . S
C1567 C283 1.446 . S
C1569 C101 1.446 . S
C1585 C114 1.446 . S
C1587 C296 1.447 . S
C1603 C127 1.444 . S
C1605 C413 1.444 . S
C1621 C140 1.444 . S
C1623 C426 1.444 . S
C1639 C400 1.444 . S
C1641 C153 1.444 . S
C1657 C335 1.432 . S
C1659 C205 1.432 . S
C1675 C348 1.432 . S
C1677 C218 1.432 . S
C1693 C322 1.433 . S
C1695 C231 1.432 . S
C1711 C244 1.433 . S
C1713 C465 1.432 . S
C1729 C439 1.432 . S
C1731 C257 1.432 . S
C1747 C270 1.432 . S
C1749 C452 1.432 . S
