# Generated by pormake.
# Topology wjg, (4)-cn, num edge types: 1
# Building blocks:
#     Node 0, Type 0, BuildingBlock: QUQFOY_clean_sbu_1, # of connection points: 4
#     Node 1, Type 0, BuildingBlock: QUQFOY_clean_sbu_1, # of connection points: 4
#     Node 2, Type 0, BuildingBlock: QUQFOY_clean_sbu_1, # of connection points: 4
#     Node 3, Type 0, BuildingBlock: QUQFOY_clean_sbu_1, # of connection points: 4
#     Node 4, Type 0, BuildingBlock: QUQFOY_clean_sbu_1, # of connection points: 4
#     Node 5, Type 0, BuildingBlock: QUQFOY_clean_sbu_1, # of connection points: 4
#     Node 6, Type 0, BuildingBlock: QUQFOY_clean_sbu_1, # of connection points: 4
#     Node 7, Type 0, BuildingBlock: QUQFOY_clean_sbu_1, # of connection points: 4
#     Node 8, Type 0, BuildingBlock: QUQFOY_clean_sbu_1, # of connection points: 4
#     Node 9, Type 0, BuildingBlock: QUQFOY_clean_sbu_1, # of connection points: 4
#     Node 10, Type 0, BuildingBlock: QUQFOY_clean_sbu_1, # of connection points: 4
#     Node 11, Type 0, BuildingBlock: QUQFOY_clean_sbu_1, # of connection points: 4
#     Edge 12, Type (0, 0), BuildingBlock: KIFKEQ_clean_linker_1, # of connection points: 2
#     Edge 13, Type (0, 0), BuildingBlock: KIFKEQ_clean_linker_1, # of connection points: 2
#     Edge 14, Type (0, 0), BuildingBlock: KIFKEQ_clean_linker_1, # of connection points: 2
#     Edge 15, Type (0, 0), BuildingBlock: KIFKEQ_clean_linker_1, # of connection points: 2
#     Edge 16, Type (0, 0), BuildingBlock: KIFKEQ_clean_linker_1, # of connection points: 2
#     Edge 17, Type (0, 0), BuildingBlock: KIFKEQ_clean_linker_1, # of connection points: 2
#     Edge 18, Type (0, 0), BuildingBlock: KIFKEQ_clean_linker_1, # of connection points: 2
#     Edge 19, Type (0, 0), BuildingBlock: KIFKEQ_clean_linker_1, # of connection points: 2
#     Edge 20, Type (0, 0), BuildingBlock: KIFKEQ_clean_linker_1, # of connection points: 2
#     Edge 21, Type (0, 0), BuildingBlock: KIFKEQ_clean_linker_1, # of connection points: 2
#     Edge 22, Type (0, 0), BuildingBlock: KIFKEQ_clean_linker_1, # of connection points: 2
#     Edge 23, Type (0, 0), BuildingBlock: KIFKEQ_clean_linker_1, # of connection points: 2
#     Edge 24, Type (0, 0), BuildingBlock: KIFKEQ_clean_linker_1, # of connection points: 2
#     Edge 25, Type (0, 0), BuildingBlock: KIFKEQ_clean_linker_1, # of connection points: 2
#     Edge 26, Type (0, 0), BuildingBlock: KIFKEQ_clean_linker_1, # of connection points: 2
#     Edge 27, Type (0, 0), BuildingBlock: KIFKEQ_clean_linker_1, # of connection points: 2
#     Edge 28, Type (0, 0), BuildingBlock: KIFKEQ_clean_linker_1, # of connection points: 2
#     Edge 29, Type (0, 0), BuildingBlock: KIFKEQ_clean_linker_1, # of connection points: 2
#     Edge 30, Type (0, 0), BuildingBlock: KIFKEQ_clean_linker_1, # of connection points: 2
#     Edge 31, Type (0, 0), BuildingBlock: KIFKEQ_clean_linker_1, # of connection points: 2
#     Edge 32, Type (0, 0), BuildingBlock: KIFKEQ_clean_linker_1, # of connection points: 2
#     Edge 33, Type (0, 0), BuildingBlock: KIFKEQ_clean_linker_1, # of connection points: 2
#     Edge 34, Type (0, 0), BuildingBlock: KIFKEQ_clean_linker_1, # of connection points: 2
#     Edge 35, Type (0, 0), BuildingBlock: KIFKEQ_clean_linker_1, # of connection points: 2
# Relax obj value: 0.297
# Max RMSD: 0.131
# Mean RMSD: 0.129
data_MOF--net-wjg--node1-QUQFOY_clean_sbu_1--edge1-KIFKEQ_clean_linker_1
_symmetry_space_group_name_H-M    P1
_symmetry_Int_Tables_number       1
_symmetry_cell_setting            triclinic
loop_
_symmetry_equiv_pos_as_xyz
'x, y, z'
_cell_length_a     35.29648
_cell_length_b     35.707624
_cell_length_c     40.369747
_cell_angle_alpha  89.931169
_cell_angle_beta   89.954732
_cell_angle_gamma 119.87931
loop_
_atom_site_label
_atom_site_type_symbol
_atom_site_fract_x
_atom_site_fract_y
_atom_site_fract_z
_atom_type_partial_charge
O0 O 0.11368 0.28553 0.33494 0.0
Cd1 Cd 0.08931 0.32554 0.3464 0.0
Cd2 Cd 0.17076 0.38542 0.33304 0.0
O3 O 0.17216 0.33537 0.30906 0.0
O4 O 0.03116 0.30577 0.32531 0.0
O5 O 0.09231 0.36434 0.30964 0.0
C6 C 0.05128 0.33753 0.30468 0.0
C7 C 0.22113 0.45728 0.31975 0.0
C8 C 0.14801 0.29629 0.31804 0.0
C9 C 0.13895 0.36465 0.40504 0.0
O10 O 0.16907 0.38022 0.38347 0.0
O11 O 0.09917 0.34365 0.39595 0.0
O12 O 0.23308 0.43083 0.33028 0.0
O13 O 0.1802 0.44209 0.31361 0.0
O14 O 0.81473 0.1696 0.66515 0.0
Cd15 Cd 0.75643 0.11643 0.67678 0.0
Cd16 Cd 0.73591 0.17308 0.70471 0.0
O17 O 0.80313 0.21049 0.69968 0.0
O18 O 0.75316 0.06901 0.64887 0.0
O19 O 0.7065 0.0931 0.6443 0.0
C20 C 0.72046 0.06796 0.63372 0.0
C21 C 0.69982 0.2133 0.70252 0.0
C22 C 0.82894 0.20439 0.68146 0.0
C23 C 0.73614 0.10887 0.7491 0.0
O24 O 0.71528 0.12822 0.74204 0.0
O25 O 0.75574 0.1007 0.72626 0.0
O26 O 0.72396 0.21567 0.72709 0.0
O27 O 0.69537 0.18735 0.67873 0.0
O28 O 0.58677 0.76123 0.06363 0.0
Cd29 Cd 0.57934 0.76713 1.01388 0.0
Cd30 Cd 0.64141 0.74314 1.01699 0.0
O31 O 0.62582 0.72862 0.06648 0.0
O32 O 0.54116 0.79332 1.01752 0.0
O33 O 0.51754 0.72892 0.99596 0.0
C34 C 0.50957 0.75884 1.00521 0.0
C35 C 0.63397 0.69983 0.9719 0.0
C36 C 0.60453 0.74425 0.0806 0.0
C37 C 0.67136 0.8334 0.99833 0.0
O38 O 0.68274 0.80776 1.01058 0.0
O39 O 0.63137 0.82008 0.99183 0.0
O40 O 0.66458 0.7097 0.99352 0.0
O41 O 0.60541 0.71179 0.97752 0.0
O42 O 0.83031 0.65976 0.33199 0.0
Cd43 Cd 0.87935 0.64786 0.34473 0.0
Cd44 Cd 0.81124 0.56816 0.36609 0.0
O45 O 0.77649 0.59629 0.34799 0.0
O46 O 0.93065 0.68313 0.31554 0.0
O47 O 0.89214 0.61159 0.31369 0.0
C48 C 0.9232 0.64748 0.3017 0.0
C49 C 0.76771 0.49253 0.3706 0.0
C50 C 0.78977 0.63379 0.33613 0.0
C51 C 0.87501 0.63188 0.4168 0.0
O52 O 0.8446 0.59438 0.40918 0.0
O53 O 0.89538 0.65993 0.39442 0.0
O54 O 0.7619 0.51842 0.389 0.0
O55 O 0.79854 0.50922 0.34887 0.0
O56 O 0.17746 0.81035 0.66372 0.0
Cd57 Cd 0.23214 0.86707 0.67561 0.0
Cd58 Cd 0.25613 0.81654 0.70901 0.0
O59 O 0.18946 0.77554 0.70359 0.0
O60 O 0.23244 0.91031 0.64434 0.0
O61 O 0.2845 0.8929 0.64529 0.0
C62 C 0.26771 0.91405 0.63158 0.0
C63 C 0.29595 0.78017 0.71082 0.0
C64 C 0.16385 0.77761 0.6825 0.0
C65 C 0.24872 0.88014 0.74811 0.0
O66 O 0.27406 0.86517 0.74284 0.0
O67 O 0.22778 0.88396 0.72399 0.0
O68 O 0.27129 0.77849 0.73484 0.0
O69 O 0.29904 0.80359 0.68547 0.0
O70 O 0.37836 0.17436 0.03776 0.0
Cd71 Cd 0.38879 0.18867 0.98863 0.0
Cd72 Cd 0.34997 0.22901 1.00596 0.0
O73 O 0.37605 0.23223 0.05302 0.0
O74 O 0.42932 0.16693 0.97772 0.0
O75 O 0.44975 0.23637 0.97768 0.0
C76 C 0.4602 0.20656 0.97584 0.0
C77 C 0.36401 0.27937 0.96457 0.0
C78 C 0.37865 0.19887 0.06054 0.0
C79 C 0.29776 0.14293 0.97531 0.0
O80 O 0.29748 0.1689 0.99668 0.0
O81 O 0.33355 0.15202 0.96108 0.0
O82 O 0.33866 0.27525 0.98922 0.0
O83 O 0.38463 0.25792 0.9655 0.0
O84 O 0.62327 0.80521 0.38359 0.0
Cd85 Cd 0.62109 0.85995 0.37251 0.0
Cd86 Cd 0.54446 0.80092 0.33765 0.0
O87 O 0.5792 0.76859 0.34249 0.0
O88 O 0.66697 0.90558 0.40086 0.0
O89 O 0.59685 0.88516 0.40539 0.0
C90 C 0.63639 0.90846 0.41611 0.0
C91 C 0.46924 0.75398 0.33286 0.0
C92 C 0.60747 0.77315 0.36401 0.0
C93 C 0.61093 0.87115 0.30084 0.0
O94 O 0.57107 0.85538 0.30868 0.0
O95 O 0.6382 0.87667 0.32345 0.0
O96 O 0.49556 0.76042 0.30872 0.0
O97 O 0.4854 0.77544 0.35985 0.0
O98 O 0.82949 0.65801 0.72211 0.0
Cd99 Cd 0.76853 0.64604 0.70883 0.0
Cd100 Cd 0.75566 0.56702 0.69043 0.0
O101 O 0.81832 0.59334 0.70902 0.0
O102 O 0.75148 0.68078 0.73737 0.0
O103 O 0.71857 0.60924 0.7393 0.0
C104 C 0.72283 0.6449 0.75096 0.0
C105 C 0.71698 0.49097 0.68975 0.0
C106 C 0.84339 0.63147 0.71946 0.0
C107 C 0.75919 0.6293 0.63706 0.0
O108 O 0.75215 0.59218 0.64563 0.0
O109 O 0.76538 0.65746 0.65885 0.0
O110 O 0.75057 0.51341 0.67149 0.0
O111 O 0.70488 0.51153 0.70935 0.0
O112 O 0.16227 0.77089 0.98405 0.0
Cd113 Cd 0.17441 0.777 0.03388 0.0
Cd114 Cd 0.08871 0.74969 0.03075 0.0
O115 O 0.09031 0.73556 0.98123 0.0
O116 O 0.23893 0.80164 0.03188 0.0
O117 O 0.19518 0.73745 0.05316 0.0
C118 C 0.23403 0.76652 0.04447 0.0
C119 C 0.05654 0.70595 0.07658 0.0
C120 C 0.12747 0.75265 0.96709 0.0
C121 C 0.14624 0.8413 0.04777 0.0
O122 O 0.10904 0.81373 0.03662 0.0
O123 O 0.17454 0.83015 0.05428 0.0
O124 O 0.03338 0.7134 0.05555 0.0
O125 O 0.09747 0.72063 0.06994 0.0
O126 O 0.31002 0.11569 0.36057 0.0
Cd127 Cd 0.3489 0.08817 0.3587 0.0
Cd128 Cd 0.41282 0.17117 0.36145 0.0
O129 O 0.36195 0.18062 0.37525 0.0
O130 O 0.3182 0.0321 0.38254 0.0
O131 O 0.37988 0.08823 0.40032 0.0
C132 C 0.34767 0.04952 0.40532 0.0
C133 C 0.4846 0.2258 0.37246 0.0
C134 C 0.32197 0.15423 0.36904 0.0
C135 C 0.39327 0.11998 0.29647 0.0
O136 O 0.41126 0.15486 0.3128 0.0
O137 O 0.3678 0.08448 0.3109 0.0
O138 O 0.45854 0.23212 0.35429 0.0
O139 O 0.46905 0.18897 0.38717 0.0
O140 O 0.1661 0.3279 0.71898 0.0
Cd141 Cd 0.22961 0.34681 0.70707 0.0
Cd142 Cd 0.23701 0.42569 0.6997 0.0
O143 O 0.17425 0.39328 0.71836 0.0
O144 O 0.24992 0.31248 0.73275 0.0
O145 O 0.27573 0.38264 0.74033 0.0
C146 C 0.27491 0.34735 0.7491 0.0
C147 C 0.27292 0.50133 0.70368 0.0
C148 C 0.15023 0.35274 0.72233 0.0
C149 C 0.2418 0.37701 0.6387 0.0
O150 O 0.24244 0.40938 0.65213 0.0
O151 O 0.23906 0.34634 0.65645 0.0
O152 O 0.23835 0.47968 0.68632 0.0
O153 O 0.28685 0.48005 0.72067 0.0
O154 O 0.81746 0.2146 0.98585 0.0
Cd155 Cd 0.80113 0.20984 0.035 0.0
Cd156 Cd 0.88786 0.23462 0.03458 0.0
O157 O 0.88945 0.24751 0.98454 0.0
O158 O 0.73692 0.18198 0.02816 0.0
O159 O 0.77487 0.24703 0.04935 0.0
C160 C 0.73801 0.2163 0.03873 0.0
C161 C 0.92222 0.27982 0.07917 0.0
C162 C 0.85294 0.23124 0.96962 0.0
C163 C 0.82624 0.14483 0.05453 0.0
O164 O 0.86384 0.17026 0.04275 0.0
O165 O 0.79925 0.15807 0.05944 0.0
O166 O 0.94357 0.26869 0.05917 0.0
O167 O 0.88196 0.26787 0.07214 0.0
H168 H 0.21366 0.52289 0.28983 0.0
H169 H 0.30015 0.49738 0.34934 0.0
H170 H 0.26638 0.60096 0.29317 0.0
H171 H 0.35119 0.57423 0.35329 0.0
H172 H 0.41316 0.71093 0.38366 0.0
H173 H 0.34547 0.64148 0.37972 0.0
H174 H 0.3543 0.64823 0.27309 0.0
H175 H 0.42231 0.71736 0.27686 0.0
C176 C 0.24377 0.53387 0.30348 0.0
C177 C 0.25294 0.50403 0.31908 0.0
C178 C 0.27362 0.57833 0.30555 0.0
C179 C 0.31222 0.59331 0.32403 0.0
C180 C 0.32123 0.56344 0.33944 0.0
C181 C 0.29218 0.51939 0.33677 0.0
C182 C 0.3999 0.69836 0.35939 0.0
C183 C 0.42331 0.71911 0.33059 0.0
C184 C 0.36126 0.65866 0.35715 0.0
C185 C 0.34513 0.63961 0.3261 0.0
C186 C 0.36607 0.66246 0.29726 0.0
C187 C 0.40507 0.70183 0.29948 0.0
H188 H 0.66286 0.231 0.6493 0.0
H189 H 0.69584 0.26204 0.75246 0.0
H190 H 0.64792 0.29075 0.64469 0.0
H191 H 0.68226 0.32193 0.74773 0.0
H192 H 0.66175 0.43228 0.73581 0.0
H193 H 0.63819 0.3551 0.73786 0.0
H194 H 0.70118 0.36636 0.64355 0.0
H195 H 0.72355 0.44228 0.6413 0.0
C196 C 0.66592 0.24989 0.67114 0.0
C197 C 0.68152 0.24253 0.701 0.0
C198 C 0.65752 0.28419 0.66851 0.0
C199 C 0.66465 0.31164 0.69569 0.0
C200 C 0.67616 0.30146 0.72632 0.0
C201 C 0.68448 0.26731 0.72893 0.0
C202 C 0.66942 0.41782 0.71519 0.0
C203 C 0.69527 0.44339 0.68877 0.0
C204 C 0.65609 0.37372 0.71637 0.0
C205 C 0.66825 0.35461 0.69106 0.0
C206 C 0.69083 0.37968 0.66336 0.0
C207 C 0.7042 0.4235 0.66227 0.0
H208 H 0.48806 0.81944 0.99006 0.0
H209 H 0.43244 0.687 1.02179 0.0
H210 H 0.41909 0.81684 1.0009 0.0
H211 H 0.36346 0.68477 0.0347 0.0
H212 H 0.23482 0.69217 0.02999 0.0
H213 H 0.29947 0.68606 1.01751 0.0
H214 H 0.38217 0.81863 0.04814 0.0
H215 H 0.31784 0.82504 0.05856 0.0
C216 C 0.46069 0.78954 0.99901 0.0
C217 C 0.46541 0.75344 1.00506 0.0
C218 C 0.42131 0.78817 1.0058 0.0
C219 C 0.38596 0.75104 1.01979 0.0
C220 C 0.38992 0.71395 0.02403 0.0
C221 C 0.4293 0.71509 1.0165 0.0
C222 C 0.26694 0.71955 0.0347 0.0
C223 C 0.27153 0.75913 0.04508 0.0
C224 C 0.30401 0.71618 0.02741 0.0
C225 C 0.34621 0.75224 0.03084 0.0
C226 C 0.35033 0.79066 0.04387 0.0
C227 C 0.31348 0.79423 0.05042 0.0
H228 H 0.54685 0.23656 0.41863 0.0
H229 H 0.52808 0.28905 0.32763 0.0
H230 H 0.62408 0.29398 0.41915 0.0
H231 H 0.60417 0.34508 0.32793 0.0
H232 H 0.74508 0.43087 0.32264 0.0
H233 H 0.6816 0.3578 0.32402 0.0
H234 H 0.65794 0.37631 0.42603 0.0
H235 H 0.72095 0.44894 0.42465 0.0
C236 C 0.55927 0.26002 0.3987 0.0
C237 C 0.53137 0.25881 0.37342 0.0
C238 C 0.60333 0.2926 0.39889 0.0
C239 C 0.62015 0.3236 0.37334 0.0
C240 C 0.59241 0.32121 0.3476 0.0
C241 C 0.54858 0.28944 0.34774 0.0
C242 C 0.72714 0.41872 0.34561 0.0
C243 C 0.73729 0.4457 0.37332 0.0
C244 C 0.69082 0.37704 0.3464 0.0
C245 C 0.66461 0.3617 0.37503 0.0
C246 C 0.67759 0.38717 0.4037 0.0
C247 C 0.71346 0.4289 0.40279 0.0
H248 H 0.33581 0.76223 0.65984 0.0
H249 H 0.29984 0.73401 0.76296 0.0
H250 H 0.35013 0.70202 0.65762 0.0
H251 H 0.31276 0.67349 0.76052 0.0
H252 H 0.32813 0.55889 0.75031 0.0
H253 H 0.35452 0.63684 0.7519 0.0
H254 H 0.29297 0.62746 0.65733 0.0
H255 H 0.26757 0.55095 0.6557 0.0
C256 C 0.33211 0.74396 0.68223 0.0
C257 C 0.31551 0.75201 0.71129 0.0
C258 C 0.34018 0.70941 0.68096 0.0
C259 C 0.33156 0.68231 0.70868 0.0
C260 C 0.3198 0.6936 0.73871 0.0
C261 C 0.31189 0.72811 0.74 0.0
C262 C 0.32127 0.57394 0.72963 0.0
C263 C 0.29504 0.54888 0.70326 0.0
C264 C 0.3363 0.61843 0.7305 0.0
C265 C 0.32568 0.63837 0.70482 0.0
C266 C 0.30233 0.61353 0.67735 0.0
C267 C 0.28713 0.56937 0.67665 0.0
H268 H 0.65386 0.15247 0.04154 0.0
H269 H 0.73423 0.28975 0.02571 0.0
H270 H 0.58983 0.15559 0.02369 0.0
H271 H 0.66994 0.29288 1.00645 0.0
H272 H 0.52956 0.27832 1.0023 0.0
H273 H 0.59899 0.28495 1.01967 0.0
H274 H 0.56345 0.16382 0.9715 0.0
H275 H 0.49368 0.15652 0.95546 0.0
C276 C 0.65764 0.18349 0.0346 0.0
C277 C 0.69894 0.22082 0.03489 0.0
C278 C 0.62107 0.18523 0.02387 0.0
C279 C 0.62493 0.22425 1.01255 0.0
C280 C 0.66585 0.26225 1.01481 0.0
C281 C 0.7026 0.26056 0.02603 0.0
C282 C 0.53722 0.25377 0.99466 0.0
C283 C 0.5061 0.21669 0.97779 0.0
C284 C 0.57692 0.25746 1.00477 0.0
C285 C 0.58624 0.22427 0.99787 0.0
C286 C 0.55667 0.18923 0.9783 0.0
C287 C 0.51691 0.18529 0.96865 0.0
H288 H 0.11185 0.21439 0.34332 0.0
H289 H 0.22519 0.31146 0.29054 0.0
H290 H 0.15106 0.1762 0.35651 0.0
H291 H 0.26396 0.27289 0.30351 0.0
H292 H 0.23516 0.1081 0.35292 0.0
H293 H 0.1888 0.13728 0.33545 0.0
H294 H 0.29232 0.26603 0.35867 0.0
H295 H 0.33884 0.23722 0.37584 0.0
C296 C 0.14457 0.22687 0.33361 0.0
C297 C 0.1657 0.2665 0.31647 0.0
C298 C 0.16707 0.20503 0.34131 0.0
C299 C 0.21096 0.2224 0.33193 0.0
C300 C 0.23053 0.25954 0.3119 0.0
C301 C 0.20807 0.28131 0.30414 0.0
C302 C 0.24779 0.14259 0.35488 0.0
C303 C 0.29091 0.1704 0.3655 0.0
C304 C 0.22124 0.15922 0.34472 0.0
C305 C 0.23742 0.20395 0.34487 0.0
C306 C 0.27949 0.23146 0.35739 0.0
C307 C 0.30593 0.21489 0.36768 0.0
H308 H 0.89389 0.19721 0.65061 0.0
H309 H 0.87204 0.27703 0.71972 0.0
H310 H 0.97118 0.23546 0.66451 0.0
H311 H 0.94963 0.3151 0.73372 0.0
H312 H 0.10334 0.39507 0.72126 0.0
H313 H 0.02522 0.363 0.71055 0.0
H314 H 0.01051 0.23567 0.71624 0.0
H315 H 0.08838 0.26739 0.72667 0.0
C316 C 0.90563 0.2234 0.66833 0.0
C317 C 0.87663 0.23371 0.68432 0.0
C318 C 0.94984 0.24496 0.67657 0.0
C319 C 0.9661 0.27744 0.70083 0.0
C320 C 0.93786 0.28996 0.7151 0.0
C321 C 0.89346 0.26823 0.70697 0.0
C322 C 0.0833 0.36018 0.72101 0.0
C323 C 0.10226 0.33379 0.72435 0.0
C324 C 0.03859 0.3419 0.71477 0.0
C325 C 0.01214 0.29695 0.71168 0.0
C326 C 0.03045 0.27051 0.71758 0.0
C327 C 0.075 0.2887 0.72393 0.0
H328 H 0.7448 0.07983 0.0714 0.0
H329 H 0.87037 0.10333 0.03566 0.0
H330 H 0.71223 0.00455 0.05494 0.0
H331 H 0.83737 0.02787 1.01895 0.0
H332 H 0.65622 0.89846 0.98016 0.0
H333 H 0.69826 0.97356 0.99733 0.0
H334 H 0.79766 0.95014 0.03804 0.0
H335 H 0.75586 0.87483 1.02065 0.0
C336 C 0.76573 0.06879 0.06081 0.0
C337 C 0.81004 0.09784 0.05429 0.0
C338 C 0.74691 0.02578 0.05098 0.0
C339 C 0.77204 0.01089 0.03465 0.0
C340 C 0.81718 0.03871 0.03112 0.0
C341 C 0.83607 0.08188 0.04088 0.0
C342 C 0.68754 0.90944 0.99199 0.0
C343 C 0.70226 0.8804 0.99954 0.0
C344 C 0.71132 0.95233 1.00223 0.0
C345 C 0.75041 0.96714 1.02 0.0
C346 C 0.76733 0.93935 0.02474 0.0
C347 C 0.74344 0.89629 1.01458 0.0
H348 H 0.58054 0.6996 0.32739 0.0
H349 H 0.68043 0.78459 0.39612 0.0
H350 H 0.62165 0.66227 0.31679 0.0
H351 H 0.72123 0.7475 0.38521 0.0
H352 H 0.80848 0.7163 0.32343 0.0
H353 H 0.75973 0.74556 0.33043 0.0
H354 H 0.65174 0.61745 0.34879 0.0
H355 H 0.70053 0.58773 0.34205 0.0
C356 C 0.61078 0.70982 0.34065 0.0
C357 C 0.62741 0.74532 0.36238 0.0
C358 C 0.63425 0.68851 0.33451 0.0
C359 C 0.67489 0.70273 0.34967 0.0
C360 C 0.69031 0.73656 0.37272 0.0
C361 C 0.66669 0.75748 0.37918 0.0
C362 C 0.77421 0.69412 0.32824 0.0
C363 C 0.75854 0.64974 0.33262 0.0
C364 C 0.74643 0.71097 0.33253 0.0
C365 C 0.70235 0.68377 0.34085 0.0
C366 C 0.68573 0.63903 0.3426 0.0
C367 C 0.71367 0.62213 0.33867 0.0
H368 H 0.12173 0.70482 0.72113 0.0
H369 H 0.09842 0.7812 0.64942 0.0
H370 H 0.04348 0.66466 0.73398 0.0
H371 H 0.02088 0.74147 0.66269 0.0
H372 H 0.90818 0.71416 0.7308 0.0
H373 H 0.98593 0.74357 0.72097 0.0
H374 H 0.96463 0.61533 0.70357 0.0
H375 H 0.88622 0.58537 0.71303 0.0
C376 C 0.09991 0.71239 0.70758 0.0
C377 C 0.11642 0.74662 0.68454 0.0
C378 C 0.05525 0.68949 0.71505 0.0
C379 C 0.02667 0.70084 0.69986 0.0
C380 C 0.04261 0.73281 0.67518 0.0
C381 C 0.08697 0.75527 0.66741 0.0
C382 C 0.91996 0.69196 0.72566 0.0
C383 C 0.89082 0.64745 0.72221 0.0
C384 C 0.96445 0.7089 0.71976 0.0
C385 C 0.98081 0.68169 0.71078 0.0
C386 C 0.95254 0.63688 0.71021 0.0
C387 C 0.90777 0.61985 0.71573 0.0
H388 H 0.29717 0.07243 0.94856 0.0
H389 H 0.21812 0.11025 1.00586 0.0
H390 H 0.25354 -0.00115 0.96905 0.0
H391 H 0.17432 0.03613 0.02607 0.0
H392 H 0.22831 0.90967 0.05678 0.0
H393 H 0.25624 0.98185 0.03411 0.0
H394 H 0.12562 0.95102 1.00723 0.0
H395 H 0.09712 0.87807 0.0296 0.0
C396 C 0.26951 0.06484 0.96445 0.0
C397 C 0.26191 0.09752 0.97628 0.0
C398 C 0.24486 0.02278 0.97646 0.0
C399 C 0.21173 0.01253 0.99993 0.0
C400 C 0.20019 0.0436 1.00834 0.0
C401 C 0.22516 0.08591 0.99658 0.0
C402 C 0.20521 0.9184 0.04691 0.0
C403 C 0.16055 0.88775 0.04446 0.0
C404 C 0.22134 0.95958 0.03356 0.0
C405 C 0.19311 0.97117 1.01802 0.0
C406 C 0.14798 0.94238 1.01865 0.0
C407 C 0.13177 0.90082 0.03169 0.0
H408 H 0.88127 0.29107 0.1328 0.0
H409 H 0.00742 0.31524 0.0984 0.0
H410 H 0.91107 0.31387 0.18849 0.0
H411 H 0.03698 0.33766 0.15389 0.0
H412 H 0.08747 0.39481 0.25337 0.0
H413 H 0.05591 0.39037 0.19877 0.0
H414 H 0.93486 0.28043 0.23119 0.0
H415 H 0.96621 0.28506 0.28585 0.0
C416 C 0.91557 0.30212 0.13692 0.0
C417 C 0.9419 0.30107 0.11116 0.0
C418 C 0.93254 0.31487 0.16891 0.0
C419 C 0.97632 0.32727 0.17576 0.0
C420 C 0.00323 0.3287 0.1495 0.0
C421 C 0.98621 0.31563 0.11764 0.0
C422 C 0.05379 0.37026 0.24912 0.0
C423 C 0.02951 0.34002 0.27395 0.0
C424 C 0.03581 0.36757 0.21771 0.0
C425 C -0.00696 0.33475 0.21044 0.0
C426 C 0.9678 0.30631 0.23596 0.0
C427 C 0.98585 0.30886 0.26733 0.0
H428 H 0.74314 0.01187 0.60701 0.0
H429 H 0.65733 0.06411 0.59167 0.0
H430 H 0.72042 0.97442 0.55427 0.0
H431 H 0.6348 0.02667 0.53834 0.0
H432 H 0.57921 0.91623 0.45805 0.0
H433 H 0.59607 0.95356 0.5115 0.0
H434 H 0.73307 -0.00222 0.49618 0.0
H435 H 0.7164 0.96045 0.44332 0.0
C436 C 0.71913 0.01512 0.59251 0.0
C437 C 0.70229 0.04126 0.60351 0.0
C438 C 0.70635 -0.00612 0.5621 0.0
C439 C 0.67637 -0.00185 0.54181 0.0
C440 C 0.65796 0.02273 0.5534 0.0
C441 C 0.67089 0.04418 0.58393 0.0
C442 C 0.61296 0.93436 0.46596 0.0
C443 C 0.64641 0.93508 0.4465 0.0
C444 C 0.6226 0.95576 0.49656 0.0
C445 C 0.66582 0.97805 0.50833 0.0
C446 C 0.69932 0.9801 0.4882 0.0
C447 C 0.68975 0.95893 0.45772 0.0
H448 H 0.59341 0.69936 0.91412 0.0
H449 H 0.67854 0.65765 0.95663 0.0
H450 H 0.60647 0.67965 0.85901 0.0
H451 H 0.691 0.63739 0.90159 0.0
H452 H 0.68341 0.58181 0.79809 0.0
H453 H 0.65317 0.58726 0.85137 0.0
H454 H 0.67778 0.71456 0.82476 0.0
H455 H 0.7086 0.7095 0.77189 0.0
C456 C 0.61398 0.68495 0.91185 0.0
C457 C 0.63509 0.68025 0.93977 0.0
C458 C 0.62166 0.67393 0.88025 0.0
C459 C 0.64994 0.65722 0.87597 0.0
C460 C 0.66882 0.64994 0.90412 0.0
C461 C 0.66177 0.66166 0.93565 0.0
C462 C 0.68161 0.61061 0.80338 0.0
C463 C 0.69854 0.6453 0.78083 0.0
C464 C 0.66452 0.6138 0.83393 0.0
C465 C 0.66318 0.65135 0.84224 0.0
C466 C 0.67803 0.68507 0.81895 0.0
C467 C 0.69585 0.68224 0.78872 0.0
H468 H 0.10065 0.70782 0.13276 0.0
H469 H 0.97036 0.66037 0.09453 0.0
H470 H 0.07086 0.68717 0.18876 0.0
H471 H 0.94066 0.63931 0.15047 0.0
H472 H 0.89863 0.58436 0.2547 0.0
H473 H 0.93222 0.59067 0.20032 0.0
H474 H 0.03459 0.71928 0.22505 0.0
H475 H 0.00087 0.71329 0.27906 0.0
C476 C 0.06558 0.69199 0.13615 0.0
C477 C 0.03789 0.68595 0.10918 0.0
C478 C 0.04858 0.68044 0.16827 0.0
C479 C 0.00348 0.66189 0.17403 0.0
C480 C 0.97553 0.65329 0.1468 0.0
C481 C -0.00743 0.66548 0.11475 0.0
C482 C 0.92878 0.61364 0.24876 0.0
C483 C 0.94701 0.6484 0.27114 0.0
C484 C 0.94783 0.61732 0.21756 0.0
C485 C 0.98596 0.6555 0.20839 0.0
C486 C 0.00544 0.68931 0.23149 0.0
C487 C 0.986 0.68594 0.26239 0.0
H488 H 0.27617 0.97581 0.42666 0.0
H489 H 0.40516 0.07388 0.45755 0.0
H490 H 0.26125 0.94536 0.48231 0.0
H491 H 0.3901 0.04256 0.51348 0.0
H492 H 0.34455 0.93394 0.59972 0.0
H493 H 0.36844 0.96691 0.54466 0.0
H494 H 0.25404 0.98064 0.53744 0.0
H495 H 0.23052 0.94868 0.59217 0.0
C496 C 0.30169 -0.00956 0.44512 0.0
C497 C 0.3418 0.02747 0.43766 0.0
C498 C 0.29298 0.9731 0.47707 0.0
C499 C 0.32434 -0.00806 0.50223 0.0
C500 C 0.36539 0.02748 0.49448 0.0
C501 C 0.37394 0.04534 0.46251 0.0
C502 C 0.32489 0.94462 0.58656 0.0
C503 C 0.28553 0.93851 0.60031 0.0
C504 C 0.33858 0.96345 0.55511 0.0
C505 C 0.31274 0.97573 0.53671 0.0
C506 C 0.27425 0.97091 0.55093 0.0
C507 C 0.26097 0.95282 0.58241 0.0
H508 H 0.40394 0.28315 0.90565 0.0
H509 H 0.32315 0.32651 0.95357 0.0
H510 H 0.39116 0.30701 0.85231 0.0
H511 H 0.31044 0.35038 0.9001 0.0
H512 H 0.31189 0.4074 0.79859 0.0
H513 H 0.34297 0.39995 0.85074 0.0
H514 H 0.32266 0.27595 0.81873 0.0
H515 H 0.29158 0.28324 0.76691 0.0
C516 C 0.38431 0.29872 0.90499 0.0
C517 C 0.36423 0.30253 0.93392 0.0
C518 C 0.37676 0.31212 0.87433 0.0
C519 C 0.34932 0.33005 0.8719 0.0
C520 C 0.33189 0.33684 0.90114 0.0
C521 C 0.33913 0.32307 0.93181 0.0
C522 C 0.31478 0.37891 0.80247 0.0
C523 C 0.29911 0.34582 0.77864 0.0
C524 C 0.33234 0.37456 0.83242 0.0
C525 C 0.33523 0.33735 0.83891 0.0
C526 C 0.32137 0.30524 0.81439 0.0
C527 C 0.30332 0.30931 0.78472 0.0
H528 H 0.21862 0.41991 0.42997 0.0
H529 H 0.09135 0.31633 0.45918 0.0
H530 H 0.24719 0.41923 0.48404 0.0
H531 H 0.11993 0.31711 0.51484 0.0
H532 H 0.19599 0.30326 0.60174 0.0
H533 H 0.16989 0.29964 0.54486 0.0
H534 H 0.24423 0.43897 0.5387 0.0
H535 H 0.27112 0.44225 0.59434 0.0
C536 C 0.19636 0.3974 0.44822 0.0
C537 C 0.15255 0.36816 0.44016 0.0
C538 C 0.21287 0.39712 0.47942 0.0
C539 C 0.18601 0.36806 0.5039 0.0
C540 C 0.14172 0.33948 0.49634 0.0
C541 C 0.1251 0.33953 0.46471 0.0
C542 C 0.20795 0.33287 0.58764 0.0
C543 C 0.23583 0.37303 0.6024 0.0
C544 C 0.19226 0.3309 0.55537 0.0
C545 C 0.20442 0.36903 0.53731 0.0
C546 C 0.23434 0.40886 0.55159 0.0
C547 C 0.24994 0.41079 0.58357 0.0
H548 H 0.88782 0.19141 0.93373 0.0
H549 H 0.80524 0.24816 0.9263 0.0
H550 H 0.85842 0.15341 0.8814 0.0
H551 H 0.77725 0.21215 0.87347 0.0
H552 H 0.6931 0.10827 0.80538 0.0
H553 H 0.72731 0.13998 0.85816 0.0
H554 H 0.84937 0.15412 0.8228 0.0
H555 H 0.81453 0.12056 0.77067 0.0
C556 C 0.86502 0.19744 0.92001 0.0
C557 C 0.84906 0.223 0.93377 0.0
C558 C 0.84767 0.17521 0.89025 0.0
C559 C 0.81431 0.17851 0.87371 0.0
C560 C 0.8016 0.20744 0.88612 0.0
C561 C 0.81841 0.22901 0.91597 0.0
C562 C 0.72674 0.11656 0.8094 0.0
C563 C 0.75107 0.11211 0.78376 0.0
C564 C 0.74671 0.13563 0.83939 0.0
C565 C 0.79167 0.15133 0.84425 0.0
C566 C 0.81485 0.14283 0.81989 0.0
C567 C 0.79465 0.12312 0.79002 0.0
H568 H 0.67348 0.85228 0.28055 0.0
H569 H 0.56791 0.86916 0.24417 0.0
H570 H 0.67309 0.81656 0.22926 0.0
H571 H 0.56894 0.83538 0.19207 0.0
H572 H 0.53806 0.72943 0.12173 0.0
H573 H 0.54483 0.76413 0.17497 0.0
H574 H 0.68487 0.81729 0.17161 0.0
H575 H 0.67735 0.7804 0.11902 0.0
C576 C 0.65133 0.84998 0.26107 0.0
C577 C 0.62045 0.86336 0.26658 0.0
C578 C 0.65092 0.82912 0.23163 0.0
C579 C 0.62003 0.82171 0.20682 0.0
C580 C 0.59204 0.83889 0.21114 0.0
C581 C 0.59199 0.85912 0.24075 0.0
C582 C 0.57001 0.74706 0.13314 0.0
C583 C 0.60708 0.75183 0.11655 0.0
C584 C 0.57414 0.76789 0.16326 0.0
C585 C 0.6156 0.79491 0.17714 0.0
C586 C 0.65241 0.79692 0.16172 0.0
C587 C 0.64813 0.77535 0.13175 0.0
H588 H 0.88525 0.70782 0.44101 0.0
H589 H 0.86413 0.5828 0.47105 0.0
H590 H 0.85624 0.71516 0.49433 0.0
H591 H 0.8357 0.59026 0.52409 0.0
H592 H 0.72487 0.5782 0.58322 0.0
H593 H 0.76238 0.58735 0.53066 0.0
H594 H 0.86125 0.7157 0.55952 0.0
H595 H 0.82329 0.70661 0.61243 0.0
C596 C 0.87653 0.68292 0.4596 0.0
C597 C 0.87666 0.64455 0.45181 0.0
C598 C 0.85936 0.6869 0.48993 0.0
C599 C 0.84225 0.65258 0.51276 0.0
C600 C 0.8474 0.61665 0.50648 0.0
C601 C 0.86439 0.61267 0.47635 0.0
C602 C 0.75365 0.60901 0.57787 0.0
C603 C 0.77125 0.64153 0.60203 0.0
C604 C 0.77555 0.61401 0.54801 0.0
C605 C 0.8156 0.65162 0.5416 0.0
C606 C 0.83073 0.68617 0.56405 0.0
C607 C 0.80865 0.68115 0.59413 0.0
H608 H 0.18196 0.74202 0.92625 0.0
H609 H 0.08775 0.78535 0.92836 0.0
H610 H 0.20996 0.77861 0.8735 0.0
H611 H 0.11689 0.8238 0.87601 0.0
H612 H 0.16572 0.85876 0.7661 0.0
H613 H 0.12985 0.8233 0.81761 0.0
H614 H 0.2547 0.85251 0.85852 0.0
H615 H 0.29024 0.88633 0.80647 0.0
C616 C 0.16634 0.75828 0.91478 0.0
C617 C 0.13245 0.76051 0.93113 0.0
C618 C 0.18303 0.78018 0.88496 0.0
C619 C 0.16681 0.80558 0.87108 0.0
C620 C 0.13038 0.80481 0.88606 0.0
C621 C 0.11323 0.7823 0.91582 0.0
C622 C 0.18579 0.85905 0.78649 0.0
C623 C 0.23088 0.87503 0.78206 0.0
C624 C 0.16505 0.83826 0.81601 0.0
C625 C 0.18909 0.83354 0.84181 0.0
C626 C 0.23487 0.85395 0.83865 0.0
C627 C 0.25548 0.8742 0.80906 0.0
H628 H 0.33453 0.06612 0.25019 0.0
H629 H 0.45787 0.18446 0.26067 0.0
H630 H 0.33051 0.08483 0.19245 0.0
H631 H 0.45373 0.20308 0.2033 0.0
H632 H 0.39986 0.24833 0.11735 0.0
H633 H 0.40544 0.22552 0.17371 0.0
H634 H 0.36695 0.09769 0.13759 0.0
H635 H 0.36112 0.11996 0.08199 0.0
C636 C 0.36142 0.09532 0.2399 0.0
C637 C 0.39638 0.12387 0.26 0.0
C638 C 0.35892 0.10632 0.20696 0.0
C639 C 0.3913 0.14601 0.1937 0.0
C640 C 0.42773 0.1729 0.21313 0.0
C641 C 0.43034 0.16187 0.24584 0.0
C642 C 0.39241 0.21539 0.12158 0.0
C643 C 0.38041 0.18617 0.09518 0.0
C644 C 0.39588 0.20237 0.15371 0.0
C645 C 0.38687 0.15983 0.15994 0.0
C646 C 0.37389 0.13053 0.13363 0.0
C647 C 0.37086 0.14354 0.1017 0.0
loop_
_geom_bond_atom_site_label_1
_geom_bond_atom_site_label_2
_geom_bond_distance
_geom_bond_site_symmetry_2
_ccdc_geom_bond_type
O0 Cd1 2.223 . S
O0 C8 1.315 . S
Cd1 O0 2.223 . S
Cd1 O4 2.297 . S
Cd1 O5 2.439 . S
Cd1 O11 2.240 . S
Cd2 O3 2.240 . S
Cd2 O10 2.223 . S
Cd2 O12 2.297 . S
Cd2 O13 2.439 . S
O3 Cd2 2.240 . S
O3 C8 1.279 . S
O4 Cd1 2.297 . S
O4 C6 1.247 . S
O5 Cd1 2.439 . S
O5 C6 1.208 . S
C6 O4 1.247 . S
C6 O5 1.208 . S
C7 O12 1.247 . S
C7 O13 1.208 . S
C8 O0 1.315 . S
C8 O3 1.279 . S
C9 O10 1.315 . S
C9 O11 1.279 . S
O10 Cd2 2.223 . S
O10 C9 1.315 . S
O11 Cd1 2.240 . S
O11 C9 1.279 . S
O12 Cd2 2.297 . S
O12 C7 1.247 . S
O13 Cd2 2.439 . S
O13 C7 1.208 . S
O14 Cd15 2.223 . S
O14 C22 1.315 . S
Cd15 O14 2.223 . S
Cd15 O18 2.297 . S
Cd15 O19 2.439 . S
Cd15 O25 2.240 . S
Cd16 O17 2.240 . S
Cd16 O24 2.223 . S
Cd16 O26 2.297 . S
Cd16 O27 2.439 . S
O17 Cd16 2.240 . S
O17 C22 1.279 . S
O18 Cd15 2.297 . S
O18 C20 1.247 . S
O19 Cd15 2.439 . S
O19 C20 1.208 . S
C20 O18 1.247 . S
C20 O19 1.208 . S
C21 O26 1.247 . S
C21 O27 1.208 . S
C22 O14 1.315 . S
C22 O17 1.279 . S
C23 O24 1.315 . S
C23 O25 1.279 . S
O24 Cd16 2.223 . S
O24 C23 1.315 . S
O25 Cd15 2.240 . S
O25 C23 1.279 . S
O26 Cd16 2.297 . S
O26 C21 1.247 . S
O27 Cd16 2.439 . S
O27 C21 1.208 . S
O28 Cd29 2.223 . S
O28 C36 1.315 . S
Cd29 O28 2.223 . S
Cd29 O32 2.297 . S
Cd29 O33 2.439 1_554 S
Cd29 O39 2.240 1_554 S
Cd30 O31 2.240 . S
Cd30 O38 2.223 . S
Cd30 O40 2.297 1_554 S
Cd30 O41 2.439 1_554 S
O31 Cd30 2.240 . S
O31 C36 1.279 . S
O32 Cd29 2.297 . S
O32 C34 1.247 . S
O33 Cd29 2.439 1_556 S
O33 C34 1.208 1_556 S
C34 O32 1.247 . S
C34 O33 1.208 1_554 S
C35 O40 1.247 . S
C35 O41 1.208 . S
C36 O28 1.315 . S
C36 O31 1.279 . S
C37 O38 1.310 1_556 S
C37 O39 1.286 . S
O38 Cd30 2.223 . S
O38 C37 1.310 1_554 S
O39 Cd29 2.240 1_556 S
O39 C37 1.286 . S
O40 Cd30 2.297 1_556 S
O40 C35 1.247 . S
O41 Cd30 2.439 1_556 S
O41 C35 1.208 . S
O42 Cd43 2.223 . S
O42 C50 1.315 . S
Cd43 O42 2.223 . S
Cd43 O46 2.297 . S
Cd43 O47 2.439 . S
Cd43 O53 2.240 . S
Cd44 O45 2.240 . S
Cd44 O52 2.223 . S
Cd44 O54 2.297 . S
Cd44 O55 2.439 . S
O45 Cd44 2.240 . S
O45 C50 1.279 . S
O46 Cd43 2.297 . S
O46 C48 1.247 . S
O47 Cd43 2.439 . S
O47 C48 1.208 . S
C48 O46 1.247 . S
C48 O47 1.208 . S
C49 O54 1.247 . S
C49 O55 1.208 . S
C50 O42 1.315 . S
C50 O45 1.279 . S
C51 O52 1.315 . S
C51 O53 1.279 . S
O52 Cd44 2.223 . S
O52 C51 1.315 . S
O53 Cd43 2.240 . S
O53 C51 1.279 . S
O54 Cd44 2.297 . S
O54 C49 1.247 . S
O55 Cd44 2.439 . S
O55 C49 1.208 . S
O56 Cd57 2.223 . S
O56 C64 1.315 . S
Cd57 O56 2.223 . S
Cd57 O60 2.297 . S
Cd57 O61 2.439 . S
Cd57 O67 2.240 . S
Cd58 O59 2.240 . S
Cd58 O66 2.223 . S
Cd58 O68 2.297 . S
Cd58 O69 2.439 . S
O59 Cd58 2.240 . S
O59 C64 1.279 . S
O60 Cd57 2.297 . S
O60 C62 1.247 . S
O61 Cd57 2.439 . S
O61 C62 1.208 . S
C62 O60 1.247 . S
C62 O61 1.208 . S
C63 O68 1.247 . S
C63 O69 1.208 . S
C64 O56 1.315 . S
C64 O59 1.279 . S
C65 O66 1.315 . S
C65 O67 1.279 . S
O66 Cd58 2.223 . S
O66 C65 1.315 . S
O67 Cd57 2.240 . S
O67 C65 1.279 . S
O68 Cd58 2.297 . S
O68 C63 1.247 . S
O69 Cd58 2.439 . S
O69 C63 1.208 . S
O70 Cd71 2.223 . S
O70 C78 1.315 . S
Cd71 O70 2.223 . S
Cd71 O74 2.297 . S
Cd71 O75 2.439 1_554 S
Cd71 O81 2.240 1_554 S
Cd72 O73 2.240 . S
Cd72 O80 2.223 . S
Cd72 O82 2.297 1_554 S
Cd72 O83 2.439 1_554 S
O73 Cd72 2.240 . S
O73 C78 1.279 . S
O74 Cd71 2.297 . S
O74 C76 1.247 . S
O75 Cd71 2.439 1_556 S
O75 C76 1.208 1_556 S
C76 O74 1.247 . S
C76 O75 1.208 1_554 S
C77 O82 1.247 . S
C77 O83 1.208 . S
C78 O70 1.315 . S
C78 O73 1.279 . S
C79 O80 1.310 1_556 S
C79 O81 1.286 . S
O80 Cd72 2.223 . S
O80 C79 1.310 1_554 S
O81 Cd71 2.240 1_556 S
O81 C79 1.286 . S
O82 Cd72 2.297 1_556 S
O82 C77 1.247 . S
O83 Cd72 2.439 1_556 S
O83 C77 1.208 . S
O84 Cd85 2.223 . S
O84 C92 1.315 . S
Cd85 O84 2.223 . S
Cd85 O88 2.297 . S
Cd85 O89 2.439 . S
Cd85 O95 2.240 . S
Cd86 O87 2.240 . S
Cd86 O94 2.223 . S
Cd86 O96 2.297 . S
Cd86 O97 2.439 . S
O87 Cd86 2.240 . S
O87 C92 1.279 . S
O88 Cd85 2.297 . S
O88 C90 1.247 . S
O89 Cd85 2.439 . S
O89 C90 1.208 . S
C90 O88 1.247 . S
C90 O89 1.208 . S
C91 O96 1.247 . S
C91 O97 1.208 . S
C92 O84 1.315 . S
C92 O87 1.279 . S
C93 O94 1.315 . S
C93 O95 1.279 . S
O94 Cd86 2.223 . S
O94 C93 1.315 . S
O95 Cd85 2.240 . S
O95 C93 1.279 . S
O96 Cd86 2.297 . S
O96 C91 1.247 . S
O97 Cd86 2.439 . S
O97 C91 1.208 . S
O98 Cd99 2.223 . S
O98 C106 1.315 . S
Cd99 O98 2.223 . S
Cd99 O102 2.297 . S
Cd99 O103 2.439 . S
Cd99 O109 2.240 . S
Cd100 O101 2.240 . S
Cd100 O108 2.223 . S
Cd100 O110 2.297 . S
Cd100 O111 2.439 . S
O101 Cd100 2.240 . S
O101 C106 1.279 . S
O102 Cd99 2.297 . S
O102 C104 1.247 . S
O103 Cd99 2.439 . S
O103 C104 1.208 . S
C104 O102 1.247 . S
C104 O103 1.208 . S
C105 O110 1.247 . S
C105 O111 1.208 . S
C106 O98 1.315 . S
C106 O101 1.279 . S
C107 O108 1.315 . S
C107 O109 1.279 . S
O108 Cd100 2.223 . S
O108 C107 1.315 . S
O109 Cd99 2.240 . S
O109 C107 1.279 . S
O110 Cd100 2.297 . S
O110 C105 1.247 . S
O111 Cd100 2.439 . S
O111 C105 1.208 . S
O112 Cd113 2.223 . S
O112 C120 1.315 . S
Cd113 O112 2.223 . S
Cd113 O116 2.297 . S
Cd113 O117 2.439 1_556 S
Cd113 O123 2.240 1_556 S
Cd114 O115 2.240 . S
Cd114 O122 2.223 . S
Cd114 O124 2.297 1_556 S
Cd114 O125 2.439 1_556 S
O115 Cd114 2.240 . S
O115 C120 1.279 . S
O116 Cd113 2.297 . S
O116 C118 1.247 . S
O117 Cd113 2.439 1_554 S
O117 C118 1.208 1_554 S
C118 O116 1.247 . S
C118 O117 1.208 1_556 S
C119 O124 1.247 . S
C119 O125 1.208 . S
C120 O112 1.315 . S
C120 O115 1.279 . S
C121 O122 1.310 1_554 S
C121 O123 1.286 . S
O122 Cd114 2.223 . S
O122 C121 1.310 1_556 S
O123 Cd113 2.240 1_554 S
O123 C121 1.286 . S
O124 Cd114 2.297 1_554 S
O124 C119 1.247 . S
O125 Cd114 2.439 1_554 S
O125 C119 1.208 . S
O126 Cd127 2.223 . S
O126 C134 1.315 . S
Cd127 O126 2.223 . S
Cd127 O130 2.297 . S
Cd127 O131 2.439 . S
Cd127 O137 2.240 . S
Cd128 O129 2.240 . S
Cd128 O136 2.223 . S
Cd128 O138 2.297 . S
Cd128 O139 2.439 . S
O129 Cd128 2.240 . S
O129 C134 1.279 . S
O130 Cd127 2.297 . S
O130 C132 1.247 . S
O131 Cd127 2.439 . S
O131 C132 1.208 . S
C132 O130 1.247 . S
C132 O131 1.208 . S
C133 O138 1.247 . S
C133 O139 1.208 . S
C134 O126 1.315 . S
C134 O129 1.279 . S
C135 O136 1.315 . S
C135 O137 1.279 . S
O136 Cd128 2.223 . S
O136 C135 1.315 . S
O137 Cd127 2.240 . S
O137 C135 1.279 . S
O138 Cd128 2.297 . S
O138 C133 1.247 . S
O139 Cd128 2.439 . S
O139 C133 1.208 . S
O140 Cd141 2.223 . S
O140 C148 1.315 . S
Cd141 O140 2.223 . S
Cd141 O144 2.297 . S
Cd141 O145 2.439 . S
Cd141 O151 2.240 . S
Cd142 O143 2.240 . S
Cd142 O150 2.223 . S
Cd142 O152 2.297 . S
Cd142 O153 2.439 . S
O143 Cd142 2.240 . S
O143 C148 1.279 . S
O144 Cd141 2.297 . S
O144 C146 1.247 . S
O145 Cd141 2.439 . S
O145 C146 1.208 . S
C146 O144 1.247 . S
C146 O145 1.208 . S
C147 O152 1.247 . S
C147 O153 1.208 . S
C148 O140 1.315 . S
C148 O143 1.279 . S
C149 O150 1.315 . S
C149 O151 1.279 . S
O150 Cd142 2.223 . S
O150 C149 1.315 . S
O151 Cd141 2.240 . S
O151 C149 1.279 . S
O152 Cd142 2.297 . S
O152 C147 1.247 . S
O153 Cd142 2.439 . S
O153 C147 1.208 . S
O154 Cd155 2.223 . S
O154 C162 1.315 . S
Cd155 O154 2.223 . S
Cd155 O158 2.297 . S
Cd155 O159 2.439 1_556 S
Cd155 O165 2.240 1_556 S
Cd156 O157 2.240 . S
Cd156 O164 2.223 . S
Cd156 O166 2.297 1_556 S
Cd156 O167 2.439 1_556 S
O157 Cd156 2.240 . S
O157 C162 1.279 . S
O158 Cd155 2.297 . S
O158 C160 1.247 . S
O159 Cd155 2.439 1_554 S
O159 C160 1.208 1_554 S
C160 O158 1.247 . S
C160 O159 1.208 1_556 S
C161 O166 1.247 . S
C161 O167 1.208 . S
C162 O154 1.315 . S
C162 O157 1.279 . S
C163 O164 1.310 1_554 S
C163 O165 1.286 . S
O164 Cd156 2.223 . S
O164 C163 1.310 1_556 S
O165 Cd155 2.240 1_554 S
O165 C163 1.286 . S
O166 Cd156 2.297 1_554 S
O166 C161 1.247 . S
O167 Cd156 2.439 1_554 S
O167 C161 1.208 . S
H168 C176 0.950 . S
H169 C181 0.950 . S
H170 C178 0.950 . S
H171 C180 0.950 . S
H172 C182 0.950 . S
H173 C184 0.950 . S
H174 C186 0.950 . S
H175 C187 0.950 . S
C176 H168 0.950 . S
C176 C177 1.386 . S
C176 C178 1.391 . S
C177 C176 1.386 . S
C177 C181 1.393 . S
C178 H170 0.950 . S
C178 C176 1.391 . S
C178 C179 1.400 . S
C179 C178 1.400 . S
C179 C180 1.398 . S
C179 C185 1.491 . S
C180 H171 0.950 . S
C180 C179 1.398 . S
C180 C181 1.391 . S
C181 H169 0.950 . S
C181 C177 1.393 . S
C181 C180 1.391 . S
C182 H172 0.950 . S
C182 C183 1.386 . S
C182 C184 1.391 . S
C183 C182 1.386 . S
C183 C187 1.393 . S
C184 H173 0.950 . S
C184 C182 1.391 . S
C184 C185 1.400 . S
C185 C179 1.491 . S
C185 C184 1.400 . S
C185 C186 1.398 . S
C186 H174 0.950 . S
C186 C185 1.398 . S
C186 C187 1.391 . S
C187 H175 0.950 . S
C187 C183 1.393 . S
C187 C186 1.391 . S
H188 C196 0.950 . S
H189 C201 0.950 . S
H190 C198 0.950 . S
H191 C200 0.950 . S
H192 C202 0.950 . S
H193 C204 0.950 . S
H194 C206 0.950 . S
H195 C207 0.950 . S
C196 H188 0.950 . S
C196 C197 1.386 . S
C196 C198 1.391 . S
C197 C196 1.386 . S
C197 C201 1.393 . S
C198 H190 0.950 . S
C198 C196 1.391 . S
C198 C199 1.400 . S
C199 C198 1.400 . S
C199 C200 1.398 . S
C199 C205 1.491 . S
C200 H191 0.950 . S
C200 C199 1.398 . S
C200 C201 1.391 . S
C201 H189 0.950 . S
C201 C197 1.393 . S
C201 C200 1.391 . S
C202 H192 0.950 . S
C202 C203 1.386 . S
C202 C204 1.391 . S
C203 C202 1.386 . S
C203 C207 1.393 . S
C204 H193 0.950 . S
C204 C202 1.391 . S
C204 C205 1.400 . S
C205 C199 1.491 . S
C205 C204 1.400 . S
C205 C206 1.398 . S
C206 H194 0.950 . S
C206 C205 1.398 . S
C206 C207 1.391 . S
C207 H195 0.950 . S
C207 C203 1.393 . S
C207 C206 1.391 . S
H208 C216 0.950 . S
H209 C221 0.950 . S
H210 C218 0.950 . S
H211 C220 0.950 . S
H212 C222 0.950 . S
H213 C224 0.950 . S
H214 C226 0.950 . S
H215 C227 0.950 . S
C216 H208 0.950 . S
C216 C217 1.393 . S
C216 C218 1.391 . S
C217 C216 1.393 . S
C217 C221 1.386 1_556 S
C218 H210 0.950 . S
C218 C216 1.391 . S
C218 C219 1.407 . S
C219 C218 1.407 . S
C219 C220 1.392 1_556 S
C219 C225 1.490 1_556 S
C220 H211 0.950 . S
C220 C219 1.392 1_554 S
C220 C221 1.391 . S
C221 H209 0.950 . S
C221 C217 1.386 1_554 S
C221 C220 1.391 . S
C222 H212 0.950 . S
C222 C223 1.389 . S
C222 C224 1.391 . S
C223 C222 1.389 . S
C223 C227 1.390 1_554 S
C224 H213 0.950 . S
C224 C222 1.391 . S
C224 C225 1.403 . S
C225 C219 1.490 1_554 S
C225 C224 1.403 . S
C225 C226 1.395 1_554 S
C226 H214 0.950 . S
C226 C225 1.395 1_556 S
C226 C227 1.391 . S
C227 H215 0.950 . S
C227 C223 1.390 1_556 S
C227 C226 1.391 . S
H228 C236 0.950 . S
H229 C241 0.950 . S
H230 C238 0.950 . S
H231 C240 0.950 . S
H232 C242 0.950 . S
H233 C244 0.950 . S
H234 C246 0.950 . S
H235 C247 0.950 . S
C236 H228 0.950 . S
C236 C237 1.386 . S
C236 C238 1.391 . S
C237 C236 1.386 . S
C237 C241 1.393 . S
C238 H230 0.950 . S
C238 C236 1.391 . S
C238 C239 1.400 . S
C239 C238 1.400 . S
C239 C240 1.398 . S
C239 C245 1.491 . S
C240 H231 0.950 . S
C240 C239 1.398 . S
C240 C241 1.391 . S
C241 H229 0.950 . S
C241 C237 1.393 . S
C241 C240 1.391 . S
C242 H232 0.950 . S
C242 C243 1.386 . S
C242 C244 1.391 . S
C243 C242 1.386 . S
C243 C247 1.393 . S
C244 H233 0.950 . S
C244 C242 1.391 . S
C244 C245 1.400 . S
C245 C239 1.491 . S
C245 C244 1.400 . S
C245 C246 1.398 . S
C246 H234 0.950 . S
C246 C245 1.398 . S
C246 C247 1.391 . S
C247 H235 0.950 . S
C247 C243 1.393 . S
C247 C246 1.391 . S
H248 C256 0.950 . S
H249 C261 0.950 . S
H250 C258 0.950 . S
H251 C260 0.950 . S
H252 C262 0.950 . S
H253 C264 0.950 . S
H254 C266 0.950 . S
H255 C267 0.950 . S
C256 H248 0.950 . S
C256 C257 1.386 . S
C256 C258 1.391 . S
C257 C256 1.386 . S
C257 C261 1.393 . S
C258 H250 0.950 . S
C258 C256 1.391 . S
C258 C259 1.400 . S
C259 C258 1.400 . S
C259 C260 1.398 . S
C259 C265 1.491 . S
C260 H251 0.950 . S
C260 C259 1.398 . S
C260 C261 1.391 . S
C261 H249 0.950 . S
C261 C257 1.393 . S
C261 C260 1.391 . S
C262 H252 0.950 . S
C262 C263 1.386 . S
C262 C264 1.391 . S
C263 C262 1.386 . S
C263 C267 1.393 . S
C264 H253 0.950 . S
C264 C262 1.391 . S
C264 C265 1.400 . S
C265 C259 1.491 . S
C265 C264 1.400 . S
C265 C266 1.398 . S
C266 H254 0.950 . S
C266 C265 1.398 . S
C266 C267 1.391 . S
C267 H255 0.950 . S
C267 C263 1.393 . S
C267 C266 1.391 . S
H268 C276 0.950 . S
H269 C281 0.950 . S
H270 C278 0.950 . S
H271 C280 0.951 . S
H272 C282 0.950 . S
H273 C284 0.950 . S
H274 C286 0.951 . S
H275 C287 0.950 . S
C276 H268 0.950 . S
C276 C277 1.388 . S
C276 C278 1.391 . S
C277 C276 1.388 . S
C277 C281 1.392 1_554 S
C278 H270 0.950 . S
C278 C276 1.391 . S
C278 C279 1.402 . S
C279 C278 1.402 . S
C279 C280 1.397 1_554 S
C279 C285 1.490 1_554 S
C280 H271 0.951 . S
C280 C279 1.397 1_556 S
C280 C281 1.391 . S
C281 H269 0.950 . S
C281 C277 1.392 1_556 S
C281 C280 1.391 . S
C282 H272 0.950 . S
C282 C283 1.387 . S
C282 C284 1.391 . S
C283 C282 1.387 . S
C283 C287 1.392 1_556 S
C284 H273 0.950 . S
C284 C282 1.391 . S
C284 C285 1.401 . S
C285 C279 1.490 1_556 S
C285 C284 1.401 . S
C285 C286 1.397 1_556 S
C286 H274 0.951 . S
C286 C285 1.397 1_554 S
C286 C287 1.391 . S
C287 H275 0.950 . S
C287 C283 1.392 1_554 S
C287 C286 1.391 . S
H288 C296 0.950 . S
H289 C301 0.950 . S
H290 C298 0.950 . S
H291 C300 0.950 . S
H292 C302 0.950 . S
H293 C304 0.950 . S
H294 C306 0.950 . S
H295 C307 0.950 . S
C296 H288 0.950 . S
C296 C297 1.386 . S
C296 C298 1.391 . S
C297 C296 1.386 . S
C297 C301 1.393 . S
C298 H290 0.950 . S
C298 C296 1.391 . S
C298 C299 1.400 . S
C299 C298 1.400 . S
C299 C300 1.398 . S
C299 C305 1.491 . S
C300 H291 0.950 . S
C300 C299 1.398 . S
C300 C301 1.391 . S
C301 H289 0.950 . S
C301 C297 1.393 . S
C301 C300 1.391 . S
C302 H292 0.950 . S
C302 C303 1.386 . S
C302 C304 1.391 . S
C303 C302 1.386 . S
C303 C307 1.393 . S
C304 H293 0.950 . S
C304 C302 1.391 . S
C304 C305 1.400 . S
C305 C299 1.491 . S
C305 C304 1.400 . S
C305 C306 1.398 . S
C306 H294 0.950 . S
C306 C305 1.398 . S
C306 C307 1.391 . S
C307 H295 0.950 . S
C307 C303 1.393 . S
C307 C306 1.391 . S
H308 C316 0.950 . S
H309 C321 0.950 . S
H310 C318 0.950 . S
H311 C320 0.950 . S
H312 C322 0.950 . S
H313 C324 0.950 . S
H314 C326 0.950 . S
H315 C327 0.950 . S
C316 H308 0.950 . S
C316 C317 1.386 . S
C316 C318 1.391 . S
C317 C316 1.386 . S
C317 C321 1.393 . S
C318 H310 0.950 . S
C318 C316 1.391 . S
C318 C319 1.400 . S
C319 C318 1.400 . S
C319 C320 1.398 . S
C319 C325 1.491 1_655 S
C320 H311 0.950 . S
C320 C319 1.398 . S
C320 C321 1.391 . S
C321 H309 0.950 . S
C321 C317 1.393 . S
C321 C320 1.391 . S
C322 H312 0.950 . S
C322 C323 1.386 . S
C322 C324 1.391 . S
C323 C322 1.386 . S
C323 C327 1.393 . S
C324 H313 0.950 . S
C324 C322 1.391 . S
C324 C325 1.400 . S
C325 C319 1.491 1_455 S
C325 C324 1.400 . S
C325 C326 1.398 . S
C326 H314 0.950 . S
C326 C325 1.398 . S
C326 C327 1.391 . S
C327 H315 0.950 . S
C327 C323 1.393 . S
C327 C326 1.391 . S
H328 C336 0.950 . S
H329 C341 0.950 . S
H330 C338 0.950 . S
H331 C340 0.950 . S
H332 C342 0.950 . S
H333 C344 0.950 . S
H334 C346 0.950 . S
H335 C347 0.950 . S
C336 H328 0.950 . S
C336 C337 1.383 1_554 S
C336 C338 1.391 . S
C337 C336 1.383 1_556 S
C337 C341 1.396 . S
C338 H330 0.950 . S
C338 C336 1.391 . S
C338 C339 1.399 . S
C339 C338 1.399 . S
C339 C340 1.399 1_554 S
C339 C345 1.491 1_545 S
C340 H331 0.950 . S
C340 C339 1.399 1_556 S
C340 C341 1.391 . S
C341 H329 0.950 . S
C341 C337 1.396 . S
C341 C340 1.391 . S
C342 H332 0.950 . S
C342 C343 1.375 1_556 S
C342 C344 1.391 . S
C343 C342 1.375 1_554 S
C343 C347 1.403 . S
C344 H333 0.950 . S
C344 C342 1.391 . S
C344 C345 1.399 1_556 S
C345 C339 1.491 1_565 S
C345 C344 1.399 1_554 S
C345 C346 1.399 . S
C346 H334 0.950 . S
C346 C345 1.399 . S
C346 C347 1.391 . S
C347 H335 0.950 . S
C347 C343 1.403 . S
C347 C346 1.391 . S
H348 C356 0.950 . S
H349 C361 0.950 . S
H350 C358 0.950 . S
H351 C360 0.950 . S
H352 C362 0.950 . S
H353 C364 0.950 . S
H354 C366 0.950 . S
H355 C367 0.950 . S
C356 H348 0.950 . S
C356 C357 1.386 . S
C356 C358 1.391 . S
C357 C356 1.386 . S
C357 C361 1.393 . S
C358 H350 0.950 . S
C358 C356 1.391 . S
C358 C359 1.400 . S
C359 C358 1.400 . S
C359 C360 1.398 . S
C359 C365 1.491 . S
C360 H351 0.950 . S
C360 C359 1.398 . S
C360 C361 1.391 . S
C361 H349 0.950 . S
C361 C357 1.393 . S
C361 C360 1.391 . S
C362 H352 0.950 . S
C362 C363 1.386 . S
C362 C364 1.391 . S
C363 C362 1.386 . S
C363 C367 1.393 . S
C364 H353 0.950 . S
C364 C362 1.391 . S
C364 C365 1.400 . S
C365 C359 1.491 . S
C365 C364 1.400 . S
C365 C366 1.398 . S
C366 H354 0.950 . S
C366 C365 1.398 . S
C366 C367 1.391 . S
C367 H355 0.950 . S
C367 C363 1.393 . S
C367 C366 1.391 . S
H368 C376 0.950 . S
H369 C381 0.950 . S
H370 C378 0.950 . S
H371 C380 0.950 . S
H372 C382 0.950 . S
H373 C384 0.950 . S
H374 C386 0.950 . S
H375 C387 0.950 . S
C376 H368 0.950 . S
C376 C377 1.386 . S
C376 C378 1.391 . S
C377 C376 1.386 . S
C377 C381 1.393 . S
C378 H370 0.950 . S
C378 C376 1.391 . S
C378 C379 1.400 . S
C379 C378 1.400 . S
C379 C380 1.398 . S
C379 C385 1.491 1_455 S
C380 H371 0.950 . S
C380 C379 1.398 . S
C380 C381 1.391 . S
C381 H369 0.950 . S
C381 C377 1.393 . S
C381 C380 1.391 . S
C382 H372 0.950 . S
C382 C383 1.386 . S
C382 C384 1.391 . S
C383 C382 1.386 . S
C383 C387 1.393 . S
C384 H373 0.950 . S
C384 C382 1.391 . S
C384 C385 1.400 . S
C385 C379 1.491 1_655 S
C385 C384 1.400 . S
C385 C386 1.398 . S
C386 H374 0.950 . S
C386 C385 1.398 . S
C386 C387 1.391 . S
C387 H375 0.950 . S
C387 C383 1.393 . S
C387 C386 1.391 . S
H388 C396 0.950 . S
H389 C401 0.950 . S
H390 C398 0.950 . S
H391 C400 0.950 . S
H392 C402 0.950 . S
H393 C404 0.950 . S
H394 C406 0.950 . S
H395 C407 0.950 . S
C396 H388 0.950 . S
C396 C397 1.369 1_556 S
C396 C398 1.391 . S
C397 C396 1.369 1_554 S
C397 C401 1.409 . S
C398 H390 0.950 . S
C398 C396 1.391 . S
C398 C399 1.399 1_556 S
C399 C398 1.399 1_554 S
C399 C400 1.399 . S
C399 C405 1.490 1_544 S
C400 H391 0.950 . S
C400 C399 1.399 . S
C400 C401 1.391 . S
C401 H389 0.950 . S
C401 C397 1.409 . S
C401 C400 1.391 . S
C402 H392 0.950 . S
C402 C403 1.362 1_554 S
C402 C404 1.391 . S
C403 C402 1.362 1_556 S
C403 C407 1.417 . S
C404 H393 0.950 . S
C404 C402 1.391 . S
C404 C405 1.392 1_554 S
C405 C399 1.490 1_566 S
C405 C404 1.392 1_556 S
C405 C406 1.407 . S
C406 H394 0.950 . S
C406 C405 1.407 . S
C406 C407 1.391 . S
C407 H395 0.950 . S
C407 C403 1.417 . S
C407 C406 1.391 . S
H408 C416 0.950 . S
H409 C421 0.950 1_455 S
H410 C418 0.950 . S
H411 C420 0.950 . S
H412 C422 0.950 . S
H413 C424 0.950 . S
H414 C426 0.950 . S
H415 C427 0.950 . S
C416 H408 0.950 . S
C416 C417 1.386 . S
C416 C418 1.391 . S
C417 C416 1.386 . S
C417 C421 1.393 . S
C418 H410 0.950 . S
C418 C416 1.391 . S
C418 C419 1.400 . S
C419 C418 1.400 . S
C419 C420 1.398 1_655 S
C419 C425 1.491 1_655 S
C420 H411 0.950 . S
C420 C419 1.398 1_455 S
C420 C421 1.391 1_455 S
C421 H409 0.950 1_655 S
C421 C417 1.393 . S
C421 C420 1.391 1_655 S
C422 H412 0.950 . S
C422 C423 1.386 . S
C422 C424 1.391 . S
C423 C422 1.386 . S
C423 C427 1.393 1_455 S
C424 H413 0.950 . S
C424 C422 1.391 . S
C424 C425 1.400 . S
C425 C419 1.491 1_455 S
C425 C424 1.400 . S
C425 C426 1.398 1_455 S
C426 H414 0.950 . S
C426 C425 1.398 1_655 S
C426 C427 1.391 . S
C427 H415 0.950 . S
C427 C423 1.393 1_655 S
C427 C426 1.391 . S
H428 C436 0.950 . S
H429 C441 0.950 . S
H430 C438 0.950 1_565 S
H431 C440 0.950 . S
H432 C442 0.950 . S
H433 C444 0.950 1_545 S
H434 C446 0.950 . S
H435 C447 0.950 . S
C436 H428 0.950 . S
C436 C437 1.386 . S
C436 C438 1.391 . S
C437 C436 1.386 . S
C437 C441 1.393 . S
C438 H430 0.950 1_545 S
C438 C436 1.391 . S
C438 C439 1.400 . S
C439 C438 1.400 . S
C439 C440 1.398 . S
C439 C445 1.491 1_545 S
C440 H431 0.950 . S
C440 C439 1.398 . S
C440 C441 1.391 . S
C441 H429 0.950 . S
C441 C437 1.393 . S
C441 C440 1.391 . S
C442 H432 0.950 . S
C442 C443 1.386 . S
C442 C444 1.391 . S
C443 C442 1.386 . S
C443 C447 1.393 . S
C444 H433 0.950 1_565 S
C444 C442 1.391 . S
C444 C445 1.400 . S
C445 C439 1.491 1_565 S
C445 C444 1.400 . S
C445 C446 1.398 . S
C446 H434 0.950 . S
C446 C445 1.398 . S
C446 C447 1.391 . S
C447 H435 0.950 . S
C447 C443 1.393 . S
C447 C446 1.391 . S
H448 C456 0.950 . S
H449 C461 0.950 . S
H450 C458 0.950 . S
H451 C460 0.950 . S
H452 C462 0.950 . S
H453 C464 0.950 . S
H454 C466 0.950 . S
H455 C467 0.950 . S
C456 H448 0.950 . S
C456 C457 1.386 . S
C456 C458 1.391 . S
C457 C456 1.386 . S
C457 C461 1.393 . S
C458 H450 0.950 . S
C458 C456 1.391 . S
C458 C459 1.400 . S
C459 C458 1.400 . S
C459 C460 1.398 . S
C459 C465 1.491 . S
C460 H451 0.950 . S
C460 C459 1.398 . S
C460 C461 1.391 . S
C461 H449 0.950 . S
C461 C457 1.393 . S
C461 C460 1.391 . S
C462 H452 0.950 . S
C462 C463 1.386 . S
C462 C464 1.391 . S
C463 C462 1.386 . S
C463 C467 1.393 . S
C464 H453 0.950 . S
C464 C462 1.391 . S
C464 C465 1.400 . S
C465 C459 1.491 . S
C465 C464 1.400 . S
C465 C466 1.398 . S
C466 H454 0.950 . S
C466 C465 1.398 . S
C466 C467 1.391 . S
C467 H455 0.950 . S
C467 C463 1.393 . S
C467 C466 1.391 . S
H468 C476 0.950 . S
H469 C481 0.949 1_655 S
H470 C478 0.950 . S
H471 C480 0.950 . S
H472 C482 0.950 . S
H473 C484 0.950 . S
H474 C486 0.950 . S
H475 C487 0.950 . S
C476 H468 0.950 . S
C476 C477 1.386 . S
C476 C478 1.391 . S
C477 C476 1.386 . S
C477 C481 1.394 . S
C478 H470 0.950 . S
C478 C476 1.391 . S
C478 C479 1.400 . S
C479 C478 1.400 . S
C479 C480 1.398 1_455 S
C479 C485 1.491 1_455 S
C480 H471 0.950 . S
C480 C479 1.398 1_655 S
C480 C481 1.390 1_655 S
C481 H469 0.949 1_455 S
C481 C477 1.394 . S
C481 C480 1.390 1_455 S
C482 H472 0.950 . S
C482 C483 1.386 . S
C482 C484 1.391 . S
C483 C482 1.386 . S
C483 C487 1.393 1_655 S
C484 H473 0.950 . S
C484 C482 1.391 . S
C484 C485 1.400 . S
C485 C479 1.491 1_655 S
C485 C484 1.400 . S
C485 C486 1.398 1_655 S
C486 H474 0.950 . S
C486 C485 1.398 1_455 S
C486 C487 1.391 . S
C487 H475 0.950 . S
C487 C483 1.393 1_455 S
C487 C486 1.391 . S
H488 C496 0.950 . S
H489 C501 0.950 . S
H490 C498 0.950 . S
H491 C500 0.950 . S
H492 C502 0.950 . S
H493 C504 0.950 . S
H494 C506 0.950 . S
H495 C507 0.950 . S
C496 H488 0.950 . S
C496 C497 1.386 . S
C496 C498 1.391 . S
C497 C496 1.386 . S
C497 C501 1.393 . S
C498 H490 0.950 . S
C498 C496 1.391 . S
C498 C499 1.400 . S
C499 C498 1.400 . S
C499 C500 1.398 1_545 S
C499 C505 1.491 1_545 S
C500 H491 0.950 . S
C500 C499 1.398 1_565 S
C500 C501 1.391 1_565 S
C501 H489 0.950 . S
C501 C497 1.393 . S
C501 C500 1.391 1_545 S
C502 H492 0.950 . S
C502 C503 1.386 . S
C502 C504 1.391 . S
C503 C502 1.386 . S
C503 C507 1.393 . S
C504 H493 0.950 . S
C504 C502 1.391 . S
C504 C505 1.400 . S
C505 C499 1.491 1_565 S
C505 C504 1.400 . S
C505 C506 1.398 1_565 S
C506 H494 0.950 . S
C506 C505 1.398 1_545 S
C506 C507 1.391 1_545 S
C507 H495 0.950 . S
C507 C503 1.393 . S
C507 C506 1.391 1_565 S
H508 C516 0.950 . S
H509 C521 0.950 . S
H510 C518 0.950 . S
H511 C520 0.950 . S
H512 C522 0.950 . S
H513 C524 0.950 . S
H514 C526 0.950 . S
H515 C527 0.950 . S
C516 H508 0.950 . S
C516 C517 1.386 . S
C516 C518 1.391 . S
C517 C516 1.386 . S
C517 C521 1.393 . S
C518 H510 0.950 . S
C518 C516 1.391 . S
C518 C519 1.400 . S
C519 C518 1.400 . S
C519 C520 1.398 . S
C519 C525 1.491 . S
C520 H511 0.950 . S
C520 C519 1.398 . S
C520 C521 1.391 . S
C521 H509 0.950 . S
C521 C517 1.393 . S
C521 C520 1.391 . S
C522 H512 0.950 . S
C522 C523 1.386 . S
C522 C524 1.391 . S
C523 C522 1.386 . S
C523 C527 1.393 . S
C524 H513 0.950 . S
C524 C522 1.391 . S
C524 C525 1.400 . S
C525 C519 1.491 . S
C525 C524 1.400 . S
C525 C526 1.398 . S
C526 H514 0.950 . S
C526 C525 1.398 . S
C526 C527 1.391 . S
C527 H515 0.950 . S
C527 C523 1.393 . S
C527 C526 1.391 . S
H528 C536 0.950 . S
H529 C541 0.950 . S
H530 C538 0.950 . S
H531 C540 0.950 . S
H532 C542 0.950 . S
H533 C544 0.950 . S
H534 C546 0.950 . S
H535 C547 0.950 . S
C536 H528 0.950 . S
C536 C537 1.386 . S
C536 C538 1.391 . S
C537 C536 1.386 . S
C537 C541 1.393 . S
C538 H530 0.950 . S
C538 C536 1.391 . S
C538 C539 1.400 . S
C539 C538 1.400 . S
C539 C540 1.398 . S
C539 C545 1.491 . S
C540 H531 0.950 . S
C540 C539 1.398 . S
C540 C541 1.391 . S
C541 H529 0.950 . S
C541 C537 1.393 . S
C541 C540 1.391 . S
C542 H532 0.950 . S
C542 C543 1.386 . S
C542 C544 1.391 . S
C543 C542 1.386 . S
C543 C547 1.393 . S
C544 H533 0.950 . S
C544 C542 1.391 . S
C544 C545 1.400 . S
C545 C539 1.491 . S
C545 C544 1.400 . S
C545 C546 1.398 . S
C546 H534 0.950 . S
C546 C545 1.398 . S
C546 C547 1.391 . S
C547 H535 0.950 . S
C547 C543 1.393 . S
C547 C546 1.391 . S
H548 C556 0.950 . S
H549 C561 0.950 . S
H550 C558 0.950 . S
H551 C560 0.950 . S
H552 C562 0.950 . S
H553 C564 0.950 . S
H554 C566 0.950 . S
H555 C567 0.950 . S
C556 H548 0.950 . S
C556 C557 1.386 . S
C556 C558 1.391 . S
C557 C556 1.386 . S
C557 C561 1.393 . S
C558 H550 0.950 . S
C558 C556 1.391 . S
C558 C559 1.400 . S
C559 C558 1.400 . S
C559 C560 1.398 . S
C559 C565 1.491 . S
C560 H551 0.950 . S
C560 C559 1.398 . S
C560 C561 1.391 . S
C561 H549 0.950 . S
C561 C557 1.393 . S
C561 C560 1.391 . S
C562 H552 0.950 . S
C562 C563 1.386 . S
C562 C564 1.391 . S
C563 C562 1.386 . S
C563 C567 1.393 . S
C564 H553 0.950 . S
C564 C562 1.391 . S
C564 C565 1.400 . S
C565 C559 1.491 . S
C565 C564 1.400 . S
C565 C566 1.398 . S
C566 H554 0.950 . S
C566 C565 1.398 . S
C566 C567 1.391 . S
C567 H555 0.950 . S
C567 C563 1.393 . S
C567 C566 1.391 . S
H568 C576 0.950 . S
H569 C581 0.950 . S
H570 C578 0.950 . S
H571 C580 0.950 . S
H572 C582 0.950 . S
H573 C584 0.950 . S
H574 C586 0.950 . S
H575 C587 0.950 . S
C576 H568 0.950 . S
C576 C577 1.386 . S
C576 C578 1.391 . S
C577 C576 1.386 . S
C577 C581 1.393 . S
C578 H570 0.950 . S
C578 C576 1.391 . S
C578 C579 1.400 . S
C579 C578 1.400 . S
C579 C580 1.398 . S
C579 C585 1.491 . S
C580 H571 0.950 . S
C580 C579 1.398 . S
C580 C581 1.391 . S
C581 H569 0.950 . S
C581 C577 1.393 . S
C581 C580 1.391 . S
C582 H572 0.950 . S
C582 C583 1.386 . S
C582 C584 1.391 . S
C583 C582 1.386 . S
C583 C587 1.393 . S
C584 H573 0.950 . S
C584 C582 1.391 . S
C584 C585 1.400 . S
C585 C579 1.491 . S
C585 C584 1.400 . S
C585 C586 1.398 . S
C586 H574 0.950 . S
C586 C585 1.398 . S
C586 C587 1.391 . S
C587 H575 0.950 . S
C587 C583 1.393 . S
C587 C586 1.391 . S
H588 C596 0.950 . S
H589 C601 0.950 . S
H590 C598 0.950 . S
H591 C600 0.950 . S
H592 C602 0.950 . S
H593 C604 0.950 . S
H594 C606 0.950 . S
H595 C607 0.950 . S
C596 H588 0.950 . S
C596 C597 1.386 . S
C596 C598 1.391 . S
C597 C596 1.386 . S
C597 C601 1.393 . S
C598 H590 0.950 . S
C598 C596 1.391 . S
C598 C599 1.400 . S
C599 C598 1.400 . S
C599 C600 1.398 . S
C599 C605 1.491 . S
C600 H591 0.950 . S
C600 C599 1.398 . S
C600 C601 1.391 . S
C601 H589 0.950 . S
C601 C597 1.393 . S
C601 C600 1.391 . S
C602 H592 0.950 . S
C602 C603 1.386 . S
C602 C604 1.391 . S
C603 C602 1.386 . S
C603 C607 1.393 . S
C604 H593 0.950 . S
C604 C602 1.391 . S
C604 C605 1.400 . S
C605 C599 1.491 . S
C605 C604 1.400 . S
C605 C606 1.398 . S
C606 H594 0.950 . S
C606 C605 1.398 . S
C606 C607 1.391 . S
C607 H595 0.950 . S
C607 C603 1.393 . S
C607 C606 1.391 . S
H608 C616 0.950 . S
H609 C621 0.950 . S
H610 C618 0.950 . S
H611 C620 0.950 . S
H612 C622 0.950 . S
H613 C624 0.950 . S
H614 C626 0.950 . S
H615 C627 0.950 . S
C616 H608 0.950 . S
C616 C617 1.386 . S
C616 C618 1.391 . S
C617 C616 1.386 . S
C617 C621 1.393 . S
C618 H610 0.950 . S
C618 C616 1.391 . S
C618 C619 1.400 . S
C619 C618 1.400 . S
C619 C620 1.398 . S
C619 C625 1.491 . S
C620 H611 0.950 . S
C620 C619 1.398 . S
C620 C621 1.391 . S
C621 H609 0.950 . S
C621 C617 1.393 . S
C621 C620 1.391 . S
C622 H612 0.950 . S
C622 C623 1.386 . S
C622 C624 1.391 . S
C623 C622 1.386 . S
C623 C627 1.393 . S
C624 H613 0.950 . S
C624 C622 1.391 . S
C624 C625 1.400 . S
C625 C619 1.491 . S
C625 C624 1.400 . S
C625 C626 1.398 . S
C626 H614 0.950 . S
C626 C625 1.398 . S
C626 C627 1.391 . S
C627 H615 0.950 . S
C627 C623 1.393 . S
C627 C626 1.391 . S
H628 C636 0.950 . S
H629 C641 0.950 . S
H630 C638 0.950 . S
H631 C640 0.950 . S
H632 C642 0.950 . S
H633 C644 0.950 . S
H634 C646 0.950 . S
H635 C647 0.950 . S
C636 H628 0.950 . S
C636 C637 1.386 . S
C636 C638 1.391 . S
C637 C636 1.386 . S
C637 C641 1.393 . S
C638 H630 0.950 . S
C638 C636 1.391 . S
C638 C639 1.400 . S
C639 C638 1.400 . S
C639 C640 1.398 . S
C639 C645 1.491 . S
C640 H631 0.950 . S
C640 C639 1.398 . S
C640 C641 1.391 . S
C641 H629 0.950 . S
C641 C637 1.393 . S
C641 C640 1.391 . S
C642 H632 0.950 . S
C642 C643 1.386 . S
C642 C644 1.391 . S
C643 C642 1.386 . S
C643 C647 1.393 . S
C644 H633 0.950 . S
C644 C642 1.391 . S
C644 C645 1.400 . S
C645 C639 1.491 . S
C645 C644 1.400 . S
C645 C646 1.398 . S
C646 H634 0.950 . S
C646 C645 1.398 . S
C646 C647 1.391 . S
C647 H635 0.950 . S
C647 C643 1.393 . S
C647 C646 1.391 . S
C177 C7 1.674 . S
C183 C91 1.659 . S
C197 C21 1.685 . S
C203 C105 1.646 . S
C217 C34 1.593 1_556 S
C223 C118 1.575 1_554 S
C237 C133 1.684 . S
C243 C49 1.646 . S
C257 C63 1.683 . S
C263 C147 1.647 . S
C277 C160 1.587 1_554 S
C283 C76 1.581 1_556 S
C297 C8 1.495 . S
C303 C134 1.491 . S
C317 C22 1.490 . S
C323 C148 1.491 . S
C337 C163 1.414 1_556 S
C343 C37 1.418 1_554 S
C357 C92 1.498 . S
C363 C50 1.497 . S
C377 C64 1.497 . S
C383 C106 1.498 . S
C397 C79 1.414 1_554 S
C403 C121 1.418 1_556 S
C417 C161 1.519 . S
C423 C6 1.521 . S
C437 C20 1.688 . S
C443 C90 1.685 . S
C457 C35 1.520 . S
C463 C104 1.521 . S
C477 C119 1.519 . S
C483 C48 1.521 . S
C497 C132 1.685 . S
C503 C62 1.688 . S
C517 C77 1.519 . S
C523 C146 1.521 . S
C537 C9 0.954 . S
C543 C149 0.975 . S
C557 C162 1.086 . S
C563 C23 1.093 . S
C577 C93 1.086 . S
C583 C36 1.093 . S
C597 C51 0.945 . S
C603 C107 0.931 . S
C617 C120 1.132 . S
C623 C65 1.132 . S
C637 C135 1.090 . S
C643 C78 1.090 . S
