# Generated by pormake.
# Topology zfg, (5)-cn, num edge types: 1
# Building blocks:
#     Node 0, Type 0, BuildingBlock: BEQFEK_clean_sbu_0, # of connection points: 5
#     Node 1, Type 0, BuildingBlock: BEQFEK_clean_sbu_0, # of connection points: 5
#     Node 2, Type 0, BuildingBlock: BEQFEK_clean_sbu_0, # of connection points: 5
#     Node 3, Type 0, BuildingBlock: BEQFEK_clean_sbu_0, # of connection points: 5
#     Node 4, Type 0, BuildingBlock: BEQFEK_clean_sbu_0, # of connection points: 5
#     Node 5, Type 0, BuildingBlock: BEQFEK_clean_sbu_0, # of connection points: 5
#     Node 6, Type 0, BuildingBlock: BEQFEK_clean_sbu_0, # of connection points: 5
#     Node 7, Type 0, BuildingBlock: BEQFEK_clean_sbu_0, # of connection points: 5
#     Node 8, Type 0, BuildingBlock: BEQFEK_clean_sbu_0, # of connection points: 5
#     Node 9, Type 0, BuildingBlock: BEQFEK_clean_sbu_0, # of connection points: 5
#     Node 10, Type 0, BuildingBlock: BEQFEK_clean_sbu_0, # of connection points: 5
#     Node 11, Type 0, BuildingBlock: BEQFEK_clean_sbu_0, # of connection points: 5
#     Node 12, Type 0, BuildingBlock: BEQFEK_clean_sbu_0, # of connection points: 5
#     Node 13, Type 0, BuildingBlock: BEQFEK_clean_sbu_0, # of connection points: 5
#     Node 14, Type 0, BuildingBlock: BEQFEK_clean_sbu_0, # of connection points: 5
#     Node 15, Type 0, BuildingBlock: BEQFEK_clean_sbu_0, # of connection points: 5
#     Edge 16, Type (0, 0), BuildingBlock: TEMPAE_clean_linker_10, # of connection points: 2
#     Edge 17, Type (0, 0), BuildingBlock: TEMPAE_clean_linker_10, # of connection points: 2
#     Edge 18, Type (0, 0), BuildingBlock: TEMPAE_clean_linker_10, # of connection points: 2
#     Edge 19, Type (0, 0), BuildingBlock: TEMPAE_clean_linker_10, # of connection points: 2
#     Edge 20, Type (0, 0), BuildingBlock: TEMPAE_clean_linker_10, # of connection points: 2
#     Edge 21, Type (0, 0), BuildingBlock: TEMPAE_clean_linker_10, # of connection points: 2
#     Edge 22, Type (0, 0), BuildingBlock: TEMPAE_clean_linker_10, # of connection points: 2
#     Edge 23, Type (0, 0), BuildingBlock: TEMPAE_clean_linker_10, # of connection points: 2
#     Edge 24, Type (0, 0), BuildingBlock: TEMPAE_clean_linker_10, # of connection points: 2
#     Edge 25, Type (0, 0), BuildingBlock: TEMPAE_clean_linker_10, # of connection points: 2
#     Edge 26, Type (0, 0), BuildingBlock: TEMPAE_clean_linker_10, # of connection points: 2
#     Edge 27, Type (0, 0), BuildingBlock: TEMPAE_clean_linker_10, # of connection points: 2
#     Edge 28, Type (0, 0), BuildingBlock: TEMPAE_clean_linker_10, # of connection points: 2
#     Edge 29, Type (0, 0), BuildingBlock: TEMPAE_clean_linker_10, # of connection points: 2
#     Edge 30, Type (0, 0), BuildingBlock: TEMPAE_clean_linker_10, # of connection points: 2
#     Edge 31, Type (0, 0), BuildingBlock: TEMPAE_clean_linker_10, # of connection points: 2
#     Edge 32, Type (0, 0), BuildingBlock: TEMPAE_clean_linker_10, # of connection points: 2
#     Edge 33, Type (0, 0), BuildingBlock: TEMPAE_clean_linker_10, # of connection points: 2
#     Edge 34, Type (0, 0), BuildingBlock: TEMPAE_clean_linker_10, # of connection points: 2
#     Edge 35, Type (0, 0), BuildingBlock: TEMPAE_clean_linker_10, # of connection points: 2
#     Edge 36, Type (0, 0), BuildingBlock: TEMPAE_clean_linker_10, # of connection points: 2
#     Edge 37, Type (0, 0), BuildingBlock: TEMPAE_clean_linker_10, # of connection points: 2
#     Edge 38, Type (0, 0), BuildingBlock: TEMPAE_clean_linker_10, # of connection points: 2
#     Edge 39, Type (0, 0), BuildingBlock: TEMPAE_clean_linker_10, # of connection points: 2
#     Edge 40, Type (0, 0), BuildingBlock: TEMPAE_clean_linker_10, # of connection points: 2
#     Edge 41, Type (0, 0), BuildingBlock: TEMPAE_clean_linker_10, # of connection points: 2
#     Edge 42, Type (0, 0), BuildingBlock: TEMPAE_clean_linker_10, # of connection points: 2
#     Edge 43, Type (0, 0), BuildingBlock: TEMPAE_clean_linker_10, # of connection points: 2
#     Edge 44, Type (0, 0), BuildingBlock: TEMPAE_clean_linker_10, # of connection points: 2
#     Edge 45, Type (0, 0), BuildingBlock: TEMPAE_clean_linker_10, # of connection points: 2
#     Edge 46, Type (0, 0), BuildingBlock: TEMPAE_clean_linker_10, # of connection points: 2
#     Edge 47, Type (0, 0), BuildingBlock: TEMPAE_clean_linker_10, # of connection points: 2
#     Edge 48, Type (0, 0), BuildingBlock: TEMPAE_clean_linker_10, # of connection points: 2
#     Edge 49, Type (0, 0), BuildingBlock: TEMPAE_clean_linker_10, # of connection points: 2
#     Edge 50, Type (0, 0), BuildingBlock: TEMPAE_clean_linker_10, # of connection points: 2
#     Edge 51, Type (0, 0), BuildingBlock: TEMPAE_clean_linker_10, # of connection points: 2
#     Edge 52, Type (0, 0), BuildingBlock: TEMPAE_clean_linker_10, # of connection points: 2
#     Edge 53, Type (0, 0), BuildingBlock: TEMPAE_clean_linker_10, # of connection points: 2
#     Edge 54, Type (0, 0), BuildingBlock: TEMPAE_clean_linker_10, # of connection points: 2
#     Edge 55, Type (0, 0), BuildingBlock: TEMPAE_clean_linker_10, # of connection points: 2
# Relax obj value: 0.045
# Max RMSD: 0.068
# Mean RMSD: 0.068
data_MOF--net-zfg--node1-BEQFEK_clean_sbu_0--edge1-TEMPAE_clean_linker_10
_symmetry_space_group_name_H-M    P1
_symmetry_Int_Tables_number       1
_symmetry_cell_setting            triclinic
loop_
_symmetry_equiv_pos_as_xyz
'x, y, z'
_cell_length_a     43.039716
_cell_length_b     43.040975
_cell_length_c     58.923733
_cell_angle_alpha  89.998177
_cell_angle_beta   90.011516
_cell_angle_gamma 89.99086
loop_
_atom_site_label
_atom_site_type_symbol
_atom_site_fract_x
_atom_site_fract_y
_atom_site_fract_z
_atom_type_partial_charge
Co0 Co 0.09278 0.23702 0.12847 0.0
Co1 Co 0.0498 0.29542 0.12991 0.0
C2 C 0.08485 0.27698 0.08758 0.0
O3 O 0.09782 0.25395 0.09732 0.0
O4 O 0.06597 0.29464 0.09818 0.0
C5 C 0.11899 0.17947 0.11763 0.0
O6 O 0.10093 0.18344 0.09988 0.0
C7 C 0.03429 0.36173 0.12857 0.0
C8 C 0.98929 0.36244 0.14665 0.0
C9 C 0.011 0.3814 0.13621 0.0
N10 N 0.02667 0.33251 0.13429 0.0
N11 N -0.00039 0.33305 0.14488 0.0
C12 C 0.06441 0.37048 0.11765 0.0
H13 H 0.0821 0.35215 0.12062 0.0
H14 H 0.07284 0.39308 0.12433 0.0
H15 H 0.06081 0.37281 0.09908 0.0
C16 C 0.12279 0.27039 0.16694 0.0
N17 N 0.10109 0.26807 0.15054 0.0
N18 N 0.08196 0.2918 0.152 0.0
C19 C 0.09001 0.30929 0.17005 0.0
C20 C 0.11651 0.29661 0.18008 0.0
C21 C 0.1497 0.24856 0.16912 0.0
H22 H 0.15718 0.24057 0.15208 0.0
H23 H 0.16962 0.25984 0.17778 0.0
H24 H 0.14237 0.22791 0.17905 0.0
O25 O 0.04992 0.21968 0.13193 0.0
O26 O 0.01998 0.26148 0.13305 0.0
H27 H 0.07479 0.33969 0.19721 0.0
H28 H 0.07618 0.35701 0.16929 0.0
C29 C 0.07062 0.33555 0.17889 0.0
H30 H 0.04566 0.33022 0.17656 0.0
H31 H 0.9885 0.31338 0.15134 0.0
O32 O 0.12041 0.20077 0.13252 0.0
C33 C 0.02317 0.23216 0.13342 0.0
Co34 Co 0.76691 0.08391 0.13295 0.0
Co35 Co 0.70087 0.05411 0.12923 0.0
C36 C 0.72748 0.08725 0.09006 0.0
O37 O 0.75276 0.0914 0.10097 0.0
O38 O 0.70406 0.07423 0.09921 0.0
C39 C 0.82671 0.10603 0.12281 0.0
O40 O 0.82156 0.08952 0.10444 0.0
C41 C 0.63409 0.03823 0.12334 0.0
C42 C 0.62973 0.00137 0.14931 0.0
C43 C 0.6131 0.01757 0.13305 0.0
N44 N 0.66173 0.03451 0.13367 0.0
N45 N 0.65893 0.01234 0.14905 0.0
C46 C 0.62874 0.05977 0.10378 0.0
H47 H 0.64851 0.0584 0.09179 0.0
H48 H 0.62735 0.08398 0.11018 0.0
H49 H 0.60709 0.05396 0.09449 0.0
C50 C 0.73695 0.11497 0.17246 0.0
N51 N 0.73621 0.09585 0.15433 0.0
N52 N 0.70848 0.08314 0.15285 0.0
C53 C 0.69065 0.09385 0.16994 0.0
C54 C 0.7081 0.11423 0.18302 0.0
C55 C 0.76534 0.13205 0.18011 0.0
H56 H 0.77161 0.14968 0.16715 0.0
H57 H 0.76168 0.14368 0.1967 0.0
H58 H 0.78507 0.11555 0.18148 0.0
O59 O 0.77737 0.03944 0.13654 0.0
O60 O 0.73079 0.0192 0.13019 0.0
H61 H 0.65581 0.06144 0.18018 0.0
H62 H 0.64562 0.10149 0.18538 0.0
C63 C 0.65724 0.08541 0.17335 0.0
H64 H 0.64486 0.0861 0.15687 0.0
H65 H 0.67703 0.00475 0.15943 0.0
O66 O 0.80572 0.10752 0.13794 0.0
C67 C 0.75973 0.01604 0.1338 0.0
Co68 Co 0.90925 0.7623 0.12877 0.0
Co69 Co 0.94647 0.69964 0.1303 0.0
C70 C 0.91256 0.71942 0.08852 0.0
O71 O 0.9021 0.74377 0.09818 0.0
O72 O 0.93017 0.70041 0.09894 0.0
C73 C 0.85471 0.80253 0.12903 0.0
O74 O 0.838 0.77715 0.127 0.0
C75 C 0.96611 0.63373 0.12634 0.0
C76 C -0.00049 0.63086 0.15479 0.0
C77 C 0.98582 0.61341 0.13776 0.0
N78 N 0.96774 0.66167 0.13653 0.0
N79 N 0.988 0.65982 0.15333 0.0
C80 C 0.94766 0.62758 0.10527 0.0
H81 H 0.95098 0.64686 0.09307 0.0
H82 H 0.92261 0.62645 0.10967 0.0
H83 H 0.95485 0.60569 0.09686 0.0
C84 C 0.88071 0.73421 0.17059 0.0
N85 N 0.8998 0.73342 0.15239 0.0
N86 N 0.91459 0.70659 0.1522 0.0
C87 C 0.90483 0.68933 0.16991 0.0
C88 C 0.88321 0.70627 0.18216 0.0
C89 C 0.86258 0.76202 0.17811 0.0
H90 H 0.87449 0.78368 0.17286 0.0
H91 H 0.83915 0.76126 0.17032 0.0
H92 H 0.8596 0.76202 0.19683 0.0
O93 O 0.95314 0.77633 0.13099 0.0
O94 O 0.97881 0.7318 0.1325 0.0
H95 H 0.93884 0.65786 0.18286 0.0
H96 H 0.89938 0.64492 0.18665 0.0
C97 C 0.91552 0.65695 0.17489 0.0
H98 H 0.91711 0.64347 0.15891 0.0
H99 H 0.99371 0.67833 0.16397 0.0
O100 O 0.88409 0.80072 0.13047 0.0
C101 C 0.97856 0.76131 0.13234 0.0
Co102 Co 0.23665 0.90765 0.12904 0.0
Co103 Co 0.2975 0.94732 0.13022 0.0
C104 C 0.27864 0.91278 0.08839 0.0
O105 O 0.25472 0.90148 0.09814 0.0
O106 O 0.29725 0.9309 0.09879 0.0
C107 C 0.1815 0.87615 0.11639 0.0
O108 O 0.18746 0.88939 0.09678 0.0
C109 C 0.36305 0.96617 0.12724 0.0
C110 C 0.36392 0.00564 0.15126 0.0
C111 C 0.38244 0.98844 0.13672 0.0
N112 N 0.33441 0.97015 0.1358 0.0
N113 N 0.33503 0.99392 0.14999 0.0
C114 C 0.37181 0.93999 0.11182 0.0
H115 H 0.35573 0.9201 0.11422 0.0
H116 H 0.39606 0.9324 0.11502 0.0
H117 H 0.36996 0.94794 0.09395 0.0
C118 C 0.26687 0.87868 0.16923 0.0
N119 N 0.26657 0.89902 0.15183 0.0
N120 N 0.29224 0.9156 0.1523 0.0
C121 C 0.30961 0.90647 0.17014 0.0
C122 C 0.29412 0.88282 0.18147 0.0
C123 C 0.24068 0.85705 0.17461 0.0
H124 H 0.21892 0.87062 0.17657 0.0
H125 H 0.23732 0.84078 0.16021 0.0
H126 H 0.2451 0.84365 0.19037 0.0
O127 O 0.22047 0.95099 0.13166 0.0
O128 O 0.26416 0.97812 0.13237 0.0
H129 H 0.33766 0.94442 0.18139 0.0
H130 H 0.35216 0.90674 0.18988 0.0
C131 C 0.34065 0.9199 0.17604 0.0
H132 H 0.35583 0.91951 0.16086 0.0
H133 H 0.31577 0.00185 0.15906 0.0
O134 O 0.20023 0.88013 0.13279 0.0
C135 C 0.23469 0.97691 0.13262 0.0
Co136 Co 0.58896 0.26528 0.37557 0.0
Co137 Co 0.55443 0.20177 0.37765 0.0
C138 C 0.5883 0.2243 0.41775 0.0
O139 O 0.59449 0.24953 0.40732 0.0
O140 O 0.57393 0.20213 0.40803 0.0
C141 C 0.61762 0.32186 0.3874 0.0
O142 O 0.60178 0.3172 0.40616 0.0
C143 C 0.53747 0.13562 0.38097 0.0
C144 C 0.49744 0.13399 0.35744 0.0
C145 C 0.5155 0.11577 0.37163 0.0
N146 N 0.53251 0.16424 0.37262 0.0
N147 N 0.50842 0.16315 0.35874 0.0
C148 C 0.56425 0.12736 0.396 0.0
H149 H 0.58373 0.14387 0.39336 0.0
H150 H 0.57229 0.1033 0.39261 0.0
H151 H 0.55676 0.12894 0.41398 0.0
C152 C 0.61884 0.23469 0.33591 0.0
N153 N 0.59918 0.23464 0.35373 0.0
N154 N 0.5843 0.20797 0.35435 0.0
C155 C 0.59394 0.1902 0.33687 0.0
C156 C 0.61608 0.20654 0.32458 0.0
C157 C 0.63842 0.26193 0.32927 0.0
H158 H 0.62352 0.28287 0.32777 0.0
H159 H 0.65572 0.26648 0.34284 0.0
H160 H 0.65065 0.25789 0.31297 0.0
O161 O 0.54543 0.27934 0.37161 0.0
O162 O 0.52178 0.23414 0.37709 0.0
H163 H 0.55784 0.15875 0.32729 0.0
H164 H 0.59622 0.14645 0.31867 0.0
C165 C 0.58266 0.15791 0.33231 0.0
H166 H 0.58459 0.14386 0.348 0.0
H167 H 0.49981 0.18227 0.34986 0.0
O168 O 0.61589 0.30196 0.37154 0.0
C169 C 0.5208 0.26333 0.37393 0.0
Co170 Co 0.73352 0.59105 0.37687 0.0
Co171 Co 0.79742 0.55642 0.37828 0.0
C172 C 0.77444 0.58932 0.41888 0.0
O173 O 0.74948 0.59639 0.40842 0.0
O174 O 0.79632 0.57463 0.40908 0.0
C175 C 0.6925 0.64508 0.37534 0.0
O176 O 0.71746 0.66247 0.37704 0.0
C177 C 0.86247 0.53452 0.38405 0.0
C178 C 0.86568 0.50193 0.35512 0.0
C179 C 0.88249 0.51402 0.3731 0.0
N180 N 0.83528 0.53471 0.37276 0.0
N181 N 0.83734 0.51499 0.35564 0.0
C182 C 0.86794 0.55177 0.40575 0.0
H183 H 0.84775 0.54866 0.41718 0.0
H184 H 0.87023 0.57694 0.40202 0.0
H185 H 0.88902 0.54341 0.41467 0.0
C186 C 0.7636 0.62006 0.33597 0.0
N187 N 0.7638 0.60144 0.35444 0.0
N188 N 0.791 0.58746 0.35571 0.0
C189 C 0.80911 0.59738 0.33852 0.0
C190 C 0.79234 0.61819 0.32541 0.0
C191 C 0.73565 0.63681 0.32714 0.0
H192 H 0.71409 0.62465 0.33231 0.0
H193 H 0.7354 0.66077 0.33404 0.0
H194 H 0.73645 0.6385 0.30834 0.0
O195 O 0.72025 0.54767 0.37322 0.0
O196 O 0.76538 0.5234 0.3763 0.0
H197 H 0.84244 0.56464 0.32635 0.0
H198 H 0.85467 0.60451 0.32399 0.0
C199 C 0.8421 0.58761 0.33486 0.0
H200 H 0.85425 0.58563 0.35138 0.0
H201 H 0.81933 0.51051 0.34426 0.0
O202 O 0.69497 0.61573 0.37451 0.0
C203 C 0.73601 0.52273 0.374 0.0
Co204 Co 0.41022 0.73511 0.37715 0.0
Co205 Co 0.44375 0.79959 0.37834 0.0
C206 C 0.41086 0.77645 0.41895 0.0
O207 O 0.40275 0.75173 0.40857 0.0
O208 O 0.42669 0.7975 0.40918 0.0
C209 C 0.35684 0.6936 0.37524 0.0
O210 O 0.33948 0.7186 0.37679 0.0
C211 C 0.4626 0.86531 0.38389 0.0
C212 C 0.49742 0.86909 0.35641 0.0
C213 C 0.4832 0.88578 0.37359 0.0
N214 N 0.46441 0.8379 0.37301 0.0
N215 N 0.48539 0.8403 0.35674 0.0
C216 C 0.4432 0.87067 0.40461 0.0
H217 H 0.44732 0.85171 0.41697 0.0
H218 H 0.41827 0.87015 0.39983 0.0
H219 H 0.44877 0.89306 0.41296 0.0
C220 C 0.38151 0.76413 0.33565 0.0
N221 N 0.39964 0.76487 0.35437 0.0
N222 N 0.41291 0.79239 0.35575 0.0
C223 C 0.40298 0.8102 0.33839 0.0
C224 C 0.38295 0.79287 0.32499 0.0
C225 C 0.36574 0.73569 0.32668 0.0
H226 H 0.37831 0.71449 0.33214 0.0
H227 H 0.3416 0.73486 0.33323 0.0
H228 H 0.36458 0.7363 0.30786 0.0
O229 O 0.45451 0.72273 0.37393 0.0
O230 O 0.47729 0.76879 0.37656 0.0
H231 H 0.43537 0.84443 0.32704 0.0
H232 H 0.39527 0.85558 0.32365 0.0
C233 C 0.41199 0.84345 0.33492 0.0
H234 H 0.41284 0.85564 0.35148 0.0
H235 H 0.49146 0.82221 0.34583 0.0
O236 O 0.38622 0.69607 0.37463 0.0
C237 C 0.47884 0.73947 0.37462 0.0
Co238 Co 0.26486 0.4121 0.37649 0.0
Co239 Co 0.20042 0.44534 0.37859 0.0
C240 C 0.22434 0.41157 0.41866 0.0
O241 O 0.24969 0.40587 0.40823 0.0
O242 O 0.20189 0.4255 0.40891 0.0
C243 C 0.3083 0.36037 0.37856 0.0
O244 O 0.28502 0.34399 0.38658 0.0
C245 C 0.13303 0.45778 0.38104 0.0
C246 C 0.13043 0.50228 0.36236 0.0
C247 C 0.11245 0.48037 0.37346 0.0
N248 N 0.16182 0.46603 0.37459 0.0
N249 N 0.16011 0.49278 0.36365 0.0
C250 C 0.12553 0.4279 0.39277 0.0
H251 H 0.14388 0.41038 0.38937 0.0
H252 H 0.1026 0.41895 0.38714 0.0
H253 H 0.12456 0.43205 0.41134 0.0
C254 C 0.23427 0.38139 0.33649 0.0
N255 N 0.23423 0.40097 0.35441 0.0
N256 N 0.20768 0.41616 0.3548 0.0
C257 C 0.19027 0.40728 0.33692 0.0
C258 C 0.20631 0.38467 0.32475 0.0
C259 C 0.26008 0.35907 0.33155 0.0
H260 H 0.26272 0.34309 0.34614 0.0
H261 H 0.25559 0.34472 0.31631 0.0
H262 H 0.28219 0.37202 0.3295 0.0
O263 O 0.27688 0.45636 0.37265 0.0
O264 O 0.23125 0.47911 0.37792 0.0
H265 H 0.15327 0.41693 0.31281 0.0
H266 H 0.14165 0.41452 0.34224 0.0
C267 C 0.16016 0.42238 0.33048 0.0
H268 H 0.16241 0.44792 0.33194 0.0
H269 H 0.17921 0.5043 0.35669 0.0
O270 O 0.30417 0.38855 0.37295 0.0
C271 C 0.26038 0.48069 0.37478 0.0
Co272 Co 0.9068 0.76359 0.87656 0.0
Co273 Co 0.9455 0.70212 0.87872 0.0
C274 C 0.90993 0.72484 0.91895 0.0
O275 O 0.9012 0.74909 0.90832 0.0
O276 O 0.92644 0.70404 0.90941 0.0
C277 C 0.87907 0.8206 0.88715 0.0
O278 O 0.89508 0.81593 0.90583 0.0
C279 C 0.96195 0.63538 0.88198 0.0
C280 C 0.00901 0.63624 0.86696 0.0
C281 C 0.98724 0.61657 0.87662 0.0
N282 N 0.96865 0.66465 0.87564 0.0
N283 N 0.9968 0.66493 0.86671 0.0
C284 C 0.93261 0.62625 0.89387 0.0
H285 H 0.92166 0.64661 0.9021 0.0
H286 H 0.9159 0.61688 0.88128 0.0
H287 H 0.93732 0.60803 0.90675 0.0
C288 C 0.87744 0.72966 0.838 0.0
N289 N 0.8979 0.73149 0.85527 0.0
N290 N 0.91525 0.70632 0.85541 0.0
C291 C 0.90715 0.68815 0.83773 0.0
C292 C 0.88261 0.70212 0.82614 0.0
C293 C 0.85276 0.75344 0.83364 0.0
H294 H 0.8436 0.76236 0.84997 0.0
H295 H 0.83331 0.74356 0.82361 0.0
H296 H 0.86306 0.77324 0.8242 0.0
O297 O 0.95002 0.77903 0.87304 0.0
O298 O 0.97675 0.73535 0.87638 0.0
H299 H 0.92102 0.65394 0.81268 0.0
H300 H 0.91712 0.63975 0.84139 0.0
C301 C 0.92476 0.65965 0.83082 0.0
H302 H 0.94996 0.66325 0.83355 0.0
H303 H 0.00777 0.68481 0.86049 0.0
O304 O 0.87989 0.80021 0.87157 0.0
C305 C 0.97582 0.76465 0.87393 0.0
Co306 Co 0.23492 0.90917 0.87607 0.0
Co307 Co 0.29728 0.94583 0.87876 0.0
C308 C 0.27427 0.91078 0.91863 0.0
O309 O 0.24944 0.90373 0.908 0.0
O310 O 0.29608 0.92592 0.90909 0.0
C311 C 0.17678 0.88357 0.88641 0.0
O312 O 0.18107 0.90074 0.90458 0.0
C313 C 0.36399 0.95984 0.88153 0.0
C314 C 0.36591 0.00501 0.86369 0.0
C315 C 0.38421 0.98293 0.87435 0.0
N316 N 0.33509 0.96794 0.87532 0.0
N317 N 0.33635 0.99509 0.86489 0.0
C318 C 0.372 0.92953 0.8925 0.0
H319 H 0.35377 0.91198 0.88885 0.0
H320 H 0.39491 0.92106 0.88646 0.0
H321 H 0.37327 0.93288 0.91115 0.0
C322 C 0.2683 0.8786 0.83775 0.0
N323 N 0.26674 0.89927 0.8549 0.0
N324 N 0.29222 0.91612 0.85508 0.0
C325 C 0.31038 0.90749 0.83753 0.0
C326 C 0.29605 0.88309 0.82601 0.0
C327 C 0.24414 0.85429 0.83348 0.0
H328 H 0.23478 0.84565 0.84984 0.0
H329 H 0.25381 0.83443 0.82377 0.0
H330 H 0.22469 0.86473 0.82374 0.0
O331 O 0.22054 0.95268 0.87189 0.0
O332 O 0.26474 0.97797 0.87768 0.0
H333 H 0.34544 0.92002 0.8127 0.0
H334 H 0.35888 0.9167 0.84166 0.0
C335 C 0.33936 0.92435 0.83071 0.0
H336 H 0.3361 0.94967 0.83293 0.0
H337 H 0.31706 0.00654 0.85813 0.0
O338 O 0.19782 0.88288 0.87129 0.0
C339 C 0.23563 0.97788 0.87419 0.0
Co340 Co 0.08215 0.23114 0.87539 0.0
Co341 Co 0.05483 0.29826 0.87669 0.0
C342 C 0.08445 0.27313 0.91743 0.0
O343 O 0.08835 0.24736 0.90707 0.0
O344 O 0.07275 0.29663 0.90745 0.0
C345 C 0.13369 0.18816 0.87462 0.0
O346 O 0.15115 0.21305 0.87655 0.0
C347 C 0.0406 0.36543 0.88003 0.0
C348 C 0.00714 0.3701 0.85173 0.0
C349 C 0.02212 0.38672 0.86858 0.0
N350 N 0.03666 0.33748 0.87028 0.0
N351 N 0.01645 0.34042 0.85354 0.0
C352 C 0.06323 0.37172 0.89875 0.0
H353 H 0.08366 0.35615 0.89714 0.0
H354 H 0.07099 0.39631 0.89852 0.0
H355 H 0.05186 0.36688 0.91527 0.0
C356 C 0.11382 0.25757 0.83415 0.0
N357 N 0.09576 0.25992 0.85284 0.0
N358 N 0.08495 0.28848 0.85418 0.0
C359 C 0.09648 0.30534 0.83685 0.0
C360 C 0.11492 0.28632 0.8235 0.0
C361 C 0.12704 0.22785 0.82519 0.0
H362 H 0.11266 0.20783 0.83065 0.0
H363 H 0.151 0.22489 0.83179 0.0
H364 H 0.12831 0.22838 0.80638 0.0
O365 O 0.03766 0.22186 0.87099 0.0
O366 O 0.01896 0.26946 0.87551 0.0
H367 H 0.06734 0.34224 0.82522 0.0
H368 H 0.10828 0.3498 0.82208 0.0
C369 C 0.09044 0.33924 0.83327 0.0
H370 H 0.09051 0.35152 0.8498 0.0
H371 H 0.00935 0.32215 0.84312 0.0
O372 O 0.10436 0.19096 0.87348 0.0
C373 C 0.01485 0.24049 0.87259 0.0
Co374 Co 0.76212 0.09169 0.87857 0.0
Co375 Co 0.7001 0.05373 0.87913 0.0
C376 C 0.72156 0.08744 0.9203 0.0
O377 O 0.74523 0.09805 0.90987 0.0
O378 O 0.70199 0.06987 0.91043 0.0
C379 C 0.8008 0.14737 0.87654 0.0
O380 O 0.77505 0.16367 0.87774 0.0
C381 C 0.63523 0.03172 0.8848 0.0
C382 C 0.63216 -0.00142 0.85621 0.0
C383 C 0.61514 0.01134 0.87383 0.0
N384 N 0.66262 0.03133 0.87381 0.0
N385 N 0.66068 0.01123 0.85692 0.0
C386 C 0.62946 0.04973 0.90613 0.0
H387 H 0.62725 0.07476 0.90192 0.0
H388 H 0.60825 0.04169 0.91503 0.0
H389 H 0.64944 0.04697 0.9178 0.0
C390 C 0.73156 0.11879 0.83708 0.0
N391 N 0.73181 0.10056 0.85577 0.0
N392 N 0.70507 0.08577 0.85709 0.0
C393 C 0.68669 0.09489 0.8398 0.0
C394 C 0.70291 0.11588 0.82644 0.0
C395 C 0.75921 0.13584 0.82805 0.0
H396 H 0.781 0.12449 0.83368 0.0
H397 H 0.75874 0.16012 0.83435 0.0
H398 H 0.75865 0.13661 0.80922 0.0
O399 O 0.77714 0.04828 0.87557 0.0
O400 O 0.73286 0.02216 0.8759 0.0
H401 H 0.65408 0.06117 0.82798 0.0
H402 H 0.64078 0.10072 0.82553 0.0
C403 C 0.65393 0.08423 0.83637 0.0
H404 H 0.64202 0.08212 0.85296 0.0
H405 H 0.67881 0.00638 0.84572 0.0
O406 O 0.79967 0.1179 0.87615 0.0
C407 C 0.76233 0.02272 0.87481 0.0
Co408 Co 0.40874 0.73166 0.6311 0.0
Co409 Co 0.44647 0.79351 0.62777 0.0
C410 C 0.40917 0.76993 0.58855 0.0
O411 O 0.40151 0.74555 0.59943 0.0
O412 O 0.42558 0.79118 0.59765 0.0
C413 C 0.38214 0.67385 0.62156 0.0
O414 O 0.39764 0.67854 0.60266 0.0
C415 C 0.45866 0.8608 0.62593 0.0
C416 C 0.50956 0.86185 0.631 0.0
C417 C 0.48402 0.88055 0.62703 0.0
N418 N 0.46877 0.8316 0.62918 0.0
N419 N 0.49919 0.83243 0.63224 0.0
C420 C 0.42589 0.86919 0.62014 0.0
H421 H 0.41075 0.84831 0.62047 0.0
H422 H 0.417 0.88668 0.63234 0.0
H423 H 0.42524 0.87986 0.603 0.0
C424 C 0.38026 0.76564 0.66992 0.0
N425 N 0.40024 0.76392 0.65236 0.0
N426 N 0.41763 0.78905 0.65206 0.0
C427 C 0.41027 0.80693 0.67007 0.0
C428 C 0.38596 0.79297 0.68193 0.0
C429 C 0.35539 0.74208 0.67428 0.0
H430 H 0.34652 0.73279 0.65797 0.0
H431 H 0.33577 0.75232 0.68394 0.0
H432 H 0.36536 0.72248 0.68413 0.0
O433 O 0.45236 0.71699 0.63368 0.0
O434 O 0.47846 0.76091 0.62946 0.0
H435 H 0.42762 0.83814 0.69585 0.0
H436 H 0.41867 0.85587 0.66896 0.0
C437 C 0.42853 0.83491 0.67718 0.0
H438 H 0.45314 0.83246 0.67199 0.0
H439 H 0.51302 0.81282 0.63487 0.0
O440 O 0.3828 0.69456 0.63692 0.0
C441 C 0.47796 0.73162 0.6321 0.0
Co442 Co 0.26208 0.40396 0.62912 0.0
Co443 Co 0.20121 0.4433 0.63153 0.0
C444 C 0.22014 0.41096 0.58867 0.0
O445 O 0.24402 0.39914 0.59815 0.0
O446 O 0.20158 0.42867 0.5995 0.0
C447 C 0.31864 0.37608 0.61618 0.0
O448 O 0.31321 0.39177 0.59746 0.0
C449 C 0.13548 0.46193 0.62928 0.0
C450 C 0.13391 0.498 0.656 0.0
C451 C 0.11572 0.48238 0.64034 0.0
N452 N 0.16408 0.46534 0.63805 0.0
N453 N 0.16305 0.48715 0.65382 0.0
C454 C 0.12703 0.43771 0.61215 0.0
H455 H 0.14285 0.41744 0.61364 0.0
H456 H 0.1026 0.43005 0.61439 0.0
H457 H 0.12962 0.44766 0.59489 0.0
C458 C 0.23237 0.37267 0.66849 0.0
N459 N 0.2324 0.39387 0.65165 0.0
N460 N 0.20663 0.41025 0.65262 0.0
C461 C 0.18942 0.40007 0.67024 0.0
C462 C 0.20516 0.37601 0.6809 0.0
C463 C 0.25879 0.35107 0.67329 0.0
H464 H 0.28032 0.36479 0.67592 0.0
H465 H 0.26259 0.33585 0.65835 0.0
H466 H 0.25434 0.33655 0.68851 0.0
O467 O 0.27787 0.44712 0.63299 0.0
O468 O 0.23431 0.47431 0.63485 0.0
H469 H 0.16134 0.43687 0.6833 0.0
H470 H 0.1468 0.39853 0.68981 0.0
C471 C 0.15835 0.41295 0.67668 0.0
H472 H 0.14323 0.41399 0.66148 0.0
H473 H 0.18216 0.49413 0.66345 0.0
O474 O 0.29887 0.37699 0.63215 0.0
C475 C 0.26378 0.47298 0.63498 0.0
Co476 Co 0.59021 0.25816 0.62848 0.0
Co477 Co 0.55047 0.19721 0.62869 0.0
C478 C 0.58635 0.21722 0.58746 0.0
O479 O 0.59754 0.24093 0.59752 0.0
O480 O 0.56798 0.19853 0.59753 0.0
C481 C 0.6173 0.31564 0.61751 0.0
O482 O 0.60164 0.31072 0.59871 0.0
C483 C 0.53507 0.13051 0.62708 0.0
C484 C 0.48665 0.13109 0.63965 0.0
C485 C 0.50964 0.11171 0.63141 0.0
N486 N 0.52748 0.15984 0.63258 0.0
N487 N 0.49855 0.15998 0.64015 0.0
C488 C 0.56513 0.1212 0.61633 0.0
H489 H 0.58125 0.14128 0.61533 0.0
H490 H 0.5761 0.10228 0.62628 0.0
H491 H 0.56057 0.11208 0.59902 0.0
C492 C 0.61785 0.2276 0.66896 0.0
N493 N 0.59813 0.22786 0.6512 0.0
N494 N 0.58127 0.20235 0.65153 0.0
C495 C 0.58939 0.18526 0.66977 0.0
C496 C 0.61293 0.20063 0.68138 0.0
C497 C 0.63948 0.2537 0.67458 0.0
H498 H 0.62589 0.27543 0.67667 0.0
H499 H 0.65579 0.25728 0.66024 0.0
H500 H 0.65281 0.24911 0.69034 0.0
O501 O 0.54675 0.27393 0.63041 0.0
O502 O 0.51948 0.23035 0.63079 0.0
H503 H 0.54931 0.15731 0.67656 0.0
H504 H 0.58357 0.14572 0.69229 0.0
C505 C 0.57493 0.15475 0.67584 0.0
H506 H 0.58053 0.13755 0.66247 0.0
H507 H 0.4867 0.17992 0.64531 0.0
O508 O 0.6168 0.29512 0.63301 0.0
C509 C 0.52079 0.25981 0.63111 0.0
Co510 Co 0.737 0.58696 0.62958 0.0
Co511 Co 0.79702 0.54607 0.63022 0.0
C512 C 0.77702 0.58176 0.58859 0.0
O513 O 0.75381 0.59397 0.59861 0.0
O514 O 0.79501 0.56281 0.59876 0.0
C515 C 0.67968 0.61399 0.61853 0.0
O516 O 0.68423 0.59728 0.60016 0.0
C517 C 0.86406 0.53191 0.62848 0.0
C518 C 0.86473 0.48505 0.64383 0.0
C519 C 0.88383 0.50768 0.63458 0.0
N520 N 0.83486 0.52385 0.63408 0.0
N521 N 0.83546 0.49581 0.64319 0.0
C522 C 0.87219 0.56159 0.61664 0.0
H523 H 0.85163 0.57147 0.60798 0.0
H524 H 0.88024 0.57883 0.62934 0.0
H525 H 0.89106 0.55768 0.60412 0.0
C526 C 0.7693 0.61651 0.66873 0.0
N527 N 0.76781 0.59545 0.65184 0.0
N528 N 0.79246 0.57744 0.65274 0.0
C529 C 0.80984 0.58562 0.67081 0.0
C530 C 0.796 0.61099 0.6815 0.0
C531 C 0.74618 0.64215 0.67179 0.0
H532 H 0.7383 0.65071 0.65499 0.0
H533 H 0.75625 0.66179 0.68151 0.0
H534 H 0.72564 0.63302 0.68101 0.0
O535 O 0.72101 0.54332 0.63205 0.0
O536 O 0.76407 0.51521 0.63314 0.0
H537 H 0.84163 0.57126 0.69735 0.0
H538 H 0.85818 0.57433 0.66928 0.0
C539 C 0.83727 0.56736 0.67902 0.0
H540 H 0.8332 0.54222 0.67633 0.0
H541 H 0.81582 0.484 0.64899 0.0
O542 O 0.70027 0.61388 0.63398 0.0
C543 C 0.73464 0.51708 0.63331 0.0
C544 C 0.08561 0.24865 0.95574 0.0
C545 C 0.09059 0.27486 0.9421 0.0
C546 C 0.08723 0.25064 0.97949 0.0
C547 C 0.09511 0.27929 0.98984 0.0
C548 C 0.10186 0.30542 0.97607 0.0
C549 C 0.09892 0.30306 0.95236 0.0
C550 C 0.07894 0.22244 0.99351 0.0
C551 C 0.11145 0.33604 0.98639 0.0
C552 C 0.0643 0.29178 0.04954 0.0
C553 C 0.08914 0.28122 0.06285 0.0
C554 C 0.0662 0.2919 0.02577 0.0
C555 C 0.09403 0.28224 0.01504 0.0
C556 C 0.11984 0.27329 0.02846 0.0
C557 C 0.11688 0.27229 0.05222 0.0
C558 C 0.03781 0.30074 0.01213 0.0
C559 C 0.15027 0.26395 0.01772 0.0
H560 H 0.07883 0.2269 0.94789 0.0
H561 H 0.10293 0.32333 0.94183 0.0
H562 H 0.09823 0.21655 0.00521 0.0
H563 H 0.05825 0.22761 0.0041 0.0
H564 H 0.07379 0.20179 0.98284 0.0
H565 H 0.11953 0.35286 0.97337 0.0
H566 H 0.09151 0.34645 0.99558 0.0
H567 H 0.13033 0.33242 0.99895 0.0
H568 H 0.0427 0.2984 0.05769 0.0
H569 H 0.13619 0.26428 0.06249 0.0
H570 H 0.03003 0.28053 1.0019 0.0
H571 H 0.04347 0.31973 1.00011 0.0
H572 H 0.01822 0.30839 0.02306 0.0
H573 H 0.1475 0.2414 0.00885 0.0
H574 H 0.16915 0.26156 0.03046 0.0
H575 H 0.15739 0.28136 0.00483 0.0
C576 C 0.72928 0.11998 0.95516 0.0
C577 C 0.71873 0.09247 0.94503 0.0
C578 C 0.72903 0.12352 0.9789 0.0
C579 C 0.71929 0.09843 0.99276 0.0
C580 C 0.70822 0.07079 0.98252 0.0
C581 C 0.70752 0.0684 0.95879 0.0
C582 C 0.73977 0.1538 0.98915 0.0
C583 C 0.69855 0.04309 0.9966 0.0
C584 C 0.75254 0.08896 0.05202 0.0
C585 C 0.72637 0.09448 0.06557 0.0
C586 C 0.75079 0.09103 0.02829 0.0
C587 C 0.72247 0.1 0.01791 0.0
C588 C 0.69654 0.10761 0.03164 0.0
C589 C 0.69859 0.10409 0.05532 0.0
C590 C 0.77868 0.0817 0.01431 0.0
C591 C 0.66634 0.11845 0.0213 0.0
H592 H 0.73781 0.13868 0.94452 0.0
H593 H 0.69966 0.04697 0.95101 0.0
H594 H 0.7228 0.162 1.002 0.0
H595 H 0.76227 0.15033 0.99796 0.0
H596 H 0.74283 0.17221 0.97612 0.0
H597 H 0.69047 0.02334 0.98599 0.0
H598 H 0.71845 0.03511 0.00708 0.0
H599 H 0.6796 0.04965 0.0084 0.0
H600 H 0.77394 0.08121 0.05992 0.0
H601 H 0.67837 0.10852 0.0658 0.0
H602 H 0.78497 0.10047 1.00229 0.0
H603 H 0.77293 0.06082 0.00407 0.0
H604 H 0.79927 0.07634 0.02499 0.0
H605 H 0.67074 0.13669 0.00838 0.0
H606 H 0.65014 0.12782 0.03429 0.0
H607 H 0.65478 0.09876 0.01259 0.0
C608 C 0.89698 0.69382 0.95359 0.0
C609 C 0.90384 0.72249 0.94352 0.0
C610 C 0.89399 0.69116 0.97727 0.0
C611 C 0.89951 0.71749 0.99114 0.0
C612 C 0.90595 0.74659 0.98093 0.0
C613 C 0.90738 0.74884 0.95721 0.0
C614 C 0.88574 0.66007 0.98746 0.0
C615 C 0.91312 0.775 0.99505 0.0
C616 C 0.8792 0.72342 0.05381 0.0
C617 C 0.9075 0.71527 0.06394 0.0
C618 C 0.87555 0.7223 0.03011 0.0
C619 C 0.90128 0.7143 0.01628 0.0
C620 C 0.92974 0.70555 0.02654 0.0
C621 C 0.93227 0.70552 0.05026 0.0
C622 C 0.84446 0.73043 0.01985 0.0
C623 C 0.95809 0.69796 0.01248 0.0
H624 H 0.89409 0.67347 0.94294 0.0
H625 H 0.91303 0.77095 0.94941 0.0
H626 H 0.90631 0.65013 0.99616 0.0
H627 H 0.86717 0.66282 1.00037 0.0
H628 H 0.87779 0.64325 0.97439 0.0
H629 H 0.91727 0.79595 0.98446 0.0
H630 H 0.89371 0.77996 0.00687 0.0
H631 H 0.93412 0.77064 0.00552 0.0
H632 H 0.86 0.73082 0.06443 0.0
H633 H 0.95428 0.69954 0.05809 0.0
H634 H 0.83785 0.71301 0.00683 0.0
H635 H 0.84593 0.75331 0.01127 0.0
H636 H 0.82582 0.73161 0.03286 0.0
H637 H 0.95298 0.67866 1.00061 0.0
H638 H 0.97835 0.69128 0.02311 0.0
H639 H 0.96463 0.71845 1.00208 0.0
C640 C 0.30482 0.89736 0.95345 0.0
C641 C 0.27629 0.90446 0.94322 0.0
C642 C 0.30725 0.89437 0.97715 0.0
C643 C 0.28085 0.90006 0.9909 0.0
C644 C 0.25188 0.90667 0.98055 0.0
C645 C 0.24985 0.90818 0.95681 0.0
C646 C 0.33823 0.88599 0.98748 0.0
C647 C 0.22338 0.91397 0.99454 0.0
C648 C 0.27459 0.87962 0.05356 0.0
C649 C 0.28278 0.90787 0.06377 0.0
C650 C 0.27573 0.87605 0.02985 0.0
C651 C 0.28384 0.90179 0.01607 0.0
C652 C 0.29262 0.93019 0.02639 0.0
C653 C 0.29258 0.93266 0.05013 0.0
C654 C 0.26751 0.84503 0.01953 0.0
C655 C 0.30038 0.95855 0.01238 0.0
H656 H 0.32525 0.89434 0.94291 0.0
H657 H 0.22784 0.91402 0.94893 0.0
H658 H 0.34815 0.9065 0.99625 0.0
H659 H 0.33529 0.86741 1.00037 0.0
H660 H 0.35514 0.87799 0.97449 0.0
H661 H 0.20251 0.9181 0.98386 0.0
H662 H 0.21831 0.89462 0.00639 0.0
H663 H 0.2277 0.93501 0.00496 0.0
H664 H 0.26715 0.86039 0.06413 0.0
H665 H 0.29858 0.95464 0.05799 0.0
H666 H 0.28503 0.83833 0.0066 0.0
H667 H 0.24474 0.84666 0.01082 0.0
H668 H 0.26608 0.82637 0.03252 0.0
H669 H 0.31974 0.95338 1.00057 0.0
H670 H 0.30706 0.97876 0.02305 0.0
H671 H 0.27997 0.96517 1.00192 0.0
C672 C 0.60269 0.19363 0.45231 0.0
C673 C 0.59475 0.2221 0.44232 0.0
C674 C 0.60581 0.19092 0.47598 0.0
C675 C 0.59942 0.21694 0.48996 0.0
C676 C 0.59198 0.24587 0.47985 0.0
C677 C 0.59035 0.24822 0.45614 0.0
C678 C 0.61506 0.16003 0.48605 0.0
C679 C 0.58392 0.27393 0.49409 0.0
C680 C 0.56701 0.20336 0.54902 0.0
C681 C 0.59151 0.21354 0.56281 0.0
C682 C 0.56954 0.20378 0.52529 0.0
C683 C 0.59772 0.21348 0.5151 0.0
C684 C 0.62321 0.22202 0.529 0.0
C685 C 0.61956 0.22263 0.55272 0.0
C686 C 0.54143 0.19551 0.51116 0.0
C687 C 0.65401 0.23126 0.51881 0.0
H688 H 0.60624 0.17345 0.4416 0.0
H689 H 0.58387 0.27018 0.44844 0.0
H690 H 0.63353 0.16328 0.49897 0.0
H691 H 0.59481 0.14939 0.49471 0.0
H692 H 0.62353 0.14356 0.47292 0.0
H693 H 0.57928 0.29487 0.48359 0.0
H694 H 0.56296 0.2689 0.50443 0.0
H695 H 0.60309 0.2793 0.50602 0.0
H696 H 0.54516 0.19667 0.55677 0.0
H697 H 0.63857 0.23038 0.56339 0.0
H698 H 0.54715 0.17651 0.49918 0.0
H699 H 0.53428 0.21591 0.50089 0.0
H700 H 0.52139 0.18809 0.52173 0.0
H701 H 0.66122 0.21417 0.50573 0.0
H702 H 0.6726 0.23298 0.53184 0.0
H703 H 0.65178 0.25413 0.51031 0.0
C704 C 0.7497 0.59166 0.45697 0.0
C705 C 0.77642 0.59485 0.44358 0.0
C706 C 0.75151 0.59227 0.48073 0.0
C707 C 0.78059 0.59739 0.49135 0.0
C708 C 0.80735 0.60254 0.47786 0.0
C709 C 0.80507 0.60052 0.4541 0.0
C710 C 0.72259 0.58561 0.49442 0.0
C711 C 0.83851 0.6093 0.48852 0.0
C712 C 0.77437 0.616 0.55429 0.0
C713 C 0.78126 0.58711 0.56403 0.0
C714 C 0.77593 0.62028 0.53065 0.0
C715 C 0.78318 0.59469 0.51648 0.0
C716 C 0.79062 0.56561 0.52635 0.0
C717 C 0.79015 0.56237 0.55003 0.0
C718 C 0.76911 0.65195 0.52083 0.0
C719 C 0.79743 0.53744 0.51188 0.0
H720 H 0.72758 0.5869 0.44888 0.0
H721 H 0.82573 0.60312 0.44374 0.0
H722 H 0.72596 0.56404 0.50445 0.0
H723 H 0.71815 0.6047 0.50662 0.0
H724 H 0.70169 0.58269 0.48356 0.0
H725 H 0.85589 0.61704 0.47579 0.0
H726 H 0.83616 0.62754 0.50173 0.0
H727 H 0.84748 0.5881 0.49698 0.0
H728 H 0.76767 0.6352 0.56514 0.0
H729 H 0.79518 0.53992 0.55755 0.0
H730 H 0.74649 0.65148 0.51182 0.0
H731 H 0.78715 0.65842 0.50824 0.0
H732 H 0.76808 0.6702 0.53415 0.0
H733 H 0.77691 0.53198 0.50119 0.0
H734 H 0.80319 0.51664 0.52223 0.0
H735 H 0.81712 0.54223 0.50028 0.0
C736 C 0.39407 0.79988 0.55383 0.0
C737 C 0.40232 0.77168 0.56405 0.0
C738 C 0.39056 0.80204 0.53015 0.0
C739 C 0.39702 0.77577 0.51641 0.0
C740 C 0.40476 0.74711 0.52679 0.0
C741 C 0.40665 0.74528 0.55052 0.0
C742 C 0.38092 0.83263 0.5198 0.0
C743 C 0.41305 0.71885 0.51284 0.0
C744 C 0.37764 0.76921 0.45352 0.0
C745 C 0.40557 0.77896 0.44362 0.0
C746 C 0.37375 0.76981 0.47724 0.0
C747 C 0.39895 0.77885 0.49127 0.0
C748 C 0.4271 0.7889 0.48122 0.0
C749 C 0.42979 0.78946 0.45753 0.0
C750 C 0.34294 0.76028 0.48728 0.0
C751 C 0.45497 0.79759 0.49547 0.0
H752 H 0.39056 0.82026 0.56434 0.0
H753 H 0.41338 0.72355 0.55844 0.0
H754 H 0.40112 0.84354 0.51126 0.0
H755 H 0.36272 0.82892 0.50673 0.0
H756 H 0.37194 0.84908 0.53276 0.0
H757 H 0.4177 0.69811 0.52355 0.0
H758 H 0.39403 0.71319 0.50086 0.0
H759 H 0.43408 0.72382 0.50256 0.0
H760 H 0.35886 0.76124 0.44273 0.0
H761 H 0.45153 0.79668 0.44986 0.0
H762 H 0.33529 0.77753 0.50012 0.0
H763 H 0.34538 0.73762 0.49606 0.0
H764 H 0.32458 0.75803 0.47413 0.0
H765 H 0.44906 0.81701 0.50704 0.0
H766 H 0.47522 0.80464 0.48497 0.0
H767 H 0.46192 0.77755 0.50619 0.0
C768 C 0.22393 0.37876 0.55337 0.0
C769 C 0.21585 0.40678 0.56397 0.0
C770 C 0.22272 0.37578 0.52962 0.0
C771 C 0.21461 0.40185 0.51618 0.0
C772 C 0.20591 0.43001 0.52689 0.0
C773 C 0.20605 0.43192 0.55067 0.0
C774 C 0.23091 0.345 0.5189 0.0
C775 C 0.19813 0.45869 0.51325 0.0
C776 C 0.24865 0.40898 0.45695 0.0
C777 C 0.22228 0.40519 0.44327 0.0
C778 C 0.24655 0.40739 0.48069 0.0
C779 C 0.21757 0.40066 0.49098 0.0
C780 C 0.19122 0.39501 0.47716 0.0
C781 C 0.19374 0.39801 0.45346 0.0
C782 C 0.27501 0.41456 0.49475 0.0
C783 C 0.16023 0.38657 0.48743 0.0
H784 H 0.23135 0.35925 0.56367 0.0
H785 H 0.20012 0.45371 0.55884 0.0
H786 H 0.21331 0.33856 0.50596 0.0
H787 H 0.25362 0.34686 0.51012 0.0
H788 H 0.23247 0.32605 0.53165 0.0
H789 H 0.1913 0.47859 0.52418 0.0
H790 H 0.21858 0.46565 0.50296 0.0
H791 H 0.17887 0.45376 0.50129 0.0
H792 H 0.27068 0.4149 0.44914 0.0
H793 H 0.17334 0.39494 0.44289 0.0
H794 H 0.28018 0.39501 0.5064 0.0
H795 H 0.2706 0.43538 0.50539 0.0
H796 H 0.29586 0.41899 0.48411 0.0
H797 H 0.16311 0.36765 0.50006 0.0
H798 H 0.14321 0.37899 0.47437 0.0
H799 H 0.15046 0.40692 0.4965 0.0
C800 C 0.18484 0.00694 0.13612 0.0
C801 C 0.21707 0.00648 0.13261 0.0
C802 C 0.16808 0.03494 0.13497 0.0
C803 C 0.18389 0.06294 0.12983 0.0
C804 C 0.21643 0.06264 0.12655 0.0
C805 C 0.23262 0.03451 0.12815 0.0
C806 C 0.13343 0.0345 0.13891 0.0
C807 C 0.23408 0.09192 0.12073 0.0
C808 C 0.13921 0.12916 0.10259 0.0
C809 C 0.13586 0.14985 0.1208 0.0
C810 C 0.15456 0.10067 0.10536 0.0
C811 C 0.16642 0.09247 0.12696 0.0
C812 C 0.1628 0.1131 0.14549 0.0
C813 C 0.14779 0.1417 0.14214 0.0
C814 C 0.15847 0.07953 0.0851 0.0
C815 C 0.17482 0.10496 0.16882 0.0
H816 H 0.17268 0.98543 0.13967 0.0
H817 H 0.2575 0.03443 0.12531 0.0
H818 H 0.1271 0.05153 0.15227 0.0
H819 H 0.12115 0.04153 0.12317 0.0
H820 H 0.12492 0.01118 0.14407 0.0
H821 H 0.25947 0.08782 0.11916 0.0
H822 H 0.2254 0.10153 0.10444 0.0
H823 H 0.23018 0.10985 0.13394 0.0
H824 H 0.13009 0.13537 0.08605 0.0
H825 H 0.14503 0.15749 0.15633 0.0
H826 H 0.14795 0.05652 0.08865 0.0
H827 H 0.18355 0.07567 0.08176 0.0
H828 H 0.14762 0.08921 0.06952 0.0
H829 H 0.165 0.08238 0.17439 0.0
H830 H 0.1689 0.12292 0.18165 0.0
H831 H 0.20045 0.10229 0.16832 0.0
C832 C 0.87638 0.12694 0.10715 0.0
C833 C 0.85647 0.12274 0.12573 0.0
C834 C 0.90427 0.14348 0.10941 0.0
C835 C 0.91268 0.15572 0.13085 0.0
C836 C 0.89309 0.15085 0.14982 0.0
C837 C 0.86505 0.13463 0.14699 0.0
C838 C 0.92431 0.14862 0.0887 0.0
C839 C 0.90152 0.16318 0.173 0.0
C840 C 0.997 0.18035 0.13782 0.0
C841 C 0.99493 0.21251 0.13425 0.0
C842 C 0.97027 0.16159 0.13743 0.0
C843 C 0.94097 0.17529 0.13302 0.0
C844 C 0.93872 0.20776 0.12973 0.0
C845 C 0.96566 0.22597 0.13055 0.0
C846 C 0.97344 0.12708 0.14137 0.0
C847 C 0.90796 0.22322 0.12468 0.0
H848 H 0.86986 0.11785 0.09067 0.0
H849 H 0.84987 0.13123 0.16145 0.0
H850 H 0.92603 0.17387 0.08507 0.0
H851 H 0.94822 0.14004 0.09187 0.0
H852 H 0.91496 0.13675 0.07342 0.0
H853 H 0.88489 0.15553 0.18629 0.0
H854 H 0.92518 0.15533 0.1778 0.0
H855 H 0.90185 0.18895 0.17266 0.0
H856 H 0.0195 0.16979 0.1408 0.0
H857 H 0.96379 0.25078 0.12769 0.0
H858 H 0.96671 0.11427 0.1258 0.0
H859 H 0.95749 0.11955 0.15511 0.0
H860 H 0.99754 0.12034 0.14603 0.0
H861 H 0.89822 0.21381 0.10865 0.0
H862 H 0.91011 0.24883 0.12299 0.0
H863 H 0.89103 0.21807 0.13836 0.0
C864 C 0.79687 0.97658 0.149 0.0
C865 C 0.77302 0.9845 0.13391 0.0
C866 C 0.80931 0.94641 0.14922 0.0
C867 C 0.79842 0.92416 0.13338 0.0
C868 C 0.77456 0.93225 0.11794 0.0
C869 C 0.76175 0.96218 0.11868 0.0
C870 C 0.83404 0.93833 0.16642 0.0
C871 C 0.76309 0.90958 0.10025 0.0
C872 C 0.8534 0.85836 0.11854 0.0
C873 C 0.83976 0.83325 0.12988 0.0
C874 C 0.83987 0.88797 0.11924 0.0
C875 C 0.81273 0.89275 0.13236 0.0
C876 C 0.79914 0.86749 0.14416 0.0
C877 C 0.81253 0.83781 0.14242 0.0
C878 C 0.85444 0.91402 0.10576 0.0
C879 C 0.77078 0.87193 0.15889 0.0
H880 H 0.80536 0.99383 0.16089 0.0
H881 H 0.74346 0.96845 0.10688 0.0
H882 H 0.82707 0.91735 0.17611 0.0
H883 H 0.85613 0.93278 0.15763 0.0
H884 H 0.83837 0.95759 0.17856 0.0
H885 H 0.74469 0.91971 0.0893 0.0
H886 H 0.78273 0.90213 0.08933 0.0
H887 H 0.75371 0.88846 0.10855 0.0
H888 H 0.87441 0.85467 0.10874 0.0
H889 H 0.80226 0.81836 0.15139 0.0
H890 H 0.86214 0.93282 0.11732 0.0
H891 H 0.83703 0.92419 0.09401 0.0
H892 H 0.87476 0.90609 0.09568 0.0
H893 H 0.7754 0.89009 0.17184 0.0
H894 H 0.76383 0.85018 0.16768 0.0
H895 H 0.75097 0.8801 0.14845 0.0
C896 C 0.14243 0.85039 0.14159 0.0
C897 C 0.15243 0.85837 0.11969 0.0
C898 C 0.11416 0.8348 0.14499 0.0
C899 C 0.09571 0.82666 0.12602 0.0
C900 C 0.10592 0.83422 0.10386 0.0
C901 C 0.13408 0.85015 0.10097 0.0
C902 C 0.10389 0.82733 0.16888 0.0
C903 C 0.08707 0.82553 0.08319 0.0
C904 C 0.03665 0.76168 0.13116 0.0
C905 C 0.00857 0.77822 0.13242 0.0
C906 C 0.06521 0.77717 0.12949 0.0
C907 C 0.06578 0.81002 0.12925 0.0
C908 C 0.03767 0.82691 0.1312 0.0
C909 C 0.00937 0.81081 0.13269 0.0
C910 C 0.09469 0.75834 0.12733 0.0
C911 C 0.03744 0.86199 0.13122 0.0
H912 H 0.15643 0.85679 0.15615 0.0
H913 H 0.14173 0.85613 0.084 0.0
H914 H 0.08114 0.83849 0.17238 0.0
H915 H 0.10062 0.80191 0.1708 0.0
H916 H 0.12089 0.83533 0.18181 0.0
H917 H 0.09851 0.83269 0.06712 0.0
H918 H 0.08335 0.80003 0.08276 0.0
H919 H 0.06384 0.83663 0.08404 0.0
H920 H 0.03635 0.7365 0.13095 0.0
H921 H 0.98785 0.8238 0.13374 0.0
H922 H 0.11149 0.76518 0.1407 0.0
H923 H 0.1058 0.76313 0.11071 0.0
H924 H 0.09036 0.73296 0.12869 0.0
H925 H 0.05325 0.87095 0.14458 0.0
H926 H 0.01384 0.87163 0.13414 0.0
H927 H 0.04615 0.87076 0.1147 0.0
C928 C 0.73586 0.46493 0.37857 0.0
C929 C 0.71976 0.49242 0.37345 0.0
C930 C 0.72027 0.43637 0.3799 0.0
C931 C 0.6879 0.43525 0.37582 0.0
C932 C 0.6717 0.46269 0.36989 0.0
C933 C 0.68781 0.49098 0.36886 0.0
C934 C 0.73828 0.40758 0.38637 0.0
C935 C 0.6372 0.46232 0.3652 0.0
C936 C 0.64982 0.3575 0.36346 0.0
C937 C 0.63641 0.35035 0.38453 0.0
C938 C 0.6668 0.385 0.36037 0.0
C939 C 0.67064 0.40566 0.37884 0.0
C940 C 0.65758 0.39834 0.40023 0.0
C941 C 0.64052 0.37083 0.40279 0.0
C942 C 0.68026 0.39217 0.33729 0.0
C943 C 0.66143 0.41971 0.42037 0.0
H944 H 0.76054 0.46579 0.38215 0.0
H945 H 0.67521 0.51205 0.36476 0.0
H946 H 0.7297 0.39861 0.40288 0.0
H947 H 0.73459 0.38902 0.3736 0.0
H948 H 0.76361 0.4121 0.38787 0.0
H949 H 0.62844 0.4853 0.35946 0.0
H950 H 0.63171 0.44478 0.352 0.0
H951 H 0.62446 0.45556 0.3808 0.0
H952 H 0.6467 0.3418 0.34926 0.0
H953 H 0.63036 0.3654 0.41914 0.0
H954 H 0.70575 0.39556 0.33861 0.0
H955 H 0.67026 0.41417 0.33074 0.0
H956 H 0.67562 0.37342 0.32479 0.0
H957 H 0.68647 0.42372 0.42375 0.0
H958 H 0.65052 0.41022 0.43599 0.0
H959 H 0.65082 0.44263 0.41662 0.0
C960 C 0.51645 0.70058 0.35927 0.0
C961 C 0.50976 0.72493 0.37422 0.0
C962 C 0.54646 0.68777 0.3583 0.0
C963 C 0.56974 0.69887 0.37326 0.0
C964 C 0.56276 0.72305 0.38871 0.0
C965 C 0.53299 0.73617 0.38869 0.0
C966 C 0.55335 0.66268 0.34112 0.0
C967 C 0.58657 0.73474 0.40551 0.0
C968 C 0.63708 0.64523 0.38681 0.0
C969 C 0.66139 0.65916 0.37474 0.0
C970 C 0.60716 0.65805 0.38659 0.0
C971 C 0.60123 0.68475 0.37325 0.0
C972 C 0.62563 0.69851 0.3606 0.0
C973 C 0.65567 0.68586 0.36186 0.0
C974 C 0.58208 0.64341 0.40098 0.0
C975 C 0.61994 0.72642 0.34564 0.0
H976 H 0.49847 0.69216 0.34794 0.0
H977 H 0.52764 0.7549 0.40037 0.0
H978 H 0.57333 0.66971 0.33037 0.0
H979 H 0.56003 0.64091 0.34991 0.0
H980 H 0.53313 0.65777 0.32996 0.0
H981 H 0.57704 0.75299 0.41688 0.0
H982 H 0.59512 0.7152 0.41609 0.0
H983 H 0.60689 0.74446 0.39638 0.0
H984 H 0.64168 0.62463 0.39688 0.0
H985 H 0.67451 0.69633 0.35234 0.0
H986 H 0.56251 0.63568 0.39013 0.0
H987 H 0.57271 0.6608 0.41308 0.0
H988 H 0.59074 0.6231 0.41077 0.0
H989 H 0.60074 0.72146 0.33359 0.0
H990 H 0.64092 0.7331 0.33581 0.0
H991 H 0.61266 0.74653 0.35613 0.0
C992 C 0.29888 0.51828 0.35889 0.0
C993 C 0.27508 0.51157 0.37432 0.0
C994 C 0.31199 0.54815 0.35791 0.0
C995 C 0.30181 0.57129 0.37332 0.0
C996 C 0.27818 0.56431 0.38923 0.0
C997 C 0.2647 0.53468 0.38924 0.0
C998 C 0.33645 0.55505 0.34025 0.0
C999 C 0.26746 0.58796 0.40648 0.0
C1000 C 0.35679 0.63787 0.38614 0.0
C1001 C 0.34264 0.66251 0.37455 0.0
C1002 C 0.34361 0.60809 0.386 0.0
C1003 C 0.31628 0.60264 0.37324 0.0
C1004 C 0.3023 0.62736 0.36105 0.0
C1005 C 0.31536 0.65723 0.36222 0.0
C1006 C 0.35857 0.58266 0.39989 0.0
C1007 C 0.2737 0.62219 0.3467 0.0
H1008 H 0.30664 0.50042 0.34722 0.0
H1009 H 0.24642 0.52934 0.40128 0.0
H1010 H 0.32921 0.57528 0.32984 0.0
H1011 H 0.35865 0.56133 0.34862 0.0
H1012 H 0.34067 0.53496 0.32882 0.0
H1013 H 0.24959 0.57844 0.41817 0.0
H1014 H 0.28754 0.5961 0.4167 0.0
H1015 H 0.25761 0.60855 0.39775 0.0
H1016 H 0.37782 0.6421 0.3958 0.0
H1017 H 0.30467 0.6763 0.35307 0.0
H1018 H 0.36556 0.56312 0.38873 0.0
H1019 H 0.3416 0.57336 0.41233 0.0
H1020 H 0.3794 0.59093 0.40924 0.0
H1021 H 0.2779 0.60308 0.33443 0.0
H1022 H 0.26686 0.64337 0.33715 0.0
H1023 H 0.25396 0.61505 0.3576 0.0
C1024 C 0.34367 0.317 0.36765 0.0
C1025 C 0.33953 0.34667 0.37686 0.0
C1026 C 0.37351 0.304 0.36582 0.0
C1027 C 0.39947 0.32059 0.37432 0.0
C1028 C 0.39521 0.35048 0.38387 0.0
C1029 C 0.36532 0.36343 0.38458 0.0
C1030 C 0.37727 0.27255 0.3548 0.0
C1031 C 0.42205 0.3684 0.39394 0.0
C1032 C 0.4693 0.27223 0.39154 0.0
C1033 C 0.49032 0.27875 0.37406 0.0
C1034 C 0.4399 0.28622 0.39206 0.0
C1035 C 0.43089 0.30619 0.37413 0.0
C1036 C 0.45197 0.31247 0.35621 0.0
C1037 C 0.48178 0.29913 0.35664 0.0
C1038 C 0.41863 0.27985 0.41191 0.0
C1039 C 0.4428 0.33275 0.33641 0.0
H1040 H 0.32364 0.30426 0.36149 0.0
H1041 H 0.36193 0.38634 0.39184 0.0
H1042 H 0.39501 0.27378 0.34116 0.0
H1043 H 0.38559 0.25543 0.36748 0.0
H1044 H 0.35516 0.26388 0.34741 0.0
H1045 H 0.41472 0.3912 0.40096 0.0
H1046 H 0.43294 0.35461 0.40774 0.0
H1047 H 0.44015 0.37246 0.38089 0.0
H1048 H 0.47613 0.25655 0.40506 0.0
H1049 H 0.49807 0.30384 0.34304 0.0
H1050 H 0.39728 0.26794 0.40597 0.0
H1051 H 0.41134 0.30207 0.41985 0.0
H1052 H 0.42986 0.26515 0.42506 0.0
H1053 H 0.42159 0.3233 0.32822 0.0
H1054 H 0.46149 0.33442 0.32347 0.0
H1055 H 0.43714 0.3565 0.34242 0.0
C1056 C 0.85098 0.85876 0.86249 0.0
C1057 C 0.8614 0.84976 0.88407 0.0
C1058 C 0.8352 0.887 0.85935 0.0
C1059 C 0.82932 0.90635 0.87829 0.0
C1060 C 0.83947 0.89718 0.90014 0.0
C1061 C 0.85557 0.8691 0.90273 0.0
C1062 C 0.825 0.89621 0.83577 0.0
C1063 C 0.83319 0.91698 0.92081 0.0
C1064 C 0.81189 0.99234 0.87141 0.0
C1065 C 0.77948 0.99288 0.87389 0.0
C1066 C 0.82837 0.96419 0.87205 0.0
C1067 C 0.81207 0.936 0.87546 0.0
C1068 C 0.77932 0.93631 0.87741 0.0
C1069 C 0.76342 0.9647 0.87649 0.0
C1070 C 0.86329 0.96469 0.86965 0.0
C1071 C 0.76113 0.90676 0.88124 0.0
H1072 H 0.85558 0.84398 0.84798 0.0
H1073 H 0.86344 0.8622 0.91947 0.0
H1074 H 0.79939 0.89909 0.83529 0.0
H1075 H 0.83539 0.91894 0.83115 0.0
H1076 H 0.83179 0.87877 0.82278 0.0
H1077 H 0.8424 0.90637 0.93662 0.0
H1078 H 0.84392 0.94022 0.91864 0.0
H1079 H 0.80781 0.92055 0.92282 0.0
H1080 H 0.82447 0.01395 0.86927 0.0
H1081 H 0.73837 0.96481 0.87841 0.0
H1082 H 0.87072 0.94828 0.85617 0.0
H1083 H 0.87421 0.9569 0.88573 0.0
H1084 H 0.87224 0.98821 0.86547 0.0
H1085 H 0.76661 0.88952 0.86784 0.0
H1086 H 0.73563 0.91082 0.88135 0.0
H1087 H 0.76789 0.89631 0.89774 0.0
C1088 C 0.13968 0.85331 0.86224 0.0
C1089 C 0.14748 0.86608 0.8834 0.0
C1090 C 0.11156 0.83732 0.85915 0.0
C1091 C 0.09104 0.83367 0.87773 0.0
C1092 C 0.09888 0.84637 0.89913 0.0
C1093 C 0.12691 0.86259 0.90167 0.0
C1094 C 0.1038 0.82434 0.83603 0.0
C1095 C 0.07779 0.84257 0.91944 0.0
C1096 C 0.00576 0.81424 0.86893 0.0
C1097 C 0.00544 0.7822 0.87329 0.0
C1098 C 0.03363 0.83119 0.86963 0.0
C1099 C 0.06173 0.81577 0.87507 0.0
C1100 C 0.06165 0.78336 0.87904 0.0
C1101 C 0.03357 0.76696 0.87798 0.0
C1102 C 0.03292 0.86569 0.86504 0.0
C1103 C 0.09109 0.76613 0.88509 0.0
H1104 H 0.1554 0.85608 0.84802 0.0
H1105 H 0.13284 0.87231 0.91808 0.0
H1106 H 0.10138 0.79872 0.83703 0.0
H1107 H 0.08118 0.83373 0.83014 0.0
H1108 H 0.12183 0.82997 0.82318 0.0
H1109 H 0.08726 0.85393 0.93488 0.0
H1110 H 0.05461 0.85264 0.91573 0.0
H1111 H 0.07433 0.81751 0.92308 0.0
H1112 H 0.98418 0.82618 0.86518 0.0
H1113 H 0.03363 0.74221 0.8814 0.0
H1114 H 0.05001 0.87172 0.85165 0.0
H1115 H 0.03967 0.87855 0.88059 0.0
H1116 H 0.00957 0.87381 0.8596 0.0
H1117 H 0.10908 0.77005 0.87192 0.0
H1118 H 0.08726 0.74072 0.88685 0.0
H1119 H 0.10047 0.77515 0.90135 0.0
C1120 C 0.22594 0.03007 0.89045 0.0
C1121 C 0.21919 0.00782 0.87384 0.0
C1122 C 0.21108 0.05903 0.89044 0.0
C1123 C 0.18991 0.06631 0.87284 0.0
C1124 C 0.18325 0.04396 0.85585 0.0
C1125 C 0.19757 0.01464 0.85682 0.0
C1126 C 0.21796 0.08175 0.90932 0.0
C1127 C 0.16158 0.05127 0.83643 0.0
C1128 C 0.13217 0.13149 0.88298 0.0
C1129 C 0.14784 0.157 0.87365 0.0
C1130 C 0.14557 0.10179 0.88279 0.0
C1131 C 0.17484 0.09738 0.87233 0.0
C1132 C 0.19034 0.12296 0.86229 0.0
C1133 C 0.17687 0.15263 0.86342 0.0
C1134 C 0.1288 0.07533 0.89435 0.0
C1135 C 0.22117 0.11899 0.85041 0.0
H1136 H 0.24254 0.02457 0.90371 0.0
H1137 H 0.19264 0.9974 0.84389 0.0
H1138 H 0.22897 0.10296 0.90229 0.0
H1139 H 0.19601 0.08902 0.91766 0.0
H1140 H 0.23366 0.07178 0.9224 0.0
H1141 H 0.15942 0.03158 0.82433 0.0
H1142 H 0.13814 0.05706 0.843 0.0
H1143 H 0.17015 0.07194 0.82707 0.0
H1144 H 0.10978 0.13495 0.89101 0.0
H1145 H 0.1888 0.17234 0.85598 0.0
H1146 H 0.1435 0.0658 0.90818 0.0
H1147 H 0.12457 0.0562 0.88213 0.0
H1148 H 0.10618 0.08266 0.90167 0.0
H1149 H 0.23918 0.1118 0.86281 0.0
H1150 H 0.229 0.14071 0.84198 0.0
H1151 H 0.21948 0.10033 0.83746 0.0
C1152 C 0.83602 0.18895 0.86211 0.0
C1153 C 0.83124 0.16283 0.87581 0.0
C1154 C 0.86564 0.20251 0.86039 0.0
C1155 C 0.89053 0.19024 0.87335 0.0
C1156 C 0.88543 0.16436 0.88769 0.0
C1157 C 0.85596 0.15059 0.88839 0.0
C1158 C 0.87046 0.22945 0.84437 0.0
C1159 C 0.91106 0.15127 0.90238 0.0
C1160 C 0.97508 0.20349 0.85774 0.0
C1161 C 0.98287 0.22835 0.87196 0.0
C1162 C 0.94467 0.19171 0.85729 0.0
C1163 C 0.92197 0.20437 0.87206 0.0
C1164 C 0.92983 0.22946 0.88649 0.0
C1165 C 0.96008 0.24151 0.88596 0.0
C1166 C 0.93688 0.16558 0.84117 0.0
C1167 C 0.90663 0.24287 0.90303 0.0
H1168 H 0.81686 0.19812 0.85221 0.0
H1169 H 0.85208 0.13045 0.89909 0.0
H1170 H 0.87869 0.2501 0.85388 0.0
H1171 H 0.88872 0.22352 0.8318 0.0
H1172 H 0.84887 0.23576 0.83512 0.0
H1173 H 0.90278 0.13213 0.9135 0.0
H1174 H 0.93013 0.14226 0.89157 0.0
H1175 H 0.921 0.16987 0.91322 0.0
H1176 H 0.99268 0.19353 0.84677 0.0
H1177 H 0.96623 0.26061 0.89709 0.0
H1178 H 0.91605 0.17165 0.83099 0.0
H1179 H 0.93125 0.14426 0.85091 0.0
H1180 H 0.95636 0.16025 0.82942 0.0
H1181 H 0.88567 0.25109 0.89389 0.0
H1182 H 0.91639 0.26256 0.91292 0.0
H1183 H 0.89901 0.22455 0.91507 0.0
C1184 C 0.3584 0.62523 0.60643 0.0
C1185 C 0.36497 0.64449 0.625 0.0
C1186 C 0.34242 0.59713 0.60931 0.0
C1187 C 0.33321 0.58783 0.63134 0.0
C1188 C 0.34007 0.607 0.65022 0.0
C1189 C 0.35564 0.63528 0.6468 0.0
C1190 C 0.33505 0.57758 0.5887 0.0
C1191 C 0.33096 0.5976 0.67399 0.0
C1192 C 0.26617 0.53095 0.63419 0.0
C1193 C 0.28168 0.50236 0.63605 0.0
C1194 C 0.28266 0.55898 0.63322 0.0
C1195 C 0.31548 0.55851 0.63439 0.0
C1196 C 0.33127 0.52988 0.63714 0.0
C1197 C 0.31418 0.50209 0.6378 0.0
C1198 C 0.26498 0.589 0.63006 0.0
C1199 C 0.36625 0.52856 0.63877 0.0
H1200 H 0.36545 0.63228 0.58954 0.0
H1201 H 0.36087 0.64999 0.66123 0.0
H1202 H 0.3454 0.55412 0.59059 0.0
H1203 H 0.30954 0.57451 0.58717 0.0
H1204 H 0.34389 0.58811 0.57275 0.0
H1205 H 0.33895 0.6146 0.68692 0.0
H1206 H 0.30533 0.59544 0.67521 0.0
H1207 H 0.34095 0.57451 0.67809 0.0
H1208 H 0.24106 0.53147 0.63283 0.0
H1209 H 0.32635 0.48014 0.63937 0.0
H1210 H 0.27126 0.59957 0.6135 0.0
H1211 H 0.27141 0.60588 0.64347 0.0
H1212 H 0.23941 0.58552 0.6305 0.0
H1213 H 0.37666 0.53615 0.62246 0.0
H1214 H 0.37481 0.50481 0.6427 0.0
H1215 H 0.37463 0.54472 0.6521 0.0
C1216 C 0.35806 0.35006 0.64086 0.0
C1217 C 0.34823 0.35915 0.61915 0.0
C1218 C 0.38661 0.33495 0.64401 0.0
C1219 C 0.40548 0.32832 0.62496 0.0
C1220 C 0.39559 0.33725 0.60299 0.0
C1221 C 0.36717 0.35279 0.60037 0.0
C1222 C 0.39659 0.32607 0.66772 0.0
C1223 C 0.41487 0.33008 0.58222 0.0
C1224 C 0.49133 0.31016 0.63217 0.0
C1225 C 0.49132 0.27761 0.631 0.0
C1226 C 0.46346 0.32703 0.63072 0.0
C1227 C 0.43503 0.31094 0.62784 0.0
C1228 C 0.43482 0.27811 0.62704 0.0
C1229 C 0.46291 0.26186 0.62874 0.0
C1230 C 0.46445 0.36205 0.63191 0.0
C1231 C 0.405 0.26012 0.62382 0.0
H1232 H 0.34362 0.35515 0.65547 0.0
H1233 H 0.35965 0.3597 0.58355 0.0
H1234 H 0.39908 0.30048 0.66898 0.0
H1235 H 0.41964 0.33635 0.67156 0.0
H1236 H 0.37975 0.33392 0.68081 0.0
H1237 H 0.40397 0.33881 0.56636 0.0
H1238 H 0.43826 0.34064 0.5839 0.0
H1239 H 0.41816 0.3046 0.58066 0.0
H1240 H 0.51314 0.32251 0.63398 0.0
H1241 H 0.46258 0.23671 0.62779 0.0
H1242 H 0.44862 0.37051 0.64543 0.0
H1243 H 0.4562 0.37205 0.61564 0.0
H1244 H 0.48822 0.37096 0.63535 0.0
H1245 H 0.38817 0.26614 0.63737 0.0
H1246 H 0.40878 0.23459 0.62404 0.0
H1247 H 0.39419 0.26655 0.60737 0.0
C1248 C 0.64279 0.35478 0.64281 0.0
C1249 C 0.63392 0.34534 0.62097 0.0
C1250 C 0.65776 0.38337 0.64632 0.0
C1251 C 0.66451 0.40263 0.62749 0.0
C1252 C 0.65569 0.39316 0.6054 0.0
C1253 C 0.64027 0.36474 0.60243 0.0
C1254 C 0.66646 0.3929 0.67015 0.0
C1255 C 0.66301 0.4128 0.58484 0.0
C1256 C 0.68382 0.48831 0.6348 0.0
C1257 C 0.71637 0.48787 0.63354 0.0
C1258 C 0.66657 0.46062 0.63352 0.0
C1259 C 0.68226 0.43195 0.63064 0.0
C1260 C 0.71509 0.43132 0.62981 0.0
C1261 C 0.73171 0.45921 0.6314 0.0
C1262 C 0.63158 0.46209 0.63478 0.0
C1263 C 0.73269 0.40127 0.62654 0.0
H1264 H 0.63768 0.34 0.65724 0.0
H1265 H 0.63353 0.35753 0.5855 0.0
H1266 H 0.69207 0.39493 0.67161 0.0
H1267 H 0.65651 0.41607 0.67407 0.0
H1268 H 0.65816 0.37602 0.68306 0.0
H1269 H 0.65414 0.40232 0.56887 0.0
H1270 H 0.65269 0.43626 0.58677 0.0
H1271 H 0.68852 0.41584 0.58329 0.0
H1272 H 0.67178 0.51031 0.63653 0.0
H1273 H 0.75684 0.45852 0.63039 0.0
H1274 H 0.62292 0.44604 0.64809 0.0
H1275 H 0.62142 0.45442 0.61841 0.0
H1276 H 0.62303 0.4859 0.63856 0.0
H1277 H 0.72633 0.3844 0.63998 0.0
H1278 H 0.75827 0.40469 0.62688 0.0
H1279 H 0.72625 0.39071 0.61001 0.0
C1280 C 0.50847 0.68225 0.63631 0.0
C1281 C 0.50777 0.71437 0.63228 0.0
C1282 C 0.53651 0.6656 0.63527 0.0
C1283 C 0.5644 0.68142 0.62991 0.0
C1284 C 0.56394 0.71389 0.62625 0.0
C1285 C 0.53569 0.72998 0.62757 0.0
C1286 C 0.53619 0.631 0.63949 0.0
C1287 C 0.59317 0.73156 0.62033 0.0
C1288 C 0.64248 0.6441 0.64269 0.0
C1289 C 0.65046 0.63163 0.62148 0.0
C1290 C 0.61433 0.66003 0.64578 0.0
C1291 C 0.59392 0.66389 0.62716 0.0
C1292 C 0.60197 0.65157 0.60568 0.0
C1293 C 0.63006 0.63544 0.60313 0.0
C1294 C 0.60638 0.67265 0.66898 0.0
C1295 C 0.58098 0.65558 0.58533 0.0
H1296 H 0.48707 0.67001 0.64004 0.0
H1297 H 0.53545 0.75478 0.62441 0.0
H1298 H 0.54327 0.61854 0.62384 0.0
H1299 H 0.55323 0.62492 0.65291 0.0
H1300 H 0.5129 0.62248 0.64471 0.0
H1301 H 0.58903 0.75694 0.61876 0.0
H1302 H 0.6112 0.72766 0.63348 0.0
H1303 H 0.60267 0.72287 0.60401 0.0
H1304 H 0.65807 0.6411 0.65697 0.0
H1305 H 0.63611 0.62594 0.58668 0.0
H1306 H 0.5839 0.66285 0.6748 0.0
H1307 H 0.60355 0.69824 0.66813 0.0
H1308 H 0.62448 0.66714 0.6818 0.0
H1309 H 0.55789 0.6452 0.58884 0.0
H1310 H 0.59067 0.64462 0.5698 0.0
H1311 H 0.57727 0.68067 0.58194 0.0
C1312 C 0.21542 0.36589 0.28488 0.0
C1313 C 0.19577 0.36862 0.30375 0.0
C1314 C 0.20501 0.35197 0.26467 0.0
C1315 C 0.17368 0.34217 0.26288 0.0
C1316 C 0.15373 0.34498 0.28188 0.0
C1317 C 0.16527 0.35739 0.30223 0.0
C1318 C 0.22741 0.34821 0.24516 0.0
C1319 C 0.11987 0.33595 0.2805 0.0
C1320 C 0.13709 0.34002 0.20417 0.0
C1321 C 0.13326 0.30804 0.20059 0.0
C1322 C 0.15009 0.35144 0.22437 0.0
C1323 C 0.16125 0.33032 0.2409 0.0
C1324 C 0.15916 0.29796 0.2368 0.0
C1325 C 0.14448 0.28722 0.21698 0.0
C1326 C 0.15085 0.3861 0.22833 0.0
C1327 C 0.17198 0.27466 0.25351 0.0
H1328 H 0.23881 0.37513 0.28574 0.0
H1329 H 0.15011 0.35911 0.31686 0.0
H1330 H 0.22606 0.32427 0.23821 0.0
H1331 H 0.22114 0.36442 0.23128 0.0
H1332 H 0.25179 0.35296 0.25031 0.0
H1333 H 0.10725 0.34052 0.2966 0.0
H1334 H 0.10836 0.34913 0.26666 0.0
H1335 H 0.11767 0.31092 0.27637 0.0
H1336 H 0.12931 0.35627 0.19133 0.0
H1337 H 0.14127 0.26249 0.2146 0.0
H1338 H 0.17515 0.39408 0.23051 0.0
H1339 H 0.13819 0.39182 0.2442 0.0
H1340 H 0.1402 0.39932 0.21413 0.0
H1341 H 0.19598 0.28113 0.25852 0.0
H1342 H 0.17228 0.25073 0.24644 0.0
H1343 H 0.15761 0.2746 0.26912 0.0
C1344 C 0.69807 0.162 0.20603 0.0
C1345 C 0.6984 0.12958 0.20431 0.0
C1346 C 0.68635 0.17668 0.22557 0.0
C1347 C 0.67519 0.15837 0.24383 0.0
C1348 C 0.67655 0.12554 0.24236 0.0
C1349 C 0.68791 0.11156 0.22252 0.0
C1350 C 0.68487 0.21169 0.22634 0.0
C1351 C 0.66534 0.10515 0.26154 0.0
C1352 C 0.66397 0.19328 0.30265 0.0
C1353 C 0.63164 0.1966 0.30343 0.0
C1354 C 0.67865 0.18146 0.28315 0.0
C1355 C 0.66051 0.17327 0.26398 0.0
C1356 C 0.62789 0.1777 0.26453 0.0
C1357 C 0.61383 0.18909 0.28434 0.0
C1358 C 0.71339 0.17668 0.28336 0.0
C1359 C 0.60773 0.16969 0.24438 0.0
H1360 H 0.70606 0.17583 0.1918 0.0
H1361 H 0.68836 0.08644 0.22112 0.0
H1362 H 0.66025 0.21928 0.22715 0.0
H1363 H 0.69653 0.22048 0.24185 0.0
H1364 H 0.69591 0.22257 0.21127 0.0
H1365 H 0.66991 0.08013 0.25833 0.0
H1366 H 0.67689 0.11191 0.27764 0.0
H1367 H 0.63998 0.10838 0.26396 0.0
H1368 H 0.67761 0.19902 0.31754 0.0
H1369 H 0.58881 0.19187 0.28503 0.0
H1370 H 0.72417 0.18836 0.26854 0.0
H1371 H 0.71867 0.15152 0.28191 0.0
H1372 H 0.72433 0.18572 0.29911 0.0
H1373 H 0.61658 0.18144 0.22892 0.0
H1374 H 0.5831 0.17652 0.24699 0.0
H1375 H 0.60863 0.14431 0.2412 0.0
C1376 C 0.80281 0.66529 0.30188 0.0
C1377 C 0.80225 0.63291 0.30396 0.0
C1378 C 0.8145 0.67946 0.28215 0.0
C1379 C 0.82513 0.66067 0.26398 0.0
C1380 C 0.8234 0.62789 0.26578 0.0
C1381 C 0.81228 0.61441 0.28587 0.0
C1382 C 0.81653 0.71443 0.28107 0.0
C1383 C 0.83387 0.60702 0.24665 0.0
C1384 C 0.83563 0.69475 0.20487 0.0
C1385 C 0.868 0.69712 0.2036 0.0
C1386 C 0.82118 0.68342 0.2246 0.0
C1387 C 0.83962 0.67502 0.24357 0.0
C1388 C 0.87231 0.67868 0.24257 0.0
C1389 C 0.88613 0.68937 0.22248 0.0
C1390 C 0.78636 0.67928 0.22483 0.0
C1391 C 0.89276 0.67061 0.26255 0.0
H1392 H 0.7951 0.67949 0.316 0.0
H1393 H 0.81152 0.58933 0.28752 0.0
H1394 H 0.84125 0.72158 0.27988 0.0
H1395 H 0.80465 0.7232 0.26564 0.0
H1396 H 0.80603 0.72573 0.29619 0.0
H1397 H 0.82888 0.58214 0.2501 0.0
H1398 H 0.82216 0.61378 0.23061 0.0
H1399 H 0.85924 0.6097 0.24396 0.0
H1400 H 0.82175 0.70068 0.19013 0.0
H1401 H 0.91119 0.69148 0.22142 0.0
H1402 H 0.7761 0.6913 0.2397 0.0
H1403 H 0.78068 0.65423 0.22648 0.0
H1404 H 0.77524 0.68835 0.20916 0.0
H1405 H 0.88436 0.68261 0.27805 0.0
H1406 H 0.91742 0.67712 0.25964 0.0
H1407 H 0.89164 0.64527 0.26587 0.0
C1408 C 0.38699 0.81463 0.28591 0.0
C1409 C 0.36851 0.80239 0.30329 0.0
C1410 C 0.37364 0.82561 0.26573 0.0
C1411 C 0.34095 0.82466 0.26301 0.0
C1412 C 0.32223 0.8116 0.28035 0.0
C1413 C 0.33631 0.80036 0.30027 0.0
C1414 C 0.39448 0.83887 0.24753 0.0
C1415 C 0.28731 0.81053 0.27821 0.0
C1416 C 0.30858 0.88495 0.22233 0.0
C1417 C 0.30377 0.86731 0.20271 0.0
C1418 C 0.31963 0.8711 0.24232 0.0
C1419 C 0.32645 0.83889 0.24252 0.0
C1420 C 0.32101 0.82086 0.22279 0.0
C1421 C 0.30949 0.83531 0.2031 0.0
C1422 C 0.3247 0.89109 0.26305 0.0
C1423 C 0.32837 0.78659 0.22223 0.0
H1424 H 0.41196 0.81579 0.28821 0.0
H1425 H 0.32209 0.79094 0.3138 0.0
H1426 H 0.38979 0.82733 0.23105 0.0
H1427 H 0.38953 0.86398 0.24531 0.0
H1428 H 0.41951 0.83608 0.25168 0.0
H1429 H 0.27622 0.79818 0.29265 0.0
H1430 H 0.27797 0.83454 0.27749 0.0
H1431 H 0.28054 0.7988 0.26219 0.0
H1432 H 0.30396 0.90972 0.22193 0.0
H1433 H 0.30583 0.8218 0.1878 0.0
H1434 H 0.34983 0.89189 0.26722 0.0
H1435 H 0.31254 0.8809 0.27789 0.0
H1436 H 0.31629 0.91525 0.26055 0.0
H1437 H 0.35372 0.78312 0.22457 0.0
H1438 H 0.32129 0.77557 0.20599 0.0
H1439 H 0.3165 0.77447 0.2364 0.0
C1440 C 0.86 0.71085 0.78734 0.0
C1441 C 0.86674 0.69063 0.80535 0.0
C1442 C 0.84633 0.69986 0.76722 0.0
C1443 C 0.84032 0.66768 0.76473 0.0
C1444 C 0.84683 0.64722 0.78294 0.0
C1445 C 0.85934 0.65906 0.80317 0.0
C1446 C 0.83883 0.72258 0.74849 0.0
C1447 C 0.8415 0.61266 0.78083 0.0
C1448 C 0.78597 0.63579 0.71941 0.0
C1449 C 0.80691 0.62741 0.70223 0.0
C1450 C 0.79635 0.65012 0.73946 0.0
C1451 C 0.82855 0.65511 0.74278 0.0
C1452 C 0.84976 0.6469 0.72541 0.0
C1453 C 0.8386 0.63376 0.70519 0.0
C1454 C 0.77289 0.65943 0.75725 0.0
C1455 C 0.88435 0.65112 0.72844 0.0
H1456 H 0.86602 0.73521 0.78876 0.0
H1457 H 0.86389 0.64343 0.8172 0.0
H1458 H 0.85423 0.71832 0.73373 0.0
H1459 H 0.81454 0.71928 0.74264 0.0
H1460 H 0.84182 0.74709 0.75399 0.0
H1461 H 0.84808 0.59988 0.79649 0.0
H1462 H 0.8167 0.6079 0.77709 0.0
H1463 H 0.8553 0.60333 0.76645 0.0
H1464 H 0.7615 0.63059 0.71741 0.0
H1465 H 0.85482 0.62797 0.69178 0.0
H1466 H 0.77672 0.68391 0.76248 0.0
H1467 H 0.77581 0.64476 0.77257 0.0
H1468 H 0.74861 0.65695 0.75111 0.0
H1469 H 0.88981 0.67594 0.73154 0.0
H1470 H 0.89775 0.64316 0.71341 0.0
H1471 H 0.89235 0.63789 0.74351 0.0
C1472 C 0.36424 0.83621 0.7056 0.0
C1473 C 0.37046 0.80444 0.70291 0.0
C1474 C 0.3515 0.84783 0.72582 0.0
C1475 C 0.3434 0.82701 0.74345 0.0
C1476 C 0.34841 0.79474 0.7405 0.0
C1477 C 0.36251 0.78394 0.72048 0.0
C1478 C 0.3474 0.8825 0.72849 0.0
C1479 C 0.33914 0.77165 0.75856 0.0
C1480 C 0.3391 0.8588 0.80355 0.0
C1481 C 0.30758 0.86659 0.80547 0.0
C1482 C 0.35106 0.84592 0.78349 0.0
C1483 C 0.33072 0.83923 0.76524 0.0
C1484 C 0.29856 0.84546 0.76753 0.0
C1485 C 0.28748 0.85967 0.78743 0.0
C1486 C 0.38563 0.84049 0.78156 0.0
C1487 C 0.27592 0.83764 0.74881 0.0
H1488 H 0.36961 0.85215 0.69192 0.0
H1489 H 0.36773 0.75943 0.71879 0.0
H1490 H 0.32254 0.88813 0.73117 0.0
H1491 H 0.36027 0.89068 0.74368 0.0
H1492 H 0.35584 0.8956 0.71346 0.0
H1493 H 0.34162 0.74725 0.75269 0.0
H1494 H 0.3538 0.77488 0.77385 0.0
H1495 H 0.31466 0.77558 0.76374 0.0
H1496 H 0.35463 0.86339 0.81764 0.0
H1497 H 0.26316 0.86593 0.78863 0.0
H1498 H 0.39506 0.85394 0.76704 0.0
H1499 H 0.39039 0.81561 0.77816 0.0
H1500 H 0.39832 0.84742 0.79718 0.0
H1501 H 0.28018 0.85285 0.73395 0.0
H1502 H 0.25139 0.84064 0.75425 0.0
H1503 H 0.27931 0.81328 0.74315 0.0
C1504 C 0.16178 0.29115 0.79867 0.0
C1505 C 0.1297 0.29453 0.80166 0.0
C1506 C 0.17634 0.30197 0.77881 0.0
C1507 C 0.15819 0.31593 0.76151 0.0
C1508 C 0.12554 0.31799 0.76413 0.0
C1509 C 0.11174 0.30746 0.78427 0.0
C1510 C 0.21122 0.29972 0.77677 0.0
C1511 C 0.10525 0.33222 0.74598 0.0
C1512 C 0.19179 0.37681 0.72194 0.0
C1513 C 0.19596 0.3598 0.70195 0.0
C1514 C 0.18076 0.36246 0.74173 0.0
C1515 C 0.17327 0.33041 0.74135 0.0
C1516 C 0.17821 0.31296 0.72127 0.0
C1517 C 0.18975 0.32789 0.70178 0.0
C1518 C 0.17625 0.38182 0.76284 0.0
C1519 C 0.1701 0.27889 0.7201 0.0
H1520 H 0.17559 0.28119 0.81223 0.0
H1521 H 0.08684 0.30972 0.78658 0.0
H1522 H 0.21773 0.28862 0.76047 0.0
H1523 H 0.2214 0.32341 0.77679 0.0
H1524 H 0.2217 0.28624 0.79091 0.0
H1525 H 0.08011 0.32983 0.74988 0.0
H1526 H 0.11074 0.3573 0.74424 0.0
H1527 H 0.10996 0.32112 0.72934 0.0
H1528 H 0.19677 0.40151 0.72196 0.0
H1529 H 0.19291 0.31489 0.68619 0.0
H1530 H 0.18796 0.3707 0.77752 0.0
H1531 H 0.15114 0.38334 0.76694 0.0
H1532 H 0.18547 0.40577 0.76084 0.0
H1533 H 0.18132 0.26608 0.73423 0.0
H1534 H 0.17733 0.26818 0.70377 0.0
H1535 H 0.14462 0.27596 0.72203 0.0
C1536 C 0.61016 0.18715 0.72245 0.0
C1537 C 0.62801 0.19111 0.70282 0.0
C1538 C 0.62375 0.1766 0.74268 0.0
C1539 C 0.65593 0.16963 0.74318 0.0
C1540 C 0.67416 0.1743 0.72345 0.0
C1541 C 0.65996 0.18516 0.70348 0.0
C1542 C 0.60354 0.17223 0.76338 0.0
C1543 C 0.70845 0.16692 0.72324 0.0
C1544 C 0.69428 0.16183 0.80117 0.0
C1545 C 0.69274 0.12969 0.80465 0.0
C1546 C 0.68285 0.17522 0.78106 0.0
C1547 C 0.66997 0.15589 0.76401 0.0
C1548 C 0.66933 0.12328 0.76723 0.0
C1549 C 0.68064 0.11061 0.78755 0.0
C1550 C 0.68375 0.21008 0.77832 0.0
C1551 C 0.65616 0.10181 0.74939 0.0
H1552 H 0.58546 0.19207 0.72187 0.0
H1553 H 0.67365 0.18827 0.6882 0.0
H1554 H 0.60285 0.14728 0.76809 0.0
H1555 H 0.61346 0.18506 0.77802 0.0
H1556 H 0.57935 0.18037 0.76054 0.0
H1557 H 0.71963 0.17331 0.70691 0.0
H1558 H 0.72041 0.17941 0.7372 0.0
H1559 H 0.71192 0.14169 0.72618 0.0
H1560 H 0.70359 0.17654 0.81446 0.0
H1561 H 0.67992 0.08568 0.79014 0.0
H1562 H 0.6597 0.21925 0.77722 0.0
H1563 H 0.6957 0.21637 0.76229 0.0
H1564 H 0.6958 0.22171 0.79267 0.0
H1565 H 0.63112 0.10686 0.74685 0.0
H1566 H 0.65869 0.07693 0.75409 0.0
H1567 H 0.66798 0.10575 0.73291 0.0
C1568 C 0.96613 0.56011 0.12846 0.0
C1569 C 0.99084 0.57974 0.13432 0.0
C1570 C 0.97037 0.52787 0.12691 0.0
C1571 C -0.00022 0.51492 0.13205 0.0
C1572 C 0.02486 0.53463 0.13785 0.0
C1573 C 0.02008 0.56682 0.13887 0.0
C1574 C 0.94309 0.50759 0.12057 0.0
C1575 C 0.05642 0.52163 0.14381 0.0
C1576 C -0.00058 0.43227 0.15413 0.0
C1577 C 0.00945 0.41558 0.1351 0.0
C1578 C 0.99675 0.46468 0.15345 0.0
C1579 C 0.00364 0.48067 0.13307 0.0
C1580 C 0.0137 0.4639 0.11375 0.0
C1581 C 0.01668 0.43145 0.11504 0.0
C1582 C 0.98645 0.48179 0.17454 0.0
C1583 C 0.02067 0.48015 0.09162 0.0
H1584 H 0.94314 0.56973 0.12591 0.0
H1585 H 0.03917 0.58192 0.14362 0.0
H1586 H 0.94971 0.49125 0.10684 0.0
H1587 H 0.93598 0.49345 0.13543 0.0
H1588 H 0.92275 0.52144 0.11484 0.0
H1589 H 0.0739 0.54018 0.14678 0.0
H1590 H 0.05462 0.50725 0.15938 0.0
H1591 H 0.06491 0.50628 0.13002 0.0
H1592 H 0.99388 0.41992 0.16965 0.0
H1593 H 0.02378 0.41845 0.10018 0.0
H1594 H 0.96425 0.49408 0.17122 0.0
H1595 H 0.00392 0.49962 0.17921 0.0
H1596 H 0.98309 0.46596 0.18923 0.0
H1597 H -0.0005 0.49219 0.08543 0.0
H1598 H 0.02876 0.46379 0.07829 0.0
H1599 H 0.03877 0.49814 0.09423 0.0
C1600 C 0.42998 0.99028 0.11224 0.0
C1601 C 0.4162 0.99265 0.13371 0.0
C1602 C 0.46207 0.99478 0.10949 0.0
C1603 C 0.4806 0.00164 0.1287 0.0
C1604 C 0.46666 0.00428 0.15037 0.0
C1605 C 0.43457 -2e-05 0.15257 0.0
C1606 C 0.47613 0.99229 0.0861 0.0
C1607 C 0.48569 0.01126 0.17131 0.0
C1608 C 0.56656 0.98369 0.13046 0.0
C1609 C 0.57958 0.01342 0.12869 0.0
C1610 C 0.53435 0.97933 0.12938 0.0
C1611 C 0.51472 0.00539 0.12647 0.0
C1612 C 0.52779 0.03535 0.12374 0.0
C1613 C 0.56012 0.03906 0.12512 0.0
C1614 C 0.52128 0.94704 0.13252 0.0
C1615 C 0.50756 0.06368 0.12056 0.0
H1616 H 0.41563 0.98546 0.09755 0.0
H1617 H 0.42387 0.00187 0.16917 0.0
H1618 H 0.48818 0.01427 0.0817 0.0
H1619 H 0.49383 0.97355 0.08582 0.0
H1620 H 0.45843 0.98731 0.07287 0.0
H1621 H 0.47121 0.01265 0.18688 0.0
H1622 H 0.50351 0.99292 0.17378 0.0
H1623 H 0.49816 0.03362 0.16919 0.0
H1624 H 0.58159 0.96384 0.13331 0.0
H1625 H 0.56995 0.06221 0.12451 0.0
H1626 H 0.50458 0.94153 0.11876 0.0
H1627 H 0.50838 0.94587 0.1488 0.0
H1628 H 0.53972 0.92898 0.13271 0.0
H1629 H 0.48988 0.05941 0.10721 0.0
H1630 H 0.52133 0.08453 0.11583 0.0
H1631 H 0.49495 0.06871 0.13656 0.0
C1632 C 0.50462 0.06375 0.35545 0.0
C1633 C 0.51224 0.08189 0.37437 0.0
C1634 C 0.50051 0.03163 0.35745 0.0
C1635 C 0.50369 0.01741 0.37898 0.0
C1636 C 0.51121 0.03562 0.39821 0.0
C1637 C 0.51545 0.06777 0.39566 0.0
C1638 C 0.49277 0.01294 0.33648 0.0
C1639 C 0.51437 0.0212 0.42145 0.0
C1640 C 0.46391 0.93917 0.38247 0.0
C1641 C 0.48876 0.91898 0.37824 0.0
C1642 C 0.46874 0.9713 0.38417 0.0
C1643 C 0.49903 0.98341 0.38108 0.0
C1644 C 0.52434 0.96301 0.37752 0.0
C1645 C 0.51886 0.93099 0.37609 0.0
C1646 C 0.44118 0.99237 0.38799 0.0
C1647 C 0.55693 0.97509 0.37401 0.0
H1648 H 0.50213 0.07471 0.33898 0.0
H1649 H 0.52054 0.08192 0.4104 0.0
H1650 H 0.51058 0.99466 0.33381 0.0
H1651 H 0.47011 0.00108 0.33873 0.0
H1652 H 0.49154 0.02757 0.32098 0.0
H1653 H 0.52077 0.03854 0.43461 0.0
H1654 H 0.49212 0.01008 0.42639 0.0
H1655 H 0.53232 0.00271 0.42114 0.0
H1656 H 0.44047 0.93008 0.38336 0.0
H1657 H 0.53806 0.91535 0.3727 0.0
H1658 H 0.43614 0.00548 0.37221 0.0
H1659 H 0.44639 0.00961 0.40146 0.0
H1660 H 0.42002 0.97919 0.39288 0.0
H1661 H 0.55813 0.98795 0.35771 0.0
H1662 H 0.57439 0.95609 0.3736 0.0
H1663 H 0.56327 0.9916 0.3877 0.0
C1664 C 0.92671 0.47681 0.37348 0.0
C1665 C 0.91543 0.50678 0.37783 0.0
C1666 C 0.95852 0.47014 0.37496 0.0
C1667 C 0.97951 0.49407 0.38092 0.0
C1668 C 0.96812 0.52407 0.38625 0.0
C1669 C 0.93621 0.53017 0.38436 0.0
C1670 C 0.9698 0.43796 0.36894 0.0
C1671 C 0.98981 0.55018 0.39272 0.0
C1672 C 0.06323 0.47437 0.39573 0.0
C1673 C 0.07831 0.48152 0.37532 0.0
C1674 C 0.03092 0.47801 0.39783 0.0
C1675 C 0.0135 0.48878 0.37901 0.0
C1676 C 0.02864 0.49532 0.35824 0.0
C1677 C 0.0609 0.49187 0.35673 0.0
C1678 C 0.01555 0.47122 0.42031 0.0
C1679 C 0.01085 0.50642 0.33767 0.0
H1680 H 0.91068 0.45871 0.36831 0.0
H1681 H 0.92784 0.55364 0.38692 0.0
H1682 H 0.98307 0.43889 0.35281 0.0
H1683 H 0.98576 0.42906 0.38222 0.0
H1684 H 0.95034 0.42124 0.36686 0.0
H1685 H 0.97705 0.57087 0.39907 0.0
H1686 H 0.00633 0.54239 0.40601 0.0
H1687 H 0.00369 0.5572 0.37771 0.0
H1688 H 0.07679 0.46703 0.41026 0.0
H1689 H 0.07261 0.49733 0.34092 0.0
H1690 H 0.99629 0.4544 0.41798 0.0
H1691 H 0.00527 0.49287 0.42725 0.0
H1692 H 0.03214 0.46166 0.43296 0.0
H1693 H 0.99208 0.48972 0.33345 0.0
H1694 H 0.026 0.50924 0.32254 0.0
H1695 H -0.00032 0.52909 0.34138 0.0
C1696 C 0.96686 0.56188 0.87762 0.0
C1697 C 0.99169 0.58274 0.87976 0.0
C1698 C 0.97184 0.52969 0.87843 0.0
C1699 C 0.00246 0.51815 0.88086 0.0
C1700 C 0.02751 0.53905 0.88361 0.0
C1701 C 0.0218 0.57109 0.88309 0.0
C1702 C 0.9445 0.50805 0.87556 0.0
C1703 C 0.06054 0.52764 0.88597 0.0
C1704 C 0.01471 0.43259 0.89405 0.0
C1705 C 0.01894 0.42041 0.87223 0.0
C1706 C 0.00938 0.46449 0.89723 0.0
C1707 C 0.00866 0.48445 0.87812 0.0
C1708 C 0.01352 0.47221 0.85611 0.0
C1709 C 0.01827 0.44026 0.85343 0.0
C1710 C 0.00378 0.47672 0.92088 0.0
C1711 C 0.01344 0.4928 0.83535 0.0
H1712 H 0.94372 0.57046 0.87422 0.0
H1713 H 0.04111 0.58709 0.88475 0.0
H1714 H 0.94587 0.4965 0.85876 0.0
H1715 H 0.94501 0.48956 0.88868 0.0
H1716 H 0.92194 0.5205 0.8767 0.0
H1717 H 0.07703 0.54678 0.88984 0.0
H1718 H 0.06217 0.50993 0.89959 0.0
H1719 H 0.06792 0.51633 0.86992 0.0
H1720 H 0.01458 0.41707 0.90853 0.0
H1721 H 0.02156 0.43073 0.83657 0.0
H1722 H 0.98014 0.4869 0.92195 0.0
H1723 H 0.02053 0.49555 0.92483 0.0
H1724 H 0.00597 0.45828 0.93398 0.0
H1725 H 0.99038 0.50402 0.83341 0.0
H1726 H 0.01871 0.47972 0.81955 0.0
H1727 H 0.03086 0.51161 0.8373 0.0
C1728 C 0.56167 0.02926 0.88424 0.0
C1729 C 0.58186 0.00518 0.87803 0.0
C1730 C 0.52959 0.02413 0.88597 0.0
C1731 C 0.51739 0.99445 0.8807 0.0
C1732 C 0.53771 0.9699 0.87483 0.0
C1733 C 0.56974 0.97557 0.8736 0.0
C1734 C 0.50864 0.05087 0.89238 0.0
C1735 C 0.52552 0.93806 0.86878 0.0
C1736 C 0.43361 0.9766 0.89623 0.0
C1737 C 0.41834 0.98405 0.87596 0.0
C1738 C 0.46599 0.97965 0.89807 0.0
C1739 C 0.48329 0.99002 0.87908 0.0
C1740 C 0.46792 0.99695 0.85845 0.0
C1741 C 0.43556 0.99419 0.85724 0.0
C1742 C 0.4816 0.97258 0.92042 0.0
C1743 C 0.48559 0.00761 0.83771 0.0
H1744 H 0.57067 0.0525 0.88675 0.0
H1745 H 0.58529 0.95696 0.86862 0.0
H1746 H 0.4948 0.05811 0.87739 0.0
H1747 H 0.49203 0.04364 0.90577 0.0
H1748 H 0.52196 0.07129 0.89857 0.0
H1749 H 0.5445 0.92088 0.86637 0.0
H1750 H 0.50966 0.92944 0.88221 0.0
H1751 H 0.51188 0.93947 0.85283 0.0
H1752 H 0.42016 0.96938 0.91085 0.0
H1753 H 0.42367 -0.00013 0.84155 0.0
H1754 H 0.4928 0.99392 0.9271 0.0
H1755 H 0.5002 0.95504 0.91798 0.0
H1756 H 0.46497 0.96376 0.93331 0.0
H1757 H 0.49735 0.03001 0.84129 0.0
H1758 H 0.47024 0.01074 0.82272 0.0
H1759 H 0.5039 0.99046 0.83335 0.0
C1760 C 0.46784 0.93306 0.63992 0.0
C1761 C 0.48483 0.91454 0.6249 0.0
C1762 C 0.47137 0.96546 0.63989 0.0
C1763 C 0.49193 0.97946 0.62413 0.0
C1764 C 0.50821 0.96078 0.60834 0.0
C1765 C 0.50485 0.9284 0.60918 0.0
C1766 C 0.45416 0.98454 0.65733 0.0
C1767 C 0.52971 0.97493 0.59093 0.0
C1768 C 0.48232 0.06617 0.61499 0.0
C1769 C 0.50662 0.07801 0.62818 0.0
C1770 C 0.47782 0.03403 0.61291 0.0
C1771 C 0.49752 0.01347 0.62494 0.0
C1772 C 0.52216 0.02545 0.63829 0.0
C1773 C 0.5266 0.05768 0.63956 0.0
C1774 C 0.45182 0.02209 0.59808 0.0
C1775 C 0.54321 0.00429 0.65177 0.0
H1776 H 0.4529 0.9221 0.65239 0.0
H1777 H 0.51802 0.91384 0.59765 0.0
H1778 H 0.47107 0.99639 0.66861 0.0
H1779 H 0.44023 0.00287 0.64887 0.0
H1780 H 0.4384 0.97016 0.66795 0.0
H1781 H 0.53852 0.95743 0.57866 0.0
H1782 H 0.51751 0.99353 0.5814 0.0
H1783 H 0.54987 0.98581 0.59956 0.0
H1784 H 0.46688 0.08213 0.60628 0.0
H1785 H 0.54495 0.06705 0.65015 0.0
H1786 H 0.43443 0.0097 0.60862 0.0
H1787 H 0.46104 0.00513 0.58559 0.0
H1788 H 0.43987 0.04108 0.58875 0.0
H1789 H 0.52924 0.99064 0.66406 0.0
H1790 H 0.56131 0.01735 0.66125 0.0
H1791 H 0.55486 0.98749 0.64031 0.0
C1792 C 0.93141 0.47536 0.63015 0.0
C1793 C 0.91802 0.50492 0.63237 0.0
C1794 C 0.96373 0.47147 0.62992 0.0
C1795 C 0.98315 0.49784 0.63172 0.0
C1796 C 0.96987 0.52784 0.6333 0.0
C1797 C 0.93744 0.53098 0.63399 0.0
C1798 C 0.97705 0.43904 0.62862 0.0
C1799 C 0.9899 0.55654 0.63508 0.0
C1800 C 0.06321 0.48735 0.65723 0.0
C1801 C 0.08188 0.48584 0.63782 0.0
C1802 C 0.03097 0.49092 0.65543 0.0
C1803 C 0.01728 0.49382 0.63369 0.0
C1804 C 0.03613 0.49272 0.61401 0.0
C1805 C 0.06831 0.48846 0.61632 0.0
C1806 C 0.01157 0.49136 0.67679 0.0
C1807 C 0.02236 0.49643 0.5906 0.0
H1808 H 0.91657 0.45507 0.62898 0.0
H1809 H 0.92759 0.55376 0.63669 0.0
H1810 H 0.99382 0.43734 0.61438 0.0
H1811 H 0.98997 0.43378 0.64446 0.0
H1812 H 0.95878 0.4211 0.62625 0.0
H1813 H 0.97608 0.57826 0.63367 0.0
H1814 H 0.00218 0.55665 0.65163 0.0
H1815 H 0.00788 0.55651 0.62158 0.0
H1816 H 0.07384 0.48525 0.67385 0.0
H1817 H 0.08294 0.48786 0.60135 0.0
H1818 H 0.9938 0.47271 0.67608 0.0
H1819 H -0.00097 0.51379 0.67819 0.0
H1820 H 0.02581 0.48807 0.69233 0.0
H1821 H 0.00489 0.47798 0.58747 0.0
H1822 H 0.04027 0.49532 0.57706 0.0
H1823 H 0.01011 0.51906 0.58938 0.0
loop_
_geom_bond_atom_site_label_1
_geom_bond_atom_site_label_2
_geom_bond_distance
_geom_bond_site_symmetry_2
_ccdc_geom_bond_type
Co0 O3 1.970 . S
Co0 N17 1.989 . S
Co0 O25 1.967 . S
Co0 O32 1.920 . S
Co1 O4 1.966 . S
Co1 N10 2.022 . S
Co1 N18 1.993 . S
Co1 O26 1.941 . S
C2 O3 1.258 . S
C2 O4 1.263 . S
O3 Co0 1.970 . S
O3 C2 1.258 . S
O4 Co1 1.966 . S
O4 C2 1.263 . S
C5 O6 1.235 . S
C5 O32 1.289 . S
O6 C5 1.235 . S
C7 C9 1.400 . S
C7 N10 1.351 . S
C7 C12 1.501 . S
C8 C9 1.387 . S
C8 N11 1.341 . S
C9 C7 1.400 . S
C9 C8 1.387 . S
N10 Co1 2.022 . S
N10 C7 1.351 . S
N10 N11 1.365 . S
N11 C8 1.341 . S
N11 N10 1.365 . S
N11 H31 0.862 . S
C12 C7 1.501 . S
C12 H13 0.961 . S
C12 H14 0.961 . S
C12 H15 0.960 . S
H13 C12 0.961 . S
H14 C12 0.961 . S
H15 C12 0.960 . S
C16 N17 1.342 . S
C16 C20 1.401 . S
C16 C21 1.499 . S
N17 Co0 1.989 . S
N17 C16 1.342 . S
N17 N18 1.388 . S
N18 Co1 1.993 . S
N18 N17 1.388 . S
N18 C19 1.346 . S
C19 N18 1.346 . S
C19 C20 1.396 . S
C19 C29 1.510 . S
C20 C16 1.401 . S
C20 C19 1.396 . S
C21 C16 1.499 . S
C21 H22 0.959 . S
C21 H23 0.960 . S
C21 H24 0.961 . S
H22 C21 0.959 . S
H23 C21 0.960 . S
H24 C21 0.961 . S
O25 Co0 1.967 . S
O25 C33 1.258 . S
O26 Co1 1.941 . S
O26 C33 1.266 . S
H27 C29 0.959 . S
H28 C29 0.961 . S
C29 C19 1.510 . S
C29 H27 0.959 . S
C29 H28 0.961 . S
C29 H30 0.960 . S
H30 C29 0.960 . S
H31 N11 0.862 . S
O32 Co0 1.920 . S
O32 C5 1.289 . S
C33 O25 1.258 . S
C33 O26 1.266 . S
Co34 O37 1.970 . S
Co34 N51 1.989 . S
Co34 O59 1.967 . S
Co34 O66 1.920 . S
Co35 O38 1.966 . S
Co35 N44 2.022 . S
Co35 N52 1.993 . S
Co35 O60 1.941 . S
C36 O37 1.258 . S
C36 O38 1.263 . S
O37 Co34 1.970 . S
O37 C36 1.258 . S
O38 Co35 1.966 . S
O38 C36 1.263 . S
C39 O40 1.235 . S
C39 O66 1.289 . S
O40 C39 1.235 . S
C41 C43 1.400 . S
C41 N44 1.351 . S
C41 C46 1.501 . S
C42 C43 1.387 . S
C42 N45 1.341 . S
C43 C41 1.400 . S
C43 C42 1.387 . S
N44 Co35 2.022 . S
N44 C41 1.351 . S
N44 N45 1.365 . S
N45 C42 1.341 . S
N45 N44 1.365 . S
N45 H65 0.862 . S
C46 C41 1.501 . S
C46 H47 0.961 . S
C46 H48 0.961 . S
C46 H49 0.960 . S
H47 C46 0.961 . S
H48 C46 0.961 . S
H49 C46 0.960 . S
C50 N51 1.342 . S
C50 C54 1.401 . S
C50 C55 1.499 . S
N51 Co34 1.989 . S
N51 C50 1.342 . S
N51 N52 1.388 . S
N52 Co35 1.993 . S
N52 N51 1.388 . S
N52 C53 1.346 . S
C53 N52 1.346 . S
C53 C54 1.396 . S
C53 C63 1.510 . S
C54 C50 1.401 . S
C54 C53 1.396 . S
C55 C50 1.499 . S
C55 H56 0.959 . S
C55 H57 0.960 . S
C55 H58 0.961 . S
H56 C55 0.959 . S
H57 C55 0.960 . S
H58 C55 0.961 . S
O59 Co34 1.967 . S
O59 C67 1.258 . S
O60 Co35 1.941 . S
O60 C67 1.266 . S
H61 C63 0.959 . S
H62 C63 0.961 . S
C63 C53 1.510 . S
C63 H61 0.959 . S
C63 H62 0.961 . S
C63 H64 0.960 . S
H64 C63 0.960 . S
H65 N45 0.862 . S
O66 Co34 1.920 . S
O66 C39 1.289 . S
C67 O59 1.258 . S
C67 O60 1.266 . S
Co68 O71 1.970 . S
Co68 N85 1.989 . S
Co68 O93 1.967 . S
Co68 O100 1.920 . S
Co69 O72 1.966 . S
Co69 N78 2.022 . S
Co69 N86 1.993 . S
Co69 O94 1.941 . S
C70 O71 1.258 . S
C70 O72 1.263 . S
O71 Co68 1.970 . S
O71 C70 1.258 . S
O72 Co69 1.966 . S
O72 C70 1.263 . S
C73 O74 1.235 . S
C73 O100 1.289 . S
O74 C73 1.235 . S
C75 C77 1.400 . S
C75 N78 1.351 . S
C75 C80 1.501 . S
C76 C77 1.387 . S
C76 N79 1.341 . S
C77 C75 1.400 . S
C77 C76 1.387 . S
N78 Co69 2.022 . S
N78 C75 1.351 . S
N78 N79 1.365 . S
N79 C76 1.341 . S
N79 N78 1.365 . S
N79 H99 0.862 . S
C80 C75 1.501 . S
C80 H81 0.961 . S
C80 H82 0.961 . S
C80 H83 0.960 . S
H81 C80 0.961 . S
H82 C80 0.961 . S
H83 C80 0.960 . S
C84 N85 1.342 . S
C84 C88 1.401 . S
C84 C89 1.499 . S
N85 Co68 1.989 . S
N85 C84 1.342 . S
N85 N86 1.388 . S
N86 Co69 1.993 . S
N86 N85 1.388 . S
N86 C87 1.346 . S
C87 N86 1.346 . S
C87 C88 1.396 . S
C87 C97 1.510 . S
C88 C84 1.401 . S
C88 C87 1.396 . S
C89 C84 1.499 . S
C89 H90 0.959 . S
C89 H91 0.960 . S
C89 H92 0.961 . S
H90 C89 0.959 . S
H91 C89 0.960 . S
H92 C89 0.961 . S
O93 Co68 1.967 . S
O93 C101 1.258 . S
O94 Co69 1.941 . S
O94 C101 1.266 . S
H95 C97 0.959 . S
H96 C97 0.961 . S
C97 C87 1.510 . S
C97 H95 0.959 . S
C97 H96 0.961 . S
C97 H98 0.960 . S
H98 C97 0.960 . S
H99 N79 0.862 . S
O100 Co68 1.920 . S
O100 C73 1.289 . S
C101 O93 1.258 . S
C101 O94 1.266 . S
Co102 O105 1.970 . S
Co102 N119 1.989 . S
Co102 O127 1.967 . S
Co102 O134 1.920 . S
Co103 O106 1.966 . S
Co103 N112 2.022 . S
Co103 N120 1.993 . S
Co103 O128 1.941 . S
C104 O105 1.258 . S
C104 O106 1.263 . S
O105 Co102 1.970 . S
O105 C104 1.258 . S
O106 Co103 1.966 . S
O106 C104 1.263 . S
C107 O108 1.235 . S
C107 O134 1.289 . S
O108 C107 1.235 . S
C109 C111 1.400 . S
C109 N112 1.351 . S
C109 C114 1.501 . S
C110 C111 1.387 . S
C110 N113 1.341 . S
C111 C109 1.400 . S
C111 C110 1.387 . S
N112 Co103 2.022 . S
N112 C109 1.351 . S
N112 N113 1.365 . S
N113 C110 1.341 . S
N113 N112 1.365 . S
N113 H133 0.862 . S
C114 C109 1.501 . S
C114 H115 0.961 . S
C114 H116 0.961 . S
C114 H117 0.960 . S
H115 C114 0.961 . S
H116 C114 0.961 . S
H117 C114 0.960 . S
C118 N119 1.342 . S
C118 C122 1.401 . S
C118 C123 1.499 . S
N119 Co102 1.989 . S
N119 C118 1.342 . S
N119 N120 1.388 . S
N120 Co103 1.993 . S
N120 N119 1.388 . S
N120 C121 1.346 . S
C121 N120 1.346 . S
C121 C122 1.396 . S
C121 C131 1.510 . S
C122 C118 1.401 . S
C122 C121 1.396 . S
C123 C118 1.499 . S
C123 H124 0.959 . S
C123 H125 0.960 . S
C123 H126 0.961 . S
H124 C123 0.959 . S
H125 C123 0.960 . S
H126 C123 0.961 . S
O127 Co102 1.967 . S
O127 C135 1.258 . S
O128 Co103 1.941 . S
O128 C135 1.266 . S
H129 C131 0.959 . S
H130 C131 0.961 . S
C131 C121 1.510 . S
C131 H129 0.959 . S
C131 H130 0.961 . S
C131 H132 0.960 . S
H132 C131 0.960 . S
H133 N113 0.862 . S
O134 Co102 1.920 . S
O134 C107 1.289 . S
C135 O127 1.258 . S
C135 O128 1.266 . S
Co136 O139 1.970 . S
Co136 N153 1.989 . S
Co136 O161 1.967 . S
Co136 O168 1.920 . S
Co137 O140 1.966 . S
Co137 N146 2.022 . S
Co137 N154 1.993 . S
Co137 O162 1.941 . S
C138 O139 1.258 . S
C138 O140 1.263 . S
O139 Co136 1.970 . S
O139 C138 1.258 . S
O140 Co137 1.966 . S
O140 C138 1.263 . S
C141 O142 1.235 . S
C141 O168 1.289 . S
O142 C141 1.235 . S
C143 C145 1.400 . S
C143 N146 1.351 . S
C143 C148 1.501 . S
C144 C145 1.387 . S
C144 N147 1.341 . S
C145 C143 1.400 . S
C145 C144 1.387 . S
N146 Co137 2.022 . S
N146 C143 1.351 . S
N146 N147 1.365 . S
N147 C144 1.341 . S
N147 N146 1.365 . S
N147 H167 0.862 . S
C148 C143 1.501 . S
C148 H149 0.961 . S
C148 H150 0.961 . S
C148 H151 0.960 . S
H149 C148 0.961 . S
H150 C148 0.961 . S
H151 C148 0.960 . S
C152 N153 1.342 . S
C152 C156 1.401 . S
C152 C157 1.499 . S
N153 Co136 1.989 . S
N153 C152 1.342 . S
N153 N154 1.388 . S
N154 Co137 1.993 . S
N154 N153 1.388 . S
N154 C155 1.346 . S
C155 N154 1.346 . S
C155 C156 1.396 . S
C155 C165 1.510 . S
C156 C152 1.401 . S
C156 C155 1.396 . S
C157 C152 1.499 . S
C157 H158 0.959 . S
C157 H159 0.960 . S
C157 H160 0.961 . S
H158 C157 0.959 . S
H159 C157 0.960 . S
H160 C157 0.961 . S
O161 Co136 1.967 . S
O161 C169 1.258 . S
O162 Co137 1.941 . S
O162 C169 1.266 . S
H163 C165 0.959 . S
H164 C165 0.961 . S
C165 C155 1.510 . S
C165 H163 0.959 . S
C165 H164 0.961 . S
C165 H166 0.960 . S
H166 C165 0.960 . S
H167 N147 0.862 . S
O168 Co136 1.920 . S
O168 C141 1.289 . S
C169 O161 1.258 . S
C169 O162 1.266 . S
Co170 O173 1.970 . S
Co170 N187 1.989 . S
Co170 O195 1.967 . S
Co170 O202 1.920 . S
Co171 O174 1.966 . S
Co171 N180 2.022 . S
Co171 N188 1.993 . S
Co171 O196 1.941 . S
C172 O173 1.258 . S
C172 O174 1.263 . S
O173 Co170 1.970 . S
O173 C172 1.258 . S
O174 Co171 1.966 . S
O174 C172 1.263 . S
C175 O176 1.235 . S
C175 O202 1.289 . S
O176 C175 1.235 . S
C177 C179 1.400 . S
C177 N180 1.351 . S
C177 C182 1.501 . S
C178 C179 1.387 . S
C178 N181 1.341 . S
C179 C177 1.400 . S
C179 C178 1.387 . S
N180 Co171 2.022 . S
N180 C177 1.351 . S
N180 N181 1.365 . S
N181 C178 1.341 . S
N181 N180 1.365 . S
N181 H201 0.862 . S
C182 C177 1.501 . S
C182 H183 0.961 . S
C182 H184 0.961 . S
C182 H185 0.960 . S
H183 C182 0.961 . S
H184 C182 0.961 . S
H185 C182 0.960 . S
C186 N187 1.342 . S
C186 C190 1.401 . S
C186 C191 1.499 . S
N187 Co170 1.989 . S
N187 C186 1.342 . S
N187 N188 1.388 . S
N188 Co171 1.993 . S
N188 N187 1.388 . S
N188 C189 1.346 . S
C189 N188 1.346 . S
C189 C190 1.396 . S
C189 C199 1.510 . S
C190 C186 1.401 . S
C190 C189 1.396 . S
C191 C186 1.499 . S
C191 H192 0.959 . S
C191 H193 0.960 . S
C191 H194 0.961 . S
H192 C191 0.959 . S
H193 C191 0.960 . S
H194 C191 0.961 . S
O195 Co170 1.967 . S
O195 C203 1.258 . S
O196 Co171 1.941 . S
O196 C203 1.266 . S
H197 C199 0.959 . S
H198 C199 0.961 . S
C199 C189 1.510 . S
C199 H197 0.959 . S
C199 H198 0.961 . S
C199 H200 0.960 . S
H200 C199 0.960 . S
H201 N181 0.862 . S
O202 Co170 1.920 . S
O202 C175 1.289 . S
C203 O195 1.258 . S
C203 O196 1.266 . S
Co204 O207 1.970 . S
Co204 N221 1.989 . S
Co204 O229 1.967 . S
Co204 O236 1.920 . S
Co205 O208 1.966 . S
Co205 N214 2.022 . S
Co205 N222 1.993 . S
Co205 O230 1.941 . S
C206 O207 1.258 . S
C206 O208 1.263 . S
O207 Co204 1.970 . S
O207 C206 1.258 . S
O208 Co205 1.966 . S
O208 C206 1.263 . S
C209 O210 1.235 . S
C209 O236 1.289 . S
O210 C209 1.235 . S
C211 C213 1.400 . S
C211 N214 1.351 . S
C211 C216 1.501 . S
C212 C213 1.387 . S
C212 N215 1.341 . S
C213 C211 1.400 . S
C213 C212 1.387 . S
N214 Co205 2.022 . S
N214 C211 1.351 . S
N214 N215 1.365 . S
N215 C212 1.341 . S
N215 N214 1.365 . S
N215 H235 0.862 . S
C216 C211 1.501 . S
C216 H217 0.961 . S
C216 H218 0.961 . S
C216 H219 0.960 . S
H217 C216 0.961 . S
H218 C216 0.961 . S
H219 C216 0.960 . S
C220 N221 1.342 . S
C220 C224 1.401 . S
C220 C225 1.499 . S
N221 Co204 1.989 . S
N221 C220 1.342 . S
N221 N222 1.388 . S
N222 Co205 1.993 . S
N222 N221 1.388 . S
N222 C223 1.346 . S
C223 N222 1.346 . S
C223 C224 1.396 . S
C223 C233 1.510 . S
C224 C220 1.401 . S
C224 C223 1.396 . S
C225 C220 1.499 . S
C225 H226 0.959 . S
C225 H227 0.960 . S
C225 H228 0.961 . S
H226 C225 0.959 . S
H227 C225 0.960 . S
H228 C225 0.961 . S
O229 Co204 1.967 . S
O229 C237 1.258 . S
O230 Co205 1.941 . S
O230 C237 1.266 . S
H231 C233 0.959 . S
H232 C233 0.961 . S
C233 C223 1.510 . S
C233 H231 0.959 . S
C233 H232 0.961 . S
C233 H234 0.960 . S
H234 C233 0.960 . S
H235 N215 0.862 . S
O236 Co204 1.920 . S
O236 C209 1.289 . S
C237 O229 1.258 . S
C237 O230 1.266 . S
Co238 O241 1.970 . S
Co238 N255 1.989 . S
Co238 O263 1.967 . S
Co238 O270 1.920 . S
Co239 O242 1.966 . S
Co239 N248 2.022 . S
Co239 N256 1.993 . S
Co239 O264 1.941 . S
C240 O241 1.258 . S
C240 O242 1.263 . S
O241 Co238 1.970 . S
O241 C240 1.258 . S
O242 Co239 1.966 . S
O242 C240 1.263 . S
C243 O244 1.235 . S
C243 O270 1.289 . S
O244 C243 1.235 . S
C245 C247 1.400 . S
C245 N248 1.351 . S
C245 C250 1.501 . S
C246 C247 1.387 . S
C246 N249 1.341 . S
C247 C245 1.400 . S
C247 C246 1.387 . S
N248 Co239 2.022 . S
N248 C245 1.351 . S
N248 N249 1.365 . S
N249 C246 1.341 . S
N249 N248 1.365 . S
N249 H269 0.862 . S
C250 C245 1.501 . S
C250 H251 0.961 . S
C250 H252 0.961 . S
C250 H253 0.960 . S
H251 C250 0.961 . S
H252 C250 0.961 . S
H253 C250 0.960 . S
C254 N255 1.342 . S
C254 C258 1.401 . S
C254 C259 1.499 . S
N255 Co238 1.989 . S
N255 C254 1.342 . S
N255 N256 1.388 . S
N256 Co239 1.993 . S
N256 N255 1.388 . S
N256 C257 1.346 . S
C257 N256 1.346 . S
C257 C258 1.396 . S
C257 C267 1.510 . S
C258 C254 1.401 . S
C258 C257 1.396 . S
C259 C254 1.499 . S
C259 H260 0.959 . S
C259 H261 0.960 . S
C259 H262 0.961 . S
H260 C259 0.959 . S
H261 C259 0.960 . S
H262 C259 0.961 . S
O263 Co238 1.967 . S
O263 C271 1.258 . S
O264 Co239 1.941 . S
O264 C271 1.266 . S
H265 C267 0.959 . S
H266 C267 0.961 . S
C267 C257 1.510 . S
C267 H265 0.959 . S
C267 H266 0.961 . S
C267 H268 0.960 . S
H268 C267 0.960 . S
H269 N249 0.862 . S
O270 Co238 1.920 . S
O270 C243 1.289 . S
C271 O263 1.258 . S
C271 O264 1.266 . S
Co272 O275 1.970 . S
Co272 N289 1.989 . S
Co272 O297 1.967 . S
Co272 O304 1.920 . S
Co273 O276 1.966 . S
Co273 N282 2.022 . S
Co273 N290 1.993 . S
Co273 O298 1.941 . S
C274 O275 1.258 . S
C274 O276 1.263 . S
O275 Co272 1.970 . S
O275 C274 1.258 . S
O276 Co273 1.966 . S
O276 C274 1.263 . S
C277 O278 1.235 . S
C277 O304 1.289 . S
O278 C277 1.235 . S
C279 C281 1.400 . S
C279 N282 1.351 . S
C279 C284 1.501 . S
C280 C281 1.387 . S
C280 N283 1.341 . S
C281 C279 1.400 . S
C281 C280 1.387 . S
N282 Co273 2.022 . S
N282 C279 1.351 . S
N282 N283 1.365 . S
N283 C280 1.341 . S
N283 N282 1.365 . S
N283 H303 0.862 . S
C284 C279 1.501 . S
C284 H285 0.961 . S
C284 H286 0.961 . S
C284 H287 0.960 . S
H285 C284 0.961 . S
H286 C284 0.961 . S
H287 C284 0.960 . S
C288 N289 1.342 . S
C288 C292 1.401 . S
C288 C293 1.499 . S
N289 Co272 1.989 . S
N289 C288 1.342 . S
N289 N290 1.388 . S
N290 Co273 1.993 . S
N290 N289 1.388 . S
N290 C291 1.346 . S
C291 N290 1.346 . S
C291 C292 1.396 . S
C291 C301 1.510 . S
C292 C288 1.401 . S
C292 C291 1.396 . S
C293 C288 1.499 . S
C293 H294 0.959 . S
C293 H295 0.960 . S
C293 H296 0.961 . S
H294 C293 0.959 . S
H295 C293 0.960 . S
H296 C293 0.961 . S
O297 Co272 1.967 . S
O297 C305 1.258 . S
O298 Co273 1.941 . S
O298 C305 1.266 . S
H299 C301 0.959 . S
H300 C301 0.961 . S
C301 C291 1.510 . S
C301 H299 0.959 . S
C301 H300 0.961 . S
C301 H302 0.960 . S
H302 C301 0.960 . S
H303 N283 0.862 . S
O304 Co272 1.920 . S
O304 C277 1.289 . S
C305 O297 1.258 . S
C305 O298 1.266 . S
Co306 O309 1.970 . S
Co306 N323 1.989 . S
Co306 O331 1.967 . S
Co306 O338 1.920 . S
Co307 O310 1.966 . S
Co307 N316 2.022 . S
Co307 N324 1.993 . S
Co307 O332 1.941 . S
C308 O309 1.258 . S
C308 O310 1.263 . S
O309 Co306 1.970 . S
O309 C308 1.258 . S
O310 Co307 1.966 . S
O310 C308 1.263 . S
C311 O312 1.235 . S
C311 O338 1.289 . S
O312 C311 1.235 . S
C313 C315 1.400 . S
C313 N316 1.351 . S
C313 C318 1.501 . S
C314 C315 1.387 . S
C314 N317 1.341 . S
C315 C313 1.400 . S
C315 C314 1.387 . S
N316 Co307 2.022 . S
N316 C313 1.351 . S
N316 N317 1.365 . S
N317 C314 1.341 . S
N317 N316 1.365 . S
N317 H337 0.862 . S
C318 C313 1.501 . S
C318 H319 0.961 . S
C318 H320 0.961 . S
C318 H321 0.960 . S
H319 C318 0.961 . S
H320 C318 0.961 . S
H321 C318 0.960 . S
C322 N323 1.342 . S
C322 C326 1.401 . S
C322 C327 1.499 . S
N323 Co306 1.989 . S
N323 C322 1.342 . S
N323 N324 1.388 . S
N324 Co307 1.993 . S
N324 N323 1.388 . S
N324 C325 1.346 . S
C325 N324 1.346 . S
C325 C326 1.396 . S
C325 C335 1.510 . S
C326 C322 1.401 . S
C326 C325 1.396 . S
C327 C322 1.499 . S
C327 H328 0.959 . S
C327 H329 0.960 . S
C327 H330 0.961 . S
H328 C327 0.959 . S
H329 C327 0.960 . S
H330 C327 0.961 . S
O331 Co306 1.967 . S
O331 C339 1.258 . S
O332 Co307 1.941 . S
O332 C339 1.266 . S
H333 C335 0.959 . S
H334 C335 0.961 . S
C335 C325 1.510 . S
C335 H333 0.959 . S
C335 H334 0.961 . S
C335 H336 0.960 . S
H336 C335 0.960 . S
H337 N317 0.862 . S
O338 Co306 1.920 . S
O338 C311 1.289 . S
C339 O331 1.258 . S
C339 O332 1.266 . S
Co340 O343 1.970 . S
Co340 N357 1.989 . S
Co340 O365 1.967 . S
Co340 O372 1.920 . S
Co341 O344 1.966 . S
Co341 N350 2.022 . S
Co341 N358 1.993 . S
Co341 O366 1.941 . S
C342 O343 1.258 . S
C342 O344 1.263 . S
O343 Co340 1.970 . S
O343 C342 1.258 . S
O344 Co341 1.966 . S
O344 C342 1.263 . S
C345 O346 1.235 . S
C345 O372 1.289 . S
O346 C345 1.235 . S
C347 C349 1.400 . S
C347 N350 1.351 . S
C347 C352 1.501 . S
C348 C349 1.387 . S
C348 N351 1.341 . S
C349 C347 1.400 . S
C349 C348 1.387 . S
N350 Co341 2.022 . S
N350 C347 1.351 . S
N350 N351 1.365 . S
N351 C348 1.341 . S
N351 N350 1.365 . S
N351 H371 0.862 . S
C352 C347 1.501 . S
C352 H353 0.961 . S
C352 H354 0.961 . S
C352 H355 0.960 . S
H353 C352 0.961 . S
H354 C352 0.961 . S
H355 C352 0.960 . S
C356 N357 1.342 . S
C356 C360 1.401 . S
C356 C361 1.499 . S
N357 Co340 1.989 . S
N357 C356 1.342 . S
N357 N358 1.388 . S
N358 Co341 1.993 . S
N358 N357 1.388 . S
N358 C359 1.346 . S
C359 N358 1.346 . S
C359 C360 1.396 . S
C359 C369 1.510 . S
C360 C356 1.401 . S
C360 C359 1.396 . S
C361 C356 1.499 . S
C361 H362 0.959 . S
C361 H363 0.960 . S
C361 H364 0.961 . S
H362 C361 0.959 . S
H363 C361 0.960 . S
H364 C361 0.961 . S
O365 Co340 1.967 . S
O365 C373 1.258 . S
O366 Co341 1.941 . S
O366 C373 1.266 . S
H367 C369 0.959 . S
H368 C369 0.961 . S
C369 C359 1.510 . S
C369 H367 0.959 . S
C369 H368 0.961 . S
C369 H370 0.960 . S
H370 C369 0.960 . S
H371 N351 0.862 . S
O372 Co340 1.920 . S
O372 C345 1.289 . S
C373 O365 1.258 . S
C373 O366 1.266 . S
Co374 O377 1.970 . S
Co374 N391 1.989 . S
Co374 O399 1.967 . S
Co374 O406 1.920 . S
Co375 O378 1.966 . S
Co375 N384 2.022 . S
Co375 N392 1.993 . S
Co375 O400 1.941 . S
C376 O377 1.258 . S
C376 O378 1.263 . S
O377 Co374 1.970 . S
O377 C376 1.258 . S
O378 Co375 1.966 . S
O378 C376 1.263 . S
C379 O380 1.235 . S
C379 O406 1.289 . S
O380 C379 1.235 . S
C381 C383 1.400 . S
C381 N384 1.351 . S
C381 C386 1.501 . S
C382 C383 1.387 . S
C382 N385 1.341 . S
C383 C381 1.400 . S
C383 C382 1.387 . S
N384 Co375 2.022 . S
N384 C381 1.351 . S
N384 N385 1.365 . S
N385 C382 1.341 . S
N385 N384 1.365 . S
N385 H405 0.862 . S
C386 C381 1.501 . S
C386 H387 0.961 . S
C386 H388 0.961 . S
C386 H389 0.960 . S
H387 C386 0.961 . S
H388 C386 0.961 . S
H389 C386 0.960 . S
C390 N391 1.342 . S
C390 C394 1.401 . S
C390 C395 1.499 . S
N391 Co374 1.989 . S
N391 C390 1.342 . S
N391 N392 1.388 . S
N392 Co375 1.993 . S
N392 N391 1.388 . S
N392 C393 1.346 . S
C393 N392 1.346 . S
C393 C394 1.396 . S
C393 C403 1.510 . S
C394 C390 1.401 . S
C394 C393 1.396 . S
C395 C390 1.499 . S
C395 H396 0.959 . S
C395 H397 0.960 . S
C395 H398 0.961 . S
H396 C395 0.959 . S
H397 C395 0.960 . S
H398 C395 0.961 . S
O399 Co374 1.967 . S
O399 C407 1.258 . S
O400 Co375 1.941 . S
O400 C407 1.266 . S
H401 C403 0.959 . S
H402 C403 0.961 . S
C403 C393 1.510 . S
C403 H401 0.959 . S
C403 H402 0.961 . S
C403 H404 0.960 . S
H404 C403 0.960 . S
H405 N385 0.862 . S
O406 Co374 1.920 . S
O406 C379 1.289 . S
C407 O399 1.258 . S
C407 O400 1.266 . S
Co408 O411 1.970 . S
Co408 N425 1.989 . S
Co408 O433 1.967 . S
Co408 O440 1.920 . S
Co409 O412 1.966 . S
Co409 N418 2.022 . S
Co409 N426 1.993 . S
Co409 O434 1.941 . S
C410 O411 1.258 . S
C410 O412 1.263 . S
O411 Co408 1.970 . S
O411 C410 1.258 . S
O412 Co409 1.966 . S
O412 C410 1.263 . S
C413 O414 1.235 . S
C413 O440 1.289 . S
O414 C413 1.235 . S
C415 C417 1.400 . S
C415 N418 1.351 . S
C415 C420 1.501 . S
C416 C417 1.387 . S
C416 N419 1.341 . S
C417 C415 1.400 . S
C417 C416 1.387 . S
N418 Co409 2.022 . S
N418 C415 1.351 . S
N418 N419 1.365 . S
N419 C416 1.341 . S
N419 N418 1.365 . S
N419 H439 0.862 . S
C420 C415 1.501 . S
C420 H421 0.961 . S
C420 H422 0.961 . S
C420 H423 0.960 . S
H421 C420 0.961 . S
H422 C420 0.961 . S
H423 C420 0.960 . S
C424 N425 1.342 . S
C424 C428 1.401 . S
C424 C429 1.499 . S
N425 Co408 1.989 . S
N425 C424 1.342 . S
N425 N426 1.388 . S
N426 Co409 1.993 . S
N426 N425 1.388 . S
N426 C427 1.346 . S
C427 N426 1.346 . S
C427 C428 1.396 . S
C427 C437 1.510 . S
C428 C424 1.401 . S
C428 C427 1.396 . S
C429 C424 1.499 . S
C429 H430 0.959 . S
C429 H431 0.960 . S
C429 H432 0.961 . S
H430 C429 0.959 . S
H431 C429 0.960 . S
H432 C429 0.961 . S
O433 Co408 1.967 . S
O433 C441 1.258 . S
O434 Co409 1.941 . S
O434 C441 1.266 . S
H435 C437 0.959 . S
H436 C437 0.961 . S
C437 C427 1.510 . S
C437 H435 0.959 . S
C437 H436 0.961 . S
C437 H438 0.960 . S
H438 C437 0.960 . S
H439 N419 0.862 . S
O440 Co408 1.920 . S
O440 C413 1.289 . S
C441 O433 1.258 . S
C441 O434 1.266 . S
Co442 O445 1.970 . S
Co442 N459 1.989 . S
Co442 O467 1.967 . S
Co442 O474 1.920 . S
Co443 O446 1.966 . S
Co443 N452 2.022 . S
Co443 N460 1.993 . S
Co443 O468 1.941 . S
C444 O445 1.258 . S
C444 O446 1.263 . S
O445 Co442 1.970 . S
O445 C444 1.258 . S
O446 Co443 1.966 . S
O446 C444 1.263 . S
C447 O448 1.235 . S
C447 O474 1.289 . S
O448 C447 1.235 . S
C449 C451 1.400 . S
C449 N452 1.351 . S
C449 C454 1.501 . S
C450 C451 1.387 . S
C450 N453 1.341 . S
C451 C449 1.400 . S
C451 C450 1.387 . S
N452 Co443 2.022 . S
N452 C449 1.351 . S
N452 N453 1.365 . S
N453 C450 1.341 . S
N453 N452 1.365 . S
N453 H473 0.862 . S
C454 C449 1.501 . S
C454 H455 0.961 . S
C454 H456 0.961 . S
C454 H457 0.960 . S
H455 C454 0.961 . S
H456 C454 0.961 . S
H457 C454 0.960 . S
C458 N459 1.342 . S
C458 C462 1.401 . S
C458 C463 1.499 . S
N459 Co442 1.989 . S
N459 C458 1.342 . S
N459 N460 1.388 . S
N460 Co443 1.993 . S
N460 N459 1.388 . S
N460 C461 1.346 . S
C461 N460 1.346 . S
C461 C462 1.396 . S
C461 C471 1.510 . S
C462 C458 1.401 . S
C462 C461 1.396 . S
C463 C458 1.499 . S
C463 H464 0.959 . S
C463 H465 0.960 . S
C463 H466 0.961 . S
H464 C463 0.959 . S
H465 C463 0.960 . S
H466 C463 0.961 . S
O467 Co442 1.967 . S
O467 C475 1.258 . S
O468 Co443 1.941 . S
O468 C475 1.266 . S
H469 C471 0.959 . S
H470 C471 0.961 . S
C471 C461 1.510 . S
C471 H469 0.959 . S
C471 H470 0.961 . S
C471 H472 0.960 . S
H472 C471 0.960 . S
H473 N453 0.862 . S
O474 Co442 1.920 . S
O474 C447 1.289 . S
C475 O467 1.258 . S
C475 O468 1.266 . S
Co476 O479 1.970 . S
Co476 N493 1.989 . S
Co476 O501 1.967 . S
Co476 O508 1.920 . S
Co477 O480 1.966 . S
Co477 N486 2.022 . S
Co477 N494 1.993 . S
Co477 O502 1.941 . S
C478 O479 1.258 . S
C478 O480 1.263 . S
O479 Co476 1.970 . S
O479 C478 1.258 . S
O480 Co477 1.966 . S
O480 C478 1.263 . S
C481 O482 1.235 . S
C481 O508 1.289 . S
O482 C481 1.235 . S
C483 C485 1.400 . S
C483 N486 1.351 . S
C483 C488 1.501 . S
C484 C485 1.387 . S
C484 N487 1.341 . S
C485 C483 1.400 . S
C485 C484 1.387 . S
N486 Co477 2.022 . S
N486 C483 1.351 . S
N486 N487 1.365 . S
N487 C484 1.341 . S
N487 N486 1.365 . S
N487 H507 0.862 . S
C488 C483 1.501 . S
C488 H489 0.961 . S
C488 H490 0.961 . S
C488 H491 0.960 . S
H489 C488 0.961 . S
H490 C488 0.961 . S
H491 C488 0.960 . S
C492 N493 1.342 . S
C492 C496 1.401 . S
C492 C497 1.499 . S
N493 Co476 1.989 . S
N493 C492 1.342 . S
N493 N494 1.388 . S
N494 Co477 1.993 . S
N494 N493 1.388 . S
N494 C495 1.346 . S
C495 N494 1.346 . S
C495 C496 1.396 . S
C495 C505 1.510 . S
C496 C492 1.401 . S
C496 C495 1.396 . S
C497 C492 1.499 . S
C497 H498 0.959 . S
C497 H499 0.960 . S
C497 H500 0.961 . S
H498 C497 0.959 . S
H499 C497 0.960 . S
H500 C497 0.961 . S
O501 Co476 1.967 . S
O501 C509 1.258 . S
O502 Co477 1.941 . S
O502 C509 1.266 . S
H503 C505 0.959 . S
H504 C505 0.961 . S
C505 C495 1.510 . S
C505 H503 0.959 . S
C505 H504 0.961 . S
C505 H506 0.960 . S
H506 C505 0.960 . S
H507 N487 0.862 . S
O508 Co476 1.920 . S
O508 C481 1.289 . S
C509 O501 1.258 . S
C509 O502 1.266 . S
Co510 O513 1.970 . S
Co510 N527 1.989 . S
Co510 O535 1.967 . S
Co510 O542 1.920 . S
Co511 O514 1.966 . S
Co511 N520 2.022 . S
Co511 N528 1.993 . S
Co511 O536 1.941 . S
C512 O513 1.258 . S
C512 O514 1.263 . S
O513 Co510 1.970 . S
O513 C512 1.258 . S
O514 Co511 1.966 . S
O514 C512 1.263 . S
C515 O516 1.235 . S
C515 O542 1.289 . S
O516 C515 1.235 . S
C517 C519 1.400 . S
C517 N520 1.351 . S
C517 C522 1.501 . S
C518 C519 1.387 . S
C518 N521 1.341 . S
C519 C517 1.400 . S
C519 C518 1.387 . S
N520 Co511 2.022 . S
N520 C517 1.351 . S
N520 N521 1.365 . S
N521 C518 1.341 . S
N521 N520 1.365 . S
N521 H541 0.862 . S
C522 C517 1.501 . S
C522 H523 0.961 . S
C522 H524 0.961 . S
C522 H525 0.960 . S
H523 C522 0.961 . S
H524 C522 0.961 . S
H525 C522 0.960 . S
C526 N527 1.342 . S
C526 C530 1.401 . S
C526 C531 1.499 . S
N527 Co510 1.989 . S
N527 C526 1.342 . S
N527 N528 1.388 . S
N528 Co511 1.993 . S
N528 N527 1.388 . S
N528 C529 1.346 . S
C529 N528 1.346 . S
C529 C530 1.396 . S
C529 C539 1.510 . S
C530 C526 1.401 . S
C530 C529 1.396 . S
C531 C526 1.499 . S
C531 H532 0.959 . S
C531 H533 0.960 . S
C531 H534 0.961 . S
H532 C531 0.959 . S
H533 C531 0.960 . S
H534 C531 0.961 . S
O535 Co510 1.967 . S
O535 C543 1.258 . S
O536 Co511 1.941 . S
O536 C543 1.266 . S
H537 C539 0.959 . S
H538 C539 0.961 . S
C539 C529 1.510 . S
C539 H537 0.959 . S
C539 H538 0.961 . S
C539 H540 0.960 . S
H540 C539 0.960 . S
H541 N521 0.862 . S
O542 Co510 1.920 . S
O542 C515 1.289 . S
C543 O535 1.258 . S
C543 O536 1.266 . S
C544 C545 1.391 . S
C544 C546 1.394 . S
C544 H560 0.931 . S
C545 C544 1.391 . S
C545 C549 1.376 . S
C546 C544 1.394 . S
C546 C547 1.369 . S
C546 C550 1.531 . S
C547 C546 1.369 . S
C547 C548 1.410 . S
C547 C555 1.503 1_556 S
C548 C547 1.410 . S
C548 C549 1.392 . S
C548 C551 1.511 . S
C549 C545 1.376 . S
C549 C548 1.392 . S
C549 H561 0.929 . S
C550 C546 1.531 . S
C550 H562 0.960 1_556 S
C550 H563 0.962 . S
C550 H564 0.960 . S
C551 C548 1.511 . S
C551 H565 0.961 . S
C551 H566 0.961 1_556 S
C551 H567 0.961 . S
C552 C553 1.370 . S
C552 C554 1.363 . S
C552 H568 0.931 . S
C553 C552 1.370 . S
C553 C557 1.408 . S
C554 C552 1.363 . S
C554 C555 1.370 . S
C554 C558 1.524 . S
C555 C547 1.503 1_554 S
C555 C554 1.370 . S
C555 C556 1.403 . S
C556 C555 1.403 . S
C556 C557 1.404 . S
C556 C559 1.539 . S
C557 C553 1.408 . S
C557 C556 1.404 . S
C557 H569 0.930 . S
C558 C554 1.524 . S
C558 H570 0.984 . S
C558 H571 0.961 1_554 S
C558 H572 0.961 . S
C559 C556 1.539 . S
C559 H573 0.958 . S
C559 H574 0.961 . S
C559 H575 0.970 . S
H560 C544 0.931 . S
H561 C549 0.929 . S
H562 C550 0.960 1_554 S
H563 C550 0.962 . S
H564 C550 0.960 . S
H565 C551 0.961 . S
H566 C551 0.961 1_554 S
H567 C551 0.961 . S
H568 C552 0.931 . S
H569 C557 0.930 . S
H570 C558 0.984 . S
H571 C558 0.961 1_556 S
H572 C558 0.961 . S
H573 C559 0.958 . S
H574 C559 0.961 . S
H575 C559 0.970 . S
C576 C577 1.391 . S
C576 C578 1.394 . S
C576 H592 0.931 . S
C577 C576 1.391 . S
C577 C581 1.376 . S
C578 C576 1.394 . S
C578 C579 1.369 . S
C578 C582 1.531 . S
C579 C578 1.369 . S
C579 C580 1.410 . S
C579 C587 1.503 1_556 S
C580 C579 1.410 . S
C580 C581 1.392 . S
C580 C583 1.511 . S
C581 C577 1.376 . S
C581 C580 1.392 . S
C581 H593 0.929 . S
C582 C578 1.531 . S
C582 H594 0.960 1_556 S
C582 H595 0.962 . S
C582 H596 0.960 . S
C583 C580 1.511 . S
C583 H597 0.961 . S
C583 H598 0.961 1_556 S
C583 H599 0.961 . S
C584 C585 1.370 . S
C584 C586 1.363 . S
C584 H600 0.931 . S
C585 C584 1.370 . S
C585 C589 1.408 . S
C586 C584 1.363 . S
C586 C587 1.370 . S
C586 C590 1.524 . S
C587 C579 1.503 1_554 S
C587 C586 1.370 . S
C587 C588 1.403 . S
C588 C587 1.403 . S
C588 C589 1.404 . S
C588 C591 1.539 . S
C589 C585 1.408 . S
C589 C588 1.404 . S
C589 H601 0.930 . S
C590 C586 1.524 . S
C590 H602 0.984 . S
C590 H603 0.961 1_554 S
C590 H604 0.961 . S
C591 C588 1.539 . S
C591 H605 0.958 . S
C591 H606 0.961 . S
C591 H607 0.970 . S
H592 C576 0.931 . S
H593 C581 0.929 . S
H594 C582 0.960 1_554 S
H595 C582 0.962 . S
H596 C582 0.960 . S
H597 C583 0.961 . S
H598 C583 0.961 1_554 S
H599 C583 0.961 . S
H600 C584 0.931 . S
H601 C589 0.930 . S
H602 C590 0.984 . S
H603 C590 0.961 1_556 S
H604 C590 0.961 . S
H605 C591 0.958 . S
H606 C591 0.961 . S
H607 C591 0.970 . S
C608 C609 1.391 . S
C608 C610 1.394 . S
C608 H624 0.931 . S
C609 C608 1.391 . S
C609 C613 1.376 . S
C610 C608 1.394 . S
C610 C611 1.369 . S
C610 C614 1.531 . S
C611 C610 1.369 . S
C611 C612 1.410 . S
C611 C619 1.503 1_556 S
C612 C611 1.410 . S
C612 C613 1.392 . S
C612 C615 1.511 . S
C613 C609 1.376 . S
C613 C612 1.392 . S
C613 H625 0.929 . S
C614 C610 1.531 . S
C614 H626 0.960 1_556 S
C614 H627 0.962 . S
C614 H628 0.960 . S
C615 C612 1.511 . S
C615 H629 0.961 . S
C615 H630 0.961 1_556 S
C615 H631 0.961 . S
C616 C617 1.370 . S
C616 C618 1.363 . S
C616 H632 0.931 . S
C617 C616 1.370 . S
C617 C621 1.408 . S
C618 C616 1.363 . S
C618 C619 1.370 . S
C618 C622 1.524 . S
C619 C611 1.503 1_554 S
C619 C618 1.370 . S
C619 C620 1.403 . S
C620 C619 1.403 . S
C620 C621 1.404 . S
C620 C623 1.539 . S
C621 C617 1.408 . S
C621 C620 1.404 . S
C621 H633 0.930 . S
C622 C618 1.524 . S
C622 H634 0.984 . S
C622 H635 0.961 1_554 S
C622 H636 0.961 . S
C623 C620 1.539 . S
C623 H637 0.958 . S
C623 H638 0.961 . S
C623 H639 0.970 . S
H624 C608 0.931 . S
H625 C613 0.929 . S
H626 C614 0.960 1_554 S
H627 C614 0.962 . S
H628 C614 0.960 . S
H629 C615 0.961 . S
H630 C615 0.961 1_554 S
H631 C615 0.961 . S
H632 C616 0.931 . S
H633 C621 0.930 . S
H634 C622 0.984 . S
H635 C622 0.961 1_556 S
H636 C622 0.961 . S
H637 C623 0.958 . S
H638 C623 0.961 . S
H639 C623 0.970 . S
C640 C641 1.391 . S
C640 C642 1.394 . S
C640 H656 0.931 . S
C641 C640 1.391 . S
C641 C645 1.376 . S
C642 C640 1.394 . S
C642 C643 1.369 . S
C642 C646 1.531 . S
C643 C642 1.369 . S
C643 C644 1.410 . S
C643 C651 1.503 1_556 S
C644 C643 1.410 . S
C644 C645 1.392 . S
C644 C647 1.511 . S
C645 C641 1.376 . S
C645 C644 1.392 . S
C645 H657 0.929 . S
C646 C642 1.531 . S
C646 H658 0.960 1_556 S
C646 H659 0.962 . S
C646 H660 0.960 . S
C647 C644 1.511 . S
C647 H661 0.961 . S
C647 H662 0.961 1_556 S
C647 H663 0.961 . S
C648 C649 1.370 . S
C648 C650 1.363 . S
C648 H664 0.931 . S
C649 C648 1.370 . S
C649 C653 1.408 . S
C650 C648 1.363 . S
C650 C651 1.370 . S
C650 C654 1.524 . S
C651 C643 1.503 1_554 S
C651 C650 1.370 . S
C651 C652 1.403 . S
C652 C651 1.403 . S
C652 C653 1.404 . S
C652 C655 1.539 . S
C653 C649 1.408 . S
C653 C652 1.404 . S
C653 H665 0.930 . S
C654 C650 1.524 . S
C654 H666 0.984 . S
C654 H667 0.961 1_554 S
C654 H668 0.961 . S
C655 C652 1.539 . S
C655 H669 0.958 . S
C655 H670 0.961 . S
C655 H671 0.970 . S
H656 C640 0.931 . S
H657 C645 0.929 . S
H658 C646 0.960 1_554 S
H659 C646 0.962 . S
H660 C646 0.960 . S
H661 C647 0.961 . S
H662 C647 0.961 1_554 S
H663 C647 0.961 . S
H664 C648 0.931 . S
H665 C653 0.930 . S
H666 C654 0.984 . S
H667 C654 0.961 1_556 S
H668 C654 0.961 . S
H669 C655 0.958 . S
H670 C655 0.961 . S
H671 C655 0.970 . S
C672 C673 1.391 . S
C672 C674 1.394 . S
C672 H688 0.931 . S
C673 C672 1.391 . S
C673 C677 1.376 . S
C674 C672 1.394 . S
C674 C675 1.369 . S
C674 C678 1.531 . S
C675 C674 1.369 . S
C675 C676 1.410 . S
C675 C683 1.503 . S
C676 C675 1.410 . S
C676 C677 1.392 . S
C676 C679 1.511 . S
C677 C673 1.376 . S
C677 C676 1.392 . S
C677 H689 0.929 . S
C678 C674 1.531 . S
C678 H690 0.960 . S
C678 H691 0.962 . S
C678 H692 0.960 . S
C679 C676 1.511 . S
C679 H693 0.961 . S
C679 H694 0.961 . S
C679 H695 0.961 . S
C680 C681 1.370 . S
C680 C682 1.363 . S
C680 H696 0.931 . S
C681 C680 1.370 . S
C681 C685 1.408 . S
C682 C680 1.363 . S
C682 C683 1.370 . S
C682 C686 1.524 . S
C683 C675 1.503 . S
C683 C682 1.370 . S
C683 C684 1.403 . S
C684 C683 1.403 . S
C684 C685 1.404 . S
C684 C687 1.539 . S
C685 C681 1.408 . S
C685 C684 1.404 . S
C685 H697 0.930 . S
C686 C682 1.524 . S
C686 H698 0.956 . S
C686 H699 0.961 . S
C686 H700 0.961 . S
C687 C684 1.539 . S
C687 H701 0.958 . S
C687 H702 0.961 . S
C687 H703 0.960 . S
H688 C672 0.931 . S
H689 C677 0.929 . S
H690 C678 0.960 . S
H691 C678 0.962 . S
H692 C678 0.960 . S
H693 C679 0.961 . S
H694 C679 0.961 . S
H695 C679 0.961 . S
H696 C680 0.931 . S
H697 C685 0.930 . S
H698 C686 0.956 . S
H699 C686 0.961 . S
H700 C686 0.961 . S
H701 C687 0.958 . S
H702 C687 0.961 . S
H703 C687 0.960 . S
C704 C705 1.391 . S
C704 C706 1.394 . S
C704 H720 0.931 . S
C705 C704 1.391 . S
C705 C709 1.376 . S
C706 C704 1.394 . S
C706 C707 1.369 . S
C706 C710 1.531 . S
C707 C706 1.369 . S
C707 C708 1.410 . S
C707 C715 1.503 . S
C708 C707 1.410 . S
C708 C709 1.392 . S
C708 C711 1.511 . S
C709 C705 1.376 . S
C709 C708 1.392 . S
C709 H721 0.929 . S
C710 C706 1.531 . S
C710 H722 0.960 . S
C710 H723 0.962 . S
C710 H724 0.960 . S
C711 C708 1.511 . S
C711 H725 0.961 . S
C711 H726 0.961 . S
C711 H727 0.961 . S
C712 C713 1.370 . S
C712 C714 1.363 . S
C712 H728 0.931 . S
C713 C712 1.370 . S
C713 C717 1.408 . S
C714 C712 1.363 . S
C714 C715 1.370 . S
C714 C718 1.524 . S
C715 C707 1.503 . S
C715 C714 1.370 . S
C715 C716 1.403 . S
C716 C715 1.403 . S
C716 C717 1.404 . S
C716 C719 1.539 . S
C717 C713 1.408 . S
C717 C716 1.404 . S
C717 H729 0.930 . S
C718 C714 1.524 . S
C718 H730 0.956 . S
C718 H731 0.961 . S
C718 H732 0.961 . S
C719 C716 1.539 . S
C719 H733 0.958 . S
C719 H734 0.961 . S
C719 H735 0.960 . S
H720 C704 0.931 . S
H721 C709 0.929 . S
H722 C710 0.960 . S
H723 C710 0.962 . S
H724 C710 0.960 . S
H725 C711 0.961 . S
H726 C711 0.961 . S
H727 C711 0.961 . S
H728 C712 0.931 . S
H729 C717 0.930 . S
H730 C718 0.956 . S
H731 C718 0.961 . S
H732 C718 0.961 . S
H733 C719 0.958 . S
H734 C719 0.961 . S
H735 C719 0.960 . S
C736 C737 1.391 . S
C736 C738 1.394 . S
C736 H752 0.931 . S
C737 C736 1.391 . S
C737 C741 1.376 . S
C738 C736 1.394 . S
C738 C739 1.369 . S
C738 C742 1.531 . S
C739 C738 1.369 . S
C739 C740 1.410 . S
C739 C747 1.503 . S
C740 C739 1.410 . S
C740 C741 1.392 . S
C740 C743 1.511 . S
C741 C737 1.376 . S
C741 C740 1.392 . S
C741 H753 0.929 . S
C742 C738 1.531 . S
C742 H754 0.960 . S
C742 H755 0.962 . S
C742 H756 0.960 . S
C743 C740 1.511 . S
C743 H757 0.961 . S
C743 H758 0.961 . S
C743 H759 0.961 . S
C744 C745 1.370 . S
C744 C746 1.363 . S
C744 H760 0.931 . S
C745 C744 1.370 . S
C745 C749 1.408 . S
C746 C744 1.363 . S
C746 C747 1.370 . S
C746 C750 1.524 . S
C747 C739 1.503 . S
C747 C746 1.370 . S
C747 C748 1.403 . S
C748 C747 1.403 . S
C748 C749 1.404 . S
C748 C751 1.539 . S
C749 C745 1.408 . S
C749 C748 1.404 . S
C749 H761 0.930 . S
C750 C746 1.524 . S
C750 H762 0.956 . S
C750 H763 0.961 . S
C750 H764 0.961 . S
C751 C748 1.539 . S
C751 H765 0.958 . S
C751 H766 0.961 . S
C751 H767 0.960 . S
H752 C736 0.931 . S
H753 C741 0.929 . S
H754 C742 0.960 . S
H755 C742 0.962 . S
H756 C742 0.960 . S
H757 C743 0.961 . S
H758 C743 0.961 . S
H759 C743 0.961 . S
H760 C744 0.931 . S
H761 C749 0.930 . S
H762 C750 0.956 . S
H763 C750 0.961 . S
H764 C750 0.961 . S
H765 C751 0.958 . S
H766 C751 0.961 . S
H767 C751 0.960 . S
C768 C769 1.391 . S
C768 C770 1.394 . S
C768 H784 0.931 . S
C769 C768 1.391 . S
C769 C773 1.376 . S
C770 C768 1.394 . S
C770 C771 1.369 . S
C770 C774 1.531 . S
C771 C770 1.369 . S
C771 C772 1.410 . S
C771 C779 1.503 . S
C772 C771 1.410 . S
C772 C773 1.392 . S
C772 C775 1.511 . S
C773 C769 1.376 . S
C773 C772 1.392 . S
C773 H785 0.929 . S
C774 C770 1.531 . S
C774 H786 0.960 . S
C774 H787 0.962 . S
C774 H788 0.960 . S
C775 C772 1.511 . S
C775 H789 0.961 . S
C775 H790 0.961 . S
C775 H791 0.961 . S
C776 C777 1.370 . S
C776 C778 1.363 . S
C776 H792 0.931 . S
C777 C776 1.370 . S
C777 C781 1.408 . S
C778 C776 1.363 . S
C778 C779 1.370 . S
C778 C782 1.524 . S
C779 C771 1.503 . S
C779 C778 1.370 . S
C779 C780 1.403 . S
C780 C779 1.403 . S
C780 C781 1.404 . S
C780 C783 1.539 . S
C781 C777 1.408 . S
C781 C780 1.404 . S
C781 H793 0.930 . S
C782 C778 1.524 . S
C782 H794 0.956 . S
C782 H795 0.961 . S
C782 H796 0.961 . S
C783 C780 1.539 . S
C783 H797 0.958 . S
C783 H798 0.961 . S
C783 H799 0.960 . S
H784 C768 0.931 . S
H785 C773 0.929 . S
H786 C774 0.960 . S
H787 C774 0.962 . S
H788 C774 0.960 . S
H789 C775 0.961 . S
H790 C775 0.961 . S
H791 C775 0.961 . S
H792 C776 0.931 . S
H793 C781 0.930 . S
H794 C782 0.956 . S
H795 C782 0.961 . S
H796 C782 0.961 . S
H797 C783 0.958 . S
H798 C783 0.961 . S
H799 C783 0.960 . S
C800 C801 1.391 . S
C800 C802 1.394 . S
C800 H816 0.931 1_545 S
C801 C800 1.391 . S
C801 C805 1.376 . S
C802 C800 1.394 . S
C802 C803 1.369 . S
C802 C806 1.531 . S
C803 C802 1.369 . S
C803 C804 1.410 . S
C803 C811 1.503 . S
C804 C803 1.410 . S
C804 C805 1.392 . S
C804 C807 1.511 . S
C805 C801 1.376 . S
C805 C804 1.392 . S
C805 H817 0.929 . S
C806 C802 1.531 . S
C806 H818 0.960 . S
C806 H819 0.962 . S
C806 H820 0.960 . S
C807 C804 1.511 . S
C807 H821 0.961 . S
C807 H822 0.961 . S
C807 H823 0.961 . S
C808 C809 1.370 . S
C808 C810 1.363 . S
C808 H824 0.931 . S
C809 C808 1.370 . S
C809 C813 1.408 . S
C810 C808 1.363 . S
C810 C811 1.370 . S
C810 C814 1.524 . S
C811 C803 1.503 . S
C811 C810 1.370 . S
C811 C812 1.403 . S
C812 C811 1.403 . S
C812 C813 1.404 . S
C812 C815 1.539 . S
C813 C809 1.408 . S
C813 C812 1.404 . S
C813 H825 0.930 . S
C814 C810 1.524 . S
C814 H826 0.956 . S
C814 H827 0.961 . S
C814 H828 0.961 . S
C815 C812 1.539 . S
C815 H829 0.958 . S
C815 H830 0.961 . S
C815 H831 0.960 . S
H816 C800 0.931 1_565 S
H817 C805 0.929 . S
H818 C806 0.960 . S
H819 C806 0.962 . S
H820 C806 0.960 . S
H821 C807 0.961 . S
H822 C807 0.961 . S
H823 C807 0.961 . S
H824 C808 0.931 . S
H825 C813 0.930 . S
H826 C814 0.956 . S
H827 C814 0.961 . S
H828 C814 0.961 . S
H829 C815 0.958 . S
H830 C815 0.961 . S
H831 C815 0.960 . S
C832 C833 1.391 . S
C832 C834 1.394 . S
C832 H848 0.931 . S
C833 C832 1.391 . S
C833 C837 1.376 . S
C834 C832 1.394 . S
C834 C835 1.369 . S
C834 C838 1.531 . S
C835 C834 1.369 . S
C835 C836 1.410 . S
C835 C843 1.503 . S
C836 C835 1.410 . S
C836 C837 1.392 . S
C836 C839 1.511 . S
C837 C833 1.376 . S
C837 C836 1.392 . S
C837 H849 0.929 . S
C838 C834 1.531 . S
C838 H850 0.960 . S
C838 H851 0.962 . S
C838 H852 0.960 . S
C839 C836 1.511 . S
C839 H853 0.961 . S
C839 H854 0.961 . S
C839 H855 0.961 . S
C840 C841 1.370 . S
C840 C842 1.363 . S
C840 H856 0.926 1_655 S
C841 C840 1.370 . S
C841 C845 1.408 . S
C842 C840 1.363 . S
C842 C843 1.370 . S
C842 C846 1.524 . S
C843 C835 1.503 . S
C843 C842 1.370 . S
C843 C844 1.403 . S
C844 C843 1.403 . S
C844 C845 1.404 . S
C844 C847 1.539 . S
C845 C841 1.408 . S
C845 C844 1.404 . S
C845 H857 0.930 . S
C846 C842 1.524 . S
C846 H858 0.956 . S
C846 H859 0.961 . S
C846 H860 0.961 . S
C847 C844 1.539 . S
C847 H861 0.958 . S
C847 H862 0.961 . S
C847 H863 0.960 . S
H848 C832 0.931 . S
H849 C837 0.929 . S
H850 C838 0.960 . S
H851 C838 0.962 . S
H852 C838 0.960 . S
H853 C839 0.961 . S
H854 C839 0.961 . S
H855 C839 0.961 . S
H856 C840 0.926 1_455 S
H857 C845 0.930 . S
H858 C846 0.956 . S
H859 C846 0.961 . S
H860 C846 0.961 . S
H861 C847 0.958 . S
H862 C847 0.961 . S
H863 C847 0.960 . S
C864 C865 1.391 . S
C864 C866 1.394 . S
C864 H880 0.931 . S
C865 C864 1.391 . S
C865 C869 1.376 . S
C866 C864 1.394 . S
C866 C867 1.369 . S
C866 C870 1.531 . S
C867 C866 1.369 . S
C867 C868 1.410 . S
C867 C875 1.503 . S
C868 C867 1.410 . S
C868 C869 1.392 . S
C868 C871 1.511 . S
C869 C865 1.376 . S
C869 C868 1.392 . S
C869 H881 0.929 . S
C870 C866 1.531 . S
C870 H882 0.960 . S
C870 H883 0.962 . S
C870 H884 0.960 . S
C871 C868 1.511 . S
C871 H885 0.961 . S
C871 H886 0.961 . S
C871 H887 0.961 . S
C872 C873 1.370 . S
C872 C874 1.363 . S
C872 H888 0.931 . S
C873 C872 1.370 . S
C873 C877 1.408 . S
C874 C872 1.363 . S
C874 C875 1.370 . S
C874 C878 1.524 . S
C875 C867 1.503 . S
C875 C874 1.370 . S
C875 C876 1.403 . S
C876 C875 1.403 . S
C876 C877 1.404 . S
C876 C879 1.539 . S
C877 C873 1.408 . S
C877 C876 1.404 . S
C877 H889 0.930 . S
C878 C874 1.524 . S
C878 H890 0.956 . S
C878 H891 0.961 . S
C878 H892 0.961 . S
C879 C876 1.539 . S
C879 H893 0.958 . S
C879 H894 0.961 . S
C879 H895 0.960 . S
H880 C864 0.931 . S
H881 C869 0.929 . S
H882 C870 0.960 . S
H883 C870 0.962 . S
H884 C870 0.960 . S
H885 C871 0.961 . S
H886 C871 0.961 . S
H887 C871 0.961 . S
H888 C872 0.931 . S
H889 C877 0.930 . S
H890 C878 0.956 . S
H891 C878 0.961 . S
H892 C878 0.961 . S
H893 C879 0.958 . S
H894 C879 0.961 . S
H895 C879 0.960 . S
C896 C897 1.391 . S
C896 C898 1.394 . S
C896 H912 0.931 . S
C897 C896 1.391 . S
C897 C901 1.376 . S
C898 C896 1.394 . S
C898 C899 1.369 . S
C898 C902 1.531 . S
C899 C898 1.369 . S
C899 C900 1.410 . S
C899 C907 1.503 . S
C900 C899 1.410 . S
C900 C901 1.392 . S
C900 C903 1.511 . S
C901 C897 1.376 . S
C901 C900 1.392 . S
C901 H913 0.929 . S
C902 C898 1.531 . S
C902 H914 0.960 . S
C902 H915 0.962 . S
C902 H916 0.960 . S
C903 C900 1.511 . S
C903 H917 0.961 . S
C903 H918 0.961 . S
C903 H919 0.961 . S
C904 C905 1.370 . S
C904 C906 1.363 . S
C904 H920 0.931 . S
C905 C904 1.370 . S
C905 C909 1.408 . S
C906 C904 1.363 . S
C906 C907 1.370 . S
C906 C910 1.524 . S
C907 C899 1.503 . S
C907 C906 1.370 . S
C907 C908 1.403 . S
C908 C907 1.403 . S
C908 C909 1.404 . S
C908 C911 1.539 . S
C909 C905 1.408 . S
C909 C908 1.404 . S
C909 H921 0.930 . S
C910 C906 1.524 . S
C910 H922 0.956 . S
C910 H923 0.961 . S
C910 H924 0.961 . S
C911 C908 1.539 . S
C911 H925 0.958 . S
C911 H926 0.961 . S
C911 H927 0.960 . S
H912 C896 0.931 . S
H913 C901 0.929 . S
H914 C902 0.960 . S
H915 C902 0.962 . S
H916 C902 0.960 . S
H917 C903 0.961 . S
H918 C903 0.961 . S
H919 C903 0.961 . S
H920 C904 0.931 . S
H921 C909 0.930 . S
H922 C910 0.956 . S
H923 C910 0.961 . S
H924 C910 0.961 . S
H925 C911 0.958 . S
H926 C911 0.961 . S
H927 C911 0.960 . S
C928 C929 1.391 . S
C928 C930 1.394 . S
C928 H944 0.931 . S
C929 C928 1.391 . S
C929 C933 1.376 . S
C930 C928 1.394 . S
C930 C931 1.369 . S
C930 C934 1.531 . S
C931 C930 1.369 . S
C931 C932 1.410 . S
C931 C939 1.503 . S
C932 C931 1.410 . S
C932 C933 1.392 . S
C932 C935 1.511 . S
C933 C929 1.376 . S
C933 C932 1.392 . S
C933 H945 0.929 . S
C934 C930 1.531 . S
C934 H946 0.960 . S
C934 H947 0.962 . S
C934 H948 0.960 . S
C935 C932 1.511 . S
C935 H949 0.961 . S
C935 H950 0.961 . S
C935 H951 0.961 . S
C936 C937 1.370 . S
C936 C938 1.363 . S
C936 H952 0.931 . S
C937 C936 1.370 . S
C937 C941 1.408 . S
C938 C936 1.363 . S
C938 C939 1.370 . S
C938 C942 1.524 . S
C939 C931 1.503 . S
C939 C938 1.370 . S
C939 C940 1.403 . S
C940 C939 1.403 . S
C940 C941 1.404 . S
C940 C943 1.539 . S
C941 C937 1.408 . S
C941 C940 1.404 . S
C941 H953 0.930 . S
C942 C938 1.524 . S
C942 H954 0.956 . S
C942 H955 0.961 . S
C942 H956 0.961 . S
C943 C940 1.539 . S
C943 H957 0.958 . S
C943 H958 0.961 . S
C943 H959 0.960 . S
H944 C928 0.931 . S
H945 C933 0.929 . S
H946 C934 0.960 . S
H947 C934 0.962 . S
H948 C934 0.960 . S
H949 C935 0.961 . S
H950 C935 0.961 . S
H951 C935 0.961 . S
H952 C936 0.931 . S
H953 C941 0.930 . S
H954 C942 0.956 . S
H955 C942 0.961 . S
H956 C942 0.961 . S
H957 C943 0.958 . S
H958 C943 0.961 . S
H959 C943 0.960 . S
C960 C961 1.391 . S
C960 C962 1.394 . S
C960 H976 0.931 . S
C961 C960 1.391 . S
C961 C965 1.376 . S
C962 C960 1.394 . S
C962 C963 1.369 . S
C962 C966 1.531 . S
C963 C962 1.369 . S
C963 C964 1.410 . S
C963 C971 1.503 . S
C964 C963 1.410 . S
C964 C965 1.392 . S
C964 C967 1.511 . S
C965 C961 1.376 . S
C965 C964 1.392 . S
C965 H977 0.929 . S
C966 C962 1.531 . S
C966 H978 0.960 . S
C966 H979 0.962 . S
C966 H980 0.960 . S
C967 C964 1.511 . S
C967 H981 0.961 . S
C967 H982 0.961 . S
C967 H983 0.961 . S
C968 C969 1.370 . S
C968 C970 1.363 . S
C968 H984 0.931 . S
C969 C968 1.370 . S
C969 C973 1.408 . S
C970 C968 1.363 . S
C970 C971 1.370 . S
C970 C974 1.524 . S
C971 C963 1.503 . S
C971 C970 1.370 . S
C971 C972 1.403 . S
C972 C971 1.403 . S
C972 C973 1.404 . S
C972 C975 1.539 . S
C973 C969 1.408 . S
C973 C972 1.404 . S
C973 H985 0.930 . S
C974 C970 1.524 . S
C974 H986 0.956 . S
C974 H987 0.961 . S
C974 H988 0.961 . S
C975 C972 1.539 . S
C975 H989 0.958 . S
C975 H990 0.961 . S
C975 H991 0.960 . S
H976 C960 0.931 . S
H977 C965 0.929 . S
H978 C966 0.960 . S
H979 C966 0.962 . S
H980 C966 0.960 . S
H981 C967 0.961 . S
H982 C967 0.961 . S
H983 C967 0.961 . S
H984 C968 0.931 . S
H985 C973 0.930 . S
H986 C974 0.956 . S
H987 C974 0.961 . S
H988 C974 0.961 . S
H989 C975 0.958 . S
H990 C975 0.961 . S
H991 C975 0.960 . S
C992 C993 1.391 . S
C992 C994 1.394 . S
C992 H1008 0.931 . S
C993 C992 1.391 . S
C993 C997 1.376 . S
C994 C992 1.394 . S
C994 C995 1.369 . S
C994 C998 1.531 . S
C995 C994 1.369 . S
C995 C996 1.410 . S
C995 C1003 1.503 . S
C996 C995 1.410 . S
C996 C997 1.392 . S
C996 C999 1.511 . S
C997 C993 1.376 . S
C997 C996 1.392 . S
C997 H1009 0.929 . S
C998 C994 1.531 . S
C998 H1010 0.960 . S
C998 H1011 0.962 . S
C998 H1012 0.960 . S
C999 C996 1.511 . S
C999 H1013 0.961 . S
C999 H1014 0.961 . S
C999 H1015 0.961 . S
C1000 C1001 1.370 . S
C1000 C1002 1.363 . S
C1000 H1016 0.931 . S
C1001 C1000 1.370 . S
C1001 C1005 1.408 . S
C1002 C1000 1.363 . S
C1002 C1003 1.370 . S
C1002 C1006 1.524 . S
C1003 C995 1.503 . S
C1003 C1002 1.370 . S
C1003 C1004 1.403 . S
C1004 C1003 1.403 . S
C1004 C1005 1.404 . S
C1004 C1007 1.539 . S
C1005 C1001 1.408 . S
C1005 C1004 1.404 . S
C1005 H1017 0.930 . S
C1006 C1002 1.524 . S
C1006 H1018 0.956 . S
C1006 H1019 0.961 . S
C1006 H1020 0.961 . S
C1007 C1004 1.539 . S
C1007 H1021 0.958 . S
C1007 H1022 0.961 . S
C1007 H1023 0.960 . S
H1008 C992 0.931 . S
H1009 C997 0.929 . S
H1010 C998 0.960 . S
H1011 C998 0.962 . S
H1012 C998 0.960 . S
H1013 C999 0.961 . S
H1014 C999 0.961 . S
H1015 C999 0.961 . S
H1016 C1000 0.931 . S
H1017 C1005 0.930 . S
H1018 C1006 0.956 . S
H1019 C1006 0.961 . S
H1020 C1006 0.961 . S
H1021 C1007 0.958 . S
H1022 C1007 0.961 . S
H1023 C1007 0.960 . S
C1024 C1025 1.391 . S
C1024 C1026 1.394 . S
C1024 H1040 0.931 . S
C1025 C1024 1.391 . S
C1025 C1029 1.376 . S
C1026 C1024 1.394 . S
C1026 C1027 1.369 . S
C1026 C1030 1.531 . S
C1027 C1026 1.369 . S
C1027 C1028 1.410 . S
C1027 C1035 1.503 . S
C1028 C1027 1.410 . S
C1028 C1029 1.392 . S
C1028 C1031 1.511 . S
C1029 C1025 1.376 . S
C1029 C1028 1.392 . S
C1029 H1041 0.929 . S
C1030 C1026 1.531 . S
C1030 H1042 0.960 . S
C1030 H1043 0.962 . S
C1030 H1044 0.960 . S
C1031 C1028 1.511 . S
C1031 H1045 0.961 . S
C1031 H1046 0.961 . S
C1031 H1047 0.961 . S
C1032 C1033 1.370 . S
C1032 C1034 1.363 . S
C1032 H1048 0.931 . S
C1033 C1032 1.370 . S
C1033 C1037 1.408 . S
C1034 C1032 1.363 . S
C1034 C1035 1.370 . S
C1034 C1038 1.524 . S
C1035 C1027 1.503 . S
C1035 C1034 1.370 . S
C1035 C1036 1.403 . S
C1036 C1035 1.403 . S
C1036 C1037 1.404 . S
C1036 C1039 1.539 . S
C1037 C1033 1.408 . S
C1037 C1036 1.404 . S
C1037 H1049 0.930 . S
C1038 C1034 1.524 . S
C1038 H1050 0.956 . S
C1038 H1051 0.961 . S
C1038 H1052 0.961 . S
C1039 C1036 1.539 . S
C1039 H1053 0.958 . S
C1039 H1054 0.961 . S
C1039 H1055 0.960 . S
H1040 C1024 0.931 . S
H1041 C1029 0.929 . S
H1042 C1030 0.960 . S
H1043 C1030 0.962 . S
H1044 C1030 0.960 . S
H1045 C1031 0.961 . S
H1046 C1031 0.961 . S
H1047 C1031 0.961 . S
H1048 C1032 0.931 . S
H1049 C1037 0.930 . S
H1050 C1038 0.956 . S
H1051 C1038 0.961 . S
H1052 C1038 0.961 . S
H1053 C1039 0.958 . S
H1054 C1039 0.961 . S
H1055 C1039 0.960 . S
C1056 C1057 1.391 . S
C1056 C1058 1.394 . S
C1056 H1072 0.931 . S
C1057 C1056 1.391 . S
C1057 C1061 1.376 . S
C1058 C1056 1.394 . S
C1058 C1059 1.369 . S
C1058 C1062 1.531 . S
C1059 C1058 1.369 . S
C1059 C1060 1.410 . S
C1059 C1067 1.503 . S
C1060 C1059 1.410 . S
C1060 C1061 1.392 . S
C1060 C1063 1.511 . S
C1061 C1057 1.376 . S
C1061 C1060 1.392 . S
C1061 H1073 0.929 . S
C1062 C1058 1.531 . S
C1062 H1074 0.960 . S
C1062 H1075 0.962 . S
C1062 H1076 0.960 . S
C1063 C1060 1.511 . S
C1063 H1077 0.961 . S
C1063 H1078 0.961 . S
C1063 H1079 0.961 . S
C1064 C1065 1.370 . S
C1064 C1066 1.363 . S
C1064 H1080 0.931 . S
C1065 C1064 1.370 . S
C1065 C1069 1.408 . S
C1066 C1064 1.363 . S
C1066 C1067 1.370 . S
C1066 C1070 1.524 . S
C1067 C1059 1.503 . S
C1067 C1066 1.370 . S
C1067 C1068 1.403 . S
C1068 C1067 1.403 . S
C1068 C1069 1.404 . S
C1068 C1071 1.539 . S
C1069 C1065 1.408 . S
C1069 C1068 1.404 . S
C1069 H1081 0.930 . S
C1070 C1066 1.524 . S
C1070 H1082 0.956 . S
C1070 H1083 0.961 . S
C1070 H1084 0.961 . S
C1071 C1068 1.539 . S
C1071 H1085 0.958 . S
C1071 H1086 0.961 . S
C1071 H1087 0.960 . S
H1072 C1056 0.931 . S
H1073 C1061 0.929 . S
H1074 C1062 0.960 . S
H1075 C1062 0.962 . S
H1076 C1062 0.960 . S
H1077 C1063 0.961 . S
H1078 C1063 0.961 . S
H1079 C1063 0.961 . S
H1080 C1064 0.931 . S
H1081 C1069 0.930 . S
H1082 C1070 0.956 . S
H1083 C1070 0.961 . S
H1084 C1070 0.961 . S
H1085 C1071 0.958 . S
H1086 C1071 0.961 . S
H1087 C1071 0.960 . S
C1088 C1089 1.391 . S
C1088 C1090 1.394 . S
C1088 H1104 0.931 . S
C1089 C1088 1.391 . S
C1089 C1093 1.376 . S
C1090 C1088 1.394 . S
C1090 C1091 1.369 . S
C1090 C1094 1.531 . S
C1091 C1090 1.369 . S
C1091 C1092 1.410 . S
C1091 C1099 1.503 . S
C1092 C1091 1.410 . S
C1092 C1093 1.392 . S
C1092 C1095 1.511 . S
C1093 C1089 1.376 . S
C1093 C1092 1.392 . S
C1093 H1105 0.929 . S
C1094 C1090 1.531 . S
C1094 H1106 0.960 . S
C1094 H1107 0.962 . S
C1094 H1108 0.960 . S
C1095 C1092 1.511 . S
C1095 H1109 0.961 . S
C1095 H1110 0.961 . S
C1095 H1111 0.961 . S
C1096 C1097 1.370 . S
C1096 C1098 1.363 . S
C1096 H1112 0.931 . S
C1097 C1096 1.370 . S
C1097 C1101 1.408 . S
C1098 C1096 1.363 . S
C1098 C1099 1.370 . S
C1098 C1102 1.524 . S
C1099 C1091 1.503 . S
C1099 C1098 1.370 . S
C1099 C1100 1.403 . S
C1100 C1099 1.403 . S
C1100 C1101 1.404 . S
C1100 C1103 1.539 . S
C1101 C1097 1.408 . S
C1101 C1100 1.404 . S
C1101 H1113 0.930 . S
C1102 C1098 1.524 . S
C1102 H1114 0.956 . S
C1102 H1115 0.961 . S
C1102 H1116 0.961 . S
C1103 C1100 1.539 . S
C1103 H1117 0.958 . S
C1103 H1118 0.961 . S
C1103 H1119 0.960 . S
H1104 C1088 0.931 . S
H1105 C1093 0.929 . S
H1106 C1094 0.960 . S
H1107 C1094 0.962 . S
H1108 C1094 0.960 . S
H1109 C1095 0.961 . S
H1110 C1095 0.961 . S
H1111 C1095 0.961 . S
H1112 C1096 0.931 . S
H1113 C1101 0.930 . S
H1114 C1102 0.956 . S
H1115 C1102 0.961 . S
H1116 C1102 0.961 . S
H1117 C1103 0.958 . S
H1118 C1103 0.961 . S
H1119 C1103 0.960 . S
C1120 C1121 1.391 . S
C1120 C1122 1.394 . S
C1120 H1136 0.931 . S
C1121 C1120 1.391 . S
C1121 C1125 1.376 . S
C1122 C1120 1.394 . S
C1122 C1123 1.369 . S
C1122 C1126 1.531 . S
C1123 C1122 1.369 . S
C1123 C1124 1.410 . S
C1123 C1131 1.503 . S
C1124 C1123 1.410 . S
C1124 C1125 1.392 . S
C1124 C1127 1.511 . S
C1125 C1121 1.376 . S
C1125 C1124 1.392 . S
C1125 H1137 0.929 . S
C1126 C1122 1.531 . S
C1126 H1138 0.960 . S
C1126 H1139 0.962 . S
C1126 H1140 0.960 . S
C1127 C1124 1.511 . S
C1127 H1141 0.961 . S
C1127 H1142 0.961 . S
C1127 H1143 0.961 . S
C1128 C1129 1.370 . S
C1128 C1130 1.363 . S
C1128 H1144 0.931 . S
C1129 C1128 1.370 . S
C1129 C1133 1.408 . S
C1130 C1128 1.363 . S
C1130 C1131 1.370 . S
C1130 C1134 1.524 . S
C1131 C1123 1.503 . S
C1131 C1130 1.370 . S
C1131 C1132 1.403 . S
C1132 C1131 1.403 . S
C1132 C1133 1.404 . S
C1132 C1135 1.539 . S
C1133 C1129 1.408 . S
C1133 C1132 1.404 . S
C1133 H1145 0.930 . S
C1134 C1130 1.524 . S
C1134 H1146 0.956 . S
C1134 H1147 0.961 . S
C1134 H1148 0.961 . S
C1135 C1132 1.539 . S
C1135 H1149 0.958 . S
C1135 H1150 0.961 . S
C1135 H1151 0.960 . S
H1136 C1120 0.931 . S
H1137 C1125 0.929 . S
H1138 C1126 0.960 . S
H1139 C1126 0.962 . S
H1140 C1126 0.960 . S
H1141 C1127 0.961 . S
H1142 C1127 0.961 . S
H1143 C1127 0.961 . S
H1144 C1128 0.931 . S
H1145 C1133 0.930 . S
H1146 C1134 0.956 . S
H1147 C1134 0.961 . S
H1148 C1134 0.961 . S
H1149 C1135 0.958 . S
H1150 C1135 0.961 . S
H1151 C1135 0.960 . S
C1152 C1153 1.391 . S
C1152 C1154 1.394 . S
C1152 H1168 0.931 . S
C1153 C1152 1.391 . S
C1153 C1157 1.376 . S
C1154 C1152 1.394 . S
C1154 C1155 1.369 . S
C1154 C1158 1.531 . S
C1155 C1154 1.369 . S
C1155 C1156 1.410 . S
C1155 C1163 1.503 . S
C1156 C1155 1.410 . S
C1156 C1157 1.392 . S
C1156 C1159 1.511 . S
C1157 C1153 1.376 . S
C1157 C1156 1.392 . S
C1157 H1169 0.929 . S
C1158 C1154 1.531 . S
C1158 H1170 0.960 . S
C1158 H1171 0.962 . S
C1158 H1172 0.960 . S
C1159 C1156 1.511 . S
C1159 H1173 0.961 . S
C1159 H1174 0.961 . S
C1159 H1175 0.961 . S
C1160 C1161 1.370 . S
C1160 C1162 1.363 . S
C1160 H1176 0.931 . S
C1161 C1160 1.370 . S
C1161 C1165 1.408 . S
C1162 C1160 1.363 . S
C1162 C1163 1.370 . S
C1162 C1166 1.524 . S
C1163 C1155 1.503 . S
C1163 C1162 1.370 . S
C1163 C1164 1.403 . S
C1164 C1163 1.403 . S
C1164 C1165 1.404 . S
C1164 C1167 1.539 . S
C1165 C1161 1.408 . S
C1165 C1164 1.404 . S
C1165 H1177 0.930 . S
C1166 C1162 1.524 . S
C1166 H1178 0.956 . S
C1166 H1179 0.961 . S
C1166 H1180 0.961 . S
C1167 C1164 1.539 . S
C1167 H1181 0.958 . S
C1167 H1182 0.961 . S
C1167 H1183 0.960 . S
H1168 C1152 0.931 . S
H1169 C1157 0.929 . S
H1170 C1158 0.960 . S
H1171 C1158 0.962 . S
H1172 C1158 0.960 . S
H1173 C1159 0.961 . S
H1174 C1159 0.961 . S
H1175 C1159 0.961 . S
H1176 C1160 0.931 . S
H1177 C1165 0.930 . S
H1178 C1166 0.956 . S
H1179 C1166 0.961 . S
H1180 C1166 0.961 . S
H1181 C1167 0.958 . S
H1182 C1167 0.961 . S
H1183 C1167 0.960 . S
C1184 C1185 1.391 . S
C1184 C1186 1.394 . S
C1184 H1200 0.931 . S
C1185 C1184 1.391 . S
C1185 C1189 1.376 . S
C1186 C1184 1.394 . S
C1186 C1187 1.369 . S
C1186 C1190 1.531 . S
C1187 C1186 1.369 . S
C1187 C1188 1.410 . S
C1187 C1195 1.503 . S
C1188 C1187 1.410 . S
C1188 C1189 1.392 . S
C1188 C1191 1.511 . S
C1189 C1185 1.376 . S
C1189 C1188 1.392 . S
C1189 H1201 0.929 . S
C1190 C1186 1.531 . S
C1190 H1202 0.960 . S
C1190 H1203 0.962 . S
C1190 H1204 0.960 . S
C1191 C1188 1.511 . S
C1191 H1205 0.961 . S
C1191 H1206 0.961 . S
C1191 H1207 0.961 . S
C1192 C1193 1.370 . S
C1192 C1194 1.363 . S
C1192 H1208 0.931 . S
C1193 C1192 1.370 . S
C1193 C1197 1.408 . S
C1194 C1192 1.363 . S
C1194 C1195 1.370 . S
C1194 C1198 1.524 . S
C1195 C1187 1.503 . S
C1195 C1194 1.370 . S
C1195 C1196 1.403 . S
C1196 C1195 1.403 . S
C1196 C1197 1.404 . S
C1196 C1199 1.539 . S
C1197 C1193 1.408 . S
C1197 C1196 1.404 . S
C1197 H1209 0.930 . S
C1198 C1194 1.524 . S
C1198 H1210 0.956 . S
C1198 H1211 0.961 . S
C1198 H1212 0.961 . S
C1199 C1196 1.539 . S
C1199 H1213 0.958 . S
C1199 H1214 0.961 . S
C1199 H1215 0.960 . S
H1200 C1184 0.931 . S
H1201 C1189 0.929 . S
H1202 C1190 0.960 . S
H1203 C1190 0.962 . S
H1204 C1190 0.960 . S
H1205 C1191 0.961 . S
H1206 C1191 0.961 . S
H1207 C1191 0.961 . S
H1208 C1192 0.931 . S
H1209 C1197 0.930 . S
H1210 C1198 0.956 . S
H1211 C1198 0.961 . S
H1212 C1198 0.961 . S
H1213 C1199 0.958 . S
H1214 C1199 0.961 . S
H1215 C1199 0.960 . S
C1216 C1217 1.391 . S
C1216 C1218 1.394 . S
C1216 H1232 0.931 . S
C1217 C1216 1.391 . S
C1217 C1221 1.376 . S
C1218 C1216 1.394 . S
C1218 C1219 1.369 . S
C1218 C1222 1.531 . S
C1219 C1218 1.369 . S
C1219 C1220 1.410 . S
C1219 C1227 1.503 . S
C1220 C1219 1.410 . S
C1220 C1221 1.392 . S
C1220 C1223 1.511 . S
C1221 C1217 1.376 . S
C1221 C1220 1.392 . S
C1221 H1233 0.929 . S
C1222 C1218 1.531 . S
C1222 H1234 0.960 . S
C1222 H1235 0.962 . S
C1222 H1236 0.960 . S
C1223 C1220 1.511 . S
C1223 H1237 0.961 . S
C1223 H1238 0.961 . S
C1223 H1239 0.961 . S
C1224 C1225 1.370 . S
C1224 C1226 1.363 . S
C1224 H1240 0.931 . S
C1225 C1224 1.370 . S
C1225 C1229 1.408 . S
C1226 C1224 1.363 . S
C1226 C1227 1.370 . S
C1226 C1230 1.524 . S
C1227 C1219 1.503 . S
C1227 C1226 1.370 . S
C1227 C1228 1.403 . S
C1228 C1227 1.403 . S
C1228 C1229 1.404 . S
C1228 C1231 1.539 . S
C1229 C1225 1.408 . S
C1229 C1228 1.404 . S
C1229 H1241 0.930 . S
C1230 C1226 1.524 . S
C1230 H1242 0.956 . S
C1230 H1243 0.961 . S
C1230 H1244 0.961 . S
C1231 C1228 1.539 . S
C1231 H1245 0.958 . S
C1231 H1246 0.961 . S
C1231 H1247 0.960 . S
H1232 C1216 0.931 . S
H1233 C1221 0.929 . S
H1234 C1222 0.960 . S
H1235 C1222 0.962 . S
H1236 C1222 0.960 . S
H1237 C1223 0.961 . S
H1238 C1223 0.961 . S
H1239 C1223 0.961 . S
H1240 C1224 0.931 . S
H1241 C1229 0.930 . S
H1242 C1230 0.956 . S
H1243 C1230 0.961 . S
H1244 C1230 0.961 . S
H1245 C1231 0.958 . S
H1246 C1231 0.961 . S
H1247 C1231 0.960 . S
C1248 C1249 1.391 . S
C1248 C1250 1.394 . S
C1248 H1264 0.931 . S
C1249 C1248 1.391 . S
C1249 C1253 1.376 . S
C1250 C1248 1.394 . S
C1250 C1251 1.369 . S
C1250 C1254 1.531 . S
C1251 C1250 1.369 . S
C1251 C1252 1.410 . S
C1251 C1259 1.503 . S
C1252 C1251 1.410 . S
C1252 C1253 1.392 . S
C1252 C1255 1.511 . S
C1253 C1249 1.376 . S
C1253 C1252 1.392 . S
C1253 H1265 0.929 . S
C1254 C1250 1.531 . S
C1254 H1266 0.960 . S
C1254 H1267 0.962 . S
C1254 H1268 0.960 . S
C1255 C1252 1.511 . S
C1255 H1269 0.961 . S
C1255 H1270 0.961 . S
C1255 H1271 0.961 . S
C1256 C1257 1.370 . S
C1256 C1258 1.363 . S
C1256 H1272 0.931 . S
C1257 C1256 1.370 . S
C1257 C1261 1.408 . S
C1258 C1256 1.363 . S
C1258 C1259 1.370 . S
C1258 C1262 1.524 . S
C1259 C1251 1.503 . S
C1259 C1258 1.370 . S
C1259 C1260 1.403 . S
C1260 C1259 1.403 . S
C1260 C1261 1.404 . S
C1260 C1263 1.539 . S
C1261 C1257 1.408 . S
C1261 C1260 1.404 . S
C1261 H1273 0.930 . S
C1262 C1258 1.524 . S
C1262 H1274 0.956 . S
C1262 H1275 0.961 . S
C1262 H1276 0.961 . S
C1263 C1260 1.539 . S
C1263 H1277 0.958 . S
C1263 H1278 0.961 . S
C1263 H1279 0.960 . S
H1264 C1248 0.931 . S
H1265 C1253 0.929 . S
H1266 C1254 0.960 . S
H1267 C1254 0.962 . S
H1268 C1254 0.960 . S
H1269 C1255 0.961 . S
H1270 C1255 0.961 . S
H1271 C1255 0.961 . S
H1272 C1256 0.931 . S
H1273 C1261 0.930 . S
H1274 C1262 0.956 . S
H1275 C1262 0.961 . S
H1276 C1262 0.961 . S
H1277 C1263 0.958 . S
H1278 C1263 0.961 . S
H1279 C1263 0.960 . S
C1280 C1281 1.391 . S
C1280 C1282 1.394 . S
C1280 H1296 0.931 . S
C1281 C1280 1.391 . S
C1281 C1285 1.376 . S
C1282 C1280 1.394 . S
C1282 C1283 1.369 . S
C1282 C1286 1.531 . S
C1283 C1282 1.369 . S
C1283 C1284 1.410 . S
C1283 C1291 1.503 . S
C1284 C1283 1.410 . S
C1284 C1285 1.392 . S
C1284 C1287 1.511 . S
C1285 C1281 1.376 . S
C1285 C1284 1.392 . S
C1285 H1297 0.929 . S
C1286 C1282 1.531 . S
C1286 H1298 0.960 . S
C1286 H1299 0.962 . S
C1286 H1300 0.960 . S
C1287 C1284 1.511 . S
C1287 H1301 0.961 . S
C1287 H1302 0.961 . S
C1287 H1303 0.961 . S
C1288 C1289 1.370 . S
C1288 C1290 1.363 . S
C1288 H1304 0.931 . S
C1289 C1288 1.370 . S
C1289 C1293 1.408 . S
C1290 C1288 1.363 . S
C1290 C1291 1.370 . S
C1290 C1294 1.524 . S
C1291 C1283 1.503 . S
C1291 C1290 1.370 . S
C1291 C1292 1.403 . S
C1292 C1291 1.403 . S
C1292 C1293 1.404 . S
C1292 C1295 1.539 . S
C1293 C1289 1.408 . S
C1293 C1292 1.404 . S
C1293 H1305 0.930 . S
C1294 C1290 1.524 . S
C1294 H1306 0.956 . S
C1294 H1307 0.961 . S
C1294 H1308 0.961 . S
C1295 C1292 1.539 . S
C1295 H1309 0.958 . S
C1295 H1310 0.961 . S
C1295 H1311 0.960 . S
H1296 C1280 0.931 . S
H1297 C1285 0.929 . S
H1298 C1286 0.960 . S
H1299 C1286 0.962 . S
H1300 C1286 0.960 . S
H1301 C1287 0.961 . S
H1302 C1287 0.961 . S
H1303 C1287 0.961 . S
H1304 C1288 0.931 . S
H1305 C1293 0.930 . S
H1306 C1294 0.956 . S
H1307 C1294 0.961 . S
H1308 C1294 0.961 . S
H1309 C1295 0.958 . S
H1310 C1295 0.961 . S
H1311 C1295 0.960 . S
C1312 C1313 1.391 . S
C1312 C1314 1.394 . S
C1312 H1328 0.931 . S
C1313 C1312 1.391 . S
C1313 C1317 1.376 . S
C1314 C1312 1.394 . S
C1314 C1315 1.369 . S
C1314 C1318 1.531 . S
C1315 C1314 1.369 . S
C1315 C1316 1.410 . S
C1315 C1323 1.503 . S
C1316 C1315 1.410 . S
C1316 C1317 1.392 . S
C1316 C1319 1.511 . S
C1317 C1313 1.376 . S
C1317 C1316 1.392 . S
C1317 H1329 0.929 . S
C1318 C1314 1.531 . S
C1318 H1330 0.960 . S
C1318 H1331 0.962 . S
C1318 H1332 0.960 . S
C1319 C1316 1.511 . S
C1319 H1333 0.961 . S
C1319 H1334 0.961 . S
C1319 H1335 0.961 . S
C1320 C1321 1.370 . S
C1320 C1322 1.363 . S
C1320 H1336 0.931 . S
C1321 C1320 1.370 . S
C1321 C1325 1.408 . S
C1322 C1320 1.363 . S
C1322 C1323 1.370 . S
C1322 C1326 1.524 . S
C1323 C1315 1.503 . S
C1323 C1322 1.370 . S
C1323 C1324 1.403 . S
C1324 C1323 1.403 . S
C1324 C1325 1.404 . S
C1324 C1327 1.539 . S
C1325 C1321 1.408 . S
C1325 C1324 1.404 . S
C1325 H1337 0.930 . S
C1326 C1322 1.524 . S
C1326 H1338 0.956 . S
C1326 H1339 0.961 . S
C1326 H1340 0.961 . S
C1327 C1324 1.539 . S
C1327 H1341 0.958 . S
C1327 H1342 0.961 . S
C1327 H1343 0.960 . S
H1328 C1312 0.931 . S
H1329 C1317 0.929 . S
H1330 C1318 0.960 . S
H1331 C1318 0.962 . S
H1332 C1318 0.960 . S
H1333 C1319 0.961 . S
H1334 C1319 0.961 . S
H1335 C1319 0.961 . S
H1336 C1320 0.931 . S
H1337 C1325 0.930 . S
H1338 C1326 0.956 . S
H1339 C1326 0.961 . S
H1340 C1326 0.961 . S
H1341 C1327 0.958 . S
H1342 C1327 0.961 . S
H1343 C1327 0.960 . S
C1344 C1345 1.391 . S
C1344 C1346 1.394 . S
C1344 H1360 0.931 . S
C1345 C1344 1.391 . S
C1345 C1349 1.376 . S
C1346 C1344 1.394 . S
C1346 C1347 1.369 . S
C1346 C1350 1.531 . S
C1347 C1346 1.369 . S
C1347 C1348 1.410 . S
C1347 C1355 1.503 . S
C1348 C1347 1.410 . S
C1348 C1349 1.392 . S
C1348 C1351 1.511 . S
C1349 C1345 1.376 . S
C1349 C1348 1.392 . S
C1349 H1361 0.929 . S
C1350 C1346 1.531 . S
C1350 H1362 0.960 . S
C1350 H1363 0.962 . S
C1350 H1364 0.960 . S
C1351 C1348 1.511 . S
C1351 H1365 0.961 . S
C1351 H1366 0.961 . S
C1351 H1367 0.961 . S
C1352 C1353 1.370 . S
C1352 C1354 1.363 . S
C1352 H1368 0.931 . S
C1353 C1352 1.370 . S
C1353 C1357 1.408 . S
C1354 C1352 1.363 . S
C1354 C1355 1.370 . S
C1354 C1358 1.524 . S
C1355 C1347 1.503 . S
C1355 C1354 1.370 . S
C1355 C1356 1.403 . S
C1356 C1355 1.403 . S
C1356 C1357 1.404 . S
C1356 C1359 1.539 . S
C1357 C1353 1.408 . S
C1357 C1356 1.404 . S
C1357 H1369 0.930 . S
C1358 C1354 1.524 . S
C1358 H1370 0.956 . S
C1358 H1371 0.961 . S
C1358 H1372 0.961 . S
C1359 C1356 1.539 . S
C1359 H1373 0.958 . S
C1359 H1374 0.961 . S
C1359 H1375 0.960 . S
H1360 C1344 0.931 . S
H1361 C1349 0.929 . S
H1362 C1350 0.960 . S
H1363 C1350 0.962 . S
H1364 C1350 0.960 . S
H1365 C1351 0.961 . S
H1366 C1351 0.961 . S
H1367 C1351 0.961 . S
H1368 C1352 0.931 . S
H1369 C1357 0.930 . S
H1370 C1358 0.956 . S
H1371 C1358 0.961 . S
H1372 C1358 0.961 . S
H1373 C1359 0.958 . S
H1374 C1359 0.961 . S
H1375 C1359 0.960 . S
C1376 C1377 1.391 . S
C1376 C1378 1.394 . S
C1376 H1392 0.931 . S
C1377 C1376 1.391 . S
C1377 C1381 1.376 . S
C1378 C1376 1.394 . S
C1378 C1379 1.369 . S
C1378 C1382 1.531 . S
C1379 C1378 1.369 . S
C1379 C1380 1.410 . S
C1379 C1387 1.503 . S
C1380 C1379 1.410 . S
C1380 C1381 1.392 . S
C1380 C1383 1.511 . S
C1381 C1377 1.376 . S
C1381 C1380 1.392 . S
C1381 H1393 0.929 . S
C1382 C1378 1.531 . S
C1382 H1394 0.960 . S
C1382 H1395 0.962 . S
C1382 H1396 0.960 . S
C1383 C1380 1.511 . S
C1383 H1397 0.961 . S
C1383 H1398 0.961 . S
C1383 H1399 0.961 . S
C1384 C1385 1.370 . S
C1384 C1386 1.363 . S
C1384 H1400 0.931 . S
C1385 C1384 1.370 . S
C1385 C1389 1.408 . S
C1386 C1384 1.363 . S
C1386 C1387 1.370 . S
C1386 C1390 1.524 . S
C1387 C1379 1.503 . S
C1387 C1386 1.370 . S
C1387 C1388 1.403 . S
C1388 C1387 1.403 . S
C1388 C1389 1.404 . S
C1388 C1391 1.539 . S
C1389 C1385 1.408 . S
C1389 C1388 1.404 . S
C1389 H1401 0.930 . S
C1390 C1386 1.524 . S
C1390 H1402 0.956 . S
C1390 H1403 0.961 . S
C1390 H1404 0.961 . S
C1391 C1388 1.539 . S
C1391 H1405 0.958 . S
C1391 H1406 0.961 . S
C1391 H1407 0.960 . S
H1392 C1376 0.931 . S
H1393 C1381 0.929 . S
H1394 C1382 0.960 . S
H1395 C1382 0.962 . S
H1396 C1382 0.960 . S
H1397 C1383 0.961 . S
H1398 C1383 0.961 . S
H1399 C1383 0.961 . S
H1400 C1384 0.931 . S
H1401 C1389 0.930 . S
H1402 C1390 0.956 . S
H1403 C1390 0.961 . S
H1404 C1390 0.961 . S
H1405 C1391 0.958 . S
H1406 C1391 0.961 . S
H1407 C1391 0.960 . S
C1408 C1409 1.391 . S
C1408 C1410 1.394 . S
C1408 H1424 0.931 . S
C1409 C1408 1.391 . S
C1409 C1413 1.376 . S
C1410 C1408 1.394 . S
C1410 C1411 1.369 . S
C1410 C1414 1.531 . S
C1411 C1410 1.369 . S
C1411 C1412 1.410 . S
C1411 C1419 1.503 . S
C1412 C1411 1.410 . S
C1412 C1413 1.392 . S
C1412 C1415 1.511 . S
C1413 C1409 1.376 . S
C1413 C1412 1.392 . S
C1413 H1425 0.929 . S
C1414 C1410 1.531 . S
C1414 H1426 0.960 . S
C1414 H1427 0.962 . S
C1414 H1428 0.960 . S
C1415 C1412 1.511 . S
C1415 H1429 0.961 . S
C1415 H1430 0.961 . S
C1415 H1431 0.961 . S
C1416 C1417 1.370 . S
C1416 C1418 1.363 . S
C1416 H1432 0.931 . S
C1417 C1416 1.370 . S
C1417 C1421 1.408 . S
C1418 C1416 1.363 . S
C1418 C1419 1.370 . S
C1418 C1422 1.524 . S
C1419 C1411 1.503 . S
C1419 C1418 1.370 . S
C1419 C1420 1.403 . S
C1420 C1419 1.403 . S
C1420 C1421 1.404 . S
C1420 C1423 1.539 . S
C1421 C1417 1.408 . S
C1421 C1420 1.404 . S
C1421 H1433 0.930 . S
C1422 C1418 1.524 . S
C1422 H1434 0.956 . S
C1422 H1435 0.961 . S
C1422 H1436 0.961 . S
C1423 C1420 1.539 . S
C1423 H1437 0.958 . S
C1423 H1438 0.961 . S
C1423 H1439 0.960 . S
H1424 C1408 0.931 . S
H1425 C1413 0.929 . S
H1426 C1414 0.960 . S
H1427 C1414 0.962 . S
H1428 C1414 0.960 . S
H1429 C1415 0.961 . S
H1430 C1415 0.961 . S
H1431 C1415 0.961 . S
H1432 C1416 0.931 . S
H1433 C1421 0.930 . S
H1434 C1422 0.956 . S
H1435 C1422 0.961 . S
H1436 C1422 0.961 . S
H1437 C1423 0.958 . S
H1438 C1423 0.961 . S
H1439 C1423 0.960 . S
C1440 C1441 1.391 . S
C1440 C1442 1.394 . S
C1440 H1456 0.931 . S
C1441 C1440 1.391 . S
C1441 C1445 1.376 . S
C1442 C1440 1.394 . S
C1442 C1443 1.369 . S
C1442 C1446 1.531 . S
C1443 C1442 1.369 . S
C1443 C1444 1.410 . S
C1443 C1451 1.503 . S
C1444 C1443 1.410 . S
C1444 C1445 1.392 . S
C1444 C1447 1.511 . S
C1445 C1441 1.376 . S
C1445 C1444 1.392 . S
C1445 H1457 0.929 . S
C1446 C1442 1.531 . S
C1446 H1458 0.960 . S
C1446 H1459 0.962 . S
C1446 H1460 0.960 . S
C1447 C1444 1.511 . S
C1447 H1461 0.961 . S
C1447 H1462 0.961 . S
C1447 H1463 0.961 . S
C1448 C1449 1.370 . S
C1448 C1450 1.363 . S
C1448 H1464 0.931 . S
C1449 C1448 1.370 . S
C1449 C1453 1.408 . S
C1450 C1448 1.363 . S
C1450 C1451 1.370 . S
C1450 C1454 1.524 . S
C1451 C1443 1.503 . S
C1451 C1450 1.370 . S
C1451 C1452 1.403 . S
C1452 C1451 1.403 . S
C1452 C1453 1.404 . S
C1452 C1455 1.539 . S
C1453 C1449 1.408 . S
C1453 C1452 1.404 . S
C1453 H1465 0.930 . S
C1454 C1450 1.524 . S
C1454 H1466 0.956 . S
C1454 H1467 0.961 . S
C1454 H1468 0.961 . S
C1455 C1452 1.539 . S
C1455 H1469 0.958 . S
C1455 H1470 0.961 . S
C1455 H1471 0.960 . S
H1456 C1440 0.931 . S
H1457 C1445 0.929 . S
H1458 C1446 0.960 . S
H1459 C1446 0.962 . S
H1460 C1446 0.960 . S
H1461 C1447 0.961 . S
H1462 C1447 0.961 . S
H1463 C1447 0.961 . S
H1464 C1448 0.931 . S
H1465 C1453 0.930 . S
H1466 C1454 0.956 . S
H1467 C1454 0.961 . S
H1468 C1454 0.961 . S
H1469 C1455 0.958 . S
H1470 C1455 0.961 . S
H1471 C1455 0.960 . S
C1472 C1473 1.391 . S
C1472 C1474 1.394 . S
C1472 H1488 0.931 . S
C1473 C1472 1.391 . S
C1473 C1477 1.376 . S
C1474 C1472 1.394 . S
C1474 C1475 1.369 . S
C1474 C1478 1.531 . S
C1475 C1474 1.369 . S
C1475 C1476 1.410 . S
C1475 C1483 1.503 . S
C1476 C1475 1.410 . S
C1476 C1477 1.392 . S
C1476 C1479 1.511 . S
C1477 C1473 1.376 . S
C1477 C1476 1.392 . S
C1477 H1489 0.929 . S
C1478 C1474 1.531 . S
C1478 H1490 0.960 . S
C1478 H1491 0.962 . S
C1478 H1492 0.960 . S
C1479 C1476 1.511 . S
C1479 H1493 0.961 . S
C1479 H1494 0.961 . S
C1479 H1495 0.961 . S
C1480 C1481 1.370 . S
C1480 C1482 1.363 . S
C1480 H1496 0.931 . S
C1481 C1480 1.370 . S
C1481 C1485 1.408 . S
C1482 C1480 1.363 . S
C1482 C1483 1.370 . S
C1482 C1486 1.524 . S
C1483 C1475 1.503 . S
C1483 C1482 1.370 . S
C1483 C1484 1.403 . S
C1484 C1483 1.403 . S
C1484 C1485 1.404 . S
C1484 C1487 1.539 . S
C1485 C1481 1.408 . S
C1485 C1484 1.404 . S
C1485 H1497 0.930 . S
C1486 C1482 1.524 . S
C1486 H1498 0.956 . S
C1486 H1499 0.961 . S
C1486 H1500 0.961 . S
C1487 C1484 1.539 . S
C1487 H1501 0.958 . S
C1487 H1502 0.961 . S
C1487 H1503 0.960 . S
H1488 C1472 0.931 . S
H1489 C1477 0.929 . S
H1490 C1478 0.960 . S
H1491 C1478 0.962 . S
H1492 C1478 0.960 . S
H1493 C1479 0.961 . S
H1494 C1479 0.961 . S
H1495 C1479 0.961 . S
H1496 C1480 0.931 . S
H1497 C1485 0.930 . S
H1498 C1486 0.956 . S
H1499 C1486 0.961 . S
H1500 C1486 0.961 . S
H1501 C1487 0.958 . S
H1502 C1487 0.961 . S
H1503 C1487 0.960 . S
C1504 C1505 1.391 . S
C1504 C1506 1.394 . S
C1504 H1520 0.931 . S
C1505 C1504 1.391 . S
C1505 C1509 1.376 . S
C1506 C1504 1.394 . S
C1506 C1507 1.369 . S
C1506 C1510 1.531 . S
C1507 C1506 1.369 . S
C1507 C1508 1.410 . S
C1507 C1515 1.503 . S
C1508 C1507 1.410 . S
C1508 C1509 1.392 . S
C1508 C1511 1.511 . S
C1509 C1505 1.376 . S
C1509 C1508 1.392 . S
C1509 H1521 0.929 . S
C1510 C1506 1.531 . S
C1510 H1522 0.960 . S
C1510 H1523 0.962 . S
C1510 H1524 0.960 . S
C1511 C1508 1.511 . S
C1511 H1525 0.961 . S
C1511 H1526 0.961 . S
C1511 H1527 0.961 . S
C1512 C1513 1.370 . S
C1512 C1514 1.363 . S
C1512 H1528 0.931 . S
C1513 C1512 1.370 . S
C1513 C1517 1.408 . S
C1514 C1512 1.363 . S
C1514 C1515 1.370 . S
C1514 C1518 1.524 . S
C1515 C1507 1.503 . S
C1515 C1514 1.370 . S
C1515 C1516 1.403 . S
C1516 C1515 1.403 . S
C1516 C1517 1.404 . S
C1516 C1519 1.539 . S
C1517 C1513 1.408 . S
C1517 C1516 1.404 . S
C1517 H1529 0.930 . S
C1518 C1514 1.524 . S
C1518 H1530 0.956 . S
C1518 H1531 0.961 . S
C1518 H1532 0.961 . S
C1519 C1516 1.539 . S
C1519 H1533 0.958 . S
C1519 H1534 0.961 . S
C1519 H1535 0.960 . S
H1520 C1504 0.931 . S
H1521 C1509 0.929 . S
H1522 C1510 0.960 . S
H1523 C1510 0.962 . S
H1524 C1510 0.960 . S
H1525 C1511 0.961 . S
H1526 C1511 0.961 . S
H1527 C1511 0.961 . S
H1528 C1512 0.931 . S
H1529 C1517 0.930 . S
H1530 C1518 0.956 . S
H1531 C1518 0.961 . S
H1532 C1518 0.961 . S
H1533 C1519 0.958 . S
H1534 C1519 0.961 . S
H1535 C1519 0.960 . S
C1536 C1537 1.391 . S
C1536 C1538 1.394 . S
C1536 H1552 0.931 . S
C1537 C1536 1.391 . S
C1537 C1541 1.376 . S
C1538 C1536 1.394 . S
C1538 C1539 1.369 . S
C1538 C1542 1.531 . S
C1539 C1538 1.369 . S
C1539 C1540 1.410 . S
C1539 C1547 1.503 . S
C1540 C1539 1.410 . S
C1540 C1541 1.392 . S
C1540 C1543 1.511 . S
C1541 C1537 1.376 . S
C1541 C1540 1.392 . S
C1541 H1553 0.929 . S
C1542 C1538 1.531 . S
C1542 H1554 0.960 . S
C1542 H1555 0.962 . S
C1542 H1556 0.960 . S
C1543 C1540 1.511 . S
C1543 H1557 0.961 . S
C1543 H1558 0.961 . S
C1543 H1559 0.961 . S
C1544 C1545 1.370 . S
C1544 C1546 1.363 . S
C1544 H1560 0.931 . S
C1545 C1544 1.370 . S
C1545 C1549 1.408 . S
C1546 C1544 1.363 . S
C1546 C1547 1.370 . S
C1546 C1550 1.524 . S
C1547 C1539 1.503 . S
C1547 C1546 1.370 . S
C1547 C1548 1.403 . S
C1548 C1547 1.403 . S
C1548 C1549 1.404 . S
C1548 C1551 1.539 . S
C1549 C1545 1.408 . S
C1549 C1548 1.404 . S
C1549 H1561 0.930 . S
C1550 C1546 1.524 . S
C1550 H1562 0.956 . S
C1550 H1563 0.961 . S
C1550 H1564 0.961 . S
C1551 C1548 1.539 . S
C1551 H1565 0.958 . S
C1551 H1566 0.961 . S
C1551 H1567 0.960 . S
H1552 C1536 0.931 . S
H1553 C1541 0.929 . S
H1554 C1542 0.960 . S
H1555 C1542 0.962 . S
H1556 C1542 0.960 . S
H1557 C1543 0.961 . S
H1558 C1543 0.961 . S
H1559 C1543 0.961 . S
H1560 C1544 0.931 . S
H1561 C1549 0.930 . S
H1562 C1550 0.956 . S
H1563 C1550 0.961 . S
H1564 C1550 0.961 . S
H1565 C1551 0.958 . S
H1566 C1551 0.961 . S
H1567 C1551 0.960 . S
C1568 C1569 1.391 . S
C1568 C1570 1.394 . S
C1568 H1584 0.931 . S
C1569 C1568 1.391 . S
C1569 C1573 1.379 1_655 S
C1570 C1568 1.394 . S
C1570 C1571 1.369 . S
C1570 C1574 1.531 . S
C1571 C1570 1.369 . S
C1571 C1572 1.410 1_655 S
C1571 C1579 1.503 1_655 S
C1572 C1571 1.410 1_455 S
C1572 C1573 1.391 . S
C1572 C1575 1.511 . S
C1573 C1569 1.379 1_455 S
C1573 C1572 1.391 . S
C1573 H1585 0.927 . S
C1574 C1570 1.531 . S
C1574 H1586 0.960 . S
C1574 H1587 0.962 . S
C1574 H1588 0.960 . S
C1575 C1572 1.511 . S
C1575 H1589 0.961 . S
C1575 H1590 0.961 . S
C1575 H1591 0.961 . S
C1576 C1577 1.370 . S
C1576 C1578 1.363 1_455 S
C1576 H1592 0.931 . S
C1577 C1576 1.370 . S
C1577 C1581 1.408 . S
C1578 C1576 1.363 1_655 S
C1578 C1579 1.370 1_655 S
C1578 C1582 1.524 . S
C1579 C1571 1.503 1_455 S
C1579 C1578 1.370 1_455 S
C1579 C1580 1.403 . S
C1580 C1579 1.403 . S
C1580 C1581 1.404 . S
C1580 C1583 1.539 . S
C1581 C1577 1.408 . S
C1581 C1580 1.404 . S
C1581 H1593 0.930 . S
C1582 C1578 1.524 . S
C1582 H1594 0.956 . S
C1582 H1595 0.961 . S
C1582 H1596 0.961 . S
C1583 C1580 1.539 . S
C1583 H1597 0.958 . S
C1583 H1598 0.961 . S
C1583 H1599 0.960 . S
H1584 C1568 0.931 . S
H1585 C1573 0.927 . S
H1586 C1574 0.960 . S
H1587 C1574 0.962 . S
H1588 C1574 0.960 . S
H1589 C1575 0.961 . S
H1590 C1575 0.961 . S
H1591 C1575 0.961 . S
H1592 C1576 0.931 . S
H1593 C1581 0.930 . S
H1594 C1582 0.956 . S
H1595 C1582 0.961 . S
H1596 C1582 0.961 . S
H1597 C1583 0.958 . S
H1598 C1583 0.961 . S
H1599 C1583 0.960 . S
C1600 C1601 1.391 . S
C1600 C1602 1.394 . S
C1600 H1616 0.931 . S
C1601 C1600 1.391 . S
C1601 C1605 1.376 . S
C1602 C1600 1.394 . S
C1602 C1603 1.377 . S
C1602 C1606 1.531 . S
C1603 C1602 1.377 . S
C1603 C1604 1.407 1_565 S
C1603 C1611 1.499 1_565 S
C1604 C1603 1.407 1_545 S
C1604 C1605 1.392 1_545 S
C1604 C1607 1.511 . S
C1605 C1601 1.376 . S
C1605 C1604 1.392 1_565 S
C1605 H1617 0.929 . S
C1606 C1602 1.531 . S
C1606 H1618 0.960 . S
C1606 H1619 0.962 . S
C1606 H1620 0.960 . S
C1607 C1604 1.511 . S
C1607 H1621 0.961 . S
C1607 H1622 0.961 . S
C1607 H1623 0.961 . S
C1608 C1609 1.370 . S
C1608 C1610 1.363 1_545 S
C1608 H1624 0.931 1_545 S
C1609 C1608 1.370 . S
C1609 C1613 1.408 . S
C1610 C1608 1.363 1_565 S
C1610 C1611 1.370 1_565 S
C1610 C1614 1.524 . S
C1611 C1603 1.499 1_545 S
C1611 C1610 1.370 1_545 S
C1611 C1612 1.403 . S
C1612 C1611 1.403 . S
C1612 C1613 1.404 . S
C1612 C1615 1.539 . S
C1613 C1609 1.408 . S
C1613 C1612 1.404 . S
C1613 H1625 0.930 . S
C1614 C1610 1.524 . S
C1614 H1626 0.956 . S
C1614 H1627 0.961 . S
C1614 H1628 0.961 . S
C1615 C1612 1.539 . S
C1615 H1629 0.958 . S
C1615 H1630 0.961 . S
C1615 H1631 0.960 . S
H1616 C1600 0.931 . S
H1617 C1605 0.929 . S
H1618 C1606 0.960 . S
H1619 C1606 0.962 . S
H1620 C1606 0.960 . S
H1621 C1607 0.961 . S
H1622 C1607 0.961 . S
H1623 C1607 0.961 . S
H1624 C1608 0.931 1_565 S
H1625 C1613 0.930 . S
H1626 C1614 0.956 . S
H1627 C1614 0.961 . S
H1628 C1614 0.961 . S
H1629 C1615 0.958 . S
H1630 C1615 0.961 . S
H1631 C1615 0.960 . S
C1632 C1633 1.391 . S
C1632 C1634 1.394 . S
C1632 H1648 0.931 . S
C1633 C1632 1.391 . S
C1633 C1637 1.376 . S
C1634 C1632 1.394 . S
C1634 C1635 1.369 . S
C1634 C1638 1.531 . S
C1635 C1634 1.369 . S
C1635 C1636 1.410 . S
C1635 C1643 1.503 1_545 S
C1636 C1635 1.410 . S
C1636 C1637 1.392 . S
C1636 C1639 1.511 . S
C1637 C1633 1.376 . S
C1637 C1636 1.392 . S
C1637 H1649 0.929 . S
C1638 C1634 1.531 . S
C1638 H1650 0.960 . S
C1638 H1651 0.962 . S
C1638 H1652 0.960 . S
C1639 C1636 1.511 . S
C1639 H1653 0.961 . S
C1639 H1654 0.961 1_545 S
C1639 H1655 0.961 1_545 S
C1640 C1641 1.370 . S
C1640 C1642 1.363 . S
C1640 H1656 0.931 . S
C1641 C1640 1.370 . S
C1641 C1645 1.408 . S
C1642 C1640 1.363 . S
C1642 C1643 1.370 . S
C1642 C1646 1.524 1_565 S
C1643 C1635 1.503 1_565 S
C1643 C1642 1.370 . S
C1643 C1644 1.403 . S
C1644 C1643 1.403 . S
C1644 C1645 1.404 . S
C1644 C1647 1.539 . S
C1645 C1641 1.408 . S
C1645 C1644 1.404 . S
C1645 H1657 0.930 . S
C1646 C1642 1.524 1_545 S
C1646 H1658 0.956 . S
C1646 H1659 0.961 . S
C1646 H1660 0.961 1_545 S
C1647 C1644 1.539 . S
C1647 H1661 0.958 . S
C1647 H1662 0.961 . S
C1647 H1663 0.960 . S
H1648 C1632 0.931 . S
H1649 C1637 0.929 . S
H1650 C1638 0.960 . S
H1651 C1638 0.962 . S
H1652 C1638 0.960 . S
H1653 C1639 0.961 . S
H1654 C1639 0.961 1_565 S
H1655 C1639 0.961 1_565 S
H1656 C1640 0.931 . S
H1657 C1645 0.930 . S
H1658 C1646 0.956 . S
H1659 C1646 0.961 . S
H1660 C1646 0.961 1_565 S
H1661 C1647 0.958 . S
H1662 C1647 0.961 . S
H1663 C1647 0.960 . S
C1664 C1665 1.391 . S
C1664 C1666 1.394 . S
C1664 H1680 0.931 . S
C1665 C1664 1.391 . S
C1665 C1669 1.376 . S
C1666 C1664 1.394 . S
C1666 C1667 1.369 . S
C1666 C1670 1.531 . S
C1667 C1666 1.369 . S
C1667 C1668 1.410 . S
C1667 C1675 1.503 1_655 S
C1668 C1667 1.410 . S
C1668 C1669 1.392 . S
C1668 C1671 1.511 1_655 S
C1669 C1665 1.376 . S
C1669 C1668 1.392 . S
C1669 H1681 0.929 . S
C1670 C1666 1.531 . S
C1670 H1682 0.960 . S
C1670 H1683 0.962 . S
C1670 H1684 0.960 . S
C1671 C1668 1.511 1_455 S
C1671 H1685 0.961 1_455 S
C1671 H1686 0.961 . S
C1671 H1687 0.961 . S
C1672 C1673 1.370 . S
C1672 C1674 1.363 . S
C1672 H1688 0.931 . S
C1673 C1672 1.370 . S
C1673 C1677 1.408 . S
C1674 C1672 1.363 . S
C1674 C1675 1.370 . S
C1674 C1678 1.524 . S
C1675 C1667 1.503 1_455 S
C1675 C1674 1.370 . S
C1675 C1676 1.403 . S
C1676 C1675 1.403 . S
C1676 C1677 1.404 . S
C1676 C1679 1.539 . S
C1677 C1673 1.408 . S
C1677 C1676 1.404 . S
C1677 H1689 0.930 . S
C1678 C1674 1.524 . S
C1678 H1690 0.956 1_455 S
C1678 H1691 0.957 1_455 S
C1678 H1692 0.961 . S
C1679 C1676 1.539 . S
C1679 H1693 0.958 . S
C1679 H1694 0.961 . S
C1679 H1695 0.960 . S
H1680 C1664 0.931 . S
H1681 C1669 0.929 . S
H1682 C1670 0.960 . S
H1683 C1670 0.962 . S
H1684 C1670 0.960 . S
H1685 C1671 0.961 1_655 S
H1686 C1671 0.961 . S
H1687 C1671 0.961 . S
H1688 C1672 0.931 . S
H1689 C1677 0.930 . S
H1690 C1678 0.956 1_655 S
H1691 C1678 0.957 1_655 S
H1692 C1678 0.961 . S
H1693 C1679 0.958 . S
H1694 C1679 0.961 . S
H1695 C1679 0.960 . S
C1696 C1697 1.391 . S
C1696 C1698 1.394 . S
C1696 H1712 0.931 . S
C1697 C1696 1.391 . S
C1697 C1701 1.376 1_655 S
C1698 C1696 1.394 . S
C1698 C1699 1.369 . S
C1698 C1702 1.531 . S
C1699 C1698 1.369 . S
C1699 C1700 1.410 1_655 S
C1699 C1707 1.503 1_655 S
C1700 C1699 1.410 1_455 S
C1700 C1701 1.392 . S
C1700 C1703 1.511 . S
C1701 C1697 1.376 1_455 S
C1701 C1700 1.392 . S
C1701 H1713 0.929 . S
C1702 C1698 1.531 . S
C1702 H1714 0.960 . S
C1702 H1715 0.962 . S
C1702 H1716 0.960 . S
C1703 C1700 1.511 . S
C1703 H1717 0.961 . S
C1703 H1718 0.961 . S
C1703 H1719 0.961 . S
C1704 C1705 1.370 . S
C1704 C1706 1.363 . S
C1704 H1720 0.931 . S
C1705 C1704 1.370 . S
C1705 C1709 1.408 . S
C1706 C1704 1.363 . S
C1706 C1707 1.370 . S
C1706 C1710 1.524 1_455 S
C1707 C1699 1.503 1_455 S
C1707 C1706 1.370 . S
C1707 C1708 1.403 . S
C1708 C1707 1.403 . S
C1708 C1709 1.404 . S
C1708 C1711 1.539 . S
C1709 C1705 1.408 . S
C1709 C1708 1.404 . S
C1709 H1721 0.930 . S
C1710 C1706 1.524 1_655 S
C1710 H1722 0.956 . S
C1710 H1723 0.961 . S
C1710 H1724 0.961 . S
C1711 C1708 1.539 . S
C1711 H1725 0.958 . S
C1711 H1726 0.961 . S
C1711 H1727 0.960 . S
H1712 C1696 0.931 . S
H1713 C1701 0.929 . S
H1714 C1702 0.960 . S
H1715 C1702 0.962 . S
H1716 C1702 0.960 . S
H1717 C1703 0.961 . S
H1718 C1703 0.961 . S
H1719 C1703 0.961 . S
H1720 C1704 0.931 . S
H1721 C1709 0.930 . S
H1722 C1710 0.956 . S
H1723 C1710 0.961 . S
H1724 C1710 0.961 . S
H1725 C1711 0.958 . S
H1726 C1711 0.961 . S
H1727 C1711 0.960 . S
C1728 C1729 1.391 . S
C1728 C1730 1.394 . S
C1728 H1744 0.931 . S
C1729 C1728 1.391 . S
C1729 C1733 1.376 1_545 S
C1730 C1728 1.394 . S
C1730 C1731 1.369 . S
C1730 C1734 1.531 . S
C1731 C1730 1.369 . S
C1731 C1732 1.410 1_545 S
C1731 C1739 1.503 1_545 S
C1732 C1731 1.410 1_565 S
C1732 C1733 1.392 . S
C1732 C1735 1.511 . S
C1733 C1729 1.376 1_565 S
C1733 C1732 1.392 . S
C1733 H1745 0.929 . S
C1734 C1730 1.531 . S
C1734 H1746 0.960 . S
C1734 H1747 0.962 . S
C1734 H1748 0.960 . S
C1735 C1732 1.511 . S
C1735 H1749 0.961 . S
C1735 H1750 0.961 . S
C1735 H1751 0.961 . S
C1736 C1737 1.370 . S
C1736 C1738 1.363 . S
C1736 H1752 0.931 . S
C1737 C1736 1.370 . S
C1737 C1741 1.408 . S
C1738 C1736 1.363 . S
C1738 C1739 1.370 . S
C1738 C1742 1.524 1_565 S
C1739 C1731 1.503 1_565 S
C1739 C1738 1.370 . S
C1739 C1740 1.403 . S
C1740 C1739 1.403 . S
C1740 C1741 1.404 . S
C1740 C1743 1.539 . S
C1741 C1737 1.408 . S
C1741 C1740 1.404 . S
C1741 H1753 0.930 . S
C1742 C1738 1.524 1_545 S
C1742 H1754 0.956 . S
C1742 H1755 0.961 1_545 S
C1742 H1756 0.966 . S
C1743 C1740 1.539 . S
C1743 H1757 0.958 . S
C1743 H1758 0.961 . S
C1743 H1759 0.960 . S
H1744 C1728 0.931 . S
H1745 C1733 0.929 . S
H1746 C1734 0.960 . S
H1747 C1734 0.962 . S
H1748 C1734 0.960 . S
H1749 C1735 0.961 . S
H1750 C1735 0.961 . S
H1751 C1735 0.961 . S
H1752 C1736 0.931 . S
H1753 C1741 0.930 . S
H1754 C1742 0.956 . S
H1755 C1742 0.961 1_565 S
H1756 C1742 0.966 . S
H1757 C1743 0.958 . S
H1758 C1743 0.961 . S
H1759 C1743 0.960 . S
C1760 C1761 1.391 . S
C1760 C1762 1.394 . S
C1760 H1776 0.931 . S
C1761 C1760 1.391 . S
C1761 C1765 1.376 . S
C1762 C1760 1.394 . S
C1762 C1763 1.369 . S
C1762 C1766 1.531 . S
C1763 C1762 1.369 . S
C1763 C1764 1.410 . S
C1763 C1771 1.503 1_565 S
C1764 C1763 1.410 . S
C1764 C1765 1.392 . S
C1764 C1767 1.511 . S
C1765 C1761 1.376 . S
C1765 C1764 1.392 . S
C1765 H1777 0.929 . S
C1766 C1762 1.531 . S
C1766 H1778 0.960 1_565 S
C1766 H1779 0.962 1_565 S
C1766 H1780 0.960 . S
C1767 C1764 1.511 . S
C1767 H1781 0.961 . S
C1767 H1782 0.961 . S
C1767 H1783 0.961 . S
C1768 C1769 1.370 . S
C1768 C1770 1.363 . S
C1768 H1784 0.931 . S
C1769 C1768 1.370 . S
C1769 C1773 1.408 . S
C1770 C1768 1.363 . S
C1770 C1771 1.370 . S
C1770 C1774 1.524 . S
C1771 C1763 1.503 1_545 S
C1771 C1770 1.370 . S
C1771 C1772 1.403 . S
C1772 C1771 1.403 . S
C1772 C1773 1.404 . S
C1772 C1775 1.547 . S
C1773 C1769 1.408 . S
C1773 C1772 1.404 . S
C1773 H1785 0.930 . S
C1774 C1770 1.524 . S
C1774 H1786 0.956 . S
C1774 H1787 0.961 . S
C1774 H1788 0.961 . S
C1775 C1772 1.547 . S
C1775 H1789 0.958 . S
C1775 H1790 0.965 . S
C1775 H1791 0.948 1_545 S
H1776 C1760 0.931 . S
H1777 C1765 0.929 . S
H1778 C1766 0.960 1_545 S
H1779 C1766 0.962 1_545 S
H1780 C1766 0.960 . S
H1781 C1767 0.961 . S
H1782 C1767 0.961 . S
H1783 C1767 0.961 . S
H1784 C1768 0.931 . S
H1785 C1773 0.930 . S
H1786 C1774 0.956 . S
H1787 C1774 0.961 . S
H1788 C1774 0.961 . S
H1789 C1775 0.958 . S
H1790 C1775 0.965 . S
H1791 C1775 0.948 1_565 S
C1792 C1793 1.391 . S
C1792 C1794 1.394 . S
C1792 H1808 0.931 . S
C1793 C1792 1.391 . S
C1793 C1797 1.376 . S
C1794 C1792 1.394 . S
C1794 C1795 1.369 . S
C1794 C1798 1.531 . S
C1795 C1794 1.369 . S
C1795 C1796 1.410 . S
C1795 C1803 1.503 1_655 S
C1796 C1795 1.410 . S
C1796 C1797 1.392 . S
C1796 C1799 1.511 1_655 S
C1797 C1793 1.376 . S
C1797 C1796 1.392 . S
C1797 H1809 0.929 . S
C1798 C1794 1.531 . S
C1798 H1810 0.960 . S
C1798 H1811 0.962 . S
C1798 H1812 0.960 . S
C1799 C1796 1.511 1_455 S
C1799 H1813 0.961 1_455 S
C1799 H1814 0.961 . S
C1799 H1815 0.961 . S
C1800 C1801 1.370 . S
C1800 C1802 1.363 . S
C1800 H1816 0.931 . S
C1801 C1800 1.370 . S
C1801 C1805 1.408 . S
C1802 C1800 1.363 . S
C1802 C1803 1.370 . S
C1802 C1806 1.524 . S
C1803 C1795 1.503 1_455 S
C1803 C1802 1.370 . S
C1803 C1804 1.403 . S
C1804 C1803 1.403 . S
C1804 C1805 1.404 . S
C1804 C1807 1.539 . S
C1805 C1801 1.408 . S
C1805 C1804 1.404 . S
C1805 H1817 0.930 . S
C1806 C1802 1.524 . S
C1806 H1818 0.956 1_455 S
C1806 H1819 0.961 1_455 S
C1806 H1820 0.961 . S
C1807 C1804 1.539 . S
C1807 H1821 0.958 . S
C1807 H1822 0.961 . S
C1807 H1823 0.960 . S
H1808 C1792 0.931 . S
H1809 C1797 0.929 . S
H1810 C1798 0.960 . S
H1811 C1798 0.962 . S
H1812 C1798 0.960 . S
H1813 C1799 0.961 1_655 S
H1814 C1799 0.961 . S
H1815 C1799 0.961 . S
H1816 C1800 0.931 . S
H1817 C1805 0.930 . S
H1818 C1806 0.956 1_655 S
H1819 C1806 0.961 1_655 S
H1820 C1806 0.961 . S
H1821 C1807 0.958 . S
H1822 C1807 0.961 . S
H1823 C1807 0.960 . S
C545 C342 1.488 . S
C553 C2 1.493 . S
C577 C376 1.495 . S
C585 C36 1.495 . S
C609 C274 1.487 . S
C617 C70 1.492 . S
C641 C308 1.484 . S
C649 C104 1.491 . S
C673 C138 1.487 . S
C681 C478 1.492 . S
C705 C172 1.488 . S
C713 C512 1.493 . S
C737 C410 1.486 . S
C745 C206 1.491 . S
C769 C444 1.490 . S
C777 C240 1.493 . S
C801 C135 1.558 1_545 S
C809 C5 1.564 . S
C833 C39 1.553 . S
C841 C33 1.560 1_655 S
C865 C67 1.554 1_565 S
C873 C73 1.563 . S
C897 C107 1.554 . S
C905 C101 1.561 1_455 S
C929 C203 1.559 . S
C937 C141 1.564 . S
C961 C237 1.558 . S
C969 C175 1.564 . S
C993 C271 1.559 . S
C1001 C209 1.565 . S
C1025 C243 1.570 . S
C1033 C169 1.568 . S
C1057 C277 1.565 . S
C1065 C407 1.564 1_565 S
C1089 C311 1.560 . S
C1097 C305 1.562 1_455 S
C1121 C339 1.551 1_545 S
C1129 C345 1.562 . S
C1153 C379 1.551 . S
C1161 C373 1.559 1_655 S
C1185 C413 1.558 . S
C1193 C475 1.564 . S
C1217 C447 1.566 . S
C1225 C509 1.565 . S
C1249 C481 1.566 . S
C1257 C543 1.565 . S
C1281 C441 1.550 . S
C1289 C515 1.562 . S
C1313 C258 1.525 . S
C1321 C20 1.535 . S
C1345 C54 1.527 . S
C1353 C156 1.529 . S
C1377 C190 1.521 . S
C1385 C88 1.533 . S
C1409 C224 1.534 . S
C1417 C122 1.529 . S
C1441 C292 1.530 . S
C1449 C530 1.529 . S
C1473 C428 1.525 . S
C1481 C326 1.535 . S
C1505 C360 1.534 . S
C1513 C462 1.532 . S
C1537 C496 1.521 . S
C1545 C394 1.533 . S
C1569 C77 1.206 . S
C1577 C9 1.228 . S
C1601 C111 1.187 . S
C1609 C43 1.228 . S
C1633 C145 1.228 . S
C1641 C213 1.193 . S
C1665 C179 1.195 . S
C1673 C247 1.196 . S
C1697 C281 1.171 . S
C1705 C349 1.211 . S
C1729 C383 1.178 . S
C1737 C315 1.207 . S
C1761 C417 1.165 . S
C1769 C485 1.219 . S
C1793 C519 1.245 . S
C1801 C451 1.209 . S
