# Generated by pormake.
# Topology soi, (5)-cn, num edge types: 1
# Building blocks:
#     Node 0, Type 0, BuildingBlock: XOMCOT_clean_sbu_1, # of connection points: 5
#     Node 1, Type 0, BuildingBlock: XOMCOT_clean_sbu_1, # of connection points: 5
#     Node 2, Type 0, BuildingBlock: XOMCOT_clean_sbu_1, # of connection points: 5
#     Node 3, Type 0, BuildingBlock: XOMCOT_clean_sbu_1, # of connection points: 5
#     Node 4, Type 0, BuildingBlock: XOMCOT_clean_sbu_1, # of connection points: 5
#     Node 5, Type 0, BuildingBlock: XOMCOT_clean_sbu_1, # of connection points: 5
#     Node 6, Type 0, BuildingBlock: XOMCOT_clean_sbu_1, # of connection points: 5
#     Node 7, Type 0, BuildingBlock: XOMCOT_clean_sbu_1, # of connection points: 5
#     Node 8, Type 0, BuildingBlock: XOMCOT_clean_sbu_1, # of connection points: 5
#     Node 9, Type 0, BuildingBlock: XOMCOT_clean_sbu_1, # of connection points: 5
#     Node 10, Type 0, BuildingBlock: XOMCOT_clean_sbu_1, # of connection points: 5
#     Node 11, Type 0, BuildingBlock: XOMCOT_clean_sbu_1, # of connection points: 5
#     Node 12, Type 0, BuildingBlock: XOMCOT_clean_sbu_1, # of connection points: 5
#     Node 13, Type 0, BuildingBlock: XOMCOT_clean_sbu_1, # of connection points: 5
#     Node 14, Type 0, BuildingBlock: XOMCOT_clean_sbu_1, # of connection points: 5
#     Node 15, Type 0, BuildingBlock: XOMCOT_clean_sbu_1, # of connection points: 5
#     Edge 16, Type (0, 0), BuildingBlock: EZIPEK_clean_linker_0, # of connection points: 2
#     Edge 17, Type (0, 0), BuildingBlock: EZIPEK_clean_linker_0, # of connection points: 2
#     Edge 18, Type (0, 0), BuildingBlock: EZIPEK_clean_linker_0, # of connection points: 2
#     Edge 19, Type (0, 0), BuildingBlock: EZIPEK_clean_linker_0, # of connection points: 2
#     Edge 20, Type (0, 0), BuildingBlock: EZIPEK_clean_linker_0, # of connection points: 2
#     Edge 21, Type (0, 0), BuildingBlock: EZIPEK_clean_linker_0, # of connection points: 2
#     Edge 22, Type (0, 0), BuildingBlock: EZIPEK_clean_linker_0, # of connection points: 2
#     Edge 23, Type (0, 0), BuildingBlock: EZIPEK_clean_linker_0, # of connection points: 2
#     Edge 24, Type (0, 0), BuildingBlock: EZIPEK_clean_linker_0, # of connection points: 2
#     Edge 25, Type (0, 0), BuildingBlock: EZIPEK_clean_linker_0, # of connection points: 2
#     Edge 26, Type (0, 0), BuildingBlock: EZIPEK_clean_linker_0, # of connection points: 2
#     Edge 27, Type (0, 0), BuildingBlock: EZIPEK_clean_linker_0, # of connection points: 2
#     Edge 28, Type (0, 0), BuildingBlock: EZIPEK_clean_linker_0, # of connection points: 2
#     Edge 29, Type (0, 0), BuildingBlock: EZIPEK_clean_linker_0, # of connection points: 2
#     Edge 30, Type (0, 0), BuildingBlock: EZIPEK_clean_linker_0, # of connection points: 2
#     Edge 31, Type (0, 0), BuildingBlock: EZIPEK_clean_linker_0, # of connection points: 2
#     Edge 32, Type (0, 0), BuildingBlock: EZIPEK_clean_linker_0, # of connection points: 2
#     Edge 33, Type (0, 0), BuildingBlock: EZIPEK_clean_linker_0, # of connection points: 2
#     Edge 34, Type (0, 0), BuildingBlock: EZIPEK_clean_linker_0, # of connection points: 2
#     Edge 35, Type (0, 0), BuildingBlock: EZIPEK_clean_linker_0, # of connection points: 2
#     Edge 36, Type (0, 0), BuildingBlock: EZIPEK_clean_linker_0, # of connection points: 2
#     Edge 37, Type (0, 0), BuildingBlock: EZIPEK_clean_linker_0, # of connection points: 2
#     Edge 38, Type (0, 0), BuildingBlock: EZIPEK_clean_linker_0, # of connection points: 2
#     Edge 39, Type (0, 0), BuildingBlock: EZIPEK_clean_linker_0, # of connection points: 2
#     Edge 40, Type (0, 0), BuildingBlock: EZIPEK_clean_linker_0, # of connection points: 2
#     Edge 41, Type (0, 0), BuildingBlock: EZIPEK_clean_linker_0, # of connection points: 2
#     Edge 42, Type (0, 0), BuildingBlock: EZIPEK_clean_linker_0, # of connection points: 2
#     Edge 43, Type (0, 0), BuildingBlock: EZIPEK_clean_linker_0, # of connection points: 2
#     Edge 44, Type (0, 0), BuildingBlock: EZIPEK_clean_linker_0, # of connection points: 2
#     Edge 45, Type (0, 0), BuildingBlock: EZIPEK_clean_linker_0, # of connection points: 2
#     Edge 46, Type (0, 0), BuildingBlock: EZIPEK_clean_linker_0, # of connection points: 2
#     Edge 47, Type (0, 0), BuildingBlock: EZIPEK_clean_linker_0, # of connection points: 2
#     Edge 48, Type (0, 0), BuildingBlock: EZIPEK_clean_linker_0, # of connection points: 2
#     Edge 49, Type (0, 0), BuildingBlock: EZIPEK_clean_linker_0, # of connection points: 2
#     Edge 50, Type (0, 0), BuildingBlock: EZIPEK_clean_linker_0, # of connection points: 2
#     Edge 51, Type (0, 0), BuildingBlock: EZIPEK_clean_linker_0, # of connection points: 2
#     Edge 52, Type (0, 0), BuildingBlock: EZIPEK_clean_linker_0, # of connection points: 2
#     Edge 53, Type (0, 0), BuildingBlock: EZIPEK_clean_linker_0, # of connection points: 2
#     Edge 54, Type (0, 0), BuildingBlock: EZIPEK_clean_linker_0, # of connection points: 2
#     Edge 55, Type (0, 0), BuildingBlock: EZIPEK_clean_linker_0, # of connection points: 2
# Relax obj value: 0.107
# Max RMSD: 0.157
# Mean RMSD: 0.157
data_MOF--net-soi--node1-XOMCOT_clean_sbu_1--edge1-EZIPEK_clean_linker_0
_symmetry_space_group_name_H-M    P1
_symmetry_Int_Tables_number       1
_symmetry_cell_setting            triclinic
loop_
_symmetry_equiv_pos_as_xyz
'x, y, z'
_cell_length_a     36.782021
_cell_length_b     19.101918
_cell_length_c     51.611833
_cell_angle_alpha  90.206744
_cell_angle_beta   89.997626
_cell_angle_gamma 90.340342
loop_
_atom_site_label
_atom_site_type_symbol
_atom_site_fract_x
_atom_site_fract_y
_atom_site_fract_z
_atom_type_partial_charge
C0 C 0.32666 0.98564 0.1015 0.0
C1 C 0.30987 0.98732 0.07769 0.0
N2 N 0.28847 0.04424 0.07674 0.0
N3 N 0.31559 0.04067 0.11582 0.0
C4 C 0.29276 0.07617 0.09999 0.0
H5 H 0.3454 0.94613 0.10808 0.0
Co6 Co 0.32836 0.05561 0.15078 0.0
C7 C 0.30392 0.20669 0.1553 0.0
O8 O 0.33719 0.23062 0.1576 0.0
N9 N 0.34056 0.07032 0.18662 0.0
C10 C 0.3612 0.11729 0.2236 0.0
C11 C 0.35923 0.12468 0.19722 0.0
C12 C 0.33215 0.02983 0.20741 0.0
N13 N 0.34439 0.0573 0.23 0.0
O14 O 0.28742 0.9975 0.16057 0.0
H15 H 0.37261 0.16585 0.18665 0.0
H16 H 0.31756 0.98089 0.20624 0.0
O17 O 0.29757 0.14102 0.15218 0.0
C18 C 0.2952 0.93226 0.15939 0.0
O19 O 0.32925 0.91445 0.15571 0.0
N20 N 0.37058 0.10364 0.13969 0.0
C21 C 0.43736 0.15261 0.11936 0.0
C22 C 0.40365 0.17856 0.11064 0.0
C23 C 0.37102 0.15127 0.12011 0.0
C24 C 0.40254 0.07827 0.14889 0.0
C25 C 0.43581 0.10388 0.13991 0.0
H26 H 0.34601 0.16903 0.11173 0.0
H27 H 0.40234 0.03778 0.16349 0.0
H28 H 0.27897 0.12381 0.10544 0.0
H29 H 0.31311 0.94959 0.06217 0.0
H30 H 0.37539 0.15161 0.23699 0.0
H31 H 0.40135 0.22065 0.09696 0.0
H32 H 0.45977 0.08556 0.14976 0.0
C33 C 0.65891 0.53337 0.09729 0.0
C34 C 0.67543 0.53674 0.07337 0.0
N35 N 0.70106 0.48675 0.07219 0.0
N36 N 0.67419 0.48179 0.11123 0.0
C37 C 0.69967 0.45404 0.0953 0.0
H38 H 0.63706 0.56631 0.10407 0.0
Co39 Co 0.66223 0.45875 0.1455 0.0
C40 C 0.69381 0.31265 0.14622 0.0
O41 O 0.66179 0.28291 0.14808 0.0
N42 N 0.65105 0.43541 0.18077 0.0
C43 C 0.63376 0.37812 0.21649 0.0
C44 C 0.63523 0.37617 0.18999 0.0
C45 C 0.65839 0.47293 0.20256 0.0
N46 N 0.64814 0.43916 0.22436 0.0
O47 O 0.70015 0.52293 0.15697 0.0
H48 H 0.62354 0.33473 0.17851 0.0
H49 H 0.67095 0.52402 0.2027 0.0
O50 O 0.69721 0.37949 0.14483 0.0
C51 C 0.68987 0.58696 0.15707 0.0
O52 O 0.65549 0.60051 0.15256 0.0
N53 N 0.62275 0.40388 0.13306 0.0
C54 C 0.56303 0.3236 0.11828 0.0
C55 C 0.59587 0.31778 0.10488 0.0
C56 C 0.62528 0.35962 0.11226 0.0
C57 C 0.58948 0.41676 0.14379 0.0
C58 C 0.55935 0.37551 0.13724 0.0
H59 H 0.65055 0.35354 0.1021 0.0
H60 H 0.58669 0.45687 0.15849 0.0
H61 H 0.71702 0.41078 0.10038 0.0
H62 H 0.66878 0.57235 0.05783 0.0
H63 H 0.62167 0.33907 0.22903 0.0
H64 H 0.5991 0.27948 0.08953 0.0
H65 H 0.5338 0.38274 0.14731 0.0
C66 C 0.33005 0.02284 0.45903 0.0
C67 C 0.31432 0.02687 0.48307 0.0
N68 N 0.2949 0.96799 0.48711 0.0
N69 N 0.31991 0.96263 0.44732 0.0
C70 C 0.29959 0.92889 0.46539 0.0
H71 H 0.34711 0.06255 0.45038 0.0
Co72 Co 0.33058 0.94592 0.41218 0.0
C73 C 0.30123 0.79901 0.40329 0.0
O74 O 0.33352 0.77639 0.39675 0.0
N75 N 0.34196 0.93131 0.37606 0.0
C76 C 0.36591 0.8903 0.33917 0.0
C77 C 0.3642 0.88248 0.36551 0.0
C78 C 0.3312 0.96923 0.35518 0.0
N79 N 0.34544 0.94536 0.33267 0.0
O80 O 0.29024 0.00544 0.40298 0.0
H81 H 0.37985 0.84462 0.37611 0.0
H82 H 0.31384 0.01441 0.35624 0.0
O83 O 0.29734 0.8627 0.41086 0.0
C84 C 0.29727 0.0711 0.40283 0.0
O85 O 0.33129 0.09174 0.40474 0.0
N86 N 0.37139 0.895 0.42255 0.0
C87 C 0.43668 0.82899 0.4332 0.0
C88 C 0.40393 0.80152 0.44277 0.0
C89 C 0.37143 0.83683 0.43788 0.0
C90 C 0.40338 0.92642 0.4158 0.0
C91 C 0.43644 0.89375 0.42062 0.0
H92 H 0.34625 0.81588 0.44544 0.0
H93 H 0.403 0.97545 0.40538 0.0
H94 H 0.28782 0.87759 0.46262 0.0
H95 H 0.31651 0.07035 0.49651 0.0
H96 H 0.38248 0.86024 0.32588 0.0
H97 H 0.40341 0.75237 0.45317 0.0
H98 H 0.46141 0.91703 0.41349 0.0
C99 C 0.6688 0.4713 0.45741 0.0
C100 C 0.68501 0.47396 0.48137 0.0
N101 N 0.70879 0.52777 0.48158 0.0
N102 N 0.68276 0.52223 0.44236 0.0
C103 C 0.70649 0.55704 0.45784 0.0
H104 H 0.64811 0.43442 0.45124 0.0
Co105 Co 0.66872 0.53381 0.4081 0.0
C106 C 0.70315 0.67213 0.39338 0.0
O107 O 0.67149 0.69783 0.38689 0.0
N108 N 0.6534 0.54476 0.37264 0.0
C109 C 0.62715 0.58694 0.33685 0.0
C110 C 0.63066 0.59412 0.3631 0.0
C111 C 0.66212 0.50645 0.35131 0.0
N112 N 0.64686 0.53169 0.32946 0.0
O113 O 0.70564 0.46668 0.39798 0.0
H114 H 0.61696 0.63378 0.37425 0.0
H115 H 0.67874 0.46024 0.35152 0.0
O116 O 0.70469 0.61074 0.40324 0.0
C117 C 0.69526 0.40269 0.39749 0.0
O118 O 0.66063 0.38891 0.40129 0.0
N119 N 0.6314 0.59227 0.41973 0.0
C120 C 0.56945 0.6676 0.43202 0.0
C121 C 0.60397 0.69498 0.43782 0.0
C122 C 0.63486 0.65517 0.4322 0.0
C123 C 0.59801 0.56193 0.41682 0.0
C124 C 0.56655 0.5991 0.42252 0.0
H125 H 0.66141 0.67593 0.43699 0.0
H126 H 0.59587 0.50989 0.40859 0.0
H127 H 0.72179 0.60276 0.45203 0.0
H128 H 0.67973 0.43926 0.49751 0.0
H129 H 0.61064 0.61871 0.32417 0.0
H130 H 0.60699 0.74717 0.44583 0.0
H131 H 0.54022 0.576 0.41834 0.0
C132 C 0.64978 0.00981 0.9595 0.0
C133 C 0.66671 0.00946 0.98335 0.0
N134 N 0.69676 0.96996 0.98139 0.0
N135 N 0.66936 0.97131 0.94261 0.0
C136 C 0.69779 0.9475 0.95657 0.0
H137 H 0.62504 0.03707 0.95463 0.0
Co138 Co 0.65844 0.95719 0.90761 0.0
C139 C 0.68441 0.80744 0.90253 0.0
O140 O 0.65149 0.78207 0.8998 0.0
N141 N 0.64775 0.94305 0.87157 0.0
C142 C 0.62945 0.89464 0.83422 0.0
C143 C 0.62992 0.88806 0.86063 0.0
C144 C 0.65683 0.98352 0.85096 0.0
N145 N 0.6464 0.95463 0.82818 0.0
O146 O 0.69947 0.01595 0.89911 0.0
H147 H 0.61623 0.84676 0.87092 0.0
H148 H 0.6702 0.03377 0.85237 0.0
O149 O 0.68991 0.87304 0.90638 0.0
C150 C 0.69059 0.08051 0.89974 0.0
O151 O 0.65614 0.09603 0.90311 0.0
N152 N 0.61641 0.90753 0.91757 0.0
C153 C 0.54952 0.85528 0.93623 0.0
C154 C 0.58312 0.83033 0.94561 0.0
C155 C 0.61584 0.85916 0.9369 0.0
C156 C 0.58461 0.93245 0.90797 0.0
C157 C 0.55133 0.90527 0.91613 0.0
H158 H 0.64087 0.84246 0.94574 0.0
H159 H 0.58499 0.97377 0.89369 0.0
H160 H 0.71923 0.91523 0.94871 0.0
H161 H 0.65787 0.03633 1.00073 0.0
H162 H 0.61656 0.85942 0.82049 0.0
H163 H 0.58543 0.78835 0.95927 0.0
H164 H 0.52743 0.92355 0.90615 0.0
C165 C 0.33458 0.49807 0.95609 0.0
C166 C 0.32051 0.49211 0.98071 0.0
N167 N 0.28923 0.52832 0.98175 0.0
N168 N 0.3121 0.53733 0.94159 0.0
C169 C 0.28471 0.55524 0.95779 0.0
H170 H 0.35948 0.4749 0.94907 0.0
Co171 Co 0.31931 0.55813 0.90652 0.0
C172 C 0.2862 0.70304 0.90831 0.0
O173 O 0.3179 0.73465 0.90781 0.0
N174 N 0.32585 0.57713 0.87044 0.0
C175 C 0.33359 0.63093 0.83245 0.0
C176 C 0.33091 0.63976 0.8587 0.0
C177 C 0.3265 0.53061 0.85048 0.0
N178 N 0.33084 0.56235 0.82727 0.0
O179 O 0.28086 0.49282 0.89839 0.0
H180 H 0.33439 0.6892 0.86818 0.0
H181 H 0.32453 0.4745 0.8528 0.0
O182 O 0.28362 0.63596 0.90848 0.0
C183 C 0.29184 0.42949 0.89881 0.0
O184 O 0.32662 0.41771 0.9025 0.0
N185 N 0.35947 0.61648 0.91567 0.0
C186 C 0.42059 0.69465 0.92952 0.0
C187 C 0.3896 0.69567 0.94507 0.0
C188 C 0.35951 0.65542 0.93804 0.0
C189 C 0.39072 0.61095 0.90148 0.0
C190 C 0.42144 0.65094 0.90775 0.0
H191 H 0.33561 0.65836 0.95008 0.0
H192 H 0.39203 0.57549 0.88515 0.0
H193 H 0.26185 0.58725 0.95224 0.0
H194 H 0.33234 0.46364 0.9967 0.0
H195 H 0.33859 0.67144 0.81824 0.0
H196 H 0.38847 0.72827 0.96227 0.0
H197 H 0.44557 0.64782 0.89578 0.0
C198 C 0.65895 0.99244 0.59633 0.0
C199 C 0.67309 0.98939 0.5717 0.0
N200 N 0.70158 0.03387 0.57039 0.0
N201 N 0.67889 0.03741 0.6107 0.0
C202 C 0.70435 0.06284 0.59426 0.0
H203 H 0.63603 0.96263 0.60355 0.0
Co204 Co 0.67036 0.05435 0.64574 0.0
C205 C 0.70088 0.20291 0.64857 0.0
O206 O 0.6689 0.23173 0.65126 0.0
N207 N 0.66149 0.07094 0.68183 0.0
C208 C 0.6445 0.12156 0.71901 0.0
C209 C 0.64697 0.12914 0.69271 0.0
C210 C 0.66638 0.02763 0.70233 0.0
N211 N 0.65669 0.05774 0.72503 0.0
O212 O 0.71018 0.99325 0.6539 0.0
H213 H 0.63583 0.17272 0.68239 0.0
H214 H 0.67545 0.97416 0.70078 0.0
O215 O 0.70416 0.13648 0.64551 0.0
C216 C 0.69988 0.92921 0.65397 0.0
O217 O 0.6651 0.91523 0.65097 0.0
N218 N 0.62935 0.10589 0.63649 0.0
C219 C 0.56431 0.17032 0.62456 0.0
C220 C 0.59616 0.18965 0.61157 0.0
C221 C 0.62841 0.15488 0.61727 0.0
C222 C 0.59781 0.08172 0.64717 0.0
C223 C 0.56492 0.11401 0.64177 0.0
H224 H 0.65284 0.16891 0.60692 0.0
H225 H 0.59834 0.03815 0.66048 0.0
H226 H 0.72491 0.10089 0.59968 0.0
H227 H 0.66339 0.95668 0.55595 0.0
H228 H 0.63269 0.15837 0.73256 0.0
H229 H 0.59622 0.23212 0.59772 0.0
H230 H 0.54044 0.09702 0.65165 0.0
C231 C 0.32658 0.52165 0.59702 0.0
C232 C 0.30972 0.52197 0.57335 0.0
N233 N 0.28896 0.46394 0.57133 0.0
N234 N 0.31593 0.46468 0.61042 0.0
C235 C 0.29388 0.42902 0.59389 0.0
H236 H 0.34476 0.5617 0.60431 0.0
Co237 Co 0.32964 0.45412 0.64506 0.0
C238 C 0.29714 0.31939 0.66362 0.0
O239 O 0.32811 0.30342 0.67462 0.0
N240 N 0.3447 0.44643 0.68067 0.0
C241 C 0.37496 0.41777 0.71669 0.0
C242 C 0.37315 0.40994 0.69034 0.0
C243 C 0.33016 0.47731 0.70204 0.0
N244 N 0.34812 0.46062 0.72401 0.0
O245 O 0.2919 0.51768 0.65468 0.0
H246 H 0.39111 0.3771 0.67932 0.0
H247 H 0.30698 0.51176 0.70176 0.0
O248 O 0.29532 0.37504 0.64987 0.0
C249 C 0.30069 0.58232 0.65425 0.0
O250 O 0.33503 0.59971 0.65121 0.0
N251 N 0.36751 0.39761 0.63391 0.0
C252 C 0.43094 0.32718 0.62233 0.0
C253 C 0.39729 0.29299 0.62005 0.0
C254 C 0.36549 0.33013 0.62519 0.0
C255 C 0.39961 0.4335 0.63323 0.0
C256 C 0.4319 0.39904 0.62765 0.0
H257 H 0.33962 0.30402 0.62283 0.0
H258 H 0.40024 0.48827 0.63864 0.0
H259 H 0.28099 0.37963 0.59841 0.0
H260 H 0.31208 0.56236 0.55877 0.0
H261 H 0.3949 0.39489 0.72951 0.0
H262 H 0.39576 0.23786 0.61515 0.0
H263 H 0.45752 0.42707 0.62902 0.0
C264 C 0.83642 0.49194 0.59672 0.0
C265 C 0.82057 0.48968 0.57265 0.0
N266 N 0.79725 0.54348 0.57077 0.0
N267 N 0.82269 0.546 0.61033 0.0
C268 C 0.79964 0.57785 0.59368 0.0
H269 H 0.85617 0.45538 0.60406 0.0
Co270 Co 0.83424 0.56039 0.64524 0.0
C271 C 0.79937 0.69782 0.65822 0.0
O272 O 0.8311 0.72343 0.66501 0.0
N273 N 0.84661 0.57307 0.68126 0.0
C274 C 0.86931 0.6143 0.71858 0.0
C275 C 0.86838 0.62252 0.69227 0.0
C276 C 0.8355 0.53419 0.70183 0.0
N277 N 0.84889 0.55836 0.72458 0.0
O278 O 0.79747 0.49143 0.65418 0.0
H279 H 0.88328 0.66285 0.68218 0.0
H280 H 0.81807 0.4887 0.70046 0.0
O281 O 0.79735 0.63567 0.64876 0.0
C282 C 0.80662 0.42698 0.65318 0.0
O283 O 0.84103 0.41126 0.64993 0.0
N284 N 0.87116 0.62204 0.63464 0.0
C285 C 0.92899 0.70747 0.62061 0.0
C286 C 0.89379 0.72304 0.6123 0.0
C287 C 0.86515 0.67898 0.6193 0.0
C288 C 0.90583 0.60168 0.64003 0.0
C289 C 0.93526 0.64495 0.63387 0.0
H290 H 0.83805 0.69194 0.613 0.0
H291 H 0.91041 0.55339 0.65039 0.0
H292 H 0.78437 0.62433 0.59829 0.0
H293 H 0.82547 0.45101 0.55768 0.0
H294 H 0.88481 0.64553 0.73227 0.0
H295 H 0.8884 0.77001 0.60128 0.0
H296 H 0.96244 0.63063 0.63985 0.0
C297 C 0.15887 0.01262 0.6005 0.0
C298 C 0.17418 0.01393 0.57614 0.0
N299 N 0.20428 0.9741 0.57644 0.0
N300 N 0.17939 0.97261 0.61615 0.0
C301 C 0.20676 0.94938 0.60088 0.0
H302 H 0.13452 0.03962 0.60654 0.0
Co303 Co 0.17042 0.95614 0.65139 0.0
C304 C 0.19647 0.80572 0.65047 0.0
O305 O 0.1636 0.77886 0.65006 0.0
N306 N 0.16223 0.93995 0.68751 0.0
C307 C 0.1506 0.88644 0.72503 0.0
C308 C 0.15295 0.87845 0.69874 0.0
C309 C 0.16421 0.98538 0.70781 0.0
N310 N 0.15752 0.95368 0.73078 0.0
O311 O 0.21169 0.01427 0.65949 0.0
H312 H 0.14632 0.83083 0.68878 0.0
H313 H 0.16966 0.04078 0.70587 0.0
O314 O 0.2017 0.87214 0.6504 0.0
C315 C 0.202 0.07836 0.65858 0.0
O316 O 0.16757 0.0924 0.65441 0.0
N317 N 0.12737 0.9072 0.64228 0.0
C318 C 0.05818 0.86646 0.6237 0.0
C319 C 0.09048 0.84338 0.6117 0.0
C320 C 0.12433 0.86662 0.62054 0.0
C321 C 0.09678 0.92718 0.6551 0.0
C322 C 0.06249 0.9053 0.64686 0.0
H323 H 0.14827 0.85203 0.60971 0.0
H324 H 0.0986 0.96224 0.67154 0.0
H325 H 0.22834 0.91559 0.60748 0.0
H326 H 0.16411 0.04206 0.55947 0.0
H327 H 0.14271 0.84664 0.73886 0.0
H328 H 0.09074 0.80716 0.5957 0.0
H329 H 0.03984 0.91949 0.65903 0.0
C330 C 0.81845 0.53974 0.9527 0.0
C331 C 0.80281 0.54186 0.97683 0.0
N332 N 0.78372 0.48235 0.98024 0.0
N333 N 0.80877 0.47974 0.94061 0.0
C334 C 0.78847 0.44471 0.95829 0.0
H335 H 0.83555 0.57996 0.9444 0.0
Co336 Co 0.82141 0.46062 0.90622 0.0
C337 C 0.79244 0.31222 0.89937 0.0
O338 O 0.82506 0.28719 0.89543 0.0
N339 N 0.8348 0.44254 0.87092 0.0
C340 C 0.85935 0.39508 0.83538 0.0
C341 C 0.856 0.3902 0.86172 0.0
C342 C 0.82658 0.47978 0.84936 0.0
N343 N 0.84118 0.45193 0.82763 0.0
O344 O 0.78169 0.51885 0.89519 0.0
H345 H 0.87016 0.35229 0.8733 0.0
H346 H 0.81087 0.52723 0.84938 0.0
O347 O 0.7884 0.37734 0.90486 0.0
C348 C 0.78902 0.58434 0.89479 0.0
O349 O 0.82308 0.60446 0.8971 0.0
N350 N 0.86158 0.41165 0.91835 0.0
C351 C 0.92673 0.35097 0.93245 0.0
C352 C 0.89384 0.32352 0.94172 0.0
C353 C 0.86132 0.35626 0.93502 0.0
C354 C 0.89354 0.44329 0.91174 0.0
C355 C 0.92658 0.41323 0.9183 0.0
H356 H 0.83598 0.33542 0.94233 0.0
H357 H 0.89322 0.49053 0.90024 0.0
H358 H 0.77729 0.393 0.95528 0.0
H359 H 0.80518 0.58388 0.99088 0.0
H360 H 0.87566 0.36189 0.82299 0.0
H361 H 0.89331 0.27614 0.95319 0.0
H362 H 0.9517 0.43625 0.91129 0.0
C363 C 0.15799 1.00268 0.96387 0.0
C364 C 0.17458 1.00394 0.98769 0.0
N365 N 0.19945 0.0559 0.98784 0.0
N366 N 0.17262 0.05287 0.94876 0.0
C367 C 0.19715 0.08603 0.96418 0.0
H368 H 0.13716 0.96617 0.95768 0.0
Co369 Co 0.15938 0.0608 0.91399 0.0
C370 C 0.19472 0.19122 0.89413 0.0
O371 O 0.16387 0.20891 0.88333 0.0
N372 N 0.14479 0.06666 0.87814 0.0
C373 C 0.11581 0.09622 0.84169 0.0
C374 C 0.11706 0.10435 0.86802 0.0
C375 C 0.15942 0.03465 0.857 0.0
N376 N 0.14223 0.05195 0.83475 0.0
O377 O 0.1953 0.99198 0.9054 0.0
H378 H 0.09925 0.13841 0.87865 0.0
H379 H 0.18218 0.99918 0.85769 0.0
O380 O 0.19565 0.13622 0.90828 0.0
C381 C 0.18418 0.92864 0.90667 0.0
O382 O 0.14946 0.91619 0.91058 0.0
N383 N 0.12289 0.12182 0.92429 0.0
C384 C 0.06118 0.19768 0.93592 0.0
C385 C 0.09557 0.22894 0.93828 0.0
C386 C 0.12649 0.18912 0.93301 0.0
C387 C 0.08998 0.08881 0.92498 0.0
C388 C 0.05852 0.12617 0.93035 0.0
H389 H 0.15298 0.21288 0.93535 0.0
H390 H 0.08806 0.03406 0.91967 0.0
H391 H 0.21351 0.13014 0.95817 0.0
H392 H 0.16922 0.96872 1.00365 0.0
H393 H 0.09652 0.11998 0.82859 0.0
H394 H 0.09834 0.28385 0.94324 0.0
H395 H 0.03226 0.10049 0.9288 0.0
C396 C 0.15127 0.49776 0.45867 0.0
C397 C 0.16584 0.49939 0.48325 0.0
N398 N 0.19537 0.458 0.48357 0.0
N399 N 0.17172 0.45605 0.44349 0.0
C400 C 0.19813 0.4318 0.45929 0.0
H401 H 0.12799 0.52695 0.45199 0.0
Co402 Co 0.16563 0.44372 0.40779 0.0
C403 C 0.18973 0.29121 0.40732 0.0
O404 O 0.15658 0.26584 0.4061 0.0
N405 N 0.16035 0.43208 0.37132 0.0
C406 C 0.15012 0.38539 0.33227 0.0
C407 C 0.15117 0.3728 0.35836 0.0
C408 C 0.16385 0.48067 0.35235 0.0
N409 N 0.15811 0.45313 0.32852 0.0
O410 O 0.20862 0.50037 0.40244 0.0
H411 H 0.1439 0.32375 0.36701 0.0
H412 H 0.16955 0.53547 0.35582 0.0
O413 O 0.19558 0.35743 0.40859 0.0
C414 C 0.20053 0.56533 0.40381 0.0
O415 O 0.16625 0.58237 0.407 0.0
N416 N 0.1209 0.39663 0.41403 0.0
C417 C 0.04902 0.35802 0.42765 0.0
C418 C 0.07952 0.33186 0.44112 0.0
C419 C 0.11474 0.35388 0.43474 0.0
C420 C 0.09216 0.41974 0.39986 0.0
C421 C 0.05674 0.39864 0.4055 0.0
H422 H 0.13715 0.33668 0.44663 0.0
H423 H 0.09629 0.45652 0.38427 0.0
H424 H 0.21986 0.39781 0.45297 0.0
H425 H 0.15611 0.53 0.49949 0.0
H426 H 0.14266 0.34841 0.3172 0.0
H427 H 0.07707 0.29399 0.45647 0.0
H428 H 0.03613 0.41483 0.39201 0.0
C429 C 0.8297 0.97926 0.45474 0.0
C430 C 0.81403 0.9787 0.47881 0.0
N431 N 0.78976 0.03109 0.48005 0.0
N432 N 0.81489 0.03049 0.44047 0.0
C433 C 0.79111 0.06256 0.45657 0.0
H434 H 0.85038 0.94389 0.44779 0.0
Co435 Co 0.82759 0.03762 0.4059 0.0
C436 C 0.79054 0.16346 0.38509 0.0
O437 O 0.82121 0.17929 0.37333 0.0
N438 N 0.84153 0.04002 0.3704 0.0
C439 C 0.87374 0.02357 0.33426 0.0
C440 C 0.87516 0.02802 0.36073 0.0
C441 C 0.81993 0.04066 0.34903 0.0
N442 N 0.83907 0.03123 0.32694 0.0
O443 O 0.79314 0.96398 0.39804 0.0
H444 H 0.89928 0.01796 0.3718 0.0
H445 H 0.79066 0.04551 0.34966 0.0
O446 O 0.78979 0.10911 0.39963 0.0
C447 C 0.80546 0.90204 0.39536 0.0
O448 O 0.8408 0.89253 0.39594 0.0
N449 N 0.86255 0.10616 0.4153 0.0
C450 C 0.91829 0.19918 0.42814 0.0
C451 C 0.88191 0.21898 0.43093 0.0
C452 C 0.85434 0.17119 0.42476 0.0
C453 C 0.89757 0.08334 0.41638 0.0
C454 C 0.9261 0.12974 0.42165 0.0
H455 H 0.82655 0.18671 0.42792 0.0
H456 H 0.90343 0.02864 0.41326 0.0
H457 H 0.77465 0.10686 0.45114 0.0
H458 H 0.81989 0.9424 0.4943 0.0
H459 H 0.89615 0.01184 0.32138 0.0
H460 H 0.87496 0.27125 0.43738 0.0
H461 H 0.95392 0.11156 0.42084 0.0
C462 C 0.16722 0.47103 0.10178 0.0
C463 C 0.1831 0.4657 0.0778 0.0
N464 N 0.20298 0.52396 0.07351 0.0
N465 N 0.17759 0.53159 0.11311 0.0
C466 C 0.19882 0.56362 0.09514 0.0
H467 H 0.14972 0.43228 0.11062 0.0
Co468 Co 0.16605 0.55328 0.14767 0.0
C469 C 0.19217 0.70323 0.15163 0.0
O470 O 0.1594 0.72609 0.15648 0.0
N471 N 0.15441 0.57397 0.18327 0.0
C472 C 0.13116 0.62105 0.21943 0.0
C473 C 0.13267 0.625 0.19294 0.0
C474 C 0.16539 0.53933 0.20481 0.0
N475 N 0.15156 0.56685 0.22682 0.0
O476 O 0.20677 0.49722 0.15839 0.0
H477 H 0.11707 0.66152 0.18171 0.0
H478 H 0.18266 0.49398 0.20466 0.0
O479 O 0.1979 0.63809 0.14701 0.0
C480 C 0.19959 0.43172 0.15968 0.0
O481 O 0.16553 0.41118 0.1579 0.0
N482 N 0.12461 0.6003 0.13597 0.0
C483 C 0.06031 0.66722 0.12394 0.0
C484 C 0.09266 0.68721 0.11174 0.0
C485 C 0.1246 0.65142 0.11754 0.0
C486 C 0.09251 0.57411 0.14507 0.0
C487 C 0.05994 0.6081 0.13984 0.0
H488 H 0.14951 0.66701 0.10825 0.0
H489 H 0.09254 0.52938 0.15787 0.0
H490 H 0.21171 0.61411 0.09802 0.0
H491 H 0.18036 0.42214 0.06445 0.0
H492 H 0.11491 0.65322 0.23223 0.0
H493 H 0.09346 0.73167 0.09878 0.0
H494 H 0.03505 0.59053 0.14903 0.0
C495 C 0.83422 0.00872 0.09163 0.0
C496 C 0.82198 1.00416 0.06668 0.0
N497 N 0.79559 0.95463 0.06503 0.0
N498 N 0.8152 0.96426 0.10653 0.0
C499 C 0.79095 0.934 0.09012 0.0
H500 H 0.8549 0.0444 0.09868 0.0
Co501 Co 0.82462 0.95815 0.14205 0.0
C502 C 0.78493 0.83101 0.16224 0.0
O503 O 0.8082 0.82551 0.18138 0.0
N504 N 0.8357 0.95555 0.17823 0.0
C505 C 0.86585 0.94215 0.21545 0.0
C506 C 0.86689 0.93225 0.18918 0.0
C507 C 0.81624 0.98012 0.19872 0.0
N508 N 0.83416 0.97235 0.22141 0.0
O509 O 0.78709 0.02532 0.14828 0.0
H510 H 0.88958 0.90941 0.17912 0.0
H511 H 0.78972 1.00392 0.19715 0.0
O512 O 0.78862 0.88037 0.1456 0.0
C513 C 0.79779 0.08897 0.14767 0.0
O514 O 0.83261 0.10263 0.14494 0.0
N515 N 0.86344 0.8976 0.1344 0.0
C516 C 0.92814 0.82763 0.12486 0.0
C517 C 0.89594 0.79008 0.12877 0.0
C518 C 0.8637 0.82609 0.13334 0.0
C519 C 0.89445 0.93472 0.12931 0.0
C520 C 0.92723 0.90075 0.12453 0.0
H521 H 0.83978 0.79546 0.13658 0.0
H522 H 0.894 0.99125 0.13023 0.0
H523 H 0.76908 0.90153 0.0971 0.0
H524 H 0.83094 0.03824 0.05125 0.0
H525 H 0.88703 0.92934 0.22918 0.0
H526 H 0.89595 0.73336 0.12905 0.0
H527 H 0.95186 0.9311 0.12164 0.0
C528 C 0.24252 0.871 0.13762 0.0
C529 C 0.26697 0.87572 0.15891 0.0
C530 C 0.24423 0.76189 0.17474 0.0
C531 C 0.22214 0.75542 0.15235 0.0
N532 N 0.20681 0.79517 0.10966 0.0
N533 N 0.29476 0.82034 0.19598 0.0
C534 C 0.22325 0.80753 0.13298 0.0
C535 C 0.269 0.81937 0.1769 0.0
N536 N 0.2373 0.92712 0.1218 0.0
N537 N 0.24055 0.71458 0.1944 0.0
H538 H 0.31193 0.86293 0.19933 0.0
H539 H 0.30054 0.7773 0.20756 0.0
H540 H 0.22373 0.67054 0.19308 0.0
H541 H 0.25239 0.72112 0.21258 0.0
H542 H 0.21707 0.92891 0.10771 0.0
H543 H 0.25058 0.97463 0.12438 0.0
H544 H 0.20969 0.82776 0.09365 0.0
H545 H 0.19378 0.74799 0.10541 0.0
C546 C 0.71069 0.69819 0.17939 0.0
C547 C 0.71577 0.64736 0.1595 0.0
C548 C 0.75872 0.72722 0.13777 0.0
C549 C 0.75715 0.77403 0.1592 0.0
N550 N 0.73233 0.80365 0.20101 0.0
N551 N 0.74874 0.60994 0.12155 0.0
C552 C 0.73331 0.75919 0.18019 0.0
C553 C 0.74109 0.66081 0.13931 0.0
N554 N 0.68376 0.6889 0.19734 0.0
N555 N 0.77612 0.74639 0.11549 0.0
H556 H 0.73594 0.56143 0.12141 0.0
H557 H 0.77024 0.61337 0.10847 0.0
H558 H 0.78888 0.79444 0.11304 0.0
H559 H 0.77449 0.71791 0.09828 0.0
H560 H 0.67556 0.72758 0.2103 0.0
H561 H 0.66794 0.64363 0.19839 0.0
H562 H 0.71977 0.79142 0.21851 0.0
H563 H 0.74537 0.8523 0.20113 0.0
C564 C 0.2433 0.12942 0.42389 0.0
C565 C 0.26817 0.12528 0.40279 0.0
C566 C 0.24308 0.23459 0.38509 0.0
C567 C 0.22009 0.24044 0.40705 0.0
N568 N 0.204 0.20303 0.44997 0.0
N569 N 0.29457 0.17824 0.36464 0.0
C570 C 0.22186 0.19049 0.42718 0.0
C571 C 0.26897 0.17939 0.38385 0.0
N572 N 0.23978 0.07503 0.44082 0.0
N573 N 0.23915 0.27997 0.36487 0.0
H574 H 0.31199 0.13625 0.36156 0.0
H575 H 0.29983 0.22043 0.35246 0.0
H576 H 0.22185 0.3229 0.36552 0.0
H577 H 0.25143 0.27309 0.34688 0.0
H578 H 0.21927 0.07187 0.45468 0.0
H579 H 0.25519 0.02986 0.43971 0.0
H580 H 0.2073 0.17287 0.46656 0.0
H581 H 0.18876 0.24814 0.4532 0.0
C582 C 0.76119 0.27181 0.36662 0.0
C583 C 0.76054 0.21705 0.38521 0.0
C584 C 0.71819 0.28523 0.4117 0.0
C585 C 0.72094 0.34257 0.39421 0.0
N586 N 0.75013 0.39366 0.3567 0.0
N587 N 0.72303 0.16023 0.41734 0.0
C588 C 0.74386 0.33687 0.37211 0.0
C589 C 0.73466 0.22015 0.40551 0.0
N590 N 0.77539 0.25891 0.34261 0.0
N591 N 0.70152 0.29397 0.43513 0.0
H592 H 0.72958 0.11055 0.4105 0.0
H593 H 0.70218 0.15914 0.43101 0.0
H594 H 0.69089 0.34168 0.44113 0.0
H595 H 0.70222 0.25659 0.44977 0.0
H596 H 0.77389 0.29383 0.32721 0.0
H597 H 0.78401 0.20915 0.33701 0.0
H598 H 0.76967 0.3945 0.3421 0.0
H599 H 0.7387 0.44249 0.35997 0.0
C600 C 0.74204 0.14801 0.87815 0.0
C601 C 0.71776 0.13894 0.89932 0.0
C602 C 0.73431 0.25585 0.91594 0.0
C603 C 0.76122 0.26205 0.8965 0.0
N604 N 0.78223 0.22662 0.8544 0.0
N605 N 0.69778 0.17711 0.94162 0.0
C606 C 0.76276 0.21132 0.87627 0.0
C607 C 0.71576 0.19108 0.91904 0.0
N608 N 0.74608 0.09569 0.86025 0.0
N609 N 0.72462 0.31268 0.9304 0.0
H610 H 0.68557 0.12893 0.94537 0.0
H611 H 0.69878 0.20994 0.95778 0.0
H612 H 0.73368 0.36297 0.9262 0.0
H613 H 0.70322 0.31213 0.94362 0.0
H614 H 0.76588 0.09562 0.84588 0.0
H615 H 0.73142 0.04903 0.86077 0.0
H616 H 0.78257 0.19566 0.8378 0.0
H617 H 0.79522 0.27483 0.8518 0.0
C618 C 0.24552 0.35604 0.87448 0.0
C619 C 0.26661 0.36832 0.8971 0.0
C620 C 0.251 0.25069 0.91296 0.0
C621 C 0.22577 0.24251 0.89247 0.0
N622 N 0.21171 0.27195 0.84835 0.0
N623 N 0.28371 0.33222 0.9402 0.0
C624 C 0.22653 0.29111 0.87164 0.0
C625 C 0.26787 0.31683 0.91692 0.0
N626 N 0.2431 0.40667 0.85594 0.0
N627 N 0.26159 0.19428 0.92718 0.0
H628 H 0.29485 0.38115 0.9444 0.0
H629 H 0.28197 0.29936 0.95624 0.0
H630 H 0.25487 0.14312 0.92198 0.0
H631 H 0.28186 0.19684 0.94126 0.0
H632 H 0.22506 0.40453 0.84043 0.0
H633 H 0.25736 0.45378 0.85696 0.0
H634 H 0.21364 0.30161 0.83154 0.0
H635 H 0.2012 0.22184 0.84503 0.0
C636 C 0.74823 0.86044 0.67766 0.0
C637 C 0.7257 0.86948 0.65558 0.0
C638 C 0.74167 0.75137 0.6402 0.0
C639 C 0.76754 0.74601 0.66033 0.0
N640 N 0.78475 0.78084 0.70338 0.0
N641 N 0.7067 0.82886 0.61328 0.0
C642 C 0.76774 0.79664 0.68059 0.0
C643 C 0.72383 0.81614 0.63625 0.0
N644 N 0.75184 0.91325 0.69544 0.0
N645 N 0.73208 0.69377 0.62598 0.0
H646 H 0.69489 0.87674 0.60902 0.0
H647 H 0.70795 0.79514 0.5974 0.0
H648 H 0.74042 0.64355 0.6308 0.0
H649 H 0.71135 0.69376 0.61224 0.0
H650 H 0.77071 0.91307 0.71045 0.0
H651 H 0.73793 0.96034 0.6942 0.0
H652 H 0.7837 0.81184 0.71997 0.0
H653 H 0.79667 0.73215 0.7066 0.0
C654 C 0.24918 0.74802 0.67276 0.0
C655 C 0.22714 0.75619 0.65043 0.0
C656 C 0.24874 0.64481 0.63304 0.0
C657 C 0.27291 0.63839 0.6544 0.0
N658 N 0.2992 0.68742 0.69336 0.0
N659 N 0.21304 0.72307 0.60658 0.0
C660 C 0.27422 0.69142 0.67381 0.0
C661 C 0.22918 0.70777 0.62973 0.0
N662 N 0.24501 0.79225 0.69341 0.0
N663 N 0.24366 0.59051 0.61613 0.0
H664 H 0.19932 0.76993 0.60339 0.0
H665 H 0.21666 0.69334 0.58983 0.0
H666 H 0.25645 0.5426 0.61802 0.0
H667 H 0.22373 0.59017 0.60179 0.0
H668 H 0.25682 0.78394 0.71146 0.0
H669 H 0.228 0.83566 0.69298 0.0
H670 H 0.30461 0.72835 0.7062 0.0
H671 H 0.3159 0.64413 0.69607 0.0
C672 C 0.75571 0.36147 0.63093 0.0
C673 C 0.7791 0.36924 0.65273 0.0
C674 C 0.75428 0.25969 0.67083 0.0
C675 C 0.73269 0.25075 0.64829 0.0
N676 N 0.7199 0.28232 0.60427 0.0
N677 N 0.80451 0.32036 0.69181 0.0
C678 C 0.7357 0.29838 0.62753 0.0
C679 C 0.77973 0.31636 0.67212 0.0
N680 N 0.75183 0.41477 0.61365 0.0
N681 N 0.74934 0.21581 0.69141 0.0
H682 H 0.82197 0.363 0.69439 0.0
H683 H 0.80918 0.27975 0.70476 0.0
H684 H 0.73203 0.17237 0.69068 0.0
H685 H 0.76082 0.22439 0.70959 0.0
H686 H 0.73249 0.41461 0.59893 0.0
H687 H 0.76527 0.46232 0.61555 0.0
H688 H 0.72404 0.31131 0.58747 0.0
H689 H 0.70598 0.23536 0.60111 0.0
C690 C 0.24334 0.25505 0.64348 0.0
C691 C 0.26709 0.26593 0.66471 0.0
C692 C 0.24802 0.15215 0.68296 0.0
C693 C 0.22817 0.13799 0.65995 0.0
N694 N 0.21391 0.1698 0.61594 0.0
N695 N 0.28003 0.23856 0.70922 0.0
C696 C 0.2278 0.18782 0.63958 0.0
C697 C 0.26618 0.21799 0.68579 0.0
N698 N 0.23279 0.3098 0.62839 0.0
N699 N 0.25004 0.10238 0.70185 0.0
H700 H 0.28988 0.28917 0.71247 0.0
H701 H 0.27803 0.20937 0.72613 0.0
H702 H 0.23679 0.05422 0.70052 0.0
H703 H 0.26696 0.1061 0.71795 0.0
H704 H 0.21355 0.30495 0.61366 0.0
H705 H 0.2381 0.36169 0.63335 0.0
H706 H 0.21626 0.20156 0.59964 0.0
H707 H 0.20412 0.11974 0.61193 0.0
C708 C 0.73665 0.64407 0.91698 0.0
C709 C 0.76021 0.63893 0.89519 0.0
C710 C 0.73573 0.74995 0.87859 0.0
C711 C 0.71478 0.7571 0.90148 0.0
N712 N 0.70241 0.72098 0.94513 0.0
N713 N 0.78517 0.69132 0.85646 0.0
C714 C 0.71743 0.70709 0.92146 0.0
C715 C 0.76075 0.69345 0.8764 0.0
N716 N 0.7319 0.58868 0.93328 0.0
N717 N 0.73071 0.79558 0.85857 0.0
H718 H 0.802 0.64863 0.85299 0.0
H719 H 0.79002 0.73328 0.84409 0.0
H720 H 0.71366 0.83889 0.85991 0.0
H721 H 0.74176 0.78844 0.84018 0.0
H722 H 0.71236 0.58772 0.94787 0.0
H723 H 0.74438 0.5407 0.93058 0.0
H724 H 0.70657 0.68997 0.96142 0.0
H725 H 0.68938 0.76804 0.94923 0.0
C726 C 0.20833 0.81797 0.88653 0.0
C727 C 0.20983 0.86886 0.90671 0.0
C728 C 0.2512 0.79367 0.93115 0.0
C729 C 0.25396 0.74856 0.90955 0.0
N730 N 0.23686 0.71764 0.86596 0.0
N731 N 0.23686 0.90917 0.94684 0.0
C732 C 0.23262 0.76005 0.88711 0.0
C733 C 0.2324 0.85779 0.92867 0.0
N734 N 0.18392 0.82527 0.86676 0.0
N735 N 0.26645 0.77448 0.9542 0.0
H736 H 0.22452 0.95763 0.94543 0.0
H737 H 0.25567 0.90655 0.96187 0.0
H738 H 0.27975 0.72679 0.95653 0.0
H739 H 0.26255 0.80171 0.97148 0.0
H740 H 0.17866 0.78632 0.85309 0.0
H741 H 0.16735 0.86904 0.8648 0.0
H742 H 0.2257 0.72819 0.84786 0.0
H743 H 0.25306 0.67304 0.86624 0.0
C744 C 0.2497 0.63618 0.38141 0.0
C745 C 0.22819 0.62277 0.40371 0.0
C746 C 0.24579 0.73721 0.42196 0.0
C747 C 0.27032 0.74766 0.40119 0.0
N748 N 0.28704 0.71931 0.35737 0.0
N749 N 0.21243 0.6532 0.44764 0.0
C750 C 0.26996 0.70016 0.37983 0.0
C751 C 0.22811 0.67137 0.42462 0.0
N752 N 0.25118 0.58738 0.362 0.0
N753 N 0.23718 0.7913 0.4381 0.0
H754 H 0.20077 0.60414 0.45072 0.0
H755 H 0.21481 0.68323 0.46446 0.0
H756 H 0.2449 0.84259 0.43426 0.0
H757 H 0.21752 0.78772 0.45257 0.0
H758 H 0.26859 0.59031 0.34618 0.0
H759 H 0.23654 0.54063 0.36248 0.0
H760 H 0.2863 0.69055 0.34025 0.0
H761 H 0.29924 0.76838 0.35506 0.0
C762 C 0.75535 0.83323 0.37307 0.0
C763 C 0.7808 0.83978 0.39366 0.0
C764 C 0.76436 0.72117 0.40858 0.0
C765 C 0.73574 0.71901 0.39023 0.0
N766 N 0.71592 0.75613 0.34815 0.0
N767 N 0.80578 0.79353 0.43339 0.0
C768 C 0.73471 0.77037 0.37044 0.0
C769 C 0.78458 0.78435 0.41189 0.0
N770 N 0.74996 0.88766 0.35644 0.0
N771 N 0.77425 0.6619 0.42143 0.0
H772 H 0.82038 0.83924 0.4371 0.0
H773 H 0.80594 0.75879 0.4489 0.0
H774 H 0.76391 0.61268 0.41676 0.0
H775 H 0.79674 0.65926 0.43364 0.0
H776 H 0.72872 0.88939 0.34314 0.0
H777 H 0.76514 0.93367 0.35705 0.0
H778 H 0.71663 0.78779 0.33178 0.0
H779 H 0.70321 0.70786 0.34489 0.0
C780 C 0.2528 0.26781 0.17831 0.0
C781 C 0.27417 0.2587 0.15572 0.0
C782 C 0.25247 0.37054 0.13871 0.0
C783 C 0.22848 0.37726 0.16017 0.0
N784 N 0.20304 0.3283 0.19935 0.0
N785 N 0.28781 0.29227 0.11191 0.0
C786 C 0.22774 0.32446 0.17962 0.0
C787 C 0.27209 0.3075 0.13522 0.0
N788 N 0.25747 0.22394 0.19891 0.0
N789 N 0.25703 0.42429 0.12163 0.0
H790 H 0.30126 0.24544 0.10845 0.0
H791 H 0.28391 0.32185 0.09524 0.0
H792 H 0.24354 0.47159 0.12318 0.0
H793 H 0.27708 0.42482 0.10739 0.0
H794 H 0.24609 0.23265 0.21711 0.0
H795 H 0.27464 0.18069 0.1983 0.0
H796 H 0.19797 0.28742 0.21217 0.0
H797 H 0.18619 0.37128 0.20223 0.0
C798 C 0.74572 0.25262 0.16813 0.0
C799 C 0.72555 0.2656 0.14527 0.0
C800 C 0.75039 0.16003 0.12499 0.0
C801 C 0.77164 0.14788 0.14747 0.0
N802 N 0.79384 0.18732 0.18903 0.0
N803 N 0.71513 0.2426 0.10006 0.0
C804 C 0.77079 0.19601 0.16856 0.0
C805 C 0.7299 0.22251 0.12313 0.0
N806 N 0.73965 0.29244 0.18976 0.0
N807 N 0.74927 0.11147 0.1055 0.0
H808 H 0.70089 0.28913 0.09804 0.0
H809 H 0.72021 0.21758 0.08249 0.0
H810 H 0.76454 0.06594 0.10568 0.0
H811 H 0.73106 0.11336 0.09008 0.0
H812 H 0.74999 0.28065 0.20799 0.0
H813 H 0.72259 0.3359 0.18975 0.0
H814 H 0.79762 0.22441 0.20362 0.0
H815 H 0.81082 0.14416 0.19067 0.0
C816 C 0.22833 0.07351 0.05682 0.0
C817 C 0.26662 0.06519 0.05472 0.0
C818 C 0.26153 0.06498 1.00725 0.0
C819 C 0.22325 0.07218 1.0094 0.0
N820 N 0.17236 0.10691 0.03531 0.0
N821 N 0.32006 0.07846 0.02844 0.0
C822 C 0.20749 0.08458 0.03398 0.0
C823 C 0.2833 0.06944 0.03 0.0
N824 N 0.21137 0.06639 0.08017 0.0
N825 N 0.27703 0.04955 0.98391 0.0
H826 H 0.33626 0.08441 0.04492 0.0
H827 H 0.33368 0.08781 1.01108 0.0
H828 H 0.26235 0.04586 0.96676 0.0
H829 H 0.30422 0.03552 0.98191 0.0
H830 H 0.18323 0.06332 0.08216 0.0
H831 H 0.22517 0.05853 0.09743 0.0
H832 H 0.16 0.12287 0.05249 0.0
H833 H 0.15702 0.11651 1.01869 0.0
C834 C 0.72485 0.45797 1.00244 0.0
C835 C 0.76328 0.46487 1.00324 0.0
C836 C 0.7614 0.47352 0.05062 0.0
C837 C 0.72285 0.46925 0.04977 0.0
N838 N 0.66952 0.43304 1.02641 0.0
N839 N 0.81836 0.45596 0.02774 0.0
C840 C 0.70513 0.45352 1.02608 0.0
C841 C 0.78156 0.46485 0.02734 0.0
N842 N 0.70696 0.45952 0.9793 0.0
N843 N 0.77872 0.48955 0.07325 0.0
H844 H 0.83332 0.44796 1.01081 0.0
H845 H 0.83328 0.44929 0.04469 0.0
H846 H 0.76524 0.4941 0.09082 0.0
H847 H 0.80626 0.5022 0.07435 0.0
H848 H 0.67882 0.46357 0.97776 0.0
H849 H 0.72026 0.46089 0.96156 0.0
H850 H 0.65569 0.41491 1.01008 0.0
H851 H 0.65504 0.42703 0.04367 0.0
C852 C 0.23508 0.9398 0.50814 0.0
C853 C 0.27299 0.95444 0.50997 0.0
C854 C 0.2658 0.97917 0.5564 0.0
C855 C 0.22841 0.9614 0.55481 0.0
N856 N 0.18054 0.9039 0.53108 0.0
N857 N 0.32555 0.96489 0.53743 0.0
C858 C 0.21409 0.93482 0.53125 0.0
C859 C 0.28867 0.96629 0.53472 0.0
N860 N 0.21839 0.93521 0.48459 0.0
N861 N 0.27913 0.0126 0.57783 0.0
H862 H 0.34273 0.95274 0.52198 0.0
H863 H 0.33849 0.96785 0.55537 0.0
H864 H 0.26284 0.02693 0.59347 0.0
H865 H 0.30552 0.03254 0.57888 0.0
H866 H 0.19025 0.93231 0.48247 0.0
H867 H 0.23203 0.94054 0.4671 0.0
H868 H 0.16993 0.87799 0.51494 0.0
H869 H 0.16522 0.89749 0.54794 0.0
C870 C 0.79117 0.55992 0.52368 0.0
C871 C 0.77463 0.55774 0.54847 0.0
C872 C 0.71493 0.56228 0.52741 0.0
C873 C 0.73145 0.54809 0.50321 0.0
N874 N 0.78607 0.52697 0.47855 0.0
N875 N 0.71936 0.55241 0.57392 0.0
C876 C 0.76987 0.54637 0.50124 0.0
C877 C 0.73607 0.55903 0.55044 0.0
N878 N 0.82739 0.57487 0.52178 0.0
N879 N 0.67893 0.57908 0.52823 0.0
H880 H 0.73334 0.54907 0.59133 0.0
H881 H 0.69144 0.54478 0.57594 0.0
H882 H 0.66327 0.58334 0.51144 0.0
H883 H 0.66587 0.596 0.54501 0.0
H884 H 0.84055 0.58274 0.50414 0.0
H885 H 0.84316 0.58698 0.53803 0.0
H886 H 0.8139 0.51808 0.4769 0.0
H887 H 0.77149 0.51355 0.46196 0.0
C888 C 0.75928 0.98181 0.99841 0.0
C889 C 0.72327 0.95668 1.00136 0.0
C890 C 0.74072 0.90166 0.04252 0.0
C891 C 0.77433 0.93847 0.04167 0.0
N892 N 0.82174 0.96579 1.01117 0.0
N893 N 0.67974 0.88756 1.0251 0.0
C894 C 0.78567 0.96464 1.01727 0.0
C895 C 0.71396 0.915 1.02314 0.0
N896 N 0.76796 0.02506 0.97832 0.0
N897 N 0.73696 0.84611 0.05879 0.0
H898 H 0.66063 0.89146 1.01026 0.0
H899 H 0.66993 0.86381 0.04186 0.0
H900 H 0.75952 0.8244 0.06789 0.0
H901 H 0.71389 0.81433 0.05956 0.0
H902 H 0.79317 0.04995 0.97679 0.0
H903 H 0.74894 0.04132 0.96466 0.0
H904 H 0.83143 0.97895 0.99283 0.0
H905 H 0.84118 0.94406 1.02344 0.0
C906 C 0.2071 0.52672 1.02573 0.0
C907 C 0.2238 0.53797 0.0502 0.0
C908 C 0.28125 0.56259 0.02769 0.0
C909 C 0.26617 0.5369 1.00422 0.0
N910 N 0.2153 0.48365 0.98203 0.0
N911 N 0.27931 0.55838 0.07439 0.0
C912 C 0.22909 0.51657 1.00342 0.0
C913 C 0.26154 0.55452 0.05123 0.0
N914 N 0.1701 0.5268 1.02382 0.0
N915 N 0.31414 0.596 0.02735 0.0
H916 H 0.26658 0.55098 0.09212 0.0
H917 H 0.3075 0.56267 0.07583 0.0
H918 H 0.32838 0.6052 1.0102 0.0
H919 H 0.3251 0.62125 0.04352 0.0
H920 H 0.15645 0.52418 1.00614 0.0
H921 H 0.15343 0.53778 0.03967 0.0
H922 H 0.18922 0.46203 0.98148 0.0
H923 H 0.23107 0.47137 0.96589 0.0
C924 C 0.76273 0.03864 0.5496 0.0
C925 C 0.72442 0.04537 0.54795 0.0
C926 C 0.7289 0.04873 0.50056 0.0
C927 C 0.7674 0.04669 0.50238 0.0
N928 N 0.82036 0.06431 0.52901 0.0
N929 N 0.67298 0.08032 0.52232 0.0
C930 C 0.78406 0.05019 0.52711 0.0
C931 C 0.70814 0.05827 0.52353 0.0
N932 N 0.77873 0.01593 0.57188 0.0
N933 N 0.71185 0.03659 0.47748 0.0
H934 H 0.65777 0.09091 0.53893 0.0
H935 H 0.66064 0.09566 0.50508 0.0
H936 H 0.72567 0.02457 0.46047 0.0
H937 H 0.68372 0.03125 0.47588 0.0
H938 H 0.80636 1.00459 0.57309 0.0
H939 H 0.764 1.0005 0.58813 0.0
H940 H 0.8334 0.0725 0.54671 0.0
H941 H 0.83623 0.0757 0.51278 0.0
C942 C 0.22783 0.43693 0.55221 0.0
C943 C 0.26593 0.44735 0.54933 0.0
C944 C 0.25757 0.46347 0.50261 0.0
C945 C 0.21993 0.44859 0.50519 0.0
N946 N 0.17179 0.4004 0.53128 0.0
N947 N 0.31758 0.44714 0.52078 0.0
C948 C 0.20591 0.42844 0.52966 0.0
C949 C 0.28091 0.45251 0.5241 0.0
N950 N 0.212 0.4398 0.57609 0.0
N951 N 0.2708 0.49306 0.48047 0.0
H952 H 0.33505 0.43655 0.5362 0.0
H953 H 0.3298 0.44528 0.50257 0.0
H954 H 0.25426 0.50768 0.46506 0.0
H955 H 0.29759 0.51049 0.47869 0.0
H956 H 0.18391 0.43974 0.57874 0.0
H957 H 0.22647 0.44885 0.59307 0.0
H958 H 0.16127 0.37931 0.54832 0.0
H959 H 0.15575 0.39127 0.51492 0.0
C960 C 0.31045 0.01294 0.26844 0.0
C961 C 0.34384 0.02633 0.25554 0.0
C962 C 0.37693 0.99861 0.29531 0.0
C963 C 0.34409 0.97707 0.30729 0.0
N964 N 0.27998 0.9532 0.30388 0.0
N965 N 0.40899 0.01519 0.2549 0.0
C966 C 0.31084 0.98142 0.29348 0.0
C967 C 0.37716 0.0143 0.2685 0.0
N968 N 0.27856 0.03274 0.25722 0.0
N969 N 0.40771 0.00646 0.30985 0.0
H970 H 0.40985 0.02252 0.23489 0.0
H971 H 0.43383 1.0008 0.26293 0.0
H972 H 0.40792 0.99908 0.32986 0.0
H973 H 0.43173 0.02784 0.30256 0.0
H974 H 0.25359 0.03045 0.26672 0.0
H975 H 0.27754 0.05724 0.23921 0.0
H976 H 0.25562 0.94863 0.2937 0.0
H977 H 0.27964 0.92897 0.32195 0.0
C978 C 0.61521 0.4715 0.26415 0.0
C979 C 0.64853 0.46472 0.25067 0.0
C980 C 0.68148 0.50407 0.28944 0.0
C981 C 0.64837 0.5037 0.30351 0.0
N982 N 0.58517 0.47155 0.30585 0.0
N983 N 0.71391 0.46261 0.25144 0.0
C984 C 0.61563 0.48269 0.29129 0.0
C985 C 0.68192 0.47772 0.26358 0.0
N986 N 0.58318 0.46996 0.25079 0.0
N987 N 0.71206 0.53215 0.30039 0.0
H988 H 0.71495 0.44226 0.23268 0.0
H989 H 0.73903 0.46457 0.26072 0.0
H990 H 0.71239 0.55287 0.31911 0.0
H991 H 0.73616 0.54017 0.2902 0.0
H992 H 0.55815 0.48081 0.2593 0.0
H993 H 0.58212 0.46536 0.23065 0.0
H994 H 0.56125 0.45026 0.29833 0.0
H995 H 0.58517 0.47658 0.326 0.0
C996 C 0.61787 1.00074 0.78867 0.0
C997 C 0.64976 0.98313 0.80248 0.0
C998 C 0.6869 0.01477 0.76475 0.0
C999 C 0.65472 0.02665 0.75038 0.0
N1000 N 0.58977 0.01767 0.74671 0.0
N1001 N 0.7142 0.96277 0.80293 0.0
C1002 C 0.62021 0.01563 0.76182 0.0
C1003 C 0.68427 0.9873 0.79032 0.0
N1004 N 0.58556 0.00553 0.80156 0.0
N1005 N 0.71978 0.03205 0.75421 0.0
H1006 H 0.71293 0.9421 0.82159 0.0
H1007 H 0.73962 0.95799 0.79425 0.0
H1008 H 0.72235 0.05196 0.7355 0.0
H1009 H 0.74408 0.03134 0.76455 0.0
H1010 H 0.56184 0.02433 0.79312 0.0
H1011 H 0.58337 0.99722 0.82147 0.0
H1012 H 0.56398 1.00391 0.75335 0.0
H1013 H 0.59094 0.02647 0.72678 0.0
C1014 C 0.37118 0.52521 0.76213 0.0
C1015 C 0.34268 0.48743 0.74989 0.0
C1016 C 0.3054 0.50015 0.78903 0.0
C1017 C 0.33539 0.53124 0.80201 0.0
N1018 N 0.39898 0.56054 0.8027 0.0
N1019 N 0.28485 0.42844 0.75292 0.0
C1020 C 0.36899 0.53977 0.78904 0.0
C1021 C 0.3103 0.47188 0.76369 0.0
N1022 N 0.39961 0.54981 0.74772 0.0
N1023 N 0.27197 0.50055 0.80048 0.0
H1024 H 0.28793 0.40653 0.73453 0.0
H1025 H 0.26231 0.40967 0.76302 0.0
H1026 H 0.26757 0.52281 0.81868 0.0
H1027 H 0.24828 0.48451 0.79107 0.0
H1028 H 0.41965 0.58303 0.75514 0.0
H1029 H 0.40098 0.54314 0.72767 0.0
H1030 H 0.42505 0.5618 0.79481 0.0
H1031 H 0.39825 0.56962 0.82264 0.0
C1032 C 0.80973 0.49108 0.78761 0.0
C1033 C 0.84221 0.48135 0.80192 0.0
C1034 C 0.878 0.50942 0.76342 0.0
C1035 C 0.84589 0.52767 0.75 0.0
N1036 N 0.78131 0.54758 0.75082 0.0
N1037 N 0.90692 0.4993 0.80522 0.0
C1038 C 0.81165 0.52163 0.76248 0.0
C1039 C 0.8763 0.49578 0.79031 0.0
N1040 N 0.77732 0.4689 0.7976 0.0
N1041 N 0.90997 0.50291 0.75023 0.0
H1042 H 0.90624 0.49409 0.82533 0.0
H1043 H 0.93207 0.51543 0.79803 0.0
H1044 H 0.91166 0.50872 0.73017 0.0
H1045 H 0.93366 0.48398 0.75872 0.0
H1046 H 0.75319 0.4686 0.78703 0.0
H1047 H 0.77524 0.44499 0.81567 0.0
H1048 H 0.75619 0.55066 0.76006 0.0
H1049 H 0.78204 0.57178 0.73275 0.0
C1050 C 0.11831 0.99055 0.79624 0.0
C1051 C 0.14763 0.02481 0.80888 0.0
C1052 C 0.18461 0.01134 0.76957 0.0
C1053 C 0.15385 0.98425 0.75626 0.0
N1054 N 0.08938 0.96313 0.75532 0.0
N1055 N 0.20684 0.07871 0.80634 0.0
C1056 C 0.12004 0.9785 0.76917 0.0
C1057 C 0.18039 0.03829 0.79521 0.0
N1058 N 0.08936 0.96712 0.81039 0.0
N1059 N 0.21802 0.00853 0.75815 0.0
H1060 H 0.2043 0.09966 0.82493 0.0
H1061 H 0.2298 0.09608 0.79639 0.0
H1062 H 0.22191 0.98748 0.7397 0.0
H1063 H 0.24205 0.02145 0.76777 0.0
H1064 H 0.06856 0.93639 0.80256 0.0
H1065 H 0.08826 0.97186 0.83052 0.0
H1066 H 0.06338 0.96409 0.76331 0.0
H1067 H 0.0897 0.95689 0.73522 0.0
C1068 C 0.18898 0.51035 0.2915 0.0
C1069 C 0.15655 0.48845 0.30395 0.0
C1070 C 0.1219 0.51159 0.26448 0.0
C1071 C 0.1537 0.5388 0.25265 0.0
N1072 N 0.21624 0.57484 0.25587 0.0
N1073 N 0.09136 0.48131 0.30455 0.0
C1074 C 0.18697 0.54131 0.26647 0.0
C1075 C 0.12272 0.49324 0.29107 0.0
N1076 N 0.22167 0.49874 0.30317 0.0
N1077 N 0.09142 0.5003 0.24991 0.0
H1078 H 0.09134 0.46924 0.32426 0.0
H1079 H 0.06558 0.49003 0.29693 0.0
H1080 H 0.0905 0.5104 0.23008 0.0
H1081 H 0.06839 0.47453 0.25685 0.0
H1082 H 0.24659 0.50729 0.29412 0.0
H1083 H 0.22376 0.47542 0.32135 0.0
H1084 H 0.24033 0.58439 0.2659 0.0
H1085 H 0.21529 0.59806 0.23762 0.0
C1086 C 0.83266 0.07734 0.28295 0.0
C1087 C 0.82636 0.02256 0.30074 0.0
C1088 C 0.81141 0.94335 0.26477 0.0
C1089 C 0.82412 0.99435 0.24713 0.0
N1090 N 0.84909 0.10854 0.23895 0.0
N1091 N 0.81167 0.90208 0.30919 0.0
C1092 C 0.83457 0.06174 0.25603 0.0
C1093 C 0.81536 0.95543 0.29185 0.0
N1094 N 0.83812 0.14363 0.29215 0.0
N1095 N 0.79689 0.88249 0.25536 0.0
H1096 H 0.81558 0.9093 0.32902 0.0
H1097 H 0.80715 0.85013 0.30389 0.0
H1098 H 0.7947 0.87277 0.23551 0.0
H1099 H 0.78446 0.84483 0.26696 0.0
H1100 H 0.84015 0.18746 0.28029 0.0
H1101 H 0.83751 0.15503 0.31195 0.0
H1102 H 0.8606 0.15626 0.24442 0.0
H1103 H 0.85186 0.09713 0.21929 0.0
C1104 C 0.53564 0.20425 0.12405 0.0
C1105 C 0.53338 0.27258 0.11343 0.0
C1106 C 0.47572 0.24021 0.09303 0.0
C1107 C 0.47354 0.18141 0.10963 0.0
N1108 N 0.51245 0.08587 0.12109 0.0
N1109 N 0.50266 0.35406 0.08535 0.0
C1110 C 0.50689 0.1562 0.11943 0.0
C1111 C 0.50394 0.29008 0.09699 0.0
N1112 N 0.56432 0.18592 0.13936 0.0
N1113 N 0.45519 0.24183 0.07107 0.0
H1114 H 0.52358 0.39096 0.08699 0.0
H1115 H 0.47984 0.37145 0.07532 0.0
H1116 H 0.43949 0.19864 0.06541 0.0
H1117 H 0.45789 0.28048 0.05698 0.0
H1118 H 0.565 0.13894 0.14957 0.0
H1119 H 0.58607 0.21954 0.14335 0.0
H1120 H 0.53749 0.06411 0.12587 0.0
H1121 H 0.49298 0.05003 0.11445 0.0
C1122 C 0.48447 0.76091 0.40993 0.0
C1123 C 0.47059 0.78719 0.43367 0.0
C1124 C 0.52096 0.73228 0.45709 0.0
C1125 C 0.5365 0.71215 0.43303 0.0
N1126 N 0.53746 0.72219 0.38641 0.0
N1127 N 0.47814 0.80753 0.47949 0.0
C1128 C 0.51955 0.73095 0.4094 0.0
C1129 C 0.48954 0.77561 0.45722 0.0
N1130 N 0.46359 0.76211 0.38801 0.0
N1131 N 0.53548 0.70821 0.47971 0.0
H1132 H 0.45522 0.83937 0.48023 0.0
H1133 H 0.49294 0.807 0.49668 0.0
H1134 H 0.55855 0.67675 0.4803 0.0
H1135 H 0.52313 0.71492 0.4977 0.0
H1136 H 0.47096 0.737 0.37086 0.0
H1137 H 0.43723 0.78186 0.38765 0.0
H1138 H 0.52785 0.7416 0.36887 0.0
H1139 H 0.5637 0.70213 0.3852 0.0
C1140 C 0.50985 0.76065 0.95772 0.0
C1141 C 0.51301 0.82551 0.94472 0.0
C1142 C 0.45044 0.81283 0.9295 0.0
C1143 C 0.45171 0.74073 0.936 0.0
N1144 N 0.48159 0.64621 0.95843 0.0
N1145 N 0.47669 0.92752 0.93742 0.0
C1146 C 0.48107 0.71458 0.95084 0.0
C1147 C 0.48023 0.85655 0.93631 0.0
N1148 N 0.52942 0.74928 0.97969 0.0
N1149 N 0.42168 0.83895 0.91594 0.0
H1150 H 0.49741 0.95929 0.94493 0.0
H1151 H 0.45233 0.95329 0.9338 0.0
H1152 H 0.39918 0.80862 0.91065 0.0
H1153 H 0.42144 0.88951 0.90842 0.0
H1154 H 0.52605 0.70499 0.9912 0.0
H1155 H 0.54425 0.78972 0.98844 0.0
H1156 H 0.50425 0.62372 0.96715 0.0
H1157 H 0.46033 0.61129 0.95458 0.0
C1158 C 0.47789 0.25489 0.59901 0.0
C1159 C 0.46522 0.28694 0.62213 0.0
C1160 C 0.52068 0.25288 0.64466 0.0
C1161 C 0.53123 0.2134 0.62268 0.0
N1162 N 0.51816 0.1688 0.57989 0.0
N1163 N 0.47067 0.30209 0.66852 0.0
C1164 C 0.50942 0.21221 0.60002 0.0
C1165 C 0.48554 0.282 0.64541 0.0
N1166 N 0.46046 0.26678 0.57608 0.0
N1167 N 0.54453 0.26391 0.66461 0.0
H1168 H 0.44431 0.32102 0.67018 0.0
H1169 H 0.48301 0.29279 0.68634 0.0
H1170 H 0.57099 0.24452 0.66462 0.0
H1171 H 0.53935 0.29829 0.67988 0.0
H1172 H 0.47056 0.25051 0.55821 0.0
H1173 H 0.4374 0.29805 0.57468 0.0
H1174 H 0.5012 0.16019 0.56403 0.0
H1175 H 0.54118 0.13717 0.57998 0.0
C1176 C 0.98602 0.74491 0.5975 0.0
C1177 C 0.95892 0.75821 0.61645 0.0
C1178 C 0.989 0.86885 0.62697 0.0
C1179 C 0.0206 0.8447 0.61426 0.0
N1180 N 0.03379 0.79806 0.57203 0.0
N1181 N 0.93375 0.83597 0.64898 0.0
C1182 C 0.0153 0.7931 0.59484 0.0
C1183 C 0.95968 0.82183 0.63078 0.0
N1184 N 0.98402 0.68656 0.58221 0.0
N1185 N 0.98559 0.93822 0.63271 0.0
H1186 H 0.91205 0.80232 0.65296 0.0
H1187 H 0.9356 0.87876 0.66152 0.0
H1188 H 0.00548 0.97449 0.62718 0.0
H1189 H 0.96168 0.95994 0.6399 0.0
H1190 H 0.00522 0.67105 0.57012 0.0
H1191 H 0.96193 0.65203 0.58263 0.0
H1192 H 0.02884 0.76539 0.55619 0.0
H1193 H 0.05001 0.84171 0.56792 0.0
C1194 C 0.0122 0.26498 0.95918 0.0
C1195 C 0.02782 0.24054 0.93573 0.0
C1196 C 0.97489 0.27986 0.91142 0.0
C1197 C 0.96077 0.31052 0.93433 0.0
N1198 N 0.96771 0.34107 0.97942 0.0
N1199 N 0.02835 0.2395 0.88896 0.0
C1200 C 0.97988 0.30556 0.95813 0.0
C1201 C 0.01043 0.25242 0.91167 0.0
N1202 N 0.02768 0.24788 0.98236 0.0
N1203 N 0.95386 0.27485 0.88962 0.0
H1204 H 0.05499 0.22137 0.88832 0.0
H1205 H 0.01828 0.25386 0.87088 0.0
H1206 H 0.92718 0.29284 0.88876 0.0
H1207 H 0.96154 0.24645 0.87326 0.0
H1208 H 0.0155 0.2578 1.0002 0.0
H1209 H 0.05168 0.21927 0.9837 0.0
H1210 H 0.98242 0.34542 0.99659 0.0
H1211 H 0.94396 0.37066 0.9793 0.0
C1212 C 0.9804 0.35695 0.41903 0.0
C1213 C 0.01017 0.33727 0.43469 0.0
C1214 C 0.97221 0.24477 0.45352 0.0
C1215 C 0.94811 0.25092 0.4321 0.0
N1216 N 0.92948 0.31558 0.39399 0.0
N1217 N 0.01871 0.30327 0.479 0.0
C1218 C 0.95186 0.30841 0.41491 0.0
C1219 C 0.002 0.29238 0.45574 0.0
N1220 N 0.97672 0.42478 0.41143 0.0
N1221 N 0.96686 0.19366 0.47157 0.0
H1222 H 0.03599 0.34615 0.48197 0.0
H1223 H 0.01179 0.27653 0.49587 0.0
H1224 H 0.9439 0.16136 0.47169 0.0
H1225 H 0.98601 0.1817 0.48573 0.0
H1226 H 0.95369 0.443 0.40185 0.0
H1227 H 0.99458 0.46373 0.41798 0.0
H1228 H 0.93379 0.35398 0.37998 0.0
H1229 H 0.9088 0.28006 0.38945 0.0
C1230 C 0.97267 0.75215 0.10092 0.0
C1231 C 0.9632 0.79024 0.12357 0.0
C1232 C 0.02049 0.75722 0.14405 0.0
C1233 C 0.02789 0.71244 0.12275 0.0
N1234 N 0.01034 0.66164 0.08181 0.0
N1235 N 0.97501 0.82063 0.16828 0.0
C1236 C 0.00387 0.70852 0.10132 0.0
C1237 C 0.98634 0.7908 0.14556 0.0
N1238 N 0.95223 0.75893 0.07896 0.0
N1239 N 0.04642 0.7687 0.16261 0.0
H1240 H 0.95006 0.84561 0.17036 0.0
H1241 H 0.98893 0.81536 0.18573 0.0
H1242 H 0.0719 0.74505 0.1622 0.0
H1243 H 0.04404 0.80657 0.17706 0.0
H1244 H 0.95964 0.73808 0.06108 0.0
H1245 H 0.92916 0.79038 0.07812 0.0
H1246 H 0.99185 0.65068 0.06705 0.0
H1247 H 0.03337 0.63004 0.0813 0.0
loop_
_geom_bond_atom_site_label_1
_geom_bond_atom_site_label_2
_geom_bond_distance
_geom_bond_site_symmetry_2
_ccdc_geom_bond_type
C0 C1 1.351 . S
C0 N3 1.368 . S
C0 H5 0.931 . S
C1 C0 1.351 . S
C1 N2 1.373 . S
C1 H29 0.930 . S
N2 C1 1.373 . S
N2 C4 1.340 . S
N3 C0 1.368 . S
N3 C4 1.321 . S
N3 Co6 2.135 . S
C4 N2 1.340 . S
C4 N3 1.321 . S
C4 H28 0.930 . S
H5 C0 0.931 . S
Co6 N3 2.135 . S
Co6 N9 2.121 . S
Co6 O14 2.055 . S
Co6 O17 2.039 . S
Co6 N20 2.140 . S
C7 O8 1.227 . S
C7 O17 1.265 . S
O8 C7 1.227 . S
N9 Co6 2.121 . S
N9 C11 1.375 . S
N9 C12 1.313 . S
C10 C11 1.338 . S
C10 N13 1.377 . S
C10 H30 0.930 . S
C11 N9 1.375 . S
C11 C10 1.338 . S
C11 H15 0.931 . S
C12 N9 1.313 . S
C12 N13 1.344 . S
C12 H16 0.930 . S
N13 C10 1.377 . S
N13 C12 1.344 . S
O14 Co6 2.055 . S
O14 C18 1.248 1_545 S
H15 C11 0.931 . S
H16 C12 0.930 . S
O17 Co6 2.039 . S
O17 C7 1.265 . S
C18 O14 1.248 1_565 S
C18 O19 1.226 1_565 S
O19 C18 1.226 1_545 S
N20 Co6 2.140 . S
N20 C23 1.346 . S
N20 C24 1.345 . S
C21 C22 1.387 . S
C21 C25 1.391 . S
C22 C21 1.387 . S
C22 C23 1.369 . S
C22 H31 0.929 . S
C23 N20 1.346 . S
C23 C22 1.369 . S
C23 H26 0.928 . S
C24 N20 1.345 . S
C24 C25 1.371 . S
C24 H27 0.931 . S
C25 C21 1.391 . S
C25 C24 1.371 . S
C25 H32 0.930 . S
H26 C23 0.928 . S
H27 C24 0.931 . S
H28 C4 0.930 . S
H29 C1 0.930 . S
H30 C10 0.930 . S
H31 C22 0.929 . S
H32 C25 0.930 . S
C33 C34 1.351 . S
C33 N36 1.368 . S
C33 H38 0.931 . S
C34 C33 1.351 . S
C34 N35 1.373 . S
C34 H62 0.930 . S
N35 C34 1.373 . S
N35 C37 1.340 . S
N36 C33 1.368 . S
N36 C37 1.321 . S
N36 Co39 2.135 . S
C37 N35 1.340 . S
C37 N36 1.321 . S
C37 H61 0.930 . S
H38 C33 0.931 . S
Co39 N36 2.135 . S
Co39 N42 2.121 . S
Co39 O47 2.055 . S
Co39 O50 2.039 . S
Co39 N53 2.140 . S
C40 O41 1.227 . S
C40 O50 1.265 . S
O41 C40 1.227 . S
N42 Co39 2.121 . S
N42 C44 1.375 . S
N42 C45 1.313 . S
C43 C44 1.338 . S
C43 N46 1.377 . S
C43 H63 0.930 . S
C44 N42 1.375 . S
C44 C43 1.338 . S
C44 H48 0.931 . S
C45 N42 1.313 . S
C45 N46 1.344 . S
C45 H49 0.930 . S
N46 C43 1.377 . S
N46 C45 1.344 . S
O47 Co39 2.055 . S
O47 C51 1.253 . S
H48 C44 0.931 . S
H49 C45 0.930 . S
O50 Co39 2.039 . S
O50 C40 1.265 . S
C51 O47 1.253 . S
C51 O52 1.227 . S
O52 C51 1.227 . S
N53 Co39 2.140 . S
N53 C56 1.346 . S
N53 C57 1.345 . S
C54 C55 1.387 . S
C54 C58 1.391 . S
C55 C54 1.387 . S
C55 C56 1.369 . S
C55 H64 0.929 . S
C56 N53 1.346 . S
C56 C55 1.369 . S
C56 H59 0.928 . S
C57 N53 1.345 . S
C57 C58 1.371 . S
C57 H60 0.931 . S
C58 C54 1.391 . S
C58 C57 1.371 . S
C58 H65 0.930 . S
H59 C56 0.928 . S
H60 C57 0.931 . S
H61 C37 0.930 . S
H62 C34 0.930 . S
H63 C43 0.930 . S
H64 C55 0.929 . S
H65 C58 0.930 . S
C66 C67 1.351 . S
C66 N69 1.368 . S
C66 H71 0.931 . S
C67 C66 1.351 . S
C67 N68 1.373 . S
C67 H95 0.930 . S
N68 C67 1.373 . S
N68 C70 1.340 . S
N69 C66 1.368 . S
N69 C70 1.321 . S
N69 Co72 2.135 . S
C70 N68 1.340 . S
C70 N69 1.321 . S
C70 H94 0.930 . S
H71 C66 0.931 . S
Co72 N69 2.135 . S
Co72 N75 2.121 . S
Co72 O80 2.055 . S
Co72 O83 2.039 . S
Co72 N86 2.140 . S
C73 O74 1.227 . S
C73 O83 1.265 . S
O74 C73 1.227 . S
N75 Co72 2.121 . S
N75 C77 1.375 . S
N75 C78 1.313 . S
C76 C77 1.338 . S
C76 N79 1.377 . S
C76 H96 0.930 . S
C77 N75 1.375 . S
C77 C76 1.338 . S
C77 H81 0.931 . S
C78 N75 1.313 . S
C78 N79 1.344 . S
C78 H82 0.930 . S
N79 C76 1.377 . S
N79 C78 1.344 . S
O80 Co72 2.055 . S
O80 C84 1.248 1_565 S
H81 C77 0.931 . S
H82 C78 0.930 . S
O83 Co72 2.039 . S
O83 C73 1.265 . S
C84 O80 1.248 1_545 S
C84 O85 1.226 1_545 S
O85 C84 1.226 1_565 S
N86 Co72 2.140 . S
N86 C89 1.346 . S
N86 C90 1.345 . S
C87 C88 1.387 . S
C87 C91 1.391 . S
C88 C87 1.387 . S
C88 C89 1.369 . S
C88 H97 0.929 . S
C89 N86 1.346 . S
C89 C88 1.369 . S
C89 H92 0.928 . S
C90 N86 1.345 . S
C90 C91 1.371 . S
C90 H93 0.931 . S
C91 C87 1.391 . S
C91 C90 1.371 . S
C91 H98 0.930 . S
H92 C89 0.928 . S
H93 C90 0.931 . S
H94 C70 0.930 . S
H95 C67 0.930 . S
H96 C76 0.930 . S
H97 C88 0.929 . S
H98 C91 0.930 . S
C99 C100 1.351 . S
C99 N102 1.368 . S
C99 H104 0.931 . S
C100 C99 1.351 . S
C100 N101 1.373 . S
C100 H128 0.930 . S
N101 C100 1.373 . S
N101 C103 1.340 . S
N102 C99 1.368 . S
N102 C103 1.321 . S
N102 Co105 2.135 . S
C103 N101 1.340 . S
C103 N102 1.321 . S
C103 H127 0.930 . S
H104 C99 0.931 . S
Co105 N102 2.135 . S
Co105 N108 2.121 . S
Co105 O113 2.055 . S
Co105 O116 2.039 . S
Co105 N119 2.140 . S
C106 O107 1.227 . S
C106 O116 1.265 . S
O107 C106 1.227 . S
N108 Co105 2.121 . S
N108 C110 1.375 . S
N108 C111 1.313 . S
C109 C110 1.338 . S
C109 N112 1.377 . S
C109 H129 0.930 . S
C110 N108 1.375 . S
C110 C109 1.338 . S
C110 H114 0.931 . S
C111 N108 1.313 . S
C111 N112 1.344 . S
C111 H115 0.930 . S
N112 C109 1.377 . S
N112 C111 1.344 . S
O113 Co105 2.055 . S
O113 C117 1.253 . S
H114 C110 0.931 . S
H115 C111 0.930 . S
O116 Co105 2.039 . S
O116 C106 1.265 . S
C117 O113 1.253 . S
C117 O118 1.227 . S
O118 C117 1.227 . S
N119 Co105 2.140 . S
N119 C122 1.346 . S
N119 C123 1.345 . S
C120 C121 1.387 . S
C120 C124 1.391 . S
C121 C120 1.387 . S
C121 C122 1.369 . S
C121 H130 0.929 . S
C122 N119 1.346 . S
C122 C121 1.369 . S
C122 H125 0.928 . S
C123 N119 1.345 . S
C123 C124 1.371 . S
C123 H126 0.931 . S
C124 C120 1.391 . S
C124 C123 1.371 . S
C124 H131 0.930 . S
H125 C122 0.928 . S
H126 C123 0.931 . S
H127 C103 0.930 . S
H128 C100 0.930 . S
H129 C109 0.930 . S
H130 C121 0.929 . S
H131 C124 0.930 . S
C132 C133 1.351 . S
C132 N135 1.368 . S
C132 H137 0.931 . S
C133 C132 1.351 . S
C133 N134 1.373 . S
C133 H161 0.930 . S
N134 C133 1.373 . S
N134 C136 1.340 . S
N135 C132 1.368 . S
N135 C136 1.321 . S
N135 Co138 2.135 . S
C136 N134 1.340 . S
C136 N135 1.321 . S
C136 H160 0.930 . S
H137 C132 0.931 . S
Co138 N135 2.135 . S
Co138 N141 2.121 . S
Co138 O146 2.055 . S
Co138 O149 2.039 . S
Co138 N152 2.140 . S
C139 O140 1.227 . S
C139 O149 1.265 . S
O140 C139 1.227 . S
N141 Co138 2.121 . S
N141 C143 1.375 . S
N141 C144 1.313 . S
C142 C143 1.338 . S
C142 N145 1.377 . S
C142 H162 0.930 . S
C143 N141 1.375 . S
C143 C142 1.338 . S
C143 H147 0.931 . S
C144 N141 1.313 . S
C144 N145 1.344 . S
C144 H148 0.930 . S
N145 C142 1.377 . S
N145 C144 1.344 . S
O146 Co138 2.055 . S
O146 C150 1.248 1_565 S
H147 C143 0.931 . S
H148 C144 0.930 . S
O149 Co138 2.039 . S
O149 C139 1.265 . S
C150 O146 1.248 1_545 S
C150 O151 1.226 1_545 S
O151 C150 1.226 1_565 S
N152 Co138 2.140 . S
N152 C155 1.346 . S
N152 C156 1.345 . S
C153 C154 1.387 . S
C153 C157 1.391 . S
C154 C153 1.387 . S
C154 C155 1.369 . S
C154 H163 0.929 . S
C155 N152 1.346 . S
C155 C154 1.369 . S
C155 H158 0.928 . S
C156 N152 1.345 . S
C156 C157 1.371 . S
C156 H159 0.931 . S
C157 C153 1.391 . S
C157 C156 1.371 . S
C157 H164 0.930 . S
H158 C155 0.928 . S
H159 C156 0.931 . S
H160 C136 0.930 . S
H161 C133 0.930 . S
H162 C142 0.930 . S
H163 C154 0.929 . S
H164 C157 0.930 . S
C165 C166 1.351 . S
C165 N168 1.368 . S
C165 H170 0.931 . S
C166 C165 1.351 . S
C166 N167 1.373 . S
C166 H194 0.930 . S
N167 C166 1.373 . S
N167 C169 1.340 . S
N168 C165 1.368 . S
N168 C169 1.321 . S
N168 Co171 2.135 . S
C169 N167 1.340 . S
C169 N168 1.321 . S
C169 H193 0.930 . S
H170 C165 0.931 . S
Co171 N168 2.135 . S
Co171 N174 2.121 . S
Co171 O179 2.055 . S
Co171 O182 2.039 . S
Co171 N185 2.140 . S
C172 O173 1.227 . S
C172 O182 1.265 . S
O173 C172 1.227 . S
N174 Co171 2.121 . S
N174 C176 1.375 . S
N174 C177 1.313 . S
C175 C176 1.338 . S
C175 N178 1.377 . S
C175 H195 0.930 . S
C176 N174 1.375 . S
C176 C175 1.338 . S
C176 H180 0.931 . S
C177 N174 1.313 . S
C177 N178 1.344 . S
C177 H181 0.930 . S
N178 C175 1.377 . S
N178 C177 1.344 . S
O179 Co171 2.055 . S
O179 C183 1.253 . S
H180 C176 0.931 . S
H181 C177 0.930 . S
O182 Co171 2.039 . S
O182 C172 1.265 . S
C183 O179 1.253 . S
C183 O184 1.227 . S
O184 C183 1.227 . S
N185 Co171 2.140 . S
N185 C188 1.346 . S
N185 C189 1.345 . S
C186 C187 1.387 . S
C186 C190 1.391 . S
C187 C186 1.387 . S
C187 C188 1.369 . S
C187 H196 0.929 . S
C188 N185 1.346 . S
C188 C187 1.369 . S
C188 H191 0.928 . S
C189 N185 1.345 . S
C189 C190 1.371 . S
C189 H192 0.931 . S
C190 C186 1.391 . S
C190 C189 1.371 . S
C190 H197 0.930 . S
H191 C188 0.928 . S
H192 C189 0.931 . S
H193 C169 0.930 . S
H194 C166 0.930 . S
H195 C175 0.930 . S
H196 C187 0.929 . S
H197 C190 0.930 . S
C198 C199 1.351 . S
C198 N201 1.368 . S
C198 H203 0.931 . S
C199 C198 1.351 . S
C199 N200 1.373 . S
C199 H227 0.930 . S
N200 C199 1.373 . S
N200 C202 1.340 . S
N201 C198 1.368 . S
N201 C202 1.321 . S
N201 Co204 2.135 . S
C202 N200 1.340 . S
C202 N201 1.321 . S
C202 H226 0.930 . S
H203 C198 0.931 . S
Co204 N201 2.135 . S
Co204 N207 2.121 . S
Co204 O212 2.055 . S
Co204 O215 2.039 . S
Co204 N218 2.140 . S
C205 O206 1.227 . S
C205 O215 1.265 . S
O206 C205 1.227 . S
N207 Co204 2.121 . S
N207 C209 1.375 . S
N207 C210 1.313 . S
C208 C209 1.338 . S
C208 N211 1.377 . S
C208 H228 0.930 . S
C209 N207 1.375 . S
C209 C208 1.338 . S
C209 H213 0.931 . S
C210 N207 1.313 . S
C210 N211 1.344 . S
C210 H214 0.930 . S
N211 C208 1.377 . S
N211 C210 1.344 . S
O212 Co204 2.055 . S
O212 C216 1.248 1_545 S
H213 C209 0.931 . S
H214 C210 0.930 . S
O215 Co204 2.039 . S
O215 C205 1.265 . S
C216 O212 1.248 1_565 S
C216 O217 1.226 1_565 S
O217 C216 1.226 1_545 S
N218 Co204 2.140 . S
N218 C221 1.346 . S
N218 C222 1.345 . S
C219 C220 1.387 . S
C219 C223 1.391 . S
C220 C219 1.387 . S
C220 C221 1.369 . S
C220 H229 0.929 . S
C221 N218 1.346 . S
C221 C220 1.369 . S
C221 H224 0.928 . S
C222 N218 1.345 . S
C222 C223 1.371 . S
C222 H225 0.931 . S
C223 C219 1.391 . S
C223 C222 1.371 . S
C223 H230 0.930 . S
H224 C221 0.928 . S
H225 C222 0.931 . S
H226 C202 0.930 . S
H227 C199 0.930 . S
H228 C208 0.930 . S
H229 C220 0.929 . S
H230 C223 0.930 . S
C231 C232 1.351 . S
C231 N234 1.368 . S
C231 H236 0.931 . S
C232 C231 1.351 . S
C232 N233 1.373 . S
C232 H260 0.930 . S
N233 C232 1.373 . S
N233 C235 1.340 . S
N234 C231 1.368 . S
N234 C235 1.321 . S
N234 Co237 2.135 . S
C235 N233 1.340 . S
C235 N234 1.321 . S
C235 H259 0.930 . S
H236 C231 0.931 . S
Co237 N234 2.135 . S
Co237 N240 2.121 . S
Co237 O245 2.055 . S
Co237 O248 2.039 . S
Co237 N251 2.140 . S
C238 O239 1.227 . S
C238 O248 1.265 . S
O239 C238 1.227 . S
N240 Co237 2.121 . S
N240 C242 1.375 . S
N240 C243 1.313 . S
C241 C242 1.338 . S
C241 N244 1.377 . S
C241 H261 0.930 . S
C242 N240 1.375 . S
C242 C241 1.338 . S
C242 H246 0.931 . S
C243 N240 1.313 . S
C243 N244 1.344 . S
C243 H247 0.930 . S
N244 C241 1.377 . S
N244 C243 1.344 . S
O245 Co237 2.055 . S
O245 C249 1.253 . S
H246 C242 0.931 . S
H247 C243 0.930 . S
O248 Co237 2.039 . S
O248 C238 1.265 . S
C249 O245 1.253 . S
C249 O250 1.227 . S
O250 C249 1.227 . S
N251 Co237 2.140 . S
N251 C254 1.346 . S
N251 C255 1.345 . S
C252 C253 1.387 . S
C252 C256 1.391 . S
C253 C252 1.387 . S
C253 C254 1.369 . S
C253 H262 0.929 . S
C254 N251 1.346 . S
C254 C253 1.369 . S
C254 H257 0.928 . S
C255 N251 1.345 . S
C255 C256 1.371 . S
C255 H258 0.931 . S
C256 C252 1.391 . S
C256 C255 1.371 . S
C256 H263 0.930 . S
H257 C254 0.928 . S
H258 C255 0.931 . S
H259 C235 0.930 . S
H260 C232 0.930 . S
H261 C241 0.930 . S
H262 C253 0.929 . S
H263 C256 0.930 . S
C264 C265 1.351 . S
C264 N267 1.368 . S
C264 H269 0.931 . S
C265 C264 1.351 . S
C265 N266 1.373 . S
C265 H293 0.930 . S
N266 C265 1.373 . S
N266 C268 1.340 . S
N267 C264 1.368 . S
N267 C268 1.321 . S
N267 Co270 2.135 . S
C268 N266 1.340 . S
C268 N267 1.321 . S
C268 H292 0.930 . S
H269 C264 0.931 . S
Co270 N267 2.135 . S
Co270 N273 2.121 . S
Co270 O278 2.055 . S
Co270 O281 2.039 . S
Co270 N284 2.140 . S
C271 O272 1.227 . S
C271 O281 1.265 . S
O272 C271 1.227 . S
N273 Co270 2.121 . S
N273 C275 1.375 . S
N273 C276 1.313 . S
C274 C275 1.338 . S
C274 N277 1.377 . S
C274 H294 0.930 . S
C275 N273 1.375 . S
C275 C274 1.338 . S
C275 H279 0.931 . S
C276 N273 1.313 . S
C276 N277 1.344 . S
C276 H280 0.930 . S
N277 C274 1.377 . S
N277 C276 1.344 . S
O278 Co270 2.055 . S
O278 C282 1.253 . S
H279 C275 0.931 . S
H280 C276 0.930 . S
O281 Co270 2.039 . S
O281 C271 1.265 . S
C282 O278 1.253 . S
C282 O283 1.227 . S
O283 C282 1.227 . S
N284 Co270 2.140 . S
N284 C287 1.346 . S
N284 C288 1.345 . S
C285 C286 1.387 . S
C285 C289 1.391 . S
C286 C285 1.387 . S
C286 C287 1.369 . S
C286 H295 0.929 . S
C287 N284 1.346 . S
C287 C286 1.369 . S
C287 H290 0.928 . S
C288 N284 1.345 . S
C288 C289 1.371 . S
C288 H291 0.931 . S
C289 C285 1.391 . S
C289 C288 1.371 . S
C289 H296 0.930 . S
H290 C287 0.928 . S
H291 C288 0.931 . S
H292 C268 0.930 . S
H293 C265 0.930 . S
H294 C274 0.930 . S
H295 C286 0.929 . S
H296 C289 0.930 . S
C297 C298 1.351 . S
C297 N300 1.368 . S
C297 H302 0.931 . S
C298 C297 1.351 . S
C298 N299 1.373 . S
C298 H326 0.930 . S
N299 C298 1.373 . S
N299 C301 1.340 . S
N300 C297 1.368 . S
N300 C301 1.321 . S
N300 Co303 2.135 . S
C301 N299 1.340 . S
C301 N300 1.321 . S
C301 H325 0.930 . S
H302 C297 0.931 . S
Co303 N300 2.135 . S
Co303 N306 2.121 . S
Co303 O311 2.055 . S
Co303 O314 2.039 . S
Co303 N317 2.140 . S
C304 O305 1.227 . S
C304 O314 1.265 . S
O305 C304 1.227 . S
N306 Co303 2.121 . S
N306 C308 1.375 . S
N306 C309 1.313 . S
C307 C308 1.338 . S
C307 N310 1.377 . S
C307 H327 0.930 . S
C308 N306 1.375 . S
C308 C307 1.338 . S
C308 H312 0.931 . S
C309 N306 1.313 . S
C309 N310 1.344 . S
C309 H313 0.930 . S
N310 C307 1.377 . S
N310 C309 1.344 . S
O311 Co303 2.055 . S
O311 C315 1.248 1_565 S
H312 C308 0.931 . S
H313 C309 0.930 . S
O314 Co303 2.039 . S
O314 C304 1.265 . S
C315 O311 1.248 1_545 S
C315 O316 1.226 1_545 S
O316 C315 1.226 1_565 S
N317 Co303 2.140 . S
N317 C320 1.346 . S
N317 C321 1.345 . S
C318 C319 1.387 . S
C318 C322 1.391 . S
C319 C318 1.387 . S
C319 C320 1.369 . S
C319 H328 0.929 . S
C320 N317 1.346 . S
C320 C319 1.369 . S
C320 H323 0.928 . S
C321 N317 1.345 . S
C321 C322 1.371 . S
C321 H324 0.931 . S
C322 C318 1.391 . S
C322 C321 1.371 . S
C322 H329 0.930 . S
H323 C320 0.928 . S
H324 C321 0.931 . S
H325 C301 0.930 . S
H326 C298 0.930 . S
H327 C307 0.930 . S
H328 C319 0.929 . S
H329 C322 0.930 . S
C330 C331 1.351 . S
C330 N333 1.368 . S
C330 H335 0.931 . S
C331 C330 1.351 . S
C331 N332 1.373 . S
C331 H359 0.930 . S
N332 C331 1.373 . S
N332 C334 1.340 . S
N333 C330 1.368 . S
N333 C334 1.321 . S
N333 Co336 2.135 . S
C334 N332 1.340 . S
C334 N333 1.321 . S
C334 H358 0.930 . S
H335 C330 0.931 . S
Co336 N333 2.135 . S
Co336 N339 2.121 . S
Co336 O344 2.055 . S
Co336 O347 2.039 . S
Co336 N350 2.140 . S
C337 O338 1.227 . S
C337 O347 1.265 . S
O338 C337 1.227 . S
N339 Co336 2.121 . S
N339 C341 1.375 . S
N339 C342 1.313 . S
C340 C341 1.338 . S
C340 N343 1.377 . S
C340 H360 0.930 . S
C341 N339 1.375 . S
C341 C340 1.338 . S
C341 H345 0.931 . S
C342 N339 1.313 . S
C342 N343 1.344 . S
C342 H346 0.930 . S
N343 C340 1.377 . S
N343 C342 1.344 . S
O344 Co336 2.055 . S
O344 C348 1.253 . S
H345 C341 0.931 . S
H346 C342 0.930 . S
O347 Co336 2.039 . S
O347 C337 1.265 . S
C348 O344 1.253 . S
C348 O349 1.227 . S
O349 C348 1.227 . S
N350 Co336 2.140 . S
N350 C353 1.346 . S
N350 C354 1.345 . S
C351 C352 1.387 . S
C351 C355 1.391 . S
C352 C351 1.387 . S
C352 C353 1.369 . S
C352 H361 0.929 . S
C353 N350 1.346 . S
C353 C352 1.369 . S
C353 H356 0.928 . S
C354 N350 1.345 . S
C354 C355 1.371 . S
C354 H357 0.931 . S
C355 C351 1.391 . S
C355 C354 1.371 . S
C355 H362 0.930 . S
H356 C353 0.928 . S
H357 C354 0.931 . S
H358 C334 0.930 . S
H359 C331 0.930 . S
H360 C340 0.930 . S
H361 C352 0.929 . S
H362 C355 0.930 . S
C363 C364 1.351 . S
C363 N366 1.368 . S
C363 H368 0.931 . S
C364 C363 1.351 . S
C364 N365 1.373 . S
C364 H392 0.930 . S
N365 C364 1.373 . S
N365 C367 1.340 . S
N366 C363 1.368 . S
N366 C367 1.321 . S
N366 Co369 2.135 . S
C367 N365 1.340 . S
C367 N366 1.321 . S
C367 H391 0.930 . S
H368 C363 0.931 . S
Co369 N366 2.135 . S
Co369 N372 2.121 . S
Co369 O377 2.055 . S
Co369 O380 2.039 . S
Co369 N383 2.140 . S
C370 O371 1.227 . S
C370 O380 1.265 . S
O371 C370 1.227 . S
N372 Co369 2.121 . S
N372 C374 1.375 . S
N372 C375 1.313 . S
C373 C374 1.338 . S
C373 N376 1.377 . S
C373 H393 0.930 . S
C374 N372 1.375 . S
C374 C373 1.338 . S
C374 H378 0.931 . S
C375 N372 1.313 . S
C375 N376 1.344 . S
C375 H379 0.930 . S
N376 C373 1.377 . S
N376 C375 1.344 . S
O377 Co369 2.055 . S
O377 C381 1.248 1_545 S
H378 C374 0.931 . S
H379 C375 0.930 . S
O380 Co369 2.039 . S
O380 C370 1.265 . S
C381 O377 1.248 1_565 S
C381 O382 1.226 1_565 S
O382 C381 1.226 1_545 S
N383 Co369 2.140 . S
N383 C386 1.346 . S
N383 C387 1.345 . S
C384 C385 1.387 . S
C384 C388 1.391 . S
C385 C384 1.387 . S
C385 C386 1.369 . S
C385 H394 0.929 . S
C386 N383 1.346 . S
C386 C385 1.369 . S
C386 H389 0.928 . S
C387 N383 1.345 . S
C387 C388 1.371 . S
C387 H390 0.931 . S
C388 C384 1.391 . S
C388 C387 1.371 . S
C388 H395 0.930 . S
H389 C386 0.928 . S
H390 C387 0.931 . S
H391 C367 0.930 . S
H392 C364 0.930 . S
H393 C373 0.930 . S
H394 C385 0.929 . S
H395 C388 0.930 . S
C396 C397 1.351 . S
C396 N399 1.368 . S
C396 H401 0.931 . S
C397 C396 1.351 . S
C397 N398 1.373 . S
C397 H425 0.930 . S
N398 C397 1.373 . S
N398 C400 1.340 . S
N399 C396 1.368 . S
N399 C400 1.321 . S
N399 Co402 2.135 . S
C400 N398 1.340 . S
C400 N399 1.321 . S
C400 H424 0.930 . S
H401 C396 0.931 . S
Co402 N399 2.135 . S
Co402 N405 2.121 . S
Co402 O410 2.055 . S
Co402 O413 2.039 . S
Co402 N416 2.140 . S
C403 O404 1.227 . S
C403 O413 1.265 . S
O404 C403 1.227 . S
N405 Co402 2.121 . S
N405 C407 1.375 . S
N405 C408 1.313 . S
C406 C407 1.338 . S
C406 N409 1.377 . S
C406 H426 0.930 . S
C407 N405 1.375 . S
C407 C406 1.338 . S
C407 H411 0.931 . S
C408 N405 1.313 . S
C408 N409 1.344 . S
C408 H412 0.930 . S
N409 C406 1.377 . S
N409 C408 1.344 . S
O410 Co402 2.055 . S
O410 C414 1.253 . S
H411 C407 0.931 . S
H412 C408 0.930 . S
O413 Co402 2.039 . S
O413 C403 1.265 . S
C414 O410 1.253 . S
C414 O415 1.227 . S
O415 C414 1.227 . S
N416 Co402 2.140 . S
N416 C419 1.346 . S
N416 C420 1.345 . S
C417 C418 1.387 . S
C417 C421 1.391 . S
C418 C417 1.387 . S
C418 C419 1.369 . S
C418 H427 0.929 . S
C419 N416 1.346 . S
C419 C418 1.369 . S
C419 H422 0.928 . S
C420 N416 1.345 . S
C420 C421 1.371 . S
C420 H423 0.931 . S
C421 C417 1.391 . S
C421 C420 1.371 . S
C421 H428 0.930 . S
H422 C419 0.928 . S
H423 C420 0.931 . S
H424 C400 0.930 . S
H425 C397 0.930 . S
H426 C406 0.930 . S
H427 C418 0.929 . S
H428 C421 0.930 . S
C429 C430 1.351 . S
C429 N432 1.368 . S
C429 H434 0.931 . S
C430 C429 1.351 . S
C430 N431 1.373 . S
C430 H458 0.930 . S
N431 C430 1.373 . S
N431 C433 1.340 . S
N432 C429 1.368 . S
N432 C433 1.321 . S
N432 Co435 2.135 . S
C433 N431 1.340 . S
C433 N432 1.321 . S
C433 H457 0.930 . S
H434 C429 0.931 . S
Co435 N432 2.135 . S
Co435 N438 2.121 . S
Co435 O443 2.055 . S
Co435 O446 2.039 . S
Co435 N449 2.140 . S
C436 O437 1.227 . S
C436 O446 1.265 . S
O437 C436 1.227 . S
N438 Co435 2.121 . S
N438 C440 1.375 . S
N438 C441 1.313 . S
C439 C440 1.338 . S
C439 N442 1.377 . S
C439 H459 0.930 . S
C440 N438 1.375 . S
C440 C439 1.338 . S
C440 H444 0.931 . S
C441 N438 1.313 . S
C441 N442 1.344 . S
C441 H445 0.930 . S
N442 C439 1.377 . S
N442 C441 1.344 . S
O443 Co435 2.055 . S
O443 C447 1.248 1_545 S
H444 C440 0.931 . S
H445 C441 0.930 . S
O446 Co435 2.039 . S
O446 C436 1.265 . S
C447 O443 1.248 1_565 S
C447 O448 1.226 1_565 S
O448 C447 1.226 1_545 S
N449 Co435 2.140 . S
N449 C452 1.346 . S
N449 C453 1.345 . S
C450 C451 1.387 . S
C450 C454 1.391 . S
C451 C450 1.387 . S
C451 C452 1.369 . S
C451 H460 0.929 . S
C452 N449 1.346 . S
C452 C451 1.369 . S
C452 H455 0.928 . S
C453 N449 1.345 . S
C453 C454 1.371 . S
C453 H456 0.931 . S
C454 C450 1.391 . S
C454 C453 1.371 . S
C454 H461 0.930 . S
H455 C452 0.928 . S
H456 C453 0.931 . S
H457 C433 0.930 . S
H458 C430 0.930 . S
H459 C439 0.930 . S
H460 C451 0.929 . S
H461 C454 0.930 . S
C462 C463 1.351 . S
C462 N465 1.368 . S
C462 H467 0.931 . S
C463 C462 1.351 . S
C463 N464 1.373 . S
C463 H491 0.930 . S
N464 C463 1.373 . S
N464 C466 1.340 . S
N465 C462 1.368 . S
N465 C466 1.321 . S
N465 Co468 2.135 . S
C466 N464 1.340 . S
C466 N465 1.321 . S
C466 H490 0.930 . S
H467 C462 0.931 . S
Co468 N465 2.135 . S
Co468 N471 2.121 . S
Co468 O476 2.055 . S
Co468 O479 2.039 . S
Co468 N482 2.140 . S
C469 O470 1.227 . S
C469 O479 1.265 . S
O470 C469 1.227 . S
N471 Co468 2.121 . S
N471 C473 1.375 . S
N471 C474 1.313 . S
C472 C473 1.338 . S
C472 N475 1.377 . S
C472 H492 0.930 . S
C473 N471 1.375 . S
C473 C472 1.338 . S
C473 H477 0.931 . S
C474 N471 1.313 . S
C474 N475 1.344 . S
C474 H478 0.930 . S
N475 C472 1.377 . S
N475 C474 1.344 . S
O476 Co468 2.055 . S
O476 C480 1.253 . S
H477 C473 0.931 . S
H478 C474 0.930 . S
O479 Co468 2.039 . S
O479 C469 1.265 . S
C480 O476 1.253 . S
C480 O481 1.227 . S
O481 C480 1.227 . S
N482 Co468 2.140 . S
N482 C485 1.346 . S
N482 C486 1.345 . S
C483 C484 1.387 . S
C483 C487 1.391 . S
C484 C483 1.387 . S
C484 C485 1.369 . S
C484 H493 0.929 . S
C485 N482 1.346 . S
C485 C484 1.369 . S
C485 H488 0.928 . S
C486 N482 1.345 . S
C486 C487 1.371 . S
C486 H489 0.931 . S
C487 C483 1.391 . S
C487 C486 1.371 . S
C487 H494 0.930 . S
H488 C485 0.928 . S
H489 C486 0.931 . S
H490 C466 0.930 . S
H491 C463 0.930 . S
H492 C472 0.930 . S
H493 C484 0.929 . S
H494 C487 0.930 . S
C495 C496 1.351 . S
C495 N498 1.368 . S
C495 H500 0.931 . S
C496 C495 1.351 . S
C496 N497 1.373 . S
C496 H524 0.930 . S
N497 C496 1.373 . S
N497 C499 1.340 . S
N498 C495 1.368 . S
N498 C499 1.321 . S
N498 Co501 2.135 . S
C499 N497 1.340 . S
C499 N498 1.321 . S
C499 H523 0.930 . S
H500 C495 0.931 . S
Co501 N498 2.135 . S
Co501 N504 2.121 . S
Co501 O509 2.055 . S
Co501 O512 2.039 . S
Co501 N515 2.140 . S
C502 O503 1.227 . S
C502 O512 1.265 . S
O503 C502 1.227 . S
N504 Co501 2.121 . S
N504 C506 1.375 . S
N504 C507 1.313 . S
C505 C506 1.338 . S
C505 N508 1.377 . S
C505 H525 0.930 . S
C506 N504 1.375 . S
C506 C505 1.338 . S
C506 H510 0.931 . S
C507 N504 1.313 . S
C507 N508 1.344 . S
C507 H511 0.930 . S
N508 C505 1.377 . S
N508 C507 1.344 . S
O509 Co501 2.055 . S
O509 C513 1.248 1_565 S
H510 C506 0.931 . S
H511 C507 0.930 . S
O512 Co501 2.039 . S
O512 C502 1.265 . S
C513 O509 1.248 1_545 S
C513 O514 1.226 1_545 S
O514 C513 1.226 1_565 S
N515 Co501 2.140 . S
N515 C518 1.346 . S
N515 C519 1.345 . S
C516 C517 1.387 . S
C516 C520 1.391 . S
C517 C516 1.387 . S
C517 C518 1.369 . S
C517 H526 0.929 . S
C518 N515 1.346 . S
C518 C517 1.369 . S
C518 H521 0.928 . S
C519 N515 1.345 . S
C519 C520 1.371 . S
C519 H522 0.931 . S
C520 C516 1.391 . S
C520 C519 1.371 . S
C520 H527 0.930 . S
H521 C518 0.928 . S
H522 C519 0.931 . S
H523 C499 0.930 . S
H524 C496 0.930 . S
H525 C505 0.930 . S
H526 C517 0.929 . S
H527 C520 0.930 . S
C528 C529 1.363 . S
C528 C534 1.379 . S
C528 N536 1.356 . S
C529 C528 1.363 . S
C529 C535 1.363 . S
C530 C531 1.363 . S
C530 C535 1.379 . S
C530 N537 1.356 . S
C531 C530 1.363 . S
C531 C534 1.363 . S
N532 C534 1.356 . S
N532 H544 0.984 . S
N532 H545 0.985 . S
N533 C535 1.356 . S
N533 H538 0.984 . S
N533 H539 0.985 . S
C534 C528 1.379 . S
C534 C531 1.363 . S
C534 N532 1.356 . S
C535 C529 1.363 . S
C535 C530 1.379 . S
C535 N533 1.356 . S
N536 C528 1.356 . S
N536 H542 0.984 . S
N536 H543 0.984 1_565 S
N537 C530 1.356 . S
N537 H540 0.984 . S
N537 H541 0.985 . S
H538 N533 0.984 . S
H539 N533 0.985 . S
H540 N537 0.984 . S
H541 N537 0.985 . S
H542 N536 0.984 . S
H543 N536 0.984 1_545 S
H544 N532 0.984 . S
H545 N532 0.985 . S
C546 C547 1.363 . S
C546 C552 1.379 . S
C546 N554 1.356 . S
C547 C546 1.363 . S
C547 C553 1.363 . S
C548 C549 1.363 . S
C548 C553 1.379 . S
C548 N555 1.356 . S
C549 C548 1.363 . S
C549 C552 1.363 . S
N550 C552 1.356 . S
N550 H562 0.984 . S
N550 H563 0.985 . S
N551 C553 1.356 . S
N551 H556 0.984 . S
N551 H557 0.985 . S
C552 C546 1.379 . S
C552 C549 1.363 . S
C552 N550 1.356 . S
C553 C547 1.363 . S
C553 C548 1.379 . S
C553 N551 1.356 . S
N554 C546 1.356 . S
N554 H560 0.984 . S
N554 H561 0.984 . S
N555 C548 1.356 . S
N555 H558 0.984 . S
N555 H559 0.985 . S
H556 N551 0.984 . S
H557 N551 0.985 . S
H558 N555 0.984 . S
H559 N555 0.985 . S
H560 N554 0.984 . S
H561 N554 0.984 . S
H562 N550 0.984 . S
H563 N550 0.985 . S
C564 C565 1.363 . S
C564 C570 1.379 . S
C564 N572 1.356 . S
C565 C564 1.363 . S
C565 C571 1.363 . S
C566 C567 1.363 . S
C566 C571 1.379 . S
C566 N573 1.356 . S
C567 C566 1.363 . S
C567 C570 1.363 . S
N568 C570 1.356 . S
N568 H580 0.984 . S
N568 H581 0.985 . S
N569 C571 1.356 . S
N569 H574 0.984 . S
N569 H575 0.985 . S
C570 C564 1.379 . S
C570 C567 1.363 . S
C570 N568 1.356 . S
C571 C565 1.363 . S
C571 C566 1.379 . S
C571 N569 1.356 . S
N572 C564 1.356 . S
N572 H578 0.984 . S
N572 H579 0.984 1_545 S
N573 C566 1.356 . S
N573 H576 0.984 . S
N573 H577 0.985 . S
H574 N569 0.984 . S
H575 N569 0.985 . S
H576 N573 0.984 . S
H577 N573 0.985 . S
H578 N572 0.984 . S
H579 N572 0.984 1_565 S
H580 N568 0.984 . S
H581 N568 0.985 . S
C582 C583 1.363 . S
C582 C588 1.379 . S
C582 N590 1.356 . S
C583 C582 1.363 . S
C583 C589 1.363 . S
C584 C585 1.363 . S
C584 C589 1.379 . S
C584 N591 1.356 . S
C585 C584 1.363 . S
C585 C588 1.363 . S
N586 C588 1.356 . S
N586 H598 0.984 . S
N586 H599 0.985 . S
N587 C589 1.356 . S
N587 H592 0.984 . S
N587 H593 0.985 . S
C588 C582 1.379 . S
C588 C585 1.363 . S
C588 N586 1.356 . S
C589 C583 1.363 . S
C589 C584 1.379 . S
C589 N587 1.356 . S
N590 C582 1.356 . S
N590 H596 0.984 . S
N590 H597 0.984 . S
N591 C584 1.356 . S
N591 H594 0.984 . S
N591 H595 0.985 . S
H592 N587 0.984 . S
H593 N587 0.985 . S
H594 N591 0.984 . S
H595 N591 0.985 . S
H596 N590 0.984 . S
H597 N590 0.984 . S
H598 N586 0.984 . S
H599 N586 0.985 . S
C600 C601 1.363 . S
C600 C606 1.379 . S
C600 N608 1.356 . S
C601 C600 1.363 . S
C601 C607 1.363 . S
C602 C603 1.363 . S
C602 C607 1.379 . S
C602 N609 1.356 . S
C603 C602 1.363 . S
C603 C606 1.363 . S
N604 C606 1.356 . S
N604 H616 0.984 . S
N604 H617 0.985 . S
N605 C607 1.356 . S
N605 H610 0.984 . S
N605 H611 0.985 . S
C606 C600 1.379 . S
C606 C603 1.363 . S
C606 N604 1.356 . S
C607 C601 1.363 . S
C607 C602 1.379 . S
C607 N605 1.356 . S
N608 C600 1.356 . S
N608 H614 0.984 . S
N608 H615 0.984 1_545 S
N609 C602 1.356 . S
N609 H612 0.984 . S
N609 H613 0.985 . S
H610 N605 0.984 . S
H611 N605 0.985 . S
H612 N609 0.984 . S
H613 N609 0.985 . S
H614 N608 0.984 . S
H615 N608 0.984 1_565 S
H616 N604 0.984 . S
H617 N604 0.985 . S
C618 C619 1.363 . S
C618 C624 1.379 . S
C618 N626 1.356 . S
C619 C618 1.363 . S
C619 C625 1.363 . S
C620 C621 1.363 . S
C620 C625 1.379 . S
C620 N627 1.356 . S
C621 C620 1.363 . S
C621 C624 1.363 . S
N622 C624 1.356 . S
N622 H634 0.984 . S
N622 H635 0.985 . S
N623 C625 1.356 . S
N623 H628 0.984 . S
N623 H629 0.985 . S
C624 C618 1.379 . S
C624 C621 1.363 . S
C624 N622 1.356 . S
C625 C619 1.363 . S
C625 C620 1.379 . S
C625 N623 1.356 . S
N626 C618 1.356 . S
N626 H632 0.984 . S
N626 H633 0.984 . S
N627 C620 1.356 . S
N627 H630 0.984 . S
N627 H631 0.985 . S
H628 N623 0.984 . S
H629 N623 0.985 . S
H630 N627 0.984 . S
H631 N627 0.985 . S
H632 N626 0.984 . S
H633 N626 0.984 . S
H634 N622 0.984 . S
H635 N622 0.985 . S
C636 C637 1.363 . S
C636 C642 1.379 . S
C636 N644 1.356 . S
C637 C636 1.363 . S
C637 C643 1.363 . S
C638 C639 1.363 . S
C638 C643 1.379 . S
C638 N645 1.356 . S
C639 C638 1.363 . S
C639 C642 1.363 . S
N640 C642 1.356 . S
N640 H652 0.984 . S
N640 H653 0.985 . S
N641 C643 1.356 . S
N641 H646 0.984 . S
N641 H647 0.985 . S
C642 C636 1.379 . S
C642 C639 1.363 . S
C642 N640 1.356 . S
C643 C637 1.363 . S
C643 C638 1.379 . S
C643 N641 1.356 . S
N644 C636 1.356 . S
N644 H650 0.985 . S
N644 H651 0.984 1_565 S
N645 C638 1.356 . S
N645 H648 0.984 . S
N645 H649 0.985 . S
H646 N641 0.984 . S
H647 N641 0.985 . S
H648 N645 0.984 . S
H649 N645 0.985 . S
H650 N644 0.985 . S
H651 N644 0.984 1_545 S
H652 N640 0.984 . S
H653 N640 0.985 . S
C654 C655 1.363 . S
C654 C660 1.379 . S
C654 N662 1.356 . S
C655 C654 1.363 . S
C655 C661 1.363 . S
C656 C657 1.363 . S
C656 C661 1.379 . S
C656 N663 1.356 . S
C657 C656 1.363 . S
C657 C660 1.363 . S
N658 C660 1.356 . S
N658 H670 0.984 . S
N658 H671 0.985 . S
N659 C661 1.356 . S
N659 H664 0.984 . S
N659 H665 0.985 . S
C660 C654 1.379 . S
C660 C657 1.363 . S
C660 N658 1.356 . S
C661 C655 1.363 . S
C661 C656 1.379 . S
C661 N659 1.356 . S
N662 C654 1.356 . S
N662 H668 0.984 . S
N662 H669 0.984 . S
N663 C656 1.356 . S
N663 H666 0.984 . S
N663 H667 0.985 . S
H664 N659 0.984 . S
H665 N659 0.985 . S
H666 N663 0.984 . S
H667 N663 0.985 . S
H668 N662 0.984 . S
H669 N662 0.984 . S
H670 N658 0.984 . S
H671 N658 0.985 . S
C672 C673 1.363 . S
C672 C678 1.379 . S
C672 N680 1.356 . S
C673 C672 1.363 . S
C673 C679 1.363 . S
C674 C675 1.363 . S
C674 C679 1.379 . S
C674 N681 1.356 . S
C675 C674 1.363 . S
C675 C678 1.363 . S
N676 C678 1.356 . S
N676 H688 0.984 . S
N676 H689 0.985 . S
N677 C679 1.356 . S
N677 H682 0.984 . S
N677 H683 0.985 . S
C678 C672 1.379 . S
C678 C675 1.363 . S
C678 N676 1.356 . S
C679 C673 1.363 . S
C679 C674 1.379 . S
C679 N677 1.356 . S
N680 C672 1.356 . S
N680 H686 0.984 . S
N680 H687 0.984 . S
N681 C674 1.356 . S
N681 H684 0.984 . S
N681 H685 0.985 . S
H682 N677 0.984 . S
H683 N677 0.985 . S
H684 N681 0.984 . S
H685 N681 0.985 . S
H686 N680 0.984 . S
H687 N680 0.984 . S
H688 N676 0.984 . S
H689 N676 0.985 . S
C690 C691 1.363 . S
C690 C696 1.379 . S
C690 N698 1.356 . S
C691 C690 1.363 . S
C691 C697 1.363 . S
C692 C693 1.363 . S
C692 C697 1.379 . S
C692 N699 1.356 . S
C693 C692 1.363 . S
C693 C696 1.363 . S
N694 C696 1.356 . S
N694 H706 0.984 . S
N694 H707 0.985 . S
N695 C697 1.356 . S
N695 H700 0.984 . S
N695 H701 0.985 . S
C696 C690 1.379 . S
C696 C693 1.363 . S
C696 N694 1.356 . S
C697 C691 1.363 . S
C697 C692 1.379 . S
C697 N695 1.356 . S
N698 C690 1.356 . S
N698 H704 0.984 . S
N698 H705 0.984 . S
N699 C692 1.356 . S
N699 H702 0.984 1_545 S
N699 H703 0.985 . S
H700 N695 0.984 . S
H701 N695 0.985 . S
H702 N699 0.984 1_565 S
H703 N699 0.985 . S
H704 N698 0.984 . S
H705 N698 0.984 . S
H706 N694 0.984 . S
H707 N694 0.985 . S
C708 C709 1.363 . S
C708 C714 1.379 . S
C708 N716 1.356 . S
C709 C708 1.363 . S
C709 C715 1.363 . S
C710 C711 1.363 . S
C710 C715 1.379 . S
C710 N717 1.356 . S
C711 C710 1.363 . S
C711 C714 1.363 . S
N712 C714 1.356 . S
N712 H724 0.984 . S
N712 H725 0.985 . S
N713 C715 1.356 . S
N713 H718 0.984 . S
N713 H719 0.985 . S
C714 C708 1.379 . S
C714 C711 1.363 . S
C714 N712 1.356 . S
C715 C709 1.363 . S
C715 C710 1.379 . S
C715 N713 1.356 . S
N716 C708 1.356 . S
N716 H722 0.984 . S
N716 H723 0.984 . S
N717 C710 1.356 . S
N717 H720 0.984 . S
N717 H721 0.985 . S
H718 N713 0.984 . S
H719 N713 0.985 . S
H720 N717 0.984 . S
H721 N717 0.985 . S
H722 N716 0.984 . S
H723 N716 0.984 . S
H724 N712 0.984 . S
H725 N712 0.985 . S
C726 C727 1.363 . S
C726 C732 1.379 . S
C726 N734 1.356 . S
C727 C726 1.363 . S
C727 C733 1.363 . S
C728 C729 1.363 . S
C728 C733 1.379 . S
C728 N735 1.356 . S
C729 C728 1.363 . S
C729 C732 1.363 . S
N730 C732 1.356 . S
N730 H742 0.984 . S
N730 H743 0.985 . S
N731 C733 1.356 . S
N731 H736 0.984 1_565 S
N731 H737 0.985 . S
C732 C726 1.379 . S
C732 C729 1.363 . S
C732 N730 1.356 . S
C733 C727 1.363 . S
C733 C728 1.379 . S
C733 N731 1.356 . S
N734 C726 1.356 . S
N734 H740 0.984 . S
N734 H741 0.984 . S
N735 C728 1.356 . S
N735 H738 0.984 . S
N735 H739 0.985 . S
H736 N731 0.984 1_545 S
H737 N731 0.985 . S
H738 N735 0.984 . S
H739 N735 0.985 . S
H740 N734 0.984 . S
H741 N734 0.984 . S
H742 N730 0.984 . S
H743 N730 0.985 . S
C744 C745 1.363 . S
C744 C750 1.379 . S
C744 N752 1.356 . S
C745 C744 1.363 . S
C745 C751 1.363 . S
C746 C747 1.363 . S
C746 C751 1.379 . S
C746 N753 1.356 . S
C747 C746 1.363 . S
C747 C750 1.363 . S
N748 C750 1.356 . S
N748 H760 0.984 . S
N748 H761 0.985 . S
N749 C751 1.356 . S
N749 H754 0.984 . S
N749 H755 0.985 . S
C750 C744 1.379 . S
C750 C747 1.363 . S
C750 N748 1.356 . S
C751 C745 1.363 . S
C751 C746 1.379 . S
C751 N749 1.356 . S
N752 C744 1.356 . S
N752 H758 0.984 . S
N752 H759 0.984 . S
N753 C746 1.356 . S
N753 H756 0.984 . S
N753 H757 0.985 . S
H754 N749 0.984 . S
H755 N749 0.985 . S
H756 N753 0.984 . S
H757 N753 0.985 . S
H758 N752 0.984 . S
H759 N752 0.984 . S
H760 N748 0.984 . S
H761 N748 0.985 . S
C762 C763 1.363 . S
C762 C768 1.379 . S
C762 N770 1.356 . S
C763 C762 1.363 . S
C763 C769 1.363 . S
C764 C765 1.363 . S
C764 C769 1.379 . S
C764 N771 1.356 . S
C765 C764 1.363 . S
C765 C768 1.363 . S
N766 C768 1.356 . S
N766 H778 0.984 . S
N766 H779 0.985 . S
N767 C769 1.356 . S
N767 H772 0.984 . S
N767 H773 0.985 . S
C768 C762 1.379 . S
C768 C765 1.363 . S
C768 N766 1.356 . S
C769 C763 1.363 . S
C769 C764 1.379 . S
C769 N767 1.356 . S
N770 C762 1.356 . S
N770 H776 0.984 . S
N770 H777 0.984 1_565 S
N771 C764 1.356 . S
N771 H774 0.984 . S
N771 H775 0.985 . S
H772 N767 0.984 . S
H773 N767 0.985 . S
H774 N771 0.984 . S
H775 N771 0.985 . S
H776 N770 0.984 . S
H777 N770 0.984 1_545 S
H778 N766 0.984 . S
H779 N766 0.985 . S
C780 C781 1.363 . S
C780 C786 1.379 . S
C780 N788 1.356 . S
C781 C780 1.363 . S
C781 C787 1.363 . S
C782 C783 1.363 . S
C782 C787 1.379 . S
C782 N789 1.356 . S
C783 C782 1.363 . S
C783 C786 1.363 . S
N784 C786 1.356 . S
N784 H796 0.984 . S
N784 H797 0.985 . S
N785 C787 1.356 . S
N785 H790 0.984 . S
N785 H791 0.985 . S
C786 C780 1.379 . S
C786 C783 1.363 . S
C786 N784 1.356 . S
C787 C781 1.363 . S
C787 C782 1.379 . S
C787 N785 1.356 . S
N788 C780 1.356 . S
N788 H794 0.984 . S
N788 H795 0.984 . S
N789 C782 1.356 . S
N789 H792 0.984 . S
N789 H793 0.985 . S
H790 N785 0.984 . S
H791 N785 0.985 . S
H792 N789 0.984 . S
H793 N789 0.985 . S
H794 N788 0.984 . S
H795 N788 0.984 . S
H796 N784 0.984 . S
H797 N784 0.985 . S
C798 C799 1.363 . S
C798 C804 1.379 . S
C798 N806 1.356 . S
C799 C798 1.363 . S
C799 C805 1.363 . S
C800 C801 1.363 . S
C800 C805 1.379 . S
C800 N807 1.356 . S
C801 C800 1.363 . S
C801 C804 1.363 . S
N802 C804 1.356 . S
N802 H814 0.984 . S
N802 H815 0.988 . S
N803 C805 1.356 . S
N803 H808 0.984 . S
N803 H809 0.985 . S
C804 C798 1.379 . S
C804 C801 1.363 . S
C804 N802 1.356 . S
C805 C799 1.363 . S
C805 C800 1.379 . S
C805 N803 1.356 . S
N806 C798 1.356 . S
N806 H812 0.984 . S
N806 H813 0.984 . S
N807 C800 1.356 . S
N807 H810 0.984 1_545 S
N807 H811 0.985 . S
H808 N803 0.984 . S
H809 N803 0.985 . S
H810 N807 0.984 1_565 S
H811 N807 0.985 . S
H812 N806 0.984 . S
H813 N806 0.984 . S
H814 N802 0.984 . S
H815 N802 0.988 . S
C816 C817 1.363 . S
C816 C822 1.379 1_554 S
C816 N824 1.356 . S
C817 C816 1.363 . S
C817 C823 1.363 . S
C818 C819 1.363 . S
C818 C823 1.379 1_556 S
C818 N825 1.356 . S
C819 C818 1.363 . S
C819 C822 1.363 . S
N820 C822 1.356 . S
N820 H832 0.984 . S
N820 H833 0.985 . S
N821 C823 1.356 . S
N821 H826 0.984 . S
N821 H827 0.985 . S
C822 C816 1.379 1_556 S
C822 C819 1.363 . S
C822 N820 1.356 . S
C823 C817 1.363 . S
C823 C818 1.379 1_554 S
C823 N821 1.356 . S
N824 C816 1.356 . S
N824 H830 0.984 . S
N824 H831 0.984 . S
N825 C818 1.356 . S
N825 H828 0.984 . S
N825 H829 0.985 . S
H826 N821 0.984 . S
H827 N821 0.985 . S
H828 N825 0.984 . S
H829 N825 0.985 . S
H830 N824 0.984 . S
H831 N824 0.984 . S
H832 N820 0.984 . S
H833 N820 0.985 . S
C834 C835 1.363 . S
C834 C840 1.379 1_556 S
C834 N842 1.356 . S
C835 C834 1.363 . S
C835 C841 1.363 . S
C836 C837 1.363 . S
C836 C841 1.379 1_554 S
C836 N843 1.356 . S
C837 C836 1.363 . S
C837 C840 1.363 . S
N838 C840 1.356 . S
N838 H850 0.984 . S
N838 H851 0.985 . S
N839 C841 1.356 . S
N839 H844 0.984 . S
N839 H845 0.985 . S
C840 C834 1.379 1_554 S
C840 C837 1.363 . S
C840 N838 1.356 . S
C841 C835 1.363 . S
C841 C836 1.379 1_556 S
C841 N839 1.356 . S
N842 C834 1.356 . S
N842 H848 0.984 . S
N842 H849 0.984 . S
N843 C836 1.356 . S
N843 H846 0.984 . S
N843 H847 0.985 . S
H844 N839 0.984 . S
H845 N839 0.985 . S
H846 N843 0.984 . S
H847 N843 0.985 . S
H848 N842 0.984 . S
H849 N842 0.984 . S
H850 N838 0.984 . S
H851 N838 0.985 . S
C852 C853 1.363 . S
C852 C858 1.379 . S
C852 N860 1.356 . S
C853 C852 1.363 . S
C853 C859 1.363 . S
C854 C855 1.363 . S
C854 C859 1.379 . S
C854 N861 1.356 . S
C855 C854 1.363 . S
C855 C858 1.363 . S
N856 C858 1.356 . S
N856 H868 0.984 . S
N856 H869 0.985 . S
N857 C859 1.356 . S
N857 H862 0.984 . S
N857 H863 0.985 . S
C858 C852 1.379 . S
C858 C855 1.363 . S
C858 N856 1.356 . S
C859 C853 1.363 . S
C859 C854 1.379 . S
C859 N857 1.356 . S
N860 C852 1.356 . S
N860 H866 0.984 . S
N860 H867 0.984 . S
N861 C854 1.356 . S
N861 H864 0.984 . S
N861 H865 0.985 . S
H862 N857 0.984 . S
H863 N857 0.985 . S
H864 N861 0.984 . S
H865 N861 0.985 . S
H866 N860 0.984 . S
H867 N860 0.984 . S
H868 N856 0.984 . S
H869 N856 0.985 . S
C870 C871 1.363 . S
C870 C876 1.379 . S
C870 N878 1.356 . S
C871 C870 1.363 . S
C871 C877 1.363 . S
C872 C873 1.363 . S
C872 C877 1.379 . S
C872 N879 1.356 . S
C873 C872 1.363 . S
C873 C876 1.363 . S
N874 C876 1.356 . S
N874 H886 0.984 . S
N874 H887 0.985 . S
N875 C877 1.356 . S
N875 H880 0.984 . S
N875 H881 0.985 . S
C876 C870 1.379 . S
C876 C873 1.363 . S
C876 N874 1.356 . S
C877 C871 1.363 . S
C877 C872 1.379 . S
C877 N875 1.356 . S
N878 C870 1.356 . S
N878 H884 0.984 . S
N878 H885 0.984 . S
N879 C872 1.356 . S
N879 H882 0.984 . S
N879 H883 0.985 . S
H880 N875 0.984 . S
H881 N875 0.985 . S
H882 N879 0.984 . S
H883 N879 0.985 . S
H884 N878 0.984 . S
H885 N878 0.984 . S
H886 N874 0.984 . S
H887 N874 0.985 . S
C888 C889 1.363 . S
C888 C894 1.379 1_556 S
C888 N896 1.356 . S
C889 C888 1.363 . S
C889 C895 1.363 . S
C890 C891 1.363 . S
C890 C895 1.379 1_554 S
C890 N897 1.356 . S
C891 C890 1.363 . S
C891 C894 1.363 . S
N892 C894 1.356 . S
N892 H904 0.984 . S
N892 H905 0.985 . S
N893 C895 1.356 . S
N893 H898 0.984 . S
N893 H899 0.985 . S
C894 C888 1.379 1_554 S
C894 C891 1.363 . S
C894 N892 1.356 . S
C895 C889 1.363 . S
C895 C890 1.379 1_556 S
C895 N893 1.356 . S
N896 C888 1.356 . S
N896 H902 0.984 . S
N896 H903 0.984 . S
N897 C890 1.356 . S
N897 H900 0.984 . S
N897 H901 0.985 . S
H898 N893 0.984 . S
H899 N893 0.985 . S
H900 N897 0.984 . S
H901 N897 0.985 . S
H902 N896 0.984 . S
H903 N896 0.984 . S
H904 N892 0.984 . S
H905 N892 0.985 . S
C906 C907 1.363 . S
C906 C912 1.379 1_554 S
C906 N914 1.356 . S
C907 C906 1.363 . S
C907 C913 1.363 . S
C908 C909 1.363 . S
C908 C913 1.379 1_556 S
C908 N915 1.356 . S
C909 C908 1.363 . S
C909 C912 1.363 . S
N910 C912 1.356 . S
N910 H922 0.984 . S
N910 H923 0.985 . S
N911 C913 1.356 . S
N911 H916 0.984 . S
N911 H917 0.985 . S
C912 C906 1.379 1_556 S
C912 C909 1.363 . S
C912 N910 1.356 . S
C913 C907 1.363 . S
C913 C908 1.379 1_554 S
C913 N911 1.356 . S
N914 C906 1.356 . S
N914 H920 0.984 . S
N914 H921 0.984 . S
N915 C908 1.356 . S
N915 H918 0.984 . S
N915 H919 0.985 . S
H916 N911 0.984 . S
H917 N911 0.985 . S
H918 N915 0.984 . S
H919 N915 0.985 . S
H920 N914 0.984 . S
H921 N914 0.984 . S
H922 N910 0.984 . S
H923 N910 0.985 . S
C924 C925 1.363 . S
C924 C930 1.379 . S
C924 N932 1.356 . S
C925 C924 1.363 . S
C925 C931 1.363 . S
C926 C927 1.363 . S
C926 C931 1.379 . S
C926 N933 1.356 . S
C927 C926 1.363 . S
C927 C930 1.363 . S
N928 C930 1.356 . S
N928 H940 0.984 . S
N928 H941 0.985 . S
N929 C931 1.356 . S
N929 H934 0.984 . S
N929 H935 0.985 . S
C930 C924 1.379 . S
C930 C927 1.363 . S
C930 N928 1.356 . S
C931 C925 1.363 . S
C931 C926 1.379 . S
C931 N929 1.356 . S
N932 C924 1.356 . S
N932 H938 0.984 . S
N932 H939 0.984 . S
N933 C926 1.356 . S
N933 H936 0.984 . S
N933 H937 0.985 . S
H934 N929 0.984 . S
H935 N929 0.985 . S
H936 N933 0.984 . S
H937 N933 0.985 . S
H938 N932 0.984 . S
H939 N932 0.984 . S
H940 N928 0.984 . S
H941 N928 0.985 . S
C942 C943 1.363 . S
C942 C948 1.379 . S
C942 N950 1.356 . S
C943 C942 1.363 . S
C943 C949 1.363 . S
C944 C945 1.363 . S
C944 C949 1.379 . S
C944 N951 1.356 . S
C945 C944 1.363 . S
C945 C948 1.363 . S
N946 C948 1.356 . S
N946 H958 0.984 . S
N946 H959 0.985 . S
N947 C949 1.356 . S
N947 H952 0.984 . S
N947 H953 0.985 . S
C948 C942 1.379 . S
C948 C945 1.363 . S
C948 N946 1.356 . S
C949 C943 1.363 . S
C949 C944 1.379 . S
C949 N947 1.356 . S
N950 C942 1.356 . S
N950 H956 0.984 . S
N950 H957 0.984 . S
N951 C944 1.356 . S
N951 H954 0.984 . S
N951 H955 0.985 . S
H952 N947 0.984 . S
H953 N947 0.985 . S
H954 N951 0.984 . S
H955 N951 0.985 . S
H956 N950 0.984 . S
H957 N950 0.984 . S
H958 N946 0.984 . S
H959 N946 0.985 . S
C960 C961 1.363 . S
C960 C966 1.379 1_545 S
C960 N968 1.356 . S
C961 C960 1.363 . S
C961 C967 1.363 . S
C962 C963 1.363 . S
C962 C967 1.379 1_565 S
C962 N969 1.356 . S
C963 C962 1.363 . S
C963 C966 1.363 . S
N964 C966 1.356 . S
N964 H976 0.984 . S
N964 H977 0.985 . S
N965 C967 1.356 . S
N965 H970 0.984 . S
N965 H971 0.985 . S
C966 C960 1.379 1_565 S
C966 C963 1.363 . S
C966 N964 1.356 . S
C967 C961 1.363 . S
C967 C962 1.379 1_545 S
C967 N965 1.356 . S
N968 C960 1.356 . S
N968 H974 0.984 . S
N968 H975 0.984 . S
N969 C962 1.356 . S
N969 H972 0.984 . S
N969 H973 0.985 . S
H970 N965 0.984 . S
H971 N965 0.985 . S
H972 N969 0.984 . S
H973 N969 0.985 . S
H974 N968 0.984 . S
H975 N968 0.984 . S
H976 N964 0.984 . S
H977 N964 0.985 . S
C978 C979 1.363 . S
C978 C984 1.379 . S
C978 N986 1.356 . S
C979 C978 1.363 . S
C979 C985 1.363 . S
C980 C981 1.363 . S
C980 C985 1.379 . S
C980 N987 1.356 . S
C981 C980 1.363 . S
C981 C984 1.363 . S
N982 C984 1.356 . S
N982 H994 0.984 . S
N982 H995 0.985 . S
N983 C985 1.356 . S
N983 H988 0.984 . S
N983 H989 0.985 . S
C984 C978 1.379 . S
C984 C981 1.363 . S
C984 N982 1.356 . S
C985 C979 1.363 . S
C985 C980 1.379 . S
C985 N983 1.356 . S
N986 C978 1.356 . S
N986 H992 0.984 . S
N986 H993 0.984 . S
N987 C980 1.356 . S
N987 H990 0.984 . S
N987 H991 0.985 . S
H988 N983 0.984 . S
H989 N983 0.985 . S
H990 N987 0.984 . S
H991 N987 0.985 . S
H992 N986 0.984 . S
H993 N986 0.984 . S
H994 N982 0.984 . S
H995 N982 0.985 . S
C996 C997 1.363 1_545 S
C996 C1002 1.379 . S
C996 N1004 1.356 . S
C997 C996 1.363 1_565 S
C997 C1003 1.363 . S
C998 C999 1.363 1_565 S
C998 C1003 1.379 . S
C998 N1005 1.356 . S
C999 C998 1.363 1_545 S
C999 C1002 1.363 . S
N1000 C1002 1.356 . S
N1000 H1012 0.984 . S
N1000 H1013 0.985 . S
N1001 C1003 1.356 . S
N1001 H1006 0.984 . S
N1001 H1007 0.985 . S
C1002 C996 1.379 . S
C1002 C999 1.363 . S
C1002 N1000 1.356 . S
C1003 C997 1.363 . S
C1003 C998 1.379 . S
C1003 N1001 1.356 . S
N1004 C996 1.356 . S
N1004 H1010 0.984 . S
N1004 H1011 0.984 1_545 S
N1005 C998 1.356 . S
N1005 H1008 0.984 1_565 S
N1005 H1009 0.985 . S
H1006 N1001 0.984 . S
H1007 N1001 0.985 . S
H1008 N1005 0.984 1_545 S
H1009 N1005 0.985 . S
H1010 N1004 0.984 . S
H1011 N1004 0.984 1_565 S
H1012 N1000 0.984 . S
H1013 N1000 0.985 . S
C1014 C1015 1.363 . S
C1014 C1020 1.379 . S
C1014 N1022 1.356 . S
C1015 C1014 1.363 . S
C1015 C1021 1.363 . S
C1016 C1017 1.363 . S
C1016 C1021 1.379 . S
C1016 N1023 1.356 . S
C1017 C1016 1.363 . S
C1017 C1020 1.363 . S
N1018 C1020 1.356 . S
N1018 H1030 0.984 . S
N1018 H1031 0.985 . S
N1019 C1021 1.356 . S
N1019 H1024 0.984 . S
N1019 H1025 0.985 . S
C1020 C1014 1.379 . S
C1020 C1017 1.363 . S
C1020 N1018 1.356 . S
C1021 C1015 1.363 . S
C1021 C1016 1.379 . S
C1021 N1019 1.356 . S
N1022 C1014 1.356 . S
N1022 H1028 0.984 . S
N1022 H1029 0.984 . S
N1023 C1016 1.356 . S
N1023 H1026 0.984 . S
N1023 H1027 0.985 . S
H1024 N1019 0.984 . S
H1025 N1019 0.985 . S
H1026 N1023 0.984 . S
H1027 N1023 0.985 . S
H1028 N1022 0.984 . S
H1029 N1022 0.984 . S
H1030 N1018 0.984 . S
H1031 N1018 0.985 . S
C1032 C1033 1.363 . S
C1032 C1038 1.379 . S
C1032 N1040 1.356 . S
C1033 C1032 1.363 . S
C1033 C1039 1.363 . S
C1034 C1035 1.363 . S
C1034 C1039 1.379 . S
C1034 N1041 1.356 . S
C1035 C1034 1.363 . S
C1035 C1038 1.363 . S
N1036 C1038 1.356 . S
N1036 H1048 0.984 . S
N1036 H1049 0.985 . S
N1037 C1039 1.356 . S
N1037 H1042 0.984 . S
N1037 H1043 0.985 . S
C1038 C1032 1.379 . S
C1038 C1035 1.363 . S
C1038 N1036 1.356 . S
C1039 C1033 1.363 . S
C1039 C1034 1.379 . S
C1039 N1037 1.356 . S
N1040 C1032 1.356 . S
N1040 H1046 0.984 . S
N1040 H1047 0.984 . S
N1041 C1034 1.356 . S
N1041 H1044 0.984 . S
N1041 H1045 0.985 . S
H1042 N1037 0.984 . S
H1043 N1037 0.985 . S
H1044 N1041 0.984 . S
H1045 N1041 0.985 . S
H1046 N1040 0.984 . S
H1047 N1040 0.984 . S
H1048 N1036 0.984 . S
H1049 N1036 0.985 . S
C1050 C1051 1.363 . S
C1050 C1056 1.379 . S
C1050 N1058 1.356 . S
C1051 C1050 1.363 . S
C1051 C1057 1.363 1_545 S
C1052 C1053 1.363 . S
C1052 C1057 1.379 . S
C1052 N1059 1.356 . S
C1053 C1052 1.363 . S
C1053 C1056 1.363 1_565 S
N1054 C1056 1.356 1_565 S
N1054 H1066 0.984 1_565 S
N1054 H1067 0.985 . S
N1055 C1057 1.356 1_545 S
N1055 H1060 0.984 . S
N1055 H1061 0.985 1_545 S
C1056 C1050 1.379 . S
C1056 C1053 1.363 1_545 S
C1056 N1054 1.356 1_545 S
C1057 C1051 1.363 1_565 S
C1057 C1052 1.379 . S
C1057 N1055 1.356 1_565 S
N1058 C1050 1.356 . S
N1058 H1064 0.984 . S
N1058 H1065 0.984 . S
N1059 C1052 1.356 . S
N1059 H1062 0.984 . S
N1059 H1063 0.985 . S
H1060 N1055 0.984 . S
H1061 N1055 0.985 1_565 S
H1062 N1059 0.984 . S
H1063 N1059 0.985 . S
H1064 N1058 0.984 . S
H1065 N1058 0.984 . S
H1066 N1054 0.984 1_545 S
H1067 N1054 0.985 . S
C1068 C1069 1.363 . S
C1068 C1074 1.379 . S
C1068 N1076 1.356 . S
C1069 C1068 1.363 . S
C1069 C1075 1.363 . S
C1070 C1071 1.363 . S
C1070 C1075 1.379 . S
C1070 N1077 1.356 . S
C1071 C1070 1.363 . S
C1071 C1074 1.363 . S
N1072 C1074 1.356 . S
N1072 H1084 0.984 . S
N1072 H1085 0.985 . S
N1073 C1075 1.356 . S
N1073 H1078 0.984 . S
N1073 H1079 0.985 . S
C1074 C1068 1.379 . S
C1074 C1071 1.363 . S
C1074 N1072 1.356 . S
C1075 C1069 1.363 . S
C1075 C1070 1.379 . S
C1075 N1073 1.356 . S
N1076 C1068 1.356 . S
N1076 H1082 0.984 . S
N1076 H1083 0.984 . S
N1077 C1070 1.356 . S
N1077 H1080 0.984 . S
N1077 H1081 0.985 . S
H1078 N1073 0.984 . S
H1079 N1073 0.985 . S
H1080 N1077 0.984 . S
H1081 N1077 0.985 . S
H1082 N1076 0.984 . S
H1083 N1076 0.984 . S
H1084 N1072 0.984 . S
H1085 N1072 0.985 . S
C1086 C1087 1.363 . S
C1086 C1092 1.379 . S
C1086 N1094 1.356 . S
C1087 C1086 1.363 . S
C1087 C1093 1.363 1_545 S
C1088 C1089 1.363 . S
C1088 C1093 1.379 . S
C1088 N1095 1.356 . S
C1089 C1088 1.363 . S
C1089 C1092 1.363 1_565 S
N1090 C1092 1.356 . S
N1090 H1102 0.984 . S
N1090 H1103 0.985 1_545 S
N1091 C1093 1.356 . S
N1091 H1096 0.984 1_565 S
N1091 H1097 0.985 . S
C1092 C1086 1.379 . S
C1092 C1089 1.363 1_545 S
C1092 N1090 1.356 . S
C1093 C1087 1.363 1_565 S
C1093 C1088 1.379 . S
C1093 N1091 1.356 . S
N1094 C1086 1.356 . S
N1094 H1100 0.984 . S
N1094 H1101 0.984 . S
N1095 C1088 1.356 . S
N1095 H1098 0.984 . S
N1095 H1099 0.985 . S
H1096 N1091 0.984 1_545 S
H1097 N1091 0.985 . S
H1098 N1095 0.984 . S
H1099 N1095 0.985 . S
H1100 N1094 0.984 . S
H1101 N1094 0.984 . S
H1102 N1090 0.984 . S
H1103 N1090 0.985 1_565 S
C1104 C1105 1.363 . S
C1104 C1110 1.379 . S
C1104 N1112 1.356 . S
C1105 C1104 1.363 . S
C1105 C1111 1.363 . S
C1106 C1107 1.363 . S
C1106 C1111 1.379 . S
C1106 N1113 1.356 . S
C1107 C1106 1.363 . S
C1107 C1110 1.363 . S
N1108 C1110 1.356 . S
N1108 H1120 0.984 . S
N1108 H1121 0.985 . S
N1109 C1111 1.356 . S
N1109 H1114 0.984 . S
N1109 H1115 0.985 . S
C1110 C1104 1.379 . S
C1110 C1107 1.363 . S
C1110 N1108 1.356 . S
C1111 C1105 1.363 . S
C1111 C1106 1.379 . S
C1111 N1109 1.356 . S
N1112 C1104 1.356 . S
N1112 H1118 0.984 . S
N1112 H1119 0.984 . S
N1113 C1106 1.356 . S
N1113 H1116 0.984 . S
N1113 H1117 0.985 . S
H1114 N1109 0.984 . S
H1115 N1109 0.985 . S
H1116 N1113 0.984 . S
H1117 N1113 0.985 . S
H1118 N1112 0.984 . S
H1119 N1112 0.984 . S
H1120 N1108 0.984 . S
H1121 N1108 0.985 . S
C1122 C1123 1.363 . S
C1122 C1128 1.379 . S
C1122 N1130 1.356 . S
C1123 C1122 1.363 . S
C1123 C1129 1.363 . S
C1124 C1125 1.363 . S
C1124 C1129 1.379 . S
C1124 N1131 1.356 . S
C1125 C1124 1.363 . S
C1125 C1128 1.363 . S
N1126 C1128 1.356 . S
N1126 H1138 0.984 . S
N1126 H1139 0.985 . S
N1127 C1129 1.356 . S
N1127 H1132 0.984 . S
N1127 H1133 0.985 . S
C1128 C1122 1.379 . S
C1128 C1125 1.363 . S
C1128 N1126 1.356 . S
C1129 C1123 1.363 . S
C1129 C1124 1.379 . S
C1129 N1127 1.356 . S
N1130 C1122 1.356 . S
N1130 H1136 0.984 . S
N1130 H1137 0.984 . S
N1131 C1124 1.356 . S
N1131 H1134 0.984 . S
N1131 H1135 0.985 . S
H1132 N1127 0.984 . S
H1133 N1127 0.985 . S
H1134 N1131 0.984 . S
H1135 N1131 0.985 . S
H1136 N1130 0.984 . S
H1137 N1130 0.984 . S
H1138 N1126 0.984 . S
H1139 N1126 0.985 . S
C1140 C1141 1.363 . S
C1140 C1146 1.379 . S
C1140 N1148 1.356 . S
C1141 C1140 1.363 . S
C1141 C1147 1.363 . S
C1142 C1143 1.363 . S
C1142 C1147 1.379 . S
C1142 N1149 1.356 . S
C1143 C1142 1.363 . S
C1143 C1146 1.363 . S
N1144 C1146 1.356 . S
N1144 H1156 0.984 . S
N1144 H1157 0.985 . S
N1145 C1147 1.356 . S
N1145 H1150 0.984 . S
N1145 H1151 0.985 . S
C1146 C1140 1.379 . S
C1146 C1143 1.363 . S
C1146 N1144 1.356 . S
C1147 C1141 1.363 . S
C1147 C1142 1.379 . S
C1147 N1145 1.356 . S
N1148 C1140 1.356 . S
N1148 H1154 0.984 . S
N1148 H1155 0.984 . S
N1149 C1142 1.356 . S
N1149 H1152 0.984 . S
N1149 H1153 0.985 . S
H1150 N1145 0.984 . S
H1151 N1145 0.985 . S
H1152 N1149 0.984 . S
H1153 N1149 0.985 . S
H1154 N1148 0.984 . S
H1155 N1148 0.984 . S
H1156 N1144 0.984 . S
H1157 N1144 0.985 . S
C1158 C1159 1.363 . S
C1158 C1164 1.379 . S
C1158 N1166 1.356 . S
C1159 C1158 1.363 . S
C1159 C1165 1.363 . S
C1160 C1161 1.363 . S
C1160 C1165 1.379 . S
C1160 N1167 1.356 . S
C1161 C1160 1.363 . S
C1161 C1164 1.363 . S
N1162 C1164 1.356 . S
N1162 H1174 0.984 . S
N1162 H1175 0.985 . S
N1163 C1165 1.356 . S
N1163 H1168 0.984 . S
N1163 H1169 0.985 . S
C1164 C1158 1.379 . S
C1164 C1161 1.363 . S
C1164 N1162 1.356 . S
C1165 C1159 1.363 . S
C1165 C1160 1.379 . S
C1165 N1163 1.356 . S
N1166 C1158 1.356 . S
N1166 H1172 0.984 . S
N1166 H1173 0.984 . S
N1167 C1160 1.356 . S
N1167 H1170 0.984 . S
N1167 H1171 0.985 . S
H1168 N1163 0.984 . S
H1169 N1163 0.985 . S
H1170 N1167 0.984 . S
H1171 N1167 0.985 . S
H1172 N1166 0.984 . S
H1173 N1166 0.984 . S
H1174 N1162 0.984 . S
H1175 N1162 0.985 . S
C1176 C1177 1.363 . S
C1176 C1182 1.379 1_655 S
C1176 N1184 1.356 . S
C1177 C1176 1.363 . S
C1177 C1183 1.363 . S
C1178 C1179 1.363 . S
C1178 C1183 1.379 1_455 S
C1178 N1185 1.356 . S
C1179 C1178 1.363 . S
C1179 C1182 1.363 . S
N1180 C1182 1.356 . S
N1180 H1192 0.984 . S
N1180 H1193 0.985 . S
N1181 C1183 1.356 . S
N1181 H1186 0.984 . S
N1181 H1187 0.985 . S
C1182 C1176 1.379 1_455 S
C1182 C1179 1.363 . S
C1182 N1180 1.356 . S
C1183 C1177 1.363 . S
C1183 C1178 1.379 1_655 S
C1183 N1181 1.356 . S
N1184 C1176 1.356 . S
N1184 H1190 0.984 . S
N1184 H1191 0.984 . S
N1185 C1178 1.356 . S
N1185 H1188 0.984 . S
N1185 H1189 0.985 . S
H1186 N1181 0.984 . S
H1187 N1181 0.985 . S
H1188 N1185 0.984 . S
H1189 N1185 0.985 . S
H1190 N1184 0.984 . S
H1191 N1184 0.984 . S
H1192 N1180 0.984 . S
H1193 N1180 0.985 . S
C1194 C1195 1.363 . S
C1194 C1200 1.379 1_455 S
C1194 N1202 1.356 . S
C1195 C1194 1.363 . S
C1195 C1201 1.363 . S
C1196 C1197 1.363 . S
C1196 C1201 1.379 1_655 S
C1196 N1203 1.356 . S
C1197 C1196 1.363 . S
C1197 C1200 1.363 . S
N1198 C1200 1.356 . S
N1198 H1210 0.984 . S
N1198 H1211 0.985 . S
N1199 C1201 1.356 . S
N1199 H1204 0.984 . S
N1199 H1205 0.985 . S
C1200 C1194 1.379 1_655 S
C1200 C1197 1.363 . S
C1200 N1198 1.356 . S
C1201 C1195 1.363 . S
C1201 C1196 1.379 1_455 S
C1201 N1199 1.356 . S
N1202 C1194 1.356 . S
N1202 H1208 0.984 . S
N1202 H1209 0.984 . S
N1203 C1196 1.356 . S
N1203 H1206 0.984 . S
N1203 H1207 0.985 . S
H1204 N1199 0.984 . S
H1205 N1199 0.985 . S
H1206 N1203 0.984 . S
H1207 N1203 0.985 . S
H1208 N1202 0.984 . S
H1209 N1202 0.984 . S
H1210 N1198 0.984 . S
H1211 N1198 0.985 . S
C1212 C1213 1.363 . S
C1212 C1218 1.379 1_455 S
C1212 N1220 1.356 . S
C1213 C1212 1.363 . S
C1213 C1219 1.363 . S
C1214 C1215 1.363 . S
C1214 C1219 1.379 1_655 S
C1214 N1221 1.356 . S
C1215 C1214 1.363 . S
C1215 C1218 1.363 . S
N1216 C1218 1.356 . S
N1216 H1228 0.984 . S
N1216 H1229 0.985 . S
N1217 C1219 1.356 . S
N1217 H1222 0.984 . S
N1217 H1223 0.985 . S
C1218 C1212 1.379 1_655 S
C1218 C1215 1.363 . S
C1218 N1216 1.356 . S
C1219 C1213 1.363 . S
C1219 C1214 1.379 1_455 S
C1219 N1217 1.356 . S
N1220 C1212 1.356 . S
N1220 H1226 0.984 . S
N1220 H1227 0.984 . S
N1221 C1214 1.356 . S
N1221 H1224 0.984 . S
N1221 H1225 0.985 . S
H1222 N1217 0.984 . S
H1223 N1217 0.985 . S
H1224 N1221 0.984 . S
H1225 N1221 0.985 . S
H1226 N1220 0.984 . S
H1227 N1220 0.984 . S
H1228 N1216 0.984 . S
H1229 N1216 0.985 . S
C1230 C1231 1.363 . S
C1230 C1236 1.379 1_655 S
C1230 N1238 1.356 . S
C1231 C1230 1.363 . S
C1231 C1237 1.363 . S
C1232 C1233 1.363 . S
C1232 C1237 1.379 1_455 S
C1232 N1239 1.356 . S
C1233 C1232 1.363 . S
C1233 C1236 1.363 . S
N1234 C1236 1.356 . S
N1234 H1246 0.984 . S
N1234 H1247 0.985 . S
N1235 C1237 1.356 . S
N1235 H1240 0.984 . S
N1235 H1241 0.985 . S
C1236 C1230 1.379 1_455 S
C1236 C1233 1.363 . S
C1236 N1234 1.356 . S
C1237 C1231 1.363 . S
C1237 C1232 1.379 1_655 S
C1237 N1235 1.356 . S
N1238 C1230 1.356 . S
N1238 H1244 0.984 . S
N1238 H1245 0.984 . S
N1239 C1232 1.356 . S
N1239 H1242 0.984 . S
N1239 H1243 0.985 . S
H1240 N1235 0.984 . S
H1241 N1235 0.985 . S
H1242 N1239 0.984 . S
H1243 N1239 0.985 . S
H1244 N1238 0.984 . S
H1245 N1238 0.984 . S
H1246 N1234 0.984 . S
H1247 N1234 0.985 . S
C529 C18 0.983 . S
C531 C469 0.961 . S
C547 C51 0.977 . S
C549 C502 0.961 . S
C565 C84 0.983 . S
C567 C403 0.961 . S
C583 C436 0.961 . S
C585 C117 0.977 . S
C601 C150 0.983 . S
C603 C337 0.961 . S
C619 C183 0.977 . S
C621 C370 0.961 . S
C637 C216 0.983 . S
C639 C271 0.961 . S
C655 C304 0.961 . S
C657 C249 0.977 . S
C673 C282 0.977 . S
C675 C205 0.961 . S
C691 C238 0.961 . S
C693 C315 0.983 . S
C709 C348 0.977 . S
C711 C139 0.961 . S
C727 C381 0.983 . S
C729 C172 0.961 . S
C745 C414 0.977 . S
C747 C73 0.961 . S
C763 C447 0.983 . S
C765 C106 0.961 . S
C781 C7 0.961 . S
C783 C480 0.977 . S
C799 C40 0.961 . S
C801 C513 0.983 . S
C817 N2 1.630 . S
C819 N365 1.630 . S
C835 N332 1.630 . S
C837 N35 1.630 . S
C853 N68 1.630 . S
C855 N299 1.630 . S
C871 N266 1.630 . S
C873 N101 1.630 . S
C889 N134 1.630 . S
C891 N497 1.630 . S
C907 N464 1.630 . S
C909 N167 1.630 . S
C925 N200 1.630 . S
C927 N431 1.630 . S
C943 N233 1.630 . S
C945 N398 1.630 . S
C961 N13 1.833 . S
C963 N79 1.833 . S
C979 N46 1.833 . S
C981 N112 1.833 . S
C997 N145 1.833 . S
C999 N211 1.833 . S
C1015 N244 1.833 . S
C1017 N178 1.833 . S
C1033 N343 1.833 . S
C1035 N277 1.833 . S
C1051 N376 1.833 . S
C1053 N310 1.833 . S
C1069 N409 1.833 . S
C1071 N475 1.833 . S
C1087 N442 1.833 . S
C1089 N508 1.833 . S
C1105 C54 1.603 . S
C1107 C21 1.603 . S
C1123 C87 1.603 . S
C1125 C120 1.603 . S
C1141 C153 1.603 . S
C1143 C186 1.603 . S
C1159 C252 1.603 . S
C1161 C219 1.603 . S
C1177 C285 1.603 . S
C1179 C318 1.603 . S
C1195 C384 1.603 . S
C1197 C351 1.603 . S
C1213 C417 1.603 . S
C1215 C450 1.603 . S
C1231 C516 1.603 . S
C1233 C483 1.603 . S
