# Generated by pormake.
# Topology cag, (4)-cn, num edge types: 1
# Building blocks:
#     Node 0, Type 0, BuildingBlock: UXUYUI_clean_sbu_0, # of connection points: 4
#     Node 1, Type 0, BuildingBlock: UXUYUI_clean_sbu_0, # of connection points: 4
#     Node 2, Type 0, BuildingBlock: UXUYUI_clean_sbu_0, # of connection points: 4
#     Node 3, Type 0, BuildingBlock: UXUYUI_clean_sbu_0, # of connection points: 4
#     Node 4, Type 0, BuildingBlock: UXUYUI_clean_sbu_0, # of connection points: 4
#     Node 5, Type 0, BuildingBlock: UXUYUI_clean_sbu_0, # of connection points: 4
#     Node 6, Type 0, BuildingBlock: UXUYUI_clean_sbu_0, # of connection points: 4
#     Node 7, Type 0, BuildingBlock: UXUYUI_clean_sbu_0, # of connection points: 4
#     Node 8, Type 0, BuildingBlock: UXUYUI_clean_sbu_0, # of connection points: 4
#     Node 9, Type 0, BuildingBlock: UXUYUI_clean_sbu_0, # of connection points: 4
#     Node 10, Type 0, BuildingBlock: UXUYUI_clean_sbu_0, # of connection points: 4
#     Node 11, Type 0, BuildingBlock: UXUYUI_clean_sbu_0, # of connection points: 4
#     Node 12, Type 0, BuildingBlock: UXUYUI_clean_sbu_0, # of connection points: 4
#     Node 13, Type 0, BuildingBlock: UXUYUI_clean_sbu_0, # of connection points: 4
#     Node 14, Type 0, BuildingBlock: UXUYUI_clean_sbu_0, # of connection points: 4
#     Node 15, Type 0, BuildingBlock: UXUYUI_clean_sbu_0, # of connection points: 4
#     Edge 16, Type (0, 0), None
#     Edge 17, Type (0, 0), None
#     Edge 18, Type (0, 0), None
#     Edge 19, Type (0, 0), None
#     Edge 20, Type (0, 0), None
#     Edge 21, Type (0, 0), None
#     Edge 22, Type (0, 0), None
#     Edge 23, Type (0, 0), None
#     Edge 24, Type (0, 0), None
#     Edge 25, Type (0, 0), None
#     Edge 26, Type (0, 0), None
#     Edge 27, Type (0, 0), None
#     Edge 28, Type (0, 0), None
#     Edge 29, Type (0, 0), None
#     Edge 30, Type (0, 0), None
#     Edge 31, Type (0, 0), None
#     Edge 32, Type (0, 0), None
#     Edge 33, Type (0, 0), None
#     Edge 34, Type (0, 0), None
#     Edge 35, Type (0, 0), None
#     Edge 36, Type (0, 0), None
#     Edge 37, Type (0, 0), None
#     Edge 38, Type (0, 0), None
#     Edge 39, Type (0, 0), None
#     Edge 40, Type (0, 0), None
#     Edge 41, Type (0, 0), None
#     Edge 42, Type (0, 0), None
#     Edge 43, Type (0, 0), None
#     Edge 44, Type (0, 0), None
#     Edge 45, Type (0, 0), None
#     Edge 46, Type (0, 0), None
#     Edge 47, Type (0, 0), None
# Relax obj value: 0.065
# Max RMSD: 0.090
# Mean RMSD: 0.089
data_MOF--net-cag--node1-UXUYUI_clean_sbu_0--edge1-none
_symmetry_space_group_name_H-M    P1
_symmetry_Int_Tables_number       1
_symmetry_cell_setting            triclinic
loop_
_symmetry_equiv_pos_as_xyz
'x, y, z'
_cell_length_a     38.361562
_cell_length_b     45.315376
_cell_length_c     39.593306
_cell_angle_alpha  89.999622
_cell_angle_beta   90.001076
_cell_angle_gamma 89.979789
loop_
_atom_site_label
_atom_site_type_symbol
_atom_site_fract_x
_atom_site_fract_y
_atom_site_fract_z
_atom_type_partial_charge
Li0 Li 0.31626 0.16756 0.08358 0.0
Li1 Li 0.36823 0.14659 0.10574 0.0
Li2 Li 0.32366 0.11389 0.08598 0.0
Li3 Li 0.31624 0.14311 0.13905 0.0
C4 C 0.34139 0.14005 0.02596 0.0
N5 N 0.32265 0.1342 0.95891 0.0
C6 C 0.36681 0.14096 1.00072 0.0
C7 C 0.3064 0.13608 0.0171 0.0
C8 C 0.35682 0.13799 0.96696 0.0
C9 C 0.29747 0.13319 0.98306 0.0
C10 C 0.35705 0.20614 0.12034 0.0
C11 C 0.37016 0.2557 0.1385 0.0
N12 N 0.38851 0.26016 0.10955 0.0
C13 C 0.37605 0.2112 0.09076 0.0
C14 C 0.35406 0.22854 0.14441 0.0
C15 C 0.39175 0.23866 0.08578 0.0
C16 C 0.26798 0.21347 0.07192 0.0
N17 N 0.29671 0.20001 0.05898 0.0
C18 C 0.29738 0.23337 1.01214 0.0
C19 C 0.3118 0.20974 0.02992 0.0
C20 C 0.26778 0.24767 0.02491 0.0
C21 C 0.25315 0.23767 0.05533 0.0
H22 H 0.25675 0.2055 0.09526 0.0
H23 H 0.33526 0.19941 0.02059 0.0
C24 C 0.43589 0.13587 0.08318 0.0
N25 N 0.41777 0.15019 0.10766 0.0
C26 C 0.47221 0.13673 0.08286 0.0
C27 C 0.4707 0.16702 0.13311 0.0
C28 C 0.43428 0.1656 0.13242 0.0
C29 C 0.49015 0.15252 0.10799 0.0
H30 H 0.42203 0.12348 0.06408 0.0
H31 H 0.41917 0.17664 0.15173 0.0
C32 C 0.25385 0.12222 0.11059 0.0
N33 N 0.19621 0.09074 0.13179 0.0
C34 C 0.25798 0.09733 0.13106 0.0
C35 C 0.22043 0.13117 0.10101 0.0
C36 C 0.22851 0.0817 0.1415 0.0
C37 C 0.19161 0.11492 0.11192 0.0
C38 C 0.37892 0.10133 0.14477 0.0
C39 C 0.3994 0.07932 0.13001 0.0
C40 C 0.38945 0.11423 0.17516 0.0
C41 C 0.43036 0.07076 0.14581 0.0
C42 C 0.42056 0.10503 0.19019 0.0
N43 N 0.44022 0.0837 0.1753 0.0
C44 C 0.34686 0.06824 0.04595 0.0
C45 C 0.28727 0.06183 0.05947 0.0
C46 C 0.34682 0.04248 0.02672 0.0
N47 N 0.31749 0.07738 0.06202 0.0
C48 C 0.28624 0.03545 0.04107 0.0
C49 C 0.31637 0.02531 0.02435 0.0
H50 H 0.3704 0.08129 0.0478 0.0
H51 H 0.26385 0.06973 0.07149 0.0
C52 C 0.2797 0.16804 0.19422 0.0
N53 N 0.29655 0.14343 0.18332 0.0
C54 C 0.26476 0.16879 0.22644 0.0
C55 C 0.28476 0.11884 0.23552 0.0
C56 C 0.29944 0.11911 0.20324 0.0
C57 C 0.26706 0.14389 0.24753 0.0
H58 H 0.27776 0.18705 0.17778 0.0
H59 H 0.31311 0.09985 0.19401 0.0
O60 O 0.35104 0.14268 0.05911 0.0
O61 O 0.34121 0.17952 0.12586 0.0
O62 O 0.28218 0.13837 0.10076 0.0
O63 O 0.34906 0.11065 0.12921 0.0
H64 H 0.39401 0.14396 1.00717 0.0
H65 H 0.2863 0.13522 0.03619 0.0
H66 H 0.37623 0.13869 0.94716 0.0
H67 H 0.27051 0.13012 0.97585 0.0
H68 H 0.36806 0.27324 0.15691 0.0
H69 H 0.37872 0.19417 0.07183 0.0
H70 H 0.3394 0.22495 0.16742 0.0
H71 H 0.40652 0.24288 0.06301 0.0
H72 H 0.30966 0.24082 0.98902 0.0
H73 H 0.23031 0.24826 0.06591 0.0
H74 H 0.4861 0.12473 0.0634 0.0
H75 H 0.48345 0.17957 0.15282 0.0
H76 H 0.28366 0.08994 0.13845 0.0
H77 H 0.21684 0.15052 0.08534 0.0
H78 H 0.23132 0.06234 0.15726 0.0
H79 H 0.16558 0.12157 0.10466 0.0
H80 H 0.39163 0.06912 0.1065 0.0
H81 H 0.37407 0.13152 0.18671 0.0
H82 H 0.44658 0.05387 0.13459 0.0
H83 H 0.42917 0.11497 0.21358 0.0
H84 H 0.37048 0.03638 1.01358 0.0
H85 H 0.26213 0.02309 0.04036 0.0
H86 H 0.25107 0.18846 0.23453 0.0
H87 H 0.28758 0.0993 0.25104 0.0
Li88 Li 0.19389 0.90837 0.58597 0.0
Li89 Li 0.20131 0.87916 0.63904 0.0
Li90 Li 0.20127 0.85469 0.58358 0.0
Li91 Li 0.14932 0.87568 0.60574 0.0
C92 C 0.26371 0.90003 0.61056 0.0
N93 N 0.32137 0.9315 0.63171 0.0
C94 C 0.25961 0.92491 0.63104 0.0
C95 C 0.29711 0.89107 0.60094 0.0
C96 C 0.28909 0.94054 0.64146 0.0
C97 C 0.32595 0.90733 0.61183 0.0
C98 C 0.13865 0.92095 0.64476 0.0
C99 C 0.09701 0.91726 0.69018 0.0
N100 N 0.07735 0.9386 0.6753 0.0
C101 C 0.11817 0.94295 0.63 0.0
C102 C 0.12811 0.90805 0.67515 0.0
C103 C 0.08722 0.95153 0.6458 0.0
C104 C 0.17069 0.95401 0.54594 0.0
N105 N 0.20007 0.94487 0.562 0.0
C106 C 0.23132 0.9868 0.54107 0.0
C107 C 0.23029 0.96043 0.55947 0.0
C108 C 0.2012 0.99695 0.52434 0.0
C109 C 0.17074 0.97978 0.52671 0.0
H110 H 0.14716 0.94097 0.54778 0.0
H111 H 0.2537 0.95252 0.57149 0.0
C112 C 0.23788 0.85423 0.6942 0.0
N113 N 0.22102 0.87884 0.68331 0.0
C114 C 0.25283 0.85347 0.72643 0.0
C115 C 0.23281 0.90343 0.73551 0.0
C116 C 0.21812 0.90315 0.70323 0.0
C117 C 0.25052 0.87837 0.74752 0.0
H118 H 0.23983 0.83522 0.67777 0.0
H119 H 0.20445 0.9224 0.69401 0.0
C120 C 0.17615 0.8822 0.52596 0.0
N121 N 0.19487 0.88804 0.4589 0.0
C122 C 0.15071 0.88128 0.50072 0.0
C123 C 0.21113 0.88617 0.51709 0.0
C124 C 0.1607 0.88425 0.46696 0.0
C125 C 0.22006 0.88906 0.48305 0.0
C126 C 0.16049 0.81613 0.62035 0.0
C127 C 0.14148 0.81107 0.59077 0.0
C128 C 0.16347 0.79373 0.64442 0.0
C129 C 0.12576 0.78361 0.5858 0.0
C130 C 0.14736 0.76657 0.63852 0.0
N131 N 0.129 0.76212 0.60957 0.0
C132 C 0.24956 0.80878 0.57191 0.0
C133 C 0.20572 0.81251 0.52992 0.0
C134 C 0.26439 0.78459 0.55532 0.0
N135 N 0.22082 0.82224 0.55897 0.0
C136 C 0.22014 0.78888 0.51214 0.0
C137 C 0.24975 0.77459 0.5249 0.0
H138 H 0.26079 0.81676 0.59525 0.0
H139 H 0.18226 0.82284 0.5206 0.0
C140 C 0.08166 0.8864 0.58318 0.0
N141 N 0.09978 0.87209 0.60767 0.0
C142 C 0.04534 0.88556 0.58287 0.0
C143 C 0.04684 0.85528 0.63312 0.0
C144 C 0.08326 0.85669 0.63243 0.0
C145 C 0.02739 0.86977 0.608 0.0
H146 H 0.09552 0.89878 0.56408 0.0
H147 H 0.09837 0.84565 0.65174 0.0
O148 O 0.23537 0.88388 0.60074 0.0
O149 O 0.1685 0.91162 0.62921 0.0
O150 O 0.16649 0.87958 0.55911 0.0
O151 O 0.17633 0.84274 0.62586 0.0
H152 H 0.23393 0.9323 0.63846 0.0
H153 H 0.30069 0.87173 0.58526 0.0
H154 H 0.28629 0.95988 0.65723 0.0
H155 H 0.35197 0.90068 0.60453 0.0
H156 H 0.08839 0.90733 0.71358 0.0
H157 H 0.12595 0.95315 0.60649 0.0
H158 H 0.14349 0.89076 0.68671 0.0
H159 H 0.071 0.96842 0.63458 0.0
H160 H 0.25543 0.99917 0.54036 0.0
H161 H 0.14708 0.98589 0.51357 0.0
H162 H 0.26653 0.83381 0.73451 0.0
H163 H 0.22999 0.92296 0.75103 0.0
H164 H 0.12352 0.87829 0.50717 0.0
H165 H 0.23123 0.88703 0.53618 0.0
H166 H 0.14128 0.88355 0.44716 0.0
H167 H 0.24701 0.89212 0.47583 0.0
H168 H 0.13881 0.8281 0.57184 0.0
H169 H 0.17813 0.79732 0.66743 0.0
H170 H 0.11099 0.77939 0.56303 0.0
H171 H 0.14946 0.74903 0.65694 0.0
H172 H 0.28723 0.774 0.5659 0.0
H173 H 0.20787 0.78143 0.48902 0.0
H174 H 0.03145 0.89755 0.5634 0.0
H175 H 0.03408 0.84273 0.65284 0.0
Li176 Li 0.31585 0.87916 0.89019 0.0
Li177 Li 0.3234 0.90847 0.94316 0.0
Li178 Li 0.36787 0.87562 0.92344 0.0
Li179 Li 0.31589 0.85483 0.94572 0.0
C180 C 0.3786 0.92077 0.88425 0.0
N181 N 0.43988 0.93818 0.85354 0.0
C182 C 0.39906 0.94289 0.89879 0.0
C183 C 0.38915 0.90764 0.85399 0.0
C184 C 0.43001 0.95134 0.8829 0.0
C185 C 0.42025 0.91673 0.83887 0.0
C186 C 0.25357 0.90029 0.91863 0.0
C187 C 0.19136 0.90777 0.91725 0.0
N188 N 0.19606 0.93193 0.89737 0.0
C189 C 0.2578 0.92515 0.89816 0.0
C190 C 0.22011 0.89143 0.92819 0.0
C191 C 0.22839 0.94087 0.88768 0.0
C192 C 0.27918 0.85425 0.83508 0.0
N193 N 0.29612 0.87883 0.84594 0.0
C194 C 0.28441 0.90339 0.7937 0.0
C195 C 0.2991 0.90311 0.82597 0.0
C196 C 0.26661 0.87837 0.78173 0.0
C197 C 0.26423 0.8535 0.80286 0.0
H198 H 0.27718 0.83527 0.85155 0.0
H199 H 0.31283 0.92233 0.83516 0.0
C200 C 0.34677 0.95419 0.98295 0.0
N201 N 0.31733 0.94502 0.96705 0.0
C202 C 0.34681 0.97997 1.00216 0.0
C203 C 0.28614 0.98696 0.9881 0.0
C204 C 0.2871 0.96057 0.96973 0.0
C205 C 0.31634 0.99712 1.00467 0.0
H206 H 0.37031 0.94114 0.98102 0.0
H207 H 0.26363 0.95264 0.95785 0.0
C208 C 0.35651 0.81607 0.90902 0.0
N209 N 0.38786 0.762 0.91991 0.0
C210 C 0.37551 0.81101 0.9386 0.0
C211 C 0.35346 0.79364 0.88499 0.0
C212 C 0.39116 0.78352 0.94363 0.0
C213 C 0.3695 0.76645 0.89096 0.0
C214 C 0.34121 0.88242 1.00323 0.0
C215 C 0.36671 0.88157 0.0284 0.0
C216 C 0.30625 0.88645 1.01216 0.0
C217 C 0.35682 0.88466 0.06218 0.0
C218 C 0.29742 0.88945 0.04621 0.0
N219 N 0.32267 0.8885 0.07031 0.0
C220 C 0.43556 0.88653 0.94568 0.0
C221 C 0.43385 0.85615 0.89696 0.0
C222 C 0.47188 0.88563 0.94597 0.0
N223 N 0.4174 0.87192 0.92147 0.0
C224 C 0.47027 0.85463 0.89629 0.0
C225 C 0.48979 0.86943 0.92113 0.0
H226 H 0.42174 0.89919 0.96457 0.0
H227 H 0.41871 0.8449 0.87785 0.0
C228 C 0.26764 0.80896 0.95749 0.0
N229 N 0.29633 0.82246 0.97044 0.0
C230 C 0.25285 0.78476 0.97408 0.0
C231 C 0.29702 0.78914 0.01732 0.0
C232 C 0.3114 0.81278 0.99953 0.0
C233 C 0.26748 0.77479 1.00452 0.0
H234 H 0.25642 0.81689 0.93411 0.0
H235 H 0.33483 0.82313 1.00886 0.0
O236 O 0.34876 0.91156 0.8999 0.0
O237 O 0.28183 0.88405 0.92851 0.0
O238 O 0.34074 0.84271 0.90345 0.0
O239 O 0.35077 0.87969 0.97006 0.0
H240 H 0.39127 0.95327 0.92219 0.0
H241 H 0.37377 0.89026 0.8426 0.0
H242 H 0.44621 0.96832 0.89395 0.0
H243 H 0.42887 0.90662 0.81557 0.0
H244 H 0.1653 0.9012 0.92449 0.0
H245 H 0.28352 0.93246 0.89078 0.0
H246 H 0.21644 0.8721 0.94387 0.0
H247 H 0.23128 0.96021 0.87191 0.0
H248 H 0.28729 0.92289 0.77814 0.0
H249 H 0.25047 0.83386 0.79481 0.0
H250 H 0.37053 0.98608 0.01518 0.0
H251 H 0.26201 0.99932 0.98893 0.0
H252 H 0.37824 0.82807 0.95748 0.0
H253 H 0.3388 0.79722 0.86198 0.0
H254 H 0.40592 0.77931 0.9664 0.0
H255 H 0.36735 0.74888 0.87257 0.0
H256 H 0.39389 0.87855 0.02189 0.0
H257 H 0.2861 0.88725 0.99313 0.0
H258 H 0.37629 0.88402 0.08192 0.0
H259 H 0.27049 0.89256 0.05349 0.0
H260 H 0.48579 0.89788 0.96519 0.0
H261 H 0.48297 0.84177 0.8768 0.0
H262 H 0.23006 0.77412 0.96347 0.0
H263 H 0.3093 0.78171 0.04044 0.0
Li264 Li 0.20169 0.16744 0.44574 0.0
Li265 Li 0.14971 0.14665 0.42344 0.0
Li266 Li 0.19418 0.1138 0.44318 0.0
Li267 Li 0.20174 0.14311 0.39021 0.0
C268 C 0.17636 0.13985 0.50324 0.0
N269 N 0.19488 0.13378 0.57032 0.0
C270 C 0.15084 0.1407 0.52841 0.0
C271 C 0.21131 0.13582 0.51218 0.0
C272 C 0.16073 0.13762 0.56218 0.0
C273 C 0.22013 0.13282 0.54624 0.0
C274 C 0.16108 0.2062 0.40902 0.0
C275 C 0.14809 0.25582 0.39095 0.0
N276 N 0.12974 0.26028 0.41989 0.0
C277 C 0.14207 0.21127 0.43859 0.0
C278 C 0.16414 0.22863 0.38499 0.0
C279 C 0.12643 0.23875 0.44362 0.0
C280 C 0.24995 0.21331 0.45751 0.0
N281 N 0.22125 0.19981 0.47046 0.0
C282 C 0.22054 0.23314 0.51733 0.0
C283 C 0.20617 0.2095 0.49954 0.0
C284 C 0.25009 0.24748 0.50454 0.0
C285 C 0.26473 0.23751 0.47411 0.0
H286 H 0.26117 0.20537 0.43414 0.0
H287 H 0.18273 0.19915 0.50887 0.0
C288 C 0.08201 0.13574 0.44566 0.0
N289 N 0.10019 0.15036 0.42146 0.0
C290 C 0.04569 0.13665 0.44594 0.0
C291 C 0.04731 0.16766 0.39629 0.0
C292 C 0.08373 0.16614 0.39696 0.0
C293 C 0.0278 0.15286 0.42111 0.0
H294 H 0.09583 0.12307 0.46455 0.0
H295 H 0.09888 0.1774 0.37786 0.0
C296 C 0.26402 0.12199 0.41868 0.0
N297 N 0.32155 0.09034 0.39746 0.0
C298 C 0.25981 0.09713 0.39818 0.0
C299 C 0.29746 0.13083 0.42828 0.0
C300 C 0.28922 0.08141 0.38773 0.0
C301 C 0.32623 0.11449 0.41735 0.0
C302 C 0.13899 0.1015 0.38426 0.0
C303 C 0.11853 0.07937 0.39879 0.0
C304 C 0.12844 0.11463 0.354 0.0
C305 C 0.08758 0.07092 0.38291 0.0
C306 C 0.09734 0.10554 0.33888 0.0
N307 N 0.0777 0.08408 0.35355 0.0
C308 C 0.17079 0.06809 0.48297 0.0
C309 C 0.23047 0.0617 0.46974 0.0
C310 C 0.17076 0.0423 0.50217 0.0
N311 N 0.20024 0.07725 0.46707 0.0
C312 C 0.23143 0.0353 0.48811 0.0
C313 C 0.20123 0.02514 0.50467 0.0
H314 H 0.14726 0.08113 0.48104 0.0
H315 H 0.25394 0.06962 0.45786 0.0
C316 C 0.23842 0.16801 0.3351 0.0
N317 N 0.22147 0.14344 0.34596 0.0
C318 C 0.25337 0.16876 0.30288 0.0
C319 C 0.23317 0.11888 0.29371 0.0
C320 C 0.21849 0.11916 0.32599 0.0
C321 C 0.25098 0.1439 0.28175 0.0
H322 H 0.24044 0.18699 0.35157 0.0
H323 H 0.20474 0.09994 0.33518 0.0
O324 O 0.1668 0.14259 0.47007 0.0
O325 O 0.17685 0.17956 0.40345 0.0
O326 O 0.23575 0.13822 0.42853 0.0
O327 O 0.16883 0.11071 0.39991 0.0
H328 H 0.12367 0.14373 0.52188 0.0
H329 H 0.23147 0.13502 0.49315 0.0
H330 H 0.14125 0.13827 0.58192 0.0
H331 H 0.24706 0.12971 0.55352 0.0
H332 H 0.15025 0.27339 0.37256 0.0
H333 H 0.13934 0.19421 0.45748 0.0
H334 H 0.1788 0.22505 0.36199 0.0
H335 H 0.11166 0.24297 0.46639 0.0
H336 H 0.20826 0.24057 0.54045 0.0
H337 H 0.28753 0.24814 0.4635 0.0
H338 H 0.03178 0.12439 0.46516 0.0
H339 H 0.03462 0.18054 0.3768 0.0
H340 H 0.23409 0.08983 0.39078 0.0
H341 H 0.30113 0.15015 0.44397 0.0
H342 H 0.28634 0.06208 0.37194 0.0
H343 H 0.35228 0.12105 0.42463 0.0
H344 H 0.12632 0.06899 0.4222 0.0
H345 H 0.14381 0.13201 0.34262 0.0
H346 H 0.07138 0.05394 0.39396 0.0
H347 H 0.08871 0.11566 0.31559 0.0
H348 H 0.14704 0.03618 0.51519 0.0
H349 H 0.25555 0.02294 0.48893 0.0
H350 H 0.26714 0.18839 0.29484 0.0
H351 H 0.23028 0.09938 0.27815 0.0
Li352 Li 0.69746 0.90771 0.94553 0.0
Li353 Li 0.70443 0.85354 0.94813 0.0
Li354 Li 0.70388 0.88034 0.8916 0.0
Li355 Li 0.6506 0.87372 0.92511 0.0
C356 C 0.76959 0.89541 0.93661 0.0
N357 N 0.83435 0.91934 0.95018 0.0
C358 C 0.78784 0.88701 0.96562 0.0
C359 C 0.78455 0.91562 0.91422 0.0
C360 C 0.82048 0.89946 0.97211 0.0
C361 C 0.81723 0.92757 0.92161 0.0
C362 C 0.66671 0.86963 1.00409 0.0
C363 C 0.64936 0.83334 0.04538 0.0
N364 N 0.66183 0.851 0.07039 0.0
C365 C 0.6792 0.88748 0.03022 0.0
C366 C 0.6515 0.8424 1.01172 0.0
C367 C 0.67653 0.87765 0.06357 0.0
C368 C 0.67598 0.96289 0.96732 0.0
N369 N 0.70385 0.94441 0.96866 0.0
C370 C 0.73398 0.97779 1.00532 0.0
C371 C 0.73261 0.95133 0.98714 0.0
C372 C 0.70535 0.99715 1.00469 0.0
C373 C 0.67621 0.98949 0.98505 0.0
H374 H 0.65325 0.95671 0.95279 0.0
H375 H 0.75411 0.93609 0.98865 0.0
C376 C 0.72918 0.79532 0.95599 0.0
N377 N 0.72477 0.82129 0.97266 0.0
C378 C 0.74342 0.7709 0.97258 0.0
C379 C 0.74799 0.80024 0.02335 0.0
C380 C 0.73443 0.82426 1.00557 0.0
C381 C 0.75265 0.77319 1.00678 0.0
H382 H 0.72164 0.79358 0.92974 0.0
H383 H 0.73173 0.84528 0.01812 0.0
C384 C 0.66967 0.93431 0.88284 0.0
N385 N 0.67252 0.98257 0.84029 0.0
C386 C 0.64186 0.94047 0.86115 0.0
C387 C 0.69874 0.95285 0.88315 0.0
C388 C 0.64385 0.96492 0.83974 0.0
C389 C 0.69974 0.9771 0.8614 0.0
C390 C 0.65633 0.82338 0.8929 0.0
C391 C 0.64613 0.8246 0.85905 0.0
C392 C 0.64094 0.80279 0.91452 0.0
C393 C 0.62026 0.80541 0.84747 0.0
C394 C 0.61515 0.78399 0.90199 0.0
N395 N 0.60541 0.7857 0.86901 0.0
C396 C 0.75687 0.87326 0.84239 0.0
C397 C 0.70264 0.88914 0.82033 0.0
C398 C 0.7716 0.87337 0.81008 0.0
N399 N 0.72303 0.88126 0.84693 0.0
C400 C 0.71628 0.88957 0.78759 0.0
C401 C 0.75126 0.88161 0.78206 0.0
H402 H 0.77238 0.86658 0.86388 0.0
H403 H 0.67563 0.89486 0.82445 0.0
C404 C 0.58309 0.86717 0.95206 0.0
N405 N 0.60105 0.86958 0.92262 0.0
C406 C 0.54677 0.8663 0.95199 0.0
C407 C 0.54777 0.87031 0.89116 0.0
C408 C 0.58422 0.87108 0.89243 0.0
C409 C 0.52854 0.86828 0.92131 0.0
H410 H 0.59688 0.86665 0.97577 0.0
H411 H 0.59906 0.87356 0.86939 0.0
O412 O 0.73773 0.88324 0.92974 0.0
O413 O 0.66916 0.87891 0.97128 0.0
O414 O 0.66821 0.91032 0.90378 0.0
O415 O 0.68114 0.84234 0.90485 0.0
H416 H 0.77683 0.87127 0.98308 0.0
H417 H 0.77125 0.92185 0.89122 0.0
H418 H 0.83476 0.89332 0.99459 0.0
H419 H 0.82905 0.94331 0.90455 0.0
H420 H 0.63782 0.81226 0.05162 0.0
H421 H 0.69089 0.90867 0.02485 0.0
H422 H 0.64163 0.82834 0.99186 0.0
H423 H 0.68619 0.8912 0.08402 0.0
H424 H 0.75677 0.98258 0.02048 0.0
H425 H 0.65374 1.00388 0.98341 0.0
H426 H 0.74678 0.75034 0.959 0.0
H427 H 0.75537 0.8029 0.04958 0.0
H428 H 0.61906 0.92643 0.86073 0.0
H429 H 0.72016 0.94871 0.90019 0.0
H430 H 0.6226 0.96987 0.8227 0.0
H431 H 0.72212 0.99162 0.86136 0.0
H432 H 0.65784 0.84037 0.84198 0.0
H433 H 0.64881 0.80138 0.94069 0.0
H434 H 0.61194 0.80623 0.82138 0.0
H435 H 0.60289 0.76804 0.91848 0.0
H436 H 0.79847 0.86654 0.80705 0.0
H437 H 0.69964 0.8963 0.76689 0.0
H438 H 0.53311 0.86437 0.97582 0.0
H439 H 0.53482 0.87229 0.86696 0.0
Li440 Li 0.81315 0.16874 0.44811 0.0
Li441 Li 0.82013 0.11458 0.44552 0.0
Li442 Li 0.86699 0.14857 0.42509 0.0
Li443 Li 0.8137 0.14194 0.39159 0.0
C444 C 0.85091 0.15269 0.50406 0.0
N445 N 0.85584 0.17138 0.57034 0.0
C446 C 0.83846 0.13485 0.53022 0.0
C447 C 0.8661 0.17994 0.51165 0.0
C448 C 0.84115 0.14471 0.56356 0.0
C449 C 0.86827 0.18902 0.5453 0.0
C450 C 0.74801 0.12683 0.4366 0.0
C451 C 0.70042 0.09461 0.4216 0.0
N452 N 0.68328 0.10284 0.45016 0.0
C453 C 0.72973 0.13523 0.46559 0.0
C454 C 0.73309 0.1066 0.41421 0.0
C455 C 0.69712 0.12276 0.47208 0.0
C456 C 0.78836 0.22696 0.45597 0.0
N457 N 0.79279 0.20098 0.47264 0.0
C458 C 0.76957 0.22203 0.52333 0.0
C459 C 0.78313 0.19801 0.50555 0.0
C460 C 0.76489 0.24907 0.50677 0.0
C461 C 0.77411 0.25137 0.47257 0.0
H462 H 0.7959 0.2287 0.42972 0.0
H463 H 0.78585 0.17699 0.51809 0.0
C464 C 0.84154 0.05932 0.46721 0.0
N465 N 0.81374 0.07787 0.46866 0.0
C466 C 0.84129 0.03272 0.48494 0.0
C467 C 0.78367 0.04459 0.50546 0.0
C468 C 0.78505 0.07103 0.48727 0.0
C469 C 0.81222 0.02515 0.50471 0.0
H470 H 0.86423 0.06545 0.45258 0.0
H471 H 0.76362 0.08634 0.48889 0.0
C472 C 0.86122 0.19892 0.39286 0.0
N473 N 0.91209 0.23663 0.36895 0.0
C474 C 0.87141 0.19769 0.35901 0.0
C475 C 0.87658 0.21953 0.41447 0.0
C476 C 0.89726 0.2169 0.34742 0.0
C477 C 0.90235 0.23835 0.40192 0.0
C478 C 0.84796 0.088 0.3828 0.0
C479 C 0.87578 0.08188 0.36111 0.0
C480 C 0.81892 0.06942 0.38309 0.0
C481 C 0.87382 0.05745 0.33966 0.0
C482 C 0.81795 0.04519 0.36131 0.0
N483 N 0.84517 0.03977 0.34019 0.0
C484 C 0.93449 0.15511 0.45205 0.0
C485 C 0.93337 0.15125 0.39241 0.0
C486 C 0.97081 0.15598 0.45198 0.0
N487 N 0.91653 0.15273 0.4226 0.0
C488 C 0.96982 0.15201 0.39114 0.0
C489 C 0.98904 0.15402 0.42129 0.0
H490 H 0.92071 0.15561 0.47576 0.0
H491 H 0.91853 0.14878 0.36936 0.0
C492 C 0.7607 0.14899 0.34238 0.0
N493 N 0.79454 0.14101 0.34692 0.0
C494 C 0.74596 0.14888 0.31007 0.0
C495 C 0.80129 0.1327 0.28757 0.0
C496 C 0.81494 0.13314 0.32031 0.0
C497 C 0.76631 0.14065 0.28204 0.0
H498 H 0.74519 0.15566 0.36387 0.0
H499 H 0.84195 0.12744 0.32443 0.0
O500 O 0.84842 0.14339 0.47127 0.0
O501 O 0.77986 0.13903 0.42972 0.0
O502 O 0.83643 0.17994 0.40483 0.0
O503 O 0.84938 0.11196 0.40377 0.0
H504 H 0.82678 0.11366 0.52488 0.0
H505 H 0.87594 0.19399 0.49176 0.0
H506 H 0.83153 0.13117 0.58403 0.0
H507 H 0.8798 0.21012 0.5515 0.0
H508 H 0.68863 0.07885 0.40456 0.0
H509 H 0.74072 0.151 0.48304 0.0
H510 H 0.7464 0.10037 0.39123 0.0
H511 H 0.68281 0.1289 0.49455 0.0
H512 H 0.7622 0.21935 0.54957 0.0
H513 H 0.77074 0.27193 0.45899 0.0
H514 H 0.86371 0.01827 0.4832 0.0
H515 H 0.76093 0.03986 0.52073 0.0
H516 H 0.85972 0.1819 0.34196 0.0
H517 H 0.86871 0.22095 0.44064 0.0
H518 H 0.90558 0.21607 0.32133 0.0
H519 H 0.91458 0.25433 0.4184 0.0
H520 H 0.89856 0.09595 0.3607 0.0
H521 H 0.79749 0.07352 0.40014 0.0
H522 H 0.89508 0.05254 0.32261 0.0
H523 H 0.79559 0.03065 0.36125 0.0
H524 H 0.98448 0.15789 0.47581 0.0
H525 H 0.98277 0.15005 0.36694 0.0
H526 H 0.71909 0.1557 0.30705 0.0
H527 H 0.81794 0.12599 0.26687 0.0
Li528 Li 0.65095 0.14822 0.10394 0.0
Li529 Li 0.7041 0.14186 0.1377 0.0
Li530 Li 0.70464 0.16856 0.08105 0.0
Li531 Li 0.6979 0.1144 0.08381 0.0
C532 C 0.65603 0.19835 0.13623 0.0
N533 N 0.60424 0.23518 0.16011 0.0
C534 C 0.64584 0.19692 0.17007 0.0
C535 C 0.64018 0.21869 0.11461 0.0
C536 C 0.61953 0.21569 0.18165 0.0
C537 C 0.61396 0.23707 0.12714 0.0
C538 C 0.67089 0.08715 0.14542 0.0
C539 C 0.70283 0.04487 0.16567 0.0
N540 N 0.67544 0.03761 0.18585 0.0
C541 C 0.64296 0.07918 0.16617 0.0
C542 C 0.70099 0.0698 0.14501 0.0
C543 C 0.64581 0.0541 0.1865 0.0
C544 C 0.58343 0.15538 0.07706 0.0
N545 N 0.60139 0.15224 0.10641 0.0
C546 C 0.54814 0.15079 0.13787 0.0
C547 C 0.58459 0.14999 0.13655 0.0
C548 C 0.5289 0.1536 0.10781 0.0
C549 C 0.5471 0.15627 0.07718 0.0
H550 H 0.59721 0.1565 0.05338 0.0
H551 H 0.59945 0.14691 0.15949 0.0
C552 C 0.75644 0.15035 0.18718 0.0
N553 N 0.72311 0.14106 0.18239 0.0
C554 C 0.77113 0.15027 0.2195 0.0
C555 C 0.71679 0.13144 0.24152 0.0
C556 C 0.70316 0.1319 0.20877 0.0
C557 C 0.75128 0.14069 0.24729 0.0
H558 H 0.77158 0.15799 0.16586 0.0
H559 H 0.67653 0.12513 0.20445 0.0
C560 C 0.66753 0.15196 0.0249 0.0
N561 N 0.66339 0.16986 0.9583 0.0
C562 C 0.6805 0.13389 0.99919 0.0
C563 C 0.65226 0.17906 0.01671 0.0
C564 C 0.67819 0.14335 0.96568 0.0
C565 C 0.65049 0.18774 0.9829 0.0
C566 C 0.77023 0.12751 0.09273 0.0
C567 C 0.7876 0.13542 0.06305 0.0
C568 C 0.7864 0.1085 0.11571 0.0
C569 C 0.82064 0.12375 0.05655 0.0
C570 C 0.81945 0.09728 0.10829 0.0
N571 N 0.83573 0.10505 0.0791 0.0
C572 C 0.72912 0.22686 0.07331 0.0
C573 C 0.73452 0.19807 0.02363 0.0
C574 C 0.74323 0.25137 0.05679 0.0
N575 N 0.72486 0.20091 0.05656 0.0
C576 C 0.74795 0.22217 1.00593 0.0
C577 C 0.75247 0.24919 0.02259 0.0
H578 H 0.72155 0.22852 0.09955 0.0
H579 H 0.73191 0.17709 1.01099 0.0
C580 C 0.67504 0.06072 0.05944 0.0
N581 N 0.70426 0.07761 0.06085 0.0
C582 C 0.67502 0.03416 0.04163 0.0
C583 C 0.73538 0.04255 0.02714 0.0
C584 C 0.73421 0.06903 0.04526 0.0
C585 C 0.70537 0.02486 0.02485 0.0
H586 H 0.65151 0.06816 0.07187 0.0
H587 H 0.75699 0.08289 0.04613 0.0
O588 O 0.68123 0.17976 0.12426 0.0
O589 O 0.66858 0.11177 0.12557 0.0
O590 O 0.66958 0.14304 0.05786 0.0
O591 O 0.738 0.13897 0.09965 0.0
H592 H 0.65789 0.1813 0.18711 0.0
H593 H 0.64799 0.2202 0.08842 0.0
H594 H 0.61121 0.21472 0.20773 0.0
H595 H 0.60133 0.25283 0.11066 0.0
H596 H 0.726 0.03126 0.16562 0.0
H597 H 0.61941 0.09233 0.16667 0.0
H598 H 0.72259 0.07542 0.12876 0.0
H599 H 0.62447 0.04774 0.2028 0.0
H600 H 0.53519 0.14826 0.162 0.0
H601 H 0.5334 0.15878 0.05344 0.0
H602 H 0.79758 0.15812 0.22272 0.0
H603 H 0.70054 0.12367 0.26203 0.0
H604 H 0.69232 0.11284 1.005 0.0
H605 H 0.64213 0.19334 0.03626 0.0
H606 H 0.6882 0.12962 0.94553 0.0
H607 H 0.6389 0.20871 0.97622 0.0
H608 H 0.7756 0.15017 0.04507 0.0
H609 H 0.77372 0.10257 0.13914 0.0
H610 H 0.83426 0.12954 0.03357 0.0
H611 H 0.83221 0.08247 0.1258 0.0
H612 H 0.74648 0.27191 0.07043 0.0
H613 H 0.75533 0.21959 0.97969 0.0
H614 H 0.65143 0.02106 0.04104 0.0
H615 H 0.75923 0.03641 1.0143 0.0
Li616 Li 0.81344 0.88042 0.63771 0.0
Li617 Li 0.86659 0.87408 0.60395 0.0
Li618 Li 0.81964 0.90789 0.58383 0.0
Li619 Li 0.8129 0.85373 0.58105 0.0
C620 C 0.84658 0.93516 0.64542 0.0
N621 N 0.84191 0.98472 0.68579 0.0
C622 C 0.8745 0.9432 0.66614 0.0
C623 C 0.81643 0.95244 0.645 0.0
C624 C 0.87159 0.9683 0.68644 0.0
C625 C 0.81453 0.97739 0.66563 0.0
C626 C 0.86153 0.82395 0.6362 0.0
C627 C 0.90362 0.78524 0.62708 0.0
N628 N 0.91335 0.78711 0.66005 0.0
C629 C 0.87175 0.82537 0.67004 0.0
C630 C 0.87738 0.80362 0.61456 0.0
C631 C 0.89807 0.80659 0.68159 0.0
C632 C 0.76112 0.87191 0.68719 0.0
N633 N 0.79444 0.88121 0.6824 0.0
C634 C 0.80077 0.89083 0.74153 0.0
C635 C 0.81439 0.89038 0.70878 0.0
C636 C 0.76629 0.88157 0.7473 0.0
C637 C 0.74643 0.87199 0.71952 0.0
H638 H 0.74598 0.86426 0.66588 0.0
H639 H 0.84102 0.89716 0.70445 0.0
C640 C 0.93412 0.86691 0.57707 0.0
N641 N 0.91615 0.87007 0.60641 0.0
C642 C 0.97044 0.86602 0.5772 0.0
C643 C 0.9694 0.87153 0.63788 0.0
C644 C 0.93296 0.87234 0.63655 0.0
C645 C 0.98864 0.86871 0.60782 0.0
H646 H 0.92034 0.86579 0.55339 0.0
H647 H 0.91809 0.87543 0.65949 0.0
C648 C 0.74731 0.89474 0.5927 0.0
N649 N 0.68179 0.91713 0.57899 0.0
C650 C 0.73002 0.88686 0.56297 0.0
C651 C 0.73104 0.91369 0.61569 0.0
C652 C 0.69697 0.8985 0.55643 0.0
C653 C 0.69799 0.92488 0.60823 0.0
C654 C 0.85001 0.87037 0.5249 0.0
C655 C 0.83701 0.88845 0.49921 0.0
C656 C 0.86529 0.84329 0.51668 0.0
C657 C 0.83932 0.87902 0.46569 0.0
C658 C 0.86706 0.83464 0.48286 0.0
N659 N 0.85414 0.85253 0.45828 0.0
C660 C 0.84256 0.96149 0.55932 0.0
C661 C 0.78328 0.95336 0.54544 0.0
C662 C 0.84259 0.98805 0.54151 0.0
N663 N 0.81328 0.94469 0.56088 0.0
C664 C 0.78213 0.97984 0.52732 0.0
C665 C 0.81219 0.99744 0.52487 0.0
H666 H 0.86612 0.95399 0.57164 0.0
H667 H 0.76044 0.93958 0.54645 0.0
C668 C 0.78841 0.79544 0.57332 0.0
N669 N 0.7927 0.82138 0.55656 0.0
C670 C 0.7743 0.77092 0.55681 0.0
C671 C 0.76964 0.80009 0.50593 0.0
C672 C 0.78307 0.82421 0.52362 0.0
C673 C 0.76509 0.77308 0.5226 0.0
H674 H 0.79595 0.79379 0.59958 0.0
H675 H 0.7857 0.84517 0.51096 0.0
O676 O 0.84896 0.91052 0.6256 0.0
O677 O 0.83632 0.84253 0.62426 0.0
O678 O 0.77954 0.88331 0.59966 0.0
O679 O 0.84796 0.87927 0.55787 0.0
H680 H 0.89809 0.9301 0.66665 0.0
H681 H 0.79484 0.94676 0.62877 0.0
H682 H 0.89293 0.97472 0.70272 0.0
H683 H 0.79132 0.99094 0.66558 0.0
H684 H 0.91624 0.76949 0.61058 0.0
H685 H 0.8597 0.84098 0.6871 0.0
H686 H 0.86955 0.80211 0.58838 0.0
H687 H 0.90641 0.80756 0.70767 0.0
H688 H 0.81701 0.89861 0.76204 0.0
H689 H 0.71998 0.86413 0.72275 0.0
H690 H 0.98414 0.8635 0.55345 0.0
H691 H 0.98235 0.87407 0.66201 0.0
H692 H 0.74209 0.87216 0.54498 0.0
H693 H 0.74367 0.9196 0.63915 0.0
H694 H 0.68341 0.89273 0.5334 0.0
H695 H 0.68516 0.93964 0.62574 0.0
H696 H 0.82517 0.9095 0.50505 0.0
H697 H 0.87543 0.829 0.53622 0.0
H698 H 0.82929 0.89276 0.44556 0.0
H699 H 0.87865 0.81367 0.47616 0.0
H700 H 0.86623 1.00109 0.5408 0.0
H701 H 0.75823 0.98605 0.5146 0.0
H702 H 0.77103 0.7504 0.57047 0.0
H703 H 0.76229 0.80266 0.47967 0.0
Li704 Li 0.81626 0.66756 0.08358 0.0
Li705 Li 0.86823 0.64659 0.10574 0.0
Li706 Li 0.82366 0.61389 0.08598 0.0
Li707 Li 0.81624 0.64311 0.13905 0.0
C708 C 0.84139 0.64005 0.02596 0.0
N709 N 0.82265 0.6342 0.95891 0.0
C710 C 0.86681 0.64096 1.00072 0.0
C711 C 0.8064 0.63608 0.0171 0.0
C712 C 0.85682 0.63799 0.96696 0.0
C713 C 0.79747 0.63319 0.98306 0.0
C714 C 0.85705 0.70614 0.12034 0.0
C715 C 0.87016 0.7557 0.1385 0.0
N716 N 0.88851 0.76016 0.10955 0.0
C717 C 0.87605 0.7112 0.09076 0.0
C718 C 0.85406 0.72854 0.14441 0.0
C719 C 0.89175 0.73866 0.08578 0.0
C720 C 0.76798 0.71347 0.07192 0.0
N721 N 0.79671 0.70001 0.05898 0.0
C722 C 0.79738 0.73337 1.01214 0.0
C723 C 0.8118 0.70974 0.02992 0.0
C724 C 0.76778 0.74767 0.02491 0.0
C725 C 0.75315 0.73767 0.05533 0.0
H726 H 0.75675 0.7055 0.09526 0.0
H727 H 0.83526 0.69941 0.02059 0.0
C728 C 0.93589 0.63587 0.08318 0.0
N729 N 0.91777 0.65019 0.10766 0.0
C730 C 0.97221 0.63673 0.08286 0.0
C731 C 0.9707 0.66702 0.13311 0.0
C732 C 0.93428 0.6656 0.13242 0.0
C733 C 0.99015 0.65252 0.10799 0.0
H734 H 0.92203 0.62349 0.06408 0.0
H735 H 0.91917 0.67664 0.15173 0.0
C736 C 0.75385 0.62222 0.11059 0.0
N737 N 0.69621 0.59074 0.13179 0.0
C738 C 0.75798 0.59733 0.13106 0.0
C739 C 0.72043 0.63117 0.10101 0.0
C740 C 0.72851 0.5817 0.1415 0.0
C741 C 0.69161 0.61492 0.11192 0.0
C742 C 0.87892 0.60133 0.14477 0.0
C743 C 0.8994 0.57932 0.13001 0.0
C744 C 0.88945 0.61423 0.17516 0.0
C745 C 0.93036 0.57076 0.14581 0.0
C746 C 0.92056 0.60503 0.19019 0.0
N747 N 0.94022 0.58369 0.1753 0.0
C748 C 0.84686 0.56824 0.04595 0.0
C749 C 0.78727 0.56183 0.05947 0.0
C750 C 0.84682 0.54248 0.02672 0.0
N751 N 0.81749 0.57738 0.06202 0.0
C752 C 0.78624 0.53545 0.04107 0.0
C753 C 0.81637 0.52531 0.02435 0.0
H754 H 0.8704 0.58129 0.0478 0.0
H755 H 0.76385 0.56973 0.07149 0.0
C756 C 0.7797 0.66804 0.19422 0.0
N757 N 0.79655 0.64343 0.18332 0.0
C758 C 0.76476 0.66879 0.22644 0.0
C759 C 0.78476 0.61883 0.23552 0.0
C760 C 0.79944 0.61911 0.20324 0.0
C761 C 0.76706 0.64389 0.24753 0.0
H762 H 0.77776 0.68705 0.17778 0.0
H763 H 0.81311 0.59985 0.19401 0.0
O764 O 0.85104 0.64267 0.05911 0.0
O765 O 0.84121 0.67952 0.12586 0.0
O766 O 0.78218 0.63837 0.10076 0.0
O767 O 0.84906 0.61065 0.12921 0.0
H768 H 0.89401 0.64396 1.00717 0.0
H769 H 0.7863 0.63522 0.03619 0.0
H770 H 0.87623 0.63869 0.94716 0.0
H771 H 0.77052 0.63012 0.97585 0.0
H772 H 0.86806 0.77324 0.15691 0.0
H773 H 0.87872 0.69417 0.07183 0.0
H774 H 0.8394 0.72495 0.16742 0.0
H775 H 0.90652 0.74288 0.06301 0.0
H776 H 0.80966 0.74082 0.98902 0.0
H777 H 0.73031 0.74826 0.06591 0.0
H778 H 0.9861 0.62473 0.0634 0.0
H779 H 0.98345 0.67957 0.15282 0.0
H780 H 0.78366 0.58994 0.13845 0.0
H781 H 0.71684 0.65052 0.08534 0.0
H782 H 0.73132 0.56234 0.15726 0.0
H783 H 0.66558 0.62157 0.10466 0.0
H784 H 0.89163 0.56912 0.1065 0.0
H785 H 0.87407 0.63152 0.18672 0.0
H786 H 0.94658 0.55387 0.13459 0.0
H787 H 0.92918 0.61497 0.21358 0.0
H788 H 0.87048 0.53638 1.01358 0.0
H789 H 0.76213 0.52309 0.04036 0.0
H790 H 0.75107 0.68846 0.23453 0.0
H791 H 0.78758 0.5993 0.25104 0.0
Li792 Li 0.69389 0.40837 0.58597 0.0
Li793 Li 0.70131 0.37916 0.63904 0.0
Li794 Li 0.70127 0.35469 0.58358 0.0
Li795 Li 0.64932 0.37568 0.60574 0.0
C796 C 0.76371 0.40003 0.61056 0.0
N797 N 0.82137 0.4315 0.63171 0.0
C798 C 0.75961 0.42491 0.63104 0.0
C799 C 0.79711 0.39107 0.60094 0.0
C800 C 0.78909 0.44054 0.64146 0.0
C801 C 0.82595 0.40732 0.61183 0.0
C802 C 0.63865 0.42095 0.64476 0.0
C803 C 0.59701 0.41726 0.69018 0.0
N804 N 0.57735 0.4386 0.6753 0.0
C805 C 0.61817 0.44295 0.63 0.0
C806 C 0.62811 0.40805 0.67515 0.0
C807 C 0.58722 0.45153 0.6458 0.0
C808 C 0.67069 0.45401 0.54594 0.0
N809 N 0.70007 0.44487 0.562 0.0
C810 C 0.73132 0.4868 0.54107 0.0
C811 C 0.73029 0.46043 0.55947 0.0
C812 C 0.7012 0.49695 0.52434 0.0
C813 C 0.67074 0.47978 0.52671 0.0
H814 H 0.64716 0.44097 0.54778 0.0
H815 H 0.7537 0.45252 0.57149 0.0
C816 C 0.73788 0.35423 0.6942 0.0
N817 N 0.72102 0.37884 0.68331 0.0
C818 C 0.75283 0.35347 0.72643 0.0
C819 C 0.73281 0.40343 0.73551 0.0
C820 C 0.71812 0.40315 0.70323 0.0
C821 C 0.75052 0.37837 0.74752 0.0
H822 H 0.73983 0.33522 0.67777 0.0
H823 H 0.70445 0.4224 0.69401 0.0
C824 C 0.67615 0.3822 0.52596 0.0
N825 N 0.69487 0.38804 0.4589 0.0
C826 C 0.65071 0.38128 0.50072 0.0
C827 C 0.71113 0.38617 0.51709 0.0
C828 C 0.6607 0.38425 0.46696 0.0
C829 C 0.72006 0.38906 0.48305 0.0
C830 C 0.66049 0.31613 0.62035 0.0
C831 C 0.64148 0.31107 0.59077 0.0
C832 C 0.66347 0.29373 0.64442 0.0
C833 C 0.62576 0.28361 0.5858 0.0
C834 C 0.64736 0.26657 0.63852 0.0
N835 N 0.629 0.26212 0.60957 0.0
C836 C 0.74956 0.30878 0.57191 0.0
C837 C 0.70572 0.31251 0.52992 0.0
C838 C 0.76439 0.28459 0.55532 0.0
N839 N 0.72082 0.32224 0.55897 0.0
C840 C 0.72014 0.28888 0.51214 0.0
C841 C 0.74975 0.27459 0.5249 0.0
H842 H 0.76079 0.31676 0.59525 0.0
H843 H 0.68226 0.32284 0.5206 0.0
C844 C 0.58166 0.3864 0.58318 0.0
N845 N 0.59978 0.37209 0.60767 0.0
C846 C 0.54534 0.38556 0.58287 0.0
C847 C 0.54684 0.35528 0.63312 0.0
C848 C 0.58326 0.35669 0.63243 0.0
C849 C 0.52739 0.36977 0.608 0.0
H850 H 0.59552 0.39878 0.56408 0.0
H851 H 0.59837 0.34565 0.65174 0.0
O852 O 0.73537 0.38388 0.60074 0.0
O853 O 0.6685 0.41161 0.62921 0.0
O854 O 0.66649 0.37958 0.55911 0.0
O855 O 0.67633 0.34274 0.62586 0.0
H856 H 0.73393 0.4323 0.63846 0.0
H857 H 0.80069 0.37173 0.58526 0.0
H858 H 0.78629 0.45988 0.65723 0.0
H859 H 0.85197 0.40068 0.60453 0.0
H860 H 0.58839 0.40733 0.71358 0.0
H861 H 0.62595 0.45315 0.60649 0.0
H862 H 0.64349 0.39076 0.68671 0.0
H863 H 0.571 0.46842 0.63458 0.0
H864 H 0.75543 0.49917 0.54036 0.0
H865 H 0.64708 0.48589 0.51357 0.0
H866 H 0.76653 0.33381 0.73451 0.0
H867 H 0.72999 0.42296 0.75103 0.0
H868 H 0.62352 0.37829 0.50717 0.0
H869 H 0.73123 0.38703 0.53617 0.0
H870 H 0.64128 0.38355 0.44716 0.0
H871 H 0.74701 0.39212 0.47583 0.0
H872 H 0.63881 0.3281 0.57184 0.0
H873 H 0.67813 0.29732 0.66743 0.0
H874 H 0.61099 0.27939 0.56303 0.0
H875 H 0.64946 0.24903 0.65694 0.0
H876 H 0.78723 0.274 0.5659 0.0
H877 H 0.70787 0.28143 0.48902 0.0
H878 H 0.53145 0.39755 0.5634 0.0
H879 H 0.53408 0.34273 0.65284 0.0
Li880 Li 0.81585 0.37916 0.89019 0.0
Li881 Li 0.8234 0.40847 0.94316 0.0
Li882 Li 0.86787 0.37562 0.92344 0.0
Li883 Li 0.81589 0.35483 0.94572 0.0
C884 C 0.8786 0.42077 0.88425 0.0
N885 N 0.93988 0.43818 0.85354 0.0
C886 C 0.89906 0.44289 0.89879 0.0
C887 C 0.88915 0.40764 0.85399 0.0
C888 C 0.93001 0.45134 0.8829 0.0
C889 C 0.92024 0.41673 0.83887 0.0
C890 C 0.75357 0.40029 0.91863 0.0
C891 C 0.69136 0.40777 0.91725 0.0
N892 N 0.69606 0.43193 0.89737 0.0
C893 C 0.7578 0.42515 0.89816 0.0
C894 C 0.72011 0.39143 0.92819 0.0
C895 C 0.72839 0.44087 0.88768 0.0
C896 C 0.77918 0.35425 0.83508 0.0
N897 N 0.79612 0.37883 0.84594 0.0
C898 C 0.78441 0.40339 0.7937 0.0
C899 C 0.7991 0.40311 0.82597 0.0
C900 C 0.76661 0.37837 0.78173 0.0
C901 C 0.76423 0.3535 0.80286 0.0
H902 H 0.77718 0.33527 0.85155 0.0
H903 H 0.81283 0.42233 0.83516 0.0
C904 C 0.84677 0.45419 0.98295 0.0
N905 N 0.81733 0.44502 0.96705 0.0
C906 C 0.84681 0.47997 1.00216 0.0
C907 C 0.78614 0.48696 0.9881 0.0
C908 C 0.7871 0.46057 0.96973 0.0
C909 C 0.81634 0.49712 1.00467 0.0
H910 H 0.87031 0.44114 0.98102 0.0
H911 H 0.76363 0.45264 0.95785 0.0
C912 C 0.85651 0.31607 0.90902 0.0
N913 N 0.88786 0.262 0.91991 0.0
C914 C 0.87551 0.31101 0.9386 0.0
C915 C 0.85346 0.29364 0.88499 0.0
C916 C 0.89116 0.28352 0.94363 0.0
C917 C 0.8695 0.26645 0.89096 0.0
C918 C 0.84121 0.38242 1.00323 0.0
C919 C 0.86671 0.38157 0.0284 0.0
C920 C 0.80625 0.38645 1.01216 0.0
C921 C 0.85681 0.38466 0.06217 0.0
C922 C 0.79742 0.38945 0.04621 0.0
N923 N 0.82267 0.3885 0.07031 0.0
C924 C 0.93556 0.38653 0.94568 0.0
C925 C 0.93385 0.35615 0.89696 0.0
C926 C 0.97188 0.38563 0.94597 0.0
N927 N 0.9174 0.37192 0.92147 0.0
C928 C 0.97027 0.35463 0.89629 0.0
C929 C 0.98978 0.36943 0.92113 0.0
H930 H 0.92174 0.39919 0.96457 0.0
H931 H 0.91871 0.3449 0.87785 0.0
C932 C 0.76763 0.30896 0.95749 0.0
N933 N 0.79633 0.32246 0.97044 0.0
C934 C 0.75285 0.28476 0.97408 0.0
C935 C 0.79702 0.28914 0.01731 0.0
C936 C 0.8114 0.31278 0.99953 0.0
C937 C 0.76748 0.27479 1.00452 0.0
H938 H 0.75642 0.31689 0.93411 0.0
H939 H 0.83483 0.32313 1.00886 0.0
O940 O 0.84875 0.41156 0.8999 0.0
O941 O 0.78183 0.38405 0.92851 0.0
O942 O 0.84074 0.34271 0.90345 0.0
O943 O 0.85077 0.37969 0.97006 0.0
H944 H 0.89127 0.45327 0.92219 0.0
H945 H 0.87377 0.39026 0.8426 0.0
H946 H 0.94621 0.46832 0.89395 0.0
H947 H 0.92887 0.40662 0.81557 0.0
H948 H 0.6653 0.4012 0.92449 0.0
H949 H 0.78352 0.43246 0.89078 0.0
H950 H 0.71644 0.3721 0.94387 0.0
H951 H 0.73128 0.46021 0.87191 0.0
H952 H 0.78729 0.42289 0.77814 0.0
H953 H 0.75047 0.33386 0.79481 0.0
H954 H 0.87053 0.48608 0.01518 0.0
H955 H 0.76201 0.49932 0.98893 0.0
H956 H 0.87824 0.32807 0.95748 0.0
H957 H 0.8388 0.29722 0.86198 0.0
H958 H 0.90592 0.27931 0.9664 0.0
H959 H 0.86735 0.24888 0.87257 0.0
H960 H 0.89389 0.37855 0.02189 0.0
H961 H 0.7861 0.38725 0.99313 0.0
H962 H 0.87629 0.38402 0.08192 0.0
H963 H 0.77049 0.39256 0.05349 0.0
H964 H 0.98579 0.39788 0.96519 0.0
H965 H 0.98297 0.34177 0.8768 0.0
H966 H 0.73006 0.27412 0.96347 0.0
H967 H 0.8093 0.28171 0.04044 0.0
Li968 Li 0.70169 0.66744 0.44574 0.0
Li969 Li 0.64971 0.64665 0.42344 0.0
Li970 Li 0.69418 0.6138 0.44318 0.0
Li971 Li 0.70174 0.64311 0.39021 0.0
C972 C 0.67636 0.63985 0.50324 0.0
N973 N 0.69488 0.63378 0.57032 0.0
C974 C 0.65084 0.6407 0.52841 0.0
C975 C 0.71131 0.63582 0.51218 0.0
C976 C 0.66073 0.63762 0.56218 0.0
C977 C 0.72013 0.63282 0.54624 0.0
C978 C 0.66108 0.7062 0.40902 0.0
C979 C 0.64809 0.75582 0.39095 0.0
N980 N 0.62974 0.76028 0.41989 0.0
C981 C 0.64207 0.71127 0.43859 0.0
C982 C 0.66414 0.72863 0.38499 0.0
C983 C 0.62643 0.73875 0.44362 0.0
C984 C 0.74995 0.71331 0.45751 0.0
N985 N 0.72125 0.69981 0.47046 0.0
C986 C 0.72054 0.73314 0.51733 0.0
C987 C 0.70617 0.7095 0.49954 0.0
C988 C 0.75009 0.74748 0.50453 0.0
C989 C 0.76473 0.73751 0.47411 0.0
H990 H 0.76117 0.70537 0.43414 0.0
H991 H 0.68273 0.69915 0.50887 0.0
C992 C 0.58201 0.63574 0.44566 0.0
N993 N 0.60019 0.65036 0.42146 0.0
C994 C 0.54569 0.63665 0.44594 0.0
C995 C 0.54731 0.66766 0.39629 0.0
C996 C 0.58373 0.66614 0.39696 0.0
C997 C 0.5278 0.65286 0.42111 0.0
H998 H 0.59583 0.62307 0.46455 0.0
H999 H 0.59888 0.6774 0.37786 0.0
C1000 C 0.76402 0.62199 0.41868 0.0
N1001 N 0.82155 0.59034 0.39746 0.0
C1002 C 0.75981 0.59713 0.39818 0.0
C1003 C 0.79746 0.63083 0.42828 0.0
C1004 C 0.78922 0.58141 0.38773 0.0
C1005 C 0.82623 0.61449 0.41735 0.0
C1006 C 0.63899 0.6015 0.38426 0.0
C1007 C 0.61853 0.57937 0.39879 0.0
C1008 C 0.62844 0.61463 0.354 0.0
C1009 C 0.58758 0.57092 0.3829 0.0
C1010 C 0.59734 0.60554 0.33888 0.0
N1011 N 0.5777 0.58408 0.35355 0.0
C1012 C 0.67079 0.56809 0.48297 0.0
C1013 C 0.73047 0.5617 0.46974 0.0
C1014 C 0.67076 0.5423 0.50217 0.0
N1015 N 0.70024 0.57725 0.46707 0.0
C1016 C 0.73143 0.5353 0.48811 0.0
C1017 C 0.70123 0.52514 0.50467 0.0
H1018 H 0.64726 0.58113 0.48103 0.0
H1019 H 0.75394 0.56962 0.45786 0.0
C1020 C 0.73842 0.66801 0.3351 0.0
N1021 N 0.72147 0.64344 0.34596 0.0
C1022 C 0.75337 0.66876 0.30288 0.0
C1023 C 0.73317 0.61888 0.29371 0.0
C1024 C 0.71849 0.61916 0.32599 0.0
C1025 C 0.75098 0.6439 0.28175 0.0
H1026 H 0.74044 0.68699 0.35157 0.0
H1027 H 0.70474 0.59994 0.33518 0.0
O1028 O 0.6668 0.64259 0.47007 0.0
O1029 O 0.67685 0.67956 0.40345 0.0
O1030 O 0.73575 0.63822 0.42853 0.0
O1031 O 0.66883 0.61071 0.39991 0.0
H1032 H 0.62367 0.64373 0.52188 0.0
H1033 H 0.73147 0.63502 0.49315 0.0
H1034 H 0.64125 0.63827 0.58192 0.0
H1035 H 0.74706 0.62971 0.55352 0.0
H1036 H 0.65025 0.77339 0.37256 0.0
H1037 H 0.63934 0.69421 0.45748 0.0
H1038 H 0.6788 0.72505 0.36199 0.0
H1039 H 0.61166 0.74297 0.46639 0.0
H1040 H 0.70826 0.74057 0.54045 0.0
H1041 H 0.78753 0.74814 0.4635 0.0
H1042 H 0.53178 0.62439 0.46516 0.0
H1043 H 0.53462 0.68054 0.3768 0.0
H1044 H 0.73409 0.58983 0.39078 0.0
H1045 H 0.80113 0.65015 0.44396 0.0
H1046 H 0.78634 0.56208 0.37194 0.0
H1047 H 0.85228 0.62105 0.42463 0.0
H1048 H 0.62632 0.56899 0.42219 0.0
H1049 H 0.64381 0.63201 0.34262 0.0
H1050 H 0.57138 0.55394 0.39396 0.0
H1051 H 0.58871 0.61566 0.31559 0.0
H1052 H 0.64704 0.53618 0.51519 0.0
H1053 H 0.75555 0.52294 0.48893 0.0
H1054 H 0.76714 0.68839 0.29484 0.0
H1055 H 0.73028 0.59938 0.27815 0.0
Li1056 Li 0.19746 0.40771 0.94553 0.0
Li1057 Li 0.20443 0.35354 0.94813 0.0
Li1058 Li 0.20388 0.38034 0.8916 0.0
Li1059 Li 0.1506 0.37372 0.92511 0.0
C1060 C 0.26959 0.39541 0.93661 0.0
N1061 N 0.33435 0.41935 0.95018 0.0
C1062 C 0.28784 0.38702 0.96562 0.0
C1063 C 0.28455 0.41562 0.91422 0.0
C1064 C 0.32047 0.39946 0.97211 0.0
C1065 C 0.31723 0.42758 0.92161 0.0
C1066 C 0.16671 0.36963 1.00409 0.0
C1067 C 0.14936 0.33334 0.04538 0.0
N1068 N 0.16183 0.351 0.07039 0.0
C1069 C 0.17919 0.38748 0.03022 0.0
C1070 C 0.1515 0.3424 1.01172 0.0
C1071 C 0.17653 0.37765 0.06357 0.0
C1072 C 0.17598 0.46289 0.96732 0.0
N1073 N 0.20385 0.44441 0.96866 0.0
C1074 C 0.23398 0.47778 1.00532 0.0
C1075 C 0.23261 0.45133 0.98714 0.0
C1076 C 0.20535 0.49715 1.00469 0.0
C1077 C 0.17622 0.48949 0.98504 0.0
H1078 H 0.15325 0.45671 0.95278 0.0
H1079 H 0.2541 0.43608 0.98866 0.0
C1080 C 0.22918 0.29532 0.95598 0.0
N1081 N 0.22477 0.32129 0.97266 0.0
C1082 C 0.24342 0.2709 0.97258 0.0
C1083 C 0.24799 0.30024 0.02335 0.0
C1084 C 0.23443 0.32426 1.00557 0.0
C1085 C 0.25265 0.27319 1.00678 0.0
H1086 H 0.22164 0.29358 0.92974 0.0
H1087 H 0.23173 0.34528 0.01812 0.0
C1088 C 0.16967 0.4343 0.88284 0.0
N1089 N 0.17252 0.48257 0.84029 0.0
C1090 C 0.14185 0.44047 0.86115 0.0
C1091 C 0.19874 0.45285 0.88315 0.0
C1092 C 0.14385 0.46492 0.83974 0.0
C1093 C 0.19974 0.4771 0.8614 0.0
C1094 C 0.15633 0.32338 0.8929 0.0
C1095 C 0.14613 0.3246 0.85905 0.0
C1096 C 0.14094 0.30279 0.91452 0.0
C1097 C 0.12026 0.30541 0.84747 0.0
C1098 C 0.11515 0.28399 0.90199 0.0
N1099 N 0.10541 0.2857 0.86901 0.0
C1100 C 0.25687 0.37327 0.84239 0.0
C1101 C 0.20264 0.38914 0.82033 0.0
C1102 C 0.27161 0.37337 0.81008 0.0
N1103 N 0.22303 0.38126 0.84693 0.0
C1104 C 0.21628 0.38957 0.78759 0.0
C1105 C 0.25126 0.38161 0.78206 0.0
H1106 H 0.27238 0.36658 0.86388 0.0
H1107 H 0.17563 0.39486 0.82445 0.0
C1108 C 0.08309 0.36717 0.95206 0.0
N1109 N 0.10105 0.36958 0.92262 0.0
C1110 C 0.04677 0.3663 0.95199 0.0
C1111 C 0.04777 0.37031 0.89115 0.0
C1112 C 0.08422 0.37108 0.89243 0.0
C1113 C 0.02854 0.36828 0.92131 0.0
H1114 H 0.09688 0.36665 0.97577 0.0
H1115 H 0.09906 0.37356 0.86939 0.0
O1116 O 0.23773 0.38324 0.92974 0.0
O1117 O 0.16916 0.37891 0.97128 0.0
O1118 O 0.16821 0.41032 0.90378 0.0
O1119 O 0.18113 0.34234 0.90485 0.0
H1120 H 0.27683 0.37127 0.98308 0.0
H1121 H 0.27125 0.42185 0.89122 0.0
H1122 H 0.33476 0.39332 0.99459 0.0
H1123 H 0.32904 0.44332 0.90455 0.0
H1124 H 0.13781 0.31225 0.05162 0.0
H1125 H 0.19089 0.40866 0.02485 0.0
H1126 H 0.14163 0.32833 0.99185 0.0
H1127 H 0.18618 0.3912 0.08402 0.0
H1128 H 0.25677 0.48258 0.02049 0.0
H1129 H 0.15374 0.50389 0.9834 0.0
H1130 H 0.24678 0.25034 0.959 0.0
H1131 H 0.25537 0.3029 0.04958 0.0
H1132 H 0.11906 0.42642 0.86073 0.0
H1133 H 0.22016 0.44871 0.90019 0.0
H1134 H 0.1226 0.46987 0.82269 0.0
H1135 H 0.22212 0.49162 0.86136 0.0
H1136 H 0.15784 0.34037 0.84198 0.0
H1137 H 0.14881 0.30138 0.94069 0.0
H1138 H 0.11195 0.30623 0.82138 0.0
H1139 H 0.1029 0.26803 0.91847 0.0
H1140 H 0.29847 0.36654 0.80705 0.0
H1141 H 0.19964 0.3963 0.76689 0.0
H1142 H 0.03311 0.36437 0.97582 0.0
H1143 H 0.03482 0.37229 0.86696 0.0
Li1144 Li 0.31315 0.66874 0.44811 0.0
Li1145 Li 0.32013 0.61458 0.44553 0.0
Li1146 Li 0.36699 0.64857 0.42509 0.0
Li1147 Li 0.3137 0.64194 0.39159 0.0
C1148 C 0.35091 0.65269 0.50406 0.0
N1149 N 0.35584 0.67138 0.57034 0.0
C1150 C 0.33846 0.63485 0.53022 0.0
C1151 C 0.36611 0.67994 0.51165 0.0
C1152 C 0.34115 0.64471 0.56356 0.0
C1153 C 0.36827 0.68902 0.5453 0.0
C1154 C 0.24801 0.62683 0.4366 0.0
C1155 C 0.20042 0.59461 0.4216 0.0
N1156 N 0.18328 0.60284 0.45016 0.0
C1157 C 0.22974 0.63523 0.46559 0.0
C1158 C 0.23309 0.6066 0.41421 0.0
C1159 C 0.19712 0.62276 0.47208 0.0
C1160 C 0.28836 0.72696 0.45597 0.0
N1161 N 0.29279 0.70098 0.47264 0.0
C1162 C 0.26957 0.72203 0.52333 0.0
C1163 C 0.28313 0.69801 0.50555 0.0
C1164 C 0.26489 0.74907 0.50677 0.0
C1165 C 0.27411 0.75137 0.47257 0.0
H1166 H 0.2959 0.7287 0.42972 0.0
H1167 H 0.28585 0.67699 0.51809 0.0
C1168 C 0.34154 0.55932 0.46721 0.0
N1169 N 0.31374 0.57787 0.46866 0.0
C1170 C 0.34129 0.53272 0.48494 0.0
C1171 C 0.28367 0.54459 0.50546 0.0
C1172 C 0.28505 0.57103 0.48728 0.0
C1173 C 0.31222 0.52515 0.50471 0.0
H1174 H 0.36423 0.56545 0.45258 0.0
H1175 H 0.26362 0.58634 0.48889 0.0
C1176 C 0.36122 0.69892 0.39286 0.0
N1177 N 0.41209 0.73663 0.36895 0.0
C1178 C 0.37141 0.69769 0.35901 0.0
C1179 C 0.37658 0.71953 0.41447 0.0
C1180 C 0.39726 0.7169 0.34742 0.0
C1181 C 0.40235 0.73835 0.40192 0.0
C1182 C 0.34796 0.588 0.3828 0.0
C1183 C 0.37578 0.58188 0.36111 0.0
C1184 C 0.31892 0.56942 0.38309 0.0
C1185 C 0.37382 0.55745 0.33966 0.0
C1186 C 0.31795 0.54519 0.36131 0.0
N1187 N 0.34517 0.53978 0.34019 0.0
C1188 C 0.43449 0.65511 0.45205 0.0
C1189 C 0.43337 0.65125 0.39241 0.0
C1190 C 0.47081 0.65598 0.45198 0.0
N1191 N 0.41653 0.65273 0.4226 0.0
C1192 C 0.46982 0.65201 0.39114 0.0
C1193 C 0.48904 0.65402 0.42129 0.0
H1194 H 0.42071 0.65561 0.47576 0.0
H1195 H 0.41853 0.64878 0.36936 0.0
C1196 C 0.2607 0.64899 0.34238 0.0
N1197 N 0.29454 0.64101 0.34692 0.0
C1198 C 0.24596 0.64888 0.31007 0.0
C1199 C 0.30129 0.6327 0.28757 0.0
C1200 C 0.31494 0.63314 0.32031 0.0
C1201 C 0.26631 0.64065 0.28204 0.0
H1202 H 0.24519 0.65566 0.36387 0.0
H1203 H 0.34195 0.62744 0.32443 0.0
O1204 O 0.34842 0.64339 0.47127 0.0
O1205 O 0.27986 0.63903 0.42972 0.0
O1206 O 0.33643 0.67994 0.40483 0.0
O1207 O 0.34938 0.61196 0.40377 0.0
H1208 H 0.32678 0.61366 0.52488 0.0
H1209 H 0.37594 0.69399 0.49176 0.0
H1210 H 0.33153 0.63117 0.58403 0.0
H1211 H 0.3798 0.71012 0.5515 0.0
H1212 H 0.18863 0.57885 0.40456 0.0
H1213 H 0.24072 0.651 0.48304 0.0
H1214 H 0.2464 0.60037 0.39123 0.0
H1215 H 0.18282 0.6289 0.49456 0.0
H1216 H 0.2622 0.71935 0.54957 0.0
H1217 H 0.27074 0.77193 0.45899 0.0
H1218 H 0.36371 0.51827 0.4832 0.0
H1219 H 0.26093 0.53986 0.52074 0.0
H1220 H 0.35972 0.6819 0.34196 0.0
H1221 H 0.36871 0.72095 0.44064 0.0
H1222 H 0.40558 0.71607 0.32133 0.0
H1223 H 0.41458 0.75433 0.4184 0.0
H1224 H 0.39856 0.59595 0.3607 0.0
H1225 H 0.29749 0.57352 0.40014 0.0
H1226 H 0.39508 0.55254 0.32261 0.0
H1227 H 0.29559 0.53065 0.36125 0.0
H1228 H 0.48448 0.65789 0.47581 0.0
H1229 H 0.48277 0.65005 0.36694 0.0
H1230 H 0.21909 0.6557 0.30705 0.0
H1231 H 0.31794 0.62599 0.26687 0.0
Li1232 Li 0.15095 0.64822 0.10394 0.0
Li1233 Li 0.2041 0.64186 0.1377 0.0
Li1234 Li 0.20464 0.66856 0.08105 0.0
Li1235 Li 0.1979 0.6144 0.08381 0.0
C1236 C 0.15603 0.69835 0.13623 0.0
N1237 N 0.10424 0.73518 0.16011 0.0
C1238 C 0.14584 0.69692 0.17007 0.0
C1239 C 0.14018 0.71869 0.11461 0.0
C1240 C 0.11953 0.71569 0.18164 0.0
C1241 C 0.11396 0.73707 0.12714 0.0
C1242 C 0.1709 0.58715 0.14542 0.0
C1243 C 0.20284 0.54487 0.16567 0.0
N1244 N 0.17545 0.53761 0.18584 0.0
C1245 C 0.14297 0.57918 0.16616 0.0
C1246 C 0.201 0.56981 0.14501 0.0
C1247 C 0.14582 0.55409 0.1865 0.0
C1248 C 0.08343 0.65538 0.07706 0.0
N1249 N 0.1014 0.65223 0.10641 0.0
C1250 C 0.04814 0.65079 0.13787 0.0
C1251 C 0.08459 0.64998 0.13655 0.0
C1252 C 0.0289 0.65359 0.10781 0.0
C1253 C 0.0471 0.65627 0.07718 0.0
H1254 H 0.09721 0.6565 0.05338 0.0
H1255 H 0.09946 0.64691 0.15949 0.0
C1256 C 0.25644 0.65035 0.18718 0.0
N1257 N 0.22311 0.64106 0.18239 0.0
C1258 C 0.27113 0.65027 0.2195 0.0
C1259 C 0.21679 0.63144 0.24152 0.0
C1260 C 0.20316 0.6319 0.20877 0.0
C1261 C 0.25128 0.64069 0.24729 0.0
H1262 H 0.27157 0.658 0.16586 0.0
H1263 H 0.17653 0.62513 0.20445 0.0
C1264 C 0.16753 0.65196 0.0249 0.0
N1265 N 0.16339 0.66986 0.95829 0.0
C1266 C 0.1805 0.63389 0.99919 0.0
C1267 C 0.15226 0.67906 0.01671 0.0
C1268 C 0.17819 0.64335 0.96567 0.0
C1269 C 0.15049 0.68774 0.98289 0.0
C1270 C 0.27023 0.62751 0.09273 0.0
C1271 C 0.28759 0.63542 0.06305 0.0
C1272 C 0.28641 0.6085 0.11571 0.0
C1273 C 0.32064 0.62375 0.05655 0.0
C1274 C 0.31946 0.59729 0.10829 0.0
N1275 N 0.33573 0.60506 0.0791 0.0
C1276 C 0.22912 0.72686 0.07331 0.0
C1277 C 0.23452 0.69807 0.02363 0.0
C1278 C 0.24324 0.75137 0.05679 0.0
N1279 N 0.22486 0.70091 0.05656 0.0
C1280 C 0.24795 0.72217 1.00593 0.0
C1281 C 0.25248 0.74919 0.02259 0.0
H1282 H 0.22155 0.72852 0.09956 0.0
H1283 H 0.23191 0.67709 1.01099 0.0
C1284 C 0.17504 0.56073 0.05943 0.0
N1285 N 0.20426 0.57761 0.06085 0.0
C1286 C 0.17502 0.53416 0.04163 0.0
C1287 C 0.23538 0.54254 0.02714 0.0
C1288 C 0.23421 0.56903 0.04527 0.0
C1289 C 0.20537 0.52486 0.02485 0.0
H1290 H 0.15151 0.56817 0.07186 0.0
H1291 H 0.257 0.58288 0.04614 0.0
O1292 O 0.18123 0.67976 0.12426 0.0
O1293 O 0.16858 0.61177 0.12557 0.0
O1294 O 0.16958 0.64304 0.05786 0.0
O1295 O 0.238 0.63897 0.09965 0.0
H1296 H 0.15789 0.6813 0.18711 0.0
H1297 H 0.14799 0.7202 0.08842 0.0
H1298 H 0.11121 0.71472 0.20772 0.0
H1299 H 0.10133 0.75283 0.11066 0.0
H1300 H 0.22601 0.53126 0.16562 0.0
H1301 H 0.11941 0.59233 0.16667 0.0
H1302 H 0.22259 0.57542 0.12876 0.0
H1303 H 0.12447 0.54773 0.20279 0.0
H1304 H 0.03519 0.64826 0.162 0.0
H1305 H 0.0334 0.65878 0.05344 0.0
H1306 H 0.29758 0.65812 0.22272 0.0
H1307 H 0.20054 0.62367 0.26203 0.0
H1308 H 0.19232 0.61284 1.00501 0.0
H1309 H 0.14214 0.69334 0.03626 0.0
H1310 H 0.1882 0.62962 0.94553 0.0
H1311 H 0.13891 0.70871 0.97622 0.0
H1312 H 0.27559 0.65017 0.04507 0.0
H1313 H 0.27373 0.60258 0.13914 0.0
H1314 H 0.33426 0.62954 0.03356 0.0
H1315 H 0.33222 0.58248 0.1258 0.0
H1316 H 0.24649 0.77191 0.07043 0.0
H1317 H 0.25533 0.71959 0.97969 0.0
H1318 H 0.15143 0.52106 0.04103 0.0
H1319 H 0.25923 0.53641 1.0143 0.0
Li1320 Li 0.31344 0.38042 0.63771 0.0
Li1321 Li 0.36659 0.37408 0.60395 0.0
Li1322 Li 0.31964 0.40789 0.58383 0.0
Li1323 Li 0.3129 0.35373 0.58105 0.0
C1324 C 0.34658 0.43516 0.64542 0.0
N1325 N 0.34191 0.48472 0.68578 0.0
C1326 C 0.3745 0.4432 0.66613 0.0
C1327 C 0.31643 0.45244 0.645 0.0
C1328 C 0.37159 0.4683 0.68644 0.0
C1329 C 0.31453 0.47739 0.66563 0.0
C1330 C 0.36153 0.32395 0.6362 0.0
C1331 C 0.40362 0.28524 0.62708 0.0
N1332 N 0.41336 0.28711 0.66005 0.0
C1333 C 0.37175 0.32537 0.67004 0.0
C1334 C 0.37738 0.30362 0.61457 0.0
C1335 C 0.39807 0.30659 0.68159 0.0
C1336 C 0.26112 0.3719 0.68719 0.0
N1337 N 0.29444 0.38121 0.6824 0.0
C1338 C 0.30077 0.39083 0.74153 0.0
C1339 C 0.31439 0.39038 0.70878 0.0
C1340 C 0.26629 0.38157 0.7473 0.0
C1341 C 0.24643 0.37199 0.71952 0.0
H1342 H 0.24598 0.36426 0.66588 0.0
H1343 H 0.34102 0.39716 0.70445 0.0
C1344 C 0.43412 0.36691 0.57707 0.0
N1345 N 0.41615 0.37007 0.60641 0.0
C1346 C 0.47044 0.36602 0.5772 0.0
C1347 C 0.4694 0.37153 0.63788 0.0
C1348 C 0.43296 0.37234 0.63655 0.0
C1349 C 0.48864 0.36871 0.60782 0.0
H1350 H 0.42034 0.36579 0.55339 0.0
H1351 H 0.41809 0.37543 0.65949 0.0
C1352 C 0.24731 0.39474 0.5927 0.0
N1353 N 0.18179 0.41713 0.57899 0.0
C1354 C 0.23002 0.38686 0.56297 0.0
C1355 C 0.23104 0.41369 0.61569 0.0
C1356 C 0.19697 0.3985 0.55643 0.0
C1357 C 0.19799 0.42488 0.60823 0.0
C1358 C 0.35001 0.37037 0.5249 0.0
C1359 C 0.33701 0.38845 0.49921 0.0
C1360 C 0.36529 0.34329 0.51668 0.0
C1361 C 0.33932 0.37902 0.46569 0.0
C1362 C 0.36706 0.33464 0.48286 0.0
N1363 N 0.35414 0.35253 0.45828 0.0
C1364 C 0.34256 0.46149 0.55932 0.0
C1365 C 0.28328 0.45336 0.54545 0.0
C1366 C 0.34259 0.48805 0.54151 0.0
N1367 N 0.31328 0.44469 0.56088 0.0
C1368 C 0.28213 0.47984 0.52732 0.0
C1369 C 0.31219 0.49744 0.52487 0.0
H1370 H 0.36612 0.45399 0.57164 0.0
H1371 H 0.26044 0.43958 0.54645 0.0
C1372 C 0.28841 0.29544 0.57333 0.0
N1373 N 0.2927 0.32138 0.55656 0.0
C1374 C 0.2743 0.27092 0.55681 0.0
C1375 C 0.26964 0.30009 0.50593 0.0
C1376 C 0.28307 0.32421 0.52362 0.0
C1377 C 0.26509 0.27308 0.5226 0.0
H1378 H 0.29595 0.29379 0.59958 0.0
H1379 H 0.2857 0.34517 0.51096 0.0
O1380 O 0.34896 0.41052 0.6256 0.0
O1381 O 0.33632 0.34253 0.62426 0.0
O1382 O 0.27954 0.38331 0.59966 0.0
O1383 O 0.34796 0.37927 0.55787 0.0
H1384 H 0.39809 0.4301 0.66665 0.0
H1385 H 0.29484 0.44676 0.62877 0.0
H1386 H 0.39293 0.47472 0.70272 0.0
H1387 H 0.29132 0.49094 0.66558 0.0
H1388 H 0.41624 0.26949 0.61059 0.0
H1389 H 0.3597 0.34098 0.6871 0.0
H1390 H 0.36955 0.30211 0.58838 0.0
H1391 H 0.40641 0.30756 0.70767 0.0
H1392 H 0.31701 0.39861 0.76204 0.0
H1393 H 0.21998 0.36413 0.72275 0.0
H1394 H 0.48414 0.3635 0.55345 0.0
H1395 H 0.48235 0.37407 0.66201 0.0
H1396 H 0.24209 0.37216 0.54498 0.0
H1397 H 0.24367 0.4196 0.63915 0.0
H1398 H 0.18341 0.39273 0.5334 0.0
H1399 H 0.18516 0.43964 0.62574 0.0
H1400 H 0.32517 0.4095 0.50505 0.0
H1401 H 0.37543 0.329 0.53622 0.0
H1402 H 0.32929 0.39276 0.44556 0.0
H1403 H 0.37865 0.31367 0.47616 0.0
H1404 H 0.36623 0.50109 0.5408 0.0
H1405 H 0.25823 0.48605 0.5146 0.0
H1406 H 0.27103 0.2504 0.57047 0.0
H1407 H 0.26229 0.30266 0.47968 0.0
loop_
_geom_bond_atom_site_label_1
_geom_bond_atom_site_label_2
_geom_bond_distance
_geom_bond_site_symmetry_2
_ccdc_geom_bond_type
Li0 N17 1.990 . S
Li0 O60 1.956 . S
Li0 O61 1.970 . S
Li0 O62 1.961 . S
Li1 N25 1.990 . S
Li1 O60 1.970 . S
Li1 O61 1.956 . S
Li1 O63 1.961 . S
Li2 N47 1.990 . S
Li2 O60 1.961 . S
Li2 O62 1.956 . S
Li2 O63 1.970 . S
Li3 N53 1.990 . S
Li3 O61 1.961 . S
Li3 O62 1.970 . S
Li3 O63 1.956 . S
C4 C6 1.348 . S
C4 C7 1.356 1_554 S
C4 O60 1.325 . S
N5 C8 1.314 . S
N5 C9 1.279 . S
C6 C4 1.348 . S
C6 C8 1.353 1_554 S
C6 H64 0.929 . S
C7 C4 1.356 1_556 S
C7 C9 1.358 . S
C7 H65 0.930 . S
C8 N5 1.314 . S
C8 C6 1.353 1_556 S
C8 H66 0.930 . S
C9 N5 1.279 . S
C9 C7 1.358 . S
C9 H67 0.930 . S
C10 C13 1.348 . S
C10 C14 1.356 . S
C10 O61 1.325 . S
C11 N12 1.279 . S
C11 C14 1.358 . S
C11 H68 0.930 . S
N12 C11 1.279 . S
N12 C15 1.314 . S
C13 C10 1.348 . S
C13 C15 1.353 . S
C13 H69 0.929 . S
C14 C10 1.356 . S
C14 C11 1.358 . S
C14 H70 0.930 . S
C15 N12 1.314 . S
C15 C13 1.353 . S
C15 H71 0.930 . S
C16 N17 1.314 . S
C16 C21 1.353 . S
C16 H22 0.930 . S
N17 Li0 1.990 . S
N17 C16 1.314 . S
N17 C19 1.279 . S
C18 C19 1.358 1_556 S
C18 C20 1.356 1_556 S
C18 H72 0.930 . S
C19 N17 1.279 . S
C19 C18 1.358 1_554 S
C19 H23 0.930 . S
C20 C18 1.356 1_554 S
C20 C21 1.348 . S
C21 C16 1.353 . S
C21 C20 1.348 . S
C21 H73 0.929 . S
H22 C16 0.930 . S
H23 C19 0.930 . S
C24 N25 1.314 . S
C24 C26 1.353 . S
C24 H30 0.930 . S
N25 Li1 1.990 . S
N25 C24 1.314 . S
N25 C28 1.279 . S
C26 C24 1.353 . S
C26 C29 1.348 . S
C26 H74 0.929 . S
C27 C28 1.358 . S
C27 C29 1.356 . S
C27 H75 0.930 . S
C28 N25 1.279 . S
C28 C27 1.358 . S
C28 H31 0.930 . S
C29 C26 1.348 . S
C29 C27 1.356 . S
H30 C24 0.930 . S
H31 C28 0.930 . S
C32 C34 1.348 . S
C32 C35 1.356 . S
C32 O62 1.325 . S
N33 C36 1.314 . S
N33 C37 1.279 . S
C34 C32 1.348 . S
C34 C36 1.353 . S
C34 H76 0.929 . S
C35 C32 1.356 . S
C35 C37 1.358 . S
C35 H77 0.930 . S
C36 N33 1.314 . S
C36 C34 1.353 . S
C36 H78 0.930 . S
C37 N33 1.279 . S
C37 C35 1.358 . S
C37 H79 0.930 . S
C38 C39 1.348 . S
C38 C40 1.356 . S
C38 O63 1.325 . S
C39 C38 1.348 . S
C39 C41 1.353 . S
C39 H80 0.929 . S
C40 C38 1.356 . S
C40 C42 1.358 . S
C40 H81 0.930 . S
C41 C39 1.353 . S
C41 N43 1.314 . S
C41 H82 0.930 . S
C42 C40 1.358 . S
C42 N43 1.279 . S
C42 H83 0.930 . S
N43 C41 1.314 . S
N43 C42 1.279 . S
C44 C46 1.353 . S
C44 N47 1.314 . S
C44 H50 0.930 . S
C45 N47 1.279 . S
C45 C48 1.358 . S
C45 H51 0.930 . S
C46 C44 1.353 . S
C46 C49 1.348 . S
C46 H84 0.917 1_554 S
N47 Li2 1.990 . S
N47 C44 1.314 . S
N47 C45 1.279 . S
C48 C45 1.358 . S
C48 C49 1.356 . S
C48 H85 0.930 . S
C49 C46 1.348 . S
C49 C48 1.356 . S
H50 C44 0.930 . S
H51 C45 0.930 . S
C52 N53 1.314 . S
C52 C54 1.353 . S
C52 H58 0.930 . S
N53 Li3 1.990 . S
N53 C52 1.314 . S
N53 C56 1.279 . S
C54 C52 1.353 . S
C54 C57 1.348 . S
C54 H86 0.929 . S
C55 C56 1.358 . S
C55 C57 1.356 . S
C55 H87 0.930 . S
C56 N53 1.279 . S
C56 C55 1.358 . S
C56 H59 0.930 . S
C57 C54 1.348 . S
C57 C55 1.356 . S
H58 C52 0.930 . S
H59 C56 0.930 . S
O60 Li0 1.956 . S
O60 Li1 1.970 . S
O60 Li2 1.961 . S
O60 C4 1.325 . S
O61 Li0 1.970 . S
O61 Li1 1.956 . S
O61 Li3 1.961 . S
O61 C10 1.325 . S
O62 Li0 1.961 . S
O62 Li2 1.956 . S
O62 Li3 1.970 . S
O62 C32 1.325 . S
O63 Li1 1.961 . S
O63 Li2 1.970 . S
O63 Li3 1.956 . S
O63 C38 1.325 . S
H64 C6 0.929 . S
H65 C7 0.930 . S
H66 C8 0.930 . S
H67 C9 0.930 . S
H68 C11 0.930 . S
H69 C13 0.929 . S
H70 C14 0.930 . S
H71 C15 0.930 . S
H72 C18 0.930 . S
H73 C21 0.929 . S
H74 C26 0.929 . S
H75 C27 0.930 . S
H76 C34 0.929 . S
H77 C35 0.930 . S
H78 C36 0.930 . S
H79 C37 0.930 . S
H80 C39 0.929 . S
H81 C40 0.930 . S
H82 C41 0.930 . S
H83 C42 0.930 . S
H84 C46 0.917 1_556 S
H85 C48 0.930 . S
H86 C54 0.929 . S
H87 C55 0.930 . S
Li88 N105 1.990 . S
Li88 O148 1.956 . S
Li88 O149 1.970 . S
Li88 O150 1.961 . S
Li89 N113 1.990 . S
Li89 O148 1.970 . S
Li89 O149 1.956 . S
Li89 O151 1.961 . S
Li90 N135 1.990 . S
Li90 O148 1.961 . S
Li90 O150 1.956 . S
Li90 O151 1.970 . S
Li91 N141 1.990 . S
Li91 O149 1.961 . S
Li91 O150 1.970 . S
Li91 O151 1.956 . S
C92 C94 1.348 . S
C92 C95 1.356 . S
C92 O148 1.325 . S
N93 C96 1.314 . S
N93 C97 1.279 . S
C94 C92 1.348 . S
C94 C96 1.353 . S
C94 H152 0.929 . S
C95 C92 1.356 . S
C95 C97 1.358 . S
C95 H153 0.930 . S
C96 N93 1.314 . S
C96 C94 1.353 . S
C96 H154 0.930 . S
C97 N93 1.279 . S
C97 C95 1.358 . S
C97 H155 0.930 . S
C98 C101 1.348 . S
C98 C102 1.356 . S
C98 O149 1.325 . S
C99 N100 1.279 . S
C99 C102 1.358 . S
C99 H156 0.930 . S
N100 C99 1.279 . S
N100 C103 1.314 . S
C101 C98 1.348 . S
C101 C103 1.353 . S
C101 H157 0.929 . S
C102 C98 1.356 . S
C102 C99 1.358 . S
C102 H158 0.930 . S
C103 N100 1.314 . S
C103 C101 1.353 . S
C103 H159 0.930 . S
C104 N105 1.314 . S
C104 C109 1.353 . S
C104 H110 0.930 . S
N105 Li88 1.990 . S
N105 C104 1.314 . S
N105 C107 1.279 . S
C106 C107 1.358 . S
C106 C108 1.356 . S
C106 H160 0.930 . S
C107 N105 1.279 . S
C107 C106 1.358 . S
C107 H111 0.930 . S
C108 C106 1.356 . S
C108 C109 1.348 . S
C109 C104 1.353 . S
C109 C108 1.348 . S
C109 H161 0.929 . S
H110 C104 0.930 . S
H111 C107 0.930 . S
C112 N113 1.314 . S
C112 C114 1.353 . S
C112 H118 0.930 . S
N113 Li89 1.990 . S
N113 C112 1.314 . S
N113 C116 1.279 . S
C114 C112 1.353 . S
C114 C117 1.348 . S
C114 H162 0.929 . S
C115 C116 1.358 . S
C115 C117 1.356 . S
C115 H163 0.930 . S
C116 N113 1.279 . S
C116 C115 1.358 . S
C116 H119 0.930 . S
C117 C114 1.348 . S
C117 C115 1.356 . S
H118 C112 0.930 . S
H119 C116 0.930 . S
C120 C122 1.348 . S
C120 C123 1.356 . S
C120 O150 1.325 . S
N121 C124 1.314 . S
N121 C125 1.279 . S
C122 C120 1.348 . S
C122 C124 1.353 . S
C122 H164 0.929 . S
C123 C120 1.356 . S
C123 C125 1.358 . S
C123 H165 0.930 . S
C124 N121 1.314 . S
C124 C122 1.353 . S
C124 H166 0.930 . S
C125 N121 1.279 . S
C125 C123 1.358 . S
C125 H167 0.930 . S
C126 C127 1.348 . S
C126 C128 1.356 . S
C126 O151 1.325 . S
C127 C126 1.348 . S
C127 C129 1.353 . S
C127 H168 0.929 . S
C128 C126 1.356 . S
C128 C130 1.358 . S
C128 H169 0.930 . S
C129 C127 1.353 . S
C129 N131 1.314 . S
C129 H170 0.930 . S
C130 C128 1.358 . S
C130 N131 1.279 . S
C130 H171 0.930 . S
N131 C129 1.314 . S
N131 C130 1.279 . S
C132 C134 1.353 . S
C132 N135 1.314 . S
C132 H138 0.930 . S
C133 N135 1.279 . S
C133 C136 1.358 . S
C133 H139 0.930 . S
C134 C132 1.353 . S
C134 C137 1.348 . S
C134 H172 0.929 . S
N135 Li90 1.990 . S
N135 C132 1.314 . S
N135 C133 1.279 . S
C136 C133 1.358 . S
C136 C137 1.356 . S
C136 H173 0.930 . S
C137 C134 1.348 . S
C137 C136 1.356 . S
H138 C132 0.930 . S
H139 C133 0.930 . S
C140 N141 1.314 . S
C140 C142 1.353 . S
C140 H146 0.930 . S
N141 Li91 1.990 . S
N141 C140 1.314 . S
N141 C144 1.279 . S
C142 C140 1.353 . S
C142 C145 1.348 . S
C142 H174 0.929 . S
C143 C144 1.358 . S
C143 C145 1.356 . S
C143 H175 0.930 . S
C144 N141 1.279 . S
C144 C143 1.358 . S
C144 H147 0.930 . S
C145 C142 1.348 . S
C145 C143 1.356 . S
H146 C140 0.930 . S
H147 C144 0.930 . S
O148 Li88 1.956 . S
O148 Li89 1.970 . S
O148 Li90 1.961 . S
O148 C92 1.325 . S
O149 Li88 1.970 . S
O149 Li89 1.956 . S
O149 Li91 1.961 . S
O149 C98 1.325 . S
O150 Li88 1.961 . S
O150 Li90 1.956 . S
O150 Li91 1.970 . S
O150 C120 1.325 . S
O151 Li89 1.961 . S
O151 Li90 1.970 . S
O151 Li91 1.956 . S
O151 C126 1.325 . S
H152 C94 0.929 . S
H153 C95 0.930 . S
H154 C96 0.930 . S
H155 C97 0.930 . S
H156 C99 0.930 . S
H157 C101 0.929 . S
H158 C102 0.930 . S
H159 C103 0.930 . S
H160 C106 0.930 . S
H161 C109 0.929 . S
H162 C114 0.929 . S
H163 C115 0.930 . S
H164 C122 0.929 . S
H165 C123 0.930 . S
H166 C124 0.930 . S
H167 C125 0.930 . S
H168 C127 0.929 . S
H169 C128 0.930 . S
H170 C129 0.930 . S
H171 C130 0.930 . S
H172 C134 0.929 . S
H173 C136 0.930 . S
H174 C142 0.929 . S
H175 C143 0.930 . S
Li176 N193 1.990 . S
Li176 O236 1.956 . S
Li176 O237 1.970 . S
Li176 O238 1.961 . S
Li177 N201 1.990 . S
Li177 O236 1.970 . S
Li177 O237 1.956 . S
Li177 O239 1.961 . S
Li178 N223 1.990 . S
Li178 O236 1.961 . S
Li178 O238 1.956 . S
Li178 O239 1.970 . S
Li179 N229 1.990 . S
Li179 O237 1.961 . S
Li179 O238 1.970 . S
Li179 O239 1.956 . S
C180 C182 1.348 . S
C180 C183 1.356 . S
C180 O236 1.325 . S
N181 C184 1.314 . S
N181 C185 1.279 . S
C182 C180 1.348 . S
C182 C184 1.353 . S
C182 H240 0.929 . S
C183 C180 1.356 . S
C183 C185 1.358 . S
C183 H241 0.930 . S
C184 N181 1.314 . S
C184 C182 1.353 . S
C184 H242 0.930 . S
C185 N181 1.279 . S
C185 C183 1.358 . S
C185 H243 0.930 . S
C186 C189 1.348 . S
C186 C190 1.356 . S
C186 O237 1.325 . S
C187 N188 1.279 . S
C187 C190 1.358 . S
C187 H244 0.930 . S
N188 C187 1.279 . S
N188 C191 1.314 . S
C189 C186 1.348 . S
C189 C191 1.353 . S
C189 H245 0.929 . S
C190 C186 1.356 . S
C190 C187 1.358 . S
C190 H246 0.930 . S
C191 N188 1.314 . S
C191 C189 1.353 . S
C191 H247 0.930 . S
C192 N193 1.314 . S
C192 C197 1.353 . S
C192 H198 0.930 . S
N193 Li176 1.990 . S
N193 C192 1.314 . S
N193 C195 1.279 . S
C194 C195 1.358 . S
C194 C196 1.356 . S
C194 H248 0.930 . S
C195 N193 1.279 . S
C195 C194 1.358 . S
C195 H199 0.930 . S
C196 C194 1.356 . S
C196 C197 1.348 . S
C197 C192 1.353 . S
C197 C196 1.348 . S
C197 H249 0.929 . S
H198 C192 0.930 . S
H199 C195 0.930 . S
C200 N201 1.314 . S
C200 C202 1.353 . S
C200 H206 0.930 . S
N201 Li177 1.990 . S
N201 C200 1.314 . S
N201 C204 1.279 . S
C202 C200 1.353 . S
C202 C205 1.348 . S
C202 H250 0.917 1_556 S
C203 C204 1.358 . S
C203 C205 1.356 . S
C203 H251 0.930 . S
C204 N201 1.279 . S
C204 C203 1.358 . S
C204 H207 0.930 . S
C205 C202 1.348 . S
C205 C203 1.356 . S
H206 C200 0.930 . S
H207 C204 0.930 . S
C208 C210 1.348 . S
C208 C211 1.356 . S
C208 O238 1.325 . S
N209 C212 1.314 . S
N209 C213 1.279 . S
C210 C208 1.348 . S
C210 C212 1.353 . S
C210 H252 0.929 . S
C211 C208 1.356 . S
C211 C213 1.358 . S
C211 H253 0.930 . S
C212 N209 1.314 . S
C212 C210 1.353 . S
C212 H254 0.930 . S
C213 N209 1.279 . S
C213 C211 1.358 . S
C213 H255 0.930 . S
C214 C215 1.348 . S
C214 C216 1.356 1_556 S
C214 O239 1.325 . S
C215 C214 1.348 . S
C215 C217 1.353 1_556 S
C215 H256 0.929 . S
C216 C214 1.356 1_554 S
C216 C218 1.358 . S
C216 H257 0.930 . S
C217 C215 1.353 1_554 S
C217 N219 1.314 . S
C217 H258 0.930 . S
C218 C216 1.358 . S
C218 N219 1.279 . S
C218 H259 0.930 . S
N219 C217 1.314 . S
N219 C218 1.279 . S
C220 C222 1.353 . S
C220 N223 1.314 . S
C220 H226 0.930 . S
C221 N223 1.279 . S
C221 C224 1.358 . S
C221 H227 0.930 . S
C222 C220 1.353 . S
C222 C225 1.348 . S
C222 H260 0.929 . S
N223 Li178 1.990 . S
N223 C220 1.314 . S
N223 C221 1.279 . S
C224 C221 1.358 . S
C224 C225 1.356 . S
C224 H261 0.930 . S
C225 C222 1.348 . S
C225 C224 1.356 . S
H226 C220 0.930 . S
H227 C221 0.930 . S
C228 N229 1.314 . S
C228 C230 1.353 . S
C228 H234 0.930 . S
N229 Li179 1.990 . S
N229 C228 1.314 . S
N229 C232 1.279 . S
C230 C228 1.353 . S
C230 C233 1.348 . S
C230 H262 0.929 . S
C231 C232 1.358 1_554 S
C231 C233 1.356 1_554 S
C231 H263 0.930 . S
C232 N229 1.279 . S
C232 C231 1.358 1_556 S
C232 H235 0.930 . S
C233 C230 1.348 . S
C233 C231 1.356 1_556 S
H234 C228 0.930 . S
H235 C232 0.930 . S
O236 Li176 1.956 . S
O236 Li177 1.970 . S
O236 Li178 1.961 . S
O236 C180 1.325 . S
O237 Li176 1.970 . S
O237 Li177 1.956 . S
O237 Li179 1.961 . S
O237 C186 1.325 . S
O238 Li176 1.961 . S
O238 Li178 1.956 . S
O238 Li179 1.970 . S
O238 C208 1.325 . S
O239 Li177 1.961 . S
O239 Li178 1.970 . S
O239 Li179 1.956 . S
O239 C214 1.325 . S
H240 C182 0.929 . S
H241 C183 0.930 . S
H242 C184 0.930 . S
H243 C185 0.930 . S
H244 C187 0.930 . S
H245 C189 0.929 . S
H246 C190 0.930 . S
H247 C191 0.930 . S
H248 C194 0.930 . S
H249 C197 0.929 . S
H250 C202 0.917 1_554 S
H251 C203 0.930 . S
H252 C210 0.929 . S
H253 C211 0.930 . S
H254 C212 0.930 . S
H255 C213 0.930 . S
H256 C215 0.929 . S
H257 C216 0.930 . S
H258 C217 0.930 . S
H259 C218 0.930 . S
H260 C222 0.929 . S
H261 C224 0.930 . S
H262 C230 0.929 . S
H263 C231 0.930 . S
Li264 N281 1.990 . S
Li264 O324 1.956 . S
Li264 O325 1.970 . S
Li264 O326 1.961 . S
Li265 N289 1.990 . S
Li265 O324 1.970 . S
Li265 O325 1.956 . S
Li265 O327 1.961 . S
Li266 N311 1.990 . S
Li266 O324 1.961 . S
Li266 O326 1.956 . S
Li266 O327 1.970 . S
Li267 N317 1.990 . S
Li267 O325 1.961 . S
Li267 O326 1.970 . S
Li267 O327 1.956 . S
C268 C270 1.348 . S
C268 C271 1.356 . S
C268 O324 1.325 . S
N269 C272 1.314 . S
N269 C273 1.279 . S
C270 C268 1.348 . S
C270 C272 1.353 . S
C270 H328 0.929 . S
C271 C268 1.356 . S
C271 C273 1.358 . S
C271 H329 0.930 . S
C272 N269 1.314 . S
C272 C270 1.353 . S
C272 H330 0.930 . S
C273 N269 1.279 . S
C273 C271 1.358 . S
C273 H331 0.930 . S
C274 C277 1.348 . S
C274 C278 1.356 . S
C274 O325 1.325 . S
C275 N276 1.279 . S
C275 C278 1.358 . S
C275 H332 0.930 . S
N276 C275 1.279 . S
N276 C279 1.314 . S
C277 C274 1.348 . S
C277 C279 1.353 . S
C277 H333 0.929 . S
C278 C274 1.356 . S
C278 C275 1.358 . S
C278 H334 0.930 . S
C279 N276 1.314 . S
C279 C277 1.353 . S
C279 H335 0.930 . S
C280 N281 1.314 . S
C280 C285 1.353 . S
C280 H286 0.930 . S
N281 Li264 1.990 . S
N281 C280 1.314 . S
N281 C283 1.279 . S
C282 C283 1.358 . S
C282 C284 1.356 . S
C282 H336 0.930 . S
C283 N281 1.279 . S
C283 C282 1.358 . S
C283 H287 0.930 . S
C284 C282 1.356 . S
C284 C285 1.348 . S
C285 C280 1.353 . S
C285 C284 1.348 . S
C285 H337 0.929 . S
H286 C280 0.930 . S
H287 C283 0.930 . S
C288 N289 1.314 . S
C288 C290 1.353 . S
C288 H294 0.930 . S
N289 Li265 1.990 . S
N289 C288 1.314 . S
N289 C292 1.279 . S
C290 C288 1.353 . S
C290 C293 1.348 . S
C290 H338 0.929 . S
C291 C292 1.358 . S
C291 C293 1.356 . S
C291 H339 0.930 . S
C292 N289 1.279 . S
C292 C291 1.358 . S
C292 H295 0.930 . S
C293 C290 1.348 . S
C293 C291 1.356 . S
H294 C288 0.930 . S
H295 C292 0.930 . S
C296 C298 1.348 . S
C296 C299 1.356 . S
C296 O326 1.325 . S
N297 C300 1.314 . S
N297 C301 1.279 . S
C298 C296 1.348 . S
C298 C300 1.353 . S
C298 H340 0.929 . S
C299 C296 1.356 . S
C299 C301 1.358 . S
C299 H341 0.930 . S
C300 N297 1.314 . S
C300 C298 1.353 . S
C300 H342 0.930 . S
C301 N297 1.279 . S
C301 C299 1.358 . S
C301 H343 0.930 . S
C302 C303 1.348 . S
C302 C304 1.356 . S
C302 O327 1.325 . S
C303 C302 1.348 . S
C303 C305 1.353 . S
C303 H344 0.929 . S
C304 C302 1.356 . S
C304 C306 1.358 . S
C304 H345 0.930 . S
C305 C303 1.353 . S
C305 N307 1.314 . S
C305 H346 0.930 . S
C306 C304 1.358 . S
C306 N307 1.279 . S
C306 H347 0.930 . S
N307 C305 1.314 . S
N307 C306 1.279 . S
C308 C310 1.353 . S
C308 N311 1.314 . S
C308 H314 0.930 . S
C309 N311 1.279 . S
C309 C312 1.358 . S
C309 H315 0.930 . S
C310 C308 1.353 . S
C310 C313 1.348 . S
C310 H348 0.929 . S
N311 Li266 1.990 . S
N311 C308 1.314 . S
N311 C309 1.279 . S
C312 C309 1.358 . S
C312 C313 1.356 . S
C312 H349 0.930 . S
C313 C310 1.348 . S
C313 C312 1.356 . S
H314 C308 0.930 . S
H315 C309 0.930 . S
C316 N317 1.314 . S
C316 C318 1.353 . S
C316 H322 0.930 . S
N317 Li267 1.990 . S
N317 C316 1.314 . S
N317 C320 1.279 . S
C318 C316 1.353 . S
C318 C321 1.348 . S
C318 H350 0.929 . S
C319 C320 1.358 . S
C319 C321 1.356 . S
C319 H351 0.930 . S
C320 N317 1.279 . S
C320 C319 1.358 . S
C320 H323 0.930 . S
C321 C318 1.348 . S
C321 C319 1.356 . S
H322 C316 0.930 . S
H323 C320 0.930 . S
O324 Li264 1.956 . S
O324 Li265 1.970 . S
O324 Li266 1.961 . S
O324 C268 1.325 . S
O325 Li264 1.970 . S
O325 Li265 1.956 . S
O325 Li267 1.961 . S
O325 C274 1.325 . S
O326 Li264 1.961 . S
O326 Li266 1.956 . S
O326 Li267 1.970 . S
O326 C296 1.325 . S
O327 Li265 1.961 . S
O327 Li266 1.970 . S
O327 Li267 1.956 . S
O327 C302 1.325 . S
H328 C270 0.929 . S
H329 C271 0.930 . S
H330 C272 0.930 . S
H331 C273 0.930 . S
H332 C275 0.930 . S
H333 C277 0.929 . S
H334 C278 0.930 . S
H335 C279 0.930 . S
H336 C282 0.930 . S
H337 C285 0.929 . S
H338 C290 0.929 . S
H339 C291 0.930 . S
H340 C298 0.929 . S
H341 C299 0.930 . S
H342 C300 0.930 . S
H343 C301 0.930 . S
H344 C303 0.929 . S
H345 C304 0.930 . S
H346 C305 0.930 . S
H347 C306 0.930 . S
H348 C310 0.929 . S
H349 C312 0.930 . S
H350 C318 0.929 . S
H351 C319 0.930 . S
Li352 N369 1.990 . S
Li352 O412 1.956 . S
Li352 O413 1.970 . S
Li352 O414 1.961 . S
Li353 N377 1.990 . S
Li353 O412 1.970 . S
Li353 O413 1.956 . S
Li353 O415 1.961 . S
Li354 N399 1.990 . S
Li354 O412 1.961 . S
Li354 O414 1.956 . S
Li354 O415 1.970 . S
Li355 N405 1.990 . S
Li355 O413 1.961 . S
Li355 O414 1.970 . S
Li355 O415 1.956 . S
C356 C358 1.348 . S
C356 C359 1.356 . S
C356 O412 1.325 . S
N357 C360 1.314 . S
N357 C361 1.279 . S
C358 C356 1.348 . S
C358 C360 1.353 . S
C358 H416 0.929 . S
C359 C356 1.356 . S
C359 C361 1.358 . S
C359 H417 0.930 . S
C360 N357 1.314 . S
C360 C358 1.353 . S
C360 H418 0.930 . S
C361 N357 1.279 . S
C361 C359 1.358 . S
C361 H419 0.930 . S
C362 C365 1.348 1_556 S
C362 C366 1.356 . S
C362 O413 1.325 . S
C363 N364 1.279 . S
C363 C366 1.358 1_554 S
C363 H420 0.930 . S
N364 C363 1.279 . S
N364 C367 1.314 . S
C365 C362 1.348 1_554 S
C365 C367 1.353 . S
C365 H421 0.929 . S
C366 C362 1.356 . S
C366 C363 1.358 1_556 S
C366 H422 0.930 . S
C367 N364 1.314 . S
C367 C365 1.353 . S
C367 H423 0.930 . S
C368 N369 1.314 . S
C368 C373 1.353 . S
C368 H374 0.930 . S
N369 Li352 1.990 . S
N369 C368 1.314 . S
N369 C371 1.279 . S
C370 C371 1.358 . S
C370 C372 1.356 . S
C370 H424 0.930 . S
C371 N369 1.279 . S
C371 C370 1.358 . S
C371 H375 0.930 . S
C372 C370 1.356 . S
C372 C373 1.348 . S
C373 C368 1.353 . S
C373 C372 1.348 . S
C373 H425 0.929 . S
H374 C368 0.930 . S
H375 C371 0.930 . S
C376 N377 1.314 . S
C376 C378 1.353 . S
C376 H382 0.930 . S
N377 Li353 1.990 . S
N377 C376 1.314 . S
N377 C380 1.279 . S
C378 C376 1.353 . S
C378 C381 1.348 . S
C378 H426 0.929 . S
C379 C380 1.358 1_554 S
C379 C381 1.356 1_554 S
C379 H427 0.930 . S
C380 N377 1.279 . S
C380 C379 1.358 1_556 S
C380 H383 0.930 1_556 S
C381 C378 1.348 . S
C381 C379 1.356 1_556 S
H382 C376 0.930 . S
H383 C380 0.930 1_554 S
C384 C386 1.348 . S
C384 C387 1.356 . S
C384 O414 1.325 . S
N385 C388 1.314 . S
N385 C389 1.279 . S
C386 C384 1.348 . S
C386 C388 1.353 . S
C386 H428 0.929 . S
C387 C384 1.356 . S
C387 C389 1.358 . S
C387 H429 0.930 . S
C388 N385 1.314 . S
C388 C386 1.353 . S
C388 H430 0.930 . S
C389 N385 1.279 . S
C389 C387 1.358 . S
C389 H431 0.930 . S
C390 C391 1.348 . S
C390 C392 1.356 . S
C390 O415 1.325 . S
C391 C390 1.348 . S
C391 C393 1.353 . S
C391 H432 0.929 . S
C392 C390 1.356 . S
C392 C394 1.358 . S
C392 H433 0.930 . S
C393 C391 1.353 . S
C393 N395 1.314 . S
C393 H434 0.930 . S
C394 C392 1.358 . S
C394 N395 1.279 . S
C394 H435 0.930 . S
N395 C393 1.314 . S
N395 C394 1.279 . S
C396 C398 1.353 . S
C396 N399 1.314 . S
C396 H402 0.930 . S
C397 N399 1.279 . S
C397 C400 1.358 . S
C397 H403 0.930 . S
C398 C396 1.353 . S
C398 C401 1.348 . S
C398 H436 0.929 . S
N399 Li354 1.990 . S
N399 C396 1.314 . S
N399 C397 1.279 . S
C400 C397 1.358 . S
C400 C401 1.356 . S
C400 H437 0.930 . S
C401 C398 1.348 . S
C401 C400 1.356 . S
H402 C396 0.930 . S
H403 C397 0.930 . S
C404 N405 1.314 . S
C404 C406 1.353 . S
C404 H410 0.930 . S
N405 Li355 1.990 . S
N405 C404 1.314 . S
N405 C408 1.279 . S
C406 C404 1.353 . S
C406 C409 1.348 . S
C406 H438 0.929 . S
C407 C408 1.358 . S
C407 C409 1.356 . S
C407 H439 0.930 . S
C408 N405 1.279 . S
C408 C407 1.358 . S
C408 H411 0.930 . S
C409 C406 1.348 . S
C409 C407 1.356 . S
H410 C404 0.930 . S
H411 C408 0.930 . S
O412 Li352 1.956 . S
O412 Li353 1.970 . S
O412 Li354 1.961 . S
O412 C356 1.325 . S
O413 Li352 1.970 . S
O413 Li353 1.956 . S
O413 Li355 1.961 . S
O413 C362 1.325 . S
O414 Li352 1.961 . S
O414 Li354 1.956 . S
O414 Li355 1.970 . S
O414 C384 1.325 . S
O415 Li353 1.961 . S
O415 Li354 1.970 . S
O415 Li355 1.956 . S
O415 C390 1.325 . S
H416 C358 0.929 . S
H417 C359 0.930 . S
H418 C360 0.930 . S
H419 C361 0.930 . S
H420 C363 0.930 . S
H421 C365 0.929 . S
H422 C366 0.930 . S
H423 C367 0.930 . S
H424 C370 0.930 . S
H425 C373 0.929 . S
H426 C378 0.929 . S
H427 C379 0.930 . S
H428 C386 0.929 . S
H429 C387 0.930 . S
H430 C388 0.930 . S
H431 C389 0.930 . S
H432 C391 0.929 . S
H433 C392 0.930 . S
H434 C393 0.930 . S
H435 C394 0.930 . S
H436 C398 0.929 . S
H437 C400 0.930 . S
H438 C406 0.929 . S
H439 C407 0.930 . S
Li440 N457 1.990 . S
Li440 O500 1.956 . S
Li440 O501 1.970 . S
Li440 O502 1.961 . S
Li441 N465 1.990 . S
Li441 O500 1.970 . S
Li441 O501 1.956 . S
Li441 O503 1.961 . S
Li442 N487 1.990 . S
Li442 O500 1.961 . S
Li442 O502 1.956 . S
Li442 O503 1.970 . S
Li443 N493 1.990 . S
Li443 O501 1.961 . S
Li443 O502 1.970 . S
Li443 O503 1.956 . S
C444 C446 1.348 . S
C444 C447 1.356 . S
C444 O500 1.325 . S
N445 C448 1.314 . S
N445 C449 1.279 . S
C446 C444 1.348 . S
C446 C448 1.353 . S
C446 H504 0.929 . S
C447 C444 1.356 . S
C447 C449 1.358 . S
C447 H505 0.930 . S
C448 N445 1.314 . S
C448 C446 1.353 . S
C448 H506 0.930 . S
C449 N445 1.279 . S
C449 C447 1.358 . S
C449 H507 0.930 . S
C450 C453 1.348 . S
C450 C454 1.356 . S
C450 O501 1.325 . S
C451 N452 1.279 . S
C451 C454 1.358 . S
C451 H508 0.930 . S
N452 C451 1.279 . S
N452 C455 1.314 . S
C453 C450 1.348 . S
C453 C455 1.353 . S
C453 H509 0.929 . S
C454 C450 1.356 . S
C454 C451 1.358 . S
C454 H510 0.930 . S
C455 N452 1.314 . S
C455 C453 1.353 . S
C455 H511 0.930 . S
C456 N457 1.314 . S
C456 C461 1.353 . S
C456 H462 0.930 . S
N457 Li440 1.990 . S
N457 C456 1.314 . S
N457 C459 1.279 . S
C458 C459 1.358 . S
C458 C460 1.356 . S
C458 H512 0.930 . S
C459 N457 1.279 . S
C459 C458 1.358 . S
C459 H463 0.930 . S
C460 C458 1.356 . S
C460 C461 1.348 . S
C461 C456 1.353 . S
C461 C460 1.348 . S
C461 H513 0.929 . S
H462 C456 0.930 . S
H463 C459 0.930 . S
C464 N465 1.314 . S
C464 C466 1.353 . S
C464 H470 0.930 . S
N465 Li441 1.990 . S
N465 C464 1.314 . S
N465 C468 1.279 . S
C466 C464 1.353 . S
C466 C469 1.348 . S
C466 H514 0.929 . S
C467 C468 1.358 . S
C467 C469 1.356 . S
C467 H515 0.930 . S
C468 N465 1.279 . S
C468 C467 1.358 . S
C468 H471 0.930 . S
C469 C466 1.348 . S
C469 C467 1.356 . S
H470 C464 0.930 . S
H471 C468 0.930 . S
C472 C474 1.348 . S
C472 C475 1.356 . S
C472 O502 1.325 . S
N473 C476 1.314 . S
N473 C477 1.279 . S
C474 C472 1.348 . S
C474 C476 1.353 . S
C474 H516 0.929 . S
C475 C472 1.356 . S
C475 C477 1.358 . S
C475 H517 0.930 . S
C476 N473 1.314 . S
C476 C474 1.353 . S
C476 H518 0.930 . S
C477 N473 1.279 . S
C477 C475 1.358 . S
C477 H519 0.930 . S
C478 C479 1.348 . S
C478 C480 1.356 . S
C478 O503 1.325 . S
C479 C478 1.348 . S
C479 C481 1.353 . S
C479 H520 0.929 . S
C480 C478 1.356 . S
C480 C482 1.358 . S
C480 H521 0.930 . S
C481 C479 1.353 . S
C481 N483 1.314 . S
C481 H522 0.930 . S
C482 C480 1.358 . S
C482 N483 1.279 . S
C482 H523 0.930 . S
N483 C481 1.314 . S
N483 C482 1.279 . S
C484 C486 1.353 . S
C484 N487 1.314 . S
C484 H490 0.930 . S
C485 N487 1.279 . S
C485 C488 1.358 . S
C485 H491 0.930 . S
C486 C484 1.353 . S
C486 C489 1.348 . S
C486 H524 0.929 . S
N487 Li442 1.990 . S
N487 C484 1.314 . S
N487 C485 1.279 . S
C488 C485 1.358 . S
C488 C489 1.356 . S
C488 H525 0.930 . S
C489 C486 1.348 . S
C489 C488 1.356 . S
H490 C484 0.930 . S
H491 C485 0.930 . S
C492 N493 1.314 . S
C492 C494 1.353 . S
C492 H498 0.930 . S
N493 Li443 1.990 . S
N493 C492 1.314 . S
N493 C496 1.279 . S
C494 C492 1.353 . S
C494 C497 1.348 . S
C494 H526 0.929 . S
C495 C496 1.358 . S
C495 C497 1.356 . S
C495 H527 0.930 . S
C496 N493 1.279 . S
C496 C495 1.358 . S
C496 H499 0.930 . S
C497 C494 1.348 . S
C497 C495 1.356 . S
H498 C492 0.930 . S
H499 C496 0.930 . S
O500 Li440 1.956 . S
O500 Li441 1.970 . S
O500 Li442 1.961 . S
O500 C444 1.325 . S
O501 Li440 1.970 . S
O501 Li441 1.956 . S
O501 Li443 1.961 . S
O501 C450 1.325 . S
O502 Li440 1.961 . S
O502 Li442 1.956 . S
O502 Li443 1.970 . S
O502 C472 1.325 . S
O503 Li441 1.961 . S
O503 Li442 1.970 . S
O503 Li443 1.956 . S
O503 C478 1.325 . S
H504 C446 0.929 . S
H505 C447 0.930 . S
H506 C448 0.930 . S
H507 C449 0.930 . S
H508 C451 0.930 . S
H509 C453 0.929 . S
H510 C454 0.930 . S
H511 C455 0.930 . S
H512 C458 0.930 . S
H513 C461 0.929 . S
H514 C466 0.929 . S
H515 C467 0.930 . S
H516 C474 0.929 . S
H517 C475 0.930 . S
H518 C476 0.930 . S
H519 C477 0.930 . S
H520 C479 0.929 . S
H521 C480 0.930 . S
H522 C481 0.930 . S
H523 C482 0.930 . S
H524 C486 0.929 . S
H525 C488 0.930 . S
H526 C494 0.929 . S
H527 C495 0.930 . S
Li528 N545 1.990 . S
Li528 O588 1.956 . S
Li528 O589 1.970 . S
Li528 O590 1.961 . S
Li529 N553 1.990 . S
Li529 O588 1.970 . S
Li529 O589 1.956 . S
Li529 O591 1.961 . S
Li530 N575 1.990 . S
Li530 O588 1.961 . S
Li530 O590 1.956 . S
Li530 O591 1.970 . S
Li531 N581 1.990 . S
Li531 O589 1.961 . S
Li531 O590 1.970 . S
Li531 O591 1.956 . S
C532 C534 1.348 . S
C532 C535 1.356 . S
C532 O588 1.325 . S
N533 C536 1.314 . S
N533 C537 1.279 . S
C534 C532 1.348 . S
C534 C536 1.353 . S
C534 H592 0.929 . S
C535 C532 1.356 . S
C535 C537 1.358 . S
C535 H593 0.930 . S
C536 N533 1.314 . S
C536 C534 1.353 . S
C536 H594 0.930 . S
C537 N533 1.279 . S
C537 C535 1.358 . S
C537 H595 0.930 . S
C538 C541 1.348 . S
C538 C542 1.356 . S
C538 O589 1.325 . S
C539 N540 1.279 . S
C539 C542 1.358 . S
C539 H596 0.930 . S
N540 C539 1.279 . S
N540 C543 1.314 . S
C541 C538 1.348 . S
C541 C543 1.353 . S
C541 H597 0.929 . S
C542 C538 1.356 . S
C542 C539 1.358 . S
C542 H598 0.930 . S
C543 N540 1.314 . S
C543 C541 1.353 . S
C543 H599 0.930 . S
C544 N545 1.314 . S
C544 C549 1.353 . S
C544 H550 0.930 . S
N545 Li528 1.990 . S
N545 C544 1.314 . S
N545 C547 1.279 . S
C546 C547 1.358 . S
C546 C548 1.356 . S
C546 H600 0.930 . S
C547 N545 1.279 . S
C547 C546 1.358 . S
C547 H551 0.930 . S
C548 C546 1.356 . S
C548 C549 1.348 . S
C549 C544 1.353 . S
C549 C548 1.348 . S
C549 H601 0.929 . S
H550 C544 0.930 . S
H551 C547 0.930 . S
C552 N553 1.314 . S
C552 C554 1.353 . S
C552 H558 0.930 . S
N553 Li529 1.990 . S
N553 C552 1.314 . S
N553 C556 1.279 . S
C554 C552 1.353 . S
C554 C557 1.348 . S
C554 H602 0.929 . S
C555 C556 1.358 . S
C555 C557 1.356 . S
C555 H603 0.930 . S
C556 N553 1.279 . S
C556 C555 1.358 . S
C556 H559 0.930 . S
C557 C554 1.348 . S
C557 C555 1.356 . S
H558 C552 0.930 . S
H559 C556 0.930 . S
C560 C562 1.348 1_554 S
C560 C563 1.356 . S
C560 O590 1.325 . S
N561 C564 1.314 . S
N561 C565 1.279 . S
C562 C560 1.348 1_556 S
C562 C564 1.353 . S
C562 H604 0.929 . S
C563 C560 1.356 . S
C563 C565 1.358 1_554 S
C563 H605 0.930 . S
C564 N561 1.314 . S
C564 C562 1.353 . S
C564 H606 0.930 . S
C565 N561 1.279 . S
C565 C563 1.358 1_556 S
C565 H607 0.930 . S
C566 C567 1.348 . S
C566 C568 1.356 . S
C566 O591 1.325 . S
C567 C566 1.348 . S
C567 C569 1.353 . S
C567 H608 0.929 . S
C568 C566 1.356 . S
C568 C570 1.358 . S
C568 H609 0.930 . S
C569 C567 1.353 . S
C569 N571 1.314 . S
C569 H610 0.930 . S
C570 C568 1.358 . S
C570 N571 1.279 . S
C570 H611 0.930 . S
N571 C569 1.314 . S
N571 C570 1.279 . S
C572 C574 1.353 . S
C572 N575 1.314 . S
C572 H578 0.930 . S
C573 N575 1.279 . S
C573 C576 1.358 1_554 S
C573 H579 0.930 1_554 S
C574 C572 1.353 . S
C574 C577 1.348 . S
C574 H612 0.929 . S
N575 Li530 1.990 . S
N575 C572 1.314 . S
N575 C573 1.279 . S
C576 C573 1.358 1_556 S
C576 C577 1.356 1_556 S
C576 H613 0.930 . S
C577 C574 1.348 . S
C577 C576 1.356 1_554 S
H578 C572 0.930 . S
H579 C573 0.930 1_556 S
C580 N581 1.314 . S
C580 C582 1.353 . S
C580 H586 0.930 . S
N581 Li531 1.990 . S
N581 C580 1.314 . S
N581 C584 1.279 . S
C582 C580 1.353 . S
C582 C585 1.348 . S
C582 H614 0.929 . S
C583 C584 1.358 . S
C583 C585 1.356 . S
C583 H615 0.930 . S
C584 N581 1.279 . S
C584 C583 1.358 . S
C584 H587 0.930 . S
C585 C582 1.348 . S
C585 C583 1.356 . S
H586 C580 0.930 . S
H587 C584 0.930 . S
O588 Li528 1.956 . S
O588 Li529 1.970 . S
O588 Li530 1.961 . S
O588 C532 1.325 . S
O589 Li528 1.970 . S
O589 Li529 1.956 . S
O589 Li531 1.961 . S
O589 C538 1.325 . S
O590 Li528 1.961 . S
O590 Li530 1.956 . S
O590 Li531 1.970 . S
O590 C560 1.325 . S
O591 Li529 1.961 . S
O591 Li530 1.970 . S
O591 Li531 1.956 . S
O591 C566 1.325 . S
H592 C534 0.929 . S
H593 C535 0.930 . S
H594 C536 0.930 . S
H595 C537 0.930 . S
H596 C539 0.930 . S
H597 C541 0.929 . S
H598 C542 0.930 . S
H599 C543 0.930 . S
H600 C546 0.930 . S
H601 C549 0.929 . S
H602 C554 0.929 . S
H603 C555 0.930 . S
H604 C562 0.929 . S
H605 C563 0.930 . S
H606 C564 0.930 . S
H607 C565 0.930 . S
H608 C567 0.929 . S
H609 C568 0.930 . S
H610 C569 0.930 . S
H611 C570 0.930 . S
H612 C574 0.929 . S
H613 C576 0.930 . S
H614 C582 0.929 . S
H615 C583 0.930 . S
Li616 N633 1.990 . S
Li616 O676 1.956 . S
Li616 O677 1.970 . S
Li616 O678 1.961 . S
Li617 N641 1.990 . S
Li617 O676 1.970 . S
Li617 O677 1.956 . S
Li617 O679 1.961 . S
Li618 N663 1.990 . S
Li618 O676 1.961 . S
Li618 O678 1.956 . S
Li618 O679 1.970 . S
Li619 N669 1.990 . S
Li619 O677 1.961 . S
Li619 O678 1.970 . S
Li619 O679 1.956 . S
C620 C622 1.348 . S
C620 C623 1.356 . S
C620 O676 1.325 . S
N621 C624 1.314 . S
N621 C625 1.279 . S
C622 C620 1.348 . S
C622 C624 1.353 . S
C622 H680 0.929 . S
C623 C620 1.356 . S
C623 C625 1.358 . S
C623 H681 0.930 . S
C624 N621 1.314 . S
C624 C622 1.353 . S
C624 H682 0.930 . S
C625 N621 1.279 . S
C625 C623 1.358 . S
C625 H683 0.930 . S
C626 C629 1.348 . S
C626 C630 1.356 . S
C626 O677 1.325 . S
C627 N628 1.279 . S
C627 C630 1.358 . S
C627 H684 0.930 . S
N628 C627 1.279 . S
N628 C631 1.314 . S
C629 C626 1.348 . S
C629 C631 1.353 . S
C629 H685 0.929 . S
C630 C626 1.356 . S
C630 C627 1.358 . S
C630 H686 0.930 . S
C631 N628 1.314 . S
C631 C629 1.353 . S
C631 H687 0.930 . S
C632 N633 1.314 . S
C632 C637 1.353 . S
C632 H638 0.930 . S
N633 Li616 1.990 . S
N633 C632 1.314 . S
N633 C635 1.279 . S
C634 C635 1.358 . S
C634 C636 1.356 . S
C634 H688 0.930 . S
C635 N633 1.279 . S
C635 C634 1.358 . S
C635 H639 0.930 . S
C636 C634 1.356 . S
C636 C637 1.348 . S
C637 C632 1.353 . S
C637 C636 1.348 . S
C637 H689 0.929 . S
H638 C632 0.930 . S
H639 C635 0.930 . S
C640 N641 1.314 . S
C640 C642 1.353 . S
C640 H646 0.930 . S
N641 Li617 1.990 . S
N641 C640 1.314 . S
N641 C644 1.279 . S
C642 C640 1.353 . S
C642 C645 1.348 . S
C642 H690 0.929 . S
C643 C644 1.358 . S
C643 C645 1.356 . S
C643 H691 0.930 . S
C644 N641 1.279 . S
C644 C643 1.358 . S
C644 H647 0.930 . S
C645 C642 1.348 . S
C645 C643 1.356 . S
H646 C640 0.930 . S
H647 C644 0.930 . S
C648 C650 1.348 . S
C648 C651 1.356 . S
C648 O678 1.325 . S
N649 C652 1.314 . S
N649 C653 1.279 . S
C650 C648 1.348 . S
C650 C652 1.353 . S
C650 H692 0.929 . S
C651 C648 1.356 . S
C651 C653 1.358 . S
C651 H693 0.930 . S
C652 N649 1.314 . S
C652 C650 1.353 . S
C652 H694 0.930 . S
C653 N649 1.279 . S
C653 C651 1.358 . S
C653 H695 0.930 . S
C654 C655 1.348 . S
C654 C656 1.356 . S
C654 O679 1.325 . S
C655 C654 1.348 . S
C655 C657 1.353 . S
C655 H696 0.929 . S
C656 C654 1.356 . S
C656 C658 1.358 . S
C656 H697 0.930 . S
C657 C655 1.353 . S
C657 N659 1.314 . S
C657 H698 0.930 . S
C658 C656 1.358 . S
C658 N659 1.279 . S
C658 H699 0.930 . S
N659 C657 1.314 . S
N659 C658 1.279 . S
C660 C662 1.353 . S
C660 N663 1.314 . S
C660 H666 0.930 . S
C661 N663 1.279 . S
C661 C664 1.358 . S
C661 H667 0.930 . S
C662 C660 1.353 . S
C662 C665 1.348 . S
C662 H700 0.929 . S
N663 Li618 1.990 . S
N663 C660 1.314 . S
N663 C661 1.279 . S
C664 C661 1.358 . S
C664 C665 1.356 . S
C664 H701 0.930 . S
C665 C662 1.348 . S
C665 C664 1.356 . S
H666 C660 0.930 . S
H667 C661 0.930 . S
C668 N669 1.314 . S
C668 C670 1.353 . S
C668 H674 0.930 . S
N669 Li619 1.990 . S
N669 C668 1.314 . S
N669 C672 1.279 . S
C670 C668 1.353 . S
C670 C673 1.348 . S
C670 H702 0.929 . S
C671 C672 1.358 . S
C671 C673 1.356 . S
C671 H703 0.930 . S
C672 N669 1.279 . S
C672 C671 1.358 . S
C672 H675 0.930 . S
C673 C670 1.348 . S
C673 C671 1.356 . S
H674 C668 0.930 . S
H675 C672 0.930 . S
O676 Li616 1.956 . S
O676 Li617 1.970 . S
O676 Li618 1.961 . S
O676 C620 1.325 . S
O677 Li616 1.970 . S
O677 Li617 1.956 . S
O677 Li619 1.961 . S
O677 C626 1.325 . S
O678 Li616 1.961 . S
O678 Li618 1.956 . S
O678 Li619 1.970 . S
O678 C648 1.325 . S
O679 Li617 1.961 . S
O679 Li618 1.970 . S
O679 Li619 1.956 . S
O679 C654 1.325 . S
H680 C622 0.929 . S
H681 C623 0.930 . S
H682 C624 0.930 . S
H683 C625 0.930 . S
H684 C627 0.930 . S
H685 C629 0.929 . S
H686 C630 0.930 . S
H687 C631 0.930 . S
H688 C634 0.930 . S
H689 C637 0.929 . S
H690 C642 0.929 . S
H691 C643 0.930 . S
H692 C650 0.929 . S
H693 C651 0.930 . S
H694 C652 0.930 . S
H695 C653 0.930 . S
H696 C655 0.929 . S
H697 C656 0.930 . S
H698 C657 0.930 . S
H699 C658 0.930 . S
H700 C662 0.929 . S
H701 C664 0.930 . S
H702 C670 0.929 . S
H703 C671 0.930 . S
Li704 N721 1.990 . S
Li704 O764 1.956 . S
Li704 O765 1.970 . S
Li704 O766 1.961 . S
Li705 N729 1.990 . S
Li705 O764 1.970 . S
Li705 O765 1.956 . S
Li705 O767 1.961 . S
Li706 N751 1.990 . S
Li706 O764 1.961 . S
Li706 O766 1.956 . S
Li706 O767 1.970 . S
Li707 N757 1.990 . S
Li707 O765 1.961 . S
Li707 O766 1.970 . S
Li707 O767 1.956 . S
C708 C710 1.348 . S
C708 C711 1.356 1_554 S
C708 O764 1.325 . S
N709 C712 1.314 . S
N709 C713 1.279 . S
C710 C708 1.348 . S
C710 C712 1.353 1_554 S
C710 H768 0.929 . S
C711 C708 1.356 1_556 S
C711 C713 1.358 . S
C711 H769 0.930 . S
C712 N709 1.314 . S
C712 C710 1.353 1_556 S
C712 H770 0.930 . S
C713 N709 1.279 . S
C713 C711 1.358 . S
C713 H771 0.930 . S
C714 C717 1.348 . S
C714 C718 1.356 . S
C714 O765 1.325 . S
C715 N716 1.279 . S
C715 C718 1.358 . S
C715 H772 0.930 . S
N716 C715 1.279 . S
N716 C719 1.314 . S
C717 C714 1.348 . S
C717 C719 1.353 . S
C717 H773 0.929 . S
C718 C714 1.356 . S
C718 C715 1.358 . S
C718 H774 0.930 . S
C719 N716 1.314 . S
C719 C717 1.353 . S
C719 H775 0.930 . S
C720 N721 1.314 . S
C720 C725 1.353 . S
C720 H726 0.930 . S
N721 Li704 1.990 . S
N721 C720 1.314 . S
N721 C723 1.279 . S
C722 C723 1.358 1_556 S
C722 C724 1.356 1_556 S
C722 H776 0.930 . S
C723 N721 1.279 . S
C723 C722 1.358 1_554 S
C723 H727 0.930 . S
C724 C722 1.356 1_554 S
C724 C725 1.348 . S
C725 C720 1.353 . S
C725 C724 1.348 . S
C725 H777 0.929 . S
H726 C720 0.930 . S
H727 C723 0.930 . S
C728 N729 1.314 . S
C728 C730 1.353 . S
C728 H734 0.930 . S
N729 Li705 1.990 . S
N729 C728 1.314 . S
N729 C732 1.279 . S
C730 C728 1.353 . S
C730 C733 1.348 . S
C730 H778 0.929 . S
C731 C732 1.358 . S
C731 C733 1.356 . S
C731 H779 0.930 . S
C732 N729 1.279 . S
C732 C731 1.358 . S
C732 H735 0.930 . S
C733 C730 1.348 . S
C733 C731 1.356 . S
H734 C728 0.930 . S
H735 C732 0.930 . S
C736 C738 1.348 . S
C736 C739 1.356 . S
C736 O766 1.325 . S
N737 C740 1.314 . S
N737 C741 1.279 . S
C738 C736 1.348 . S
C738 C740 1.353 . S
C738 H780 0.929 . S
C739 C736 1.356 . S
C739 C741 1.358 . S
C739 H781 0.930 . S
C740 N737 1.314 . S
C740 C738 1.353 . S
C740 H782 0.930 . S
C741 N737 1.279 . S
C741 C739 1.358 . S
C741 H783 0.930 . S
C742 C743 1.348 . S
C742 C744 1.356 . S
C742 O767 1.325 . S
C743 C742 1.348 . S
C743 C745 1.353 . S
C743 H784 0.929 . S
C744 C742 1.356 . S
C744 C746 1.358 . S
C744 H785 0.930 . S
C745 C743 1.353 . S
C745 N747 1.314 . S
C745 H786 0.930 . S
C746 C744 1.358 . S
C746 N747 1.279 . S
C746 H787 0.930 . S
N747 C745 1.314 . S
N747 C746 1.279 . S
C748 C750 1.353 . S
C748 N751 1.314 . S
C748 H754 0.930 . S
C749 N751 1.279 . S
C749 C752 1.358 . S
C749 H755 0.930 . S
C750 C748 1.353 . S
C750 C753 1.348 . S
C750 H788 0.917 1_554 S
N751 Li706 1.990 . S
N751 C748 1.314 . S
N751 C749 1.279 . S
C752 C749 1.358 . S
C752 C753 1.356 . S
C752 H789 0.930 . S
C753 C750 1.348 . S
C753 C752 1.356 . S
H754 C748 0.930 . S
H755 C749 0.930 . S
C756 N757 1.314 . S
C756 C758 1.353 . S
C756 H762 0.930 . S
N757 Li707 1.990 . S
N757 C756 1.314 . S
N757 C760 1.279 . S
C758 C756 1.353 . S
C758 C761 1.348 . S
C758 H790 0.929 . S
C759 C760 1.358 . S
C759 C761 1.356 . S
C759 H791 0.930 . S
C760 N757 1.279 . S
C760 C759 1.358 . S
C760 H763 0.930 . S
C761 C758 1.348 . S
C761 C759 1.356 . S
H762 C756 0.930 . S
H763 C760 0.930 . S
O764 Li704 1.956 . S
O764 Li705 1.970 . S
O764 Li706 1.961 . S
O764 C708 1.325 . S
O765 Li704 1.970 . S
O765 Li705 1.956 . S
O765 Li707 1.961 . S
O765 C714 1.325 . S
O766 Li704 1.961 . S
O766 Li706 1.956 . S
O766 Li707 1.970 . S
O766 C736 1.325 . S
O767 Li705 1.961 . S
O767 Li706 1.970 . S
O767 Li707 1.956 . S
O767 C742 1.325 . S
H768 C710 0.929 . S
H769 C711 0.930 . S
H770 C712 0.930 . S
H771 C713 0.930 . S
H772 C715 0.930 . S
H773 C717 0.929 . S
H774 C718 0.930 . S
H775 C719 0.930 . S
H776 C722 0.930 . S
H777 C725 0.929 . S
H778 C730 0.929 . S
H779 C731 0.930 . S
H780 C738 0.929 . S
H781 C739 0.930 . S
H782 C740 0.930 . S
H783 C741 0.930 . S
H784 C743 0.929 . S
H785 C744 0.930 . S
H786 C745 0.930 . S
H787 C746 0.930 . S
H788 C750 0.917 1_556 S
H789 C752 0.930 . S
H790 C758 0.929 . S
H791 C759 0.930 . S
Li792 N809 1.990 . S
Li792 O852 1.956 . S
Li792 O853 1.970 . S
Li792 O854 1.961 . S
Li793 N817 1.990 . S
Li793 O852 1.970 . S
Li793 O853 1.956 . S
Li793 O855 1.961 . S
Li794 N839 1.990 . S
Li794 O852 1.961 . S
Li794 O854 1.956 . S
Li794 O855 1.970 . S
Li795 N845 1.990 . S
Li795 O853 1.961 . S
Li795 O854 1.970 . S
Li795 O855 1.956 . S
C796 C798 1.348 . S
C796 C799 1.356 . S
C796 O852 1.325 . S
N797 C800 1.314 . S
N797 C801 1.279 . S
C798 C796 1.348 . S
C798 C800 1.353 . S
C798 H856 0.929 . S
C799 C796 1.356 . S
C799 C801 1.358 . S
C799 H857 0.930 . S
C800 N797 1.314 . S
C800 C798 1.353 . S
C800 H858 0.930 . S
C801 N797 1.279 . S
C801 C799 1.358 . S
C801 H859 0.930 . S
C802 C805 1.348 . S
C802 C806 1.356 . S
C802 O853 1.325 . S
C803 N804 1.279 . S
C803 C806 1.358 . S
C803 H860 0.930 . S
N804 C803 1.279 . S
N804 C807 1.314 . S
C805 C802 1.348 . S
C805 C807 1.353 . S
C805 H861 0.929 . S
C806 C802 1.356 . S
C806 C803 1.358 . S
C806 H862 0.930 . S
C807 N804 1.314 . S
C807 C805 1.353 . S
C807 H863 0.930 . S
C808 N809 1.314 . S
C808 C813 1.353 . S
C808 H814 0.930 . S
N809 Li792 1.990 . S
N809 C808 1.314 . S
N809 C811 1.279 . S
C810 C811 1.358 . S
C810 C812 1.356 . S
C810 H864 0.930 . S
C811 N809 1.279 . S
C811 C810 1.358 . S
C811 H815 0.930 . S
C812 C810 1.356 . S
C812 C813 1.348 . S
C813 C808 1.353 . S
C813 C812 1.348 . S
C813 H865 0.929 . S
H814 C808 0.930 . S
H815 C811 0.930 . S
C816 N817 1.314 . S
C816 C818 1.353 . S
C816 H822 0.930 . S
N817 Li793 1.990 . S
N817 C816 1.314 . S
N817 C820 1.279 . S
C818 C816 1.353 . S
C818 C821 1.348 . S
C818 H866 0.929 . S
C819 C820 1.358 . S
C819 C821 1.356 . S
C819 H867 0.930 . S
C820 N817 1.279 . S
C820 C819 1.358 . S
C820 H823 0.930 . S
C821 C818 1.348 . S
C821 C819 1.356 . S
H822 C816 0.930 . S
H823 C820 0.930 . S
C824 C826 1.348 . S
C824 C827 1.356 . S
C824 O854 1.325 . S
N825 C828 1.314 . S
N825 C829 1.279 . S
C826 C824 1.348 . S
C826 C828 1.353 . S
C826 H868 0.929 . S
C827 C824 1.356 . S
C827 C829 1.358 . S
C827 H869 0.930 . S
C828 N825 1.314 . S
C828 C826 1.353 . S
C828 H870 0.930 . S
C829 N825 1.279 . S
C829 C827 1.358 . S
C829 H871 0.930 . S
C830 C831 1.348 . S
C830 C832 1.356 . S
C830 O855 1.325 . S
C831 C830 1.348 . S
C831 C833 1.353 . S
C831 H872 0.929 . S
C832 C830 1.356 . S
C832 C834 1.358 . S
C832 H873 0.930 . S
C833 C831 1.353 . S
C833 N835 1.314 . S
C833 H874 0.930 . S
C834 C832 1.358 . S
C834 N835 1.279 . S
C834 H875 0.930 . S
N835 C833 1.314 . S
N835 C834 1.279 . S
C836 C838 1.353 . S
C836 N839 1.314 . S
C836 H842 0.930 . S
C837 N839 1.279 . S
C837 C840 1.358 . S
C837 H843 0.930 . S
C838 C836 1.353 . S
C838 C841 1.348 . S
C838 H876 0.929 . S
N839 Li794 1.990 . S
N839 C836 1.314 . S
N839 C837 1.279 . S
C840 C837 1.358 . S
C840 C841 1.356 . S
C840 H877 0.930 . S
C841 C838 1.348 . S
C841 C840 1.356 . S
H842 C836 0.930 . S
H843 C837 0.930 . S
C844 N845 1.314 . S
C844 C846 1.353 . S
C844 H850 0.930 . S
N845 Li795 1.990 . S
N845 C844 1.314 . S
N845 C848 1.279 . S
C846 C844 1.353 . S
C846 C849 1.348 . S
C846 H878 0.929 . S
C847 C848 1.358 . S
C847 C849 1.356 . S
C847 H879 0.930 . S
C848 N845 1.279 . S
C848 C847 1.358 . S
C848 H851 0.930 . S
C849 C846 1.348 . S
C849 C847 1.356 . S
H850 C844 0.930 . S
H851 C848 0.930 . S
O852 Li792 1.956 . S
O852 Li793 1.970 . S
O852 Li794 1.961 . S
O852 C796 1.325 . S
O853 Li792 1.970 . S
O853 Li793 1.956 . S
O853 Li795 1.961 . S
O853 C802 1.325 . S
O854 Li792 1.961 . S
O854 Li794 1.956 . S
O854 Li795 1.970 . S
O854 C824 1.325 . S
O855 Li793 1.961 . S
O855 Li794 1.970 . S
O855 Li795 1.956 . S
O855 C830 1.325 . S
H856 C798 0.929 . S
H857 C799 0.930 . S
H858 C800 0.930 . S
H859 C801 0.930 . S
H860 C803 0.930 . S
H861 C805 0.929 . S
H862 C806 0.930 . S
H863 C807 0.930 . S
H864 C810 0.930 . S
H865 C813 0.929 . S
H866 C818 0.929 . S
H867 C819 0.930 . S
H868 C826 0.929 . S
H869 C827 0.930 . S
H870 C828 0.930 . S
H871 C829 0.930 . S
H872 C831 0.929 . S
H873 C832 0.930 . S
H874 C833 0.930 . S
H875 C834 0.930 . S
H876 C838 0.929 . S
H877 C840 0.930 . S
H878 C846 0.929 . S
H879 C847 0.930 . S
Li880 N897 1.990 . S
Li880 O940 1.956 . S
Li880 O941 1.970 . S
Li880 O942 1.961 . S
Li881 N905 1.990 . S
Li881 O940 1.970 . S
Li881 O941 1.956 . S
Li881 O943 1.961 . S
Li882 N927 1.990 . S
Li882 O940 1.961 . S
Li882 O942 1.956 . S
Li882 O943 1.970 . S
Li883 N933 1.990 . S
Li883 O941 1.961 . S
Li883 O942 1.970 . S
Li883 O943 1.956 . S
C884 C886 1.348 . S
C884 C887 1.356 . S
C884 O940 1.325 . S
N885 C888 1.314 . S
N885 C889 1.279 . S
C886 C884 1.348 . S
C886 C888 1.353 . S
C886 H944 0.929 . S
C887 C884 1.356 . S
C887 C889 1.358 . S
C887 H945 0.930 . S
C888 N885 1.314 . S
C888 C886 1.353 . S
C888 H946 0.930 . S
C889 N885 1.279 . S
C889 C887 1.358 . S
C889 H947 0.930 . S
C890 C893 1.348 . S
C890 C894 1.356 . S
C890 O941 1.325 . S
C891 N892 1.279 . S
C891 C894 1.358 . S
C891 H948 0.930 . S
N892 C891 1.279 . S
N892 C895 1.314 . S
C893 C890 1.348 . S
C893 C895 1.353 . S
C893 H949 0.929 . S
C894 C890 1.356 . S
C894 C891 1.358 . S
C894 H950 0.930 . S
C895 N892 1.314 . S
C895 C893 1.353 . S
C895 H951 0.930 . S
C896 N897 1.314 . S
C896 C901 1.353 . S
C896 H902 0.930 . S
N897 Li880 1.990 . S
N897 C896 1.314 . S
N897 C899 1.279 . S
C898 C899 1.358 . S
C898 C900 1.356 . S
C898 H952 0.930 . S
C899 N897 1.279 . S
C899 C898 1.358 . S
C899 H903 0.930 . S
C900 C898 1.356 . S
C900 C901 1.348 . S
C901 C896 1.353 . S
C901 C900 1.348 . S
C901 H953 0.929 . S
H902 C896 0.930 . S
H903 C899 0.930 . S
C904 N905 1.314 . S
C904 C906 1.353 . S
C904 H910 0.930 . S
N905 Li881 1.990 . S
N905 C904 1.314 . S
N905 C908 1.279 . S
C906 C904 1.353 . S
C906 C909 1.348 . S
C906 H954 0.917 1_556 S
C907 C908 1.358 . S
C907 C909 1.356 . S
C907 H955 0.930 . S
C908 N905 1.279 . S
C908 C907 1.358 . S
C908 H911 0.930 . S
C909 C906 1.348 . S
C909 C907 1.356 . S
H910 C904 0.930 . S
H911 C908 0.930 . S
C912 C914 1.348 . S
C912 C915 1.356 . S
C912 O942 1.325 . S
N913 C916 1.314 . S
N913 C917 1.279 . S
C914 C912 1.348 . S
C914 C916 1.353 . S
C914 H956 0.929 . S
C915 C912 1.356 . S
C915 C917 1.358 . S
C915 H957 0.930 . S
C916 N913 1.314 . S
C916 C914 1.353 . S
C916 H958 0.930 . S
C917 N913 1.279 . S
C917 C915 1.358 . S
C917 H959 0.930 . S
C918 C919 1.348 . S
C918 C920 1.356 1_556 S
C918 O943 1.325 . S
C919 C918 1.348 . S
C919 C921 1.353 1_556 S
C919 H960 0.929 . S
C920 C918 1.356 1_554 S
C920 C922 1.358 . S
C920 H961 0.930 . S
C921 C919 1.353 1_554 S
C921 N923 1.314 . S
C921 H962 0.930 . S
C922 C920 1.358 . S
C922 N923 1.279 . S
C922 H963 0.930 . S
N923 C921 1.314 . S
N923 C922 1.279 . S
C924 C926 1.353 . S
C924 N927 1.314 . S
C924 H930 0.930 . S
C925 N927 1.279 . S
C925 C928 1.358 . S
C925 H931 0.930 . S
C926 C924 1.353 . S
C926 C929 1.348 . S
C926 H964 0.929 . S
N927 Li882 1.990 . S
N927 C924 1.314 . S
N927 C925 1.279 . S
C928 C925 1.358 . S
C928 C929 1.356 . S
C928 H965 0.930 . S
C929 C926 1.348 . S
C929 C928 1.356 . S
H930 C924 0.930 . S
H931 C925 0.930 . S
C932 N933 1.314 . S
C932 C934 1.353 . S
C932 H938 0.930 . S
N933 Li883 1.990 . S
N933 C932 1.314 . S
N933 C936 1.279 . S
C934 C932 1.353 . S
C934 C937 1.348 . S
C934 H966 0.929 . S
C935 C936 1.358 1_554 S
C935 C937 1.356 1_554 S
C935 H967 0.930 . S
C936 N933 1.279 . S
C936 C935 1.358 1_556 S
C936 H939 0.930 . S
C937 C934 1.348 . S
C937 C935 1.356 1_556 S
H938 C932 0.930 . S
H939 C936 0.930 . S
O940 Li880 1.956 . S
O940 Li881 1.970 . S
O940 Li882 1.961 . S
O940 C884 1.325 . S
O941 Li880 1.970 . S
O941 Li881 1.956 . S
O941 Li883 1.961 . S
O941 C890 1.325 . S
O942 Li880 1.961 . S
O942 Li882 1.956 . S
O942 Li883 1.970 . S
O942 C912 1.325 . S
O943 Li881 1.961 . S
O943 Li882 1.970 . S
O943 Li883 1.956 . S
O943 C918 1.325 . S
H944 C886 0.929 . S
H945 C887 0.930 . S
H946 C888 0.930 . S
H947 C889 0.930 . S
H948 C891 0.930 . S
H949 C893 0.929 . S
H950 C894 0.930 . S
H951 C895 0.930 . S
H952 C898 0.930 . S
H953 C901 0.929 . S
H954 C906 0.917 1_554 S
H955 C907 0.930 . S
H956 C914 0.929 . S
H957 C915 0.930 . S
H958 C916 0.930 . S
H959 C917 0.930 . S
H960 C919 0.929 . S
H961 C920 0.930 . S
H962 C921 0.930 . S
H963 C922 0.930 . S
H964 C926 0.929 . S
H965 C928 0.930 . S
H966 C934 0.929 . S
H967 C935 0.930 . S
Li968 N985 1.990 . S
Li968 O1028 1.956 . S
Li968 O1029 1.970 . S
Li968 O1030 1.961 . S
Li969 N993 1.990 . S
Li969 O1028 1.970 . S
Li969 O1029 1.956 . S
Li969 O1031 1.961 . S
Li970 N1015 1.990 . S
Li970 O1028 1.961 . S
Li970 O1030 1.956 . S
Li970 O1031 1.970 . S
Li971 N1021 1.990 . S
Li971 O1029 1.961 . S
Li971 O1030 1.970 . S
Li971 O1031 1.956 . S
C972 C974 1.348 . S
C972 C975 1.356 . S
C972 O1028 1.325 . S
N973 C976 1.314 . S
N973 C977 1.279 . S
C974 C972 1.348 . S
C974 C976 1.353 . S
C974 H1032 0.929 . S
C975 C972 1.356 . S
C975 C977 1.358 . S
C975 H1033 0.930 . S
C976 N973 1.314 . S
C976 C974 1.353 . S
C976 H1034 0.930 . S
C977 N973 1.279 . S
C977 C975 1.358 . S
C977 H1035 0.930 . S
C978 C981 1.348 . S
C978 C982 1.356 . S
C978 O1029 1.325 . S
C979 N980 1.279 . S
C979 C982 1.358 . S
C979 H1036 0.930 . S
N980 C979 1.279 . S
N980 C983 1.314 . S
C981 C978 1.348 . S
C981 C983 1.353 . S
C981 H1037 0.929 . S
C982 C978 1.356 . S
C982 C979 1.358 . S
C982 H1038 0.930 . S
C983 N980 1.314 . S
C983 C981 1.353 . S
C983 H1039 0.930 . S
C984 N985 1.314 . S
C984 C989 1.353 . S
C984 H990 0.930 . S
N985 Li968 1.990 . S
N985 C984 1.314 . S
N985 C987 1.279 . S
C986 C987 1.358 . S
C986 C988 1.356 . S
C986 H1040 0.930 . S
C987 N985 1.279 . S
C987 C986 1.358 . S
C987 H991 0.930 . S
C988 C986 1.356 . S
C988 C989 1.348 . S
C989 C984 1.353 . S
C989 C988 1.348 . S
C989 H1041 0.929 . S
H990 C984 0.930 . S
H991 C987 0.930 . S
C992 N993 1.314 . S
C992 C994 1.353 . S
C992 H998 0.930 . S
N993 Li969 1.990 . S
N993 C992 1.314 . S
N993 C996 1.279 . S
C994 C992 1.353 . S
C994 C997 1.348 . S
C994 H1042 0.929 . S
C995 C996 1.358 . S
C995 C997 1.356 . S
C995 H1043 0.930 . S
C996 N993 1.279 . S
C996 C995 1.358 . S
C996 H999 0.930 . S
C997 C994 1.348 . S
C997 C995 1.356 . S
H998 C992 0.930 . S
H999 C996 0.930 . S
C1000 C1002 1.348 . S
C1000 C1003 1.356 . S
C1000 O1030 1.325 . S
N1001 C1004 1.314 . S
N1001 C1005 1.279 . S
C1002 C1000 1.348 . S
C1002 C1004 1.353 . S
C1002 H1044 0.929 . S
C1003 C1000 1.356 . S
C1003 C1005 1.358 . S
C1003 H1045 0.930 . S
C1004 N1001 1.314 . S
C1004 C1002 1.353 . S
C1004 H1046 0.930 . S
C1005 N1001 1.279 . S
C1005 C1003 1.358 . S
C1005 H1047 0.930 . S
C1006 C1007 1.348 . S
C1006 C1008 1.356 . S
C1006 O1031 1.325 . S
C1007 C1006 1.348 . S
C1007 C1009 1.353 . S
C1007 H1048 0.929 . S
C1008 C1006 1.356 . S
C1008 C1010 1.358 . S
C1008 H1049 0.930 . S
C1009 C1007 1.353 . S
C1009 N1011 1.314 . S
C1009 H1050 0.930 . S
C1010 C1008 1.358 . S
C1010 N1011 1.279 . S
C1010 H1051 0.930 . S
N1011 C1009 1.314 . S
N1011 C1010 1.279 . S
C1012 C1014 1.353 . S
C1012 N1015 1.314 . S
C1012 H1018 0.930 . S
C1013 N1015 1.279 . S
C1013 C1016 1.358 . S
C1013 H1019 0.930 . S
C1014 C1012 1.353 . S
C1014 C1017 1.348 . S
C1014 H1052 0.929 . S
N1015 Li970 1.990 . S
N1015 C1012 1.314 . S
N1015 C1013 1.279 . S
C1016 C1013 1.358 . S
C1016 C1017 1.356 . S
C1016 H1053 0.930 . S
C1017 C1014 1.348 . S
C1017 C1016 1.356 . S
H1018 C1012 0.930 . S
H1019 C1013 0.930 . S
C1020 N1021 1.314 . S
C1020 C1022 1.353 . S
C1020 H1026 0.930 . S
N1021 Li971 1.990 . S
N1021 C1020 1.314 . S
N1021 C1024 1.279 . S
C1022 C1020 1.353 . S
C1022 C1025 1.348 . S
C1022 H1054 0.929 . S
C1023 C1024 1.358 . S
C1023 C1025 1.356 . S
C1023 H1055 0.930 . S
C1024 N1021 1.279 . S
C1024 C1023 1.358 . S
C1024 H1027 0.930 . S
C1025 C1022 1.348 . S
C1025 C1023 1.356 . S
H1026 C1020 0.930 . S
H1027 C1024 0.930 . S
O1028 Li968 1.956 . S
O1028 Li969 1.970 . S
O1028 Li970 1.961 . S
O1028 C972 1.325 . S
O1029 Li968 1.970 . S
O1029 Li969 1.956 . S
O1029 Li971 1.961 . S
O1029 C978 1.325 . S
O1030 Li968 1.961 . S
O1030 Li970 1.956 . S
O1030 Li971 1.970 . S
O1030 C1000 1.325 . S
O1031 Li969 1.961 . S
O1031 Li970 1.970 . S
O1031 Li971 1.956 . S
O1031 C1006 1.325 . S
H1032 C974 0.929 . S
H1033 C975 0.930 . S
H1034 C976 0.930 . S
H1035 C977 0.930 . S
H1036 C979 0.930 . S
H1037 C981 0.929 . S
H1038 C982 0.930 . S
H1039 C983 0.930 . S
H1040 C986 0.930 . S
H1041 C989 0.929 . S
H1042 C994 0.929 . S
H1043 C995 0.930 . S
H1044 C1002 0.929 . S
H1045 C1003 0.930 . S
H1046 C1004 0.930 . S
H1047 C1005 0.930 . S
H1048 C1007 0.929 . S
H1049 C1008 0.930 . S
H1050 C1009 0.930 . S
H1051 C1010 0.930 . S
H1052 C1014 0.929 . S
H1053 C1016 0.930 . S
H1054 C1022 0.929 . S
H1055 C1023 0.930 . S
Li1056 N1073 1.990 . S
Li1056 O1116 1.956 . S
Li1056 O1117 1.970 . S
Li1056 O1118 1.961 . S
Li1057 N1081 1.990 . S
Li1057 O1116 1.970 . S
Li1057 O1117 1.956 . S
Li1057 O1119 1.961 . S
Li1058 N1103 1.990 . S
Li1058 O1116 1.961 . S
Li1058 O1118 1.956 . S
Li1058 O1119 1.970 . S
Li1059 N1109 1.990 . S
Li1059 O1117 1.961 . S
Li1059 O1118 1.970 . S
Li1059 O1119 1.956 . S
C1060 C1062 1.348 . S
C1060 C1063 1.356 . S
C1060 O1116 1.325 . S
N1061 C1064 1.314 . S
N1061 C1065 1.279 . S
C1062 C1060 1.348 . S
C1062 C1064 1.353 . S
C1062 H1120 0.929 . S
C1063 C1060 1.356 . S
C1063 C1065 1.358 . S
C1063 H1121 0.930 . S
C1064 N1061 1.314 . S
C1064 C1062 1.353 . S
C1064 H1122 0.930 . S
C1065 N1061 1.279 . S
C1065 C1063 1.358 . S
C1065 H1123 0.930 . S
C1066 C1069 1.348 1_556 S
C1066 C1070 1.356 . S
C1066 O1117 1.325 . S
C1067 N1068 1.279 . S
C1067 C1070 1.358 1_554 S
C1067 H1124 0.930 . S
N1068 C1067 1.279 . S
N1068 C1071 1.314 . S
C1069 C1066 1.348 1_554 S
C1069 C1071 1.353 . S
C1069 H1125 0.929 . S
C1070 C1066 1.356 . S
C1070 C1067 1.358 1_556 S
C1070 H1126 0.930 . S
C1071 N1068 1.314 . S
C1071 C1069 1.353 . S
C1071 H1127 0.930 . S
C1072 N1073 1.314 . S
C1072 C1077 1.353 . S
C1072 H1078 0.930 . S
N1073 Li1056 1.990 . S
N1073 C1072 1.314 . S
N1073 C1075 1.279 . S
C1074 C1075 1.358 . S
C1074 C1076 1.356 . S
C1074 H1128 0.930 . S
C1075 N1073 1.279 . S
C1075 C1074 1.358 . S
C1075 H1079 0.930 . S
C1076 C1074 1.356 . S
C1076 C1077 1.348 . S
C1077 C1072 1.353 . S
C1077 C1076 1.348 . S
C1077 H1129 0.929 . S
H1078 C1072 0.930 . S
H1079 C1075 0.930 . S
C1080 N1081 1.314 . S
C1080 C1082 1.353 . S
C1080 H1086 0.930 . S
N1081 Li1057 1.990 . S
N1081 C1080 1.314 . S
N1081 C1084 1.279 . S
C1082 C1080 1.353 . S
C1082 C1085 1.348 . S
C1082 H1130 0.929 . S
C1083 C1084 1.358 1_554 S
C1083 C1085 1.356 1_554 S
C1083 H1131 0.930 . S
C1084 N1081 1.279 . S
C1084 C1083 1.358 1_556 S
C1084 H1087 0.930 1_556 S
C1085 C1082 1.348 . S
C1085 C1083 1.356 1_556 S
H1086 C1080 0.930 . S
H1087 C1084 0.930 1_554 S
C1088 C1090 1.348 . S
C1088 C1091 1.356 . S
C1088 O1118 1.325 . S
N1089 C1092 1.314 . S
N1089 C1093 1.279 . S
C1090 C1088 1.348 . S
C1090 C1092 1.353 . S
C1090 H1132 0.929 . S
C1091 C1088 1.356 . S
C1091 C1093 1.358 . S
C1091 H1133 0.930 . S
C1092 N1089 1.314 . S
C1092 C1090 1.353 . S
C1092 H1134 0.930 . S
C1093 N1089 1.279 . S
C1093 C1091 1.358 . S
C1093 H1135 0.930 . S
C1094 C1095 1.348 . S
C1094 C1096 1.356 . S
C1094 O1119 1.325 . S
C1095 C1094 1.348 . S
C1095 C1097 1.353 . S
C1095 H1136 0.929 . S
C1096 C1094 1.356 . S
C1096 C1098 1.358 . S
C1096 H1137 0.930 . S
C1097 C1095 1.353 . S
C1097 N1099 1.314 . S
C1097 H1138 0.930 . S
C1098 C1096 1.358 . S
C1098 N1099 1.279 . S
C1098 H1139 0.930 . S
N1099 C1097 1.314 . S
N1099 C1098 1.279 . S
C1100 C1102 1.353 . S
C1100 N1103 1.314 . S
C1100 H1106 0.930 . S
C1101 N1103 1.279 . S
C1101 C1104 1.358 . S
C1101 H1107 0.930 . S
C1102 C1100 1.353 . S
C1102 C1105 1.348 . S
C1102 H1140 0.929 . S
N1103 Li1058 1.990 . S
N1103 C1100 1.314 . S
N1103 C1101 1.279 . S
C1104 C1101 1.358 . S
C1104 C1105 1.356 . S
C1104 H1141 0.930 . S
C1105 C1102 1.348 . S
C1105 C1104 1.356 . S
H1106 C1100 0.930 . S
H1107 C1101 0.930 . S
C1108 N1109 1.314 . S
C1108 C1110 1.353 . S
C1108 H1114 0.930 . S
N1109 Li1059 1.990 . S
N1109 C1108 1.314 . S
N1109 C1112 1.279 . S
C1110 C1108 1.353 . S
C1110 C1113 1.348 . S
C1110 H1142 0.929 . S
C1111 C1112 1.358 . S
C1111 C1113 1.356 . S
C1111 H1143 0.930 . S
C1112 N1109 1.279 . S
C1112 C1111 1.358 . S
C1112 H1115 0.930 . S
C1113 C1110 1.348 . S
C1113 C1111 1.356 . S
H1114 C1108 0.930 . S
H1115 C1112 0.930 . S
O1116 Li1056 1.956 . S
O1116 Li1057 1.970 . S
O1116 Li1058 1.961 . S
O1116 C1060 1.325 . S
O1117 Li1056 1.970 . S
O1117 Li1057 1.956 . S
O1117 Li1059 1.961 . S
O1117 C1066 1.325 . S
O1118 Li1056 1.961 . S
O1118 Li1058 1.956 . S
O1118 Li1059 1.970 . S
O1118 C1088 1.325 . S
O1119 Li1057 1.961 . S
O1119 Li1058 1.970 . S
O1119 Li1059 1.956 . S
O1119 C1094 1.325 . S
H1120 C1062 0.929 . S
H1121 C1063 0.930 . S
H1122 C1064 0.930 . S
H1123 C1065 0.930 . S
H1124 C1067 0.930 . S
H1125 C1069 0.929 . S
H1126 C1070 0.930 . S
H1127 C1071 0.930 . S
H1128 C1074 0.930 . S
H1129 C1077 0.929 . S
H1130 C1082 0.929 . S
H1131 C1083 0.930 . S
H1132 C1090 0.929 . S
H1133 C1091 0.930 . S
H1134 C1092 0.930 . S
H1135 C1093 0.930 . S
H1136 C1095 0.929 . S
H1137 C1096 0.930 . S
H1138 C1097 0.930 . S
H1139 C1098 0.930 . S
H1140 C1102 0.929 . S
H1141 C1104 0.930 . S
H1142 C1110 0.929 . S
H1143 C1111 0.930 . S
Li1144 N1161 1.990 . S
Li1144 O1204 1.956 . S
Li1144 O1205 1.970 . S
Li1144 O1206 1.961 . S
Li1145 N1169 1.990 . S
Li1145 O1204 1.970 . S
Li1145 O1205 1.956 . S
Li1145 O1207 1.961 . S
Li1146 N1191 1.990 . S
Li1146 O1204 1.961 . S
Li1146 O1206 1.956 . S
Li1146 O1207 1.970 . S
Li1147 N1197 1.990 . S
Li1147 O1205 1.961 . S
Li1147 O1206 1.970 . S
Li1147 O1207 1.956 . S
C1148 C1150 1.348 . S
C1148 C1151 1.356 . S
C1148 O1204 1.325 . S
N1149 C1152 1.314 . S
N1149 C1153 1.279 . S
C1150 C1148 1.348 . S
C1150 C1152 1.353 . S
C1150 H1208 0.929 . S
C1151 C1148 1.356 . S
C1151 C1153 1.358 . S
C1151 H1209 0.930 . S
C1152 N1149 1.314 . S
C1152 C1150 1.353 . S
C1152 H1210 0.930 . S
C1153 N1149 1.279 . S
C1153 C1151 1.358 . S
C1153 H1211 0.930 . S
C1154 C1157 1.348 . S
C1154 C1158 1.356 . S
C1154 O1205 1.325 . S
C1155 N1156 1.279 . S
C1155 C1158 1.358 . S
C1155 H1212 0.930 . S
N1156 C1155 1.279 . S
N1156 C1159 1.314 . S
C1157 C1154 1.348 . S
C1157 C1159 1.353 . S
C1157 H1213 0.929 . S
C1158 C1154 1.356 . S
C1158 C1155 1.358 . S
C1158 H1214 0.930 . S
C1159 N1156 1.314 . S
C1159 C1157 1.353 . S
C1159 H1215 0.930 . S
C1160 N1161 1.314 . S
C1160 C1165 1.353 . S
C1160 H1166 0.930 . S
N1161 Li1144 1.990 . S
N1161 C1160 1.314 . S
N1161 C1163 1.279 . S
C1162 C1163 1.358 . S
C1162 C1164 1.356 . S
C1162 H1216 0.930 . S
C1163 N1161 1.279 . S
C1163 C1162 1.358 . S
C1163 H1167 0.930 . S
C1164 C1162 1.356 . S
C1164 C1165 1.348 . S
C1165 C1160 1.353 . S
C1165 C1164 1.348 . S
C1165 H1217 0.929 . S
H1166 C1160 0.930 . S
H1167 C1163 0.930 . S
C1168 N1169 1.314 . S
C1168 C1170 1.353 . S
C1168 H1174 0.930 . S
N1169 Li1145 1.990 . S
N1169 C1168 1.314 . S
N1169 C1172 1.279 . S
C1170 C1168 1.353 . S
C1170 C1173 1.348 . S
C1170 H1218 0.929 . S
C1171 C1172 1.358 . S
C1171 C1173 1.356 . S
C1171 H1219 0.930 . S
C1172 N1169 1.279 . S
C1172 C1171 1.358 . S
C1172 H1175 0.930 . S
C1173 C1170 1.348 . S
C1173 C1171 1.356 . S
H1174 C1168 0.930 . S
H1175 C1172 0.930 . S
C1176 C1178 1.348 . S
C1176 C1179 1.356 . S
C1176 O1206 1.325 . S
N1177 C1180 1.314 . S
N1177 C1181 1.279 . S
C1178 C1176 1.348 . S
C1178 C1180 1.353 . S
C1178 H1220 0.929 . S
C1179 C1176 1.356 . S
C1179 C1181 1.358 . S
C1179 H1221 0.930 . S
C1180 N1177 1.314 . S
C1180 C1178 1.353 . S
C1180 H1222 0.930 . S
C1181 N1177 1.279 . S
C1181 C1179 1.358 . S
C1181 H1223 0.930 . S
C1182 C1183 1.348 . S
C1182 C1184 1.356 . S
C1182 O1207 1.325 . S
C1183 C1182 1.348 . S
C1183 C1185 1.353 . S
C1183 H1224 0.929 . S
C1184 C1182 1.356 . S
C1184 C1186 1.358 . S
C1184 H1225 0.930 . S
C1185 C1183 1.353 . S
C1185 N1187 1.314 . S
C1185 H1226 0.930 . S
C1186 C1184 1.358 . S
C1186 N1187 1.279 . S
C1186 H1227 0.930 . S
N1187 C1185 1.314 . S
N1187 C1186 1.279 . S
C1188 C1190 1.353 . S
C1188 N1191 1.314 . S
C1188 H1194 0.930 . S
C1189 N1191 1.279 . S
C1189 C1192 1.358 . S
C1189 H1195 0.930 . S
C1190 C1188 1.353 . S
C1190 C1193 1.348 . S
C1190 H1228 0.929 . S
N1191 Li1146 1.990 . S
N1191 C1188 1.314 . S
N1191 C1189 1.279 . S
C1192 C1189 1.358 . S
C1192 C1193 1.356 . S
C1192 H1229 0.930 . S
C1193 C1190 1.348 . S
C1193 C1192 1.356 . S
H1194 C1188 0.930 . S
H1195 C1189 0.930 . S
C1196 N1197 1.314 . S
C1196 C1198 1.353 . S
C1196 H1202 0.930 . S
N1197 Li1147 1.990 . S
N1197 C1196 1.314 . S
N1197 C1200 1.279 . S
C1198 C1196 1.353 . S
C1198 C1201 1.348 . S
C1198 H1230 0.929 . S
C1199 C1200 1.358 . S
C1199 C1201 1.356 . S
C1199 H1231 0.930 . S
C1200 N1197 1.279 . S
C1200 C1199 1.358 . S
C1200 H1203 0.930 . S
C1201 C1198 1.348 . S
C1201 C1199 1.356 . S
H1202 C1196 0.930 . S
H1203 C1200 0.930 . S
O1204 Li1144 1.956 . S
O1204 Li1145 1.970 . S
O1204 Li1146 1.961 . S
O1204 C1148 1.325 . S
O1205 Li1144 1.970 . S
O1205 Li1145 1.956 . S
O1205 Li1147 1.961 . S
O1205 C1154 1.325 . S
O1206 Li1144 1.961 . S
O1206 Li1146 1.956 . S
O1206 Li1147 1.970 . S
O1206 C1176 1.325 . S
O1207 Li1145 1.961 . S
O1207 Li1146 1.970 . S
O1207 Li1147 1.956 . S
O1207 C1182 1.325 . S
H1208 C1150 0.929 . S
H1209 C1151 0.930 . S
H1210 C1152 0.930 . S
H1211 C1153 0.930 . S
H1212 C1155 0.930 . S
H1213 C1157 0.929 . S
H1214 C1158 0.930 . S
H1215 C1159 0.930 . S
H1216 C1162 0.930 . S
H1217 C1165 0.929 . S
H1218 C1170 0.929 . S
H1219 C1171 0.930 . S
H1220 C1178 0.929 . S
H1221 C1179 0.930 . S
H1222 C1180 0.930 . S
H1223 C1181 0.930 . S
H1224 C1183 0.929 . S
H1225 C1184 0.930 . S
H1226 C1185 0.930 . S
H1227 C1186 0.930 . S
H1228 C1190 0.929 . S
H1229 C1192 0.930 . S
H1230 C1198 0.929 . S
H1231 C1199 0.930 . S
Li1232 N1249 1.990 . S
Li1232 O1292 1.956 . S
Li1232 O1293 1.970 . S
Li1232 O1294 1.961 . S
Li1233 N1257 1.990 . S
Li1233 O1292 1.970 . S
Li1233 O1293 1.956 . S
Li1233 O1295 1.961 . S
Li1234 N1279 1.990 . S
Li1234 O1292 1.961 . S
Li1234 O1294 1.956 . S
Li1234 O1295 1.970 . S
Li1235 N1285 1.990 . S
Li1235 O1293 1.961 . S
Li1235 O1294 1.970 . S
Li1235 O1295 1.956 . S
C1236 C1238 1.348 . S
C1236 C1239 1.356 . S
C1236 O1292 1.325 . S
N1237 C1240 1.314 . S
N1237 C1241 1.279 . S
C1238 C1236 1.348 . S
C1238 C1240 1.353 . S
C1238 H1296 0.929 . S
C1239 C1236 1.356 . S
C1239 C1241 1.358 . S
C1239 H1297 0.930 . S
C1240 N1237 1.314 . S
C1240 C1238 1.353 . S
C1240 H1298 0.930 . S
C1241 N1237 1.279 . S
C1241 C1239 1.358 . S
C1241 H1299 0.930 . S
C1242 C1245 1.348 . S
C1242 C1246 1.356 . S
C1242 O1293 1.325 . S
C1243 N1244 1.279 . S
C1243 C1246 1.358 . S
C1243 H1300 0.930 . S
N1244 C1243 1.279 . S
N1244 C1247 1.314 . S
C1245 C1242 1.348 . S
C1245 C1247 1.353 . S
C1245 H1301 0.929 . S
C1246 C1242 1.356 . S
C1246 C1243 1.358 . S
C1246 H1302 0.930 . S
C1247 N1244 1.314 . S
C1247 C1245 1.353 . S
C1247 H1303 0.930 . S
C1248 N1249 1.314 . S
C1248 C1253 1.353 . S
C1248 H1254 0.930 . S
N1249 Li1232 1.990 . S
N1249 C1248 1.314 . S
N1249 C1251 1.279 . S
C1250 C1251 1.358 . S
C1250 C1252 1.356 . S
C1250 H1304 0.930 . S
C1251 N1249 1.279 . S
C1251 C1250 1.358 . S
C1251 H1255 0.930 . S
C1252 C1250 1.356 . S
C1252 C1253 1.348 . S
C1253 C1248 1.353 . S
C1253 C1252 1.348 . S
C1253 H1305 0.929 . S
H1254 C1248 0.930 . S
H1255 C1251 0.930 . S
C1256 N1257 1.314 . S
C1256 C1258 1.353 . S
C1256 H1262 0.930 . S
N1257 Li1233 1.990 . S
N1257 C1256 1.314 . S
N1257 C1260 1.279 . S
C1258 C1256 1.353 . S
C1258 C1261 1.348 . S
C1258 H1306 0.929 . S
C1259 C1260 1.358 . S
C1259 C1261 1.356 . S
C1259 H1307 0.930 . S
C1260 N1257 1.279 . S
C1260 C1259 1.358 . S
C1260 H1263 0.930 . S
C1261 C1258 1.348 . S
C1261 C1259 1.356 . S
H1262 C1256 0.930 . S
H1263 C1260 0.930 . S
C1264 C1266 1.348 1_554 S
C1264 C1267 1.356 . S
C1264 O1294 1.325 . S
N1265 C1268 1.314 . S
N1265 C1269 1.279 . S
C1266 C1264 1.348 1_556 S
C1266 C1268 1.353 . S
C1266 H1308 0.929 . S
C1267 C1264 1.356 . S
C1267 C1269 1.358 1_554 S
C1267 H1309 0.930 . S
C1268 N1265 1.314 . S
C1268 C1266 1.353 . S
C1268 H1310 0.930 . S
C1269 N1265 1.279 . S
C1269 C1267 1.358 1_556 S
C1269 H1311 0.930 . S
C1270 C1271 1.348 . S
C1270 C1272 1.356 . S
C1270 O1295 1.325 . S
C1271 C1270 1.348 . S
C1271 C1273 1.353 . S
C1271 H1312 0.929 . S
C1272 C1270 1.356 . S
C1272 C1274 1.358 . S
C1272 H1313 0.930 . S
C1273 C1271 1.353 . S
C1273 N1275 1.314 . S
C1273 H1314 0.930 . S
C1274 C1272 1.358 . S
C1274 N1275 1.279 . S
C1274 H1315 0.930 . S
N1275 C1273 1.314 . S
N1275 C1274 1.279 . S
C1276 C1278 1.353 . S
C1276 N1279 1.314 . S
C1276 H1282 0.930 . S
C1277 N1279 1.279 . S
C1277 C1280 1.358 1_554 S
C1277 H1283 0.930 1_554 S
C1278 C1276 1.353 . S
C1278 C1281 1.348 . S
C1278 H1316 0.929 . S
N1279 Li1234 1.990 . S
N1279 C1276 1.314 . S
N1279 C1277 1.279 . S
C1280 C1277 1.358 1_556 S
C1280 C1281 1.356 1_556 S
C1280 H1317 0.930 . S
C1281 C1278 1.348 . S
C1281 C1280 1.356 1_554 S
H1282 C1276 0.930 . S
H1283 C1277 0.930 1_556 S
C1284 N1285 1.314 . S
C1284 C1286 1.353 . S
C1284 H1290 0.930 . S
N1285 Li1235 1.990 . S
N1285 C1284 1.314 . S
N1285 C1288 1.279 . S
C1286 C1284 1.353 . S
C1286 C1289 1.348 . S
C1286 H1318 0.929 . S
C1287 C1288 1.358 . S
C1287 C1289 1.356 . S
C1287 H1319 0.930 . S
C1288 N1285 1.279 . S
C1288 C1287 1.358 . S
C1288 H1291 0.930 . S
C1289 C1286 1.348 . S
C1289 C1287 1.356 . S
H1290 C1284 0.930 . S
H1291 C1288 0.930 . S
O1292 Li1232 1.956 . S
O1292 Li1233 1.970 . S
O1292 Li1234 1.961 . S
O1292 C1236 1.325 . S
O1293 Li1232 1.970 . S
O1293 Li1233 1.956 . S
O1293 Li1235 1.961 . S
O1293 C1242 1.325 . S
O1294 Li1232 1.961 . S
O1294 Li1234 1.956 . S
O1294 Li1235 1.970 . S
O1294 C1264 1.325 . S
O1295 Li1233 1.961 . S
O1295 Li1234 1.970 . S
O1295 Li1235 1.956 . S
O1295 C1270 1.325 . S
H1296 C1238 0.929 . S
H1297 C1239 0.930 . S
H1298 C1240 0.930 . S
H1299 C1241 0.930 . S
H1300 C1243 0.930 . S
H1301 C1245 0.929 . S
H1302 C1246 0.930 . S
H1303 C1247 0.930 . S
H1304 C1250 0.930 . S
H1305 C1253 0.929 . S
H1306 C1258 0.929 . S
H1307 C1259 0.930 . S
H1308 C1266 0.929 . S
H1309 C1267 0.930 . S
H1310 C1268 0.930 . S
H1311 C1269 0.930 . S
H1312 C1271 0.929 . S
H1313 C1272 0.930 . S
H1314 C1273 0.930 . S
H1315 C1274 0.930 . S
H1316 C1278 0.929 . S
H1317 C1280 0.930 . S
H1318 C1286 0.929 . S
H1319 C1287 0.930 . S
Li1320 N1337 1.990 . S
Li1320 O1380 1.956 . S
Li1320 O1381 1.970 . S
Li1320 O1382 1.961 . S
Li1321 N1345 1.990 . S
Li1321 O1380 1.970 . S
Li1321 O1381 1.956 . S
Li1321 O1383 1.961 . S
Li1322 N1367 1.990 . S
Li1322 O1380 1.961 . S
Li1322 O1382 1.956 . S
Li1322 O1383 1.970 . S
Li1323 N1373 1.990 . S
Li1323 O1381 1.961 . S
Li1323 O1382 1.970 . S
Li1323 O1383 1.956 . S
C1324 C1326 1.348 . S
C1324 C1327 1.356 . S
C1324 O1380 1.325 . S
N1325 C1328 1.314 . S
N1325 C1329 1.279 . S
C1326 C1324 1.348 . S
C1326 C1328 1.353 . S
C1326 H1384 0.929 . S
C1327 C1324 1.356 . S
C1327 C1329 1.358 . S
C1327 H1385 0.930 . S
C1328 N1325 1.314 . S
C1328 C1326 1.353 . S
C1328 H1386 0.930 . S
C1329 N1325 1.279 . S
C1329 C1327 1.358 . S
C1329 H1387 0.930 . S
C1330 C1333 1.348 . S
C1330 C1334 1.356 . S
C1330 O1381 1.325 . S
C1331 N1332 1.279 . S
C1331 C1334 1.358 . S
C1331 H1388 0.930 . S
N1332 C1331 1.279 . S
N1332 C1335 1.314 . S
C1333 C1330 1.348 . S
C1333 C1335 1.353 . S
C1333 H1389 0.929 . S
C1334 C1330 1.356 . S
C1334 C1331 1.358 . S
C1334 H1390 0.930 . S
C1335 N1332 1.314 . S
C1335 C1333 1.353 . S
C1335 H1391 0.930 . S
C1336 N1337 1.314 . S
C1336 C1341 1.353 . S
C1336 H1342 0.930 . S
N1337 Li1320 1.990 . S
N1337 C1336 1.314 . S
N1337 C1339 1.279 . S
C1338 C1339 1.358 . S
C1338 C1340 1.356 . S
C1338 H1392 0.930 . S
C1339 N1337 1.279 . S
C1339 C1338 1.358 . S
C1339 H1343 0.930 . S
C1340 C1338 1.356 . S
C1340 C1341 1.348 . S
C1341 C1336 1.353 . S
C1341 C1340 1.348 . S
C1341 H1393 0.929 . S
H1342 C1336 0.930 . S
H1343 C1339 0.930 . S
C1344 N1345 1.314 . S
C1344 C1346 1.353 . S
C1344 H1350 0.930 . S
N1345 Li1321 1.990 . S
N1345 C1344 1.314 . S
N1345 C1348 1.279 . S
C1346 C1344 1.353 . S
C1346 C1349 1.348 . S
C1346 H1394 0.929 . S
C1347 C1348 1.358 . S
C1347 C1349 1.356 . S
C1347 H1395 0.930 . S
C1348 N1345 1.279 . S
C1348 C1347 1.358 . S
C1348 H1351 0.930 . S
C1349 C1346 1.348 . S
C1349 C1347 1.356 . S
H1350 C1344 0.930 . S
H1351 C1348 0.930 . S
C1352 C1354 1.348 . S
C1352 C1355 1.356 . S
C1352 O1382 1.325 . S
N1353 C1356 1.314 . S
N1353 C1357 1.279 . S
C1354 C1352 1.348 . S
C1354 C1356 1.353 . S
C1354 H1396 0.929 . S
C1355 C1352 1.356 . S
C1355 C1357 1.358 . S
C1355 H1397 0.930 . S
C1356 N1353 1.314 . S
C1356 C1354 1.353 . S
C1356 H1398 0.930 . S
C1357 N1353 1.279 . S
C1357 C1355 1.358 . S
C1357 H1399 0.930 . S
C1358 C1359 1.348 . S
C1358 C1360 1.356 . S
C1358 O1383 1.325 . S
C1359 C1358 1.348 . S
C1359 C1361 1.353 . S
C1359 H1400 0.929 . S
C1360 C1358 1.356 . S
C1360 C1362 1.358 . S
C1360 H1401 0.930 . S
C1361 C1359 1.353 . S
C1361 N1363 1.314 . S
C1361 H1402 0.930 . S
C1362 C1360 1.358 . S
C1362 N1363 1.279 . S
C1362 H1403 0.930 . S
N1363 C1361 1.314 . S
N1363 C1362 1.279 . S
C1364 C1366 1.353 . S
C1364 N1367 1.314 . S
C1364 H1370 0.930 . S
C1365 N1367 1.279 . S
C1365 C1368 1.358 . S
C1365 H1371 0.930 . S
C1366 C1364 1.353 . S
C1366 C1369 1.348 . S
C1366 H1404 0.929 . S
N1367 Li1322 1.990 . S
N1367 C1364 1.314 . S
N1367 C1365 1.279 . S
C1368 C1365 1.358 . S
C1368 C1369 1.356 . S
C1368 H1405 0.930 . S
C1369 C1366 1.348 . S
C1369 C1368 1.356 . S
H1370 C1364 0.930 . S
H1371 C1365 0.930 . S
C1372 N1373 1.314 . S
C1372 C1374 1.353 . S
C1372 H1378 0.930 . S
N1373 Li1323 1.990 . S
N1373 C1372 1.314 . S
N1373 C1376 1.279 . S
C1374 C1372 1.353 . S
C1374 C1377 1.348 . S
C1374 H1406 0.929 . S
C1375 C1376 1.358 . S
C1375 C1377 1.356 . S
C1375 H1407 0.930 . S
C1376 N1373 1.279 . S
C1376 C1375 1.358 . S
C1376 H1379 0.930 . S
C1377 C1374 1.348 . S
C1377 C1375 1.356 . S
H1378 C1372 0.930 . S
H1379 C1376 0.930 . S
O1380 Li1320 1.956 . S
O1380 Li1321 1.970 . S
O1380 Li1322 1.961 . S
O1380 C1324 1.325 . S
O1381 Li1320 1.970 . S
O1381 Li1321 1.956 . S
O1381 Li1323 1.961 . S
O1381 C1330 1.325 . S
O1382 Li1320 1.961 . S
O1382 Li1322 1.956 . S
O1382 Li1323 1.970 . S
O1382 C1352 1.325 . S
O1383 Li1321 1.961 . S
O1383 Li1322 1.970 . S
O1383 Li1323 1.956 . S
O1383 C1358 1.325 . S
H1384 C1326 0.929 . S
H1385 C1327 0.930 . S
H1386 C1328 0.930 . S
H1387 C1329 0.930 . S
H1388 C1331 0.930 . S
H1389 C1333 0.929 . S
H1390 C1334 0.930 . S
H1391 C1335 0.930 . S
H1392 C1338 0.930 . S
H1393 C1341 0.929 . S
H1394 C1346 0.929 . S
H1395 C1347 0.930 . S
H1396 C1354 0.929 . S
H1397 C1355 0.930 . S
H1398 C1356 0.930 . S
H1399 C1357 0.930 . S
H1400 C1359 0.929 . S
H1401 C1360 0.930 . S
H1402 C1361 0.930 . S
H1403 C1362 0.930 . S
H1404 C1366 0.929 . S
H1405 C1368 0.930 . S
H1406 C1374 0.929 . S
H1407 C1375 0.930 . S
C20 C1085 1.328 1_554 S
C1164 C137 1.328 . S
C233 C1281 1.328 1_556 S
C1377 C284 1.328 . S
C724 C381 1.328 1_554 S
C460 C841 1.328 . S
C937 C577 1.328 1_556 S
C673 C988 1.328 . S
C49 C205 1.595 1_544 S
C108 C313 1.595 1_565 S
C372 C585 1.589 1_566 S
C469 C665 1.589 1_545 S
C909 C753 1.595 1_556 S
C812 C1017 1.595 . S
C1289 C1076 1.589 1_554 S
C1173 C1369 1.589 . S
C548 C29 1.572 . S
C645 C145 1.572 1_655 S
C225 C409 1.572 . S
C293 C489 1.572 1_455 S
C1252 C733 1.572 1_455 S
C849 C1349 1.572 . S
C1113 C929 1.572 1_455 S
C997 C1193 1.572 . S
C57 C321 1.345 . S
C196 C117 1.345 . S
C401 C636 1.344 . S
C497 C557 1.344 . S
C1025 C761 1.345 . S
C821 C900 1.345 . S
C1340 C1105 1.344 . S
C1201 C1261 1.344 . S
