# Generated by pormake.
# Topology nfb, (4)-cn, num edge types: 1
# Building blocks:
#     Node 0, Type 0, BuildingBlock: AZAVOO_clean_sbu_0, # of connection points: 4
#     Node 1, Type 0, BuildingBlock: AZAVOO_clean_sbu_0, # of connection points: 4
#     Node 2, Type 0, BuildingBlock: AZAVOO_clean_sbu_0, # of connection points: 4
#     Node 3, Type 0, BuildingBlock: AZAVOO_clean_sbu_0, # of connection points: 4
#     Node 4, Type 0, BuildingBlock: AZAVOO_clean_sbu_0, # of connection points: 4
#     Node 5, Type 0, BuildingBlock: AZAVOO_clean_sbu_0, # of connection points: 4
#     Node 6, Type 0, BuildingBlock: AZAVOO_clean_sbu_0, # of connection points: 4
#     Node 7, Type 0, BuildingBlock: AZAVOO_clean_sbu_0, # of connection points: 4
#     Node 8, Type 0, BuildingBlock: AZAVOO_clean_sbu_0, # of connection points: 4
#     Node 9, Type 0, BuildingBlock: AZAVOO_clean_sbu_0, # of connection points: 4
#     Node 10, Type 0, BuildingBlock: AZAVOO_clean_sbu_0, # of connection points: 4
#     Node 11, Type 0, BuildingBlock: AZAVOO_clean_sbu_0, # of connection points: 4
#     Node 12, Type 0, BuildingBlock: AZAVOO_clean_sbu_0, # of connection points: 4
#     Node 13, Type 0, BuildingBlock: AZAVOO_clean_sbu_0, # of connection points: 4
#     Node 14, Type 0, BuildingBlock: AZAVOO_clean_sbu_0, # of connection points: 4
#     Node 15, Type 0, BuildingBlock: AZAVOO_clean_sbu_0, # of connection points: 4
#     Node 16, Type 0, BuildingBlock: AZAVOO_clean_sbu_0, # of connection points: 4
#     Node 17, Type 0, BuildingBlock: AZAVOO_clean_sbu_0, # of connection points: 4
#     Node 18, Type 0, BuildingBlock: AZAVOO_clean_sbu_0, # of connection points: 4
#     Node 19, Type 0, BuildingBlock: AZAVOO_clean_sbu_0, # of connection points: 4
#     Node 20, Type 0, BuildingBlock: AZAVOO_clean_sbu_0, # of connection points: 4
#     Node 21, Type 0, BuildingBlock: AZAVOO_clean_sbu_0, # of connection points: 4
#     Node 22, Type 0, BuildingBlock: AZAVOO_clean_sbu_0, # of connection points: 4
#     Node 23, Type 0, BuildingBlock: AZAVOO_clean_sbu_0, # of connection points: 4
#     Node 24, Type 0, BuildingBlock: AZAVOO_clean_sbu_0, # of connection points: 4
#     Node 25, Type 0, BuildingBlock: AZAVOO_clean_sbu_0, # of connection points: 4
#     Node 26, Type 0, BuildingBlock: AZAVOO_clean_sbu_0, # of connection points: 4
#     Node 27, Type 0, BuildingBlock: AZAVOO_clean_sbu_0, # of connection points: 4
#     Node 28, Type 0, BuildingBlock: AZAVOO_clean_sbu_0, # of connection points: 4
#     Node 29, Type 0, BuildingBlock: AZAVOO_clean_sbu_0, # of connection points: 4
#     Node 30, Type 0, BuildingBlock: AZAVOO_clean_sbu_0, # of connection points: 4
#     Node 31, Type 0, BuildingBlock: AZAVOO_clean_sbu_0, # of connection points: 4
#     Node 32, Type 0, BuildingBlock: AZAVOO_clean_sbu_0, # of connection points: 4
#     Node 33, Type 0, BuildingBlock: AZAVOO_clean_sbu_0, # of connection points: 4
#     Node 34, Type 0, BuildingBlock: AZAVOO_clean_sbu_0, # of connection points: 4
#     Node 35, Type 0, BuildingBlock: AZAVOO_clean_sbu_0, # of connection points: 4
#     Node 36, Type 0, BuildingBlock: AZAVOO_clean_sbu_0, # of connection points: 4
#     Node 37, Type 0, BuildingBlock: AZAVOO_clean_sbu_0, # of connection points: 4
#     Node 38, Type 0, BuildingBlock: AZAVOO_clean_sbu_0, # of connection points: 4
#     Node 39, Type 0, BuildingBlock: AZAVOO_clean_sbu_0, # of connection points: 4
#     Node 40, Type 0, BuildingBlock: AZAVOO_clean_sbu_0, # of connection points: 4
#     Node 41, Type 0, BuildingBlock: AZAVOO_clean_sbu_0, # of connection points: 4
#     Node 42, Type 0, BuildingBlock: AZAVOO_clean_sbu_0, # of connection points: 4
#     Node 43, Type 0, BuildingBlock: AZAVOO_clean_sbu_0, # of connection points: 4
#     Node 44, Type 0, BuildingBlock: AZAVOO_clean_sbu_0, # of connection points: 4
#     Node 45, Type 0, BuildingBlock: AZAVOO_clean_sbu_0, # of connection points: 4
#     Node 46, Type 0, BuildingBlock: AZAVOO_clean_sbu_0, # of connection points: 4
#     Node 47, Type 0, BuildingBlock: AZAVOO_clean_sbu_0, # of connection points: 4
#     Edge 48, Type (0, 0), BuildingBlock: XIVTED_clean_linker_0, # of connection points: 2
#     Edge 49, Type (0, 0), BuildingBlock: XIVTED_clean_linker_0, # of connection points: 2
#     Edge 50, Type (0, 0), BuildingBlock: XIVTED_clean_linker_0, # of connection points: 2
#     Edge 51, Type (0, 0), BuildingBlock: XIVTED_clean_linker_0, # of connection points: 2
#     Edge 52, Type (0, 0), BuildingBlock: XIVTED_clean_linker_0, # of connection points: 2
#     Edge 53, Type (0, 0), BuildingBlock: XIVTED_clean_linker_0, # of connection points: 2
#     Edge 54, Type (0, 0), BuildingBlock: XIVTED_clean_linker_0, # of connection points: 2
#     Edge 55, Type (0, 0), BuildingBlock: XIVTED_clean_linker_0, # of connection points: 2
#     Edge 56, Type (0, 0), BuildingBlock: XIVTED_clean_linker_0, # of connection points: 2
#     Edge 57, Type (0, 0), BuildingBlock: XIVTED_clean_linker_0, # of connection points: 2
#     Edge 58, Type (0, 0), BuildingBlock: XIVTED_clean_linker_0, # of connection points: 2
#     Edge 59, Type (0, 0), BuildingBlock: XIVTED_clean_linker_0, # of connection points: 2
#     Edge 60, Type (0, 0), BuildingBlock: XIVTED_clean_linker_0, # of connection points: 2
#     Edge 61, Type (0, 0), BuildingBlock: XIVTED_clean_linker_0, # of connection points: 2
#     Edge 62, Type (0, 0), BuildingBlock: XIVTED_clean_linker_0, # of connection points: 2
#     Edge 63, Type (0, 0), BuildingBlock: XIVTED_clean_linker_0, # of connection points: 2
#     Edge 64, Type (0, 0), BuildingBlock: XIVTED_clean_linker_0, # of connection points: 2
#     Edge 65, Type (0, 0), BuildingBlock: XIVTED_clean_linker_0, # of connection points: 2
#     Edge 66, Type (0, 0), BuildingBlock: XIVTED_clean_linker_0, # of connection points: 2
#     Edge 67, Type (0, 0), BuildingBlock: XIVTED_clean_linker_0, # of connection points: 2
#     Edge 68, Type (0, 0), BuildingBlock: XIVTED_clean_linker_0, # of connection points: 2
#     Edge 69, Type (0, 0), BuildingBlock: XIVTED_clean_linker_0, # of connection points: 2
#     Edge 70, Type (0, 0), BuildingBlock: XIVTED_clean_linker_0, # of connection points: 2
#     Edge 71, Type (0, 0), BuildingBlock: XIVTED_clean_linker_0, # of connection points: 2
#     Edge 72, Type (0, 0), BuildingBlock: XIVTED_clean_linker_0, # of connection points: 2
#     Edge 73, Type (0, 0), BuildingBlock: XIVTED_clean_linker_0, # of connection points: 2
#     Edge 74, Type (0, 0), BuildingBlock: XIVTED_clean_linker_0, # of connection points: 2
#     Edge 75, Type (0, 0), BuildingBlock: XIVTED_clean_linker_0, # of connection points: 2
#     Edge 76, Type (0, 0), BuildingBlock: XIVTED_clean_linker_0, # of connection points: 2
#     Edge 77, Type (0, 0), BuildingBlock: XIVTED_clean_linker_0, # of connection points: 2
#     Edge 78, Type (0, 0), BuildingBlock: XIVTED_clean_linker_0, # of connection points: 2
#     Edge 79, Type (0, 0), BuildingBlock: XIVTED_clean_linker_0, # of connection points: 2
#     Edge 80, Type (0, 0), BuildingBlock: XIVTED_clean_linker_0, # of connection points: 2
#     Edge 81, Type (0, 0), BuildingBlock: XIVTED_clean_linker_0, # of connection points: 2
#     Edge 82, Type (0, 0), BuildingBlock: XIVTED_clean_linker_0, # of connection points: 2
#     Edge 83, Type (0, 0), BuildingBlock: XIVTED_clean_linker_0, # of connection points: 2
#     Edge 84, Type (0, 0), BuildingBlock: XIVTED_clean_linker_0, # of connection points: 2
#     Edge 85, Type (0, 0), BuildingBlock: XIVTED_clean_linker_0, # of connection points: 2
#     Edge 86, Type (0, 0), BuildingBlock: XIVTED_clean_linker_0, # of connection points: 2
#     Edge 87, Type (0, 0), BuildingBlock: XIVTED_clean_linker_0, # of connection points: 2
#     Edge 88, Type (0, 0), BuildingBlock: XIVTED_clean_linker_0, # of connection points: 2
#     Edge 89, Type (0, 0), BuildingBlock: XIVTED_clean_linker_0, # of connection points: 2
#     Edge 90, Type (0, 0), BuildingBlock: XIVTED_clean_linker_0, # of connection points: 2
#     Edge 91, Type (0, 0), BuildingBlock: XIVTED_clean_linker_0, # of connection points: 2
#     Edge 92, Type (0, 0), BuildingBlock: XIVTED_clean_linker_0, # of connection points: 2
#     Edge 93, Type (0, 0), BuildingBlock: XIVTED_clean_linker_0, # of connection points: 2
#     Edge 94, Type (0, 0), BuildingBlock: XIVTED_clean_linker_0, # of connection points: 2
#     Edge 95, Type (0, 0), BuildingBlock: XIVTED_clean_linker_0, # of connection points: 2
#     Edge 96, Type (0, 0), BuildingBlock: XIVTED_clean_linker_0, # of connection points: 2
#     Edge 97, Type (0, 0), BuildingBlock: XIVTED_clean_linker_0, # of connection points: 2
#     Edge 98, Type (0, 0), BuildingBlock: XIVTED_clean_linker_0, # of connection points: 2
#     Edge 99, Type (0, 0), BuildingBlock: XIVTED_clean_linker_0, # of connection points: 2
#     Edge 100, Type (0, 0), BuildingBlock: XIVTED_clean_linker_0, # of connection points: 2
#     Edge 101, Type (0, 0), BuildingBlock: XIVTED_clean_linker_0, # of connection points: 2
#     Edge 102, Type (0, 0), BuildingBlock: XIVTED_clean_linker_0, # of connection points: 2
#     Edge 103, Type (0, 0), BuildingBlock: XIVTED_clean_linker_0, # of connection points: 2
#     Edge 104, Type (0, 0), BuildingBlock: XIVTED_clean_linker_0, # of connection points: 2
#     Edge 105, Type (0, 0), BuildingBlock: XIVTED_clean_linker_0, # of connection points: 2
#     Edge 106, Type (0, 0), BuildingBlock: XIVTED_clean_linker_0, # of connection points: 2
#     Edge 107, Type (0, 0), BuildingBlock: XIVTED_clean_linker_0, # of connection points: 2
#     Edge 108, Type (0, 0), BuildingBlock: XIVTED_clean_linker_0, # of connection points: 2
#     Edge 109, Type (0, 0), BuildingBlock: XIVTED_clean_linker_0, # of connection points: 2
#     Edge 110, Type (0, 0), BuildingBlock: XIVTED_clean_linker_0, # of connection points: 2
#     Edge 111, Type (0, 0), BuildingBlock: XIVTED_clean_linker_0, # of connection points: 2
#     Edge 112, Type (0, 0), BuildingBlock: XIVTED_clean_linker_0, # of connection points: 2
#     Edge 113, Type (0, 0), BuildingBlock: XIVTED_clean_linker_0, # of connection points: 2
#     Edge 114, Type (0, 0), BuildingBlock: XIVTED_clean_linker_0, # of connection points: 2
#     Edge 115, Type (0, 0), BuildingBlock: XIVTED_clean_linker_0, # of connection points: 2
#     Edge 116, Type (0, 0), BuildingBlock: XIVTED_clean_linker_0, # of connection points: 2
#     Edge 117, Type (0, 0), BuildingBlock: XIVTED_clean_linker_0, # of connection points: 2
#     Edge 118, Type (0, 0), BuildingBlock: XIVTED_clean_linker_0, # of connection points: 2
#     Edge 119, Type (0, 0), BuildingBlock: XIVTED_clean_linker_0, # of connection points: 2
#     Edge 120, Type (0, 0), BuildingBlock: XIVTED_clean_linker_0, # of connection points: 2
#     Edge 121, Type (0, 0), BuildingBlock: XIVTED_clean_linker_0, # of connection points: 2
#     Edge 122, Type (0, 0), BuildingBlock: XIVTED_clean_linker_0, # of connection points: 2
#     Edge 123, Type (0, 0), BuildingBlock: XIVTED_clean_linker_0, # of connection points: 2
#     Edge 124, Type (0, 0), BuildingBlock: XIVTED_clean_linker_0, # of connection points: 2
#     Edge 125, Type (0, 0), BuildingBlock: XIVTED_clean_linker_0, # of connection points: 2
#     Edge 126, Type (0, 0), BuildingBlock: XIVTED_clean_linker_0, # of connection points: 2
#     Edge 127, Type (0, 0), BuildingBlock: XIVTED_clean_linker_0, # of connection points: 2
#     Edge 128, Type (0, 0), BuildingBlock: XIVTED_clean_linker_0, # of connection points: 2
#     Edge 129, Type (0, 0), BuildingBlock: XIVTED_clean_linker_0, # of connection points: 2
#     Edge 130, Type (0, 0), BuildingBlock: XIVTED_clean_linker_0, # of connection points: 2
#     Edge 131, Type (0, 0), BuildingBlock: XIVTED_clean_linker_0, # of connection points: 2
#     Edge 132, Type (0, 0), BuildingBlock: XIVTED_clean_linker_0, # of connection points: 2
#     Edge 133, Type (0, 0), BuildingBlock: XIVTED_clean_linker_0, # of connection points: 2
#     Edge 134, Type (0, 0), BuildingBlock: XIVTED_clean_linker_0, # of connection points: 2
#     Edge 135, Type (0, 0), BuildingBlock: XIVTED_clean_linker_0, # of connection points: 2
#     Edge 136, Type (0, 0), BuildingBlock: XIVTED_clean_linker_0, # of connection points: 2
#     Edge 137, Type (0, 0), BuildingBlock: XIVTED_clean_linker_0, # of connection points: 2
#     Edge 138, Type (0, 0), BuildingBlock: XIVTED_clean_linker_0, # of connection points: 2
#     Edge 139, Type (0, 0), BuildingBlock: XIVTED_clean_linker_0, # of connection points: 2
#     Edge 140, Type (0, 0), BuildingBlock: XIVTED_clean_linker_0, # of connection points: 2
#     Edge 141, Type (0, 0), BuildingBlock: XIVTED_clean_linker_0, # of connection points: 2
#     Edge 142, Type (0, 0), BuildingBlock: XIVTED_clean_linker_0, # of connection points: 2
#     Edge 143, Type (0, 0), BuildingBlock: XIVTED_clean_linker_0, # of connection points: 2
# Relax obj value: 0.370
# Max RMSD: 0.258
# Mean RMSD: 0.204
data_MOF--net-nfb--node1-AZAVOO_clean_sbu_0--edge1-XIVTED_clean_linker_0
_symmetry_space_group_name_H-M    P1
_symmetry_Int_Tables_number       1
_symmetry_cell_setting            triclinic
loop_
_symmetry_equiv_pos_as_xyz
'x, y, z'
_cell_length_a     57.96036
_cell_length_b     58.945714
_cell_length_c     59.134538
_cell_angle_alpha  90.010454
_cell_angle_beta   90.022181
_cell_angle_gamma 89.332898
loop_
_atom_site_label
_atom_site_type_symbol
_atom_site_fract_x
_atom_site_fract_y
_atom_site_fract_z
_atom_type_partial_charge
Mg0 Mg 0.10688 0.10443 0.37707 0.0
O1 O 0.1016 0.143 0.38044 0.0
O2 O 0.06546 0.15056 0.39165 0.0
Mg3 Mg 0.04717 0.11666 0.39577 0.0
C4 C 0.08566 0.15703 0.38615 0.0
C5 C 0.16147 0.11175 0.36183 0.0
O6 O 0.15533 0.11143 0.34045 0.0
O7 O 0.10867 0.10218 0.41558 0.0
O8 O 0.07202 0.11035 0.42487 0.0
O9 O 0.09182 0.10484 0.34114 0.0
O10 O 0.07159 0.10079 0.37229 0.0
C11 C 0.09283 0.1055 0.43022 0.0
C12 C 0.07191 0.10292 0.35081 0.0
O13 O 0.14627 0.10939 0.37716 0.0
Mg14 Mg 0.39914 0.6019 0.87414 0.0
O15 O 0.36002 0.60338 0.87425 0.0
O16 O 0.34552 0.56928 0.8818 0.0
Mg17 Mg 0.37646 0.5456 0.88854 0.0
C18 C 0.34296 0.59029 0.87709 0.0
C19 C 0.40779 0.65332 0.88837 0.0
O20 O 0.42117 0.6438 0.90367 0.0
O21 O 0.39837 0.60136 0.91275 0.0
O22 O 0.38526 0.56653 0.92 0.0
O23 O 0.39876 0.5891 0.83775 0.0
O24 O 0.39871 0.56723 0.86802 0.0
C25 C 0.39261 0.58578 0.92663 0.0
C26 C 0.39773 0.569 0.84649 0.0
O27 O 0.39798 0.64089 0.87369 0.0
Mg28 Mg 0.89248 0.89455 0.37704 0.0
O29 O 0.89975 0.8564 0.37385 0.0
O30 O 0.93593 0.84884 0.3849 0.0
Mg31 Mg 0.95233 0.88231 0.39523 0.0
C32 C 0.91629 0.84242 0.37769 0.0
C33 C 0.8385 0.88467 0.3599 0.0
O34 O 0.84473 0.88486 0.33855 0.0
O35 O 0.88997 0.89008 0.41553 0.0
O36 O 0.9269 0.88251 0.42425 0.0
O37 O 0.90959 0.90136 0.34219 0.0
O38 O 0.92727 0.90127 0.37488 0.0
C39 C 0.90579 0.88515 0.42983 0.0
C40 C 0.92853 0.90359 0.35352 0.0
O41 O 0.85346 0.88795 0.37528 0.0
Mg42 Mg 0.59616 0.39815 0.87268 0.0
O43 O 0.63531 0.3985 0.87548 0.0
O44 O 0.64749 0.43348 0.88332 0.0
Mg45 Mg 0.61497 0.45559 0.88818 0.0
C46 C 0.65144 0.41255 0.87906 0.0
C47 C 0.61347 0.34705 0.86528 0.0
O48 O 0.62933 0.35705 0.85309 0.0
O49 O 0.59457 0.39927 0.91102 0.0
O50 O 0.60564 0.43453 0.91955 0.0
O51 O 0.59871 0.41031 0.83622 0.0
O52 O 0.59578 0.43264 0.86607 0.0
C53 C 0.59882 0.41485 0.92541 0.0
C54 C 0.5985 0.43057 0.84471 0.0
O55 O 0.59735 0.35902 0.87398 0.0
Mg56 Mg 0.13979 0.92123 0.62013 0.0
O57 O 0.13624 0.91654 0.58218 0.0
O58 O 0.16567 0.89576 0.5687 0.0
Mg59 Mg 0.18791 0.88559 0.599 0.0
C60 C 0.14693 0.90699 0.56588 0.0
C61 C 0.09191 0.94238 0.6375 0.0
O62 O 0.10308 0.94386 0.65678 0.0
O63 O 0.12689 0.88477 0.62521 0.0
O64 O 0.15711 0.86561 0.61072 0.0
O65 O 0.16412 0.9504 0.61267 0.0
O66 O 0.17512 0.91489 0.61817 0.0
C67 C 0.13695 0.86628 0.6193 0.0
C68 C 0.18041 0.93519 0.61286 0.0
O69 O 0.10249 0.93484 0.62017 0.0
Mg70 Mg 0.63275 0.61875 0.13179 0.0
O71 O 0.67205 0.6169 0.13556 0.0
O72 O 0.68393 0.58161 0.12733 0.0
Mg73 Mg 0.65232 0.56067 0.11786 0.0
C74 C 0.68802 0.602 0.13325 0.0
C75 C 0.62237 0.66978 0.1193 0.0
O76 O 0.60663 0.65992 0.10682 0.0
O77 O 0.63717 0.61832 0.09367 0.0
O78 O 0.64732 0.58237 0.0859 0.0
O79 O 0.62679 0.60548 0.16761 0.0
O80 O 0.63052 0.58425 0.13712 0.0
C81 C 0.64221 0.60256 0.0796 0.0
C82 C 0.6279 0.5855 0.15854 0.0
O83 O 0.635 0.65762 0.13223 0.0
Mg84 Mg 0.86514 0.08314 0.61481 0.0
O85 O 0.86523 0.08102 0.576 0.0
O86 O 0.8318 0.09616 0.56388 0.0
Mg87 Mg 0.81317 0.11275 0.59353 0.0
C88 C 0.85095 0.08591 0.56025 0.0
C89 C 0.91201 0.06455 0.63407 0.0
O90 O 0.89931 0.06473 0.65248 0.0
O91 O 0.87631 0.12045 0.61293 0.0
O92 O 0.84379 0.13582 0.59882 0.0
O93 O 0.84179 0.05217 0.61491 0.0
O94 O 0.82958 0.08773 0.61542 0.0
C95 C 0.86465 0.13739 0.60539 0.0
C96 C 0.82485 0.06666 0.61418 0.0
O97 O 0.90283 0.07064 0.61545 0.0
Mg98 Mg 0.37119 0.38509 0.13369 0.0
O99 O 0.33228 0.3881 0.13903 0.0
O100 O 0.32126 0.42409 0.13297 0.0
Mg101 Mg 0.35352 0.44464 0.12443 0.0
C102 C 0.31668 0.40349 0.13778 0.0
C103 C 0.37529 0.33439 0.11611 0.0
O104 O 0.3869 0.34428 0.09986 0.0
O105 O 0.36434 0.3882 0.09599 0.0
O106 O 0.35625 0.42516 0.09087 0.0
O107 O 0.37906 0.3955 0.17001 0.0
O108 O 0.37495 0.41895 0.1412 0.0
C109 C 0.35963 0.40512 0.0832 0.0
C110 C 0.37825 0.41608 0.16239 0.0
O111 O 0.36753 0.34635 0.13242 0.0
Mg112 Mg 0.3583 0.12684 0.13592 0.0
O113 O 0.39679 0.1334 0.13496 0.0
O114 O 0.40508 0.16449 0.1548 0.0
Mg115 Mg 0.37084 0.17779 0.16949 0.0
C116 C 0.41126 0.14761 0.14258 0.0
C117 C 0.35647 0.08138 0.10492 0.0
O118 O 0.34163 0.09248 0.09213 0.0
O119 O 0.36314 0.11335 0.17213 0.0
O120 O 0.36936 0.14573 0.19106 0.0
O121 O 0.3532 0.15151 0.10665 0.0
O122 O 0.35155 0.16072 0.14273 0.0
C123 C 0.36695 0.12424 0.19043 0.0
C124 C 0.35102 0.16703 0.12204 0.0
O125 O 0.36532 0.09123 0.12194 0.0
Mg126 Mg 0.36548 0.8729 0.59209 0.0
O127 O 0.3672 0.91155 0.59267 0.0
O128 O 0.33389 0.92564 0.60608 0.0
Mg129 Mg 0.31281 0.89576 0.61873 0.0
C130 C 0.35394 0.92826 0.59759 0.0
C131 C 0.41422 0.86823 0.56469 0.0
O132 O 0.40193 0.86591 0.54618 0.0
O133 O 0.3741 0.87275 0.63014 0.0
O134 O 0.34169 0.88847 0.64386 0.0
O135 O 0.34511 0.87662 0.55942 0.0
O136 O 0.32972 0.87431 0.59345 0.0
C137 C 0.36209 0.88057 0.64661 0.0
C138 C 0.32704 0.8778 0.57225 0.0
O139 O 0.40407 0.87128 0.58357 0.0
Mg140 Mg 0.64156 0.87472 0.13817 0.0
O141 O 0.60289 0.86947 0.13647 0.0
O142 O 0.59372 0.83649 0.15248 0.0
Mg143 Mg 0.62752 0.82047 0.16556 0.0
C144 C 0.58803 0.85484 0.14232 0.0
C145 C 0.65154 0.92296 0.11706 0.0
O146 O 0.67179 0.91332 0.1136 0.0
O147 O 0.63722 0.88431 0.17586 0.0
O148 O 0.63072 0.8498 0.19041 0.0
O149 O 0.64575 0.85326 0.10638 0.0
O150 O 0.64739 0.84 0.14122 0.0
C151 C 0.63368 0.8711 0.19267 0.0
C152 C 0.64763 0.83611 0.11995 0.0
O153 O 0.63577 0.91158 0.12662 0.0
Mg154 Mg 0.63265 0.12178 0.58974 0.0
O155 O 0.63275 0.08305 0.59309 0.0
O156 O 0.66537 0.07236 0.61061 0.0
Mg157 Mg 0.68316 0.10404 0.62341 0.0
C158 C 0.64656 0.06771 0.60047 0.0
C159 C 0.58529 0.1405 0.57433 0.0
O160 O 0.59667 0.15884 0.57986 0.0
O161 O 0.61961 0.12425 0.62647 0.0
O162 O 0.65107 0.11101 0.64438 0.0
O163 O 0.65707 0.11693 0.5599 0.0
O164 O 0.66797 0.1225 0.59517 0.0
C165 C 0.63014 0.11791 0.64446 0.0
C166 C 0.67345 0.1177 0.57476 0.0
O167 O 0.59549 0.12134 0.57606 0.0
Mg168 Mg 0.37904 0.85785 0.86214 0.0
O169 O 0.41807 0.85671 0.86666 0.0
O170 O 0.43258 0.82442 0.85263 0.0
Mg171 Mg 0.40237 0.80509 0.83724 0.0
C172 C 0.43512 0.84353 0.86242 0.0
C173 C 0.36323 0.90429 0.88493 0.0
O174 O 0.3455 0.89193 0.89082 0.0
O175 O 0.38472 0.86699 0.82461 0.0
O176 O 0.39865 0.83382 0.81166 0.0
O177 O 0.37449 0.83629 0.8938 0.0
O178 O 0.37774 0.82288 0.85912 0.0
C179 C 0.39267 0.85451 0.80858 0.0
C180 C 0.37555 0.81903 0.88028 0.0
O181 O 0.37937 0.89521 0.87332 0.0
Mg182 Mg 0.6193 0.88121 0.40799 0.0
O183 O 0.61222 0.8821 0.37025 0.0
O184 O 0.57812 0.89785 0.36216 0.0
Mg185 Mg 0.56168 0.90601 0.39668 0.0
C186 C 0.59723 0.88887 0.35596 0.0
C187 C 0.67389 0.87464 0.41259 0.0
O188 O 0.6694 0.87894 0.43395 0.0
O189 O 0.62534 0.91973 0.40767 0.0
O190 O 0.58922 0.93254 0.40195 0.0
O191 O 0.59922 0.84799 0.41254 0.0
O192 O 0.58431 0.88226 0.41522 0.0
C193 C 0.61063 0.93598 0.40544 0.0
C194 C 0.58141 0.86088 0.41642 0.0
O195 O 0.65723 0.87359 0.39865 0.0
Mg196 Mg 0.62331 0.14253 0.85993 0.0
O197 O 0.5843 0.14351 0.86509 0.0
O198 O 0.56968 0.17593 0.85145 0.0
Mg199 Mg 0.59976 0.19648 0.83739 0.0
C200 C 0.56718 0.15663 0.86087 0.0
C201 C 0.63924 0.09635 0.88281 0.0
O202 O 0.65595 0.10948 0.88984 0.0
O203 O 0.61683 0.13474 0.82205 0.0
O204 O 0.60427 0.16901 0.8108 0.0
O205 O 0.62923 0.16318 0.89215 0.0
O206 O 0.62435 0.17762 0.85812 0.0
C207 C 0.6098 0.14842 0.80657 0.0
C208 C 0.6275 0.18082 0.87922 0.0
O209 O 0.62352 0.10478 0.87021 0.0
Mg210 Mg 0.38307 0.11019 0.40308 0.0
O211 O 0.38891 0.10668 0.36537 0.0
O212 O 0.42304 0.09058 0.35767 0.0
Mg213 Mg 0.44044 0.08462 0.39226 0.0
C214 C 0.4037 0.099 0.3513 0.0
C215 C 0.32828 0.11669 0.40921 0.0
O216 O 0.33314 0.11316 0.43063 0.0
O217 O 0.37685 0.07172 0.40428 0.0
O218 O 0.41293 0.05828 0.40002 0.0
O219 O 0.40154 0.14419 0.4038 0.0
O220 O 0.41878 0.11099 0.408 0.0
C221 C 0.39142 0.05526 0.40347 0.0
C222 C 0.42046 0.13256 0.40612 0.0
O223 O 0.34467 0.1171 0.39491 0.0
Mg224 Mg 0.09722 0.38925 0.11181 0.0
O225 O 0.13615 0.38301 0.11293 0.0
O226 O 0.15103 0.38835 0.0785 0.0
Mg227 Mg 0.12131 0.3986 0.05485 0.0
C228 C 0.15327 0.38345 0.09942 0.0
C229 C 0.08816 0.40479 0.16289 0.0
O230 O 0.07603 0.42104 0.15317 0.0
O231 O 0.1042 0.42713 0.11019 0.0
O232 O 0.11701 0.43168 0.07473 0.0
O233 O 0.09055 0.35311 0.09975 0.0
O234 O 0.0967 0.38245 0.07752 0.0
C235 C 0.1112 0.4397 0.09401 0.0
C236 C 0.09326 0.36118 0.07957 0.0
O237 O 0.0976 0.3895 0.15067 0.0
Mg238 Mg 0.12689 0.64278 0.89002 0.0
O239 O 0.166 0.63976 0.89222 0.0
O240 O 0.1776 0.63381 0.92774 0.0
Mg241 Mg 0.14462 0.62929 0.94841 0.0
C242 C 0.18191 0.63693 0.90682 0.0
C243 C 0.14654 0.64857 0.83981 0.0
O244 O 0.16226 0.66055 0.85027 0.0
O245 O 0.12509 0.60425 0.89213 0.0
O246 O 0.13711 0.59735 0.92757 0.0
O247 O 0.12805 0.67969 0.90174 0.0
O248 O 0.12483 0.65011 0.92429 0.0
C249 C 0.13026 0.5906 0.90819 0.0
C250 C 0.12652 0.67159 0.92203 0.0
O251 O 0.12975 0.64066 0.85111 0.0
Mg252 Mg 0.8958 0.62169 0.36439 0.0
O253 O 0.93495 0.62286 0.36185 0.0
O254 O 0.9447 0.63704 0.32818 0.0
Mg255 Mg 0.91116 0.6448 0.30875 0.0
C256 C 0.95013 0.62906 0.34759 0.0
C257 C 0.90208 0.59792 0.41385 0.0
O258 O 0.90568 0.57862 0.40325 0.0
O259 O 0.89561 0.66034 0.36967 0.0
O260 O 0.90274 0.6726 0.33447 0.0
O261 O 0.89581 0.58734 0.34681 0.0
O262 O 0.89278 0.62053 0.32972 0.0
C263 C 0.89802 0.67632 0.35525 0.0
C264 C 0.89425 0.59893 0.32826 0.0
O265 O 0.89836 0.61597 0.40254 0.0
Mg266 Mg 0.86808 0.35751 0.8945 0.0
O267 O 0.82897 0.36284 0.8955 0.0
O268 O 0.81835 0.37158 0.93085 0.0
Mg269 Mg 0.85106 0.37367 0.95241 0.0
C270 C 0.81355 0.36765 0.91016 0.0
C271 C 0.85255 0.34768 0.84404 0.0
O272 O 0.8393 0.33304 0.85441 0.0
O273 O 0.87249 0.39563 0.89624 0.0
O274 O 0.86281 0.40457 0.93183 0.0
O275 O 0.86456 0.32087 0.90637 0.0
O276 O 0.86842 0.35055 0.92873 0.0
C277 C 0.86985 0.41012 0.91213 0.0
C278 C 0.8653 0.32922 0.92662 0.0
O279 O 0.86664 0.35925 0.85566 0.0
Mg280 Mg 0.11075 0.3765 0.36899 0.0
O281 O 0.07204 0.37435 0.3643 0.0
O282 O 0.06352 0.35526 0.33288 0.0
Mg283 Mg 0.09829 0.34488 0.31683 0.0
C284 C 0.05737 0.36616 0.3506 0.0
C285 C 0.11671 0.40321 0.41538 0.0
O286 O 0.13411 0.41231 0.40458 0.0
O287 O 0.11118 0.33904 0.38037 0.0
O288 O 0.10561 0.32181 0.34699 0.0
O289 O 0.11108 0.40755 0.34603 0.0
O290 O 0.11597 0.37224 0.33458 0.0
C291 C 0.1095 0.32116 0.36823 0.0
C292 C 0.11403 0.39329 0.32959 0.0
O293 O 0.10434 0.38869 0.40527 0.0
Mg294 Mg 0.90807 0.6134 0.11421 0.0
O295 O 0.86919 0.62039 0.11483 0.0
O296 O 0.85487 0.61514 0.08013 0.0
Mg297 Mg 0.88471 0.60369 0.05725 0.0
C298 C 0.85234 0.62035 0.10095 0.0
C299 C 0.92002 0.59839 0.16393 0.0
O300 O 0.93522 0.58579 0.15306 0.0
O301 O 0.90084 0.57574 0.11255 0.0
O302 O 0.88773 0.57031 0.07736 0.0
O303 O 0.91524 0.64943 0.10264 0.0
O304 O 0.90915 0.6202 0.08011 0.0
C305 C 0.89352 0.56278 0.09685 0.0
C306 C 0.9127 0.64146 0.0824 0.0
O307 O 0.90737 0.61223 0.15284 0.0
Mg308 Mg 0.84254 0.35262 0.63414 0.0
O309 O 0.88174 0.35427 0.63787 0.0
O310 O 0.89231 0.32993 0.66514 0.0
Mg311 Mg 0.85993 0.31497 0.68118 0.0
C312 C 0.89719 0.34424 0.64971 0.0
C313 C 0.82634 0.37345 0.58813 0.0
O314 O 0.80661 0.36723 0.597 0.0
O315 O 0.84709 0.31738 0.61731 0.0
O316 O 0.85494 0.29641 0.64815 0.0
O317 O 0.83786 0.37936 0.66219 0.0
O318 O 0.83899 0.3425 0.66747 0.0
C319 C 0.85115 0.29831 0.62699 0.0
C320 C 0.83736 0.36233 0.67599 0.0
O321 O 0.84475 0.37047 0.59957 0.0
Mg322 Mg 0.15976 0.65085 0.63821 0.0
O323 O 0.12097 0.64503 0.64022 0.0
O324 O 0.10781 0.65715 0.67366 0.0
Mg325 Mg 0.13832 0.67133 0.69357 0.0
C326 C 0.10452 0.64845 0.65416 0.0
C327 C 0.1763 0.63317 0.59037 0.0
O328 O 0.1956 0.63047 0.60177 0.0
O329 O 0.15144 0.68883 0.6316 0.0
O330 O 0.14072 0.69854 0.66678 0.0
O331 O 0.16725 0.61806 0.65787 0.0
O332 O 0.16241 0.65182 0.67315 0.0
C333 C 0.14488 0.70363 0.64623 0.0
C334 C 0.16597 0.63062 0.67578 0.0
O335 O 0.15867 0.64137 0.60044 0.0
Mg336 Mg 0.88706 0.90692 0.64468 0.0
O337 O 0.89576 0.89941 0.60817 0.0
O338 O 0.93109 0.88402 0.6059 0.0
Mg339 Mg 0.94611 0.8833 0.64191 0.0
C340 C 0.91224 0.89075 0.59674 0.0
C341 C 0.83394 0.89721 0.64287 0.0
O342 O 0.84005 0.88493 0.66046 0.0
O343 O 0.88335 0.86871 0.65021 0.0
O344 O 0.91985 0.8559 0.6505 0.0
O345 O 0.90359 0.94141 0.64071 0.0
O346 O 0.92203 0.91049 0.65204 0.0
C347 C 0.89819 0.85268 0.65241 0.0
C348 C 0.9228 0.93138 0.64611 0.0
O349 O 0.84895 0.90968 0.63348 0.0
Mg350 Mg 0.59678 0.37553 0.14404 0.0
O351 O 0.63527 0.36741 0.14192 0.0
O352 O 0.64083 0.33366 0.12546 0.0
Mg353 Mg 0.60537 0.3209 0.11471 0.0
C354 C 0.64855 0.35147 0.135 0.0
C355 C 0.59069 0.42551 0.16284 0.0
O356 O 0.56909 0.41908 0.16393 0.0
O357 O 0.59721 0.38587 0.10626 0.0
O358 O 0.60276 0.35131 0.09151 0.0
O359 O 0.59578 0.35354 0.17564 0.0
O360 O 0.58899 0.34127 0.14111 0.0
C361 C 0.60015 0.3727 0.08924 0.0
C362 C 0.59184 0.33677 0.16209 0.0
O363 O 0.60587 0.41158 0.15552 0.0
Mg364 Mg 0.11621 0.09392 0.64685 0.0
O365 O 0.10728 0.0963 0.60947 0.0
O366 O 0.07161 0.11106 0.60661 0.0
Mg367 Mg 0.05714 0.1169 0.64222 0.0
C368 C 0.09019 0.10331 0.59771 0.0
C369 C 0.16516 0.08634 0.62021 0.0
O370 O 0.15319 0.07806 0.60333 0.0
O371 O 0.11998 0.13231 0.64666 0.0
O372 O 0.08353 0.14533 0.6457 0.0
O373 O 0.0999 0.05902 0.64738 0.0
O374 O 0.08142 0.09109 0.65466 0.0
C375 C 0.10525 0.14855 0.64653 0.0
C376 C 0.08066 0.06964 0.6514 0.0
O377 O 0.15496 0.09173 0.63855 0.0
Mg378 Mg 0.40958 0.61857 0.13862 0.0
O379 O 0.37144 0.62403 0.12876 0.0
O380 O 0.36602 0.65085 0.10206 0.0
Mg381 Mg 0.40122 0.66414 0.0899 0.0
C382 C 0.35828 0.63608 0.116 0.0
C383 C 0.41625 0.57317 0.16518 0.0
O384 O 0.43769 0.5776 0.15967 0.0
O385 O 0.41481 0.59544 0.10716 0.0
O386 O 0.4149 0.6312 0.10112 0.0
O387 O 0.40715 0.65012 0.16026 0.0
O388 O 0.41547 0.65181 0.12385 0.0
C389 C 0.41472 0.61144 0.09287 0.0
C390 C 0.41132 0.66226 0.1425 0.0
O391 O 0.4005 0.58743 0.15992 0.0
Mg392 Mg 0.8524 0.09284 0.3481 0.0
O393 O 0.84845 0.12614 0.36719 0.0
O394 O 0.81358 0.12752 0.38356 0.0
Mg395 Mg 0.79768 0.09241 0.37967 0.0
C396 C 0.83282 0.13656 0.37843 0.0
C397 C 0.90436 0.08628 0.33328 0.0
O398 O 0.89655 0.066 0.32851 0.0
O399 O 0.86257 0.07597 0.38171 0.0
O400 O 0.82825 0.07728 0.39893 0.0
O401 O 0.83187 0.11026 0.32066 0.0
O402 O 0.81616 0.08974 0.34763 0.0
C403 C 0.84968 0.07215 0.39876 0.0
C404 C 0.81358 0.10425 0.33159 0.0
O405 O 0.89046 0.10114 0.34124 0.0
Mg406 Mg 0.3659 0.36221 0.86725 0.0
O407 O 0.32689 0.35633 0.86358 0.0
O408 O 0.31798 0.32514 0.88314 0.0
Mg409 Mg 0.35046 0.3116 0.90043 0.0
C410 C 0.31223 0.34186 0.87053 0.0
C411 C 0.3809 0.40607 0.84285 0.0
O412 O 0.39981 0.39355 0.84265 0.0
O413 O 0.35942 0.3766 0.90304 0.0
O414 O 0.35027 0.34425 0.92058 0.0
O415 O 0.37297 0.33647 0.83897 0.0
O416 O 0.37145 0.32847 0.87528 0.0
C417 C 0.35323 0.36566 0.92069 0.0
C418 C 0.37392 0.32151 0.85498 0.0
O419 O 0.36266 0.39773 0.85129 0.0
Mg420 Mg 0.14166 0.92113 0.35486 0.0
O421 O 0.14825 0.8848 0.36644 0.0
O422 O 0.18006 0.88272 0.38788 0.0
Mg423 Mg 0.19017 0.91956 0.39508 0.0
C424 C 0.16329 0.87341 0.37753 0.0
C425 C 0.09507 0.91866 0.32484 0.0
O426 O 0.10397 0.93535 0.31313 0.0
O427 O 0.12413 0.92774 0.38897 0.0
O428 O 0.15515 0.92493 0.4114 0.0
O429 O 0.16941 0.91424 0.32876 0.0
O430 O 0.17591 0.92932 0.36223 0.0
C431 C 0.13354 0.92781 0.40848 0.0
C432 C 0.18401 0.92028 0.34417 0.0
O433 O 0.10674 0.90975 0.34086 0.0
Mg434 Mg 0.63402 0.6387 0.86049 0.0
O435 O 0.6734 0.64093 0.86206 0.0
O436 O 0.68251 0.67284 0.88026 0.0
Mg437 Mg 0.64914 0.69124 0.89065 0.0
C438 C 0.68833 0.6546 0.86995 0.0
C439 C 0.61898 0.59353 0.83835 0.0
O440 O 0.6011 0.60694 0.83467 0.0
O441 O 0.63355 0.62808 0.8981 0.0
O442 O 0.64079 0.66187 0.91384 0.0
O443 O 0.63405 0.66137 0.82912 0.0
O444 O 0.63064 0.67352 0.86419 0.0
C445 C 0.63593 0.64088 0.91543 0.0
C446 C 0.63223 0.67813 0.84317 0.0
O447 O 0.63644 0.6016 0.8485 0.0
Mg448 Mg 0.65076 0.89357 0.86554 0.0
O449 O 0.61153 0.89308 0.86587 0.0
O450 O 0.59739 0.92524 0.85116 0.0
Mg451 Mg 0.62857 0.94701 0.84134 0.0
C452 C 0.59455 0.90573 0.86008 0.0
C453 C 0.66323 0.84259 0.85768 0.0
O454 O 0.67904 0.8524 0.84526 0.0
O455 O 0.65021 0.88797 0.82766 0.0
O456 O 0.63862 0.92142 0.81356 0.0
O457 O 0.65062 0.91196 0.89952 0.0
O458 O 0.65001 0.92874 0.8662 0.0
C459 C 0.6457 0.90097 0.81098 0.0
C460 C 0.64912 0.93044 0.88775 0.0
O461 O 0.65021 0.8549 0.87011 0.0
Mg462 Mg 0.64219 0.15004 0.40981 0.0
O463 O 0.64469 0.1342 0.37491 0.0
O464 O 0.68028 0.12021 0.36905 0.0
Mg465 Mg 0.69913 0.12234 0.40314 0.0
C466 C 0.65982 0.12481 0.36225 0.0
C467 C 0.58885 0.16079 0.41941 0.0
O468 O 0.59692 0.16625 0.43943 0.0
O469 O 0.63682 0.11429 0.42386 0.0
O470 O 0.67191 0.09923 0.41802 0.0
O471 O 0.65953 0.18029 0.3939 0.0
O472 O 0.67833 0.1525 0.41104 0.0
C473 C 0.65109 0.0976 0.4247 0.0
C474 C 0.67892 0.17011 0.39834 0.0
O475 O 0.60293 0.15427 0.40413 0.0
Mg476 Mg 0.35132 0.10301 0.85498 0.0
O477 O 0.39058 0.10534 0.85753 0.0
O478 O 0.40698 0.07215 0.84831 0.0
Mg479 Mg 0.37757 0.04815 0.83887 0.0
C480 C 0.40841 0.09278 0.8547 0.0
C481 C 0.36173 0.15354 0.86915 0.0
O482 O 0.37454 0.14303 0.88429 0.0
O483 O 0.354 0.10474 0.81659 0.0
O484 O 0.36891 0.07056 0.80839 0.0
O485 O 0.34958 0.0884 0.89076 0.0
O486 O 0.35362 0.06822 0.8596 0.0
C487 C 0.36094 0.08991 0.80231 0.0
C488 C 0.35277 0.06886 0.88119 0.0
O489 O 0.34918 0.14188 0.85601 0.0
Mg490 Mg 0.37012 0.8382 0.40296 0.0
O491 O 0.39648 0.83141 0.37463 0.0
O492 O 0.36093 0.83228 0.36449 0.0
Mg493 Mg 0.33266 0.85187 0.3486 0.0
C494 C 0.38192 0.83203 0.35877 0.0
C495 C 0.41475 0.82437 0.42572 0.0
O496 O 0.40737 0.80584 0.41587 0.0
O497 O 0.37031 0.87643 0.39445 0.0
O498 O 0.34709 0.88456 0.36489 0.0
O499 O 0.33567 0.84547 0.41989 0.0
O500 O 0.3382 0.83664 0.38369 0.0
C501 C 0.36053 0.89064 0.38099 0.0
C502 C 0.32575 0.84327 0.40039 0.0
O503 O 0.40124 0.84158 0.42647 0.0
Mg504 Mg 0.6334 0.12219 0.14549 0.0
O505 O 0.59424 0.12032 0.1423 0.0
O506 O 0.58235 0.08579 0.15212 0.0
Mg507 Mg 0.61431 0.06527 0.16261 0.0
C508 C 0.57825 0.10596 0.14523 0.0
C509 C 0.63881 0.17398 0.15781 0.0
O510 O 0.65317 0.16525 0.17273 0.0
O511 O 0.63012 0.12389 0.18372 0.0
O512 O 0.61911 0.08883 0.19305 0.0
O513 O 0.63779 0.1071 0.1102 0.0
O514 O 0.63604 0.08731 0.14179 0.0
C515 C 0.62462 0.10905 0.19841 0.0
C516 C 0.63725 0.08757 0.1202 0.0
O517 O 0.62949 0.16096 0.14332 0.0
Mg518 Mg 0.37913 0.14175 0.58862 0.0
O519 O 0.38651 0.10405 0.58524 0.0
O520 O 0.42205 0.09465 0.59663 0.0
Mg521 Mg 0.43714 0.1277 0.61039 0.0
C522 C 0.40245 0.08934 0.58846 0.0
C523 C 0.326 0.14348 0.59505 0.0
O524 O 0.33302 0.15929 0.60904 0.0
O525 O 0.37343 0.13622 0.62643 0.0
O526 O 0.40913 0.12633 0.63748 0.0
O527 O 0.39762 0.1474 0.55515 0.0
O528 O 0.41433 0.1482 0.58866 0.0
C529 C 0.38773 0.12969 0.64156 0.0
C530 C 0.41621 0.14912 0.56715 0.0
O531 O 0.34082 0.13383 0.58227 0.0
Mg532 Mg 0.36667 0.87894 0.148 0.0
O533 O 0.40534 0.88221 0.14181 0.0
O534 O 0.41711 0.91601 0.15407 0.0
Mg535 Mg 0.38566 0.93435 0.16916 0.0
C536 C 0.42117 0.89671 0.145 0.0
C537 C 0.38308 0.83017 0.12932 0.0
O538 O 0.3958 0.84193 0.11528 0.0
O539 O 0.37483 0.87331 0.18513 0.0
O540 O 0.38552 0.9076 0.19723 0.0
O541 O 0.35855 0.89775 0.11493 0.0
O542 O 0.36282 0.91358 0.14833 0.0
C543 C 0.38169 0.8866 0.20075 0.0
C544 C 0.35912 0.91598 0.12715 0.0
O545 O 0.36937 0.84052 0.14266 0.0
Mg546 Mg 0.62468 0.85121 0.59883 0.0
O547 O 0.61921 0.88948 0.59893 0.0
O548 O 0.58604 0.89853 0.61621 0.0
Mg549 Mg 0.57037 0.86505 0.62849 0.0
C550 C 0.60442 0.90412 0.60577 0.0
C551 C 0.67399 0.87243 0.5832 0.0
O552 O 0.6622 0.88957 0.57471 0.0
O553 O 0.63463 0.85374 0.63603 0.0
O554 O 0.60062 0.86049 0.65294 0.0
O555 O 0.60162 0.8483 0.56714 0.0
O556 O 0.58956 0.8467 0.60224 0.0
C557 C 0.62236 0.8569 0.65368 0.0
C558 C 0.5846 0.84675 0.58122 0.0
O559 O 0.6633 0.85533 0.59087 0.0
Mg560 Mg 0.9104 0.62512 0.87365 0.0
O561 O 0.87156 0.6271 0.86695 0.0
O562 O 0.86395 0.60791 0.83525 0.0
Mg563 Mg 0.89814 0.59388 0.82122 0.0
C564 C 0.85738 0.61976 0.8522 0.0
C565 C 0.92304 0.64463 0.92034 0.0
O566 O 0.94329 0.64222 0.91059 0.0
O567 O 0.90631 0.58819 0.88579 0.0
O568 O 0.90129 0.57136 0.85217 0.0
O569 O 0.91536 0.65543 0.85044 0.0
O570 O 0.917 0.61959 0.8398 0.0
C571 C 0.90374 0.57045 0.87359 0.0
C572 C 0.91761 0.64058 0.83443 0.0
O573 O 0.90507 0.63918 0.90933 0.0
Mg574 Mg 0.87085 0.34477 0.13609 0.0
O575 O 0.83282 0.35313 0.14079 0.0
O576 O 0.82759 0.37337 0.17233 0.0
Mg577 Mg 0.86341 0.37915 0.18772 0.0
C578 C 0.8197 0.36341 0.15482 0.0
C579 C 0.87695 0.31995 0.0891 0.0
O580 O 0.89628 0.31347 0.09889 0.0
O581 O 0.87702 0.38138 0.1237 0.0
O582 O 0.87367 0.39951 0.15688 0.0
O583 O 0.86595 0.31484 0.15999 0.0
O584 O 0.8767 0.34896 0.17052 0.0
C585 C 0.87781 0.39944 0.13569 0.0
C586 C 0.87089 0.32887 0.17607 0.0
O587 O 0.86288 0.33253 0.10005 0.0
Mg588 Mg 0.11468 0.36412 0.61342 0.0
O589 O 0.07534 0.36154 0.61163 0.0
O590 O 0.0661 0.34612 0.57826 0.0
Mg591 Mg 0.09934 0.34176 0.55761 0.0
C592 C 0.06048 0.35409 0.59761 0.0
C593 C 0.10201 0.3807 0.66346 0.0
O594 O 0.09256 0.3982 0.65309 0.0
O595 O 0.11739 0.32586 0.61655 0.0
O596 O 0.11018 0.31295 0.58175 0.0
O597 O 0.11256 0.39949 0.59844 0.0
O598 O 0.11569 0.36771 0.5788 0.0
C599 C 0.11561 0.30962 0.60243 0.0
C600 C 0.11282 0.38931 0.57903 0.0
O601 O 0.11254 0.36567 0.65192 0.0
Mg602 Mg 0.13636 0.65574 0.12916 0.0
O603 O 0.17431 0.64432 0.13156 0.0
O604 O 0.18107 0.62269 0.16212 0.0
Mg605 Mg 0.14618 0.6156 0.17855 0.0
C606 C 0.188 0.63302 0.1444 0.0
C607 C 0.12729 0.6835 0.08466 0.0
O608 O 0.10732 0.68605 0.09492 0.0
O609 O 0.12716 0.62197 0.11039 0.0
O610 O 0.13502 0.60913 0.14391 0.0
O611 O 0.1432 0.68195 0.15713 0.0
O612 O 0.13215 0.64725 0.16422 0.0
C613 C 0.12859 0.60531 0.12399 0.0
C614 C 0.13844 0.66643 0.17181 0.0
O615 O 0.14334 0.67258 0.09472 0.0
Mg616 Mg 0.88677 0.63688 0.61905 0.0
O617 O 0.92544 0.63971 0.61525 0.0
O618 O 0.9347 0.65736 0.58325 0.0
Mg619 Mg 0.89995 0.66609 0.56598 0.0
C620 C 0.94042 0.64748 0.60167 0.0
C621 C 0.88087 0.6392 0.67106 0.0
O622 O 0.86272 0.65101 0.66449 0.0
O623 O 0.88485 0.67452 0.62782 0.0
O624 O 0.89085 0.69121 0.59435 0.0
O625 O 0.88772 0.60434 0.59799 0.0
O626 O 0.88244 0.63885 0.58453 0.0
C627 C 0.88624 0.69219 0.61545 0.0
C628 C 0.88481 0.61758 0.58071 0.0
O629 O 0.89318 0.62911 0.65627 0.0
Mg630 Mg 0.0922 0.3754 0.87064 0.0
O631 O 0.13066 0.37155 0.86228 0.0
O632 O 0.13852 0.39258 0.83184 0.0
Mg633 Mg 0.10538 0.41103 0.82118 0.0
C634 C 0.14478 0.37889 0.84747 0.0
C635 C 0.08034 0.35342 0.91701 0.0
O636 O 0.05972 0.35704 0.90841 0.0
O637 O 0.0993 0.41047 0.88589 0.0
O638 O 0.10648 0.43043 0.85436 0.0
O639 O 0.08427 0.34818 0.84435 0.0
O640 O 0.08505 0.38494 0.83778 0.0
C641 C 0.1044 0.42891 0.87577 0.0
C642 C 0.08272 0.36484 0.83012 0.0
O643 O 0.09793 0.35832 0.90517 0.0
Mg644 Mg 0.16792 0.65359 0.3884 0.0
O645 O 0.129 0.64711 0.38841 0.0
O646 O 0.11405 0.65827 0.42146 0.0
Mg647 Mg 0.14329 0.673 0.44258 0.0
C648 C 0.11188 0.64965 0.40178 0.0
C649 C 0.17788 0.66269 0.33715 0.0
O650 O 0.19041 0.67859 0.34647 0.0
O651 O 0.16113 0.69134 0.38356 0.0
O652 O 0.14656 0.70207 0.41702 0.0
O653 O 0.17473 0.61984 0.40618 0.0
O654 O 0.16837 0.65249 0.42342 0.0
C655 C 0.153 0.70649 0.39685 0.0
C656 C 0.17182 0.63107 0.4248 0.0
O657 O 0.1677 0.64853 0.34987 0.0
Mg658 Mg 0.83728 0.35443 0.389 0.0
O659 O 0.87617 0.36055 0.38801 0.0
O660 O 0.89165 0.35166 0.42151 0.0
Mg661 Mg 0.86268 0.33863 0.44406 0.0
C662 C 0.8935 0.35875 0.40121 0.0
C663 C 0.82659 0.34208 0.3384 0.0
O664 O 0.81299 0.32763 0.34859 0.0
O665 O 0.8442 0.31664 0.3866 0.0
O666 O 0.85913 0.30795 0.42052 0.0
O667 O 0.83046 0.3892 0.40496 0.0
O668 O 0.83724 0.35761 0.42388 0.0
C669 C 0.85251 0.30234 0.4007 0.0
C670 C 0.83351 0.37901 0.42415 0.0
O671 O 0.83732 0.35661 0.35025 0.0
H672 H 0.14028 0.28834 0.35741 0.0
H673 H 0.05894 0.19161 0.40354 0.0
H674 H 0.08183 0.3023 0.40036 0.0
H675 H 0.12482 0.17834 0.37177 0.0
H676 H 0.06808 0.23195 0.40488 0.0
H677 H 0.13692 0.24796 0.36579 0.0
C678 C 0.12716 0.28285 0.36919 0.0
C679 C 0.11142 0.29851 0.37838 0.0
C680 C 0.0806 0.22018 0.39778 0.0
C681 C 0.10673 0.25231 0.38728 0.0
C682 C 0.07533 0.19714 0.39683 0.0
C683 C 0.09101 0.18153 0.38725 0.0
C684 C 0.10162 0.22774 0.38891 0.0
C685 C 0.1121 0.18971 0.37913 0.0
C686 C 0.1251 0.25981 0.37384 0.0
C687 C 0.09446 0.29067 0.39322 0.0
N688 N 0.11667 0.21225 0.37997 0.0
N689 N 0.09227 0.26799 0.39691 0.0
H690 H 0.33045 0.63311 0.8896 0.0
H691 H 0.1967 0.62106 0.866 0.0
H692 H 0.30247 0.57037 0.86458 0.0
H693 H 0.22154 0.64748 0.92949 0.0
H694 H 0.23664 0.61241 0.85494 0.0
H695 H 0.29109 0.6483 0.89372 0.0
C696 C 0.31604 0.6227 0.88459 0.0
C697 C 0.3196 0.60036 0.87698 0.0
C698 C 0.23324 0.62043 0.87111 0.0
C699 C 0.27495 0.61779 0.88119 0.0
C700 C 0.21058 0.62546 0.87741 0.0
C701 C 0.20589 0.63476 0.89882 0.0
C702 C 0.25124 0.62535 0.88605 0.0
C703 C 0.22447 0.64007 0.91297 0.0
C704 C 0.29371 0.63135 0.88702 0.0
C705 C 0.30037 0.58756 0.87076 0.0
N706 N 0.24643 0.63529 0.90632 0.0
N707 N 0.27877 0.59649 0.87299 0.0
H708 H 0.88055 0.82187 0.35568 0.0
H709 H 0.91703 0.69596 0.39274 0.0
H710 H 0.94189 0.80698 0.3947 0.0
H711 H 0.87641 0.7108 0.33335 0.0
H712 H 0.92003 0.73696 0.4 0.0
H713 H 0.87311 0.78118 0.35313 0.0
C714 C 0.89248 0.81007 0.36367 0.0
C715 C 0.91201 0.81785 0.37522 0.0
C716 C 0.91019 0.73115 0.38558 0.0
C717 C 0.90332 0.77136 0.37271 0.0
C718 C 0.90829 0.70785 0.3816 0.0
C719 C 0.8965 0.70017 0.36242 0.0
C720 C 0.89988 0.74665 0.37047 0.0
C721 C 0.88574 0.71616 0.34826 0.0
C722 C 0.88818 0.78688 0.36224 0.0
C723 C 0.92678 0.80175 0.38538 0.0
N724 N 0.8877 0.73866 0.35255 0.0
N725 N 0.9221 0.77926 0.38394 0.0
H726 H 0.77466 0.35505 0.93256 0.0
H727 H 0.69088 0.4346 0.86711 0.0
H728 H 0.79793 0.38656 0.87095 0.0
H729 H 0.66622 0.37071 0.89259 0.0
H730 H 0.73069 0.42037 0.87121 0.0
H731 H 0.7346 0.3632 0.9214 0.0
C732 C 0.77127 0.36353 0.91662 0.0
C733 C 0.78947 0.37028 0.90267 0.0
C734 C 0.71648 0.40945 0.87563 0.0
C735 C 0.74409 0.38007 0.8902 0.0
C736 C 0.69387 0.41758 0.87345 0.0
C737 C 0.67535 0.40385 0.8797 0.0
C738 C 0.72048 0.38779 0.88476 0.0
C739 C 0.68007 0.38183 0.88763 0.0
C740 C 0.74851 0.36805 0.91024 0.0
C741 C 0.78428 0.38109 0.88212 0.0
N742 N 0.70223 0.37461 0.89037 0.0
N743 N 0.76201 0.3861 0.87668 0.0
H744 H 0.13133 0.72226 0.60527 0.0
H745 H 0.12573 0.84684 0.65936 0.0
H746 H 0.14988 0.73963 0.67378 0.0
H747 H 0.12641 0.83539 0.58742 0.0
H748 H 0.12354 0.80582 0.66535 0.0
H749 H 0.12139 0.7625 0.5984 0.0
C750 C 0.13355 0.73453 0.61871 0.0
C751 C 0.14138 0.72766 0.64011 0.0
C752 C 0.12351 0.8123 0.64821 0.0
C753 C 0.12955 0.77312 0.63267 0.0
C754 C 0.12432 0.8357 0.64485 0.0
C755 C 0.12621 0.84427 0.62292 0.0
C756 C 0.12476 0.79759 0.62947 0.0
C757 C 0.12492 0.8292 0.6046 0.0
C758 C 0.12762 0.75734 0.61491 0.0
C759 C 0.14366 0.74414 0.65708 0.0
N760 N 0.12466 0.80648 0.60825 0.0
N761 N 0.13775 0.76601 0.65301 0.0
H762 H 0.7246 0.57798 0.15033 0.0
H763 H 0.81536 0.63951 0.07916 0.0
H764 H 0.70643 0.64187 0.11914 0.0
H765 H 0.83574 0.60894 0.14248 0.0
H766 H 0.77514 0.63992 0.09212 0.0
H767 H 0.76551 0.58768 0.14701 0.0
C768 C 0.72926 0.59419 0.14313 0.0
C769 C 0.71225 0.60911 0.13489 0.0
C770 C 0.78851 0.63354 0.10331 0.0
C771 C 0.75873 0.61996 0.13048 0.0
C772 C 0.81137 0.6332 0.0959 0.0
C773 C 0.82878 0.62402 0.10972 0.0
C774 C 0.78302 0.62394 0.12433 0.0
C775 C 0.82278 0.61615 0.13132 0.0
C776 C 0.75253 0.59975 0.14132 0.0
C777 C 0.7191 0.62994 0.12573 0.0
N778 N 0.80029 0.61578 0.13778 0.0
N779 N 0.74189 0.63454 0.12324 0.0
H780 H 0.86793 0.16255 0.6431 0.0
H781 H 0.88394 0.28421 0.5967 0.0
H782 H 0.87793 0.16485 0.57097 0.0
H783 H 0.82217 0.26358 0.63118 0.0
H784 H 0.89333 0.24386 0.58927 0.0
H785 H 0.86562 0.20408 0.64372 0.0
C786 C 0.87092 0.17188 0.62761 0.0
C787 C 0.87346 0.16048 0.60701 0.0
C788 C 0.87741 0.24837 0.59783 0.0
C789 C 0.87027 0.20755 0.60751 0.0
C790 C 0.87184 0.27126 0.60169 0.0
C791 C 0.85209 0.27704 0.61425 0.0
C792 C 0.86337 0.2316 0.60721 0.0
C793 C 0.83739 0.25972 0.6212 0.0
C794 C 0.8692 0.19546 0.6279 0.0
C795 C 0.87633 0.17325 0.58719 0.0
N796 N 0.84358 0.23773 0.61804 0.0
N797 N 0.87442 0.19628 0.58783 0.0
H798 H 0.27944 0.42803 0.15309 0.0
H799 H 0.19145 0.36527 0.07883 0.0
H800 H 0.29852 0.3637 0.12326 0.0
H801 H 0.1684 0.39615 0.14113 0.0
H802 H 0.23124 0.36593 0.09303 0.0
H803 H 0.23862 0.4186 0.14786 0.0
C804 C 0.27501 0.41179 0.14581 0.0
C805 C 0.29229 0.39665 0.13853 0.0
C806 C 0.21737 0.37218 0.10371 0.0
C807 C 0.24597 0.38613 0.13193 0.0
C808 C 0.19476 0.3719 0.0956 0.0
C809 C 0.17672 0.38074 0.10881 0.0
C810 C 0.22197 0.38207 0.12481 0.0
C811 C 0.18186 0.38911 0.13045 0.0
C812 C 0.2518 0.4064 0.14289 0.0
C813 C 0.28568 0.3758 0.12918 0.0
N814 N 0.20412 0.39004 0.13761 0.0
N815 N 0.26302 0.37136 0.12565 0.0
H816 H 0.40361 0.09874 0.2046 0.0
H817 H 0.36178 0.10944 0.33286 0.0
H818 H 0.33714 0.12456 0.22542 0.0
H819 H 0.43078 0.08805 0.31437 0.0
H820 H 0.35106 0.10963 0.29322 0.0
H821 H 0.4121 0.08849 0.24408 0.0
C822 C 0.39051 0.10144 0.21742 0.0
C823 C 0.36955 0.11218 0.21194 0.0
C824 C 0.36855 0.10482 0.29775 0.0
C825 C 0.37928 0.10129 0.25689 0.0
C826 C 0.37476 0.10482 0.32046 0.0
C827 C 0.39736 0.09899 0.32703 0.0
C828 C 0.38501 0.09911 0.28126 0.0
C829 C 0.41323 0.09284 0.31009 0.0
C830 C 0.39544 0.09588 0.23993 0.0
C831 C 0.35337 0.11603 0.22907 0.0
N832 N 0.4068 0.09323 0.28793 0.0
N833 N 0.35863 0.11074 0.25081 0.0
H834 H 0.34853 0.90782 0.6813 0.0
H835 H 0.41843 0.83754 0.77382 0.0
H836 H 0.3971 0.85425 0.66489 0.0
H837 H 0.36968 0.89109 0.78982 0.0
H838 H 0.41556 0.84749 0.73396 0.0
H839 H 0.36062 0.90582 0.72063 0.0
C840 C 0.36186 0.89566 0.68596 0.0
C841 C 0.37152 0.88084 0.66984 0.0
C842 C 0.40569 0.85727 0.74617 0.0
C843 C 0.38541 0.87845 0.71507 0.0
C844 C 0.40728 0.8516 0.76898 0.0
C845 C 0.3939 0.86324 0.78517 0.0
C846 C 0.39046 0.8746 0.73938 0.0
C847 C 0.38014 0.88155 0.77792 0.0
C848 C 0.36881 0.89461 0.70846 0.0
C849 C 0.38906 0.86583 0.6768 0.0
N850 N 0.37851 0.88644 0.75548 0.0
N851 N 0.39523 0.86479 0.699 0.0
H852 H 0.60484 0.90421 0.20951 0.0
H853 H 0.63494 0.86832 0.33693 0.0
H854 H 0.65827 0.85651 0.22853 0.0
H855 H 0.57382 0.90713 0.31944 0.0
H856 H 0.64629 0.86819 0.29742 0.0
H857 H 0.59648 0.91076 0.24988 0.0
C858 C 0.61528 0.89573 0.22222 0.0
C859 C 0.63234 0.87994 0.21587 0.0
C860 C 0.63037 0.87675 0.30214 0.0
C861 C 0.62264 0.88681 0.26166 0.0
C862 C 0.62379 0.87676 0.32477 0.0
C863 C 0.60327 0.88765 0.3316 0.0
C864 C 0.61641 0.88771 0.286 0.0
C865 C 0.58968 0.89837 0.31495 0.0
C866 C 0.61031 0.8992 0.24518 0.0
C867 C 0.64504 0.8689 0.23284 0.0
N868 N 0.59649 0.89812 0.29289 0.0
N869 N 0.63986 0.87245 0.25491 0.0
H870 H 0.61589 0.10545 0.7883 0.0
H871 H 0.60234 0.15174 0.66142 0.0
H872 H 0.59984 0.17487 0.77008 0.0
H873 H 0.63314 0.08695 0.67809 0.0
H874 H 0.59224 0.15698 0.7014 0.0
H875 H 0.61435 0.09527 0.748 0.0
C876 C 0.61197 0.11849 0.77594 0.0
C877 C 0.60818 0.14106 0.78265 0.0
C878 C 0.60081 0.14141 0.69622 0.0
C879 C 0.60622 0.12957 0.73676 0.0
C880 C 0.60633 0.13837 0.6734 0.0
C881 C 0.61879 0.11906 0.66666 0.0
C882 C 0.60774 0.12495 0.71219 0.0
C883 C 0.62379 0.10225 0.68281 0.0
C884 C 0.61101 0.11268 0.75298 0.0
C885 C 0.60294 0.15723 0.76585 0.0
N886 N 0.61849 0.10567 0.7049 0.0
N887 N 0.60227 0.1512 0.74378 0.0
H888 H 0.85877 0.83454 0.63516 0.0
H889 H 0.89858 0.70629 0.65785 0.0
H890 H 0.92022 0.81702 0.67283 0.0
H891 H 0.86599 0.72919 0.59621 0.0
H892 H 0.89648 0.74538 0.67246 0.0
H893 H 0.85088 0.79402 0.6305 0.0
C894 C 0.87021 0.82219 0.64302 0.0
C895 C 0.89034 0.82905 0.65413 0.0
C896 C 0.88946 0.74165 0.65591 0.0
C897 C 0.88137 0.78297 0.64895 0.0
C898 C 0.89062 0.71946 0.64761 0.0
C899 C 0.88273 0.71472 0.62571 0.0
C900 C 0.87984 0.75891 0.64239 0.0
C901 C 0.87257 0.73229 0.61306 0.0
C902 C 0.86578 0.79914 0.64022 0.0
C903 C 0.90467 0.81237 0.66389 0.0
N904 N 0.87145 0.75365 0.62156 0.0
N905 N 0.90002 0.79004 0.66091 0.0
H906 H 0.7965 0.34024 0.12201 0.0
H907 H 0.67135 0.38291 0.16051 0.0
H908 H 0.78535 0.38519 0.1788 0.0
H909 H 0.68317 0.32577 0.11607 0.0
H910 H 0.71304 0.38686 0.1648 0.0
H911 H 0.75492 0.33797 0.11681 0.0
C912 C 0.78534 0.34973 0.13336 0.0
C913 C 0.79449 0.36286 0.15097 0.0
C914 C 0.70647 0.37346 0.15415 0.0
C915 C 0.74675 0.36025 0.14504 0.0
C916 C 0.68268 0.37119 0.15164 0.0
C917 C 0.67373 0.35392 0.13794 0.0
C918 C 0.72142 0.35849 0.14271 0.0
C919 C 0.68927 0.33925 0.12689 0.0
C920 C 0.76157 0.34833 0.1304 0.0
C921 C 0.77909 0.37478 0.16507 0.0
N922 N 0.71236 0.34191 0.12948 0.0
N923 N 0.75595 0.37318 0.1618 0.0
H924 H 0.13216 0.1639 0.61266 0.0
H925 H 0.11616 0.29437 0.64618 0.0
H926 H 0.09504 0.18583 0.67204 0.0
H927 H 0.1223 0.27118 0.57712 0.0
H928 H 0.11836 0.25491 0.65895 0.0
H929 H 0.13874 0.20374 0.60271 0.0
C930 C 0.12607 0.17716 0.62395 0.0
C931 C 0.11325 0.17181 0.64326 0.0
C932 C 0.11941 0.25856 0.64103 0.0
C933 C 0.12058 0.21704 0.63206 0.0
C934 C 0.11823 0.28103 0.63371 0.0
C935 C 0.11883 0.28607 0.61051 0.0
C936 C 0.12156 0.24106 0.62509 0.0
C937 C 0.12154 0.26807 0.59514 0.0
C938 C 0.12961 0.19979 0.61817 0.0
C939 C 0.10512 0.18944 0.65708 0.0
N940 N 0.12276 0.24633 0.60271 0.0
N941 N 0.10893 0.21136 0.65122 0.0
H942 H 0.21039 0.65654 0.11119 0.0
H943 H 0.33498 0.60634 0.1431 0.0
H944 H 0.22225 0.60734 0.1642 0.0
H945 H 0.32379 0.66004 0.09444 0.0
H946 H 0.29341 0.60411 0.14866 0.0
H947 H 0.25154 0.6557 0.10262 0.0
C948 C 0.22161 0.6455 0.12101 0.0
C949 C 0.21283 0.63213 0.1386 0.0
C950 C 0.30005 0.61632 0.13671 0.0
C951 C 0.26003 0.63108 0.12878 0.0
C952 C 0.32382 0.61761 0.13348 0.0
C953 C 0.333 0.63353 0.11836 0.0
C954 C 0.28526 0.63104 0.12476 0.0
C955 C 0.31757 0.64756 0.10632 0.0
C956 C 0.24513 0.64505 0.11609 0.0
C957 C 0.22825 0.6181 0.15064 0.0
N958 N 0.29448 0.64605 0.10986 0.0
N959 N 0.2511 0.61799 0.14554 0.0
H960 H 0.7999 0.16975 0.38086 0.0
H961 H 0.88172 0.26913 0.41602 0.0
H962 H 0.87343 0.15834 0.38575 0.0
H963 H 0.82281 0.28055 0.37262 0.0
H964 H 0.87787 0.22816 0.41015 0.0
H965 H 0.80622 0.21061 0.38408 0.0
C966 C 0.81732 0.17584 0.38297 0.0
C967 C 0.83618 0.16075 0.38314 0.0
C968 C 0.86599 0.23972 0.40176 0.0
C969 C 0.84346 0.20718 0.38676 0.0
C970 C 0.86814 0.26299 0.40509 0.0
C971 C 0.85247 0.27812 0.39487 0.0
C972 C 0.84768 0.23164 0.38866 0.0
C973 C 0.83525 0.2694 0.38077 0.0
C974 C 0.82092 0.1991 0.38452 0.0
C975 C 0.85846 0.1695 0.38557 0.0
N976 N 0.83305 0.24664 0.37838 0.0
N977 N 0.86151 0.19222 0.38747 0.0
H978 H 0.18082 0.39288 0.82103 0.0
H979 H 0.2753 0.31932 0.88805 0.0
H980 H 0.16493 0.34902 0.8773 0.0
H981 H 0.29263 0.37244 0.8409 0.0
H982 H 0.23452 0.32693 0.88106 0.0
H983 H 0.22153 0.3825 0.82497 0.0
C984 C 0.18583 0.38099 0.83415 0.0
C985 C 0.16937 0.3719 0.84893 0.0
C986 C 0.24724 0.33685 0.87215 0.0
C987 C 0.21601 0.35997 0.85349 0.0
C988 C 0.27058 0.33247 0.87606 0.0
C989 C 0.28749 0.34531 0.86509 0.0
C990 C 0.24067 0.35413 0.85707 0.0
C991 C 0.28022 0.36217 0.84981 0.0
C992 C 0.20911 0.37512 0.83641 0.0
C993 C 0.17696 0.35654 0.86557 0.0
N994 N 0.25734 0.36612 0.84628 0.0
N995 N 0.19972 0.3511 0.86741 0.0
H996 H 0.12366 0.84921 0.37677 0.0
H997 H 0.18374 0.72772 0.36926 0.0
H998 H 0.19774 0.84133 0.37928 0.0
H999 H 0.12195 0.73946 0.40844 0.0
H1000 H 0.18597 0.76873 0.3621 0.0
H1001 H 0.11997 0.80785 0.37809 0.0
C1002 C 0.13914 0.83874 0.37749 0.0
C1003 C 0.16104 0.84859 0.37818 0.0
C1004 C 0.17182 0.76218 0.37203 0.0
C1005 C 0.1569 0.80156 0.37913 0.0
C1006 C 0.17042 0.73888 0.37596 0.0
C1007 C 0.15271 0.73035 0.38958 0.0
C1008 C 0.15507 0.77678 0.38132 0.0
C1009 C 0.13597 0.74547 0.39801 0.0
C1010 C 0.137 0.81525 0.37825 0.0
C1011 C 0.18055 0.83432 0.37906 0.0
N1012 N 0.13752 0.76801 0.39371 0.0
N1013 N 0.17804 0.81142 0.3794 0.0
H1014 H 0.83722 0.6506 0.88094 0.0
H1015 H 0.70801 0.61873 0.84711 0.0
H1016 H 0.82076 0.60085 0.82997 0.0
H1017 H 0.72541 0.67778 0.8866 0.0
H1018 H 0.7491 0.61002 0.8429 0.0
H1019 H 0.79611 0.65889 0.88543 0.0
C1020 C 0.82498 0.64139 0.87069 0.0
C1021 C 0.8325 0.62503 0.855 0.0
C1022 C 0.7439 0.62491 0.85243 0.0
C1023 C 0.78535 0.6344 0.86016 0.0
C1024 C 0.72043 0.62989 0.85489 0.0
C1025 C 0.71318 0.64907 0.86719 0.0
C1026 C 0.76027 0.63911 0.86245 0.0
C1027 C 0.73013 0.66285 0.87692 0.0
C1028 C 0.8015 0.64618 0.87324 0.0
C1029 C 0.81579 0.61369 0.84218 0.0
N1030 N 0.75286 0.65757 0.87437 0.0
N1031 N 0.793 0.61854 0.8451 0.0
H1032 H 0.64438 0.85665 0.79743 0.0
H1033 H 0.65627 0.88572 0.66611 0.0
H1034 H 0.65277 0.92473 0.77202 0.0
H1035 H 0.61254 0.83282 0.69139 0.0
H1036 H 0.66776 0.8945 0.70517 0.0
H1037 H 0.64504 0.84249 0.75843 0.0
C1038 C 0.64668 0.86857 0.78368 0.0
C1039 C 0.64816 0.89194 0.78787 0.0
C1040 C 0.65613 0.88059 0.70204 0.0
C1041 C 0.64938 0.87581 0.74357 0.0
C1042 C 0.64976 0.87548 0.67987 0.0
C1043 C 0.63351 0.85857 0.6758 0.0
C1044 C 0.64643 0.86837 0.71999 0.0
C1045 C 0.62512 0.846 0.69405 0.0
C1046 C 0.64705 0.86047 0.76152 0.0
C1047 C 0.6512 0.90663 0.76947 0.0
N1048 N 0.63162 0.85121 0.71545 0.0
N1049 N 0.65164 0.89832 0.74806 0.0
H1050 H 0.65368 0.13951 0.21782 0.0
H1051 H 0.61748 0.11564 0.34468 0.0
H1052 H 0.60141 0.09049 0.23388 0.0
H1053 H 0.68828 0.12707 0.32559 0.0
H1054 H 0.60703 0.11376 0.30453 0.0
H1055 H 0.66171 0.14373 0.2583 0.0
C1056 C 0.64361 0.12997 0.22988 0.0
C1057 C 0.627 0.11448 0.22257 0.0
C1058 C 0.62484 0.11659 0.30922 0.0
C1059 C 0.63606 0.11926 0.26856 0.0
C1060 C 0.63082 0.1176 0.33202 0.0
C1061 C 0.6538 0.12134 0.33835 0.0
C1062 C 0.64184 0.11996 0.29277 0.0
C1063 C 0.67043 0.1239 0.32136 0.0
C1064 C 0.64836 0.13222 0.25287 0.0
C1065 C 0.61451 0.10244 0.23887 0.0
N1066 N 0.66407 0.1234 0.29926 0.0
N1067 N 0.61929 0.10509 0.26118 0.0
H1068 H 0.356 0.15223 0.66833 0.0
H1069 H 0.37088 0.06122 0.76747 0.0
H1070 H 0.40055 0.09316 0.66584 0.0
H1071 H 0.34947 0.13033 0.78128 0.0
H1072 H 0.37298 0.07027 0.72753 0.0
H1073 H 0.34536 0.14209 0.70749 0.0
C1074 C 0.36329 0.13706 0.67597 0.0
C1075 C 0.37938 0.12363 0.66416 0.0
C1076 C 0.36773 0.08346 0.73927 0.0
C1077 C 0.36712 0.11185 0.70814 0.0
C1078 C 0.36653 0.07833 0.76214 0.0
C1079 C 0.36037 0.09515 0.77787 0.0
C1080 C 0.36279 0.10559 0.73191 0.0
C1081 C 0.35454 0.1169 0.76976 0.0
C1082 C 0.35731 0.13136 0.69819 0.0
C1083 C 0.38838 0.10414 0.67459 0.0
N1084 N 0.35609 0.12159 0.74727 0.0
N1085 N 0.38212 0.09884 0.69595 0.0
H1086 H 0.37971 0.84233 0.21465 0.0
H1087 H 0.39916 0.87239 0.34514 0.0
H1088 H 0.39243 0.91009 0.23922 0.0
H1089 H 0.37759 0.80706 0.32095 0.0
H1090 H 0.40281 0.88536 0.30585 0.0
H1091 H 0.38465 0.82794 0.25302 0.0
C1092 C 0.38355 0.85419 0.22809 0.0
C1093 C 0.38538 0.87749 0.22373 0.0
C1094 C 0.39773 0.86804 0.30911 0.0
C1095 C 0.39112 0.86111 0.26769 0.0
C1096 C 0.39586 0.86065 0.33144 0.0
C1097 C 0.38835 0.83865 0.33592 0.0
C1098 C 0.39204 0.85321 0.29138 0.0
C1099 C 0.3836 0.82411 0.3179 0.0
C1100 C 0.38644 0.84595 0.24999 0.0
C1101 C 0.3907 0.89201 0.2418 0.0
N1102 N 0.38548 0.83167 0.29634 0.0
N1103 N 0.39323 0.88359 0.26302 0.0
H1104 H 0.06925 0.13239 0.56846 0.0
H1105 H 0.11494 0.07306 0.45604 0.0
H1106 H 0.1169 0.07563 0.57082 0.0
H1107 H 0.08296 0.13939 0.45882 0.0
H1108 H 0.11708 0.07288 0.49773 0.0
H1109 H 0.07412 0.13415 0.52768 0.0
C1110 C 0.08063 0.12017 0.56032 0.0
C1111 C 0.09258 0.10377 0.57295 0.0
C1112 C 0.11 0.08761 0.48912 0.0
C1113 C 0.09836 0.10567 0.52619 0.0
C1114 C 0.1089 0.08774 0.46546 0.0
C1115 C 0.09852 0.10616 0.4543 0.0
C1116 C 0.10063 0.10605 0.50131 0.0
C1117 C 0.09076 0.12475 0.46699 0.0
C1118 C 0.0836 0.1213 0.53704 0.0
C1119 C 0.10742 0.08857 0.5616 0.0
N1120 N 0.09181 0.12414 0.48981 0.0
N1121 N 0.10976 0.08974 0.53874 0.0
H1122 H 0.38493 0.55564 0.96091 0.0
H1123 H 0.41936 0.64224 0.0589 0.0
H1124 H 0.40556 0.62475 0.9486 0.0
H1125 H 0.40254 0.57218 0.07109 0.0
H1126 H 0.41299 0.63647 0.01863 0.0
H1127 H 0.38984 0.56179 0.00133 0.0
C1128 C 0.39044 0.57216 0.96667 0.0
C1129 C 0.39492 0.5897 0.95125 0.0
C1130 C 0.41062 0.62235 0.03007 0.0
C1131 C 0.4006 0.59679 0.99769 0.0
C1132 C 0.41411 0.62566 0.05313 0.0
C1133 C 0.4112 0.60773 0.06843 0.0
C1134 C 0.40422 0.60089 0.02216 0.0
C1135 C 0.40493 0.58648 0.05988 0.0
C1136 C 0.39328 0.57562 0.98981 0.0
C1137 C 0.402 0.61071 0.95981 0.0
N1138 N 0.40161 0.58366 0.03729 0.0
N1139 N 0.40464 0.61365 0.98246 0.0
H1140 H 0.87561 0.90992 0.45622 0.0
H1141 H 0.9365 0.86319 0.56792 0.0
H1142 H 0.92414 0.85394 0.45796 0.0
H1143 H 0.88003 0.91161 0.56971 0.0
H1144 H 0.93039 0.85852 0.52744 0.0
H1145 H 0.87406 0.90918 0.4978 0.0
C1146 C 0.88545 0.89716 0.46536 0.0
C1147 C 0.90032 0.88222 0.45387 0.0
C1148 C 0.91924 0.87012 0.53667 0.0
C1149 C 0.89894 0.88142 0.50094 0.0
C1150 C 0.92287 0.87291 0.55977 0.0
C1151 C 0.90892 0.88795 0.57216 0.0
C1152 C 0.90171 0.88268 0.52577 0.0
C1153 C 0.89126 0.89986 0.56076 0.0
C1154 C 0.88471 0.89681 0.48902 0.0
C1155 C 0.91281 0.86603 0.46632 0.0
N1156 N 0.88828 0.89713 0.53814 0.0
N1157 N 0.91204 0.86622 0.48918 0.0
H1158 H 0.59754 0.37308 0.94508 0.0
H1159 H 0.58659 0.41504 0.07288 0.0
H1160 H 0.59656 0.44455 0.96122 0.0
H1161 H 0.61513 0.3503 0.05198 0.0
H1162 H 0.58522 0.42663 0.03276 0.0
H1163 H 0.59764 0.36439 0.98528 0.0
C1164 C 0.59713 0.38697 0.95708 0.0
C1165 C 0.59716 0.40957 0.94977 0.0
C1166 C 0.59184 0.40996 0.03718 0.0
C1167 C 0.59737 0.39972 0.99595 0.0
C1168 C 0.59267 0.40337 0.05999 0.0
C1169 C 0.60064 0.38155 0.06582 0.0
C1170 C 0.59887 0.39449 0.02035 0.0
C1171 C 0.6084 0.36713 0.04841 0.0
C1172 C 0.59735 0.382 0.98006 0.0
C1173 C 0.59673 0.42687 0.96617 0.0
N1174 N 0.60715 0.37379 0.02658 0.0
N1175 N 0.59683 0.4216 0.98858 0.0
H1176 H 0.15139 0.87722 0.53082 0.0
H1177 H 0.12463 0.96224 0.43777 0.0
H1178 H 0.12014 0.94146 0.54909 0.0
H1179 H 0.11416 0.89093 0.42658 0.0
H1180 H 0.11959 0.95623 0.47844 0.0
H1181 H 0.13675 0.88207 0.49232 0.0
C1182 C 0.14135 0.89229 0.52672 0.0
C1183 C 0.1372 0.90911 0.54299 0.0
C1184 C 0.11738 0.94206 0.46702 0.0
C1185 C 0.12048 0.91478 0.49913 0.0
C1186 C 0.11995 0.94556 0.44382 0.0
C1187 C 0.11957 0.92707 0.42898 0.0
C1188 C 0.11535 0.91982 0.47522 0.0
C1189 C 0.11426 0.90562 0.4376 0.0
C1190 C 0.13275 0.89492 0.50487 0.0
C1191 C 0.12381 0.92817 0.53693 0.0
N1192 N 0.1131 0.9024 0.46029 0.0
N1193 N 0.11631 0.93074 0.51531 0.0
H1194 H 0.64797 0.5987 0.93244 0.0
H1195 H 0.62776 0.64189 0.05936 0.0
H1196 H 0.6179 0.66336 0.951 0.0
H1197 H 0.65332 0.57447 0.04401 0.0
H1198 H 0.62373 0.64924 0.01916 0.0
H1199 H 0.64867 0.58803 0.97275 0.0
C1200 C 0.64112 0.61041 0.94493 0.0
C1201 C 0.63309 0.63199 0.93852 0.0
C1202 C 0.6302 0.63279 0.02451 0.0
C1203 C 0.63409 0.6202 0.98423 0.0
C1204 C 0.63263 0.62863 0.04754 0.0
C1205 C 0.64088 0.60752 0.05513 0.0
C1206 C 0.63616 0.6158 0.00881 0.0
C1207 C 0.64685 0.591 0.03892 0.0
C1208 C 0.64169 0.60443 0.96788 0.0
C1209 C 0.62455 0.64666 0.95528 0.0
N1210 N 0.6444 0.5955 0.01649 0.0
N1211 N 0.62543 0.64056 0.97731 0.0
H1212 H 0.88652 0.08994 0.42116 0.0
H1213 H 0.82197 0.0634 0.53293 0.0
H1214 H 0.83386 0.03922 0.42627 0.0
H1215 H 0.89058 0.0907 0.53532 0.0
H1216 H 0.82817 0.0526 0.49366 0.0
H1217 H 0.89198 0.08798 0.46233 0.0
C1218 C 0.87693 0.0776 0.43082 0.0
C1219 C 0.85961 0.06481 0.42047 0.0
C1220 C 0.84208 0.06067 0.50274 0.0
C1221 C 0.86519 0.06298 0.46728 0.0
C1222 C 0.83843 0.06697 0.5251 0.0
C1223 C 0.85573 0.07806 0.53714 0.0
C1224 C 0.86294 0.06612 0.49205 0.0
C1225 C 0.87685 0.08217 0.52641 0.0
C1226 C 0.87987 0.07665 0.45432 0.0
C1227 C 0.84729 0.04944 0.43372 0.0
N1228 N 0.87974 0.07662 0.50421 0.0
N1229 N 0.84999 0.04928 0.45648 0.0
H1230 H 0.3747 0.40387 0.93733 0.0
H1231 H 0.34872 0.36576 0.06192 0.0
H1232 H 0.32454 0.35302 0.95417 0.0
H1233 H 0.36525 0.43578 0.04883 0.0
H1234 H 0.34424 0.35968 0.02139 0.0
H1235 H 0.37454 0.41619 0.97723 0.0
C1236 C 0.3633 0.39571 0.94925 0.0
C1237 C 0.34998 0.37712 0.94263 0.0
C1238 C 0.34875 0.37642 0.02739 0.0
C1239 C 0.35008 0.39065 0.98779 0.0
C1240 C 0.35148 0.37984 0.05049 0.0
C1241 C 0.35733 0.40129 0.05869 0.0
C1242 C 0.35231 0.39445 0.01232 0.0
C1243 C 0.3606 0.41899 0.04312 0.0
C1244 C 0.3633 0.40263 0.97194 0.0
C1245 C 0.3355 0.36707 0.95868 0.0
N1246 N 0.35826 0.41514 0.02055 0.0
N1247 N 0.33624 0.3737 0.98056 0.0
H1248 H 0.56083 0.1493 0.14338 0.0
H1249 H 0.43111 0.10984 0.12365 0.0
H1250 H 0.54067 0.07918 0.13829 0.0
H1251 H 0.44811 0.17477 0.15281 0.0
H1252 H 0.4721 0.10061 0.12115 0.0
H1253 H 0.52031 0.1608 0.13939 0.0
C1254 C 0.54792 0.13633 0.14121 0.0
C1255 C 0.5541 0.11321 0.14135 0.0
C1256 C 0.46684 0.11693 0.12795 0.0
C1257 C 0.50788 0.1263 0.13664 0.0
C1258 C 0.44343 0.1223 0.1293 0.0
C1259 C 0.4361 0.14307 0.13868 0.0
C1260 C 0.48311 0.13247 0.13583 0.0
C1261 C 0.45296 0.1585 0.14565 0.0
C1262 C 0.52483 0.14292 0.13903 0.0
C1263 C 0.53665 0.09716 0.13851 0.0
N1264 N 0.47572 0.15284 0.14417 0.0
N1265 N 0.51433 0.10401 0.13628 0.0
H1266 H 0.39846 0.94232 0.59221 0.0
H1267 H 0.36173 0.07187 0.57355 0.0
H1268 H 0.328 0.96694 0.59306 0.0
H1269 H 0.43011 0.05166 0.59535 0.0
H1270 H 0.35068 0.0322 0.57285 0.0
H1271 H 0.41155 0.98125 0.58631 0.0
C1272 C 0.38575 0.95589 0.59102 0.0
C1273 C 0.36211 0.95146 0.59331 0.0
C1274 C 0.36816 0.03644 0.57762 0.0
C1275 C 0.37696 0.99579 0.58635 0.0
C1276 C 0.37456 0.0591 0.57794 0.0
C1277 C 0.39686 0.06519 0.58481 0.0
C1278 C 0.38414 0.01964 0.5841 0.0
C1279 C 0.4127 0.04778 0.59012 0.0
C1280 C 0.39325 0.97805 0.58771 0.0
C1281 C 0.3464 0.96964 0.59165 0.0
N1282 N 0.40598 0.02576 0.58981 0.0
N1283 N 0.35411 0.99101 0.58825 0.0
H1284 H 0.43871 0.85396 0.13803 0.0
H1285 H 0.56907 0.89516 0.12839 0.0
H1286 H 0.45867 0.92427 0.14086 0.0
H1287 H 0.55064 0.82704 0.14768 0.0
H1288 H 0.52824 0.90499 0.12532 0.0
H1289 H 0.47929 0.84301 0.13392 0.0
C1290 C 0.45157 0.86713 0.13745 0.0
C1291 C 0.44529 0.8901 0.13993 0.0
C1292 C 0.53315 0.88786 0.13008 0.0
C1293 C 0.49169 0.8776 0.13527 0.0
C1294 C 0.55647 0.88217 0.13177 0.0
C1295 C 0.56334 0.86025 0.1385 0.0
C1296 C 0.51651 0.8715 0.13496 0.0
C1297 C 0.54615 0.84418 0.14262 0.0
C1298 C 0.47473 0.86083 0.13525 0.0
C1299 C 0.46274 0.90638 0.13918 0.0
N1300 N 0.5235 0.85015 0.14086 0.0
N1301 N 0.48516 0.89981 0.13698 0.0
H1302 H 0.67532 0.03088 0.60183 0.0
H1303 H 0.57426 0.94051 0.60566 0.0
H1304 H 0.60366 0.04987 0.59341 0.0
H1305 H 0.64643 0.92301 0.59877 0.0
H1306 H 0.58408 0.98068 0.60146 0.0
H1307 H 0.6646 0.99109 0.60064 0.0
C1308 C 0.65731 0.02665 0.59966 0.0
C1309 C 0.64032 0.04368 0.59794 0.0
C1310 C 0.59769 0.96796 0.60062 0.0
C1311 C 0.62787 0.99811 0.5967 0.0
C1312 C 0.59211 0.94509 0.60312 0.0
C1313 C 0.60954 0.92837 0.6024 0.0
C1314 C 0.62086 0.97408 0.59771 0.0
C1315 C 0.63238 0.93522 0.59903 0.0
C1316 C 0.6512 0.00392 0.5989 0.0
C1317 C 0.61729 0.03724 0.59485 0.0
N1318 N 0.63737 0.95752 0.59696 0.0
N1319 N 0.61168 0.01491 0.59458 0.0
H1320 H 0.47583 0.81931 0.86174 0.0
H1321 H 0.55354 0.92952 0.85889 0.0
H1322 H 0.44824 0.88685 0.87237 0.0
H1323 H 0.58171 0.86208 0.86873 0.0
H1324 H 0.51469 0.91423 0.86302 0.0
H1325 H 0.51482 0.83453 0.86397 0.0
C1326 C 0.47795 0.83729 0.86478 0.0
C1327 C 0.45871 0.85183 0.86671 0.0
C1328 C 0.5294 0.90283 0.86443 0.0
C1329 C 0.50327 0.8694 0.86894 0.0
C1330 C 0.55157 0.91153 0.86196 0.0
C1331 C 0.57092 0.89706 0.86334 0.0
C1332 C 0.52655 0.87946 0.86798 0.0
C1333 C 0.56732 0.8739 0.86752 0.0
C1334 C 0.50021 0.84597 0.86606 0.0
C1335 C 0.46254 0.87498 0.87075 0.0
N1336 N 0.54558 0.86579 0.86949 0.0
N1337 N 0.48437 0.88309 0.87144 0.0
H1338 H 0.58843 0.97354 0.38974 0.0
H1339 H 0.67545 0.06212 0.4426 0.0
H1340 H 0.64821 0.95263 0.42838 0.0
H1341 H 0.60857 0.08033 0.41572 0.0
H1342 H 0.66559 0.02205 0.43938 0.0
H1343 H 0.59645 0.01285 0.39878 0.0
C1344 C 0.60336 0.97725 0.40008 0.0
C1345 C 0.61762 0.95977 0.40843 0.0
C1346 C 0.65291 0.03479 0.43457 0.0
C1347 C 0.62673 0.00492 0.41914 0.0
C1348 C 0.65844 0.05766 0.43658 0.0
C1349 C 0.64283 0.07452 0.42928 0.0
C1350 C 0.63177 0.0288 0.42486 0.0
C1351 C 0.62106 0.06788 0.42163 0.0
C1352 C 0.60781 0.99973 0.40538 0.0
C1353 C 0.63685 0.96561 0.42151 0.0
N1354 N 0.61633 0.04549 0.41923 0.0
N1355 N 0.64082 0.98777 0.42654 0.0
H1356 H 0.41928 0.13769 0.85917 0.0
H1357 H 0.55455 0.11393 0.87396 0.0
H1358 H 0.45007 0.07061 0.85894 0.0
H1359 H 0.52589 0.17943 0.85584 0.0
H1360 H 0.51563 0.09864 0.87508 0.0
H1361 H 0.45759 0.15384 0.86404 0.0
C1362 C 0.43406 0.12632 0.86029 0.0
C1363 C 0.43144 0.10272 0.8585 0.0
C1364 C 0.51787 0.11639 0.87103 0.0
C1365 C 0.47533 0.12118 0.86419 0.0
C1366 C 0.54009 0.12521 0.87051 0.0
C1367 C 0.54357 0.14801 0.86462 0.0
C1368 C 0.49893 0.13047 0.86577 0.0
C1369 C 0.52408 0.16174 0.86033 0.0
C1370 C 0.45593 0.13559 0.86301 0.0
C1371 C 0.45127 0.08889 0.86004 0.0
N1372 N 0.50261 0.15272 0.86088 0.0
N1373 N 0.47237 0.09833 0.86278 0.0
H1374 H 0.33623 0.92673 0.36301 0.0
H1375 H 0.41442 0.0197 0.42223 0.0
H1376 H 0.3916 0.91066 0.40943 0.0
H1377 H 0.35121 0.03692 0.38744 0.0
H1378 H 0.40527 0.97962 0.41875 0.0
H1379 H 0.34091 0.96701 0.37174 0.0
C1380 C 0.34946 0.93163 0.37492 0.0
C1381 C 0.3637 0.91521 0.38531 0.0
C1382 C 0.3932 0.99209 0.41208 0.0
C1383 C 0.36895 0.96132 0.39554 0.0
C1384 C 0.39841 0.01499 0.41411 0.0
C1385 C 0.38361 0.03158 0.40497 0.0
C1386 C 0.37324 0.98563 0.4004 0.0
C1387 C 0.36303 0.0246 0.39476 0.0
C1388 C 0.35197 0.95463 0.38005 0.0
C1389 C 0.3803 0.92263 0.40088 0.0
N1390 N 0.3586 0.00207 0.39241 0.0
N1391 N 0.38253 0.94509 0.4054 0.0
H1392 H 0.11859 0.47253 0.06209 0.0
H1393 H 0.12347 0.571 0.15342 0.0
H1394 H 0.10671 0.46333 0.13362 0.0
H1395 H 0.12225 0.58539 0.08176 0.0
H1396 H 0.11821 0.53141 0.14559 0.0
H1397 H 0.1209 0.51346 0.06818 0.0
C1398 C 0.11646 0.47909 0.07908 0.0
C1399 C 0.11249 0.46445 0.09742 0.0
C1400 C 0.11887 0.54309 0.13147 0.0
C1401 C 0.11508 0.51119 0.10436 0.0
C1402 C 0.12194 0.56586 0.13589 0.0
C1403 C 0.12341 0.58162 0.11814 0.0
C1404 C 0.11728 0.53569 0.10907 0.0
C1405 C 0.12119 0.57379 0.09589 0.0
C1406 C 0.11767 0.50246 0.08247 0.0
C1407 C 0.10975 0.47391 0.11898 0.0
N1408 N 0.11837 0.55119 0.09193 0.0
N1409 N 0.1112 0.49667 0.12184 0.0
H1410 H 0.15782 0.55631 0.92383 0.0
H1411 H 0.07114 0.45961 0.88556 0.0
H1412 H 0.0958 0.56942 0.88544 0.0
H1413 H 0.14413 0.44661 0.8919 0.0
H1414 H 0.0775 0.49946 0.89544 0.0
H1415 H 0.15117 0.51539 0.92021 0.0
C1416 C 0.14282 0.55051 0.91465 0.0
C1417 C 0.12732 0.5661 0.90485 0.0
C1418 C 0.09205 0.48777 0.89516 0.0
C1419 C 0.11931 0.51972 0.90132 0.0
C1420 C 0.08838 0.46505 0.88992 0.0
C1421 C 0.10711 0.44996 0.88845 0.0
C1422 C 0.11462 0.4953 0.89885 0.0
C1423 C 0.12926 0.45779 0.89342 0.0
C1424 C 0.13904 0.52727 0.91264 0.0
C1425 C 0.10822 0.55787 0.89306 0.0
N1426 N 0.13247 0.48007 0.89833 0.0
N1427 N 0.1046 0.53519 0.8918 0.0
H1428 H 0.07301 0.64357 0.42722 0.0
H1429 H 0.98853 0.63648 0.32144 0.0
H1430 H 0.09765 0.64136 0.35834 0.0
H1431 H 0.96776 0.62054 0.38971 0.0
H1432 H 0.02856 0.63866 0.33433 0.0
H1433 H 0.03418 0.63558 0.41364 0.0
C1434 C 0.07028 0.64131 0.40924 0.0
C1435 C 0.08861 0.64328 0.39389 0.0
C1436 C 0.01524 0.63447 0.34642 0.0
C1437 C 0.04411 0.63426 0.3782 0.0
C1438 C 0.99237 0.63327 0.33908 0.0
C1439 C 0.97469 0.62846 0.35452 0.0
C1440 C 0.02042 0.63112 0.36939 0.0
C1441 C 0.98076 0.62435 0.37718 0.0
C1442 C 0.04811 0.63666 0.4015 0.0
C1443 C 0.08405 0.64 0.37079 0.0
N1444 N 0.00306 0.626 0.38395 0.0
N1445 N 0.0622 0.63588 0.36362 0.0
H1446 H 0.88372 0.55696 0.91367 0.0
H1447 H 0.89139 0.42737 0.87501 0.0
H1448 H 0.92188 0.53218 0.85596 0.0
H1449 H 0.86262 0.44727 0.93952 0.0
H1450 H 0.90256 0.46636 0.86847 0.0
H1451 H 0.87674 0.51739 0.92507 0.0
C1452 C 0.89107 0.54322 0.90376 0.0
C1453 C 0.90317 0.5477 0.88376 0.0
C1454 C 0.89388 0.46226 0.88413 0.0
C1455 C 0.89504 0.50287 0.8963 0.0
C1456 C 0.88736 0.43995 0.88781 0.0
C1457 C 0.87603 0.43399 0.90784 0.0
C1458 C 0.88892 0.47892 0.90048 0.0
C1459 C 0.87136 0.45111 0.92384 0.0
C1460 C 0.88694 0.52071 0.91012 0.0
C1461 C 0.91218 0.5294 0.87134 0.0
N1462 N 0.87775 0.47287 0.91977 0.0
N1463 N 0.90776 0.50785 0.8777 0.0
H1464 H 0.03842 0.38673 0.38773 0.0
H1465 H 0.90797 0.35715 0.35717 0.0
H1466 H 0.0197 0.3509 0.32678 0.0
H1467 H 0.93191 0.37084 0.42489 0.0
H1468 H 0.9475 0.36159 0.34324 0.0
H1469 H 0.99799 0.38794 0.39876 0.0
C1470 C 0.02582 0.37922 0.37654 0.0
C1471 C 0.03258 0.36848 0.35635 0.0
C1472 C 0.94401 0.36378 0.3611 0.0
C1473 C 0.98611 0.36988 0.36902 0.0
C1474 C 0.92148 0.3614 0.36905 0.0
C1475 C 0.91672 0.36351 0.39225 0.0
C1476 C 0.96177 0.36868 0.37642 0.0
C1477 C 0.93487 0.36886 0.40691 0.0
C1478 C 0.00272 0.3799 0.38293 0.0
C1479 C 0.01534 0.35923 0.34255 0.0
N1480 N 0.9566 0.37126 0.39875 0.0
N1481 N 0.99286 0.36006 0.34919 0.0
H1482 H 0.86409 0.4182 0.09497 0.0
H1483 H 0.90935 0.53973 0.13387 0.0
H1484 H 0.90514 0.43076 0.15441 0.0
H1485 H 0.87539 0.5295 0.06967 0.0
H1486 H 0.90831 0.49917 0.14061 0.0
H1487 H 0.8693 0.45808 0.08357 0.0
C1488 C 0.87462 0.4292 0.10528 0.0
C1489 C 0.88406 0.42138 0.12571 0.0
C1490 C 0.90113 0.50571 0.12498 0.0
C1491 C 0.88978 0.46662 0.11314 0.0
C1492 C 0.90162 0.52897 0.12117 0.0
C1493 C 0.89243 0.5381 0.10118 0.0
C1494 C 0.89122 0.49132 0.10879 0.0
C1495 C 0.88271 0.52319 0.08533 0.0
C1496 C 0.87743 0.45193 0.09892 0.0
C1497 C 0.89735 0.43625 0.13865 0.0
N1498 N 0.88227 0.50049 0.08951 0.0
N1499 N 0.89965 0.45813 0.13225 0.0
H1500 H 0.9183 0.38316 0.63573 0.0
H1501 H 0.02833 0.32259 0.58675 0.0
H1502 H 0.93105 0.31212 0.64887 0.0
H1503 H 0.03726 0.38474 0.62415 0.0
H1504 H 0.98832 0.32103 0.6002 0.0
H1505 H 0.95856 0.38672 0.62285 0.0
C1506 C 0.92963 0.36841 0.63603 0.0
C1507 C 0.92156 0.34737 0.64357 0.0
C1508 C 0.99909 0.33503 0.6053 0.0
C1509 C 0.96681 0.35116 0.62823 0.0
C1510 C 0.02177 0.33602 0.59757 0.0
C1511 C 0.03604 0.35378 0.60446 0.0
C1512 C 0.99051 0.35225 0.61944 0.0
C1513 C 0.02678 0.3707 0.61862 0.0
C1514 C 0.95244 0.37046 0.62873 0.0
C1515 C 0.93676 0.32869 0.64349 0.0
N1516 N 0.00444 0.36965 0.62554 0.0
N1517 N 0.9586 0.33094 0.63561 0.0
H1518 H 0.06545 0.64627 0.68003 0.0
H1519 H 0.97913 0.65417 0.57549 0.0
H1520 H 0.08895 0.6423 0.61083 0.0
H1521 H 0.95779 0.63637 0.64313 0.0
H1522 H 0.01951 0.65171 0.58788 0.0
H1523 H 0.02568 0.64417 0.66668 0.0
C1524 C 0.06227 0.64472 0.66205 0.0
C1525 C 0.08057 0.64449 0.64655 0.0
C1526 C 0.00593 0.64822 0.59991 0.0
C1527 C 0.03504 0.64242 0.63111 0.0
C1528 C 0.9829 0.64971 0.59288 0.0
C1529 C 0.96502 0.64553 0.60828 0.0
C1530 C 0.01102 0.64283 0.62254 0.0
C1531 C 0.97095 0.63971 0.63061 0.0
C1532 C 0.03955 0.64352 0.65443 0.0
C1533 C 0.07538 0.64245 0.62341 0.0
N1534 N 0.99338 0.63871 0.63708 0.0
N1535 N 0.05307 0.64175 0.61636 0.0
H1536 H 0.92689 0.12584 0.34303 0.0
H1537 H 0.0527 0.07213 0.32217 0.0
H1538 H 0.9388 0.05811 0.31751 0.0
H1539 H 0.04004 0.13658 0.35435 0.0
H1540 H 0.01137 0.06975 0.31321 0.0
H1541 H 0.96835 0.13269 0.34104 0.0
C1542 C 0.93818 0.11245 0.33684 0.0
C1543 C 0.9293 0.09128 0.33064 0.0
C1544 C 0.01771 0.08469 0.32174 0.0
C1545 C 0.97695 0.09904 0.32829 0.0
C1546 C 0.04133 0.08618 0.32653 0.0
C1547 C 0.04971 0.1047 0.33877 0.0
C1548 C 0.00246 0.10178 0.32943 0.0
C1549 C 0.03421 0.12213 0.34471 0.0
C1550 C 0.96189 0.11638 0.33569 0.0
C1551 C 0.94484 0.07464 0.32264 0.0
N1552 N 0.01133 0.12015 0.34021 0.0
N1553 N 0.96788 0.07881 0.32186 0.0
H1554 H 0.4179 0.42904 0.82606 0.0
H1555 H 0.35622 0.54992 0.83847 0.0
H1556 H 0.34602 0.43827 0.84318 0.0
H1557 H 0.42911 0.54032 0.82771 0.0
H1558 H 0.35035 0.50949 0.83101 0.0
H1559 H 0.42052 0.46958 0.81839 0.0
C1560 C 0.40255 0.43953 0.82796 0.0
C1561 C 0.38176 0.4302 0.8356 0.0
C1562 C 0.36756 0.5163 0.82959 0.0
C1563 C 0.3847 0.47688 0.82681 0.0
C1564 C 0.37084 0.53944 0.8335 0.0
C1565 C 0.39312 0.54841 0.83334 0.0
C1566 C 0.38679 0.50203 0.82586 0.0
C1567 C 0.41161 0.53406 0.82756 0.0
C1568 C 0.40408 0.46274 0.82354 0.0
C1569 C 0.36246 0.44471 0.83756 0.0
N1570 N 0.4081 0.5115 0.82438 0.0
N1571 N 0.36447 0.46734 0.83344 0.0
H1572 H 0.06327 0.93523 0.29397 0.0
H1573 H 0.9644 0.92248 0.37465 0.0
H1574 H 0.07011 0.88932 0.35055 0.0
H1575 H 0.94566 0.89346 0.31024 0.0
H1576 H 0.00436 0.92355 0.36259 0.0
H1577 H 0.02106 0.93057 0.29553 0.0
C1578 C 0.05603 0.92381 0.30635 0.0
C1579 C 0.07029 0.91293 0.3224 0.0
C1580 C 0.99146 0.91716 0.35102 0.0
C1581 C 0.02239 0.90768 0.32413 0.0
C1582 C 0.96862 0.9165 0.35781 0.0
C1583 C 0.95165 0.90742 0.34359 0.0
C1584 C 0.99762 0.90905 0.32967 0.0
C1585 C 0.95824 0.90047 0.32175 0.0
C1586 C 0.03202 0.92109 0.30708 0.0
C1587 C 0.05991 0.89827 0.338 0.0
N1588 N 0.98095 0.90126 0.3154 0.0
N1589 N 0.0366 0.89653 0.3388 0.0
H1590 H 0.64067 0.44869 0.83789 0.0
H1591 H 0.5828 0.5709 0.81948 0.0
H1592 H 0.56835 0.45989 0.82505 0.0
H1593 H 0.65242 0.56031 0.8435 0.0
H1594 H 0.57962 0.53018 0.81294 0.0
H1595 H 0.6477 0.48895 0.83046 0.0
C1596 C 0.62645 0.45947 0.83248 0.0
C1597 C 0.60397 0.45102 0.8317 0.0
C1598 C 0.59569 0.53677 0.81941 0.0
C1599 C 0.61162 0.49716 0.82416 0.0
C1600 C 0.59754 0.56006 0.82318 0.0
C1601 C 0.61783 0.56909 0.83234 0.0
C1602 C 0.61427 0.52225 0.8248 0.0
C1603 C 0.63637 0.55413 0.83664 0.0
C1604 C 0.63039 0.48251 0.82859 0.0
C1605 C 0.58599 0.46576 0.82537 0.0
N1606 N 0.63407 0.53144 0.83302 0.0
N1607 N 0.59013 0.48819 0.82213 0.0
H1608 H 0.94871 0.95558 0.67573 0.0
H1609 H 0.06272 0.9369 0.60143 0.0
H1610 H 0.94882 0.92843 0.60816 0.0
H1611 H 0.06338 0.95805 0.67132 0.0
H1612 H 0.02068 0.94024 0.60138 0.0
H1613 H 0.99002 0.96364 0.67201 0.0
C1614 C 0.95735 0.95198 0.65987 0.0
C1615 C 0.94544 0.94165 0.64211 0.0
C1616 C 0.03001 0.94438 0.61667 0.0
C1617 C 0.99271 0.94992 0.63796 0.0
C1618 C 0.05407 0.9425 0.61672 0.0
C1619 C 0.06666 0.94692 0.63651 0.0
C1620 C 0.01835 0.95073 0.63656 0.0
C1621 C 0.05443 0.95423 0.65573 0.0
C1622 C 0.98094 0.95634 0.65781 0.0
C1623 C 0.95743 0.93671 0.6221 0.0
N1624 N 0.03097 0.95571 0.65533 0.0
N1625 N 0.98045 0.94067 0.62063 0.0
H1626 H 0.56209 0.46064 0.17572 0.0
H1627 H 0.66033 0.55254 0.1635 0.0
H1628 H 0.63386 0.44413 0.16407 0.0
H1629 H 0.58987 0.56954 0.17985 0.0
H1630 H 0.6523 0.51259 0.17079 0.0
H1631 H 0.57269 0.5 0.18298 0.0
C1632 C 0.58011 0.46521 0.17489 0.0
C1633 C 0.59707 0.44905 0.16899 0.0
C1634 C 0.63869 0.52504 0.17342 0.0
C1635 C 0.60935 0.49419 0.17738 0.0
C1636 C 0.64338 0.54788 0.16956 0.0
C1637 C 0.62577 0.56426 0.17131 0.0
C1638 C 0.61603 0.51849 0.17849 0.0
C1639 C 0.60397 0.55739 0.17867 0.0
C1640 C 0.58617 0.48772 0.17912 0.0
C1641 C 0.62015 0.45602 0.1683 0.0
N1642 N 0.59956 0.53493 0.18155 0.0
N1643 N 0.62556 0.47806 0.17222 0.0
H1644 H 0.94396 0.06375 0.59972 0.0
H1645 H 0.05096 0.05679 0.68427 0.0
H1646 H 0.93736 0.05332 0.67166 0.0
H1647 H 0.05825 0.06141 0.61199 0.0
H1648 H 0.00958 0.05018 0.67947 0.0
H1649 H 0.98575 0.05846 0.6032 0.0
C1650 C 0.95125 0.06013 0.61622 0.0
C1651 C 0.93709 0.05924 0.63546 0.0
C1652 C 0.02025 0.05209 0.66458 0.0
C1653 C 0.98503 0.05321 0.63958 0.0
C1654 C 0.0439 0.0556 0.66735 0.0
C1655 C 0.05797 0.05914 0.64847 0.0
C1656 C 0.01053 0.05279 0.64278 0.0
C1657 C 0.04796 0.05823 0.62692 0.0
C1658 C 0.97514 0.05708 0.61819 0.0
C1659 C 0.94755 0.05437 0.65637 0.0
N1660 N 0.02479 0.05545 0.62465 0.0
N1661 N 0.97085 0.05177 0.6579 0.0
H1662 H 0.4456 0.5384 0.17712 0.0
H1663 H 0.34619 0.44834 0.17195 0.0
H1664 H 0.37321 0.5561 0.17378 0.0
H1665 H 0.41763 0.43051 0.18231 0.0
H1666 H 0.35482 0.48779 0.18106 0.0
H1667 H 0.43532 0.49944 0.18638 0.0
C1668 C 0.42753 0.5342 0.17868 0.0
C1669 C 0.41025 0.55052 0.17428 0.0
C1670 C 0.36855 0.47521 0.18206 0.0
C1671 C 0.39832 0.50577 0.18479 0.0
C1672 C 0.36353 0.45264 0.17715 0.0
C1673 C 0.38121 0.43626 0.17658 0.0
C1674 C 0.39157 0.4815 0.18578 0.0
C1675 C 0.40349 0.44268 0.18289 0.0
C1676 C 0.42166 0.51191 0.18402 0.0
C1677 C 0.38713 0.54407 0.17675 0.0
N1678 N 0.40817 0.46493 0.18672 0.0
N1679 N 0.38186 0.52215 0.18149 0.0
H1680 H 0.38544 0.05394 0.12913 0.0
H1681 H 0.36724 0.93212 0.08349 0.0
H1682 H 0.33651 0.05227 0.07404 0.0
H1683 H 0.34646 0.95307 0.1505 0.0
H1684 H 0.36856 0.97274 0.07235 0.0
H1685 H 0.38673 0.01261 0.12906 0.0
C1686 C 0.3753 0.04496 0.1167 0.0
C1687 C 0.36044 0.05665 0.10189 0.0
C1688 C 0.36348 0.96814 0.08934 0.0
C1689 C 0.36227 0.0093 0.10159 0.0
C1690 C 0.36266 0.94513 0.09567 0.0
C1691 C 0.35713 0.93928 0.11806 0.0
C1692 C 0.35898 0.98494 0.10568 0.0
C1693 C 0.35134 0.95675 0.13322 0.0
C1694 C 0.37616 0.02139 0.11664 0.0
C1695 C 0.34795 0.04393 0.08597 0.0
N1696 N 0.35277 0.97869 0.12687 0.0
N1697 N 0.34882 0.02078 0.08646 0.0
H1698 H 0.44314 0.86152 0.52789 0.0
H1699 H 0.54945 0.83168 0.60644 0.0
H1700 H 0.44368 0.8695 0.6005 0.0
H1701 H 0.56325 0.86237 0.54164 0.0
H1702 H 0.5085 0.83713 0.60025 0.0
H1703 H 0.48535 0.85537 0.52887 0.0
C1704 C 0.45206 0.86212 0.54397 0.0
C1705 C 0.43976 0.86587 0.56419 0.0
C1706 C 0.5204 0.84262 0.58728 0.0
C1707 C 0.48763 0.85859 0.56531 0.0
C1708 C 0.54386 0.83948 0.59075 0.0
C1709 C 0.5599 0.84703 0.57474 0.0
C1710 C 0.51256 0.85319 0.5675 0.0
C1711 C 0.55145 0.85647 0.55448 0.0
C1712 C 0.47608 0.85867 0.54445 0.0
C1713 C 0.45225 0.86651 0.58449 0.0
N1714 N 0.52819 0.85946 0.55144 0.0
N1715 N 0.47535 0.8627 0.58452 0.0
H1716 H 0.6725 0.06601 0.09836 0.0
H1717 H 0.61108 0.94748 0.11913 0.0
H1718 H 0.60122 0.05905 0.11722 0.0
H1719 H 0.68289 0.95365 0.10112 0.0
H1720 H 0.60558 0.98797 0.11194 0.0
H1721 H 0.67485 0.02493 0.09165 0.0
C1722 C 0.65709 0.05592 0.10011 0.0
C1723 C 0.63658 0.06581 0.10814 0.0
C1724 C 0.62251 0.98046 0.10934 0.0
C1725 C 0.6393 0.01888 0.1015 0.0
C1726 C 0.62568 0.9573 0.11352 0.0
C1727 C 0.64756 0.94715 0.11103 0.0
C1728 C 0.64139 0.9937 0.10278 0.0
C1729 C 0.66576 0.96076 0.10347 0.0
C1730 C 0.6585 0.03245 0.09664 0.0
C1731 C 0.61728 0.052 0.11087 0.0
N1732 N 0.66233 0.98336 0.09986 0.0
N1733 N 0.61918 0.0292 0.10787 0.0
H1734 H 0.5588 0.17896 0.57081 0.0
H1735 H 0.44068 0.11318 0.55036 0.0
H1736 H 0.55546 0.10633 0.56242 0.0
H1737 H 0.44523 0.18445 0.56526 0.0
H1738 H 0.48298 0.11112 0.54736 0.0
H1739 H 0.51778 0.18189 0.56231 0.0
C1740 C 0.54949 0.16359 0.56701 0.0
C1741 C 0.56064 0.14232 0.56755 0.0
C1742 C 0.4747 0.12735 0.55064 0.0
C1743 C 0.51333 0.1456 0.55774 0.0
C1744 C 0.45058 0.12858 0.55197 0.0
C1745 C 0.43956 0.14914 0.5575 0.0
C1746 C 0.48778 0.14681 0.55513 0.0
C1747 C 0.45311 0.16842 0.56045 0.0
C1748 C 0.52599 0.1653 0.56212 0.0
C1749 C 0.54758 0.12306 0.56236 0.0
N1750 N 0.47649 0.16676 0.55941 0.0
N1751 N 0.52458 0.12514 0.55784 0.0
H1752 H 0.32161 0.04332 0.90398 0.0
H1753 H 0.39886 0.93389 0.87896 0.0
H1754 H 0.39299 0.04544 0.88417 0.0
H1755 H 0.32919 0.93058 0.90437 0.0
H1756 H 0.39863 0.97467 0.88611 0.0
H1757 H 0.32577 0.0024 0.91085 0.0
C1758 C 0.33842 0.03531 0.90207 0.0
C1759 C 0.35704 0.04767 0.89367 0.0
C1760 C 0.38344 0.96503 0.89036 0.0
C1761 C 0.36173 0.00087 0.90042 0.0
C1762 C 0.38354 0.9417 0.88618 0.0
C1763 C 0.36391 0.92878 0.89079 0.0
C1764 C 0.36348 0.97568 0.89901 0.0
C1765 C 0.34466 0.93987 0.90037 0.0
C1766 C 0.34073 0.0119 0.90564 0.0
C1767 C 0.37828 0.03645 0.89077 0.0
N1768 N 0.34482 0.9627 0.9039 0.0
N1769 N 0.37996 0.01364 0.89377 0.0
H1770 H 0.54805 0.88398 0.43851 0.0
H1771 H 0.44926 0.79291 0.41891 0.0
H1772 H 0.56156 0.81895 0.40742 0.0
H1773 H 0.43751 0.86137 0.44254 0.0
H1774 H 0.49085 0.79936 0.42004 0.0
H1775 H 0.50853 0.87307 0.44537 0.0
C1776 C 0.54268 0.86729 0.4331 0.0
C1777 C 0.55809 0.8525 0.42197 0.0
C1778 C 0.47918 0.81285 0.42525 0.0
C1779 C 0.51235 0.83983 0.42982 0.0
C1780 C 0.45539 0.80919 0.42474 0.0
C1781 C 0.43976 0.82673 0.43044 0.0
C1782 C 0.48746 0.83417 0.43161 0.0
C1783 C 0.44881 0.84739 0.43787 0.0
C1784 C 0.52002 0.86105 0.43711 0.0
C1785 C 0.55021 0.83093 0.41588 0.0
N1786 N 0.472 0.85057 0.43805 0.0
N1787 N 0.52772 0.82531 0.41964 0.0
H1788 H 0.67306 0.07171 0.90453 0.0
H1789 H 0.60869 0.95375 0.88731 0.0
H1790 H 0.60512 0.06522 0.87553 0.0
H1791 H 0.67965 0.95867 0.90803 0.0
H1792 H 0.6044 0.99493 0.89106 0.0
H1793 H 0.67342 0.03104 0.9128 0.0
C1794 C 0.65813 0.06179 0.90004 0.0
C1795 C 0.63913 0.07192 0.88905 0.0
C1796 C 0.62078 0.98703 0.89534 0.0
C1797 C 0.6394 0.02526 0.89865 0.0
C1798 C 0.62312 0.9635 0.89348 0.0
C1799 C 0.64446 0.9529 0.89764 0.0
C1800 C 0.64007 9e-05 0.90101 0.0
C1801 C 0.66281 0.96625 0.90506 0.0
C1802 C 0.65836 0.03855 0.90481 0.0
C1803 C 0.62026 0.05816 0.88376 0.0
N1804 N 0.66031 0.98923 0.90621 0.0
N1805 N 0.62093 0.03556 0.8885 0.0
H1806 H 0.43926 0.16459 0.43396 0.0
H1807 H 0.56593 0.1469 0.3813 0.0
H1808 H 0.45434 0.12277 0.37599 0.0
H1809 H 0.5539 0.1745 0.44793 0.0
H1810 H 0.52424 0.14436 0.37579 0.0
H1811 H 0.48026 0.17506 0.4358 0.0
C1812 C 0.45112 0.1581 0.4213 0.0
C1813 C 0.44354 0.1428 0.40481 0.0
C1814 C 0.53071 0.15111 0.39157 0.0
C1815 C 0.49026 0.15438 0.4069 0.0
C1816 C 0.55455 0.15259 0.39473 0.0
C1817 C 0.56353 0.16074 0.4152 0.0
C1818 C 0.5156 0.15789 0.40895 0.0
C1819 C 0.54782 0.16796 0.43192 0.0
C1820 C 0.47451 0.16386 0.42248 0.0
C1821 C 0.45958 0.1345 0.38904 0.0
N1822 N 0.52466 0.16626 0.42848 0.0
N1823 N 0.48215 0.14032 0.3905 0.0
H1824 H 0.0461 0.3431 0.9471 0.0
H1825 H 0.12977 0.35089 0.0529 0.0
H1826 H 0.12016 0.34777 0.94183 0.0
H1827 H 0.05629 0.34288 0.05848 0.0
H1828 H 0.12743 0.3419 0.0126 0.0
H1829 H 0.05004 0.3362 0.98763 0.0
C1830 C 0.06324 0.34239 0.95439 0.0
C1831 C 0.08282 0.34634 0.94102 0.0
C1832 C 0.11186 0.34141 0.02268 0.0
C1833 C 0.08745 0.33849 0.98762 0.0
C1834 C 0.11327 0.34623 0.04576 0.0
C1835 C 0.09323 0.34729 0.05897 0.0
C1836 C 0.09014 0.33818 0.01267 0.0
C1837 C 0.07216 0.3418 0.04887 0.0
C1838 C 0.06547 0.3384 0.97759 0.0
C1839 C 0.10456 0.34505 0.95146 0.0
N1840 N 0.07108 0.3379 0.02621 0.0
N1841 N 0.10626 0.34152 0.97415 0.0
H1842 H 0.16393 0.69194 0.94129 0.0
H1843 H 0.16605 0.68126 0.05781 0.0
H1844 H 0.09138 0.68019 0.95046 0.0
H1845 H 0.09418 0.70117 0.05647 0.0
H1846 H 0.16793 0.68698 0.01695 0.0
H1847 H 0.16683 0.7027 0.98138 0.0
C1848 C 0.14848 0.69247 0.95159 0.0
C1849 C 0.12733 0.68547 0.94265 0.0
C1850 C 0.15192 0.69078 0.02561 0.0
C1851 C 0.13065 0.69633 0.98859 0.0
C1852 C 0.15078 0.68729 0.049 0.0
C1853 C 0.12983 0.6904 0.06061 0.0
C1854 C 0.13189 0.69726 0.01368 0.0
C1855 C 0.11065 0.69831 0.04827 0.0
C1856 C 0.1502 0.6981 0.97457 0.0
C1857 C 0.10792 0.6858 0.95674 0.0
N1858 N 0.11203 0.70101 0.02547 0.0
N1859 N 0.11007 0.6909 0.97903 0.0
H1860 H 0.89348 0.63506 0.43986 0.0
H1861 H 0.90733 0.58014 0.56161 0.0
H1862 H 0.90775 0.56316 0.44506 0.0
H1863 H 0.86394 0.63792 0.54561 0.0
H1864 H 0.91212 0.57301 0.52054 0.0
H1865 H 0.88888 0.63687 0.48049 0.0
C1866 C 0.8957 0.61958 0.44953 0.0
C1867 C 0.90077 0.59887 0.4389 0.0
C1868 C 0.90135 0.58703 0.52622 0.0
C1869 C 0.89537 0.60086 0.48589 0.0
C1870 C 0.89854 0.59102 0.54954 0.0
C1871 C 0.88553 0.60986 0.55695 0.0
C1872 C 0.89117 0.60213 0.51059 0.0
C1873 C 0.87451 0.62347 0.54069 0.0
C1874 C 0.89295 0.62062 0.47282 0.0
C1875 C 0.90367 0.57946 0.45256 0.0
N1876 N 0.87778 0.61948 0.51841 0.0
N1877 N 0.90091 0.5809 0.47546 0.0
H1878 H 0.82731 0.32891 0.9531 0.0
H1879 H 0.90539 0.29716 0.05954 0.0
H1880 H 0.89639 0.30188 0.9479 0.0
H1881 H 0.83827 0.32937 0.06378 0.0
H1882 H 0.89924 0.29104 0.0191 0.0
H1883 H 0.82736 0.32022 0.99355 0.0
C1884 C 0.84211 0.3202 0.96036 0.0
C1885 C 0.86177 0.31584 0.94722 0.0
C1886 C 0.88573 0.29919 0.02892 0.0
C1887 C 0.86252 0.30692 0.99364 0.0
C1888 C 0.88924 0.30273 0.05205 0.0
C1889 C 0.87246 0.31411 0.06507 0.0
C1890 C 0.86529 0.30707 0.01868 0.0
C1891 C 0.85182 0.32079 0.0544 0.0
C1892 C 0.8423 0.31554 0.98351 0.0
C1893 C 0.88077 0.30513 0.95747 0.0
N1894 N 0.84893 0.31736 0.03182 0.0
N1895 N 0.88086 0.30141 0.98019 0.0
H1896 H 0.07513 0.38519 0.5526 0.0
H1897 H 0.1435 0.42827 0.44425 0.0
H1898 H 0.14076 0.41842 0.55636 0.0
H1899 H 0.08082 0.38949 0.44199 0.0
H1900 H 0.13882 0.43231 0.48521 0.0
H1901 H 0.07252 0.39501 0.51253 0.0
C1902 C 0.08866 0.39519 0.54504 0.0
C1903 C 0.10814 0.40109 0.55763 0.0
C1904 C 0.12595 0.42317 0.4757 0.0
C1905 C 0.10585 0.41158 0.51164 0.0
C1906 C 0.12861 0.42083 0.45229 0.0
C1907 C 0.11275 0.40816 0.43968 0.0
C1908 C 0.10728 0.41279 0.48656 0.0
C1909 C 0.09369 0.3991 0.45103 0.0
C1910 C 0.0873 0.40063 0.52214 0.0
C1911 C 0.12537 0.41379 0.54714 0.0
N1912 N 0.09163 0.4014 0.47381 0.0
N1913 N 0.12404 0.41829 0.52458 0.0
H1914 H 0.95846 0.65344 0.94956 0.0
H1915 H 0.87635 0.65445 0.05665 0.0
H1916 H 0.8841 0.65274 0.9457 0.0
H1917 H 0.95039 0.65724 0.06076 0.0
H1918 H 0.87853 0.66259 0.01616 0.0
H1919 H 0.95572 0.66209 0.98983 0.0
C1920 C 0.94152 0.65536 0.95711 0.0
C1921 C 0.92146 0.65203 0.94426 0.0
C1922 C 0.89431 0.66214 0.02597 0.0
C1923 C 0.91821 0.662 0.9905 0.0
C1924 C 0.89301 0.65784 0.04914 0.0
C1925 C 0.91321 0.65546 0.06195 0.0
C1926 C 0.91603 0.66345 0.01551 0.0
C1927 C 0.93443 0.65932 0.05142 0.0
C1928 C 0.93998 0.66037 0.98014 0.0
C1929 C 0.90002 0.65487 0.95499 0.0
N1930 N 0.93534 0.66267 0.02868 0.0
N1931 N 0.89898 0.65944 0.97751 0.0
H1932 H 0.87023 0.38785 0.45089 0.0
H1933 H 0.79014 0.38096 0.55917 0.0
H1934 H 0.79619 0.39333 0.44805 0.0
H1935 H 0.86437 0.3846 0.56276 0.0
H1936 H 0.79193 0.39053 0.51907 0.0
H1937 H 0.86865 0.3929 0.49195 0.0
C1938 C 0.8537 0.39114 0.45888 0.0
C1939 C 0.83334 0.3906 0.44614 0.0
C1940 C 0.80782 0.38957 0.52866 0.0
C1941 C 0.83119 0.39509 0.4932 0.0
C1942 C 0.80683 0.38403 0.55162 0.0
C1943 C 0.82717 0.38169 0.56439 0.0
C1944 C 0.82934 0.39265 0.51823 0.0
C1945 C 0.84826 0.386 0.55359 0.0
C1946 C 0.85275 0.39369 0.48236 0.0
C1947 C 0.81229 0.39413 0.4573 0.0
N1948 N 0.8488 0.391 0.53112 0.0
N1949 N 0.81171 0.39581 0.48025 0.0
H1950 H 0.21201 0.62042 0.56248 0.0
H1951 H 0.13427 0.62505 0.45113 0.0
H1952 H 0.13836 0.63209 0.56258 0.0
H1953 H 0.208 0.61565 0.44995 0.0
H1954 H 0.13466 0.62027 0.49222 0.0
H1955 H 0.21031 0.61259 0.52189 0.0
C1956 C 0.19544 0.62118 0.55403 0.0
C1957 C 0.17532 0.62721 0.56597 0.0
C1958 C 0.15073 0.61868 0.483 0.0
C1959 C 0.17326 0.6181 0.51941 0.0
C1960 C 0.15044 0.62111 0.45952 0.0
C1961 C 0.17109 0.62042 0.44724 0.0
C1962 C 0.17193 0.61607 0.49433 0.0
C1963 C 0.19169 0.61587 0.45887 0.0
C1964 C 0.19449 0.61665 0.53082 0.0
C1965 C 0.15436 0.6278 0.55406 0.0
N1966 N 0.19166 0.61422 0.48184 0.0
N1967 N 0.1539 0.62346 0.53147 0.0
H1968 H 0.31156 0.11959 0.36569 0.0
H1969 H 0.17913 0.11549 0.40454 0.0
H1970 H 0.28916 0.11778 0.43526 0.0
H1971 H 0.20001 0.11427 0.33449 0.0
H1972 H 0.21939 0.1187 0.41569 0.0
H1973 H 0.27109 0.1201 0.35365 0.0
C1974 C 0.29817 0.11945 0.37846 0.0
C1975 C 0.30386 0.11852 0.40157 0.0
C1976 C 0.21525 0.11777 0.39786 0.0
C1977 C 0.25741 0.11904 0.38783 0.0
C1978 C 0.19217 0.11592 0.39144 0.0
C1979 C 0.18606 0.11445 0.36849 0.0
C1980 C 0.23258 0.11814 0.38128 0.0
C1981 C 0.20386 0.11527 0.35237 0.0
C1982 C 0.27504 0.1197 0.37155 0.0
C1983 C 0.2857 0.11838 0.41728 0.0
N1984 N 0.2263 0.11696 0.35907 0.0
N1985 N 0.26339 0.11856 0.41013 0.0
H1986 H 0.4269 0.68554 0.91612 0.0
H1987 H 0.34887 0.78578 0.86457 0.0
H1988 H 0.37618 0.67734 0.86336 0.0
H1989 H 0.40407 0.79828 0.91156 0.0
H1990 H 0.35523 0.74511 0.86888 0.0
H1991 H 0.41656 0.72597 0.91835 0.0
C1992 C 0.41364 0.69221 0.90498 0.0
C1993 C 0.4025 0.67799 0.88942 0.0
C1994 C 0.36581 0.75661 0.87857 0.0
C1995 C 0.39038 0.72414 0.89215 0.0
C1996 C 0.36199 0.77983 0.87629 0.0
C1997 C 0.37586 0.79528 0.88786 0.0
C1998 C 0.38398 0.74866 0.89223 0.0
C1999 C 0.39282 0.78681 0.90261 0.0
C2000 C 0.4077 0.71527 0.90634 0.0
C2001 C 0.38538 0.68759 0.8755 0.0
N2002 N 0.39665 0.76397 0.90417 0.0
N2003 N 0.37988 0.70999 0.87722 0.0
H2004 H 0.71329 0.87338 0.43808 0.0
H2005 H 0.80007 0.88015 0.33258 0.0
H2006 H 0.68998 0.87253 0.36876 0.0
H2007 H 0.82111 0.88068 0.40261 0.0
H2008 H 0.7599 0.87538 0.34483 0.0
H2009 H 0.75309 0.87378 0.42481 0.0
C2010 C 0.71652 0.87316 0.42004 0.0
C2011 C 0.69817 0.87306 0.40456 0.0
C2012 C 0.77336 0.87646 0.35747 0.0
C2013 C 0.74399 0.87371 0.38911 0.0
C2014 C 0.79631 0.87919 0.35049 0.0
C2015 C 0.81406 0.88098 0.36656 0.0
C2016 C 0.76816 0.8755 0.38069 0.0
C2017 C 0.80809 0.87955 0.38955 0.0
C2018 C 0.73932 0.87341 0.41244 0.0
C2019 C 0.70355 0.87266 0.38135 0.0
N2020 N 0.78575 0.87698 0.39586 0.0
N2021 N 0.72594 0.87315 0.37433 0.0
H2022 H 0.66321 0.20907 0.87536 0.0
H2023 H 0.58381 0.32026 0.8897 0.0
H2024 H 0.59277 0.2062 0.89806 0.0
H2025 H 0.64821 0.31772 0.85309 0.0
H2026 H 0.58873 0.27991 0.89897 0.0
H2027 H 0.66058 0.25046 0.87488 0.0
C2028 C 0.6475 0.21728 0.88123 0.0
C2029 C 0.62837 0.20434 0.8873 0.0
C2030 C 0.60177 0.28824 0.88895 0.0
C2031 C 0.62474 0.25167 0.8857 0.0
C2032 C 0.59895 0.31125 0.88356 0.0
C2033 C 0.61556 0.32243 0.87046 0.0
C2034 C 0.62144 0.27637 0.88135 0.0
C2035 C 0.63488 0.30987 0.86312 0.0
C2036 C 0.64583 0.24089 0.88056 0.0
C2037 C 0.60807 0.2157 0.89387 0.0
N2038 N 0.63726 0.28759 0.86867 0.0
N2039 N 0.60668 0.23877 0.89268 0.0
H2040 H 0.31971 0.92057 0.55583 0.0
H2041 H 0.22084 0.93127 0.63478 0.0
H2042 H 0.28485 0.85977 0.57615 0.0
H2043 H 0.19172 0.94321 0.56878 0.0
H2044 H 0.25752 0.92046 0.61701 0.0
H2045 H 0.28359 0.9423 0.56195 0.0
C2046 C 0.30413 0.9116 0.56021 0.0
C2047 C 0.30507 0.8883 0.56519 0.0
C2048 C 0.24336 0.92641 0.6065 0.0
C2049 C 0.26439 0.91294 0.57271 0.0
C2050 C 0.22259 0.93283 0.6166 0.0
C2051 C 0.20347 0.93865 0.60322 0.0
C2052 C 0.24495 0.92556 0.58289 0.0
C2053 C 0.20632 0.93943 0.57963 0.0
C2054 C 0.2837 0.92404 0.56399 0.0
C2055 C 0.28469 0.87762 0.5718 0.0
N2056 N 0.2266 0.93238 0.57008 0.0
N2057 N 0.26531 0.89009 0.57588 0.0
H2058 H 0.59588 0.7016 0.097 0.0
H2059 H 0.67909 0.80388 0.12994 0.0
H2060 H 0.65846 0.69427 0.13602 0.0
H2061 H 0.61455 0.81428 0.09517 0.0
H2062 H 0.67402 0.76295 0.12726 0.0
H2063 H 0.60376 0.74213 0.09255 0.0
C2064 C 0.61127 0.70849 0.10464 0.0
C2065 C 0.62647 0.69449 0.11703 0.0
C2066 C 0.66109 0.77406 0.11982 0.0
C2067 C 0.63573 0.74081 0.1117 0.0
C2068 C 0.66415 0.79742 0.12111 0.0
C2069 C 0.64739 0.81234 0.11244 0.0
C2070 C 0.64082 0.76547 0.11023 0.0
C2071 C 0.62808 0.80323 0.10161 0.0
C2072 C 0.61578 0.73162 0.10201 0.0
C2073 C 0.64615 0.70437 0.12649 0.0
N2074 N 0.62514 0.7803 0.10106 0.0
N2075 N 0.65018 0.72686 0.12362 0.0
H2076 H 0.78724 0.07183 0.64007 0.0
H2077 H 0.68654 0.07746 0.55446 0.0
H2078 H 0.80891 0.05212 0.57321 0.0
H2079 H 0.7129 0.13601 0.58914 0.0
H2080 H 0.72331 0.05716 0.56242 0.0
H2081 H 0.7491 0.08162 0.62509 0.0
C2082 C 0.78353 0.06833 0.62245 0.0
C2083 C 0.8011 0.06095 0.60789 0.0
C2084 C 0.72114 0.07468 0.56759 0.0
C2085 C 0.75791 0.07292 0.59053 0.0
C2086 C 0.70042 0.08636 0.56276 0.0
C2087 C 0.69687 0.10851 0.57099 0.0
C2088 C 0.73785 0.08524 0.58102 0.0
C2089 C 0.71505 0.11903 0.58238 0.0
C2090 C 0.76194 0.07429 0.61386 0.0
C2091 C 0.79562 0.05744 0.58499 0.0
N2092 N 0.73451 0.10717 0.58749 0.0
N2093 N 0.77454 0.06397 0.5768 0.0
H2094 H 0.32973 0.19943 0.14665 0.0
H2095 H 0.39005 0.30346 0.08426 0.0
H2096 H 0.37173 0.19048 0.08709 0.0
H2097 H 0.34937 0.30908 0.14519 0.0
H2098 H 0.3816 0.26283 0.08279 0.0
H2099 H 0.33389 0.24026 0.14351 0.0
C2100 C 0.33961 0.20616 0.13267 0.0
C2101 C 0.3505 0.19158 0.11716 0.0
C2102 C 0.37449 0.273 0.09642 0.0
C2103 C 0.35579 0.23856 0.11368 0.0
C2104 C 0.37935 0.29619 0.09733 0.0
C2105 C 0.37053 0.30973 0.11497 0.0
C2106 C 0.36065 0.26329 0.11323 0.0
C2107 C 0.35668 0.29936 0.13135 0.0
C2108 C 0.34208 0.22952 0.13094 0.0
C2109 C 0.36299 0.20119 0.09932 0.0
N2110 N 0.35223 0.27682 0.13008 0.0
N2111 N 0.36556 0.22415 0.09821 0.0
H2112 H 0.0684 0.4328 0.19499 0.0
H2113 H 0.13899 0.37439 0.2962 0.0
H2114 H 0.11733 0.37757 0.18737 0.0
H2115 H 0.08686 0.42574 0.30815 0.0
H2116 H 0.13374 0.37903 0.25572 0.0
H2117 H 0.07638 0.43322 0.23579 0.0
C2118 C 0.08079 0.42076 0.20186 0.0
C2119 C 0.09214 0.40505 0.18769 0.0
C2120 C 0.1235 0.38949 0.26704 0.0
C2121 C 0.10151 0.40565 0.23426 0.0
C2122 C 0.12661 0.38693 0.2902 0.0
C2123 C 0.1133 0.39966 0.30548 0.0
C2124 C 0.10667 0.40472 0.2589 0.0
C2125 C 0.09756 0.41572 0.29684 0.0
C2126 C 0.08536 0.42107 0.22513 0.0
C2127 C 0.10804 0.3899 0.19755 0.0
N2128 N 0.09445 0.41762 0.27402 0.0
N2129 N 0.11223 0.39062 0.22013 0.0
H2130 H 0.20132 0.63272 0.70507 0.0
H2131 H 0.1167 0.6258 0.81182 0.0
H2132 H 0.1304 0.61265 0.69958 0.0
H2133 H 0.18355 0.65731 0.81254 0.0
H2134 H 0.12302 0.61506 0.77221 0.0
H2135 H 0.19734 0.63415 0.74619 0.0
C2136 C 0.18522 0.6275 0.71267 0.0
C2137 C 0.16634 0.62195 0.69904 0.0
C2138 C 0.13631 0.62426 0.78109 0.0
C2139 C 0.16117 0.62479 0.74601 0.0
C2140 C 0.13268 0.63049 0.80368 0.0
C2141 C 0.14956 0.64261 0.81556 0.0
C2142 C 0.15704 0.63001 0.77032 0.0
C2143 C 0.16997 0.64812 0.8041 0.0
C2144 C 0.18278 0.62878 0.73612 0.0
C2145 C 0.14553 0.61634 0.70962 0.0
N2146 N 0.17311 0.64178 0.7822 0.0
N2147 N 0.14338 0.61817 0.7325 0.0
H2148 H 0.94757 0.57555 0.19439 0.0
H2149 H 0.86077 0.59934 0.29704 0.0
H2150 H 0.88349 0.61325 0.18932 0.0
H2151 H 0.93142 0.57867 0.30772 0.0
H2152 H 0.86632 0.59559 0.2563 0.0
H2153 H 0.94005 0.56956 0.23481 0.0
C2154 C 0.93194 0.58255 0.20175 0.0
C2155 C 0.91622 0.59508 0.18848 0.0
C2156 C 0.88052 0.59134 0.26749 0.0
C2157 C 0.90734 0.58788 0.23448 0.0
C2158 C 0.87723 0.59312 0.29074 0.0
C2159 C 0.89556 0.58891 0.30561 0.0
C2160 C 0.90246 0.58568 0.25902 0.0
C2161 C 0.91676 0.58156 0.2967 0.0
C2162 C 0.92765 0.57907 0.22478 0.0
C2163 C 0.89621 0.60369 0.19889 0.0
N2164 N 0.91977 0.58045 0.27385 0.0
N2165 N 0.89236 0.59989 0.22121 0.0
H2166 H 0.87249 0.38074 0.81773 0.0
H2167 H 0.81483 0.33457 0.704 0.0
H2168 H 0.82668 0.32366 0.81396 0.0
H2169 H 0.85796 0.39364 0.70451 0.0
H2170 H 0.81755 0.33241 0.74488 0.0
H2171 H 0.86686 0.38717 0.77706 0.0
C2172 C 0.86132 0.3695 0.80838 0.0
C2173 C 0.85008 0.35156 0.81933 0.0
C2174 C 0.8263 0.34604 0.73626 0.0
C2175 C 0.84348 0.35897 0.77284 0.0
C2176 C 0.82466 0.34734 0.71285 0.0
C2177 C 0.8362 0.3643 0.70087 0.0
C2178 C 0.83989 0.36165 0.74802 0.0
C2179 C 0.84866 0.38041 0.71318 0.0
C2180 C 0.85805 0.37328 0.78518 0.0
C2181 C 0.83571 0.33769 0.80635 0.0
N2182 N 0.85042 0.37854 0.73616 0.0
N2183 N 0.8329 0.34166 0.78389 0.0
H2184 H 0.70234 0.84215 0.60503 0.0
H2185 H 0.81313 0.92204 0.60872 0.0
H2186 H 0.70263 0.90825 0.57358 0.0
H2187 H 0.80172 0.86575 0.65388 0.0
H2188 H 0.77503 0.91551 0.59174 0.0
H2189 H 0.74156 0.84828 0.61824 0.0
C2190 C 0.71073 0.85787 0.60061 0.0
C2191 C 0.699 0.87476 0.58824 0.0
C2192 C 0.78092 0.90467 0.60541 0.0
C2193 C 0.74414 0.88198 0.60361 0.0
C2194 C 0.80262 0.90839 0.61513 0.0
C2195 C 0.81062 0.89451 0.63287 0.0
C2196 C 0.7673 0.88674 0.61327 0.0
C2197 C 0.79629 0.87701 0.64038 0.0
C2198 C 0.73314 0.86142 0.60832 0.0
C2199 C 0.71093 0.89476 0.58309 0.0
N2200 N 0.77546 0.8736 0.63051 0.0
N2201 N 0.73282 0.89787 0.59089 0.0
H2202 H 0.60447 0.19591 0.13434 0.0
H2203 H 0.62436 0.31762 0.19049 0.0
H2204 H 0.65587 0.20694 0.18591 0.0
H2205 H 0.56763 0.30142 0.14644 0.0
H2206 H 0.63538 0.27713 0.19127 0.0
H2207 H 0.59081 0.23483 0.13935 0.0
C2208 C 0.61301 0.20656 0.14662 0.0
C2209 C 0.63142 0.19811 0.15964 0.0
C2210 C 0.62024 0.28241 0.18183 0.0
C2211 C 0.61567 0.24287 0.16568 0.0
C2212 C 0.61378 0.30544 0.18166 0.0
C2213 C 0.59503 0.31276 0.16844 0.0
C2214 C 0.60786 0.26683 0.16859 0.0
C2215 C 0.58221 0.29642 0.15685 0.0
C2216 C 0.60507 0.22879 0.14962 0.0
C2217 C 0.64166 0.21274 0.17545 0.0
N2218 N 0.58899 0.27433 0.15699 0.0
N2219 N 0.6337 0.23442 0.17798 0.0
H2220 H 0.19135 0.11327 0.6474 0.0
H2221 H 0.30566 0.10831 0.57172 0.0
H2222 H 0.19464 0.07486 0.58529 0.0
H2223 H 0.29151 0.15935 0.62237 0.0
H2224 H 0.26674 0.09322 0.5776 0.0
H2225 H 0.23012 0.12697 0.64029 0.0
C2226 C 0.20031 0.10747 0.63236 0.0
C2227 C 0.18962 0.09286 0.61691 0.0
C2228 C 0.27218 0.10781 0.58727 0.0
C2229 C 0.23428 0.10872 0.60858 0.0
C2230 C 0.29435 0.11649 0.58389 0.0
C2231 C 0.30193 0.13516 0.59657 0.0
C2232 C 0.25762 0.11775 0.6036 0.0
C2233 C 0.28654 0.14494 0.6122 0.0
C2234 C 0.22245 0.11548 0.62822 0.0
C2235 C 0.20217 0.08614 0.59764 0.0
N2236 N 0.26527 0.13605 0.61535 0.0
N2237 N 0.22386 0.0941 0.59401 0.0
H2238 H 0.36484 0.80163 0.16116 0.0
H2239 H 0.42891 0.69138 0.11171 0.0
H2240 H 0.40927 0.80194 0.10258 0.0
H2241 H 0.38774 0.69005 0.17244 0.0
H2242 H 0.42188 0.732 0.10859 0.0
H2243 H 0.37248 0.76098 0.16565 0.0
C2244 C 0.37606 0.79315 0.14912 0.0
C2245 C 0.38639 0.80527 0.13139 0.0
C2246 C 0.4144 0.72294 0.12267 0.0
C2247 C 0.3953 0.7587 0.13659 0.0
C2248 C 0.41839 0.69968 0.12446 0.0
C2249 C 0.40871 0.68726 0.14226 0.0
C2250 C 0.40054 0.73403 0.13877 0.0
C2251 C 0.39554 0.699 0.15846 0.0
C2252 C 0.3805 0.76994 0.15179 0.0
C2253 C 0.40091 0.79335 0.11647 0.0
N2254 N 0.39169 0.72176 0.15625 0.0
N2255 N 0.40491 0.77077 0.1194 0.0
H2256 H 0.72361 0.17169 0.41178 0.0
H2257 H 0.76925 0.09025 0.33602 0.0
H2258 H 0.68079 0.17124 0.35223 0.0
H2259 H 0.81014 0.15052 0.32967 0.0
H2260 H 0.73608 0.11399 0.34733 0.0
H2261 H 0.75683 0.16031 0.3885 0.0
C2262 C 0.72145 0.17028 0.39363 0.0
C2263 C 0.6995 0.17268 0.38386 0.0
C2264 C 0.75213 0.12199 0.34268 0.0
C2265 C 0.73705 0.15867 0.35749 0.0
C2266 C 0.77098 0.10853 0.33614 0.0
C2267 C 0.79235 0.11847 0.33155 0.0
C2268 C 0.75489 0.14544 0.3453 0.0
C2269 C 0.79383 0.14224 0.33261 0.0
C2270 C 0.74033 0.16361 0.38044 0.0
C2271 C 0.69751 0.16993 0.36033 0.0
N2272 N 0.77553 0.15492 0.34007 0.0
N2273 N 0.71589 0.16224 0.34802 0.0
H2274 H 0.35123 0.29452 0.82398 0.0
H2275 H 0.38657 0.18327 0.8945 0.0
H2276 H 0.40002 0.29257 0.87898 0.0
H2277 H 0.342 0.18045 0.83609 0.0
H2278 H 0.39181 0.22358 0.8879 0.0
H2279 H 0.34874 0.25275 0.82586 0.0
C2280 C 0.36191 0.28524 0.83593 0.0
C2281 C 0.37591 0.29685 0.8513 0.0
C2282 C 0.3809 0.21422 0.87644 0.0
C2283 C 0.37273 0.24959 0.85402 0.0
C2284 C 0.3778 0.19114 0.8803 0.0
C2285 C 0.36378 0.1784 0.86589 0.0
C2286 C 0.3699 0.22485 0.85799 0.0
C2287 C 0.35289 0.18963 0.84772 0.0
C2288 C 0.36029 0.26149 0.83722 0.0
C2289 C 0.38901 0.28419 0.86683 0.0
N2290 N 0.35616 0.21223 0.84428 0.0
N2291 N 0.38697 0.26136 0.8679 0.0
H2292 H 0.19921 0.8783 0.33043 0.0
H2293 H 0.30665 0.88321 0.41556 0.0
H2294 H 0.22144 0.93952 0.36336 0.0
H2295 H 0.29406 0.82637 0.37161 0.0
H2296 H 0.27338 0.90311 0.39871 0.0
H2297 H 0.23343 0.85852 0.34531 0.0
C2298 C 0.21178 0.88781 0.33999 0.0
C2299 C 0.20759 0.91061 0.34556 0.0
C2300 C 0.27771 0.88615 0.39296 0.0
C2301 C 0.24614 0.88791 0.36352 0.0
C2302 C 0.2964 0.87465 0.40291 0.0
C2303 C 0.30282 0.85302 0.39517 0.0
C2304 C 0.26536 0.87584 0.37527 0.0
C2305 C 0.28945 0.84296 0.37819 0.0
C2306 C 0.23108 0.87642 0.34888 0.0
C2307 C 0.22412 0.92194 0.3586 0.0
N2308 N 0.27141 0.85444 0.36877 0.0
N2309 N 0.24246 0.91042 0.36743 0.0
H2310 H 0.66833 0.69928 0.82224 0.0
H2311 H 0.62596 0.81864 0.87264 0.0
H2312 H 0.60167 0.71133 0.85234 0.0
H2313 H 0.68911 0.81094 0.8346 0.0
H2314 H 0.61679 0.77922 0.86435 0.0
H2315 H 0.67577 0.7403 0.82396 0.0
C2316 C 0.65492 0.7107 0.82829 0.0
C2317 C 0.63422 0.70212 0.83681 0.0
C2318 C 0.63268 0.7861 0.8578 0.0
C2319 C 0.64287 0.74862 0.83979 0.0
C2320 C 0.63803 0.80861 0.86272 0.0
C2321 C 0.65842 0.81813 0.85444 0.0
C2322 C 0.64788 0.77285 0.8446 0.0
C2323 C 0.67324 0.8043 0.84142 0.0
C2324 C 0.65928 0.73403 0.82964 0.0
C2325 C 0.61772 0.71742 0.84533 0.0
N2326 N 0.66772 0.78235 0.83696 0.0
N2327 N 0.62247 0.73985 0.84681 0.0
H2328 H 0.94453 0.62127 0.8029 0.0
H2329 H 0.92311 0.62719 0.68813 0.0
H2330 H 0.89028 0.67112 0.81118 0.0
H2331 H 0.85706 0.65536 0.70783 0.0
H2332 H 0.93683 0.63206 0.72661 0.0
H2333 H 0.93863 0.62199 0.76241 0.0
C2334 C 0.9319 0.63305 0.79595 0.0
C2335 C 0.91803 0.64632 0.81027 0.0
C2336 C 0.91915 0.63672 0.72282 0.0
C2337 C 0.91089 0.6473 0.76357 0.0
C2338 C 0.91131 0.63396 0.7007 0.0
C2339 C 0.88875 0.64047 0.69482 0.0
C2340 C 0.90418 0.64566 0.73939 0.0
C2341 C 0.8745 0.64983 0.71169 0.0
C2342 C 0.9285 0.63351 0.7727 0.0
C2343 C 0.90158 0.66094 0.80059 0.0
N2344 N 0.88241 0.65204 0.73323 0.0
N2345 N 0.89818 0.66076 0.77778 0.0
H2346 H 0.80523 0.3147 0.30729 0.0
H2347 H 0.8973 0.34241 0.2107 0.0
H2348 H 0.86084 0.36231 0.31407 0.0
H2349 H 0.83456 0.30668 0.19623 0.0
H2350 H 0.88656 0.34425 0.25043 0.0
H2351 H 0.81702 0.30768 0.26801 0.0
C2352 C 0.81981 0.32379 0.30051 0.0
C2353 C 0.83203 0.33918 0.31404 0.0
C2354 C 0.87519 0.33573 0.23872 0.0
C2355 C 0.84583 0.33085 0.2693 0.0
C2356 C 0.88146 0.33444 0.21607 0.0
C2357 C 0.86683 0.32431 0.20024 0.0
C2358 C 0.85394 0.32702 0.24573 0.0
C2359 C 0.84643 0.31439 0.20801 0.0
C2360 C 0.82655 0.31969 0.27812 0.0
C2361 C 0.8508 0.3504 0.30433 0.0
N2362 N 0.84041 0.31622 0.23027 0.0
N2363 N 0.85715 0.34592 0.28266 0.0
H2364 H 0.10284 0.33196 0.80284 0.0
H2365 H 0.08377 0.41062 0.69416 0.0
H2366 H 0.06015 0.39232 0.80132 0.0
H2367 H 0.11268 0.34299 0.68888 0.0
H2368 H 0.07673 0.4041 0.73425 0.0
H2369 H 0.10695 0.33448 0.76136 0.0
C2370 C 0.09384 0.34531 0.79371 0.0
C2371 C 0.08122 0.36201 0.8054 0.0
C2372 C 0.0845 0.3906 0.72433 0.0
C2373 C 0.0863 0.36539 0.75851 0.0
C2374 C 0.08863 0.39439 0.70142 0.0
C2375 C 0.09877 0.37735 0.68809 0.0
C2376 C 0.09053 0.36959 0.7341 0.0
C2377 C 0.10487 0.35666 0.69854 0.0
C2378 C 0.09637 0.34691 0.77015 0.0
C2379 C 0.07017 0.37919 0.79292 0.0
N2380 N 0.10065 0.35335 0.72094 0.0
N2381 N 0.07317 0.38057 0.77026 0.0
H2382 H 0.19539 0.69184 0.3055 0.0
H2383 H 0.11958 0.6411 0.20487 0.0
H2384 H 0.14996 0.63474 0.31239 0.0
H2385 H 0.16741 0.69571 0.19476 0.0
H2386 H 0.12991 0.63983 0.2446 0.0
H2387 H 0.18543 0.69417 0.26534 0.0
C2388 C 0.18345 0.67967 0.29857 0.0
C2389 C 0.17349 0.66305 0.31242 0.0
C2390 C 0.13812 0.65222 0.23384 0.0
C2391 C 0.16185 0.66585 0.26644 0.0
C2392 C 0.1322 0.65301 0.21108 0.0
C2393 C 0.14278 0.66846 0.19639 0.0
C2394 C 0.15475 0.66708 0.24227 0.0
C2395 C 0.15878 0.6836 0.20551 0.0
C2396 C 0.17772 0.68109 0.27563 0.0
C2397 C 0.1581 0.64781 0.30244 0.0
N2398 N 0.16439 0.68246 0.22791 0.0
N2399 N 0.15272 0.64964 0.28013 0.0
loop_
_geom_bond_atom_site_label_1
_geom_bond_atom_site_label_2
_geom_bond_distance
_geom_bond_site_symmetry_2
_ccdc_geom_bond_type
Mg0 O1 2.028 . S
Mg0 O7 1.986 . S
Mg0 O9 2.114 . S
Mg0 O10 2.251 . S
Mg0 O13 2.010 . S
O1 Mg0 2.028 . S
O1 C4 1.250 . S
O2 Mg3 2.028 . S
O2 C4 1.248 . S
Mg3 O2 2.028 . S
Mg3 O8 2.032 . S
Mg3 O10 2.079 . S
C4 O1 1.250 . S
C4 O2 1.248 . S
C5 O6 1.264 . S
C5 O13 1.249 . S
O6 C5 1.264 . S
O7 Mg0 1.986 . S
O7 C11 1.246 . S
O8 Mg3 2.032 . S
O8 C11 1.259 . S
O9 Mg0 2.114 . S
O9 C12 1.252 . S
O10 Mg0 2.251 . S
O10 Mg3 2.079 . S
O10 C12 1.273 . S
C11 O7 1.246 . S
C11 O8 1.259 . S
C12 O9 1.252 . S
C12 O10 1.273 . S
O13 Mg0 2.010 . S
O13 C5 1.249 . S
Mg14 O15 2.028 . S
Mg14 O21 1.986 . S
Mg14 O23 2.114 . S
Mg14 O24 2.251 . S
Mg14 O27 2.010 . S
O15 Mg14 2.028 . S
O15 C18 1.250 . S
O16 Mg17 2.028 . S
O16 C18 1.248 . S
Mg17 O16 2.028 . S
Mg17 O22 2.032 . S
Mg17 O24 2.079 . S
C18 O15 1.250 . S
C18 O16 1.248 . S
C19 O20 1.264 . S
C19 O27 1.249 . S
O20 C19 1.264 . S
O21 Mg14 1.986 . S
O21 C25 1.246 . S
O22 Mg17 2.032 . S
O22 C25 1.259 . S
O23 Mg14 2.114 . S
O23 C26 1.252 . S
O24 Mg14 2.251 . S
O24 Mg17 2.079 . S
O24 C26 1.273 . S
C25 O21 1.246 . S
C25 O22 1.259 . S
C26 O23 1.252 . S
C26 O24 1.273 . S
O27 Mg14 2.010 . S
O27 C19 1.249 . S
Mg28 O29 2.028 . S
Mg28 O35 1.986 . S
Mg28 O37 2.114 . S
Mg28 O38 2.251 . S
Mg28 O41 2.010 . S
O29 Mg28 2.028 . S
O29 C32 1.250 . S
O30 Mg31 2.028 . S
O30 C32 1.248 . S
Mg31 O30 2.028 . S
Mg31 O36 2.032 . S
Mg31 O38 2.079 . S
C32 O29 1.250 . S
C32 O30 1.248 . S
C33 O34 1.264 . S
C33 O41 1.249 . S
O34 C33 1.264 . S
O35 Mg28 1.986 . S
O35 C39 1.246 . S
O36 Mg31 2.032 . S
O36 C39 1.259 . S
O37 Mg28 2.114 . S
O37 C40 1.252 . S
O38 Mg28 2.251 . S
O38 Mg31 2.079 . S
O38 C40 1.273 . S
C39 O35 1.246 . S
C39 O36 1.259 . S
C40 O37 1.252 . S
C40 O38 1.273 . S
O41 Mg28 2.010 . S
O41 C33 1.249 . S
Mg42 O43 2.028 . S
Mg42 O49 1.986 . S
Mg42 O51 2.114 . S
Mg42 O52 2.251 . S
Mg42 O55 2.010 . S
O43 Mg42 2.028 . S
O43 C46 1.250 . S
O44 Mg45 2.028 . S
O44 C46 1.248 . S
Mg45 O44 2.028 . S
Mg45 O50 2.032 . S
Mg45 O52 2.079 . S
C46 O43 1.250 . S
C46 O44 1.248 . S
C47 O48 1.264 . S
C47 O55 1.249 . S
O48 C47 1.264 . S
O49 Mg42 1.986 . S
O49 C53 1.246 . S
O50 Mg45 2.032 . S
O50 C53 1.259 . S
O51 Mg42 2.114 . S
O51 C54 1.252 . S
O52 Mg42 2.251 . S
O52 Mg45 2.079 . S
O52 C54 1.273 . S
C53 O49 1.246 . S
C53 O50 1.259 . S
C54 O51 1.252 . S
C54 O52 1.273 . S
O55 Mg42 2.010 . S
O55 C47 1.249 . S
Mg56 O57 2.028 . S
Mg56 O63 1.986 . S
Mg56 O65 2.114 . S
Mg56 O66 2.251 . S
Mg56 O69 2.010 . S
O57 Mg56 2.028 . S
O57 C60 1.250 . S
O58 Mg59 2.028 . S
O58 C60 1.248 . S
Mg59 O58 2.028 . S
Mg59 O64 2.032 . S
Mg59 O66 2.079 . S
C60 O57 1.250 . S
C60 O58 1.248 . S
C61 O62 1.264 . S
C61 O69 1.249 . S
O62 C61 1.264 . S
O63 Mg56 1.986 . S
O63 C67 1.246 . S
O64 Mg59 2.032 . S
O64 C67 1.259 . S
O65 Mg56 2.114 . S
O65 C68 1.252 . S
O66 Mg56 2.251 . S
O66 Mg59 2.079 . S
O66 C68 1.273 . S
C67 O63 1.246 . S
C67 O64 1.259 . S
C68 O65 1.252 . S
C68 O66 1.273 . S
O69 Mg56 2.010 . S
O69 C61 1.249 . S
Mg70 O71 2.028 . S
Mg70 O77 1.986 . S
Mg70 O79 2.114 . S
Mg70 O80 2.251 . S
Mg70 O83 2.010 . S
O71 Mg70 2.028 . S
O71 C74 1.250 . S
O72 Mg73 2.028 . S
O72 C74 1.248 . S
Mg73 O72 2.028 . S
Mg73 O78 2.032 . S
Mg73 O80 2.079 . S
C74 O71 1.250 . S
C74 O72 1.248 . S
C75 O76 1.264 . S
C75 O83 1.249 . S
O76 C75 1.264 . S
O77 Mg70 1.986 . S
O77 C81 1.246 . S
O78 Mg73 2.032 . S
O78 C81 1.259 . S
O79 Mg70 2.114 . S
O79 C82 1.252 . S
O80 Mg70 2.251 . S
O80 Mg73 2.079 . S
O80 C82 1.273 . S
C81 O77 1.246 . S
C81 O78 1.259 . S
C82 O79 1.252 . S
C82 O80 1.273 . S
O83 Mg70 2.010 . S
O83 C75 1.249 . S
Mg84 O85 2.028 . S
Mg84 O91 1.986 . S
Mg84 O93 2.114 . S
Mg84 O94 2.251 . S
Mg84 O97 2.010 . S
O85 Mg84 2.028 . S
O85 C88 1.250 . S
O86 Mg87 2.028 . S
O86 C88 1.248 . S
Mg87 O86 2.028 . S
Mg87 O92 2.032 . S
Mg87 O94 2.079 . S
C88 O85 1.250 . S
C88 O86 1.248 . S
C89 O90 1.264 . S
C89 O97 1.249 . S
O90 C89 1.264 . S
O91 Mg84 1.986 . S
O91 C95 1.246 . S
O92 Mg87 2.032 . S
O92 C95 1.259 . S
O93 Mg84 2.114 . S
O93 C96 1.252 . S
O94 Mg84 2.251 . S
O94 Mg87 2.079 . S
O94 C96 1.273 . S
C95 O91 1.246 . S
C95 O92 1.259 . S
C96 O93 1.252 . S
C96 O94 1.273 . S
O97 Mg84 2.010 . S
O97 C89 1.249 . S
Mg98 O99 2.028 . S
Mg98 O105 1.986 . S
Mg98 O107 2.114 . S
Mg98 O108 2.251 . S
Mg98 O111 2.010 . S
O99 Mg98 2.028 . S
O99 C102 1.250 . S
O100 Mg101 2.028 . S
O100 C102 1.248 . S
Mg101 O100 2.028 . S
Mg101 O106 2.032 . S
Mg101 O108 2.079 . S
C102 O99 1.250 . S
C102 O100 1.248 . S
C103 O104 1.264 . S
C103 O111 1.249 . S
O104 C103 1.264 . S
O105 Mg98 1.986 . S
O105 C109 1.246 . S
O106 Mg101 2.032 . S
O106 C109 1.259 . S
O107 Mg98 2.114 . S
O107 C110 1.252 . S
O108 Mg98 2.251 . S
O108 Mg101 2.079 . S
O108 C110 1.273 . S
C109 O105 1.246 . S
C109 O106 1.259 . S
C110 O107 1.252 . S
C110 O108 1.273 . S
O111 Mg98 2.010 . S
O111 C103 1.249 . S
Mg112 O113 2.028 . S
Mg112 O119 1.986 . S
Mg112 O121 2.114 . S
Mg112 O122 2.251 . S
Mg112 O125 2.010 . S
O113 Mg112 2.028 . S
O113 C116 1.250 . S
O114 Mg115 2.028 . S
O114 C116 1.248 . S
Mg115 O114 2.028 . S
Mg115 O120 2.032 . S
Mg115 O122 2.079 . S
C116 O113 1.250 . S
C116 O114 1.248 . S
C117 O118 1.264 . S
C117 O125 1.249 . S
O118 C117 1.264 . S
O119 Mg112 1.986 . S
O119 C123 1.246 . S
O120 Mg115 2.032 . S
O120 C123 1.259 . S
O121 Mg112 2.114 . S
O121 C124 1.252 . S
O122 Mg112 2.251 . S
O122 Mg115 2.079 . S
O122 C124 1.273 . S
C123 O119 1.246 . S
C123 O120 1.259 . S
C124 O121 1.252 . S
C124 O122 1.273 . S
O125 Mg112 2.010 . S
O125 C117 1.249 . S
Mg126 O127 2.028 . S
Mg126 O133 1.986 . S
Mg126 O135 2.114 . S
Mg126 O136 2.251 . S
Mg126 O139 2.010 . S
O127 Mg126 2.028 . S
O127 C130 1.250 . S
O128 Mg129 2.028 . S
O128 C130 1.248 . S
Mg129 O128 2.028 . S
Mg129 O134 2.032 . S
Mg129 O136 2.079 . S
C130 O127 1.250 . S
C130 O128 1.248 . S
C131 O132 1.264 . S
C131 O139 1.249 . S
O132 C131 1.264 . S
O133 Mg126 1.986 . S
O133 C137 1.246 . S
O134 Mg129 2.032 . S
O134 C137 1.259 . S
O135 Mg126 2.114 . S
O135 C138 1.252 . S
O136 Mg126 2.251 . S
O136 Mg129 2.079 . S
O136 C138 1.273 . S
C137 O133 1.246 . S
C137 O134 1.259 . S
C138 O135 1.252 . S
C138 O136 1.273 . S
O139 Mg126 2.010 . S
O139 C131 1.249 . S
Mg140 O141 2.028 . S
Mg140 O147 1.986 . S
Mg140 O149 2.114 . S
Mg140 O150 2.251 . S
Mg140 O153 2.010 . S
O141 Mg140 2.028 . S
O141 C144 1.250 . S
O142 Mg143 2.028 . S
O142 C144 1.248 . S
Mg143 O142 2.028 . S
Mg143 O148 2.032 . S
Mg143 O150 2.079 . S
C144 O141 1.250 . S
C144 O142 1.248 . S
C145 O146 1.264 . S
C145 O153 1.249 . S
O146 C145 1.264 . S
O147 Mg140 1.986 . S
O147 C151 1.246 . S
O148 Mg143 2.032 . S
O148 C151 1.259 . S
O149 Mg140 2.114 . S
O149 C152 1.252 . S
O150 Mg140 2.251 . S
O150 Mg143 2.079 . S
O150 C152 1.273 . S
C151 O147 1.246 . S
C151 O148 1.259 . S
C152 O149 1.252 . S
C152 O150 1.273 . S
O153 Mg140 2.010 . S
O153 C145 1.249 . S
Mg154 O155 2.028 . S
Mg154 O161 1.986 . S
Mg154 O163 2.114 . S
Mg154 O164 2.251 . S
Mg154 O167 2.010 . S
O155 Mg154 2.028 . S
O155 C158 1.250 . S
O156 Mg157 2.028 . S
O156 C158 1.248 . S
Mg157 O156 2.028 . S
Mg157 O162 2.032 . S
Mg157 O164 2.079 . S
C158 O155 1.250 . S
C158 O156 1.248 . S
C159 O160 1.264 . S
C159 O167 1.249 . S
O160 C159 1.264 . S
O161 Mg154 1.986 . S
O161 C165 1.246 . S
O162 Mg157 2.032 . S
O162 C165 1.259 . S
O163 Mg154 2.114 . S
O163 C166 1.252 . S
O164 Mg154 2.251 . S
O164 Mg157 2.079 . S
O164 C166 1.273 . S
C165 O161 1.246 . S
C165 O162 1.259 . S
C166 O163 1.252 . S
C166 O164 1.273 . S
O167 Mg154 2.010 . S
O167 C159 1.249 . S
Mg168 O169 2.028 . S
Mg168 O175 1.986 . S
Mg168 O177 2.114 . S
Mg168 O178 2.251 . S
Mg168 O181 2.010 . S
O169 Mg168 2.028 . S
O169 C172 1.250 . S
O170 Mg171 2.028 . S
O170 C172 1.248 . S
Mg171 O170 2.028 . S
Mg171 O176 2.032 . S
Mg171 O178 2.079 . S
C172 O169 1.250 . S
C172 O170 1.248 . S
C173 O174 1.264 . S
C173 O181 1.249 . S
O174 C173 1.264 . S
O175 Mg168 1.986 . S
O175 C179 1.246 . S
O176 Mg171 2.032 . S
O176 C179 1.259 . S
O177 Mg168 2.114 . S
O177 C180 1.252 . S
O178 Mg168 2.251 . S
O178 Mg171 2.079 . S
O178 C180 1.273 . S
C179 O175 1.246 . S
C179 O176 1.259 . S
C180 O177 1.252 . S
C180 O178 1.273 . S
O181 Mg168 2.010 . S
O181 C173 1.249 . S
Mg182 O183 2.028 . S
Mg182 O189 1.986 . S
Mg182 O191 2.114 . S
Mg182 O192 2.251 . S
Mg182 O195 2.010 . S
O183 Mg182 2.028 . S
O183 C186 1.250 . S
O184 Mg185 2.028 . S
O184 C186 1.248 . S
Mg185 O184 2.028 . S
Mg185 O190 2.032 . S
Mg185 O192 2.079 . S
C186 O183 1.250 . S
C186 O184 1.248 . S
C187 O188 1.264 . S
C187 O195 1.249 . S
O188 C187 1.264 . S
O189 Mg182 1.986 . S
O189 C193 1.246 . S
O190 Mg185 2.032 . S
O190 C193 1.259 . S
O191 Mg182 2.114 . S
O191 C194 1.252 . S
O192 Mg182 2.251 . S
O192 Mg185 2.079 . S
O192 C194 1.273 . S
C193 O189 1.246 . S
C193 O190 1.259 . S
C194 O191 1.252 . S
C194 O192 1.273 . S
O195 Mg182 2.010 . S
O195 C187 1.249 . S
Mg196 O197 2.028 . S
Mg196 O203 1.986 . S
Mg196 O205 2.114 . S
Mg196 O206 2.251 . S
Mg196 O209 2.010 . S
O197 Mg196 2.028 . S
O197 C200 1.250 . S
O198 Mg199 2.028 . S
O198 C200 1.248 . S
Mg199 O198 2.028 . S
Mg199 O204 2.032 . S
Mg199 O206 2.079 . S
C200 O197 1.250 . S
C200 O198 1.248 . S
C201 O202 1.264 . S
C201 O209 1.249 . S
O202 C201 1.264 . S
O203 Mg196 1.986 . S
O203 C207 1.246 . S
O204 Mg199 2.032 . S
O204 C207 1.259 . S
O205 Mg196 2.114 . S
O205 C208 1.252 . S
O206 Mg196 2.251 . S
O206 Mg199 2.079 . S
O206 C208 1.273 . S
C207 O203 1.246 . S
C207 O204 1.259 . S
C208 O205 1.252 . S
C208 O206 1.273 . S
O209 Mg196 2.010 . S
O209 C201 1.249 . S
Mg210 O211 2.028 . S
Mg210 O217 1.986 . S
Mg210 O219 2.114 . S
Mg210 O220 2.251 . S
Mg210 O223 2.010 . S
O211 Mg210 2.028 . S
O211 C214 1.250 . S
O212 Mg213 2.028 . S
O212 C214 1.248 . S
Mg213 O212 2.028 . S
Mg213 O218 2.032 . S
Mg213 O220 2.079 . S
C214 O211 1.250 . S
C214 O212 1.248 . S
C215 O216 1.264 . S
C215 O223 1.249 . S
O216 C215 1.264 . S
O217 Mg210 1.986 . S
O217 C221 1.246 . S
O218 Mg213 2.032 . S
O218 C221 1.259 . S
O219 Mg210 2.114 . S
O219 C222 1.252 . S
O220 Mg210 2.251 . S
O220 Mg213 2.079 . S
O220 C222 1.273 . S
C221 O217 1.246 . S
C221 O218 1.259 . S
C222 O219 1.252 . S
C222 O220 1.273 . S
O223 Mg210 2.010 . S
O223 C215 1.249 . S
Mg224 O225 2.028 . S
Mg224 O231 1.986 . S
Mg224 O233 2.114 . S
Mg224 O234 2.251 . S
Mg224 O237 2.010 . S
O225 Mg224 2.028 . S
O225 C228 1.250 . S
O226 Mg227 2.028 . S
O226 C228 1.248 . S
Mg227 O226 2.028 . S
Mg227 O232 2.032 . S
Mg227 O234 2.079 . S
C228 O225 1.250 . S
C228 O226 1.248 . S
C229 O230 1.264 . S
C229 O237 1.249 . S
O230 C229 1.264 . S
O231 Mg224 1.986 . S
O231 C235 1.246 . S
O232 Mg227 2.032 . S
O232 C235 1.259 . S
O233 Mg224 2.114 . S
O233 C236 1.252 . S
O234 Mg224 2.251 . S
O234 Mg227 2.079 . S
O234 C236 1.273 . S
C235 O231 1.246 . S
C235 O232 1.259 . S
C236 O233 1.252 . S
C236 O234 1.273 . S
O237 Mg224 2.010 . S
O237 C229 1.249 . S
Mg238 O239 2.028 . S
Mg238 O245 1.986 . S
Mg238 O247 2.114 . S
Mg238 O248 2.251 . S
Mg238 O251 2.010 . S
O239 Mg238 2.028 . S
O239 C242 1.250 . S
O240 Mg241 2.028 . S
O240 C242 1.248 . S
Mg241 O240 2.028 . S
Mg241 O246 2.032 . S
Mg241 O248 2.079 . S
C242 O239 1.250 . S
C242 O240 1.248 . S
C243 O244 1.264 . S
C243 O251 1.249 . S
O244 C243 1.264 . S
O245 Mg238 1.986 . S
O245 C249 1.246 . S
O246 Mg241 2.032 . S
O246 C249 1.259 . S
O247 Mg238 2.114 . S
O247 C250 1.252 . S
O248 Mg238 2.251 . S
O248 Mg241 2.079 . S
O248 C250 1.273 . S
C249 O245 1.246 . S
C249 O246 1.259 . S
C250 O247 1.252 . S
C250 O248 1.273 . S
O251 Mg238 2.010 . S
O251 C243 1.249 . S
Mg252 O253 2.028 . S
Mg252 O259 1.986 . S
Mg252 O261 2.114 . S
Mg252 O262 2.251 . S
Mg252 O265 2.010 . S
O253 Mg252 2.028 . S
O253 C256 1.250 . S
O254 Mg255 2.028 . S
O254 C256 1.248 . S
Mg255 O254 2.028 . S
Mg255 O260 2.032 . S
Mg255 O262 2.079 . S
C256 O253 1.250 . S
C256 O254 1.248 . S
C257 O258 1.264 . S
C257 O265 1.249 . S
O258 C257 1.264 . S
O259 Mg252 1.986 . S
O259 C263 1.246 . S
O260 Mg255 2.032 . S
O260 C263 1.259 . S
O261 Mg252 2.114 . S
O261 C264 1.252 . S
O262 Mg252 2.251 . S
O262 Mg255 2.079 . S
O262 C264 1.273 . S
C263 O259 1.246 . S
C263 O260 1.259 . S
C264 O261 1.252 . S
C264 O262 1.273 . S
O265 Mg252 2.010 . S
O265 C257 1.249 . S
Mg266 O267 2.028 . S
Mg266 O273 1.986 . S
Mg266 O275 2.114 . S
Mg266 O276 2.251 . S
Mg266 O279 2.010 . S
O267 Mg266 2.028 . S
O267 C270 1.250 . S
O268 Mg269 2.028 . S
O268 C270 1.248 . S
Mg269 O268 2.028 . S
Mg269 O274 2.032 . S
Mg269 O276 2.079 . S
C270 O267 1.250 . S
C270 O268 1.248 . S
C271 O272 1.264 . S
C271 O279 1.249 . S
O272 C271 1.264 . S
O273 Mg266 1.986 . S
O273 C277 1.246 . S
O274 Mg269 2.032 . S
O274 C277 1.259 . S
O275 Mg266 2.114 . S
O275 C278 1.252 . S
O276 Mg266 2.251 . S
O276 Mg269 2.079 . S
O276 C278 1.273 . S
C277 O273 1.246 . S
C277 O274 1.259 . S
C278 O275 1.252 . S
C278 O276 1.273 . S
O279 Mg266 2.010 . S
O279 C271 1.249 . S
Mg280 O281 2.028 . S
Mg280 O287 1.986 . S
Mg280 O289 2.114 . S
Mg280 O290 2.251 . S
Mg280 O293 2.010 . S
O281 Mg280 2.028 . S
O281 C284 1.250 . S
O282 Mg283 2.028 . S
O282 C284 1.248 . S
Mg283 O282 2.028 . S
Mg283 O288 2.032 . S
Mg283 O290 2.079 . S
C284 O281 1.250 . S
C284 O282 1.248 . S
C285 O286 1.264 . S
C285 O293 1.249 . S
O286 C285 1.264 . S
O287 Mg280 1.986 . S
O287 C291 1.246 . S
O288 Mg283 2.032 . S
O288 C291 1.259 . S
O289 Mg280 2.114 . S
O289 C292 1.252 . S
O290 Mg280 2.251 . S
O290 Mg283 2.079 . S
O290 C292 1.273 . S
C291 O287 1.246 . S
C291 O288 1.259 . S
C292 O289 1.252 . S
C292 O290 1.273 . S
O293 Mg280 2.010 . S
O293 C285 1.249 . S
Mg294 O295 2.028 . S
Mg294 O301 1.986 . S
Mg294 O303 2.114 . S
Mg294 O304 2.251 . S
Mg294 O307 2.010 . S
O295 Mg294 2.028 . S
O295 C298 1.250 . S
O296 Mg297 2.028 . S
O296 C298 1.248 . S
Mg297 O296 2.028 . S
Mg297 O302 2.032 . S
Mg297 O304 2.079 . S
C298 O295 1.250 . S
C298 O296 1.248 . S
C299 O300 1.264 . S
C299 O307 1.249 . S
O300 C299 1.264 . S
O301 Mg294 1.986 . S
O301 C305 1.246 . S
O302 Mg297 2.032 . S
O302 C305 1.259 . S
O303 Mg294 2.114 . S
O303 C306 1.252 . S
O304 Mg294 2.251 . S
O304 Mg297 2.079 . S
O304 C306 1.273 . S
C305 O301 1.246 . S
C305 O302 1.259 . S
C306 O303 1.252 . S
C306 O304 1.273 . S
O307 Mg294 2.010 . S
O307 C299 1.249 . S
Mg308 O309 2.028 . S
Mg308 O315 1.986 . S
Mg308 O317 2.114 . S
Mg308 O318 2.251 . S
Mg308 O321 2.010 . S
O309 Mg308 2.028 . S
O309 C312 1.250 . S
O310 Mg311 2.028 . S
O310 C312 1.248 . S
Mg311 O310 2.028 . S
Mg311 O316 2.032 . S
Mg311 O318 2.079 . S
C312 O309 1.250 . S
C312 O310 1.248 . S
C313 O314 1.264 . S
C313 O321 1.249 . S
O314 C313 1.264 . S
O315 Mg308 1.986 . S
O315 C319 1.246 . S
O316 Mg311 2.032 . S
O316 C319 1.259 . S
O317 Mg308 2.114 . S
O317 C320 1.252 . S
O318 Mg308 2.251 . S
O318 Mg311 2.079 . S
O318 C320 1.273 . S
C319 O315 1.246 . S
C319 O316 1.259 . S
C320 O317 1.252 . S
C320 O318 1.273 . S
O321 Mg308 2.010 . S
O321 C313 1.249 . S
Mg322 O323 2.028 . S
Mg322 O329 1.986 . S
Mg322 O331 2.114 . S
Mg322 O332 2.251 . S
Mg322 O335 2.010 . S
O323 Mg322 2.028 . S
O323 C326 1.250 . S
O324 Mg325 2.028 . S
O324 C326 1.248 . S
Mg325 O324 2.028 . S
Mg325 O330 2.032 . S
Mg325 O332 2.079 . S
C326 O323 1.250 . S
C326 O324 1.248 . S
C327 O328 1.264 . S
C327 O335 1.249 . S
O328 C327 1.264 . S
O329 Mg322 1.986 . S
O329 C333 1.246 . S
O330 Mg325 2.032 . S
O330 C333 1.259 . S
O331 Mg322 2.114 . S
O331 C334 1.252 . S
O332 Mg322 2.251 . S
O332 Mg325 2.079 . S
O332 C334 1.273 . S
C333 O329 1.246 . S
C333 O330 1.259 . S
C334 O331 1.252 . S
C334 O332 1.273 . S
O335 Mg322 2.010 . S
O335 C327 1.249 . S
Mg336 O337 2.028 . S
Mg336 O343 1.986 . S
Mg336 O345 2.114 . S
Mg336 O346 2.251 . S
Mg336 O349 2.010 . S
O337 Mg336 2.028 . S
O337 C340 1.250 . S
O338 Mg339 2.028 . S
O338 C340 1.248 . S
Mg339 O338 2.028 . S
Mg339 O344 2.032 . S
Mg339 O346 2.079 . S
C340 O337 1.250 . S
C340 O338 1.248 . S
C341 O342 1.264 . S
C341 O349 1.249 . S
O342 C341 1.264 . S
O343 Mg336 1.986 . S
O343 C347 1.246 . S
O344 Mg339 2.032 . S
O344 C347 1.259 . S
O345 Mg336 2.114 . S
O345 C348 1.252 . S
O346 Mg336 2.251 . S
O346 Mg339 2.079 . S
O346 C348 1.273 . S
C347 O343 1.246 . S
C347 O344 1.259 . S
C348 O345 1.252 . S
C348 O346 1.273 . S
O349 Mg336 2.010 . S
O349 C341 1.249 . S
Mg350 O351 2.028 . S
Mg350 O357 1.986 . S
Mg350 O359 2.114 . S
Mg350 O360 2.251 . S
Mg350 O363 2.010 . S
O351 Mg350 2.028 . S
O351 C354 1.250 . S
O352 Mg353 2.028 . S
O352 C354 1.248 . S
Mg353 O352 2.028 . S
Mg353 O358 2.032 . S
Mg353 O360 2.079 . S
C354 O351 1.250 . S
C354 O352 1.248 . S
C355 O356 1.264 . S
C355 O363 1.249 . S
O356 C355 1.264 . S
O357 Mg350 1.986 . S
O357 C361 1.246 . S
O358 Mg353 2.032 . S
O358 C361 1.259 . S
O359 Mg350 2.114 . S
O359 C362 1.252 . S
O360 Mg350 2.251 . S
O360 Mg353 2.079 . S
O360 C362 1.273 . S
C361 O357 1.246 . S
C361 O358 1.259 . S
C362 O359 1.252 . S
C362 O360 1.273 . S
O363 Mg350 2.010 . S
O363 C355 1.249 . S
Mg364 O365 2.028 . S
Mg364 O371 1.986 . S
Mg364 O373 2.114 . S
Mg364 O374 2.251 . S
Mg364 O377 2.010 . S
O365 Mg364 2.028 . S
O365 C368 1.250 . S
O366 Mg367 2.028 . S
O366 C368 1.248 . S
Mg367 O366 2.028 . S
Mg367 O372 2.032 . S
Mg367 O374 2.079 . S
C368 O365 1.250 . S
C368 O366 1.248 . S
C369 O370 1.264 . S
C369 O377 1.249 . S
O370 C369 1.264 . S
O371 Mg364 1.986 . S
O371 C375 1.246 . S
O372 Mg367 2.032 . S
O372 C375 1.259 . S
O373 Mg364 2.114 . S
O373 C376 1.252 . S
O374 Mg364 2.251 . S
O374 Mg367 2.079 . S
O374 C376 1.273 . S
C375 O371 1.246 . S
C375 O372 1.259 . S
C376 O373 1.252 . S
C376 O374 1.273 . S
O377 Mg364 2.010 . S
O377 C369 1.249 . S
Mg378 O379 2.028 . S
Mg378 O385 1.986 . S
Mg378 O387 2.114 . S
Mg378 O388 2.251 . S
Mg378 O391 2.010 . S
O379 Mg378 2.028 . S
O379 C382 1.250 . S
O380 Mg381 2.028 . S
O380 C382 1.248 . S
Mg381 O380 2.028 . S
Mg381 O386 2.032 . S
Mg381 O388 2.079 . S
C382 O379 1.250 . S
C382 O380 1.248 . S
C383 O384 1.264 . S
C383 O391 1.249 . S
O384 C383 1.264 . S
O385 Mg378 1.986 . S
O385 C389 1.246 . S
O386 Mg381 2.032 . S
O386 C389 1.259 . S
O387 Mg378 2.114 . S
O387 C390 1.252 . S
O388 Mg378 2.251 . S
O388 Mg381 2.079 . S
O388 C390 1.273 . S
C389 O385 1.246 . S
C389 O386 1.259 . S
C390 O387 1.252 . S
C390 O388 1.273 . S
O391 Mg378 2.010 . S
O391 C383 1.249 . S
Mg392 O393 2.028 . S
Mg392 O399 1.986 . S
Mg392 O401 2.114 . S
Mg392 O402 2.251 . S
Mg392 O405 2.010 . S
O393 Mg392 2.028 . S
O393 C396 1.250 . S
O394 Mg395 2.028 . S
O394 C396 1.248 . S
Mg395 O394 2.028 . S
Mg395 O400 2.032 . S
Mg395 O402 2.079 . S
C396 O393 1.250 . S
C396 O394 1.248 . S
C397 O398 1.264 . S
C397 O405 1.249 . S
O398 C397 1.264 . S
O399 Mg392 1.986 . S
O399 C403 1.246 . S
O400 Mg395 2.032 . S
O400 C403 1.259 . S
O401 Mg392 2.114 . S
O401 C404 1.252 . S
O402 Mg392 2.251 . S
O402 Mg395 2.079 . S
O402 C404 1.273 . S
C403 O399 1.246 . S
C403 O400 1.259 . S
C404 O401 1.252 . S
C404 O402 1.273 . S
O405 Mg392 2.010 . S
O405 C397 1.249 . S
Mg406 O407 2.028 . S
Mg406 O413 1.986 . S
Mg406 O415 2.114 . S
Mg406 O416 2.251 . S
Mg406 O419 2.010 . S
O407 Mg406 2.028 . S
O407 C410 1.250 . S
O408 Mg409 2.028 . S
O408 C410 1.248 . S
Mg409 O408 2.028 . S
Mg409 O414 2.032 . S
Mg409 O416 2.079 . S
C410 O407 1.250 . S
C410 O408 1.248 . S
C411 O412 1.264 . S
C411 O419 1.249 . S
O412 C411 1.264 . S
O413 Mg406 1.986 . S
O413 C417 1.246 . S
O414 Mg409 2.032 . S
O414 C417 1.259 . S
O415 Mg406 2.114 . S
O415 C418 1.252 . S
O416 Mg406 2.251 . S
O416 Mg409 2.079 . S
O416 C418 1.273 . S
C417 O413 1.246 . S
C417 O414 1.259 . S
C418 O415 1.252 . S
C418 O416 1.273 . S
O419 Mg406 2.010 . S
O419 C411 1.249 . S
Mg420 O421 2.028 . S
Mg420 O427 1.986 . S
Mg420 O429 2.114 . S
Mg420 O430 2.251 . S
Mg420 O433 2.010 . S
O421 Mg420 2.028 . S
O421 C424 1.250 . S
O422 Mg423 2.028 . S
O422 C424 1.248 . S
Mg423 O422 2.028 . S
Mg423 O428 2.032 . S
Mg423 O430 2.079 . S
C424 O421 1.250 . S
C424 O422 1.248 . S
C425 O426 1.264 . S
C425 O433 1.249 . S
O426 C425 1.264 . S
O427 Mg420 1.986 . S
O427 C431 1.246 . S
O428 Mg423 2.032 . S
O428 C431 1.259 . S
O429 Mg420 2.114 . S
O429 C432 1.252 . S
O430 Mg420 2.251 . S
O430 Mg423 2.079 . S
O430 C432 1.273 . S
C431 O427 1.246 . S
C431 O428 1.259 . S
C432 O429 1.252 . S
C432 O430 1.273 . S
O433 Mg420 2.010 . S
O433 C425 1.249 . S
Mg434 O435 2.028 . S
Mg434 O441 1.986 . S
Mg434 O443 2.114 . S
Mg434 O444 2.251 . S
Mg434 O447 2.010 . S
O435 Mg434 2.028 . S
O435 C438 1.250 . S
O436 Mg437 2.028 . S
O436 C438 1.248 . S
Mg437 O436 2.028 . S
Mg437 O442 2.032 . S
Mg437 O444 2.079 . S
C438 O435 1.250 . S
C438 O436 1.248 . S
C439 O440 1.264 . S
C439 O447 1.249 . S
O440 C439 1.264 . S
O441 Mg434 1.986 . S
O441 C445 1.246 . S
O442 Mg437 2.032 . S
O442 C445 1.259 . S
O443 Mg434 2.114 . S
O443 C446 1.252 . S
O444 Mg434 2.251 . S
O444 Mg437 2.079 . S
O444 C446 1.273 . S
C445 O441 1.246 . S
C445 O442 1.259 . S
C446 O443 1.252 . S
C446 O444 1.273 . S
O447 Mg434 2.010 . S
O447 C439 1.249 . S
Mg448 O449 2.028 . S
Mg448 O455 1.986 . S
Mg448 O457 2.114 . S
Mg448 O458 2.251 . S
Mg448 O461 2.010 . S
O449 Mg448 2.028 . S
O449 C452 1.250 . S
O450 Mg451 2.028 . S
O450 C452 1.248 . S
Mg451 O450 2.028 . S
Mg451 O456 2.032 . S
Mg451 O458 2.079 . S
C452 O449 1.250 . S
C452 O450 1.248 . S
C453 O454 1.264 . S
C453 O461 1.249 . S
O454 C453 1.264 . S
O455 Mg448 1.986 . S
O455 C459 1.246 . S
O456 Mg451 2.032 . S
O456 C459 1.259 . S
O457 Mg448 2.114 . S
O457 C460 1.252 . S
O458 Mg448 2.251 . S
O458 Mg451 2.079 . S
O458 C460 1.273 . S
C459 O455 1.246 . S
C459 O456 1.259 . S
C460 O457 1.252 . S
C460 O458 1.273 . S
O461 Mg448 2.010 . S
O461 C453 1.249 . S
Mg462 O463 2.028 . S
Mg462 O469 1.986 . S
Mg462 O471 2.114 . S
Mg462 O472 2.251 . S
Mg462 O475 2.010 . S
O463 Mg462 2.028 . S
O463 C466 1.250 . S
O464 Mg465 2.028 . S
O464 C466 1.248 . S
Mg465 O464 2.028 . S
Mg465 O470 2.032 . S
Mg465 O472 2.079 . S
C466 O463 1.250 . S
C466 O464 1.248 . S
C467 O468 1.264 . S
C467 O475 1.249 . S
O468 C467 1.264 . S
O469 Mg462 1.986 . S
O469 C473 1.246 . S
O470 Mg465 2.032 . S
O470 C473 1.259 . S
O471 Mg462 2.114 . S
O471 C474 1.252 . S
O472 Mg462 2.251 . S
O472 Mg465 2.079 . S
O472 C474 1.273 . S
C473 O469 1.246 . S
C473 O470 1.259 . S
C474 O471 1.252 . S
C474 O472 1.273 . S
O475 Mg462 2.010 . S
O475 C467 1.249 . S
Mg476 O477 2.028 . S
Mg476 O483 1.986 . S
Mg476 O485 2.114 . S
Mg476 O486 2.251 . S
Mg476 O489 2.010 . S
O477 Mg476 2.028 . S
O477 C480 1.250 . S
O478 Mg479 2.028 . S
O478 C480 1.248 . S
Mg479 O478 2.028 . S
Mg479 O484 2.032 . S
Mg479 O486 2.079 . S
C480 O477 1.250 . S
C480 O478 1.248 . S
C481 O482 1.264 . S
C481 O489 1.249 . S
O482 C481 1.264 . S
O483 Mg476 1.986 . S
O483 C487 1.246 . S
O484 Mg479 2.032 . S
O484 C487 1.259 . S
O485 Mg476 2.114 . S
O485 C488 1.252 . S
O486 Mg476 2.251 . S
O486 Mg479 2.079 . S
O486 C488 1.273 . S
C487 O483 1.246 . S
C487 O484 1.259 . S
C488 O485 1.252 . S
C488 O486 1.273 . S
O489 Mg476 2.010 . S
O489 C481 1.249 . S
Mg490 O491 2.028 . S
Mg490 O497 1.986 . S
Mg490 O499 2.114 . S
Mg490 O500 2.251 . S
Mg490 O503 2.010 . S
O491 Mg490 2.028 . S
O491 C494 1.250 . S
O492 Mg493 2.028 . S
O492 C494 1.248 . S
Mg493 O492 2.028 . S
Mg493 O498 2.032 . S
Mg493 O500 2.079 . S
C494 O491 1.250 . S
C494 O492 1.248 . S
C495 O496 1.264 . S
C495 O503 1.249 . S
O496 C495 1.264 . S
O497 Mg490 1.986 . S
O497 C501 1.246 . S
O498 Mg493 2.032 . S
O498 C501 1.259 . S
O499 Mg490 2.114 . S
O499 C502 1.252 . S
O500 Mg490 2.251 . S
O500 Mg493 2.079 . S
O500 C502 1.273 . S
C501 O497 1.246 . S
C501 O498 1.259 . S
C502 O499 1.252 . S
C502 O500 1.273 . S
O503 Mg490 2.010 . S
O503 C495 1.249 . S
Mg504 O505 2.028 . S
Mg504 O511 1.986 . S
Mg504 O513 2.114 . S
Mg504 O514 2.251 . S
Mg504 O517 2.010 . S
O505 Mg504 2.028 . S
O505 C508 1.250 . S
O506 Mg507 2.028 . S
O506 C508 1.248 . S
Mg507 O506 2.028 . S
Mg507 O512 2.032 . S
Mg507 O514 2.079 . S
C508 O505 1.250 . S
C508 O506 1.248 . S
C509 O510 1.264 . S
C509 O517 1.249 . S
O510 C509 1.264 . S
O511 Mg504 1.986 . S
O511 C515 1.246 . S
O512 Mg507 2.032 . S
O512 C515 1.259 . S
O513 Mg504 2.114 . S
O513 C516 1.252 . S
O514 Mg504 2.251 . S
O514 Mg507 2.079 . S
O514 C516 1.273 . S
C515 O511 1.246 . S
C515 O512 1.259 . S
C516 O513 1.252 . S
C516 O514 1.273 . S
O517 Mg504 2.010 . S
O517 C509 1.249 . S
Mg518 O519 2.028 . S
Mg518 O525 1.986 . S
Mg518 O527 2.114 . S
Mg518 O528 2.251 . S
Mg518 O531 2.010 . S
O519 Mg518 2.028 . S
O519 C522 1.250 . S
O520 Mg521 2.028 . S
O520 C522 1.248 . S
Mg521 O520 2.028 . S
Mg521 O526 2.032 . S
Mg521 O528 2.079 . S
C522 O519 1.250 . S
C522 O520 1.248 . S
C523 O524 1.264 . S
C523 O531 1.249 . S
O524 C523 1.264 . S
O525 Mg518 1.986 . S
O525 C529 1.246 . S
O526 Mg521 2.032 . S
O526 C529 1.259 . S
O527 Mg518 2.114 . S
O527 C530 1.252 . S
O528 Mg518 2.251 . S
O528 Mg521 2.079 . S
O528 C530 1.273 . S
C529 O525 1.246 . S
C529 O526 1.259 . S
C530 O527 1.252 . S
C530 O528 1.273 . S
O531 Mg518 2.010 . S
O531 C523 1.249 . S
Mg532 O533 2.028 . S
Mg532 O539 1.986 . S
Mg532 O541 2.114 . S
Mg532 O542 2.251 . S
Mg532 O545 2.010 . S
O533 Mg532 2.028 . S
O533 C536 1.250 . S
O534 Mg535 2.028 . S
O534 C536 1.248 . S
Mg535 O534 2.028 . S
Mg535 O540 2.032 . S
Mg535 O542 2.079 . S
C536 O533 1.250 . S
C536 O534 1.248 . S
C537 O538 1.264 . S
C537 O545 1.249 . S
O538 C537 1.264 . S
O539 Mg532 1.986 . S
O539 C543 1.246 . S
O540 Mg535 2.032 . S
O540 C543 1.259 . S
O541 Mg532 2.114 . S
O541 C544 1.252 . S
O542 Mg532 2.251 . S
O542 Mg535 2.079 . S
O542 C544 1.273 . S
C543 O539 1.246 . S
C543 O540 1.259 . S
C544 O541 1.252 . S
C544 O542 1.273 . S
O545 Mg532 2.010 . S
O545 C537 1.249 . S
Mg546 O547 2.028 . S
Mg546 O553 1.986 . S
Mg546 O555 2.114 . S
Mg546 O556 2.251 . S
Mg546 O559 2.010 . S
O547 Mg546 2.028 . S
O547 C550 1.250 . S
O548 Mg549 2.028 . S
O548 C550 1.248 . S
Mg549 O548 2.028 . S
Mg549 O554 2.032 . S
Mg549 O556 2.079 . S
C550 O547 1.250 . S
C550 O548 1.248 . S
C551 O552 1.264 . S
C551 O559 1.249 . S
O552 C551 1.264 . S
O553 Mg546 1.986 . S
O553 C557 1.246 . S
O554 Mg549 2.032 . S
O554 C557 1.259 . S
O555 Mg546 2.114 . S
O555 C558 1.252 . S
O556 Mg546 2.251 . S
O556 Mg549 2.079 . S
O556 C558 1.273 . S
C557 O553 1.246 . S
C557 O554 1.259 . S
C558 O555 1.252 . S
C558 O556 1.273 . S
O559 Mg546 2.010 . S
O559 C551 1.249 . S
Mg560 O561 2.028 . S
Mg560 O567 1.986 . S
Mg560 O569 2.114 . S
Mg560 O570 2.251 . S
Mg560 O573 2.010 . S
O561 Mg560 2.028 . S
O561 C564 1.250 . S
O562 Mg563 2.028 . S
O562 C564 1.248 . S
Mg563 O562 2.028 . S
Mg563 O568 2.032 . S
Mg563 O570 2.079 . S
C564 O561 1.250 . S
C564 O562 1.248 . S
C565 O566 1.264 . S
C565 O573 1.249 . S
O566 C565 1.264 . S
O567 Mg560 1.986 . S
O567 C571 1.246 . S
O568 Mg563 2.032 . S
O568 C571 1.259 . S
O569 Mg560 2.114 . S
O569 C572 1.252 . S
O570 Mg560 2.251 . S
O570 Mg563 2.079 . S
O570 C572 1.273 . S
C571 O567 1.246 . S
C571 O568 1.259 . S
C572 O569 1.252 . S
C572 O570 1.273 . S
O573 Mg560 2.010 . S
O573 C565 1.249 . S
Mg574 O575 2.028 . S
Mg574 O581 1.986 . S
Mg574 O583 2.114 . S
Mg574 O584 2.251 . S
Mg574 O587 2.010 . S
O575 Mg574 2.028 . S
O575 C578 1.250 . S
O576 Mg577 2.028 . S
O576 C578 1.248 . S
Mg577 O576 2.028 . S
Mg577 O582 2.032 . S
Mg577 O584 2.079 . S
C578 O575 1.250 . S
C578 O576 1.248 . S
C579 O580 1.264 . S
C579 O587 1.249 . S
O580 C579 1.264 . S
O581 Mg574 1.986 . S
O581 C585 1.246 . S
O582 Mg577 2.032 . S
O582 C585 1.259 . S
O583 Mg574 2.114 . S
O583 C586 1.252 . S
O584 Mg574 2.251 . S
O584 Mg577 2.079 . S
O584 C586 1.273 . S
C585 O581 1.246 . S
C585 O582 1.259 . S
C586 O583 1.252 . S
C586 O584 1.273 . S
O587 Mg574 2.010 . S
O587 C579 1.249 . S
Mg588 O589 2.028 . S
Mg588 O595 1.986 . S
Mg588 O597 2.114 . S
Mg588 O598 2.251 . S
Mg588 O601 2.010 . S
O589 Mg588 2.028 . S
O589 C592 1.250 . S
O590 Mg591 2.028 . S
O590 C592 1.248 . S
Mg591 O590 2.028 . S
Mg591 O596 2.032 . S
Mg591 O598 2.079 . S
C592 O589 1.250 . S
C592 O590 1.248 . S
C593 O594 1.264 . S
C593 O601 1.249 . S
O594 C593 1.264 . S
O595 Mg588 1.986 . S
O595 C599 1.246 . S
O596 Mg591 2.032 . S
O596 C599 1.259 . S
O597 Mg588 2.114 . S
O597 C600 1.252 . S
O598 Mg588 2.251 . S
O598 Mg591 2.079 . S
O598 C600 1.273 . S
C599 O595 1.246 . S
C599 O596 1.259 . S
C600 O597 1.252 . S
C600 O598 1.273 . S
O601 Mg588 2.010 . S
O601 C593 1.249 . S
Mg602 O603 2.028 . S
Mg602 O609 1.986 . S
Mg602 O611 2.114 . S
Mg602 O612 2.251 . S
Mg602 O615 2.010 . S
O603 Mg602 2.028 . S
O603 C606 1.250 . S
O604 Mg605 2.028 . S
O604 C606 1.248 . S
Mg605 O604 2.028 . S
Mg605 O610 2.032 . S
Mg605 O612 2.079 . S
C606 O603 1.250 . S
C606 O604 1.248 . S
C607 O608 1.264 . S
C607 O615 1.249 . S
O608 C607 1.264 . S
O609 Mg602 1.986 . S
O609 C613 1.246 . S
O610 Mg605 2.032 . S
O610 C613 1.259 . S
O611 Mg602 2.114 . S
O611 C614 1.252 . S
O612 Mg602 2.251 . S
O612 Mg605 2.079 . S
O612 C614 1.273 . S
C613 O609 1.246 . S
C613 O610 1.259 . S
C614 O611 1.252 . S
C614 O612 1.273 . S
O615 Mg602 2.010 . S
O615 C607 1.249 . S
Mg616 O617 2.028 . S
Mg616 O623 1.986 . S
Mg616 O625 2.114 . S
Mg616 O626 2.251 . S
Mg616 O629 2.010 . S
O617 Mg616 2.028 . S
O617 C620 1.250 . S
O618 Mg619 2.028 . S
O618 C620 1.248 . S
Mg619 O618 2.028 . S
Mg619 O624 2.032 . S
Mg619 O626 2.079 . S
C620 O617 1.250 . S
C620 O618 1.248 . S
C621 O622 1.264 . S
C621 O629 1.249 . S
O622 C621 1.264 . S
O623 Mg616 1.986 . S
O623 C627 1.246 . S
O624 Mg619 2.032 . S
O624 C627 1.259 . S
O625 Mg616 2.114 . S
O625 C628 1.252 . S
O626 Mg616 2.251 . S
O626 Mg619 2.079 . S
O626 C628 1.273 . S
C627 O623 1.246 . S
C627 O624 1.259 . S
C628 O625 1.252 . S
C628 O626 1.273 . S
O629 Mg616 2.010 . S
O629 C621 1.249 . S
Mg630 O631 2.028 . S
Mg630 O637 1.986 . S
Mg630 O639 2.114 . S
Mg630 O640 2.251 . S
Mg630 O643 2.010 . S
O631 Mg630 2.028 . S
O631 C634 1.250 . S
O632 Mg633 2.028 . S
O632 C634 1.248 . S
Mg633 O632 2.028 . S
Mg633 O638 2.032 . S
Mg633 O640 2.079 . S
C634 O631 1.250 . S
C634 O632 1.248 . S
C635 O636 1.264 . S
C635 O643 1.249 . S
O636 C635 1.264 . S
O637 Mg630 1.986 . S
O637 C641 1.246 . S
O638 Mg633 2.032 . S
O638 C641 1.259 . S
O639 Mg630 2.114 . S
O639 C642 1.252 . S
O640 Mg630 2.251 . S
O640 Mg633 2.079 . S
O640 C642 1.273 . S
C641 O637 1.246 . S
C641 O638 1.259 . S
C642 O639 1.252 . S
C642 O640 1.273 . S
O643 Mg630 2.010 . S
O643 C635 1.249 . S
Mg644 O645 2.028 . S
Mg644 O651 1.986 . S
Mg644 O653 2.114 . S
Mg644 O654 2.251 . S
Mg644 O657 2.010 . S
O645 Mg644 2.028 . S
O645 C648 1.250 . S
O646 Mg647 2.028 . S
O646 C648 1.248 . S
Mg647 O646 2.028 . S
Mg647 O652 2.032 . S
Mg647 O654 2.079 . S
C648 O645 1.250 . S
C648 O646 1.248 . S
C649 O650 1.264 . S
C649 O657 1.249 . S
O650 C649 1.264 . S
O651 Mg644 1.986 . S
O651 C655 1.246 . S
O652 Mg647 2.032 . S
O652 C655 1.259 . S
O653 Mg644 2.114 . S
O653 C656 1.252 . S
O654 Mg644 2.251 . S
O654 Mg647 2.079 . S
O654 C656 1.273 . S
C655 O651 1.246 . S
C655 O652 1.259 . S
C656 O653 1.252 . S
C656 O654 1.273 . S
O657 Mg644 2.010 . S
O657 C649 1.249 . S
Mg658 O659 2.028 . S
Mg658 O665 1.986 . S
Mg658 O667 2.114 . S
Mg658 O668 2.251 . S
Mg658 O671 2.010 . S
O659 Mg658 2.028 . S
O659 C662 1.250 . S
O660 Mg661 2.028 . S
O660 C662 1.248 . S
Mg661 O660 2.028 . S
Mg661 O666 2.032 . S
Mg661 O668 2.079 . S
C662 O659 1.250 . S
C662 O660 1.248 . S
C663 O664 1.264 . S
C663 O671 1.249 . S
O664 C663 1.264 . S
O665 Mg658 1.986 . S
O665 C669 1.246 . S
O666 Mg661 2.032 . S
O666 C669 1.259 . S
O667 Mg658 2.114 . S
O667 C670 1.252 . S
O668 Mg658 2.251 . S
O668 Mg661 2.079 . S
O668 C670 1.273 . S
C669 O665 1.246 . S
C669 O666 1.259 . S
C670 O667 1.252 . S
C670 O668 1.273 . S
O671 Mg658 2.010 . S
O671 C663 1.249 . S
H672 C678 0.930 . S
H673 C682 0.930 . S
H674 C687 0.929 . S
H675 C685 0.929 . S
H676 C680 0.929 . S
H677 C686 0.929 . S
C678 H672 0.930 . S
C678 C679 1.367 . S
C678 C686 1.378 . S
C679 C678 1.367 . S
C679 C687 1.433 . S
C680 H676 0.929 . S
C680 C682 1.378 . S
C680 C684 1.350 . S
C681 C684 1.463 . S
C681 C686 1.350 . S
C681 N689 1.427 . S
C682 H673 0.930 . S
C682 C680 1.378 . S
C682 C683 1.367 . S
C683 C682 1.367 . S
C683 C685 1.433 . S
C684 C680 1.350 . S
C684 C681 1.463 . S
C684 N688 1.427 . S
C685 H675 0.929 . S
C685 C683 1.433 . S
C685 N688 1.384 . S
C686 H677 0.929 . S
C686 C678 1.378 . S
C686 C681 1.350 . S
C687 H674 0.929 . S
C687 C679 1.433 . S
C687 N689 1.384 . S
N688 C684 1.427 . S
N688 C685 1.384 . S
N689 C681 1.427 . S
N689 C687 1.384 . S
H690 C696 0.930 . S
H691 C700 0.930 . S
H692 C705 0.929 . S
H693 C703 0.929 . S
H694 C698 0.929 . S
H695 C704 0.929 . S
C696 H690 0.930 . S
C696 C697 1.367 . S
C696 C704 1.378 . S
C697 C696 1.367 . S
C697 C705 1.433 . S
C698 H694 0.929 . S
C698 C700 1.378 . S
C698 C702 1.350 . S
C699 C702 1.463 . S
C699 C704 1.350 . S
C699 N707 1.427 . S
C700 H691 0.930 . S
C700 C698 1.378 . S
C700 C701 1.367 . S
C701 C700 1.367 . S
C701 C703 1.433 . S
C702 C698 1.350 . S
C702 C699 1.463 . S
C702 N706 1.427 . S
C703 H693 0.929 . S
C703 C701 1.433 . S
C703 N706 1.384 . S
C704 H695 0.929 . S
C704 C696 1.378 . S
C704 C699 1.350 . S
C705 H692 0.929 . S
C705 C697 1.433 . S
C705 N707 1.384 . S
N706 C702 1.427 . S
N706 C703 1.384 . S
N707 C699 1.427 . S
N707 C705 1.384 . S
H708 C714 0.930 . S
H709 C718 0.930 . S
H710 C723 0.929 . S
H711 C721 0.929 . S
H712 C716 0.929 . S
H713 C722 0.929 . S
C714 H708 0.930 . S
C714 C715 1.367 . S
C714 C722 1.378 . S
C715 C714 1.367 . S
C715 C723 1.433 . S
C716 H712 0.929 . S
C716 C718 1.378 . S
C716 C720 1.350 . S
C717 C720 1.463 . S
C717 C722 1.350 . S
C717 N725 1.427 . S
C718 H709 0.930 . S
C718 C716 1.378 . S
C718 C719 1.367 . S
C719 C718 1.367 . S
C719 C721 1.433 . S
C720 C716 1.350 . S
C720 C717 1.463 . S
C720 N724 1.427 . S
C721 H711 0.929 . S
C721 C719 1.433 . S
C721 N724 1.384 . S
C722 H713 0.929 . S
C722 C714 1.378 . S
C722 C717 1.350 . S
C723 H710 0.929 . S
C723 C715 1.433 . S
C723 N725 1.384 . S
N724 C720 1.427 . S
N724 C721 1.384 . S
N725 C717 1.427 . S
N725 C723 1.384 . S
H726 C732 0.930 . S
H727 C736 0.930 . S
H728 C741 0.929 . S
H729 C739 0.929 . S
H730 C734 0.929 . S
H731 C740 0.929 . S
C732 H726 0.930 . S
C732 C733 1.367 . S
C732 C740 1.378 . S
C733 C732 1.367 . S
C733 C741 1.433 . S
C734 H730 0.929 . S
C734 C736 1.378 . S
C734 C738 1.350 . S
C735 C738 1.463 . S
C735 C740 1.350 . S
C735 N743 1.427 . S
C736 H727 0.930 . S
C736 C734 1.378 . S
C736 C737 1.367 . S
C737 C736 1.367 . S
C737 C739 1.433 . S
C738 C734 1.350 . S
C738 C735 1.463 . S
C738 N742 1.427 . S
C739 H729 0.929 . S
C739 C737 1.433 . S
C739 N742 1.384 . S
C740 H731 0.929 . S
C740 C732 1.378 . S
C740 C735 1.350 . S
C741 H728 0.929 . S
C741 C733 1.433 . S
C741 N743 1.384 . S
N742 C738 1.427 . S
N742 C739 1.384 . S
N743 C735 1.427 . S
N743 C741 1.384 . S
H744 C750 0.930 . S
H745 C754 0.930 . S
H746 C759 0.929 . S
H747 C757 0.929 . S
H748 C752 0.929 . S
H749 C758 0.929 . S
C750 H744 0.930 . S
C750 C751 1.367 . S
C750 C758 1.378 . S
C751 C750 1.367 . S
C751 C759 1.433 . S
C752 H748 0.929 . S
C752 C754 1.378 . S
C752 C756 1.350 . S
C753 C756 1.463 . S
C753 C758 1.350 . S
C753 N761 1.427 . S
C754 H745 0.930 . S
C754 C752 1.378 . S
C754 C755 1.367 . S
C755 C754 1.367 . S
C755 C757 1.433 . S
C756 C752 1.350 . S
C756 C753 1.463 . S
C756 N760 1.427 . S
C757 H747 0.929 . S
C757 C755 1.433 . S
C757 N760 1.384 . S
C758 H749 0.929 . S
C758 C750 1.378 . S
C758 C753 1.350 . S
C759 H746 0.929 . S
C759 C751 1.433 . S
C759 N761 1.384 . S
N760 C756 1.427 . S
N760 C757 1.384 . S
N761 C753 1.427 . S
N761 C759 1.384 . S
H762 C768 0.930 . S
H763 C772 0.930 . S
H764 C777 0.929 . S
H765 C775 0.929 . S
H766 C770 0.929 . S
H767 C776 0.929 . S
C768 H762 0.930 . S
C768 C769 1.367 . S
C768 C776 1.378 . S
C769 C768 1.367 . S
C769 C777 1.433 . S
C770 H766 0.929 . S
C770 C772 1.378 . S
C770 C774 1.350 . S
C771 C774 1.463 . S
C771 C776 1.350 . S
C771 N779 1.427 . S
C772 H763 0.930 . S
C772 C770 1.378 . S
C772 C773 1.367 . S
C773 C772 1.367 . S
C773 C775 1.433 . S
C774 C770 1.350 . S
C774 C771 1.463 . S
C774 N778 1.427 . S
C775 H765 0.929 . S
C775 C773 1.433 . S
C775 N778 1.384 . S
C776 H767 0.929 . S
C776 C768 1.378 . S
C776 C771 1.350 . S
C777 H764 0.929 . S
C777 C769 1.433 . S
C777 N779 1.384 . S
N778 C774 1.427 . S
N778 C775 1.384 . S
N779 C771 1.427 . S
N779 C777 1.384 . S
H780 C786 0.930 . S
H781 C790 0.930 . S
H782 C795 0.929 . S
H783 C793 0.929 . S
H784 C788 0.929 . S
H785 C794 0.929 . S
C786 H780 0.930 . S
C786 C787 1.367 . S
C786 C794 1.378 . S
C787 C786 1.367 . S
C787 C795 1.433 . S
C788 H784 0.929 . S
C788 C790 1.378 . S
C788 C792 1.350 . S
C789 C792 1.463 . S
C789 C794 1.350 . S
C789 N797 1.427 . S
C790 H781 0.930 . S
C790 C788 1.378 . S
C790 C791 1.367 . S
C791 C790 1.367 . S
C791 C793 1.433 . S
C792 C788 1.350 . S
C792 C789 1.463 . S
C792 N796 1.427 . S
C793 H783 0.929 . S
C793 C791 1.433 . S
C793 N796 1.384 . S
C794 H785 0.929 . S
C794 C786 1.378 . S
C794 C789 1.350 . S
C795 H782 0.929 . S
C795 C787 1.433 . S
C795 N797 1.384 . S
N796 C792 1.427 . S
N796 C793 1.384 . S
N797 C789 1.427 . S
N797 C795 1.384 . S
H798 C804 0.930 . S
H799 C808 0.930 . S
H800 C813 0.929 . S
H801 C811 0.929 . S
H802 C806 0.929 . S
H803 C812 0.929 . S
C804 H798 0.930 . S
C804 C805 1.367 . S
C804 C812 1.378 . S
C805 C804 1.367 . S
C805 C813 1.433 . S
C806 H802 0.929 . S
C806 C808 1.378 . S
C806 C810 1.350 . S
C807 C810 1.463 . S
C807 C812 1.350 . S
C807 N815 1.427 . S
C808 H799 0.930 . S
C808 C806 1.378 . S
C808 C809 1.367 . S
C809 C808 1.367 . S
C809 C811 1.433 . S
C810 C806 1.350 . S
C810 C807 1.463 . S
C810 N814 1.427 . S
C811 H801 0.929 . S
C811 C809 1.433 . S
C811 N814 1.384 . S
C812 H803 0.929 . S
C812 C804 1.378 . S
C812 C807 1.350 . S
C813 H800 0.929 . S
C813 C805 1.433 . S
C813 N815 1.384 . S
N814 C810 1.427 . S
N814 C811 1.384 . S
N815 C807 1.427 . S
N815 C813 1.384 . S
H816 C822 0.930 . S
H817 C826 0.930 . S
H818 C831 0.929 . S
H819 C829 0.929 . S
H820 C824 0.929 . S
H821 C830 0.929 . S
C822 H816 0.930 . S
C822 C823 1.367 . S
C822 C830 1.378 . S
C823 C822 1.367 . S
C823 C831 1.433 . S
C824 H820 0.929 . S
C824 C826 1.378 . S
C824 C828 1.350 . S
C825 C828 1.463 . S
C825 C830 1.350 . S
C825 N833 1.427 . S
C826 H817 0.930 . S
C826 C824 1.378 . S
C826 C827 1.367 . S
C827 C826 1.367 . S
C827 C829 1.433 . S
C828 C824 1.350 . S
C828 C825 1.463 . S
C828 N832 1.427 . S
C829 H819 0.929 . S
C829 C827 1.433 . S
C829 N832 1.384 . S
C830 H821 0.929 . S
C830 C822 1.378 . S
C830 C825 1.350 . S
C831 H818 0.929 . S
C831 C823 1.433 . S
C831 N833 1.384 . S
N832 C828 1.427 . S
N832 C829 1.384 . S
N833 C825 1.427 . S
N833 C831 1.384 . S
H834 C840 0.930 . S
H835 C844 0.930 . S
H836 C849 0.929 . S
H837 C847 0.929 . S
H838 C842 0.929 . S
H839 C848 0.929 . S
C840 H834 0.930 . S
C840 C841 1.367 . S
C840 C848 1.378 . S
C841 C840 1.367 . S
C841 C849 1.433 . S
C842 H838 0.929 . S
C842 C844 1.378 . S
C842 C846 1.350 . S
C843 C846 1.463 . S
C843 C848 1.350 . S
C843 N851 1.427 . S
C844 H835 0.930 . S
C844 C842 1.378 . S
C844 C845 1.367 . S
C845 C844 1.367 . S
C845 C847 1.433 . S
C846 C842 1.350 . S
C846 C843 1.463 . S
C846 N850 1.427 . S
C847 H837 0.929 . S
C847 C845 1.433 . S
C847 N850 1.384 . S
C848 H839 0.929 . S
C848 C840 1.378 . S
C848 C843 1.350 . S
C849 H836 0.929 . S
C849 C841 1.433 . S
C849 N851 1.384 . S
N850 C846 1.427 . S
N850 C847 1.384 . S
N851 C843 1.427 . S
N851 C849 1.384 . S
H852 C858 0.930 . S
H853 C862 0.930 . S
H854 C867 0.929 . S
H855 C865 0.929 . S
H856 C860 0.929 . S
H857 C866 0.929 . S
C858 H852 0.930 . S
C858 C859 1.367 . S
C858 C866 1.378 . S
C859 C858 1.367 . S
C859 C867 1.433 . S
C860 H856 0.929 . S
C860 C862 1.378 . S
C860 C864 1.350 . S
C861 C864 1.463 . S
C861 C866 1.350 . S
C861 N869 1.427 . S
C862 H853 0.930 . S
C862 C860 1.378 . S
C862 C863 1.367 . S
C863 C862 1.367 . S
C863 C865 1.433 . S
C864 C860 1.350 . S
C864 C861 1.463 . S
C864 N868 1.427 . S
C865 H855 0.929 . S
C865 C863 1.433 . S
C865 N868 1.384 . S
C866 H857 0.929 . S
C866 C858 1.378 . S
C866 C861 1.350 . S
C867 H854 0.929 . S
C867 C859 1.433 . S
C867 N869 1.384 . S
N868 C864 1.427 . S
N868 C865 1.384 . S
N869 C861 1.427 . S
N869 C867 1.384 . S
H870 C876 0.930 . S
H871 C880 0.930 . S
H872 C885 0.929 . S
H873 C883 0.929 . S
H874 C878 0.929 . S
H875 C884 0.929 . S
C876 H870 0.930 . S
C876 C877 1.367 . S
C876 C884 1.378 . S
C877 C876 1.367 . S
C877 C885 1.433 . S
C878 H874 0.929 . S
C878 C880 1.378 . S
C878 C882 1.350 . S
C879 C882 1.463 . S
C879 C884 1.350 . S
C879 N887 1.427 . S
C880 H871 0.930 . S
C880 C878 1.378 . S
C880 C881 1.367 . S
C881 C880 1.367 . S
C881 C883 1.433 . S
C882 C878 1.350 . S
C882 C879 1.463 . S
C882 N886 1.427 . S
C883 H873 0.929 . S
C883 C881 1.433 . S
C883 N886 1.384 . S
C884 H875 0.929 . S
C884 C876 1.378 . S
C884 C879 1.350 . S
C885 H872 0.929 . S
C885 C877 1.433 . S
C885 N887 1.384 . S
N886 C882 1.427 . S
N886 C883 1.384 . S
N887 C879 1.427 . S
N887 C885 1.384 . S
H888 C894 0.930 . S
H889 C898 0.930 . S
H890 C903 0.929 . S
H891 C901 0.929 . S
H892 C896 0.929 . S
H893 C902 0.929 . S
C894 H888 0.930 . S
C894 C895 1.367 . S
C894 C902 1.378 . S
C895 C894 1.367 . S
C895 C903 1.433 . S
C896 H892 0.929 . S
C896 C898 1.378 . S
C896 C900 1.350 . S
C897 C900 1.463 . S
C897 C902 1.350 . S
C897 N905 1.427 . S
C898 H889 0.930 . S
C898 C896 1.378 . S
C898 C899 1.367 . S
C899 C898 1.367 . S
C899 C901 1.433 . S
C900 C896 1.350 . S
C900 C897 1.463 . S
C900 N904 1.427 . S
C901 H891 0.929 . S
C901 C899 1.433 . S
C901 N904 1.384 . S
C902 H893 0.929 . S
C902 C894 1.378 . S
C902 C897 1.350 . S
C903 H890 0.929 . S
C903 C895 1.433 . S
C903 N905 1.384 . S
N904 C900 1.427 . S
N904 C901 1.384 . S
N905 C897 1.427 . S
N905 C903 1.384 . S
H906 C912 0.930 . S
H907 C916 0.930 . S
H908 C921 0.929 . S
H909 C919 0.929 . S
H910 C914 0.929 . S
H911 C920 0.929 . S
C912 H906 0.930 . S
C912 C913 1.367 . S
C912 C920 1.378 . S
C913 C912 1.367 . S
C913 C921 1.433 . S
C914 H910 0.929 . S
C914 C916 1.378 . S
C914 C918 1.350 . S
C915 C918 1.463 . S
C915 C920 1.350 . S
C915 N923 1.427 . S
C916 H907 0.930 . S
C916 C914 1.378 . S
C916 C917 1.367 . S
C917 C916 1.367 . S
C917 C919 1.433 . S
C918 C914 1.350 . S
C918 C915 1.463 . S
C918 N922 1.427 . S
C919 H909 0.929 . S
C919 C917 1.433 . S
C919 N922 1.384 . S
C920 H911 0.929 . S
C920 C912 1.378 . S
C920 C915 1.350 . S
C921 H908 0.929 . S
C921 C913 1.433 . S
C921 N923 1.384 . S
N922 C918 1.427 . S
N922 C919 1.384 . S
N923 C915 1.427 . S
N923 C921 1.384 . S
H924 C930 0.930 . S
H925 C934 0.930 . S
H926 C939 0.929 . S
H927 C937 0.929 . S
H928 C932 0.929 . S
H929 C938 0.929 . S
C930 H924 0.930 . S
C930 C931 1.367 . S
C930 C938 1.378 . S
C931 C930 1.367 . S
C931 C939 1.433 . S
C932 H928 0.929 . S
C932 C934 1.378 . S
C932 C936 1.350 . S
C933 C936 1.463 . S
C933 C938 1.350 . S
C933 N941 1.427 . S
C934 H925 0.930 . S
C934 C932 1.378 . S
C934 C935 1.367 . S
C935 C934 1.367 . S
C935 C937 1.433 . S
C936 C932 1.350 . S
C936 C933 1.463 . S
C936 N940 1.427 . S
C937 H927 0.929 . S
C937 C935 1.433 . S
C937 N940 1.384 . S
C938 H929 0.929 . S
C938 C930 1.378 . S
C938 C933 1.350 . S
C939 H926 0.929 . S
C939 C931 1.433 . S
C939 N941 1.384 . S
N940 C936 1.427 . S
N940 C937 1.384 . S
N941 C933 1.427 . S
N941 C939 1.384 . S
H942 C948 0.930 . S
H943 C952 0.930 . S
H944 C957 0.929 . S
H945 C955 0.929 . S
H946 C950 0.929 . S
H947 C956 0.929 . S
C948 H942 0.930 . S
C948 C949 1.367 . S
C948 C956 1.378 . S
C949 C948 1.367 . S
C949 C957 1.433 . S
C950 H946 0.929 . S
C950 C952 1.378 . S
C950 C954 1.350 . S
C951 C954 1.463 . S
C951 C956 1.350 . S
C951 N959 1.427 . S
C952 H943 0.930 . S
C952 C950 1.378 . S
C952 C953 1.367 . S
C953 C952 1.367 . S
C953 C955 1.433 . S
C954 C950 1.350 . S
C954 C951 1.463 . S
C954 N958 1.427 . S
C955 H945 0.929 . S
C955 C953 1.433 . S
C955 N958 1.384 . S
C956 H947 0.929 . S
C956 C948 1.378 . S
C956 C951 1.350 . S
C957 H944 0.929 . S
C957 C949 1.433 . S
C957 N959 1.384 . S
N958 C954 1.427 . S
N958 C955 1.384 . S
N959 C951 1.427 . S
N959 C957 1.384 . S
H960 C966 0.930 . S
H961 C970 0.930 . S
H962 C975 0.929 . S
H963 C973 0.929 . S
H964 C968 0.929 . S
H965 C974 0.929 . S
C966 H960 0.930 . S
C966 C967 1.367 . S
C966 C974 1.378 . S
C967 C966 1.367 . S
C967 C975 1.433 . S
C968 H964 0.929 . S
C968 C970 1.378 . S
C968 C972 1.350 . S
C969 C972 1.463 . S
C969 C974 1.350 . S
C969 N977 1.427 . S
C970 H961 0.930 . S
C970 C968 1.378 . S
C970 C971 1.367 . S
C971 C970 1.367 . S
C971 C973 1.433 . S
C972 C968 1.350 . S
C972 C969 1.463 . S
C972 N976 1.427 . S
C973 H963 0.929 . S
C973 C971 1.433 . S
C973 N976 1.384 . S
C974 H965 0.929 . S
C974 C966 1.378 . S
C974 C969 1.350 . S
C975 H962 0.929 . S
C975 C967 1.433 . S
C975 N977 1.384 . S
N976 C972 1.427 . S
N976 C973 1.384 . S
N977 C969 1.427 . S
N977 C975 1.384 . S
H978 C984 0.930 . S
H979 C988 0.930 . S
H980 C993 0.929 . S
H981 C991 0.929 . S
H982 C986 0.929 . S
H983 C992 0.929 . S
C984 H978 0.930 . S
C984 C985 1.367 . S
C984 C992 1.378 . S
C985 C984 1.367 . S
C985 C993 1.433 . S
C986 H982 0.929 . S
C986 C988 1.378 . S
C986 C990 1.350 . S
C987 C990 1.463 . S
C987 C992 1.350 . S
C987 N995 1.427 . S
C988 H979 0.930 . S
C988 C986 1.378 . S
C988 C989 1.367 . S
C989 C988 1.367 . S
C989 C991 1.433 . S
C990 C986 1.350 . S
C990 C987 1.463 . S
C990 N994 1.427 . S
C991 H981 0.929 . S
C991 C989 1.433 . S
C991 N994 1.384 . S
C992 H983 0.929 . S
C992 C984 1.378 . S
C992 C987 1.350 . S
C993 H980 0.929 . S
C993 C985 1.433 . S
C993 N995 1.384 . S
N994 C990 1.427 . S
N994 C991 1.384 . S
N995 C987 1.427 . S
N995 C993 1.384 . S
H996 C1002 0.930 . S
H997 C1006 0.930 . S
H998 C1011 0.929 . S
H999 C1009 0.929 . S
H1000 C1004 0.929 . S
H1001 C1010 0.929 . S
C1002 H996 0.930 . S
C1002 C1003 1.367 . S
C1002 C1010 1.378 . S
C1003 C1002 1.367 . S
C1003 C1011 1.433 . S
C1004 H1000 0.929 . S
C1004 C1006 1.378 . S
C1004 C1008 1.350 . S
C1005 C1008 1.463 . S
C1005 C1010 1.350 . S
C1005 N1013 1.427 . S
C1006 H997 0.930 . S
C1006 C1004 1.378 . S
C1006 C1007 1.367 . S
C1007 C1006 1.367 . S
C1007 C1009 1.433 . S
C1008 C1004 1.350 . S
C1008 C1005 1.463 . S
C1008 N1012 1.427 . S
C1009 H999 0.929 . S
C1009 C1007 1.433 . S
C1009 N1012 1.384 . S
C1010 H1001 0.929 . S
C1010 C1002 1.378 . S
C1010 C1005 1.350 . S
C1011 H998 0.929 . S
C1011 C1003 1.433 . S
C1011 N1013 1.384 . S
N1012 C1008 1.427 . S
N1012 C1009 1.384 . S
N1013 C1005 1.427 . S
N1013 C1011 1.384 . S
H1014 C1020 0.930 . S
H1015 C1024 0.930 . S
H1016 C1029 0.929 . S
H1017 C1027 0.929 . S
H1018 C1022 0.929 . S
H1019 C1028 0.929 . S
C1020 H1014 0.930 . S
C1020 C1021 1.367 . S
C1020 C1028 1.378 . S
C1021 C1020 1.367 . S
C1021 C1029 1.433 . S
C1022 H1018 0.929 . S
C1022 C1024 1.378 . S
C1022 C1026 1.350 . S
C1023 C1026 1.463 . S
C1023 C1028 1.350 . S
C1023 N1031 1.427 . S
C1024 H1015 0.930 . S
C1024 C1022 1.378 . S
C1024 C1025 1.367 . S
C1025 C1024 1.367 . S
C1025 C1027 1.433 . S
C1026 C1022 1.350 . S
C1026 C1023 1.463 . S
C1026 N1030 1.427 . S
C1027 H1017 0.929 . S
C1027 C1025 1.433 . S
C1027 N1030 1.384 . S
C1028 H1019 0.929 . S
C1028 C1020 1.378 . S
C1028 C1023 1.350 . S
C1029 H1016 0.929 . S
C1029 C1021 1.433 . S
C1029 N1031 1.384 . S
N1030 C1026 1.427 . S
N1030 C1027 1.384 . S
N1031 C1023 1.427 . S
N1031 C1029 1.384 . S
H1032 C1038 0.930 . S
H1033 C1042 0.930 . S
H1034 C1047 0.929 . S
H1035 C1045 0.929 . S
H1036 C1040 0.929 . S
H1037 C1046 0.929 . S
C1038 H1032 0.930 . S
C1038 C1039 1.367 . S
C1038 C1046 1.378 . S
C1039 C1038 1.367 . S
C1039 C1047 1.433 . S
C1040 H1036 0.929 . S
C1040 C1042 1.378 . S
C1040 C1044 1.350 . S
C1041 C1044 1.463 . S
C1041 C1046 1.350 . S
C1041 N1049 1.427 . S
C1042 H1033 0.930 . S
C1042 C1040 1.378 . S
C1042 C1043 1.367 . S
C1043 C1042 1.367 . S
C1043 C1045 1.433 . S
C1044 C1040 1.350 . S
C1044 C1041 1.463 . S
C1044 N1048 1.427 . S
C1045 H1035 0.929 . S
C1045 C1043 1.433 . S
C1045 N1048 1.384 . S
C1046 H1037 0.929 . S
C1046 C1038 1.378 . S
C1046 C1041 1.350 . S
C1047 H1034 0.929 . S
C1047 C1039 1.433 . S
C1047 N1049 1.384 . S
N1048 C1044 1.427 . S
N1048 C1045 1.384 . S
N1049 C1041 1.427 . S
N1049 C1047 1.384 . S
H1050 C1056 0.930 . S
H1051 C1060 0.930 . S
H1052 C1065 0.929 . S
H1053 C1063 0.929 . S
H1054 C1058 0.929 . S
H1055 C1064 0.929 . S
C1056 H1050 0.930 . S
C1056 C1057 1.367 . S
C1056 C1064 1.378 . S
C1057 C1056 1.367 . S
C1057 C1065 1.433 . S
C1058 H1054 0.929 . S
C1058 C1060 1.378 . S
C1058 C1062 1.350 . S
C1059 C1062 1.463 . S
C1059 C1064 1.350 . S
C1059 N1067 1.427 . S
C1060 H1051 0.930 . S
C1060 C1058 1.378 . S
C1060 C1061 1.367 . S
C1061 C1060 1.367 . S
C1061 C1063 1.433 . S
C1062 C1058 1.350 . S
C1062 C1059 1.463 . S
C1062 N1066 1.427 . S
C1063 H1053 0.929 . S
C1063 C1061 1.433 . S
C1063 N1066 1.384 . S
C1064 H1055 0.929 . S
C1064 C1056 1.378 . S
C1064 C1059 1.350 . S
C1065 H1052 0.929 . S
C1065 C1057 1.433 . S
C1065 N1067 1.384 . S
N1066 C1062 1.427 . S
N1066 C1063 1.384 . S
N1067 C1059 1.427 . S
N1067 C1065 1.384 . S
H1068 C1074 0.930 . S
H1069 C1078 0.930 . S
H1070 C1083 0.929 . S
H1071 C1081 0.929 . S
H1072 C1076 0.929 . S
H1073 C1082 0.929 . S
C1074 H1068 0.930 . S
C1074 C1075 1.367 . S
C1074 C1082 1.378 . S
C1075 C1074 1.367 . S
C1075 C1083 1.433 . S
C1076 H1072 0.929 . S
C1076 C1078 1.378 . S
C1076 C1080 1.350 . S
C1077 C1080 1.463 . S
C1077 C1082 1.350 . S
C1077 N1085 1.427 . S
C1078 H1069 0.930 . S
C1078 C1076 1.378 . S
C1078 C1079 1.367 . S
C1079 C1078 1.367 . S
C1079 C1081 1.433 . S
C1080 C1076 1.350 . S
C1080 C1077 1.463 . S
C1080 N1084 1.427 . S
C1081 H1071 0.929 . S
C1081 C1079 1.433 . S
C1081 N1084 1.384 . S
C1082 H1073 0.929 . S
C1082 C1074 1.378 . S
C1082 C1077 1.350 . S
C1083 H1070 0.929 . S
C1083 C1075 1.433 . S
C1083 N1085 1.384 . S
N1084 C1080 1.427 . S
N1084 C1081 1.384 . S
N1085 C1077 1.427 . S
N1085 C1083 1.384 . S
H1086 C1092 0.930 . S
H1087 C1096 0.930 . S
H1088 C1101 0.929 . S
H1089 C1099 0.929 . S
H1090 C1094 0.929 . S
H1091 C1100 0.929 . S
C1092 H1086 0.930 . S
C1092 C1093 1.367 . S
C1092 C1100 1.378 . S
C1093 C1092 1.367 . S
C1093 C1101 1.433 . S
C1094 H1090 0.929 . S
C1094 C1096 1.378 . S
C1094 C1098 1.350 . S
C1095 C1098 1.463 . S
C1095 C1100 1.350 . S
C1095 N1103 1.427 . S
C1096 H1087 0.930 . S
C1096 C1094 1.378 . S
C1096 C1097 1.367 . S
C1097 C1096 1.367 . S
C1097 C1099 1.433 . S
C1098 C1094 1.350 . S
C1098 C1095 1.463 . S
C1098 N1102 1.427 . S
C1099 H1089 0.929 . S
C1099 C1097 1.433 . S
C1099 N1102 1.384 . S
C1100 H1091 0.929 . S
C1100 C1092 1.378 . S
C1100 C1095 1.350 . S
C1101 H1088 0.929 . S
C1101 C1093 1.433 . S
C1101 N1103 1.384 . S
N1102 C1098 1.427 . S
N1102 C1099 1.384 . S
N1103 C1095 1.427 . S
N1103 C1101 1.384 . S
H1104 C1110 0.930 . S
H1105 C1114 0.930 . S
H1106 C1119 0.929 . S
H1107 C1117 0.929 . S
H1108 C1112 0.929 . S
H1109 C1118 0.929 . S
C1110 H1104 0.930 . S
C1110 C1111 1.367 . S
C1110 C1118 1.378 . S
C1111 C1110 1.367 . S
C1111 C1119 1.433 . S
C1112 H1108 0.929 . S
C1112 C1114 1.378 . S
C1112 C1116 1.350 . S
C1113 C1116 1.463 . S
C1113 C1118 1.350 . S
C1113 N1121 1.427 . S
C1114 H1105 0.930 . S
C1114 C1112 1.378 . S
C1114 C1115 1.367 . S
C1115 C1114 1.367 . S
C1115 C1117 1.433 . S
C1116 C1112 1.350 . S
C1116 C1113 1.463 . S
C1116 N1120 1.427 . S
C1117 H1107 0.929 . S
C1117 C1115 1.433 . S
C1117 N1120 1.384 . S
C1118 H1109 0.929 . S
C1118 C1110 1.378 . S
C1118 C1113 1.350 . S
C1119 H1106 0.929 . S
C1119 C1111 1.433 . S
C1119 N1121 1.384 . S
N1120 C1116 1.427 . S
N1120 C1117 1.384 . S
N1121 C1113 1.427 . S
N1121 C1119 1.384 . S
H1122 C1128 0.930 . S
H1123 C1132 0.930 . S
H1124 C1137 0.929 . S
H1125 C1135 0.929 . S
H1126 C1130 0.929 . S
H1127 C1136 0.929 . S
C1128 H1122 0.930 . S
C1128 C1129 1.367 . S
C1128 C1136 1.378 . S
C1129 C1128 1.367 . S
C1129 C1137 1.433 . S
C1130 H1126 0.929 . S
C1130 C1132 1.378 . S
C1130 C1134 1.350 . S
C1131 C1134 1.463 1_556 S
C1131 C1136 1.350 . S
C1131 N1139 1.427 . S
C1132 H1123 0.930 . S
C1132 C1130 1.378 . S
C1132 C1133 1.367 . S
C1133 C1132 1.367 . S
C1133 C1135 1.433 . S
C1134 C1130 1.350 . S
C1134 C1131 1.463 1_554 S
C1134 N1138 1.427 . S
C1135 H1125 0.929 . S
C1135 C1133 1.433 . S
C1135 N1138 1.384 . S
C1136 H1127 0.929 . S
C1136 C1128 1.378 . S
C1136 C1131 1.350 . S
C1137 H1124 0.929 . S
C1137 C1129 1.433 . S
C1137 N1139 1.384 . S
N1138 C1134 1.427 . S
N1138 C1135 1.384 . S
N1139 C1131 1.427 . S
N1139 C1137 1.384 . S
H1140 C1146 0.930 . S
H1141 C1150 0.930 . S
H1142 C1155 0.929 . S
H1143 C1153 0.929 . S
H1144 C1148 0.929 . S
H1145 C1154 0.929 . S
C1146 H1140 0.930 . S
C1146 C1147 1.367 . S
C1146 C1154 1.378 . S
C1147 C1146 1.367 . S
C1147 C1155 1.433 . S
C1148 H1144 0.929 . S
C1148 C1150 1.378 . S
C1148 C1152 1.350 . S
C1149 C1152 1.463 . S
C1149 C1154 1.350 . S
C1149 N1157 1.427 . S
C1150 H1141 0.930 . S
C1150 C1148 1.378 . S
C1150 C1151 1.367 . S
C1151 C1150 1.367 . S
C1151 C1153 1.433 . S
C1152 C1148 1.350 . S
C1152 C1149 1.463 . S
C1152 N1156 1.427 . S
C1153 H1143 0.929 . S
C1153 C1151 1.433 . S
C1153 N1156 1.384 . S
C1154 H1145 0.929 . S
C1154 C1146 1.378 . S
C1154 C1149 1.350 . S
C1155 H1142 0.929 . S
C1155 C1147 1.433 . S
C1155 N1157 1.384 . S
N1156 C1152 1.427 . S
N1156 C1153 1.384 . S
N1157 C1149 1.427 . S
N1157 C1155 1.384 . S
H1158 C1164 0.930 . S
H1159 C1168 0.930 . S
H1160 C1173 0.929 . S
H1161 C1171 0.929 . S
H1162 C1166 0.929 . S
H1163 C1172 0.929 . S
C1164 H1158 0.930 . S
C1164 C1165 1.367 . S
C1164 C1172 1.378 . S
C1165 C1164 1.367 . S
C1165 C1173 1.433 . S
C1166 H1162 0.929 . S
C1166 C1168 1.378 . S
C1166 C1170 1.350 . S
C1167 C1170 1.463 1_556 S
C1167 C1172 1.350 . S
C1167 N1175 1.427 . S
C1168 H1159 0.930 . S
C1168 C1166 1.378 . S
C1168 C1169 1.367 . S
C1169 C1168 1.367 . S
C1169 C1171 1.433 . S
C1170 C1166 1.350 . S
C1170 C1167 1.463 1_554 S
C1170 N1174 1.427 . S
C1171 H1161 0.929 . S
C1171 C1169 1.433 . S
C1171 N1174 1.384 . S
C1172 H1163 0.929 . S
C1172 C1164 1.378 . S
C1172 C1167 1.350 . S
C1173 H1160 0.929 . S
C1173 C1165 1.433 . S
C1173 N1175 1.384 . S
N1174 C1170 1.427 . S
N1174 C1171 1.384 . S
N1175 C1167 1.427 . S
N1175 C1173 1.384 . S
H1176 C1182 0.930 . S
H1177 C1186 0.930 . S
H1178 C1191 0.929 . S
H1179 C1189 0.929 . S
H1180 C1184 0.929 . S
H1181 C1190 0.929 . S
C1182 H1176 0.930 . S
C1182 C1183 1.367 . S
C1182 C1190 1.378 . S
C1183 C1182 1.367 . S
C1183 C1191 1.433 . S
C1184 H1180 0.929 . S
C1184 C1186 1.378 . S
C1184 C1188 1.350 . S
C1185 C1188 1.463 . S
C1185 C1190 1.350 . S
C1185 N1193 1.427 . S
C1186 H1177 0.930 . S
C1186 C1184 1.378 . S
C1186 C1187 1.367 . S
C1187 C1186 1.367 . S
C1187 C1189 1.433 . S
C1188 C1184 1.350 . S
C1188 C1185 1.463 . S
C1188 N1192 1.427 . S
C1189 H1179 0.929 . S
C1189 C1187 1.433 . S
C1189 N1192 1.384 . S
C1190 H1181 0.929 . S
C1190 C1182 1.378 . S
C1190 C1185 1.350 . S
C1191 H1178 0.929 . S
C1191 C1183 1.433 . S
C1191 N1193 1.384 . S
N1192 C1188 1.427 . S
N1192 C1189 1.384 . S
N1193 C1185 1.427 . S
N1193 C1191 1.384 . S
H1194 C1200 0.930 . S
H1195 C1204 0.930 . S
H1196 C1209 0.929 . S
H1197 C1207 0.929 . S
H1198 C1202 0.929 . S
H1199 C1208 0.929 . S
C1200 H1194 0.930 . S
C1200 C1201 1.367 . S
C1200 C1208 1.378 . S
C1201 C1200 1.367 . S
C1201 C1209 1.433 . S
C1202 H1198 0.929 . S
C1202 C1204 1.378 . S
C1202 C1206 1.350 . S
C1203 C1206 1.463 1_556 S
C1203 C1208 1.350 . S
C1203 N1211 1.427 . S
C1204 H1195 0.930 . S
C1204 C1202 1.378 . S
C1204 C1205 1.367 . S
C1205 C1204 1.367 . S
C1205 C1207 1.433 . S
C1206 C1202 1.350 . S
C1206 C1203 1.463 1_554 S
C1206 N1210 1.427 . S
C1207 H1197 0.929 . S
C1207 C1205 1.433 . S
C1207 N1210 1.384 . S
C1208 H1199 0.929 . S
C1208 C1200 1.378 . S
C1208 C1203 1.350 . S
C1209 H1196 0.929 . S
C1209 C1201 1.433 . S
C1209 N1211 1.384 . S
N1210 C1206 1.427 . S
N1210 C1207 1.384 . S
N1211 C1203 1.427 . S
N1211 C1209 1.384 . S
H1212 C1218 0.930 . S
H1213 C1222 0.930 . S
H1214 C1227 0.929 . S
H1215 C1225 0.929 . S
H1216 C1220 0.929 . S
H1217 C1226 0.929 . S
C1218 H1212 0.930 . S
C1218 C1219 1.367 . S
C1218 C1226 1.378 . S
C1219 C1218 1.367 . S
C1219 C1227 1.433 . S
C1220 H1216 0.929 . S
C1220 C1222 1.378 . S
C1220 C1224 1.350 . S
C1221 C1224 1.463 . S
C1221 C1226 1.350 . S
C1221 N1229 1.427 . S
C1222 H1213 0.930 . S
C1222 C1220 1.378 . S
C1222 C1223 1.367 . S
C1223 C1222 1.367 . S
C1223 C1225 1.433 . S
C1224 C1220 1.350 . S
C1224 C1221 1.463 . S
C1224 N1228 1.427 . S
C1225 H1215 0.929 . S
C1225 C1223 1.433 . S
C1225 N1228 1.384 . S
C1226 H1217 0.929 . S
C1226 C1218 1.378 . S
C1226 C1221 1.350 . S
C1227 H1214 0.929 . S
C1227 C1219 1.433 . S
C1227 N1229 1.384 . S
N1228 C1224 1.427 . S
N1228 C1225 1.384 . S
N1229 C1221 1.427 . S
N1229 C1227 1.384 . S
H1230 C1236 0.930 . S
H1231 C1240 0.930 . S
H1232 C1245 0.929 . S
H1233 C1243 0.929 . S
H1234 C1238 0.929 . S
H1235 C1244 0.929 . S
C1236 H1230 0.930 . S
C1236 C1237 1.367 . S
C1236 C1244 1.378 . S
C1237 C1236 1.367 . S
C1237 C1245 1.433 . S
C1238 H1234 0.929 . S
C1238 C1240 1.378 . S
C1238 C1242 1.350 . S
C1239 C1242 1.463 1_556 S
C1239 C1244 1.350 . S
C1239 N1247 1.427 . S
C1240 H1231 0.930 . S
C1240 C1238 1.378 . S
C1240 C1241 1.367 . S
C1241 C1240 1.367 . S
C1241 C1243 1.433 . S
C1242 C1238 1.350 . S
C1242 C1239 1.463 1_554 S
C1242 N1246 1.427 . S
C1243 H1233 0.929 . S
C1243 C1241 1.433 . S
C1243 N1246 1.384 . S
C1244 H1235 0.929 . S
C1244 C1236 1.378 . S
C1244 C1239 1.350 . S
C1245 H1232 0.929 . S
C1245 C1237 1.433 . S
C1245 N1247 1.384 . S
N1246 C1242 1.427 . S
N1246 C1243 1.384 . S
N1247 C1239 1.427 . S
N1247 C1245 1.384 . S
H1248 C1254 0.930 . S
H1249 C1258 0.930 . S
H1250 C1263 0.929 . S
H1251 C1261 0.929 . S
H1252 C1256 0.929 . S
H1253 C1262 0.929 . S
C1254 H1248 0.930 . S
C1254 C1255 1.367 . S
C1254 C1262 1.378 . S
C1255 C1254 1.367 . S
C1255 C1263 1.433 . S
C1256 H1252 0.929 . S
C1256 C1258 1.378 . S
C1256 C1260 1.350 . S
C1257 C1260 1.463 . S
C1257 C1262 1.350 . S
C1257 N1265 1.427 . S
C1258 H1249 0.930 . S
C1258 C1256 1.378 . S
C1258 C1259 1.367 . S
C1259 C1258 1.367 . S
C1259 C1261 1.433 . S
C1260 C1256 1.350 . S
C1260 C1257 1.463 . S
C1260 N1264 1.427 . S
C1261 H1251 0.929 . S
C1261 C1259 1.433 . S
C1261 N1264 1.384 . S
C1262 H1253 0.929 . S
C1262 C1254 1.378 . S
C1262 C1257 1.350 . S
C1263 H1250 0.929 . S
C1263 C1255 1.433 . S
C1263 N1265 1.384 . S
N1264 C1260 1.427 . S
N1264 C1261 1.384 . S
N1265 C1257 1.427 . S
N1265 C1263 1.384 . S
H1266 C1272 0.930 . S
H1267 C1276 0.930 . S
H1268 C1281 0.929 . S
H1269 C1279 0.929 . S
H1270 C1274 0.929 . S
H1271 C1280 0.929 . S
C1272 H1266 0.930 . S
C1272 C1273 1.367 . S
C1272 C1280 1.378 . S
C1273 C1272 1.367 . S
C1273 C1281 1.433 . S
C1274 H1270 0.929 . S
C1274 C1276 1.378 . S
C1274 C1278 1.350 . S
C1275 C1278 1.463 1_565 S
C1275 C1280 1.350 . S
C1275 N1283 1.427 . S
C1276 H1267 0.930 . S
C1276 C1274 1.378 . S
C1276 C1277 1.367 . S
C1277 C1276 1.367 . S
C1277 C1279 1.433 . S
C1278 C1274 1.350 . S
C1278 C1275 1.463 1_545 S
C1278 N1282 1.427 . S
C1279 H1269 0.929 . S
C1279 C1277 1.433 . S
C1279 N1282 1.384 . S
C1280 H1271 0.929 . S
C1280 C1272 1.378 . S
C1280 C1275 1.350 . S
C1281 H1268 0.929 . S
C1281 C1273 1.433 . S
C1281 N1283 1.384 . S
N1282 C1278 1.427 . S
N1282 C1279 1.384 . S
N1283 C1275 1.427 . S
N1283 C1281 1.384 . S
H1284 C1290 0.930 . S
H1285 C1294 0.930 . S
H1286 C1299 0.929 . S
H1287 C1297 0.929 . S
H1288 C1292 0.929 . S
H1289 C1298 0.929 . S
C1290 H1284 0.930 . S
C1290 C1291 1.367 . S
C1290 C1298 1.378 . S
C1291 C1290 1.367 . S
C1291 C1299 1.433 . S
C1292 H1288 0.929 . S
C1292 C1294 1.378 . S
C1292 C1296 1.350 . S
C1293 C1296 1.463 . S
C1293 C1298 1.350 . S
C1293 N1301 1.427 . S
C1294 H1285 0.930 . S
C1294 C1292 1.378 . S
C1294 C1295 1.367 . S
C1295 C1294 1.367 . S
C1295 C1297 1.433 . S
C1296 C1292 1.350 . S
C1296 C1293 1.463 . S
C1296 N1300 1.427 . S
C1297 H1287 0.929 . S
C1297 C1295 1.433 . S
C1297 N1300 1.384 . S
C1298 H1289 0.929 . S
C1298 C1290 1.378 . S
C1298 C1293 1.350 . S
C1299 H1286 0.929 . S
C1299 C1291 1.433 . S
C1299 N1301 1.384 . S
N1300 C1296 1.427 . S
N1300 C1297 1.384 . S
N1301 C1293 1.427 . S
N1301 C1299 1.384 . S
H1302 C1308 0.930 . S
H1303 C1312 0.930 . S
H1304 C1317 0.929 . S
H1305 C1315 0.929 . S
H1306 C1310 0.929 . S
H1307 C1316 0.929 . S
C1308 H1302 0.930 . S
C1308 C1309 1.367 . S
C1308 C1316 1.378 . S
C1309 C1308 1.367 . S
C1309 C1317 1.433 . S
C1310 H1306 0.929 . S
C1310 C1312 1.378 . S
C1310 C1314 1.350 . S
C1311 C1314 1.463 1_545 S
C1311 C1316 1.350 . S
C1311 N1319 1.427 . S
C1312 H1303 0.930 . S
C1312 C1310 1.378 . S
C1312 C1313 1.367 . S
C1313 C1312 1.367 . S
C1313 C1315 1.433 . S
C1314 C1310 1.350 . S
C1314 C1311 1.463 1_565 S
C1314 N1318 1.427 . S
C1315 H1305 0.929 . S
C1315 C1313 1.433 . S
C1315 N1318 1.384 . S
C1316 H1307 0.929 . S
C1316 C1308 1.378 . S
C1316 C1311 1.350 . S
C1317 H1304 0.929 . S
C1317 C1309 1.433 . S
C1317 N1319 1.384 . S
N1318 C1314 1.427 . S
N1318 C1315 1.384 . S
N1319 C1311 1.427 . S
N1319 C1317 1.384 . S
H1320 C1326 0.930 . S
H1321 C1330 0.930 . S
H1322 C1335 0.929 . S
H1323 C1333 0.929 . S
H1324 C1328 0.929 . S
H1325 C1334 0.929 . S
C1326 H1320 0.930 . S
C1326 C1327 1.367 . S
C1326 C1334 1.378 . S
C1327 C1326 1.367 . S
C1327 C1335 1.433 . S
C1328 H1324 0.929 . S
C1328 C1330 1.378 . S
C1328 C1332 1.350 . S
C1329 C1332 1.463 . S
C1329 C1334 1.350 . S
C1329 N1337 1.427 . S
C1330 H1321 0.930 . S
C1330 C1328 1.378 . S
C1330 C1331 1.367 . S
C1331 C1330 1.367 . S
C1331 C1333 1.433 . S
C1332 C1328 1.350 . S
C1332 C1329 1.463 . S
C1332 N1336 1.427 . S
C1333 H1323 0.929 . S
C1333 C1331 1.433 . S
C1333 N1336 1.384 . S
C1334 H1325 0.929 . S
C1334 C1326 1.378 . S
C1334 C1329 1.350 . S
C1335 H1322 0.929 . S
C1335 C1327 1.433 . S
C1335 N1337 1.384 . S
N1336 C1332 1.427 . S
N1336 C1333 1.384 . S
N1337 C1329 1.427 . S
N1337 C1335 1.384 . S
H1338 C1344 0.930 . S
H1339 C1348 0.930 . S
H1340 C1353 0.929 . S
H1341 C1351 0.929 . S
H1342 C1346 0.929 . S
H1343 C1352 0.929 . S
C1344 H1338 0.930 . S
C1344 C1345 1.367 . S
C1344 C1352 1.378 . S
C1345 C1344 1.367 . S
C1345 C1353 1.433 . S
C1346 H1342 0.929 . S
C1346 C1348 1.378 . S
C1346 C1350 1.350 . S
C1347 C1350 1.463 1_565 S
C1347 C1352 1.350 . S
C1347 N1355 1.427 . S
C1348 H1339 0.930 . S
C1348 C1346 1.378 . S
C1348 C1349 1.367 . S
C1349 C1348 1.367 . S
C1349 C1351 1.433 . S
C1350 C1346 1.350 . S
C1350 C1347 1.463 1_545 S
C1350 N1354 1.427 . S
C1351 H1341 0.929 . S
C1351 C1349 1.433 . S
C1351 N1354 1.384 . S
C1352 H1343 0.929 . S
C1352 C1344 1.378 . S
C1352 C1347 1.350 . S
C1353 H1340 0.929 . S
C1353 C1345 1.433 . S
C1353 N1355 1.384 . S
N1354 C1350 1.427 . S
N1354 C1351 1.384 . S
N1355 C1347 1.427 . S
N1355 C1353 1.384 . S
H1356 C1362 0.930 . S
H1357 C1366 0.930 . S
H1358 C1371 0.929 . S
H1359 C1369 0.929 . S
H1360 C1364 0.929 . S
H1361 C1370 0.929 . S
C1362 H1356 0.930 . S
C1362 C1363 1.367 . S
C1362 C1370 1.378 . S
C1363 C1362 1.367 . S
C1363 C1371 1.433 . S
C1364 H1360 0.929 . S
C1364 C1366 1.378 . S
C1364 C1368 1.350 . S
C1365 C1368 1.463 . S
C1365 C1370 1.350 . S
C1365 N1373 1.427 . S
C1366 H1357 0.930 . S
C1366 C1364 1.378 . S
C1366 C1367 1.367 . S
C1367 C1366 1.367 . S
C1367 C1369 1.433 . S
C1368 C1364 1.350 . S
C1368 C1365 1.463 . S
C1368 N1372 1.427 . S
C1369 H1359 0.929 . S
C1369 C1367 1.433 . S
C1369 N1372 1.384 . S
C1370 H1361 0.929 . S
C1370 C1362 1.378 . S
C1370 C1365 1.350 . S
C1371 H1358 0.929 . S
C1371 C1363 1.433 . S
C1371 N1373 1.384 . S
N1372 C1368 1.427 . S
N1372 C1369 1.384 . S
N1373 C1365 1.427 . S
N1373 C1371 1.384 . S
H1374 C1380 0.930 . S
H1375 C1384 0.930 . S
H1376 C1389 0.929 . S
H1377 C1387 0.929 . S
H1378 C1382 0.929 . S
H1379 C1388 0.929 . S
C1380 H1374 0.930 . S
C1380 C1381 1.367 . S
C1380 C1388 1.378 . S
C1381 C1380 1.367 . S
C1381 C1389 1.433 . S
C1382 H1378 0.929 . S
C1382 C1384 1.378 . S
C1382 C1386 1.350 . S
C1383 C1386 1.463 1_565 S
C1383 C1388 1.350 . S
C1383 N1391 1.427 . S
C1384 H1375 0.930 . S
C1384 C1382 1.378 . S
C1384 C1385 1.367 . S
C1385 C1384 1.367 . S
C1385 C1387 1.433 . S
C1386 C1382 1.350 . S
C1386 C1383 1.463 1_545 S
C1386 N1390 1.427 . S
C1387 H1377 0.929 . S
C1387 C1385 1.433 . S
C1387 N1390 1.384 . S
C1388 H1379 0.929 . S
C1388 C1380 1.378 . S
C1388 C1383 1.350 . S
C1389 H1376 0.929 . S
C1389 C1381 1.433 . S
C1389 N1391 1.384 . S
N1390 C1386 1.427 . S
N1390 C1387 1.384 . S
N1391 C1383 1.427 . S
N1391 C1389 1.384 . S
H1392 C1398 0.930 . S
H1393 C1402 0.930 . S
H1394 C1407 0.929 . S
H1395 C1405 0.929 . S
H1396 C1400 0.929 . S
H1397 C1406 0.929 . S
C1398 H1392 0.930 . S
C1398 C1399 1.367 . S
C1398 C1406 1.378 . S
C1399 C1398 1.367 . S
C1399 C1407 1.433 . S
C1400 H1396 0.929 . S
C1400 C1402 1.378 . S
C1400 C1404 1.350 . S
C1401 C1404 1.463 . S
C1401 C1406 1.350 . S
C1401 N1409 1.427 . S
C1402 H1393 0.930 . S
C1402 C1400 1.378 . S
C1402 C1403 1.367 . S
C1403 C1402 1.367 . S
C1403 C1405 1.433 . S
C1404 C1400 1.350 . S
C1404 C1401 1.463 . S
C1404 N1408 1.427 . S
C1405 H1395 0.929 . S
C1405 C1403 1.433 . S
C1405 N1408 1.384 . S
C1406 H1397 0.929 . S
C1406 C1398 1.378 . S
C1406 C1401 1.350 . S
C1407 H1394 0.929 . S
C1407 C1399 1.433 . S
C1407 N1409 1.384 . S
N1408 C1404 1.427 . S
N1408 C1405 1.384 . S
N1409 C1401 1.427 . S
N1409 C1407 1.384 . S
H1410 C1416 0.930 . S
H1411 C1420 0.930 . S
H1412 C1425 0.929 . S
H1413 C1423 0.929 . S
H1414 C1418 0.929 . S
H1415 C1424 0.929 . S
C1416 H1410 0.930 . S
C1416 C1417 1.367 . S
C1416 C1424 1.378 . S
C1417 C1416 1.367 . S
C1417 C1425 1.433 . S
C1418 H1414 0.929 . S
C1418 C1420 1.378 . S
C1418 C1422 1.350 . S
C1419 C1422 1.463 . S
C1419 C1424 1.350 . S
C1419 N1427 1.427 . S
C1420 H1411 0.930 . S
C1420 C1418 1.378 . S
C1420 C1421 1.367 . S
C1421 C1420 1.367 . S
C1421 C1423 1.433 . S
C1422 C1418 1.350 . S
C1422 C1419 1.463 . S
C1422 N1426 1.427 . S
C1423 H1413 0.929 . S
C1423 C1421 1.433 . S
C1423 N1426 1.384 . S
C1424 H1415 0.929 . S
C1424 C1416 1.378 . S
C1424 C1419 1.350 . S
C1425 H1412 0.929 . S
C1425 C1417 1.433 . S
C1425 N1427 1.384 . S
N1426 C1422 1.427 . S
N1426 C1423 1.384 . S
N1427 C1419 1.427 . S
N1427 C1425 1.384 . S
H1428 C1434 0.930 . S
H1429 C1438 0.930 . S
H1430 C1443 0.929 . S
H1431 C1441 0.929 . S
H1432 C1436 0.929 . S
H1433 C1442 0.929 . S
C1434 H1428 0.930 . S
C1434 C1435 1.367 . S
C1434 C1442 1.378 . S
C1435 C1434 1.367 . S
C1435 C1443 1.433 . S
C1436 H1432 0.929 . S
C1436 C1438 1.378 1_455 S
C1436 C1440 1.350 . S
C1437 C1440 1.463 . S
C1437 C1442 1.350 . S
C1437 N1445 1.427 . S
C1438 H1429 0.930 . S
C1438 C1436 1.378 1_655 S
C1438 C1439 1.367 . S
C1439 C1438 1.367 . S
C1439 C1441 1.433 . S
C1440 C1436 1.350 . S
C1440 C1437 1.463 . S
C1440 N1444 1.427 . S
C1441 H1431 0.929 . S
C1441 C1439 1.433 . S
C1441 N1444 1.384 1_655 S
C1442 H1433 0.929 . S
C1442 C1434 1.378 . S
C1442 C1437 1.350 . S
C1443 H1430 0.929 . S
C1443 C1435 1.433 . S
C1443 N1445 1.384 . S
N1444 C1440 1.427 . S
N1444 C1441 1.384 1_455 S
N1445 C1437 1.427 . S
N1445 C1443 1.384 . S
H1446 C1452 0.930 . S
H1447 C1456 0.930 . S
H1448 C1461 0.929 . S
H1449 C1459 0.929 . S
H1450 C1454 0.929 . S
H1451 C1460 0.929 . S
C1452 H1446 0.930 . S
C1452 C1453 1.367 . S
C1452 C1460 1.378 . S
C1453 C1452 1.367 . S
C1453 C1461 1.433 . S
C1454 H1450 0.929 . S
C1454 C1456 1.378 . S
C1454 C1458 1.350 . S
C1455 C1458 1.463 . S
C1455 C1460 1.350 . S
C1455 N1463 1.427 . S
C1456 H1447 0.930 . S
C1456 C1454 1.378 . S
C1456 C1457 1.367 . S
C1457 C1456 1.367 . S
C1457 C1459 1.433 . S
C1458 C1454 1.350 . S
C1458 C1455 1.463 . S
C1458 N1462 1.427 . S
C1459 H1449 0.929 . S
C1459 C1457 1.433 . S
C1459 N1462 1.384 . S
C1460 H1451 0.929 . S
C1460 C1452 1.378 . S
C1460 C1455 1.350 . S
C1461 H1448 0.929 . S
C1461 C1453 1.433 . S
C1461 N1463 1.384 . S
N1462 C1458 1.427 . S
N1462 C1459 1.384 . S
N1463 C1455 1.427 . S
N1463 C1461 1.384 . S
H1464 C1470 0.930 . S
H1465 C1474 0.930 . S
H1466 C1479 0.929 . S
H1467 C1477 0.929 . S
H1468 C1472 0.929 . S
H1469 C1478 0.929 . S
C1470 H1464 0.930 . S
C1470 C1471 1.367 . S
C1470 C1478 1.378 1_455 S
C1471 C1470 1.367 . S
C1471 C1479 1.433 . S
C1472 H1468 0.929 . S
C1472 C1474 1.378 . S
C1472 C1476 1.350 . S
C1473 C1476 1.463 . S
C1473 C1478 1.350 . S
C1473 N1481 1.427 . S
C1474 H1465 0.930 . S
C1474 C1472 1.378 . S
C1474 C1475 1.367 . S
C1475 C1474 1.367 . S
C1475 C1477 1.433 . S
C1476 C1472 1.350 . S
C1476 C1473 1.463 . S
C1476 N1480 1.427 . S
C1477 H1467 0.929 . S
C1477 C1475 1.433 . S
C1477 N1480 1.384 . S
C1478 H1469 0.929 . S
C1478 C1470 1.378 1_655 S
C1478 C1473 1.350 . S
C1479 H1466 0.929 . S
C1479 C1471 1.433 . S
C1479 N1481 1.384 1_455 S
N1480 C1476 1.427 . S
N1480 C1477 1.384 . S
N1481 C1473 1.427 . S
N1481 C1479 1.384 1_655 S
H1482 C1488 0.930 . S
H1483 C1492 0.930 . S
H1484 C1497 0.929 . S
H1485 C1495 0.929 . S
H1486 C1490 0.929 . S
H1487 C1496 0.929 . S
C1488 H1482 0.930 . S
C1488 C1489 1.367 . S
C1488 C1496 1.378 . S
C1489 C1488 1.367 . S
C1489 C1497 1.433 . S
C1490 H1486 0.929 . S
C1490 C1492 1.378 . S
C1490 C1494 1.350 . S
C1491 C1494 1.463 . S
C1491 C1496 1.350 . S
C1491 N1499 1.427 . S
C1492 H1483 0.930 . S
C1492 C1490 1.378 . S
C1492 C1493 1.367 . S
C1493 C1492 1.367 . S
C1493 C1495 1.433 . S
C1494 C1490 1.350 . S
C1494 C1491 1.463 . S
C1494 N1498 1.427 . S
C1495 H1485 0.929 . S
C1495 C1493 1.433 . S
C1495 N1498 1.384 . S
C1496 H1487 0.929 . S
C1496 C1488 1.378 . S
C1496 C1491 1.350 . S
C1497 H1484 0.929 . S
C1497 C1489 1.433 . S
C1497 N1499 1.384 . S
N1498 C1494 1.427 . S
N1498 C1495 1.384 . S
N1499 C1491 1.427 . S
N1499 C1497 1.384 . S
H1500 C1506 0.930 . S
H1501 C1510 0.930 . S
H1502 C1515 0.929 . S
H1503 C1513 0.929 . S
H1504 C1508 0.929 . S
H1505 C1514 0.929 . S
C1506 H1500 0.930 . S
C1506 C1507 1.367 . S
C1506 C1514 1.378 . S
C1507 C1506 1.367 . S
C1507 C1515 1.433 . S
C1508 H1504 0.929 . S
C1508 C1510 1.378 1_655 S
C1508 C1512 1.350 . S
C1509 C1512 1.463 . S
C1509 C1514 1.350 . S
C1509 N1517 1.427 . S
C1510 H1501 0.930 . S
C1510 C1508 1.378 1_455 S
C1510 C1511 1.367 . S
C1511 C1510 1.367 . S
C1511 C1513 1.433 . S
C1512 C1508 1.350 . S
C1512 C1509 1.463 . S
C1512 N1516 1.427 . S
C1513 H1503 0.929 . S
C1513 C1511 1.433 . S
C1513 N1516 1.384 1_455 S
C1514 H1505 0.929 . S
C1514 C1506 1.378 . S
C1514 C1509 1.350 . S
C1515 H1502 0.929 . S
C1515 C1507 1.433 . S
C1515 N1517 1.384 . S
N1516 C1512 1.427 . S
N1516 C1513 1.384 1_655 S
N1517 C1509 1.427 . S
N1517 C1515 1.384 . S
H1518 C1524 0.930 . S
H1519 C1528 0.930 . S
H1520 C1533 0.929 . S
H1521 C1531 0.929 . S
H1522 C1526 0.929 . S
H1523 C1532 0.929 . S
C1524 H1518 0.930 . S
C1524 C1525 1.367 . S
C1524 C1532 1.378 . S
C1525 C1524 1.367 . S
C1525 C1533 1.433 . S
C1526 H1522 0.929 . S
C1526 C1528 1.378 1_455 S
C1526 C1530 1.350 . S
C1527 C1530 1.463 . S
C1527 C1532 1.350 . S
C1527 N1535 1.427 . S
C1528 H1519 0.930 . S
C1528 C1526 1.378 1_655 S
C1528 C1529 1.367 . S
C1529 C1528 1.367 . S
C1529 C1531 1.433 . S
C1530 C1526 1.350 . S
C1530 C1527 1.463 . S
C1530 N1534 1.427 . S
C1531 H1521 0.929 . S
C1531 C1529 1.433 . S
C1531 N1534 1.384 1_655 S
C1532 H1523 0.929 . S
C1532 C1524 1.378 . S
C1532 C1527 1.350 . S
C1533 H1520 0.929 . S
C1533 C1525 1.433 . S
C1533 N1535 1.384 . S
N1534 C1530 1.427 . S
N1534 C1531 1.384 1_455 S
N1535 C1527 1.427 . S
N1535 C1533 1.384 . S
H1536 C1542 0.930 . S
H1537 C1546 0.930 . S
H1538 C1551 0.929 . S
H1539 C1549 0.929 . S
H1540 C1544 0.929 . S
H1541 C1550 0.929 . S
C1542 H1536 0.930 . S
C1542 C1543 1.367 . S
C1542 C1550 1.378 . S
C1543 C1542 1.367 . S
C1543 C1551 1.433 . S
C1544 H1540 0.929 . S
C1544 C1546 1.378 . S
C1544 C1548 1.350 . S
C1545 C1548 1.463 1_655 S
C1545 C1550 1.350 . S
C1545 N1553 1.427 . S
C1546 H1537 0.930 . S
C1546 C1544 1.378 . S
C1546 C1547 1.367 . S
C1547 C1546 1.367 . S
C1547 C1549 1.433 . S
C1548 C1544 1.350 . S
C1548 C1545 1.463 1_455 S
C1548 N1552 1.427 . S
C1549 H1539 0.929 . S
C1549 C1547 1.433 . S
C1549 N1552 1.384 . S
C1550 H1541 0.929 . S
C1550 C1542 1.378 . S
C1550 C1545 1.350 . S
C1551 H1538 0.929 . S
C1551 C1543 1.433 . S
C1551 N1553 1.384 . S
N1552 C1548 1.427 . S
N1552 C1549 1.384 . S
N1553 C1545 1.427 . S
N1553 C1551 1.384 . S
H1554 C1560 0.930 . S
H1555 C1564 0.930 . S
H1556 C1569 0.929 . S
H1557 C1567 0.929 . S
H1558 C1562 0.929 . S
H1559 C1568 0.929 . S
C1560 H1554 0.930 . S
C1560 C1561 1.367 . S
C1560 C1568 1.378 . S
C1561 C1560 1.367 . S
C1561 C1569 1.433 . S
C1562 H1558 0.929 . S
C1562 C1564 1.378 . S
C1562 C1566 1.350 . S
C1563 C1566 1.463 . S
C1563 C1568 1.350 . S
C1563 N1571 1.427 . S
C1564 H1555 0.930 . S
C1564 C1562 1.378 . S
C1564 C1565 1.367 . S
C1565 C1564 1.367 . S
C1565 C1567 1.433 . S
C1566 C1562 1.350 . S
C1566 C1563 1.463 . S
C1566 N1570 1.427 . S
C1567 H1557 0.929 . S
C1567 C1565 1.433 . S
C1567 N1570 1.384 . S
C1568 H1559 0.929 . S
C1568 C1560 1.378 . S
C1568 C1563 1.350 . S
C1569 H1556 0.929 . S
C1569 C1561 1.433 . S
C1569 N1571 1.384 . S
N1570 C1566 1.427 . S
N1570 C1567 1.384 . S
N1571 C1563 1.427 . S
N1571 C1569 1.384 . S
H1572 C1578 0.930 . S
H1573 C1582 0.930 . S
H1574 C1587 0.929 . S
H1575 C1585 0.929 . S
H1576 C1580 0.929 . S
H1577 C1586 0.929 . S
C1578 H1572 0.930 . S
C1578 C1579 1.367 . S
C1578 C1586 1.378 . S
C1579 C1578 1.367 . S
C1579 C1587 1.433 . S
C1580 H1576 0.929 . S
C1580 C1582 1.378 . S
C1580 C1584 1.350 . S
C1581 C1584 1.463 1_455 S
C1581 C1586 1.350 . S
C1581 N1589 1.427 . S
C1582 H1573 0.930 . S
C1582 C1580 1.378 . S
C1582 C1583 1.367 . S
C1583 C1582 1.367 . S
C1583 C1585 1.433 . S
C1584 C1580 1.350 . S
C1584 C1581 1.463 1_655 S
C1584 N1588 1.427 . S
C1585 H1575 0.929 . S
C1585 C1583 1.433 . S
C1585 N1588 1.384 . S
C1586 H1577 0.929 . S
C1586 C1578 1.378 . S
C1586 C1581 1.350 . S
C1587 H1574 0.929 . S
C1587 C1579 1.433 . S
C1587 N1589 1.384 . S
N1588 C1584 1.427 . S
N1588 C1585 1.384 . S
N1589 C1581 1.427 . S
N1589 C1587 1.384 . S
H1590 C1596 0.930 . S
H1591 C1600 0.930 . S
H1592 C1605 0.929 . S
H1593 C1603 0.929 . S
H1594 C1598 0.929 . S
H1595 C1604 0.929 . S
C1596 H1590 0.930 . S
C1596 C1597 1.367 . S
C1596 C1604 1.378 . S
C1597 C1596 1.367 . S
C1597 C1605 1.433 . S
C1598 H1594 0.929 . S
C1598 C1600 1.378 . S
C1598 C1602 1.350 . S
C1599 C1602 1.463 . S
C1599 C1604 1.350 . S
C1599 N1607 1.427 . S
C1600 H1591 0.930 . S
C1600 C1598 1.378 . S
C1600 C1601 1.367 . S
C1601 C1600 1.367 . S
C1601 C1603 1.433 . S
C1602 C1598 1.350 . S
C1602 C1599 1.463 . S
C1602 N1606 1.427 . S
C1603 H1593 0.929 . S
C1603 C1601 1.433 . S
C1603 N1606 1.384 . S
C1604 H1595 0.929 . S
C1604 C1596 1.378 . S
C1604 C1599 1.350 . S
C1605 H1592 0.929 . S
C1605 C1597 1.433 . S
C1605 N1607 1.384 . S
N1606 C1602 1.427 . S
N1606 C1603 1.384 . S
N1607 C1599 1.427 . S
N1607 C1605 1.384 . S
H1608 C1614 0.930 . S
H1609 C1618 0.930 . S
H1610 C1623 0.929 . S
H1611 C1621 0.929 . S
H1612 C1616 0.929 . S
H1613 C1622 0.929 . S
C1614 H1608 0.930 . S
C1614 C1615 1.367 . S
C1614 C1622 1.378 . S
C1615 C1614 1.367 . S
C1615 C1623 1.433 . S
C1616 H1612 0.929 . S
C1616 C1618 1.378 . S
C1616 C1620 1.350 . S
C1617 C1620 1.463 1_655 S
C1617 C1622 1.350 . S
C1617 N1625 1.427 . S
C1618 H1609 0.930 . S
C1618 C1616 1.378 . S
C1618 C1619 1.367 . S
C1619 C1618 1.367 . S
C1619 C1621 1.433 . S
C1620 C1616 1.350 . S
C1620 C1617 1.463 1_455 S
C1620 N1624 1.427 . S
C1621 H1611 0.929 . S
C1621 C1619 1.433 . S
C1621 N1624 1.384 . S
C1622 H1613 0.929 . S
C1622 C1614 1.378 . S
C1622 C1617 1.350 . S
C1623 H1610 0.929 . S
C1623 C1615 1.433 . S
C1623 N1625 1.384 . S
N1624 C1620 1.427 . S
N1624 C1621 1.384 . S
N1625 C1617 1.427 . S
N1625 C1623 1.384 . S
H1626 C1632 0.930 . S
H1627 C1636 0.930 . S
H1628 C1641 0.929 . S
H1629 C1639 0.929 . S
H1630 C1634 0.929 . S
H1631 C1640 0.929 . S
C1632 H1626 0.930 . S
C1632 C1633 1.367 . S
C1632 C1640 1.378 . S
C1633 C1632 1.367 . S
C1633 C1641 1.433 . S
C1634 H1630 0.929 . S
C1634 C1636 1.378 . S
C1634 C1638 1.350 . S
C1635 C1638 1.463 . S
C1635 C1640 1.350 . S
C1635 N1643 1.427 . S
C1636 H1627 0.930 . S
C1636 C1634 1.378 . S
C1636 C1637 1.367 . S
C1637 C1636 1.367 . S
C1637 C1639 1.433 . S
C1638 C1634 1.350 . S
C1638 C1635 1.463 . S
C1638 N1642 1.427 . S
C1639 H1629 0.929 . S
C1639 C1637 1.433 . S
C1639 N1642 1.384 . S
C1640 H1631 0.929 . S
C1640 C1632 1.378 . S
C1640 C1635 1.350 . S
C1641 H1628 0.929 . S
C1641 C1633 1.433 . S
C1641 N1643 1.384 . S
N1642 C1638 1.427 . S
N1642 C1639 1.384 . S
N1643 C1635 1.427 . S
N1643 C1641 1.384 . S
H1644 C1650 0.930 . S
H1645 C1654 0.930 . S
H1646 C1659 0.929 . S
H1647 C1657 0.929 . S
H1648 C1652 0.929 . S
H1649 C1658 0.929 . S
C1650 H1644 0.930 . S
C1650 C1651 1.367 . S
C1650 C1658 1.378 . S
C1651 C1650 1.367 . S
C1651 C1659 1.433 . S
C1652 H1648 0.929 . S
C1652 C1654 1.378 . S
C1652 C1656 1.350 . S
C1653 C1656 1.463 1_655 S
C1653 C1658 1.350 . S
C1653 N1661 1.427 . S
C1654 H1645 0.930 . S
C1654 C1652 1.378 . S
C1654 C1655 1.367 . S
C1655 C1654 1.367 . S
C1655 C1657 1.433 . S
C1656 C1652 1.350 . S
C1656 C1653 1.463 1_455 S
C1656 N1660 1.427 . S
C1657 H1647 0.929 . S
C1657 C1655 1.433 . S
C1657 N1660 1.384 . S
C1658 H1649 0.929 . S
C1658 C1650 1.378 . S
C1658 C1653 1.350 . S
C1659 H1646 0.929 . S
C1659 C1651 1.433 . S
C1659 N1661 1.384 . S
N1660 C1656 1.427 . S
N1660 C1657 1.384 . S
N1661 C1653 1.427 . S
N1661 C1659 1.384 . S
H1662 C1668 0.930 . S
H1663 C1672 0.930 . S
H1664 C1677 0.929 . S
H1665 C1675 0.929 . S
H1666 C1670 0.929 . S
H1667 C1676 0.929 . S
C1668 H1662 0.930 . S
C1668 C1669 1.367 . S
C1668 C1676 1.378 . S
C1669 C1668 1.367 . S
C1669 C1677 1.433 . S
C1670 H1666 0.929 . S
C1670 C1672 1.378 . S
C1670 C1674 1.350 . S
C1671 C1674 1.463 . S
C1671 C1676 1.350 . S
C1671 N1679 1.427 . S
C1672 H1663 0.930 . S
C1672 C1670 1.378 . S
C1672 C1673 1.367 . S
C1673 C1672 1.367 . S
C1673 C1675 1.433 . S
C1674 C1670 1.350 . S
C1674 C1671 1.463 . S
C1674 N1678 1.427 . S
C1675 H1665 0.929 . S
C1675 C1673 1.433 . S
C1675 N1678 1.384 . S
C1676 H1667 0.929 . S
C1676 C1668 1.378 . S
C1676 C1671 1.350 . S
C1677 H1664 0.929 . S
C1677 C1669 1.433 . S
C1677 N1679 1.384 . S
N1678 C1674 1.427 . S
N1678 C1675 1.384 . S
N1679 C1671 1.427 . S
N1679 C1677 1.384 . S
H1680 C1686 0.930 . S
H1681 C1690 0.930 . S
H1682 C1695 0.929 . S
H1683 C1693 0.929 . S
H1684 C1688 0.929 . S
H1685 C1694 0.929 . S
C1686 H1680 0.930 . S
C1686 C1687 1.367 . S
C1686 C1694 1.378 . S
C1687 C1686 1.367 . S
C1687 C1695 1.433 . S
C1688 H1684 0.929 . S
C1688 C1690 1.378 . S
C1688 C1692 1.350 . S
C1689 C1692 1.475 . S
C1689 C1694 1.343 1_565 S
C1689 N1697 1.422 1_565 S
C1690 H1681 0.930 . S
C1690 C1688 1.378 . S
C1690 C1691 1.367 . S
C1691 C1690 1.367 . S
C1691 C1693 1.433 . S
C1692 C1688 1.350 . S
C1692 C1689 1.475 . S
C1692 N1696 1.427 . S
C1693 H1683 0.929 . S
C1693 C1691 1.433 . S
C1693 N1696 1.384 . S
C1694 H1685 0.929 . S
C1694 C1686 1.378 . S
C1694 C1689 1.343 1_545 S
C1695 H1682 0.929 . S
C1695 C1687 1.433 . S
C1695 N1697 1.384 . S
N1696 C1692 1.427 . S
N1696 C1693 1.384 . S
N1697 C1689 1.422 1_545 S
N1697 C1695 1.384 . S
H1698 C1704 0.930 . S
H1699 C1708 0.930 . S
H1700 C1713 0.929 . S
H1701 C1711 0.929 . S
H1702 C1706 0.929 . S
H1703 C1712 0.929 . S
C1704 H1698 0.930 . S
C1704 C1705 1.367 . S
C1704 C1712 1.378 . S
C1705 C1704 1.367 . S
C1705 C1713 1.433 . S
C1706 H1702 0.929 . S
C1706 C1708 1.378 . S
C1706 C1710 1.350 . S
C1707 C1710 1.463 . S
C1707 C1712 1.350 . S
C1707 N1715 1.427 . S
C1708 H1699 0.930 . S
C1708 C1706 1.378 . S
C1708 C1709 1.367 . S
C1709 C1708 1.367 . S
C1709 C1711 1.433 . S
C1710 C1706 1.350 . S
C1710 C1707 1.463 . S
C1710 N1714 1.427 . S
C1711 H1701 0.929 . S
C1711 C1709 1.433 . S
C1711 N1714 1.384 . S
C1712 H1703 0.929 . S
C1712 C1704 1.378 . S
C1712 C1707 1.350 . S
C1713 H1700 0.929 . S
C1713 C1705 1.433 . S
C1713 N1715 1.384 . S
N1714 C1710 1.427 . S
N1714 C1711 1.384 . S
N1715 C1707 1.427 . S
N1715 C1713 1.384 . S
H1716 C1722 0.930 . S
H1717 C1726 0.930 . S
H1718 C1731 0.929 . S
H1719 C1729 0.929 . S
H1720 C1724 0.929 . S
H1721 C1730 0.929 . S
C1722 H1716 0.930 . S
C1722 C1723 1.367 . S
C1722 C1730 1.378 . S
C1723 C1722 1.367 . S
C1723 C1731 1.433 . S
C1724 H1720 0.929 . S
C1724 C1726 1.378 . S
C1724 C1728 1.343 1_565 S
C1725 C1728 1.476 . S
C1725 C1730 1.350 . S
C1725 N1733 1.427 . S
C1726 H1717 0.930 . S
C1726 C1724 1.378 . S
C1726 C1727 1.367 . S
C1727 C1726 1.367 . S
C1727 C1729 1.433 . S
C1728 C1724 1.343 1_545 S
C1728 C1725 1.476 . S
C1728 N1732 1.422 1_545 S
C1729 H1719 0.929 . S
C1729 C1727 1.433 . S
C1729 N1732 1.384 . S
C1730 H1721 0.929 . S
C1730 C1722 1.378 . S
C1730 C1725 1.350 . S
C1731 H1718 0.929 . S
C1731 C1723 1.433 . S
C1731 N1733 1.384 . S
N1732 C1728 1.422 1_565 S
N1732 C1729 1.384 . S
N1733 C1725 1.427 . S
N1733 C1731 1.384 . S
H1734 C1740 0.930 . S
H1735 C1744 0.930 . S
H1736 C1749 0.929 . S
H1737 C1747 0.929 . S
H1738 C1742 0.929 . S
H1739 C1748 0.929 . S
C1740 H1734 0.930 . S
C1740 C1741 1.367 . S
C1740 C1748 1.378 . S
C1741 C1740 1.367 . S
C1741 C1749 1.433 . S
C1742 H1738 0.929 . S
C1742 C1744 1.378 . S
C1742 C1746 1.350 . S
C1743 C1746 1.463 . S
C1743 C1748 1.350 . S
C1743 N1751 1.427 . S
C1744 H1735 0.930 . S
C1744 C1742 1.378 . S
C1744 C1745 1.367 . S
C1745 C1744 1.367 . S
C1745 C1747 1.433 . S
C1746 C1742 1.350 . S
C1746 C1743 1.463 . S
C1746 N1750 1.427 . S
C1747 H1737 0.929 . S
C1747 C1745 1.433 . S
C1747 N1750 1.384 . S
C1748 H1739 0.929 . S
C1748 C1740 1.378 . S
C1748 C1743 1.350 . S
C1749 H1736 0.929 . S
C1749 C1741 1.433 . S
C1749 N1751 1.384 . S
N1750 C1746 1.427 . S
N1750 C1747 1.384 . S
N1751 C1743 1.427 . S
N1751 C1749 1.384 . S
H1752 C1758 0.930 . S
H1753 C1762 0.930 . S
H1754 C1767 0.929 . S
H1755 C1765 0.929 . S
H1756 C1760 0.929 . S
H1757 C1766 0.929 . S
C1758 H1752 0.930 . S
C1758 C1759 1.367 . S
C1758 C1766 1.378 . S
C1759 C1758 1.367 . S
C1759 C1767 1.433 . S
C1760 H1756 0.929 . S
C1760 C1762 1.378 . S
C1760 C1764 1.350 . S
C1761 C1764 1.463 1_545 S
C1761 C1766 1.350 . S
C1761 N1769 1.427 . S
C1762 H1753 0.930 . S
C1762 C1760 1.378 . S
C1762 C1763 1.367 . S
C1763 C1762 1.367 . S
C1763 C1765 1.433 . S
C1764 C1760 1.350 . S
C1764 C1761 1.463 1_565 S
C1764 N1768 1.427 . S
C1765 H1755 0.929 . S
C1765 C1763 1.433 . S
C1765 N1768 1.384 . S
C1766 H1757 0.929 . S
C1766 C1758 1.378 . S
C1766 C1761 1.350 . S
C1767 H1754 0.929 . S
C1767 C1759 1.433 . S
C1767 N1769 1.384 . S
N1768 C1764 1.427 . S
N1768 C1765 1.384 . S
N1769 C1761 1.427 . S
N1769 C1767 1.384 . S
H1770 C1776 0.930 . S
H1771 C1780 0.930 . S
H1772 C1785 0.929 . S
H1773 C1783 0.929 . S
H1774 C1778 0.929 . S
H1775 C1784 0.929 . S
C1776 H1770 0.930 . S
C1776 C1777 1.367 . S
C1776 C1784 1.378 . S
C1777 C1776 1.367 . S
C1777 C1785 1.433 . S
C1778 H1774 0.929 . S
C1778 C1780 1.378 . S
C1778 C1782 1.350 . S
C1779 C1782 1.463 . S
C1779 C1784 1.350 . S
C1779 N1787 1.427 . S
C1780 H1771 0.930 . S
C1780 C1778 1.378 . S
C1780 C1781 1.367 . S
C1781 C1780 1.367 . S
C1781 C1783 1.433 . S
C1782 C1778 1.350 . S
C1782 C1779 1.463 . S
C1782 N1786 1.427 . S
C1783 H1773 0.929 . S
C1783 C1781 1.433 . S
C1783 N1786 1.384 . S
C1784 H1775 0.929 . S
C1784 C1776 1.378 . S
C1784 C1779 1.350 . S
C1785 H1772 0.929 . S
C1785 C1777 1.433 . S
C1785 N1787 1.384 . S
N1786 C1782 1.427 . S
N1786 C1783 1.384 . S
N1787 C1779 1.427 . S
N1787 C1785 1.384 . S
H1788 C1794 0.930 . S
H1789 C1798 0.930 . S
H1790 C1803 0.929 . S
H1791 C1801 0.929 . S
H1792 C1796 0.929 . S
H1793 C1802 0.929 . S
C1794 H1788 0.930 . S
C1794 C1795 1.367 . S
C1794 C1802 1.378 . S
C1795 C1794 1.367 . S
C1795 C1803 1.433 . S
C1796 H1792 0.929 . S
C1796 C1798 1.378 . S
C1796 C1800 1.350 . S
C1797 C1800 1.463 1_545 S
C1797 C1802 1.350 . S
C1797 N1805 1.427 . S
C1798 H1789 0.930 . S
C1798 C1796 1.378 . S
C1798 C1799 1.367 . S
C1799 C1798 1.367 . S
C1799 C1801 1.433 . S
C1800 C1796 1.350 . S
C1800 C1797 1.463 1_565 S
C1800 N1804 1.427 . S
C1801 H1791 0.929 . S
C1801 C1799 1.433 . S
C1801 N1804 1.384 . S
C1802 H1793 0.929 . S
C1802 C1794 1.378 . S
C1802 C1797 1.350 . S
C1803 H1790 0.929 . S
C1803 C1795 1.433 . S
C1803 N1805 1.384 . S
N1804 C1800 1.427 . S
N1804 C1801 1.384 . S
N1805 C1797 1.427 . S
N1805 C1803 1.384 . S
H1806 C1812 0.930 . S
H1807 C1816 0.930 . S
H1808 C1821 0.929 . S
H1809 C1819 0.929 . S
H1810 C1814 0.929 . S
H1811 C1820 0.929 . S
C1812 H1806 0.930 . S
C1812 C1813 1.367 . S
C1812 C1820 1.378 . S
C1813 C1812 1.367 . S
C1813 C1821 1.433 . S
C1814 H1810 0.929 . S
C1814 C1816 1.378 . S
C1814 C1818 1.350 . S
C1815 C1818 1.463 . S
C1815 C1820 1.350 . S
C1815 N1823 1.427 . S
C1816 H1807 0.930 . S
C1816 C1814 1.378 . S
C1816 C1817 1.367 . S
C1817 C1816 1.367 . S
C1817 C1819 1.433 . S
C1818 C1814 1.350 . S
C1818 C1815 1.463 . S
C1818 N1822 1.427 . S
C1819 H1809 0.929 . S
C1819 C1817 1.433 . S
C1819 N1822 1.384 . S
C1820 H1811 0.929 . S
C1820 C1812 1.378 . S
C1820 C1815 1.350 . S
C1821 H1808 0.929 . S
C1821 C1813 1.433 . S
C1821 N1823 1.384 . S
N1822 C1818 1.427 . S
N1822 C1819 1.384 . S
N1823 C1815 1.427 . S
N1823 C1821 1.384 . S
H1824 C1830 0.930 . S
H1825 C1834 0.930 . S
H1826 C1839 0.929 . S
H1827 C1837 0.929 . S
H1828 C1832 0.929 . S
H1829 C1838 0.929 . S
C1830 H1824 0.930 . S
C1830 C1831 1.367 . S
C1830 C1838 1.378 . S
C1831 C1830 1.367 . S
C1831 C1839 1.433 . S
C1832 H1828 0.929 . S
C1832 C1834 1.378 . S
C1832 C1836 1.350 . S
C1833 C1836 1.463 1_556 S
C1833 C1838 1.350 . S
C1833 N1841 1.427 . S
C1834 H1825 0.930 . S
C1834 C1832 1.378 . S
C1834 C1835 1.367 . S
C1835 C1834 1.367 . S
C1835 C1837 1.433 . S
C1836 C1832 1.350 . S
C1836 C1833 1.463 1_554 S
C1836 N1840 1.427 . S
C1837 H1827 0.929 . S
C1837 C1835 1.433 . S
C1837 N1840 1.384 . S
C1838 H1829 0.929 . S
C1838 C1830 1.378 . S
C1838 C1833 1.350 . S
C1839 H1826 0.929 . S
C1839 C1831 1.433 . S
C1839 N1841 1.384 . S
N1840 C1836 1.427 . S
N1840 C1837 1.384 . S
N1841 C1833 1.427 . S
N1841 C1839 1.384 . S
H1842 C1848 0.930 . S
H1843 C1852 0.930 . S
H1844 C1857 0.929 . S
H1845 C1855 0.929 . S
H1846 C1850 0.929 . S
H1847 C1856 0.929 . S
C1848 H1842 0.930 . S
C1848 C1849 1.367 . S
C1848 C1856 1.378 . S
C1849 C1848 1.367 . S
C1849 C1857 1.433 . S
C1850 H1846 0.929 . S
C1850 C1852 1.378 . S
C1850 C1854 1.350 . S
C1851 C1854 1.463 1_556 S
C1851 C1856 1.350 . S
C1851 N1859 1.427 . S
C1852 H1843 0.930 . S
C1852 C1850 1.378 . S
C1852 C1853 1.367 . S
C1853 C1852 1.367 . S
C1853 C1855 1.433 . S
C1854 C1850 1.350 . S
C1854 C1851 1.463 1_554 S
C1854 N1858 1.427 . S
C1855 H1845 0.929 . S
C1855 C1853 1.433 . S
C1855 N1858 1.384 . S
C1856 H1847 0.929 . S
C1856 C1848 1.378 . S
C1856 C1851 1.350 . S
C1857 H1844 0.929 . S
C1857 C1849 1.433 . S
C1857 N1859 1.384 . S
N1858 C1854 1.427 . S
N1858 C1855 1.384 . S
N1859 C1851 1.427 . S
N1859 C1857 1.384 . S
H1860 C1866 0.930 . S
H1861 C1870 0.930 . S
H1862 C1875 0.929 . S
H1863 C1873 0.929 . S
H1864 C1868 0.929 . S
H1865 C1874 0.929 . S
C1866 H1860 0.930 . S
C1866 C1867 1.367 . S
C1866 C1874 1.378 . S
C1867 C1866 1.367 . S
C1867 C1875 1.433 . S
C1868 H1864 0.929 . S
C1868 C1870 1.378 . S
C1868 C1872 1.350 . S
C1869 C1872 1.463 . S
C1869 C1874 1.350 . S
C1869 N1877 1.427 . S
C1870 H1861 0.930 . S
C1870 C1868 1.378 . S
C1870 C1871 1.367 . S
C1871 C1870 1.367 . S
C1871 C1873 1.433 . S
C1872 C1868 1.350 . S
C1872 C1869 1.463 . S
C1872 N1876 1.427 . S
C1873 H1863 0.929 . S
C1873 C1871 1.433 . S
C1873 N1876 1.384 . S
C1874 H1865 0.929 . S
C1874 C1866 1.378 . S
C1874 C1869 1.350 . S
C1875 H1862 0.929 . S
C1875 C1867 1.433 . S
C1875 N1877 1.384 . S
N1876 C1872 1.427 . S
N1876 C1873 1.384 . S
N1877 C1869 1.427 . S
N1877 C1875 1.384 . S
H1878 C1884 0.930 . S
H1879 C1888 0.930 . S
H1880 C1893 0.929 . S
H1881 C1891 0.929 . S
H1882 C1886 0.929 . S
H1883 C1892 0.929 . S
C1884 H1878 0.930 . S
C1884 C1885 1.367 . S
C1884 C1892 1.378 . S
C1885 C1884 1.367 . S
C1885 C1893 1.433 . S
C1886 H1882 0.929 . S
C1886 C1888 1.378 . S
C1886 C1890 1.350 . S
C1887 C1890 1.463 1_556 S
C1887 C1892 1.350 . S
C1887 N1895 1.427 . S
C1888 H1879 0.930 . S
C1888 C1886 1.378 . S
C1888 C1889 1.367 . S
C1889 C1888 1.367 . S
C1889 C1891 1.433 . S
C1890 C1886 1.350 . S
C1890 C1887 1.463 1_554 S
C1890 N1894 1.427 . S
C1891 H1881 0.929 . S
C1891 C1889 1.433 . S
C1891 N1894 1.384 . S
C1892 H1883 0.929 . S
C1892 C1884 1.378 . S
C1892 C1887 1.350 . S
C1893 H1880 0.929 . S
C1893 C1885 1.433 . S
C1893 N1895 1.384 . S
N1894 C1890 1.427 . S
N1894 C1891 1.384 . S
N1895 C1887 1.427 . S
N1895 C1893 1.384 . S
H1896 C1902 0.930 . S
H1897 C1906 0.930 . S
H1898 C1911 0.929 . S
H1899 C1909 0.929 . S
H1900 C1904 0.929 . S
H1901 C1910 0.929 . S
C1902 H1896 0.930 . S
C1902 C1903 1.367 . S
C1902 C1910 1.378 . S
C1903 C1902 1.367 . S
C1903 C1911 1.433 . S
C1904 H1900 0.929 . S
C1904 C1906 1.378 . S
C1904 C1908 1.350 . S
C1905 C1908 1.463 . S
C1905 C1910 1.350 . S
C1905 N1913 1.427 . S
C1906 H1897 0.930 . S
C1906 C1904 1.378 . S
C1906 C1907 1.367 . S
C1907 C1906 1.367 . S
C1907 C1909 1.433 . S
C1908 C1904 1.350 . S
C1908 C1905 1.463 . S
C1908 N1912 1.427 . S
C1909 H1899 0.929 . S
C1909 C1907 1.433 . S
C1909 N1912 1.384 . S
C1910 H1901 0.929 . S
C1910 C1902 1.378 . S
C1910 C1905 1.350 . S
C1911 H1898 0.929 . S
C1911 C1903 1.433 . S
C1911 N1913 1.384 . S
N1912 C1908 1.427 . S
N1912 C1909 1.384 . S
N1913 C1905 1.427 . S
N1913 C1911 1.384 . S
H1914 C1920 0.930 . S
H1915 C1924 0.930 . S
H1916 C1929 0.929 . S
H1917 C1927 0.929 . S
H1918 C1922 0.929 . S
H1919 C1928 0.929 . S
C1920 H1914 0.930 . S
C1920 C1921 1.367 . S
C1920 C1928 1.378 . S
C1921 C1920 1.367 . S
C1921 C1929 1.433 . S
C1922 H1918 0.929 . S
C1922 C1924 1.378 . S
C1922 C1926 1.350 . S
C1923 C1926 1.463 1_556 S
C1923 C1928 1.350 . S
C1923 N1931 1.427 . S
C1924 H1915 0.930 . S
C1924 C1922 1.378 . S
C1924 C1925 1.367 . S
C1925 C1924 1.367 . S
C1925 C1927 1.433 . S
C1926 C1922 1.350 . S
C1926 C1923 1.463 1_554 S
C1926 N1930 1.427 . S
C1927 H1917 0.929 . S
C1927 C1925 1.433 . S
C1927 N1930 1.384 . S
C1928 H1919 0.929 . S
C1928 C1920 1.378 . S
C1928 C1923 1.350 . S
C1929 H1916 0.929 . S
C1929 C1921 1.433 . S
C1929 N1931 1.384 . S
N1930 C1926 1.427 . S
N1930 C1927 1.384 . S
N1931 C1923 1.427 . S
N1931 C1929 1.384 . S
H1932 C1938 0.930 . S
H1933 C1942 0.930 . S
H1934 C1947 0.929 . S
H1935 C1945 0.929 . S
H1936 C1940 0.929 . S
H1937 C1946 0.929 . S
C1938 H1932 0.930 . S
C1938 C1939 1.367 . S
C1938 C1946 1.378 . S
C1939 C1938 1.367 . S
C1939 C1947 1.433 . S
C1940 H1936 0.929 . S
C1940 C1942 1.378 . S
C1940 C1944 1.350 . S
C1941 C1944 1.463 . S
C1941 C1946 1.350 . S
C1941 N1949 1.427 . S
C1942 H1933 0.930 . S
C1942 C1940 1.378 . S
C1942 C1943 1.367 . S
C1943 C1942 1.367 . S
C1943 C1945 1.433 . S
C1944 C1940 1.350 . S
C1944 C1941 1.463 . S
C1944 N1948 1.427 . S
C1945 H1935 0.929 . S
C1945 C1943 1.433 . S
C1945 N1948 1.384 . S
C1946 H1937 0.929 . S
C1946 C1938 1.378 . S
C1946 C1941 1.350 . S
C1947 H1934 0.929 . S
C1947 C1939 1.433 . S
C1947 N1949 1.384 . S
N1948 C1944 1.427 . S
N1948 C1945 1.384 . S
N1949 C1941 1.427 . S
N1949 C1947 1.384 . S
H1950 C1956 0.930 . S
H1951 C1960 0.930 . S
H1952 C1965 0.929 . S
H1953 C1963 0.929 . S
H1954 C1958 0.929 . S
H1955 C1964 0.929 . S
C1956 H1950 0.930 . S
C1956 C1957 1.367 . S
C1956 C1964 1.378 . S
C1957 C1956 1.367 . S
C1957 C1965 1.433 . S
C1958 H1954 0.929 . S
C1958 C1960 1.378 . S
C1958 C1962 1.350 . S
C1959 C1962 1.463 . S
C1959 C1964 1.350 . S
C1959 N1967 1.427 . S
C1960 H1951 0.930 . S
C1960 C1958 1.378 . S
C1960 C1961 1.367 . S
C1961 C1960 1.367 . S
C1961 C1963 1.433 . S
C1962 C1958 1.350 . S
C1962 C1959 1.463 . S
C1962 N1966 1.427 . S
C1963 H1953 0.929 . S
C1963 C1961 1.433 . S
C1963 N1966 1.384 . S
C1964 H1955 0.929 . S
C1964 C1956 1.378 . S
C1964 C1959 1.350 . S
C1965 H1952 0.929 . S
C1965 C1957 1.433 . S
C1965 N1967 1.384 . S
N1966 C1962 1.427 . S
N1966 C1963 1.384 . S
N1967 C1959 1.427 . S
N1967 C1965 1.384 . S
H1968 C1974 0.930 . S
H1969 C1978 0.930 . S
H1970 C1983 0.929 . S
H1971 C1981 0.929 . S
H1972 C1976 0.929 . S
H1973 C1982 0.929 . S
C1974 H1968 0.930 . S
C1974 C1975 1.367 . S
C1974 C1982 1.378 . S
C1975 C1974 1.367 . S
C1975 C1983 1.433 . S
C1976 H1972 0.929 . S
C1976 C1978 1.378 . S
C1976 C1980 1.350 . S
C1977 C1980 1.463 . S
C1977 C1982 1.350 . S
C1977 N1985 1.427 . S
C1978 H1969 0.930 . S
C1978 C1976 1.378 . S
C1978 C1979 1.367 . S
C1979 C1978 1.367 . S
C1979 C1981 1.433 . S
C1980 C1976 1.350 . S
C1980 C1977 1.463 . S
C1980 N1984 1.427 . S
C1981 H1971 0.929 . S
C1981 C1979 1.433 . S
C1981 N1984 1.384 . S
C1982 H1973 0.929 . S
C1982 C1974 1.378 . S
C1982 C1977 1.350 . S
C1983 H1970 0.929 . S
C1983 C1975 1.433 . S
C1983 N1985 1.384 . S
N1984 C1980 1.427 . S
N1984 C1981 1.384 . S
N1985 C1977 1.427 . S
N1985 C1983 1.384 . S
H1986 C1992 0.930 . S
H1987 C1996 0.930 . S
H1988 C2001 0.929 . S
H1989 C1999 0.929 . S
H1990 C1994 0.929 . S
H1991 C2000 0.929 . S
C1992 H1986 0.930 . S
C1992 C1993 1.367 . S
C1992 C2000 1.378 . S
C1993 C1992 1.367 . S
C1993 C2001 1.433 . S
C1994 H1990 0.929 . S
C1994 C1996 1.378 . S
C1994 C1998 1.350 . S
C1995 C1998 1.463 . S
C1995 C2000 1.350 . S
C1995 N2003 1.427 . S
C1996 H1987 0.930 . S
C1996 C1994 1.378 . S
C1996 C1997 1.367 . S
C1997 C1996 1.367 . S
C1997 C1999 1.433 . S
C1998 C1994 1.350 . S
C1998 C1995 1.463 . S
C1998 N2002 1.427 . S
C1999 H1989 0.929 . S
C1999 C1997 1.433 . S
C1999 N2002 1.384 . S
C2000 H1991 0.929 . S
C2000 C1992 1.378 . S
C2000 C1995 1.350 . S
C2001 H1988 0.929 . S
C2001 C1993 1.433 . S
C2001 N2003 1.384 . S
N2002 C1998 1.427 . S
N2002 C1999 1.384 . S
N2003 C1995 1.427 . S
N2003 C2001 1.384 . S
H2004 C2010 0.930 . S
H2005 C2014 0.930 . S
H2006 C2019 0.929 . S
H2007 C2017 0.929 . S
H2008 C2012 0.929 . S
H2009 C2018 0.929 . S
C2010 H2004 0.930 . S
C2010 C2011 1.367 . S
C2010 C2018 1.378 . S
C2011 C2010 1.367 . S
C2011 C2019 1.433 . S
C2012 H2008 0.929 . S
C2012 C2014 1.378 . S
C2012 C2016 1.350 . S
C2013 C2016 1.463 . S
C2013 C2018 1.350 . S
C2013 N2021 1.427 . S
C2014 H2005 0.930 . S
C2014 C2012 1.378 . S
C2014 C2015 1.367 . S
C2015 C2014 1.367 . S
C2015 C2017 1.433 . S
C2016 C2012 1.350 . S
C2016 C2013 1.463 . S
C2016 N2020 1.427 . S
C2017 H2007 0.929 . S
C2017 C2015 1.433 . S
C2017 N2020 1.384 . S
C2018 H2009 0.929 . S
C2018 C2010 1.378 . S
C2018 C2013 1.350 . S
C2019 H2006 0.929 . S
C2019 C2011 1.433 . S
C2019 N2021 1.384 . S
N2020 C2016 1.427 . S
N2020 C2017 1.384 . S
N2021 C2013 1.427 . S
N2021 C2019 1.384 . S
H2022 C2028 0.930 . S
H2023 C2032 0.930 . S
H2024 C2037 0.929 . S
H2025 C2035 0.929 . S
H2026 C2030 0.929 . S
H2027 C2036 0.929 . S
C2028 H2022 0.930 . S
C2028 C2029 1.367 . S
C2028 C2036 1.378 . S
C2029 C2028 1.367 . S
C2029 C2037 1.433 . S
C2030 H2026 0.929 . S
C2030 C2032 1.378 . S
C2030 C2034 1.350 . S
C2031 C2034 1.463 . S
C2031 C2036 1.350 . S
C2031 N2039 1.427 . S
C2032 H2023 0.930 . S
C2032 C2030 1.378 . S
C2032 C2033 1.367 . S
C2033 C2032 1.367 . S
C2033 C2035 1.433 . S
C2034 C2030 1.350 . S
C2034 C2031 1.463 . S
C2034 N2038 1.427 . S
C2035 H2025 0.929 . S
C2035 C2033 1.433 . S
C2035 N2038 1.384 . S
C2036 H2027 0.929 . S
C2036 C2028 1.378 . S
C2036 C2031 1.350 . S
C2037 H2024 0.929 . S
C2037 C2029 1.433 . S
C2037 N2039 1.384 . S
N2038 C2034 1.427 . S
N2038 C2035 1.384 . S
N2039 C2031 1.427 . S
N2039 C2037 1.384 . S
H2040 C2046 0.930 . S
H2041 C2050 0.930 . S
H2042 C2055 0.929 . S
H2043 C2053 0.929 . S
H2044 C2048 0.929 . S
H2045 C2054 0.929 . S
C2046 H2040 0.930 . S
C2046 C2047 1.367 . S
C2046 C2054 1.378 . S
C2047 C2046 1.367 . S
C2047 C2055 1.433 . S
C2048 H2044 0.929 . S
C2048 C2050 1.378 . S
C2048 C2052 1.350 . S
C2049 C2052 1.463 . S
C2049 C2054 1.350 . S
C2049 N2057 1.427 . S
C2050 H2041 0.930 . S
C2050 C2048 1.378 . S
C2050 C2051 1.367 . S
C2051 C2050 1.367 . S
C2051 C2053 1.433 . S
C2052 C2048 1.350 . S
C2052 C2049 1.463 . S
C2052 N2056 1.427 . S
C2053 H2043 0.929 . S
C2053 C2051 1.433 . S
C2053 N2056 1.384 . S
C2054 H2045 0.929 . S
C2054 C2046 1.378 . S
C2054 C2049 1.350 . S
C2055 H2042 0.929 . S
C2055 C2047 1.433 . S
C2055 N2057 1.384 . S
N2056 C2052 1.427 . S
N2056 C2053 1.384 . S
N2057 C2049 1.427 . S
N2057 C2055 1.384 . S
H2058 C2064 0.930 . S
H2059 C2068 0.930 . S
H2060 C2073 0.929 . S
H2061 C2071 0.929 . S
H2062 C2066 0.929 . S
H2063 C2072 0.929 . S
C2064 H2058 0.930 . S
C2064 C2065 1.367 . S
C2064 C2072 1.378 . S
C2065 C2064 1.367 . S
C2065 C2073 1.433 . S
C2066 H2062 0.929 . S
C2066 C2068 1.378 . S
C2066 C2070 1.350 . S
C2067 C2070 1.463 . S
C2067 C2072 1.350 . S
C2067 N2075 1.427 . S
C2068 H2059 0.930 . S
C2068 C2066 1.378 . S
C2068 C2069 1.367 . S
C2069 C2068 1.367 . S
C2069 C2071 1.433 . S
C2070 C2066 1.350 . S
C2070 C2067 1.463 . S
C2070 N2074 1.427 . S
C2071 H2061 0.929 . S
C2071 C2069 1.433 . S
C2071 N2074 1.384 . S
C2072 H2063 0.929 . S
C2072 C2064 1.378 . S
C2072 C2067 1.350 . S
C2073 H2060 0.929 . S
C2073 C2065 1.433 . S
C2073 N2075 1.384 . S
N2074 C2070 1.427 . S
N2074 C2071 1.384 . S
N2075 C2067 1.427 . S
N2075 C2073 1.384 . S
H2076 C2082 0.930 . S
H2077 C2086 0.930 . S
H2078 C2091 0.929 . S
H2079 C2089 0.929 . S
H2080 C2084 0.929 . S
H2081 C2090 0.929 . S
C2082 H2076 0.930 . S
C2082 C2083 1.367 . S
C2082 C2090 1.378 . S
C2083 C2082 1.367 . S
C2083 C2091 1.433 . S
C2084 H2080 0.929 . S
C2084 C2086 1.378 . S
C2084 C2088 1.350 . S
C2085 C2088 1.463 . S
C2085 C2090 1.350 . S
C2085 N2093 1.427 . S
C2086 H2077 0.930 . S
C2086 C2084 1.378 . S
C2086 C2087 1.367 . S
C2087 C2086 1.367 . S
C2087 C2089 1.433 . S
C2088 C2084 1.350 . S
C2088 C2085 1.463 . S
C2088 N2092 1.427 . S
C2089 H2079 0.929 . S
C2089 C2087 1.433 . S
C2089 N2092 1.384 . S
C2090 H2081 0.929 . S
C2090 C2082 1.378 . S
C2090 C2085 1.350 . S
C2091 H2078 0.929 . S
C2091 C2083 1.433 . S
C2091 N2093 1.384 . S
N2092 C2088 1.427 . S
N2092 C2089 1.384 . S
N2093 C2085 1.427 . S
N2093 C2091 1.384 . S
H2094 C2100 0.930 . S
H2095 C2104 0.930 . S
H2096 C2109 0.929 . S
H2097 C2107 0.929 . S
H2098 C2102 0.929 . S
H2099 C2108 0.929 . S
C2100 H2094 0.930 . S
C2100 C2101 1.367 . S
C2100 C2108 1.378 . S
C2101 C2100 1.367 . S
C2101 C2109 1.433 . S
C2102 H2098 0.929 . S
C2102 C2104 1.378 . S
C2102 C2106 1.350 . S
C2103 C2106 1.463 . S
C2103 C2108 1.350 . S
C2103 N2111 1.427 . S
C2104 H2095 0.930 . S
C2104 C2102 1.378 . S
C2104 C2105 1.367 . S
C2105 C2104 1.367 . S
C2105 C2107 1.433 . S
C2106 C2102 1.350 . S
C2106 C2103 1.463 . S
C2106 N2110 1.427 . S
C2107 H2097 0.929 . S
C2107 C2105 1.433 . S
C2107 N2110 1.384 . S
C2108 H2099 0.929 . S
C2108 C2100 1.378 . S
C2108 C2103 1.350 . S
C2109 H2096 0.929 . S
C2109 C2101 1.433 . S
C2109 N2111 1.384 . S
N2110 C2106 1.427 . S
N2110 C2107 1.384 . S
N2111 C2103 1.427 . S
N2111 C2109 1.384 . S
H2112 C2118 0.930 . S
H2113 C2122 0.930 . S
H2114 C2127 0.929 . S
H2115 C2125 0.929 . S
H2116 C2120 0.929 . S
H2117 C2126 0.929 . S
C2118 H2112 0.930 . S
C2118 C2119 1.367 . S
C2118 C2126 1.378 . S
C2119 C2118 1.367 . S
C2119 C2127 1.433 . S
C2120 H2116 0.929 . S
C2120 C2122 1.378 . S
C2120 C2124 1.350 . S
C2121 C2124 1.463 . S
C2121 C2126 1.350 . S
C2121 N2129 1.427 . S
C2122 H2113 0.930 . S
C2122 C2120 1.378 . S
C2122 C2123 1.367 . S
C2123 C2122 1.367 . S
C2123 C2125 1.433 . S
C2124 C2120 1.350 . S
C2124 C2121 1.463 . S
C2124 N2128 1.427 . S
C2125 H2115 0.929 . S
C2125 C2123 1.433 . S
C2125 N2128 1.384 . S
C2126 H2117 0.929 . S
C2126 C2118 1.378 . S
C2126 C2121 1.350 . S
C2127 H2114 0.929 . S
C2127 C2119 1.433 . S
C2127 N2129 1.384 . S
N2128 C2124 1.427 . S
N2128 C2125 1.384 . S
N2129 C2121 1.427 . S
N2129 C2127 1.384 . S
H2130 C2136 0.930 . S
H2131 C2140 0.930 . S
H2132 C2145 0.929 . S
H2133 C2143 0.929 . S
H2134 C2138 0.929 . S
H2135 C2144 0.929 . S
C2136 H2130 0.930 . S
C2136 C2137 1.367 . S
C2136 C2144 1.378 . S
C2137 C2136 1.367 . S
C2137 C2145 1.433 . S
C2138 H2134 0.929 . S
C2138 C2140 1.378 . S
C2138 C2142 1.350 . S
C2139 C2142 1.463 . S
C2139 C2144 1.350 . S
C2139 N2147 1.427 . S
C2140 H2131 0.930 . S
C2140 C2138 1.378 . S
C2140 C2141 1.367 . S
C2141 C2140 1.367 . S
C2141 C2143 1.433 . S
C2142 C2138 1.350 . S
C2142 C2139 1.463 . S
C2142 N2146 1.427 . S
C2143 H2133 0.929 . S
C2143 C2141 1.433 . S
C2143 N2146 1.384 . S
C2144 H2135 0.929 . S
C2144 C2136 1.378 . S
C2144 C2139 1.350 . S
C2145 H2132 0.929 . S
C2145 C2137 1.433 . S
C2145 N2147 1.384 . S
N2146 C2142 1.427 . S
N2146 C2143 1.384 . S
N2147 C2139 1.427 . S
N2147 C2145 1.384 . S
H2148 C2154 0.930 . S
H2149 C2158 0.930 . S
H2150 C2163 0.929 . S
H2151 C2161 0.929 . S
H2152 C2156 0.929 . S
H2153 C2162 0.929 . S
C2154 H2148 0.930 . S
C2154 C2155 1.367 . S
C2154 C2162 1.378 . S
C2155 C2154 1.367 . S
C2155 C2163 1.433 . S
C2156 H2152 0.929 . S
C2156 C2158 1.378 . S
C2156 C2160 1.350 . S
C2157 C2160 1.463 . S
C2157 C2162 1.350 . S
C2157 N2165 1.427 . S
C2158 H2149 0.930 . S
C2158 C2156 1.378 . S
C2158 C2159 1.367 . S
C2159 C2158 1.367 . S
C2159 C2161 1.433 . S
C2160 C2156 1.350 . S
C2160 C2157 1.463 . S
C2160 N2164 1.427 . S
C2161 H2151 0.929 . S
C2161 C2159 1.433 . S
C2161 N2164 1.384 . S
C2162 H2153 0.929 . S
C2162 C2154 1.378 . S
C2162 C2157 1.350 . S
C2163 H2150 0.929 . S
C2163 C2155 1.433 . S
C2163 N2165 1.384 . S
N2164 C2160 1.427 . S
N2164 C2161 1.384 . S
N2165 C2157 1.427 . S
N2165 C2163 1.384 . S
H2166 C2172 0.930 . S
H2167 C2176 0.930 . S
H2168 C2181 0.929 . S
H2169 C2179 0.929 . S
H2170 C2174 0.929 . S
H2171 C2180 0.929 . S
C2172 H2166 0.930 . S
C2172 C2173 1.367 . S
C2172 C2180 1.378 . S
C2173 C2172 1.367 . S
C2173 C2181 1.433 . S
C2174 H2170 0.929 . S
C2174 C2176 1.378 . S
C2174 C2178 1.350 . S
C2175 C2178 1.463 . S
C2175 C2180 1.350 . S
C2175 N2183 1.427 . S
C2176 H2167 0.930 . S
C2176 C2174 1.378 . S
C2176 C2177 1.367 . S
C2177 C2176 1.367 . S
C2177 C2179 1.433 . S
C2178 C2174 1.350 . S
C2178 C2175 1.463 . S
C2178 N2182 1.427 . S
C2179 H2169 0.929 . S
C2179 C2177 1.433 . S
C2179 N2182 1.384 . S
C2180 H2171 0.929 . S
C2180 C2172 1.378 . S
C2180 C2175 1.350 . S
C2181 H2168 0.929 . S
C2181 C2173 1.433 . S
C2181 N2183 1.384 . S
N2182 C2178 1.427 . S
N2182 C2179 1.384 . S
N2183 C2175 1.427 . S
N2183 C2181 1.384 . S
H2184 C2190 0.930 . S
H2185 C2194 0.930 . S
H2186 C2199 0.929 . S
H2187 C2197 0.929 . S
H2188 C2192 0.929 . S
H2189 C2198 0.929 . S
C2190 H2184 0.930 . S
C2190 C2191 1.367 . S
C2190 C2198 1.378 . S
C2191 C2190 1.367 . S
C2191 C2199 1.433 . S
C2192 H2188 0.929 . S
C2192 C2194 1.378 . S
C2192 C2196 1.350 . S
C2193 C2196 1.463 . S
C2193 C2198 1.350 . S
C2193 N2201 1.427 . S
C2194 H2185 0.930 . S
C2194 C2192 1.378 . S
C2194 C2195 1.367 . S
C2195 C2194 1.367 . S
C2195 C2197 1.433 . S
C2196 C2192 1.350 . S
C2196 C2193 1.463 . S
C2196 N2200 1.427 . S
C2197 H2187 0.929 . S
C2197 C2195 1.433 . S
C2197 N2200 1.384 . S
C2198 H2189 0.929 . S
C2198 C2190 1.378 . S
C2198 C2193 1.350 . S
C2199 H2186 0.929 . S
C2199 C2191 1.433 . S
C2199 N2201 1.384 . S
N2200 C2196 1.427 . S
N2200 C2197 1.384 . S
N2201 C2193 1.427 . S
N2201 C2199 1.384 . S
H2202 C2208 0.930 . S
H2203 C2212 0.930 . S
H2204 C2217 0.929 . S
H2205 C2215 0.929 . S
H2206 C2210 0.929 . S
H2207 C2216 0.929 . S
C2208 H2202 0.930 . S
C2208 C2209 1.367 . S
C2208 C2216 1.378 . S
C2209 C2208 1.367 . S
C2209 C2217 1.433 . S
C2210 H2206 0.929 . S
C2210 C2212 1.378 . S
C2210 C2214 1.350 . S
C2211 C2214 1.463 . S
C2211 C2216 1.350 . S
C2211 N2219 1.427 . S
C2212 H2203 0.930 . S
C2212 C2210 1.378 . S
C2212 C2213 1.367 . S
C2213 C2212 1.367 . S
C2213 C2215 1.433 . S
C2214 C2210 1.350 . S
C2214 C2211 1.463 . S
C2214 N2218 1.427 . S
C2215 H2205 0.929 . S
C2215 C2213 1.433 . S
C2215 N2218 1.384 . S
C2216 H2207 0.929 . S
C2216 C2208 1.378 . S
C2216 C2211 1.350 . S
C2217 H2204 0.929 . S
C2217 C2209 1.433 . S
C2217 N2219 1.384 . S
N2218 C2214 1.427 . S
N2218 C2215 1.384 . S
N2219 C2211 1.427 . S
N2219 C2217 1.384 . S
H2220 C2226 0.930 . S
H2221 C2230 0.930 . S
H2222 C2235 0.929 . S
H2223 C2233 0.929 . S
H2224 C2228 0.929 . S
H2225 C2234 0.929 . S
C2226 H2220 0.930 . S
C2226 C2227 1.367 . S
C2226 C2234 1.378 . S
C2227 C2226 1.367 . S
C2227 C2235 1.433 . S
C2228 H2224 0.929 . S
C2228 C2230 1.378 . S
C2228 C2232 1.350 . S
C2229 C2232 1.463 . S
C2229 C2234 1.350 . S
C2229 N2237 1.427 . S
C2230 H2221 0.930 . S
C2230 C2228 1.378 . S
C2230 C2231 1.367 . S
C2231 C2230 1.367 . S
C2231 C2233 1.433 . S
C2232 C2228 1.350 . S
C2232 C2229 1.463 . S
C2232 N2236 1.427 . S
C2233 H2223 0.929 . S
C2233 C2231 1.433 . S
C2233 N2236 1.384 . S
C2234 H2225 0.929 . S
C2234 C2226 1.378 . S
C2234 C2229 1.350 . S
C2235 H2222 0.929 . S
C2235 C2227 1.433 . S
C2235 N2237 1.384 . S
N2236 C2232 1.427 . S
N2236 C2233 1.384 . S
N2237 C2229 1.427 . S
N2237 C2235 1.384 . S
H2238 C2244 0.930 . S
H2239 C2248 0.930 . S
H2240 C2253 0.929 . S
H2241 C2251 0.929 . S
H2242 C2246 0.929 . S
H2243 C2252 0.929 . S
C2244 H2238 0.930 . S
C2244 C2245 1.367 . S
C2244 C2252 1.378 . S
C2245 C2244 1.367 . S
C2245 C2253 1.433 . S
C2246 H2242 0.929 . S
C2246 C2248 1.378 . S
C2246 C2250 1.350 . S
C2247 C2250 1.463 . S
C2247 C2252 1.350 . S
C2247 N2255 1.427 . S
C2248 H2239 0.930 . S
C2248 C2246 1.378 . S
C2248 C2249 1.367 . S
C2249 C2248 1.367 . S
C2249 C2251 1.433 . S
C2250 C2246 1.350 . S
C2250 C2247 1.463 . S
C2250 N2254 1.427 . S
C2251 H2241 0.929 . S
C2251 C2249 1.433 . S
C2251 N2254 1.384 . S
C2252 H2243 0.929 . S
C2252 C2244 1.378 . S
C2252 C2247 1.350 . S
C2253 H2240 0.929 . S
C2253 C2245 1.433 . S
C2253 N2255 1.384 . S
N2254 C2250 1.427 . S
N2254 C2251 1.384 . S
N2255 C2247 1.427 . S
N2255 C2253 1.384 . S
H2256 C2262 0.930 . S
H2257 C2266 0.930 . S
H2258 C2271 0.929 . S
H2259 C2269 0.929 . S
H2260 C2264 0.929 . S
H2261 C2270 0.929 . S
C2262 H2256 0.930 . S
C2262 C2263 1.367 . S
C2262 C2270 1.378 . S
C2263 C2262 1.367 . S
C2263 C2271 1.433 . S
C2264 H2260 0.929 . S
C2264 C2266 1.378 . S
C2264 C2268 1.350 . S
C2265 C2268 1.463 . S
C2265 C2270 1.350 . S
C2265 N2273 1.427 . S
C2266 H2257 0.930 . S
C2266 C2264 1.378 . S
C2266 C2267 1.367 . S
C2267 C2266 1.367 . S
C2267 C2269 1.433 . S
C2268 C2264 1.350 . S
C2268 C2265 1.463 . S
C2268 N2272 1.427 . S
C2269 H2259 0.929 . S
C2269 C2267 1.433 . S
C2269 N2272 1.384 . S
C2270 H2261 0.929 . S
C2270 C2262 1.378 . S
C2270 C2265 1.350 . S
C2271 H2258 0.929 . S
C2271 C2263 1.433 . S
C2271 N2273 1.384 . S
N2272 C2268 1.427 . S
N2272 C2269 1.384 . S
N2273 C2265 1.427 . S
N2273 C2271 1.384 . S
H2274 C2280 0.930 . S
H2275 C2284 0.930 . S
H2276 C2289 0.929 . S
H2277 C2287 0.929 . S
H2278 C2282 0.929 . S
H2279 C2288 0.929 . S
C2280 H2274 0.930 . S
C2280 C2281 1.367 . S
C2280 C2288 1.378 . S
C2281 C2280 1.367 . S
C2281 C2289 1.433 . S
C2282 H2278 0.929 . S
C2282 C2284 1.378 . S
C2282 C2286 1.350 . S
C2283 C2286 1.463 . S
C2283 C2288 1.350 . S
C2283 N2291 1.427 . S
C2284 H2275 0.930 . S
C2284 C2282 1.378 . S
C2284 C2285 1.367 . S
C2285 C2284 1.367 . S
C2285 C2287 1.433 . S
C2286 C2282 1.350 . S
C2286 C2283 1.463 . S
C2286 N2290 1.427 . S
C2287 H2277 0.929 . S
C2287 C2285 1.433 . S
C2287 N2290 1.384 . S
C2288 H2279 0.929 . S
C2288 C2280 1.378 . S
C2288 C2283 1.350 . S
C2289 H2276 0.929 . S
C2289 C2281 1.433 . S
C2289 N2291 1.384 . S
N2290 C2286 1.427 . S
N2290 C2287 1.384 . S
N2291 C2283 1.427 . S
N2291 C2289 1.384 . S
H2292 C2298 0.930 . S
H2293 C2302 0.930 . S
H2294 C2307 0.929 . S
H2295 C2305 0.929 . S
H2296 C2300 0.929 . S
H2297 C2306 0.929 . S
C2298 H2292 0.930 . S
C2298 C2299 1.367 . S
C2298 C2306 1.378 . S
C2299 C2298 1.367 . S
C2299 C2307 1.433 . S
C2300 H2296 0.929 . S
C2300 C2302 1.378 . S
C2300 C2304 1.350 . S
C2301 C2304 1.463 . S
C2301 C2306 1.350 . S
C2301 N2309 1.427 . S
C2302 H2293 0.930 . S
C2302 C2300 1.378 . S
C2302 C2303 1.367 . S
C2303 C2302 1.367 . S
C2303 C2305 1.433 . S
C2304 C2300 1.350 . S
C2304 C2301 1.463 . S
C2304 N2308 1.427 . S
C2305 H2295 0.929 . S
C2305 C2303 1.433 . S
C2305 N2308 1.384 . S
C2306 H2297 0.929 . S
C2306 C2298 1.378 . S
C2306 C2301 1.350 . S
C2307 H2294 0.929 . S
C2307 C2299 1.433 . S
C2307 N2309 1.384 . S
N2308 C2304 1.427 . S
N2308 C2305 1.384 . S
N2309 C2301 1.427 . S
N2309 C2307 1.384 . S
H2310 C2316 0.930 . S
H2311 C2320 0.930 . S
H2312 C2325 0.929 . S
H2313 C2323 0.929 . S
H2314 C2318 0.929 . S
H2315 C2324 0.929 . S
C2316 H2310 0.930 . S
C2316 C2317 1.367 . S
C2316 C2324 1.378 . S
C2317 C2316 1.367 . S
C2317 C2325 1.433 . S
C2318 H2314 0.929 . S
C2318 C2320 1.378 . S
C2318 C2322 1.350 . S
C2319 C2322 1.463 . S
C2319 C2324 1.350 . S
C2319 N2327 1.427 . S
C2320 H2311 0.930 . S
C2320 C2318 1.378 . S
C2320 C2321 1.367 . S
C2321 C2320 1.367 . S
C2321 C2323 1.433 . S
C2322 C2318 1.350 . S
C2322 C2319 1.463 . S
C2322 N2326 1.427 . S
C2323 H2313 0.929 . S
C2323 C2321 1.433 . S
C2323 N2326 1.384 . S
C2324 H2315 0.929 . S
C2324 C2316 1.378 . S
C2324 C2319 1.350 . S
C2325 H2312 0.929 . S
C2325 C2317 1.433 . S
C2325 N2327 1.384 . S
N2326 C2322 1.427 . S
N2326 C2323 1.384 . S
N2327 C2319 1.427 . S
N2327 C2325 1.384 . S
H2328 C2334 0.930 . S
H2329 C2338 0.930 . S
H2330 C2343 0.929 . S
H2331 C2341 0.929 . S
H2332 C2336 0.929 . S
H2333 C2342 0.929 . S
C2334 H2328 0.930 . S
C2334 C2335 1.367 . S
C2334 C2342 1.378 . S
C2335 C2334 1.367 . S
C2335 C2343 1.433 . S
C2336 H2332 0.929 . S
C2336 C2338 1.378 . S
C2336 C2340 1.350 . S
C2337 C2340 1.463 . S
C2337 C2342 1.350 . S
C2337 N2345 1.427 . S
C2338 H2329 0.930 . S
C2338 C2336 1.378 . S
C2338 C2339 1.367 . S
C2339 C2338 1.367 . S
C2339 C2341 1.433 . S
C2340 C2336 1.350 . S
C2340 C2337 1.463 . S
C2340 N2344 1.427 . S
C2341 H2331 0.929 . S
C2341 C2339 1.433 . S
C2341 N2344 1.384 . S
C2342 H2333 0.929 . S
C2342 C2334 1.378 . S
C2342 C2337 1.350 . S
C2343 H2330 0.929 . S
C2343 C2335 1.433 . S
C2343 N2345 1.384 . S
N2344 C2340 1.427 . S
N2344 C2341 1.384 . S
N2345 C2337 1.427 . S
N2345 C2343 1.384 . S
H2346 C2352 0.930 . S
H2347 C2356 0.930 . S
H2348 C2361 0.929 . S
H2349 C2359 0.929 . S
H2350 C2354 0.929 . S
H2351 C2360 0.929 . S
C2352 H2346 0.930 . S
C2352 C2353 1.367 . S
C2352 C2360 1.378 . S
C2353 C2352 1.367 . S
C2353 C2361 1.433 . S
C2354 H2350 0.929 . S
C2354 C2356 1.378 . S
C2354 C2358 1.350 . S
C2355 C2358 1.463 . S
C2355 C2360 1.350 . S
C2355 N2363 1.427 . S
C2356 H2347 0.930 . S
C2356 C2354 1.378 . S
C2356 C2357 1.367 . S
C2357 C2356 1.367 . S
C2357 C2359 1.433 . S
C2358 C2354 1.350 . S
C2358 C2355 1.463 . S
C2358 N2362 1.427 . S
C2359 H2349 0.929 . S
C2359 C2357 1.433 . S
C2359 N2362 1.384 . S
C2360 H2351 0.929 . S
C2360 C2352 1.378 . S
C2360 C2355 1.350 . S
C2361 H2348 0.929 . S
C2361 C2353 1.433 . S
C2361 N2363 1.384 . S
N2362 C2358 1.427 . S
N2362 C2359 1.384 . S
N2363 C2355 1.427 . S
N2363 C2361 1.384 . S
H2364 C2370 0.930 . S
H2365 C2374 0.930 . S
H2366 C2379 0.929 . S
H2367 C2377 0.929 . S
H2368 C2372 0.929 . S
H2369 C2378 0.929 . S
C2370 H2364 0.930 . S
C2370 C2371 1.367 . S
C2370 C2378 1.378 . S
C2371 C2370 1.367 . S
C2371 C2379 1.433 . S
C2372 H2368 0.929 . S
C2372 C2374 1.378 . S
C2372 C2376 1.350 . S
C2373 C2376 1.463 . S
C2373 C2378 1.350 . S
C2373 N2381 1.427 . S
C2374 H2365 0.930 . S
C2374 C2372 1.378 . S
C2374 C2375 1.367 . S
C2375 C2374 1.367 . S
C2375 C2377 1.433 . S
C2376 C2372 1.350 . S
C2376 C2373 1.463 . S
C2376 N2380 1.427 . S
C2377 H2367 0.929 . S
C2377 C2375 1.433 . S
C2377 N2380 1.384 . S
C2378 H2369 0.929 . S
C2378 C2370 1.378 . S
C2378 C2373 1.350 . S
C2379 H2366 0.929 . S
C2379 C2371 1.433 . S
C2379 N2381 1.384 . S
N2380 C2376 1.427 . S
N2380 C2377 1.384 . S
N2381 C2373 1.427 . S
N2381 C2379 1.384 . S
H2382 C2388 0.930 . S
H2383 C2392 0.930 . S
H2384 C2397 0.929 . S
H2385 C2395 0.929 . S
H2386 C2390 0.929 . S
H2387 C2396 0.929 . S
C2388 H2382 0.930 . S
C2388 C2389 1.367 . S
C2388 C2396 1.378 . S
C2389 C2388 1.367 . S
C2389 C2397 1.433 . S
C2390 H2386 0.929 . S
C2390 C2392 1.378 . S
C2390 C2394 1.350 . S
C2391 C2394 1.463 . S
C2391 C2396 1.350 . S
C2391 N2399 1.427 . S
C2392 H2383 0.930 . S
C2392 C2390 1.378 . S
C2392 C2393 1.367 . S
C2393 C2392 1.367 . S
C2393 C2395 1.433 . S
C2394 C2390 1.350 . S
C2394 C2391 1.463 . S
C2394 N2398 1.427 . S
C2395 H2385 0.929 . S
C2395 C2393 1.433 . S
C2395 N2398 1.384 . S
C2396 H2387 0.929 . S
C2396 C2388 1.378 . S
C2396 C2391 1.350 . S
C2397 H2384 0.929 . S
C2397 C2389 1.433 . S
C2397 N2399 1.384 . S
N2398 C2394 1.427 . S
N2398 C2395 1.384 . S
N2399 C2391 1.427 . S
N2399 C2397 1.384 . S
C679 C291 1.004 . S
C683 C4 0.978 . S
C697 C18 1.082 . S
C701 C242 1.088 . S
C715 C32 0.998 . S
C719 C263 0.998 . S
C733 C270 1.087 . S
C737 C46 1.083 . S
C751 C333 0.860 . S
C755 C67 0.859 . S
C769 C74 1.190 . S
C773 C298 1.181 . S
C787 C95 0.854 . S
C791 C319 0.855 . S
C805 C102 1.188 . S
C809 C228 1.184 . S
C823 C123 0.899 . S
C827 C214 0.903 . S
C841 C137 0.950 . S
C845 C179 0.953 . S
C859 C151 0.900 . S
C863 C186 0.907 . S
C877 C207 0.963 . S
C881 C165 0.963 . S
C895 C347 1.022 . S
C899 C627 1.015 . S
C913 C578 1.094 . S
C917 C354 1.091 . S
C931 C375 1.013 . S
C935 C599 1.025 . S
C949 C606 1.089 . S
C953 C382 1.090 . S
C967 C396 0.966 . S
C971 C669 0.963 . S
C985 C634 1.186 . S
C989 C410 1.188 . S
C1003 C424 0.974 . S
C1007 C655 0.978 . S
C1021 C564 1.193 . S
C1025 C438 1.194 . S
C1039 C459 1.020 . S
C1043 C557 1.020 . S
C1057 C515 0.992 . S
C1061 C466 0.968 . S
C1075 C529 1.031 . S
C1079 C487 1.004 . S
C1093 C543 0.986 . S
C1097 C494 0.963 . S
C1111 C368 0.815 . S
C1115 C11 0.828 . S
C1129 C25 0.900 . S
C1133 C389 0.900 . S
C1147 C39 0.835 . S
C1151 C340 0.806 . S
C1165 C53 0.907 . S
C1169 C361 0.917 . S
C1183 C60 0.824 . S
C1187 C431 0.850 . S
C1201 C445 0.887 . S
C1205 C81 0.897 . S
C1219 C403 0.842 . S
C1223 C88 0.837 . S
C1237 C417 0.898 . S
C1241 C109 0.893 . S
C1255 C508 1.000 . S
C1259 C116 1.018 . S
C1273 C130 0.826 . S
C1277 C522 0.839 . S
C1291 C536 1.007 . S
C1295 C144 1.020 . S
C1309 C158 0.824 . S
C1313 C550 0.811 . S
C1327 C172 1.012 . S
C1331 C452 1.007 . S
C1345 C193 0.834 . S
C1349 C473 0.848 . S
C1363 C480 1.021 . S
C1367 C200 1.029 . S
C1381 C501 0.838 . S
C1385 C221 0.849 . S
C1399 C235 0.885 . S
C1403 C613 0.892 . S
C1417 C249 0.933 . S
C1421 C641 0.937 . S
C1435 C648 1.019 . S
C1439 C256 1.022 . S
C1453 C571 0.929 . S
C1457 C277 0.939 . S
C1471 C284 1.037 . S
C1475 C662 1.024 . S
C1489 C585 0.901 . S
C1493 C305 0.903 . S
C1507 C312 1.019 . S
C1511 C592 0.992 . S
C1525 C326 1.007 . S
C1529 C620 0.996 . S
C1543 C397 1.498 . S
C1547 C12 1.602 . S
C1561 C411 1.485 . S
C1565 C26 1.642 . S
C1579 C425 1.497 . S
C1583 C40 1.590 . S
C1597 C54 1.640 . S
C1601 C439 1.488 . S
C1615 C348 1.603 . S
C1619 C61 1.456 . S
C1633 C355 1.560 . S
C1637 C82 1.673 . S
C1651 C89 1.465 . S
C1655 C376 1.599 . S
C1669 C383 1.561 . S
C1673 C110 1.676 . S
C1687 C117 1.454 . S
C1691 C544 1.623 . S
C1705 C131 1.472 . S
C1709 C558 1.583 . S
C1723 C516 1.620 . S
C1727 C145 1.472 . S
C1741 C159 1.460 . S
C1745 C530 1.592 . S
C1759 C488 1.556 . S
C1763 C173 1.420 . S
C1777 C194 1.575 . S
C1781 C495 1.476 . S
C1795 C201 1.409 . S
C1799 C460 1.547 . S
C1813 C222 1.587 . S
C1817 C467 1.474 . S
C1831 C635 1.473 . S
C1835 C236 1.607 . S
C1849 C250 1.667 . S
C1853 C607 1.536 . S
C1867 C257 1.394 . S
C1871 C628 1.559 . S
C1885 C278 1.655 . S
C1889 C579 1.531 . S
C1903 C600 1.549 . S
C1907 C285 1.401 . S
C1921 C565 1.476 . S
C1925 C306 1.612 . S
C1939 C670 1.645 . S
C1943 C313 1.494 . S
C1957 C327 1.493 . S
C1961 C656 1.642 . S
C1975 C215 1.725 . S
C1979 C5 1.632 . S
C1993 C19 1.768 . S
C1997 C180 1.754 . S
C2011 C187 1.711 . S
C2015 C33 1.648 . S
C2029 C208 1.751 . S
C2033 C47 1.769 . S
C2047 C138 1.761 . S
C2051 C68 1.751 . S
C2065 C75 1.445 . S
C2069 C152 1.542 . S
C2083 C96 1.754 . S
C2087 C166 1.764 . S
C2101 C124 1.521 . S
C2105 C103 1.446 . S
C2119 C229 1.570 . S
C2123 C292 1.637 . S
C2137 C334 1.625 . S
C2141 C243 1.635 . S
C2155 C299 1.569 . S
C2159 C264 1.643 . S
C2173 C271 1.639 . S
C2177 C320 1.623 . S
C2191 C551 1.632 . S
C2195 C341 1.706 . S
C2209 C509 1.708 . S
C2213 C362 1.703 . S
C2227 C369 1.689 . S
C2231 C523 1.651 . S
C2245 C537 1.694 . S
C2249 C390 1.693 . S
C2263 C474 1.758 . S
C2267 C404 1.758 . S
C2281 C418 1.624 . S
C2285 C481 1.536 . S
C2299 C432 1.737 . S
C2303 C502 1.738 . S
C2317 C446 1.608 . S
C2321 C453 1.539 . S
C2335 C572 1.627 . S
C2339 C621 1.580 . S
C2353 C663 1.626 . S
C2357 C586 1.668 . S
C2371 C642 1.644 . S
C2375 C593 1.578 . S
C2389 C649 1.631 . S
C2393 C614 1.664 . S
