# Generated by pormake.
# Topology kag, (6)-cn, num edge types: 1
# Building blocks:
#     Node 0, Type 0, BuildingBlock: VOLQOD_clean_sbu_1, # of connection points: 6
#     Node 1, Type 0, BuildingBlock: VOLQOD_clean_sbu_1, # of connection points: 6
#     Node 2, Type 0, BuildingBlock: VOLQOD_clean_sbu_1, # of connection points: 6
#     Edge 3, Type (0, 0), BuildingBlock: XUDNAN_clean_linker_2, # of connection points: 2
#     Edge 4, Type (0, 0), BuildingBlock: XUDNAN_clean_linker_2, # of connection points: 2
#     Edge 5, Type (0, 0), BuildingBlock: XUDNAN_clean_linker_2, # of connection points: 2
#     Edge 6, Type (0, 0), BuildingBlock: XUDNAN_clean_linker_2, # of connection points: 2
#     Edge 7, Type (0, 0), BuildingBlock: XUDNAN_clean_linker_2, # of connection points: 2
#     Edge 8, Type (0, 0), BuildingBlock: XUDNAN_clean_linker_2, # of connection points: 2
#     Edge 9, Type (0, 0), BuildingBlock: XUDNAN_clean_linker_2, # of connection points: 2
#     Edge 10, Type (0, 0), BuildingBlock: XUDNAN_clean_linker_2, # of connection points: 2
#     Edge 11, Type (0, 0), BuildingBlock: XUDNAN_clean_linker_2, # of connection points: 2
# Relax obj value: 0.313
# Max RMSD: 0.246
# Mean RMSD: 0.245
data_MOF--net-kag--node1-VOLQOD_clean_sbu_1--edge1-XUDNAN_clean_linker_2
_symmetry_space_group_name_H-M    P1
_symmetry_Int_Tables_number       1
_symmetry_cell_setting            triclinic
loop_
_symmetry_equiv_pos_as_xyz
'x, y, z'
_cell_length_a     33.637263
_cell_length_b     33.694699
_cell_length_c     17.183326
_cell_angle_alpha  90.316409
_cell_angle_beta   89.474026
_cell_angle_gamma 120.28358
loop_
_atom_site_label
_atom_site_type_symbol
_atom_site_fract_x
_atom_site_fract_y
_atom_site_fract_z
_atom_type_partial_charge
O0 O -0.055 0.46228 0.84977 0.0
Zn1 Zn -0.05549 0.44432 0.96276 0.0
O2 O -0.05377 0.49036 0.03544 0.0
Zn3 Zn 0.00339 0.5189 0.09592 0.0
Zn4 Zn -0.05856 0.53718 0.97694 0.0
Zn5 Zn 0.8942 0.46067 0.10664 0.0
O6 O -0.00904 0.51463 0.21272 0.0
O7 O 0.91445 0.47573 0.2164 0.0
O8 O -0.00059 0.43664 0.97975 0.0
O9 O 0.04083 0.48908 0.06943 0.0
O10 O 0.04247 0.58609 0.06858 0.0
O11 O -0.00159 0.59916 0.9895 0.0
O12 O 0.88447 0.53986 0.00493 0.0
O13 O 0.88799 0.38219 0.98138 0.0
O14 O 0.85013 0.48368 0.09188 0.0
O15 O 0.85994 0.39203 0.09305 0.0
C16 C 0.94063 0.49456 0.82061 0.0
C17 C -0.04695 0.4966 0.25045 0.0
C18 C 0.03592 0.61313 0.02615 0.0
C19 C 0.03474 0.45691 0.02297 0.0
C20 C 0.85117 0.51555 0.05102 0.0
C21 C 0.85969 0.36634 0.03824 0.0
O22 O 0.93762 0.52378 0.86351 0.0
O23 O 0.49737 -0.02893 0.15117 0.0
Zn24 Zn 0.50831 -0.02938 0.03667 0.0
O25 O 0.46206 -0.02314 0.97841 0.0
Zn26 Zn 0.43211 0.928 0.90181 0.0
Zn27 Zn 0.41526 -0.02602 0.05096 0.0
Zn28 Zn 0.49257 0.03497 0.92252 0.0
O29 O 0.4434 0.95127 0.79145 0.0
O30 O 0.49224 0.02586 0.80681 0.0
O31 O 0.50827 0.91245 0.00686 0.0
O32 O 0.45775 0.88585 0.90993 0.0
O33 O 0.36372 0.89097 0.92024 0.0
O34 O 0.35354 0.91673 0.0339 0.0
O35 O 0.40705 0.02873 0.0336 0.0
O36 O 0.57182 0.02583 0.02238 0.0
O37 O 0.46081 0.07051 0.94557 0.0
O38 O 0.55873 0.07344 0.95307 0.0
C39 C 0.46758 -0.02603 0.19308 0.0
C40 C 0.46986 -0.00901 0.76319 0.0
C41 C 0.33801 0.88893 0.97673 0.0
C42 C 0.48667 0.88307 0.95354 0.0
C43 C 0.42767 0.06415 0.99023 0.0
C44 C 0.58588 0.06479 0.99068 0.0
O45 O 0.43381 -0.02461 0.16321 0.0
O46 O 0.45263 0.49616 0.16823 0.0
Zn47 Zn 0.47444 0.51368 0.05624 0.0
O48 O 0.43472 0.46492 0.98278 0.0
Zn49 Zn 0.46909 0.44195 0.9248 0.0
Zn50 Zn 0.38461 0.41426 0.03948 0.0
Zn51 Zn 0.40946 0.48955 0.90947 0.0
O52 O 0.46199 0.44503 0.80888 0.0
O53 O 0.41574 0.47396 0.79832 0.0
O54 O 0.53773 0.52106 0.05212 0.0
O55 O 0.5361 0.47621 0.95511 0.0
O56 O 0.44425 0.37502 0.94792 0.0
O57 O 0.37979 0.35371 0.01455 0.0
O58 O 0.32388 0.41067 0.01945 0.0
O59 O 0.48173 0.57575 0.02736 0.0
O60 O 0.34304 0.46738 0.93482 0.0
O61 O 0.44304 0.55751 0.91633 0.0
C62 C 0.42332 0.45733 0.19703 0.0
C63 C 0.43886 0.45741 0.76763 0.0
C64 C 0.40773 0.34404 0.98095 0.0
C65 C 0.55761 0.5053 0.00892 0.0
C66 C 0.31345 0.4353 0.97807 0.0
C67 C 0.46889 0.58723 0.96604 0.0
O68 O 0.39712 0.42335 0.15397 0.0
H69 H -0.02559 0.46178 0.70517 0.0
H70 H 0.90364 0.53823 0.74366 0.0
H71 H 0.90272 0.54941 0.60259 0.0
H72 H 0.04665 0.53271 0.54653 0.0
H73 H 0.04377 0.48538 0.49236 0.0
H74 H 0.03875 0.48242 0.59695 0.0
H75 H -0.03931 0.40634 0.58704 0.0
H76 H -0.03437 0.40886 0.48249 0.0
H77 H 0.91535 0.40447 0.52912 0.0
H78 H 0.90628 0.55026 0.45969 0.0
H79 H 0.91525 0.54136 0.31907 0.0
H80 H -0.01242 0.46842 0.36925 0.0
C81 C -0.04148 0.48061 0.6837 0.0
C82 C 0.93903 0.49908 0.7354 0.0
C83 C 0.91895 0.52394 0.70523 0.0
C84 C 0.91824 0.5305 0.62518 0.0
C85 C 0.93816 0.51242 0.57591 0.0
C86 C -0.04195 0.48809 0.60356 0.0
C87 C -0.02278 0.47269 0.53712 0.0
C88 C 0.02972 0.49462 0.54366 0.0
C89 C -0.04672 0.41996 0.53376 0.0
C90 C -0.03559 0.49174 0.46805 0.0
C91 C -0.0582 0.51443 0.49223 0.0
C92 C 0.9244 0.53309 0.43988 0.0
C93 C 0.92967 0.52795 0.3604 0.0
C94 C -0.04734 0.50494 0.33418 0.0
C95 C -0.02921 0.48704 0.38841 0.0
H96 H 0.40459 0.93683 0.31302 0.0
H97 H 0.54952 0.02805 0.26208 0.0
H98 H 0.56498 0.04458 0.40217 0.0
H99 H 0.3942 -0.00019 0.47434 0.0
H100 H 0.35712 0.94941 0.53106 0.0
H101 H 0.35664 0.94605 0.42637 0.0
H102 H 0.37464 0.87989 0.43303 0.0
H103 H 0.3749 0.88286 0.53773 0.0
H104 H 0.42429 0.88829 0.48611 0.0
H105 H 0.56428 0.05441 0.54571 0.0
H106 H 0.54961 0.0486 0.68747 0.0
H107 H 0.40684 0.94503 0.64813 0.0
C108 C 0.43947 0.96027 0.33173 0.0
C109 C 0.4759 -0.01857 0.27723 0.0
C110 C 0.52126 0.01143 0.30331 0.0
C111 C 0.53032 0.02123 0.38255 0.0
C112 C 0.49375 1e-05 0.43499 0.0
C113 C 0.44939 -0.03055 0.41107 0.0
C114 C 0.41702 0.94934 0.48025 0.0
C115 C 0.379 -0.03808 0.47783 0.0
C116 C 0.39652 0.89699 0.48452 0.0
C117 C 0.4501 -0.02632 0.54647 0.0
C118 C 0.49399 0.00337 0.51879 0.0
C119 C 0.53019 0.03096 0.56829 0.0
C120 C 0.5215 0.02762 0.64853 0.0
C121 C 0.47724 -0.00378 0.67837 0.0
C122 C 0.4411 -0.03101 0.62663 0.0
H123 H 0.43928 0.51412 0.65325 0.0
H124 H 0.43439 0.38457 0.69121 0.0
H125 H 0.42771 0.36996 0.54946 0.0
H126 H 0.36111 0.4794 0.4927 0.0
H127 H 0.39378 0.53247 0.4398 0.0
H128 H 0.39662 0.53232 0.54443 0.0
H129 H 0.48539 0.5704 0.53664 0.0
H130 H 0.48286 0.5709 0.43201 0.0
H131 H 0.51061 0.54372 0.47908 0.0
H132 H 0.41674 0.36715 0.40594 0.0
H133 H 0.41309 0.38078 0.26599 0.0
H134 H 0.43342 0.51593 0.3179 0.0
C135 C 0.43675 0.48272 0.63142 0.0
C136 C 0.43695 0.4502 0.68276 0.0
C137 C 0.43434 0.40983 0.65253 0.0
C138 C 0.43032 0.40117 0.57232 0.0
C139 C 0.42996 0.43374 0.52316 0.0
C140 C 0.43404 0.47414 0.55118 0.0
C141 C 0.43517 0.5044 0.4851 0.0
C142 C 0.39422 0.51262 0.49088 0.0
C143 C 0.48125 0.55006 0.4831 0.0
C144 C 0.43058 0.47443 0.41568 0.0
C145 C 0.42682 0.43351 0.43932 0.0
C146 C 0.42017 0.39925 0.38657 0.0
C147 C 0.41788 0.40721 0.30734 0.0
C148 C 0.42318 0.44944 0.28141 0.0
C149 C 0.4297 0.48353 0.33631 0.0
H150 H 0.12756 0.51404 0.01963 0.0
H151 H 0.02143 0.37028 0.01132 0.0
H152 H 0.08141 0.34832 0.00087 0.0
H153 H 0.20022 0.50444 0.87525 0.0
H154 H 0.25302 0.54619 0.92114 0.0
H155 H 0.20186 0.55013 0.93283 0.0
H156 H 0.20879 0.54883 0.08279 0.0
H157 H 0.26003 0.54499 0.07158 0.0
H158 H 0.21204 0.50233 0.12772 0.0
H159 H 0.15368 0.34257 -0.00223 0.0
H160 H 0.23226 0.35367 0.98752 0.0
H161 H 0.28977 0.50132 0.98327 0.0
C162 C 0.11709 0.47795 0.01631 0.0
C163 C 0.07017 0.44369 0.01735 0.0
C164 C 0.05741 0.39687 0.01096 0.0
C165 C 0.09115 0.38415 0.00522 0.0
C166 C 0.13728 0.41882 0.00415 0.0
C167 C 0.15021 0.46478 0.00827 0.0
C168 C 0.20186 0.49545 0.00134 0.0
C169 C 0.21499 0.52583 0.92829 0.0
C170 C 0.22184 0.5246 0.07527 0.0
C171 C 0.21607 0.45959 0.99351 0.0
C172 C 0.17844 0.41556 -0.00353 0.0
C173 C 0.18335 0.37686 0.99433 0.0
C174 C 0.22794 0.38342 0.98867 0.0
C175 C 0.26665 0.42825 0.98343 0.0
C176 C 0.26053 0.46667 0.98561 0.0
H177 H 0.63862 0.13827 0.89621 0.0
H178 H 0.6394 0.07683 0.11697 0.0
H179 H 0.71375 0.1457 0.14929 0.0
H180 H 0.76588 0.1964 0.86232 0.0
H181 H 0.76737 0.2455 0.81798 0.0
H182 H 0.71679 0.18939 0.80913 0.0
H183 H 0.66705 0.22131 0.86694 0.0
H184 H 0.7174 0.27727 0.87679 0.0
H185 H 0.6816 0.24932 0.96057 0.0
H186 H 0.78019 0.22583 0.16658 0.0
H187 H 0.84041 0.30812 0.15989 0.0
H188 H 0.8008 0.31482 0.92329 0.0
C189 C 0.65505 0.13893 0.95051 0.0
C190 C 0.63342 0.10235 0.00414 0.0
C191 C 0.6557 0.10435 0.07478 0.0
C192 C 0.6978 0.14337 0.09374 0.0
C193 C 0.7176 0.17946 0.04054 0.0
C194 C 0.69755 0.17712 0.96951 0.0
C195 C 0.72514 0.2212 0.92381 0.0
C196 C 0.74498 0.2126 0.84887 0.0
C197 C 0.69606 0.24358 0.90604 0.0
C198 C 0.76278 0.24941 0.98156 0.0
C199 C 0.7577 0.22476 0.0487 0.0
C200 C 0.78536 0.24507 0.11354 0.0
C201 C 0.81919 0.29172 0.10947 0.0
C202 C 0.82545 0.31708 0.04065 0.0
C203 C 0.7973 0.29557 0.97571 0.0
H204 H 0.50111 0.83286 0.06331 0.0
H205 H 0.48898 0.84585 0.81489 0.0
H206 H 0.49519 0.77694 0.7916 0.0
H207 H 0.57916 0.78311 0.05254 0.0
H208 H 0.54976 0.74416 0.13197 0.0
H209 H 0.553 0.79921 0.12907 0.0
H210 H 0.4641 0.75863 0.13924 0.0
H211 H 0.46059 0.70361 0.14196 0.0
H212 H 0.42944 0.71501 0.06906 0.0
H213 H 0.4929 0.70332 0.79496 0.0
H214 H 0.47887 0.62604 0.82451 0.0
H215 H 0.49021 0.65718 0.0716 0.0
C216 C 0.5012 0.82181 0.00403 0.0
C217 C 0.49511 0.84472 0.94068 0.0
C218 C 0.4938 0.82871 0.864 0.0
C219 C 0.49761 0.78985 0.85021 0.0
C220 C 0.50246 0.76727 0.91382 0.0
C221 C 0.50418 0.78243 0.98931 0.0
C222 C 0.50385 0.74846 0.0474 0.0
C223 C 0.54915 0.77003 0.09293 0.0
C224 C 0.462 0.73036 0.10263 0.0
C225 C 0.49988 0.71114 0.99273 0.0
C226 C 0.50011 0.72337 0.91596 0.0
C227 C 0.49337 0.69357 0.85468 0.0
C228 C 0.48517 0.64964 0.87217 0.0
C229 C 0.48354 0.63572 0.95033 0.0
C230 C 0.49211 0.66728 0.01134 0.0
H231 H 0.79531 0.51221 0.93447 0.0
H232 H 0.81903 0.5351 0.18223 0.0
H233 H 0.75057 0.54409 0.19515 0.0
H234 H 0.74667 0.58768 0.90098 0.0
H235 H 0.70399 0.54776 0.8343 0.0
H236 H 0.75863 0.55032 0.84237 0.0
H237 H 0.71646 0.46311 0.87271 0.0
H238 H 0.66181 0.4603 0.86477 0.0
H239 H 0.67578 0.4409 0.9524 0.0
H240 H 0.67822 0.54711 0.18198 0.0
H241 H 0.60182 0.53496 0.14765 0.0
H242 H 0.62102 0.50281 0.91022 0.0
C243 C 0.78653 0.52025 0.9909 0.0
C244 C 0.81254 0.52399 0.05724 0.0
C245 C 0.79952 0.53277 0.13085 0.0
C246 C 0.76094 0.53809 0.13855 0.0
C247 C 0.7355 0.5337 0.07218 0.0
C248 C 0.74738 0.5244 -0.00011 0.0
C249 C 0.71124 0.51589 0.93978 0.0
C250 C 0.73134 0.55261 0.87556 0.0
C251 C 0.69007 0.46716 0.90544 0.0
C252 C 0.67679 0.52101 0.98985 0.0
C253 C 0.69205 0.53244 0.06553 0.0
C254 C 0.66595 0.53834 0.12286 0.0
C255 C 0.62266 0.53149 0.10271 0.0
C256 C 0.6055 0.51789 0.0263 0.0
C257 C 0.63327 0.51318 0.96907 0.0
H258 H 0.11091 0.66435 0.11911 0.0
H259 H 0.04852 0.66796 0.90121 0.0
H260 H 0.11747 0.74215 0.86896 0.0
H261 H 0.16923 0.79052 0.15596 0.0
H262 H 0.21882 0.79184 0.19782 0.0
H263 H 0.16285 0.74098 0.20691 0.0
H264 H 0.19498 0.69252 0.14479 0.0
H265 H 0.25085 0.74318 0.13481 0.0
H266 H 0.22263 0.70847 0.05061 0.0
H267 H 0.19703 0.80893 0.85124 0.0
H268 H 0.279 0.87005 0.85722 0.0
H269 H 0.28768 0.82767 0.09108 0.0
C270 C 0.11142 0.68124 0.06537 0.0
C271 C 0.07439 0.66039 0.01263 0.0
C272 C 0.07632 0.68346 0.94278 0.0
C273 C 0.1154 0.72554 0.92379 0.0
C274 C 0.1518 0.7446 0.97607 0.0
C275 C 0.1498 0.72378 0.04624 0.0
C276 C 0.19418 0.75103 0.09109 0.0
C277 C 0.18575 0.76971 0.16747 0.0
C278 C 0.21699 0.72207 0.10617 0.0
C279 C 0.22201 0.78946 0.03388 0.0
C280 C 0.19695 0.78493 0.96772 0.0
C281 C 0.21664 0.81361 0.90351 0.0
C282 C 0.26311 0.84796 0.90718 0.0
C283 C 0.28896 0.85374 0.97502 0.0
C284 C 0.26807 0.82448 0.0394 0.0
H285 H 0.45835 0.31029 0.91191 0.0
H286 H 0.33768 0.2701 0.05743 0.0
H287 H 0.32688 0.1923 0.07008 0.0
H288 H 0.41464 0.19991 0.81168 0.0
H289 H 0.47031 0.20429 0.81016 0.0
H290 H 0.46623 0.25557 0.80791 0.0
H291 H 0.51834 0.28646 0.92947 0.0
H292 H 0.52239 0.23525 0.93234 0.0
H293 H 0.50207 0.25206 0.01664 0.0
H294 H 0.33289 0.12066 0.07488 0.0
H295 H 0.35401 0.06029 0.06811 0.0
H296 H 0.47017 0.14803 0.91842 0.0
C297 C 0.42925 0.28504 0.94565 0.0
C298 C 0.39887 0.29636 0.98365 0.0
C299 C 0.36137 0.26225 0.02753 0.0
C300 C 0.35493 0.21794 0.03509 0.0
C301 C 0.38605 0.20824 -0.00205 0.0
C302 C 0.42225 0.24075 0.95361 0.0
C303 C 0.45191 0.22231 0.92209 0.0
C304 C 0.45067 0.2204 0.83265 0.0
C305 C 0.5016 0.25071 0.95196 0.0
C306 C 0.42732 0.17465 0.95699 0.0
C307 C 0.38929 0.16702 0.00024 0.0
C308 C 0.36233 0.12606 0.04049 0.0
C309 C 0.37468 0.09204 0.03648 0.0
C310 C 0.41366 0.0993 0.99256 0.0
C311 C 0.43995 0.14113 0.95202 0.0
loop_
_geom_bond_atom_site_label_1
_geom_bond_atom_site_label_2
_geom_bond_distance
_geom_bond_site_symmetry_2
_ccdc_geom_bond_type
O0 Zn1 1.953 . S
O0 C16 1.225 . S
Zn1 O0 1.953 . S
Zn1 O2 1.949 1_556 S
Zn1 O8 1.919 . S
Zn1 O13 1.924 1_455 S
O2 Zn1 1.949 1_554 S
O2 Zn3 1.923 . S
O2 Zn4 1.950 1_454 S
O2 Zn5 1.945 1_455 S
Zn3 O2 1.923 . S
Zn3 O6 1.933 . S
Zn3 O9 1.941 . S
Zn3 O10 1.965 . S
Zn4 O2 1.950 1_656 S
Zn4 O11 1.938 1_655 S
Zn4 O12 1.906 . S
Zn4 O22 1.953 . S
Zn5 O2 1.945 1_655 S
Zn5 O7 1.932 . S
Zn5 O14 1.977 . S
Zn5 O15 1.910 . S
O6 Zn3 1.933 . S
O6 C17 1.226 . S
O7 Zn5 1.932 . S
O7 C17 1.307 1_655 S
O8 Zn1 1.919 . S
O8 C19 1.253 1_556 S
O9 Zn3 1.941 . S
O9 C19 1.283 . S
O10 Zn3 1.965 . S
O10 C18 1.303 1_554 S
O11 Zn4 1.938 1_455 S
O11 C18 1.247 . S
O12 Zn4 1.906 . S
O12 C20 1.304 1_556 S
O13 Zn1 1.924 1_655 S
O13 C21 1.311 . S
O14 Zn5 1.977 . S
O14 C20 1.272 . S
O15 Zn5 1.910 . S
O15 C21 1.231 1_554 S
C16 O0 1.225 . S
C16 O22 1.298 1_455 S
C17 O6 1.226 . S
C17 O7 1.307 1_455 S
C18 O10 1.303 1_556 S
C18 O11 1.247 . S
C19 O8 1.253 1_554 S
C19 O9 1.283 . S
C20 O12 1.304 1_554 S
C20 O14 1.272 . S
C21 O13 1.311 . S
C21 O15 1.231 1_556 S
O22 Zn4 1.953 . S
O22 C16 1.298 1_655 S
O23 Zn24 1.953 . S
O23 C39 1.225 . S
Zn24 O23 1.953 . S
Zn24 O25 1.944 1_554 S
Zn24 O31 1.919 1_545 S
Zn24 O36 1.924 . S
O25 Zn24 1.944 1_556 S
O25 Zn26 1.927 1_545 S
O25 Zn27 1.946 1_556 S
O25 Zn28 1.949 . S
Zn26 O25 1.927 1_565 S
Zn26 O29 1.933 . S
Zn26 O32 1.941 . S
Zn26 O33 1.965 . S
Zn27 O25 1.946 1_554 S
Zn27 O34 1.938 1_545 S
Zn27 O35 1.906 . S
Zn27 O45 1.953 . S
Zn28 O25 1.949 . S
Zn28 O30 1.932 . S
Zn28 O37 1.977 . S
Zn28 O38 1.910 . S
O29 Zn26 1.933 . S
O29 C40 1.226 1_565 S
O30 Zn28 1.932 . S
O30 C40 1.307 . S
O31 Zn24 1.919 1_565 S
O31 C42 1.253 1_554 S
O32 Zn26 1.941 . S
O32 C42 1.283 . S
O33 Zn26 1.965 . S
O33 C41 1.303 1_556 S
O34 Zn27 1.938 1_565 S
O34 C41 1.247 . S
O35 Zn27 1.906 . S
O35 C43 1.304 1_554 S
O36 Zn24 1.924 . S
O36 C44 1.311 . S
O37 Zn28 1.977 . S
O37 C43 1.272 . S
O38 Zn28 1.910 . S
O38 C44 1.231 1_556 S
C39 O23 1.225 . S
C39 O45 1.298 . S
C40 O29 1.226 1_545 S
C40 O30 1.307 . S
C41 O33 1.303 1_554 S
C41 O34 1.247 . S
C42 O31 1.253 1_556 S
C42 O32 1.283 . S
C43 O35 1.304 1_556 S
C43 O37 1.272 . S
C44 O36 1.311 . S
C44 O38 1.231 1_554 S
O45 Zn27 1.953 . S
O45 C39 1.298 . S
O46 Zn47 1.953 . S
O46 C62 1.225 . S
Zn47 O46 1.953 . S
Zn47 O48 1.944 1_554 S
Zn47 O54 1.919 . S
Zn47 O59 1.924 . S
O48 Zn47 1.944 1_556 S
O48 Zn49 1.927 . S
O48 Zn50 1.945 1_556 S
O48 Zn51 1.949 . S
Zn49 O48 1.927 . S
Zn49 O52 1.933 . S
Zn49 O55 1.941 . S
Zn49 O56 1.965 . S
Zn50 O48 1.945 1_554 S
Zn50 O57 1.938 . S
Zn50 O58 1.906 . S
Zn50 O68 1.953 . S
Zn51 O48 1.949 . S
Zn51 O53 1.932 . S
Zn51 O60 1.977 . S
Zn51 O61 1.910 . S
O52 Zn49 1.933 . S
O52 C63 1.226 . S
O53 Zn51 1.932 . S
O53 C63 1.307 . S
O54 Zn47 1.919 . S
O54 C65 1.253 1_554 S
O55 Zn49 1.941 . S
O55 C65 1.283 . S
O56 Zn49 1.965 . S
O56 C64 1.303 1_556 S
O57 Zn50 1.938 . S
O57 C64 1.247 . S
O58 Zn50 1.906 . S
O58 C66 1.304 1_554 S
O59 Zn47 1.924 . S
O59 C67 1.311 . S
O60 Zn51 1.977 . S
O60 C66 1.272 . S
O61 Zn51 1.910 . S
O61 C67 1.231 1_556 S
C62 O46 1.225 . S
C62 O68 1.298 . S
C63 O52 1.226 . S
C63 O53 1.307 . S
C64 O56 1.303 1_554 S
C64 O57 1.247 . S
C65 O54 1.253 1_556 S
C65 O55 1.283 . S
C66 O58 1.304 1_556 S
C66 O60 1.272 . S
C67 O59 1.311 . S
C67 O61 1.231 1_554 S
O68 Zn50 1.953 . S
O68 C62 1.298 . S
H69 C81 0.930 . S
H70 C83 0.930 . S
H71 C84 0.930 . S
H72 C88 0.959 . S
H73 C88 0.959 . S
H74 C88 0.961 . S
H75 C89 0.960 . S
H76 C89 0.961 . S
H77 C89 0.959 1_655 S
H78 C92 0.929 . S
H79 C93 0.931 . S
H80 C95 0.930 . S
C81 H69 0.930 . S
C81 C82 1.399 . S
C81 C86 1.399 . S
C82 C81 1.399 . S
C82 C83 1.376 1_455 S
C83 H70 0.930 . S
C83 C82 1.376 1_655 S
C83 C84 1.388 . S
C84 H71 0.930 . S
C84 C83 1.388 . S
C84 C85 1.390 . S
C85 C84 1.390 . S
C85 C86 1.394 1_655 S
C85 C91 1.465 . S
C86 C81 1.399 . S
C86 C85 1.394 1_455 S
C86 C87 1.516 . S
C87 C86 1.516 . S
C87 C88 1.502 . S
C87 C89 1.561 . S
C87 C90 1.526 . S
C88 H72 0.959 . S
C88 H73 0.959 . S
C88 H74 0.961 . S
C88 C87 1.502 . S
C89 H75 0.960 . S
C89 H76 0.961 . S
C89 H77 0.959 1_455 S
C89 C87 1.561 . S
C90 C87 1.526 . S
C90 C91 1.396 1_455 S
C90 C95 1.390 . S
C91 C85 1.465 . S
C91 C90 1.396 1_655 S
C91 C92 1.399 . S
C92 H78 0.929 . S
C92 C91 1.399 . S
C92 C93 1.385 . S
C93 H79 0.931 . S
C93 C92 1.385 . S
C93 C94 1.389 1_655 S
C94 C93 1.389 1_455 S
C94 C95 1.387 . S
C95 H80 0.930 . S
C95 C90 1.390 . S
C95 C94 1.387 . S
H96 C108 0.930 . S
H97 C110 0.930 . S
H98 C111 0.930 . S
H99 C115 0.959 1_545 S
H100 C115 0.959 . S
H101 C115 0.961 . S
H102 C116 0.960 . S
H103 C116 0.961 . S
H104 C116 0.959 . S
H105 C119 0.929 . S
H106 C120 0.931 . S
H107 C122 0.930 . S
C108 H96 0.930 . S
C108 C109 1.399 1_565 S
C108 C113 1.399 1_565 S
C109 C108 1.399 1_545 S
C109 C110 1.376 . S
C110 H97 0.930 . S
C110 C109 1.376 . S
C110 C111 1.388 . S
C111 H98 0.930 . S
C111 C110 1.388 . S
C111 C112 1.390 . S
C112 C111 1.390 . S
C112 C113 1.394 . S
C112 C118 1.465 . S
C113 C108 1.399 1_545 S
C113 C112 1.394 . S
C113 C114 1.516 1_545 S
C114 C113 1.516 1_565 S
C114 C115 1.502 . S
C114 C116 1.561 . S
C114 C117 1.526 1_565 S
C115 H99 0.959 1_565 S
C115 H100 0.959 . S
C115 H101 0.961 . S
C115 C114 1.502 . S
C116 H102 0.960 . S
C116 H103 0.961 . S
C116 H104 0.959 . S
C116 C114 1.561 . S
C117 C114 1.526 1_545 S
C117 C118 1.396 . S
C117 C122 1.390 1_545 S
C118 C112 1.465 . S
C118 C117 1.396 . S
C118 C119 1.399 . S
C119 H105 0.929 . S
C119 C118 1.399 . S
C119 C120 1.385 . S
C120 H106 0.931 . S
C120 C119 1.385 . S
C120 C121 1.389 . S
C121 C120 1.389 . S
C121 C122 1.387 1_545 S
C122 H107 0.930 . S
C122 C117 1.390 1_565 S
C122 C121 1.387 1_565 S
H123 C135 0.930 . S
H124 C137 0.930 . S
H125 C138 0.930 . S
H126 C142 0.959 . S
H127 C142 0.959 . S
H128 C142 0.961 . S
H129 C143 0.960 . S
H130 C143 0.961 . S
H131 C143 0.959 . S
H132 C146 0.929 . S
H133 C147 0.931 . S
H134 C149 0.930 . S
C135 H123 0.930 . S
C135 C136 1.399 . S
C135 C140 1.399 . S
C136 C135 1.399 . S
C136 C137 1.376 . S
C137 H124 0.930 . S
C137 C136 1.376 . S
C137 C138 1.388 . S
C138 H125 0.930 . S
C138 C137 1.388 . S
C138 C139 1.390 . S
C139 C138 1.390 . S
C139 C140 1.394 . S
C139 C145 1.465 . S
C140 C135 1.399 . S
C140 C139 1.394 . S
C140 C141 1.516 . S
C141 C140 1.516 . S
C141 C142 1.502 . S
C141 C143 1.561 . S
C141 C144 1.526 . S
C142 H126 0.959 . S
C142 H127 0.959 . S
C142 H128 0.961 . S
C142 C141 1.502 . S
C143 H129 0.960 . S
C143 H130 0.961 . S
C143 H131 0.959 . S
C143 C141 1.561 . S
C144 C141 1.526 . S
C144 C145 1.396 . S
C144 C149 1.390 . S
C145 C139 1.465 . S
C145 C144 1.396 . S
C145 C146 1.399 . S
C146 H132 0.929 . S
C146 C145 1.399 . S
C146 C147 1.385 . S
C147 H133 0.931 . S
C147 C146 1.385 . S
C147 C148 1.389 . S
C148 C147 1.389 . S
C148 C149 1.387 . S
C149 H134 0.930 . S
C149 C144 1.390 . S
C149 C148 1.387 . S
H150 C162 0.930 . S
H151 C164 0.930 . S
H152 C165 0.930 . S
H153 C169 0.959 . S
H154 C169 0.959 . S
H155 C169 0.961 . S
H156 C170 0.960 . S
H157 C170 0.961 . S
H158 C170 0.959 . S
H159 C173 0.929 . S
H160 C174 0.931 . S
H161 C176 0.930 . S
C162 H150 0.930 . S
C162 C163 1.399 . S
C162 C167 1.399 . S
C163 C162 1.399 . S
C163 C164 1.376 . S
C164 H151 0.930 . S
C164 C163 1.376 . S
C164 C165 1.388 . S
C165 H152 0.930 . S
C165 C164 1.388 . S
C165 C166 1.390 . S
C166 C165 1.390 . S
C166 C167 1.394 . S
C166 C172 1.465 . S
C167 C162 1.399 . S
C167 C166 1.394 . S
C167 C168 1.516 1_554 S
C168 C167 1.516 1_556 S
C168 C169 1.502 . S
C168 C170 1.561 1_556 S
C168 C171 1.526 . S
C169 H153 0.959 . S
C169 H154 0.959 . S
C169 H155 0.961 . S
C169 C168 1.502 . S
C170 H156 0.960 . S
C170 H157 0.961 . S
C170 H158 0.959 . S
C170 C168 1.561 1_554 S
C171 C168 1.526 . S
C171 C172 1.396 1_556 S
C171 C176 1.390 . S
C172 C166 1.465 . S
C172 C171 1.396 1_554 S
C172 C173 1.399 . S
C173 H159 0.929 . S
C173 C172 1.399 . S
C173 C174 1.385 1_554 S
C174 H160 0.931 . S
C174 C173 1.385 1_556 S
C174 C175 1.389 . S
C175 C174 1.389 . S
C175 C176 1.387 . S
C176 H161 0.930 . S
C176 C171 1.390 . S
C176 C175 1.387 . S
H177 C189 0.930 . S
H178 C191 0.930 . S
H179 C192 0.930 . S
H180 C196 0.959 . S
H181 C196 0.959 . S
H182 C196 0.961 . S
H183 C197 0.960 . S
H184 C197 0.961 . S
H185 C197 0.959 . S
H186 C200 0.929 . S
H187 C201 0.931 . S
H188 C203 0.930 . S
C189 H177 0.930 . S
C189 C190 1.399 1_556 S
C189 C194 1.399 . S
C190 C189 1.399 1_554 S
C190 C191 1.376 . S
C191 H178 0.930 . S
C191 C190 1.376 . S
C191 C192 1.388 . S
C192 H179 0.930 . S
C192 C191 1.388 . S
C192 C193 1.390 . S
C193 C192 1.390 . S
C193 C194 1.394 1_554 S
C193 C199 1.465 . S
C194 C189 1.399 . S
C194 C193 1.394 1_556 S
C194 C195 1.516 . S
C195 C194 1.516 . S
C195 C196 1.502 . S
C195 C197 1.561 . S
C195 C198 1.526 . S
C196 H180 0.959 . S
C196 H181 0.959 . S
C196 H182 0.961 . S
C196 C195 1.502 . S
C197 H183 0.960 . S
C197 H184 0.961 . S
C197 H185 0.959 . S
C197 C195 1.561 . S
C198 C195 1.526 . S
C198 C199 1.396 1_556 S
C198 C203 1.390 . S
C199 C193 1.465 . S
C199 C198 1.396 1_554 S
C199 C200 1.399 . S
C200 H186 0.929 . S
C200 C199 1.399 . S
C200 C201 1.385 . S
C201 H187 0.931 . S
C201 C200 1.385 . S
C201 C202 1.389 1_554 S
C202 C201 1.389 1_556 S
C202 C203 1.387 . S
C203 H188 0.930 . S
C203 C198 1.390 . S
C203 C202 1.387 . S
H204 C216 0.930 . S
H205 C218 0.930 . S
H206 C219 0.930 . S
H207 C223 0.959 . S
H208 C223 0.959 . S
H209 C223 0.961 . S
H210 C224 0.960 . S
H211 C224 0.961 . S
H212 C224 0.959 . S
H213 C227 0.929 . S
H214 C228 0.931 . S
H215 C230 0.930 . S
C216 H204 0.930 . S
C216 C217 1.399 1_554 S
C216 C221 1.399 . S
C217 C216 1.399 1_556 S
C217 C218 1.376 . S
C218 H205 0.930 . S
C218 C217 1.376 . S
C218 C219 1.388 . S
C219 H206 0.930 . S
C219 C218 1.388 . S
C219 C220 1.390 . S
C220 C219 1.390 . S
C220 C221 1.394 1_556 S
C220 C226 1.465 . S
C221 C216 1.399 . S
C221 C220 1.394 1_554 S
C221 C222 1.516 . S
C222 C221 1.516 . S
C222 C223 1.502 . S
C222 C224 1.561 . S
C222 C225 1.526 . S
C223 H207 0.959 . S
C223 H208 0.959 . S
C223 H209 0.961 . S
C223 C222 1.502 . S
C224 H210 0.960 . S
C224 H211 0.961 . S
C224 H212 0.959 . S
C224 C222 1.561 . S
C225 C222 1.526 . S
C225 C226 1.396 1_554 S
C225 C230 1.390 . S
C226 C220 1.465 . S
C226 C225 1.396 1_556 S
C226 C227 1.399 . S
C227 H213 0.929 . S
C227 C226 1.399 . S
C227 C228 1.385 . S
C228 H214 0.931 . S
C228 C227 1.385 . S
C228 C229 1.389 1_556 S
C229 C228 1.389 1_554 S
C229 C230 1.387 . S
C230 H215 0.930 . S
C230 C225 1.390 . S
C230 C229 1.387 . S
H231 C243 0.930 . S
H232 C245 0.930 . S
H233 C246 0.930 . S
H234 C250 0.959 . S
H235 C250 0.959 . S
H236 C250 0.961 . S
H237 C251 0.960 . S
H238 C251 0.961 . S
H239 C251 0.959 . S
H240 C254 0.929 . S
H241 C255 0.931 . S
H242 C257 0.930 . S
C243 H231 0.930 . S
C243 C244 1.399 1_556 S
C243 C248 1.399 . S
C244 C243 1.399 1_554 S
C244 C245 1.376 . S
C245 H232 0.930 . S
C245 C244 1.376 . S
C245 C246 1.388 . S
C246 H233 0.930 . S
C246 C245 1.388 . S
C246 C247 1.390 . S
C247 C246 1.390 . S
C247 C248 1.394 1_554 S
C247 C253 1.465 . S
C248 C243 1.399 . S
C248 C247 1.394 1_556 S
C248 C249 1.516 . S
C249 C248 1.516 . S
C249 C250 1.502 . S
C249 C251 1.561 . S
C249 C252 1.526 . S
C250 H234 0.959 . S
C250 H235 0.959 . S
C250 H236 0.961 . S
C250 C249 1.502 . S
C251 H237 0.960 . S
C251 H238 0.961 . S
C251 H239 0.959 . S
C251 C249 1.561 . S
C252 C249 1.526 . S
C252 C253 1.396 1_556 S
C252 C257 1.390 . S
C253 C247 1.465 . S
C253 C252 1.396 1_554 S
C253 C254 1.399 . S
C254 H240 0.929 . S
C254 C253 1.399 . S
C254 C255 1.385 . S
C255 H241 0.931 . S
C255 C254 1.385 . S
C255 C256 1.389 1_554 S
C256 C255 1.389 1_556 S
C256 C257 1.387 . S
C257 H242 0.930 . S
C257 C252 1.390 . S
C257 C256 1.387 . S
H258 C270 0.930 . S
H259 C272 0.930 . S
H260 C273 0.930 . S
H261 C277 0.959 . S
H262 C277 0.959 . S
H263 C277 0.961 . S
H264 C278 0.960 . S
H265 C278 0.961 . S
H266 C278 0.959 . S
H267 C281 0.929 . S
H268 C282 0.931 . S
H269 C284 0.930 . S
C270 H258 0.930 . S
C270 C271 1.399 1_554 S
C270 C275 1.399 . S
C271 C270 1.399 1_556 S
C271 C272 1.376 . S
C272 H259 0.930 . S
C272 C271 1.376 . S
C272 C273 1.388 . S
C273 H260 0.930 . S
C273 C272 1.388 . S
C273 C274 1.390 . S
C274 C273 1.390 . S
C274 C275 1.394 1_556 S
C274 C280 1.465 . S
C275 C270 1.399 . S
C275 C274 1.394 1_554 S
C275 C276 1.516 . S
C276 C275 1.516 . S
C276 C277 1.502 . S
C276 C278 1.561 . S
C276 C279 1.526 . S
C277 H261 0.959 . S
C277 H262 0.959 . S
C277 H263 0.961 . S
C277 C276 1.502 . S
C278 H264 0.960 . S
C278 H265 0.961 . S
C278 H266 0.959 . S
C278 C276 1.561 . S
C279 C276 1.526 . S
C279 C280 1.396 1_554 S
C279 C284 1.390 . S
C280 C274 1.465 . S
C280 C279 1.396 1_556 S
C280 C281 1.399 . S
C281 H267 0.929 . S
C281 C280 1.399 . S
C281 C282 1.385 . S
C282 H268 0.931 . S
C282 C281 1.385 . S
C282 C283 1.389 1_556 S
C283 C282 1.389 1_554 S
C283 C284 1.387 . S
C284 H269 0.930 . S
C284 C279 1.390 . S
C284 C283 1.387 . S
H285 C297 0.930 . S
H286 C299 0.930 . S
H287 C300 0.930 . S
H288 C304 0.959 . S
H289 C304 0.959 . S
H290 C304 0.961 . S
H291 C305 0.960 . S
H292 C305 0.961 . S
H293 C305 0.959 1_554 S
H294 C308 0.929 . S
H295 C309 0.931 . S
H296 C311 0.930 . S
C297 H285 0.930 . S
C297 C298 1.399 1_556 S
C297 C302 1.399 . S
C298 C297 1.399 1_554 S
C298 C299 1.376 . S
C299 H286 0.930 . S
C299 C298 1.376 . S
C299 C300 1.388 . S
C300 H287 0.930 . S
C300 C299 1.388 . S
C300 C301 1.390 . S
C301 C300 1.390 . S
C301 C302 1.394 1_554 S
C301 C307 1.465 . S
C302 C297 1.399 . S
C302 C301 1.394 1_556 S
C302 C303 1.516 . S
C303 C302 1.516 . S
C303 C304 1.502 . S
C303 C305 1.561 . S
C303 C306 1.526 . S
C304 H288 0.959 . S
C304 H289 0.959 . S
C304 H290 0.961 . S
C304 C303 1.502 . S
C305 H291 0.960 . S
C305 H292 0.961 . S
C305 H293 0.959 1_556 S
C305 C303 1.561 . S
C306 C303 1.526 . S
C306 C307 1.396 1_556 S
C306 C311 1.390 . S
C307 C301 1.465 . S
C307 C306 1.396 1_554 S
C307 C308 1.399 . S
C308 H294 0.929 . S
C308 C307 1.399 . S
C308 C309 1.385 . S
C309 H295 0.931 . S
C309 C308 1.385 . S
C309 C310 1.389 1_554 S
C310 C309 1.389 1_556 S
C310 C311 1.387 . S
C311 H296 0.930 . S
C311 C306 1.390 . S
C311 C310 1.387 . S
C82 C16 1.494 . S
C94 C17 1.490 . S
C109 C39 1.489 . S
C121 C40 1.497 . S
C136 C63 1.490 . S
C148 C62 1.493 . S
C163 C19 1.084 . S
C175 C66 1.039 . S
C190 C44 1.025 . S
C202 C21 0.953 . S
C217 C42 1.015 . S
C229 C67 0.977 . S
C244 C20 1.028 . S
C256 C65 0.976 . S
C271 C18 1.145 . S
C283 C41 1.061 . S
C298 C64 1.123 . S
C310 C43 1.039 . S
