# Generated by pormake.
# Topology unh, (4)-cn, num edge types: 1
# Building blocks:
#     Node 0, Type 0, BuildingBlock: QUQFOY_clean_sbu_1, # of connection points: 4
#     Node 1, Type 0, BuildingBlock: QUQFOY_clean_sbu_1, # of connection points: 4
#     Node 2, Type 0, BuildingBlock: QUQFOY_clean_sbu_1, # of connection points: 4
#     Node 3, Type 0, BuildingBlock: QUQFOY_clean_sbu_1, # of connection points: 4
#     Node 4, Type 0, BuildingBlock: QUQFOY_clean_sbu_1, # of connection points: 4
#     Node 5, Type 0, BuildingBlock: QUQFOY_clean_sbu_1, # of connection points: 4
#     Edge 6, Type (0, 0), BuildingBlock: KIFKEQ_clean_linker_1, # of connection points: 2
#     Edge 7, Type (0, 0), BuildingBlock: KIFKEQ_clean_linker_1, # of connection points: 2
#     Edge 8, Type (0, 0), BuildingBlock: KIFKEQ_clean_linker_1, # of connection points: 2
#     Edge 9, Type (0, 0), BuildingBlock: KIFKEQ_clean_linker_1, # of connection points: 2
#     Edge 10, Type (0, 0), BuildingBlock: KIFKEQ_clean_linker_1, # of connection points: 2
#     Edge 11, Type (0, 0), BuildingBlock: KIFKEQ_clean_linker_1, # of connection points: 2
#     Edge 12, Type (0, 0), BuildingBlock: KIFKEQ_clean_linker_1, # of connection points: 2
#     Edge 13, Type (0, 0), BuildingBlock: KIFKEQ_clean_linker_1, # of connection points: 2
#     Edge 14, Type (0, 0), BuildingBlock: KIFKEQ_clean_linker_1, # of connection points: 2
#     Edge 15, Type (0, 0), BuildingBlock: KIFKEQ_clean_linker_1, # of connection points: 2
#     Edge 16, Type (0, 0), BuildingBlock: KIFKEQ_clean_linker_1, # of connection points: 2
#     Edge 17, Type (0, 0), BuildingBlock: KIFKEQ_clean_linker_1, # of connection points: 2
# Relax obj value: 0.055
# Max RMSD: 0.146
# Mean RMSD: 0.146
data_MOF--net-unh--node1-QUQFOY_clean_sbu_1--edge1-KIFKEQ_clean_linker_1
_symmetry_space_group_name_H-M    P1
_symmetry_Int_Tables_number       1
_symmetry_cell_setting            triclinic
loop_
_symmetry_equiv_pos_as_xyz
'x, y, z'
_cell_length_a     44.557213
_cell_length_b     44.568141
_cell_length_c     23.116807
_cell_angle_alpha  90.03682
_cell_angle_beta   89.921455
_cell_angle_gamma 119.99589
loop_
_atom_site_label
_atom_site_type_symbol
_atom_site_fract_x
_atom_site_fract_y
_atom_site_fract_z
_atom_type_partial_charge
O0 O 0.08211 0.55941 0.02628 0.0
Cd1 Cd 0.11707 0.59511 0.08425 0.0
Cd2 Cd 0.15258 0.5637 0.05398 0.0
O3 O 0.10759 0.52838 0.01262 0.0
O4 O 0.08861 0.60619 0.13753 0.0
O5 O 0.11584 0.57846 0.16505 0.0
C6 C 0.09497 0.5898 0.17731 0.0
C7 C 0.18341 0.54718 0.11543 0.0
C8 C 0.08224 0.53337 0.00401 0.0
C9 C 0.18186 0.6387 0.01918 0.0
O10 O 0.18204 0.61047 0.01273 0.0
O11 O 0.15916 0.63978 0.05123 0.0
O12 O 0.18373 0.54365 0.06008 0.0
O13 O 0.16411 0.55861 0.13625 0.0
O14 O 0.53072 0.08019 0.1927 0.0
Cd15 Cd 0.52974 0.11538 0.24984 0.0
Cd16 Cd 0.59741 0.15056 0.22047 0.0
O17 O 0.58728 0.10513 0.17988 0.0
O18 O 0.48897 0.08725 0.30141 0.0
O19 O 0.54337 0.11366 0.33157 0.0
C20 C 0.51092 0.09326 0.34243 0.0
C21 C 0.64109 0.17916 0.28906 0.0
C22 C 0.55685 0.07997 0.17102 0.0
C23 C 0.55297 0.18069 0.18398 0.0
O24 O 0.5813 0.18058 0.17793 0.0
O25 O 0.52887 0.15812 0.21575 0.0
O26 O 0.64841 0.18018 0.23478 0.0
O27 O 0.60907 0.1606 0.30447 0.0
O28 O 0.44616 0.52384 0.35537 0.0
Cd29 Cd 0.41412 0.52648 0.41715 0.0
Cd30 Cd 0.45007 0.59378 0.38829 0.0
O31 O 0.48375 0.57987 0.35084 0.0
O32 O 0.40096 0.48761 0.47369 0.0
O33 O 0.43561 0.54296 0.4946 0.0
C34 C 0.42117 0.51094 0.51022 0.0
C35 C 0.46621 0.6385 0.45561 0.0
C36 C 0.47475 0.54879 0.33718 0.0
C37 C 0.37488 0.55335 0.3538 0.0
O38 O 0.40457 0.57967 0.34452 0.0
O39 O 0.37171 0.52957 0.38806 0.0
O40 O 0.47383 0.64526 0.40149 0.0
O41 O 0.45104 0.60651 0.47158 0.0
O42 O 0.92675 0.44421 0.52292 0.0
Cd43 Cd 0.89324 0.41176 0.58499 0.0
Cd44 Cd 0.85814 0.44479 0.55941 0.0
O45 O 0.90331 0.47742 0.51386 0.0
O46 O 0.92019 0.40135 0.64259 0.0
O47 O 0.89592 0.43321 0.66186 0.0
C48 C 0.91504 0.42059 0.67846 0.0
C49 C 0.83011 0.46613 0.6183 0.0
C50 C 0.92724 0.47072 0.50154 0.0
C51 C 0.82505 0.36799 0.53051 0.0
O52 O 0.82469 0.39624 0.52538 0.0
O53 O 0.84985 0.36743 0.55662 0.0
O54 O 0.82916 0.4675 0.56266 0.0
O55 O 0.84872 0.4544 0.64075 0.0
O56 O 0.48651 0.92567 0.68826 0.0
Cd57 Cd 0.48574 0.89197 0.74959 0.0
Cd58 Cd 0.41756 0.85677 0.72412 0.0
O59 O 0.42984 0.90175 0.67848 0.0
O60 O 0.52356 0.9188 0.80656 0.0
O61 O 0.46761 0.89451 0.82726 0.0
C62 C 0.49949 0.91358 0.8432 0.0
C63 C 0.3684 0.8292 0.7835 0.0
C64 C 0.46041 0.92592 0.66663 0.0
C65 C 0.46137 0.8239 0.69424 0.0
O66 O 0.43263 0.82333 0.6898 0.0
O67 O 0.48679 0.84879 0.72012 0.0
O68 O 0.3659 0.82792 0.72789 0.0
O69 O 0.39885 0.84776 0.80564 0.0
O70 O 0.55595 0.4773 0.85851 0.0
Cd71 Cd 0.59173 0.47776 0.91611 0.0
Cd72 Cd 0.56092 0.41121 0.88357 0.0
O73 O 0.5259 0.42107 0.84172 0.0
O74 O 0.6031 0.51721 0.9697 0.0
O75 O 0.57543 0.46226 0.99718 0.0
C76 C 0.58702 0.49447 0.00966 0.0
C77 C 0.54375 0.36356 0.94458 0.0
C78 C 0.53044 0.45135 0.8347 0.0
C79 C 0.63612 0.45753 0.85054 0.0
O80 O 0.60813 0.42897 0.84345 0.0
O81 O 0.63664 0.48096 0.88276 0.0
O82 O 0.54084 0.36 0.88913 0.0
O83 O 0.55502 0.39418 0.96569 0.0
H84 H 0.01658 0.52312 1.00096 0.0
H85 H 0.08347 0.4917 0.91842 0.0
H86 H 0.97138 0.48984 0.93055 0.0
H87 H 0.03914 0.45994 0.84598 0.0
H88 H 0.94918 0.39195 0.73324 0.0
H89 H 0.98523 0.41342 0.81956 0.0
H90 H 0.95998 0.49507 0.83422 0.0
H91 H 0.92276 0.47249 0.75013 0.0
C92 C 0.02157 0.509 0.96775 0.0
C93 C 0.05366 0.51024 0.96494 0.0
C94 C 0.99574 0.49008 0.92705 0.0
C95 C 1.0016 0.47248 0.88177 0.0
C96 C 0.03333 0.47269 0.88046 0.0
C97 C 0.05893 0.49111 0.92186 0.0
C98 C 0.95088 0.41409 0.75567 0.0
C99 C 0.93324 0.43061 0.73473 0.0
C100 C 0.97181 0.42663 0.8049 0.0
C101 C 0.97599 0.4563 0.83383 0.0
C102 C 0.95715 0.47189 0.81395 0.0
C103 C 0.93585 0.45904 0.76532 0.0
H104 H 0.56266 0.94712 0.89684 0.0
H105 H 0.45605 0.9215 0.91652 0.0
H106 H 0.57807 0.98283 0.98375 0.0
H107 H 0.47152 0.95841 1.00122 0.0
H108 H 0.50132 0.01443 0.16832 0.0
H109 H 0.48874 0.96934 0.09725 0.0
H110 H 0.58617 0.03674 0.01182 0.0
H111 H 0.59941 0.08094 0.08492 0.0
C112 C 0.54247 0.94894 0.92 0.0
C113 C 0.50817 0.93161 0.8997 0.0
C114 C 0.55134 0.96967 0.96959 0.0
C115 C 0.5262 0.97398 0.99952 0.0
C116 C 0.49162 0.95546 0.9802 0.0
C117 C 0.48269 0.93435 0.93122 0.0
C118 C 0.52026 0.01934 0.13481 0.0
C119 C 0.55123 0.05131 0.13193 0.0
C120 C 0.51296 0.99358 0.09372 0.0
C121 C 0.53612 0.9994 0.04794 0.0
C122 C 0.5678 0.03096 0.04663 0.0
C123 C 0.57538 0.05649 0.08844 0.0
H124 H 0.53996 0.59396 0.29572 0.0
H125 H 0.45838 0.48691 0.28771 0.0
H126 H 0.57326 0.58203 0.22466 0.0
H127 H 0.49074 0.47534 0.21552 0.0
H128 H 0.5602 0.45468 0.10675 0.0
H129 H 0.5387 0.46892 0.1935 0.0
H130 H 0.5718 0.57094 0.12445 0.0
H131 H 0.59458 0.55717 0.03925 0.0
C132 C 0.52918 0.56787 0.27899 0.0
C133 C 0.49641 0.54146 0.29727 0.0
C134 C 0.54819 0.56105 0.23799 0.0
C135 C 0.53474 0.52771 0.21396 0.0
C136 C 0.50236 0.50117 0.23359 0.0
C137 C 0.48357 0.50791 0.27483 0.0
C138 C 0.56348 0.48037 0.1107 0.0
C139 C 0.57884 0.50468 0.06591 0.0
C140 C 0.55089 0.48848 0.16025 0.0
C141 C 0.55291 0.52092 0.1658 0.0
C142 C 0.56999 0.54582 0.12222 0.0
C143 C 0.58296 0.53785 0.07304 0.0
H144 H 0.9431 0.53435 0.45777 0.0
H145 H 0.97482 0.45728 0.45211 0.0
H146 H 0.98801 0.56928 0.38723 0.0
H147 H 0.01838 0.49114 0.38037 0.0
H148 H 0.10839 0.56412 0.27519 0.0
H149 H 0.07156 0.54076 0.36037 0.0
H150 H 1.0 0.56943 0.28787 0.0
H151 H 0.03768 0.5942 0.20435 0.0
C152 C 0.95963 0.52486 0.44151 0.0
C153 C 0.95527 0.49297 0.46053 0.0
C154 C 0.98531 0.54481 0.40084 0.0
C155 C 0.00699 0.53316 0.37786 0.0
C156 C 1.00283 0.50148 0.39777 0.0
C157 C 0.97751 0.4818 0.43872 0.0
C158 C 0.08515 0.56605 0.2781 0.0
C159 C 0.07583 0.58077 0.23284 0.0
C160 C 0.06381 0.55236 0.32671 0.0
C161 C 0.03234 0.55253 0.33076 0.0
C162 C 0.02408 0.56901 0.28678 0.0
C163 C 0.04567 0.58314 0.23859 0.0
H164 H 0.44922 0.03526 0.36678 0.0
H165 H 0.54781 0.10767 0.44284 0.0
H166 H 0.43543 0.99763 0.45063 0.0
H167 H 0.53343 0.07091 0.52815 0.0
H168 H 0.52165 0.97487 0.61978 0.0
H169 H 0.53127 0.01833 0.54807 0.0
H170 H 0.422 0.98515 0.54988 0.0
H171 H 0.41214 0.94036 0.62053 0.0
C172 C 0.46753 0.04363 0.40222 0.0
C173 C 0.49979 0.07422 0.3979 0.0
C174 C 0.45957 0.02207 0.45055 0.0
C175 C 0.48354 0.03084 0.49599 0.0
C176 C 0.51473 0.06278 0.49334 0.0
C177 C 0.52288 0.08406 0.44466 0.0
C178 C 0.49963 0.97691 0.60532 0.0
C179 C 0.46607 0.95393 0.62576 0.0
C180 C 0.50521 1.00218 0.56439 0.0
C181 C 0.47747 0.00552 0.54309 0.0
C182 C 0.44395 0.9831 0.56467 0.0
C183 C 0.43829 0.9575 0.60539 0.0
H184 H 0.51895 0.50598 0.83426 0.0
H185 H 0.49031 0.40979 0.74661 0.0
H186 H 0.48612 0.51857 0.76399 0.0
H187 H 0.45901 0.42311 0.67433 0.0
H188 H 0.39207 0.44675 0.56093 0.0
H189 H 0.41242 0.43044 0.64686 0.0
H190 H 0.49311 0.53718 0.66864 0.0
H191 H 0.47173 0.55346 0.5851 0.0
C192 C 0.50553 0.48747 0.79996 0.0
C193 C 0.50746 0.45705 0.79566 0.0
C194 C 0.48687 0.49478 0.75935 0.0
C195 C 0.47024 0.47219 0.71265 0.0
C196 C 0.47104 0.44101 0.70988 0.0
C197 C 0.4892 0.43341 0.75119 0.0
C198 C 0.41374 0.46675 0.58486 0.0
C199 C 0.43035 0.50136 0.56607 0.0
C200 C 0.42564 0.45739 0.63387 0.0
C201 C 0.45468 0.48237 0.66475 0.0
C202 C 0.47036 0.51719 0.64691 0.0
C203 C 0.4582 0.52657 0.59852 0.0
H204 H 0.18632 0.54787 0.23413 0.0
H205 H 0.2342 0.5339 0.08157 0.0
H206 H 0.23055 0.54596 0.29452 0.0
H207 H 0.27829 0.53242 0.14177 0.0
H208 H 0.37546 0.58888 0.25786 0.0
H209 H 0.32627 0.5827 0.2026 0.0
H210 H 0.25601 0.50446 0.32173 0.0
H211 H 0.3056 0.51019 0.37728 0.0
C212 C 0.20591 0.54388 0.21358 0.0
C213 C 0.2069 0.54131 0.15301 0.0
C214 C 0.23111 0.54269 0.24816 0.0
C215 C 0.25796 0.5394 0.22265 0.0
C216 C 0.25805 0.53534 0.16243 0.0
C217 C 0.23269 0.53606 0.12803 0.0
C218 C 0.34959 0.57037 0.27257 0.0
C219 C 0.34448 0.54998 0.32199 0.0
C220 C 0.32143 0.5667 0.24062 0.0
C221 C 0.2874 0.54293 0.25768 0.0
C222 C 0.28204 0.52297 0.30773 0.0
C223 C 0.31038 0.5262 0.33932 0.0
H224 H 0.71146 0.21252 0.27495 0.0
H225 H 0.63182 0.19568 0.39883 0.0
H226 H 0.75557 0.25441 0.34056 0.0
H227 H 0.67594 0.2379 0.46388 0.0
H228 H 0.76003 0.35427 0.50256 0.0
H229 H 0.71532 0.30414 0.45065 0.0
H230 H 0.78211 0.25994 0.44359 0.0
H231 H 0.82691 0.31002 0.49656 0.0
C232 C 0.70343 0.21737 0.31649 0.0
C233 C 0.66815 0.20094 0.33156 0.0
C234 C 0.72869 0.24123 0.35411 0.0
C235 C 0.7191 0.2495 0.40709 0.0
C236 C 0.68397 0.23214 0.4231 0.0
C237 C 0.65877 0.20788 0.38593 0.0
C238 C 0.76507 0.33369 0.49057 0.0
C239 C 0.79703 0.33614 0.50351 0.0
C240 C 0.73938 0.30491 0.46115 0.0
C241 C 0.74529 0.2782 0.44313 0.0
C242 C 0.77698 0.28026 0.45689 0.0
C243 C 0.80249 0.3088 0.48738 0.0
H244 H 0.41017 0.75889 0.66605 0.0
H245 H 0.52126 0.826 0.65952 0.0
H246 H 0.41567 0.71422 0.61413 0.0
H247 H 0.52663 0.7812 0.60654 0.0
H248 H 0.50352 0.70884 0.4397 0.0
H249 H 0.50577 0.75362 0.50391 0.0
H250 H 0.44258 0.67522 0.62877 0.0
H251 H 0.4406 0.63051 0.56523 0.0
C252 C 0.43579 0.764 0.65389 0.0
C253 C 0.46527 0.79599 0.66681 0.0
C254 C 0.43894 0.73835 0.62443 0.0
C255 C 0.47158 0.74427 0.60635 0.0
C256 C 0.50117 0.77605 0.61987 0.0
C257 C 0.49808 0.80155 0.6504 0.0
C258 C 0.49063 0.70123 0.48128 0.0
C259 C 0.47171 0.6661 0.49719 0.0
C260 C 0.49204 0.72688 0.51809 0.0
C261 C 0.47414 0.71781 0.57107 0.0
C262 C 0.45637 0.68286 0.58794 0.0
C263 C 0.45539 0.65731 0.55161 0.0
H264 H 0.70467 0.50407 0.87463 0.0
H265 H 0.6384 0.4243 0.75379 0.0
H266 H 0.75583 0.51237 0.82024 0.0
H267 H 0.68897 0.43308 0.69966 0.0
H268 H 0.78143 0.48179 0.58175 0.0
H269 H 0.73731 0.48468 0.64 0.0
H270 H 0.78276 0.47103 0.79526 0.0
H271 H 0.82701 0.4677 0.7369 0.0
C272 C 0.70102 0.4885 0.83647 0.0
C273 C 0.6675 0.46348 0.81859 0.0
C274 C 0.73022 0.4932 0.80555 0.0
C275 C 0.72624 0.47355 0.75556 0.0
C276 C 0.69276 0.44885 0.73764 0.0
C277 C 0.66381 0.44369 0.76895 0.0
C278 C 0.78254 0.48006 0.62836 0.0
C279 C 0.80753 0.47412 0.65461 0.0
C280 C 0.75718 0.48163 0.66165 0.0
C281 C 0.75649 0.47775 0.72199 0.0
C282 C 0.78283 0.47421 0.7488 0.0
C283 C 0.80804 0.47219 0.71535 0.0
H284 H 0.30373 0.78087 0.74774 0.0
H285 H 0.36405 0.82699 0.90214 0.0
H286 H 0.25648 0.73773 0.80675 0.0
H287 H 0.31623 0.78371 0.96127 0.0
H288 H 0.20483 0.70762 0.04178 0.0
H289 H 0.24809 0.75803 0.98644 0.0
H290 H 0.25901 0.68942 0.86753 0.0
H291 H 0.21682 0.6396 0.92256 0.0
C292 C 0.30668 0.7823 0.79433 0.0
C293 C 0.33785 0.80716 0.82018 0.0
C294 C 0.27961 0.75752 0.82806 0.0
C295 C 0.28289 0.75726 0.88843 0.0
C296 C 0.31304 0.78346 0.91479 0.0
C297 C 0.34041 0.80811 0.88091 0.0
C298 C 0.2165 0.70343 0.00377 0.0
C299 C 0.20747 0.66965 0.98663 0.0
C300 C 0.24124 0.7322 0.97232 0.0
C301 C 0.25659 0.7275 0.92253 0.0
C302 C 0.24727 0.69376 0.90533 0.0
C303 C 0.22326 0.66524 0.93717 0.0
H304 H 0.54306 0.36066 0.0633 0.0
H305 H 0.53079 0.29968 0.91041 0.0
H306 H 0.54081 0.31431 0.12363 0.0
H307 H 0.52904 0.25395 0.9706 0.0
H308 H 0.58836 0.2166 0.08878 0.0
H309 H 0.58055 0.25845 0.03299 0.0
H310 H 0.49911 0.2459 0.149 0.0
H311 H 0.50643 0.20305 0.20501 0.0
C312 C 0.53932 0.33721 0.04266 0.0
C313 C 0.53741 0.33398 0.98202 0.0
C314 C 0.53792 0.31069 0.07721 0.0
C315 C 0.53506 0.28079 0.0516 0.0
C316 C 0.53153 0.27691 0.9913 0.0
C317 C 0.53245 0.30309 0.95692 0.0
C318 C 0.56875 0.22266 0.10263 0.0
C319 C 0.548 0.20648 0.15137 0.0
C320 C 0.56416 0.24648 0.07039 0.0
C321 C 0.5391 0.25517 0.08653 0.0
C322 C 0.5186 0.23954 0.13574 0.0
C323 C 0.52273 0.21503 0.16757 0.0
loop_
_geom_bond_atom_site_label_1
_geom_bond_atom_site_label_2
_geom_bond_distance
_geom_bond_site_symmetry_2
_ccdc_geom_bond_type
O0 Cd1 2.223 . S
O0 C8 1.315 . S
Cd1 O0 2.223 . S
Cd1 O4 2.297 . S
Cd1 O5 2.439 . S
Cd1 O11 2.240 . S
Cd2 O3 2.240 . S
Cd2 O10 2.223 1_554 S
Cd2 O12 2.297 . S
Cd2 O13 2.439 . S
O3 Cd2 2.240 . S
O3 C8 1.279 . S
O4 Cd1 2.297 . S
O4 C6 1.247 . S
O5 Cd1 2.439 . S
O5 C6 1.208 . S
C6 O4 1.247 . S
C6 O5 1.208 . S
C7 O12 1.247 . S
C7 O13 1.208 . S
C8 O0 1.315 . S
C8 O3 1.279 . S
C9 O10 1.315 1_554 S
C9 O11 1.279 . S
O10 Cd2 2.223 1_556 S
O10 C9 1.315 1_556 S
O11 Cd1 2.240 . S
O11 C9 1.279 . S
O12 Cd2 2.297 . S
O12 C7 1.247 . S
O13 Cd2 2.439 . S
O13 C7 1.208 . S
O14 Cd15 2.223 . S
O14 C22 1.315 . S
Cd15 O14 2.223 . S
Cd15 O18 2.297 . S
Cd15 O19 2.439 . S
Cd15 O25 2.240 . S
Cd16 O17 2.240 . S
Cd16 O24 2.223 . S
Cd16 O26 2.297 . S
Cd16 O27 2.439 . S
O17 Cd16 2.240 . S
O17 C22 1.279 . S
O18 Cd15 2.297 . S
O18 C20 1.247 . S
O19 Cd15 2.439 . S
O19 C20 1.208 . S
C20 O18 1.247 . S
C20 O19 1.208 . S
C21 O26 1.247 . S
C21 O27 1.208 . S
C22 O14 1.315 . S
C22 O17 1.279 . S
C23 O24 1.315 . S
C23 O25 1.279 . S
O24 Cd16 2.223 . S
O24 C23 1.315 . S
O25 Cd15 2.240 . S
O25 C23 1.279 . S
O26 Cd16 2.297 . S
O26 C21 1.247 . S
O27 Cd16 2.439 . S
O27 C21 1.208 . S
O28 Cd29 2.223 . S
O28 C36 1.315 . S
Cd29 O28 2.223 . S
Cd29 O32 2.297 . S
Cd29 O33 2.439 . S
Cd29 O39 2.240 . S
Cd30 O31 2.240 . S
Cd30 O38 2.223 . S
Cd30 O40 2.297 . S
Cd30 O41 2.439 . S
O31 Cd30 2.240 . S
O31 C36 1.279 . S
O32 Cd29 2.297 . S
O32 C34 1.247 . S
O33 Cd29 2.439 . S
O33 C34 1.208 . S
C34 O32 1.247 . S
C34 O33 1.208 . S
C35 O40 1.247 . S
C35 O41 1.208 . S
C36 O28 1.315 . S
C36 O31 1.279 . S
C37 O38 1.315 . S
C37 O39 1.279 . S
O38 Cd30 2.223 . S
O38 C37 1.315 . S
O39 Cd29 2.240 . S
O39 C37 1.279 . S
O40 Cd30 2.297 . S
O40 C35 1.247 . S
O41 Cd30 2.439 . S
O41 C35 1.208 . S
O42 Cd43 2.223 . S
O42 C50 1.315 . S
Cd43 O42 2.223 . S
Cd43 O46 2.297 . S
Cd43 O47 2.439 . S
Cd43 O53 2.240 . S
Cd44 O45 2.240 . S
Cd44 O52 2.223 . S
Cd44 O54 2.297 . S
Cd44 O55 2.439 . S
O45 Cd44 2.240 . S
O45 C50 1.279 . S
O46 Cd43 2.297 . S
O46 C48 1.247 . S
O47 Cd43 2.439 . S
O47 C48 1.208 . S
C48 O46 1.247 . S
C48 O47 1.208 . S
C49 O54 1.247 . S
C49 O55 1.208 . S
C50 O42 1.315 . S
C50 O45 1.279 . S
C51 O52 1.315 . S
C51 O53 1.279 . S
O52 Cd44 2.223 . S
O52 C51 1.315 . S
O53 Cd43 2.240 . S
O53 C51 1.279 . S
O54 Cd44 2.297 . S
O54 C49 1.247 . S
O55 Cd44 2.439 . S
O55 C49 1.208 . S
O56 Cd57 2.223 . S
O56 C64 1.315 . S
Cd57 O56 2.223 . S
Cd57 O60 2.297 . S
Cd57 O61 2.439 . S
Cd57 O67 2.240 . S
Cd58 O59 2.240 . S
Cd58 O66 2.223 . S
Cd58 O68 2.297 . S
Cd58 O69 2.439 . S
O59 Cd58 2.240 . S
O59 C64 1.279 . S
O60 Cd57 2.297 . S
O60 C62 1.247 . S
O61 Cd57 2.439 . S
O61 C62 1.208 . S
C62 O60 1.247 . S
C62 O61 1.208 . S
C63 O68 1.247 . S
C63 O69 1.208 . S
C64 O56 1.315 . S
C64 O59 1.279 . S
C65 O66 1.315 . S
C65 O67 1.279 . S
O66 Cd58 2.223 . S
O66 C65 1.315 . S
O67 Cd57 2.240 . S
O67 C65 1.279 . S
O68 Cd58 2.297 . S
O68 C63 1.247 . S
O69 Cd58 2.439 . S
O69 C63 1.208 . S
O70 Cd71 2.223 . S
O70 C78 1.315 . S
Cd71 O70 2.223 . S
Cd71 O74 2.297 . S
Cd71 O75 2.439 1_556 S
Cd71 O81 2.240 . S
Cd72 O73 2.240 . S
Cd72 O80 2.223 . S
Cd72 O82 2.297 . S
Cd72 O83 2.439 . S
O73 Cd72 2.240 . S
O73 C78 1.279 . S
O74 Cd71 2.297 . S
O74 C76 1.247 1_556 S
O75 Cd71 2.439 1_554 S
O75 C76 1.208 . S
C76 O74 1.247 1_554 S
C76 O75 1.208 . S
C77 O82 1.247 . S
C77 O83 1.208 . S
C78 O70 1.315 . S
C78 O73 1.279 . S
C79 O80 1.315 . S
C79 O81 1.279 . S
O80 Cd72 2.223 . S
O80 C79 1.315 . S
O81 Cd71 2.240 . S
O81 C79 1.279 . S
O82 Cd72 2.297 . S
O82 C77 1.247 . S
O83 Cd72 2.439 . S
O83 C77 1.208 . S
H84 C92 0.950 1_554 S
H85 C97 0.950 . S
H86 C94 0.981 . S
H87 C96 0.950 . S
H88 C98 0.950 . S
H89 C100 0.950 . S
H90 C102 0.950 . S
H91 C103 0.950 . S
C92 H84 0.950 1_556 S
C92 C93 1.386 . S
C92 C94 1.391 . S
C93 C92 1.386 . S
C93 C97 1.393 . S
C94 H86 0.981 . S
C94 C92 1.391 . S
C94 C95 1.400 . S
C95 C94 1.400 . S
C95 C96 1.398 . S
C95 C101 1.491 . S
C96 H87 0.950 . S
C96 C95 1.398 . S
C96 C97 1.391 . S
C97 H85 0.950 . S
C97 C93 1.393 . S
C97 C96 1.391 . S
C98 H88 0.950 . S
C98 C99 1.386 . S
C98 C100 1.391 1_655 S
C99 C98 1.386 . S
C99 C103 1.393 . S
C100 H89 0.950 . S
C100 C98 1.391 1_455 S
C100 C101 1.400 . S
C101 C95 1.491 . S
C101 C100 1.400 . S
C101 C102 1.398 1_455 S
C102 H90 0.950 . S
C102 C101 1.398 1_655 S
C102 C103 1.391 . S
C103 H91 0.950 . S
C103 C99 1.393 . S
C103 C102 1.391 . S
H104 C112 0.950 . S
H105 C117 0.950 . S
H106 C114 0.950 . S
H107 C116 0.950 1_554 S
H108 C118 0.950 . S
H109 C120 0.950 1_565 S
H110 C122 0.950 1_556 S
H111 C123 0.950 . S
C112 H104 0.950 . S
C112 C113 1.386 . S
C112 C114 1.391 1_565 S
C113 C112 1.386 . S
C113 C117 1.393 . S
C114 H106 0.950 . S
C114 C112 1.391 1_545 S
C114 C115 1.400 . S
C115 C114 1.400 . S
C115 C116 1.398 1_545 S
C115 C121 1.491 1_556 S
C116 H107 0.950 1_556 S
C116 C115 1.398 1_565 S
C116 C117 1.391 . S
C117 H105 0.950 . S
C117 C113 1.393 . S
C117 C116 1.391 . S
C118 H108 0.950 . S
C118 C119 1.386 . S
C118 C120 1.391 . S
C119 C118 1.386 . S
C119 C123 1.393 . S
C120 H109 0.950 1_545 S
C120 C118 1.391 . S
C120 C121 1.400 . S
C121 C115 1.491 1_554 S
C121 C120 1.400 . S
C121 C122 1.398 . S
C122 H110 0.950 1_554 S
C122 C121 1.398 . S
C122 C123 1.391 . S
C123 H111 0.950 . S
C123 C119 1.393 . S
C123 C122 1.391 . S
H124 C132 0.950 . S
H125 C137 0.950 . S
H126 C134 0.950 . S
H127 C136 0.950 . S
H128 C138 0.950 . S
H129 C140 0.950 . S
H130 C142 0.950 . S
H131 C143 0.950 . S
C132 H124 0.950 . S
C132 C133 1.386 . S
C132 C134 1.391 . S
C133 C132 1.386 . S
C133 C137 1.393 . S
C134 H126 0.950 . S
C134 C132 1.391 . S
C134 C135 1.400 . S
C135 C134 1.400 . S
C135 C136 1.398 . S
C135 C141 1.491 . S
C136 H127 0.950 . S
C136 C135 1.398 . S
C136 C137 1.391 . S
C137 H125 0.950 . S
C137 C133 1.393 . S
C137 C136 1.391 . S
C138 H128 0.950 . S
C138 C139 1.386 . S
C138 C140 1.391 . S
C139 C138 1.386 . S
C139 C143 1.393 . S
C140 H129 0.950 . S
C140 C138 1.391 . S
C140 C141 1.400 . S
C141 C135 1.491 . S
C141 C140 1.400 . S
C141 C142 1.398 . S
C142 H130 0.950 . S
C142 C141 1.398 . S
C142 C143 1.391 . S
C143 H131 0.950 . S
C143 C139 1.393 . S
C143 C142 1.391 . S
H144 C152 0.950 . S
H145 C157 0.950 . S
H146 C154 0.950 . S
H147 C156 0.950 . S
H148 C158 0.950 . S
H149 C160 0.950 . S
H150 C162 0.950 1_655 S
H151 C163 0.950 . S
C152 H144 0.950 . S
C152 C153 1.386 . S
C152 C154 1.391 . S
C153 C152 1.386 . S
C153 C157 1.393 . S
C154 H146 0.950 . S
C154 C152 1.391 . S
C154 C155 1.400 . S
C155 C154 1.400 . S
C155 C156 1.398 . S
C155 C161 1.491 . S
C156 H147 0.950 . S
C156 C155 1.398 . S
C156 C157 1.391 . S
C157 H145 0.950 . S
C157 C153 1.393 . S
C157 C156 1.391 . S
C158 H148 0.950 . S
C158 C159 1.386 . S
C158 C160 1.391 . S
C159 C158 1.386 . S
C159 C163 1.393 . S
C160 H149 0.950 . S
C160 C158 1.391 . S
C160 C161 1.400 1_455 S
C161 C155 1.491 . S
C161 C160 1.400 1_655 S
C161 C162 1.398 1_655 S
C162 H150 0.950 1_455 S
C162 C161 1.398 1_455 S
C162 C163 1.391 . S
C163 H151 0.950 . S
C163 C159 1.393 . S
C163 C162 1.391 . S
H164 C172 0.950 . S
H165 C177 0.950 . S
H166 C174 0.950 . S
H167 C176 0.933 1_565 S
H168 C178 0.950 . S
H169 C180 0.950 . S
H170 C182 0.950 . S
H171 C183 0.950 . S
C172 H164 0.950 . S
C172 C173 1.386 . S
C172 C174 1.391 . S
C173 C172 1.386 . S
C173 C177 1.393 . S
C174 H166 0.950 . S
C174 C172 1.391 . S
C174 C175 1.400 1_545 S
C175 C174 1.400 1_565 S
C175 C176 1.398 1_565 S
C175 C181 1.491 . S
C176 H167 0.933 1_545 S
C176 C175 1.398 1_545 S
C176 C177 1.391 . S
C177 H165 0.950 . S
C177 C173 1.393 . S
C177 C176 1.391 . S
C178 H168 0.950 . S
C178 C179 1.386 . S
C178 C180 1.391 . S
C179 C178 1.386 . S
C179 C183 1.393 . S
C180 H169 0.950 . S
C180 C178 1.391 . S
C180 C181 1.400 . S
C181 C175 1.491 . S
C181 C180 1.400 . S
C181 C182 1.398 . S
C182 H170 0.950 . S
C182 C181 1.398 . S
C182 C183 1.391 . S
C183 H171 0.950 . S
C183 C179 1.393 . S
C183 C182 1.391 . S
H184 C192 0.950 . S
H185 C197 0.950 . S
H186 C194 0.950 . S
H187 C196 0.950 . S
H188 C198 0.950 . S
H189 C200 0.950 . S
H190 C202 0.950 . S
H191 C203 0.950 . S
C192 H184 0.950 . S
C192 C193 1.386 . S
C192 C194 1.391 . S
C193 C192 1.386 . S
C193 C197 1.393 . S
C194 H186 0.950 . S
C194 C192 1.391 . S
C194 C195 1.400 . S
C195 C194 1.400 . S
C195 C196 1.398 . S
C195 C201 1.491 . S
C196 H187 0.950 . S
C196 C195 1.398 . S
C196 C197 1.391 . S
C197 H185 0.950 . S
C197 C193 1.393 . S
C197 C196 1.391 . S
C198 H188 0.950 . S
C198 C199 1.386 . S
C198 C200 1.391 . S
C199 C198 1.386 . S
C199 C203 1.393 . S
C200 H189 0.950 . S
C200 C198 1.391 . S
C200 C201 1.400 . S
C201 C195 1.491 . S
C201 C200 1.400 . S
C201 C202 1.398 . S
C202 H190 0.950 . S
C202 C201 1.398 . S
C202 C203 1.391 . S
C203 H191 0.950 . S
C203 C199 1.393 . S
C203 C202 1.391 . S
H204 C212 0.950 . S
H205 C217 0.950 . S
H206 C214 0.950 . S
H207 C216 0.950 . S
H208 C218 0.950 . S
H209 C220 0.950 . S
H210 C222 0.950 . S
H211 C223 0.950 . S
C212 H204 0.950 . S
C212 C213 1.386 . S
C212 C214 1.391 . S
C213 C212 1.386 . S
C213 C217 1.393 . S
C214 H206 0.950 . S
C214 C212 1.391 . S
C214 C215 1.400 . S
C215 C214 1.400 . S
C215 C216 1.398 . S
C215 C221 1.491 . S
C216 H207 0.950 . S
C216 C215 1.398 . S
C216 C217 1.391 . S
C217 H205 0.950 . S
C217 C213 1.393 . S
C217 C216 1.391 . S
C218 H208 0.950 . S
C218 C219 1.386 . S
C218 C220 1.391 . S
C219 C218 1.386 . S
C219 C223 1.393 . S
C220 H209 0.950 . S
C220 C218 1.391 . S
C220 C221 1.400 . S
C221 C215 1.491 . S
C221 C220 1.400 . S
C221 C222 1.398 . S
C222 H210 0.950 . S
C222 C221 1.398 . S
C222 C223 1.391 . S
C223 H211 0.950 . S
C223 C219 1.393 . S
C223 C222 1.391 . S
H224 C232 0.950 . S
H225 C237 0.950 . S
H226 C234 0.950 . S
H227 C236 0.950 . S
H228 C238 0.950 . S
H229 C240 0.950 . S
H230 C242 0.950 . S
H231 C243 0.950 . S
C232 H224 0.950 . S
C232 C233 1.386 . S
C232 C234 1.391 . S
C233 C232 1.386 . S
C233 C237 1.393 . S
C234 H226 0.950 . S
C234 C232 1.391 . S
C234 C235 1.400 . S
C235 C234 1.400 . S
C235 C236 1.398 . S
C235 C241 1.491 . S
C236 H227 0.950 . S
C236 C235 1.398 . S
C236 C237 1.391 . S
C237 H225 0.950 . S
C237 C233 1.393 . S
C237 C236 1.391 . S
C238 H228 0.950 . S
C238 C239 1.386 . S
C238 C240 1.391 . S
C239 C238 1.386 . S
C239 C243 1.393 . S
C240 H229 0.950 . S
C240 C238 1.391 . S
C240 C241 1.400 . S
C241 C235 1.491 . S
C241 C240 1.400 . S
C241 C242 1.398 . S
C242 H230 0.950 . S
C242 C241 1.398 . S
C242 C243 1.391 . S
C243 H231 0.950 . S
C243 C239 1.393 . S
C243 C242 1.391 . S
H244 C252 0.950 . S
H245 C257 0.950 . S
H246 C254 0.950 . S
H247 C256 0.950 . S
H248 C258 0.950 . S
H249 C260 0.950 . S
H250 C262 0.950 . S
H251 C263 0.950 . S
C252 H244 0.950 . S
C252 C253 1.386 . S
C252 C254 1.391 . S
C253 C252 1.386 . S
C253 C257 1.393 . S
C254 H246 0.950 . S
C254 C252 1.391 . S
C254 C255 1.400 . S
C255 C254 1.400 . S
C255 C256 1.398 . S
C255 C261 1.491 . S
C256 H247 0.950 . S
C256 C255 1.398 . S
C256 C257 1.391 . S
C257 H245 0.950 . S
C257 C253 1.393 . S
C257 C256 1.391 . S
C258 H248 0.950 . S
C258 C259 1.386 . S
C258 C260 1.391 . S
C259 C258 1.386 . S
C259 C263 1.393 . S
C260 H249 0.950 . S
C260 C258 1.391 . S
C260 C261 1.400 . S
C261 C255 1.491 . S
C261 C260 1.400 . S
C261 C262 1.398 . S
C262 H250 0.950 . S
C262 C261 1.398 . S
C262 C263 1.391 . S
C263 H251 0.950 . S
C263 C259 1.393 . S
C263 C262 1.391 . S
H264 C272 0.950 . S
H265 C277 0.950 . S
H266 C274 0.950 . S
H267 C276 0.950 . S
H268 C278 0.950 . S
H269 C280 0.950 . S
H270 C282 0.950 . S
H271 C283 0.950 . S
C272 H264 0.950 . S
C272 C273 1.386 . S
C272 C274 1.391 . S
C273 C272 1.386 . S
C273 C277 1.393 . S
C274 H266 0.950 . S
C274 C272 1.391 . S
C274 C275 1.400 . S
C275 C274 1.400 . S
C275 C276 1.398 . S
C275 C281 1.491 . S
C276 H267 0.950 . S
C276 C275 1.398 . S
C276 C277 1.391 . S
C277 H265 0.950 . S
C277 C273 1.393 . S
C277 C276 1.391 . S
C278 H268 0.950 . S
C278 C279 1.386 . S
C278 C280 1.391 . S
C279 C278 1.386 . S
C279 C283 1.393 . S
C280 H269 0.950 . S
C280 C278 1.391 . S
C280 C281 1.400 . S
C281 C275 1.491 . S
C281 C280 1.400 . S
C281 C282 1.398 . S
C282 H270 0.950 . S
C282 C281 1.398 . S
C282 C283 1.391 . S
C283 H271 0.950 . S
C283 C279 1.393 . S
C283 C282 1.391 . S
H284 C292 0.950 . S
H285 C297 0.950 . S
H286 C294 0.950 . S
H287 C296 0.950 . S
H288 C298 0.950 . S
H289 C300 0.950 1_554 S
H290 C302 0.950 . S
H291 C303 0.950 . S
C292 H284 0.950 . S
C292 C293 1.386 . S
C292 C294 1.391 . S
C293 C292 1.386 . S
C293 C297 1.393 . S
C294 H286 0.950 . S
C294 C292 1.391 . S
C294 C295 1.400 . S
C295 C294 1.400 . S
C295 C296 1.398 . S
C295 C301 1.491 . S
C296 H287 0.950 . S
C296 C295 1.398 . S
C296 C297 1.391 . S
C297 H285 0.950 . S
C297 C293 1.393 . S
C297 C296 1.391 . S
C298 H288 0.950 . S
C298 C299 1.386 1_554 S
C298 C300 1.391 1_554 S
C299 C298 1.386 1_556 S
C299 C303 1.393 . S
C300 H289 0.950 1_556 S
C300 C298 1.391 1_556 S
C300 C301 1.400 . S
C301 C295 1.491 . S
C301 C300 1.400 . S
C301 C302 1.398 . S
C302 H290 0.950 . S
C302 C301 1.398 . S
C302 C303 1.391 . S
C303 H291 0.950 . S
C303 C299 1.393 . S
C303 C302 1.391 . S
H304 C312 0.950 . S
H305 C317 0.950 . S
H306 C314 0.950 . S
H307 C316 0.950 1_556 S
H308 C318 0.950 . S
H309 C320 0.950 . S
H310 C322 0.950 . S
H311 C323 0.950 . S
C312 H304 0.950 . S
C312 C313 1.386 1_554 S
C312 C314 1.391 . S
C313 C312 1.386 1_556 S
C313 C317 1.393 . S
C314 H306 0.950 . S
C314 C312 1.391 . S
C314 C315 1.400 . S
C315 C314 1.400 . S
C315 C316 1.398 . S
C315 C321 1.491 . S
C316 H307 0.950 1_554 S
C316 C315 1.398 . S
C316 C317 1.391 1_554 S
C317 H305 0.950 . S
C317 C313 1.393 . S
C317 C316 1.391 1_556 S
C318 H308 0.950 . S
C318 C319 1.386 . S
C318 C320 1.391 . S
C319 C318 1.386 . S
C319 C323 1.393 . S
C320 H309 0.950 . S
C320 C318 1.391 . S
C320 C321 1.400 . S
C321 C315 1.491 . S
C321 C320 1.400 . S
C321 C322 1.398 . S
C322 H310 0.950 . S
C322 C321 1.398 . S
C322 C323 1.391 . S
C323 H311 0.950 . S
C323 C319 1.393 . S
C323 C322 1.391 . S
C93 C8 1.425 1_556 S
C99 C48 1.464 . S
C113 C62 1.483 . S
C119 C22 1.445 . S
C133 C36 1.418 . S
C139 C76 1.465 . S
C153 C50 1.428 . S
C159 C6 1.474 . S
C173 C20 1.476 . S
C179 C64 1.431 . S
C193 C78 1.418 . S
C199 C34 1.461 . S
C213 C7 1.384 . S
C219 C37 1.369 . S
C233 C21 1.372 . S
C239 C51 1.382 . S
C253 C65 1.378 . S
C259 C35 1.383 . S
C273 C79 1.370 . S
C279 C49 1.386 . S
C293 C63 1.378 . S
C299 C9 1.383 1_556 S
C313 C77 1.384 . S
C319 C23 1.369 . S
